CHEMBL179816


 35 38  0  0  0  0  0  0  0  0999 V2000
  -23.1616   -1.0843  -13.8237 C   0  0  0  0  0  0  0  0  0  0  0  0
  -24.3805   -0.9848  -14.4834 C   0  0  0  0  0  0  0  0  0  0  0  0
  -25.5587   -1.3102  -13.8049 C   0  0  0  0  0  0  0  0  0  0  0  0
  -25.5392   -1.8113  -12.4963 C   0  0  0  0  0  0  0  0  0  0  0  0
  -24.2954   -2.0920  -11.9214 C   0  0  0  0  0  0  0  0  0  0  0  0
  -23.1122   -1.7215  -12.5808 C   0  0  0  0  0  0  0  0  0  0  0  0
  -26.7173   -2.0172  -11.7249 N   0  0  0  0  0  0  0  0  0  0  0  0
  -26.7681   -1.9739  -10.3423 C   0  0  0  0  0  0  0  0  0  0  0  0
  -25.7883   -1.7874   -9.6238 O   0  0  0  0  0  0  0  0  0  0  0  0
  -28.0381   -2.1849   -9.8227 N   0  0  0  0  0  0  0  0  0  0  0  0
  -27.5304   -2.3577  -12.2170 H   0  0  0  0  0  0  0  0  0  0  0  0
  -28.6637   -2.7586  -10.3676 H   0  0  0  0  0  0  0  0  0  0  0  0
  -28.3363   -2.0262   -8.4392 C   0  0  0  0  0  0  0  0  0  0  0  0
  -28.1035   -0.8235   -7.7592 C   0  0  0  0  0  0  0  0  0  0  0  0
  -28.3245   -0.7274   -6.3879 C   0  0  0  0  0  0  0  0  0  0  0  0
  -28.0527    0.4236   -5.7584 F   0  0  0  0  0  0  0  0  0  0  0  0
  -28.8111   -1.8038   -5.6683 C   0  0  0  0  0  0  0  0  0  0  0  0
  -29.0947   -2.9767   -6.3481 C   0  0  0  0  0  0  0  0  0  0  0  0
  -29.5752   -4.0249   -5.6668 F   0  0  0  0  0  0  0  0  0  0  0  0
  -28.8734   -3.0983   -7.7252 C   0  0  0  0  0  0  0  0  0  0  0  0
  -21.9816   -0.5564  -14.2913 O   0  0  0  0  0  0  0  0  0  0  0  0
  -18.1364    2.9562  -14.9745 C   0  0  0  0  0  0  0  0  0  0  0  0
  -19.3623    3.5927  -14.7139 C   0  0  0  0  0  0  0  0  0  0  0  0
  -20.5468    2.8904  -14.5047 C   0  0  0  0  0  0  0  0  0  0  0  0
  -21.6326    3.5930  -14.1463 N   0  0  0  0  0  0  0  0  0  0  0  0
  -22.7723    2.9202  -13.8711 C   0  0  0  0  0  0  0  0  0  0  0  0
  -22.8715    1.5507  -13.9136 C   0  0  0  0  0  0  0  0  0  0  0  0
  -21.7500    0.8115  -14.2863 C   0  0  0  0  0  0  0  0  0  0  0  0
  -20.5481    1.4915  -14.6440 C   0  0  0  0  0  0  0  0  0  0  0  0
  -19.3510    0.8915  -15.0974 C   0  0  0  0  0  0  0  0  0  0  0  0
  -18.1348    1.5790  -15.1778 C   0  0  0  0  0  0  0  0  0  0  0  0
  -16.4817    3.8916  -16.3952 C   0  0  0  0  0  0  0  0  0  0  0  0
  -16.9602    3.6525  -15.0709 O   0  0  0  0  0  0  0  0  0  0  0  0
  -17.0984    0.7297  -15.4362 O   0  0  0  0  0  0  0  0  0  0  0  0
  -16.2528    0.2813  -14.3906 C   0  0  0  0  0  0  0  0  0  0  0  0
 32 33  1  0  0  0
 33 22  1  0  0  0
 22 23  1  0  0  0
 22 31  2  0  0  0
 23 24  2  0  0  0
 24 25  1  0  0  0
 24 29  1  0  0  0
 25 26  2  0  0  0
 26 27  1  0  0  0
 27 28  2  0  0  0
 28 21  1  0  0  0
 28 29  1  0  0  0
 21  1  1  0  0  0
  1  2  1  0  0  0
  1  6  2  0  0  0
  2  3  2  0  0  0
  3  4  1  0  0  0
  4  7  1  0  0  0
  4  5  2  0  0  0
  7  8  1  0  0  0
  7 11  1  0  0  0
  8  9  2  0  0  0
  8 10  1  0  0  0
 10 13  1  0  0  0
 10 12  1  0  0  0
 13 14  1  0  0  0
 13 20  2  0  0  0
 14 15  2  0  0  0
 15 16  1  0  0  0
 15 17  1  0  0  0
 17 18  2  0  0  0
 18 19  1  0  0  0
 18 20  1  0  0  0
  5  6  1  0  0  0
 29 30  2  0  0  0
 30 31  1  0  0  0
 31 34  1  0  0  0
 34 35  1  0  0  0
M  END
> <minimizedAffinity>
-10.85854

$$$$
