CHEMBL4086694


 41 45  0  0  0  0  0  0  0  0999 V2000
  -28.7368   -8.3454   -5.0977 N   0  0  0  0  0  0  0  0  0  0  0  0
  -29.0508   -7.9335   -6.3764 C   0  0  0  0  0  0  0  0  0  0  0  0
  -28.4121   -8.1391   -7.4006 O   0  0  0  0  0  0  0  0  0  0  0  0
  -29.4387   -8.2140   -4.3782 H   0  0  0  0  0  0  0  0  0  0  0  0
  -25.0897  -10.3086   -4.1126 C   0  0  0  0  0  0  0  0  0  0  0  0
  -25.2434   -8.9358   -3.9012 C   0  0  0  0  0  0  0  0  0  0  0  0
  -26.4224   -8.2666   -4.2549 C   0  0  0  0  0  0  0  0  0  0  0  0
  -27.5329   -8.9721   -4.7147 C   0  0  0  0  0  0  0  0  0  0  0  0
  -27.4589  -10.3621   -4.7708 C   0  0  0  0  0  0  0  0  0  0  0  0
  -26.2438  -11.0145   -4.5070 C   0  0  0  0  0  0  0  0  0  0  0  0
  -23.8779  -10.8740   -7.2759 N   0  0  0  0  0  0  0  0  0  0  0  0
  -22.9674  -11.4143   -6.4581 C   0  0  0  0  0  0  0  0  0  0  0  0
  -21.8880  -11.9910   -6.9798 N   0  0  0  0  0  0  0  0  0  0  0  0
  -21.2068  -12.4169   -5.9171 N   0  0  0  0  0  0  0  0  0  0  0  0
  -21.7903  -12.1242   -4.7160 C   0  0  0  0  0  0  0  0  0  0  0  0
  -21.3538  -12.4171   -3.4217 C   0  0  0  0  0  0  0  0  0  0  0  0
  -22.1470  -11.9812   -2.3693 C   0  0  0  0  0  0  0  0  0  0  0  0
  -23.3279  -11.2843   -2.6149 C   0  0  0  0  0  0  0  0  0  0  0  0
  -23.7934  -10.9978   -3.9259 C   0  0  0  0  0  0  0  0  0  0  0  0
  -22.9753  -11.4401   -5.0171 C   0  0  0  0  0  0  0  0  0  0  0  0
  -23.7247  -10.9508   -8.2741 H   0  0  0  0  0  0  0  0  0  0  0  0
  -24.8228  -10.6449   -7.0022 H   0  0  0  0  0  0  0  0  0  0  0  0
  -20.3335  -12.9059   -6.0740 H   0  0  0  0  0  0  0  0  0  0  0  0
  -30.2836   -7.0961   -6.4793 C   0  0  0  0  0  0  0  0  0  0  0  0
  -31.6241   -7.6092   -5.9579 C   0  0  0  0  0  0  0  0  0  0  0  0
  -31.3768   -7.5864   -7.4322 C   0  0  0  0  0  0  0  0  0  0  0  0
  -30.0338   -5.6244   -6.4082 C   0  0  0  0  0  0  0  0  0  0  0  0
  -30.6604   -4.9682   -5.5866 O   0  0  0  0  0  0  0  0  0  0  0  0
  -29.0659   -5.1805   -7.2868 N   0  0  0  0  0  0  0  0  0  0  0  0
  -28.6034   -5.8948   -7.8441 H   0  0  0  0  0  0  0  0  0  0  0  0
  -28.6312   -3.8501   -7.4576 C   0  0  0  0  0  0  0  0  0  0  0  0
  -28.0441   -3.3876   -8.6311 C   0  0  0  0  0  0  0  0  0  0  0  0
  -27.6172   -2.0652   -8.7384 C   0  0  0  0  0  0  0  0  0  0  0  0
  -26.8115   -1.4669  -10.3414 Br  0  0  0  0  0  0  0  0  0  0  0  0
  -27.7775   -1.1828   -7.6760 C   0  0  0  0  0  0  0  0  0  0  0  0
  -28.3858   -1.6183   -6.4908 C   0  0  0  0  0  0  0  0  0  0  0  0
  -28.8047   -2.9601   -6.3894 C   0  0  0  0  0  0  0  0  0  0  0  0
  -28.5963   -0.6630   -5.3425 C   0  0  0  0  0  0  0  0  0  0  0  0
  -27.7232   -0.8502   -4.3142 F   0  0  0  0  0  0  0  0  0  0  0  0
  -28.4562    0.6374   -5.7185 F   0  0  0  0  0  0  0  0  0  0  0  0
  -29.8406   -0.7662   -4.8008 F   0  0  0  0  0  0  0  0  0  0  0  0
 11 12  1  0  0  0
 11 21  1  0  0  0
 11 22  1  0  0  0
 12 13  2  0  0  0
 12 20  1  0  0  0
 13 14  1  0  0  0
 14 15  1  0  0  0
 14 23  1  0  0  0
 15 16  1  0  0  0
 15 20  2  0  0  0
 16 17  2  0  0  0
 17 18  1  0  0  0
 18 19  2  0  0  0
 19  5  1  0  0  0
 19 20  1  0  0  0
  5  6  1  0  0  0
  5 10  2  0  0  0
  6  7  2  0  0  0
  7  8  1  0  0  0
  8  1  1  0  0  0
  8  9  2  0  0  0
  1  2  1  0  0  0
  1  4  1  0  0  0
  2  3  2  0  0  0
  2 24  1  0  0  0
 24 27  1  0  0  0
 24 25  1  0  0  0
 24 26  1  0  0  0
 27 28  2  0  0  0
 27 29  1  0  0  0
 29 31  1  0  0  0
 29 30  1  0  0  0
 31 32  1  0  0  0
 31 37  2  0  0  0
 32 33  2  0  0  0
 33 34  1  0  0  0
 33 35  1  0  0  0
 35 36  2  0  0  0
 36 38  1  0  0  0
 36 37  1  0  0  0
 38 39  1  0  0  0
 38 40  1  0  0  0
 38 41  1  0  0  0
 25 26  1  0  0  0
  9 10  1  0  0  0
M  END
> <minimizedAffinity>
-9.62415

$$$$
