CHEMBL2063321


 41 45  0  0  0  0  0  0  0  0999 V2000
  -24.9584   -1.1525  -11.7486 C   0  0  0  0  0  0  0  0  0  0  0  0
  -23.9022   -0.2783  -11.8118 C   0  0  0  0  0  0  0  0  0  0  0  0
  -23.6312   -0.0741  -13.1905 C   0  0  0  0  0  0  0  0  0  0  0  0
  -24.4847   -0.7923  -13.9410 N   0  0  0  0  0  0  0  0  0  0  0  0
  -25.2516   -1.4426  -13.0529 N   0  0  0  0  0  0  0  0  0  0  0  0
  -25.9777   -2.0480  -13.4173 H   0  0  0  0  0  0  0  0  0  0  0  0
  -22.5857    0.7757  -13.7703 C   0  0  0  0  0  0  0  0  0  0  0  0
  -21.4560    0.2095  -14.3791 C   0  0  0  0  0  0  0  0  0  0  0  0
  -20.4638    1.0162  -14.9363 C   0  0  0  0  0  0  0  0  0  0  0  0
  -20.5719    2.4106  -14.8864 C   0  0  0  0  0  0  0  0  0  0  0  0
  -21.7008    2.9822  -14.2880 C   0  0  0  0  0  0  0  0  0  0  0  0
  -22.6977    2.1737  -13.7331 C   0  0  0  0  0  0  0  0  0  0  0  0
  -19.4991    3.2710  -15.4924 C   0  0  0  0  0  0  0  0  0  0  0  0
  -18.2756    2.5371  -15.6905 N   0  0  0  0  0  0  0  0  0  0  0  0
  -17.0865    3.1664  -15.9135 C   0  0  0  0  0  0  0  0  0  0  0  0
  -16.9169    4.3756  -15.8189 O   0  0  0  0  0  0  0  0  0  0  0  0
  -18.2950    1.5326  -15.7735 H   0  0  0  0  0  0  0  0  0  0  0  0
  -16.1406    2.2355  -16.3145 O   0  0  0  0  0  0  0  0  0  0  0  0
  -15.5965    1.4053  -15.3189 C   0  0  0  0  0  0  0  0  0  0  0  0
  -14.3225    1.7143  -14.8451 C   0  0  0  0  0  0  0  0  0  0  0  0
  -13.7796    0.9638  -13.7985 C   0  0  0  0  0  0  0  0  0  0  0  0
  -14.5124   -0.0794  -13.2278 C   0  0  0  0  0  0  0  0  0  0  0  0
  -15.7933   -0.3708  -13.6955 C   0  0  0  0  0  0  0  0  0  0  0  0
  -16.3430    0.3814  -14.7308 C   0  0  0  0  0  0  0  0  0  0  0  0
  -27.0244   -1.6121  -10.4561 C   0  0  0  0  0  0  0  0  0  0  0  0
  -27.7493   -1.1315  -11.3119 O   0  0  0  0  0  0  0  0  0  0  0  0
  -25.5943   -1.6639  -10.6234 N   0  0  0  0  0  0  0  0  0  0  0  0
  -25.0179   -2.0684   -9.8997 H   0  0  0  0  0  0  0  0  0  0  0  0
  -28.6761   -3.3221   -6.8647 C   0  0  0  0  0  0  0  0  0  0  0  0
  -28.3021   -1.9684   -6.9132 C   0  0  0  0  0  0  0  0  0  0  0  0
  -27.7643   -1.3830   -8.0622 C   0  0  0  0  0  0  0  0  0  0  0  0
  -27.5911   -2.1589   -9.2054 C   0  0  0  0  0  0  0  0  0  0  0  0
  -27.9415   -3.5132   -9.1790 C   0  0  0  0  0  0  0  0  0  0  0  0
  -28.4835   -4.0810   -8.0239 C   0  0  0  0  0  0  0  0  0  0  0  0
  -32.0547   -5.1298   -2.8231 C   0  0  0  0  0  0  0  0  0  0  0  0
  -30.7761   -4.7980   -3.4473 N   0  0  0  0  0  0  0  0  0  0  0  0
  -30.5577   -5.6245   -4.6575 C   0  0  0  0  0  0  0  0  0  0  0  0
  -29.2474   -5.2665   -5.4030 C   0  0  0  0  0  0  0  0  0  0  0  0
  -29.2617   -3.8307   -5.7263 N   0  0  0  0  0  0  0  0  0  0  0  0
  -29.4271   -2.9762   -4.5355 C   0  0  0  0  0  0  0  0  0  0  0  0
  -30.7360   -3.3632   -3.8114 C   0  0  0  0  0  0  0  0  0  0  0  0
 35 36  1  0  0  0
 36 37  1  0  0  0
 36 41  1  0  0  0
 37 38  1  0  0  0
 38 39  1  0  0  0
 39 29  1  0  0  0
 39 40  1  0  0  0
 29 30  1  0  0  0
 29 34  2  0  0  0
 30 31  2  0  0  0
 31 32  1  0  0  0
 32 25  1  0  0  0
 32 33  2  0  0  0
 25 26  2  0  0  0
 25 27  1  0  0  0
 27  1  1  0  0  0
 27 28  1  0  0  0
  1  2  2  0  0  0
  1  5  1  0  0  0
  2  3  1  0  0  0
  3  7  1  0  0  0
  3  4  2  0  0  0
  7  8  1  0  0  0
  7 12  2  0  0  0
  8  9  2  0  0  0
  9 10  1  0  0  0
 10 13  1  0  0  0
 10 11  2  0  0  0
 13 14  1  0  0  0
 14 15  1  0  0  0
 14 17  1  0  0  0
 15 16  2  0  0  0
 15 18  1  0  0  0
 18 19  1  0  0  0
 19 20  1  0  0  0
 19 24  2  0  0  0
 20 21  2  0  0  0
 21 22  1  0  0  0
 22 23  2  0  0  0
 23 24  1  0  0  0
 11 12  1  0  0  0
  4  5  1  0  0  0
  5  6  1  0  0  0
 33 34  1  0  0  0
 40 41  1  0  0  0
M  END
> <minimizedAffinity>
-11.03795

$$$$
