CHEMBL1241300


 23 25  0  0  0  0  0  0  0  0999 V2000
  -17.6139    2.7287  -15.5487 C   0  0  0  0  0  0  0  0  0  0  0  0
  -17.3998    3.9317  -16.1174 N   0  0  0  0  0  0  0  0  0  0  0  0
  -16.0678    3.9830  -16.2910 N   0  0  0  0  0  0  0  0  0  0  0  0
  -15.4169    2.8575  -15.8915 C   0  0  0  0  0  0  0  0  0  0  0  0
  -14.0944    2.6424  -15.9564 N   0  0  0  0  0  0  0  0  0  0  0  0
  -13.7790    1.4257  -15.4811 C   0  0  0  0  0  0  0  0  0  0  0  0
  -14.6177    0.4831  -15.0024 N   0  0  0  0  0  0  0  0  0  0  0  0
  -15.9375    0.7453  -14.9637 C   0  0  0  0  0  0  0  0  0  0  0  0
  -16.7471   -0.2757  -14.4834 N   0  0  0  0  0  0  0  0  0  0  0  0
  -16.3885    1.9978  -15.4140 C   0  0  0  0  0  0  0  0  0  0  0  0
  -15.6525    4.8152  -16.6894 H   0  0  0  0  0  0  0  0  0  0  0  0
  -16.2287   -1.1471  -14.4545 H   0  0  0  0  0  0  0  0  0  0  0  0
  -17.6602   -0.3364  -14.9201 H   0  0  0  0  0  0  0  0  0  0  0  0
  -21.5730    1.5414  -14.3853 C   0  0  0  0  0  0  0  0  0  0  0  0
  -20.6425    0.5903  -14.8103 C   0  0  0  0  0  0  0  0  0  0  0  0
  -19.3487    0.9798  -15.1840 C   0  0  0  0  0  0  0  0  0  0  0  0
  -18.9708    2.3291  -15.1612 C   0  0  0  0  0  0  0  0  0  0  0  0
  -19.9202    3.2813  -14.7788 C   0  0  0  0  0  0  0  0  0  0  0  0
  -21.1910    2.8875  -14.3621 C   0  0  0  0  0  0  0  0  0  0  0  0
  -22.0787    3.8355  -13.9234 O   0  0  0  0  0  0  0  0  0  0  0  0
  -21.6545    4.7084  -13.9464 H   0  0  0  0  0  0  0  0  0  0  0  0
  -23.2855   -0.0799  -14.0671 C   0  0  0  0  0  0  0  0  0  0  0  0
  -22.8538    1.2702  -13.9866 O   0  0  0  0  0  0  0  0  0  0  0  0
 22 23  1  0  0  0
 23 14  1  0  0  0
 14 15  1  0  0  0
 14 19  2  0  0  0
 15 16  2  0  0  0
 16 17  1  0  0  0
 17  1  1  0  0  0
 17 18  2  0  0  0
  1  2  2  0  0  0
  1 10  1  0  0  0
  2  3  1  0  0  0
  3  4  1  0  0  0
  3 11  1  0  0  0
  4  5  1  0  0  0
  4 10  2  0  0  0
  5  6  2  0  0  0
  6  7  1  0  0  0
  7  8  2  0  0  0
  8  9  1  0  0  0
  8 10  1  0  0  0
  9 12  1  0  0  0
  9 13  1  0  0  0
 18 19  1  0  0  0
 19 20  1  0  0  0
 20 21  1  0  0  0
M  END
> <minimizedAffinity>
-7.97719

$$$$
