CHEMBL3690481


 23 25  0  0  0  0  0  0  0  0999 V2000
  -30.5556   -8.3127   -6.8305 C   0  0  0  0  0  0  0  0  0  0  0  0
  -29.6251   -8.3135   -7.8693 C   0  0  0  0  0  0  0  0  0  0  0  0
  -28.7606   -7.2372   -8.0396 C   0  0  0  0  0  0  0  0  0  0  0  0
  -28.8360   -6.1416   -7.1838 C   0  0  0  0  0  0  0  0  0  0  0  0
  -29.8339   -6.0568   -6.2041 C   0  0  0  0  0  0  0  0  0  0  0  0
  -30.6791   -7.1674   -6.0253 C   0  0  0  0  0  0  0  0  0  0  0  0
  -29.9742   -4.8599   -5.3606 C   0  0  0  0  0  0  0  0  0  0  0  0
  -30.6054   -4.7109   -4.1337 C   0  0  0  0  0  0  0  0  0  0  0  0
  -30.4872   -3.4390   -3.6375 N   0  0  0  0  0  0  0  0  0  0  0  0
  -29.7959   -2.7811   -4.5372 C   0  0  0  0  0  0  0  0  0  0  0  0
  -29.3518   -1.4258   -4.5561 C   0  0  0  0  0  0  0  0  0  0  0  0
  -28.6557   -0.9614   -5.6101 C   0  0  0  0  0  0  0  0  0  0  0  0
  -28.0976    0.6684   -5.6568 Cl  0  0  0  0  0  0  0  0  0  0  0  0
  -28.3677   -1.8076   -6.7545 C   0  0  0  0  0  0  0  0  0  0  0  0
  -28.8006   -3.0797   -6.7516 C   0  0  0  0  0  0  0  0  0  0  0  0
  -29.4837   -3.5834   -5.6384 N   0  0  0  0  0  0  0  0  0  0  0  0
  -32.9990  -10.9932   -6.7834 N   0  0  0  0  0  0  0  0  0  0  0  0
  -32.3814   -9.9145   -7.3447 C   0  0  0  0  0  0  0  0  0  0  0  0
  -32.7388   -9.5284   -8.4490 O   0  0  0  0  0  0  0  0  0  0  0  0
  -31.3794   -9.4227   -6.5469 N   0  0  0  0  0  0  0  0  0  0  0  0
  -33.7855  -11.3072   -7.3405 H   0  0  0  0  0  0  0  0  0  0  0  0
  -33.1923  -10.9425   -5.7946 H   0  0  0  0  0  0  0  0  0  0  0  0
  -31.0739  -10.0472   -5.8153 H   0  0  0  0  0  0  0  0  0  0  0  0
 17 18  1  0  0  0
 17 21  1  0  0  0
 17 22  1  0  0  0
 18 19  2  0  0  0
 18 20  1  0  0  0
 20  1  1  0  0  0
 20 23  1  0  0  0
  1  2  1  0  0  0
  1  6  2  0  0  0
  2  3  2  0  0  0
  3  4  1  0  0  0
  4  5  2  0  0  0
  5  7  1  0  0  0
  5  6  1  0  0  0
  7  8  2  0  0  0
  7 16  1  0  0  0
  8  9  1  0  0  0
  9 10  2  0  0  0
 10 11  1  0  0  0
 10 16  1  0  0  0
 11 12  2  0  0  0
 12 13  1  0  0  0
 12 14  1  0  0  0
 14 15  2  0  0  0
 15 16  1  0  0  0
M  END
> <minimizedAffinity>
-7.99548

$$$$
