CHEMBL302279


 33 37  0  0  0  0  0  0  0  0999 V2000
  -32.3875   -7.1584   -5.7600 N   0  0  0  0  0  0  0  0  0  0  0  0
  -31.9293   -8.0393   -6.7177 C   0  0  0  0  0  0  0  0  0  0  0  0
  -32.8018   -9.0125   -7.0454 N   0  0  0  0  0  0  0  0  0  0  0  0
  -32.4193   -9.9484   -7.9237 C   0  0  0  0  0  0  0  0  0  0  0  0
  -31.2486  -10.0434   -8.5593 N   0  0  0  0  0  0  0  0  0  0  0  0
  -30.4109   -9.0386   -8.2433 C   0  0  0  0  0  0  0  0  0  0  0  0
  -30.6686   -8.0056   -7.3574 C   0  0  0  0  0  0  0  0  0  0  0  0
  -29.5052   -7.1583   -7.3758 C   0  0  0  0  0  0  0  0  0  0  0  0
  -28.5772   -7.7193   -8.2619 C   0  0  0  0  0  0  0  0  0  0  0  0
  -29.1442   -8.8840   -8.7660 N   0  0  0  0  0  0  0  0  0  0  0  0
  -33.3932   -7.1733   -5.6547 H   0  0  0  0  0  0  0  0  0  0  0  0
  -31.8906   -6.3096   -5.5599 H   0  0  0  0  0  0  0  0  0  0  0  0
  -29.2878   -5.8932   -6.6801 C   0  0  0  0  0  0  0  0  0  0  0  0
  -29.8763   -4.7096   -7.1382 C   0  0  0  0  0  0  0  0  0  0  0  0
  -29.6935   -3.5140   -6.4477 C   0  0  0  0  0  0  0  0  0  0  0  0
  -28.9031   -3.4870   -5.3002 C   0  0  0  0  0  0  0  0  0  0  0  0
  -28.2363   -4.6363   -4.8815 C   0  0  0  0  0  0  0  0  0  0  0  0
  -28.4771   -5.8441   -5.5368 C   0  0  0  0  0  0  0  0  0  0  0  0
  -28.7149   -2.3601   -4.5315 O   0  0  0  0  0  0  0  0  0  0  0  0
  -28.8648   -1.1354   -5.1480 C   0  0  0  0  0  0  0  0  0  0  0  0
  -29.9802   -0.3143   -4.9910 C   0  0  0  0  0  0  0  0  0  0  0  0
  -30.0927    0.8614   -5.7335 C   0  0  0  0  0  0  0  0  0  0  0  0
  -29.0540    1.2471   -6.5791 C   0  0  0  0  0  0  0  0  0  0  0  0
  -27.8984    0.4690   -6.6747 C   0  0  0  0  0  0  0  0  0  0  0  0
  -27.8018   -0.7240   -5.9584 C   0  0  0  0  0  0  0  0  0  0  0  0
  -28.5196   -9.8025   -9.7067 C   0  0  0  0  0  0  0  0  0  0  0  0
  -29.2087   -9.9269  -11.0689 C   0  0  0  0  0  0  0  0  0  0  0  0
  -28.6670  -11.2286  -11.6594 C   0  0  0  0  0  0  0  0  0  0  0  0
  -28.0563  -12.0177  -10.5003 C   0  0  0  0  0  0  0  0  0  0  0  0
  -28.4131  -11.2524   -9.2313 C   0  0  0  0  0  0  0  0  0  0  0  0
  -27.2352   -7.2301   -8.7086 C   0  0  0  0  0  0  0  0  0  0  0  0
  -27.3933   -5.8841   -9.1309 O   0  0  0  0  0  0  0  0  0  0  0  0
  -27.9515   -5.8934   -9.9230 H   0  0  0  0  0  0  0  0  0  0  0  0
  1  2  1  0  0  0
  1 11  1  0  0  0
  1 12  1  0  0  0
  2  3  1  0  0  0
  2  7  2  0  0  0
  3  4  2  0  0  0
  4  5  1  0  0  0
  5  6  2  0  0  0
  6  7  1  0  0  0
  6 10  1  0  0  0
  7  8  1  0  0  0
  8 13  1  0  0  0
  8  9  2  0  0  0
 13 14  1  0  0  0
 13 18  2  0  0  0
 14 15  2  0  0  0
 15 16  1  0  0  0
 16 19  1  0  0  0
 16 17  2  0  0  0
 19 20  1  0  0  0
 20 21  1  0  0  0
 20 25  2  0  0  0
 21 22  2  0  0  0
 22 23  1  0  0  0
 23 24  2  0  0  0
 24 25  1  0  0  0
 17 18  1  0  0  0
  9 31  1  0  0  0
  9 10  1  0  0  0
 31 32  1  0  0  0
 32 33  1  0  0  0
 10 26  1  0  0  0
 26 27  1  0  0  0
 26 30  1  0  0  0
 27 28  1  0  0  0
 28 29  1  0  0  0
 29 30  1  0  0  0
M  END
> <minimizedAffinity>
-8.81425

$$$$
