CHEMBL1945804


 33 36  0  0  0  0  0  0  0  0999 V2000
  -15.2545   -1.7074  -12.7541 C   0  0  0  0  0  0  0  0  0  0  0  0
  -16.1297   -2.3754  -13.5159 N   0  0  0  0  0  0  0  0  0  0  0  0
  -16.2404   -3.7005  -13.3022 C   0  0  0  0  0  0  0  0  0  0  0  0
  -15.5213   -4.3874  -12.3501 C   0  0  0  0  0  0  0  0  0  0  0  0
  -14.6298   -3.6341  -11.6173 C   0  0  0  0  0  0  0  0  0  0  0  0
  -14.5158   -2.3033  -11.8029 N   0  0  0  0  0  0  0  0  0  0  0  0
  -13.7387   -4.2274  -10.5974 C   0  0  0  0  0  0  0  0  0  0  0  0
  -13.5352   -3.5486   -9.3758 C   0  0  0  0  0  0  0  0  0  0  0  0
  -12.6818   -4.0531   -8.3895 C   0  0  0  0  0  0  0  0  0  0  0  0
  -11.9660   -5.2182   -8.6302 C   0  0  0  0  0  0  0  0  0  0  0  0
  -10.9429   -5.8690   -7.4102 Cl  0  0  0  0  0  0  0  0  0  0  0  0
  -12.1082   -5.8910   -9.8385 C   0  0  0  0  0  0  0  0  0  0  0  0
  -13.0311   -5.4393  -10.7947 C   0  0  0  0  0  0  0  0  0  0  0  0
  -13.2054   -6.2969  -11.9027 N   0  0  0  0  0  0  0  0  0  0  0  0
  -14.3825   -6.5762  -12.5423 C   0  0  0  0  0  0  0  0  0  0  0  0
  -14.4073   -7.8058  -13.6789 S   0  0  0  0  0  0  0  0  0  0  0  0
  -15.6503   -5.8571  -12.1360 C   0  0  0  0  0  0  0  0  0  0  0  0
  -12.4646   -6.9637  -12.1031 H   0  0  0  0  0  0  0  0  0  0  0  0
  -15.1301   -0.3413  -13.0407 N   0  0  0  0  0  0  0  0  0  0  0  0
  -14.8272    0.1277  -12.1970 H   0  0  0  0  0  0  0  0  0  0  0  0
  -13.9251    0.0596  -15.7264 C   0  0  0  0  0  0  0  0  0  0  0  0
  -15.2177    0.6870  -15.2880 C   0  0  0  0  0  0  0  0  0  0  0  0
  -15.7865    1.5113  -16.2102 N   0  0  0  0  0  0  0  0  0  0  0  0
  -16.9465    2.1180  -15.8859 C   0  0  0  0  0  0  0  0  0  0  0  0
  -17.6025    1.9248  -14.6844 C   0  0  0  0  0  0  0  0  0  0  0  0
  -17.0101    1.0478  -13.7723 C   0  0  0  0  0  0  0  0  0  0  0  0
  -15.7669    0.4530  -14.0099 C   0  0  0  0  0  0  0  0  0  0  0  0
  -18.8848    2.6355  -14.3493 C   0  0  0  0  0  0  0  0  0  0  0  0
  -20.0894    2.1898  -15.1946 C   0  0  0  0  0  0  0  0  0  0  0  0
  -20.6193    0.8006  -14.8027 C   0  0  0  0  0  0  0  0  0  0  0  0
  -21.6983    0.8467  -13.7959 N   0  0  0  0  0  0  0  0  0  0  0  0
  -22.5622    2.0179  -13.9698 C   0  0  0  0  0  0  0  0  0  0  0  0
  -22.5089   -0.3729  -13.8914 C   0  0  0  0  0  0  0  0  0  0  0  0
 21 22  1  0  0  0
 22 23  1  0  0  0
 22 27  2  0  0  0
 23 24  2  0  0  0
 24 25  1  0  0  0
 25 28  1  0  0  0
 25 26  2  0  0  0
 28 29  1  0  0  0
 29 30  1  0  0  0
 30 31  1  0  0  0
 31 32  1  0  0  0
 31 33  1  0  0  0
 26 27  1  0  0  0
 27 19  1  0  0  0
 19  1  1  0  0  0
 19 20  1  0  0  0
  1  2  1  0  0  0
  1  6  2  0  0  0
  2  3  2  0  0  0
  3  4  1  0  0  0
  4  5  2  0  0  0
  4 17  1  0  0  0
  5  6  1  0  0  0
  5  7  1  0  0  0
  7  8  1  0  0  0
  7 13  2  0  0  0
  8  9  2  0  0  0
  9 10  1  0  0  0
 10 11  1  0  0  0
 10 12  2  0  0  0
 12 13  1  0  0  0
 13 14  1  0  0  0
 14 15  1  0  0  0
 14 18  1  0  0  0
 15 16  2  0  0  0
 15 17  1  0  0  0
M  END
> <minimizedAffinity>
-8.48453

$$$$
