CHEMBL1242852


 31 34  0  0  0  0  0  0  0  0999 V2000
  -29.8672   -7.1932   -7.2113 C   0  0  0  0  0  0  0  0  0  0  0  0
  -29.6459   -5.9712   -7.8517 C   0  0  0  0  0  0  0  0  0  0  0  0
  -29.6088   -4.7534   -7.1573 C   0  0  0  0  0  0  0  0  0  0  0  0
  -29.9005   -4.7626   -5.7850 C   0  0  0  0  0  0  0  0  0  0  0  0
  -30.1699   -5.9715   -5.1236 C   0  0  0  0  0  0  0  0  0  0  0  0
  -30.4745   -5.6746   -3.7765 C   0  0  0  0  0  0  0  0  0  0  0  0
  -30.3984   -4.3156   -3.6387 C   0  0  0  0  0  0  0  0  0  0  0  0
  -30.0186   -3.7338   -4.8441 N   0  0  0  0  0  0  0  0  0  0  0  0
  -29.8455   -2.3419   -4.9634 C   0  0  0  0  0  0  0  0  0  0  0  0
  -30.0127   -1.6367   -3.9808 O   0  0  0  0  0  0  0  0  0  0  0  0
  -30.1256   -7.1879   -5.8352 C   0  0  0  0  0  0  0  0  0  0  0  0
  -29.1695   -9.9846   -9.2785 N   0  0  0  0  0  0  0  0  0  0  0  0
  -28.8716   -8.7510   -8.8077 N   0  0  0  0  0  0  0  0  0  0  0  0
  -29.8750   -8.4624   -7.9520 C   0  0  0  0  0  0  0  0  0  0  0  0
  -30.8442   -9.5154   -7.9210 C   0  0  0  0  0  0  0  0  0  0  0  0
  -32.0777   -9.8049   -7.3113 C   0  0  0  0  0  0  0  0  0  0  0  0
  -32.7849   -8.9567   -6.4752 N   0  0  0  0  0  0  0  0  0  0  0  0
  -32.6574  -10.9978   -7.5621 N   0  0  0  0  0  0  0  0  0  0  0  0
  -32.0402  -11.8569   -8.3939 C   0  0  0  0  0  0  0  0  0  0  0  0
  -30.8864  -11.6790   -9.0508 N   0  0  0  0  0  0  0  0  0  0  0  0
  -30.3312  -10.4852   -8.7718 C   0  0  0  0  0  0  0  0  0  0  0  0
  -32.6763   -7.9693   -6.6667 H   0  0  0  0  0  0  0  0  0  0  0  0
  -33.7354   -9.2773   -6.3443 H   0  0  0  0  0  0  0  0  0  0  0  0
  -28.8052  -10.3339  -11.7001 C   0  0  0  0  0  0  0  0  0  0  0  0
  -28.3167  -10.6194  -10.2799 C   0  0  0  0  0  0  0  0  0  0  0  0
  -26.8440  -10.2333  -10.1263 C   0  0  0  0  0  0  0  0  0  0  0  0
  -29.4911   -1.9309   -6.2189 O   0  0  0  0  0  0  0  0  0  0  0  0
  -28.2132   -1.2384   -6.3527 C   0  0  0  0  0  0  0  0  0  0  0  0
  -27.1872   -1.7609   -5.3340 C   0  0  0  0  0  0  0  0  0  0  0  0
  -27.6752   -1.5295   -7.7662 C   0  0  0  0  0  0  0  0  0  0  0  0
  -28.4006    0.2825   -6.2391 C   0  0  0  0  0  0  0  0  0  0  0  0
 24 25  1  0  0  0
 25 26  1  0  0  0
 25 12  1  0  0  0
 12 13  1  0  0  0
 12 21  1  0  0  0
 13 14  2  0  0  0
 14  1  1  0  0  0
 14 15  1  0  0  0
  1  2  1  0  0  0
  1 11  2  0  0  0
  2  3  2  0  0  0
  3  4  1  0  0  0
  4  5  2  0  0  0
  4  8  1  0  0  0
  5  6  1  0  0  0
  5 11  1  0  0  0
  6  7  2  0  0  0
  7  8  1  0  0  0
  8  9  1  0  0  0
  9 10  2  0  0  0
  9 27  1  0  0  0
 27 28  1  0  0  0
 28 29  1  0  0  0
 28 30  1  0  0  0
 28 31  1  0  0  0
 15 16  1  0  0  0
 15 21  2  0  0  0
 16 17  1  0  0  0
 16 18  2  0  0  0
 17 22  1  0  0  0
 17 23  1  0  0  0
 18 19  1  0  0  0
 19 20  2  0  0  0
 20 21  1  0  0  0
M  END
> <minimizedAffinity>
-9.18764

$$$$
