CHEMBL4544826


 37 41  0  0  0  0  0  0  0  0999 V2000
  -14.9245   -5.6425  -12.4822 N   0  0  0  0  0  0  0  0  0  0  0  0
  -16.1626   -5.7067  -11.9074 N   0  0  0  0  0  0  0  0  0  0  0  0
  -16.5764   -4.4473  -11.8432 C   0  0  0  0  0  0  0  0  0  0  0  0
  -15.6418   -3.5460  -12.3709 C   0  0  0  0  0  0  0  0  0  0  0  0
  -15.6088   -2.1554  -12.5530 C   0  0  0  0  0  0  0  0  0  0  0  0
  -14.4876   -1.5540  -13.1355 C   0  0  0  0  0  0  0  0  0  0  0  0
  -13.4304   -2.3567  -13.5773 C   0  0  0  0  0  0  0  0  0  0  0  0
  -13.4405   -3.7513  -13.3950 C   0  0  0  0  0  0  0  0  0  0  0  0
  -14.5625   -4.3279  -12.7726 C   0  0  0  0  0  0  0  0  0  0  0  0
  -13.3346   -8.5467  -16.4534 C   0  0  0  0  0  0  0  0  0  0  0  0
  -12.9717   -9.1432  -15.2312 C   0  0  0  0  0  0  0  0  0  0  0  0
  -13.2419   -8.5637  -13.9943 C   0  0  0  0  0  0  0  0  0  0  0  0
  -12.8884   -9.2320  -12.8901 N   0  0  0  0  0  0  0  0  0  0  0  0
  -13.1537   -8.6546  -11.7124 C   0  0  0  0  0  0  0  0  0  0  0  0
  -13.7403   -7.4697  -11.5312 N   0  0  0  0  0  0  0  0  0  0  0  0
  -14.1395   -6.8294  -12.6604 C   0  0  0  0  0  0  0  0  0  0  0  0
  -13.8728   -7.3192  -13.9600 C   0  0  0  0  0  0  0  0  0  0  0  0
  -14.1233   -6.6696  -15.1981 C   0  0  0  0  0  0  0  0  0  0  0  0
  -13.8734   -7.2641  -16.4373 C   0  0  0  0  0  0  0  0  0  0  0  0
  -13.6767  -10.5065  -17.7283 C   0  0  0  0  0  0  0  0  0  0  0  0
  -13.1387   -9.1856  -17.6480 O   0  0  0  0  0  0  0  0  0  0  0  0
  -14.2377   -6.4445  -17.4654 O   0  0  0  0  0  0  0  0  0  0  0  0
  -13.7127   -5.1335  -17.5457 C   0  0  0  0  0  0  0  0  0  0  0  0
  -14.4130   -0.1542  -13.3201 N   0  0  0  0  0  0  0  0  0  0  0  0
  -14.6056    0.4754  -14.5409 C   0  0  0  0  0  0  0  0  0  0  0  0
  -15.0277   -0.0709  -15.5535 O   0  0  0  0  0  0  0  0  0  0  0  0
  -14.2228    1.8081  -14.4924 N   0  0  0  0  0  0  0  0  0  0  0  0
  -14.5325    0.4286  -12.5040 H   0  0  0  0  0  0  0  0  0  0  0  0
  -13.4240    1.9815  -13.8986 H   0  0  0  0  0  0  0  0  0  0  0  0
  -14.3723    2.6510  -15.6185 C   0  0  0  0  0  0  0  0  0  0  0  0
  -15.6196    3.2210  -15.8705 C   0  0  0  0  0  0  0  0  0  0  0  0
  -15.7921    4.0688  -16.9701 C   0  0  0  0  0  0  0  0  0  0  0  0
  -14.7384    4.3159  -17.8620 C   0  0  0  0  0  0  0  0  0  0  0  0
  -14.9821    5.1691  -19.0755 C   0  0  0  0  0  0  0  0  0  0  0  0
  -13.4904    3.7245  -17.6057 C   0  0  0  0  0  0  0  0  0  0  0  0
  -12.1478    3.9607  -18.6696 Cl  0  0  0  0  0  0  0  0  0  0  0  0
  -13.3033    2.9095  -16.4811 C   0  0  0  0  0  0  0  0  0  0  0  0
 20 21  1  0  0  0
 21 10  1  0  0  0
 10 11  1  0  0  0
 10 19  2  0  0  0
 11 12  2  0  0  0
 12 13  1  0  0  0
 12 17  1  0  0  0
 13 14  2  0  0  0
 14 15  1  0  0  0
 15 16  2  0  0  0
 16  1  1  0  0  0
 16 17  1  0  0  0
  1  2  1  0  0  0
  1  9  1  0  0  0
  2  3  2  0  0  0
  3  4  1  0  0  0
  4  5  1  0  0  0
  4  9  2  0  0  0
  5  6  2  0  0  0
  6 24  1  0  0  0
  6  7  1  0  0  0
 24 25  1  0  0  0
 24 28  1  0  0  0
 25 26  2  0  0  0
 25 27  1  0  0  0
 27 30  1  0  0  0
 27 29  1  0  0  0
 30 31  1  0  0  0
 30 37  2  0  0  0
 31 32  2  0  0  0
 32 33  1  0  0  0
 33 34  1  0  0  0
 33 35  2  0  0  0
 35 36  1  0  0  0
 35 37  1  0  0  0
  7  8  2  0  0  0
  8  9  1  0  0  0
 17 18  2  0  0  0
 18 19  1  0  0  0
 19 22  1  0  0  0
 22 23  1  0  0  0
M  END
> <minimizedAffinity>
-7.76867

$$$$
