CHEMBL271131


 37 41  0  0  0  0  0  0  0  0999 V2000
  -14.8495   -0.5229  -13.7288 C   0  0  0  0  0  0  0  0  0  0  0  0
  -13.6894   -1.1419  -13.9105 N   0  0  0  0  0  0  0  0  0  0  0  0
  -12.7371   -0.3895  -14.4613 C   0  0  0  0  0  0  0  0  0  0  0  0
  -12.8840    0.8503  -14.9246 N   0  0  0  0  0  0  0  0  0  0  0  0
  -14.0675    1.3962  -14.6367 C   0  0  0  0  0  0  0  0  0  0  0  0
  -15.0326    0.7715  -13.9618 N   0  0  0  0  0  0  0  0  0  0  0  0
  -14.4758    2.6046  -15.2636 N   0  0  0  0  0  0  0  0  0  0  0  0
  -15.4968    2.7236  -16.2150 C   0  0  0  0  0  0  0  0  0  0  0  0
  -15.2843    3.7780  -16.9661 N   0  0  0  0  0  0  0  0  0  0  0  0
  -14.1610    4.3708  -16.5021 C   0  0  0  0  0  0  0  0  0  0  0  0
  -13.4578    5.4318  -17.0785 C   0  0  0  0  0  0  0  0  0  0  0  0
  -12.3064    5.8873  -16.4421 C   0  0  0  0  0  0  0  0  0  0  0  0
  -11.9080    5.3344  -15.2234 C   0  0  0  0  0  0  0  0  0  0  0  0
  -12.6028    4.2657  -14.6340 C   0  0  0  0  0  0  0  0  0  0  0  0
  -13.7115    3.7678  -15.3334 C   0  0  0  0  0  0  0  0  0  0  0  0
  -16.5396    1.8580  -16.3008 N   0  0  0  0  0  0  0  0  0  0  0  0
  -16.4977    1.0884  -16.9641 H   0  0  0  0  0  0  0  0  0  0  0  0
  -17.8102    2.0111  -15.6809 C   0  0  0  0  0  0  0  0  0  0  0  0
  -18.5621    0.9385  -15.1807 C   0  0  0  0  0  0  0  0  0  0  0  0
  -19.8497    1.1076  -14.6672 C   0  0  0  0  0  0  0  0  0  0  0  0
  -20.4246    2.3695  -14.6495 C   0  0  0  0  0  0  0  0  0  0  0  0
  -19.7065    3.4558  -15.1392 C   0  0  0  0  0  0  0  0  0  0  0  0
  -18.4126    3.2785  -15.6529 C   0  0  0  0  0  0  0  0  0  0  0  0
  -15.9633   -1.2963  -13.3532 N   0  0  0  0  0  0  0  0  0  0  0  0
  -16.5301   -0.6971  -12.7607 H   0  0  0  0  0  0  0  0  0  0  0  0
  -15.3625   -4.0726  -10.8966 C   0  0  0  0  0  0  0  0  0  0  0  0
  -15.5574   -2.7910  -11.4269 C   0  0  0  0  0  0  0  0  0  0  0  0
  -15.8083   -2.5912  -12.7948 C   0  0  0  0  0  0  0  0  0  0  0  0
  -15.9187   -3.7011  -13.6285 C   0  0  0  0  0  0  0  0  0  0  0  0
  -15.6924   -4.9897  -13.1317 C   0  0  0  0  0  0  0  0  0  0  0  0
  -15.4377   -5.1922  -11.7588 C   0  0  0  0  0  0  0  0  0  0  0  0
  -13.7484   -3.8391   -9.1487 C   0  0  0  0  0  0  0  0  0  0  0  0
  -15.0197   -4.2973   -9.5893 O   0  0  0  0  0  0  0  0  0  0  0  0
  -15.7475   -6.1052  -13.9364 O   0  0  0  0  0  0  0  0  0  0  0  0
  -14.6858   -6.2123  -14.8808 C   0  0  0  0  0  0  0  0  0  0  0  0
  -15.2029   -6.5004  -11.3984 O   0  0  0  0  0  0  0  0  0  0  0  0
  -13.8482   -6.9221  -11.3193 C   0  0  0  0  0  0  0  0  0  0  0  0
 32 33  1  0  0  0
 33 26  1  0  0  0
 26 27  1  0  0  0
 26 31  2  0  0  0
 27 28  2  0  0  0
 28 24  1  0  0  0
 28 29  1  0  0  0
 24  1  1  0  0  0
 24 25  1  0  0  0
  1  2  1  0  0  0
  1  6  2  0  0  0
  2  3  2  0  0  0
  3  4  1  0  0  0
  4  5  2  0  0  0
  5  7  1  0  0  0
  5  6  1  0  0  0
  7  8  1  0  0  0
  7 15  1  0  0  0
  8 16  1  0  0  0
  8  9  2  0  0  0
 16 18  1  0  0  0
 16 17  1  0  0  0
 18 19  1  0  0  0
 18 23  2  0  0  0
 19 20  2  0  0  0
 20 21  1  0  0  0
 21 22  2  0  0  0
 22 23  1  0  0  0
  9 10  1  0  0  0
 10 11  1  0  0  0
 10 15  2  0  0  0
 11 12  2  0  0  0
 12 13  1  0  0  0
 13 14  2  0  0  0
 14 15  1  0  0  0
 29 30  2  0  0  0
 30 34  1  0  0  0
 30 31  1  0  0  0
 34 35  1  0  0  0
 31 36  1  0  0  0
 36 37  1  0  0  0
M  END
> <minimizedAffinity>
-8.77974

$$$$
