CHEMBL1973013


 20 21  0  0  0  0  0  0  0  0999 V2000
  -28.8943   -3.2757   -7.1156 C   0  0  0  0  0  0  0  0  0  0  0  0
  -28.3498   -3.4500   -8.3468 N   0  0  0  0  0  0  0  0  0  0  0  0
  -27.5837   -2.4685   -8.8542 C   0  0  0  0  0  0  0  0  0  0  0  0
  -27.3582   -1.3097   -8.2290 N   0  0  0  0  0  0  0  0  0  0  0  0
  -27.8667   -1.1760   -6.9934 C   0  0  0  0  0  0  0  0  0  0  0  0
  -28.6108   -2.1397   -6.3599 C   0  0  0  0  0  0  0  0  0  0  0  0
  -29.0043   -1.8697   -4.5284 Br  0  0  0  0  0  0  0  0  0  0  0  0
  -29.6631   -4.3585   -6.6495 N   0  0  0  0  0  0  0  0  0  0  0  0
  -30.3270   -4.0063   -5.9692 H   0  0  0  0  0  0  0  0  0  0  0  0
  -27.7697   -8.5340   -4.2510 C   0  0  0  0  0  0  0  0  0  0  0  0
  -28.2811   -7.5524   -5.2411 C   0  0  0  0  0  0  0  0  0  0  0  0
  -28.8074   -7.7710   -6.4948 C   0  0  0  0  0  0  0  0  0  0  0  0
  -29.2751   -6.6499   -7.1493 N   0  0  0  0  0  0  0  0  0  0  0  0
  -29.1507   -5.5854   -6.3854 C   0  0  0  0  0  0  0  0  0  0  0  0
  -28.2906   -5.8699   -4.9124 S   0  0  0  0  0  0  0  0  0  0  0  0
  -26.9559   -2.7203  -10.0606 N   0  0  0  0  0  0  0  0  0  0  0  0
  -27.3817   -3.5332  -10.4873 H   0  0  0  0  0  0  0  0  0  0  0  0
  -26.6942   -1.5816  -10.9326 C   0  0  0  0  0  0  0  0  0  0  0  0
  -25.1855   -1.4606  -11.1472 C   0  0  0  0  0  0  0  0  0  0  0  0
  -27.4096   -1.7751  -12.2674 C   0  0  0  0  0  0  0  0  0  0  0  0
 10 11  1  0  0  0
 11 12  2  0  0  0
 11 15  1  0  0  0
 12 13  1  0  0  0
 13 14  2  0  0  0
 14  8  1  0  0  0
 14 15  1  0  0  0
  8  1  1  0  0  0
  8  9  1  0  0  0
  1  2  1  0  0  0
  1  6  2  0  0  0
  2  3  2  0  0  0
  3 16  1  0  0  0
  3  4  1  0  0  0
 16 18  1  0  0  0
 16 17  1  0  0  0
 18 19  1  0  0  0
 18 20  1  0  0  0
  4  5  2  0  0  0
  5  6  1  0  0  0
  6  7  1  0  0  0
M  END
> <minimizedAffinity>
-6.54513

$$$$
