CHEMBL3972249


 43 47  0  0  0  0  0  0  0  0999 V2000
  -28.3244   -2.8458   -7.7916 C   0  0  0  0  0  0  0  0  0  0  0  0
  -27.8137   -3.5828   -8.8724 C   0  0  0  0  0  0  0  0  0  0  0  0
  -27.1167   -2.9686   -9.9154 C   0  0  0  0  0  0  0  0  0  0  0  0
  -26.8875   -1.5908   -9.9032 C   0  0  0  0  0  0  0  0  0  0  0  0
  -27.3543   -0.8504   -8.8048 C   0  0  0  0  0  0  0  0  0  0  0  0
  -28.0662   -1.4701   -7.7600 C   0  0  0  0  0  0  0  0  0  0  0  0
  -30.9373   -6.2230   -5.0141 C   0  0  0  0  0  0  0  0  0  0  0  0
  -31.5717   -6.0472   -3.8355 N   0  0  0  0  0  0  0  0  0  0  0  0
  -31.5683   -4.8135   -3.2844 C   0  0  0  0  0  0  0  0  0  0  0  0
  -30.9922   -3.6847   -3.7474 N   0  0  0  0  0  0  0  0  0  0  0  0
  -30.3747   -3.9056   -4.9181 C   0  0  0  0  0  0  0  0  0  0  0  0
  -29.6717   -2.9722   -5.6389 N   0  0  0  0  0  0  0  0  0  0  0  0
  -29.1515   -3.5367   -6.7916 C   0  0  0  0  0  0  0  0  0  0  0  0
  -29.5598   -4.8657   -6.7729 C   0  0  0  0  0  0  0  0  0  0  0  0
  -30.3213   -5.1036   -5.6018 C   0  0  0  0  0  0  0  0  0  0  0  0
  -29.5409   -2.0194   -5.3352 H   0  0  0  0  0  0  0  0  0  0  0  0
  -30.8744   -7.4640   -5.6466 N   0  0  0  0  0  0  0  0  0  0  0  0
  -29.8967   -7.7470   -5.6654 H   0  0  0  0  0  0  0  0  0  0  0  0
  -32.8167   -8.2986   -6.9283 C   0  0  0  0  0  0  0  0  0  0  0  0
  -31.4648   -7.5788   -6.9794 C   0  0  0  0  0  0  0  0  0  0  0  0
  -30.4825   -8.3701   -7.8432 C   0  0  0  0  0  0  0  0  0  0  0  0
  -29.1591   -7.9335   -8.0104 C   0  0  0  0  0  0  0  0  0  0  0  0
  -28.2533   -8.6859   -8.7648 C   0  0  0  0  0  0  0  0  0  0  0  0
  -28.6566   -9.8779   -9.3632 C   0  0  0  0  0  0  0  0  0  0  0  0
  -29.9700  -10.3150   -9.2208 C   0  0  0  0  0  0  0  0  0  0  0  0
  -30.8761   -9.5670   -8.4686 C   0  0  0  0  0  0  0  0  0  0  0  0
  -26.1536   -0.9383  -11.0618 C   0  0  0  0  0  0  0  0  0  0  0  0
  -25.1690   -1.8179  -11.7239 N   0  0  0  0  0  0  0  0  0  0  0  0
  -23.7869   -1.4635  -11.3372 C   0  0  0  0  0  0  0  0  0  0  0  0
  -23.2791   -0.1190  -11.9105 C   0  0  0  0  0  0  0  0  0  0  0  0
  -23.4317    0.0537  -13.3671 N   0  0  0  0  0  0  0  0  0  0  0  0
  -24.7207   -0.4762  -13.8488 C   0  0  0  0  0  0  0  0  0  0  0  0
  -25.2400   -1.7773  -13.1950 C   0  0  0  0  0  0  0  0  0  0  0  0
  -22.2512   -0.4044  -14.1084 C   0  0  0  0  0  0  0  0  0  0  0  0
  -21.5212    0.7152  -14.8748 C   0  0  0  0  0  0  0  0  0  0  0  0
  -20.3437    1.3089  -14.0928 C   0  0  0  0  0  0  0  0  0  0  0  0
  -19.1191    1.4944  -14.9813 C   0  0  0  0  0  0  0  0  0  0  0  0
  -18.7920    2.9629  -15.1151 C   0  0  0  0  0  0  0  0  0  0  0  0
  -19.6485    3.8433  -15.1366 O   0  0  0  0  0  0  0  0  0  0  0  0
  -17.4521    3.2394  -15.2499 N   0  0  0  0  0  0  0  0  0  0  0  0
  -17.1392    4.5918  -15.5246 O   0  0  0  0  0  0  0  0  0  0  0  0
  -16.7793    2.5488  -15.5643 H   0  0  0  0  0  0  0  0  0  0  0  0
  -18.0273    5.0140  -15.5362 H   0  0  0  0  0  0  0  0  0  0  0  0
 19 20  1  0  0  0
 20 17  1  0  0  0
 20 21  1  0  0  0
 17  7  1  0  0  0
 17 18  1  0  0  0
  7  8  1  0  0  0
  7 15  2  0  0  0
  8  9  2  0  0  0
  9 10  1  0  0  0
 10 11  2  0  0  0
 11 12  1  0  0  0
 11 15  1  0  0  0
 12 13  1  0  0  0
 12 16  1  0  0  0
 13  1  1  0  0  0
 13 14  2  0  0  0
  1  2  1  0  0  0
  1  6  2  0  0  0
  2  3  2  0  0  0
  3  4  1  0  0  0
  4 27  1  0  0  0
  4  5  2  0  0  0
 27 28  1  0  0  0
 28 29  1  0  0  0
 28 33  1  0  0  0
 29 30  1  0  0  0
 30 31  1  0  0  0
 31 34  1  0  0  0
 31 32  1  0  0  0
 34 35  1  0  0  0
 35 36  1  0  0  0
 36 37  1  0  0  0
 37 38  1  0  0  0
 38 39  2  0  0  0
 38 40  1  0  0  0
 40 41  1  0  0  0
 40 42  1  0  0  0
 41 43  1  0  0  0
 32 33  1  0  0  0
  5  6  1  0  0  0
 14 15  1  0  0  0
 21 22  1  0  0  0
 21 26  2  0  0  0
 22 23  2  0  0  0
 23 24  1  0  0  0
 24 25  2  0  0  0
 25 26  1  0  0  0
M  END
> <minimizedAffinity>
-9.18994

$$$$
