CHEMBL118832


 32 36  0  0  0  0  0  0  0  0999 V2000
  -29.9478   -9.4883   -7.2593 C   0  0  0  0  0  0  0  0  0  0  0  0
  -31.2645   -9.0297   -7.3543 C   0  0  0  0  0  0  0  0  0  0  0  0
  -31.5445   -7.6553   -7.3377 C   0  0  0  0  0  0  0  0  0  0  0  0
  -30.4562   -6.7744   -7.2697 C   0  0  0  0  0  0  0  0  0  0  0  0
  -30.4082   -5.3951   -7.2446 N   0  0  0  0  0  0  0  0  0  0  0  0
  -29.1029   -4.9475   -7.1967 C   0  0  0  0  0  0  0  0  0  0  0  0
  -28.3074   -6.0796   -7.1784 C   0  0  0  0  0  0  0  0  0  0  0  0
  -29.1388   -7.2231   -7.1898 C   0  0  0  0  0  0  0  0  0  0  0  0
  -28.8728   -8.6001   -7.1421 C   0  0  0  0  0  0  0  0  0  0  0  0
  -31.2120   -4.7853   -7.2275 H   0  0  0  0  0  0  0  0  0  0  0  0
  -28.7094   -3.5365   -7.0769 C   0  0  0  0  0  0  0  0  0  0  0  0
  -29.2313   -2.7545   -6.0420 C   0  0  0  0  0  0  0  0  0  0  0  0
  -29.0443   -1.3672   -6.0275 C   0  0  0  0  0  0  0  0  0  0  0  0
  -29.6488   -0.5611   -5.0473 C   0  0  0  0  0  0  0  0  0  0  0  0
  -29.5188    0.8233   -5.0998 C   0  0  0  0  0  0  0  0  0  0  0  0
  -28.7702    1.4015   -6.1176 C   0  0  0  0  0  0  0  0  0  0  0  0
  -28.1456    0.5925   -7.0742 C   0  0  0  0  0  0  0  0  0  0  0  0
  -28.2686   -0.7912   -7.0545 C   0  0  0  0  0  0  0  0  0  0  0  0
  -27.6795   -1.5327   -8.0119 N   0  0  0  0  0  0  0  0  0  0  0  0
  -27.9185   -2.8594   -7.9979 C   0  0  0  0  0  0  0  0  0  0  0  0
  -27.3226   -3.4971   -9.0420 O   0  0  0  0  0  0  0  0  0  0  0  0
  -26.9259   -2.7239   -9.4856 H   0  0  0  0  0  0  0  0  0  0  0  0
  -28.3039  -11.4331   -6.7308 O   0  0  0  0  0  0  0  0  0  0  0  0
  -29.5809  -11.2239   -7.3736 S   0  0  0  0  0  0  0  0  0  0  0  0
  -30.7560  -11.9580   -6.9602 O   0  0  0  0  0  0  0  0  0  0  0  0
  -29.3701  -11.4689   -9.0534 N   0  0  0  0  0  0  0  0  0  0  0  0
  -28.3419  -12.4654   -9.4801 C   0  0  0  0  0  0  0  0  0  0  0  0
  -26.9234  -11.8750   -9.4899 C   0  0  0  0  0  0  0  0  0  0  0  0
  -26.8056  -10.6694  -10.3284 N   0  0  0  0  0  0  0  0  0  0  0  0
  -27.8069   -9.6737   -9.9004 C   0  0  0  0  0  0  0  0  0  0  0  0
  -29.2524  -10.2120   -9.8580 C   0  0  0  0  0  0  0  0  0  0  0  0
  -26.9901  -10.9254  -11.2976 H   0  0  0  0  0  0  0  0  0  0  0  0
 23 24  2  0  0  0
 24 25  2  0  0  0
 24  1  1  0  0  0
 24 26  1  0  0  0
  1  2  1  0  0  0
  1  9  2  0  0  0
  2  3  2  0  0  0
  3  4  1  0  0  0
  4  5  1  0  0  0
  4  8  2  0  0  0
  5  6  1  0  0  0
  5 10  1  0  0  0
  6 11  1  0  0  0
  6  7  2  0  0  0
 11 12  1  0  0  0
 11 20  2  0  0  0
 12 13  2  0  0  0
 13 14  1  0  0  0
 13 18  1  0  0  0
 14 15  2  0  0  0
 15 16  1  0  0  0
 16 17  2  0  0  0
 17 18  1  0  0  0
 18 19  2  0  0  0
 19 20  1  0  0  0
 20 21  1  0  0  0
 21 22  1  0  0  0
  7  8  1  0  0  0
  8  9  1  0  0  0
 26 27  1  0  0  0
 26 31  1  0  0  0
 27 28  1  0  0  0
 28 29  1  0  0  0
 29 30  1  0  0  0
 29 32  1  0  0  0
 30 31  1  0  0  0
M  END
> <minimizedAffinity>
-8.48827

$$$$
