CHEMBL446182


 32 35  0  0  0  0  0  0  0  0999 V2000
  -30.3053   -9.3735   -7.7966 C   0  0  0  0  0  0  0  0  0  0  0  0
  -31.0644   -8.3576   -7.3672 C   0  0  0  0  0  0  0  0  0  0  0  0
  -32.4787   -8.7616   -7.5272 C   0  0  0  0  0  0  0  0  0  0  0  0
  -33.4518   -8.1171   -7.1989 O   0  0  0  0  0  0  0  0  0  0  0  0
  -32.4807   -9.9896   -8.0918 N   0  0  0  0  0  0  0  0  0  0  0  0
  -31.2191  -10.4445   -8.2591 C   0  0  0  0  0  0  0  0  0  0  0  0
  -30.9060  -11.5391   -8.6889 O   0  0  0  0  0  0  0  0  0  0  0  0
  -33.3077  -10.5264   -8.2860 H   0  0  0  0  0  0  0  0  0  0  0  0
  -27.2218  -11.1203   -4.7451 C   0  0  0  0  0  0  0  0  0  0  0  0
  -25.9166  -10.9257   -5.1993 C   0  0  0  0  0  0  0  0  0  0  0  0
  -25.6589  -10.3178   -6.4301 C   0  0  0  0  0  0  0  0  0  0  0  0
  -26.7535   -9.9114   -7.1950 C   0  0  0  0  0  0  0  0  0  0  0  0
  -26.7876   -9.3138   -8.4344 N   0  0  0  0  0  0  0  0  0  0  0  0
  -28.0825   -9.0857   -8.8144 C   0  0  0  0  0  0  0  0  0  0  0  0
  -28.8979   -9.5084   -7.7874 C   0  0  0  0  0  0  0  0  0  0  0  0
  -28.0737  -10.0669   -6.7684 C   0  0  0  0  0  0  0  0  0  0  0  0
  -28.3064  -10.6848   -5.5203 C   0  0  0  0  0  0  0  0  0  0  0  0
  -25.9687   -9.0767   -8.9786 H   0  0  0  0  0  0  0  0  0  0  0  0
  -28.9546  -11.9259   -3.3420 C   0  0  0  0  0  0  0  0  0  0  0  0
  -27.5610  -11.7279   -3.5627 O   0  0  0  0  0  0  0  0  0  0  0  0
  -30.6354   -7.0821   -6.8022 C   0  0  0  0  0  0  0  0  0  0  0  0
  -30.1587   -6.0665   -7.6352 C   0  0  0  0  0  0  0  0  0  0  0  0
  -29.8274   -4.8022   -7.1209 C   0  0  0  0  0  0  0  0  0  0  0  0
  -29.9437   -4.5557   -5.7318 C   0  0  0  0  0  0  0  0  0  0  0  0
  -30.4381   -5.5855   -4.8994 C   0  0  0  0  0  0  0  0  0  0  0  0
  -30.7494   -6.8417   -5.4353 C   0  0  0  0  0  0  0  0  0  0  0  0
  -29.4155   -3.7729   -7.9271 O   0  0  0  0  0  0  0  0  0  0  0  0
  -28.0407   -3.6648   -8.2653 C   0  0  0  0  0  0  0  0  0  0  0  0
  -29.5921   -3.3977   -5.0860 O   0  0  0  0  0  0  0  0  0  0  0  0
  -28.2808   -3.2212   -4.5747 C   0  0  0  0  0  0  0  0  0  0  0  0
  -30.6439   -5.5294   -3.5396 O   0  0  0  0  0  0  0  0  0  0  0  0
  -31.9735   -5.2829   -3.0949 C   0  0  0  0  0  0  0  0  0  0  0  0
 19 20  1  0  0  0
 20  9  1  0  0  0
  9 10  1  0  0  0
  9 17  2  0  0  0
 10 11  2  0  0  0
 11 12  1  0  0  0
 12 13  1  0  0  0
 12 16  2  0  0  0
 13 14  1  0  0  0
 13 18  1  0  0  0
 14 15  2  0  0  0
 15  1  1  0  0  0
 15 16  1  0  0  0
  1  2  2  0  0  0
  1  6  1  0  0  0
  2 21  1  0  0  0
  2  3  1  0  0  0
 21 22  1  0  0  0
 21 26  2  0  0  0
 22 23  2  0  0  0
 23 27  1  0  0  0
 23 24  1  0  0  0
 27 28  1  0  0  0
 24 29  1  0  0  0
 24 25  2  0  0  0
 29 30  1  0  0  0
 25 31  1  0  0  0
 25 26  1  0  0  0
 31 32  1  0  0  0
  3  4  2  0  0  0
  3  5  1  0  0  0
  5  6  1  0  0  0
  5  8  1  0  0  0
  6  7  2  0  0  0
 16 17  1  0  0  0
M  END
> <minimizedAffinity>
-7.35881

$$$$
