CHEMBL3908737


 38 41  0  0  0  0  0  0  0  0999 V2000
  -26.7772   -1.6089  -14.2122 C   0  0  0  0  0  0  0  0  0  0  0  0
  -25.4906   -1.5553  -13.4335 C   0  0  0  0  0  0  0  0  0  0  0  0
  -24.3419   -1.1417  -14.1424 C   0  0  0  0  0  0  0  0  0  0  0  0
  -23.1268   -0.8925  -13.4898 C   0  0  0  0  0  0  0  0  0  0  0  0
  -23.0250   -1.1651  -12.1358 C   0  0  0  0  0  0  0  0  0  0  0  0
  -24.1415   -1.6376  -11.4349 C   0  0  0  0  0  0  0  0  0  0  0  0
  -25.3878   -1.8440  -12.0519 C   0  0  0  0  0  0  0  0  0  0  0  0
  -26.5092   -2.3338  -11.3269 N   0  0  0  0  0  0  0  0  0  0  0  0
  -26.8291   -2.0112  -10.0125 C   0  0  0  0  0  0  0  0  0  0  0  0
  -26.2058   -1.2277   -9.3047 O   0  0  0  0  0  0  0  0  0  0  0  0
  -27.9038   -2.7514   -9.5265 N   0  0  0  0  0  0  0  0  0  0  0  0
  -27.1019   -3.0081  -11.7943 H   0  0  0  0  0  0  0  0  0  0  0  0
  -27.9863   -3.6803   -9.9136 H   0  0  0  0  0  0  0  0  0  0  0  0
  -28.3115   -2.6039   -8.1736 C   0  0  0  0  0  0  0  0  0  0  0  0
  -28.5772   -3.7476   -7.4255 C   0  0  0  0  0  0  0  0  0  0  0  0
  -28.8580   -3.6348   -6.0610 C   0  0  0  0  0  0  0  0  0  0  0  0
  -28.9352   -2.3789   -5.4449 C   0  0  0  0  0  0  0  0  0  0  0  0
  -29.2401   -2.3611   -3.7448 Cl  0  0  0  0  0  0  0  0  0  0  0  0
  -28.7478   -1.2094   -6.1929 C   0  0  0  0  0  0  0  0  0  0  0  0
  -28.4155   -1.3452   -7.5600 C   0  0  0  0  0  0  0  0  0  0  0  0
  -28.8800    0.1794   -5.6022 C   0  0  0  0  0  0  0  0  0  0  0  0
  -28.7226    1.2794   -6.6422 C   0  0  0  0  0  0  0  0  0  0  0  0
  -30.1038    0.3643   -5.0131 F   0  0  0  0  0  0  0  0  0  0  0  0
  -27.9896    0.4229   -4.5954 F   0  0  0  0  0  0  0  0  0  0  0  0
  -21.9997   -0.4000  -14.1145 O   0  0  0  0  0  0  0  0  0  0  0  0
  -21.7821    0.9638  -14.1111 C   0  0  0  0  0  0  0  0  0  0  0  0
  -22.7917    1.8967  -13.8944 C   0  0  0  0  0  0  0  0  0  0  0  0
  -22.4730    3.2260  -14.0347 C   0  0  0  0  0  0  0  0  0  0  0  0
  -21.2280    3.6628  -14.2883 N   0  0  0  0  0  0  0  0  0  0  0  0
  -20.2314    2.7691  -14.4062 C   0  0  0  0  0  0  0  0  0  0  0  0
  -20.4703    1.4007  -14.3218 C   0  0  0  0  0  0  0  0  0  0  0  0
  -18.9180    3.2242  -14.6204 N   0  0  0  0  0  0  0  0  0  0  0  0
  -17.9509    2.4933  -15.2838 C   0  0  0  0  0  0  0  0  0  0  0  0
  -18.0642    1.3742  -15.7627 O   0  0  0  0  0  0  0  0  0  0  0  0
  -18.6697    4.1219  -14.2401 H   0  0  0  0  0  0  0  0  0  0  0  0
  -16.6054    3.1299  -15.4130 C   0  0  0  0  0  0  0  0  0  0  0  0
  -16.3380    4.0610  -16.5731 C   0  0  0  0  0  0  0  0  0  0  0  0
  -15.5311    2.8040  -16.4160 C   0  0  0  0  0  0  0  0  0  0  0  0
  1  2  1  0  0  0
  2  3  1  0  0  0
  2  7  2  0  0  0
  3  4  2  0  0  0
  4 25  1  0  0  0
  4  5  1  0  0  0
 25 26  1  0  0  0
 26 27  1  0  0  0
 26 31  2  0  0  0
 27 28  2  0  0  0
 28 29  1  0  0  0
 29 30  2  0  0  0
 30 32  1  0  0  0
 30 31  1  0  0  0
 32 33  1  0  0  0
 32 35  1  0  0  0
 33 34  2  0  0  0
 33 36  1  0  0  0
 36 37  1  0  0  0
 36 38  1  0  0  0
 37 38  1  0  0  0
  5  6  2  0  0  0
  6  7  1  0  0  0
  7  8  1  0  0  0
  8  9  1  0  0  0
  8 12  1  0  0  0
  9 10  2  0  0  0
  9 11  1  0  0  0
 11 14  1  0  0  0
 11 13  1  0  0  0
 14 15  1  0  0  0
 14 20  2  0  0  0
 15 16  2  0  0  0
 16 17  1  0  0  0
 17 18  1  0  0  0
 17 19  2  0  0  0
 19 21  1  0  0  0
 19 20  1  0  0  0
 21 22  1  0  0  0
 21 23  1  0  0  0
 21 24  1  0  0  0
M  END
> <minimizedAffinity>
-12.25936

$$$$
