CHEMBL3596873


 38 41  0  0  0  0  0  0  0  0999 V2000
  -29.5482   -6.8719   -6.0723 C   0  0  0  0  0  0  0  0  0  0  0  0
  -29.4184   -6.7589   -7.4570 C   0  0  0  0  0  0  0  0  0  0  0  0
  -29.5878   -7.8771   -8.2645 C   0  0  0  0  0  0  0  0  0  0  0  0
  -29.9237   -9.0990   -7.6898 C   0  0  0  0  0  0  0  0  0  0  0  0
  -29.9958   -9.2324   -6.2967 C   0  0  0  0  0  0  0  0  0  0  0  0
  -29.7893   -8.1137   -5.4832 C   0  0  0  0  0  0  0  0  0  0  0  0
  -29.9211   -4.3976   -3.4168 N   0  0  0  0  0  0  0  0  0  0  0  0
  -30.1046   -5.5876   -4.0639 C   0  0  0  0  0  0  0  0  0  0  0  0
  -30.8363   -6.4279   -3.5442 O   0  0  0  0  0  0  0  0  0  0  0  0
  -29.4245   -5.7529   -5.2431 N   0  0  0  0  0  0  0  0  0  0  0  0
  -30.4092   -4.3313   -2.5347 H   0  0  0  0  0  0  0  0  0  0  0  0
  -28.5910   -5.1819   -5.3366 H   0  0  0  0  0  0  0  0  0  0  0  0
  -28.9164   -1.3119   -4.8277 C   0  0  0  0  0  0  0  0  0  0  0  0
  -29.9328   -2.1212   -4.3769 C   0  0  0  0  0  0  0  0  0  0  0  0
  -29.2807   -3.2775   -3.8948 C   0  0  0  0  0  0  0  0  0  0  0  0
  -27.9542   -3.1391   -3.9801 N   0  0  0  0  0  0  0  0  0  0  0  0
  -27.7274   -1.9188   -4.5659 O   0  0  0  0  0  0  0  0  0  0  0  0
  -28.1540   -0.1006   -6.8392 C   0  0  0  0  0  0  0  0  0  0  0  0
  -28.8466    0.0415   -5.4754 C   0  0  0  0  0  0  0  0  0  0  0  0
  -28.0474    1.0135   -4.5885 C   0  0  0  0  0  0  0  0  0  0  0  0
  -30.2577    0.6270   -5.6787 C   0  0  0  0  0  0  0  0  0  0  0  0
  -30.3571  -10.3929   -5.6504 O   0  0  0  0  0  0  0  0  0  0  0  0
  -29.3742  -11.0761   -4.9559 C   0  0  0  0  0  0  0  0  0  0  0  0
  -29.7304  -11.6999   -3.7720 C   0  0  0  0  0  0  0  0  0  0  0  0
  -28.8450  -12.4103   -3.0371 N   0  0  0  0  0  0  0  0  0  0  0  0
  -27.5847  -12.4561   -3.5444 C   0  0  0  0  0  0  0  0  0  0  0  0
  -27.2002  -11.8103   -4.7205 C   0  0  0  0  0  0  0  0  0  0  0  0
  -28.1048  -11.0960   -5.4311 N   0  0  0  0  0  0  0  0  0  0  0  0
  -25.8359  -11.8452   -5.2758 C   0  0  0  0  0  0  0  0  0  0  0  0
  -25.6193  -11.9706   -6.6669 C   0  0  0  0  0  0  0  0  0  0  0  0
  -24.3301  -11.9827   -7.2093 C   0  0  0  0  0  0  0  0  0  0  0  0
  -23.2312  -11.8518   -6.3608 C   0  0  0  0  0  0  0  0  0  0  0  0
  -23.4127  -11.7423   -4.9838 C   0  0  0  0  0  0  0  0  0  0  0  0
  -24.7016  -11.7354   -4.4515 C   0  0  0  0  0  0  0  0  0  0  0  0
  -21.5824  -11.8776   -7.0300 S   0  0  0  0  0  0  0  0  0  0  0  0
  -21.1658  -10.1607   -7.1793 C   0  0  0  0  0  0  0  0  0  0  0  0
  -20.7171  -12.4660   -6.0224 O   0  0  0  0  0  0  0  0  0  0  0  0
  -21.6626  -12.4426   -8.3637 O   0  0  0  0  0  0  0  0  0  0  0  0
 18 19  1  0  0  0
 19 20  1  0  0  0
 19 21  1  0  0  0
 19 13  1  0  0  0
 13 14  2  0  0  0
 13 17  1  0  0  0
 14 15  1  0  0  0
 15  7  1  0  0  0
 15 16  2  0  0  0
  7  8  1  0  0  0
  7 11  1  0  0  0
  8  9  2  0  0  0
  8 10  1  0  0  0
 10  1  1  0  0  0
 10 12  1  0  0  0
  1  2  1  0  0  0
  1  6  2  0  0  0
  2  3  2  0  0  0
  3  4  1  0  0  0
  4  5  2  0  0  0
  5 22  1  0  0  0
  5  6  1  0  0  0
 22 23  1  0  0  0
 23 24  1  0  0  0
 23 28  2  0  0  0
 24 25  2  0  0  0
 25 26  1  0  0  0
 26 27  2  0  0  0
 27 29  1  0  0  0
 27 28  1  0  0  0
 29 30  1  0  0  0
 29 34  2  0  0  0
 30 31  2  0  0  0
 31 32  1  0  0  0
 32 35  1  0  0  0
 32 33  2  0  0  0
 35 36  1  0  0  0
 35 37  2  0  0  0
 35 38  2  0  0  0
 33 34  1  0  0  0
 16 17  1  0  0  0
M  END
> <minimizedAffinity>
-8.73060

$$$$
