CHEMBL4467322


 30 32  0  0  0  0  0  0  0  0999 V2000
  -25.6990   -1.5719  -12.0024 C   0  0  0  0  0  0  0  0  0  0  0  0
  -26.6118   -1.8821  -13.0126 C   0  0  0  0  0  0  0  0  0  0  0  0
  -26.2780   -1.7184  -14.3522 C   0  0  0  0  0  0  0  0  0  0  0  0
  -25.0375   -1.2028  -14.7034 C   0  0  0  0  0  0  0  0  0  0  0  0
  -24.1167   -0.8148  -13.7282 C   0  0  0  0  0  0  0  0  0  0  0  0
  -24.4382   -1.0469  -12.3734 C   0  0  0  0  0  0  0  0  0  0  0  0
  -28.2691   -1.2301  -10.5686 O   0  0  0  0  0  0  0  0  0  0  0  0
  -27.2444   -1.6140  -10.0092 C   0  0  0  0  0  0  0  0  0  0  0  0
  -25.9978   -1.7705  -10.6263 N   0  0  0  0  0  0  0  0  0  0  0  0
  -25.2155   -2.0394  -10.0407 H   0  0  0  0  0  0  0  0  0  0  0  0
  -27.2212   -1.8926   -8.5049 C   0  0  0  0  0  0  0  0  0  0  0  0
  -28.4124   -3.2053   -8.0451 S   0  0  0  0  0  0  0  0  0  0  0  0
  -28.3618   -3.0793   -6.2859 C   0  0  0  0  0  0  0  0  0  0  0  0
  -27.6822   -1.7180   -5.5655 S   0  0  0  0  0  0  0  0  0  0  0  0
  -28.9161   -4.1497   -5.5838 N   0  0  0  0  0  0  0  0  0  0  0  0
  -28.8817   -5.5642   -6.0088 C   0  0  0  0  0  0  0  0  0  0  0  0
  -30.2915   -6.1642   -5.9890 C   0  0  0  0  0  0  0  0  0  0  0  0
  -30.9002   -6.0106   -4.6948 O   0  0  0  0  0  0  0  0  0  0  0  0
  -30.9673   -4.6268   -4.3185 C   0  0  0  0  0  0  0  0  0  0  0  0
  -29.5690   -3.9956   -4.2709 C   0  0  0  0  0  0  0  0  0  0  0  0
  -22.8964   -0.1744  -14.0715 N   0  0  0  0  0  0  0  0  0  0  0  0
  -22.6466    1.1934  -13.9658 C   0  0  0  0  0  0  0  0  0  0  0  0
  -23.4461    2.0551  -13.6120 O   0  0  0  0  0  0  0  0  0  0  0  0
  -22.0859   -0.7429  -14.2994 H   0  0  0  0  0  0  0  0  0  0  0  0
  -21.2528    1.6316  -14.2880 C   0  0  0  0  0  0  0  0  0  0  0  0
  -20.3715    0.7035  -14.8444 C   0  0  0  0  0  0  0  0  0  0  0  0
  -19.0883    1.1190  -15.1771 C   0  0  0  0  0  0  0  0  0  0  0  0
  -18.7279    2.4404  -14.9432 C   0  0  0  0  0  0  0  0  0  0  0  0
  -19.6691    3.2941  -14.3792 C   0  0  0  0  0  0  0  0  0  0  0  0
  -20.9316    2.9311  -14.0453 N   0  0  0  0  0  0  0  0  0  0  0  0
  7  8  2  0  0  0
  8 11  1  0  0  0
  8  9  1  0  0  0
 11 12  1  0  0  0
 12 13  1  0  0  0
 13 14  2  0  0  0
 13 15  1  0  0  0
 15 16  1  0  0  0
 15 20  1  0  0  0
 16 17  1  0  0  0
 17 18  1  0  0  0
 18 19  1  0  0  0
 19 20  1  0  0  0
  9  1  1  0  0  0
  9 10  1  0  0  0
  1  2  1  0  0  0
  1  6  2  0  0  0
  2  3  2  0  0  0
  3  4  1  0  0  0
  4  5  2  0  0  0
  5 21  1  0  0  0
  5  6  1  0  0  0
 21 22  1  0  0  0
 21 24  1  0  0  0
 22 23  2  0  0  0
 22 25  1  0  0  0
 25 26  1  0  0  0
 25 30  2  0  0  0
 26 27  2  0  0  0
 27 28  1  0  0  0
 28 29  2  0  0  0
 29 30  1  0  0  0
M  END
> <minimizedAffinity>
-9.32133

$$$$
