CHEMBL3759041


 32 34  0  0  0  0  0  0  0  0999 V2000
  -27.7335   -2.1754   -5.3187 C   0  0  0  0  0  0  0  0  0  0  0  0
  -28.0219   -3.0932   -4.3024 C   0  0  0  0  0  0  0  0  0  0  0  0
  -28.7568   -4.2475   -4.5286 C   0  0  0  0  0  0  0  0  0  0  0  0
  -29.0074   -5.0423   -3.4859 N   0  0  0  0  0  0  0  0  0  0  0  0
  -29.7240   -6.1414   -3.7293 C   0  0  0  0  0  0  0  0  0  0  0  0
  -30.1872   -6.5239   -4.9187 N   0  0  0  0  0  0  0  0  0  0  0  0
  -29.9164   -5.7261   -5.9700 C   0  0  0  0  0  0  0  0  0  0  0  0
  -29.2034   -4.5253   -5.8260 C   0  0  0  0  0  0  0  0  0  0  0  0
  -28.9122   -3.6122   -6.8658 C   0  0  0  0  0  0  0  0  0  0  0  0
  -28.1482   -2.4683   -6.6243 C   0  0  0  0  0  0  0  0  0  0  0  0
  -27.8456    0.1957   -4.9397 C   0  0  0  0  0  0  0  0  0  0  0  0
  -27.0819   -0.9938   -5.1052 O   0  0  0  0  0  0  0  0  0  0  0  0
  -30.3451   -6.1407   -7.2647 N   0  0  0  0  0  0  0  0  0  0  0  0
  -29.7938   -5.6530   -7.9618 H   0  0  0  0  0  0  0  0  0  0  0  0
  -30.5742   -7.4921   -7.6128 C   0  0  0  0  0  0  0  0  0  0  0  0
  -29.5604   -8.2570   -8.2115 C   0  0  0  0  0  0  0  0  0  0  0  0
  -29.8032   -9.5618   -8.6371 C   0  0  0  0  0  0  0  0  0  0  0  0
  -31.0632  -10.1118   -8.4514 C   0  0  0  0  0  0  0  0  0  0  0  0
  -31.3108  -11.3542   -8.8857 F   0  0  0  0  0  0  0  0  0  0  0  0
  -32.0739   -9.3889   -7.8269 C   0  0  0  0  0  0  0  0  0  0  0  0
  -31.8277   -8.0819   -7.3983 C   0  0  0  0  0  0  0  0  0  0  0  0
  -27.9405   -1.6864   -7.7305 O   0  0  0  0  0  0  0  0  0  0  0  0
  -27.7184   -2.4038   -8.9486 C   0  0  0  0  0  0  0  0  0  0  0  0
  -27.8678   -1.4383  -10.1301 C   0  0  0  0  0  0  0  0  0  0  0  0
  -27.0608   -1.9207  -11.3379 C   0  0  0  0  0  0  0  0  0  0  0  0
  -26.3898   -0.7824  -12.1016 C   0  0  0  0  0  0  0  0  0  0  0  0
  -24.9007   -0.7456  -11.8142 C   0  0  0  0  0  0  0  0  0  0  0  0
  -24.2004    0.2608  -11.8837 O   0  0  0  0  0  0  0  0  0  0  0  0
  -24.3763   -1.9632  -11.4477 N   0  0  0  0  0  0  0  0  0  0  0  0
  -22.9671   -1.9810  -11.2905 O   0  0  0  0  0  0  0  0  0  0  0  0
  -24.8121   -2.8429  -11.6930 H   0  0  0  0  0  0  0  0  0  0  0  0
  -22.7240   -1.0437  -11.4634 H   0  0  0  0  0  0  0  0  0  0  0  0
 11 12  1  0  0  0
 12  1  1  0  0  0
  1  2  1  0  0  0
  1 10  2  0  0  0
  2  3  2  0  0  0
  3  4  1  0  0  0
  3  8  1  0  0  0
  4  5  2  0  0  0
  5  6  1  0  0  0
  6  7  2  0  0  0
  7 13  1  0  0  0
  7  8  1  0  0  0
 13 15  1  0  0  0
 13 14  1  0  0  0
 15 16  1  0  0  0
 15 21  2  0  0  0
 16 17  2  0  0  0
 17 18  1  0  0  0
 18 19  1  0  0  0
 18 20  2  0  0  0
 20 21  1  0  0  0
  8  9  2  0  0  0
  9 10  1  0  0  0
 10 22  1  0  0  0
 22 23  1  0  0  0
 23 24  1  0  0  0
 24 25  1  0  0  0
 25 26  1  0  0  0
 26 27  1  0  0  0
 27 28  2  0  0  0
 27 29  1  0  0  0
 29 30  1  0  0  0
 29 31  1  0  0  0
 30 32  1  0  0  0
M  END
> <minimizedAffinity>
-8.66568

$$$$
