CHEMBL272691


 34 38  0  0  0  0  0  0  0  0999 V2000
  -23.0448   -0.0349  -13.2067 C   0  0  0  0  0  0  0  0  0  0  0  0
  -23.5481    0.3273  -11.9637 C   0  0  0  0  0  0  0  0  0  0  0  0
  -24.8048   -0.1480  -11.5642 C   0  0  0  0  0  0  0  0  0  0  0  0
  -25.6677   -0.8488  -12.4483 C   0  0  0  0  0  0  0  0  0  0  0  0
  -26.9450   -1.4044  -12.1229 C   0  0  0  0  0  0  0  0  0  0  0  0
  -27.7033   -2.0684  -13.1072 C   0  0  0  0  0  0  0  0  0  0  0  0
  -27.2316   -2.1983  -14.4062 C   0  0  0  0  0  0  0  0  0  0  0  0
  -25.9777   -1.6972  -14.7303 C   0  0  0  0  0  0  0  0  0  0  0  0
  -25.1882   -1.0444  -13.7739 C   0  0  0  0  0  0  0  0  0  0  0  0
  -23.8889   -0.6484  -14.1295 C   0  0  0  0  0  0  0  0  0  0  0  0
  -27.5636   -1.4243  -10.7585 C   0  0  0  0  0  0  0  0  0  0  0  0
  -28.3831   -0.5497  -10.4971 O   0  0  0  0  0  0  0  0  0  0  0  0
  -27.0929   -2.3793   -9.8896 N   0  0  0  0  0  0  0  0  0  0  0  0
  -26.3263   -2.9813  -10.1413 H   0  0  0  0  0  0  0  0  0  0  0  0
  -27.5510   -2.4813   -8.6033 C   0  0  0  0  0  0  0  0  0  0  0  0
  -27.4002   -1.6669   -7.5909 N   0  0  0  0  0  0  0  0  0  0  0  0
  -27.9824   -2.2160   -6.4665 C   0  0  0  0  0  0  0  0  0  0  0  0
  -28.5877   -3.4409   -6.6520 C   0  0  0  0  0  0  0  0  0  0  0  0
  -28.4442   -3.9068   -8.2983 S   0  0  0  0  0  0  0  0  0  0  0  0
  -21.7320    0.1007  -13.5965 O   0  0  0  0  0  0  0  0  0  0  0  0
  -17.3313    2.2594  -15.3528 C   0  0  0  0  0  0  0  0  0  0  0  0
  -18.3952    3.1706  -15.4495 C   0  0  0  0  0  0  0  0  0  0  0  0
  -19.6970    2.8380  -15.1038 C   0  0  0  0  0  0  0  0  0  0  0  0
  -20.6155    3.8189  -15.0874 N   0  0  0  0  0  0  0  0  0  0  0  0
  -21.8524    3.5363  -14.6366 C   0  0  0  0  0  0  0  0  0  0  0  0
  -22.2184    2.2955  -14.1589 C   0  0  0  0  0  0  0  0  0  0  0  0
  -21.2696    1.2737  -14.1742 C   0  0  0  0  0  0  0  0  0  0  0  0
  -19.9895    1.5148  -14.7360 C   0  0  0  0  0  0  0  0  0  0  0  0
  -18.9607    0.5563  -14.9234 C   0  0  0  0  0  0  0  0  0  0  0  0
  -17.6268    0.9180  -15.1233 C   0  0  0  0  0  0  0  0  0  0  0  0
  -15.8211    3.9946  -15.9325 C   0  0  0  0  0  0  0  0  0  0  0  0
  -16.0275    2.6475  -15.5032 O   0  0  0  0  0  0  0  0  0  0  0  0
  -16.7930   -0.1568  -15.0056 O   0  0  0  0  0  0  0  0  0  0  0  0
  -16.1138   -0.3891  -13.7828 C   0  0  0  0  0  0  0  0  0  0  0  0
 31 32  1  0  0  0
 32 21  1  0  0  0
 21 22  1  0  0  0
 21 30  2  0  0  0
 22 23  2  0  0  0
 23 24  1  0  0  0
 23 28  1  0  0  0
 24 25  2  0  0  0
 25 26  1  0  0  0
 26 27  2  0  0  0
 27 20  1  0  0  0
 27 28  1  0  0  0
 20  1  1  0  0  0
  1  2  1  0  0  0
  1 10  2  0  0  0
  2  3  2  0  0  0
  3  4  1  0  0  0
  4  5  1  0  0  0
  4  9  2  0  0  0
  5 11  1  0  0  0
  5  6  2  0  0  0
 11 12  2  0  0  0
 11 13  1  0  0  0
 13 15  1  0  0  0
 13 14  1  0  0  0
 15 16  2  0  0  0
 15 19  1  0  0  0
 16 17  1  0  0  0
 17 18  2  0  0  0
 18 19  1  0  0  0
  6  7  1  0  0  0
  7  8  2  0  0  0
  8  9  1  0  0  0
  9 10  1  0  0  0
 28 29  2  0  0  0
 29 30  1  0  0  0
 30 33  1  0  0  0
 33 34  1  0  0  0
M  END
> <minimizedAffinity>
-10.75245

$$$$
