CHEMBL3397941


 33 35  0  0  0  0  0  0  0  0999 V2000
  -27.1172   -2.1693  -10.6348 N   0  0  0  0  0  0  0  0  0  0  0  0
  -25.8566   -1.7048  -10.9719 C   0  0  0  0  0  0  0  0  0  0  0  0
  -24.9634   -1.4526  -10.1570 O   0  0  0  0  0  0  0  0  0  0  0  0
  -27.6811   -2.5762  -11.3645 H   0  0  0  0  0  0  0  0  0  0  0  0
  -28.5911   -2.3910   -6.6502 C   0  0  0  0  0  0  0  0  0  0  0  0
  -28.4738   -3.5479   -7.4252 C   0  0  0  0  0  0  0  0  0  0  0  0
  -27.9785   -3.4942   -8.7275 C   0  0  0  0  0  0  0  0  0  0  0  0
  -27.5940   -2.2798   -9.3051 C   0  0  0  0  0  0  0  0  0  0  0  0
  -27.6525   -1.1304   -8.5209 C   0  0  0  0  0  0  0  0  0  0  0  0
  -28.1233   -1.1818   -7.1954 C   0  0  0  0  0  0  0  0  0  0  0  0
  -27.9952    0.3074   -6.3204 Cl  0  0  0  0  0  0  0  0  0  0  0  0
  -29.1445   -2.6320   -5.4177 O   0  0  0  0  0  0  0  0  0  0  0  0
  -28.3231   -3.3249   -4.4746 C   0  0  0  0  0  0  0  0  0  0  0  0
  -29.1873   -4.1117   -3.4751 C   0  0  0  0  0  0  0  0  0  0  0  0
  -29.1386   -5.5835   -3.6505 N   0  0  0  0  0  0  0  0  0  0  0  0
  -31.6274   -5.1107   -3.6188 C   0  0  0  0  0  0  0  0  0  0  0  0
  -30.4960   -6.0918   -3.9182 C   0  0  0  0  0  0  0  0  0  0  0  0
  -28.1299   -6.0371   -4.6212 C   0  0  0  0  0  0  0  0  0  0  0  0
  -28.6614   -6.7754   -5.8457 C   0  0  0  0  0  0  0  0  0  0  0  0
  -25.5265   -1.5226  -12.4051 C   0  0  0  0  0  0  0  0  0  0  0  0
  -26.3729   -1.8813  -13.4561 C   0  0  0  0  0  0  0  0  0  0  0  0
  -26.0256   -1.5328  -14.7634 C   0  0  0  0  0  0  0  0  0  0  0  0
  -24.8513   -0.8109  -15.0189 C   0  0  0  0  0  0  0  0  0  0  0  0
  -23.9867   -0.4221  -13.9828 C   0  0  0  0  0  0  0  0  0  0  0  0
  -24.3364   -0.8218  -12.6857 C   0  0  0  0  0  0  0  0  0  0  0  0
  -22.7926    0.4209  -14.2231 C   0  0  0  0  0  0  0  0  0  0  0  0
  -21.5811   -0.1232  -14.6942 C   0  0  0  0  0  0  0  0  0  0  0  0
  -20.4545    0.6774  -14.9131 C   0  0  0  0  0  0  0  0  0  0  0  0
  -20.5183    2.0485  -14.6861 C   0  0  0  0  0  0  0  0  0  0  0  0
  -21.7029    2.5994  -14.2171 C   0  0  0  0  0  0  0  0  0  0  0  0
  -21.8256    3.9407  -14.0017 O   0  0  0  0  0  0  0  0  0  0  0  0
  -22.8156    1.8020  -13.9633 C   0  0  0  0  0  0  0  0  0  0  0  0
  -21.0589    4.3840  -14.3999 H   0  0  0  0  0  0  0  0  0  0  0  0
 16 17  1  0  0  0
 17 15  1  0  0  0
 15 18  1  0  0  0
 15 14  1  0  0  0
 18 19  1  0  0  0
 14 13  1  0  0  0
 13 12  1  0  0  0
 12  5  1  0  0  0
  5  6  1  0  0  0
  5 10  2  0  0  0
  6  7  2  0  0  0
  7  8  1  0  0  0
  8  1  1  0  0  0
  8  9  2  0  0  0
  1  2  1  0  0  0
  1  4  1  0  0  0
  2  3  2  0  0  0
  2 20  1  0  0  0
 20 21  1  0  0  0
 20 25  2  0  0  0
 21 22  2  0  0  0
 22 23  1  0  0  0
 23 24  2  0  0  0
 24 26  1  0  0  0
 24 25  1  0  0  0
 26 27  1  0  0  0
 26 32  2  0  0  0
 27 28  2  0  0  0
 28 29  1  0  0  0
 29 30  2  0  0  0
 30 31  1  0  0  0
 30 32  1  0  0  0
 31 33  1  0  0  0
  9 10  1  0  0  0
 10 11  1  0  0  0
M  END
> <minimizedAffinity>
-10.00310

$$$$
