CHEMBL3890263


 35 38  0  0  0  0  0  0  0  0999 V2000
  -28.0752  -10.5286   -6.3655 C   0  0  0  0  0  0  0  0  0  0  0  0
  -28.3127  -10.1586   -5.0125 C   0  0  0  0  0  0  0  0  0  0  0  0
  -28.8340   -8.9299   -4.6282 C   0  0  0  0  0  0  0  0  0  0  0  0
  -28.9905   -8.6344   -3.3323 N   0  0  0  0  0  0  0  0  0  0  0  0
  -29.5024   -7.4286   -3.0482 C   0  0  0  0  0  0  0  0  0  0  0  0
  -29.9007   -6.5145   -3.9344 N   0  0  0  0  0  0  0  0  0  0  0  0
  -29.7451   -6.8208   -5.2343 C   0  0  0  0  0  0  0  0  0  0  0  0
  -29.1720   -8.0352   -5.6340 C   0  0  0  0  0  0  0  0  0  0  0  0
  -28.9285   -8.3809   -6.9776 C   0  0  0  0  0  0  0  0  0  0  0  0
  -28.4049   -9.6184   -7.3731 C   0  0  0  0  0  0  0  0  0  0  0  0
  -30.1732   -5.9135   -6.2439 N   0  0  0  0  0  0  0  0  0  0  0  0
  -31.1866   -5.8487   -6.2079 H   0  0  0  0  0  0  0  0  0  0  0  0
  -29.5963   -4.6785   -6.5997 C   0  0  0  0  0  0  0  0  0  0  0  0
  -28.9071   -4.4952   -7.8005 C   0  0  0  0  0  0  0  0  0  0  0  0
  -28.3238   -3.2697   -8.1124 C   0  0  0  0  0  0  0  0  0  0  0  0
  -28.4516   -2.1893   -7.2435 C   0  0  0  0  0  0  0  0  0  0  0  0
  -27.6502   -0.7216   -7.6604 Cl  0  0  0  0  0  0  0  0  0  0  0  0
  -29.2184   -2.3290   -6.0812 C   0  0  0  0  0  0  0  0  0  0  0  0
  -29.4757   -1.0201   -4.9829 Cl  0  0  0  0  0  0  0  0  0  0  0  0
  -29.8004   -3.5622   -5.7730 C   0  0  0  0  0  0  0  0  0  0  0  0
  -28.2915   -9.5797   -8.7249 O   0  0  0  0  0  0  0  0  0  0  0  0
  -27.2028   -9.1015   -9.4741 C   0  0  0  0  0  0  0  0  0  0  0  0
  -27.4917  -11.7667   -6.4082 O   0  0  0  0  0  0  0  0  0  0  0  0
  -26.2786  -11.8711   -7.1226 C   0  0  0  0  0  0  0  0  0  0  0  0
  -23.8701  -11.1922   -7.2644 N   0  0  0  0  0  0  0  0  0  0  0  0
  -22.7636  -10.6136   -6.4718 C   0  0  0  0  0  0  0  0  0  0  0  0
  -22.4695  -11.3258   -5.1341 C   0  0  0  0  0  0  0  0  0  0  0  0
  -23.6813  -11.5467   -4.3321 N   0  0  0  0  0  0  0  0  0  0  0  0
  -23.5811  -11.4943   -2.9528 C   0  0  0  0  0  0  0  0  0  0  0  0
  -24.8068  -11.7351   -2.1013 C   0  0  0  0  0  0  0  0  0  0  0  0
  -22.5205  -11.2068   -2.3917 O   0  0  0  0  0  0  0  0  0  0  0  0
  -24.8113  -12.0965   -5.0812 C   0  0  0  0  0  0  0  0  0  0  0  0
  -25.0729  -11.2903   -6.3749 C   0  0  0  0  0  0  0  0  0  0  0  0
  -22.1845  -12.4648   -8.6513 C   0  0  0  0  0  0  0  0  0  0  0  0
  -23.5182  -12.4654   -7.9161 C   0  0  0  0  0  0  0  0  0  0  0  0
 34 35  1  0  0  0
 35 25  1  0  0  0
 25 26  1  0  0  0
 25 33  1  0  0  0
 26 27  1  0  0  0
 27 28  1  0  0  0
 28 29  1  0  0  0
 28 32  1  0  0  0
 29 30  1  0  0  0
 29 31  2  0  0  0
 32 33  1  0  0  0
 33 24  1  0  0  0
 24 23  1  0  0  0
 23  1  1  0  0  0
  1  2  1  0  0  0
  1 10  2  0  0  0
  2  3  2  0  0  0
  3  4  1  0  0  0
  3  8  1  0  0  0
  4  5  2  0  0  0
  5  6  1  0  0  0
  6  7  2  0  0  0
  7 11  1  0  0  0
  7  8  1  0  0  0
 11 13  1  0  0  0
 11 12  1  0  0  0
 13 14  1  0  0  0
 13 20  2  0  0  0
 14 15  2  0  0  0
 15 16  1  0  0  0
 16 17  1  0  0  0
 16 18  2  0  0  0
 18 19  1  0  0  0
 18 20  1  0  0  0
  8  9  2  0  0  0
  9 10  1  0  0  0
 10 21  1  0  0  0
 21 22  1  0  0  0
M  END
> <minimizedAffinity>
-7.88179

$$$$
