CHEMBL1980391


 27 30  0  0  0  0  0  0  0  0999 V2000
  -29.8976   -4.7830   -6.7627 C   0  0  0  0  0  0  0  0  0  0  0  0
  -30.2509   -5.8124   -5.8851 C   0  0  0  0  0  0  0  0  0  0  0  0
  -29.6927   -7.0999   -5.9930 C   0  0  0  0  0  0  0  0  0  0  0  0
  -28.7939   -7.3697   -7.0471 C   0  0  0  0  0  0  0  0  0  0  0  0
  -28.4292   -6.3331   -7.9193 C   0  0  0  0  0  0  0  0  0  0  0  0
  -28.9771   -5.0594   -7.7724 C   0  0  0  0  0  0  0  0  0  0  0  0
  -28.5863   -4.1166   -8.6418 F   0  0  0  0  0  0  0  0  0  0  0  0
  -28.2378   -8.7457   -7.3034 C   0  0  0  0  0  0  0  0  0  0  0  0
  -27.7778   -9.5764   -6.4158 N   0  0  0  0  0  0  0  0  0  0  0  0
  -27.8657   -9.2736   -5.0636 C   0  0  0  0  0  0  0  0  0  0  0  0
  -28.9290   -8.6715   -4.3609 C   0  0  0  0  0  0  0  0  0  0  0  0
  -28.7472   -8.7409   -3.0413 N   0  0  0  0  0  0  0  0  0  0  0  0
  -27.5465   -9.3449   -2.9215 N   0  0  0  0  0  0  0  0  0  0  0  0
  -26.9636   -9.6761   -4.1140 C   0  0  0  0  0  0  0  0  0  0  0  0
  -25.6487  -10.3416   -4.2211 C   0  0  0  0  0  0  0  0  0  0  0  0
  -29.9589   -8.0258   -4.9544 N   0  0  0  0  0  0  0  0  0  0  0  0
  -27.1831   -9.5016   -1.9879 H   0  0  0  0  0  0  0  0  0  0  0  0
  -30.6403   -7.6827   -4.2871 H   0  0  0  0  0  0  0  0  0  0  0  0
  -28.2631   -9.2699   -8.7249 C   0  0  0  0  0  0  0  0  0  0  0  0
  -27.0552   -9.2952   -9.4499 C   0  0  0  0  0  0  0  0  0  0  0  0
  -27.0382   -9.6234  -10.8086 C   0  0  0  0  0  0  0  0  0  0  0  0
  -28.2276   -9.9044  -11.4719 C   0  0  0  0  0  0  0  0  0  0  0  0
  -29.4303   -9.8964  -10.7677 C   0  0  0  0  0  0  0  0  0  0  0  0
  -29.4556   -9.5965   -9.3975 C   0  0  0  0  0  0  0  0  0  0  0  0
  -31.0020   -9.7182   -8.6279 Cl  0  0  0  0  0  0  0  0  0  0  0  0
  -29.7192   -2.6009   -5.8296 C   0  0  0  0  0  0  0  0  0  0  0  0
  -30.5016   -3.5865   -6.4912 O   0  0  0  0  0  0  0  0  0  0  0  0
 26 27  1  0  0  0
 27  1  1  0  0  0
  1  2  1  0  0  0
  1  6  2  0  0  0
  2  3  2  0  0  0
  3  4  1  0  0  0
  3 16  1  0  0  0
  4  5  2  0  0  0
  4  8  1  0  0  0
  5  6  1  0  0  0
  6  7  1  0  0  0
  8 19  1  0  0  0
  8  9  2  0  0  0
 19 20  1  0  0  0
 19 24  2  0  0  0
 20 21  2  0  0  0
 21 22  1  0  0  0
 22 23  2  0  0  0
 23 24  1  0  0  0
 24 25  1  0  0  0
  9 10  1  0  0  0
 10 11  1  0  0  0
 10 14  2  0  0  0
 11 12  2  0  0  0
 11 16  1  0  0  0
 12 13  1  0  0  0
 13 14  1  0  0  0
 13 17  1  0  0  0
 14 15  1  0  0  0
 16 18  1  0  0  0
M  END
> <minimizedAffinity>
-7.75964

$$$$
