CHEMBL3780676


 54 60  0  0  0  0  0  0  0  0999 V2000
  -19.4432    2.1447  -14.9171 C   0  0  0  0  0  0  0  0  0  0  0  0
  -20.4652    2.8739  -14.3100 C   0  0  0  0  0  0  0  0  0  0  0  0
  -21.6667    2.2445  -13.9433 C   0  0  0  0  0  0  0  0  0  0  0  0
  -21.8741    0.8815  -14.1832 C   0  0  0  0  0  0  0  0  0  0  0  0
  -20.8567    0.1581  -14.8096 C   0  0  0  0  0  0  0  0  0  0  0  0
  -19.6603    0.7878  -15.1771 C   0  0  0  0  0  0  0  0  0  0  0  0
  -18.7228    0.0435  -15.7819 F   0  0  0  0  0  0  0  0  0  0  0  0
  -23.0716    0.2003  -13.8618 N   0  0  0  0  0  0  0  0  0  0  0  0
  -23.3011   -0.5620  -12.7251 C   0  0  0  0  0  0  0  0  0  0  0  0
  -22.4095   -0.8717  -11.9443 O   0  0  0  0  0  0  0  0  0  0  0  0
  -23.8054    0.1976  -14.5757 H   0  0  0  0  0  0  0  0  0  0  0  0
  -24.7140   -1.0769  -12.5427 C   0  0  0  0  0  0  0  0  0  0  0  0
  -25.5085   -1.3334  -13.6056 C   0  0  0  0  0  0  0  0  0  0  0  0
  -24.9277   -1.2442  -15.2510 Cl  0  0  0  0  0  0  0  0  0  0  0  0
  -26.9284   -1.7327  -13.4372 C   0  0  0  0  0  0  0  0  0  0  0  0
  -27.7953   -1.9104  -14.5403 C   0  0  0  0  0  0  0  0  0  0  0  0
  -29.1396   -2.2434  -14.3760 C   0  0  0  0  0  0  0  0  0  0  0  0
  -29.6559   -2.3810  -13.1008 C   0  0  0  0  0  0  0  0  0  0  0  0
  -28.8244   -2.1903  -11.9972 C   0  0  0  0  0  0  0  0  0  0  0  0
  -27.4507   -1.8947  -12.1422 C   0  0  0  0  0  0  0  0  0  0  0  0
  -26.5827   -1.6958  -11.0232 N   0  0  0  0  0  0  0  0  0  0  0  0
  -25.2538   -1.3025  -11.1674 C   0  0  0  0  0  0  0  0  0  0  0  0
  -24.4841   -1.1757  -10.2082 O   0  0  0  0  0  0  0  0  0  0  0  0
  -27.0933   -1.8835   -9.7022 C   0  0  0  0  0  0  0  0  0  0  0  0
  -27.2829   -0.7717   -8.8654 C   0  0  0  0  0  0  0  0  0  0  0  0
  -27.7910   -0.9368   -7.5755 C   0  0  0  0  0  0  0  0  0  0  0  0
  -28.0901   -2.2131   -7.1160 C   0  0  0  0  0  0  0  0  0  0  0  0
  -28.5830   -2.3709   -5.8810 F   0  0  0  0  0  0  0  0  0  0  0  0
  -27.8823   -3.3299   -7.9173 C   0  0  0  0  0  0  0  0  0  0  0  0
  -27.3756   -3.1678   -9.2087 C   0  0  0  0  0  0  0  0  0  0  0  0
  -18.3116    2.8516  -15.2736 O   0  0  0  0  0  0  0  0  0  0  0  0
  -14.9752    3.9594  -17.6762 C   0  0  0  0  0  0  0  0  0  0  0  0
  -16.0638    3.6526  -16.8533 C   0  0  0  0  0  0  0  0  0  0  0  0
  -15.9677    2.7104  -15.8077 C   0  0  0  0  0  0  0  0  0  0  0  0
  -17.0621    2.3242  -14.9990 C   0  0  0  0  0  0  0  0  0  0  0  0
  -16.8586    1.4546  -13.9285 C   0  0  0  0  0  0  0  0  0  0  0  0
  -15.6037    0.9181  -13.7719 C   0  0  0  0  0  0  0  0  0  0  0  0
  -14.5460    1.2225  -14.5523 N   0  0  0  0  0  0  0  0  0  0  0  0
  -14.7208    2.1100  -15.5432 C   0  0  0  0  0  0  0  0  0  0  0  0
  -13.6286    2.4707  -16.3197 C   0  0  0  0  0  0  0  0  0  0  0  0
  -13.7229    3.4061  -17.3589 C   0  0  0  0  0  0  0  0  0  0  0  0
  -14.6621    6.1765  -18.5423 C   0  0  0  0  0  0  0  0  0  0  0  0
  -15.0752    4.8260  -18.7302 O   0  0  0  0  0  0  0  0  0  0  0  0
  -12.5153    3.6736  -17.9615 O   0  0  0  0  0  0  0  0  0  0  0  0
  -11.9318    2.5813  -18.6678 C   0  0  0  0  0  0  0  0  0  0  0  0
  -12.4969    2.4744  -20.0808 C   0  0  0  0  0  0  0  0  0  0  0  0
  -13.1162    1.0816  -20.2457 C   0  0  0  0  0  0  0  0  0  0  0  0
  -12.6184    0.0862  -19.2960 N   0  0  0  0  0  0  0  0  0  0  0  0
  -13.7166   -0.4055  -18.4378 C   0  0  0  0  0  0  0  0  0  0  0  0
  -13.1903   -1.4088  -17.3886 C   0  0  0  0  0  0  0  0  0  0  0  0
  -12.4922   -2.5799  -17.9576 N   0  0  0  0  0  0  0  0  0  0  0  0
  -13.4269   -3.5116  -18.5829 C   0  0  0  0  0  0  0  0  0  0  0  0
  -11.4738   -2.1106  -18.9200 C   0  0  0  0  0  0  0  0  0  0  0  0
  -11.9659   -1.0641  -19.9493 C   0  0  0  0  0  0  0  0  0  0  0  0
 42 43  1  0  0  0
 43 32  1  0  0  0
 32 33  1  0  0  0
 32 41  2  0  0  0
 33 34  2  0  0  0
 34 35  1  0  0  0
 34 39  1  0  0  0
 35 31  1  0  0  0
 35 36  2  0  0  0
 31  1  1  0  0  0
  1  2  1  0  0  0
  1  6  2  0  0  0
  2  3  2  0  0  0
  3  4  1  0  0  0
  4  8  1  0  0  0
  4  5  2  0  0  0
  8  9  1  0  0  0
  8 11  1  0  0  0
  9 10  2  0  0  0
  9 12  1  0  0  0
 12 13  2  0  0  0
 12 22  1  0  0  0
 13 14  1  0  0  0
 13 15  1  0  0  0
 15 16  1  0  0  0
 15 20  2  0  0  0
 16 17  2  0  0  0
 17 18  1  0  0  0
 18 19  2  0  0  0
 19 20  1  0  0  0
 20 21  1  0  0  0
 21 24  1  0  0  0
 21 22  1  0  0  0
 24 25  1  0  0  0
 24 30  2  0  0  0
 25 26  2  0  0  0
 26 27  1  0  0  0
 27 28  1  0  0  0
 27 29  2  0  0  0
 29 30  1  0  0  0
 22 23  2  0  0  0
  5  6  1  0  0  0
  6  7  1  0  0  0
 36 37  1  0  0  0
 37 38  2  0  0  0
 38 39  1  0  0  0
 39 40  2  0  0  0
 40 41  1  0  0  0
 41 44  1  0  0  0
 44 45  1  0  0  0
 45 46  1  0  0  0
 46 47  1  0  0  0
 47 48  1  0  0  0
 48 49  1  0  0  0
 48 54  1  0  0  0
 49 50  1  0  0  0
 50 51  1  0  0  0
 51 52  1  0  0  0
 51 53  1  0  0  0
 53 54  1  0  0  0
M  END
> <minimizedAffinity>
-6.72902

$$$$
