CHEMBL3808728


 33 36  0  0  0  0  0  0  0  0999 V2000
  -24.6729   -0.7577  -11.9675 C   0  0  0  0  0  0  0  0  0  0  0  0
  -23.7417   -1.6069  -12.5607 C   0  0  0  0  0  0  0  0  0  0  0  0
  -22.6690   -1.0904  -13.2808 C   0  0  0  0  0  0  0  0  0  0  0  0
  -22.5066    0.2904  -13.4333 C   0  0  0  0  0  0  0  0  0  0  0  0
  -23.4515    1.1482  -12.8533 C   0  0  0  0  0  0  0  0  0  0  0  0
  -24.5412    0.6251  -12.1402 C   0  0  0  0  0  0  0  0  0  0  0  0
  -27.8814   -2.0510  -10.7441 N   0  0  0  0  0  0  0  0  0  0  0  0
  -26.9535   -1.6860  -11.6713 C   0  0  0  0  0  0  0  0  0  0  0  0
  -27.2780   -1.7977  -12.8552 O   0  0  0  0  0  0  0  0  0  0  0  0
  -25.7448   -1.2431  -11.2011 N   0  0  0  0  0  0  0  0  0  0  0  0
  -28.7425   -2.3864  -11.1509 H   0  0  0  0  0  0  0  0  0  0  0  0
  -25.5819   -1.3855  -10.2082 H   0  0  0  0  0  0  0  0  0  0  0  0
  -28.0557   -1.1825   -7.3291 C   0  0  0  0  0  0  0  0  0  0  0  0
  -28.3842   -0.9090   -8.6357 C   0  0  0  0  0  0  0  0  0  0  0  0
  -27.8090   -1.9589   -9.3762 C   0  0  0  0  0  0  0  0  0  0  0  0
  -27.1939   -2.8309   -8.5708 N   0  0  0  0  0  0  0  0  0  0  0  0
  -27.3427   -2.3398   -7.2904 O   0  0  0  0  0  0  0  0  0  0  0  0
  -27.2065   -0.8077   -5.0401 C   0  0  0  0  0  0  0  0  0  0  0  0
  -28.3318   -0.4750   -6.0351 C   0  0  0  0  0  0  0  0  0  0  0  0
  -29.6790   -0.9644   -5.4769 C   0  0  0  0  0  0  0  0  0  0  0  0
  -28.4013    1.0510   -6.2176 C   0  0  0  0  0  0  0  0  0  0  0  0
  -21.3562    0.7891  -14.1796 C   0  0  0  0  0  0  0  0  0  0  0  0
  -20.8206    2.1101  -14.1653 C   0  0  0  0  0  0  0  0  0  0  0  0
  -19.8007    2.0930  -15.0812 C   0  0  0  0  0  0  0  0  0  0  0  0
  -19.7094    0.8382  -15.6002 O   0  0  0  0  0  0  0  0  0  0  0  0
  -20.6688    0.0184  -15.0327 N   0  0  0  0  0  0  0  0  0  0  0  0
  -18.9501    3.0935  -15.5053 N   0  0  0  0  0  0  0  0  0  0  0  0
  -17.5864    2.9745  -15.3644 C   0  0  0  0  0  0  0  0  0  0  0  0
  -16.9902    2.0442  -14.8427 O   0  0  0  0  0  0  0  0  0  0  0  0
  -19.3481    3.9212  -15.9197 H   0  0  0  0  0  0  0  0  0  0  0  0
  -16.7402    4.0947  -15.8823 C   0  0  0  0  0  0  0  0  0  0  0  0
  -15.9734    3.9093  -17.1721 C   0  0  0  0  0  0  0  0  0  0  0  0
  -15.2390    4.2012  -15.8962 C   0  0  0  0  0  0  0  0  0  0  0  0
 18 19  1  0  0  0
 19 20  1  0  0  0
 19 21  1  0  0  0
 19 13  1  0  0  0
 13 14  2  0  0  0
 13 17  1  0  0  0
 14 15  1  0  0  0
 15  7  1  0  0  0
 15 16  2  0  0  0
  7  8  1  0  0  0
  7 11  1  0  0  0
  8  9  2  0  0  0
  8 10  1  0  0  0
 10  1  1  0  0  0
 10 12  1  0  0  0
  1  2  1  0  0  0
  1  6  2  0  0  0
  2  3  2  0  0  0
  3  4  1  0  0  0
  4 22  1  0  0  0
  4  5  2  0  0  0
 22 23  1  0  0  0
 22 26  2  0  0  0
 23 24  2  0  0  0
 24 27  1  0  0  0
 24 25  1  0  0  0
 27 28  1  0  0  0
 27 30  1  0  0  0
 28 29  2  0  0  0
 28 31  1  0  0  0
 31 32  1  0  0  0
 31 33  1  0  0  0
 32 33  1  0  0  0
 25 26  1  0  0  0
  5  6  1  0  0  0
 16 17  1  0  0  0
M  END
> <minimizedAffinity>
-10.34594

$$$$
