CHEMBL1085317


 40 44  0  0  0  0  0  0  0  0999 V2000
  -28.4380   -4.7984   -7.0140 C   0  0  0  0  0  0  0  0  0  0  0  0
  -27.8021   -5.1175   -8.3310 C   0  0  0  0  0  0  0  0  0  0  0  0
  -27.4084   -4.2702   -9.2315 N   0  0  0  0  0  0  0  0  0  0  0  0
  -27.5849   -2.9494   -8.9333 C   0  0  0  0  0  0  0  0  0  0  0  0
  -27.3266   -1.7886   -9.6498 C   0  0  0  0  0  0  0  0  0  0  0  0
  -27.6993   -0.7491   -8.7639 C   0  0  0  0  0  0  0  0  0  0  0  0
  -28.1833   -1.1840   -7.5993 N   0  0  0  0  0  0  0  0  0  0  0  0
  -28.1646   -2.5457   -7.7232 N   0  0  0  0  0  0  0  0  0  0  0  0
  -28.6270   -3.4897   -6.7587 C   0  0  0  0  0  0  0  0  0  0  0  0
  -29.2532   -2.9759   -5.6248 N   0  0  0  0  0  0  0  0  0  0  0  0
  -29.0246   -1.9871   -5.4789 H   0  0  0  0  0  0  0  0  0  0  0  0
  -29.1727   -3.5547   -4.7960 H   0  0  0  0  0  0  0  0  0  0  0  0
  -29.3727   -8.1395   -4.5278 C   0  0  0  0  0  0  0  0  0  0  0  0
  -30.0898   -7.9057   -5.7040 C   0  0  0  0  0  0  0  0  0  0  0  0
  -29.8157   -6.7882   -6.4976 C   0  0  0  0  0  0  0  0  0  0  0  0
  -28.8201   -5.8887   -6.1196 C   0  0  0  0  0  0  0  0  0  0  0  0
  -28.1510   -6.0759   -4.9038 C   0  0  0  0  0  0  0  0  0  0  0  0
  -28.4371   -7.1894   -4.1060 C   0  0  0  0  0  0  0  0  0  0  0  0
  -28.7033  -10.3642   -3.6498 C   0  0  0  0  0  0  0  0  0  0  0  0
  -27.5896  -10.4863   -4.1355 O   0  0  0  0  0  0  0  0  0  0  0  0
  -29.5478   -9.2901   -3.7394 N   0  0  0  0  0  0  0  0  0  0  0  0
  -30.3856   -9.3738   -3.1816 H   0  0  0  0  0  0  0  0  0  0  0  0
  -29.3411  -11.3592   -2.9769 O   0  0  0  0  0  0  0  0  0  0  0  0
  -29.8152  -12.4030   -3.8371 C   0  0  0  0  0  0  0  0  0  0  0  0
  -29.9860  -12.3272   -6.3698 C   0  0  0  0  0  0  0  0  0  0  0  0
  -30.6192  -11.9035   -5.0457 C   0  0  0  0  0  0  0  0  0  0  0  0
  -32.0431  -12.4582   -4.9418 C   0  0  0  0  0  0  0  0  0  0  0  0
  -26.8482   -1.7066  -11.0219 C   0  0  0  0  0  0  0  0  0  0  0  0
  -27.6582   -2.1231  -12.0830 C   0  0  0  0  0  0  0  0  0  0  0  0
  -27.2512   -1.9375  -13.3994 C   0  0  0  0  0  0  0  0  0  0  0  0
  -26.0304   -1.3216  -13.6680 C   0  0  0  0  0  0  0  0  0  0  0  0
  -25.1818   -0.8864  -12.6398 C   0  0  0  0  0  0  0  0  0  0  0  0
  -25.6085   -1.1067  -11.3172 C   0  0  0  0  0  0  0  0  0  0  0  0
  -24.0314   -0.1830  -12.9562 N   0  0  0  0  0  0  0  0  0  0  0  0
  -23.7767    1.1620  -12.4254 C   0  0  0  0  0  0  0  0  0  0  0  0
  -22.9616    1.9714  -13.4631 C   0  0  0  0  0  0  0  0  0  0  0  0
  -21.6937    1.3074  -13.8462 N   0  0  0  0  0  0  0  0  0  0  0  0
  -20.9984    2.0897  -14.8660 C   0  0  0  0  0  0  0  0  0  0  0  0
  -21.9903   -0.0567  -14.3463 C   0  0  0  0  0  0  0  0  0  0  0  0
  -22.8052   -0.9062  -13.3401 C   0  0  0  0  0  0  0  0  0  0  0  0
 25 26  1  0  0  0
 26 27  1  0  0  0
 26 24  1  0  0  0
 24 23  1  0  0  0
 23 19  1  0  0  0
 19 20  2  0  0  0
 19 21  1  0  0  0
 21 13  1  0  0  0
 21 22  1  0  0  0
 13 14  1  0  0  0
 13 18  2  0  0  0
 14 15  2  0  0  0
 15 16  1  0  0  0
 16  1  1  0  0  0
 16 17  2  0  0  0
  1  2  1  0  0  0
  1  9  2  0  0  0
  2  3  2  0  0  0
  3  4  1  0  0  0
  4  5  2  0  0  0
  4  8  1  0  0  0
  5 28  1  0  0  0
  5  6  1  0  0  0
 28 29  1  0  0  0
 28 33  2  0  0  0
 29 30  2  0  0  0
 30 31  1  0  0  0
 31 32  2  0  0  0
 32 34  1  0  0  0
 32 33  1  0  0  0
 34 35  1  0  0  0
 34 40  1  0  0  0
 35 36  1  0  0  0
 36 37  1  0  0  0
 37 38  1  0  0  0
 37 39  1  0  0  0
 39 40  1  0  0  0
  6  7  2  0  0  0
  7  8  1  0  0  0
  8  9  1  0  0  0
  9 10  1  0  0  0
 10 11  1  0  0  0
 10 12  1  0  0  0
 17 18  1  0  0  0
M  END
> <minimizedAffinity>
-7.40364

$$$$
