CHEMBL1681942


 33 35  0  0  0  0  0  0  0  0999 V2000
  -22.9798   -0.7258  -13.4345 C   0  0  0  0  0  0  0  0  0  0  0  0
  -22.7844   -1.0008  -12.0837 C   0  0  0  0  0  0  0  0  0  0  0  0
  -23.8066   -1.5822  -11.3356 C   0  0  0  0  0  0  0  0  0  0  0  0
  -25.0523   -1.8793  -11.8964 C   0  0  0  0  0  0  0  0  0  0  0  0
  -25.2829   -1.4577  -13.2199 C   0  0  0  0  0  0  0  0  0  0  0  0
  -26.8278   -1.6956  -13.9640 Cl  0  0  0  0  0  0  0  0  0  0  0  0
  -24.2464   -0.8853  -13.9874 C   0  0  0  0  0  0  0  0  0  0  0  0
  -26.0386   -2.6210  -11.1745 N   0  0  0  0  0  0  0  0  0  0  0  0
  -26.6810   -2.1384  -10.0528 C   0  0  0  0  0  0  0  0  0  0  0  0
  -26.5176   -1.0087   -9.5923 O   0  0  0  0  0  0  0  0  0  0  0  0
  -27.5085   -3.0596   -9.4257 N   0  0  0  0  0  0  0  0  0  0  0  0
  -26.1143   -3.6057  -11.3946 H   0  0  0  0  0  0  0  0  0  0  0  0
  -27.1719   -4.0131   -9.4610 H   0  0  0  0  0  0  0  0  0  0  0  0
  -28.1363   -2.6584   -8.2128 C   0  0  0  0  0  0  0  0  0  0  0  0
  -27.7314   -1.5031   -7.5426 C   0  0  0  0  0  0  0  0  0  0  0  0
  -28.2383   -1.2605   -6.2774 C   0  0  0  0  0  0  0  0  0  0  0  0
  -29.1186   -2.0749   -5.6617 N   0  0  0  0  0  0  0  0  0  0  0  0
  -29.5143   -3.1696   -6.3476 C   0  0  0  0  0  0  0  0  0  0  0  0
  -29.0830   -3.4879   -7.6269 C   0  0  0  0  0  0  0  0  0  0  0  0
  -21.9292   -0.2870  -14.2271 O   0  0  0  0  0  0  0  0  0  0  0  0
  -20.4900    1.6005  -14.6359 C   0  0  0  0  0  0  0  0  0  0  0  0
  -20.3837    2.9892  -14.6473 C   0  0  0  0  0  0  0  0  0  0  0  0
  -19.2495    3.6571  -15.1068 N   0  0  0  0  0  0  0  0  0  0  0  0
  -21.4062    3.8014  -14.3318 N   0  0  0  0  0  0  0  0  0  0  0  0
  -22.5467    3.2107  -13.9673 C   0  0  0  0  0  0  0  0  0  0  0  0
  -22.7493    1.8938  -13.8865 N   0  0  0  0  0  0  0  0  0  0  0  0
  -21.7200    1.0964  -14.2594 C   0  0  0  0  0  0  0  0  0  0  0  0
  -18.3923    3.2168  -14.7705 H   0  0  0  0  0  0  0  0  0  0  0  0
  -19.3262    4.6468  -14.8999 H   0  0  0  0  0  0  0  0  0  0  0  0
  -18.1613    1.0237  -14.5356 N   0  0  0  0  0  0  0  0  0  0  0  0
  -19.3475    0.7392  -14.9765 C   0  0  0  0  0  0  0  0  0  0  0  0
  -16.2153   -0.0357  -13.9956 C   0  0  0  0  0  0  0  0  0  0  0  0
  -17.2311    0.0836  -14.9901 O   0  0  0  0  0  0  0  0  0  0  0  0
 32 33  1  0  0  0
 33 30  1  0  0  0
 30 31  2  0  0  0
 31 21  1  0  0  0
 21 22  1  0  0  0
 21 27  2  0  0  0
 22 23  1  0  0  0
 22 24  2  0  0  0
 23 28  1  0  0  0
 23 29  1  0  0  0
 24 25  1  0  0  0
 25 26  2  0  0  0
 26 27  1  0  0  0
 27 20  1  0  0  0
 20  1  1  0  0  0
  1  2  1  0  0  0
  1  7  2  0  0  0
  2  3  2  0  0  0
  3  4  1  0  0  0
  4  8  1  0  0  0
  4  5  2  0  0  0
  8  9  1  0  0  0
  8 12  1  0  0  0
  9 10  2  0  0  0
  9 11  1  0  0  0
 11 14  1  0  0  0
 11 13  1  0  0  0
 14 15  1  0  0  0
 14 19  2  0  0  0
 15 16  2  0  0  0
 16 17  1  0  0  0
 17 18  2  0  0  0
 18 19  1  0  0  0
  5  6  1  0  0  0
  5  7  1  0  0  0
M  END
> <minimizedAffinity>
-10.19844

$$$$
