CHEMBL1242468


 27 29  0  0  0  0  0  0  0  0999 V2000
  -28.9769   -9.4162   -9.1370 N   0  0  0  0  0  0  0  0  0  0  0  0
  -28.4712   -8.2934   -8.5886 N   0  0  0  0  0  0  0  0  0  0  0  0
  -29.4591   -7.8248   -7.8024 C   0  0  0  0  0  0  0  0  0  0  0  0
  -30.5642   -8.7347   -7.7663 C   0  0  0  0  0  0  0  0  0  0  0  0
  -31.8161   -8.8680   -7.1395 C   0  0  0  0  0  0  0  0  0  0  0  0
  -32.3706   -7.9742   -6.2382 N   0  0  0  0  0  0  0  0  0  0  0  0
  -32.5657   -9.9561   -7.4153 N   0  0  0  0  0  0  0  0  0  0  0  0
  -32.0894  -10.8706   -8.2788 C   0  0  0  0  0  0  0  0  0  0  0  0
  -30.9197  -10.8530   -8.9350 N   0  0  0  0  0  0  0  0  0  0  0  0
  -30.2053   -9.7532   -8.6351 C   0  0  0  0  0  0  0  0  0  0  0  0
  -31.7264   -7.4601   -5.6534 H   0  0  0  0  0  0  0  0  0  0  0  0
  -33.1758   -8.3737   -5.7698 H   0  0  0  0  0  0  0  0  0  0  0  0
  -29.2832   -6.5398   -7.1186 C   0  0  0  0  0  0  0  0  0  0  0  0
  -29.8325   -5.3647   -7.6659 C   0  0  0  0  0  0  0  0  0  0  0  0
  -29.6727   -4.1318   -7.0239 C   0  0  0  0  0  0  0  0  0  0  0  0
  -28.9517   -4.0725   -5.8399 C   0  0  0  0  0  0  0  0  0  0  0  0
  -28.7720   -2.8973   -5.2213 F   0  0  0  0  0  0  0  0  0  0  0  0
  -28.4149   -5.2270   -5.2824 C   0  0  0  0  0  0  0  0  0  0  0  0
  -27.6904   -5.1838   -4.1260 O   0  0  0  0  0  0  0  0  0  0  0  0
  -28.6001   -6.4589   -5.8969 C   0  0  0  0  0  0  0  0  0  0  0  0
  -27.6660   -4.2522   -3.8389 H   0  0  0  0  0  0  0  0  0  0  0  0
  -28.9585  -10.1754  -11.5062 C   0  0  0  0  0  0  0  0  0  0  0  0
  -28.2331  -10.1589  -10.1548 C   0  0  0  0  0  0  0  0  0  0  0  0
  -26.7967   -9.6128  -10.2682 C   0  0  0  0  0  0  0  0  0  0  0  0
  -26.6241   -8.6537  -11.3669 N   0  0  0  0  0  0  0  0  0  0  0  0
  -26.7671   -9.1241  -12.2609 H   0  0  0  0  0  0  0  0  0  0  0  0
  -25.6597   -8.3212  -11.3750 H   0  0  0  0  0  0  0  0  0  0  0  0
 22 23  1  0  0  0
 23 24  1  0  0  0
 23  1  1  0  0  0
 24 25  1  0  0  0
 25 26  1  0  0  0
 25 27  1  0  0  0
  1  2  1  0  0  0
  1 10  1  0  0  0
  2  3  2  0  0  0
  3 13  1  0  0  0
  3  4  1  0  0  0
 13 14  1  0  0  0
 13 20  2  0  0  0
 14 15  2  0  0  0
 15 16  1  0  0  0
 16 17  1  0  0  0
 16 18  2  0  0  0
 18 19  1  0  0  0
 18 20  1  0  0  0
 19 21  1  0  0  0
  4  5  1  0  0  0
  4 10  2  0  0  0
  5  6  1  0  0  0
  5  7  2  0  0  0
  6 11  1  0  0  0
  6 12  1  0  0  0
  7  8  1  0  0  0
  8  9  2  0  0  0
  9 10  1  0  0  0
M  END
> <minimizedAffinity>
-7.72742

$$$$
