CHEMBL192856


 42 44  0  0  0  0  0  0  0  0999 V2000
  -28.8130   -3.0135   -5.6270 C   0  0  0  0  0  0  0  0  0  0  0  0
  -29.6516   -4.0514   -6.0254 C   0  0  0  0  0  0  0  0  0  0  0  0
  -29.3983   -5.3510   -5.6122 C   0  0  0  0  0  0  0  0  0  0  0  0
  -30.1098   -6.3904   -6.1000 N   0  0  0  0  0  0  0  0  0  0  0  0
  -29.7726   -7.6482   -5.7179 C   0  0  0  0  0  0  0  0  0  0  0  0
  -28.7013   -7.9535   -4.8565 C   0  0  0  0  0  0  0  0  0  0  0  0
  -28.0128   -6.8439   -4.3345 C   0  0  0  0  0  0  0  0  0  0  0  0
  -28.3485   -5.5450   -4.7168 C   0  0  0  0  0  0  0  0  0  0  0  0
  -27.6341   -4.4409   -4.2661 C   0  0  0  0  0  0  0  0  0  0  0  0
  -27.8356   -3.1926   -4.7246 N   0  0  0  0  0  0  0  0  0  0  0  0
  -30.4938   -8.6754   -6.3413 N   0  0  0  0  0  0  0  0  0  0  0  0
  -30.0993   -9.4087   -7.4211 C   0  0  0  0  0  0  0  0  0  0  0  0
  -30.8273  -10.3265   -7.8087 O   0  0  0  0  0  0  0  0  0  0  0  0
  -28.9030   -9.0847   -7.9988 N   0  0  0  0  0  0  0  0  0  0  0  0
  -31.0114   -9.2700   -5.7077 H   0  0  0  0  0  0  0  0  0  0  0  0
  -28.2698   -8.5713   -7.4091 H   0  0  0  0  0  0  0  0  0  0  0  0
  -28.3078   -9.7937   -9.1559 C   0  0  0  0  0  0  0  0  0  0  0  0
  -27.1365   -8.9852   -9.7269 C   0  0  0  0  0  0  0  0  0  0  0  0
  -27.7637  -11.1505   -8.6696 C   0  0  0  0  0  0  0  0  0  0  0  0
  -29.3345  -10.0696  -10.2718 C   0  0  0  0  0  0  0  0  0  0  0  0
  -28.2191   -9.3122   -4.5211 C   0  0  0  0  0  0  0  0  0  0  0  0
  -29.0078  -10.2395   -3.8202 C   0  0  0  0  0  0  0  0  0  0  0  0
  -28.5048  -11.4929   -3.4630 C   0  0  0  0  0  0  0  0  0  0  0  0
  -27.2371  -11.8864   -3.8926 C   0  0  0  0  0  0  0  0  0  0  0  0
  -26.4600  -11.0175   -4.6502 C   0  0  0  0  0  0  0  0  0  0  0  0
  -26.9507   -9.7448   -4.9455 C   0  0  0  0  0  0  0  0  0  0  0  0
  -29.1914  -12.4139   -2.7168 O   0  0  0  0  0  0  0  0  0  0  0  0
  -30.6122  -12.2805   -2.7543 C   0  0  0  0  0  0  0  0  0  0  0  0
  -25.2167  -11.2655   -5.1606 O   0  0  0  0  0  0  0  0  0  0  0  0
  -24.7294  -10.3488   -6.1290 C   0  0  0  0  0  0  0  0  0  0  0  0
  -29.0102   -1.7461   -6.1975 N   0  0  0  0  0  0  0  0  0  0  0  0
  -29.1470   -1.0737   -5.4477 H   0  0  0  0  0  0  0  0  0  0  0  0
  -27.9667   -1.3470   -7.1441 C   0  0  0  0  0  0  0  0  0  0  0  0
  -27.8772   -2.3991   -8.2481 C   0  0  0  0  0  0  0  0  0  0  0  0
  -27.9781   -1.7884   -9.6496 C   0  0  0  0  0  0  0  0  0  0  0  0
  -26.5955   -1.7339  -10.3077 C   0  0  0  0  0  0  0  0  0  0  0  0
  -26.5805   -1.0469  -11.6859 C   0  0  0  0  0  0  0  0  0  0  0  0
  -25.5545   -1.5395  -12.6258 N   0  0  0  0  0  0  0  0  0  0  0  0
  -25.1724   -1.1505  -15.1006 C   0  0  0  0  0  0  0  0  0  0  0  0
  -26.0896   -1.6553  -13.9928 C   0  0  0  0  0  0  0  0  0  0  0  0
  -24.3147   -0.7449  -12.5369 C   0  0  0  0  0  0  0  0  0  0  0  0
  -23.0711   -1.4739  -12.0296 C   0  0  0  0  0  0  0  0  0  0  0  0
 39 40  1  0  0  0
 40 38  1  0  0  0
 38 41  1  0  0  0
 38 37  1  0  0  0
 41 42  1  0  0  0
 37 36  1  0  0  0
 36 35  1  0  0  0
 35 34  1  0  0  0
 34 33  1  0  0  0
 33 31  1  0  0  0
 31  1  1  0  0  0
 31 32  1  0  0  0
  1  2  1  0  0  0
  1 10  2  0  0  0
  2  3  2  0  0  0
  3  4  1  0  0  0
  3  8  1  0  0  0
  4  5  2  0  0  0
  5 11  1  0  0  0
  5  6  1  0  0  0
 11 12  1  0  0  0
 11 15  1  0  0  0
 12 13  2  0  0  0
 12 14  1  0  0  0
 14 17  1  0  0  0
 14 16  1  0  0  0
 17 18  1  0  0  0
 17 19  1  0  0  0
 17 20  1  0  0  0
  6 21  1  0  0  0
  6  7  2  0  0  0
 21 22  1  0  0  0
 21 26  2  0  0  0
 22 23  2  0  0  0
 23 27  1  0  0  0
 23 24  1  0  0  0
 27 28  1  0  0  0
 24 25  2  0  0  0
 25 29  1  0  0  0
 25 26  1  0  0  0
 29 30  1  0  0  0
  7  8  1  0  0  0
  8  9  2  0  0  0
  9 10  1  0  0  0
M  END
> <minimizedAffinity>
-7.94518

$$$$
