CHEMBL3827180


 35 39  0  0  0  0  0  0  0  0999 V2000
  -29.4791   -5.3283   -7.1413 C   0  0  0  0  0  0  0  0  0  0  0  0
  -29.7678   -4.9489   -5.8260 C   0  0  0  0  0  0  0  0  0  0  0  0
  -29.5209   -3.6499   -5.3577 C   0  0  0  0  0  0  0  0  0  0  0  0
  -28.9227   -2.7555   -6.2498 C   0  0  0  0  0  0  0  0  0  0  0  0
  -28.5360   -1.4490   -6.1152 N   0  0  0  0  0  0  0  0  0  0  0  0
  -27.9048   -0.9426   -7.1918 N   0  0  0  0  0  0  0  0  0  0  0  0
  -27.9329   -1.9565   -8.0724 C   0  0  0  0  0  0  0  0  0  0  0  0
  -28.5747   -3.1086   -7.5475 C   0  0  0  0  0  0  0  0  0  0  0  0
  -28.8639   -4.4126   -8.0046 C   0  0  0  0  0  0  0  0  0  0  0  0
  -28.6521   -0.8533   -5.3029 H   0  0  0  0  0  0  0  0  0  0  0  0
  -27.3021   -1.8274   -9.4151 C   0  0  0  0  0  0  0  0  0  0  0  0
  -26.0629   -1.4442   -9.6659 N   0  0  0  0  0  0  0  0  0  0  0  0
  -25.9501   -1.4601  -11.0343 C   0  0  0  0  0  0  0  0  0  0  0  0
  -24.8448   -1.1565  -11.8445 C   0  0  0  0  0  0  0  0  0  0  0  0
  -24.9787   -1.2337  -13.2426 C   0  0  0  0  0  0  0  0  0  0  0  0
  -26.2123   -1.6088  -13.8048 C   0  0  0  0  0  0  0  0  0  0  0  0
  -27.3234   -1.9212  -13.0125 C   0  0  0  0  0  0  0  0  0  0  0  0
  -27.1460   -1.8426  -11.6329 C   0  0  0  0  0  0  0  0  0  0  0  0
  -27.9805   -2.0850  -10.5773 N   0  0  0  0  0  0  0  0  0  0  0  0
  -28.9481   -2.3808  -10.6089 H   0  0  0  0  0  0  0  0  0  0  0  0
  -23.7980   -0.9285  -14.1373 C   0  0  0  0  0  0  0  0  0  0  0  0
  -22.6866   -0.1567  -13.4255 C   0  0  0  0  0  0  0  0  0  0  0  0
  -21.7087    0.3208  -14.3446 O   0  0  0  0  0  0  0  0  0  0  0  0
  -21.2348   -0.4626  -14.6795 H   0  0  0  0  0  0  0  0  0  0  0  0
  -29.8018   -6.6272   -7.4660 O   0  0  0  0  0  0  0  0  0  0  0  0
  -28.2173   -7.9980   -8.7434 C   0  0  0  0  0  0  0  0  0  0  0  0
  -28.7571   -7.6113   -7.3586 C   0  0  0  0  0  0  0  0  0  0  0  0
  -29.2446   -8.8138   -6.5524 C   0  0  0  0  0  0  0  0  0  0  0  0
  -28.6589   -9.1243   -5.3042 C   0  0  0  0  0  0  0  0  0  0  0  0
  -27.4531   -8.1470   -4.5386 Cl  0  0  0  0  0  0  0  0  0  0  0  0
  -29.0457  -10.2782   -4.6224 C   0  0  0  0  0  0  0  0  0  0  0  0
  -29.9693  -11.1515   -5.0734 N   0  0  0  0  0  0  0  0  0  0  0  0
  -30.5542  -10.8307   -6.2477 C   0  0  0  0  0  0  0  0  0  0  0  0
  -30.2472   -9.6941   -7.0026 C   0  0  0  0  0  0  0  0  0  0  0  0
  -31.1585   -9.4550   -8.4470 Cl  0  0  0  0  0  0  0  0  0  0  0  0
 26 27  1  0  0  0
 27 25  1  0  0  0
 27 28  1  0  0  0
 25  1  1  0  0  0
  1  2  1  0  0  0
  1  9  2  0  0  0
  2  3  2  0  0  0
  3  4  1  0  0  0
  4  5  1  0  0  0
  4  8  2  0  0  0
  5  6  1  0  0  0
  5 10  1  0  0  0
  6  7  2  0  0  0
  7 11  1  0  0  0
  7  8  1  0  0  0
 11 12  2  0  0  0
 11 19  1  0  0  0
 12 13  1  0  0  0
 13 14  1  0  0  0
 13 18  2  0  0  0
 14 15  2  0  0  0
 15 21  1  0  0  0
 15 16  1  0  0  0
 21 22  1  0  0  0
 22 23  1  0  0  0
 23 24  1  0  0  0
 16 17  2  0  0  0
 17 18  1  0  0  0
 18 19  1  0  0  0
 19 20  1  0  0  0
  8  9  1  0  0  0
 28 29  1  0  0  0
 28 34  2  0  0  0
 29 30  1  0  0  0
 29 31  2  0  0  0
 31 32  1  0  0  0
 32 33  2  0  0  0
 33 34  1  0  0  0
 34 35  1  0  0  0
M  END
> <minimizedAffinity>
-9.93940

$$$$
