CHEMBL1966836


 36 39  0  0  0  0  0  0  0  0999 V2000
  -27.6264   -2.1009   -9.5055 C   0  0  0  0  0  0  0  0  0  0  0  0
  -28.2487   -1.6097  -10.6550 C   0  0  0  0  0  0  0  0  0  0  0  0
  -27.5207   -1.2281  -11.7805 C   0  0  0  0  0  0  0  0  0  0  0  0
  -26.1289   -1.1828  -11.7585 C   0  0  0  0  0  0  0  0  0  0  0  0
  -25.4752   -1.6021  -10.5985 C   0  0  0  0  0  0  0  0  0  0  0  0
  -26.2168   -2.0597   -9.4905 C   0  0  0  0  0  0  0  0  0  0  0  0
  -29.7565   -1.9521   -3.7299 C   0  0  0  0  0  0  0  0  0  0  0  0
  -29.1561   -1.7157   -5.0169 N   0  0  0  0  0  0  0  0  0  0  0  0
  -28.4423   -0.5992   -5.2312 N   0  0  0  0  0  0  0  0  0  0  0  0
  -28.0701   -0.7050   -6.5017 C   0  0  0  0  0  0  0  0  0  0  0  0
  -27.3572    0.2810   -7.0740 N   0  0  0  0  0  0  0  0  0  0  0  0
  -28.5124   -1.9205   -7.1236 C   0  0  0  0  0  0  0  0  0  0  0  0
  -28.4221   -2.6096   -8.3707 C   0  0  0  0  0  0  0  0  0  0  0  0
  -29.1236   -3.8289   -8.4513 C   0  0  0  0  0  0  0  0  0  0  0  0
  -29.8386   -4.3031   -7.3605 C   0  0  0  0  0  0  0  0  0  0  0  0
  -29.9289   -3.6967   -6.1627 N   0  0  0  0  0  0  0  0  0  0  0  0
  -29.2500   -2.5325   -6.1084 C   0  0  0  0  0  0  0  0  0  0  0  0
  -27.2344    1.1197   -6.5214 H   0  0  0  0  0  0  0  0  0  0  0  0
  -27.4260    0.4534   -8.0687 H   0  0  0  0  0  0  0  0  0  0  0  0
  -25.3745   -0.7374  -12.8697 N   0  0  0  0  0  0  0  0  0  0  0  0
  -24.2583    0.0800  -12.7509 C   0  0  0  0  0  0  0  0  0  0  0  0
  -23.7273    0.3877  -11.6914 O   0  0  0  0  0  0  0  0  0  0  0  0
  -23.8236    0.5523  -13.9805 N   0  0  0  0  0  0  0  0  0  0  0  0
  -25.4630   -1.2518  -13.7358 H   0  0  0  0  0  0  0  0  0  0  0  0
  -24.5627    0.7368  -14.6443 H   0  0  0  0  0  0  0  0  0  0  0  0
  -22.6592    1.3524  -14.0665 C   0  0  0  0  0  0  0  0  0  0  0  0
  -22.7154    2.7405  -13.8892 C   0  0  0  0  0  0  0  0  0  0  0  0
  -21.5693    3.5195  -14.0299 C   0  0  0  0  0  0  0  0  0  0  0  0
  -20.3650    2.9137  -14.3664 C   0  0  0  0  0  0  0  0  0  0  0  0
  -19.2855    3.6906  -14.5174 F   0  0  0  0  0  0  0  0  0  0  0  0
  -20.2805    1.5362  -14.5535 C   0  0  0  0  0  0  0  0  0  0  0  0
  -21.4360    0.7493  -14.3671 C   0  0  0  0  0  0  0  0  0  0  0  0
  -19.0023    0.8966  -15.0040 C   0  0  0  0  0  0  0  0  0  0  0  0
  -19.1180   -0.3735  -15.4744 F   0  0  0  0  0  0  0  0  0  0  0  0
  -18.3990    1.6068  -15.9985 F   0  0  0  0  0  0  0  0  0  0  0  0
  -18.0852    0.8347  -13.9956 F   0  0  0  0  0  0  0  0  0  0  0  0
  7  8  1  0  0  0
  8  9  1  0  0  0
  8 17  1  0  0  0
  9 10  2  0  0  0
 10 11  1  0  0  0
 10 12  1  0  0  0
 11 18  1  0  0  0
 11 19  1  0  0  0
 12 13  1  0  0  0
 12 17  2  0  0  0
 13  1  1  0  0  0
 13 14  2  0  0  0
  1  2  1  0  0  0
  1  6  2  0  0  0
  2  3  2  0  0  0
  3  4  1  0  0  0
  4 20  1  0  0  0
  4  5  2  0  0  0
 20 21  1  0  0  0
 20 24  1  0  0  0
 21 22  2  0  0  0
 21 23  1  0  0  0
 23 26  1  0  0  0
 23 25  1  0  0  0
 26 27  1  0  0  0
 26 32  2  0  0  0
 27 28  2  0  0  0
 28 29  1  0  0  0
 29 30  1  0  0  0
 29 31  2  0  0  0
 31 33  1  0  0  0
 31 32  1  0  0  0
 33 34  1  0  0  0
 33 35  1  0  0  0
 33 36  1  0  0  0
  5  6  1  0  0  0
 14 15  1  0  0  0
 15 16  2  0  0  0
 16 17  1  0  0  0
M  END
> <minimizedAffinity>
-9.17380

$$$$
