CHEMBL3941700


 34 37  0  0  0  0  0  0  0  0999 V2000
  -28.8658   -4.8525   -5.7269 C   0  0  0  0  0  0  0  0  0  0  0  0
  -28.3001   -3.8305   -4.9621 C   0  0  0  0  0  0  0  0  0  0  0  0
  -27.9601   -2.6219   -5.5453 C   0  0  0  0  0  0  0  0  0  0  0  0
  -28.0208   -2.4263   -6.8976 C   0  0  0  0  0  0  0  0  0  0  0  0
  -27.8630   -1.1596   -7.2811 N   0  0  0  0  0  0  0  0  0  0  0  0
  -27.6913   -0.9366   -8.5864 C   0  0  0  0  0  0  0  0  0  0  0  0
  -27.5635   -1.9667   -9.4949 C   0  0  0  0  0  0  0  0  0  0  0  0
  -27.8964   -3.2628   -9.1329 N   0  0  0  0  0  0  0  0  0  0  0  0
  -28.2049   -3.5238   -7.7849 C   0  0  0  0  0  0  0  0  0  0  0  0
  -28.7224   -4.7324   -7.1423 C   0  0  0  0  0  0  0  0  0  0  0  0
  -26.7663   -1.6348  -10.6854 C   0  0  0  0  0  0  0  0  0  0  0  0
  -27.0523   -1.4855  -12.0620 C   0  0  0  0  0  0  0  0  0  0  0  0
  -26.0180   -0.9990  -12.7706 N   0  0  0  0  0  0  0  0  0  0  0  0
  -25.0463   -0.8231  -11.8521 N   0  0  0  0  0  0  0  0  0  0  0  0
  -25.4959   -1.0741  -10.5805 C   0  0  0  0  0  0  0  0  0  0  0  0
  -23.6447   -0.6299  -12.2376 C   0  0  0  0  0  0  0  0  0  0  0  0
  -23.0835   -1.9339  -12.8088 C   0  0  0  0  0  0  0  0  0  0  0  0
  -23.3677    0.5300  -13.2013 C   0  0  0  0  0  0  0  0  0  0  0  0
  -29.7013   -5.7714   -4.9673 N   0  0  0  0  0  0  0  0  0  0  0  0
  -30.1170   -9.2782   -6.2597 C   0  0  0  0  0  0  0  0  0  0  0  0
  -29.4630  -10.0125   -5.2716 C   0  0  0  0  0  0  0  0  0  0  0  0
  -28.9429   -9.3641   -4.1546 C   0  0  0  0  0  0  0  0  0  0  0  0
  -29.0753   -7.9740   -4.0286 C   0  0  0  0  0  0  0  0  0  0  0  0
  -29.7248   -7.1917   -4.9953 C   0  0  0  0  0  0  0  0  0  0  0  0
  -30.2561   -7.8792   -6.1099 C   0  0  0  0  0  0  0  0  0  0  0  0
  -31.8961   -9.3481   -7.8627 C   0  0  0  0  0  0  0  0  0  0  0  0
  -30.6232   -9.8253   -7.4165 O   0  0  0  0  0  0  0  0  0  0  0  0
  -28.2530   -9.9671   -3.1358 O   0  0  0  0  0  0  0  0  0  0  0  0
  -26.8962  -10.3136   -3.3927 C   0  0  0  0  0  0  0  0  0  0  0  0
  -31.0514   -5.0927   -4.8078 C   0  0  0  0  0  0  0  0  0  0  0  0
  -31.5772   -4.7879   -3.3762 C   0  0  0  0  0  0  0  0  0  0  0  0
  -30.9993   -3.6253   -2.6871 N   0  0  0  0  0  0  0  0  0  0  0  0
  -30.0761   -3.8795   -2.3364 H   0  0  0  0  0  0  0  0  0  0  0  0
  -31.5576   -3.4154   -1.8559 H   0  0  0  0  0  0  0  0  0  0  0  0
 26 27  1  0  0  0
 27 20  1  0  0  0
 20 21  1  0  0  0
 20 25  2  0  0  0
 21 22  2  0  0  0
 22 28  1  0  0  0
 22 23  1  0  0  0
 28 29  1  0  0  0
 23 24  2  0  0  0
 24 19  1  0  0  0
 24 25  1  0  0  0
 19 30  1  0  0  0
 19  1  1  0  0  0
 30 31  1  0  0  0
 31 32  1  0  0  0
 32 33  1  0  0  0
 32 34  1  0  0  0
  1  2  1  0  0  0
  1 10  2  0  0  0
  2  3  2  0  0  0
  3  4  1  0  0  0
  4  5  1  0  0  0
  4  9  2  0  0  0
  5  6  2  0  0  0
  6  7  1  0  0  0
  7 11  1  0  0  0
  7  8  2  0  0  0
 11 12  1  0  0  0
 11 15  2  0  0  0
 12 13  2  0  0  0
 13 14  1  0  0  0
 14 16  1  0  0  0
 14 15  1  0  0  0
 16 17  1  0  0  0
 16 18  1  0  0  0
  8  9  1  0  0  0
  9 10  1  0  0  0
M  END
> <minimizedAffinity>
-7.97480

$$$$
