CHEMBL439428


 34 38  0  0  0  0  0  0  0  0999 V2000
  -12.9378   -5.4007  -10.5380 C   0  0  0  0  0  0  0  0  0  0  0  0
  -13.1628   -4.3750   -9.5503 C   0  0  0  0  0  0  0  0  0  0  0  0
  -14.4900   -4.0082   -9.6129 C   0  0  0  0  0  0  0  0  0  0  0  0
  -15.0811   -4.7192  -10.6111 N   0  0  0  0  0  0  0  0  0  0  0  0
  -16.3378   -4.5305  -11.0348 N   0  0  0  0  0  0  0  0  0  0  0  0
  -16.6768   -5.2999  -12.0192 C   0  0  0  0  0  0  0  0  0  0  0  0
  -15.9076   -6.2746  -12.5906 N   0  0  0  0  0  0  0  0  0  0  0  0
  -14.6921   -6.4788  -12.1729 C   0  0  0  0  0  0  0  0  0  0  0  0
  -14.1920   -5.6162  -11.1306 C   0  0  0  0  0  0  0  0  0  0  0  0
  -12.2265   -3.7089   -8.5933 C   0  0  0  0  0  0  0  0  0  0  0  0
  -11.5000   -2.6389   -8.8522 N   0  0  0  0  0  0  0  0  0  0  0  0
  -10.8131   -2.3151   -7.7029 N   0  0  0  0  0  0  0  0  0  0  0  0
  -11.1446   -3.2271   -6.8246 C   0  0  0  0  0  0  0  0  0  0  0  0
  -12.0274   -4.1441   -7.2984 O   0  0  0  0  0  0  0  0  0  0  0  0
  -10.7006   -5.2374  -11.7760 C   0  0  0  0  0  0  0  0  0  0  0  0
  -11.6333   -6.0875  -10.9102 C   0  0  0  0  0  0  0  0  0  0  0  0
  -10.8800   -6.6586   -9.7088 C   0  0  0  0  0  0  0  0  0  0  0  0
  -13.9460   -7.5138  -12.7041 N   0  0  0  0  0  0  0  0  0  0  0  0
  -14.0735   -8.4129  -12.2490 H   0  0  0  0  0  0  0  0  0  0  0  0
  -13.5069   -7.5924  -14.0392 C   0  0  0  0  0  0  0  0  0  0  0  0
  -13.4713   -8.8121  -14.7338 C   0  0  0  0  0  0  0  0  0  0  0  0
  -13.0394   -8.8854  -16.0683 C   0  0  0  0  0  0  0  0  0  0  0  0
  -12.6245   -7.7100  -16.6979 C   0  0  0  0  0  0  0  0  0  0  0  0
  -12.1905   -7.7235  -17.9672 F   0  0  0  0  0  0  0  0  0  0  0  0
  -12.6611   -6.4850  -16.0350 C   0  0  0  0  0  0  0  0  0  0  0  0
  -13.1114   -6.4348  -14.7218 C   0  0  0  0  0  0  0  0  0  0  0  0
  -13.1614   -5.2510  -14.0923 F   0  0  0  0  0  0  0  0  0  0  0  0
  -13.0672  -10.2188  -16.7410 C   0  0  0  0  0  0  0  0  0  0  0  0
  -12.1881  -11.0372  -16.5012 O   0  0  0  0  0  0  0  0  0  0  0  0
  -14.1190  -10.4739  -17.6016 N   0  0  0  0  0  0  0  0  0  0  0  0
  -14.8658   -9.7921  -17.6847 H   0  0  0  0  0  0  0  0  0  0  0  0
  -14.2963  -11.7352  -18.2528 C   0  0  0  0  0  0  0  0  0  0  0  0
  -13.9616  -11.9374  -19.7047 C   0  0  0  0  0  0  0  0  0  0  0  0
  -15.3956  -11.9005  -19.2686 C   0  0  0  0  0  0  0  0  0  0  0  0
 15 16  1  0  0  0
 16 17  1  0  0  0
 16  1  1  0  0  0
  1  2  1  0  0  0
  1  9  2  0  0  0
  2 10  1  0  0  0
  2  3  2  0  0  0
 10 11  2  0  0  0
 10 14  1  0  0  0
 11 12  1  0  0  0
 12 13  2  0  0  0
 13 14  1  0  0  0
  3  4  1  0  0  0
  4  5  1  0  0  0
  4  9  1  0  0  0
  5  6  2  0  0  0
  6  7  1  0  0  0
  7  8  2  0  0  0
  8 18  1  0  0  0
  8  9  1  0  0  0
 18 20  1  0  0  0
 18 19  1  0  0  0
 20 21  1  0  0  0
 20 26  2  0  0  0
 21 22  2  0  0  0
 22 28  1  0  0  0
 22 23  1  0  0  0
 28 29  2  0  0  0
 28 30  1  0  0  0
 30 32  1  0  0  0
 30 31  1  0  0  0
 32 33  1  0  0  0
 32 34  1  0  0  0
 33 34  1  0  0  0
 23 24  1  0  0  0
 23 25  2  0  0  0
 25 26  1  0  0  0
 26 27  1  0  0  0
M  END
> <minimizedAffinity>
-8.40499

$$$$
