CHEMBL3648088


 34 35  0  0  0  0  0  0  0  0999 V2000
  -19.8894    2.7919  -15.1967 N   0  0  0  0  0  0  0  0  0  0  0  0
  -20.0315    3.7586  -14.9376 H   0  0  0  0  0  0  0  0  0  0  0  0
  -18.5279    2.5939  -15.4352 C   0  0  0  0  0  0  0  0  0  0  0  0
  -17.8378    3.6523  -15.8782 N   0  0  0  0  0  0  0  0  0  0  0  0
  -16.5065    3.4824  -16.0216 C   0  0  0  0  0  0  0  0  0  0  0  0
  -15.8454    2.3059  -15.7409 C   0  0  0  0  0  0  0  0  0  0  0  0
  -13.9750    2.1909  -15.9539 Br  0  0  0  0  0  0  0  0  0  0  0  0
  -16.6285    1.2515  -15.3003 C   0  0  0  0  0  0  0  0  0  0  0  0
  -17.9534    1.4087  -15.1748 N   0  0  0  0  0  0  0  0  0  0  0  0
  -16.0714   -0.0133  -15.0382 N   0  0  0  0  0  0  0  0  0  0  0  0
  -15.0977   -0.0307  -15.3352 H   0  0  0  0  0  0  0  0  0  0  0  0
  -16.2792   -0.5982  -13.6857 C   0  0  0  0  0  0  0  0  0  0  0  0
  -16.0163    0.4244  -12.5775 C   0  0  0  0  0  0  0  0  0  0  0  0
  -15.3956   -1.8875  -13.5612 C   0  0  0  0  0  0  0  0  0  0  0  0
  -14.0539   -1.7930  -14.2949 C   0  0  0  0  0  0  0  0  0  0  0  0
  -15.1541   -2.2692  -12.0966 C   0  0  0  0  0  0  0  0  0  0  0  0
  -16.1238   -2.9754  -14.1601 O   0  0  0  0  0  0  0  0  0  0  0  0
  -16.6346   -2.5656  -14.8889 H   0  0  0  0  0  0  0  0  0  0  0  0
  -22.7747    0.0933  -13.7086 C   0  0  0  0  0  0  0  0  0  0  0  0
  -22.9415    1.4712  -13.5489 C   0  0  0  0  0  0  0  0  0  0  0  0
  -21.9906    2.3550  -14.0724 C   0  0  0  0  0  0  0  0  0  0  0  0
  -20.8572    1.8788  -14.7432 C   0  0  0  0  0  0  0  0  0  0  0  0
  -20.7587    0.4946  -14.9410 C   0  0  0  0  0  0  0  0  0  0  0  0
  -21.6831   -0.4023  -14.4081 C   0  0  0  0  0  0  0  0  0  0  0  0
  -24.9770   -0.2180  -12.2627 N   0  0  0  0  0  0  0  0  0  0  0  0
  -23.9173   -1.0637  -12.9775 S   0  0  0  0  0  0  0  0  0  0  0  0
  -23.0897   -2.0577  -12.3170 O   0  0  0  0  0  0  0  0  0  0  0  0
  -25.8606   -0.8282  -11.3939 C   0  0  0  0  0  0  0  0  0  0  0  0
  -25.5357   -1.3568  -10.3404 O   0  0  0  0  0  0  0  0  0  0  0  0
  -27.1181   -0.8488  -11.9059 O   0  0  0  0  0  0  0  0  0  0  0  0
  -28.2991   -2.1049  -13.5932 C   0  0  0  0  0  0  0  0  0  0  0  0
  -27.6217   -2.1447  -12.2373 C   0  0  0  0  0  0  0  0  0  0  0  0
  -24.6980   -1.8561  -14.3770 C   0  0  0  0  0  0  0  0  0  0  0  0
  -25.2355   -0.8902  -15.4142 C   0  0  0  0  0  0  0  0  0  0  0  0
 31 32  1  0  0  0
 32 30  1  0  0  0
 30 28  1  0  0  0
 28 29  2  0  0  0
 28 25  1  0  0  0
 25 26  2  0  0  0
 26 27  2  0  0  0
 26 33  1  0  0  0
 26 19  1  0  0  0
 33 34  1  0  0  0
 19 20  1  0  0  0
 19 24  2  0  0  0
 20 21  2  0  0  0
 21 22  1  0  0  0
 22  1  1  0  0  0
 22 23  2  0  0  0
  1  3  1  0  0  0
  1  2  1  0  0  0
  3  4  1  0  0  0
  3  9  2  0  0  0
  4  5  2  0  0  0
  5  6  1  0  0  0
  6  7  1  0  0  0
  6  8  2  0  0  0
  8 10  1  0  0  0
  8  9  1  0  0  0
 10 11  1  0  0  0
 12 14  1  0  0  0
 12 13  1  0  0  0
 12 10  1  0  0  0
 14 15  1  0  0  0
 14 16  1  0  0  0
 14 17  1  0  0  0
 17 18  1  0  0  0
 23 24  1  0  0  0
M  END
> <minimizedAffinity>
-8.46083

$$$$
