CHEMBL195700


 33 35  0  0  0  0  0  0  0  0999 V2000
  -14.0819   -4.9028  -10.8894 C   0  0  0  0  0  0  0  0  0  0  0  0
  -12.8843   -5.3533  -10.3761 C   0  0  0  0  0  0  0  0  0  0  0  0
  -12.5245   -6.4881  -11.0219 N   0  0  0  0  0  0  0  0  0  0  0  0
  -11.3908   -7.1488  -10.7573 N   0  0  0  0  0  0  0  0  0  0  0  0
  -11.1850   -8.1615  -11.5283 C   0  0  0  0  0  0  0  0  0  0  0  0
  -11.9952   -8.5813  -12.5407 N   0  0  0  0  0  0  0  0  0  0  0  0
  -13.1114   -7.9563  -12.8002 C   0  0  0  0  0  0  0  0  0  0  0  0
  -13.4521   -6.8120  -11.9797 C   0  0  0  0  0  0  0  0  0  0  0  0
  -14.4857   -5.8614  -11.9161 C   0  0  0  0  0  0  0  0  0  0  0  0
  -15.7540   -5.6568  -12.7373 C   0  0  0  0  0  0  0  0  0  0  0  0
  -16.9714   -5.4017  -11.8453 C   0  0  0  0  0  0  0  0  0  0  0  0
  -15.6997   -4.6466  -13.8748 C   0  0  0  0  0  0  0  0  0  0  0  0
  -14.7049   -3.6386  -10.4840 C   0  0  0  0  0  0  0  0  0  0  0  0
  -15.4035   -3.5042   -9.4875 O   0  0  0  0  0  0  0  0  0  0  0  0
  -14.5047   -2.6570  -11.4133 O   0  0  0  0  0  0  0  0  0  0  0  0
  -15.3150   -1.0215  -12.9568 C   0  0  0  0  0  0  0  0  0  0  0  0
  -15.6620   -1.8865  -11.7572 C   0  0  0  0  0  0  0  0  0  0  0  0
  -13.9051   -8.4320  -13.8237 N   0  0  0  0  0  0  0  0  0  0  0  0
  -14.2312   -9.3793  -13.6375 H   0  0  0  0  0  0  0  0  0  0  0  0
  -13.6019   -8.2680  -15.1961 C   0  0  0  0  0  0  0  0  0  0  0  0
  -13.8951   -7.0799  -15.8888 C   0  0  0  0  0  0  0  0  0  0  0  0
  -13.5956   -6.9431  -17.2561 C   0  0  0  0  0  0  0  0  0  0  0  0
  -13.0339   -8.0291  -17.9323 C   0  0  0  0  0  0  0  0  0  0  0  0
  -12.7427   -7.9539  -19.2399 F   0  0  0  0  0  0  0  0  0  0  0  0
  -12.7509   -9.2204  -17.2723 C   0  0  0  0  0  0  0  0  0  0  0  0
  -13.0426   -9.3278  -15.9197 C   0  0  0  0  0  0  0  0  0  0  0  0
  -12.7554  -10.4750  -15.2832 F   0  0  0  0  0  0  0  0  0  0  0  0
  -13.8591   -5.6315  -17.9135 C   0  0  0  0  0  0  0  0  0  0  0  0
  -13.5161   -4.5946  -17.3497 O   0  0  0  0  0  0  0  0  0  0  0  0
  -14.4510   -5.6806  -19.1577 N   0  0  0  0  0  0  0  0  0  0  0  0
  -14.9832   -6.4872  -19.4668 H   0  0  0  0  0  0  0  0  0  0  0  0
  -14.8257   -4.4440  -19.7267 O   0  0  0  0  0  0  0  0  0  0  0  0
  -13.9223   -4.1729  -20.7955 C   0  0  0  0  0  0  0  0  0  0  0  0
 16 17  1  0  0  0
 17 15  1  0  0  0
 15 13  1  0  0  0
 13 14  2  0  0  0
 13  1  1  0  0  0
  1  2  2  0  0  0
  1  9  1  0  0  0
  2  3  1  0  0  0
  3  4  1  0  0  0
  3  8  1  0  0  0
  4  5  2  0  0  0
  5  6  1  0  0  0
  6  7  2  0  0  0
  7 18  1  0  0  0
  7  8  1  0  0  0
 18 20  1  0  0  0
 18 19  1  0  0  0
 20 21  1  0  0  0
 20 26  2  0  0  0
 21 22  2  0  0  0
 22 28  1  0  0  0
 22 23  1  0  0  0
 28 29  2  0  0  0
 28 30  1  0  0  0
 30 32  1  0  0  0
 30 31  1  0  0  0
 32 33  1  0  0  0
 23 24  1  0  0  0
 23 25  2  0  0  0
 25 26  1  0  0  0
 26 27  1  0  0  0
  8  9  2  0  0  0
  9 10  1  0  0  0
 10 11  1  0  0  0
 10 12  1  0  0  0
M  END
> <minimizedAffinity>
-6.95803

$$$$
