CHEMBL427233


 33 37  0  0  0  0  0  0  0  0999 V2000
  -28.6384   -9.2360   -5.9411 C   0  0  0  0  0  0  0  0  0  0  0  0
  -28.6011   -7.8419   -6.2144 C   0  0  0  0  0  0  0  0  0  0  0  0
  -29.5845   -7.2203   -6.9889 C   0  0  0  0  0  0  0  0  0  0  0  0
  -30.6331   -7.9747   -7.5145 C   0  0  0  0  0  0  0  0  0  0  0  0
  -30.6962   -9.3382   -7.2738 C   0  0  0  0  0  0  0  0  0  0  0  0
  -29.7268   -9.9828   -6.4851 C   0  0  0  0  0  0  0  0  0  0  0  0
  -29.9503  -11.4602   -6.2680 C   0  0  0  0  0  0  0  0  0  0  0  0
  -23.2571  -11.3581   -3.0872 C   0  0  0  0  0  0  0  0  0  0  0  0
  -22.8706  -10.7129   -4.1910 N   0  0  0  0  0  0  0  0  0  0  0  0
  -23.8468  -10.1594   -4.9309 C   0  0  0  0  0  0  0  0  0  0  0  0
  -25.1887  -10.2445   -4.6149 C   0  0  0  0  0  0  0  0  0  0  0  0
  -26.2035   -9.6391   -5.3791 C   0  0  0  0  0  0  0  0  0  0  0  0
  -27.5612   -9.8320   -5.0967 C   0  0  0  0  0  0  0  0  0  0  0  0
  -27.8479  -10.5984   -3.9525 C   0  0  0  0  0  0  0  0  0  0  0  0
  -26.8266  -11.1363   -3.1516 C   0  0  0  0  0  0  0  0  0  0  0  0
  -25.4889  -10.9813   -3.4751 C   0  0  0  0  0  0  0  0  0  0  0  0
  -24.5339  -11.5245   -2.7120 N   0  0  0  0  0  0  0  0  0  0  0  0
  -22.6502  -12.3711   -1.0249 C   0  0  0  0  0  0  0  0  0  0  0  0
  -22.2315  -11.8832   -2.3155 N   0  0  0  0  0  0  0  0  0  0  0  0
  -21.7446  -12.5490   -2.9100 H   0  0  0  0  0  0  0  0  0  0  0  0
  -29.6395   -5.7545   -7.2179 C   0  0  0  0  0  0  0  0  0  0  0  0
  -30.7068   -5.3170   -7.6509 O   0  0  0  0  0  0  0  0  0  0  0  0
  -28.4849   -5.0224   -6.9916 N   0  0  0  0  0  0  0  0  0  0  0  0
  -27.6247   -5.5251   -6.8280 H   0  0  0  0  0  0  0  0  0  0  0  0
  -28.3809   -3.6185   -7.1779 C   0  0  0  0  0  0  0  0  0  0  0  0
  -27.8906   -3.0588   -8.3675 C   0  0  0  0  0  0  0  0  0  0  0  0
  -27.7469   -1.6741   -8.5291 C   0  0  0  0  0  0  0  0  0  0  0  0
  -28.1124   -0.8106   -7.5092 C   0  0  0  0  0  0  0  0  0  0  0  0
  -28.6182   -1.3517   -6.3371 C   0  0  0  0  0  0  0  0  0  0  0  0
  -28.7576   -2.7367   -6.1648 C   0  0  0  0  0  0  0  0  0  0  0  0
  -29.2558   -3.0409   -4.7855 C   0  0  0  0  0  0  0  0  0  0  0  0
  -29.4683   -1.6581   -4.1444 C   0  0  0  0  0  0  0  0  0  0  0  0
  -29.0253   -0.5750   -5.1313 C   0  0  0  0  0  0  0  0  0  0  0  0
 18 19  1  0  0  0
 19  8  1  0  0  0
 19 20  1  0  0  0
  8  9  1  0  0  0
  8 17  2  0  0  0
  9 10  2  0  0  0
 10 11  1  0  0  0
 11 12  1  0  0  0
 11 16  2  0  0  0
 12 13  2  0  0  0
 13  1  1  0  0  0
 13 14  1  0  0  0
  1  2  1  0  0  0
  1  6  2  0  0  0
  2  3  2  0  0  0
  3 21  1  0  0  0
  3  4  1  0  0  0
 21 22  2  0  0  0
 21 23  1  0  0  0
 23 25  1  0  0  0
 23 24  1  0  0  0
 25 26  1  0  0  0
 25 30  2  0  0  0
 26 27  2  0  0  0
 27 28  1  0  0  0
 28 29  2  0  0  0
 29 30  1  0  0  0
 29 33  1  0  0  0
 30 31  1  0  0  0
 31 32  1  0  0  0
 32 33  1  0  0  0
  4  5  2  0  0  0
  5  6  1  0  0  0
  6  7  1  0  0  0
 14 15  2  0  0  0
 15 16  1  0  0  0
 16 17  1  0  0  0
M  END
> <minimizedAffinity>
-8.65660

$$$$
