CHEMBL231411


 34 38  0  0  0  0  0  0  0  0999 V2000
  -16.4917    2.5264  -15.4794 C   0  0  0  0  0  0  0  0  0  0  0  0
  -17.6085    3.3749  -15.5042 C   0  0  0  0  0  0  0  0  0  0  0  0
  -18.9045    2.8649  -15.4705 C   0  0  0  0  0  0  0  0  0  0  0  0
  -19.1369    1.4922  -15.4776 C   0  0  0  0  0  0  0  0  0  0  0  0
  -18.0329    0.6327  -15.3989 C   0  0  0  0  0  0  0  0  0  0  0  0
  -16.7268    1.1495  -15.3740 C   0  0  0  0  0  0  0  0  0  0  0  0
  -14.5161    0.9184  -13.2618 N   0  0  0  0  0  0  0  0  0  0  0  0
  -13.6110    1.8139  -13.8218 C   0  0  0  0  0  0  0  0  0  0  0  0
  -12.3574    1.7038  -13.3288 N   0  0  0  0  0  0  0  0  0  0  0  0
  -11.3677    2.4703  -13.8175 C   0  0  0  0  0  0  0  0  0  0  0  0
  -11.5352    3.3962  -14.8120 C   0  0  0  0  0  0  0  0  0  0  0  0
  -12.8389    3.5329  -15.3148 C   0  0  0  0  0  0  0  0  0  0  0  0
  -13.2991    4.6206  -16.5564 S   0  0  0  0  0  0  0  0  0  0  0  0
  -14.9131    4.1117  -16.4902 C   0  0  0  0  0  0  0  0  0  0  0  0
  -15.1403    3.1068  -15.5626 C   0  0  0  0  0  0  0  0  0  0  0  0
  -13.9109    2.7625  -14.8439 C   0  0  0  0  0  0  0  0  0  0  0  0
  -13.9899    0.2340  -12.7297 H   0  0  0  0  0  0  0  0  0  0  0  0
  -15.1514    0.5254  -13.9438 H   0  0  0  0  0  0  0  0  0  0  0  0
  -20.4399    0.9517  -15.5380 N   0  0  0  0  0  0  0  0  0  0  0  0
  -21.2190    0.6717  -14.4245 C   0  0  0  0  0  0  0  0  0  0  0  0
  -20.9446    1.0069  -13.2779 O   0  0  0  0  0  0  0  0  0  0  0  0
  -22.3282   -0.0867  -14.7504 N   0  0  0  0  0  0  0  0  0  0  0  0
  -20.9456    1.0431  -16.4070 H   0  0  0  0  0  0  0  0  0  0  0  0
  -22.1771   -0.7531  -15.4928 H   0  0  0  0  0  0  0  0  0  0  0  0
  -23.3211   -0.4002  -13.7961 C   0  0  0  0  0  0  0  0  0  0  0  0
  -23.1340   -0.1330  -12.4391 C   0  0  0  0  0  0  0  0  0  0  0  0
  -24.1753   -0.3327  -11.5317 C   0  0  0  0  0  0  0  0  0  0  0  0
  -25.4082   -0.8408  -11.9611 C   0  0  0  0  0  0  0  0  0  0  0  0
  -26.4886   -0.9782  -11.0775 C   0  0  0  0  0  0  0  0  0  0  0  0
  -27.6943   -1.5319  -11.5075 C   0  0  0  0  0  0  0  0  0  0  0  0
  -27.8177   -1.9950  -12.8147 C   0  0  0  0  0  0  0  0  0  0  0  0
  -26.7619   -1.8362  -13.7137 C   0  0  0  0  0  0  0  0  0  0  0  0
  -25.5661   -1.2164  -13.3156 C   0  0  0  0  0  0  0  0  0  0  0  0
  -24.5297   -0.9515  -14.2291 C   0  0  0  0  0  0  0  0  0  0  0  0
  7  8  1  0  0  0
  7 17  1  0  0  0
  7 18  1  0  0  0
  8  9  1  0  0  0
  8 16  2  0  0  0
  9 10  2  0  0  0
 10 11  1  0  0  0
 11 12  2  0  0  0
 12 13  1  0  0  0
 12 16  1  0  0  0
 13 14  1  0  0  0
 14 15  2  0  0  0
 15  1  1  0  0  0
 15 16  1  0  0  0
  1  2  1  0  0  0
  1  6  2  0  0  0
  2  3  2  0  0  0
  3  4  1  0  0  0
  4 19  1  0  0  0
  4  5  2  0  0  0
 19 20  1  0  0  0
 19 23  1  0  0  0
 20 21  2  0  0  0
 20 22  1  0  0  0
 22 25  1  0  0  0
 22 24  1  0  0  0
 25 26  1  0  0  0
 25 34  2  0  0  0
 26 27  2  0  0  0
 27 28  1  0  0  0
 28 29  1  0  0  0
 28 33  2  0  0  0
 29 30  2  0  0  0
 30 31  1  0  0  0
 31 32  2  0  0  0
 32 33  1  0  0  0
 33 34  1  0  0  0
  5  6  1  0  0  0
M  END
> <minimizedAffinity>
-10.15716

$$$$
