CHEMBL3905012


 30 33  0  0  0  0  0  0  0  0999 V2000
  -28.4444   -5.4884   -5.3937 C   0  0  0  0  0  0  0  0  0  0  0  0
  -28.1476   -6.8397   -5.2052 C   0  0  0  0  0  0  0  0  0  0  0  0
  -28.5196   -7.8124   -6.1575 C   0  0  0  0  0  0  0  0  0  0  0  0
  -28.4181   -9.1960   -5.9703 C   0  0  0  0  0  0  0  0  0  0  0  0
  -28.7741  -10.0753   -6.9267 N   0  0  0  0  0  0  0  0  0  0  0  0
  -29.2422   -9.5681   -8.0684 C   0  0  0  0  0  0  0  0  0  0  0  0
  -29.3837   -8.2719   -8.3483 N   0  0  0  0  0  0  0  0  0  0  0  0
  -29.0287   -7.4126   -7.3909 C   0  0  0  0  0  0  0  0  0  0  0  0
  -29.2015   -6.0621   -7.6187 C   0  0  0  0  0  0  0  0  0  0  0  0
  -28.9815   -5.0865   -6.6276 C   0  0  0  0  0  0  0  0  0  0  0  0
  -29.2469   -4.2432   -3.5088 C   0  0  0  0  0  0  0  0  0  0  0  0
  -28.1981   -4.5436   -4.4354 O   0  0  0  0  0  0  0  0  0  0  0  0
  -27.9824   -9.6941   -4.7099 N   0  0  0  0  0  0  0  0  0  0  0  0
  -28.6640  -10.3647   -4.3691 H   0  0  0  0  0  0  0  0  0  0  0  0
  -26.6532  -10.0747   -4.4394 C   0  0  0  0  0  0  0  0  0  0  0  0
  -26.3437  -10.7547   -3.2546 C   0  0  0  0  0  0  0  0  0  0  0  0
  -25.0276  -11.0843   -2.9396 C   0  0  0  0  0  0  0  0  0  0  0  0
  -23.9978  -10.7455   -3.8154 C   0  0  0  0  0  0  0  0  0  0  0  0
  -22.3845  -11.1337   -3.3430 Cl  0  0  0  0  0  0  0  0  0  0  0  0
  -24.2982  -10.1071   -5.0233 C   0  0  0  0  0  0  0  0  0  0  0  0
  -23.0734   -9.6588   -6.1614 Cl  0  0  0  0  0  0  0  0  0  0  0  0
  -25.6235   -9.7833   -5.3396 C   0  0  0  0  0  0  0  0  0  0  0  0
  -29.3051   -3.7518   -6.8229 O   0  0  0  0  0  0  0  0  0  0  0  0
  -28.3488   -3.0379   -7.6328 C   0  0  0  0  0  0  0  0  0  0  0  0
  -28.0656   -1.6156   -7.1366 C   0  0  0  0  0  0  0  0  0  0  0  0
  -28.3757   -1.4337   -5.6945 N   0  0  0  0  0  0  0  0  0  0  0  0
  -29.6864   -0.7954   -5.4973 C   0  0  0  0  0  0  0  0  0  0  0  0
  -29.4069    0.6917   -5.5837 C   0  0  0  0  0  0  0  0  0  0  0  0
  -28.0758    0.8279   -4.8724 C   0  0  0  0  0  0  0  0  0  0  0  0
  -27.4348   -0.5512   -4.9764 C   0  0  0  0  0  0  0  0  0  0  0  0
 11 12  1  0  0  0
 12  1  1  0  0  0
  1  2  1  0  0  0
  1 10  2  0  0  0
  2  3  2  0  0  0
  3  4  1  0  0  0
  3  8  1  0  0  0
  4 13  1  0  0  0
  4  5  2  0  0  0
 13 15  1  0  0  0
 13 14  1  0  0  0
 15 16  1  0  0  0
 15 22  2  0  0  0
 16 17  2  0  0  0
 17 18  1  0  0  0
 18 19  1  0  0  0
 18 20  2  0  0  0
 20 21  1  0  0  0
 20 22  1  0  0  0
  5  6  1  0  0  0
  6  7  2  0  0  0
  7  8  1  0  0  0
  8  9  2  0  0  0
  9 10  1  0  0  0
 10 23  1  0  0  0
 23 24  1  0  0  0
 24 25  1  0  0  0
 25 26  1  0  0  0
 26 27  1  0  0  0
 26 30  1  0  0  0
 27 28  1  0  0  0
 28 29  1  0  0  0
 29 30  1  0  0  0
M  END
> <minimizedAffinity>
-7.79913

$$$$
