CHEMBL1241950


 30 33  0  0  0  0  0  0  0  0999 V2000
  -28.5057   -9.5227   -9.1139 N   0  0  0  0  0  0  0  0  0  0  0  0
  -28.0906   -8.3671   -8.5461 N   0  0  0  0  0  0  0  0  0  0  0  0
  -29.0904   -8.0497   -7.6938 C   0  0  0  0  0  0  0  0  0  0  0  0
  -30.1981   -8.9079   -7.8454 C   0  0  0  0  0  0  0  0  0  0  0  0
  -31.5065   -8.9924   -7.3618 C   0  0  0  0  0  0  0  0  0  0  0  0
  -32.0912   -8.0525   -6.5381 N   0  0  0  0  0  0  0  0  0  0  0  0
  -32.2269  -10.0838   -7.6810 N   0  0  0  0  0  0  0  0  0  0  0  0
  -31.6661  -11.0063   -8.4901 C   0  0  0  0  0  0  0  0  0  0  0  0
  -30.4618  -10.9737   -9.0842 N   0  0  0  0  0  0  0  0  0  0  0  0
  -29.7718   -9.8807   -8.7263 C   0  0  0  0  0  0  0  0  0  0  0  0
  -31.7080   -7.1209   -6.4803 H   0  0  0  0  0  0  0  0  0  0  0  0
  -33.0725   -8.1757   -6.3446 H   0  0  0  0  0  0  0  0  0  0  0  0
  -29.1425   -6.7666   -7.0242 C   0  0  0  0  0  0  0  0  0  0  0  0
  -28.8305   -6.9543   -5.6957 C   0  0  0  0  0  0  0  0  0  0  0  0
  -28.3043   -5.8833   -5.0940 C   0  0  0  0  0  0  0  0  0  0  0  0
  -28.5640   -4.6409   -5.5765 C   0  0  0  0  0  0  0  0  0  0  0  0
  -28.6584   -3.6626   -4.7486 N   0  0  0  0  0  0  0  0  0  0  0  0
  -28.7487   -2.7322   -3.9114 C   0  0  0  0  0  0  0  0  0  0  0  0
  -29.0960   -1.9469   -4.9738 C   0  0  0  0  0  0  0  0  0  0  0  0
  -29.2061   -2.5802   -6.4977 C   0  0  0  0  0  0  0  0  0  0  0  0
  -29.0629   -4.1816   -6.7418 C   0  0  0  0  0  0  0  0  0  0  0  0
  -29.1752   -5.4233   -7.6003 C   0  0  0  0  0  0  0  0  0  0  0  0
  -29.2481   -3.1288   -2.6522 N   0  0  0  0  0  0  0  0  0  0  0  0
  -30.6877   -3.5113   -2.7431 N   0  0  0  0  0  0  0  0  0  0  0  0
  -28.7921   -3.9973   -2.3544 H   0  0  0  0  0  0  0  0  0  0  0  0
  -30.8024   -3.2752   -3.7200 H   0  0  0  0  0  0  0  0  0  0  0  0
  -31.3733   -2.8259   -2.3973 H   0  0  0  0  0  0  0  0  0  0  0  0
  -27.0400   -9.5309  -11.0581 C   0  0  0  0  0  0  0  0  0  0  0  0
  -27.5598  -10.3391   -9.8719 C   0  0  0  0  0  0  0  0  0  0  0  0
  -26.4022  -10.8510   -9.0137 C   0  0  0  0  0  0  0  0  0  0  0  0
 28 29  1  0  0  0
 29 30  1  0  0  0
 29  1  1  0  0  0
  1  2  1  0  0  0
  1 10  1  0  0  0
  2  3  2  0  0  0
  3 13  1  0  0  0
  3  4  1  0  0  0
 13 14  1  0  0  0
 13 22  2  0  0  0
 14 15  2  0  0  0
 15 16  1  0  0  0
 16 17  1  0  0  0
 16 21  2  0  0  0
 17 18  2  0  0  0
 18 23  1  0  0  0
 18 19  1  0  0  0
 23 24  1  0  0  0
 23 25  1  0  0  0
 24 26  1  0  0  0
 24 27  1  0  0  0
 19 20  2  0  0  0
 20 21  1  0  0  0
 21 22  1  0  0  0
  4  5  1  0  0  0
  4 10  2  0  0  0
  5  6  1  0  0  0
  5  7  2  0  0  0
  6 11  1  0  0  0
  6 12  1  0  0  0
  7  8  1  0  0  0
  8  9  2  0  0  0
  9 10  1  0  0  0
M  END
> <minimizedAffinity>
-8.62342

$$$$
