CHEMBL4229181


 35 37  0  0  0  0  0  0  0  0999 V2000
  -18.1376    2.2142  -14.8919 C   0  0  0  0  0  0  0  0  0  0  0  0
  -17.2917    1.9238  -15.9589 C   0  0  0  0  0  0  0  0  0  0  0  0
  -16.1451    1.1426  -15.7712 C   0  0  0  0  0  0  0  0  0  0  0  0
  -15.8058    0.6338  -14.5127 C   0  0  0  0  0  0  0  0  0  0  0  0
  -16.6325    0.9662  -13.4306 C   0  0  0  0  0  0  0  0  0  0  0  0
  -17.7854    1.7541  -13.6189 C   0  0  0  0  0  0  0  0  0  0  0  0
  -14.6855   -0.2178  -14.2884 N   0  0  0  0  0  0  0  0  0  0  0  0
  -14.7368   -1.4636  -13.6715 C   0  0  0  0  0  0  0  0  0  0  0  0
  -15.7573   -2.0381  -13.3080 O   0  0  0  0  0  0  0  0  0  0  0  0
  -13.4730   -2.0003  -13.4476 N   0  0  0  0  0  0  0  0  0  0  0  0
  -13.8022    0.0775  -14.6604 H   0  0  0  0  0  0  0  0  0  0  0  0
  -12.7649   -1.3135  -13.2291 H   0  0  0  0  0  0  0  0  0  0  0  0
  -13.3495   -3.2550  -12.7949 C   0  0  0  0  0  0  0  0  0  0  0  0
  -13.2764   -4.4149  -13.5671 C   0  0  0  0  0  0  0  0  0  0  0  0
  -13.1038   -5.6538  -12.9458 C   0  0  0  0  0  0  0  0  0  0  0  0
  -13.0403   -5.7381  -11.5560 C   0  0  0  0  0  0  0  0  0  0  0  0
  -12.8955   -6.9488  -11.0026 F   0  0  0  0  0  0  0  0  0  0  0  0
  -13.1209   -4.6007  -10.7592 C   0  0  0  0  0  0  0  0  0  0  0  0
  -13.2717   -3.3518  -11.3953 C   0  0  0  0  0  0  0  0  0  0  0  0
  -13.0346   -4.6938   -9.2644 C   0  0  0  0  0  0  0  0  0  0  0  0
  -11.9192   -5.3167   -8.7889 F   0  0  0  0  0  0  0  0  0  0  0  0
  -13.0499   -3.4702   -8.6639 F   0  0  0  0  0  0  0  0  0  0  0  0
  -14.0860   -5.3786   -8.7300 F   0  0  0  0  0  0  0  0  0  0  0  0
  -19.6010    3.1988  -15.1679 S   0  0  0  0  0  0  0  0  0  0  0  0
  -22.9759    0.4330  -13.8716 C   0  0  0  0  0  0  0  0  0  0  0  0
  -21.8300   -0.1226  -14.4433 C   0  0  0  0  0  0  0  0  0  0  0  0
  -20.7861    0.7239  -14.8356 C   0  0  0  0  0  0  0  0  0  0  0  0
  -20.9082    2.1004  -14.6371 C   0  0  0  0  0  0  0  0  0  0  0  0
  -22.0181    2.6511  -14.0981 N   0  0  0  0  0  0  0  0  0  0  0  0
  -23.0201    1.8138  -13.7350 C   0  0  0  0  0  0  0  0  0  0  0  0
  -25.7783   -0.8141  -11.6656 C   0  0  0  0  0  0  0  0  0  0  0  0
  -24.6117   -0.1269  -12.1601 N   0  0  0  0  0  0  0  0  0  0  0  0
  -24.1441   -0.3636  -13.4368 C   0  0  0  0  0  0  0  0  0  0  0  0
  -24.6612   -1.1615  -14.2088 O   0  0  0  0  0  0  0  0  0  0  0  0
  -24.2592    0.6598  -11.6288 H   0  0  0  0  0  0  0  0  0  0  0  0
 31 32  1  0  0  0
 32 33  1  0  0  0
 32 35  1  0  0  0
 33 34  2  0  0  0
 33 25  1  0  0  0
 25 26  1  0  0  0
 25 30  2  0  0  0
 26 27  2  0  0  0
 27 28  1  0  0  0
 28 24  1  0  0  0
 28 29  2  0  0  0
 24  1  1  0  0  0
  1  2  1  0  0  0
  1  6  2  0  0  0
  2  3  2  0  0  0
  3  4  1  0  0  0
  4  7  1  0  0  0
  4  5  2  0  0  0
  7  8  1  0  0  0
  7 11  1  0  0  0
  8  9  2  0  0  0
  8 10  1  0  0  0
 10 13  1  0  0  0
 10 12  1  0  0  0
 13 14  1  0  0  0
 13 19  2  0  0  0
 14 15  2  0  0  0
 15 16  1  0  0  0
 16 17  1  0  0  0
 16 18  2  0  0  0
 18 20  1  0  0  0
 18 19  1  0  0  0
 20 21  1  0  0  0
 20 22  1  0  0  0
 20 23  1  0  0  0
  5  6  1  0  0  0
 29 30  1  0  0  0
M  END
> <minimizedAffinity>
-8.90497

$$$$
