CHEMBL3913927


 37 40  0  0  0  0  0  0  0  0999 V2000
  -27.9527   -8.1777   -5.9699 C   0  0  0  0  0  0  0  0  0  0  0  0
  -28.5149   -7.9296   -7.2232 C   0  0  0  0  0  0  0  0  0  0  0  0
  -29.1685   -6.7175   -7.4789 C   0  0  0  0  0  0  0  0  0  0  0  0
  -29.2586   -5.7408   -6.4858 C   0  0  0  0  0  0  0  0  0  0  0  0
  -28.7857   -6.0394   -5.2074 C   0  0  0  0  0  0  0  0  0  0  0  0
  -28.9261   -5.1698   -4.1964 F   0  0  0  0  0  0  0  0  0  0  0  0
  -28.1252   -7.2387   -4.9499 C   0  0  0  0  0  0  0  0  0  0  0  0
  -28.7418  -11.0356   -5.9421 O   0  0  0  0  0  0  0  0  0  0  0  0
  -27.6136  -10.6310   -5.6712 C   0  0  0  0  0  0  0  0  0  0  0  0
  -27.2072   -9.3260   -5.6641 N   0  0  0  0  0  0  0  0  0  0  0  0
  -26.6495  -11.5653   -5.3933 N   0  0  0  0  0  0  0  0  0  0  0  0
  -26.2070   -9.2103   -5.5257 H   0  0  0  0  0  0  0  0  0  0  0  0
  -26.9995  -12.5093   -5.4817 H   0  0  0  0  0  0  0  0  0  0  0  0
  -25.3292  -11.3731   -4.9707 C   0  0  0  0  0  0  0  0  0  0  0  0
  -24.3225  -11.5442   -5.8976 C   0  0  0  0  0  0  0  0  0  0  0  0
  -23.0206  -11.4037   -5.4416 C   0  0  0  0  0  0  0  0  0  0  0  0
  -22.7498  -11.1125   -4.1433 N   0  0  0  0  0  0  0  0  0  0  0  0
  -23.7973  -10.9550   -3.3303 C   0  0  0  0  0  0  0  0  0  0  0  0
  -25.0831  -11.0560   -3.6871 N   0  0  0  0  0  0  0  0  0  0  0  0
  -21.8558  -11.5945   -6.4000 C   0  0  0  0  0  0  0  0  0  0  0  0
  -22.2392  -12.0920   -7.6133 F   0  0  0  0  0  0  0  0  0  0  0  0
  -21.1961  -10.4346   -6.6742 F   0  0  0  0  0  0  0  0  0  0  0  0
  -20.9194  -12.4651   -5.9294 F   0  0  0  0  0  0  0  0  0  0  0  0
  -29.8836   -4.5684   -6.8415 O   0  0  0  0  0  0  0  0  0  0  0  0
  -29.1438   -3.4287   -7.0818 C   0  0  0  0  0  0  0  0  0  0  0  0
  -29.0542   -2.3378   -6.2241 C   0  0  0  0  0  0  0  0  0  0  0  0
  -28.3080   -1.2553   -6.6400 C   0  0  0  0  0  0  0  0  0  0  0  0
  -27.6174   -1.2274   -7.7933 N   0  0  0  0  0  0  0  0  0  0  0  0
  -27.6466   -2.3088   -8.5887 C   0  0  0  0  0  0  0  0  0  0  0  0
  -28.4014   -3.4302   -8.2662 C   0  0  0  0  0  0  0  0  0  0  0  0
  -26.8890   -2.3250   -9.7702 N   0  0  0  0  0  0  0  0  0  0  0  0
  -27.2161   -1.6091  -10.9050 C   0  0  0  0  0  0  0  0  0  0  0  0
  -28.1884   -0.8947  -11.0930 O   0  0  0  0  0  0  0  0  0  0  0  0
  -26.0456   -2.8775   -9.7741 H   0  0  0  0  0  0  0  0  0  0  0  0
  -26.2061   -1.7397  -12.0046 C   0  0  0  0  0  0  0  0  0  0  0  0
  -24.7669   -2.0344  -11.6416 C   0  0  0  0  0  0  0  0  0  0  0  0
  -25.1357   -0.6802  -12.1710 C   0  0  0  0  0  0  0  0  0  0  0  0
  8  9  2  0  0  0
  9 10  1  0  0  0
  9 11  1  0  0  0
 10  1  1  0  0  0
 10 12  1  0  0  0
  1  2  1  0  0  0
  1  7  2  0  0  0
  2  3  2  0  0  0
  3  4  1  0  0  0
  4 24  1  0  0  0
  4  5  2  0  0  0
 24 25  1  0  0  0
 25 26  1  0  0  0
 25 30  2  0  0  0
 26 27  2  0  0  0
 27 28  1  0  0  0
 28 29  2  0  0  0
 29 31  1  0  0  0
 29 30  1  0  0  0
 31 32  1  0  0  0
 31 34  1  0  0  0
 32 33  2  0  0  0
 32 35  1  0  0  0
 35 36  1  0  0  0
 35 37  1  0  0  0
 36 37  1  0  0  0
  5  6  1  0  0  0
  5  7  1  0  0  0
 11 14  1  0  0  0
 11 13  1  0  0  0
 14 15  1  0  0  0
 14 19  2  0  0  0
 15 16  2  0  0  0
 16 20  1  0  0  0
 16 17  1  0  0  0
 20 21  1  0  0  0
 20 22  1  0  0  0
 20 23  1  0  0  0
 17 18  2  0  0  0
 18 19  1  0  0  0
M  END
> <minimizedAffinity>
-8.98331

$$$$
