CHEMBL3128220


 37 41  0  0  0  0  0  0  0  0999 V2000
  -22.0204   -0.0909  -14.0766 N   0  0  0  0  0  0  0  0  0  0  0  0
  -21.4951   -0.3408  -13.2480 H   0  0  0  0  0  0  0  0  0  0  0  0
  -23.3420   -0.5447  -14.0379 C   0  0  0  0  0  0  0  0  0  0  0  0
  -24.0937   -0.5813  -15.1666 N   0  0  0  0  0  0  0  0  0  0  0  0
  -25.3587   -1.0437  -15.0997 C   0  0  0  0  0  0  0  0  0  0  0  0
  -26.0241   -1.4758  -14.0166 N   0  0  0  0  0  0  0  0  0  0  0  0
  -25.2552   -1.4376  -12.9157 C   0  0  0  0  0  0  0  0  0  0  0  0
  -23.9420   -0.9984  -12.8532 C   0  0  0  0  0  0  0  0  0  0  0  0
  -23.5874   -1.1539  -11.5000 C   0  0  0  0  0  0  0  0  0  0  0  0
  -24.5814   -1.6381  -10.7495 N   0  0  0  0  0  0  0  0  0  0  0  0
  -25.5916   -1.8221  -11.6385 N   0  0  0  0  0  0  0  0  0  0  0  0
  -26.8696   -2.3065  -11.1406 C   0  0  0  0  0  0  0  0  0  0  0  0
  -27.6338   -1.3352  -10.2430 C   0  0  0  0  0  0  0  0  0  0  0  0
  -27.8980   -1.8883   -8.8622 C   0  0  0  0  0  0  0  0  0  0  0  0
  -27.6490   -1.1017   -7.7279 C   0  0  0  0  0  0  0  0  0  0  0  0
  -27.9555   -1.5798   -6.4530 C   0  0  0  0  0  0  0  0  0  0  0  0
  -28.5037   -2.8512   -6.2987 C   0  0  0  0  0  0  0  0  0  0  0  0
  -28.7305   -3.6512   -7.4174 C   0  0  0  0  0  0  0  0  0  0  0  0
  -28.4246   -3.1751   -8.6943 C   0  0  0  0  0  0  0  0  0  0  0  0
  -21.8456    1.2913  -14.4907 C   0  0  0  0  0  0  0  0  0  0  0  0
  -18.0949    0.7908  -15.0469 C   0  0  0  0  0  0  0  0  0  0  0  0
  -17.7039    2.0482  -15.4957 C   0  0  0  0  0  0  0  0  0  0  0  0
  -18.6457    3.0705  -15.5946 C   0  0  0  0  0  0  0  0  0  0  0  0
  -19.9770    2.8316  -15.2455 C   0  0  0  0  0  0  0  0  0  0  0  0
  -20.3853    1.5661  -14.7946 C   0  0  0  0  0  0  0  0  0  0  0  0
  -19.4217    0.5479  -14.6820 C   0  0  0  0  0  0  0  0  0  0  0  0
  -17.1107   -0.2132  -14.9185 N   0  0  0  0  0  0  0  0  0  0  0  0
  -17.0280   -0.9541  -15.6099 H   0  0  0  0  0  0  0  0  0  0  0  0
  -14.6724    0.0420  -14.4609 O   0  0  0  0  0  0  0  0  0  0  0  0
  -15.9244   -0.1228  -13.7486 S   0  0  0  0  0  0  0  0  0  0  0  0
  -16.3250    0.8169  -12.7231 O   0  0  0  0  0  0  0  0  0  0  0  0
  -15.9075   -1.7553  -13.0318 C   0  0  0  0  0  0  0  0  0  0  0  0
  -15.7855   -1.9001  -11.6449 C   0  0  0  0  0  0  0  0  0  0  0  0
  -15.9143   -3.1671  -11.0692 C   0  0  0  0  0  0  0  0  0  0  0  0
  -16.1685   -4.2775  -11.8749 C   0  0  0  0  0  0  0  0  0  0  0  0
  -16.2786   -4.1314  -13.2586 C   0  0  0  0  0  0  0  0  0  0  0  0
  -16.1500   -2.8693  -13.8416 C   0  0  0  0  0  0  0  0  0  0  0  0
 29 30  2  0  0  0
 30 31  2  0  0  0
 30 27  1  0  0  0
 30 32  1  0  0  0
 27 21  1  0  0  0
 27 28  1  0  0  0
 21 22  1  0  0  0
 21 26  2  0  0  0
 22 23  2  0  0  0
 23 24  1  0  0  0
 24 25  2  0  0  0
 25 20  1  0  0  0
 25 26  1  0  0  0
 20  1  1  0  0  0
  1  3  1  0  0  0
  1  2  1  0  0  0
  3  4  1  0  0  0
  3  8  2  0  0  0
  4  5  2  0  0  0
  5  6  1  0  0  0
  6  7  2  0  0  0
  7  8  1  0  0  0
  7 11  1  0  0  0
  8  9  1  0  0  0
  9 10  2  0  0  0
 10 11  1  0  0  0
 11 12  1  0  0  0
 12 13  1  0  0  0
 13 14  1  0  0  0
 14 15  1  0  0  0
 14 19  2  0  0  0
 15 16  2  0  0  0
 16 17  1  0  0  0
 17 18  2  0  0  0
 18 19  1  0  0  0
 32 33  1  0  0  0
 32 37  2  0  0  0
 33 34  2  0  0  0
 34 35  1  0  0  0
 35 36  2  0  0  0
 36 37  1  0  0  0
M  END
> <minimizedAffinity>
-10.40245

$$$$
