CHEMBL184223


 32 35  0  0  0  0  0  0  0  0999 V2000
  -25.9791   11.5816  -15.6451 C   0  0  0  0  0  0  0  0  0  0  0  0
  -25.5670   12.6589  -16.4334 C   0  0  0  0  0  0  0  0  0  0  0  0
  -24.6385   12.5137  -17.4637 C   0  0  0  0  0  0  0  0  0  0  0  0
  -24.1282   11.2660  -17.8077 C   0  0  0  0  0  0  0  0  0  0  0  0
  -24.5712   10.1584  -17.0811 C   0  0  0  0  0  0  0  0  0  0  0  0
  -25.4729   10.3181  -16.0066 C   0  0  0  0  0  0  0  0  0  0  0  0
  -28.6767   12.2301  -12.2585 C   0  0  0  0  0  0  0  0  0  0  0  0
  -27.3119   12.5428  -12.2024 C   0  0  0  0  0  0  0  0  0  0  0  0
  -26.4447   12.3191  -13.2897 C   0  0  0  0  0  0  0  0  0  0  0  0
  -26.9031   11.7874  -14.5033 C   0  0  0  0  0  0  0  0  0  0  0  0
  -28.2754   11.4825  -14.5503 C   0  0  0  0  0  0  0  0  0  0  0  0
  -29.1431   11.6960  -13.4493 C   0  0  0  0  0  0  0  0  0  0  0  0
  -30.4980   11.2996  -13.9030 C   0  0  0  0  0  0  0  0  0  0  0  0
  -31.5356   11.2635  -13.2786 O   0  0  0  0  0  0  0  0  0  0  0  0
  -30.4014   10.9268  -15.2205 N   0  0  0  0  0  0  0  0  0  0  0  0
  -29.0611   10.9451  -15.7105 C   0  0  0  0  0  0  0  0  0  0  0  0
  -31.1984   10.5421  -15.7102 H   0  0  0  0  0  0  0  0  0  0  0  0
  -28.6745   12.4175   -9.8760 C   0  0  0  0  0  0  0  0  0  0  0  0
  -29.3395   12.5754  -11.1202 O   0  0  0  0  0  0  0  0  0  0  0  0
  -23.2272   11.0858  -18.8859 N   0  0  0  0  0  0  0  0  0  0  0  0
  -21.8447   11.1620  -18.7868 C   0  0  0  0  0  0  0  0  0  0  0  0
  -21.2194   11.2408  -17.7359 O   0  0  0  0  0  0  0  0  0  0  0  0
  -21.2332   11.1863  -20.0336 N   0  0  0  0  0  0  0  0  0  0  0  0
  -23.6008   10.7430  -19.7584 H   0  0  0  0  0  0  0  0  0  0  0  0
  -21.7695   11.6493  -20.7520 H   0  0  0  0  0  0  0  0  0  0  0  0
  -19.8241   11.3049  -20.1322 C   0  0  0  0  0  0  0  0  0  0  0  0
  -19.2255   12.5172  -19.7902 C   0  0  0  0  0  0  0  0  0  0  0  0
  -17.8329   12.6264  -19.7799 C   0  0  0  0  0  0  0  0  0  0  0  0
  -17.0357   11.5419  -20.1526 C   0  0  0  0  0  0  0  0  0  0  0  0
  -17.6229   10.3332  -20.5368 C   0  0  0  0  0  0  0  0  0  0  0  0
  -16.7849    9.1593  -20.9505 C   0  0  0  0  0  0  0  0  0  0  0  0
  -19.0203   10.2247  -20.5231 C   0  0  0  0  0  0  0  0  0  0  0  0
 18 19  1  0  0  0
 19  7  1  0  0  0
  7  8  1  0  0  0
  7 12  2  0  0  0
  8  9  2  0  0  0
  9 10  1  0  0  0
 10  1  1  0  0  0
 10 11  2  0  0  0
  1  2  1  0  0  0
  1  6  2  0  0  0
  2  3  2  0  0  0
  3  4  1  0  0  0
  4 20  1  0  0  0
  4  5  2  0  0  0
 20 21  1  0  0  0
 20 24  1  0  0  0
 21 22  2  0  0  0
 21 23  1  0  0  0
 23 26  1  0  0  0
 23 25  1  0  0  0
 26 27  1  0  0  0
 26 32  2  0  0  0
 27 28  2  0  0  0
 28 29  1  0  0  0
 29 30  2  0  0  0
 30 31  1  0  0  0
 30 32  1  0  0  0
  5  6  1  0  0  0
 11 12  1  0  0  0
 11 16  1  0  0  0
 12 13  1  0  0  0
 13 14  2  0  0  0
 13 15  1  0  0  0
 15 16  1  0  0  0
 15 17  1  0  0  0
M  END
> <minimizedAffinity>
-6.55361

$$$$
