CHEMBL243915


 39 42  0  0  0  0  0  0  0  0999 V2000
  -17.1833    1.6178  -15.1613 C   0  0  0  0  0  0  0  0  0  0  0  0
  -16.1456    1.2244  -15.9955 C   0  0  0  0  0  0  0  0  0  0  0  0
  -15.1407    0.3878  -15.5136 C   0  0  0  0  0  0  0  0  0  0  0  0
  -15.1110   -0.0304  -14.1808 C   0  0  0  0  0  0  0  0  0  0  0  0
  -16.1039    0.4495  -13.3180 C   0  0  0  0  0  0  0  0  0  0  0  0
  -17.1365    1.2681  -13.8092 C   0  0  0  0  0  0  0  0  0  0  0  0
  -14.1338   -0.9280  -13.6769 N   0  0  0  0  0  0  0  0  0  0  0  0
  -14.3888   -2.2002  -13.2038 C   0  0  0  0  0  0  0  0  0  0  0  0
  -15.4804   -2.7588  -13.2379 O   0  0  0  0  0  0  0  0  0  0  0  0
  -13.2771   -2.8007  -12.6265 N   0  0  0  0  0  0  0  0  0  0  0  0
  -13.1668   -0.6336  -13.7138 H   0  0  0  0  0  0  0  0  0  0  0  0
  -12.7166   -2.1790  -12.0558 H   0  0  0  0  0  0  0  0  0  0  0  0
  -13.4311   -4.1148  -12.1023 C   0  0  0  0  0  0  0  0  0  0  0  0
  -13.7027   -5.2001  -12.9471 C   0  0  0  0  0  0  0  0  0  0  0  0
  -14.0027   -6.4664  -12.4222 C   0  0  0  0  0  0  0  0  0  0  0  0
  -14.0214   -6.6319  -11.0276 C   0  0  0  0  0  0  0  0  0  0  0  0
  -13.7143   -5.5612  -10.1816 C   0  0  0  0  0  0  0  0  0  0  0  0
  -13.4008   -4.3172  -10.7237 C   0  0  0  0  0  0  0  0  0  0  0  0
  -13.1500   -3.2859   -9.9030 F   0  0  0  0  0  0  0  0  0  0  0  0
  -14.3213   -7.6245  -13.3377 C   0  0  0  0  0  0  0  0  0  0  0  0
  -14.0992   -8.8465  -12.7789 F   0  0  0  0  0  0  0  0  0  0  0  0
  -15.6286   -7.6274  -13.7223 F   0  0  0  0  0  0  0  0  0  0  0  0
  -13.5952   -7.5997  -14.4890 F   0  0  0  0  0  0  0  0  0  0  0  0
  -18.2459    2.3810  -15.5893 O   0  0  0  0  0  0  0  0  0  0  0  0
  -23.3260    0.1228  -13.8167 C   0  0  0  0  0  0  0  0  0  0  0  0
  -22.1071   -0.3261  -14.2736 C   0  0  0  0  0  0  0  0  0  0  0  0
  -21.3502    0.8120  -14.4689 N   0  0  0  0  0  0  0  0  0  0  0  0
  -20.0539    0.9598  -14.9534 C   0  0  0  0  0  0  0  0  0  0  0  0
  -19.5225    2.1958  -15.0619 C   0  0  0  0  0  0  0  0  0  0  0  0
  -20.3611    3.3453  -14.7031 C   0  0  0  0  0  0  0  0  0  0  0  0
  -21.6028    3.1856  -14.2072 C   0  0  0  0  0  0  0  0  0  0  0  0
  -22.1482    1.8811  -14.0849 C   0  0  0  0  0  0  0  0  0  0  0  0
  -23.3325    1.4805  -13.6914 N   0  0  0  0  0  0  0  0  0  0  0  0
  -25.2359   -1.2031  -14.4741 C   0  0  0  0  0  0  0  0  0  0  0  0
  -25.1567   -1.1180  -15.6907 O   0  0  0  0  0  0  0  0  0  0  0  0
  -24.4163   -0.6566  -13.5248 N   0  0  0  0  0  0  0  0  0  0  0  0
  -24.6237   -0.8724  -12.5648 H   0  0  0  0  0  0  0  0  0  0  0  0
  -26.3405   -1.5933  -12.4584 C   0  0  0  0  0  0  0  0  0  0  0  0
  -26.2149   -1.9191  -13.8456 O   0  0  0  0  0  0  0  0  0  0  0  0
 38 39  1  0  0  0
 39 34  1  0  0  0
 34 35  2  0  0  0
 34 36  1  0  0  0
 36 25  1  0  0  0
 36 37  1  0  0  0
 25 26  2  0  0  0
 25 33  1  0  0  0
 26 27  1  0  0  0
 27 28  1  0  0  0
 27 32  1  0  0  0
 28 29  2  0  0  0
 29 24  1  0  0  0
 29 30  1  0  0  0
 24  1  1  0  0  0
  1  2  1  0  0  0
  1  6  2  0  0  0
  2  3  2  0  0  0
  3  4  1  0  0  0
  4  7  1  0  0  0
  4  5  2  0  0  0
  7  8  1  0  0  0
  7 11  1  0  0  0
  8  9  2  0  0  0
  8 10  1  0  0  0
 10 13  1  0  0  0
 10 12  1  0  0  0
 13 14  1  0  0  0
 13 18  2  0  0  0
 14 15  2  0  0  0
 15 20  1  0  0  0
 15 16  1  0  0  0
 20 21  1  0  0  0
 20 22  1  0  0  0
 20 23  1  0  0  0
 16 17  2  0  0  0
 17 18  1  0  0  0
 18 19  1  0  0  0
  5  6  1  0  0  0
 30 31  2  0  0  0
 31 32  1  0  0  0
 32 33  2  0  0  0
M  END
> <minimizedAffinity>
-10.02310

$$$$
