CHEMBL3690476


 32 35  0  0  0  0  0  0  0  0999 V2000
  -16.7291    0.6252  -14.9966 C   0  0  0  0  0  0  0  0  0  0  0  0
  -16.0214    1.4797  -15.8418 C   0  0  0  0  0  0  0  0  0  0  0  0
  -16.5582    2.7116  -16.2075 C   0  0  0  0  0  0  0  0  0  0  0  0
  -17.8208    3.0868  -15.7555 C   0  0  0  0  0  0  0  0  0  0  0  0
  -18.6012    2.2077  -14.9976 C   0  0  0  0  0  0  0  0  0  0  0  0
  -18.0236    0.9921  -14.5909 C   0  0  0  0  0  0  0  0  0  0  0  0
  -19.9917    2.5249  -14.6441 C   0  0  0  0  0  0  0  0  0  0  0  0
  -20.6034    3.7556  -14.4540 C   0  0  0  0  0  0  0  0  0  0  0  0
  -21.9152    3.6346  -14.0843 N   0  0  0  0  0  0  0  0  0  0  0  0
  -22.1387    2.3397  -14.0259 C   0  0  0  0  0  0  0  0  0  0  0  0
  -23.3188    1.6173  -13.6756 C   0  0  0  0  0  0  0  0  0  0  0  0
  -23.3391    0.2608  -13.6705 C   0  0  0  0  0  0  0  0  0  0  0  0
  -22.1087   -0.4605  -14.0253 C   0  0  0  0  0  0  0  0  0  0  0  0
  -20.9880    0.2118  -14.3246 C   0  0  0  0  0  0  0  0  0  0  0  0
  -20.9981    1.6066  -14.3471 N   0  0  0  0  0  0  0  0  0  0  0  0
  -24.5803   -0.4662  -13.2822 C   0  0  0  0  0  0  0  0  0  0  0  0
  -25.1954   -1.2346  -14.2002 N   0  0  0  0  0  0  0  0  0  0  0  0
  -26.3251   -1.8496  -13.8071 C   0  0  0  0  0  0  0  0  0  0  0  0
  -26.8588   -1.7294  -12.5453 C   0  0  0  0  0  0  0  0  0  0  0  0
  -26.1573   -0.9274  -11.6816 C   0  0  0  0  0  0  0  0  0  0  0  0
  -25.0222   -0.2870  -12.0194 N   0  0  0  0  0  0  0  0  0  0  0  0
  -15.7017   -0.1010  -12.2982 O   0  0  0  0  0  0  0  0  0  0  0  0
  -15.7591   -0.8699  -13.2485 C   0  0  0  0  0  0  0  0  0  0  0  0
  -15.3666   -2.1865  -13.1257 N   0  0  0  0  0  0  0  0  0  0  0  0
  -16.2131   -0.5978  -14.5191 N   0  0  0  0  0  0  0  0  0  0  0  0
  -15.0192   -2.6198  -13.9693 H   0  0  0  0  0  0  0  0  0  0  0  0
  -16.2487   -1.3787  -15.1568 H   0  0  0  0  0  0  0  0  0  0  0  0
  -14.7317   -2.6180  -11.8749 C   0  0  0  0  0  0  0  0  0  0  0  0
  -15.6775   -3.2791  -10.8627 C   0  0  0  0  0  0  0  0  0  0  0  0
  -16.6940   -3.9317  -11.4743 F   0  0  0  0  0  0  0  0  0  0  0  0
  -15.0420   -4.1518  -10.0555 F   0  0  0  0  0  0  0  0  0  0  0  0
  -16.2435   -2.3323  -10.0732 F   0  0  0  0  0  0  0  0  0  0  0  0
 22 23  2  0  0  0
 23 24  1  0  0  0
 23 25  1  0  0  0
 24 28  1  0  0  0
 24 26  1  0  0  0
 28 29  1  0  0  0
 29 30  1  0  0  0
 29 31  1  0  0  0
 29 32  1  0  0  0
 25  1  1  0  0  0
 25 27  1  0  0  0
  1  2  1  0  0  0
  1  6  2  0  0  0
  2  3  2  0  0  0
  3  4  1  0  0  0
  4  5  2  0  0  0
  5  7  1  0  0  0
  5  6  1  0  0  0
  7  8  2  0  0  0
  7 15  1  0  0  0
  8  9  1  0  0  0
  9 10  2  0  0  0
 10 11  1  0  0  0
 10 15  1  0  0  0
 11 12  2  0  0  0
 12 16  1  0  0  0
 12 13  1  0  0  0
 16 17  1  0  0  0
 16 21  2  0  0  0
 17 18  2  0  0  0
 18 19  1  0  0  0
 19 20  2  0  0  0
 20 21  1  0  0  0
 13 14  2  0  0  0
 14 15  1  0  0  0
M  END
> <minimizedAffinity>
-10.42640

$$$$
