CHEMBL366079


 25 28  0  0  0  0  0  0  0  0999 V2000
  -29.4673   -5.0105   -6.7760 C   0  0  0  0  0  0  0  0  0  0  0  0
  -28.9916   -5.9618   -5.9522 C   0  0  0  0  0  0  0  0  0  0  0  0
  -28.1412   -5.8487   -4.7472 C   0  0  0  0  0  0  0  0  0  0  0  0
  -28.0355   -4.9197   -3.9711 O   0  0  0  0  0  0  0  0  0  0  0  0
  -27.5628   -7.1052   -4.6557 N   0  0  0  0  0  0  0  0  0  0  0  0
  -28.1371   -8.0627   -5.4624 N   0  0  0  0  0  0  0  0  0  0  0  0
  -29.0323   -7.4297   -6.1877 C   0  0  0  0  0  0  0  0  0  0  0  0
  -26.9657   -7.3793   -3.8841 H   0  0  0  0  0  0  0  0  0  0  0  0
  -27.7357   -2.9910   -8.7005 C   0  0  0  0  0  0  0  0  0  0  0  0
  -28.4721   -2.7206   -7.4338 C   0  0  0  0  0  0  0  0  0  0  0  0
  -29.2155   -3.6109   -6.6638 C   0  0  0  0  0  0  0  0  0  0  0  0
  -29.7841   -2.8753   -5.6496 N   0  0  0  0  0  0  0  0  0  0  0  0
  -29.3540   -1.5709   -5.6792 C   0  0  0  0  0  0  0  0  0  0  0  0
  -29.6551   -0.5034   -4.8257 C   0  0  0  0  0  0  0  0  0  0  0  0
  -29.0159    0.7157   -5.0663 C   0  0  0  0  0  0  0  0  0  0  0  0
  -28.1041    0.8527   -6.1101 C   0  0  0  0  0  0  0  0  0  0  0  0
  -27.8343   -0.2219   -6.9661 C   0  0  0  0  0  0  0  0  0  0  0  0
  -28.4840   -1.4568   -6.7570 C   0  0  0  0  0  0  0  0  0  0  0  0
  -30.3518   -3.2563   -4.9020 H   0  0  0  0  0  0  0  0  0  0  0  0
  -30.0126   -8.1120   -7.0310 C   0  0  0  0  0  0  0  0  0  0  0  0
  -29.6028   -8.9914   -8.0203 C   0  0  0  0  0  0  0  0  0  0  0  0
  -30.4772   -9.7701   -8.7078 N   0  0  0  0  0  0  0  0  0  0  0  0
  -31.7718   -9.6559   -8.3297 C   0  0  0  0  0  0  0  0  0  0  0  0
  -32.1805   -8.7837   -7.3330 C   0  0  0  0  0  0  0  0  0  0  0  0
  -31.3168   -7.9808   -6.6704 N   0  0  0  0  0  0  0  0  0  0  0  0
  9 10  1  0  0  0
 10 11  2  0  0  0
 10 18  1  0  0  0
 11  1  1  0  0  0
 11 12  1  0  0  0
  1  2  2  0  0  0
  2  3  1  0  0  0
  2  7  1  0  0  0
  3  4  2  0  0  0
  3  5  1  0  0  0
  5  6  1  0  0  0
  5  8  1  0  0  0
  6  7  2  0  0  0
  7 20  1  0  0  0
 20 21  1  0  0  0
 20 25  2  0  0  0
 21 22  2  0  0  0
 22 23  1  0  0  0
 23 24  2  0  0  0
 24 25  1  0  0  0
 12 13  1  0  0  0
 12 19  1  0  0  0
 13 14  1  0  0  0
 13 18  2  0  0  0
 14 15  2  0  0  0
 15 16  1  0  0  0
 16 17  2  0  0  0
 17 18  1  0  0  0
M  END
> <minimizedAffinity>
-8.79199

$$$$
