CHEMBL375306


 27 29  0  0  0  0  0  0  0  0999 V2000
  -29.6151   -3.7439   -3.5711 C   0  0  0  0  0  0  0  0  0  0  0  0
  -29.0521   -5.0100   -3.7765 C   0  0  0  0  0  0  0  0  0  0  0  0
  -29.8458   -6.1597   -3.7787 C   0  0  0  0  0  0  0  0  0  0  0  0
  -31.2121   -5.9858   -3.5553 C   0  0  0  0  0  0  0  0  0  0  0  0
  -31.6999   -4.6993   -3.3587 C   0  0  0  0  0  0  0  0  0  0  0  0
  -30.9382   -3.5830   -3.3792 N   0  0  0  0  0  0  0  0  0  0  0  0
  -28.8361   -2.5816   -3.6633 N   0  0  0  0  0  0  0  0  0  0  0  0
  -28.1158   -2.6045   -2.9498 H   0  0  0  0  0  0  0  0  0  0  0  0
  -28.0202   -1.5813   -7.1679 C   0  0  0  0  0  0  0  0  0  0  0  0
  -27.6270   -0.5980   -6.2920 C   0  0  0  0  0  0  0  0  0  0  0  0
  -27.9257   -0.8280   -4.9705 N   0  0  0  0  0  0  0  0  0  0  0  0
  -28.5683   -1.9771   -4.8389 C   0  0  0  0  0  0  0  0  0  0  0  0
  -28.9407   -2.7581   -6.3330 S   0  0  0  0  0  0  0  0  0  0  0  0
  -27.4190   -1.7216   -9.6713 N   0  0  0  0  0  0  0  0  0  0  0  0
  -27.6883   -1.6242   -8.5461 C   0  0  0  0  0  0  0  0  0  0  0  0
  -29.2584   -7.5008   -4.1601 C   0  0  0  0  0  0  0  0  0  0  0  0
  -28.9631   -7.8261   -5.5533 N   0  0  0  0  0  0  0  0  0  0  0  0
  -29.7524   -7.1513   -6.5816 C   0  0  0  0  0  0  0  0  0  0  0  0
  -31.0974   -7.8174   -6.9008 C   0  0  0  0  0  0  0  0  0  0  0  0
  -31.0383   -9.2715   -7.0609 N   0  0  0  0  0  0  0  0  0  0  0  0
  -32.1866   -9.8555   -7.5548 C   0  0  0  0  0  0  0  0  0  0  0  0
  -32.2100  -11.2098   -7.5945 N   0  0  0  0  0  0  0  0  0  0  0  0
  -33.1530   -9.2304   -7.9810 O   0  0  0  0  0  0  0  0  0  0  0  0
  -30.0807  -10.0031   -6.2253 C   0  0  0  0  0  0  0  0  0  0  0  0
  -28.7918   -9.2378   -5.8922 C   0  0  0  0  0  0  0  0  0  0  0  0
  -31.7568  -11.7280   -6.8613 H   0  0  0  0  0  0  0  0  0  0  0  0
  -33.1150  -11.5714   -7.8668 H   0  0  0  0  0  0  0  0  0  0  0  0
 14 15  3  0  0  0
 15  9  1  0  0  0
  9 10  2  0  0  0
  9 13  1  0  0  0
 10 11  1  0  0  0
 11 12  2  0  0  0
 12  7  1  0  0  0
 12 13  1  0  0  0
  7  1  1  0  0  0
  7  8  1  0  0  0
  1  2  1  0  0  0
  1  6  2  0  0  0
  2  3  2  0  0  0
  3 16  1  0  0  0
  3  4  1  0  0  0
 16 17  1  0  0  0
 17 18  1  0  0  0
 17 25  1  0  0  0
 18 19  1  0  0  0
 19 20  1  0  0  0
 20 21  1  0  0  0
 20 24  1  0  0  0
 21 22  1  0  0  0
 21 23  2  0  0  0
 22 26  1  0  0  0
 22 27  1  0  0  0
 24 25  1  0  0  0
  4  5  2  0  0  0
  5  6  1  0  0  0
M  END
> <minimizedAffinity>
-7.40600

$$$$
