CHEMBL2004438


 35 38  0  0  0  0  0  0  0  0999 V2000
  -23.6686   -0.0830  -13.2269 C   0  0  0  0  0  0  0  0  0  0  0  0
  -24.4765   -1.0168  -13.8999 C   0  0  0  0  0  0  0  0  0  0  0  0
  -25.6244   -1.5589  -13.3135 C   0  0  0  0  0  0  0  0  0  0  0  0
  -26.0248   -1.1656  -12.0383 C   0  0  0  0  0  0  0  0  0  0  0  0
  -25.2729   -0.2056  -11.3672 C   0  0  0  0  0  0  0  0  0  0  0  0
  -24.0914    0.2916  -11.9381 C   0  0  0  0  0  0  0  0  0  0  0  0
  -22.9916    2.8430  -13.4801 N   0  0  0  0  0  0  0  0  0  0  0  0
  -22.1384    1.8306  -14.0260 C   0  0  0  0  0  0  0  0  0  0  0  0
  -22.4313    0.4509  -13.8687 C   0  0  0  0  0  0  0  0  0  0  0  0
  -21.4868   -0.4560  -14.3918 C   0  0  0  0  0  0  0  0  0  0  0  0
  -20.3248   -0.0258  -15.0357 C   0  0  0  0  0  0  0  0  0  0  0  0
  -20.0239    1.3174  -15.1453 C   0  0  0  0  0  0  0  0  0  0  0  0
  -18.8771    1.6811  -15.7538 N   0  0  0  0  0  0  0  0  0  0  0  0
  -18.6240    3.0044  -15.8146 C   0  0  0  0  0  0  0  0  0  0  0  0
  -19.4910    3.9414  -15.2960 C   0  0  0  0  0  0  0  0  0  0  0  0
  -20.6544    3.5957  -14.7054 N   0  0  0  0  0  0  0  0  0  0  0  0
  -20.9256    2.2692  -14.6150 C   0  0  0  0  0  0  0  0  0  0  0  0
  -23.9721    2.6502  -13.6574 H   0  0  0  0  0  0  0  0  0  0  0  0
  -22.6947    3.7539  -13.8393 H   0  0  0  0  0  0  0  0  0  0  0  0
  -27.1692   -1.6984  -11.4077 N   0  0  0  0  0  0  0  0  0  0  0  0
  -27.2497   -1.9345  -10.0484 C   0  0  0  0  0  0  0  0  0  0  0  0
  -26.4012   -1.6015   -9.2296 O   0  0  0  0  0  0  0  0  0  0  0  0
  -28.4054   -2.6257   -9.7219 N   0  0  0  0  0  0  0  0  0  0  0  0
  -28.0567   -1.5625  -11.8700 H   0  0  0  0  0  0  0  0  0  0  0  0
  -28.6757   -3.3144  -10.4085 H   0  0  0  0  0  0  0  0  0  0  0  0
  -28.7360   -2.8952   -8.3754 C   0  0  0  0  0  0  0  0  0  0  0  0
  -29.5341   -3.9889   -8.0252 C   0  0  0  0  0  0  0  0  0  0  0  0
  -29.8836   -4.2103   -6.6954 C   0  0  0  0  0  0  0  0  0  0  0  0
  -29.4633   -3.3198   -5.7076 C   0  0  0  0  0  0  0  0  0  0  0  0
  -28.6658   -2.2136   -6.0433 C   0  0  0  0  0  0  0  0  0  0  0  0
  -28.2778   -2.0275   -7.3817 C   0  0  0  0  0  0  0  0  0  0  0  0
  -28.2713   -1.1941   -5.0033 C   0  0  0  0  0  0  0  0  0  0  0  0
  -29.1867   -0.1998   -4.8397 F   0  0  0  0  0  0  0  0  0  0  0  0
  -28.0903   -1.7454   -3.7728 F   0  0  0  0  0  0  0  0  0  0  0  0
  -27.0985   -0.5735   -5.3105 F   0  0  0  0  0  0  0  0  0  0  0  0
  7  8  1  0  0  0
  7 18  1  0  0  0
  7 19  1  0  0  0
  8  9  1  0  0  0
  8 17  2  0  0  0
  9  1  1  0  0  0
  9 10  2  0  0  0
  1  2  1  0  0  0
  1  6  2  0  0  0
  2  3  2  0  0  0
  3  4  1  0  0  0
  4 20  1  0  0  0
  4  5  2  0  0  0
 20 21  1  0  0  0
 20 24  1  0  0  0
 21 22  2  0  0  0
 21 23  1  0  0  0
 23 26  1  0  0  0
 23 25  1  0  0  0
 26 27  1  0  0  0
 26 31  2  0  0  0
 27 28  2  0  0  0
 28 29  1  0  0  0
 29 30  2  0  0  0
 30 32  1  0  0  0
 30 31  1  0  0  0
 32 33  1  0  0  0
 32 34  1  0  0  0
 32 35  1  0  0  0
  5  6  1  0  0  0
 10 11  1  0  0  0
 11 12  2  0  0  0
 12 13  1  0  0  0
 12 17  1  0  0  0
 13 14  2  0  0  0
 14 15  1  0  0  0
 15 16  2  0  0  0
 16 17  1  0  0  0
M  END
> <minimizedAffinity>
-11.34222

$$$$
