CHEMBL3908397


 33 36  0  0  0  0  0  0  0  0999 V2000
  -28.3514   -2.4891   -8.7280 C   0  0  0  0  0  0  0  0  0  0  0  0
  -29.1852   -3.5459   -8.3291 C   0  0  0  0  0  0  0  0  0  0  0  0
  -29.5389   -3.7361   -6.9903 C   0  0  0  0  0  0  0  0  0  0  0  0
  -29.0128   -2.8960   -6.0088 C   0  0  0  0  0  0  0  0  0  0  0  0
  -28.2855   -1.7577   -6.4302 C   0  0  0  0  0  0  0  0  0  0  0  0
  -27.9168   -1.5793   -7.7716 C   0  0  0  0  0  0  0  0  0  0  0  0
  -28.8273   -3.4153   -4.5837 C   0  0  0  0  0  0  0  0  0  0  0  0
  -27.8194   -4.3538   -4.3098 C   0  0  0  0  0  0  0  0  0  0  0  0
  -28.4583   -5.5668   -4.7540 C   0  0  0  0  0  0  0  0  0  0  0  0
  -28.0178   -6.7296   -5.4049 C   0  0  0  0  0  0  0  0  0  0  0  0
  -28.9781   -7.6520   -5.8470 C   0  0  0  0  0  0  0  0  0  0  0  0
  -30.3367   -7.4661   -5.5759 C   0  0  0  0  0  0  0  0  0  0  0  0
  -30.7910   -6.3499   -4.8885 C   0  0  0  0  0  0  0  0  0  0  0  0
  -29.8328   -5.3848   -4.5587 C   0  0  0  0  0  0  0  0  0  0  0  0
  -29.9139   -4.1202   -3.9936 N   0  0  0  0  0  0  0  0  0  0  0  0
  -30.9089   -3.6549   -3.1242 C   0  0  0  0  0  0  0  0  0  0  0  0
  -30.4117   -2.8239   -2.1628 N   0  0  0  0  0  0  0  0  0  0  0  0
  -32.0461   -4.1014   -3.1477 O   0  0  0  0  0  0  0  0  0  0  0  0
  -29.4162   -2.8183   -1.9708 H   0  0  0  0  0  0  0  0  0  0  0  0
  -31.0165   -2.7196   -1.3568 H   0  0  0  0  0  0  0  0  0  0  0  0
  -26.5282   -1.5931  -11.7225 N   0  0  0  0  0  0  0  0  0  0  0  0
  -26.7635   -1.7539  -10.3840 C   0  0  0  0  0  0  0  0  0  0  0  0
  -25.9766   -1.4313   -9.4974 O   0  0  0  0  0  0  0  0  0  0  0  0
  -27.9744   -2.3385  -10.0845 N   0  0  0  0  0  0  0  0  0  0  0  0
  -27.3129   -1.6780  -12.3540 H   0  0  0  0  0  0  0  0  0  0  0  0
  -28.2950   -3.0473  -10.7407 H   0  0  0  0  0  0  0  0  0  0  0  0
  -21.6285    0.3634  -14.0238 C   0  0  0  0  0  0  0  0  0  0  0  0
  -22.9001   -0.1374  -13.4064 C   0  0  0  0  0  0  0  0  0  0  0  0
  -23.2719   -1.4642  -13.5852 C   0  0  0  0  0  0  0  0  0  0  0  0
  -24.4577   -1.9375  -13.0350 C   0  0  0  0  0  0  0  0  0  0  0  0
  -25.3020   -1.1231  -12.2738 C   0  0  0  0  0  0  0  0  0  0  0  0
  -24.9237    0.2076  -12.0837 C   0  0  0  0  0  0  0  0  0  0  0  0
  -23.7316    0.6970  -12.6461 C   0  0  0  0  0  0  0  0  0  0  0  0
 27 28  1  0  0  0
 28 29  1  0  0  0
 28 33  2  0  0  0
 29 30  2  0  0  0
 30 31  1  0  0  0
 31 21  1  0  0  0
 31 32  2  0  0  0
 21 22  1  0  0  0
 21 25  1  0  0  0
 22 23  2  0  0  0
 22 24  1  0  0  0
 24  1  1  0  0  0
 24 26  1  0  0  0
  1  2  1  0  0  0
  1  6  2  0  0  0
  2  3  2  0  0  0
  3  4  1  0  0  0
  4  7  1  0  0  0
  4  5  2  0  0  0
  7  8  2  0  0  0
  7 15  1  0  0  0
  8  9  1  0  0  0
  9 10  1  0  0  0
  9 14  2  0  0  0
 10 11  2  0  0  0
 11 12  1  0  0  0
 12 13  2  0  0  0
 13 14  1  0  0  0
 14 15  1  0  0  0
 15 16  1  0  0  0
 16 17  1  0  0  0
 16 18  2  0  0  0
 17 19  1  0  0  0
 17 20  1  0  0  0
  5  6  1  0  0  0
 32 33  1  0  0  0
M  END
> <minimizedAffinity>
-11.53628

$$$$
