CHEMBL3970841


 39 42  0  0  0  0  0  0  0  0999 V2000
  -26.7008   -1.5966  -14.2727 C   0  0  0  0  0  0  0  0  0  0  0  0
  -25.4163   -1.5461  -13.4916 C   0  0  0  0  0  0  0  0  0  0  0  0
  -24.2674   -1.1221  -14.1940 C   0  0  0  0  0  0  0  0  0  0  0  0
  -23.0555   -0.8676  -13.5499 C   0  0  0  0  0  0  0  0  0  0  0  0
  -22.9591   -1.1501  -12.2028 C   0  0  0  0  0  0  0  0  0  0  0  0
  -24.0668   -1.6376  -11.4979 C   0  0  0  0  0  0  0  0  0  0  0  0
  -25.3161   -1.8440  -12.1164 C   0  0  0  0  0  0  0  0  0  0  0  0
  -26.4383   -2.3446  -11.3854 N   0  0  0  0  0  0  0  0  0  0  0  0
  -26.7685   -2.0120  -10.0725 C   0  0  0  0  0  0  0  0  0  0  0  0
  -26.1533   -1.2189   -9.3704 O   0  0  0  0  0  0  0  0  0  0  0  0
  -27.8464   -2.7489   -9.5834 N   0  0  0  0  0  0  0  0  0  0  0  0
  -27.0093   -3.0362  -11.8475 H   0  0  0  0  0  0  0  0  0  0  0  0
  -27.9167   -3.6831   -9.9594 H   0  0  0  0  0  0  0  0  0  0  0  0
  -28.2650   -2.5900   -8.2328 C   0  0  0  0  0  0  0  0  0  0  0  0
  -29.1462   -3.5279   -7.6883 C   0  0  0  0  0  0  0  0  0  0  0  0
  -29.4567   -3.4836   -6.3265 C   0  0  0  0  0  0  0  0  0  0  0  0
  -28.9477   -2.4685   -5.5211 C   0  0  0  0  0  0  0  0  0  0  0  0
  -29.1874   -2.5108   -4.2048 F   0  0  0  0  0  0  0  0  0  0  0  0
  -28.1665   -1.4523   -6.0691 C   0  0  0  0  0  0  0  0  0  0  0  0
  -27.7891   -1.5473   -7.4189 C   0  0  0  0  0  0  0  0  0  0  0  0
  -27.6427   -0.3950   -5.3819 O   0  0  0  0  0  0  0  0  0  0  0  0
  -28.4347    0.7818   -5.2409 C   0  0  0  0  0  0  0  0  0  0  0  0
  -29.7524    0.5586   -5.0618 F   0  0  0  0  0  0  0  0  0  0  0  0
  -27.9620    1.5234   -4.2168 F   0  0  0  0  0  0  0  0  0  0  0  0
  -28.3058    1.5121   -6.3746 F   0  0  0  0  0  0  0  0  0  0  0  0
  -21.9319   -0.3641  -14.1734 O   0  0  0  0  0  0  0  0  0  0  0  0
  -21.7123    1.0022  -14.1502 C   0  0  0  0  0  0  0  0  0  0  0  0
  -22.7228    1.9260  -13.8989 C   0  0  0  0  0  0  0  0  0  0  0  0
  -22.4098    3.2598  -14.0127 C   0  0  0  0  0  0  0  0  0  0  0  0
  -21.1714    3.7077  -14.2785 N   0  0  0  0  0  0  0  0  0  0  0  0
  -20.1759    2.8189  -14.4253 C   0  0  0  0  0  0  0  0  0  0  0  0
  -20.4066    1.4477  -14.3696 C   0  0  0  0  0  0  0  0  0  0  0  0
  -18.8674    3.2884  -14.6527 N   0  0  0  0  0  0  0  0  0  0  0  0
  -17.9030    2.5811  -15.3465 C   0  0  0  0  0  0  0  0  0  0  0  0
  -18.0156    1.4694  -15.8439 O   0  0  0  0  0  0  0  0  0  0  0  0
  -18.6254    4.1915  -14.2758 H   0  0  0  0  0  0  0  0  0  0  0  0
  -16.5653    3.2300  -15.4889 C   0  0  0  0  0  0  0  0  0  0  0  0
  -16.2470    4.0030  -16.7480 C   0  0  0  0  0  0  0  0  0  0  0  0
  -15.4284    2.7999  -16.3753 C   0  0  0  0  0  0  0  0  0  0  0  0
  1  2  1  0  0  0
  2  3  1  0  0  0
  2  7  2  0  0  0
  3  4  2  0  0  0
  4 26  1  0  0  0
  4  5  1  0  0  0
 26 27  1  0  0  0
 27 28  1  0  0  0
 27 32  2  0  0  0
 28 29  2  0  0  0
 29 30  1  0  0  0
 30 31  2  0  0  0
 31 33  1  0  0  0
 31 32  1  0  0  0
 33 34  1  0  0  0
 33 36  1  0  0  0
 34 35  2  0  0  0
 34 37  1  0  0  0
 37 38  1  0  0  0
 37 39  1  0  0  0
 38 39  1  0  0  0
  5  6  2  0  0  0
  6  7  1  0  0  0
  7  8  1  0  0  0
  8  9  1  0  0  0
  8 12  1  0  0  0
  9 10  2  0  0  0
  9 11  1  0  0  0
 11 14  1  0  0  0
 11 13  1  0  0  0
 14 15  1  0  0  0
 14 20  2  0  0  0
 15 16  2  0  0  0
 16 17  1  0  0  0
 17 18  1  0  0  0
 17 19  2  0  0  0
 19 21  1  0  0  0
 19 20  1  0  0  0
 21 22  1  0  0  0
 22 23  1  0  0  0
 22 24  1  0  0  0
 22 25  1  0  0  0
M  END
> <minimizedAffinity>
-12.41746

$$$$
