CHEMBL518867


 36 39  0  0  0  0  0  0  0  0999 V2000
  -19.3957    2.2873  -14.9903 C   0  0  0  0  0  0  0  0  0  0  0  0
  -18.6749    3.2222  -15.7664 C   0  0  0  0  0  0  0  0  0  0  0  0
  -17.3111    3.0236  -16.0711 C   0  0  0  0  0  0  0  0  0  0  0  0
  -16.6716    1.8958  -15.5810 C   0  0  0  0  0  0  0  0  0  0  0  0
  -17.4186    0.9744  -14.8337 C   0  0  0  0  0  0  0  0  0  0  0  0
  -18.7586    1.1292  -14.5364 C   0  0  0  0  0  0  0  0  0  0  0  0
  -16.6194   -0.0635  -14.3791 N   0  0  0  0  0  0  0  0  0  0  0  0
  -15.2962    0.1332  -14.7265 C   0  0  0  0  0  0  0  0  0  0  0  0
  -14.3535   -0.4679  -14.2457 O   0  0  0  0  0  0  0  0  0  0  0  0
  -15.2954    1.3435  -15.6417 C   0  0  0  0  0  0  0  0  0  0  0  0
  -14.1702    1.7353  -16.2853 C   0  0  0  0  0  0  0  0  0  0  0  0
  -16.9036   -0.7774  -13.7259 H   0  0  0  0  0  0  0  0  0  0  0  0
  -14.0876    3.0879  -16.8749 C   0  0  0  0  0  0  0  0  0  0  0  0
  -13.5715    4.1441  -16.1093 C   0  0  0  0  0  0  0  0  0  0  0  0
  -13.4370    5.4189  -16.6640 C   0  0  0  0  0  0  0  0  0  0  0  0
  -13.8205    5.6442  -17.9858 C   0  0  0  0  0  0  0  0  0  0  0  0
  -14.3321    4.5990  -18.7548 C   0  0  0  0  0  0  0  0  0  0  0  0
  -14.4611    3.3218  -18.2040 C   0  0  0  0  0  0  0  0  0  0  0  0
  -20.8115    2.4852  -14.5714 C   0  0  0  0  0  0  0  0  0  0  0  0
  -21.3295    3.5880  -14.4838 O   0  0  0  0  0  0  0  0  0  0  0  0
  -22.7592    1.4408  -13.8347 C   0  0  0  0  0  0  0  0  0  0  0  0
  -21.4287    1.3011  -14.3409 O   0  0  0  0  0  0  0  0  0  0  0  0
  -12.9832    1.0192  -16.4566 N   0  0  0  0  0  0  0  0  0  0  0  0
  -12.4261    0.9599  -15.6099 H   0  0  0  0  0  0  0  0  0  0  0  0
  -12.8125   -0.0593  -17.3561 C   0  0  0  0  0  0  0  0  0  0  0  0
  -13.7189   -0.2812  -18.4024 C   0  0  0  0  0  0  0  0  0  0  0  0
  -13.6391   -1.4298  -19.2003 C   0  0  0  0  0  0  0  0  0  0  0  0
  -12.6575   -2.3877  -18.9512 C   0  0  0  0  0  0  0  0  0  0  0  0
  -11.6933   -2.1410  -17.9739 C   0  0  0  0  0  0  0  0  0  0  0  0
  -11.7664   -0.9780  -17.1885 C   0  0  0  0  0  0  0  0  0  0  0  0
  -12.7554   -3.6644  -19.5882 N   0  0  0  0  0  0  0  0  0  0  0  0
  -12.1104   -3.8450  -20.8960 C   0  0  0  0  0  0  0  0  0  0  0  0
  -13.8665   -4.8156  -19.0755 S   0  0  0  0  0  0  0  0  0  0  0  0
  -13.0698   -6.3431  -19.5563 C   0  0  0  0  0  0  0  0  0  0  0  0
  -13.8910   -4.7998  -17.6291 O   0  0  0  0  0  0  0  0  0  0  0  0
  -15.0917   -4.7001  -19.8435 O   0  0  0  0  0  0  0  0  0  0  0  0
 21 22  1  0  0  0
 22 19  1  0  0  0
 19 20  2  0  0  0
 19  1  1  0  0  0
  1  2  1  0  0  0
  1  6  2  0  0  0
  2  3  2  0  0  0
  3  4  1  0  0  0
  4  5  2  0  0  0
  4 10  1  0  0  0
  5  6  1  0  0  0
  5  7  1  0  0  0
  7  8  1  0  0  0
  7 12  1  0  0  0
  8  9  2  0  0  0
  8 10  1  0  0  0
 10 11  2  0  0  0
 11 23  1  0  0  0
 11 13  1  0  0  0
 23 25  1  0  0  0
 23 24  1  0  0  0
 25 26  1  0  0  0
 25 30  2  0  0  0
 26 27  2  0  0  0
 27 28  1  0  0  0
 28 31  1  0  0  0
 28 29  2  0  0  0
 31 32  1  0  0  0
 31 33  1  0  0  0
 33 34  1  0  0  0
 33 35  2  0  0  0
 33 36  2  0  0  0
 29 30  1  0  0  0
 13 14  1  0  0  0
 13 18  2  0  0  0
 14 15  2  0  0  0
 15 16  1  0  0  0
 16 17  2  0  0  0
 17 18  1  0  0  0
M  END
> <minimizedAffinity>
-7.56983

$$$$
