CHEMBL2032030


 44 48  0  0  0  0  0  0  0  0999 V2000
  -25.6528   -1.5871   -9.9335 N   0  0  0  0  0  0  0  0  0  0  0  0
  -27.0031   -1.8847   -9.9542 C   0  0  0  0  0  0  0  0  0  0  0  0
  -27.7352   -1.6887  -10.9210 O   0  0  0  0  0  0  0  0  0  0  0  0
  -25.1812   -1.6064   -9.0296 H   0  0  0  0  0  0  0  0  0  0  0  0
  -23.2854   -0.5316  -13.3147 C   0  0  0  0  0  0  0  0  0  0  0  0
  -24.1296    0.4065  -12.7415 C   0  0  0  0  0  0  0  0  0  0  0  0
  -24.8827    0.0741  -11.6077 C   0  0  0  0  0  0  0  0  0  0  0  0
  -24.8855   -1.2215  -11.0737 C   0  0  0  0  0  0  0  0  0  0  0  0
  -24.1154   -2.1926  -11.7185 C   0  0  0  0  0  0  0  0  0  0  0  0
  -23.3129   -1.8404  -12.8213 C   0  0  0  0  0  0  0  0  0  0  0  0
  -22.5527   -2.7887  -13.3835 F   0  0  0  0  0  0  0  0  0  0  0  0
  -22.3728   -0.2555  -14.3186 O   0  0  0  0  0  0  0  0  0  0  0  0
  -17.7585    1.8634  -15.3070 C   0  0  0  0  0  0  0  0  0  0  0  0
  -18.2063    0.5563  -15.4214 C   0  0  0  0  0  0  0  0  0  0  0  0
  -19.5513    0.2687  -15.2198 C   0  0  0  0  0  0  0  0  0  0  0  0
  -20.4630    1.2617  -14.8013 C   0  0  0  0  0  0  0  0  0  0  0  0
  -21.7940    1.0051  -14.4045 C   0  0  0  0  0  0  0  0  0  0  0  0
  -22.6406    2.0616  -14.0761 C   0  0  0  0  0  0  0  0  0  0  0  0
  -22.1213    3.3383  -14.1120 C   0  0  0  0  0  0  0  0  0  0  0  0
  -20.8360    3.6175  -14.4153 N   0  0  0  0  0  0  0  0  0  0  0  0
  -20.0177    2.5996  -14.7384 C   0  0  0  0  0  0  0  0  0  0  0  0
  -18.6777    2.8705  -14.9998 C   0  0  0  0  0  0  0  0  0  0  0  0
  -16.2788    3.6092  -15.9255 C   0  0  0  0  0  0  0  0  0  0  0  0
  -16.4625    2.2690  -15.4766 O   0  0  0  0  0  0  0  0  0  0  0  0
  -27.5788   -2.4704   -8.7235 C   0  0  0  0  0  0  0  0  0  0  0  0
  -28.0214   -1.7991   -7.6341 C   0  0  0  0  0  0  0  0  0  0  0  0
  -27.9917   -0.3070   -7.4961 C   0  0  0  0  0  0  0  0  0  0  0  0
  -28.5602   -2.6599   -6.6581 N   0  0  0  0  0  0  0  0  0  0  0  0
  -28.2895   -3.9804   -7.1257 N   0  0  0  0  0  0  0  0  0  0  0  0
  -27.7727   -3.9052   -8.4258 C   0  0  0  0  0  0  0  0  0  0  0  0
  -27.5439   -4.7937   -9.2339 O   0  0  0  0  0  0  0  0  0  0  0  0
  -28.8410   -5.1531   -6.5705 C   0  0  0  0  0  0  0  0  0  0  0  0
  -30.0068   -5.6828   -7.1411 C   0  0  0  0  0  0  0  0  0  0  0  0
  -30.5616   -6.8704   -6.6567 C   0  0  0  0  0  0  0  0  0  0  0  0
  -29.9808   -7.5145   -5.5671 C   0  0  0  0  0  0  0  0  0  0  0  0
  -28.8366   -6.9806   -4.9743 C   0  0  0  0  0  0  0  0  0  0  0  0
  -28.2561   -5.8133   -5.4851 C   0  0  0  0  0  0  0  0  0  0  0  0
  -28.7267   -2.4870   -5.1866 C   0  0  0  0  0  0  0  0  0  0  0  0
  -30.1637   -2.4886   -4.6088 C   0  0  0  0  0  0  0  0  0  0  0  0
  -31.1411   -2.8633   -5.5900 O   0  0  0  0  0  0  0  0  0  0  0  0
  -30.6894   -3.3261   -6.3165 H   0  0  0  0  0  0  0  0  0  0  0  0
  -30.4172   -3.4602   -3.4303 C   0  0  0  0  0  0  0  0  0  0  0  0
  -30.6000   -2.7311   -2.0938 C   0  0  0  0  0  0  0  0  0  0  0  0
  -31.5609   -4.4379   -3.6768 C   0  0  0  0  0  0  0  0  0  0  0  0
 23 24  1  0  0  0
 24 13  1  0  0  0
 13 14  1  0  0  0
 13 22  2  0  0  0
 14 15  2  0  0  0
 15 16  1  0  0  0
 16 17  1  0  0  0
 16 21  2  0  0  0
 17 12  1  0  0  0
 17 18  2  0  0  0
 12  5  1  0  0  0
  5  6  1  0  0  0
  5 10  2  0  0  0
  6  7  2  0  0  0
  7  8  1  0  0  0
  8  1  1  0  0  0
  8  9  2  0  0  0
  1  2  1  0  0  0
  1  4  1  0  0  0
  2  3  2  0  0  0
  2 25  1  0  0  0
 25 26  2  0  0  0
 25 30  1  0  0  0
 26 27  1  0  0  0
 26 28  1  0  0  0
 28 38  1  0  0  0
 28 29  1  0  0  0
 38 39  1  0  0  0
 39 40  1  0  0  0
 39 42  1  0  0  0
 40 41  1  0  0  0
 42 43  1  0  0  0
 42 44  1  0  0  0
 29 32  1  0  0  0
 29 30  1  0  0  0
 32 33  1  0  0  0
 32 37  2  0  0  0
 33 34  2  0  0  0
 34 35  1  0  0  0
 35 36  2  0  0  0
 36 37  1  0  0  0
 30 31  2  0  0  0
  9 10  1  0  0  0
 10 11  1  0  0  0
 18 19  1  0  0  0
 19 20  2  0  0  0
 20 21  1  0  0  0
 21 22  1  0  0  0
M  END
> <minimizedAffinity>
-9.93855

$$$$
