CHEMBL241919


 42 45  0  0  0  0  0  0  0  0999 V2000
  -16.4314    1.7907  -15.6433 C   0  0  0  0  0  0  0  0  0  0  0  0
  -15.0459    1.5489  -15.6170 C   0  0  0  0  0  0  0  0  0  0  0  0
  -14.4645    0.6121  -14.7714 C   0  0  0  0  0  0  0  0  0  0  0  0
  -13.1392    0.4236  -14.7980 N   0  0  0  0  0  0  0  0  0  0  0  0
  -12.6398   -0.4883  -13.9501 C   0  0  0  0  0  0  0  0  0  0  0  0
  -13.3486   -1.2435  -13.1019 N   0  0  0  0  0  0  0  0  0  0  0  0
  -14.6819   -1.0640  -13.0937 C   0  0  0  0  0  0  0  0  0  0  0  0
  -15.3003   -0.1132  -13.9163 C   0  0  0  0  0  0  0  0  0  0  0  0
  -16.6875    0.1330  -13.9255 C   0  0  0  0  0  0  0  0  0  0  0  0
  -17.2740    1.0348  -14.8174 C   0  0  0  0  0  0  0  0  0  0  0  0
  -18.6809    1.0933  -14.9444 N   0  0  0  0  0  0  0  0  0  0  0  0
  -19.4839    2.1226  -14.5048 C   0  0  0  0  0  0  0  0  0  0  0  0
  -19.1037    3.1815  -14.0209 O   0  0  0  0  0  0  0  0  0  0  0  0
  -19.1196    0.3110  -15.4062 H   0  0  0  0  0  0  0  0  0  0  0  0
  -20.9305    1.8641  -14.7173 C   0  0  0  0  0  0  0  0  0  0  0  0
  -21.4512    0.7593  -14.1616 C   0  0  0  0  0  0  0  0  0  0  0  0
  -22.8605    0.2644  -14.2365 C   0  0  0  0  0  0  0  0  0  0  0  0
  -23.1561   -0.9794  -13.5137 N   0  0  0  0  0  0  0  0  0  0  0  0
  -22.8671   -0.8452  -12.0795 C   0  0  0  0  0  0  0  0  0  0  0  0
  -24.5841   -1.2842  -13.6801 C   0  0  0  0  0  0  0  0  0  0  0  0
  -15.4697   -1.8656  -12.2255 N   0  0  0  0  0  0  0  0  0  0  0  0
  -16.4528   -1.5875  -12.2679 H   0  0  0  0  0  0  0  0  0  0  0  0
  -15.3348   -3.2452  -12.1389 C   0  0  0  0  0  0  0  0  0  0  0  0
  -15.6297   -4.1070  -13.1170 C   0  0  0  0  0  0  0  0  0  0  0  0
  -15.5542   -5.5575  -12.9387 C   0  0  0  0  0  0  0  0  0  0  0  0
  -16.1212   -6.3007  -13.7325 O   0  0  0  0  0  0  0  0  0  0  0  0
  -14.7822   -6.0732  -11.7721 C   0  0  0  0  0  0  0  0  0  0  0  0
  -14.4683   -5.2280  -10.7785 C   0  0  0  0  0  0  0  0  0  0  0  0
  -14.7979   -3.7867  -10.8512 C   0  0  0  0  0  0  0  0  0  0  0  0
  -14.5972   -3.0490   -9.8890 O   0  0  0  0  0  0  0  0  0  0  0  0
  -14.4882   -7.4127  -11.8472 O   0  0  0  0  0  0  0  0  0  0  0  0
  -13.1466   -7.8608  -11.9743 C   0  0  0  0  0  0  0  0  0  0  0  0
  -12.6178   -7.7341  -13.3828 C   0  0  0  0  0  0  0  0  0  0  0  0
  -11.7044   -6.7162  -13.6821 C   0  0  0  0  0  0  0  0  0  0  0  0
  -11.3486   -6.4551  -15.0043 C   0  0  0  0  0  0  0  0  0  0  0  0
  -11.8762   -7.2275  -16.0387 C   0  0  0  0  0  0  0  0  0  0  0  0
  -12.7382   -8.2916  -15.7579 C   0  0  0  0  0  0  0  0  0  0  0  0
  -13.2351   -9.1907  -16.8513 C   0  0  0  0  0  0  0  0  0  0  0  0
  -13.1155   -8.5291  -14.4296 C   0  0  0  0  0  0  0  0  0  0  0  0
  -16.8120    2.7799  -16.5190 O   0  0  0  0  0  0  0  0  0  0  0  0
  -15.4664    4.6121  -17.3545 C   0  0  0  0  0  0  0  0  0  0  0  0
  -16.3566    4.1066  -16.2339 C   0  0  0  0  0  0  0  0  0  0  0  0
 41 42  1  0  0  0
 42 40  1  0  0  0
 40  1  1  0  0  0
  1  2  1  0  0  0
  1 10  2  0  0  0
  2  3  2  0  0  0
  3  4  1  0  0  0
  3  8  1  0  0  0
  4  5  2  0  0  0
  5  6  1  0  0  0
  6  7  2  0  0  0
  7 21  1  0  0  0
  7  8  1  0  0  0
 21 23  1  0  0  0
 21 22  1  0  0  0
 23 24  2  0  0  0
 23 29  1  0  0  0
 24 25  1  0  0  0
 25 26  2  0  0  0
 25 27  1  0  0  0
 27 31  1  0  0  0
 27 28  2  0  0  0
 31 32  1  0  0  0
 32 33  1  0  0  0
 33 34  1  0  0  0
 33 39  2  0  0  0
 34 35  2  0  0  0
 35 36  1  0  0  0
 36 37  2  0  0  0
 37 38  1  0  0  0
 37 39  1  0  0  0
 28 29  1  0  0  0
 29 30  2  0  0  0
  8  9  2  0  0  0
  9 10  1  0  0  0
 10 11  1  0  0  0
 11 12  1  0  0  0
 11 14  1  0  0  0
 12 13  2  0  0  0
 12 15  1  0  0  0
 15 16  2  0  0  0
 16 17  1  0  0  0
 17 18  1  0  0  0
 18 19  1  0  0  0
 18 20  1  0  0  0
M  END
> <minimizedAffinity>
-8.55075

$$$$
