CHEMBL4165234


 41 45  0  0  0  0  0  0  0  0999 V2000
  -24.9199   -0.2329  -12.6432 N   0  0  0  0  0  0  0  0  0  0  0  0
  -25.5321   -1.4175  -12.9988 C   0  0  0  0  0  0  0  0  0  0  0  0
  -25.1588   -2.2436  -13.8270 O   0  0  0  0  0  0  0  0  0  0  0  0
  -25.3404    0.3080  -11.8954 H   0  0  0  0  0  0  0  0  0  0  0  0
  -21.3493    1.3085  -14.3794 C   0  0  0  0  0  0  0  0  0  0  0  0
  -22.3525    2.1660  -13.9090 C   0  0  0  0  0  0  0  0  0  0  0  0
  -23.5301    1.6715  -13.3424 C   0  0  0  0  0  0  0  0  0  0  0  0
  -23.7624    0.3028  -13.2461 C   0  0  0  0  0  0  0  0  0  0  0  0
  -22.7906   -0.5724  -13.7406 C   0  0  0  0  0  0  0  0  0  0  0  0
  -21.6056   -0.0724  -14.3037 C   0  0  0  0  0  0  0  0  0  0  0  0
  -14.3914    0.2904  -15.9722 N   0  0  0  0  0  0  0  0  0  0  0  0
  -15.4522    1.1610  -15.8374 C   0  0  0  0  0  0  0  0  0  0  0  0
  -15.2114    2.4556  -16.0513 N   0  0  0  0  0  0  0  0  0  0  0  0
  -16.2619    3.2842  -15.9150 C   0  0  0  0  0  0  0  0  0  0  0  0
  -17.5394    2.8603  -15.5918 C   0  0  0  0  0  0  0  0  0  0  0  0
  -18.6322    3.7274  -15.4496 C   0  0  0  0  0  0  0  0  0  0  0  0
  -19.8755    3.2125  -15.0902 C   0  0  0  0  0  0  0  0  0  0  0  0
  -20.0526    1.8373  -14.8600 C   0  0  0  0  0  0  0  0  0  0  0  0
  -18.9330    1.0016  -15.0472 C   0  0  0  0  0  0  0  0  0  0  0  0
  -17.6778    1.4859  -15.4028 C   0  0  0  0  0  0  0  0  0  0  0  0
  -16.6453    0.6400  -15.5364 N   0  0  0  0  0  0  0  0  0  0  0  0
  -13.6920    0.6933  -16.5794 H   0  0  0  0  0  0  0  0  0  0  0  0
  -14.7272   -0.6356  -16.1935 H   0  0  0  0  0  0  0  0  0  0  0  0
  -26.8107   -1.7089  -12.2913 C   0  0  0  0  0  0  0  0  0  0  0  0
  -27.8292   -2.6064  -13.0045 C   0  0  0  0  0  0  0  0  0  0  0  0
  -28.0983   -1.1413  -12.8885 C   0  0  0  0  0  0  0  0  0  0  0  0
  -26.7049   -1.7867  -10.7979 C   0  0  0  0  0  0  0  0  0  0  0  0
  -25.5903   -1.6885  -10.3022 O   0  0  0  0  0  0  0  0  0  0  0  0
  -27.8999   -1.9853  -10.1096 N   0  0  0  0  0  0  0  0  0  0  0  0
  -28.7328   -2.1523  -10.6680 H   0  0  0  0  0  0  0  0  0  0  0  0
  -28.0142   -2.1019   -8.6990 C   0  0  0  0  0  0  0  0  0  0  0  0
  -28.1963   -3.3341   -8.0638 C   0  0  0  0  0  0  0  0  0  0  0  0
  -28.4487   -3.4015   -6.6947 C   0  0  0  0  0  0  0  0  0  0  0  0
  -28.7704   -5.0795   -5.8837 Br  0  0  0  0  0  0  0  0  0  0  0  0
  -28.4999   -2.2453   -5.9266 C   0  0  0  0  0  0  0  0  0  0  0  0
  -28.2572   -0.9999   -6.5236 C   0  0  0  0  0  0  0  0  0  0  0  0
  -27.9867   -0.9406   -7.9108 C   0  0  0  0  0  0  0  0  0  0  0  0
  -28.3337    0.2596   -5.6928 C   0  0  0  0  0  0  0  0  0  0  0  0
  -29.5357    0.4302   -5.0721 F   0  0  0  0  0  0  0  0  0  0  0  0
  -27.3975    0.2950   -4.7065 F   0  0  0  0  0  0  0  0  0  0  0  0
  -28.1406    1.3833   -6.4370 F   0  0  0  0  0  0  0  0  0  0  0  0
 11 12  1  0  0  0
 11 22  1  0  0  0
 11 23  1  0  0  0
 12 13  1  0  0  0
 12 21  2  0  0  0
 13 14  2  0  0  0
 14 15  1  0  0  0
 15 16  1  0  0  0
 15 20  2  0  0  0
 16 17  2  0  0  0
 17 18  1  0  0  0
 18  5  1  0  0  0
 18 19  2  0  0  0
  5  6  1  0  0  0
  5 10  2  0  0  0
  6  7  2  0  0  0
  7  8  1  0  0  0
  8  1  1  0  0  0
  8  9  2  0  0  0
  1  2  1  0  0  0
  1  4  1  0  0  0
  2  3  2  0  0  0
  2 24  1  0  0  0
 24 27  1  0  0  0
 24 25  1  0  0  0
 24 26  1  0  0  0
 27 28  2  0  0  0
 27 29  1  0  0  0
 29 31  1  0  0  0
 29 30  1  0  0  0
 31 32  1  0  0  0
 31 37  2  0  0  0
 32 33  2  0  0  0
 33 34  1  0  0  0
 33 35  1  0  0  0
 35 36  2  0  0  0
 36 38  1  0  0  0
 36 37  1  0  0  0
 38 39  1  0  0  0
 38 40  1  0  0  0
 38 41  1  0  0  0
 25 26  1  0  0  0
  9 10  1  0  0  0
 19 20  1  0  0  0
 20 21  1  0  0  0
M  END
> <minimizedAffinity>
-12.33699

$$$$
