CHEMBL3660288


 41 44  0  0  0  0  0  0  0  0999 V2000
  -27.6708   -9.5426   -4.2832 O   0  0  0  0  0  0  0  0  0  0  0  0
  -29.0269   -5.6077   -3.8548 C   0  0  0  0  0  0  0  0  0  0  0  0
  -29.9069   -6.6662   -3.6018 C   0  0  0  0  0  0  0  0  0  0  0  0
  -29.4792   -7.9895   -3.7171 C   0  0  0  0  0  0  0  0  0  0  0  0
  -28.1807   -8.2693   -4.1439 C   0  0  0  0  0  0  0  0  0  0  0  0
  -27.2971   -7.2135   -4.3911 C   0  0  0  0  0  0  0  0  0  0  0  0
  -27.7237   -5.8830   -4.2724 C   0  0  0  0  0  0  0  0  0  0  0  0
  -29.4254   -2.0175   -4.1747 N   0  0  0  0  0  0  0  0  0  0  0  0
  -29.0738   -3.2965   -4.5497 C   0  0  0  0  0  0  0  0  0  0  0  0
  -28.5518   -3.6010   -5.6202 O   0  0  0  0  0  0  0  0  0  0  0  0
  -29.4325   -4.2674   -3.6164 N   0  0  0  0  0  0  0  0  0  0  0  0
  -30.0136   -1.9261   -3.3635 H   0  0  0  0  0  0  0  0  0  0  0  0
  -30.3646   -4.1472   -3.2488 H   0  0  0  0  0  0  0  0  0  0  0  0
  -31.3794    1.8742   -6.5358 C   0  0  0  0  0  0  0  0  0  0  0  0
  -30.1799    1.0580   -6.1469 C   0  0  0  0  0  0  0  0  0  0  0  0
  -28.9155    1.4196   -6.6201 C   0  0  0  0  0  0  0  0  0  0  0  0
  -27.7975    0.6874   -6.2394 C   0  0  0  0  0  0  0  0  0  0  0  0
  -27.9355   -0.4172   -5.4029 C   0  0  0  0  0  0  0  0  0  0  0  0
  -26.7959   -0.9718   -4.9736 F   0  0  0  0  0  0  0  0  0  0  0  0
  -29.1963   -0.8506   -4.9582 C   0  0  0  0  0  0  0  0  0  0  0  0
  -30.3154   -0.0745   -5.3165 C   0  0  0  0  0  0  0  0  0  0  0  0
  -26.9753   -9.8742   -5.4259 C   0  0  0  0  0  0  0  0  0  0  0  0
  -25.6362  -10.2464   -5.4436 C   0  0  0  0  0  0  0  0  0  0  0  0
  -25.0527  -10.5224   -6.6672 C   0  0  0  0  0  0  0  0  0  0  0  0
  -25.7180  -10.4993   -7.8428 N   0  0  0  0  0  0  0  0  0  0  0  0
  -27.0358  -10.1933   -7.7934 C   0  0  0  0  0  0  0  0  0  0  0  0
  -27.7013   -9.8816   -6.6133 C   0  0  0  0  0  0  0  0  0  0  0  0
  -27.7126  -10.2154   -9.0865 C   0  0  0  0  0  0  0  0  0  0  0  0
  -27.2277  -10.1080  -10.3787 C   0  0  0  0  0  0  0  0  0  0  0  0
  -28.3188  -10.1802  -11.2985 C   0  0  0  0  0  0  0  0  0  0  0  0
  -29.4492  -10.3436  -10.5154 C   0  0  0  0  0  0  0  0  0  0  0  0
  -29.0770  -10.3648   -9.1989 N   0  0  0  0  0  0  0  0  0  0  0  0
  -29.6907  -10.4757   -8.3994 H   0  0  0  0  0  0  0  0  0  0  0  0
  -28.3191  -10.1014  -12.7575 C   0  0  0  0  0  0  0  0  0  0  0  0
  -29.1041  -10.7367  -13.4581 O   0  0  0  0  0  0  0  0  0  0  0  0
  -27.3750   -9.2487  -13.2877 N   0  0  0  0  0  0  0  0  0  0  0  0
  -26.7565   -8.7400  -12.6776 H   0  0  0  0  0  0  0  0  0  0  0  0
  -27.2321   -9.0455  -14.7191 C   0  0  0  0  0  0  0  0  0  0  0  0
  -25.8251   -9.3861  -15.2043 C   0  0  0  0  0  0  0  0  0  0  0  0
  -25.4329   -8.4843  -16.2398 O   0  0  0  0  0  0  0  0  0  0  0  0
  -25.9974   -8.6920  -17.0050 H   0  0  0  0  0  0  0  0  0  0  0  0
 14 15  1  0  0  0
 15 16  1  0  0  0
 15 21  2  0  0  0
 16 17  2  0  0  0
 17 18  1  0  0  0
 18 19  1  0  0  0
 18 20  2  0  0  0
 20  8  1  0  0  0
 20 21  1  0  0  0
  8  9  1  0  0  0
  8 12  1  0  0  0
  9 10  2  0  0  0
  9 11  1  0  0  0
 11  2  1  0  0  0
 11 13  1  0  0  0
  2  3  1  0  0  0
  2  7  2  0  0  0
  3  4  2  0  0  0
  4  5  1  0  0  0
  5  1  1  0  0  0
  5  6  2  0  0  0
  1 22  1  0  0  0
 22 23  1  0  0  0
 22 27  2  0  0  0
 23 24  2  0  0  0
 24 25  1  0  0  0
 25 26  2  0  0  0
 26 28  1  0  0  0
 26 27  1  0  0  0
 28 29  2  0  0  0
 28 32  1  0  0  0
 29 30  1  0  0  0
 30 34  1  0  0  0
 30 31  2  0  0  0
 34 35  2  0  0  0
 34 36  1  0  0  0
 36 38  1  0  0  0
 36 37  1  0  0  0
 38 39  1  0  0  0
 39 40  1  0  0  0
 40 41  1  0  0  0
 31 32  1  0  0  0
 32 33  1  0  0  0
  6  7  1  0  0  0
M  END
> <minimizedAffinity>
-8.20794

$$$$
