CHEMBL378403


 25 28  0  0  0  0  0  0  0  0999 V2000
  -29.1372   -5.3508   -6.9334 C   0  0  0  0  0  0  0  0  0  0  0  0
  -28.8650   -6.1351   -5.8775 C   0  0  0  0  0  0  0  0  0  0  0  0
  -27.9527   -5.9323   -4.7250 C   0  0  0  0  0  0  0  0  0  0  0  0
  -27.3653   -4.9384   -4.3500 O   0  0  0  0  0  0  0  0  0  0  0  0
  -27.9120   -7.1892   -4.1357 N   0  0  0  0  0  0  0  0  0  0  0  0
  -28.7741   -8.1214   -4.6660 N   0  0  0  0  0  0  0  0  0  0  0  0
  -29.3820   -7.5199   -5.6618 C   0  0  0  0  0  0  0  0  0  0  0  0
  -27.3808   -7.3902   -3.2967 H   0  0  0  0  0  0  0  0  0  0  0  0
  -26.9033   -1.7007   -9.3723 C   0  0  0  0  0  0  0  0  0  0  0  0
  -27.6947   -2.3859   -8.3759 N   0  0  0  0  0  0  0  0  0  0  0  0
  -27.9835   -3.7185   -8.4049 C   0  0  0  0  0  0  0  0  0  0  0  0
  -28.6828   -4.0377   -7.2642 C   0  0  0  0  0  0  0  0  0  0  0  0
  -28.9259   -2.8072   -6.5470 C   0  0  0  0  0  0  0  0  0  0  0  0
  -29.6053   -2.3915   -5.3716 C   0  0  0  0  0  0  0  0  0  0  0  0
  -30.4477   -3.5561   -4.4445 Cl  0  0  0  0  0  0  0  0  0  0  0  0
  -29.6137   -1.0573   -4.9536 C   0  0  0  0  0  0  0  0  0  0  0  0
  -28.9414   -0.0961   -5.6922 C   0  0  0  0  0  0  0  0  0  0  0  0
  -28.2612   -0.4481   -6.8590 C   0  0  0  0  0  0  0  0  0  0  0  0
  -28.2700   -1.7946   -7.2715 C   0  0  0  0  0  0  0  0  0  0  0  0
  -30.4627   -8.1296   -6.4458 C   0  0  0  0  0  0  0  0  0  0  0  0
  -31.7591   -7.6476   -6.3649 C   0  0  0  0  0  0  0  0  0  0  0  0
  -32.7875   -8.2187   -7.0466 N   0  0  0  0  0  0  0  0  0  0  0  0
  -32.4551   -9.2740   -7.8268 C   0  0  0  0  0  0  0  0  0  0  0  0
  -31.1547   -9.7294   -7.9390 C   0  0  0  0  0  0  0  0  0  0  0  0
  -30.1350   -9.1636   -7.2591 N   0  0  0  0  0  0  0  0  0  0  0  0
  9 10  1  0  0  0
 10 11  1  0  0  0
 10 19  1  0  0  0
 11 12  2  0  0  0
 12  1  1  0  0  0
 12 13  1  0  0  0
  1  2  2  0  0  0
  2  3  1  0  0  0
  2  7  1  0  0  0
  3  4  2  0  0  0
  3  5  1  0  0  0
  5  6  1  0  0  0
  5  8  1  0  0  0
  6  7  2  0  0  0
  7 20  1  0  0  0
 20 21  1  0  0  0
 20 25  2  0  0  0
 21 22  2  0  0  0
 22 23  1  0  0  0
 23 24  2  0  0  0
 24 25  1  0  0  0
 13 14  1  0  0  0
 13 19  2  0  0  0
 14 15  1  0  0  0
 14 16  2  0  0  0
 16 17  1  0  0  0
 17 18  2  0  0  0
 18 19  1  0  0  0
M  END
> <minimizedAffinity>
-8.42195

$$$$
