CHEMBL3958678


 36 40  0  0  0  0  0  0  0  0999 V2000
  -13.7116   -2.1045  -14.0705 C   0  0  0  0  0  0  0  0  0  0  0  0
  -13.2247   -2.9615  -13.0765 C   0  0  0  0  0  0  0  0  0  0  0  0
  -13.8708   -3.0799  -11.8234 C   0  0  0  0  0  0  0  0  0  0  0  0
  -13.4475   -3.8743  -10.7468 C   0  0  0  0  0  0  0  0  0  0  0  0
  -14.1483   -3.9592   -9.5968 N   0  0  0  0  0  0  0  0  0  0  0  0
  -15.2686   -3.2439   -9.5103 C   0  0  0  0  0  0  0  0  0  0  0  0
  -15.7577   -2.4479  -10.4622 N   0  0  0  0  0  0  0  0  0  0  0  0
  -15.0567   -2.3811  -11.5958 C   0  0  0  0  0  0  0  0  0  0  0  0
  -15.5447   -1.5677  -12.5965 C   0  0  0  0  0  0  0  0  0  0  0  0
  -14.8780   -1.3775  -13.8198 C   0  0  0  0  0  0  0  0  0  0  0  0
  -12.6842   -3.4018  -15.8056 C   0  0  0  0  0  0  0  0  0  0  0  0
  -12.9710   -2.1405  -15.2174 O   0  0  0  0  0  0  0  0  0  0  0  0
  -12.2419   -4.6200  -10.8538 N   0  0  0  0  0  0  0  0  0  0  0  0
  -11.6198   -4.3629  -10.0945 H   0  0  0  0  0  0  0  0  0  0  0  0
  -12.2125   -5.9943  -11.1692 C   0  0  0  0  0  0  0  0  0  0  0  0
  -11.1868   -6.8113  -10.6713 C   0  0  0  0  0  0  0  0  0  0  0  0
  -11.0939   -8.1546  -11.0336 C   0  0  0  0  0  0  0  0  0  0  0  0
  -12.0405   -8.7045  -11.8981 C   0  0  0  0  0  0  0  0  0  0  0  0
  -11.8454  -10.3614  -12.3442 Cl  0  0  0  0  0  0  0  0  0  0  0  0
  -13.0876   -7.9100  -12.3777 C   0  0  0  0  0  0  0  0  0  0  0  0
  -14.2940   -8.5275  -13.4513 Cl  0  0  0  0  0  0  0  0  0  0  0  0
  -13.1779   -6.5610  -12.0065 C   0  0  0  0  0  0  0  0  0  0  0  0
  -15.3685   -0.5211  -14.7749 O   0  0  0  0  0  0  0  0  0  0  0  0
  -15.0148    0.8536  -14.5510 C   0  0  0  0  0  0  0  0  0  0  0  0
  -16.0815    1.8033  -14.9587 C   0  0  0  0  0  0  0  0  0  0  0  0
  -15.9278    3.0318  -15.5566 C   0  0  0  0  0  0  0  0  0  0  0  0
  -17.4571    3.6668  -15.9720 S   0  0  0  0  0  0  0  0  0  0  0  0
  -18.2283    2.2539  -15.3264 C   0  0  0  0  0  0  0  0  0  0  0  0
  -17.3932    1.3960  -14.7905 N   0  0  0  0  0  0  0  0  0  0  0  0
  -19.5671    2.0597  -15.3573 N   0  0  0  0  0  0  0  0  0  0  0  0
  -20.4808    3.2040  -15.4180 C   0  0  0  0  0  0  0  0  0  0  0  0
  -21.5760    3.1291  -14.3308 C   0  0  0  0  0  0  0  0  0  0  0  0
  -22.2562    1.8161  -14.3127 N   0  0  0  0  0  0  0  0  0  0  0  0
  -23.3073    1.7800  -13.3010 C   0  0  0  0  0  0  0  0  0  0  0  0
  -21.2402    0.7729  -14.0604 C   0  0  0  0  0  0  0  0  0  0  0  0
  -20.1641    0.7403  -15.1703 C   0  0  0  0  0  0  0  0  0  0  0  0
 11 12  1  0  0  0
 12  1  1  0  0  0
  1  2  1  0  0  0
  1 10  2  0  0  0
  2  3  2  0  0  0
  3  4  1  0  0  0
  3  8  1  0  0  0
  4 13  1  0  0  0
  4  5  2  0  0  0
 13 15  1  0  0  0
 13 14  1  0  0  0
 15 16  1  0  0  0
 15 22  2  0  0  0
 16 17  2  0  0  0
 17 18  1  0  0  0
 18 19  1  0  0  0
 18 20  2  0  0  0
 20 21  1  0  0  0
 20 22  1  0  0  0
  5  6  1  0  0  0
  6  7  2  0  0  0
  7  8  1  0  0  0
  8  9  2  0  0  0
  9 10  1  0  0  0
 10 23  1  0  0  0
 23 24  1  0  0  0
 24 25  1  0  0  0
 25 26  2  0  0  0
 25 29  1  0  0  0
 26 27  1  0  0  0
 27 28  1  0  0  0
 28 30  1  0  0  0
 28 29  2  0  0  0
 30 31  1  0  0  0
 30 36  1  0  0  0
 31 32  1  0  0  0
 32 33  1  0  0  0
 33 34  1  0  0  0
 33 35  1  0  0  0
 35 36  1  0  0  0
M  END
> <minimizedAffinity>
-7.66885

$$$$
