CHEMBL3690474


 36 39  0  0  0  0  0  0  0  0999 V2000
  -22.8192    1.4545  -13.9112 C   0  0  0  0  0  0  0  0  0  0  0  0
  -23.0755    2.7818  -13.5921 C   0  0  0  0  0  0  0  0  0  0  0  0
  -21.9864    3.5852  -13.7998 N   0  0  0  0  0  0  0  0  0  0  0  0
  -21.0522    2.7800  -14.2586 C   0  0  0  0  0  0  0  0  0  0  0  0
  -19.7053    3.0422  -14.6379 C   0  0  0  0  0  0  0  0  0  0  0  0
  -18.9209    2.0425  -15.1001 C   0  0  0  0  0  0  0  0  0  0  0  0
  -19.4466    0.6903  -15.2337 C   0  0  0  0  0  0  0  0  0  0  0  0
  -20.7234    0.4476  -14.9091 C   0  0  0  0  0  0  0  0  0  0  0  0
  -21.5172    1.4727  -14.3897 N   0  0  0  0  0  0  0  0  0  0  0  0
  -25.0089   -1.2483  -12.3753 C   0  0  0  0  0  0  0  0  0  0  0  0
  -25.4497   -1.8910  -13.5270 C   0  0  0  0  0  0  0  0  0  0  0  0
  -24.9973   -1.4863  -14.7841 C   0  0  0  0  0  0  0  0  0  0  0  0
  -24.1067   -0.4202  -14.9025 C   0  0  0  0  0  0  0  0  0  0  0  0
  -23.6824    0.2758  -13.7672 C   0  0  0  0  0  0  0  0  0  0  0  0
  -24.1568   -0.1486  -12.5108 C   0  0  0  0  0  0  0  0  0  0  0  0
  -27.6857   -1.3904  -11.1056 O   0  0  0  0  0  0  0  0  0  0  0  0
  -26.6362   -1.6638  -10.5344 C   0  0  0  0  0  0  0  0  0  0  0  0
  -26.6220   -2.0246   -9.2090 N   0  0  0  0  0  0  0  0  0  0  0  0
  -25.3696   -1.6328  -11.0667 N   0  0  0  0  0  0  0  0  0  0  0  0
  -25.7665   -1.8436   -8.6943 H   0  0  0  0  0  0  0  0  0  0  0  0
  -24.6401   -2.0140  -10.4859 H   0  0  0  0  0  0  0  0  0  0  0  0
  -27.8682   -1.9914   -8.4398 C   0  0  0  0  0  0  0  0  0  0  0  0
  -28.4265   -3.3661   -8.0791 C   0  0  0  0  0  0  0  0  0  0  0  0
  -27.6211   -4.3530   -8.5462 F   0  0  0  0  0  0  0  0  0  0  0  0
  -28.5071   -3.5227   -6.7388 F   0  0  0  0  0  0  0  0  0  0  0  0
  -29.6565   -3.5634   -8.5965 F   0  0  0  0  0  0  0  0  0  0  0  0
  -17.5493    2.3651  -15.5080 C   0  0  0  0  0  0  0  0  0  0  0  0
  -16.5812    1.3614  -15.5845 C   0  0  0  0  0  0  0  0  0  0  0  0
  -15.2768    1.6749  -15.9717 C   0  0  0  0  0  0  0  0  0  0  0  0
  -14.9318    2.9935  -16.2998 C   0  0  0  0  0  0  0  0  0  0  0  0
  -15.9185    3.9884  -16.2436 C   0  0  0  0  0  0  0  0  0  0  0  0
  -17.2185    3.6774  -15.8524 C   0  0  0  0  0  0  0  0  0  0  0  0
  -13.5134    3.3697  -16.6653 C   0  0  0  0  0  0  0  0  0  0  0  0
  -12.5195    3.3046  -15.5067 C   0  0  0  0  0  0  0  0  0  0  0  0
  -12.9855    4.0326  -14.3760 O   0  0  0  0  0  0  0  0  0  0  0  0
  -13.0266    4.9696  -14.6394 H   0  0  0  0  0  0  0  0  0  0  0  0
 16 17  2  0  0  0
 17 18  1  0  0  0
 17 19  1  0  0  0
 18 22  1  0  0  0
 18 20  1  0  0  0
 22 23  1  0  0  0
 23 24  1  0  0  0
 23 25  1  0  0  0
 23 26  1  0  0  0
 19 10  1  0  0  0
 19 21  1  0  0  0
 10 11  1  0  0  0
 10 15  2  0  0  0
 11 12  2  0  0  0
 12 13  1  0  0  0
 13 14  2  0  0  0
 14  1  1  0  0  0
 14 15  1  0  0  0
  1  2  2  0  0  0
  1  9  1  0  0  0
  2  3  1  0  0  0
  3  4  2  0  0  0
  4  5  1  0  0  0
  4  9  1  0  0  0
  5  6  2  0  0  0
  6 27  1  0  0  0
  6  7  1  0  0  0
 27 28  1  0  0  0
 27 32  2  0  0  0
 28 29  2  0  0  0
 29 30  1  0  0  0
 30 33  1  0  0  0
 30 31  2  0  0  0
 33 34  1  0  0  0
 34 35  1  0  0  0
 35 36  1  0  0  0
 31 32  1  0  0  0
  7  8  2  0  0  0
  8  9  1  0  0  0
M  END
> <minimizedAffinity>
-10.24085

$$$$
