CHEMBL2005824


 39 44  0  0  0  0  0  0  0  0999 V2000
  -12.7452   -2.7300  -12.4509 C   0  0  0  0  0  0  0  0  0  0  0  0
  -11.8765   -2.3914  -11.4263 N   0  0  0  0  0  0  0  0  0  0  0  0
  -11.8668   -3.4559  -10.6813 C   0  0  0  0  0  0  0  0  0  0  0  0
  -11.0765   -3.8804   -9.1948 S   0  0  0  0  0  0  0  0  0  0  0  0
  -11.8959   -5.4463   -9.2523 C   0  0  0  0  0  0  0  0  0  0  0  0
  -12.6759   -5.5907  -10.3375 C   0  0  0  0  0  0  0  0  0  0  0  0
  -12.6545   -4.4682  -11.1427 N   0  0  0  0  0  0  0  0  0  0  0  0
  -13.1994   -4.0566  -12.3416 C   0  0  0  0  0  0  0  0  0  0  0  0
  -14.6122   -0.3354  -14.7194 C   0  0  0  0  0  0  0  0  0  0  0  0
  -13.5886   -0.0074  -15.6113 C   0  0  0  0  0  0  0  0  0  0  0  0
  -12.3077   -0.5387  -15.4543 C   0  0  0  0  0  0  0  0  0  0  0  0
  -12.0429   -1.4231  -14.4124 C   0  0  0  0  0  0  0  0  0  0  0  0
  -13.0506   -1.7681  -13.5042 C   0  0  0  0  0  0  0  0  0  0  0  0
  -14.3205   -1.1785  -13.6378 C   0  0  0  0  0  0  0  0  0  0  0  0
  -15.5444    2.3770  -15.3604 O   0  0  0  0  0  0  0  0  0  0  0  0
  -16.3075    1.4488  -15.1204 C   0  0  0  0  0  0  0  0  0  0  0  0
  -15.9394    0.1375  -14.8548 N   0  0  0  0  0  0  0  0  0  0  0  0
  -16.6680   -0.5641  -14.8906 H   0  0  0  0  0  0  0  0  0  0  0  0
  -17.7671    1.7210  -15.1793 C   0  0  0  0  0  0  0  0  0  0  0  0
  -18.1836    3.0568  -15.2770 C   0  0  0  0  0  0  0  0  0  0  0  0
  -19.5411    3.3742  -15.2682 C   0  0  0  0  0  0  0  0  0  0  0  0
  -20.4884    2.3586  -15.1545 C   0  0  0  0  0  0  0  0  0  0  0  0
  -20.0807    1.0267  -15.0530 C   0  0  0  0  0  0  0  0  0  0  0  0
  -18.7209    0.7030  -15.0644 C   0  0  0  0  0  0  0  0  0  0  0  0
  -14.0079   -4.9013  -13.2168 C   0  0  0  0  0  0  0  0  0  0  0  0
  -15.2775   -5.3013  -12.8577 C   0  0  0  0  0  0  0  0  0  0  0  0
  -15.8692   -6.2172  -13.6807 C   0  0  0  0  0  0  0  0  0  0  0  0
  -15.2822   -6.6794  -14.7904 N   0  0  0  0  0  0  0  0  0  0  0  0
  -14.0722   -6.1914  -15.1128 C   0  0  0  0  0  0  0  0  0  0  0  0
  -13.4080   -5.3020  -14.3579 N   0  0  0  0  0  0  0  0  0  0  0  0
  -13.4724   -6.6193  -16.2931 N   0  0  0  0  0  0  0  0  0  0  0  0
  -12.7588   -5.9866  -16.6225 H   0  0  0  0  0  0  0  0  0  0  0  0
  -13.4158   -7.9274  -16.8126 C   0  0  0  0  0  0  0  0  0  0  0  0
  -13.0982   -9.0171  -15.9843 C   0  0  0  0  0  0  0  0  0  0  0  0
  -13.0664  -10.3234  -16.4743 C   0  0  0  0  0  0  0  0  0  0  0  0
  -13.3751  -10.5716  -17.8066 C   0  0  0  0  0  0  0  0  0  0  0  0
  -13.7043   -9.5104  -18.6498 C   0  0  0  0  0  0  0  0  0  0  0  0
  -13.7170   -8.1986  -18.1590 C   0  0  0  0  0  0  0  0  0  0  0  0
  -14.1403   -6.9256  -19.2516 Cl  0  0  0  0  0  0  0  0  0  0  0  0
 15 16  2  0  0  0
 16 17  1  0  0  0
 16 19  1  0  0  0
 17  9  1  0  0  0
 17 18  1  0  0  0
  9 10  1  0  0  0
  9 14  2  0  0  0
 10 11  2  0  0  0
 11 12  1  0  0  0
 12 13  2  0  0  0
 13  1  1  0  0  0
 13 14  1  0  0  0
  1  2  1  0  0  0
  1  8  2  0  0  0
  2  3  2  0  0  0
  3  4  1  0  0  0
  3  7  1  0  0  0
  4  5  1  0  0  0
  5  6  2  0  0  0
  6  7  1  0  0  0
  7  8  1  0  0  0
  8 25  1  0  0  0
 25 26  1  0  0  0
 25 30  2  0  0  0
 26 27  2  0  0  0
 27 28  1  0  0  0
 28 29  2  0  0  0
 29 31  1  0  0  0
 29 30  1  0  0  0
 31 33  1  0  0  0
 31 32  1  0  0  0
 33 34  1  0  0  0
 33 38  2  0  0  0
 34 35  2  0  0  0
 35 36  1  0  0  0
 36 37  2  0  0  0
 37 38  1  0  0  0
 38 39  1  0  0  0
 19 20  1  0  0  0
 19 24  2  0  0  0
 20 21  2  0  0  0
 21 22  1  0  0  0
 22 23  2  0  0  0
 23 24  1  0  0  0
M  END
> <minimizedAffinity>
-9.46303

$$$$
