CHEMBL3109340


 32 36  0  0  0  0  0  0  0  0999 V2000
  -30.8566   -7.5288   -6.4289 C   0  0  0  0  0  0  0  0  0  0  0  0
  -32.1086   -7.8531   -6.9246 C   0  0  0  0  0  0  0  0  0  0  0  0
  -32.2581   -9.0570   -7.5876 C   0  0  0  0  0  0  0  0  0  0  0  0
  -31.1626   -9.9114   -7.7273 C   0  0  0  0  0  0  0  0  0  0  0  0
  -31.3465  -11.1345   -8.3793 C   0  0  0  0  0  0  0  0  0  0  0  0
  -30.2884  -12.0164   -8.5143 C   0  0  0  0  0  0  0  0  0  0  0  0
  -29.0389  -11.6755   -8.0062 C   0  0  0  0  0  0  0  0  0  0  0  0
  -28.8314  -10.4513   -7.3452 C   0  0  0  0  0  0  0  0  0  0  0  0
  -29.9008   -9.5301   -7.1979 C   0  0  0  0  0  0  0  0  0  0  0  0
  -29.7726   -8.3342   -6.5621 N   0  0  0  0  0  0  0  0  0  0  0  0
  -28.9256   -2.6540   -6.5353 C   0  0  0  0  0  0  0  0  0  0  0  0
  -28.8262   -3.6841   -7.5675 C   0  0  0  0  0  0  0  0  0  0  0  0
  -29.3656   -4.8984   -7.3434 C   0  0  0  0  0  0  0  0  0  0  0  0
  -30.0094   -5.1576   -6.1368 N   0  0  0  0  0  0  0  0  0  0  0  0
  -30.6658   -6.2893   -5.6883 C   0  0  0  0  0  0  0  0  0  0  0  0
  -31.1249   -5.9363   -4.4291 C   0  0  0  0  0  0  0  0  0  0  0  0
  -30.8010   -4.6502   -4.0985 N   0  0  0  0  0  0  0  0  0  0  0  0
  -30.1342   -4.1936   -5.1355 C   0  0  0  0  0  0  0  0  0  0  0  0
  -29.5622   -2.9134   -5.3765 C   0  0  0  0  0  0  0  0  0  0  0  0
  -28.3846   -1.3965   -6.7315 O   0  0  0  0  0  0  0  0  0  0  0  0
  -27.6078   -0.8336   -5.6777 C   0  0  0  0  0  0  0  0  0  0  0  0
  -28.2370    0.4742   -5.2209 C   0  0  0  0  0  0  0  0  0  0  0  0
  -30.4305    1.1662   -5.7324 C   0  0  0  0  0  0  0  0  0  0  0  0
  -29.1275    0.9249   -6.2412 O   0  0  0  0  0  0  0  0  0  0  0  0
  -27.5908  -10.0788   -6.8402 O   0  0  0  0  0  0  0  0  0  0  0  0
  -27.0870  -10.7844   -5.6875 C   0  0  0  0  0  0  0  0  0  0  0  0
  -27.2797   -9.9627   -4.4119 C   0  0  0  0  0  0  0  0  0  0  0  0
  -26.3556   -8.7472   -4.3845 C   0  0  0  0  0  0  0  0  0  0  0  0
  -24.9437   -9.1072   -4.5122 N   0  0  0  0  0  0  0  0  0  0  0  0
  -24.6839   -9.9043   -5.7100 C   0  0  0  0  0  0  0  0  0  0  0  0
  -25.5975  -11.1182   -5.8489 C   0  0  0  0  0  0  0  0  0  0  0  0
  -24.6315   -9.6042   -3.6802 H   0  0  0  0  0  0  0  0  0  0  0  0
 23 24  1  0  0  0
 24 22  1  0  0  0
 22 21  1  0  0  0
 21 20  1  0  0  0
 20 11  1  0  0  0
 11 12  1  0  0  0
 11 19  2  0  0  0
 12 13  2  0  0  0
 13 14  1  0  0  0
 14 15  1  0  0  0
 14 18  1  0  0  0
 15  1  1  0  0  0
 15 16  2  0  0  0
  1  2  1  0  0  0
  1 10  2  0  0  0
  2  3  2  0  0  0
  3  4  1  0  0  0
  4  5  1  0  0  0
  4  9  2  0  0  0
  5  6  2  0  0  0
  6  7  1  0  0  0
  7  8  2  0  0  0
  8 25  1  0  0  0
  8  9  1  0  0  0
 25 26  1  0  0  0
 26 27  1  0  0  0
 26 31  1  0  0  0
 27 28  1  0  0  0
 28 29  1  0  0  0
 29 30  1  0  0  0
 29 32  1  0  0  0
 30 31  1  0  0  0
  9 10  1  0  0  0
 16 17  1  0  0  0
 17 18  2  0  0  0
 18 19  1  0  0  0
M  END
> <minimizedAffinity>
-8.03859

$$$$
