CHEMBL3987162


 35 38  0  0  0  0  0  0  0  0999 V2000
  -28.8005   -9.8276   -5.5225 N   0  0  0  0  0  0  0  0  0  0  0  0
  -28.7137   -8.4403   -5.1443 C   0  0  0  0  0  0  0  0  0  0  0  0
  -29.0364   -8.1699   -3.8140 C   0  0  0  0  0  0  0  0  0  0  0  0
  -29.5154   -6.9234   -3.4544 C   0  0  0  0  0  0  0  0  0  0  0  0
  -29.5379   -5.8845   -4.3397 C   0  0  0  0  0  0  0  0  0  0  0  0
  -30.2068   -4.8204   -3.8927 N   0  0  0  0  0  0  0  0  0  0  0  0
  -30.1317   -3.7153   -4.6377 C   0  0  0  0  0  0  0  0  0  0  0  0
  -29.3232   -3.6449   -5.7558 C   0  0  0  0  0  0  0  0  0  0  0  0
  -28.7332   -4.7610   -6.2870 N   0  0  0  0  0  0  0  0  0  0  0  0
  -28.8843   -5.9672   -5.5931 C   0  0  0  0  0  0  0  0  0  0  0  0
  -28.5316   -7.3151   -5.9959 C   0  0  0  0  0  0  0  0  0  0  0  0
  -29.0404   -2.2859   -6.2245 C   0  0  0  0  0  0  0  0  0  0  0  0
  -27.9528   -1.8163   -7.0075 C   0  0  0  0  0  0  0  0  0  0  0  0
  -27.8386   -0.4807   -7.0008 N   0  0  0  0  0  0  0  0  0  0  0  0
  -28.8401   -0.0849   -6.1981 N   0  0  0  0  0  0  0  0  0  0  0  0
  -29.1804    1.3147   -6.0849 C   0  0  0  0  0  0  0  0  0  0  0  0
  -29.4930   -1.1303   -5.6040 C   0  0  0  0  0  0  0  0  0  0  0  0
  -31.5781  -11.3196   -7.5877 C   0  0  0  0  0  0  0  0  0  0  0  0
  -30.9385  -11.5039   -8.8001 C   0  0  0  0  0  0  0  0  0  0  0  0
  -29.5541  -11.2829   -8.8907 C   0  0  0  0  0  0  0  0  0  0  0  0
  -28.8376  -10.7959   -7.7887 C   0  0  0  0  0  0  0  0  0  0  0  0
  -29.4658  -10.5118   -6.5767 C   0  0  0  0  0  0  0  0  0  0  0  0
  -30.8297  -10.8899   -6.4856 C   0  0  0  0  0  0  0  0  0  0  0  0
  -33.2700  -12.1354   -6.1276 C   0  0  0  0  0  0  0  0  0  0  0  0
  -32.9142  -11.5000   -7.3513 O   0  0  0  0  0  0  0  0  0  0  0  0
  -28.8208  -11.4558  -10.0308 O   0  0  0  0  0  0  0  0  0  0  0  0
  -28.9123  -10.4196  -11.0011 C   0  0  0  0  0  0  0  0  0  0  0  0
  -28.2563  -10.6965   -4.4087 C   0  0  0  0  0  0  0  0  0  0  0  0
  -26.8489  -11.2499   -4.6783 C   0  0  0  0  0  0  0  0  0  0  0  0
  -26.6826  -12.3005   -5.2963 O   0  0  0  0  0  0  0  0  0  0  0  0
  -25.8024  -10.4935   -4.2046 N   0  0  0  0  0  0  0  0  0  0  0  0
  -26.0446   -9.7276   -3.5877 H   0  0  0  0  0  0  0  0  0  0  0  0
  -24.4096  -10.8603   -4.3184 C   0  0  0  0  0  0  0  0  0  0  0  0
  -23.7205   -9.8654   -5.2505 C   0  0  0  0  0  0  0  0  0  0  0  0
  -23.7305  -10.8894   -2.9528 C   0  0  0  0  0  0  0  0  0  0  0  0
 24 25  1  0  0  0
 25 18  1  0  0  0
 18 19  1  0  0  0
 18 23  2  0  0  0
 19 20  2  0  0  0
 20 26  1  0  0  0
 20 21  1  0  0  0
 26 27  1  0  0  0
 21 22  2  0  0  0
 22  1  1  0  0  0
 22 23  1  0  0  0
  1 28  1  0  0  0
  1  2  1  0  0  0
 28 29  1  0  0  0
 29 30  2  0  0  0
 29 31  1  0  0  0
 31 33  1  0  0  0
 31 32  1  0  0  0
 33 34  1  0  0  0
 33 35  1  0  0  0
  2  3  1  0  0  0
  2 11  2  0  0  0
  3  4  2  0  0  0
  4  5  1  0  0  0
  5  6  1  0  0  0
  5 10  2  0  0  0
  6  7  2  0  0  0
  7  8  1  0  0  0
  8 12  1  0  0  0
  8  9  2  0  0  0
 12 13  1  0  0  0
 12 17  2  0  0  0
 13 14  2  0  0  0
 14 15  1  0  0  0
 15 16  1  0  0  0
 15 17  1  0  0  0
  9 10  1  0  0  0
 10 11  1  0  0  0
M  END
> <minimizedAffinity>
-7.59207

$$$$
