CHEMBL462232


 39 44  0  0  0  0  0  0  0  0999 V2000
  -28.5854   -2.2841   -7.4080 C   0  0  0  0  0  0  0  0  0  0  0  0
  -28.2344   -3.2104   -8.3897 C   0  0  0  0  0  0  0  0  0  0  0  0
  -27.4752   -2.8093   -9.4842 C   0  0  0  0  0  0  0  0  0  0  0  0
  -26.9882   -1.5046   -9.5742 C   0  0  0  0  0  0  0  0  0  0  0  0
  -27.2015   -0.6234   -8.5154 C   0  0  0  0  0  0  0  0  0  0  0  0
  -28.0148   -1.0109   -7.4495 C   0  0  0  0  0  0  0  0  0  0  0  0
  -28.2671   -0.1270   -6.4728 F   0  0  0  0  0  0  0  0  0  0  0  0
  -26.2858   -1.0586  -10.7057 N   0  0  0  0  0  0  0  0  0  0  0  0
  -26.1805   -1.7339  -11.9046 C   0  0  0  0  0  0  0  0  0  0  0  0
  -26.7314   -2.8007  -12.1721 O   0  0  0  0  0  0  0  0  0  0  0  0
  -25.4003   -1.0985  -12.8512 N   0  0  0  0  0  0  0  0  0  0  0  0
  -25.2800   -1.6350  -14.1824 C   0  0  0  0  0  0  0  0  0  0  0  0
  -24.4612   -0.5906  -14.9091 C   0  0  0  0  0  0  0  0  0  0  0  0
  -23.6876    0.0177  -13.8534 N   0  0  0  0  0  0  0  0  0  0  0  0
  -24.3438   -0.1884  -12.6163 C   0  0  0  0  0  0  0  0  0  0  0  0
  -24.1271    0.3558  -11.5421 O   0  0  0  0  0  0  0  0  0  0  0  0
  -25.9299   -0.1060  -10.7026 H   0  0  0  0  0  0  0  0  0  0  0  0
  -22.5703    0.8543  -14.0746 C   0  0  0  0  0  0  0  0  0  0  0  0
  -22.6744    2.2461  -13.9573 C   0  0  0  0  0  0  0  0  0  0  0  0
  -21.5774    3.0743  -14.2061 C   0  0  0  0  0  0  0  0  0  0  0  0
  -20.3556    2.5206  -14.5703 C   0  0  0  0  0  0  0  0  0  0  0  0
  -20.2246    1.1385  -14.6634 C   0  0  0  0  0  0  0  0  0  0  0  0
  -21.3218    0.3104  -14.4068 C   0  0  0  0  0  0  0  0  0  0  0  0
  -29.4678   -2.5549   -6.3851 O   0  0  0  0  0  0  0  0  0  0  0  0
  -30.5473   -7.0454   -6.3328 C   0  0  0  0  0  0  0  0  0  0  0  0
  -29.9162   -7.0986   -5.1108 C   0  0  0  0  0  0  0  0  0  0  0  0
  -29.3329   -5.8485   -4.7508 C   0  0  0  0  0  0  0  0  0  0  0  0
  -28.6120   -5.6157   -3.6195 N   0  0  0  0  0  0  0  0  0  0  0  0
  -28.1263   -4.3686   -3.4810 C   0  0  0  0  0  0  0  0  0  0  0  0
  -28.3297   -3.3305   -4.3690 C   0  0  0  0  0  0  0  0  0  0  0  0
  -29.1370   -3.5504   -5.4862 C   0  0  0  0  0  0  0  0  0  0  0  0
  -29.5954   -4.8578   -5.6973 C   0  0  0  0  0  0  0  0  0  0  0  0
  -30.4978   -5.4857   -7.0140 S   0  0  0  0  0  0  0  0  0  0  0  0
  -31.2874  -11.4631   -8.4825 C   0  0  0  0  0  0  0  0  0  0  0  0
  -31.5002  -10.1472   -7.9398 N   0  0  0  0  0  0  0  0  0  0  0  0
  -32.7011   -9.5448   -7.7080 C   0  0  0  0  0  0  0  0  0  0  0  0
  -32.5460   -8.3835   -7.1102 N   0  0  0  0  0  0  0  0  0  0  0  0
  -31.1865   -8.2197   -6.9859 C   0  0  0  0  0  0  0  0  0  0  0  0
  -30.5176   -9.2987   -7.5210 C   0  0  0  0  0  0  0  0  0  0  0  0
 34 35  1  0  0  0
 35 36  1  0  0  0
 35 39  1  0  0  0
 36 37  2  0  0  0
 37 38  1  0  0  0
 38 25  1  0  0  0
 38 39  2  0  0  0
 25 26  2  0  0  0
 25 33  1  0  0  0
 26 27  1  0  0  0
 27 28  1  0  0  0
 27 32  2  0  0  0
 28 29  2  0  0  0
 29 30  1  0  0  0
 30 31  2  0  0  0
 31 24  1  0  0  0
 31 32  1  0  0  0
 24  1  1  0  0  0
  1  2  1  0  0  0
  1  6  2  0  0  0
  2  3  2  0  0  0
  3  4  1  0  0  0
  4  8  1  0  0  0
  4  5  2  0  0  0
  8  9  1  0  0  0
  8 17  1  0  0  0
  9 10  2  0  0  0
  9 11  1  0  0  0
 11 12  1  0  0  0
 11 15  1  0  0  0
 12 13  1  0  0  0
 13 14  1  0  0  0
 14 18  1  0  0  0
 14 15  1  0  0  0
 18 19  1  0  0  0
 18 23  2  0  0  0
 19 20  2  0  0  0
 20 21  1  0  0  0
 21 22  2  0  0  0
 22 23  1  0  0  0
 15 16  2  0  0  0
  5  6  1  0  0  0
  6  7  1  0  0  0
 32 33  1  0  0  0
M  END
> <minimizedAffinity>
-10.31825

$$$$
