CHEMBL202682


 29 32  0  0  0  0  0  0  0  0999 V2000
  -30.1277   -9.4547   -6.6400 C   0  0  0  0  0  0  0  0  0  0  0  0
  -31.0938  -10.4786   -6.5919 C   0  0  0  0  0  0  0  0  0  0  0  0
  -32.4102  -10.2465   -6.9817 C   0  0  0  0  0  0  0  0  0  0  0  0
  -32.7876   -8.9751   -7.3935 C   0  0  0  0  0  0  0  0  0  0  0  0
  -31.8338   -7.9572   -7.4820 C   0  0  0  0  0  0  0  0  0  0  0  0
  -30.4791   -8.1937   -7.1615 C   0  0  0  0  0  0  0  0  0  0  0  0
  -28.1119  -10.5122   -7.0390 O   0  0  0  0  0  0  0  0  0  0  0  0
  -28.7583   -9.8655   -6.2203 C   0  0  0  0  0  0  0  0  0  0  0  0
  -28.3607   -9.5586   -4.9263 N   0  0  0  0  0  0  0  0  0  0  0  0
  -29.0515   -9.1078   -4.3175 H   0  0  0  0  0  0  0  0  0  0  0  0
  -27.1228   -9.9148   -4.3368 C   0  0  0  0  0  0  0  0  0  0  0  0
  -25.9919   -9.0907   -4.3737 C   0  0  0  0  0  0  0  0  0  0  0  0
  -24.7811   -9.4883   -3.7962 C   0  0  0  0  0  0  0  0  0  0  0  0
  -24.6900  -10.7215   -3.1657 C   0  0  0  0  0  0  0  0  0  0  0  0
  -23.1996  -11.2078   -2.4572 Cl  0  0  0  0  0  0  0  0  0  0  0  0
  -25.8021  -11.5579   -3.1083 C   0  0  0  0  0  0  0  0  0  0  0  0
  -27.0163  -11.1527   -3.6868 C   0  0  0  0  0  0  0  0  0  0  0  0
  -29.4633   -7.1351   -7.5219 C   0  0  0  0  0  0  0  0  0  0  0  0
  -29.2354   -6.1259   -6.4923 N   0  0  0  0  0  0  0  0  0  0  0  0
  -29.4396   -4.7745   -6.6401 C   0  0  0  0  0  0  0  0  0  0  0  0
  -28.8590   -4.1702   -5.5451 C   0  0  0  0  0  0  0  0  0  0  0  0
  -28.3770   -5.2544   -4.7740 C   0  0  0  0  0  0  0  0  0  0  0  0
  -28.5786   -6.4387   -5.3528 N   0  0  0  0  0  0  0  0  0  0  0  0
  -28.7106   -2.7440   -5.3122 C   0  0  0  0  0  0  0  0  0  0  0  0
  -27.4325   -2.1941   -5.1819 C   0  0  0  0  0  0  0  0  0  0  0  0
  -27.3038   -0.8170   -5.1099 C   0  0  0  0  0  0  0  0  0  0  0  0
  -28.3473    0.0349   -5.1533 N   0  0  0  0  0  0  0  0  0  0  0  0
  -29.5753   -0.5158   -5.2565 C   0  0  0  0  0  0  0  0  0  0  0  0
  -29.8084   -1.8817   -5.3257 C   0  0  0  0  0  0  0  0  0  0  0  0
  7  8  2  0  0  0
  8  9  1  0  0  0
  8  1  1  0  0  0
  9 11  1  0  0  0
  9 10  1  0  0  0
 11 12  1  0  0  0
 11 17  2  0  0  0
 12 13  2  0  0  0
 13 14  1  0  0  0
 14 15  1  0  0  0
 14 16  2  0  0  0
 16 17  1  0  0  0
  1  2  1  0  0  0
  1  6  2  0  0  0
  2  3  2  0  0  0
  3  4  1  0  0  0
  4  5  2  0  0  0
  5  6  1  0  0  0
  6 18  1  0  0  0
 18 19  1  0  0  0
 19 20  1  0  0  0
 19 23  1  0  0  0
 20 21  2  0  0  0
 21 24  1  0  0  0
 21 22  1  0  0  0
 24 25  1  0  0  0
 24 29  2  0  0  0
 25 26  2  0  0  0
 26 27  1  0  0  0
 27 28  2  0  0  0
 28 29  1  0  0  0
 22 23  2  0  0  0
M  END
> <minimizedAffinity>
-7.92258

$$$$
