CHEMBL189322


 43 46  0  0  0  0  0  0  0  0999 V2000
  -29.6169   -8.1917   -6.4713 C   0  0  0  0  0  0  0  0  0  0  0  0
  -29.9924   -6.9869   -7.1038 C   0  0  0  0  0  0  0  0  0  0  0  0
  -29.8175   -5.7425   -6.4992 C   0  0  0  0  0  0  0  0  0  0  0  0
  -30.1673   -4.5435   -7.1141 C   0  0  0  0  0  0  0  0  0  0  0  0
  -30.0370   -3.3305   -6.5443 N   0  0  0  0  0  0  0  0  0  0  0  0
  -29.5039   -3.2836   -5.3046 C   0  0  0  0  0  0  0  0  0  0  0  0
  -29.1150   -4.4471   -4.6405 C   0  0  0  0  0  0  0  0  0  0  0  0
  -29.2836   -5.7013   -5.2119 C   0  0  0  0  0  0  0  0  0  0  0  0
  -28.9636   -6.8346   -4.5456 N   0  0  0  0  0  0  0  0  0  0  0  0
  -29.0772   -8.0385   -5.1782 C   0  0  0  0  0  0  0  0  0  0  0  0
  -31.5043  -11.2356   -7.7979 C   0  0  0  0  0  0  0  0  0  0  0  0
  -30.6019  -11.7297   -8.7393 C   0  0  0  0  0  0  0  0  0  0  0  0
  -29.3720  -11.1025   -8.9089 C   0  0  0  0  0  0  0  0  0  0  0  0
  -29.0241  -10.0253   -8.0900 C   0  0  0  0  0  0  0  0  0  0  0  0
  -29.9272   -9.4729   -7.1581 C   0  0  0  0  0  0  0  0  0  0  0  0
  -31.1683  -10.1118   -7.0322 C   0  0  0  0  0  0  0  0  0  0  0  0
  -33.4089  -11.2491   -6.3815 C   0  0  0  0  0  0  0  0  0  0  0  0
  -32.7521  -11.7379   -7.5435 O   0  0  0  0  0  0  0  0  0  0  0  0
  -28.4340  -11.4499   -9.8440 O   0  0  0  0  0  0  0  0  0  0  0  0
  -28.3197  -10.5650  -10.9553 C   0  0  0  0  0  0  0  0  0  0  0  0
  -28.6948   -9.1514   -4.3860 N   0  0  0  0  0  0  0  0  0  0  0  0
  -27.4069   -9.6436   -4.5415 C   0  0  0  0  0  0  0  0  0  0  0  0
  -26.5787   -9.1921   -5.3205 O   0  0  0  0  0  0  0  0  0  0  0  0
  -27.1581  -10.6812   -3.6535 N   0  0  0  0  0  0  0  0  0  0  0  0
  -28.8124   -8.9245   -3.4062 H   0  0  0  0  0  0  0  0  0  0  0  0
  -27.9626  -11.2674   -3.4729 H   0  0  0  0  0  0  0  0  0  0  0  0
  -25.8229  -11.2999   -3.4742 C   0  0  0  0  0  0  0  0  0  0  0  0
  -24.7813  -10.2162   -3.1433 C   0  0  0  0  0  0  0  0  0  0  0  0
  -25.8557  -12.2868   -2.2863 C   0  0  0  0  0  0  0  0  0  0  0  0
  -25.3805  -12.0902   -4.7170 C   0  0  0  0  0  0  0  0  0  0  0  0
  -29.3842   -2.0625   -4.6331 N   0  0  0  0  0  0  0  0  0  0  0  0
  -28.8685   -2.1852   -3.7685 H   0  0  0  0  0  0  0  0  0  0  0  0
  -28.9867   -0.9090   -5.4326 C   0  0  0  0  0  0  0  0  0  0  0  0
  -27.7508   -1.2415   -6.2825 C   0  0  0  0  0  0  0  0  0  0  0  0
  -27.8624   -0.8344   -7.7571 C   0  0  0  0  0  0  0  0  0  0  0  0
  -27.4232   -1.9371   -8.7184 C   0  0  0  0  0  0  0  0  0  0  0  0
  -28.0063   -1.6895   -9.9979 O   0  0  0  0  0  0  0  0  0  0  0  0
  -27.1377   -1.6501  -11.0573 C   0  0  0  0  0  0  0  0  0  0  0  0
  -27.4836   -1.7720  -12.4057 C   0  0  0  0  0  0  0  0  0  0  0  0
  -26.5001   -1.6921  -13.3957 C   0  0  0  0  0  0  0  0  0  0  0  0
  -25.1671   -1.4942  -13.0441 C   0  0  0  0  0  0  0  0  0  0  0  0
  -24.8140   -1.3840  -11.7009 C   0  0  0  0  0  0  0  0  0  0  0  0
  -25.7972   -1.4632  -10.7126 C   0  0  0  0  0  0  0  0  0  0  0  0
 17 18  1  0  0  0
 18 11  1  0  0  0
 11 12  1  0  0  0
 11 16  2  0  0  0
 12 13  2  0  0  0
 13 19  1  0  0  0
 13 14  1  0  0  0
 19 20  1  0  0  0
 14 15  2  0  0  0
 15  1  1  0  0  0
 15 16  1  0  0  0
  1  2  1  0  0  0
  1 10  2  0  0  0
  2  3  2  0  0  0
  3  4  1  0  0  0
  3  8  1  0  0  0
  4  5  2  0  0  0
  5  6  1  0  0  0
  6 31  1  0  0  0
  6  7  2  0  0  0
 31 33  1  0  0  0
 31 32  1  0  0  0
 33 34  1  0  0  0
 34 35  1  0  0  0
 35 36  1  0  0  0
 36 37  1  0  0  0
 37 38  1  0  0  0
 38 39  1  0  0  0
 38 43  2  0  0  0
 39 40  2  0  0  0
 40 41  1  0  0  0
 41 42  2  0  0  0
 42 43  1  0  0  0
  7  8  1  0  0  0
  8  9  2  0  0  0
  9 10  1  0  0  0
 10 21  1  0  0  0
 21 22  1  0  0  0
 21 25  1  0  0  0
 22 23  2  0  0  0
 22 24  1  0  0  0
 24 27  1  0  0  0
 24 26  1  0  0  0
 27 28  1  0  0  0
 27 29  1  0  0  0
 27 30  1  0  0  0
M  END
> <minimizedAffinity>
-8.64417

$$$$
