CHEMBL2430251


 31 35  0  0  0  0  0  0  0  0999 V2000
  -15.9465   -2.7472  -10.5760 C   0  0  0  0  0  0  0  0  0  0  0  0
  -15.1401   -2.5318  -11.8105 C   0  0  0  0  0  0  0  0  0  0  0  0
  -15.3899   -1.4417  -12.6212 N   0  0  0  0  0  0  0  0  0  0  0  0
  -14.4693   -1.3779  -13.6288 C   0  0  0  0  0  0  0  0  0  0  0  0
  -13.6089   -2.4429  -13.4484 C   0  0  0  0  0  0  0  0  0  0  0  0
  -14.0924   -3.2654  -12.3702 C   0  0  0  0  0  0  0  0  0  0  0  0
  -12.4000   -2.6380  -14.2819 C   0  0  0  0  0  0  0  0  0  0  0  0
  -12.2408   -1.7405  -15.4870 C   0  0  0  0  0  0  0  0  0  0  0  0
  -13.2389   -0.6096  -15.6707 C   0  0  0  0  0  0  0  0  0  0  0  0
  -14.3781   -0.4054  -14.6756 C   0  0  0  0  0  0  0  0  0  0  0  0
  -15.1979    0.6591  -14.8788 C   0  0  0  0  0  0  0  0  0  0  0  0
  -16.3811    1.1285  -14.0456 C   0  0  0  0  0  0  0  0  0  0  0  0
  -16.8602    0.6296  -13.0526 O   0  0  0  0  0  0  0  0  0  0  0  0
  -16.8420    2.2798  -14.6632 N   0  0  0  0  0  0  0  0  0  0  0  0
  -16.0992    2.5955  -15.7903 C   0  0  0  0  0  0  0  0  0  0  0  0
  -16.3068    3.6799  -16.6266 C   0  0  0  0  0  0  0  0  0  0  0  0
  -15.4565    3.8285  -17.7235 C   0  0  0  0  0  0  0  0  0  0  0  0
  -14.4465    2.8956  -17.9497 C   0  0  0  0  0  0  0  0  0  0  0  0
  -13.6399    3.0359  -19.0097 F   0  0  0  0  0  0  0  0  0  0  0  0
  -14.2622    1.8070  -17.1113 C   0  0  0  0  0  0  0  0  0  0  0  0
  -15.0891    1.6494  -16.0006 C   0  0  0  0  0  0  0  0  0  0  0  0
  -16.1341   -0.7684  -12.4605 H   0  0  0  0  0  0  0  0  0  0  0  0
  -17.6276    2.8032  -14.3089 H   0  0  0  0  0  0  0  0  0  0  0  0
  -13.5517   -4.5410  -11.8401 C   0  0  0  0  0  0  0  0  0  0  0  0
  -12.5488   -4.5432  -11.1206 O   0  0  0  0  0  0  0  0  0  0  0  0
  -14.1914   -5.7422  -12.1802 N   0  0  0  0  0  0  0  0  0  0  0  0
  -13.6069   -7.0329  -11.7946 C   0  0  0  0  0  0  0  0  0  0  0  0
  -13.7919   -8.0924  -12.9038 C   0  0  0  0  0  0  0  0  0  0  0  0
  -15.1490   -8.1652  -13.3836 O   0  0  0  0  0  0  0  0  0  0  0  0
  -15.5715   -6.8735  -13.8379 C   0  0  0  0  0  0  0  0  0  0  0  0
  -15.5711   -5.8937  -12.6496 C   0  0  0  0  0  0  0  0  0  0  0  0
  1  2  1  0  0  0
  2  3  1  0  0  0
  2  6  2  0  0  0
  3  4  1  0  0  0
  3 22  1  0  0  0
  4  5  2  0  0  0
  4 10  1  0  0  0
  5  6  1  0  0  0
  5  7  1  0  0  0
  6 24  1  0  0  0
 24 25  2  0  0  0
 24 26  1  0  0  0
 26 27  1  0  0  0
 26 31  1  0  0  0
 27 28  1  0  0  0
 28 29  1  0  0  0
 29 30  1  0  0  0
 30 31  1  0  0  0
  7  8  1  0  0  0
  8  9  1  0  0  0
  9 10  1  0  0  0
 10 11  2  0  0  0
 11 12  1  0  0  0
 11 21  1  0  0  0
 12 13  2  0  0  0
 12 14  1  0  0  0
 14 15  1  0  0  0
 14 23  1  0  0  0
 15 16  1  0  0  0
 15 21  2  0  0  0
 16 17  2  0  0  0
 17 18  1  0  0  0
 18 19  1  0  0  0
 18 20  2  0  0  0
 20 21  1  0  0  0
M  END
> <minimizedAffinity>
-7.95562

$$$$
