CHEMBL3676368


 40 42  0  0  0  0  0  0  0  0999 V2000
  -17.1170    1.9493  -15.4477 C   0  0  0  0  0  0  0  0  0  0  0  0
  -16.8045    0.8626  -14.6157 C   0  0  0  0  0  0  0  0  0  0  0  0
  -15.4677    0.5439  -14.2911 C   0  0  0  0  0  0  0  0  0  0  0  0
  -15.0291   -0.6003  -13.6057 C   0  0  0  0  0  0  0  0  0  0  0  0
  -13.7284   -0.7979  -13.3090 N   0  0  0  0  0  0  0  0  0  0  0  0
  -12.8611    0.1247  -13.7185 C   0  0  0  0  0  0  0  0  0  0  0  0
  -13.1590    1.2114  -14.4306 N   0  0  0  0  0  0  0  0  0  0  0  0
  -14.4471    1.3939  -14.7211 C   0  0  0  0  0  0  0  0  0  0  0  0
  -14.7684    2.4558  -15.5485 C   0  0  0  0  0  0  0  0  0  0  0  0
  -16.0767    2.7126  -15.9877 C   0  0  0  0  0  0  0  0  0  0  0  0
  -19.3006    2.9216  -14.9438 C   0  0  0  0  0  0  0  0  0  0  0  0
  -18.9242    3.6245  -14.0103 O   0  0  0  0  0  0  0  0  0  0  0  0
  -18.4678    2.2007  -15.7778 N   0  0  0  0  0  0  0  0  0  0  0  0
  -18.7503    2.0213  -16.7337 H   0  0  0  0  0  0  0  0  0  0  0  0
  -21.6576    3.0371  -14.3147 C   0  0  0  0  0  0  0  0  0  0  0  0
  -20.7456    2.7815  -15.2620 C   0  0  0  0  0  0  0  0  0  0  0  0
  -15.9423   -1.6412  -13.2969 N   0  0  0  0  0  0  0  0  0  0  0  0
  -16.7433   -1.2831  -12.7804 H   0  0  0  0  0  0  0  0  0  0  0  0
  -15.5352   -2.9260  -12.8616 C   0  0  0  0  0  0  0  0  0  0  0  0
  -15.2889   -3.9509  -13.7889 C   0  0  0  0  0  0  0  0  0  0  0  0
  -14.7654   -5.1774  -13.3819 C   0  0  0  0  0  0  0  0  0  0  0  0
  -14.4958   -5.4054  -12.0296 C   0  0  0  0  0  0  0  0  0  0  0  0
  -13.7063   -7.0721  -11.5777 Br  0  0  0  0  0  0  0  0  0  0  0  0
  -14.7891   -4.4172  -11.0801 C   0  0  0  0  0  0  0  0  0  0  0  0
  -14.4966   -4.6484   -9.3918 Cl  0  0  0  0  0  0  0  0  0  0  0  0
  -15.3119   -3.1911  -11.5064 C   0  0  0  0  0  0  0  0  0  0  0  0
  -15.5652   -2.2164  -10.6127 F   0  0  0  0  0  0  0  0  0  0  0  0
  -16.3881    3.7041  -16.8989 O   0  0  0  0  0  0  0  0  0  0  0  0
  -15.3508    4.7009  -17.0292 C   0  0  0  0  0  0  0  0  0  0  0  0
  -14.9497    4.9481  -18.4806 C   0  0  0  0  0  0  0  0  0  0  0  0
  -14.4040    3.7398  -19.0822 N   0  0  0  0  0  0  0  0  0  0  0  0
  -13.0459    3.5161  -19.1261 C   0  0  0  0  0  0  0  0  0  0  0  0
  -12.2232    4.2771  -18.6266 O   0  0  0  0  0  0  0  0  0  0  0  0
  -15.0194    3.0780  -19.5502 H   0  0  0  0  0  0  0  0  0  0  0  0
  -12.6398    2.2328  -19.8140 C   0  0  0  0  0  0  0  0  0  0  0  0
  -13.7452    1.1820  -19.7366 C   0  0  0  0  0  0  0  0  0  0  0  0
  -13.2529   -0.2693  -19.8472 C   0  0  0  0  0  0  0  0  0  0  0  0
  -13.7246   -1.1419  -18.7548 N   0  0  0  0  0  0  0  0  0  0  0  0
  -13.4211   -2.5540  -19.0389 C   0  0  0  0  0  0  0  0  0  0  0  0
  -13.0769   -0.7556  -17.4958 C   0  0  0  0  0  0  0  0  0  0  0  0
 15 16  2  0  0  0
 16 11  1  0  0  0
 11 12  2  0  0  0
 11 13  1  0  0  0
 13  1  1  0  0  0
 13 14  1  0  0  0
  1  2  1  0  0  0
  1 10  2  0  0  0
  2  3  2  0  0  0
  3  4  1  0  0  0
  3  8  1  0  0  0
  4 17  1  0  0  0
  4  5  2  0  0  0
 17 19  1  0  0  0
 17 18  1  0  0  0
 19 20  1  0  0  0
 19 26  2  0  0  0
 20 21  2  0  0  0
 21 22  1  0  0  0
 22 23  1  0  0  0
 22 24  2  0  0  0
 24 25  1  0  0  0
 24 26  1  0  0  0
 26 27  1  0  0  0
  5  6  1  0  0  0
  6  7  2  0  0  0
  7  8  1  0  0  0
  8  9  2  0  0  0
  9 10  1  0  0  0
 10 28  1  0  0  0
 28 29  1  0  0  0
 29 30  1  0  0  0
 30 31  1  0  0  0
 31 32  1  0  0  0
 31 34  1  0  0  0
 32 33  2  0  0  0
 32 35  1  0  0  0
 35 36  1  0  0  0
 36 37  1  0  0  0
 37 38  1  0  0  0
 38 39  1  0  0  0
 38 40  1  0  0  0
M  END
> <minimizedAffinity>
-6.84287

$$$$
