CHEMBL3901612


 36 39  0  0  0  0  0  0  0  0999 V2000
  -16.4869    1.2206  -15.3008 N   0  0  0  0  0  0  0  0  0  0  0  0
  -17.8104    1.7388  -15.2323 C   0  0  0  0  0  0  0  0  0  0  0  0
  -18.1042    3.0797  -15.5109 C   0  0  0  0  0  0  0  0  0  0  0  0
  -19.3689    3.6047  -15.2457 C   0  0  0  0  0  0  0  0  0  0  0  0
  -20.3828    2.8045  -14.7627 C   0  0  0  0  0  0  0  0  0  0  0  0
  -21.5797    3.3602  -14.5082 N   0  0  0  0  0  0  0  0  0  0  0  0
  -22.5406    2.5175  -14.0729 C   0  0  0  0  0  0  0  0  0  0  0  0
  -22.3313    1.1589  -13.8874 C   0  0  0  0  0  0  0  0  0  0  0  0
  -21.1138    0.6031  -14.1116 N   0  0  0  0  0  0  0  0  0  0  0  0
  -20.1402    1.4242  -14.5498 C   0  0  0  0  0  0  0  0  0  0  0  0
  -18.8623    0.9250  -14.7846 C   0  0  0  0  0  0  0  0  0  0  0  0
  -23.4144    0.2724  -13.5087 C   0  0  0  0  0  0  0  0  0  0  0  0
  -24.0641   -0.7566  -14.2261 C   0  0  0  0  0  0  0  0  0  0  0  0
  -24.9814   -1.3971  -13.4993 N   0  0  0  0  0  0  0  0  0  0  0  0
  -24.9136   -0.7866  -12.3028 N   0  0  0  0  0  0  0  0  0  0  0  0
  -25.7121   -1.2681  -11.2012 C   0  0  0  0  0  0  0  0  0  0  0  0
  -24.0126    0.2368  -12.2633 C   0  0  0  0  0  0  0  0  0  0  0  0
  -13.5745    3.5008  -15.9737 C   0  0  0  0  0  0  0  0  0  0  0  0
  -13.2803    3.2082  -17.3033 C   0  0  0  0  0  0  0  0  0  0  0  0
  -14.0255    2.2355  -17.9432 C   0  0  0  0  0  0  0  0  0  0  0  0
  -13.7620    1.9488  -19.2261 F   0  0  0  0  0  0  0  0  0  0  0  0
  -15.0545    1.5550  -17.2906 C   0  0  0  0  0  0  0  0  0  0  0  0
  -15.3957    1.8350  -15.9613 C   0  0  0  0  0  0  0  0  0  0  0  0
  -14.6109    2.8112  -15.3123 C   0  0  0  0  0  0  0  0  0  0  0  0
  -12.1282    6.8664  -15.0305 C   0  0  0  0  0  0  0  0  0  0  0  0
  -12.8415    5.8089  -15.6974 N   0  0  0  0  0  0  0  0  0  0  0  0
  -12.7853    4.5111  -15.2249 C   0  0  0  0  0  0  0  0  0  0  0  0
  -12.1434    4.1823  -14.2338 O   0  0  0  0  0  0  0  0  0  0  0  0
  -13.5308    6.0610  -16.3928 H   0  0  0  0  0  0  0  0  0  0  0  0
  -16.2595   -0.0337  -14.5262 C   0  0  0  0  0  0  0  0  0  0  0  0
  -15.8555    0.2083  -13.0406 C   0  0  0  0  0  0  0  0  0  0  0  0
  -14.9864   -0.7946  -12.4147 N   0  0  0  0  0  0  0  0  0  0  0  0
  -14.7988   -0.4985  -11.4538 H   0  0  0  0  0  0  0  0  0  0  0  0
  -15.5143   -2.1599  -12.4182 C   0  0  0  0  0  0  0  0  0  0  0  0
  -14.5800   -3.1735  -13.0759 C   0  0  0  0  0  0  0  0  0  0  0  0
  -15.8118   -2.5632  -10.9755 C   0  0  0  0  0  0  0  0  0  0  0  0
 25 26  1  0  0  0
 26 27  1  0  0  0
 26 29  1  0  0  0
 27 28  2  0  0  0
 27 18  1  0  0  0
 18 19  1  0  0  0
 18 24  2  0  0  0
 19 20  2  0  0  0
 20 21  1  0  0  0
 20 22  1  0  0  0
 22 23  2  0  0  0
 23  1  1  0  0  0
 23 24  1  0  0  0
  1 30  1  0  0  0
  1  2  1  0  0  0
 30 31  1  0  0  0
 31 32  1  0  0  0
 32 34  1  0  0  0
 32 33  1  0  0  0
 34 35  1  0  0  0
 34 36  1  0  0  0
  2  3  1  0  0  0
  2 11  2  0  0  0
  3  4  2  0  0  0
  4  5  1  0  0  0
  5  6  1  0  0  0
  5 10  2  0  0  0
  6  7  2  0  0  0
  7  8  1  0  0  0
  8 12  1  0  0  0
  8  9  2  0  0  0
 12 13  1  0  0  0
 12 17  2  0  0  0
 13 14  2  0  0  0
 14 15  1  0  0  0
 15 16  1  0  0  0
 15 17  1  0  0  0
  9 10  1  0  0  0
 10 11  1  0  0  0
M  END
> <minimizedAffinity>
-9.08142

$$$$
