CHEMBL1975647


 23 25  0  0  0  0  0  0  0  0999 V2000
  -14.3113   -9.0558  -12.5548 O   0  0  0  0  0  0  0  0  0  0  0  0
  -13.9731   -8.2417  -13.4110 C   0  0  0  0  0  0  0  0  0  0  0  0
  -14.0438   -8.6152  -14.7302 N   0  0  0  0  0  0  0  0  0  0  0  0
  -13.5959   -6.9443  -13.1857 N   0  0  0  0  0  0  0  0  0  0  0  0
  -14.4530   -9.5307  -14.8616 H   0  0  0  0  0  0  0  0  0  0  0  0
  -13.3925   -6.4325  -14.0380 H   0  0  0  0  0  0  0  0  0  0  0  0
  -13.3799   -6.2664  -11.9679 C   0  0  0  0  0  0  0  0  0  0  0  0
  -12.2445   -6.5115  -11.2064 C   0  0  0  0  0  0  0  0  0  0  0  0
  -12.0280   -5.7368  -10.0879 C   0  0  0  0  0  0  0  0  0  0  0  0
  -12.8572   -4.7566   -9.6844 N   0  0  0  0  0  0  0  0  0  0  0  0
  -13.9820   -4.5290  -10.3918 C   0  0  0  0  0  0  0  0  0  0  0  0
  -14.8665   -3.5289   -9.9773 C   0  0  0  0  0  0  0  0  0  0  0  0
  -14.5691   -2.7799   -8.9013 F   0  0  0  0  0  0  0  0  0  0  0  0
  -16.0693   -3.2613  -10.6273 C   0  0  0  0  0  0  0  0  0  0  0  0
  -16.4256   -4.0145  -11.7331 C   0  0  0  0  0  0  0  0  0  0  0  0
  -15.5567   -5.0057  -12.1897 C   0  0  0  0  0  0  0  0  0  0  0  0
  -14.3132   -5.2710  -11.5470 C   0  0  0  0  0  0  0  0  0  0  0  0
  -13.5962   -7.9071  -15.8516 C   0  0  0  0  0  0  0  0  0  0  0  0
  -12.5005   -8.3714  -16.5708 C   0  0  0  0  0  0  0  0  0  0  0  0
  -12.0182   -7.7404  -17.6718 N   0  0  0  0  0  0  0  0  0  0  0  0
  -12.6574   -6.6005  -18.0141 C   0  0  0  0  0  0  0  0  0  0  0  0
  -13.7356   -6.1195  -17.2964 C   0  0  0  0  0  0  0  0  0  0  0  0
  -14.2401   -6.7741  -16.2249 N   0  0  0  0  0  0  0  0  0  0  0  0
  1  2  2  0  0  0
  2  3  1  0  0  0
  2  4  1  0  0  0
  3 18  1  0  0  0
  3  5  1  0  0  0
 18 19  1  0  0  0
 18 23  2  0  0  0
 19 20  2  0  0  0
 20 21  1  0  0  0
 21 22  2  0  0  0
 22 23  1  0  0  0
  4  7  1  0  0  0
  4  6  1  0  0  0
  7  8  1  0  0  0
  7 17  2  0  0  0
  8  9  2  0  0  0
  9 10  1  0  0  0
 10 11  2  0  0  0
 11 12  1  0  0  0
 11 17  1  0  0  0
 12 13  1  0  0  0
 12 14  2  0  0  0
 14 15  1  0  0  0
 15 16  2  0  0  0
 16 17  1  0  0  0
M  END
> <minimizedAffinity>
-6.86392

$$$$
