CHEMBL1241774


 25 28  0  0  0  0  0  0  0  0999 V2000
  -28.6557   -0.7934   -6.3831 N   0  0  0  0  0  0  0  0  0  0  0  0
  -28.0935   -0.4269   -7.5760 N   0  0  0  0  0  0  0  0  0  0  0  0
  -27.9453   -1.5860   -8.2612 C   0  0  0  0  0  0  0  0  0  0  0  0
  -28.2650   -2.6917   -7.4346 C   0  0  0  0  0  0  0  0  0  0  0  0
  -28.2197   -4.0808   -7.5631 C   0  0  0  0  0  0  0  0  0  0  0  0
  -27.7416   -4.6901   -8.6992 N   0  0  0  0  0  0  0  0  0  0  0  0
  -28.6868   -4.8374   -6.5484 N   0  0  0  0  0  0  0  0  0  0  0  0
  -29.1535   -4.2127   -5.4463 C   0  0  0  0  0  0  0  0  0  0  0  0
  -29.2107   -2.8899   -5.2081 N   0  0  0  0  0  0  0  0  0  0  0  0
  -28.7408   -2.1663   -6.2458 C   0  0  0  0  0  0  0  0  0  0  0  0
  -27.3294   -4.1554   -9.4441 H   0  0  0  0  0  0  0  0  0  0  0  0
  -27.7315   -5.6922   -8.7708 H   0  0  0  0  0  0  0  0  0  0  0  0
  -27.3176   -1.6482   -9.6082 C   0  0  0  0  0  0  0  0  0  0  0  0
  -28.2362   -1.5995  -10.6309 C   0  0  0  0  0  0  0  0  0  0  0  0
  -27.7512   -1.5370  -11.8772 C   0  0  0  0  0  0  0  0  0  0  0  0
  -26.4287   -1.5108  -12.0863 C   0  0  0  0  0  0  0  0  0  0  0  0
  -26.2800   -1.4560  -13.3205 N   0  0  0  0  0  0  0  0  0  0  0  0
  -26.1878   -1.4032  -14.5651 C   0  0  0  0  0  0  0  0  0  0  0  0
  -24.8821   -1.4576  -14.3751 C   0  0  0  0  0  0  0  0  0  0  0  0
  -24.2336   -1.5137  -12.8872 N   0  0  0  0  0  0  0  0  0  0  0  0
  -25.2309   -1.5588  -11.5157 C   0  0  0  0  0  0  0  0  0  0  0  0
  -25.8568   -1.6150   -9.9828 C   0  0  0  0  0  0  0  0  0  0  0  0
  -28.0647    0.9602   -4.7516 C   0  0  0  0  0  0  0  0  0  0  0  0
  -29.1973    0.2516   -5.4978 C   0  0  0  0  0  0  0  0  0  0  0  0
  -30.0206    1.2961   -6.2458 C   0  0  0  0  0  0  0  0  0  0  0  0
 23 24  1  0  0  0
 24 25  1  0  0  0
 24  1  1  0  0  0
  1  2  1  0  0  0
  1 10  1  0  0  0
  2  3  2  0  0  0
  3 13  1  0  0  0
  3  4  1  0  0  0
 13 14  1  0  0  0
 13 22  2  0  0  0
 14 15  2  0  0  0
 15 16  1  0  0  0
 16 17  1  0  0  0
 16 21  2  0  0  0
 17 18  2  0  0  0
 18 19  1  0  0  0
 19 20  2  0  0  0
 20 21  1  0  0  0
 21 22  1  0  0  0
  4  5  1  0  0  0
  4 10  2  0  0  0
  5  6  1  0  0  0
  5  7  2  0  0  0
  6 11  1  0  0  0
  6 12  1  0  0  0
  7  8  1  0  0  0
  8  9  2  0  0  0
  9 10  1  0  0  0
M  END
> <minimizedAffinity>
-8.29495

$$$$
