CHEMBL3676342


 35 37  0  0  0  0  0  0  0  0999 V2000
  -26.9761   -8.7162   -5.1581 C   0  0  0  0  0  0  0  0  0  0  0  0
  -27.7105   -7.5598   -4.8963 C   0  0  0  0  0  0  0  0  0  0  0  0
  -28.7953   -7.2069   -5.7218 C   0  0  0  0  0  0  0  0  0  0  0  0
  -29.4734   -5.9811   -5.6528 C   0  0  0  0  0  0  0  0  0  0  0  0
  -30.4907   -5.6873   -6.4817 N   0  0  0  0  0  0  0  0  0  0  0  0
  -30.8116   -6.6007   -7.4002 C   0  0  0  0  0  0  0  0  0  0  0  0
  -30.2002   -7.7750   -7.5831 N   0  0  0  0  0  0  0  0  0  0  0  0
  -29.1905   -8.0668   -6.7588 C   0  0  0  0  0  0  0  0  0  0  0  0
  -28.4753   -9.2449   -6.9622 C   0  0  0  0  0  0  0  0  0  0  0  0
  -27.3750   -9.5948   -6.1723 C   0  0  0  0  0  0  0  0  0  0  0  0
  -25.4486   -9.8563   -3.6274 C   0  0  0  0  0  0  0  0  0  0  0  0
  -24.2871  -10.1046   -3.3272 O   0  0  0  0  0  0  0  0  0  0  0  0
  -25.7345   -8.8515   -4.5216 N   0  0  0  0  0  0  0  0  0  0  0  0
  -24.9094   -8.6350   -5.0706 H   0  0  0  0  0  0  0  0  0  0  0  0
  -26.5421  -11.9848   -3.1725 C   0  0  0  0  0  0  0  0  0  0  0  0
  -26.5903  -10.6492   -3.0987 C   0  0  0  0  0  0  0  0  0  0  0  0
  -29.0215   -4.9671   -4.7627 N   0  0  0  0  0  0  0  0  0  0  0  0
  -29.4381   -5.0809   -3.8417 H   0  0  0  0  0  0  0  0  0  0  0  0
  -28.8828   -3.6036   -5.1289 C   0  0  0  0  0  0  0  0  0  0  0  0
  -28.3004   -3.2662   -6.3627 C   0  0  0  0  0  0  0  0  0  0  0  0
  -28.2735   -1.9464   -6.8141 C   0  0  0  0  0  0  0  0  0  0  0  0
  -27.6054   -1.6484   -8.3788 Cl  0  0  0  0  0  0  0  0  0  0  0  0
  -28.7985   -0.9321   -6.0103 C   0  0  0  0  0  0  0  0  0  0  0  0
  -28.8702    0.7124   -6.5336 Cl  0  0  0  0  0  0  0  0  0  0  0  0
  -29.3010   -1.2363   -4.7414 C   0  0  0  0  0  0  0  0  0  0  0  0
  -29.3307   -2.5623   -4.3008 C   0  0  0  0  0  0  0  0  0  0  0  0
  -29.9652   -2.8984   -2.7289 Cl  0  0  0  0  0  0  0  0  0  0  0  0
  -26.7216  -10.7491   -6.5419 O   0  0  0  0  0  0  0  0  0  0  0  0
  -25.7053  -10.5593   -7.5350 C   0  0  0  0  0  0  0  0  0  0  0  0
  -25.8052  -11.6094   -8.6444 C   0  0  0  0  0  0  0  0  0  0  0  0
  -27.1168  -11.5782   -9.2799 N   0  0  0  0  0  0  0  0  0  0  0  0
  -27.3817  -10.7320  -10.3325 C   0  0  0  0  0  0  0  0  0  0  0  0
  -28.8244  -10.7021  -10.7649 C   0  0  0  0  0  0  0  0  0  0  0  0
  -26.5233  -10.0508  -10.8827 O   0  0  0  0  0  0  0  0  0  0  0  0
  -27.8890  -12.0261   -8.8020 H   0  0  0  0  0  0  0  0  0  0  0  0
 15 16  2  0  0  0
 16 11  1  0  0  0
 11 12  2  0  0  0
 11 13  1  0  0  0
 13  1  1  0  0  0
 13 14  1  0  0  0
  1  2  1  0  0  0
  1 10  2  0  0  0
  2  3  2  0  0  0
  3  4  1  0  0  0
  3  8  1  0  0  0
  4 17  1  0  0  0
  4  5  2  0  0  0
 17 19  1  0  0  0
 17 18  1  0  0  0
 19 20  1  0  0  0
 19 26  2  0  0  0
 20 21  2  0  0  0
 21 22  1  0  0  0
 21 23  1  0  0  0
 23 24  1  0  0  0
 23 25  2  0  0  0
 25 26  1  0  0  0
 26 27  1  0  0  0
  5  6  1  0  0  0
  6  7  2  0  0  0
  7  8  1  0  0  0
  8  9  2  0  0  0
  9 10  1  0  0  0
 10 28  1  0  0  0
 28 29  1  0  0  0
 29 30  1  0  0  0
 30 31  1  0  0  0
 31 32  1  0  0  0
 31 35  1  0  0  0
 32 33  1  0  0  0
 32 34  2  0  0  0
M  END
> <minimizedAffinity>
-7.78591

$$$$
