CHEMBL3898568


 36 40  0  0  0  0  0  0  0  0999 V2000
  -15.8098    2.5755  -16.5959 N   0  0  0  0  0  0  0  0  0  0  0  0
  -17.0651    2.4187  -15.8688 C   0  0  0  0  0  0  0  0  0  0  0  0
  -17.1821    1.1526  -15.3581 C   0  0  0  0  0  0  0  0  0  0  0  0
  -18.3993    0.6945  -14.9970 C   0  0  0  0  0  0  0  0  0  0  0  0
  -19.5044    1.4385  -15.1661 C   0  0  0  0  0  0  0  0  0  0  0  0
  -20.4005    0.5472  -15.4428 N   0  0  0  0  0  0  0  0  0  0  0  0
  -21.1874    0.4139  -14.4297 C   0  0  0  0  0  0  0  0  0  0  0  0
  -21.8663    1.4567  -13.9349 C   0  0  0  0  0  0  0  0  0  0  0  0
  -21.2351    2.7234  -14.2607 N   0  0  0  0  0  0  0  0  0  0  0  0
  -19.7399    2.7420  -14.9269 C   0  0  0  0  0  0  0  0  0  0  0  0
  -18.2746    3.2561  -15.5710 C   0  0  0  0  0  0  0  0  0  0  0  0
  -23.1787    0.7845  -13.4215 C   0  0  0  0  0  0  0  0  0  0  0  0
  -23.8786    0.5307  -12.1627 C   0  0  0  0  0  0  0  0  0  0  0  0
  -24.6598   -0.5691  -12.1482 N   0  0  0  0  0  0  0  0  0  0  0  0
  -24.4768   -1.1506  -13.3619 N   0  0  0  0  0  0  0  0  0  0  0  0
  -23.6698   -0.3535  -14.1206 C   0  0  0  0  0  0  0  0  0  0  0  0
  -24.8596   -2.0747  -13.5598 H   0  0  0  0  0  0  0  0  0  0  0  0
  -13.2618    5.3562  -16.0968 C   0  0  0  0  0  0  0  0  0  0  0  0
  -13.0311    5.6687  -17.4282 C   0  0  0  0  0  0  0  0  0  0  0  0
  -13.7739    5.0539  -18.4333 C   0  0  0  0  0  0  0  0  0  0  0  0
  -14.7541    4.1157  -18.1266 C   0  0  0  0  0  0  0  0  0  0  0  0
  -14.9733    3.7032  -16.8259 C   0  0  0  0  0  0  0  0  0  0  0  0
  -14.2567    4.4090  -15.8019 C   0  0  0  0  0  0  0  0  0  0  0  0
  -11.3099    5.2561  -14.7369 C   0  0  0  0  0  0  0  0  0  0  0  0
  -12.5566    5.8947  -15.0465 O   0  0  0  0  0  0  0  0  0  0  0  0
  -13.6046    5.2545  -19.7752 O   0  0  0  0  0  0  0  0  0  0  0  0
  -12.5353    6.1145  -20.1311 C   0  0  0  0  0  0  0  0  0  0  0  0
  -15.1343    1.2665  -17.0315 C   0  0  0  0  0  0  0  0  0  0  0  0
  -13.6304    1.3239  -16.7189 C   0  0  0  0  0  0  0  0  0  0  0  0
  -13.2285    1.3586  -15.3091 N   0  0  0  0  0  0  0  0  0  0  0  0
  -13.6053    0.0877  -14.6580 C   0  0  0  0  0  0  0  0  0  0  0  0
  -12.4151   -0.3171  -13.7968 C   0  0  0  0  0  0  0  0  0  0  0  0
  -11.6028    0.9633  -13.6694 C   0  0  0  0  0  0  0  0  0  0  0  0
  -11.7967    1.5659  -15.0588 C   0  0  0  0  0  0  0  0  0  0  0  0
  -12.1594    1.8328  -12.6145 C   0  0  0  0  0  0  0  0  0  0  0  0
  -12.6117    2.5347  -11.8091 N   0  0  0  0  0  0  0  0  0  0  0  0
 24 25  1  0  0  0
 25 18  1  0  0  0
 18 19  1  0  0  0
 18 23  2  0  0  0
 19 20  2  0  0  0
 20 26  1  0  0  0
 20 21  1  0  0  0
 26 27  1  0  0  0
 21 22  2  0  0  0
 22  1  1  0  0  0
 22 23  1  0  0  0
  1 28  1  0  0  0
  1  2  1  0  0  0
 28 29  1  0  0  0
 29 30  1  0  0  0
 30 31  1  0  0  0
 30 34  1  0  0  0
 31 32  1  0  0  0
 32 33  1  0  0  0
 33 35  1  0  0  0
 33 34  1  0  0  0
 35 36  3  0  0  0
  2  3  1  0  0  0
  2 11  2  0  0  0
  3  4  2  0  0  0
  4  5  1  0  0  0
  5  6  1  0  0  0
  5 10  2  0  0  0
  6  7  2  0  0  0
  7  8  1  0  0  0
  8 12  1  0  0  0
  8  9  2  0  0  0
 12 13  1  0  0  0
 12 16  2  0  0  0
 13 14  2  0  0  0
 14 15  1  0  0  0
 15 16  1  0  0  0
 15 17  1  0  0  0
  9 10  1  0  0  0
 10 11  1  0  0  0
M  END
> <minimizedAffinity>
-8.05362

$$$$
