CHEMBL3696091


 23 24  0  0  0  0  0  0  0  0999 V2000
  -30.2171   -4.4658   -4.8773 C   0  0  0  0  0  0  0  0  0  0  0  0
  -29.3484   -3.6538   -5.7279 C   0  0  0  0  0  0  0  0  0  0  0  0
  -28.9058   -4.2793   -6.8267 N   0  0  0  0  0  0  0  0  0  0  0  0
  -29.4361   -5.8329   -6.8514 S   0  0  0  0  0  0  0  0  0  0  0  0
  -30.3131   -5.7553   -5.3910 C   0  0  0  0  0  0  0  0  0  0  0  0
  -30.9865   -6.8186   -4.8899 N   0  0  0  0  0  0  0  0  0  0  0  0
  -30.7457   -7.7520   -5.2097 H   0  0  0  0  0  0  0  0  0  0  0  0
  -31.2554   -6.7892   -3.9038 H   0  0  0  0  0  0  0  0  0  0  0  0
  -28.8941   -2.2634   -5.5216 C   0  0  0  0  0  0  0  0  0  0  0  0
  -27.5845   -1.9636   -5.1280 C   0  0  0  0  0  0  0  0  0  0  0  0
  -27.1988   -0.6439   -4.8877 C   0  0  0  0  0  0  0  0  0  0  0  0
  -28.0992    0.3990   -5.1019 C   0  0  0  0  0  0  0  0  0  0  0  0
  -29.3835    0.1396   -5.5850 C   0  0  0  0  0  0  0  0  0  0  0  0
  -29.7801   -1.1945   -5.7561 C   0  0  0  0  0  0  0  0  0  0  0  0
  -30.3211    1.1736   -5.8139 N   0  0  0  0  0  0  0  0  0  0  0  0
  -30.2294    1.9320   -6.9816 O   0  0  0  0  0  0  0  0  0  0  0  0
  -31.2724    0.8264   -5.6611 H   0  0  0  0  0  0  0  0  0  0  0  0
  -29.5417    2.5876   -6.7567 H   0  0  0  0  0  0  0  0  0  0  0  0
  -30.1864   -3.4070   -2.7136 N   0  0  0  0  0  0  0  0  0  0  0  0
  -30.9048   -4.1035   -3.6428 C   0  0  0  0  0  0  0  0  0  0  0  0
  -32.0877   -4.3615   -3.4263 O   0  0  0  0  0  0  0  0  0  0  0  0
  -30.6645   -3.1368   -1.8648 H   0  0  0  0  0  0  0  0  0  0  0  0
  -29.2381   -3.0899   -2.8608 H   0  0  0  0  0  0  0  0  0  0  0  0
 19 20  1  0  0  0
 19 22  1  0  0  0
 19 23  1  0  0  0
 20 21  2  0  0  0
 20  1  1  0  0  0
  1  2  1  0  0  0
  1  5  2  0  0  0
  2  9  1  0  0  0
  2  3  2  0  0  0
  9 10  1  0  0  0
  9 14  2  0  0  0
 10 11  2  0  0  0
 11 12  1  0  0  0
 12 13  2  0  0  0
 13 15  1  0  0  0
 13 14  1  0  0  0
 15 16  1  0  0  0
 15 17  1  0  0  0
 16 18  1  0  0  0
  3  4  1  0  0  0
  4  5  1  0  0  0
  5  6  1  0  0  0
  6  7  1  0  0  0
  6  8  1  0  0  0
M  END
> <minimizedAffinity>
-7.25449

$$$$
