CHEMBL3287321


 45 49  0  0  0  0  0  0  0  0999 V2000
  -15.2861   -5.5456  -12.1311 C   0  0  0  0  0  0  0  0  0  0  0  0
  -16.2418   -5.2684  -13.1109 C   0  0  0  0  0  0  0  0  0  0  0  0
  -16.4105   -3.9628  -13.5835 C   0  0  0  0  0  0  0  0  0  0  0  0
  -15.5920   -2.9281  -13.1241 C   0  0  0  0  0  0  0  0  0  0  0  0
  -14.6060   -3.2166  -12.1746 C   0  0  0  0  0  0  0  0  0  0  0  0
  -14.4675   -4.5145  -11.6804 C   0  0  0  0  0  0  0  0  0  0  0  0
  -13.5263   -4.7559  -10.7554 F   0  0  0  0  0  0  0  0  0  0  0  0
  -15.6843   -1.6031  -13.5951 N   0  0  0  0  0  0  0  0  0  0  0  0
  -14.7711   -0.9453  -14.3933 C   0  0  0  0  0  0  0  0  0  0  0  0
  -13.7528   -1.3965  -14.8988 O   0  0  0  0  0  0  0  0  0  0  0  0
  -16.5061   -1.0776  -13.3169 H   0  0  0  0  0  0  0  0  0  0  0  0
  -15.0939    0.4974  -14.6211 C   0  0  0  0  0  0  0  0  0  0  0  0
  -14.5763    1.1754  -15.8900 C   0  0  0  0  0  0  0  0  0  0  0  0
  -13.9438    1.5068  -14.5765 C   0  0  0  0  0  0  0  0  0  0  0  0
  -16.4035    0.9544  -14.0561 C   0  0  0  0  0  0  0  0  0  0  0  0
  -16.5532    0.9429  -12.8431 O   0  0  0  0  0  0  0  0  0  0  0  0
  -17.3067    1.3451  -15.0237 N   0  0  0  0  0  0  0  0  0  0  0  0
  -16.9581    1.3763  -15.9776 H   0  0  0  0  0  0  0  0  0  0  0  0
  -18.6521    1.7121  -14.8295 C   0  0  0  0  0  0  0  0  0  0  0  0
  -19.0493    2.9865  -14.4136 C   0  0  0  0  0  0  0  0  0  0  0  0
  -20.4002    3.2777  -14.2097 C   0  0  0  0  0  0  0  0  0  0  0  0
  -21.3543    2.2935  -14.4223 C   0  0  0  0  0  0  0  0  0  0  0  0
  -22.6481    2.5729  -14.2200 F   0  0  0  0  0  0  0  0  0  0  0  0
  -20.9825    1.0215  -14.8378 C   0  0  0  0  0  0  0  0  0  0  0  0
  -19.6305    0.7300  -15.0426 C   0  0  0  0  0  0  0  0  0  0  0  0
  -15.0527   -6.8089  -11.6378 O   0  0  0  0  0  0  0  0  0  0  0  0
  -13.5060   -8.6707  -14.2430 C   0  0  0  0  0  0  0  0  0  0  0  0
  -12.3702   -9.1000  -13.6669 N   0  0  0  0  0  0  0  0  0  0  0  0
  -12.1653   -8.7793  -12.3786 C   0  0  0  0  0  0  0  0  0  0  0  0
  -13.0424   -8.0269  -11.6484 C   0  0  0  0  0  0  0  0  0  0  0  0
  -14.1560   -7.6114  -12.3318 C   0  0  0  0  0  0  0  0  0  0  0  0
  -14.4239   -7.9407  -13.6095 N   0  0  0  0  0  0  0  0  0  0  0  0
  -13.7608   -8.9442  -15.5894 N   0  0  0  0  0  0  0  0  0  0  0  0
  -13.5194   -9.9154  -15.7485 H   0  0  0  0  0  0  0  0  0  0  0  0
  -12.8339   -6.4452  -18.8646 C   0  0  0  0  0  0  0  0  0  0  0  0
  -12.4392   -6.0835  -17.5702 C   0  0  0  0  0  0  0  0  0  0  0  0
  -12.7386   -6.9066  -16.4855 C   0  0  0  0  0  0  0  0  0  0  0  0
  -13.4419   -8.1010  -16.6650 C   0  0  0  0  0  0  0  0  0  0  0  0
  -13.7705   -8.4964  -17.9645 C   0  0  0  0  0  0  0  0  0  0  0  0
  -13.4940   -7.6651  -19.0522 C   0  0  0  0  0  0  0  0  0  0  0  0
  -12.5758   -5.5086  -20.0122 C   0  0  0  0  0  0  0  0  0  0  0  0
  -13.4621   -3.0491  -18.9401 C   0  0  0  0  0  0  0  0  0  0  0  0
  -13.8637   -4.2776  -20.1609 S   0  0  0  0  0  0  0  0  0  0  0  0
  -15.1432   -4.8640  -19.8079 O   0  0  0  0  0  0  0  0  0  0  0  0
  -13.6933   -3.6453  -21.4584 O   0  0  0  0  0  0  0  0  0  0  0  0
 42 43  1  0  0  0
 43 44  2  0  0  0
 43 45  2  0  0  0
 43 41  1  0  0  0
 41 35  1  0  0  0
 35 36  1  0  0  0
 35 40  2  0  0  0
 36 37  2  0  0  0
 37 38  1  0  0  0
 38 33  1  0  0  0
 38 39  2  0  0  0
 33 27  1  0  0  0
 33 34  1  0  0  0
 27 28  1  0  0  0
 27 32  2  0  0  0
 28 29  2  0  0  0
 29 30  1  0  0  0
 30 31  2  0  0  0
 31 26  1  0  0  0
 31 32  1  0  0  0
 26  1  1  0  0  0
  1  2  1  0  0  0
  1  6  2  0  0  0
  2  3  2  0  0  0
  3  4  1  0  0  0
  4  8  1  0  0  0
  4  5  2  0  0  0
  8  9  1  0  0  0
  8 11  1  0  0  0
  9 10  2  0  0  0
  9 12  1  0  0  0
 12 15  1  0  0  0
 12 13  1  0  0  0
 12 14  1  0  0  0
 15 16  2  0  0  0
 15 17  1  0  0  0
 17 19  1  0  0  0
 17 18  1  0  0  0
 19 20  1  0  0  0
 19 25  2  0  0  0
 20 21  2  0  0  0
 21 22  1  0  0  0
 22 23  1  0  0  0
 22 24  2  0  0  0
 24 25  1  0  0  0
 13 14  1  0  0  0
  5  6  1  0  0  0
  6  7  1  0  0  0
 39 40  1  0  0  0
M  END
> <minimizedAffinity>
-9.48665

$$$$
