CHEMBL3814321


 39 42  0  0  0  0  0  0  0  0999 V2000
  -14.5569   -0.5823  -13.6521 C   0  0  0  0  0  0  0  0  0  0  0  0
  -15.4801   -0.5759  -12.6101 C   0  0  0  0  0  0  0  0  0  0  0  0
  -16.6790    0.1414  -12.7372 C   0  0  0  0  0  0  0  0  0  0  0  0
  -16.9734    0.8617  -13.8999 C   0  0  0  0  0  0  0  0  0  0  0  0
  -16.0457    0.8496  -14.9448 C   0  0  0  0  0  0  0  0  0  0  0  0
  -14.8702    0.1015  -14.8298 C   0  0  0  0  0  0  0  0  0  0  0  0
  -14.0535    0.0389  -15.8939 F   0  0  0  0  0  0  0  0  0  0  0  0
  -18.1653    1.6044  -14.0672 N   0  0  0  0  0  0  0  0  0  0  0  0
  -19.3020    1.1874  -14.7423 C   0  0  0  0  0  0  0  0  0  0  0  0
  -19.4505    0.1541  -15.3772 O   0  0  0  0  0  0  0  0  0  0  0  0
  -18.1622    2.5657  -13.7364 H   0  0  0  0  0  0  0  0  0  0  0  0
  -20.4402    2.1635  -14.6980 C   0  0  0  0  0  0  0  0  0  0  0  0
  -20.5354    3.1455  -15.8691 C   0  0  0  0  0  0  0  0  0  0  0  0
  -20.1234    3.6479  -14.5245 C   0  0  0  0  0  0  0  0  0  0  0  0
  -21.7009    1.6367  -14.1014 C   0  0  0  0  0  0  0  0  0  0  0  0
  -22.5625    2.4470  -13.7835 O   0  0  0  0  0  0  0  0  0  0  0  0
  -21.7504    0.2587  -13.9624 N   0  0  0  0  0  0  0  0  0  0  0  0
  -20.9031   -0.2552  -14.1747 H   0  0  0  0  0  0  0  0  0  0  0  0
  -22.8343   -0.4777  -13.4326 C   0  0  0  0  0  0  0  0  0  0  0  0
  -23.9791   -0.7697  -14.1800 C   0  0  0  0  0  0  0  0  0  0  0  0
  -25.0709   -1.4109  -13.5922 C   0  0  0  0  0  0  0  0  0  0  0  0
  -25.0112   -1.7720  -12.2547 C   0  0  0  0  0  0  0  0  0  0  0  0
  -26.0771   -2.3404  -11.6780 F   0  0  0  0  0  0  0  0  0  0  0  0
  -23.8608   -1.5466  -11.5087 C   0  0  0  0  0  0  0  0  0  0  0  0
  -22.7617   -0.9139  -12.1028 C   0  0  0  0  0  0  0  0  0  0  0  0
  -13.4018   -1.3204  -13.4712 O   0  0  0  0  0  0  0  0  0  0  0  0
  -13.3768   -3.5798  -12.6750 C   0  0  0  0  0  0  0  0  0  0  0  0
  -13.5186   -4.9213  -13.0101 C   0  0  0  0  0  0  0  0  0  0  0  0
  -13.6017   -5.9325  -12.0544 N   0  0  0  0  0  0  0  0  0  0  0  0
  -13.7131   -5.3380  -14.2721 N   0  0  0  0  0  0  0  0  0  0  0  0
  -13.7375   -4.3933  -15.2175 C   0  0  0  0  0  0  0  0  0  0  0  0
  -13.5938   -3.0822  -15.0159 N   0  0  0  0  0  0  0  0  0  0  0  0
  -13.4709   -2.6884  -13.7278 C   0  0  0  0  0  0  0  0  0  0  0  0
  -12.9172   -5.8036  -11.3081 H   0  0  0  0  0  0  0  0  0  0  0  0
  -13.5754   -6.8372  -12.5059 H   0  0  0  0  0  0  0  0  0  0  0  0
  -11.8844   -3.2069  -10.8201 N   0  0  0  0  0  0  0  0  0  0  0  0
  -13.0943   -3.1516  -11.2921 C   0  0  0  0  0  0  0  0  0  0  0  0
  -12.7842   -3.5580   -8.7498 C   0  0  0  0  0  0  0  0  0  0  0  0
  -11.8613   -2.7629   -9.4917 O   0  0  0  0  0  0  0  0  0  0  0  0
 38 39  1  0  0  0
 39 36  1  0  0  0
 36 37  2  0  0  0
 37 27  1  0  0  0
 27 28  1  0  0  0
 27 33  2  0  0  0
 28 29  1  0  0  0
 28 30  2  0  0  0
 29 34  1  0  0  0
 29 35  1  0  0  0
 30 31  1  0  0  0
 31 32  2  0  0  0
 32 33  1  0  0  0
 33 26  1  0  0  0
 26  1  1  0  0  0
  1  2  1  0  0  0
  1  6  2  0  0  0
  2  3  2  0  0  0
  3  4  1  0  0  0
  4  8  1  0  0  0
  4  5  2  0  0  0
  8  9  1  0  0  0
  8 11  1  0  0  0
  9 10  2  0  0  0
  9 12  1  0  0  0
 12 15  1  0  0  0
 12 13  1  0  0  0
 12 14  1  0  0  0
 15 16  2  0  0  0
 15 17  1  0  0  0
 17 19  1  0  0  0
 17 18  1  0  0  0
 19 20  1  0  0  0
 19 25  2  0  0  0
 20 21  2  0  0  0
 21 22  1  0  0  0
 22 23  1  0  0  0
 22 24  2  0  0  0
 24 25  1  0  0  0
 13 14  1  0  0  0
  5  6  1  0  0  0
  6  7  1  0  0  0
M  END
> <minimizedAffinity>
-9.11523

$$$$
