CHEMBL269871


 31 34  0  0  0  0  0  0  0  0999 V2000
  -17.5566    2.5872  -15.2099 C   0  0  0  0  0  0  0  0  0  0  0  0
  -17.1876    3.4698  -16.2513 C   0  0  0  0  0  0  0  0  0  0  0  0
  -15.9251    3.3937  -16.8325 C   0  0  0  0  0  0  0  0  0  0  0  0
  -15.0162    2.4432  -16.3837 C   0  0  0  0  0  0  0  0  0  0  0  0
  -15.3344    1.5569  -15.3434 C   0  0  0  0  0  0  0  0  0  0  0  0
  -14.3825    0.6065  -14.9064 C   0  0  0  0  0  0  0  0  0  0  0  0
  -14.6574   -0.2770  -13.8612 C   0  0  0  0  0  0  0  0  0  0  0  0
  -15.9215   -0.2434  -13.2722 C   0  0  0  0  0  0  0  0  0  0  0  0
  -16.8691    0.7004  -13.6864 C   0  0  0  0  0  0  0  0  0  0  0  0
  -16.6159    1.6199  -14.7297 C   0  0  0  0  0  0  0  0  0  0  0  0
  -19.8671    1.8015  -15.0932 N   0  0  0  0  0  0  0  0  0  0  0  0
  -18.9302    2.7210  -14.6426 C   0  0  0  0  0  0  0  0  0  0  0  0
  -19.2062    3.5915  -13.8297 O   0  0  0  0  0  0  0  0  0  0  0  0
  -19.5674    1.0130  -15.6508 H   0  0  0  0  0  0  0  0  0  0  0  0
  -21.6845    0.3909  -14.2531 C   0  0  0  0  0  0  0  0  0  0  0  0
  -21.2284    1.7961  -14.5976 C   0  0  0  0  0  0  0  0  0  0  0  0
  -13.6582   -1.1642  -13.5068 O   0  0  0  0  0  0  0  0  0  0  0  0
  -13.5609   -2.3812  -14.1672 C   0  0  0  0  0  0  0  0  0  0  0  0
  -13.1478   -2.4441  -15.4964 C   0  0  0  0  0  0  0  0  0  0  0  0
  -12.9836   -3.6931  -16.0574 C   0  0  0  0  0  0  0  0  0  0  0  0
  -13.2416   -4.8492  -15.4104 N   0  0  0  0  0  0  0  0  0  0  0  0
  -13.7162   -4.7817  -14.1542 C   0  0  0  0  0  0  0  0  0  0  0  0
  -13.9687   -5.9689  -13.4623 C   0  0  0  0  0  0  0  0  0  0  0  0
  -14.4628   -6.0342  -12.1346 C   0  0  0  0  0  0  0  0  0  0  0  0
  -14.7475   -4.8319  -11.4879 C   0  0  0  0  0  0  0  0  0  0  0  0
  -14.4639   -3.6258  -12.1757 C   0  0  0  0  0  0  0  0  0  0  0  0
  -13.9180   -3.5671  -13.4801 C   0  0  0  0  0  0  0  0  0  0  0  0
  -14.3478   -7.2963  -11.6251 O   0  0  0  0  0  0  0  0  0  0  0  0
  -13.9061   -8.3770  -12.4289 C   0  0  0  0  0  0  0  0  0  0  0  0
  -15.2132   -4.5219  -10.2472 O   0  0  0  0  0  0  0  0  0  0  0  0
  -14.8326   -3.3751   -9.5260 C   0  0  0  0  0  0  0  0  0  0  0  0
 15 16  1  0  0  0
 16 11  1  0  0  0
 11 12  1  0  0  0
 11 14  1  0  0  0
 12 13  2  0  0  0
 12  1  1  0  0  0
  1  2  1  0  0  0
  1 10  2  0  0  0
  2  3  2  0  0  0
  3  4  1  0  0  0
  4  5  2  0  0  0
  5  6  1  0  0  0
  5 10  1  0  0  0
  6  7  2  0  0  0
  7 17  1  0  0  0
  7  8  1  0  0  0
 17 18  1  0  0  0
 18 19  1  0  0  0
 18 27  2  0  0  0
 19 20  2  0  0  0
 20 21  1  0  0  0
 21 22  2  0  0  0
 22 23  1  0  0  0
 22 27  1  0  0  0
 23 24  2  0  0  0
 24 28  1  0  0  0
 24 25  1  0  0  0
 28 29  1  0  0  0
 25 30  1  0  0  0
 25 26  2  0  0  0
 30 31  1  0  0  0
 26 27  1  0  0  0
  8  9  2  0  0  0
  9 10  1  0  0  0
M  END
> <minimizedAffinity>
-7.61631

$$$$
