CHEMBL574646


 22 24  0  0  0  0  0  0  0  0999 V2000
  -20.0171    4.1151  -14.9115 O   0  0  0  0  0  0  0  0  0  0  0  0
  -19.5049    3.0080  -15.0649 C   0  0  0  0  0  0  0  0  0  0  0  0
  -20.2600    1.7485  -14.7499 C   0  0  0  0  0  0  0  0  0  0  0  0
  -21.4677    1.8734  -14.1576 C   0  0  0  0  0  0  0  0  0  0  0  0
  -19.5857    0.4493  -15.0685 C   0  0  0  0  0  0  0  0  0  0  0  0
  -18.1460    0.5180  -14.8622 N   0  0  0  0  0  0  0  0  0  0  0  0
  -17.5784    1.4783  -15.7989 C   0  0  0  0  0  0  0  0  0  0  0  0
  -18.1017    2.8623  -15.5765 C   0  0  0  0  0  0  0  0  0  0  0  0
  -17.3831    3.9876  -15.7767 C   0  0  0  0  0  0  0  0  0  0  0  0
  -17.7461   -0.3987  -15.0526 H   0  0  0  0  0  0  0  0  0  0  0  0
  -22.3310    0.7580  -13.7376 C   0  0  0  0  0  0  0  0  0  0  0  0
  -22.1540    0.1643  -12.4933 C   0  0  0  0  0  0  0  0  0  0  0  0
  -22.8962   -0.9747  -12.1824 C   0  0  0  0  0  0  0  0  0  0  0  0
  -23.7964   -1.4801  -13.1124 C   0  0  0  0  0  0  0  0  0  0  0  0
  -23.9437   -0.8022  -14.3074 C   0  0  0  0  0  0  0  0  0  0  0  0
  -23.2470    0.3087  -14.6282 N   0  0  0  0  0  0  0  0  0  0  0  0
  -16.0214    4.0290  -16.3301 C   0  0  0  0  0  0  0  0  0  0  0  0
  -15.8070    3.9951  -17.7025 C   0  0  0  0  0  0  0  0  0  0  0  0
  -14.4965    4.0520  -18.1768 C   0  0  0  0  0  0  0  0  0  0  0  0
  -13.4434    4.1349  -17.2733 C   0  0  0  0  0  0  0  0  0  0  0  0
  -13.7446    4.1502  -15.9248 C   0  0  0  0  0  0  0  0  0  0  0  0
  -15.0021    4.0897  -15.4387 N   0  0  0  0  0  0  0  0  0  0  0  0
  1  2  2  0  0  0
  2  3  1  0  0  0
  2  8  1  0  0  0
  3  4  2  0  0  0
  3  5  1  0  0  0
  4 11  1  0  0  0
 11 12  1  0  0  0
 11 16  2  0  0  0
 12 13  2  0  0  0
 13 14  1  0  0  0
 14 15  2  0  0  0
 15 16  1  0  0  0
  5  6  1  0  0  0
  6  7  1  0  0  0
  6 10  1  0  0  0
  7  8  1  0  0  0
  8  9  2  0  0  0
  9 17  1  0  0  0
 17 18  1  0  0  0
 17 22  2  0  0  0
 18 19  2  0  0  0
 19 20  1  0  0  0
 20 21  2  0  0  0
 21 22  1  0  0  0
M  END
> <minimizedAffinity>
-8.31433

$$$$
