CHEMBL3922698


 38 41  0  0  0  0  0  0  0  0999 V2000
  -14.3235   -0.0326  -15.1266 C   0  0  0  0  0  0  0  0  0  0  0  0
  -14.3661    0.5676  -16.3905 C   0  0  0  0  0  0  0  0  0  0  0  0
  -15.3411    1.5091  -16.6854 C   0  0  0  0  0  0  0  0  0  0  0  0
  -16.3810    1.7809  -15.8241 C   0  0  0  0  0  0  0  0  0  0  0  0
  -17.1248    2.8287  -16.1950 N   0  0  0  0  0  0  0  0  0  0  0  0
  -18.2659    3.0202  -15.5173 C   0  0  0  0  0  0  0  0  0  0  0  0
  -18.7105    2.1242  -14.5529 C   0  0  0  0  0  0  0  0  0  0  0  0
  -17.8759    1.1416  -14.0721 N   0  0  0  0  0  0  0  0  0  0  0  0
  -16.6188    0.9753  -14.7015 C   0  0  0  0  0  0  0  0  0  0  0  0
  -15.5040    0.1003  -14.3261 C   0  0  0  0  0  0  0  0  0  0  0  0
  -20.1647    2.1187  -14.3427 C   0  0  0  0  0  0  0  0  0  0  0  0
  -21.1568    3.1223  -14.2416 C   0  0  0  0  0  0  0  0  0  0  0  0
  -22.4073    2.6290  -14.1706 N   0  0  0  0  0  0  0  0  0  0  0  0
  -22.2319    1.2949  -14.2142 N   0  0  0  0  0  0  0  0  0  0  0  0
  -20.9235    0.9556  -14.4447 C   0  0  0  0  0  0  0  0  0  0  0  0
  -23.2800    0.3742  -13.7952 C   0  0  0  0  0  0  0  0  0  0  0  0
  -23.2090   -0.1734  -12.3730 C   0  0  0  0  0  0  0  0  0  0  0  0
  -24.2160   -1.6563  -12.2854 S   0  0  0  0  0  0  0  0  0  0  0  0
  -25.3196   -1.5527  -13.6782 C   0  0  0  0  0  0  0  0  0  0  0  0
  -23.3469   -2.7960  -12.5070 O   0  0  0  0  0  0  0  0  0  0  0  0
  -25.0291   -1.5737  -11.0870 O   0  0  0  0  0  0  0  0  0  0  0  0
  -13.0182   -0.5356  -14.7480 N   0  0  0  0  0  0  0  0  0  0  0  0
  -11.8329   -2.8798  -12.0659 C   0  0  0  0  0  0  0  0  0  0  0  0
  -12.3649   -4.0962  -12.5005 C   0  0  0  0  0  0  0  0  0  0  0  0
  -13.0385   -4.1579  -13.7178 C   0  0  0  0  0  0  0  0  0  0  0  0
  -13.1887   -2.9988  -14.4944 C   0  0  0  0  0  0  0  0  0  0  0  0
  -12.6993   -1.7500  -14.0788 C   0  0  0  0  0  0  0  0  0  0  0  0
  -12.0056   -1.7218  -12.8530 C   0  0  0  0  0  0  0  0  0  0  0  0
  -11.6283   -3.5269   -9.7764 C   0  0  0  0  0  0  0  0  0  0  0  0
  -11.1929   -2.7062  -10.8612 O   0  0  0  0  0  0  0  0  0  0  0  0
  -13.6268   -5.2786  -14.2443 O   0  0  0  0  0  0  0  0  0  0  0  0
  -13.7947   -5.3233  -15.6565 C   0  0  0  0  0  0  0  0  0  0  0  0
  -12.1810    0.6674  -14.3594 C   0  0  0  0  0  0  0  0  0  0  0  0
  -12.8075    1.7976  -13.5191 C   0  0  0  0  0  0  0  0  0  0  0  0
  -11.8578    2.6285  -12.6507 C   0  0  0  0  0  0  0  0  0  0  0  0
  -12.5207    2.9416  -11.3772 N   0  0  0  0  0  0  0  0  0  0  0  0
  -13.3458    3.5188  -11.5409 H   0  0  0  0  0  0  0  0  0  0  0  0
  -11.9031    3.4923  -10.7817 H   0  0  0  0  0  0  0  0  0  0  0  0
 29 30  1  0  0  0
 30 23  1  0  0  0
 23 24  1  0  0  0
 23 28  2  0  0  0
 24 25  2  0  0  0
 25 31  1  0  0  0
 25 26  1  0  0  0
 31 32  1  0  0  0
 26 27  2  0  0  0
 27 22  1  0  0  0
 27 28  1  0  0  0
 22 33  1  0  0  0
 22  1  1  0  0  0
 33 34  1  0  0  0
 34 35  1  0  0  0
 35 36  1  0  0  0
 36 37  1  0  0  0
 36 38  1  0  0  0
  1  2  1  0  0  0
  1 10  2  0  0  0
  2  3  2  0  0  0
  3  4  1  0  0  0
  4  5  1  0  0  0
  4  9  2  0  0  0
  5  6  2  0  0  0
  6  7  1  0  0  0
  7 11  1  0  0  0
  7  8  2  0  0  0
 11 12  1  0  0  0
 11 15  2  0  0  0
 12 13  2  0  0  0
 13 14  1  0  0  0
 14 16  1  0  0  0
 14 15  1  0  0  0
 16 17  1  0  0  0
 17 18  1  0  0  0
 18 19  1  0  0  0
 18 20  2  0  0  0
 18 21  2  0  0  0
  8  9  1  0  0  0
  9 10  1  0  0  0
M  END
> <minimizedAffinity>
-7.71965

$$$$
