CHEMBL150826


 29 31  0  0  0  0  0  0  0  0999 V2000
  -17.4541    2.3691  -15.2617 C   0  0  0  0  0  0  0  0  0  0  0  0
  -18.5037    3.2879  -15.1199 C   0  0  0  0  0  0  0  0  0  0  0  0
  -19.7913    2.9022  -14.8203 C   0  0  0  0  0  0  0  0  0  0  0  0
  -20.7221    3.8623  -14.7155 N   0  0  0  0  0  0  0  0  0  0  0  0
  -22.0005    3.5550  -14.4213 N   0  0  0  0  0  0  0  0  0  0  0  0
  -22.3267    2.2612  -14.2673 C   0  0  0  0  0  0  0  0  0  0  0  0
  -21.4249    1.2089  -14.4140 C   0  0  0  0  0  0  0  0  0  0  0  0
  -20.0767    1.5408  -14.6603 C   0  0  0  0  0  0  0  0  0  0  0  0
  -19.0240    0.5972  -14.7807 C   0  0  0  0  0  0  0  0  0  0  0  0
  -17.7170    1.0028  -15.0867 C   0  0  0  0  0  0  0  0  0  0  0  0
  -21.8365   -0.1449  -14.2925 N   0  0  0  0  0  0  0  0  0  0  0  0
  -21.0484   -0.7473  -14.0437 H   0  0  0  0  0  0  0  0  0  0  0  0
  -23.0321   -0.5682  -13.6595 C   0  0  0  0  0  0  0  0  0  0  0  0
  -24.1489   -0.9614  -14.4138 C   0  0  0  0  0  0  0  0  0  0  0  0
  -25.3449   -1.2935  -13.7803 C   0  0  0  0  0  0  0  0  0  0  0  0
  -26.4433   -1.6001  -14.5345 O   0  0  0  0  0  0  0  0  0  0  0  0
  -25.4238   -1.2939  -12.3845 C   0  0  0  0  0  0  0  0  0  0  0  0
  -26.8984   -1.6645  -11.5709 Cl  0  0  0  0  0  0  0  0  0  0  0  0
  -24.3005   -0.9783  -11.6219 C   0  0  0  0  0  0  0  0  0  0  0  0
  -23.1177   -0.6267  -12.2636 C   0  0  0  0  0  0  0  0  0  0  0  0
  -22.0459   -0.2979  -11.5265 F   0  0  0  0  0  0  0  0  0  0  0  0
  -26.2454   -1.4674  -15.4771 H   0  0  0  0  0  0  0  0  0  0  0  0
  -16.6569    0.1405  -15.2064 O   0  0  0  0  0  0  0  0  0  0  0  0
  -16.0525   -0.3072  -13.9970 C   0  0  0  0  0  0  0  0  0  0  0  0
  -16.1643    2.7480  -15.5879 O   0  0  0  0  0  0  0  0  0  0  0  0
  -16.0626    4.0363  -16.1988 C   0  0  0  0  0  0  0  0  0  0  0  0
  -14.6270    4.4340  -16.4969 C   0  0  0  0  0  0  0  0  0  0  0  0
  -12.6297    4.9701  -15.3438 C   0  0  0  0  0  0  0  0  0  0  0  0
  -14.0295    4.7767  -15.2425 O   0  0  0  0  0  0  0  0  0  0  0  0
 28 29  1  0  0  0
 29 27  1  0  0  0
 27 26  1  0  0  0
 26 25  1  0  0  0
 25  1  1  0  0  0
  1  2  1  0  0  0
  1 10  2  0  0  0
  2  3  2  0  0  0
  3  4  1  0  0  0
  3  8  1  0  0  0
  4  5  2  0  0  0
  5  6  1  0  0  0
  6  7  2  0  0  0
  7 11  1  0  0  0
  7  8  1  0  0  0
 11 13  1  0  0  0
 11 12  1  0  0  0
 13 14  1  0  0  0
 13 20  2  0  0  0
 14 15  2  0  0  0
 15 16  1  0  0  0
 15 17  1  0  0  0
 16 22  1  0  0  0
 17 18  1  0  0  0
 17 19  2  0  0  0
 19 20  1  0  0  0
 20 21  1  0  0  0
  8  9  2  0  0  0
  9 10  1  0  0  0
 10 23  1  0  0  0
 23 24  1  0  0  0
M  END
> <minimizedAffinity>
-8.33699

$$$$
