CHEMBL1682545


 23 26  0  0  0  0  0  0  0  0999 V2000
  -22.4308    0.0518  -13.9722 C   0  0  0  0  0  0  0  0  0  0  0  0
  -21.2041    0.1844  -14.4245 N   0  0  0  0  0  0  0  0  0  0  0  0
  -20.8260    1.5109  -14.4784 C   0  0  0  0  0  0  0  0  0  0  0  0
  -21.8011    2.3997  -14.0786 C   0  0  0  0  0  0  0  0  0  0  0  0
  -23.2331    1.5505  -13.6673 S   0  0  0  0  0  0  0  0  0  0  0  0
  -19.5032    1.8876  -14.9690 C   0  0  0  0  0  0  0  0  0  0  0  0
  -19.2857    3.2112  -15.3872 C   0  0  0  0  0  0  0  0  0  0  0  0
  -18.0341    3.6494  -15.8422 C   0  0  0  0  0  0  0  0  0  0  0  0
  -17.0043    2.7099  -15.8484 C   0  0  0  0  0  0  0  0  0  0  0  0
  -15.6872    2.8035  -16.2173 N   0  0  0  0  0  0  0  0  0  0  0  0
  -14.9856    1.6677  -16.0394 N   0  0  0  0  0  0  0  0  0  0  0  0
  -15.8971    0.8112  -15.5699 C   0  0  0  0  0  0  0  0  0  0  0  0
  -17.1775    1.3932  -15.4416 C   0  0  0  0  0  0  0  0  0  0  0  0
  -18.4487    0.9603  -15.0204 C   0  0  0  0  0  0  0  0  0  0  0  0
  -15.2065    3.6102  -16.5942 H   0  0  0  0  0  0  0  0  0  0  0  0
  -23.0848   -1.1141  -13.7591 N   0  0  0  0  0  0  0  0  0  0  0  0
  -22.8449   -1.8868  -14.3676 H   0  0  0  0  0  0  0  0  0  0  0  0
  -26.9126   -1.6245  -12.0285 C   0  0  0  0  0  0  0  0  0  0  0  0
  -25.8261   -1.3479  -11.2064 C   0  0  0  0  0  0  0  0  0  0  0  0
  -24.5547   -1.1852  -11.7635 C   0  0  0  0  0  0  0  0  0  0  0  0
  -24.3487   -1.2664  -13.1484 C   0  0  0  0  0  0  0  0  0  0  0  0
  -25.4542   -1.5799  -13.9536 C   0  0  0  0  0  0  0  0  0  0  0  0
  -26.7275   -1.7490  -13.4002 C   0  0  0  0  0  0  0  0  0  0  0  0
 18 19  1  0  0  0
 18 23  2  0  0  0
 19 20  2  0  0  0
 20 21  1  0  0  0
 21 16  1  0  0  0
 21 22  2  0  0  0
 16  1  1  0  0  0
 16 17  1  0  0  0
  1  2  2  0  0  0
  1  5  1  0  0  0
  2  3  1  0  0  0
  3  6  1  0  0  0
  3  4  2  0  0  0
  6  7  1  0  0  0
  6 14  2  0  0  0
  7  8  2  0  0  0
  8  9  1  0  0  0
  9 10  1  0  0  0
  9 13  2  0  0  0
 10 11  1  0  0  0
 10 15  1  0  0  0
 11 12  2  0  0  0
 12 13  1  0  0  0
 13 14  1  0  0  0
  4  5  1  0  0  0
 22 23  1  0  0  0
M  END
> <minimizedAffinity>
-8.72543

$$$$
