CHEMBL3927104


 35 38  0  0  0  0  0  0  0  0999 V2000
  -19.5266    2.3731  -15.2388 C   0  0  0  0  0  0  0  0  0  0  0  0
  -19.6837    0.9845  -15.3283 C   0  0  0  0  0  0  0  0  0  0  0  0
  -20.7542    0.3423  -14.6926 C   0  0  0  0  0  0  0  0  0  0  0  0
  -21.6888    1.0821  -13.9668 C   0  0  0  0  0  0  0  0  0  0  0  0
  -21.4882    2.4597  -13.8103 C   0  0  0  0  0  0  0  0  0  0  0  0
  -20.3941    3.1027  -14.4225 C   0  0  0  0  0  0  0  0  0  0  0  0
  -16.3536    3.5758  -16.5625 N   0  0  0  0  0  0  0  0  0  0  0  0
  -17.2164    2.8572  -15.7434 C   0  0  0  0  0  0  0  0  0  0  0  0
  -16.8595    2.0717  -14.8761 O   0  0  0  0  0  0  0  0  0  0  0  0
  -18.5652    3.0454  -16.0566 N   0  0  0  0  0  0  0  0  0  0  0  0
  -16.7568    4.0403  -17.3615 H   0  0  0  0  0  0  0  0  0  0  0  0
  -18.7508    3.0206  -17.0482 H   0  0  0  0  0  0  0  0  0  0  0  0
  -12.1732    5.8020  -15.0185 C   0  0  0  0  0  0  0  0  0  0  0  0
  -12.8688    4.6706  -15.7228 C   0  0  0  0  0  0  0  0  0  0  0  0
  -12.1004    3.6663  -16.3193 C   0  0  0  0  0  0  0  0  0  0  0  0
  -12.7256    2.5972  -16.9450 C   0  0  0  0  0  0  0  0  0  0  0  0
  -14.1165    2.5297  -16.9952 C   0  0  0  0  0  0  0  0  0  0  0  0
  -14.6235    1.3921  -17.4858 F   0  0  0  0  0  0  0  0  0  0  0  0
  -14.9276    3.5488  -16.4677 C   0  0  0  0  0  0  0  0  0  0  0  0
  -14.2800    4.6063  -15.7993 C   0  0  0  0  0  0  0  0  0  0  0  0
  -22.8678    0.4291  -13.4556 C   0  0  0  0  0  0  0  0  0  0  0  0
  -23.8276   -0.1139  -12.9652 C   0  0  0  0  0  0  0  0  0  0  0  0
  -24.9646   -0.7718  -12.3903 C   0  0  0  0  0  0  0  0  0  0  0  0
  -25.0671   -0.9104  -10.9965 C   0  0  0  0  0  0  0  0  0  0  0  0
  -26.1692   -1.5396  -10.4164 C   0  0  0  0  0  0  0  0  0  0  0  0
  -27.2079   -2.0435  -11.2019 C   0  0  0  0  0  0  0  0  0  0  0  0
  -27.0900   -1.8941  -12.5875 C   0  0  0  0  0  0  0  0  0  0  0  0
  -27.9249   -2.2749  -13.6032 N   0  0  0  0  0  0  0  0  0  0  0  0
  -27.4788   -1.9679  -14.8267 N   0  0  0  0  0  0  0  0  0  0  0  0
  -26.3077   -1.3777  -14.5998 C   0  0  0  0  0  0  0  0  0  0  0  0
  -25.5378   -0.9371  -15.6040 N   0  0  0  0  0  0  0  0  0  0  0  0
  -26.0002   -1.2803  -13.2097 C   0  0  0  0  0  0  0  0  0  0  0  0
  -28.8167   -2.7493  -13.5229 H   0  0  0  0  0  0  0  0  0  0  0  0
  -25.9717   -0.8803  -16.5173 H   0  0  0  0  0  0  0  0  0  0  0  0
  -24.8217   -0.2404  -15.4420 H   0  0  0  0  0  0  0  0  0  0  0  0
 13 14  1  0  0  0
 14 15  1  0  0  0
 14 20  2  0  0  0
 15 16  2  0  0  0
 16 17  1  0  0  0
 17 18  1  0  0  0
 17 19  2  0  0  0
 19  7  1  0  0  0
 19 20  1  0  0  0
  7  8  1  0  0  0
  7 11  1  0  0  0
  8  9  2  0  0  0
  8 10  1  0  0  0
 10  1  1  0  0  0
 10 12  1  0  0  0
  1  2  1  0  0  0
  1  6  2  0  0  0
  2  3  2  0  0  0
  3  4  1  0  0  0
  4 21  1  0  0  0
  4  5  2  0  0  0
 21 22  3  0  0  0
 22 23  1  0  0  0
 23 24  1  0  0  0
 23 32  2  0  0  0
 24 25  2  0  0  0
 25 26  1  0  0  0
 26 27  2  0  0  0
 27 28  1  0  0  0
 27 32  1  0  0  0
 28 29  1  0  0  0
 28 33  1  0  0  0
 29 30  2  0  0  0
 30 31  1  0  0  0
 30 32  1  0  0  0
 31 34  1  0  0  0
 31 35  1  0  0  0
  5  6  1  0  0  0
M  END
> <minimizedAffinity>
-9.86927

$$$$
