CHEMBL2010870


 37 43  0  0  0  0  0  0  0  0999 V2000
  -28.8796   -8.9477   -4.9778 N   0  0  0  0  0  0  0  0  0  0  0  0
  -28.4129   -9.5300   -6.1949 C   0  0  0  0  0  0  0  0  0  0  0  0
  -27.8838  -10.8046   -6.4872 C   0  0  0  0  0  0  0  0  0  0  0  0
  -27.3506  -11.0454   -7.7718 C   0  0  0  0  0  0  0  0  0  0  0  0
  -27.3271  -10.0620   -8.7568 C   0  0  0  0  0  0  0  0  0  0  0  0
  -27.9330   -8.8356   -8.4688 C   0  0  0  0  0  0  0  0  0  0  0  0
  -28.4340   -8.5496   -7.1897 C   0  0  0  0  0  0  0  0  0  0  0  0
  -28.8814   -7.4401   -6.5127 C   0  0  0  0  0  0  0  0  0  0  0  0
  -28.6660   -6.1439   -7.0098 C   0  0  0  0  0  0  0  0  0  0  0  0
  -28.6290   -5.1249   -6.0374 C   0  0  0  0  0  0  0  0  0  0  0  0
  -28.9358   -5.3293   -4.6822 C   0  0  0  0  0  0  0  0  0  0  0  0
  -29.7322   -6.5089   -4.4665 C   0  0  0  0  0  0  0  0  0  0  0  0
  -29.2986   -7.6281   -5.2214 C   0  0  0  0  0  0  0  0  0  0  0  0
  -31.2732   -6.1273   -4.2996 C   0  0  0  0  0  0  0  0  0  0  0  0
  -31.6226   -4.6028   -4.5828 C   0  0  0  0  0  0  0  0  0  0  0  0
  -30.6371   -3.7912   -3.8199 C   0  0  0  0  0  0  0  0  0  0  0  0
  -30.8783   -2.9270   -2.8348 N   0  0  0  0  0  0  0  0  0  0  0  0
  -29.6712   -2.8421   -2.2193 N   0  0  0  0  0  0  0  0  0  0  0  0
  -29.5473   -2.0961   -0.9906 C   0  0  0  0  0  0  0  0  0  0  0  0
  -28.7273   -3.6948   -2.7393 C   0  0  0  0  0  0  0  0  0  0  0  0
  -29.2913   -4.1828   -3.8885 C   0  0  0  0  0  0  0  0  0  0  0  0
  -28.3934   -3.8820   -6.7384 C   0  0  0  0  0  0  0  0  0  0  0  0
  -28.2887   -2.7164   -6.3807 O   0  0  0  0  0  0  0  0  0  0  0  0
  -28.3357   -4.2445   -8.0809 N   0  0  0  0  0  0  0  0  0  0  0  0
  -28.4103   -5.6559   -8.3618 C   0  0  0  0  0  0  0  0  0  0  0  0
  -28.2375   -3.5291   -8.7856 H   0  0  0  0  0  0  0  0  0  0  0  0
  -29.2272  -10.9784   -3.4634 C   0  0  0  0  0  0  0  0  0  0  0  0
  -28.5972   -9.6029   -3.6935 C   0  0  0  0  0  0  0  0  0  0  0  0
  -27.1056   -9.6320   -3.3541 C   0  0  0  0  0  0  0  0  0  0  0  0
  -26.7655  -10.1991  -10.0304 N   0  0  0  0  0  0  0  0  0  0  0  0
  -26.0151  -10.8749  -10.1077 H   0  0  0  0  0  0  0  0  0  0  0  0
  -27.1976   -9.8873  -11.3114 C   0  0  0  0  0  0  0  0  0  0  0  0
  -26.4791   -9.1240  -12.1325 N   0  0  0  0  0  0  0  0  0  0  0  0
  -26.9621   -8.9684  -13.3799 C   0  0  0  0  0  0  0  0  0  0  0  0
  -28.1535   -9.4962  -13.8198 C   0  0  0  0  0  0  0  0  0  0  0  0
  -28.8249  -10.2500  -12.8926 C   0  0  0  0  0  0  0  0  0  0  0  0
  -28.3582  -10.4531  -11.6431 N   0  0  0  0  0  0  0  0  0  0  0  0
 27 28  1  0  0  0
 28 29  1  0  0  0
 28  1  1  0  0  0
  1  2  1  0  0  0
  1 13  1  0  0  0
  2  3  1  0  0  0
  2  7  2  0  0  0
  3  4  2  0  0  0
  4  5  1  0  0  0
  5 30  1  0  0  0
  5  6  2  0  0  0
 30 32  1  0  0  0
 30 31  1  0  0  0
 32 33  1  0  0  0
 32 37  2  0  0  0
 33 34  2  0  0  0
 34 35  1  0  0  0
 35 36  2  0  0  0
 36 37  1  0  0  0
  6  7  1  0  0  0
  7  8  1  0  0  0
  8  9  1  0  0  0
  8 13  2  0  0  0
  9 10  2  0  0  0
  9 25  1  0  0  0
 10 11  1  0  0  0
 10 22  1  0  0  0
 11 12  2  0  0  0
 11 21  1  0  0  0
 12 13  1  0  0  0
 12 14  1  0  0  0
 14 15  1  0  0  0
 15 16  1  0  0  0
 16 17  2  0  0  0
 16 21  1  0  0  0
 17 18  1  0  0  0
 18 19  1  0  0  0
 18 20  1  0  0  0
 20 21  2  0  0  0
 22 23  2  0  0  0
 22 24  1  0  0  0
 24 25  1  0  0  0
 24 26  1  0  0  0
M  END
> <minimizedAffinity>
-6.77290

$$$$
