CHEMBL281990


 31 34  0  0  0  0  0  0  0  0999 V2000
  -30.6473   -7.8951   -6.3501 C   0  0  0  0  0  0  0  0  0  0  0  0
  -29.9729   -9.0832   -6.6395 C   0  0  0  0  0  0  0  0  0  0  0  0
  -28.6907   -9.3428   -6.1241 C   0  0  0  0  0  0  0  0  0  0  0  0
  -27.9131  -10.4401   -6.4860 C   0  0  0  0  0  0  0  0  0  0  0  0
  -26.7105  -10.6751   -5.9262 N   0  0  0  0  0  0  0  0  0  0  0  0
  -26.2838   -9.7924   -5.0209 C   0  0  0  0  0  0  0  0  0  0  0  0
  -26.9346   -8.6941   -4.6321 N   0  0  0  0  0  0  0  0  0  0  0  0
  -28.1293   -8.4836   -5.1906 C   0  0  0  0  0  0  0  0  0  0  0  0
  -28.8401   -7.3539   -4.8373 C   0  0  0  0  0  0  0  0  0  0  0  0
  -30.0858   -7.0163   -5.4060 C   0  0  0  0  0  0  0  0  0  0  0  0
  -32.7079   -8.6500   -7.2796 C   0  0  0  0  0  0  0  0  0  0  0  0
  -31.8235   -7.5615   -6.9795 O   0  0  0  0  0  0  0  0  0  0  0  0
  -28.3796  -11.3022   -7.5180 N   0  0  0  0  0  0  0  0  0  0  0  0
  -29.3561  -11.5324   -7.3349 H   0  0  0  0  0  0  0  0  0  0  0  0
  -28.1792  -11.0054   -8.8825 C   0  0  0  0  0  0  0  0  0  0  0  0
  -26.8949  -10.7386   -9.3480 C   0  0  0  0  0  0  0  0  0  0  0  0
  -26.6988  -10.2463  -10.6350 C   0  0  0  0  0  0  0  0  0  0  0  0
  -27.7935  -10.0406  -11.4817 C   0  0  0  0  0  0  0  0  0  0  0  0
  -27.6073   -9.3443  -12.7959 C   0  0  0  0  0  0  0  0  0  0  0  0
  -29.0737  -10.4269  -11.0599 C   0  0  0  0  0  0  0  0  0  0  0  0
  -29.2541  -10.9094   -9.7680 C   0  0  0  0  0  0  0  0  0  0  0  0
  -30.4914  -11.2204   -9.3490 F   0  0  0  0  0  0  0  0  0  0  0  0
  -30.7656   -5.8537   -5.0654 O   0  0  0  0  0  0  0  0  0  0  0  0
  -29.9729   -4.6615   -5.1973 C   0  0  0  0  0  0  0  0  0  0  0  0
  -29.4526   -4.0601   -3.8815 C   0  0  0  0  0  0  0  0  0  0  0  0
  -30.0366   -2.6794   -3.5790 C   0  0  0  0  0  0  0  0  0  0  0  0
  -29.5689   -1.6252   -4.5871 C   0  0  0  0  0  0  0  0  0  0  0  0
  -28.1033   -1.5455   -4.6782 N   0  0  0  0  0  0  0  0  0  0  0  0
  -27.7186   -0.5730   -5.7051 C   0  0  0  0  0  0  0  0  0  0  0  0
  -27.4706   -2.8426   -4.9459 C   0  0  0  0  0  0  0  0  0  0  0  0
  -27.9168   -3.9225   -3.9495 C   0  0  0  0  0  0  0  0  0  0  0  0
 11 12  1  0  0  0
 12  1  1  0  0  0
  1  2  1  0  0  0
  1 10  2  0  0  0
  2  3  2  0  0  0
  3  4  1  0  0  0
  3  8  1  0  0  0
  4 13  1  0  0  0
  4  5  2  0  0  0
 13 15  1  0  0  0
 13 14  1  0  0  0
 15 16  1  0  0  0
 15 21  2  0  0  0
 16 17  2  0  0  0
 17 18  1  0  0  0
 18 19  1  0  0  0
 18 20  2  0  0  0
 20 21  1  0  0  0
 21 22  1  0  0  0
  5  6  1  0  0  0
  6  7  2  0  0  0
  7  8  1  0  0  0
  8  9  2  0  0  0
  9 10  1  0  0  0
 10 23  1  0  0  0
 23 24  1  0  0  0
 24 25  1  0  0  0
 25 26  1  0  0  0
 25 31  1  0  0  0
 26 27  1  0  0  0
 27 28  1  0  0  0
 28 29  1  0  0  0
 28 30  1  0  0  0
 30 31  1  0  0  0
M  END
> <minimizedAffinity>
-8.09126

$$$$
