CHEMBL1688860


 41 45  0  0  0  0  0  0  0  0999 V2000
  -28.7487   -2.0284   -6.4509 C   0  0  0  0  0  0  0  0  0  0  0  0
  -27.7517   -2.2682   -5.2621 C   0  0  0  0  0  0  0  0  0  0  0  0
  -28.4758   -2.8175   -3.9946 C   0  0  0  0  0  0  0  0  0  0  0  0
  -29.0163   -4.1628   -4.4421 C   0  0  0  0  0  0  0  0  0  0  0  0
  -28.4958   -5.3470   -3.9225 C   0  0  0  0  0  0  0  0  0  0  0  0
  -28.3786   -6.4396   -4.7737 C   0  0  0  0  0  0  0  0  0  0  0  0
  -28.7811   -6.3174   -6.1102 C   0  0  0  0  0  0  0  0  0  0  0  0
  -29.5641   -5.2433   -6.5290 C   0  0  0  0  0  0  0  0  0  0  0  0
  -29.6833   -4.1460   -5.6859 C   0  0  0  0  0  0  0  0  0  0  0  0
  -30.0753   -2.7858   -6.2187 C   0  0  0  0  0  0  0  0  0  0  0  0
  -27.5590   -1.3667   -8.5217 C   0  0  0  0  0  0  0  0  0  0  0  0
  -27.3039   -0.2793   -7.9907 O   0  0  0  0  0  0  0  0  0  0  0  0
  -28.2083   -2.3701   -7.7978 N   0  0  0  0  0  0  0  0  0  0  0  0
  -28.6606   -3.1211   -8.3068 H   0  0  0  0  0  0  0  0  0  0  0  0
  -25.1819   -1.7378  -11.4685 C   0  0  0  0  0  0  0  0  0  0  0  0
  -25.7403   -1.5101  -10.2016 C   0  0  0  0  0  0  0  0  0  0  0  0
  -27.1346   -1.5513   -9.9602 C   0  0  0  0  0  0  0  0  0  0  0  0
  -27.9831   -1.7641  -11.0565 C   0  0  0  0  0  0  0  0  0  0  0  0
  -27.4424   -1.9603  -12.3569 C   0  0  0  0  0  0  0  0  0  0  0  0
  -26.0434   -1.9743  -12.5379 C   0  0  0  0  0  0  0  0  0  0  0  0
  -28.3086   -2.1527  -13.5777 C   0  0  0  0  0  0  0  0  0  0  0  0
  -28.6308   -3.4574  -13.8125 F   0  0  0  0  0  0  0  0  0  0  0  0
  -29.4944   -1.4851  -13.4859 F   0  0  0  0  0  0  0  0  0  0  0  0
  -27.7148   -1.7004  -14.7150 F   0  0  0  0  0  0  0  0  0  0  0  0
  -23.6675   -1.7965  -11.6470 C   0  0  0  0  0  0  0  0  0  0  0  0
  -22.7168   -0.7541  -13.6309 C   0  0  0  0  0  0  0  0  0  0  0  0
  -23.0518   -0.5794  -12.2159 N   0  0  0  0  0  0  0  0  0  0  0  0
  -23.9835    0.5484  -12.0789 C   0  0  0  0  0  0  0  0  0  0  0  0
  -28.3244   -7.1634   -7.0971 O   0  0  0  0  0  0  0  0  0  0  0  0
  -29.2042   -8.1117   -7.5967 C   0  0  0  0  0  0  0  0  0  0  0  0
  -30.4132   -8.4732   -6.9970 C   0  0  0  0  0  0  0  0  0  0  0  0
  -31.2619   -9.3187   -7.6906 C   0  0  0  0  0  0  0  0  0  0  0  0
  -30.9751   -9.8330   -8.9022 N   0  0  0  0  0  0  0  0  0  0  0  0
  -29.7672   -9.5398   -9.4187 C   0  0  0  0  0  0  0  0  0  0  0  0
  -28.8283   -8.7265   -8.7978 C   0  0  0  0  0  0  0  0  0  0  0  0
  -27.5161   -8.4370   -9.4651 C   0  0  0  0  0  0  0  0  0  0  0  0
  -27.1394   -9.4934  -10.4925 C   0  0  0  0  0  0  0  0  0  0  0  0
  -28.3154   -9.9291  -11.3333 C   0  0  0  0  0  0  0  0  0  0  0  0
  -28.1855  -10.2828  -12.5052 O   0  0  0  0  0  0  0  0  0  0  0  0
  -29.5092  -10.0361  -10.6870 N   0  0  0  0  0  0  0  0  0  0  0  0
  -30.2816  -10.4691  -11.1729 H   0  0  0  0  0  0  0  0  0  0  0  0
 26 27  1  0  0  0
 27 28  1  0  0  0
 27 25  1  0  0  0
 25 15  1  0  0  0
 15 16  1  0  0  0
 15 20  2  0  0  0
 16 17  2  0  0  0
 17 11  1  0  0  0
 17 18  1  0  0  0
 11 12  2  0  0  0
 11 13  1  0  0  0
 13 14  1  0  0  0
  1  2  1  0  0  0
  1 10  1  0  0  0
  1 13  1  0  0  0
  2  3  1  0  0  0
  3  4  1  0  0  0
  4  5  1  0  0  0
  4  9  2  0  0  0
  5  6  2  0  0  0
  6  7  1  0  0  0
  7 29  1  0  0  0
  7  8  2  0  0  0
 29 30  1  0  0  0
 30 31  1  0  0  0
 30 35  2  0  0  0
 31 32  2  0  0  0
 32 33  1  0  0  0
 33 34  2  0  0  0
 34 35  1  0  0  0
 34 40  1  0  0  0
 35 36  1  0  0  0
 36 37  1  0  0  0
 37 38  1  0  0  0
 38 39  2  0  0  0
 38 40  1  0  0  0
 40 41  1  0  0  0
  8  9  1  0  0  0
  9 10  1  0  0  0
 18 19  2  0  0  0
 19 21  1  0  0  0
 19 20  1  0  0  0
 21 22  1  0  0  0
 21 23  1  0  0  0
 21 24  1  0  0  0
M  END
> <minimizedAffinity>
-10.13354

$$$$
