CHEMBL4241470


 37 41  0  0  0  0  0  0  0  0999 V2000
  -28.7777   -4.5135   -6.1981 C   0  0  0  0  0  0  0  0  0  0  0  0
  -28.1003   -3.3294   -5.8691 C   0  0  0  0  0  0  0  0  0  0  0  0
  -27.8333   -2.3484   -6.8202 C   0  0  0  0  0  0  0  0  0  0  0  0
  -28.1773   -2.5367   -8.1554 C   0  0  0  0  0  0  0  0  0  0  0  0
  -28.9013   -3.6818   -8.5003 C   0  0  0  0  0  0  0  0  0  0  0  0
  -29.2164   -4.6441   -7.5240 C   0  0  0  0  0  0  0  0  0  0  0  0
  -31.5698   -3.5529   -4.5730 N   0  0  0  0  0  0  0  0  0  0  0  0
  -31.1159   -4.6839   -3.9956 C   0  0  0  0  0  0  0  0  0  0  0  0
  -31.8614   -5.1414   -2.9478 O   0  0  0  0  0  0  0  0  0  0  0  0
  -31.3502   -6.3372   -2.4776 N   0  0  0  0  0  0  0  0  0  0  0  0
  -30.2782   -6.5858   -3.2330 C   0  0  0  0  0  0  0  0  0  0  0  0
  -29.4767   -7.6785   -3.1409 N   0  0  0  0  0  0  0  0  0  0  0  0
  -28.4500   -7.6765   -4.0356 C   0  0  0  0  0  0  0  0  0  0  0  0
  -28.2193   -6.6529   -4.9930 C   0  0  0  0  0  0  0  0  0  0  0  0
  -29.0256   -5.4987   -5.1439 C   0  0  0  0  0  0  0  0  0  0  0  0
  -30.0625   -5.5437   -4.2010 C   0  0  0  0  0  0  0  0  0  0  0  0
  -32.4985   -3.2385   -4.3034 H   0  0  0  0  0  0  0  0  0  0  0  0
  -31.3786   -3.3974   -5.5589 H   0  0  0  0  0  0  0  0  0  0  0  0
  -27.5458   -8.8500   -3.9624 C   0  0  0  0  0  0  0  0  0  0  0  0
  -28.0356  -10.1243   -3.6241 C   0  0  0  0  0  0  0  0  0  0  0  0
  -27.1851  -11.2317   -3.5381 C   0  0  0  0  0  0  0  0  0  0  0  0
  -25.8236  -11.0888   -3.7909 C   0  0  0  0  0  0  0  0  0  0  0  0
  -25.3130   -9.8430   -4.1367 C   0  0  0  0  0  0  0  0  0  0  0  0
  -26.1644   -8.7378   -4.2191 C   0  0  0  0  0  0  0  0  0  0  0  0
  -27.8335   -1.6003   -9.1519 N   0  0  0  0  0  0  0  0  0  0  0  0
  -26.9757   -1.8784  -10.2038 C   0  0  0  0  0  0  0  0  0  0  0  0
  -26.5474   -2.9918  -10.4801 O   0  0  0  0  0  0  0  0  0  0  0  0
  -26.6250   -0.7308  -10.8932 N   0  0  0  0  0  0  0  0  0  0  0  0
  -28.4523   -0.8150   -9.2879 H   0  0  0  0  0  0  0  0  0  0  0  0
  -26.5442    0.0926  -10.3129 H   0  0  0  0  0  0  0  0  0  0  0  0
  -25.8138   -0.7834  -12.0460 C   0  0  0  0  0  0  0  0  0  0  0  0
  -26.2430   -1.4400  -13.2117 C   0  0  0  0  0  0  0  0  0  0  0  0
  -25.4181   -1.5012  -14.3362 C   0  0  0  0  0  0  0  0  0  0  0  0
  -24.1558   -0.9129  -14.3019 C   0  0  0  0  0  0  0  0  0  0  0  0
  -23.7355   -0.2546  -13.1453 C   0  0  0  0  0  0  0  0  0  0  0  0
  -22.1573    0.4317  -13.0881 Cl  0  0  0  0  0  0  0  0  0  0  0  0
  -24.5658   -0.1688  -12.0257 C   0  0  0  0  0  0  0  0  0  0  0  0
  7  8  1  0  0  0
  7 17  1  0  0  0
  7 18  1  0  0  0
  8  9  1  0  0  0
  8 16  2  0  0  0
  9 10  1  0  0  0
 10 11  2  0  0  0
 11 12  1  0  0  0
 11 16  1  0  0  0
 12 13  2  0  0  0
 13 19  1  0  0  0
 13 14  1  0  0  0
 19 20  1  0  0  0
 19 24  2  0  0  0
 20 21  2  0  0  0
 21 22  1  0  0  0
 22 23  2  0  0  0
 23 24  1  0  0  0
 14 15  2  0  0  0
 15  1  1  0  0  0
 15 16  1  0  0  0
  1  2  1  0  0  0
  1  6  2  0  0  0
  2  3  2  0  0  0
  3  4  1  0  0  0
  4 25  1  0  0  0
  4  5  2  0  0  0
 25 26  1  0  0  0
 25 29  1  0  0  0
 26 27  2  0  0  0
 26 28  1  0  0  0
 28 31  1  0  0  0
 28 30  1  0  0  0
 31 32  1  0  0  0
 31 37  2  0  0  0
 32 33  2  0  0  0
 33 34  1  0  0  0
 34 35  2  0  0  0
 35 36  1  0  0  0
 35 37  1  0  0  0
  5  6  1  0  0  0
M  END
> <minimizedAffinity>
-9.80496

$$$$
