CHEMBL4453846


 37 40  0  0  0  0  0  0  0  0999 V2000
  -20.4302    1.3813  -14.4563 C   0  0  0  0  0  0  0  0  0  0  0  0
  -19.9090    0.3218  -15.2080 C   0  0  0  0  0  0  0  0  0  0  0  0
  -18.5395    0.2193  -15.5044 C   0  0  0  0  0  0  0  0  0  0  0  0
  -17.6392    1.1920  -15.0776 C   0  0  0  0  0  0  0  0  0  0  0  0
  -18.1633    2.2879  -14.3772 C   0  0  0  0  0  0  0  0  0  0  0  0
  -19.5360    2.3768  -14.0560 C   0  0  0  0  0  0  0  0  0  0  0  0
  -22.3239   -0.7737  -14.1192 O   0  0  0  0  0  0  0  0  0  0  0  0
  -22.6476    0.3863  -13.8992 C   0  0  0  0  0  0  0  0  0  0  0  0
  -21.8026    1.4729  -14.0675 N   0  0  0  0  0  0  0  0  0  0  0  0
  -23.9111    0.7268  -13.4420 N   0  0  0  0  0  0  0  0  0  0  0  0
  -22.1264    2.3724  -13.7375 H   0  0  0  0  0  0  0  0  0  0  0  0
  -24.2773    1.6363  -13.6860 H   0  0  0  0  0  0  0  0  0  0  0  0
  -24.8765   -0.2425  -13.0052 C   0  0  0  0  0  0  0  0  0  0  0  0
  -25.1940   -0.4071  -11.6469 C   0  0  0  0  0  0  0  0  0  0  0  0
  -26.1239   -1.3610  -11.2318 C   0  0  0  0  0  0  0  0  0  0  0  0
  -26.4561   -1.5543   -9.5539 Cl  0  0  0  0  0  0  0  0  0  0  0  0
  -26.7851   -2.1521  -12.1632 C   0  0  0  0  0  0  0  0  0  0  0  0
  -26.5019   -1.9915  -13.5209 C   0  0  0  0  0  0  0  0  0  0  0  0
  -25.5521   -1.0465  -13.9403 C   0  0  0  0  0  0  0  0  0  0  0  0
  -25.2068   -0.9350  -15.6295 Cl  0  0  0  0  0  0  0  0  0  0  0  0
  -16.2741    1.0909  -15.4173 N   0  0  0  0  0  0  0  0  0  0  0  0
  -15.9667    0.1670  -15.7224 H   0  0  0  0  0  0  0  0  0  0  0  0
  -15.2755    2.0944  -15.4816 C   0  0  0  0  0  0  0  0  0  0  0  0
  -15.4174    3.1446  -16.4051 C   0  0  0  0  0  0  0  0  0  0  0  0
  -14.4712    4.1536  -16.4852 C   0  0  0  0  0  0  0  0  0  0  0  0
  -13.4078    4.1334  -15.5870 C   0  0  0  0  0  0  0  0  0  0  0  0
  -13.2890    3.2209  -14.5519 C   0  0  0  0  0  0  0  0  0  0  0  0
  -12.3778    3.4249  -13.5813 N   0  0  0  0  0  0  0  0  0  0  0  0
  -12.3257    2.5558  -12.5773 C   0  0  0  0  0  0  0  0  0  0  0  0
  -12.9879    1.3992  -12.5331 N   0  0  0  0  0  0  0  0  0  0  0  0
  -13.8747    1.2276  -13.5241 C   0  0  0  0  0  0  0  0  0  0  0  0
  -14.4211   -0.0188  -13.4981 O   0  0  0  0  0  0  0  0  0  0  0  0
  -14.1857    2.1414  -14.5386 C   0  0  0  0  0  0  0  0  0  0  0  0
  -13.8602   -0.4272  -12.8083 H   0  0  0  0  0  0  0  0  0  0  0  0
  -12.3726    5.1273  -15.7367 N   0  0  0  0  0  0  0  0  0  0  0  0
  -12.5590    6.2196  -15.2090 O   0  0  0  0  0  0  0  0  0  0  0  0
  -11.3960    4.8228  -16.4448 O   0  0  0  0  0  0  0  0  0  0  0  0
  7  8  2  0  0  0
  8  9  1  0  0  0
  8 10  1  0  0  0
  9  1  1  0  0  0
  9 11  1  0  0  0
  1  2  1  0  0  0
  1  6  2  0  0  0
  2  3  2  0  0  0
  3  4  1  0  0  0
  4 21  1  0  0  0
  4  5  2  0  0  0
 21 23  1  0  0  0
 21 22  1  0  0  0
 23 24  1  0  0  0
 23 33  2  0  0  0
 24 25  2  0  0  0
 25 26  1  0  0  0
 26 35  1  0  0  0
 26 27  2  0  0  0
 35 36  2  0  0  0
 35 37  1  0  0  0
 27 28  1  0  0  0
 27 33  1  0  0  0
 28 29  2  0  0  0
 29 30  1  0  0  0
 30 31  2  0  0  0
 31 32  1  0  0  0
 31 33  1  0  0  0
 32 34  1  0  0  0
  5  6  1  0  0  0
 10 13  1  0  0  0
 10 12  1  0  0  0
 13 14  1  0  0  0
 13 19  2  0  0  0
 14 15  2  0  0  0
 15 16  1  0  0  0
 15 17  1  0  0  0
 17 18  2  0  0  0
 18 19  1  0  0  0
 19 20  1  0  0  0
M  CHG 1  35   1
M  CHG 1  37  -1
M  END
> <minimizedAffinity>
-9.04347

$$$$
