CHEMBL212953


 44 47  0  0  0  0  0  0  0  0999 V2000
  -26.2239   -9.3731   -6.1457 N   0  0  0  0  0  0  0  0  0  0  0  0
  -26.4772   -9.1069   -4.8058 C   0  0  0  0  0  0  0  0  0  0  0  0
  -25.7709   -9.4950   -3.8682 O   0  0  0  0  0  0  0  0  0  0  0  0
  -26.7875   -8.8881   -6.8387 H   0  0  0  0  0  0  0  0  0  0  0  0
  -27.7493   -8.3836   -4.4606 C   0  0  0  0  0  0  0  0  0  0  0  0
  -28.5830   -8.6362   -3.3923 C   0  0  0  0  0  0  0  0  0  0  0  0
  -29.6719   -7.7727   -3.1479 C   0  0  0  0  0  0  0  0  0  0  0  0
  -29.9178   -6.5968   -3.9108 C   0  0  0  0  0  0  0  0  0  0  0  0
  -31.0630   -5.7073   -3.5219 C   0  0  0  0  0  0  0  0  0  0  0  0
  -29.0730   -6.3068   -4.9853 C   0  0  0  0  0  0  0  0  0  0  0  0
  -28.0708   -7.2923   -5.2688 C   0  0  0  0  0  0  0  0  0  0  0  0
  -28.9455   -5.0163   -5.7402 C   0  0  0  0  0  0  0  0  0  0  0  0
  -29.3457   -5.1664   -7.0819 C   0  0  0  0  0  0  0  0  0  0  0  0
  -29.3282   -4.1827   -7.9781 C   0  0  0  0  0  0  0  0  0  0  0  0
  -28.4240   -3.2388   -7.7075 C   0  0  0  0  0  0  0  0  0  0  0  0
  -27.8919   -2.9840   -8.8289 N   0  0  0  0  0  0  0  0  0  0  0  0
  -27.6961   -1.7318   -9.0614 C   0  0  0  0  0  0  0  0  0  0  0  0
  -27.7067   -0.8304   -8.0718 N   0  0  0  0  0  0  0  0  0  0  0  0
  -27.8913   -1.3325   -6.7771 C   0  0  0  0  0  0  0  0  0  0  0  0
  -28.2411   -2.7043   -6.4883 C   0  0  0  0  0  0  0  0  0  0  0  0
  -28.4884   -3.6989   -5.3895 C   0  0  0  0  0  0  0  0  0  0  0  0
  -27.4231   -1.6672  -10.4158 N   0  0  0  0  0  0  0  0  0  0  0  0
  -26.0265   -1.4761  -10.8328 C   0  0  0  0  0  0  0  0  0  0  0  0
  -27.7687   -0.7046  -10.4932 H   0  0  0  0  0  0  0  0  0  0  0  0
  -25.7787  -11.4095   -7.4518 C   0  0  0  0  0  0  0  0  0  0  0  0
  -24.9147  -12.4658   -7.7778 C   0  0  0  0  0  0  0  0  0  0  0  0
  -23.5659  -12.4143   -7.4226 C   0  0  0  0  0  0  0  0  0  0  0  0
  -23.0675  -11.3206   -6.7076 C   0  0  0  0  0  0  0  0  0  0  0  0
  -23.9478  -10.2874   -6.3371 C   0  0  0  0  0  0  0  0  0  0  0  0
  -25.3106  -10.3233   -6.6722 C   0  0  0  0  0  0  0  0  0  0  0  0
  -27.3939  -10.9856   -9.2432 C   0  0  0  0  0  0  0  0  0  0  0  0
  -26.6015  -10.3980   -9.9774 O   0  0  0  0  0  0  0  0  0  0  0  0
  -27.0874  -11.4874   -7.9882 N   0  0  0  0  0  0  0  0  0  0  0  0
  -27.6745  -12.2668   -7.7059 H   0  0  0  0  0  0  0  0  0  0  0  0
  -28.8167  -11.2661   -9.7283 C   0  0  0  0  0  0  0  0  0  0  0  0
  -29.8716  -10.8699   -8.7596 N   0  0  0  0  0  0  0  0  0  0  0  0
  -30.6119   -8.6562   -7.8082 C   0  0  0  0  0  0  0  0  0  0  0  0
  -30.3749   -9.5119   -9.0473 C   0  0  0  0  0  0  0  0  0  0  0  0
  -30.9460  -11.8893   -8.7558 C   0  0  0  0  0  0  0  0  0  0  0  0
  -31.5310  -12.2603   -7.3905 C   0  0  0  0  0  0  0  0  0  0  0  0
  -21.6178  -11.2387   -6.2961 C   0  0  0  0  0  0  0  0  0  0  0  0
  -20.9465  -10.2102   -6.8880 F   0  0  0  0  0  0  0  0  0  0  0  0
  -21.4554  -11.0655   -4.9564 F   0  0  0  0  0  0  0  0  0  0  0  0
  -20.9227  -12.3648   -6.6192 F   0  0  0  0  0  0  0  0  0  0  0  0
 37 38  1  0  0  0
 38 36  1  0  0  0
 36 39  1  0  0  0
 36 35  1  0  0  0
 39 40  1  0  0  0
 35 31  1  0  0  0
 31 32  2  0  0  0
 31 33  1  0  0  0
 33 25  1  0  0  0
 33 34  1  0  0  0
 25 26  1  0  0  0
 25 30  2  0  0  0
 26 27  2  0  0  0
 27 28  1  0  0  0
 28 41  1  0  0  0
 28 29  2  0  0  0
 41 42  1  0  0  0
 41 43  1  0  0  0
 41 44  1  0  0  0
 29 30  1  0  0  0
 30  1  1  0  0  0
  1  2  1  0  0  0
  1  4  1  0  0  0
  2  3  2  0  0  0
  2  5  1  0  0  0
  5  6  1  0  0  0
  5 11  2  0  0  0
  6  7  2  0  0  0
  7  8  1  0  0  0
  8  9  1  0  0  0
  8 10  2  0  0  0
 10 12  1  0  0  0
 10 11  1  0  0  0
 12 13  1  0  0  0
 12 21  2  0  0  0
 13 14  2  0  0  0
 14 15  1  0  0  0
 15 16  1  0  0  0
 15 20  2  0  0  0
 16 17  2  0  0  0
 17 22  1  0  0  0
 17 18  1  0  0  0
 22 23  1  0  0  0
 22 24  1  0  0  0
 18 19  2  0  0  0
 19 20  1  0  0  0
 20 21  1  0  0  0
M  END
> <minimizedAffinity>
-8.73715

$$$$
