CHEMBL1761939


 35 38  0  0  0  0  0  0  0  0999 V2000
  -23.2000   -0.9967  -13.6852 C   0  0  0  0  0  0  0  0  0  0  0  0
  -24.4276   -1.0386  -14.3405 C   0  0  0  0  0  0  0  0  0  0  0  0
  -25.5747   -1.4416  -13.6605 C   0  0  0  0  0  0  0  0  0  0  0  0
  -25.5224   -1.8735  -12.3369 C   0  0  0  0  0  0  0  0  0  0  0  0
  -24.2652   -1.9492  -11.7186 C   0  0  0  0  0  0  0  0  0  0  0  0
  -23.1065   -1.5136  -12.3935 C   0  0  0  0  0  0  0  0  0  0  0  0
  -26.6849   -2.1924  -11.5822 N   0  0  0  0  0  0  0  0  0  0  0  0
  -26.8469   -1.9582  -10.2268 C   0  0  0  0  0  0  0  0  0  0  0  0
  -26.0602   -1.3416   -9.5141 O   0  0  0  0  0  0  0  0  0  0  0  0
  -27.9974   -2.5510   -9.7156 N   0  0  0  0  0  0  0  0  0  0  0  0
  -27.4741   -2.5754  -12.0821 H   0  0  0  0  0  0  0  0  0  0  0  0
  -28.2298   -3.4383  -10.1379 H   0  0  0  0  0  0  0  0  0  0  0  0
  -28.3044   -2.4040   -8.3372 C   0  0  0  0  0  0  0  0  0  0  0  0
  -28.9459   -3.4304   -7.6255 C   0  0  0  0  0  0  0  0  0  0  0  0
  -29.3374   -3.2397   -6.3004 C   0  0  0  0  0  0  0  0  0  0  0  0
  -29.0945   -2.0177   -5.6874 C   0  0  0  0  0  0  0  0  0  0  0  0
  -29.5149   -1.8344   -4.4270 F   0  0  0  0  0  0  0  0  0  0  0  0
  -28.4374   -0.9993   -6.3779 C   0  0  0  0  0  0  0  0  0  0  0  0
  -28.1794    0.5322   -5.6318 Cl  0  0  0  0  0  0  0  0  0  0  0  0
  -28.0142   -1.1980   -7.6965 C   0  0  0  0  0  0  0  0  0  0  0  0
  -22.0701   -0.4712  -14.2809 O   0  0  0  0  0  0  0  0  0  0  0  0
  -18.2492    2.8209  -15.0288 C   0  0  0  0  0  0  0  0  0  0  0  0
  -19.4492    3.5126  -14.7944 C   0  0  0  0  0  0  0  0  0  0  0  0
  -20.6390    2.8663  -14.5036 C   0  0  0  0  0  0  0  0  0  0  0  0
  -21.6968    3.6208  -14.1888 N   0  0  0  0  0  0  0  0  0  0  0  0
  -22.8123    2.9779  -13.8340 C   0  0  0  0  0  0  0  0  0  0  0  0
  -22.9715    1.6559  -13.8053 N   0  0  0  0  0  0  0  0  0  0  0  0
  -21.9107    0.9191  -14.2064 C   0  0  0  0  0  0  0  0  0  0  0  0
  -20.6722    1.4730  -14.5331 C   0  0  0  0  0  0  0  0  0  0  0  0
  -19.4964    0.7620  -14.8657 C   0  0  0  0  0  0  0  0  0  0  0  0
  -18.2758    1.4223  -15.0824 C   0  0  0  0  0  0  0  0  0  0  0  0
  -16.6186    3.5705  -16.5775 C   0  0  0  0  0  0  0  0  0  0  0  0
  -17.0713    3.4962  -15.2235 O   0  0  0  0  0  0  0  0  0  0  0  0
  -17.2499    0.5421  -15.3016 O   0  0  0  0  0  0  0  0  0  0  0  0
  -16.3484    0.2255  -14.2554 C   0  0  0  0  0  0  0  0  0  0  0  0
 32 33  1  0  0  0
 33 22  1  0  0  0
 22 23  1  0  0  0
 22 31  2  0  0  0
 23 24  2  0  0  0
 24 25  1  0  0  0
 24 29  1  0  0  0
 25 26  2  0  0  0
 26 27  1  0  0  0
 27 28  2  0  0  0
 28 21  1  0  0  0
 28 29  1  0  0  0
 21  1  1  0  0  0
  1  2  1  0  0  0
  1  6  2  0  0  0
  2  3  2  0  0  0
  3  4  1  0  0  0
  4  7  1  0  0  0
  4  5  2  0  0  0
  7  8  1  0  0  0
  7 11  1  0  0  0
  8  9  2  0  0  0
  8 10  1  0  0  0
 10 13  1  0  0  0
 10 12  1  0  0  0
 13 14  1  0  0  0
 13 20  2  0  0  0
 14 15  2  0  0  0
 15 16  1  0  0  0
 16 17  1  0  0  0
 16 18  2  0  0  0
 18 19  1  0  0  0
 18 20  1  0  0  0
  5  6  1  0  0  0
 29 30  2  0  0  0
 30 31  1  0  0  0
 31 34  1  0  0  0
 34 35  1  0  0  0
M  END
> <minimizedAffinity>
-11.74442

$$$$
