CHEMBL2409778


 35 39  0  0  0  0  0  0  0  0999 V2000
  -14.8466    0.0441  -13.5460 C   0  0  0  0  0  0  0  0  0  0  0  0
  -15.9489    0.2636  -14.3799 C   0  0  0  0  0  0  0  0  0  0  0  0
  -15.9575    1.3059  -15.3119 C   0  0  0  0  0  0  0  0  0  0  0  0
  -14.8895    2.2030  -15.3599 C   0  0  0  0  0  0  0  0  0  0  0  0
  -13.7753    1.9914  -14.5482 C   0  0  0  0  0  0  0  0  0  0  0  0
  -13.7638    0.9222  -13.6521 C   0  0  0  0  0  0  0  0  0  0  0  0
  -12.6753    0.7306  -12.8874 F   0  0  0  0  0  0  0  0  0  0  0  0
  -14.4389   -2.3258  -12.8858 C   0  0  0  0  0  0  0  0  0  0  0  0
  -14.0674   -2.6665  -14.0074 O   0  0  0  0  0  0  0  0  0  0  0  0
  -14.7784   -1.0128  -12.5977 N   0  0  0  0  0  0  0  0  0  0  0  0
  -14.8980   -0.7481  -11.6266 H   0  0  0  0  0  0  0  0  0  0  0  0
  -13.7483   -5.1914   -8.7249 C   0  0  0  0  0  0  0  0  0  0  0  0
  -14.2229   -4.5492   -9.9731 C   0  0  0  0  0  0  0  0  0  0  0  0
  -13.6847   -3.4506  -10.6803 C   0  0  0  0  0  0  0  0  0  0  0  0
  -14.4950   -3.2755  -11.7953 C   0  0  0  0  0  0  0  0  0  0  0  0
  -15.4744   -4.2447  -11.6599 N   0  0  0  0  0  0  0  0  0  0  0  0
  -16.6132   -4.5484  -12.4957 C   0  0  0  0  0  0  0  0  0  0  0  0
  -15.3091   -5.0276  -10.5775 N   0  0  0  0  0  0  0  0  0  0  0  0
  -17.0863    1.3950  -16.0845 O   0  0  0  0  0  0  0  0  0  0  0  0
  -18.3202    1.7317  -15.5501 C   0  0  0  0  0  0  0  0  0  0  0  0
  -18.6860    3.1247  -15.2937 C   0  0  0  0  0  0  0  0  0  0  0  0
  -19.8613    3.4489  -14.7190 C   0  0  0  0  0  0  0  0  0  0  0  0
  -20.8004    2.4249  -14.4179 C   0  0  0  0  0  0  0  0  0  0  0  0
  -21.9992    2.4489  -13.8783 N   0  0  0  0  0  0  0  0  0  0  0  0
  -22.3507    1.1275  -13.8556 C   0  0  0  0  0  0  0  0  0  0  0  0
  -21.4624    0.2976  -14.3928 N   0  0  0  0  0  0  0  0  0  0  0  0
  -20.4544    1.1137  -14.7473 N   0  0  0  0  0  0  0  0  0  0  0  0
  -19.2333    0.7766  -15.3164 C   0  0  0  0  0  0  0  0  0  0  0  0
  -23.5496    0.7961  -13.2913 N   0  0  0  0  0  0  0  0  0  0  0  0
  -23.7025   -0.1480  -12.3105 C   0  0  0  0  0  0  0  0  0  0  0  0
  -22.8334   -0.8210  -11.7754 O   0  0  0  0  0  0  0  0  0  0  0  0
  -24.3216    1.3699  -13.5883 H   0  0  0  0  0  0  0  0  0  0  0  0
  -25.1175   -0.2724  -11.8401 C   0  0  0  0  0  0  0  0  0  0  0  0
  -25.5374   -1.5277  -11.1085 C   0  0  0  0  0  0  0  0  0  0  0  0
  -26.0571   -1.2640  -12.4908 C   0  0  0  0  0  0  0  0  0  0  0  0
 12 13  1  0  0  0
 13 14  1  0  0  0
 13 18  2  0  0  0
 14 15  2  0  0  0
 15  8  1  0  0  0
 15 16  1  0  0  0
  8  9  2  0  0  0
  8 10  1  0  0  0
 10  1  1  0  0  0
 10 11  1  0  0  0
  1  2  1  0  0  0
  1  6  2  0  0  0
  2  3  2  0  0  0
  3 19  1  0  0  0
  3  4  1  0  0  0
 19 20  1  0  0  0
 20 21  1  0  0  0
 20 28  2  0  0  0
 21 22  2  0  0  0
 22 23  1  0  0  0
 23 24  2  0  0  0
 23 27  1  0  0  0
 24 25  1  0  0  0
 25 29  1  0  0  0
 25 26  2  0  0  0
 29 30  1  0  0  0
 29 32  1  0  0  0
 30 31  2  0  0  0
 30 33  1  0  0  0
 33 34  1  0  0  0
 33 35  1  0  0  0
 34 35  1  0  0  0
 26 27  1  0  0  0
 27 28  1  0  0  0
  4  5  2  0  0  0
  5  6  1  0  0  0
  6  7  1  0  0  0
 16 17  1  0  0  0
 16 18  1  0  0  0
M  END
> <minimizedAffinity>
-9.42891

$$$$
