CHEMBL360450


 35 38  0  0  0  0  0  0  0  0999 V2000
  -27.8763   -9.4639   -5.6337 C   0  0  0  0  0  0  0  0  0  0  0  0
  -27.6590   -8.4908   -4.5791 C   0  0  0  0  0  0  0  0  0  0  0  0
  -26.3163   -8.5846   -4.2512 C   0  0  0  0  0  0  0  0  0  0  0  0
  -25.7315   -9.5407   -5.0235 N   0  0  0  0  0  0  0  0  0  0  0  0
  -24.4403   -9.8763   -4.9459 N   0  0  0  0  0  0  0  0  0  0  0  0
  -24.0971  -10.8088   -5.7757 C   0  0  0  0  0  0  0  0  0  0  0  0
  -24.9066  -11.4381   -6.6730 N   0  0  0  0  0  0  0  0  0  0  0  0
  -26.1749  -11.1322   -6.7518 C   0  0  0  0  0  0  0  0  0  0  0  0
  -26.6541  -10.0997   -5.8620 C   0  0  0  0  0  0  0  0  0  0  0  0
  -28.6107   -7.5589   -3.9573 C   0  0  0  0  0  0  0  0  0  0  0  0
  -29.4482   -7.9126   -3.1353 O   0  0  0  0  0  0  0  0  0  0  0  0
  -28.4684   -6.2490   -4.3646 N   0  0  0  0  0  0  0  0  0  0  0  0
  -27.7356   -6.0237   -5.0224 H   0  0  0  0  0  0  0  0  0  0  0  0
  -29.3059   -5.1736   -3.8675 C   0  0  0  0  0  0  0  0  0  0  0  0
  -30.2785   -4.7087   -4.9483 C   0  0  0  0  0  0  0  0  0  0  0  0
  -29.8835   -3.3486   -5.5404 C   0  0  0  0  0  0  0  0  0  0  0  0
  -28.4840   -3.3282   -6.0080 N   0  0  0  0  0  0  0  0  0  0  0  0
  -27.7221   -2.2321   -5.3801 C   0  0  0  0  0  0  0  0  0  0  0  0
  -27.9753   -1.0312   -6.2709 C   0  0  0  0  0  0  0  0  0  0  0  0
  -27.9437   -1.6377   -7.6586 C   0  0  0  0  0  0  0  0  0  0  0  0
  -28.3591   -3.0906   -7.4591 C   0  0  0  0  0  0  0  0  0  0  0  0
  -26.9738  -11.8187   -7.6446 N   0  0  0  0  0  0  0  0  0  0  0  0
  -27.4649  -12.6391   -7.3244 H   0  0  0  0  0  0  0  0  0  0  0  0
  -27.4037  -11.3436   -8.9004 C   0  0  0  0  0  0  0  0  0  0  0  0
  -28.5197  -11.8725   -9.5595 C   0  0  0  0  0  0  0  0  0  0  0  0
  -28.9368  -11.3761  -10.7985 C   0  0  0  0  0  0  0  0  0  0  0  0
  -28.2564  -10.3188  -11.4114 C   0  0  0  0  0  0  0  0  0  0  0  0
  -28.7087   -9.8409  -12.7596 C   0  0  0  0  0  0  0  0  0  0  0  0
  -27.1647   -9.7640  -10.7355 C   0  0  0  0  0  0  0  0  0  0  0  0
  -26.4427   -8.7166  -11.2366 O   0  0  0  0  0  0  0  0  0  0  0  0
  -26.7455  -10.2629   -9.4972 C   0  0  0  0  0  0  0  0  0  0  0  0
  -26.7827   -8.4844  -12.1146 H   0  0  0  0  0  0  0  0  0  0  0  0
  -29.1872   -9.7485   -6.3078 C   0  0  0  0  0  0  0  0  0  0  0  0
  -30.9061   -8.7817   -7.8928 C   0  0  0  0  0  0  0  0  0  0  0  0
  -29.4637   -8.7350   -7.4206 C   0  0  0  0  0  0  0  0  0  0  0  0
 34 35  1  0  0  0
 35 33  1  0  0  0
 33  1  1  0  0  0
  1  2  1  0  0  0
  1  9  2  0  0  0
  2 10  1  0  0  0
  2  3  2  0  0  0
 10 11  2  0  0  0
 10 12  1  0  0  0
 12 14  1  0  0  0
 12 13  1  0  0  0
 14 15  1  0  0  0
 15 16  1  0  0  0
 16 17  1  0  0  0
 17 18  1  0  0  0
 17 21  1  0  0  0
 18 19  1  0  0  0
 19 20  1  0  0  0
 20 21  1  0  0  0
  3  4  1  0  0  0
  4  5  1  0  0  0
  4  9  1  0  0  0
  5  6  2  0  0  0
  6  7  1  0  0  0
  7  8  2  0  0  0
  8 22  1  0  0  0
  8  9  1  0  0  0
 22 24  1  0  0  0
 22 23  1  0  0  0
 24 25  1  0  0  0
 24 31  2  0  0  0
 25 26  2  0  0  0
 26 27  1  0  0  0
 27 28  1  0  0  0
 27 29  2  0  0  0
 29 30  1  0  0  0
 29 31  1  0  0  0
 30 32  1  0  0  0
M  END
> <minimizedAffinity>
-7.75106

$$$$
