CHEMBL3706836


 39 43  0  0  0  0  0  0  0  0999 V2000
  -13.4384   -3.9156  -14.3397 C   0  0  0  0  0  0  0  0  0  0  0  0
  -13.5594   -2.6354  -14.8820 C   0  0  0  0  0  0  0  0  0  0  0  0
  -12.9504   -1.5201  -14.2802 C   0  0  0  0  0  0  0  0  0  0  0  0
  -13.2158   -0.1831  -14.6370 C   0  0  0  0  0  0  0  0  0  0  0  0
  -12.5632    0.8272  -14.0516 N   0  0  0  0  0  0  0  0  0  0  0  0
  -11.7010    0.5199  -13.0724 C   0  0  0  0  0  0  0  0  0  0  0  0
  -11.4314   -0.7050  -12.6171 N   0  0  0  0  0  0  0  0  0  0  0  0
  -12.0613   -1.7230  -13.2157 C   0  0  0  0  0  0  0  0  0  0  0  0
  -11.8322   -3.0277  -12.7803 C   0  0  0  0  0  0  0  0  0  0  0  0
  -12.4938   -4.1338  -13.3357 C   0  0  0  0  0  0  0  0  0  0  0  0
  -13.7843   -5.6453  -15.8959 C   0  0  0  0  0  0  0  0  0  0  0  0
  -14.2657   -4.9314  -14.7499 O   0  0  0  0  0  0  0  0  0  0  0  0
  -14.1635    0.1121  -15.6515 N   0  0  0  0  0  0  0  0  0  0  0  0
  -14.3511   -0.6669  -16.2781 H   0  0  0  0  0  0  0  0  0  0  0  0
  -15.2971    0.9123  -15.5500 C   0  0  0  0  0  0  0  0  0  0  0  0
  -15.4964    2.1053  -16.1044 C   0  0  0  0  0  0  0  0  0  0  0  0
  -16.6752    2.9570  -15.8744 C   0  0  0  0  0  0  0  0  0  0  0  0
  -16.7741    4.0280  -16.4611 O   0  0  0  0  0  0  0  0  0  0  0  0
  -17.6852    2.4729  -14.8925 C   0  0  0  0  0  0  0  0  0  0  0  0
  -17.5496    1.2475  -14.3779 C   0  0  0  0  0  0  0  0  0  0  0  0
  -16.3892    0.3848  -14.6538 C   0  0  0  0  0  0  0  0  0  0  0  0
  -16.2952   -0.7217  -14.1262 O   0  0  0  0  0  0  0  0  0  0  0  0
  -18.7686    3.2458  -14.5010 O   0  0  0  0  0  0  0  0  0  0  0  0
  -19.8932    3.2233  -15.3911 C   0  0  0  0  0  0  0  0  0  0  0  0
  -20.9873    2.3860  -14.7722 C   0  0  0  0  0  0  0  0  0  0  0  0
  -20.9223    0.9849  -14.8078 C   0  0  0  0  0  0  0  0  0  0  0  0
  -21.9199    0.2137  -14.2089 C   0  0  0  0  0  0  0  0  0  0  0  0
  -22.9919    0.8338  -13.5705 C   0  0  0  0  0  0  0  0  0  0  0  0
  -23.0707    2.2246  -13.5346 C   0  0  0  0  0  0  0  0  0  0  0  0
  -22.0735    2.9977  -14.1312 C   0  0  0  0  0  0  0  0  0  0  0  0
  -12.1609   -5.3441  -12.7795 O   0  0  0  0  0  0  0  0  0  0  0  0
  -11.8996   -5.3348  -11.3676 C   0  0  0  0  0  0  0  0  0  0  0  0
  -13.0080   -6.1138  -10.6544 C   0  0  0  0  0  0  0  0  0  0  0  0
  -14.3327   -6.0350  -11.4301 C   0  0  0  0  0  0  0  0  0  0  0  0
  -15.3965   -5.3047  -10.7188 N   0  0  0  0  0  0  0  0  0  0  0  0
  -16.5501   -4.9480  -11.5571 C   0  0  0  0  0  0  0  0  0  0  0  0
  -16.2082   -3.6048  -12.1682 C   0  0  0  0  0  0  0  0  0  0  0  0
  -15.4528   -2.9015  -11.0598 C   0  0  0  0  0  0  0  0  0  0  0  0
  -14.8963   -4.0212  -10.1836 C   0  0  0  0  0  0  0  0  0  0  0  0
 11 12  1  0  0  0
 12  1  1  0  0  0
  1  2  1  0  0  0
  1 10  2  0  0  0
  2  3  2  0  0  0
  3  4  1  0  0  0
  3  8  1  0  0  0
  4 13  1  0  0  0
  4  5  2  0  0  0
 13 15  1  0  0  0
 13 14  1  0  0  0
 15 16  2  0  0  0
 15 21  1  0  0  0
 16 17  1  0  0  0
 17 18  2  0  0  0
 17 19  1  0  0  0
 19 23  1  0  0  0
 19 20  2  0  0  0
 23 24  1  0  0  0
 24 25  1  0  0  0
 25 26  1  0  0  0
 25 30  2  0  0  0
 26 27  2  0  0  0
 27 28  1  0  0  0
 28 29  2  0  0  0
 29 30  1  0  0  0
 20 21  1  0  0  0
 21 22  2  0  0  0
  5  6  1  0  0  0
  6  7  2  0  0  0
  7  8  1  0  0  0
  8  9  2  0  0  0
  9 10  1  0  0  0
 10 31  1  0  0  0
 31 32  1  0  0  0
 32 33  1  0  0  0
 33 34  1  0  0  0
 34 35  1  0  0  0
 35 36  1  0  0  0
 35 39  1  0  0  0
 36 37  1  0  0  0
 37 38  1  0  0  0
 38 39  1  0  0  0
M  END
> <minimizedAffinity>
-8.62875

$$$$
