CHEMBL3671510


 38 40  0  0  0  0  0  0  0  0999 V2000
  -13.9236   -2.9059  -12.7485 C   0  0  0  0  0  0  0  0  0  0  0  0
  -14.4005   -1.7427  -13.3536 C   0  0  0  0  0  0  0  0  0  0  0  0
  -13.9080   -1.3471  -14.6194 C   0  0  0  0  0  0  0  0  0  0  0  0
  -14.2608   -0.1434  -15.2583 C   0  0  0  0  0  0  0  0  0  0  0  0
  -13.7771    0.1839  -16.4686 N   0  0  0  0  0  0  0  0  0  0  0  0
  -12.9075   -0.6700  -17.0148 C   0  0  0  0  0  0  0  0  0  0  0  0
  -12.4891   -1.8261  -16.4839 N   0  0  0  0  0  0  0  0  0  0  0  0
  -12.9959   -2.1619  -15.2920 C   0  0  0  0  0  0  0  0  0  0  0  0
  -12.5985   -3.3608  -14.7014 C   0  0  0  0  0  0  0  0  0  0  0  0
  -13.0683   -3.7647  -13.4451 C   0  0  0  0  0  0  0  0  0  0  0  0
  -15.2592   -3.7261  -10.8758 C   0  0  0  0  0  0  0  0  0  0  0  0
  -15.2907   -4.1133   -9.7117 O   0  0  0  0  0  0  0  0  0  0  0  0
  -14.1548   -3.0676  -11.3696 N   0  0  0  0  0  0  0  0  0  0  0  0
  -13.3476   -3.2772  -10.7914 H   0  0  0  0  0  0  0  0  0  0  0  0
  -16.8166   -5.2576  -11.9663 C   0  0  0  0  0  0  0  0  0  0  0  0
  -16.3671   -4.0042  -11.8308 C   0  0  0  0  0  0  0  0  0  0  0  0
  -15.1036    0.7714  -14.5939 N   0  0  0  0  0  0  0  0  0  0  0  0
  -14.5680    1.4848  -14.1089 H   0  0  0  0  0  0  0  0  0  0  0  0
  -16.3848    1.2179  -14.9782 C   0  0  0  0  0  0  0  0  0  0  0  0
  -17.5305    0.4454  -14.7580 C   0  0  0  0  0  0  0  0  0  0  0  0
  -18.8054    0.9965  -14.9191 C   0  0  0  0  0  0  0  0  0  0  0  0
  -18.9412    2.3261  -15.3154 C   0  0  0  0  0  0  0  0  0  0  0  0
  -20.6613    3.1054  -15.3927 Br  0  0  0  0  0  0  0  0  0  0  0  0
  -17.8198    3.0952  -15.6055 C   0  0  0  0  0  0  0  0  0  0  0  0
  -16.5574    2.5363  -15.4278 C   0  0  0  0  0  0  0  0  0  0  0  0
  -15.4748    3.2954  -15.6641 F   0  0  0  0  0  0  0  0  0  0  0  0
  -12.5844   -4.9750  -13.0026 O   0  0  0  0  0  0  0  0  0  0  0  0
  -13.5147   -6.0629  -13.0840 C   0  0  0  0  0  0  0  0  0  0  0  0
  -13.2930   -7.0818  -11.9623 C   0  0  0  0  0  0  0  0  0  0  0  0
  -13.4340   -6.4566  -10.6505 N   0  0  0  0  0  0  0  0  0  0  0  0
  -12.3414   -5.9091  -10.0313 C   0  0  0  0  0  0  0  0  0  0  0  0
  -11.2147   -5.9137  -10.5102 O   0  0  0  0  0  0  0  0  0  0  0  0
  -12.6597   -5.3592   -8.8155 N   0  0  0  0  0  0  0  0  0  0  0  0
  -14.3282   -6.0578  -10.4076 H   0  0  0  0  0  0  0  0  0  0  0  0
  -13.4104   -5.8212   -8.3216 H   0  0  0  0  0  0  0  0  0  0  0  0
  -11.6322   -4.7037   -8.0115 C   0  0  0  0  0  0  0  0  0  0  0  0
  -11.6404   -3.2003   -8.2650 C   0  0  0  0  0  0  0  0  0  0  0  0
  -11.7983   -4.9979   -6.5215 C   0  0  0  0  0  0  0  0  0  0  0  0
 15 16  2  0  0  0
 16 11  1  0  0  0
 11 12  2  0  0  0
 11 13  1  0  0  0
 13  1  1  0  0  0
 13 14  1  0  0  0
  1  2  1  0  0  0
  1 10  2  0  0  0
  2  3  2  0  0  0
  3  4  1  0  0  0
  3  8  1  0  0  0
  4 17  1  0  0  0
  4  5  2  0  0  0
 17 19  1  0  0  0
 17 18  1  0  0  0
 19 20  1  0  0  0
 19 25  2  0  0  0
 20 21  2  0  0  0
 21 22  1  0  0  0
 22 23  1  0  0  0
 22 24  2  0  0  0
 24 25  1  0  0  0
 25 26  1  0  0  0
  5  6  1  0  0  0
  6  7  2  0  0  0
  7  8  1  0  0  0
  8  9  2  0  0  0
  9 10  1  0  0  0
 10 27  1  0  0  0
 27 28  1  0  0  0
 28 29  1  0  0  0
 29 30  1  0  0  0
 30 31  1  0  0  0
 30 34  1  0  0  0
 31 32  2  0  0  0
 31 33  1  0  0  0
 33 36  1  0  0  0
 33 35  1  0  0  0
 36 37  1  0  0  0
 36 38  1  0  0  0
M  END
> <minimizedAffinity>
-7.76994

$$$$
