CHEMBL3128226


 38 42  0  0  0  0  0  0  0  0999 V2000
  -13.1111   -1.7531  -16.0423 C   0  0  0  0  0  0  0  0  0  0  0  0
  -13.0335   -5.1431  -14.2180 C   0  0  0  0  0  0  0  0  0  0  0  0
  -12.0253   -5.7976  -14.9205 C   0  0  0  0  0  0  0  0  0  0  0  0
  -11.3520   -5.1369  -15.9494 C   0  0  0  0  0  0  0  0  0  0  0  0
  -11.6848   -3.8205  -16.2781 C   0  0  0  0  0  0  0  0  0  0  0  0
  -12.6949   -3.1417  -15.5799 C   0  0  0  0  0  0  0  0  0  0  0  0
  -13.3623   -3.8210  -14.5387 C   0  0  0  0  0  0  0  0  0  0  0  0
  -13.7505   -5.8378  -13.1951 N   0  0  0  0  0  0  0  0  0  0  0  0
  -13.1667   -6.3905  -12.5628 H   0  0  0  0  0  0  0  0  0  0  0  0
  -14.8341   -8.0695  -13.0221 O   0  0  0  0  0  0  0  0  0  0  0  0
  -15.1065   -6.7775  -13.6246 S   0  0  0  0  0  0  0  0  0  0  0  0
  -15.3406   -6.6445  -15.0459 O   0  0  0  0  0  0  0  0  0  0  0  0
  -16.4150   -5.9668  -12.6931 C   0  0  0  0  0  0  0  0  0  0  0  0
  -15.8437   -5.0948  -11.5993 C   0  0  0  0  0  0  0  0  0  0  0  0
  -14.8512   -5.5840  -10.7339 C   0  0  0  0  0  0  0  0  0  0  0  0
  -14.2789   -4.7551   -9.7635 C   0  0  0  0  0  0  0  0  0  0  0  0
  -14.6925   -3.4317   -9.6414 C   0  0  0  0  0  0  0  0  0  0  0  0
  -15.6831   -2.9364  -10.4855 C   0  0  0  0  0  0  0  0  0  0  0  0
  -16.2583   -3.7628  -11.4560 C   0  0  0  0  0  0  0  0  0  0  0  0
  -12.9639   -0.7946  -14.9660 N   0  0  0  0  0  0  0  0  0  0  0  0
  -12.2839   -0.0641  -15.1515 H   0  0  0  0  0  0  0  0  0  0  0  0
  -14.1178   -0.2971  -14.3742 C   0  0  0  0  0  0  0  0  0  0  0  0
  -14.5177   -0.6923  -13.1415 N   0  0  0  0  0  0  0  0  0  0  0  0
  -15.6432   -0.1542  -12.6221 C   0  0  0  0  0  0  0  0  0  0  0  0
  -16.4500    0.7757  -13.1620 N   0  0  0  0  0  0  0  0  0  0  0  0
  -16.0097    1.1670  -14.3728 C   0  0  0  0  0  0  0  0  0  0  0  0
  -14.8937    0.6716  -15.0255 C   0  0  0  0  0  0  0  0  0  0  0  0
  -14.8544    1.3788  -16.2424 C   0  0  0  0  0  0  0  0  0  0  0  0
  -15.8522    2.2585  -16.3666 N   0  0  0  0  0  0  0  0  0  0  0  0
  -16.5318    2.1325  -15.1964 N   0  0  0  0  0  0  0  0  0  0  0  0
  -17.6946    2.9844  -14.9884 C   0  0  0  0  0  0  0  0  0  0  0  0
  -18.8839    2.6965  -15.9026 C   0  0  0  0  0  0  0  0  0  0  0  0
  -20.1061    2.2245  -15.1505 C   0  0  0  0  0  0  0  0  0  0  0  0
  -21.0218    3.1533  -14.6361 C   0  0  0  0  0  0  0  0  0  0  0  0
  -22.1877    2.7211  -14.0018 C   0  0  0  0  0  0  0  0  0  0  0  0
  -22.4437    1.3585  -13.8657 C   0  0  0  0  0  0  0  0  0  0  0  0
  -21.5264    0.4270  -14.3492 C   0  0  0  0  0  0  0  0  0  0  0  0
  -20.3595    0.8568  -14.9845 C   0  0  0  0  0  0  0  0  0  0  0  0
 10 11  2  0  0  0
 11 12  2  0  0  0
 11 13  1  0  0  0
 11  8  1  0  0  0
 13 14  1  0  0  0
 14 15  1  0  0  0
 14 19  2  0  0  0
 15 16  2  0  0  0
 16 17  1  0  0  0
 17 18  2  0  0  0
 18 19  1  0  0  0
  8  2  1  0  0  0
  8  9  1  0  0  0
  2  3  1  0  0  0
  2  7  2  0  0  0
  3  4  2  0  0  0
  4  5  1  0  0  0
  5  6  2  0  0  0
  6  1  1  0  0  0
  6  7  1  0  0  0
  1 20  1  0  0  0
 20 22  1  0  0  0
 20 21  1  0  0  0
 22 23  1  0  0  0
 22 27  2  0  0  0
 23 24  2  0  0  0
 24 25  1  0  0  0
 25 26  2  0  0  0
 26 27  1  0  0  0
 26 30  1  0  0  0
 27 28  1  0  0  0
 28 29  2  0  0  0
 29 30  1  0  0  0
 30 31  1  0  0  0
 31 32  1  0  0  0
 32 33  1  0  0  0
 33 34  1  0  0  0
 33 38  2  0  0  0
 34 35  2  0  0  0
 35 36  1  0  0  0
 36 37  2  0  0  0
 37 38  1  0  0  0
M  END
> <minimizedAffinity>
-9.08632

$$$$
