CHEMBL408478


 38 42  0  0  0  0  0  0  0  0999 V2000
  -14.7197    0.1841  -13.8531 C   0  0  0  0  0  0  0  0  0  0  0  0
  -15.9304   -0.0004  -13.1907 C   0  0  0  0  0  0  0  0  0  0  0  0
  -17.0649    0.7406  -13.5508 C   0  0  0  0  0  0  0  0  0  0  0  0
  -17.0169    1.7379  -14.5570 C   0  0  0  0  0  0  0  0  0  0  0  0
  -18.1075    2.5576  -14.9797 C   0  0  0  0  0  0  0  0  0  0  0  0
  -17.9344    3.4992  -16.0125 C   0  0  0  0  0  0  0  0  0  0  0  0
  -16.7030    3.6606  -16.6313 C   0  0  0  0  0  0  0  0  0  0  0  0
  -15.6331    2.8651  -16.2404 C   0  0  0  0  0  0  0  0  0  0  0  0
  -15.7728    1.9031  -15.2280 C   0  0  0  0  0  0  0  0  0  0  0  0
  -14.6644    1.0994  -14.9023 C   0  0  0  0  0  0  0  0  0  0  0  0
  -19.5157    2.4386  -14.4961 C   0  0  0  0  0  0  0  0  0  0  0  0
  -20.0337    3.4629  -14.0600 O   0  0  0  0  0  0  0  0  0  0  0  0
  -20.0852    1.1819  -14.5098 N   0  0  0  0  0  0  0  0  0  0  0  0
  -19.5297    0.3796  -14.7654 H   0  0  0  0  0  0  0  0  0  0  0  0
  -21.4008    0.9455  -14.1315 C   0  0  0  0  0  0  0  0  0  0  0  0
  -21.9263   -0.3290  -13.7955 C   0  0  0  0  0  0  0  0  0  0  0  0
  -23.2536   -0.1095  -13.5165 C   0  0  0  0  0  0  0  0  0  0  0  0
  -23.5109    1.2199  -13.6592 O   0  0  0  0  0  0  0  0  0  0  0  0
  -22.3652    1.8651  -14.0466 N   0  0  0  0  0  0  0  0  0  0  0  0
  -24.4251   -0.9675  -13.1152 C   0  0  0  0  0  0  0  0  0  0  0  0
  -23.9458   -2.2531  -12.4148 C   0  0  0  0  0  0  0  0  0  0  0  0
  -25.3473   -0.2011  -12.1478 C   0  0  0  0  0  0  0  0  0  0  0  0
  -25.2257   -1.3608  -14.3703 C   0  0  0  0  0  0  0  0  0  0  0  0
  -13.6711   -0.5802  -13.3846 O   0  0  0  0  0  0  0  0  0  0  0  0
  -14.2708   -5.5888  -12.2575 C   0  0  0  0  0  0  0  0  0  0  0  0
  -13.6883   -5.4500  -13.5287 C   0  0  0  0  0  0  0  0  0  0  0  0
  -13.4086   -4.2121  -14.0902 C   0  0  0  0  0  0  0  0  0  0  0  0
  -12.7354   -4.1739  -15.2535 N   0  0  0  0  0  0  0  0  0  0  0  0
  -12.3946   -2.9694  -15.7570 C   0  0  0  0  0  0  0  0  0  0  0  0
  -12.6858   -1.7730  -15.1380 C   0  0  0  0  0  0  0  0  0  0  0  0
  -13.3865   -1.8141  -13.9342 C   0  0  0  0  0  0  0  0  0  0  0  0
  -13.8080   -3.0540  -13.4017 C   0  0  0  0  0  0  0  0  0  0  0  0
  -14.5626   -3.2039  -12.2205 C   0  0  0  0  0  0  0  0  0  0  0  0
  -14.7360   -4.4453  -11.6050 C   0  0  0  0  0  0  0  0  0  0  0  0
  -14.1423   -7.9471  -12.4679 C   0  0  0  0  0  0  0  0  0  0  0  0
  -14.4228   -6.8085  -11.6540 O   0  0  0  0  0  0  0  0  0  0  0  0
  -15.3442   -4.3261  -10.3869 O   0  0  0  0  0  0  0  0  0  0  0  0
  -14.8112   -3.4077   -9.4475 C   0  0  0  0  0  0  0  0  0  0  0  0
 35 36  1  0  0  0
 36 25  1  0  0  0
 25 26  1  0  0  0
 25 34  2  0  0  0
 26 27  2  0  0  0
 27 28  1  0  0  0
 27 32  1  0  0  0
 28 29  2  0  0  0
 29 30  1  0  0  0
 30 31  2  0  0  0
 31 24  1  0  0  0
 31 32  1  0  0  0
 24  1  1  0  0  0
  1  2  1  0  0  0
  1 10  2  0  0  0
  2  3  2  0  0  0
  3  4  1  0  0  0
  4  5  1  0  0  0
  4  9  2  0  0  0
  5 11  1  0  0  0
  5  6  2  0  0  0
 11 12  2  0  0  0
 11 13  1  0  0  0
 13 15  1  0  0  0
 13 14  1  0  0  0
 15 16  1  0  0  0
 15 19  2  0  0  0
 16 17  2  0  0  0
 17 20  1  0  0  0
 17 18  1  0  0  0
 20 21  1  0  0  0
 20 22  1  0  0  0
 20 23  1  0  0  0
 18 19  1  0  0  0
  6  7  1  0  0  0
  7  8  2  0  0  0
  8  9  1  0  0  0
  9 10  1  0  0  0
 32 33  2  0  0  0
 33 34  1  0  0  0
 34 37  1  0  0  0
 37 38  1  0  0  0
M  END
> <minimizedAffinity>
-9.92529

$$$$
