CHEMBL1992195


 34 38  0  0  0  0  0  0  0  0999 V2000
  -29.2653   -5.3858   -7.1255 C   0  0  0  0  0  0  0  0  0  0  0  0
  -28.3366   -6.1041   -7.9189 C   0  0  0  0  0  0  0  0  0  0  0  0
  -28.5382   -7.4723   -8.3004 C   0  0  0  0  0  0  0  0  0  0  0  0
  -29.6608   -8.1722   -7.8515 C   0  0  0  0  0  0  0  0  0  0  0  0
  -30.5156   -7.4727   -6.9746 C   0  0  0  0  0  0  0  0  0  0  0  0
  -30.3493   -6.1268   -6.6551 C   0  0  0  0  0  0  0  0  0  0  0  0
  -30.1763   -9.5137   -8.3591 C   0  0  0  0  0  0  0  0  0  0  0  0
  -29.6212   -9.9639   -9.5151 N   0  0  0  0  0  0  0  0  0  0  0  0
  -28.6878  -10.8328   -9.0198 N   0  0  0  0  0  0  0  0  0  0  0  0
  -28.9541  -11.1632   -7.7119 C   0  0  0  0  0  0  0  0  0  0  0  0
  -30.3050  -10.7619   -7.6108 C   0  0  0  0  0  0  0  0  0  0  0  0
  -30.8039  -11.1442   -6.2563 C   0  0  0  0  0  0  0  0  0  0  0  0
  -29.5216  -10.7580   -5.5282 C   0  0  0  0  0  0  0  0  0  0  0  0
  -29.5676  -10.0455   -4.3518 C   0  0  0  0  0  0  0  0  0  0  0  0
  -28.4787   -9.2400   -4.0731 C   0  0  0  0  0  0  0  0  0  0  0  0
  -28.7141   -8.2574   -3.1489 O   0  0  0  0  0  0  0  0  0  0  0  0
  -27.2977   -9.3015   -4.8500 C   0  0  0  0  0  0  0  0  0  0  0  0
  -27.2496  -10.0969   -6.0277 C   0  0  0  0  0  0  0  0  0  0  0  0
  -28.3861  -10.8174   -6.3866 C   0  0  0  0  0  0  0  0  0  0  0  0
  -28.1219  -11.3362   -9.6930 H   0  0  0  0  0  0  0  0  0  0  0  0
  -29.5953   -7.8952   -3.3502 H   0  0  0  0  0  0  0  0  0  0  0  0
  -26.1954   -8.5034   -4.6357 O   0  0  0  0  0  0  0  0  0  0  0  0
  -25.2289   -9.0327   -3.7272 C   0  0  0  0  0  0  0  0  0  0  0  0
  -28.8960   -1.1668   -6.1377 C   0  0  0  0  0  0  0  0  0  0  0  0
  -29.8018   -1.9734   -5.4446 C   0  0  0  0  0  0  0  0  0  0  0  0
  -29.9513   -3.3350   -5.7818 C   0  0  0  0  0  0  0  0  0  0  0  0
  -29.2121   -3.9181   -6.8264 C   0  0  0  0  0  0  0  0  0  0  0  0
  -28.3310   -3.0549   -7.5270 C   0  0  0  0  0  0  0  0  0  0  0  0
  -28.1613   -1.7017   -7.1884 C   0  0  0  0  0  0  0  0  0  0  0  0
  -28.7767    0.5773   -5.7820 S   0  0  0  0  0  0  0  0  0  0  0  0
  -28.3212    1.2302   -6.9941 O   0  0  0  0  0  0  0  0  0  0  0  0
  -28.0207    0.6942   -4.5485 O   0  0  0  0  0  0  0  0  0  0  0  0
  -31.0202    1.8534   -6.6724 C   0  0  0  0  0  0  0  0  0  0  0  0
  -30.4463    1.1300   -5.4619 C   0  0  0  0  0  0  0  0  0  0  0  0
 33 34  1  0  0  0
 34 30  1  0  0  0
 30 31  2  0  0  0
 30 32  2  0  0  0
 30 24  1  0  0  0
 24 25  1  0  0  0
 24 29  2  0  0  0
 25 26  2  0  0  0
 26 27  1  0  0  0
 27  1  1  0  0  0
 27 28  2  0  0  0
  1  2  1  0  0  0
  1  6  2  0  0  0
  2  3  2  0  0  0
  3  4  1  0  0  0
  4  7  1  0  0  0
  4  5  2  0  0  0
  7  8  2  0  0  0
  7 11  1  0  0  0
  8  9  1  0  0  0
  9 10  1  0  0  0
  9 20  1  0  0  0
 10 11  2  0  0  0
 10 19  1  0  0  0
 11 12  1  0  0  0
 12 13  1  0  0  0
 13 14  1  0  0  0
 13 19  2  0  0  0
 14 15  2  0  0  0
 15 16  1  0  0  0
 15 17  1  0  0  0
 16 21  1  0  0  0
 17 22  1  0  0  0
 17 18  2  0  0  0
 22 23  1  0  0  0
 18 19  1  0  0  0
  5  6  1  0  0  0
 28 29  1  0  0  0
M  END
> <minimizedAffinity>
-9.23434

$$$$
