CHEMBL3741316


 41 45  0  0  0  0  0  0  0  0999 V2000
  -23.7518   -0.9387  -11.7049 N   0  0  0  0  0  0  0  0  0  0  0  0
  -23.2691   -1.0999  -10.8291 H   0  0  0  0  0  0  0  0  0  0  0  0
  -23.0526   -0.2359  -12.6942 C   0  0  0  0  0  0  0  0  0  0  0  0
  -22.8544   -0.8286  -13.9447 C   0  0  0  0  0  0  0  0  0  0  0  0
  -21.8853   -0.3240  -14.8198 C   0  0  0  0  0  0  0  0  0  0  0  0
  -21.1722    0.8479  -14.4980 C   0  0  0  0  0  0  0  0  0  0  0  0
  -20.2189    1.4403  -15.3288 C   0  0  0  0  0  0  0  0  0  0  0  0
  -20.7411    2.5933  -15.8831 C   0  0  0  0  0  0  0  0  0  0  0  0
  -21.3659    3.4791  -14.9983 C   0  0  0  0  0  0  0  0  0  0  0  0
  -21.7071    3.0263  -13.7116 C   0  0  0  0  0  0  0  0  0  0  0  0
  -21.7296    1.6426  -13.4881 C   0  0  0  0  0  0  0  0  0  0  0  0
  -22.5007    1.0336  -12.4830 C   0  0  0  0  0  0  0  0  0  0  0  0
  -18.8544    1.7769  -14.5978 C   0  0  0  0  0  0  0  0  0  0  0  0
  -18.6874    2.8664  -14.0530 O   0  0  0  0  0  0  0  0  0  0  0  0
  -17.8858    0.7633  -14.6757 N   0  0  0  0  0  0  0  0  0  0  0  0
  -18.1947   -0.1162  -15.0638 H   0  0  0  0  0  0  0  0  0  0  0  0
  -16.5106    0.7824  -14.3270 C   0  0  0  0  0  0  0  0  0  0  0  0
  -15.9499    0.1478  -13.2123 C   0  0  0  0  0  0  0  0  0  0  0  0
  -14.5678    0.2238  -12.9593 C   0  0  0  0  0  0  0  0  0  0  0  0
  -13.7289    0.9325  -13.8125 C   0  0  0  0  0  0  0  0  0  0  0  0
  -14.2659    1.5844  -14.9173 C   0  0  0  0  0  0  0  0  0  0  0  0
  -15.6420    1.5143  -15.1651 C   0  0  0  0  0  0  0  0  0  0  0  0
  -26.7819   -2.1128  -10.2367 C   0  0  0  0  0  0  0  0  0  0  0  0
  -27.7604   -1.6983  -11.0522 N   0  0  0  0  0  0  0  0  0  0  0  0
  -27.3865   -0.9589  -12.1061 C   0  0  0  0  0  0  0  0  0  0  0  0
  -26.0800   -0.6495  -12.3871 C   0  0  0  0  0  0  0  0  0  0  0  0
  -25.1268   -1.1468  -11.5258 C   0  0  0  0  0  0  0  0  0  0  0  0
  -25.4762   -1.8547  -10.4350 N   0  0  0  0  0  0  0  0  0  0  0  0
  -27.2039   -2.8706   -9.1390 N   0  0  0  0  0  0  0  0  0  0  0  0
  -27.5509   -3.7395   -9.5347 H   0  0  0  0  0  0  0  0  0  0  0  0
  -29.6483   -2.8566   -6.2905 C   0  0  0  0  0  0  0  0  0  0  0  0
  -29.3640   -1.5928   -5.7570 C   0  0  0  0  0  0  0  0  0  0  0  0
  -28.4314   -0.7560   -6.3686 C   0  0  0  0  0  0  0  0  0  0  0  0
  -27.7460   -1.1854   -7.5036 C   0  0  0  0  0  0  0  0  0  0  0  0
  -28.0024   -2.4423   -8.0608 C   0  0  0  0  0  0  0  0  0  0  0  0
  -28.9479   -3.2712   -7.4391 C   0  0  0  0  0  0  0  0  0  0  0  0
  -30.5858   -3.8167   -5.6029 C   0  0  0  0  0  0  0  0  0  0  0  0
  -30.8616   -5.8163   -3.6165 C   0  0  0  0  0  0  0  0  0  0  0  0
  -30.0494   -4.2723   -3.9554 S   0  0  0  0  0  0  0  0  0  0  0  0
  -30.5228   -3.2969   -2.9938 O   0  0  0  0  0  0  0  0  0  0  0  0
  -28.6270   -4.5615   -4.0401 O   0  0  0  0  0  0  0  0  0  0  0  0
 38 39  1  0  0  0
 39 40  2  0  0  0
 39 41  2  0  0  0
 39 37  1  0  0  0
 37 31  1  0  0  0
 31 32  1  0  0  0
 31 36  2  0  0  0
 32 33  2  0  0  0
 33 34  1  0  0  0
 34 35  2  0  0  0
 35 29  1  0  0  0
 35 36  1  0  0  0
 29 23  1  0  0  0
 29 30  1  0  0  0
 23 24  1  0  0  0
 23 28  2  0  0  0
 24 25  2  0  0  0
 25 26  1  0  0  0
 26 27  2  0  0  0
 27  1  1  0  0  0
 27 28  1  0  0  0
  1  3  1  0  0  0
  1  2  1  0  0  0
  3  4  1  0  0  0
  3 12  2  0  0  0
  4  5  2  0  0  0
  5  6  1  0  0  0
  6  7  1  0  0  0
  6 11  2  0  0  0
  7 13  1  0  0  0
  7  8  2  0  0  0
 13 14  2  0  0  0
 13 15  1  0  0  0
 15 17  1  0  0  0
 15 16  1  0  0  0
 17 18  1  0  0  0
 17 22  2  0  0  0
 18 19  2  0  0  0
 19 20  1  0  0  0
 20 21  2  0  0  0
 21 22  1  0  0  0
  8  9  1  0  0  0
  9 10  2  0  0  0
 10 11  1  0  0  0
 11 12  1  0  0  0
M  END
> <minimizedAffinity>
-9.96201

$$$$
