CHEMBL396523


 30 33  0  0  0  0  0  0  0  0999 V2000
  -29.3765   -4.3217   -4.8492 C   0  0  0  0  0  0  0  0  0  0  0  0
  -30.4546   -3.7867   -4.1728 C   0  0  0  0  0  0  0  0  0  0  0  0
  -31.4775   -4.6477   -3.8975 C   0  0  0  0  0  0  0  0  0  0  0  0
  -31.4493   -5.9403   -4.2403 N   0  0  0  0  0  0  0  0  0  0  0  0
  -30.3661   -6.4029   -4.8823 C   0  0  0  0  0  0  0  0  0  0  0  0
  -29.3124   -5.6280   -5.1777 N   0  0  0  0  0  0  0  0  0  0  0  0
  -28.2621   -3.4797   -5.1102 N   0  0  0  0  0  0  0  0  0  0  0  0
  -27.6397   -3.4981   -4.2990 H   0  0  0  0  0  0  0  0  0  0  0  0
  -28.1824   -1.7672   -6.8744 C   0  0  0  0  0  0  0  0  0  0  0  0
  -28.0593   -0.4204   -7.2497 C   0  0  0  0  0  0  0  0  0  0  0  0
  -28.1254    0.5887   -6.2905 C   0  0  0  0  0  0  0  0  0  0  0  0
  -28.3086    0.2572   -4.9504 C   0  0  0  0  0  0  0  0  0  0  0  0
  -28.4052   -1.0820   -4.5664 C   0  0  0  0  0  0  0  0  0  0  0  0
  -28.3528   -2.1142   -5.5185 C   0  0  0  0  0  0  0  0  0  0  0  0
  -28.9565   -3.6671   -8.0773 O   0  0  0  0  0  0  0  0  0  0  0  0
  -28.1326   -2.7748   -7.9645 C   0  0  0  0  0  0  0  0  0  0  0  0
  -27.0585   -2.6574   -8.7782 O   0  0  0  0  0  0  0  0  0  0  0  0
  -26.5023   -1.8764   -8.5641 H   0  0  0  0  0  0  0  0  0  0  0  0
  -30.2957   -7.7413   -5.2757 N   0  0  0  0  0  0  0  0  0  0  0  0
  -30.0653   -8.3298   -4.4889 H   0  0  0  0  0  0  0  0  0  0  0  0
  -30.2828   -8.3282   -6.5523 C   0  0  0  0  0  0  0  0  0  0  0  0
  -31.4368   -8.8672   -7.1425 C   0  0  0  0  0  0  0  0  0  0  0  0
  -31.4243   -9.5439   -8.3682 C   0  0  0  0  0  0  0  0  0  0  0  0
  -30.1974   -9.6513   -9.0068 C   0  0  0  0  0  0  0  0  0  0  0  0
  -29.8362  -10.2622  -10.1773 N   0  0  0  0  0  0  0  0  0  0  0  0
  -28.5419  -10.1004  -10.5021 N   0  0  0  0  0  0  0  0  0  0  0  0
  -28.0534   -9.3975   -9.4747 C   0  0  0  0  0  0  0  0  0  0  0  0
  -29.0271   -9.1071   -8.4937 C   0  0  0  0  0  0  0  0  0  0  0  0
  -29.0620   -8.4534   -7.2427 C   0  0  0  0  0  0  0  0  0  0  0  0
  -30.4261  -10.8071  -10.7956 H   0  0  0  0  0  0  0  0  0  0  0  0
 15 16  2  0  0  0
 16 17  1  0  0  0
 16  9  1  0  0  0
 17 18  1  0  0  0
  9 10  1  0  0  0
  9 14  2  0  0  0
 10 11  2  0  0  0
 11 12  1  0  0  0
 12 13  2  0  0  0
 13 14  1  0  0  0
 14  7  1  0  0  0
  7  1  1  0  0  0
  7  8  1  0  0  0
  1  2  1  0  0  0
  1  6  2  0  0  0
  2  3  2  0  0  0
  3  4  1  0  0  0
  4  5  2  0  0  0
  5 19  1  0  0  0
  5  6  1  0  0  0
 19 21  1  0  0  0
 19 20  1  0  0  0
 21 22  1  0  0  0
 21 29  2  0  0  0
 22 23  2  0  0  0
 23 24  1  0  0  0
 24 25  1  0  0  0
 24 28  2  0  0  0
 25 26  1  0  0  0
 25 30  1  0  0  0
 26 27  2  0  0  0
 27 28  1  0  0  0
 28 29  1  0  0  0
M  END
> <minimizedAffinity>
-8.97801

$$$$
