CHEMBL3823520


 46 51  0  0  0  0  0  0  0  0999 V2000
  -24.7494   11.6372  -15.4598 O   0  0  0  0  0  0  0  0  0  0  0  0
  -27.9273   11.9036  -12.6506 C   0  0  0  0  0  0  0  0  0  0  0  0
  -26.8850   11.8543  -13.5825 C   0  0  0  0  0  0  0  0  0  0  0  0
  -26.9661   11.0552  -14.7441 C   0  0  0  0  0  0  0  0  0  0  0  0
  -25.9264   10.9495  -15.6944 C   0  0  0  0  0  0  0  0  0  0  0  0
  -26.1197   10.2086  -16.8553 C   0  0  0  0  0  0  0  0  0  0  0  0
  -27.2977    9.5068  -16.9793 C   0  0  0  0  0  0  0  0  0  0  0  0
  -28.2958    9.5447  -16.0738 N   0  0  0  0  0  0  0  0  0  0  0  0
  -28.1399   10.3171  -14.9864 C   0  0  0  0  0  0  0  0  0  0  0  0
  -29.1876   10.4145  -14.0842 C   0  0  0  0  0  0  0  0  0  0  0  0
  -29.1226   11.2249  -12.9441 C   0  0  0  0  0  0  0  0  0  0  0  0
  -26.6923   12.4960  -10.6866 C   0  0  0  0  0  0  0  0  0  0  0  0
  -27.8452   12.6534  -11.5084 O   0  0  0  0  0  0  0  0  0  0  0  0
  -30.2992   11.2576  -12.2316 O   0  0  0  0  0  0  0  0  0  0  0  0
  -31.0236   12.4813  -12.3196 C   0  0  0  0  0  0  0  0  0  0  0  0
  -32.5246   12.2252  -12.4007 C   0  0  0  0  0  0  0  0  0  0  0  0
  -32.7617   11.1447  -13.4649 C   0  0  0  0  0  0  0  0  0  0  0  0
  -33.9559   10.3249  -13.2392 N   0  0  0  0  0  0  0  0  0  0  0  0
  -33.9748    9.1240  -14.0855 C   0  0  0  0  0  0  0  0  0  0  0  0
  -35.2905    8.3710  -13.9009 C   0  0  0  0  0  0  0  0  0  0  0  0
  -35.5186    7.9955  -12.4420 C   0  0  0  0  0  0  0  0  0  0  0  0
  -35.3544    9.2116  -11.5373 C   0  0  0  0  0  0  0  0  0  0  0  0
  -34.0423    9.9423  -11.8177 C   0  0  0  0  0  0  0  0  0  0  0  0
  -23.7507   11.6150  -16.4102 C   0  0  0  0  0  0  0  0  0  0  0  0
  -22.5282   11.0872  -16.0006 C   0  0  0  0  0  0  0  0  0  0  0  0
  -21.4701   10.9723  -16.9108 C   0  0  0  0  0  0  0  0  0  0  0  0
  -21.6181   11.3719  -18.2444 C   0  0  0  0  0  0  0  0  0  0  0  0
  -22.8311   11.9357  -18.6431 C   0  0  0  0  0  0  0  0  0  0  0  0
  -23.8946   12.0180  -17.7407 C   0  0  0  0  0  0  0  0  0  0  0  0
  -25.0642   12.4901  -18.1955 F   0  0  0  0  0  0  0  0  0  0  0  0
  -20.6100   11.2075  -19.2191 N   0  0  0  0  0  0  0  0  0  0  0  0
  -19.3767   11.8364  -19.2144 C   0  0  0  0  0  0  0  0  0  0  0  0
  -18.9817   12.6328  -18.3700 O   0  0  0  0  0  0  0  0  0  0  0  0
  -20.7272   10.4710  -19.9085 H   0  0  0  0  0  0  0  0  0  0  0  0
  -18.5023   11.4437  -20.3107 C   0  0  0  0  0  0  0  0  0  0  0  0
  -17.2137   10.9817  -20.1866 C   0  0  0  0  0  0  0  0  0  0  0  0
  -16.7752   10.7433  -21.4624 N   0  0  0  0  0  0  0  0  0  0  0  0
  -17.7614   11.1118  -22.3336 N   0  0  0  0  0  0  0  0  0  0  0  0
  -18.8286   11.4952  -21.6424 N   0  0  0  0  0  0  0  0  0  0  0  0
  -15.5080   10.2959  -21.9139 C   0  0  0  0  0  0  0  0  0  0  0  0
  -14.5028   11.2668  -22.0998 C   0  0  0  0  0  0  0  0  0  0  0  0
  -13.1986   10.8887  -22.4330 C   0  0  0  0  0  0  0  0  0  0  0  0
  -12.8859    9.5451  -22.6067 C   0  0  0  0  0  0  0  0  0  0  0  0
  -13.8818    8.5803  -22.4773 C   0  0  0  0  0  0  0  0  0  0  0  0
  -15.1940    8.9450  -22.1411 C   0  0  0  0  0  0  0  0  0  0  0  0
  -16.3458    7.6543  -22.1866 Cl  0  0  0  0  0  0  0  0  0  0  0  0
 12 13  1  0  0  0
 13  2  1  0  0  0
  2  3  1  0  0  0
  2 11  2  0  0  0
  3  4  2  0  0  0
  4  5  1  0  0  0
  4  9  1  0  0  0
  5  1  1  0  0  0
  5  6  2  0  0  0
  1 24  1  0  0  0
 24 25  1  0  0  0
 24 29  2  0  0  0
 25 26  2  0  0  0
 26 27  1  0  0  0
 27 31  1  0  0  0
 27 28  2  0  0  0
 31 32  1  0  0  0
 31 34  1  0  0  0
 32 33  2  0  0  0
 32 35  1  0  0  0
 35 36  2  0  0  0
 35 39  1  0  0  0
 36 37  1  0  0  0
 37 40  1  0  0  0
 37 38  1  0  0  0
 40 41  1  0  0  0
 40 45  2  0  0  0
 41 42  2  0  0  0
 42 43  1  0  0  0
 43 44  2  0  0  0
 44 45  1  0  0  0
 45 46  1  0  0  0
 38 39  2  0  0  0
 28 29  1  0  0  0
 29 30  1  0  0  0
  6  7  1  0  0  0
  7  8  2  0  0  0
  8  9  1  0  0  0
  9 10  2  0  0  0
 10 11  1  0  0  0
 11 14  1  0  0  0
 14 15  1  0  0  0
 15 16  1  0  0  0
 16 17  1  0  0  0
 17 18  1  0  0  0
 18 19  1  0  0  0
 18 23  1  0  0  0
 19 20  1  0  0  0
 20 21  1  0  0  0
 21 22  1  0  0  0
 22 23  1  0  0  0
M  END
> <minimizedAffinity>
-4.65733

$$$$
