CHEMBL4448243


 24 27  0  0  0  0  0  0  0  0999 V2000
  -29.5834   -4.8851   -5.1823 C   0  0  0  0  0  0  0  0  0  0  0  0
  -28.3973   -5.0621   -4.5933 N   0  0  0  0  0  0  0  0  0  0  0  0
  -27.8863   -6.2981   -4.6055 C   0  0  0  0  0  0  0  0  0  0  0  0
  -28.5040   -7.3910   -5.1796 C   0  0  0  0  0  0  0  0  0  0  0  0
  -29.7383   -7.1396   -5.7371 C   0  0  0  0  0  0  0  0  0  0  0  0
  -30.2798   -5.8896   -5.7397 N   0  0  0  0  0  0  0  0  0  0  0  0
  -30.5395   -8.1940   -6.3931 C   0  0  0  0  0  0  0  0  0  0  0  0
  -31.8142   -7.9194   -6.9308 C   0  0  0  0  0  0  0  0  0  0  0  0
  -32.5596   -8.9078   -7.5706 C   0  0  0  0  0  0  0  0  0  0  0  0
  -32.0167  -10.1673   -7.6561 C   0  0  0  0  0  0  0  0  0  0  0  0
  -30.8102  -10.4848   -7.1556 N   0  0  0  0  0  0  0  0  0  0  0  0
  -30.0885   -9.5050   -6.5391 C   0  0  0  0  0  0  0  0  0  0  0  0
  -28.5178  -10.1087   -5.9853 S   0  0  0  0  0  0  0  0  0  0  0  0
  -27.7908   -8.6939   -5.1593 C   0  0  0  0  0  0  0  0  0  0  0  0
  -30.0900   -3.5916   -5.3176 N   0  0  0  0  0  0  0  0  0  0  0  0
  -30.8689   -3.4521   -4.6911 H   0  0  0  0  0  0  0  0  0  0  0  0
  -27.8889   -1.1832   -7.1460 C   0  0  0  0  0  0  0  0  0  0  0  0
  -27.9734   -0.0763   -6.3023 C   0  0  0  0  0  0  0  0  0  0  0  0
  -28.7541   -0.1386   -5.1470 C   0  0  0  0  0  0  0  0  0  0  0  0
  -29.4440   -1.3100   -4.8253 C   0  0  0  0  0  0  0  0  0  0  0  0
  -29.3869   -2.4263   -5.6677 C   0  0  0  0  0  0  0  0  0  0  0  0
  -28.5938   -2.3477   -6.8201 C   0  0  0  0  0  0  0  0  0  0  0  0
  -27.5480   -2.2537   -9.2415 C   0  0  0  0  0  0  0  0  0  0  0  0
  -27.1682   -1.2524   -8.3069 O   0  0  0  0  0  0  0  0  0  0  0  0
 23 24  1  0  0  0
 24 17  1  0  0  0
 17 18  1  0  0  0
 17 22  2  0  0  0
 18 19  2  0  0  0
 19 20  1  0  0  0
 20 21  2  0  0  0
 21 15  1  0  0  0
 21 22  1  0  0  0
 15  1  1  0  0  0
 15 16  1  0  0  0
  1  2  1  0  0  0
  1  6  2  0  0  0
  2  3  2  0  0  0
  3  4  1  0  0  0
  4  5  2  0  0  0
  4 14  1  0  0  0
  5  6  1  0  0  0
  5  7  1  0  0  0
  7  8  1  0  0  0
  7 12  2  0  0  0
  8  9  2  0  0  0
  9 10  1  0  0  0
 10 11  2  0  0  0
 11 12  1  0  0  0
 12 13  1  0  0  0
 13 14  1  0  0  0
M  END
> <minimizedAffinity>
-8.05849

$$$$
