CHEMBL2386792


 45 49  0  0  0  0  0  0  0  0999 V2000
  -25.5331   -1.3341  -12.2688 C   0  0  0  0  0  0  0  0  0  0  0  0
  -25.7131   -1.7398  -10.9216 C   0  0  0  0  0  0  0  0  0  0  0  0
  -26.9707   -2.2709  -10.8209 C   0  0  0  0  0  0  0  0  0  0  0  0
  -27.4642   -2.2121  -12.0982 N   0  0  0  0  0  0  0  0  0  0  0  0
  -26.6251   -1.6419  -12.9881 N   0  0  0  0  0  0  0  0  0  0  0  0
  -28.3628   -2.5293  -12.4411 H   0  0  0  0  0  0  0  0  0  0  0  0
  -22.0173    0.6874  -13.7005 C   0  0  0  0  0  0  0  0  0  0  0  0
  -22.2711    0.5346  -12.3427 C   0  0  0  0  0  0  0  0  0  0  0  0
  -23.4086   -0.1298  -11.8999 C   0  0  0  0  0  0  0  0  0  0  0  0
  -24.3421   -0.6624  -12.7994 C   0  0  0  0  0  0  0  0  0  0  0  0
  -24.0969   -0.5070  -14.1679 C   0  0  0  0  0  0  0  0  0  0  0  0
  -22.9425    0.1686  -14.6165 C   0  0  0  0  0  0  0  0  0  0  0  0
  -19.6735    3.1547  -15.0771 N   0  0  0  0  0  0  0  0  0  0  0  0
  -20.8273    2.6901  -14.5369 C   0  0  0  0  0  0  0  0  0  0  0  0
  -21.7372    3.5136  -14.4241 O   0  0  0  0  0  0  0  0  0  0  0  0
  -20.8776    1.3718  -14.1656 N   0  0  0  0  0  0  0  0  0  0  0  0
  -19.7301    4.1316  -15.3297 H   0  0  0  0  0  0  0  0  0  0  0  0
  -19.9938    0.8707  -14.1829 H   0  0  0  0  0  0  0  0  0  0  0  0
  -16.4128    2.1768  -15.9729 C   0  0  0  0  0  0  0  0  0  0  0  0
  -17.3519    3.1654  -15.8124 C   0  0  0  0  0  0  0  0  0  0  0  0
  -18.5002    2.5003  -15.3455 C   0  0  0  0  0  0  0  0  0  0  0  0
  -18.2782    1.1892  -15.2098 N   0  0  0  0  0  0  0  0  0  0  0  0
  -16.9676    0.9859  -15.6126 O   0  0  0  0  0  0  0  0  0  0  0  0
  -14.8166    3.3708  -17.4431 C   0  0  0  0  0  0  0  0  0  0  0  0
  -14.9919    2.1989  -16.4590 C   0  0  0  0  0  0  0  0  0  0  0  0
  -14.6959    0.8749  -17.1876 C   0  0  0  0  0  0  0  0  0  0  0  0
  -13.9894    2.3682  -15.3066 C   0  0  0  0  0  0  0  0  0  0  0  0
  -27.5996   -2.7604   -9.6762 N   0  0  0  0  0  0  0  0  0  0  0  0
  -27.6167   -2.0174   -8.4369 C   0  0  0  0  0  0  0  0  0  0  0  0
  -27.1365   -0.8973   -8.3551 O   0  0  0  0  0  0  0  0  0  0  0  0
  -28.0906   -3.6398   -9.7400 H   0  0  0  0  0  0  0  0  0  0  0  0
  -28.2445   -2.6273   -7.2466 C   0  0  0  0  0  0  0  0  0  0  0  0
  -27.7596   -2.4296   -5.9522 C   0  0  0  0  0  0  0  0  0  0  0  0
  -28.4731   -2.9453   -4.8633 C   0  0  0  0  0  0  0  0  0  0  0  0
  -29.6773   -3.6291   -5.0628 C   0  0  0  0  0  0  0  0  0  0  0  0
  -30.1355   -3.8573   -6.3572 C   0  0  0  0  0  0  0  0  0  0  0  0
  -29.4271   -3.3569   -7.4459 C   0  0  0  0  0  0  0  0  0  0  0  0
  -30.4985   -4.1036   -4.0793 O   0  0  0  0  0  0  0  0  0  0  0  0
  -30.8768   -5.4761   -4.2025 C   0  0  0  0  0  0  0  0  0  0  0  0
  -29.6112   -6.3411   -4.2946 C   0  0  0  0  0  0  0  0  0  0  0  0
  -29.8012   -7.5606   -5.1046 N   0  0  0  0  0  0  0  0  0  0  0  0
  -28.6257   -7.9175   -5.9106 C   0  0  0  0  0  0  0  0  0  0  0  0
  -28.7614   -7.0885   -7.1690 C   0  0  0  0  0  0  0  0  0  0  0  0
  -30.2448   -7.2012   -7.4573 C   0  0  0  0  0  0  0  0  0  0  0  0
  -30.8955   -7.3704   -6.0857 C   0  0  0  0  0  0  0  0  0  0  0  0
 24 25  1  0  0  0
 25 26  1  0  0  0
 25 27  1  0  0  0
 25 19  1  0  0  0
 19 20  2  0  0  0
 19 23  1  0  0  0
 20 21  1  0  0  0
 21 13  1  0  0  0
 21 22  2  0  0  0
 13 14  1  0  0  0
 13 17  1  0  0  0
 14 15  2  0  0  0
 14 16  1  0  0  0
 16  7  1  0  0  0
 16 18  1  0  0  0
  7  8  1  0  0  0
  7 12  2  0  0  0
  8  9  2  0  0  0
  9 10  1  0  0  0
 10  1  1  0  0  0
 10 11  2  0  0  0
  1  2  1  0  0  0
  1  5  2  0  0  0
  2  3  2  0  0  0
  3 28  1  0  0  0
  3  4  1  0  0  0
 28 29  1  0  0  0
 28 31  1  0  0  0
 29 30  2  0  0  0
 29 32  1  0  0  0
 32 33  1  0  0  0
 32 37  2  0  0  0
 33 34  2  0  0  0
 34 35  1  0  0  0
 35 38  1  0  0  0
 35 36  2  0  0  0
 38 39  1  0  0  0
 39 40  1  0  0  0
 40 41  1  0  0  0
 41 42  1  0  0  0
 41 45  1  0  0  0
 42 43  1  0  0  0
 43 44  1  0  0  0
 44 45  1  0  0  0
 36 37  1  0  0  0
  4  5  1  0  0  0
  4  6  1  0  0  0
 11 12  1  0  0  0
 22 23  1  0  0  0
M  END
> <minimizedAffinity>
-11.17258

$$$$
