CHEMBL212668


 46 50  0  0  0  0  0  0  0  0999 V2000
  -27.5475   -2.0424   -9.3396 C   0  0  0  0  0  0  0  0  0  0  0  0
  -28.5424   -1.7043  -10.2330 C   0  0  0  0  0  0  0  0  0  0  0  0
  -28.1097   -1.2634  -11.4520 C   0  0  0  0  0  0  0  0  0  0  0  0
  -26.8183   -1.2182  -11.8005 N   0  0  0  0  0  0  0  0  0  0  0  0
  -25.9056   -1.5575  -10.8818 C   0  0  0  0  0  0  0  0  0  0  0  0
  -26.2338   -1.9332   -9.6344 N   0  0  0  0  0  0  0  0  0  0  0  0
  -27.9633   -2.4605   -8.0396 N   0  0  0  0  0  0  0  0  0  0  0  0
  -27.5806   -1.6082   -6.9816 C   0  0  0  0  0  0  0  0  0  0  0  0
  -27.4899   -0.3908   -7.0711 O   0  0  0  0  0  0  0  0  0  0  0  0
  -29.3584   -6.5185   -7.5952 C   0  0  0  0  0  0  0  0  0  0  0  0
  -28.1441   -6.2517   -8.2022 C   0  0  0  0  0  0  0  0  0  0  0  0
  -27.7042   -4.9155   -8.3498 C   0  0  0  0  0  0  0  0  0  0  0  0
  -28.4611   -3.8080   -7.9017 C   0  0  0  0  0  0  0  0  0  0  0  0
  -29.7256   -4.1011   -7.3474 C   0  0  0  0  0  0  0  0  0  0  0  0
  -30.1369   -5.4442   -7.1900 C   0  0  0  0  0  0  0  0  0  0  0  0
  -31.3176   -7.7594   -7.0646 C   0  0  0  0  0  0  0  0  0  0  0  0
  -29.9293   -7.7322   -7.3443 O   0  0  0  0  0  0  0  0  0  0  0  0
  -30.6008   -3.0712   -7.0834 O   0  0  0  0  0  0  0  0  0  0  0  0
  -31.6204   -3.4186   -6.1364 C   0  0  0  0  0  0  0  0  0  0  0  0
  -27.2341   -2.3195   -5.8211 O   0  0  0  0  0  0  0  0  0  0  0  0
  -28.1081   -2.6615   -4.7303 C   0  0  0  0  0  0  0  0  0  0  0  0
  -28.2775   -3.9650   -4.2196 C   0  0  0  0  0  0  0  0  0  0  0  0
  -27.4406   -5.1825   -4.4844 C   0  0  0  0  0  0  0  0  0  0  0  0
  -29.3460   -4.1966   -3.3247 C   0  0  0  0  0  0  0  0  0  0  0  0
  -30.1873   -3.1756   -2.9000 C   0  0  0  0  0  0  0  0  0  0  0  0
  -29.9841   -1.8863   -3.3706 C   0  0  0  0  0  0  0  0  0  0  0  0
  -28.9607   -1.6143   -4.2966 C   0  0  0  0  0  0  0  0  0  0  0  0
  -28.7622   -0.1928   -4.7417 C   0  0  0  0  0  0  0  0  0  0  0  0
  -24.5496   -1.5794  -11.2359 N   0  0  0  0  0  0  0  0  0  0  0  0
  -23.9951   -2.0657  -10.5504 H   0  0  0  0  0  0  0  0  0  0  0  0
  -23.8536   -0.8591  -12.2217 C   0  0  0  0  0  0  0  0  0  0  0  0
  -23.0057   -1.4760  -13.1397 C   0  0  0  0  0  0  0  0  0  0  0  0
  -22.2077   -0.7313  -14.0253 C   0  0  0  0  0  0  0  0  0  0  0  0
  -22.2395    0.6547  -13.9715 C   0  0  0  0  0  0  0  0  0  0  0  0
  -23.0733    1.2913  -13.0596 C   0  0  0  0  0  0  0  0  0  0  0  0
  -23.8772    0.5383  -12.1937 C   0  0  0  0  0  0  0  0  0  0  0  0
  -21.4787    1.4850  -14.7603 O   0  0  0  0  0  0  0  0  0  0  0  0
  -20.2225    0.9372  -15.1676 C   0  0  0  0  0  0  0  0  0  0  0  0
  -19.0983    1.8575  -14.6652 C   0  0  0  0  0  0  0  0  0  0  0  0
  -18.0166    2.0686  -15.6414 N   0  0  0  0  0  0  0  0  0  0  0  0
  -17.4783    3.4426  -15.6120 C   0  0  0  0  0  0  0  0  0  0  0  0
  -16.3485    3.6300  -16.6486 C   0  0  0  0  0  0  0  0  0  0  0  0
  -15.2160    2.6979  -16.4967 N   0  0  0  0  0  0  0  0  0  0  0  0
  -14.3974    3.0432  -15.3368 C   0  0  0  0  0  0  0  0  0  0  0  0
  -15.7400    1.3184  -16.4080 C   0  0  0  0  0  0  0  0  0  0  0  0
  -16.9092    1.1163  -15.4098 C   0  0  0  0  0  0  0  0  0  0  0  0
 16 17  1  0  0  0
 17 10  1  0  0  0
 10 11  1  0  0  0
 10 15  2  0  0  0
 11 12  2  0  0  0
 12 13  1  0  0  0
 13  7  1  0  0  0
 13 14  2  0  0  0
  7  8  1  0  0  0
  7  1  1  0  0  0
  8  9  2  0  0  0
  8 20  1  0  0  0
 20 21  1  0  0  0
 21 22  1  0  0  0
 21 27  2  0  0  0
 22 23  1  0  0  0
 22 24  2  0  0  0
 24 25  1  0  0  0
 25 26  2  0  0  0
 26 27  1  0  0  0
 27 28  1  0  0  0
  1  2  1  0  0  0
  1  6  2  0  0  0
  2  3  2  0  0  0
  3  4  1  0  0  0
  4  5  2  0  0  0
  5 29  1  0  0  0
  5  6  1  0  0  0
 29 31  1  0  0  0
 29 30  1  0  0  0
 31 32  1  0  0  0
 31 36  2  0  0  0
 32 33  2  0  0  0
 33 34  1  0  0  0
 34 37  1  0  0  0
 34 35  2  0  0  0
 37 38  1  0  0  0
 38 39  1  0  0  0
 39 40  1  0  0  0
 40 41  1  0  0  0
 40 46  1  0  0  0
 41 42  1  0  0  0
 42 43  1  0  0  0
 43 44  1  0  0  0
 43 45  1  0  0  0
 45 46  1  0  0  0
 35 36  1  0  0  0
 14 18  1  0  0  0
 14 15  1  0  0  0
 18 19  1  0  0  0
M  END
> <minimizedAffinity>
-8.49089

$$$$
