CHEMBL3918426


 36 39  0  0  0  0  0  0  0  0999 V2000
  -28.7508   -5.7238   -4.5048 C   0  0  0  0  0  0  0  0  0  0  0  0
  -29.6600   -6.2116   -3.5476 C   0  0  0  0  0  0  0  0  0  0  0  0
  -29.6783   -7.5482   -3.2646 N   0  0  0  0  0  0  0  0  0  0  0  0
  -28.8516   -8.4199   -3.9095 C   0  0  0  0  0  0  0  0  0  0  0  0
  -28.8077   -9.7762   -3.5768 C   0  0  0  0  0  0  0  0  0  0  0  0
  -27.9077  -10.6305   -4.2370 C   0  0  0  0  0  0  0  0  0  0  0  0
  -27.0562  -10.1525   -5.2714 C   0  0  0  0  0  0  0  0  0  0  0  0
  -27.1490   -8.7887   -5.6057 C   0  0  0  0  0  0  0  0  0  0  0  0
  -28.0032   -7.9364   -4.9120 C   0  0  0  0  0  0  0  0  0  0  0  0
  -27.9760   -6.6134   -5.1679 N   0  0  0  0  0  0  0  0  0  0  0  0
  -28.5231   -3.6414   -5.9852 C   0  0  0  0  0  0  0  0  0  0  0  0
  -28.5307   -4.2812   -4.7491 C   0  0  0  0  0  0  0  0  0  0  0  0
  -28.2221   -3.2916   -3.8278 C   0  0  0  0  0  0  0  0  0  0  0  0
  -28.0204   -2.1278   -4.4756 N   0  0  0  0  0  0  0  0  0  0  0  0
  -28.1749   -2.3450   -5.7758 N   0  0  0  0  0  0  0  0  0  0  0  0
  -27.9144   -1.3549   -6.8093 C   0  0  0  0  0  0  0  0  0  0  0  0
  -30.2110   -4.2750   -7.7041 C   0  0  0  0  0  0  0  0  0  0  0  0
  -28.7296   -4.2528   -7.3519 C   0  0  0  0  0  0  0  0  0  0  0  0
  -26.0773  -11.0265   -5.9017 N   0  0  0  0  0  0  0  0  0  0  0  0
  -24.7255  -11.0921   -5.3813 C   0  0  0  0  0  0  0  0  0  0  0  0
  -24.5179  -11.3844   -4.0169 C   0  0  0  0  0  0  0  0  0  0  0  0
  -23.2286  -11.5439   -3.4833 C   0  0  0  0  0  0  0  0  0  0  0  0
  -22.1209  -11.4094   -4.3216 C   0  0  0  0  0  0  0  0  0  0  0  0
  -22.2890  -11.1213   -5.6877 C   0  0  0  0  0  0  0  0  0  0  0  0
  -23.5805  -10.9606   -6.2036 C   0  0  0  0  0  0  0  0  0  0  0  0
  -23.0187  -11.8548   -2.1765 O   0  0  0  0  0  0  0  0  0  0  0  0
  -24.0048  -12.1354   -1.2513 C   0  0  0  0  0  0  0  0  0  0  0  0
  -21.2412  -11.0170   -6.5470 O   0  0  0  0  0  0  0  0  0  0  0  0
  -20.8960   -9.8935   -7.2689 C   0  0  0  0  0  0  0  0  0  0  0  0
  -26.4881  -11.9908   -6.9505 C   0  0  0  0  0  0  0  0  0  0  0  0
  -26.6560  -11.3317   -8.3325 C   0  0  0  0  0  0  0  0  0  0  0  0
  -28.0430  -11.3664   -8.8309 N   0  0  0  0  0  0  0  0  0  0  0  0
  -28.6888  -11.5132   -8.0175 H   0  0  0  0  0  0  0  0  0  0  0  0
  -28.3949  -10.0681   -9.4549 C   0  0  0  0  0  0  0  0  0  0  0  0
  -27.1903   -9.1101   -9.5075 C   0  0  0  0  0  0  0  0  0  0  0  0
  -28.9474  -10.2715  -10.8677 C   0  0  0  0  0  0  0  0  0  0  0  0
 17 18  1  0  0  0
 18 11  1  0  0  0
 11 12  2  0  0  0
 11 15  1  0  0  0
 12  1  1  0  0  0
 12 13  1  0  0  0
  1  2  1  0  0  0
  1 10  2  0  0  0
  2  3  2  0  0  0
  3  4  1  0  0  0
  4  5  1  0  0  0
  4  9  2  0  0  0
  5  6  2  0  0  0
  6  7  1  0  0  0
  7 19  1  0  0  0
  7  8  2  0  0  0
 19 30  1  0  0  0
 19 20  1  0  0  0
 30 31  1  0  0  0
 31 32  1  0  0  0
 32 34  1  0  0  0
 32 33  1  0  0  0
 34 35  1  0  0  0
 34 36  1  0  0  0
 20 21  1  0  0  0
 20 25  2  0  0  0
 21 22  2  0  0  0
 22 26  1  0  0  0
 22 23  1  0  0  0
 26 27  1  0  0  0
 23 24  2  0  0  0
 24 28  1  0  0  0
 24 25  1  0  0  0
 28 29  1  0  0  0
  8  9  1  0  0  0
  9 10  1  0  0  0
 13 14  2  0  0  0
 14 15  1  0  0  0
 15 16  1  0  0  0
M  END
> <minimizedAffinity>
-7.27229

$$$$
