CHEMBL4576032


 41 44  0  0  0  0  0  0  0  0999 V2000
  -29.3337   -5.8722   -6.8067 C   0  0  0  0  0  0  0  0  0  0  0  0
  -29.1778   -4.8541   -5.8627 C   0  0  0  0  0  0  0  0  0  0  0  0
  -30.0830   -4.6952   -4.7980 C   0  0  0  0  0  0  0  0  0  0  0  0
  -29.9241   -3.7501   -3.7733 C   0  0  0  0  0  0  0  0  0  0  0  0
  -30.7746   -3.6834   -2.7353 N   0  0  0  0  0  0  0  0  0  0  0  0
  -31.8014   -4.5374   -2.7443 C   0  0  0  0  0  0  0  0  0  0  0  0
  -32.0610   -5.4524   -3.6859 N   0  0  0  0  0  0  0  0  0  0  0  0
  -31.1936   -5.5381   -4.7014 C   0  0  0  0  0  0  0  0  0  0  0  0
  -31.3823   -6.5002   -5.6928 C   0  0  0  0  0  0  0  0  0  0  0  0
  -30.4763   -6.6882   -6.7508 C   0  0  0  0  0  0  0  0  0  0  0  0
  -27.8205   -4.8194   -8.2904 C   0  0  0  0  0  0  0  0  0  0  0  0
  -28.4099   -6.0228   -7.7989 O   0  0  0  0  0  0  0  0  0  0  0  0
  -28.8284   -2.8424   -3.8288 N   0  0  0  0  0  0  0  0  0  0  0  0
  -27.9617   -3.3699   -3.8531 H   0  0  0  0  0  0  0  0  0  0  0  0
  -28.7886   -1.6807   -4.6265 C   0  0  0  0  0  0  0  0  0  0  0  0
  -27.5734   -1.2238   -5.1640 C   0  0  0  0  0  0  0  0  0  0  0  0
  -27.5137   -0.0430   -5.9058 C   0  0  0  0  0  0  0  0  0  0  0  0
  -28.6763    0.6841   -6.1183 C   0  0  0  0  0  0  0  0  0  0  0  0
  -28.6163    1.8345   -6.8023 F   0  0  0  0  0  0  0  0  0  0  0  0
  -29.8903    0.2251   -5.6221 C   0  0  0  0  0  0  0  0  0  0  0  0
  -31.0120    0.9284   -5.8319 F   0  0  0  0  0  0  0  0  0  0  0  0
  -29.9578   -0.9583   -4.8898 C   0  0  0  0  0  0  0  0  0  0  0  0
  -30.8353   -7.7081   -7.6075 O   0  0  0  0  0  0  0  0  0  0  0  0
  -31.3510   -8.8886   -7.0003 C   0  0  0  0  0  0  0  0  0  0  0  0
  -32.6190   -9.4043   -7.6717 C   0  0  0  0  0  0  0  0  0  0  0  0
  -32.2236  -10.5367   -8.4540 O   0  0  0  0  0  0  0  0  0  0  0  0
  -31.3793  -11.4405   -7.7547 C   0  0  0  0  0  0  0  0  0  0  0  0
  -30.3213  -11.9666   -8.7291 C   0  0  0  0  0  0  0  0  0  0  0  0
  -28.9818  -11.5231   -8.3849 N   0  0  0  0  0  0  0  0  0  0  0  0
  -28.4301  -10.3955   -8.9532 C   0  0  0  0  0  0  0  0  0  0  0  0
  -29.0042   -9.7315   -9.8128 O   0  0  0  0  0  0  0  0  0  0  0  0
  -28.4704  -12.0576   -7.6921 H   0  0  0  0  0  0  0  0  0  0  0  0
  -27.0691  -10.0076   -8.4289 C   0  0  0  0  0  0  0  0  0  0  0  0
  -27.0695   -9.9093   -6.9874 N   0  0  0  0  0  0  0  0  0  0  0  0
  -26.0674  -10.2336   -6.1216 C   0  0  0  0  0  0  0  0  0  0  0  0
  -26.4396   -9.9679   -4.8891 N   0  0  0  0  0  0  0  0  0  0  0  0
  -27.7081   -9.4655   -5.0620 C   0  0  0  0  0  0  0  0  0  0  0  0
  -28.1335   -9.3922   -6.3367 N   0  0  0  0  0  0  0  0  0  0  0  0
  -28.5564   -9.0533   -3.9520 N   0  0  0  0  0  0  0  0  0  0  0  0
  -29.0833   -9.9520   -3.2780 O   0  0  0  0  0  0  0  0  0  0  0  0
  -28.7021   -7.8359   -3.7525 O   0  0  0  0  0  0  0  0  0  0  0  0
 11 12  1  0  0  0
 12  1  1  0  0  0
  1  2  1  0  0  0
  1 10  2  0  0  0
  2  3  2  0  0  0
  3  4  1  0  0  0
  3  8  1  0  0  0
  4 13  1  0  0  0
  4  5  2  0  0  0
 13 15  1  0  0  0
 13 14  1  0  0  0
 15 16  1  0  0  0
 15 22  2  0  0  0
 16 17  2  0  0  0
 17 18  1  0  0  0
 18 19  1  0  0  0
 18 20  2  0  0  0
 20 21  1  0  0  0
 20 22  1  0  0  0
  5  6  1  0  0  0
  6  7  2  0  0  0
  7  8  1  0  0  0
  8  9  2  0  0  0
  9 10  1  0  0  0
 10 23  1  0  0  0
 23 24  1  0  0  0
 24 25  1  0  0  0
 25 26  1  0  0  0
 26 27  1  0  0  0
 27 28  1  0  0  0
 28 29  1  0  0  0
 29 30  1  0  0  0
 29 32  1  0  0  0
 30 31  2  0  0  0
 30 33  1  0  0  0
 33 34  1  0  0  0
 34 35  1  0  0  0
 34 38  1  0  0  0
 35 36  2  0  0  0
 36 37  1  0  0  0
 37 39  1  0  0  0
 37 38  2  0  0  0
 39 40  2  0  0  0
 39 41  1  0  0  0
M  CHG 1  39   1
M  CHG 1  41  -1
M  END
> <minimizedAffinity>
-7.48481

$$$$
