CHEMBL3093579


 42 47  0  0  0  0  0  0  0  0999 V2000
  -14.6803    1.6916  -16.0048 C   0  0  0  0  0  0  0  0  0  0  0  0
  -15.9936    1.3857  -15.6527 C   0  0  0  0  0  0  0  0  0  0  0  0
  -16.2442    0.6660  -14.4937 C   0  0  0  0  0  0  0  0  0  0  0  0
  -15.1834    0.2663  -13.6561 C   0  0  0  0  0  0  0  0  0  0  0  0
  -13.8631    0.5067  -14.0574 C   0  0  0  0  0  0  0  0  0  0  0  0
  -12.8251    0.0839  -13.2928 F   0  0  0  0  0  0  0  0  0  0  0  0
  -13.6127    1.2256  -15.2276 C   0  0  0  0  0  0  0  0  0  0  0  0
  -13.7239    3.6926  -16.9331 C   0  0  0  0  0  0  0  0  0  0  0  0
  -13.3431    3.9826  -15.8054 O   0  0  0  0  0  0  0  0  0  0  0  0
  -14.4326    2.5344  -17.1069 N   0  0  0  0  0  0  0  0  0  0  0  0
  -14.7654    2.2192  -18.0241 H   0  0  0  0  0  0  0  0  0  0  0  0
  -12.2074    7.2598  -21.2835 C   0  0  0  0  0  0  0  0  0  0  0  0
  -12.7147    6.3484  -20.1778 C   0  0  0  0  0  0  0  0  0  0  0  0
  -11.7832    5.4379  -19.6838 C   0  0  0  0  0  0  0  0  0  0  0  0
  -12.1025    4.5880  -18.6488 C   0  0  0  0  0  0  0  0  0  0  0  0
  -13.3741    4.6135  -18.0734 C   0  0  0  0  0  0  0  0  0  0  0  0
  -14.3171    5.5445  -18.5897 C   0  0  0  0  0  0  0  0  0  0  0  0
  -15.4412    5.5551  -18.1141 O   0  0  0  0  0  0  0  0  0  0  0  0
  -13.9947    6.4247  -19.6284 N   0  0  0  0  0  0  0  0  0  0  0  0
  -14.9857    7.4253  -20.0521 C   0  0  0  0  0  0  0  0  0  0  0  0
  -15.0759    8.6788  -19.3840 C   0  0  0  0  0  0  0  0  0  0  0  0
  -15.9998    9.6515  -19.7782 C   0  0  0  0  0  0  0  0  0  0  0  0
  -16.8542    9.4122  -20.8495 C   0  0  0  0  0  0  0  0  0  0  0  0
  -16.7943    8.1954  -21.5215 C   0  0  0  0  0  0  0  0  0  0  0  0
  -15.8810    7.2134  -21.1263 C   0  0  0  0  0  0  0  0  0  0  0  0
  -15.4072   -0.3417  -12.4671 O   0  0  0  0  0  0  0  0  0  0  0  0
  -15.5416   -1.6798  -12.2730 C   0  0  0  0  0  0  0  0  0  0  0  0
  -15.9887   -2.1021  -11.0128 C   0  0  0  0  0  0  0  0  0  0  0  0
  -16.0757   -3.4554  -10.7170 C   0  0  0  0  0  0  0  0  0  0  0  0
  -15.7030   -4.3559  -11.6932 C   0  0  0  0  0  0  0  0  0  0  0  0
  -15.6597   -5.6666  -11.5080 N   0  0  0  0  0  0  0  0  0  0  0  0
  -15.1853   -6.1781  -12.6617 C   0  0  0  0  0  0  0  0  0  0  0  0
  -14.9845   -5.1250  -13.5761 C   0  0  0  0  0  0  0  0  0  0  0  0
  -15.3019   -3.9801  -12.9152 N   0  0  0  0  0  0  0  0  0  0  0  0
  -15.2298   -2.6638  -13.2674 C   0  0  0  0  0  0  0  0  0  0  0  0
  -14.8735   -7.5755  -12.7842 N   0  0  0  0  0  0  0  0  0  0  0  0
  -13.7618   -8.0887  -12.1388 C   0  0  0  0  0  0  0  0  0  0  0  0
  -13.0930   -7.3709  -11.4120 O   0  0  0  0  0  0  0  0  0  0  0  0
  -15.4390   -8.1672  -13.4158 H   0  0  0  0  0  0  0  0  0  0  0  0
  -13.2140   -9.4911  -12.2631 C   0  0  0  0  0  0  0  0  0  0  0  0
  -11.7521   -9.8911  -12.2070 C   0  0  0  0  0  0  0  0  0  0  0  0
  -12.4093   -9.5836  -13.5438 C   0  0  0  0  0  0  0  0  0  0  0  0
 12 13  1  0  0  0
 13 14  2  0  0  0
 13 19  1  0  0  0
 14 15  1  0  0  0
 15 16  2  0  0  0
 16  8  1  0  0  0
 16 17  1  0  0  0
  8  9  2  0  0  0
  8 10  1  0  0  0
 10  1  1  0  0  0
 10 11  1  0  0  0
  1  2  1  0  0  0
  1  7  2  0  0  0
  2  3  2  0  0  0
  3  4  1  0  0  0
  4 26  1  0  0  0
  4  5  2  0  0  0
 26 27  1  0  0  0
 27 28  1  0  0  0
 27 35  2  0  0  0
 28 29  2  0  0  0
 29 30  1  0  0  0
 30 31  2  0  0  0
 30 34  1  0  0  0
 31 32  1  0  0  0
 32 36  1  0  0  0
 32 33  2  0  0  0
 36 37  1  0  0  0
 36 39  1  0  0  0
 37 38  2  0  0  0
 37 40  1  0  0  0
 40 41  1  0  0  0
 40 42  1  0  0  0
 41 42  1  0  0  0
 33 34  1  0  0  0
 34 35  1  0  0  0
  5  6  1  0  0  0
  5  7  1  0  0  0
 17 18  2  0  0  0
 17 19  1  0  0  0
 19 20  1  0  0  0
 20 21  1  0  0  0
 20 25  2  0  0  0
 21 22  2  0  0  0
 22 23  1  0  0  0
 23 24  2  0  0  0
 24 25  1  0  0  0
M  END
> <minimizedAffinity>
-8.31513

$$$$
