CHEMBL590878


 28 30  0  0  0  0  0  0  0  0999 V2000
  -15.5968    0.3085  -15.9722 O   0  0  0  0  0  0  0  0  0  0  0  0
  -16.6665    1.0778  -15.6281 C   0  0  0  0  0  0  0  0  0  0  0  0
  -16.5514    2.4536  -15.7697 C   0  0  0  0  0  0  0  0  0  0  0  0
  -17.6446    3.2443  -15.4613 C   0  0  0  0  0  0  0  0  0  0  0  0
  -17.5715    4.6040  -15.5968 O   0  0  0  0  0  0  0  0  0  0  0  0
  -18.8497    2.6626  -15.0358 C   0  0  0  0  0  0  0  0  0  0  0  0
  -19.9801    3.4212  -14.8191 C   0  0  0  0  0  0  0  0  0  0  0  0
  -21.1147    2.7383  -14.4728 C   0  0  0  0  0  0  0  0  0  0  0  0
  -22.2822    3.4479  -14.3749 O   0  0  0  0  0  0  0  0  0  0  0  0
  -21.0646    1.3296  -14.2910 C   0  0  0  0  0  0  0  0  0  0  0  0
  -20.0037    0.6714  -14.5196 O   0  0  0  0  0  0  0  0  0  0  0  0
  -18.9348    1.2595  -14.8652 C   0  0  0  0  0  0  0  0  0  0  0  0
  -17.8288    0.4723  -15.1591 C   0  0  0  0  0  0  0  0  0  0  0  0
  -15.1686    0.0167  -15.1131 H   0  0  0  0  0  0  0  0  0  0  0  0
  -16.6479    4.8535  -15.7930 H   0  0  0  0  0  0  0  0  0  0  0  0
  -22.1433    4.3971  -14.5532 H   0  0  0  0  0  0  0  0  0  0  0  0
  -22.2541    0.5042  -13.9365 C   0  0  0  0  0  0  0  0  0  0  0  0
  -22.3910   -0.0665  -12.6495 C   0  0  0  0  0  0  0  0  0  0  0  0
  -23.4447   -0.9421  -12.3664 C   0  0  0  0  0  0  0  0  0  0  0  0
  -23.5927   -1.5401  -11.1496 O   0  0  0  0  0  0  0  0  0  0  0  0
  -24.3785   -1.2618  -13.3450 C   0  0  0  0  0  0  0  0  0  0  0  0
  -25.3878   -2.1490  -13.1005 O   0  0  0  0  0  0  0  0  0  0  0  0
  -24.2912   -0.6789  -14.5943 C   0  0  0  0  0  0  0  0  0  0  0  0
  -25.1881   -0.9902  -15.5721 O   0  0  0  0  0  0  0  0  0  0  0  0
  -23.2663    0.2127  -14.8831 C   0  0  0  0  0  0  0  0  0  0  0  0
  -22.9212   -1.1912  -10.5336 H   0  0  0  0  0  0  0  0  0  0  0  0
  -25.2622   -2.4186  -12.1678 H   0  0  0  0  0  0  0  0  0  0  0  0
  -25.7818   -1.6573  -15.1704 H   0  0  0  0  0  0  0  0  0  0  0  0
  1  2  1  0  0  0
  1 14  1  0  0  0
  2  3  1  0  0  0
  2 13  2  0  0  0
  3  4  2  0  0  0
  4  5  1  0  0  0
  4  6  1  0  0  0
  5 15  1  0  0  0
  6  7  1  0  0  0
  6 12  2  0  0  0
  7  8  2  0  0  0
  8  9  1  0  0  0
  8 10  1  0  0  0
  9 16  1  0  0  0
 10 17  1  0  0  0
 10 11  2  0  0  0
 17 18  1  0  0  0
 17 25  2  0  0  0
 18 19  2  0  0  0
 19 20  1  0  0  0
 19 21  1  0  0  0
 20 26  1  0  0  0
 21 22  1  0  0  0
 21 23  2  0  0  0
 22 27  1  0  0  0
 23 24  1  0  0  0
 23 25  1  0  0  0
 24 28  1  0  0  0
 11 12  1  0  0  0
 12 13  1  0  0  0
M  CHG 1  11   1
M  END
> <minimizedAffinity>
-10.02363

$$$$
