CHEMBL2113169


 31 33  0  0  0  0  0  0  0  0999 V2000
  -28.8472   -1.6738   -4.9492 C   0  0  0  0  0  0  0  0  0  0  0  0
  -29.7946   -2.2180   -4.0504 C   0  0  0  0  0  0  0  0  0  0  0  0
  -30.3200   -3.5016   -4.1638 C   0  0  0  0  0  0  0  0  0  0  0  0
  -31.2596   -3.9069   -3.3004 N   0  0  0  0  0  0  0  0  0  0  0  0
  -31.7359   -5.1442   -3.4663 C   0  0  0  0  0  0  0  0  0  0  0  0
  -31.3427   -6.0174   -4.3965 N   0  0  0  0  0  0  0  0  0  0  0  0
  -30.3981   -5.6073   -5.2636 C   0  0  0  0  0  0  0  0  0  0  0  0
  -29.8548   -4.3107   -5.1984 C   0  0  0  0  0  0  0  0  0  0  0  0
  -28.9074   -3.7816   -6.1044 C   0  0  0  0  0  0  0  0  0  0  0  0
  -28.3893   -2.4776   -5.9987 C   0  0  0  0  0  0  0  0  0  0  0  0
  -29.9822   -6.4894   -6.2958 N   0  0  0  0  0  0  0  0  0  0  0  0
  -29.8833   -6.0132   -7.1935 H   0  0  0  0  0  0  0  0  0  0  0  0
  -29.0331   -7.4992   -6.1680 C   0  0  0  0  0  0  0  0  0  0  0  0
  -28.3232   -7.8103   -5.0744 C   0  0  0  0  0  0  0  0  0  0  0  0
  -27.2857   -8.8405   -5.0316 C   0  0  0  0  0  0  0  0  0  0  0  0
  -26.5907   -8.9251   -4.0211 O   0  0  0  0  0  0  0  0  0  0  0  0
  -27.1279   -9.7210   -6.2312 C   0  0  0  0  0  0  0  0  0  0  0  0
  -27.8576   -9.4550   -7.3203 C   0  0  0  0  0  0  0  0  0  0  0  0
  -28.8197   -8.3376   -7.3898 C   0  0  0  0  0  0  0  0  0  0  0  0
  -29.4382   -8.1066   -8.4256 O   0  0  0  0  0  0  0  0  0  0  0  0
  -26.2485  -10.7944   -6.2817 O   0  0  0  0  0  0  0  0  0  0  0  0
  -24.9500  -10.6109   -6.8674 C   0  0  0  0  0  0  0  0  0  0  0  0
  -23.8791  -10.4313   -5.7963 C   0  0  0  0  0  0  0  0  0  0  0  0
  -24.6465  -11.8640   -7.6877 C   0  0  0  0  0  0  0  0  0  0  0  0
  -27.5997   -2.2160   -7.0777 O   0  0  0  0  0  0  0  0  0  0  0  0
  -27.8915   -2.7167   -8.3683 C   0  0  0  0  0  0  0  0  0  0  0  0
  -28.5809   -0.3670   -4.6211 O   0  0  0  0  0  0  0  0  0  0  0  0
  -28.8616    0.6227   -5.5878 C   0  0  0  0  0  0  0  0  0  0  0  0
  -30.3251    1.0321   -5.6444 C   0  0  0  0  0  0  0  0  0  0  0  0
  -31.7580    2.2300   -7.1188 C   0  0  0  0  0  0  0  0  0  0  0  0
  -30.4268    1.8789   -6.7935 O   0  0  0  0  0  0  0  0  0  0  0  0
 30 31  1  0  0  0
 31 29  1  0  0  0
 29 28  1  0  0  0
 28 27  1  0  0  0
 27  1  1  0  0  0
  1  2  1  0  0  0
  1 10  2  0  0  0
  2  3  2  0  0  0
  3  4  1  0  0  0
  3  8  1  0  0  0
  4  5  2  0  0  0
  5  6  1  0  0  0
  6  7  2  0  0  0
  7 11  1  0  0  0
  7  8  1  0  0  0
 11 13  1  0  0  0
 11 12  1  0  0  0
 13 14  2  0  0  0
 13 19  1  0  0  0
 14 15  1  0  0  0
 15 16  2  0  0  0
 15 17  1  0  0  0
 17 21  1  0  0  0
 17 18  2  0  0  0
 21 22  1  0  0  0
 22 23  1  0  0  0
 22 24  1  0  0  0
 18 19  1  0  0  0
 19 20  2  0  0  0
  8  9  2  0  0  0
  9 10  1  0  0  0
 10 25  1  0  0  0
 25 26  1  0  0  0
M  END
> <minimizedAffinity>
-7.51581

$$$$
