CHEMBL205884


 33 36  0  0  0  0  0  0  0  0999 V2000
  -14.8894    1.3649  -15.0660 C   0  0  0  0  0  0  0  0  0  0  0  0
  -15.0024    1.3090  -16.3799 N   0  0  0  0  0  0  0  0  0  0  0  0
  -16.1629    1.9662  -16.7071 N   0  0  0  0  0  0  0  0  0  0  0  0
  -16.6935    2.3876  -15.5789 C   0  0  0  0  0  0  0  0  0  0  0  0
  -15.9210    2.0755  -14.4979 O   0  0  0  0  0  0  0  0  0  0  0  0
  -12.2336    2.6447  -14.1506 C   0  0  0  0  0  0  0  0  0  0  0  0
  -12.6774    1.2911  -13.9197 N   0  0  0  0  0  0  0  0  0  0  0  0
  -11.9464    0.3232  -13.2881 C   0  0  0  0  0  0  0  0  0  0  0  0
  -12.5585   -0.8400  -13.3117 N   0  0  0  0  0  0  0  0  0  0  0  0
  -13.7494   -0.5956  -13.9249 C   0  0  0  0  0  0  0  0  0  0  0  0
  -13.8628    0.7200  -14.3221 C   0  0  0  0  0  0  0  0  0  0  0  0
  -14.6552   -1.5597  -14.1362 N   0  0  0  0  0  0  0  0  0  0  0  0
  -14.6021   -2.1446  -14.9622 H   0  0  0  0  0  0  0  0  0  0  0  0
  -15.9002   -1.6224  -13.4038 C   0  0  0  0  0  0  0  0  0  0  0  0
  -15.8683   -2.8336  -12.4973 C   0  0  0  0  0  0  0  0  0  0  0  0
  -16.2522   -4.0935  -12.9766 C   0  0  0  0  0  0  0  0  0  0  0  0
  -16.2045   -5.1808  -12.1200 C   0  0  0  0  0  0  0  0  0  0  0  0
  -15.8009   -5.1041  -10.8353 N   0  0  0  0  0  0  0  0  0  0  0  0
  -15.4224   -3.8849  -10.3934 C   0  0  0  0  0  0  0  0  0  0  0  0
  -15.4397   -2.7368  -11.1711 C   0  0  0  0  0  0  0  0  0  0  0  0
  -17.8406    3.0333  -15.3056 N   0  0  0  0  0  0  0  0  0  0  0  0
  -17.7576    4.0004  -15.0186 H   0  0  0  0  0  0  0  0  0  0  0  0
  -19.0686    2.4378  -14.9607 C   0  0  0  0  0  0  0  0  0  0  0  0
  -19.3418    1.0761  -15.1413 C   0  0  0  0  0  0  0  0  0  0  0  0
  -20.5858    0.5266  -14.8076 C   0  0  0  0  0  0  0  0  0  0  0  0
  -21.5973    1.3374  -14.3059 C   0  0  0  0  0  0  0  0  0  0  0  0
  -21.3584    2.7054  -14.1656 C   0  0  0  0  0  0  0  0  0  0  0  0
  -20.1071    3.2484  -14.4851 C   0  0  0  0  0  0  0  0  0  0  0  0
  -22.8573    0.9282  -13.9863 O   0  0  0  0  0  0  0  0  0  0  0  0
  -23.0034    0.1106  -12.8283 C   0  0  0  0  0  0  0  0  0  0  0  0
  -21.9159    0.2225  -12.0266 F   0  0  0  0  0  0  0  0  0  0  0  0
  -24.0929    0.5042  -12.1228 F   0  0  0  0  0  0  0  0  0  0  0  0
  -23.1877   -1.5766  -13.3217 Cl  0  0  0  0  0  0  0  0  0  0  0  0
  6  7  1  0  0  0
  7  8  1  0  0  0
  7 11  1  0  0  0
  8  9  2  0  0  0
  9 10  1  0  0  0
 10 12  1  0  0  0
 10 11  2  0  0  0
 12 14  1  0  0  0
 12 13  1  0  0  0
 14 15  1  0  0  0
 15 16  1  0  0  0
 15 20  2  0  0  0
 16 17  2  0  0  0
 17 18  1  0  0  0
 18 19  2  0  0  0
 19 20  1  0  0  0
 11  1  1  0  0  0
  1  2  2  0  0  0
  1  5  1  0  0  0
  2  3  1  0  0  0
  3  4  2  0  0  0
  4 21  1  0  0  0
  4  5  1  0  0  0
 21 23  1  0  0  0
 21 22  1  0  0  0
 23 24  1  0  0  0
 23 28  2  0  0  0
 24 25  2  0  0  0
 25 26  1  0  0  0
 26 29  1  0  0  0
 26 27  2  0  0  0
 29 30  1  0  0  0
 30 31  1  0  0  0
 30 32  1  0  0  0
 30 33  1  0  0  0
 27 28  1  0  0  0
M  END
> <minimizedAffinity>
-8.80654

$$$$
