CHEMBL3633768


 33 35  0  0  0  0  0  0  0  0999 V2000
  -29.2101   -8.3944   -7.8363 C   0  0  0  0  0  0  0  0  0  0  0  0
  -28.7279   -9.3724   -6.9590 C   0  0  0  0  0  0  0  0  0  0  0  0
  -28.6126   -9.1561   -5.5930 C   0  0  0  0  0  0  0  0  0  0  0  0
  -28.0996  -10.1366   -4.8457 N   0  0  0  0  0  0  0  0  0  0  0  0
  -27.9970   -9.9013   -3.5359 C   0  0  0  0  0  0  0  0  0  0  0  0
  -28.3898   -8.7936   -2.9073 N   0  0  0  0  0  0  0  0  0  0  0  0
  -28.9244   -7.8164   -3.6651 C   0  0  0  0  0  0  0  0  0  0  0  0
  -29.0320   -7.9325   -5.0614 C   0  0  0  0  0  0  0  0  0  0  0  0
  -29.5187   -6.9314   -5.9331 C   0  0  0  0  0  0  0  0  0  0  0  0
  -29.6374   -7.1699   -7.3046 C   0  0  0  0  0  0  0  0  0  0  0  0
  -29.4630   -9.8426   -9.7473 C   0  0  0  0  0  0  0  0  0  0  0  0
  -29.2618   -8.5488   -9.1921 O   0  0  0  0  0  0  0  0  0  0  0  0
  -29.4294   -6.6554   -3.0144 N   0  0  0  0  0  0  0  0  0  0  0  0
  -29.1677   -6.7007   -2.0298 H   0  0  0  0  0  0  0  0  0  0  0  0
  -29.2475   -5.3380   -3.5120 C   0  0  0  0  0  0  0  0  0  0  0  0
  -27.9594   -4.8860   -3.8376 C   0  0  0  0  0  0  0  0  0  0  0  0
  -27.7461   -3.5764   -4.2671 C   0  0  0  0  0  0  0  0  0  0  0  0
  -28.8253   -2.7068   -4.3863 C   0  0  0  0  0  0  0  0  0  0  0  0
  -28.5526   -1.0780   -4.8692 Cl  0  0  0  0  0  0  0  0  0  0  0  0
  -30.1195   -3.1392   -4.1049 C   0  0  0  0  0  0  0  0  0  0  0  0
  -30.3278   -4.4532   -3.6785 C   0  0  0  0  0  0  0  0  0  0  0  0
  -31.9428   -4.9571   -3.3188 Cl  0  0  0  0  0  0  0  0  0  0  0  0
  -30.1118   -6.1023   -8.0221 O   0  0  0  0  0  0  0  0  0  0  0  0
  -30.1404   -4.8591   -7.3150 C   0  0  0  0  0  0  0  0  0  0  0  0
  -29.6691   -3.7404   -8.2506 C   0  0  0  0  0  0  0  0  0  0  0  0
  -28.1892   -3.4189   -8.0275 C   0  0  0  0  0  0  0  0  0  0  0  0
  -27.8417   -1.9676   -8.3505 C   0  0  0  0  0  0  0  0  0  0  0  0
  -27.1549   -1.8582   -9.6975 C   0  0  0  0  0  0  0  0  0  0  0  0
  -25.9612   -1.6020   -9.8568 O   0  0  0  0  0  0  0  0  0  0  0  0
  -27.9876   -2.0758  -10.7667 N   0  0  0  0  0  0  0  0  0  0  0  0
  -27.3672   -2.0682  -12.0371 O   0  0  0  0  0  0  0  0  0  0  0  0
  -28.9052   -2.5015  -10.7036 H   0  0  0  0  0  0  0  0  0  0  0  0
  -26.4344   -1.8481  -11.8129 H   0  0  0  0  0  0  0  0  0  0  0  0
 11 12  1  0  0  0
 12  1  1  0  0  0
  1  2  1  0  0  0
  1 10  2  0  0  0
  2  3  2  0  0  0
  3  4  1  0  0  0
  3  8  1  0  0  0
  4  5  2  0  0  0
  5  6  1  0  0  0
  6  7  2  0  0  0
  7 13  1  0  0  0
  7  8  1  0  0  0
 13 15  1  0  0  0
 13 14  1  0  0  0
 15 16  1  0  0  0
 15 21  2  0  0  0
 16 17  2  0  0  0
 17 18  1  0  0  0
 18 19  1  0  0  0
 18 20  2  0  0  0
 20 21  1  0  0  0
 21 22  1  0  0  0
  8  9  2  0  0  0
  9 10  1  0  0  0
 10 23  1  0  0  0
 23 24  1  0  0  0
 24 25  1  0  0  0
 25 26  1  0  0  0
 26 27  1  0  0  0
 27 28  1  0  0  0
 28 29  2  0  0  0
 28 30  1  0  0  0
 30 31  1  0  0  0
 30 32  1  0  0  0
 31 33  1  0  0  0
M  END
> <minimizedAffinity>
-7.95724

$$$$
