CHEMBL214495


 40 44  0  0  0  0  0  0  0  0999 V2000
  -27.5957   -2.2180   -8.8682 C   0  0  0  0  0  0  0  0  0  0  0  0
  -28.0035   -3.5717   -8.7542 C   0  0  0  0  0  0  0  0  0  0  0  0
  -28.7679   -4.0449   -7.6742 C   0  0  0  0  0  0  0  0  0  0  0  0
  -29.0498   -3.1807   -6.6225 C   0  0  0  0  0  0  0  0  0  0  0  0
  -28.6482   -1.8523   -6.6870 C   0  0  0  0  0  0  0  0  0  0  0  0
  -27.9690   -1.3458   -7.8113 C   0  0  0  0  0  0  0  0  0  0  0  0
  -27.7106    0.1401   -7.8044 C   0  0  0  0  0  0  0  0  0  0  0  0
  -23.4902   -0.4647  -13.5465 C   0  0  0  0  0  0  0  0  0  0  0  0
  -22.7371   -0.8486  -12.5096 N   0  0  0  0  0  0  0  0  0  0  0  0
  -23.3946   -1.2996  -11.4278 C   0  0  0  0  0  0  0  0  0  0  0  0
  -24.7724   -1.3635  -11.3319 C   0  0  0  0  0  0  0  0  0  0  0  0
  -25.4627   -1.8527  -10.1959 C   0  0  0  0  0  0  0  0  0  0  0  0
  -26.8563   -1.7858  -10.0928 C   0  0  0  0  0  0  0  0  0  0  0  0
  -27.5342   -1.2985  -11.2245 C   0  0  0  0  0  0  0  0  0  0  0  0
  -26.8454   -0.8822  -12.3734 C   0  0  0  0  0  0  0  0  0  0  0  0
  -25.4591   -0.8870  -12.4411 C   0  0  0  0  0  0  0  0  0  0  0  0
  -24.8314   -0.4538  -13.5383 N   0  0  0  0  0  0  0  0  0  0  0  0
  -21.5827    0.6930  -14.3928 C   0  0  0  0  0  0  0  0  0  0  0  0
  -22.7885   -0.0500  -14.6683 N   0  0  0  0  0  0  0  0  0  0  0  0
  -22.6887   -0.8626  -15.2642 H   0  0  0  0  0  0  0  0  0  0  0  0
  -29.2700   -5.4525   -7.7179 C   0  0  0  0  0  0  0  0  0  0  0  0
  -30.4670   -5.6479   -7.9082 O   0  0  0  0  0  0  0  0  0  0  0  0
  -28.3221   -6.4507   -7.5557 N   0  0  0  0  0  0  0  0  0  0  0  0
  -27.3427   -6.2551   -7.7071 H   0  0  0  0  0  0  0  0  0  0  0  0
  -28.6241   -7.8235   -7.6608 C   0  0  0  0  0  0  0  0  0  0  0  0
  -28.3242   -8.5086   -8.8449 C   0  0  0  0  0  0  0  0  0  0  0  0
  -28.7377   -9.8335   -9.0195 C   0  0  0  0  0  0  0  0  0  0  0  0
  -29.3533  -10.4893   -7.9476 C   0  0  0  0  0  0  0  0  0  0  0  0
  -29.6435   -9.8036   -6.7617 C   0  0  0  0  0  0  0  0  0  0  0  0
  -29.3462   -8.4410   -6.6101 C   0  0  0  0  0  0  0  0  0  0  0  0
  -29.7747   -7.6934   -5.4944 N   0  0  0  0  0  0  0  0  0  0  0  0
  -31.2032   -7.3375   -5.4437 C   0  0  0  0  0  0  0  0  0  0  0  0
  -31.3750   -6.1369   -4.5153 C   0  0  0  0  0  0  0  0  0  0  0  0
  -30.7876   -6.4087   -3.1308 C   0  0  0  0  0  0  0  0  0  0  0  0
  -29.3567   -6.9389   -3.2260 C   0  0  0  0  0  0  0  0  0  0  0  0
  -29.2580   -8.1323   -4.1843 C   0  0  0  0  0  0  0  0  0  0  0  0
  -28.5728  -10.5305  -10.3473 C   0  0  0  0  0  0  0  0  0  0  0  0
  -28.7386  -11.8770  -10.2898 F   0  0  0  0  0  0  0  0  0  0  0  0
  -29.4482  -10.0733  -11.2872 F   0  0  0  0  0  0  0  0  0  0  0  0
  -27.3259  -10.3343  -10.8751 F   0  0  0  0  0  0  0  0  0  0  0  0
 18 19  1  0  0  0
 19  8  1  0  0  0
 19 20  1  0  0  0
  8  9  1  0  0  0
  8 17  2  0  0  0
  9 10  2  0  0  0
 10 11  1  0  0  0
 11 12  1  0  0  0
 11 16  2  0  0  0
 12 13  2  0  0  0
 13  1  1  0  0  0
 13 14  1  0  0  0
  1  2  1  0  0  0
  1  6  2  0  0  0
  2  3  2  0  0  0
  3 21  1  0  0  0
  3  4  1  0  0  0
 21 22  2  0  0  0
 21 23  1  0  0  0
 23 25  1  0  0  0
 23 24  1  0  0  0
 25 26  1  0  0  0
 25 30  2  0  0  0
 26 27  2  0  0  0
 27 37  1  0  0  0
 27 28  1  0  0  0
 37 38  1  0  0  0
 37 39  1  0  0  0
 37 40  1  0  0  0
 28 29  2  0  0  0
 29 30  1  0  0  0
 30 31  1  0  0  0
 31 32  1  0  0  0
 31 36  1  0  0  0
 32 33  1  0  0  0
 33 34  1  0  0  0
 34 35  1  0  0  0
 35 36  1  0  0  0
  4  5  2  0  0  0
  5  6  1  0  0  0
  6  7  1  0  0  0
 14 15  2  0  0  0
 15 16  1  0  0  0
 16 17  1  0  0  0
M  END
> <minimizedAffinity>
-8.84777

$$$$
