CHEMBL2011299


 28 30  0  0  0  0  0  0  0  0999 V2000
  -28.7952   -6.8010   -5.2552 C   0  0  0  0  0  0  0  0  0  0  0  0
  -29.7719   -6.6118   -6.2800 C   0  0  0  0  0  0  0  0  0  0  0  0
  -29.8412   -5.3235   -6.6346 N   0  0  0  0  0  0  0  0  0  0  0  0
  -29.0083   -4.6439   -5.8145 N   0  0  0  0  0  0  0  0  0  0  0  0
  -28.3579   -5.5218   -4.9338 C   0  0  0  0  0  0  0  0  0  0  0  0
  -27.4989   -5.1488   -3.9364 N   0  0  0  0  0  0  0  0  0  0  0  0
  -27.0572   -4.2303   -3.9817 H   0  0  0  0  0  0  0  0  0  0  0  0
  -26.7878   -5.8342   -3.6695 H   0  0  0  0  0  0  0  0  0  0  0  0
  -28.9016   -3.2230   -5.9477 C   0  0  0  0  0  0  0  0  0  0  0  0
  -29.4739   -2.3739   -4.9700 C   0  0  0  0  0  0  0  0  0  0  0  0
  -30.2268   -2.9136   -3.5016 Cl  0  0  0  0  0  0  0  0  0  0  0  0
  -29.3785   -0.9776   -5.0845 C   0  0  0  0  0  0  0  0  0  0  0  0
  -28.6976   -0.4085   -6.1492 C   0  0  0  0  0  0  0  0  0  0  0  0
  -28.5629    1.3008   -6.2704 Cl  0  0  0  0  0  0  0  0  0  0  0  0
  -28.1380   -1.2175   -7.1262 C   0  0  0  0  0  0  0  0  0  0  0  0
  -28.2649   -2.6137   -7.0488 C   0  0  0  0  0  0  0  0  0  0  0  0
  -27.7438   -3.4477   -8.4765 Cl  0  0  0  0  0  0  0  0  0  0  0  0
  -30.6673   -7.5882   -6.9195 C   0  0  0  0  0  0  0  0  0  0  0  0
  -32.0339   -7.6340   -6.6327 C   0  0  0  0  0  0  0  0  0  0  0  0
  -32.8184   -8.5922   -7.2550 C   0  0  0  0  0  0  0  0  0  0  0  0
  -32.3502   -9.4737   -8.1609 N   0  0  0  0  0  0  0  0  0  0  0  0
  -31.0367   -9.3896   -8.4581 C   0  0  0  0  0  0  0  0  0  0  0  0
  -30.1693   -8.4778   -7.8771 C   0  0  0  0  0  0  0  0  0  0  0  0
  -27.2462   -8.6165   -5.2278 N   0  0  0  0  0  0  0  0  0  0  0  0
  -28.3489   -8.0461   -4.6550 C   0  0  0  0  0  0  0  0  0  0  0  0
  -28.8761   -8.5759   -3.6840 O   0  0  0  0  0  0  0  0  0  0  0  0
  -26.8422   -9.4100   -4.7512 H   0  0  0  0  0  0  0  0  0  0  0  0
  -26.6693   -8.0738   -5.8592 H   0  0  0  0  0  0  0  0  0  0  0  0
 24 25  1  0  0  0
 24 27  1  0  0  0
 24 28  1  0  0  0
 25 26  2  0  0  0
 25  1  1  0  0  0
  1  2  1  0  0  0
  1  5  2  0  0  0
  2 18  1  0  0  0
  2  3  2  0  0  0
 18 19  1  0  0  0
 18 23  2  0  0  0
 19 20  2  0  0  0
 20 21  1  0  0  0
 21 22  2  0  0  0
 22 23  1  0  0  0
  3  4  1  0  0  0
  4  9  1  0  0  0
  4  5  1  0  0  0
  9 10  1  0  0  0
  9 16  2  0  0  0
 10 11  1  0  0  0
 10 12  2  0  0  0
 12 13  1  0  0  0
 13 14  1  0  0  0
 13 15  2  0  0  0
 15 16  1  0  0  0
 16 17  1  0  0  0
  5  6  1  0  0  0
  6  7  1  0  0  0
  6  8  1  0  0  0
M  END
> <minimizedAffinity>
-9.31007

$$$$
