CHEMBL389499


 28 32  0  0  0  0  0  0  0  0999 V2000
  -13.7796   -1.8563  -14.1563 C   0  0  0  0  0  0  0  0  0  0  0  0
  -14.4633   -3.0480  -14.2463 C   0  0  0  0  0  0  0  0  0  0  0  0
  -13.6439   -4.2292  -14.0401 C   0  0  0  0  0  0  0  0  0  0  0  0
  -12.3282   -3.8775  -13.8504 C   0  0  0  0  0  0  0  0  0  0  0  0
  -12.1166   -2.1609  -13.8541 S   0  0  0  0  0  0  0  0  0  0  0  0
  -14.2711   -5.5976  -14.1891 C   0  0  0  0  0  0  0  0  0  0  0  0
  -13.4294   -6.6485  -14.1845 N   0  0  0  0  0  0  0  0  0  0  0  0
  -13.6721   -7.1703  -12.9546 N   0  0  0  0  0  0  0  0  0  0  0  0
  -14.7897   -6.6240  -12.3911 C   0  0  0  0  0  0  0  0  0  0  0  0
  -15.4499   -6.0253  -13.4732 C   0  0  0  0  0  0  0  0  0  0  0  0
  -16.7015   -5.3594  -12.9828 C   0  0  0  0  0  0  0  0  0  0  0  0
  -16.1115   -4.8929  -11.6640 C   0  0  0  0  0  0  0  0  0  0  0  0
  -16.3815   -3.6545  -11.1038 C   0  0  0  0  0  0  0  0  0  0  0  0
  -15.4320   -3.1387  -10.2252 C   0  0  0  0  0  0  0  0  0  0  0  0
  -14.2865   -3.8818   -9.8777 C   0  0  0  0  0  0  0  0  0  0  0  0
  -14.0626   -5.1777  -10.3846 C   0  0  0  0  0  0  0  0  0  0  0  0
  -14.9828   -5.6984  -11.2813 C   0  0  0  0  0  0  0  0  0  0  0  0
  -13.0994   -7.9409  -12.6309 H   0  0  0  0  0  0  0  0  0  0  0  0
  -15.0362    0.5182  -14.6888 C   0  0  0  0  0  0  0  0  0  0  0  0
  -14.3534   -0.5467  -14.3726 C   0  0  0  0  0  0  0  0  0  0  0  0
  -15.8322    1.7596  -15.0574 C   0  0  0  0  0  0  0  0  0  0  0  0
  -16.8962    1.4200  -15.9379 O   0  0  0  0  0  0  0  0  0  0  0  0
  -18.1431    1.8194  -15.5358 C   0  0  0  0  0  0  0  0  0  0  0  0
  -18.6040    3.1378  -15.4774 C   0  0  0  0  0  0  0  0  0  0  0  0
  -19.9043    3.4143  -15.0508 C   0  0  0  0  0  0  0  0  0  0  0  0
  -20.7535    2.3729  -14.6776 C   0  0  0  0  0  0  0  0  0  0  0  0
  -20.2992    1.0540  -14.7320 C   0  0  0  0  0  0  0  0  0  0  0  0
  -19.0005    0.7835  -15.1608 C   0  0  0  0  0  0  0  0  0  0  0  0
 19 20  3  0  0  0
 19 21  1  0  0  0
 20  1  1  0  0  0
  1  2  2  0  0  0
  1  5  1  0  0  0
  2  3  1  0  0  0
  3  6  1  0  0  0
  3  4  2  0  0  0
  6  7  2  0  0  0
  6 10  1  0  0  0
  7  8  1  0  0  0
  8  9  1  0  0  0
  8 18  1  0  0  0
  9 10  2  0  0  0
  9 17  1  0  0  0
 10 11  1  0  0  0
 11 12  1  0  0  0
 12 13  1  0  0  0
 12 17  2  0  0  0
 13 14  2  0  0  0
 14 15  1  0  0  0
 15 16  2  0  0  0
 16 17  1  0  0  0
  4  5  1  0  0  0
 21 22  1  0  0  0
 22 23  1  0  0  0
 23 24  1  0  0  0
 23 28  2  0  0  0
 24 25  2  0  0  0
 25 26  1  0  0  0
 26 27  2  0  0  0
 27 28  1  0  0  0
M  END
> <minimizedAffinity>
-8.82884

$$$$
