CHEMBL2018766


 30 32  0  0  0  0  0  0  0  0999 V2000
  -12.7827   -4.2957  -13.0785 C   0  0  0  0  0  0  0  0  0  0  0  0
  -12.1564   -3.1340  -12.6003 C   0  0  0  0  0  0  0  0  0  0  0  0
  -12.3538   -1.8857  -13.1546 C   0  0  0  0  0  0  0  0  0  0  0  0
  -11.6896   -0.8665  -12.6101 N   0  0  0  0  0  0  0  0  0  0  0  0
  -11.9119    0.3362  -13.1375 C   0  0  0  0  0  0  0  0  0  0  0  0
  -12.7569    0.5983  -14.1306 N   0  0  0  0  0  0  0  0  0  0  0  0
  -13.4311   -0.4403  -14.6667 C   0  0  0  0  0  0  0  0  0  0  0  0
  -13.2359   -1.7595  -14.2286 C   0  0  0  0  0  0  0  0  0  0  0  0
  -13.8724   -2.9162  -14.7380 C   0  0  0  0  0  0  0  0  0  0  0  0
  -13.6627   -4.1770  -14.1623 C   0  0  0  0  0  0  0  0  0  0  0  0
  -14.4132   -0.1561  -15.6499 N   0  0  0  0  0  0  0  0  0  0  0  0
  -13.9847    0.0233  -16.5537 H   0  0  0  0  0  0  0  0  0  0  0  0
  -15.5252    0.6839  -15.4038 C   0  0  0  0  0  0  0  0  0  0  0  0
  -15.6976    1.8752  -16.1269 C   0  0  0  0  0  0  0  0  0  0  0  0
  -16.8473    2.6493  -15.9704 C   0  0  0  0  0  0  0  0  0  0  0  0
  -17.8269    2.2454  -15.0678 C   0  0  0  0  0  0  0  0  0  0  0  0
  -19.4153    3.2588  -14.9106 Br  0  0  0  0  0  0  0  0  0  0  0  0
  -17.6548    1.0981  -14.2987 C   0  0  0  0  0  0  0  0  0  0  0  0
  -16.5041    0.3313  -14.4688 C   0  0  0  0  0  0  0  0  0  0  0  0
  -16.3544   -0.7899  -13.7469 F   0  0  0  0  0  0  0  0  0  0  0  0
  -14.3391   -5.1787  -14.7996 O   0  0  0  0  0  0  0  0  0  0  0  0
  -15.4757   -5.7126  -14.1321 C   0  0  0  0  0  0  0  0  0  0  0  0
  -12.5409   -5.5374  -12.5397 O   0  0  0  0  0  0  0  0  0  0  0  0
  -12.5873   -5.6107  -11.1050 C   0  0  0  0  0  0  0  0  0  0  0  0
  -14.0402   -5.6594  -10.6294 C   0  0  0  0  0  0  0  0  0  0  0  0
  -14.3474   -4.7822   -9.4774 N   0  0  0  0  0  0  0  0  0  0  0  0
  -12.5444   -3.3691   -8.3991 C   0  0  0  0  0  0  0  0  0  0  0  0
  -13.1744   -4.7449   -8.5854 C   0  0  0  0  0  0  0  0  0  0  0  0
  -14.8660   -3.4544   -9.8441 C   0  0  0  0  0  0  0  0  0  0  0  0
  -15.8592   -3.4120  -11.0003 C   0  0  0  0  0  0  0  0  0  0  0  0
 27 28  1  0  0  0
 28 26  1  0  0  0
 26 29  1  0  0  0
 26 25  1  0  0  0
 29 30  1  0  0  0
 25 24  1  0  0  0
 24 23  1  0  0  0
 23  1  1  0  0  0
  1  2  1  0  0  0
  1 10  2  0  0  0
  2  3  2  0  0  0
  3  4  1  0  0  0
  3  8  1  0  0  0
  4  5  2  0  0  0
  5  6  1  0  0  0
  6  7  2  0  0  0
  7 11  1  0  0  0
  7  8  1  0  0  0
 11 13  1  0  0  0
 11 12  1  0  0  0
 13 14  1  0  0  0
 13 19  2  0  0  0
 14 15  2  0  0  0
 15 16  1  0  0  0
 16 17  1  0  0  0
 16 18  2  0  0  0
 18 19  1  0  0  0
 19 20  1  0  0  0
  8  9  2  0  0  0
  9 10  1  0  0  0
 10 21  1  0  0  0
 21 22  1  0  0  0
M  END
> <minimizedAffinity>
-6.42707

$$$$
