CHEMBL3633772


 33 35  0  0  0  0  0  0  0  0999 V2000
  -31.0167   -7.7734   -6.9119 C   0  0  0  0  0  0  0  0  0  0  0  0
  -31.6387   -7.1257   -5.8386 C   0  0  0  0  0  0  0  0  0  0  0  0
  -31.0477   -6.0682   -5.1624 C   0  0  0  0  0  0  0  0  0  0  0  0
  -31.7052   -5.5467   -4.1237 N   0  0  0  0  0  0  0  0  0  0  0  0
  -31.1145   -4.5330   -3.4878 C   0  0  0  0  0  0  0  0  0  0  0  0
  -29.9477   -3.9794   -3.8155 N   0  0  0  0  0  0  0  0  0  0  0  0
  -29.2978   -4.4997   -4.8754 C   0  0  0  0  0  0  0  0  0  0  0  0
  -29.8018   -5.5991   -5.5911 C   0  0  0  0  0  0  0  0  0  0  0  0
  -29.1595   -6.2399   -6.6764 C   0  0  0  0  0  0  0  0  0  0  0  0
  -29.7756   -7.2956   -7.3542 C   0  0  0  0  0  0  0  0  0  0  0  0
  -32.9220   -9.1724   -7.3798 C   0  0  0  0  0  0  0  0  0  0  0  0
  -31.5432   -8.8625   -7.5460 O   0  0  0  0  0  0  0  0  0  0  0  0
  -28.0859   -3.8802   -5.2913 N   0  0  0  0  0  0  0  0  0  0  0  0
  -27.5754   -4.5325   -5.8861 H   0  0  0  0  0  0  0  0  0  0  0  0
  -28.0274   -2.5642   -5.8283 C   0  0  0  0  0  0  0  0  0  0  0  0
  -28.0134   -1.4581   -4.9663 C   0  0  0  0  0  0  0  0  0  0  0  0
  -28.0182   -0.1609   -5.4731 C   0  0  0  0  0  0  0  0  0  0  0  0
  -28.0507    1.1745   -4.3902 Cl  0  0  0  0  0  0  0  0  0  0  0  0
  -28.0120    0.0585   -6.8486 C   0  0  0  0  0  0  0  0  0  0  0  0
  -27.9868   -1.0294   -7.7220 C   0  0  0  0  0  0  0  0  0  0  0  0
  -27.9874   -2.3330   -7.2151 C   0  0  0  0  0  0  0  0  0  0  0  0
  -27.9785   -3.6532   -8.3310 Cl  0  0  0  0  0  0  0  0  0  0  0  0
  -29.0285   -7.8202   -8.3773 O   0  0  0  0  0  0  0  0  0  0  0  0
  -27.9600   -8.6813   -7.9729 C   0  0  0  0  0  0  0  0  0  0  0  0
  -28.4502  -10.1342   -7.9991 C   0  0  0  0  0  0  0  0  0  0  0  0
  -27.8591  -10.8988   -9.1872 C   0  0  0  0  0  0  0  0  0  0  0  0
  -28.8544  -11.0797  -10.3306 C   0  0  0  0  0  0  0  0  0  0  0  0
  -28.4570  -10.2554  -11.5401 C   0  0  0  0  0  0  0  0  0  0  0  0
  -29.1291  -10.1423  -12.5623 O   0  0  0  0  0  0  0  0  0  0  0  0
  -27.2469   -9.6173  -11.4024 N   0  0  0  0  0  0  0  0  0  0  0  0
  -26.9057   -8.7437  -12.4642 O   0  0  0  0  0  0  0  0  0  0  0  0
  -26.8381   -9.4101  -10.5001 H   0  0  0  0  0  0  0  0  0  0  0  0
  -27.6572   -8.8691  -13.0863 H   0  0  0  0  0  0  0  0  0  0  0  0
 11 12  1  0  0  0
 12  1  1  0  0  0
  1  2  1  0  0  0
  1 10  2  0  0  0
  2  3  2  0  0  0
  3  4  1  0  0  0
  3  8  1  0  0  0
  4  5  2  0  0  0
  5  6  1  0  0  0
  6  7  2  0  0  0
  7 13  1  0  0  0
  7  8  1  0  0  0
 13 15  1  0  0  0
 13 14  1  0  0  0
 15 16  1  0  0  0
 15 21  2  0  0  0
 16 17  2  0  0  0
 17 18  1  0  0  0
 17 19  1  0  0  0
 19 20  2  0  0  0
 20 21  1  0  0  0
 21 22  1  0  0  0
  8  9  2  0  0  0
  9 10  1  0  0  0
 10 23  1  0  0  0
 23 24  1  0  0  0
 24 25  1  0  0  0
 25 26  1  0  0  0
 26 27  1  0  0  0
 27 28  1  0  0  0
 28 29  2  0  0  0
 28 30  1  0  0  0
 30 31  1  0  0  0
 30 32  1  0  0  0
 31 33  1  0  0  0
M  END
> <minimizedAffinity>
-8.07932

$$$$
