CHEMBL385478


 24 27  0  0  0  0  0  0  0  0999 V2000
  -15.9002    1.2986  -15.4835 C   0  0  0  0  0  0  0  0  0  0  0  0
  -15.1277    1.1927  -16.6208 C   0  0  0  0  0  0  0  0  0  0  0  0
  -14.1199    0.2671  -16.5694 C   0  0  0  0  0  0  0  0  0  0  0  0
  -13.8712   -0.4950  -15.4934 N   0  0  0  0  0  0  0  0  0  0  0  0
  -14.6597   -0.3238  -14.4224 C   0  0  0  0  0  0  0  0  0  0  0  0
  -15.6730    0.5540  -14.3782 N   0  0  0  0  0  0  0  0  0  0  0  0
  -20.5916    1.0086  -14.8008 C   0  0  0  0  0  0  0  0  0  0  0  0
  -21.1196    2.2868  -14.9169 C   0  0  0  0  0  0  0  0  0  0  0  0
  -20.4126    3.4108  -15.1609 N   0  0  0  0  0  0  0  0  0  0  0  0
  -19.0946    3.1795  -15.2955 C   0  0  0  0  0  0  0  0  0  0  0  0
  -18.1696    4.1544  -15.5423 N   0  0  0  0  0  0  0  0  0  0  0  0
  -16.9178    3.5952  -15.6259 C   0  0  0  0  0  0  0  0  0  0  0  0
  -17.0344    2.2238  -15.4350 C   0  0  0  0  0  0  0  0  0  0  0  0
  -18.4262    1.9628  -15.2168 C   0  0  0  0  0  0  0  0  0  0  0  0
  -19.2157    0.8281  -14.9482 C   0  0  0  0  0  0  0  0  0  0  0  0
  -18.4042    5.1295  -15.6474 H   0  0  0  0  0  0  0  0  0  0  0  0
  -14.4551   -1.0960  -13.2896 N   0  0  0  0  0  0  0  0  0  0  0  0
  -14.0985   -0.4924  -12.5592 H   0  0  0  0  0  0  0  0  0  0  0  0
  -15.5011   -2.0483  -12.9158 C   0  0  0  0  0  0  0  0  0  0  0  0
  -15.3382   -2.5336  -11.4644 C   0  0  0  0  0  0  0  0  0  0  0  0
  -16.3647   -3.6082  -11.1075 C   0  0  0  0  0  0  0  0  0  0  0  0
  -16.2938   -4.7887  -12.0680 C   0  0  0  0  0  0  0  0  0  0  0  0
  -16.4621   -4.3320  -13.5129 C   0  0  0  0  0  0  0  0  0  0  0  0
  -15.4514   -3.2452  -13.8849 C   0  0  0  0  0  0  0  0  0  0  0  0
  7  8  1  0  0  0
  7 15  2  0  0  0
  8  9  2  0  0  0
  9 10  1  0  0  0
 10 11  1  0  0  0
 10 14  2  0  0  0
 11 12  1  0  0  0
 11 16  1  0  0  0
 12 13  2  0  0  0
 13  1  1  0  0  0
 13 14  1  0  0  0
  1  2  1  0  0  0
  1  6  2  0  0  0
  2  3  2  0  0  0
  3  4  1  0  0  0
  4  5  2  0  0  0
  5 17  1  0  0  0
  5  6  1  0  0  0
 17 19  1  0  0  0
 17 18  1  0  0  0
 19 20  1  0  0  0
 19 24  1  0  0  0
 20 21  1  0  0  0
 21 22  1  0  0  0
 22 23  1  0  0  0
 23 24  1  0  0  0
 14 15  1  0  0  0
M  END
> <minimizedAffinity>
-8.43413

$$$$
