CHEMBL4068509


 39 42  0  0  0  0  0  0  0  0999 V2000
  -14.7229    2.6109  -15.9953 N   0  0  0  0  0  0  0  0  0  0  0  0
  -14.9569    1.2893  -15.6485 C   0  0  0  0  0  0  0  0  0  0  0  0
  -15.9325    0.6450  -16.0373 O   0  0  0  0  0  0  0  0  0  0  0  0
  -13.9597    0.6305  -14.7439 C   0  0  0  0  0  0  0  0  0  0  0  0
  -12.9377    1.3300  -14.2285 C   0  0  0  0  0  0  0  0  0  0  0  0
  -12.8056    2.7388  -14.5473 C   0  0  0  0  0  0  0  0  0  0  0  0
  -11.8388    3.5419  -13.9908 C   0  0  0  0  0  0  0  0  0  0  0  0
  -11.7301    4.8576  -14.2412 N   0  0  0  0  0  0  0  0  0  0  0  0
  -12.6113    5.3946  -15.0947 C   0  0  0  0  0  0  0  0  0  0  0  0
  -13.5660    4.6875  -15.7160 N   0  0  0  0  0  0  0  0  0  0  0  0
  -13.6675    3.3743  -15.4195 C   0  0  0  0  0  0  0  0  0  0  0  0
  -14.1082   -0.8007  -14.4062 C   0  0  0  0  0  0  0  0  0  0  0  0
  -13.3949   -1.7943  -15.1259 C   0  0  0  0  0  0  0  0  0  0  0  0
  -12.2897   -1.2482  -16.3561 Cl  0  0  0  0  0  0  0  0  0  0  0  0
  -13.5932   -3.1517  -14.8213 C   0  0  0  0  0  0  0  0  0  0  0  0
  -14.4651   -3.4921  -13.7668 C   0  0  0  0  0  0  0  0  0  0  0  0
  -15.1408   -2.5252  -13.0199 C   0  0  0  0  0  0  0  0  0  0  0  0
  -14.9687   -1.1763  -13.3543 C   0  0  0  0  0  0  0  0  0  0  0  0
  -15.8456    0.0372  -12.4586 Cl  0  0  0  0  0  0  0  0  0  0  0  0
  -13.0763   -4.2830  -15.3931 O   0  0  0  0  0  0  0  0  0  0  0  0
  -13.5076   -4.7388  -16.6631 C   0  0  0  0  0  0  0  0  0  0  0  0
  -15.9807   -2.7982  -11.9726 O   0  0  0  0  0  0  0  0  0  0  0  0
  -16.3648   -4.1471  -11.7504 C   0  0  0  0  0  0  0  0  0  0  0  0
  -12.5982    6.7394  -15.3317 N   0  0  0  0  0  0  0  0  0  0  0  0
  -11.5313    7.5910  -14.8774 C   0  0  0  0  0  0  0  0  0  0  0  0
  -13.2181    7.0408  -16.0685 H   0  0  0  0  0  0  0  0  0  0  0  0
  -15.6838    3.2890  -16.8521 C   0  0  0  0  0  0  0  0  0  0  0  0
  -16.7650    3.9944  -16.0313 C   0  0  0  0  0  0  0  0  0  0  0  0
  -18.0137    3.1179  -15.9220 C   0  0  0  0  0  0  0  0  0  0  0  0
  -22.2852    1.2478  -14.0465 C   0  0  0  0  0  0  0  0  0  0  0  0
  -23.2211    1.9821  -13.7475 O   0  0  0  0  0  0  0  0  0  0  0  0
  -21.0811    1.6984  -14.5445 N   0  0  0  0  0  0  0  0  0  0  0  0
  -19.9893    0.8673  -15.0660 C   0  0  0  0  0  0  0  0  0  0  0  0
  -18.6570    1.2685  -14.4088 C   0  0  0  0  0  0  0  0  0  0  0  0
  -18.3256    2.7065  -14.5415 N   0  0  0  0  0  0  0  0  0  0  0  0
  -19.4673    3.5021  -14.0139 C   0  0  0  0  0  0  0  0  0  0  0  0
  -20.8382    3.1394  -14.6282 C   0  0  0  0  0  0  0  0  0  0  0  0
  -22.7942   -0.6950  -12.6545 C   0  0  0  0  0  0  0  0  0  0  0  0
  -22.4034   -0.2159  -13.8438 C   0  0  0  0  0  0  0  0  0  0  0  0
 38 39  2  0  0  0
 39 30  1  0  0  0
 30 31  2  0  0  0
 30 32  1  0  0  0
 32 33  1  0  0  0
 32 37  1  0  0  0
 33 34  1  0  0  0
 34 35  1  0  0  0
 35 29  1  0  0  0
 35 36  1  0  0  0
 29 28  1  0  0  0
 28 27  1  0  0  0
 27  1  1  0  0  0
  1  2  1  0  0  0
  1 11  1  0  0  0
  2  3  2  0  0  0
  2  4  1  0  0  0
  4 12  1  0  0  0
  4  5  2  0  0  0
 12 13  1  0  0  0
 12 18  2  0  0  0
 13 14  1  0  0  0
 13 15  2  0  0  0
 15 20  1  0  0  0
 15 16  1  0  0  0
 20 21  1  0  0  0
 16 17  2  0  0  0
 17 22  1  0  0  0
 17 18  1  0  0  0
 22 23  1  0  0  0
 18 19  1  0  0  0
  5  6  1  0  0  0
  6  7  1  0  0  0
  6 11  2  0  0  0
  7  8  2  0  0  0
  8  9  1  0  0  0
  9 24  1  0  0  0
  9 10  2  0  0  0
 24 25  1  0  0  0
 24 26  1  0  0  0
 10 11  1  0  0  0
 36 37  1  0  0  0
M  END
> <minimizedAffinity>
-8.32843

$$$$
