CHEMBL3676358


 37 39  0  0  0  0  0  0  0  0999 V2000
  -13.7475   -3.6909  -12.6841 C   0  0  0  0  0  0  0  0  0  0  0  0
  -13.9582   -2.4372  -13.2594 C   0  0  0  0  0  0  0  0  0  0  0  0
  -13.5904   -2.1995  -14.5999 C   0  0  0  0  0  0  0  0  0  0  0  0
  -13.6898   -0.9557  -15.2388 C   0  0  0  0  0  0  0  0  0  0  0  0
  -13.3273   -0.7865  -16.5227 N   0  0  0  0  0  0  0  0  0  0  0  0
  -12.8390   -1.8539  -17.1592 C   0  0  0  0  0  0  0  0  0  0  0  0
  -12.6836   -3.0802  -16.6410 N   0  0  0  0  0  0  0  0  0  0  0  0
  -13.0692   -3.2479  -15.3738 C   0  0  0  0  0  0  0  0  0  0  0  0
  -12.9363   -4.5065  -14.7974 C   0  0  0  0  0  0  0  0  0  0  0  0
  -13.2988   -4.7597  -13.4669 C   0  0  0  0  0  0  0  0  0  0  0  0
  -14.9658   -4.1643  -10.6217 C   0  0  0  0  0  0  0  0  0  0  0  0
  -14.9175   -4.5914   -9.4729 O   0  0  0  0  0  0  0  0  0  0  0  0
  -13.8169   -3.7918  -11.2824 N   0  0  0  0  0  0  0  0  0  0  0  0
  -13.0110   -4.1977  -10.8176 H   0  0  0  0  0  0  0  0  0  0  0  0
  -16.8722   -5.1943  -11.7515 C   0  0  0  0  0  0  0  0  0  0  0  0
  -16.2444   -4.0725  -11.3794 C   0  0  0  0  0  0  0  0  0  0  0  0
  -14.1547    0.1789  -14.5121 N   0  0  0  0  0  0  0  0  0  0  0  0
  -13.3832    0.8334  -14.3897 H   0  0  0  0  0  0  0  0  0  0  0  0
  -15.3524    0.8604  -14.8404 C   0  0  0  0  0  0  0  0  0  0  0  0
  -15.3049    2.1218  -15.4477 C   0  0  0  0  0  0  0  0  0  0  0  0
  -16.4760    2.8472  -15.6763 C   0  0  0  0  0  0  0  0  0  0  0  0
  -16.3191    4.4110  -16.3929 Cl  0  0  0  0  0  0  0  0  0  0  0  0
  -17.7139    2.3039  -15.3128 C   0  0  0  0  0  0  0  0  0  0  0  0
  -19.1929    3.1761  -15.5011 Cl  0  0  0  0  0  0  0  0  0  0  0  0
  -17.7790    1.0217  -14.7622 C   0  0  0  0  0  0  0  0  0  0  0  0
  -16.6031    0.3115  -14.5399 C   0  0  0  0  0  0  0  0  0  0  0  0
  -16.6741   -0.9111  -13.9900 F   0  0  0  0  0  0  0  0  0  0  0  0
  -13.1113   -6.0550  -13.0496 O   0  0  0  0  0  0  0  0  0  0  0  0
  -14.2506   -6.9126  -13.2000 C   0  0  0  0  0  0  0  0  0  0  0  0
  -13.8500   -8.2509  -13.8200 C   0  0  0  0  0  0  0  0  0  0  0  0
  -14.0644   -8.2611  -15.2599 N   0  0  0  0  0  0  0  0  0  0  0  0
  -13.0104   -8.0658  -16.1347 C   0  0  0  0  0  0  0  0  0  0  0  0
  -11.8360   -8.0343  -15.7772 O   0  0  0  0  0  0  0  0  0  0  0  0
  -14.9924   -8.0589  -15.6161 H   0  0  0  0  0  0  0  0  0  0  0  0
  -13.4306   -7.9111  -17.5957 C   0  0  0  0  0  0  0  0  0  0  0  0
  -14.3651   -6.8429  -17.7294 O   0  0  0  0  0  0  0  0  0  0  0  0
  -14.0716   -6.0356  -18.8636 C   0  0  0  0  0  0  0  0  0  0  0  0
 15 16  2  0  0  0
 16 11  1  0  0  0
 11 12  2  0  0  0
 11 13  1  0  0  0
 13  1  1  0  0  0
 13 14  1  0  0  0
  1  2  1  0  0  0
  1 10  2  0  0  0
  2  3  2  0  0  0
  3  4  1  0  0  0
  3  8  1  0  0  0
  4 17  1  0  0  0
  4  5  2  0  0  0
 17 19  1  0  0  0
 17 18  1  0  0  0
 19 20  1  0  0  0
 19 26  2  0  0  0
 20 21  2  0  0  0
 21 22  1  0  0  0
 21 23  1  0  0  0
 23 24  1  0  0  0
 23 25  2  0  0  0
 25 26  1  0  0  0
 26 27  1  0  0  0
  5  6  1  0  0  0
  6  7  2  0  0  0
  7  8  1  0  0  0
  8  9  2  0  0  0
  9 10  1  0  0  0
 10 28  1  0  0  0
 28 29  1  0  0  0
 29 30  1  0  0  0
 30 31  1  0  0  0
 31 32  1  0  0  0
 31 34  1  0  0  0
 32 33  2  0  0  0
 32 35  1  0  0  0
 35 36  1  0  0  0
 36 37  1  0  0  0
M  END
> <minimizedAffinity>
-7.34954

$$$$
