CHEMBL250213


 36 40  0  0  0  0  0  0  0  0999 V2000
  -28.0780   -6.0450   -8.5105 C   0  0  0  0  0  0  0  0  0  0  0  0
  -28.2826   -4.7326   -7.7992 C   0  0  0  0  0  0  0  0  0  0  0  0
  -28.9846   -4.7060   -6.5800 C   0  0  0  0  0  0  0  0  0  0  0  0
  -29.1703   -3.5178   -5.8488 C   0  0  0  0  0  0  0  0  0  0  0  0
  -28.6057   -2.3654   -6.3959 C   0  0  0  0  0  0  0  0  0  0  0  0
  -27.9690   -2.3636   -7.6302 C   0  0  0  0  0  0  0  0  0  0  0  0
  -27.5365   -1.2114   -8.1334 N   0  0  0  0  0  0  0  0  0  0  0  0
  -26.9608   -1.2094   -9.3556 N   0  0  0  0  0  0  0  0  0  0  0  0
  -26.8157   -2.3641  -10.0413 C   0  0  0  0  0  0  0  0  0  0  0  0
  -27.1843   -3.5511   -9.5553 N   0  0  0  0  0  0  0  0  0  0  0  0
  -27.7940   -3.5514   -8.3542 C   0  0  0  0  0  0  0  0  0  0  0  0
  -29.9138   -3.5175   -4.5588 C   0  0  0  0  0  0  0  0  0  0  0  0
  -30.9838   -4.4296   -4.3990 C   0  0  0  0  0  0  0  0  0  0  0  0
  -31.7744   -4.4336   -3.2519 C   0  0  0  0  0  0  0  0  0  0  0  0
  -32.8384   -5.2756   -3.1272 O   0  0  0  0  0  0  0  0  0  0  0  0
  -31.5086   -3.5713   -2.2034 C   0  0  0  0  0  0  0  0  0  0  0  0
  -30.4402   -2.6873   -2.3066 C   0  0  0  0  0  0  0  0  0  0  0  0
  -29.6593   -2.6434   -3.4726 C   0  0  0  0  0  0  0  0  0  0  0  0
  -28.4407   -1.4098   -3.4898 Cl  0  0  0  0  0  0  0  0  0  0  0  0
  -32.9107   -5.8188   -3.9296 H   0  0  0  0  0  0  0  0  0  0  0  0
  -26.2527   -2.3414  -11.3152 N   0  0  0  0  0  0  0  0  0  0  0  0
  -26.8931   -2.6379  -12.0295 H   0  0  0  0  0  0  0  0  0  0  0  0
  -25.1339   -1.6079  -11.7218 C   0  0  0  0  0  0  0  0  0  0  0  0
  -25.2384   -0.2264  -11.8473 C   0  0  0  0  0  0  0  0  0  0  0  0
  -24.1759    0.5178  -12.3605 C   0  0  0  0  0  0  0  0  0  0  0  0
  -22.9603   -0.0914  -12.7160 C   0  0  0  0  0  0  0  0  0  0  0  0
  -22.8526   -1.4756  -12.5828 C   0  0  0  0  0  0  0  0  0  0  0  0
  -23.9268   -2.2201  -12.0942 C   0  0  0  0  0  0  0  0  0  0  0  0
  -21.7906    0.6853  -13.2859 C   0  0  0  0  0  0  0  0  0  0  0  0
  -21.4639    0.2719  -14.7175 C   0  0  0  0  0  0  0  0  0  0  0  0
  -20.4483    1.1756  -15.4111 C   0  0  0  0  0  0  0  0  0  0  0  0
  -19.3506    1.5460  -14.4957 N   0  0  0  0  0  0  0  0  0  0  0  0
  -19.0785    2.9930  -14.4229 C   0  0  0  0  0  0  0  0  0  0  0  0
  -18.1944    3.2717  -15.6155 C   0  0  0  0  0  0  0  0  0  0  0  0
  -17.2682    2.0714  -15.6059 C   0  0  0  0  0  0  0  0  0  0  0  0
  -18.0745    0.9529  -14.9460 C   0  0  0  0  0  0  0  0  0  0  0  0
  1  2  1  0  0  0
  2  3  1  0  0  0
  2 11  2  0  0  0
  3  4  2  0  0  0
  4 12  1  0  0  0
  4  5  1  0  0  0
 12 13  1  0  0  0
 12 18  2  0  0  0
 13 14  2  0  0  0
 14 15  1  0  0  0
 14 16  1  0  0  0
 15 20  1  0  0  0
 16 17  2  0  0  0
 17 18  1  0  0  0
 18 19  1  0  0  0
  5  6  2  0  0  0
  6  7  1  0  0  0
  6 11  1  0  0  0
  7  8  2  0  0  0
  8  9  1  0  0  0
  9 21  1  0  0  0
  9 10  2  0  0  0
 21 23  1  0  0  0
 21 22  1  0  0  0
 23 24  1  0  0  0
 23 28  2  0  0  0
 24 25  2  0  0  0
 25 26  1  0  0  0
 26 29  1  0  0  0
 26 27  2  0  0  0
 29 30  1  0  0  0
 30 31  1  0  0  0
 31 32  1  0  0  0
 32 33  1  0  0  0
 32 36  1  0  0  0
 33 34  1  0  0  0
 34 35  1  0  0  0
 35 36  1  0  0  0
 27 28  1  0  0  0
 10 11  1  0  0  0
M  END
> <minimizedAffinity>
-9.39948

$$$$
