CHEMBL404366


 32 35  0  0  0  0  0  0  0  0999 V2000
  -29.3561   -8.2828   -5.6695 C   0  0  0  0  0  0  0  0  0  0  0  0
  -30.5838   -7.6219   -5.7374 C   0  0  0  0  0  0  0  0  0  0  0  0
  -30.7276   -6.2950   -5.3258 C   0  0  0  0  0  0  0  0  0  0  0  0
  -29.6728   -5.6110   -4.7286 C   0  0  0  0  0  0  0  0  0  0  0  0
  -28.4563   -6.2725   -4.5776 C   0  0  0  0  0  0  0  0  0  0  0  0
  -28.2984   -7.5890   -5.0461 C   0  0  0  0  0  0  0  0  0  0  0  0
  -27.9315  -12.3720  -10.0741 C   0  0  0  0  0  0  0  0  0  0  0  0
  -28.1558  -11.2322   -9.2134 N   0  0  0  0  0  0  0  0  0  0  0  0
  -27.8909  -10.0091   -9.6694 N   0  0  0  0  0  0  0  0  0  0  0  0
  -28.1977   -9.2087   -8.6542 C   0  0  0  0  0  0  0  0  0  0  0  0
  -28.0337   -7.8852   -8.7714 N   0  0  0  0  0  0  0  0  0  0  0  0
  -28.6952   -9.9246   -7.5128 C   0  0  0  0  0  0  0  0  0  0  0  0
  -29.1906   -9.6473   -6.2047 C   0  0  0  0  0  0  0  0  0  0  0  0
  -29.5395  -10.7808   -5.4643 C   0  0  0  0  0  0  0  0  0  0  0  0
  -29.4489  -12.0708   -5.8730 N   0  0  0  0  0  0  0  0  0  0  0  0
  -28.9981  -12.3243   -7.1170 C   0  0  0  0  0  0  0  0  0  0  0  0
  -28.6236  -11.2622   -7.9268 C   0  0  0  0  0  0  0  0  0  0  0  0
  -27.5834   -7.5538   -9.6164 H   0  0  0  0  0  0  0  0  0  0  0  0
  -27.8843   -7.2947   -7.9630 H   0  0  0  0  0  0  0  0  0  0  0  0
  -29.7974   -4.2692   -4.3057 N   0  0  0  0  0  0  0  0  0  0  0  0
  -29.5942   -3.1677   -5.1205 C   0  0  0  0  0  0  0  0  0  0  0  0
  -29.4913   -3.2058   -6.3419 O   0  0  0  0  0  0  0  0  0  0  0  0
  -29.4717   -2.0007   -4.3812 N   0  0  0  0  0  0  0  0  0  0  0  0
  -30.2916   -4.0946   -3.4420 H   0  0  0  0  0  0  0  0  0  0  0  0
  -28.9923   -2.1243   -3.5006 H   0  0  0  0  0  0  0  0  0  0  0  0
  -29.3049   -0.7529   -5.0260 C   0  0  0  0  0  0  0  0  0  0  0  0
  -28.0162   -0.2305   -5.1641 C   0  0  0  0  0  0  0  0  0  0  0  0
  -27.8221    0.9827   -5.8304 C   0  0  0  0  0  0  0  0  0  0  0  0
  -28.9171    1.6984   -6.3153 C   0  0  0  0  0  0  0  0  0  0  0  0
  -30.2033    1.1878   -6.1533 C   0  0  0  0  0  0  0  0  0  0  0  0
  -31.5559    2.0856   -6.7254 Cl  0  0  0  0  0  0  0  0  0  0  0  0
  -30.4012   -0.0387   -5.5232 C   0  0  0  0  0  0  0  0  0  0  0  0
  7  8  1  0  0  0
  8  9  1  0  0  0
  8 17  1  0  0  0
  9 10  2  0  0  0
 10 11  1  0  0  0
 10 12  1  0  0  0
 11 18  1  0  0  0
 11 19  1  0  0  0
 12 13  1  0  0  0
 12 17  2  0  0  0
 13  1  1  0  0  0
 13 14  2  0  0  0
  1  2  1  0  0  0
  1  6  2  0  0  0
  2  3  2  0  0  0
  3  4  1  0  0  0
  4 20  1  0  0  0
  4  5  2  0  0  0
 20 21  1  0  0  0
 20 24  1  0  0  0
 21 22  2  0  0  0
 21 23  1  0  0  0
 23 26  1  0  0  0
 23 25  1  0  0  0
 26 27  1  0  0  0
 26 32  2  0  0  0
 27 28  2  0  0  0
 28 29  1  0  0  0
 29 30  2  0  0  0
 30 31  1  0  0  0
 30 32  1  0  0  0
  5  6  1  0  0  0
 14 15  1  0  0  0
 15 16  2  0  0  0
 16 17  1  0  0  0
M  END
> <minimizedAffinity>
-8.20685

$$$$
