CHEMBL3979317


 38 41  0  0  0  0  0  0  0  0999 V2000
  -12.0262   -2.7582  -14.7399 C   0  0  0  0  0  0  0  0  0  0  0  0
  -11.8412   -1.8684  -13.6590 C   0  0  0  0  0  0  0  0  0  0  0  0
  -12.2269   -0.5265  -13.7020 C   0  0  0  0  0  0  0  0  0  0  0  0
  -11.8398    0.3163  -12.7458 N   0  0  0  0  0  0  0  0  0  0  0  0
  -12.1904    1.6033  -12.9030 C   0  0  0  0  0  0  0  0  0  0  0  0
  -12.9547    2.1010  -13.8796 N   0  0  0  0  0  0  0  0  0  0  0  0
  -13.3766    1.2351  -14.8094 C   0  0  0  0  0  0  0  0  0  0  0  0
  -12.9817   -0.1151  -14.7922 C   0  0  0  0  0  0  0  0  0  0  0  0
  -13.2401   -1.0175  -15.8500 C   0  0  0  0  0  0  0  0  0  0  0  0
  -12.7132   -2.3022  -15.8730 C   0  0  0  0  0  0  0  0  0  0  0  0
  -14.2061    1.6785  -15.8709 N   0  0  0  0  0  0  0  0  0  0  0  0
  -13.8331    1.3939  -16.7698 H   0  0  0  0  0  0  0  0  0  0  0  0
  -15.5580    2.0484  -15.8855 C   0  0  0  0  0  0  0  0  0  0  0  0
  -15.8772    3.4150  -15.9781 C   0  0  0  0  0  0  0  0  0  0  0  0
  -17.1905    3.8606  -15.8122 C   0  0  0  0  0  0  0  0  0  0  0  0
  -18.2110    2.9471  -15.5426 C   0  0  0  0  0  0  0  0  0  0  0  0
  -19.8039    3.5681  -15.2887 Cl  0  0  0  0  0  0  0  0  0  0  0  0
  -17.9135    1.5846  -15.4690 C   0  0  0  0  0  0  0  0  0  0  0  0
  -19.1217    0.3899  -15.1480 Cl  0  0  0  0  0  0  0  0  0  0  0  0
  -16.5939    1.1505  -15.6267 C   0  0  0  0  0  0  0  0  0  0  0  0
  -12.8800   -3.1147  -16.9686 O   0  0  0  0  0  0  0  0  0  0  0  0
  -12.9908   -2.4471  -18.2292 C   0  0  0  0  0  0  0  0  0  0  0  0
  -11.4054   -3.9580  -14.5089 O   0  0  0  0  0  0  0  0  0  0  0  0
  -12.0383   -5.0031  -13.7772 C   0  0  0  0  0  0  0  0  0  0  0  0
  -14.9979   -6.9438  -14.1112 N   0  0  0  0  0  0  0  0  0  0  0  0
  -14.3871   -8.2222  -13.6783 C   0  0  0  0  0  0  0  0  0  0  0  0
  -12.9634   -8.0733  -13.1303 C   0  0  0  0  0  0  0  0  0  0  0  0
  -12.0649   -7.4835  -14.0695 O   0  0  0  0  0  0  0  0  0  0  0  0
  -12.5279   -6.2265  -14.5866 C   0  0  0  0  0  0  0  0  0  0  0  0
  -14.0345   -6.2464  -14.9793 C   0  0  0  0  0  0  0  0  0  0  0  0
  -15.5140   -6.1784  -12.9723 C   0  0  0  0  0  0  0  0  0  0  0  0
  -16.7415   -5.2778  -13.2031 C   0  0  0  0  0  0  0  0  0  0  0  0
  -16.4385   -3.8418  -13.6577 C   0  0  0  0  0  0  0  0  0  0  0  0
  -15.2192   -3.2929  -12.9012 C   0  0  0  0  0  0  0  0  0  0  0  0
  -15.5560   -2.1802  -11.8948 C   0  0  0  0  0  0  0  0  0  0  0  0
  -15.7596   -2.7797  -10.4951 C   0  0  0  0  0  0  0  0  0  0  0  0
  -13.6408   -3.5720   -9.2857 C   0  0  0  0  0  0  0  0  0  0  0  0
  -14.8401   -3.9506  -10.1400 C   0  0  0  0  0  0  0  0  0  0  0  0
 37 38  1  0  0  0
 38 36  1  0  0  0
 36 35  1  0  0  0
 35 34  1  0  0  0
 34 33  1  0  0  0
 33 32  1  0  0  0
 32 31  1  0  0  0
 31 25  1  0  0  0
 25 26  1  0  0  0
 25 30  1  0  0  0
 26 27  1  0  0  0
 27 28  1  0  0  0
 28 29  1  0  0  0
 29 24  1  0  0  0
 29 30  1  0  0  0
 24 23  1  0  0  0
 23  1  1  0  0  0
  1  2  1  0  0  0
  1 10  2  0  0  0
  2  3  2  0  0  0
  3  4  1  0  0  0
  3  8  1  0  0  0
  4  5  2  0  0  0
  5  6  1  0  0  0
  6  7  2  0  0  0
  7 11  1  0  0  0
  7  8  1  0  0  0
 11 13  1  0  0  0
 11 12  1  0  0  0
 13 14  1  0  0  0
 13 20  2  0  0  0
 14 15  2  0  0  0
 15 16  1  0  0  0
 16 17  1  0  0  0
 16 18  2  0  0  0
 18 19  1  0  0  0
 18 20  1  0  0  0
  8  9  2  0  0  0
  9 10  1  0  0  0
 10 21  1  0  0  0
 21 22  1  0  0  0
M  END
> <minimizedAffinity>
-6.99427

$$$$
