CHEMBL255764


 38 42  0  0  0  0  0  0  0  0999 V2000
  -28.2535   -9.2220   -5.6721 C   0  0  0  0  0  0  0  0  0  0  0  0
  -27.6488  -10.0487   -6.6903 C   0  0  0  0  0  0  0  0  0  0  0  0
  -28.4625  -10.0083   -7.8002 C   0  0  0  0  0  0  0  0  0  0  0  0
  -29.5283   -9.2110   -7.5171 N   0  0  0  0  0  0  0  0  0  0  0  0
  -30.5473   -8.9787   -8.3600 N   0  0  0  0  0  0  0  0  0  0  0  0
  -31.4675   -8.2135   -7.8699 C   0  0  0  0  0  0  0  0  0  0  0  0
  -31.4781   -7.6341   -6.6347 N   0  0  0  0  0  0  0  0  0  0  0  0
  -30.4857   -7.8324   -5.8089 C   0  0  0  0  0  0  0  0  0  0  0  0
  -29.4182   -8.6986   -6.2536 C   0  0  0  0  0  0  0  0  0  0  0  0
  -26.3879  -10.8579   -6.6466 C   0  0  0  0  0  0  0  0  0  0  0  0
  -26.2578  -11.9828   -5.9711 N   0  0  0  0  0  0  0  0  0  0  0  0
  -24.9985  -12.4660   -6.1915 N   0  0  0  0  0  0  0  0  0  0  0  0
  -24.4031  -11.5782   -6.9561 C   0  0  0  0  0  0  0  0  0  0  0  0
  -25.2210  -10.5352   -7.3078 O   0  0  0  0  0  0  0  0  0  0  0  0
  -22.9894  -11.5764   -7.4248 C   0  0  0  0  0  0  0  0  0  0  0  0
  -22.0504  -10.9052   -6.4955 N   0  0  0  0  0  0  0  0  0  0  0  0
  -21.4207  -11.8559   -5.5706 C   0  0  0  0  0  0  0  0  0  0  0  0
  -21.0127  -10.2165   -7.2650 C   0  0  0  0  0  0  0  0  0  0  0  0
  -28.0482  -10.1322   -3.3010 C   0  0  0  0  0  0  0  0  0  0  0  0
  -27.7458   -8.9792   -4.2649 C   0  0  0  0  0  0  0  0  0  0  0  0
  -26.2736   -8.5580   -4.2473 C   0  0  0  0  0  0  0  0  0  0  0  0
  -30.4885   -7.1968   -4.5806 N   0  0  0  0  0  0  0  0  0  0  0  0
  -30.0880   -7.7485   -3.8285 H   0  0  0  0  0  0  0  0  0  0  0  0
  -30.3352   -5.8033   -4.3872 C   0  0  0  0  0  0  0  0  0  0  0  0
  -29.3887   -5.0524   -5.1002 C   0  0  0  0  0  0  0  0  0  0  0  0
  -29.2809   -3.6568   -4.9425 C   0  0  0  0  0  0  0  0  0  0  0  0
  -30.1386   -3.0156   -4.0496 C   0  0  0  0  0  0  0  0  0  0  0  0
  -30.0813   -1.6873   -3.8670 F   0  0  0  0  0  0  0  0  0  0  0  0
  -31.0935   -3.7350   -3.3352 C   0  0  0  0  0  0  0  0  0  0  0  0
  -31.1889   -5.1124   -3.5181 C   0  0  0  0  0  0  0  0  0  0  0  0
  -32.1244   -5.7930   -2.8377 F   0  0  0  0  0  0  0  0  0  0  0  0
  -28.2666   -2.9428   -5.7672 C   0  0  0  0  0  0  0  0  0  0  0  0
  -27.2752   -2.4699   -5.2164 O   0  0  0  0  0  0  0  0  0  0  0  0
  -28.4715   -2.8568   -7.1319 N   0  0  0  0  0  0  0  0  0  0  0  0
  -29.2902   -3.2856   -7.5518 H   0  0  0  0  0  0  0  0  0  0  0  0
  -27.5115   -2.2271   -7.9856 C   0  0  0  0  0  0  0  0  0  0  0  0
  -27.9139   -1.0595   -8.8440 C   0  0  0  0  0  0  0  0  0  0  0  0
  -27.5650   -2.3726   -9.4803 C   0  0  0  0  0  0  0  0  0  0  0  0
 19 20  1  0  0  0
 20 21  1  0  0  0
 20  1  1  0  0  0
  1  2  1  0  0  0
  1  9  2  0  0  0
  2 10  1  0  0  0
  2  3  2  0  0  0
 10 11  2  0  0  0
 10 14  1  0  0  0
 11 12  1  0  0  0
 12 13  2  0  0  0
 13 15  1  0  0  0
 13 14  1  0  0  0
 15 16  1  0  0  0
 16 17  1  0  0  0
 16 18  1  0  0  0
  3  4  1  0  0  0
  4  5  1  0  0  0
  4  9  1  0  0  0
  5  6  2  0  0  0
  6  7  1  0  0  0
  7  8  2  0  0  0
  8 22  1  0  0  0
  8  9  1  0  0  0
 22 24  1  0  0  0
 22 23  1  0  0  0
 24 25  1  0  0  0
 24 30  2  0  0  0
 25 26  2  0  0  0
 26 32  1  0  0  0
 26 27  1  0  0  0
 32 33  2  0  0  0
 32 34  1  0  0  0
 34 36  1  0  0  0
 34 35  1  0  0  0
 36 37  1  0  0  0
 36 38  1  0  0  0
 37 38  1  0  0  0
 27 28  1  0  0  0
 27 29  2  0  0  0
 29 30  1  0  0  0
 30 31  1  0  0  0
M  END
> <minimizedAffinity>
-7.82071

$$$$
