CHEMBL371332


 32 35  0  0  0  0  0  0  0  0999 V2000
  -25.3608   -1.8591  -11.8727 C   0  0  0  0  0  0  0  0  0  0  0  0
  -24.1942   -1.4623  -11.2274 C   0  0  0  0  0  0  0  0  0  0  0  0
  -23.1744   -0.8251  -11.9503 C   0  0  0  0  0  0  0  0  0  0  0  0
  -23.2697   -0.5985  -13.3358 C   0  0  0  0  0  0  0  0  0  0  0  0
  -24.4862   -0.9480  -13.9584 C   0  0  0  0  0  0  0  0  0  0  0  0
  -24.8065   -0.7313  -15.6491 Cl  0  0  0  0  0  0  0  0  0  0  0  0
  -25.5209   -1.5468  -13.2236 C   0  0  0  0  0  0  0  0  0  0  0  0
  -22.0994   -0.0323  -14.0424 C   0  0  0  0  0  0  0  0  0  0  0  0
  -21.2022   -0.8706  -14.6857 C   0  0  0  0  0  0  0  0  0  0  0  0
  -19.9066   -0.0480  -15.4227 S   0  0  0  0  0  0  0  0  0  0  0  0
  -20.5661    1.4614  -15.0125 C   0  0  0  0  0  0  0  0  0  0  0  0
  -19.9428    2.5782  -15.4239 N   0  0  0  0  0  0  0  0  0  0  0  0
  -20.5880    3.6837  -15.0647 C   0  0  0  0  0  0  0  0  0  0  0  0
  -21.7190    3.7639  -14.3548 N   0  0  0  0  0  0  0  0  0  0  0  0
  -22.3046    2.6265  -13.9333 C   0  0  0  0  0  0  0  0  0  0  0  0
  -23.4587    2.8218  -13.1828 N   0  0  0  0  0  0  0  0  0  0  0  0
  -21.7409    1.3737  -14.2712 C   0  0  0  0  0  0  0  0  0  0  0  0
  -23.5374    3.8071  -12.9490 H   0  0  0  0  0  0  0  0  0  0  0  0
  -23.5428    2.1920  -12.3946 H   0  0  0  0  0  0  0  0  0  0  0  0
  -27.6696   -3.0669   -9.3309 N   0  0  0  0  0  0  0  0  0  0  0  0
  -26.7110   -2.2191   -9.8624 C   0  0  0  0  0  0  0  0  0  0  0  0
  -26.2648   -1.2254   -9.3013 O   0  0  0  0  0  0  0  0  0  0  0  0
  -26.3341   -2.5930  -11.1486 N   0  0  0  0  0  0  0  0  0  0  0  0
  -27.7514   -3.9792   -9.7508 H   0  0  0  0  0  0  0  0  0  0  0  0
  -27.0583   -3.0472  -11.6878 H   0  0  0  0  0  0  0  0  0  0  0  0
  -28.3528   -0.3121   -5.2714 C   0  0  0  0  0  0  0  0  0  0  0  0
  -28.7250   -1.4856   -6.1237 C   0  0  0  0  0  0  0  0  0  0  0  0
  -29.7540   -2.3456   -5.7161 C   0  0  0  0  0  0  0  0  0  0  0  0
  -30.0947   -3.4434   -6.4946 C   0  0  0  0  0  0  0  0  0  0  0  0
  -29.4142   -3.6957   -7.6866 C   0  0  0  0  0  0  0  0  0  0  0  0
  -28.3891   -2.8520   -8.1292 C   0  0  0  0  0  0  0  0  0  0  0  0
  -28.0490   -1.7466   -7.3363 C   0  0  0  0  0  0  0  0  0  0  0  0
 26 27  1  0  0  0
 27 28  1  0  0  0
 27 32  2  0  0  0
 28 29  2  0  0  0
 29 30  1  0  0  0
 30 31  2  0  0  0
 31 20  1  0  0  0
 31 32  1  0  0  0
 20 21  1  0  0  0
 20 24  1  0  0  0
 21 22  2  0  0  0
 21 23  1  0  0  0
 23  1  1  0  0  0
 23 25  1  0  0  0
  1  2  1  0  0  0
  1  7  2  0  0  0
  2  3  2  0  0  0
  3  4  1  0  0  0
  4  8  1  0  0  0
  4  5  2  0  0  0
  8  9  2  0  0  0
  8 17  1  0  0  0
  9 10  1  0  0  0
 10 11  1  0  0  0
 11 12  1  0  0  0
 11 17  2  0  0  0
 12 13  2  0  0  0
 13 14  1  0  0  0
 14 15  2  0  0  0
 15 16  1  0  0  0
 15 17  1  0  0  0
 16 18  1  0  0  0
 16 19  1  0  0  0
  5  6  1  0  0  0
  5  7  1  0  0  0
M  END
> <minimizedAffinity>
-9.35328

$$$$
