CHEMBL221484


 41 44  0  0  0  0  0  0  0  0999 V2000
  -28.2019  -10.1283   -3.5013 C   0  0  0  0  0  0  0  0  0  0  0  0
  -28.6148   -8.9669   -4.3658 C   0  0  0  0  0  0  0  0  0  0  0  0
  -29.1333   -7.8316   -3.7086 C   0  0  0  0  0  0  0  0  0  0  0  0
  -29.3999   -6.6540   -4.4033 C   0  0  0  0  0  0  0  0  0  0  0  0
  -29.1042   -6.5724   -5.7628 C   0  0  0  0  0  0  0  0  0  0  0  0
  -28.6125   -7.7010   -6.4116 C   0  0  0  0  0  0  0  0  0  0  0  0
  -28.4716   -8.9404   -5.7684 C   0  0  0  0  0  0  0  0  0  0  0  0
  -29.2777   -5.2937   -6.4835 C   0  0  0  0  0  0  0  0  0  0  0  0
  -30.2129   -5.2214   -7.2664 O   0  0  0  0  0  0  0  0  0  0  0  0
  -28.3221   -4.3045   -6.2457 N   0  0  0  0  0  0  0  0  0  0  0  0
  -27.4958   -4.5748   -5.7258 H   0  0  0  0  0  0  0  0  0  0  0  0
  -28.3111   -3.0262   -6.8574 C   0  0  0  0  0  0  0  0  0  0  0  0
  -28.0070   -2.8523   -8.2074 C   0  0  0  0  0  0  0  0  0  0  0  0
  -27.9221   -1.5783   -8.7872 C   0  0  0  0  0  0  0  0  0  0  0  0
  -28.1392   -0.4595   -7.9825 C   0  0  0  0  0  0  0  0  0  0  0  0
  -28.4767   -0.6006   -6.6303 C   0  0  0  0  0  0  0  0  0  0  0  0
  -28.5909   -1.8949   -6.0795 C   0  0  0  0  0  0  0  0  0  0  0  0
  -28.6772    0.6278   -5.7793 C   0  0  0  0  0  0  0  0  0  0  0  0
  -29.8808    0.6564   -5.1385 F   0  0  0  0  0  0  0  0  0  0  0  0
  -27.7359    0.7473   -4.8021 F   0  0  0  0  0  0  0  0  0  0  0  0
  -28.6162    1.7817   -6.5008 F   0  0  0  0  0  0  0  0  0  0  0  0
  -27.5772   -1.4177  -10.2464 C   0  0  0  0  0  0  0  0  0  0  0  0
  -26.0950   -1.6352  -10.5565 C   0  0  0  0  0  0  0  0  0  0  0  0
  -25.5975   -0.8442  -11.7743 C   0  0  0  0  0  0  0  0  0  0  0  0
  -24.1286   -0.6969  -11.7799 N   0  0  0  0  0  0  0  0  0  0  0  0
  -23.4468   -1.9660  -12.0531 C   0  0  0  0  0  0  0  0  0  0  0  0
  -23.7257    0.3011  -12.7730 C   0  0  0  0  0  0  0  0  0  0  0  0
  -28.1466  -10.0748   -6.5469 N   0  0  0  0  0  0  0  0  0  0  0  0
  -28.4311  -10.9720   -6.1564 H   0  0  0  0  0  0  0  0  0  0  0  0
  -28.1807  -10.1503   -7.9751 C   0  0  0  0  0  0  0  0  0  0  0  0
  -26.9910  -10.1636   -8.6411 N   0  0  0  0  0  0  0  0  0  0  0  0
  -26.9578  -10.4609   -9.9478 C   0  0  0  0  0  0  0  0  0  0  0  0
  -28.0858  -10.7113  -10.6839 C   0  0  0  0  0  0  0  0  0  0  0  0
  -29.3164  -10.6184  -10.0385 C   0  0  0  0  0  0  0  0  0  0  0  0
  -29.4046  -10.3438   -8.6566 C   0  0  0  0  0  0  0  0  0  0  0  0
  -30.7107  -10.3390   -7.9599 C   0  0  0  0  0  0  0  0  0  0  0  0
  -31.5672   -9.2492   -7.9912 C   0  0  0  0  0  0  0  0  0  0  0  0
  -32.8216   -9.4354   -7.4591 C   0  0  0  0  0  0  0  0  0  0  0  0
  -33.2235  -10.5818   -6.8897 N   0  0  0  0  0  0  0  0  0  0  0  0
  -32.3105  -11.5590   -6.8534 C   0  0  0  0  0  0  0  0  0  0  0  0
  -31.0660  -11.4953   -7.3487 N   0  0  0  0  0  0  0  0  0  0  0  0
  1  2  1  0  0  0
  2  3  1  0  0  0
  2  7  2  0  0  0
  3  4  2  0  0  0
  4  5  1  0  0  0
  5  8  1  0  0  0
  5  6  2  0  0  0
  8  9  2  0  0  0
  8 10  1  0  0  0
 10 12  1  0  0  0
 10 11  1  0  0  0
 12 13  1  0  0  0
 12 17  2  0  0  0
 13 14  2  0  0  0
 14 22  1  0  0  0
 14 15  1  0  0  0
 22 23  1  0  0  0
 23 24  1  0  0  0
 24 25  1  0  0  0
 25 26  1  0  0  0
 25 27  1  0  0  0
 15 16  2  0  0  0
 16 18  1  0  0  0
 16 17  1  0  0  0
 18 19  1  0  0  0
 18 20  1  0  0  0
 18 21  1  0  0  0
  6  7  1  0  0  0
  7 28  1  0  0  0
 28 30  1  0  0  0
 28 29  1  0  0  0
 30 31  1  0  0  0
 30 35  2  0  0  0
 31 32  2  0  0  0
 32 33  1  0  0  0
 33 34  2  0  0  0
 34 35  1  0  0  0
 35 36  1  0  0  0
 36 37  1  0  0  0
 36 41  2  0  0  0
 37 38  2  0  0  0
 38 39  1  0  0  0
 39 40  2  0  0  0
 40 41  1  0  0  0
M  END
> <minimizedAffinity>
-9.58685

$$$$
