CHEMBL205544


 32 35  0  0  0  0  0  0  0  0999 V2000
  -20.8924    1.2302  -14.5984 C   0  0  0  0  0  0  0  0  0  0  0  0
  -20.8995    2.4666  -14.1505 N   0  0  0  0  0  0  0  0  0  0  0  0
  -19.6174    2.9466  -14.3035 N   0  0  0  0  0  0  0  0  0  0  0  0
  -18.9129    1.9838  -14.8673 C   0  0  0  0  0  0  0  0  0  0  0  0
  -19.6731    0.8759  -15.1131 O   0  0  0  0  0  0  0  0  0  0  0  0
  -17.4755    1.9720  -15.1846 C   0  0  0  0  0  0  0  0  0  0  0  0
  -17.0693    2.9482  -16.1177 C   0  0  0  0  0  0  0  0  0  0  0  0
  -15.7425    3.0522  -16.4856 C   0  0  0  0  0  0  0  0  0  0  0  0
  -14.7889    2.2466  -16.0042 N   0  0  0  0  0  0  0  0  0  0  0  0
  -15.1828    1.3052  -15.1203 C   0  0  0  0  0  0  0  0  0  0  0  0
  -16.4883    1.1167  -14.6413 C   0  0  0  0  0  0  0  0  0  0  0  0
  -16.7473   -0.0160  -13.6586 C   0  0  0  0  0  0  0  0  0  0  0  0
  -15.6182   -1.0626  -13.5593 C   0  0  0  0  0  0  0  0  0  0  0  0
  -15.8542   -2.3128  -12.7452 C   0  0  0  0  0  0  0  0  0  0  0  0
  -16.1990   -3.5556  -13.2764 C   0  0  0  0  0  0  0  0  0  0  0  0
  -16.3372   -4.6354  -12.4127 C   0  0  0  0  0  0  0  0  0  0  0  0
  -16.1538   -4.5655  -11.0765 N   0  0  0  0  0  0  0  0  0  0  0  0
  -15.8211   -3.3585  -10.5788 C   0  0  0  0  0  0  0  0  0  0  0  0
  -15.6641   -2.2239  -11.3585 C   0  0  0  0  0  0  0  0  0  0  0  0
  -21.9186    0.3580  -14.6423 N   0  0  0  0  0  0  0  0  0  0  0  0
  -22.3667    0.2711  -15.5475 H   0  0  0  0  0  0  0  0  0  0  0  0
  -24.4307   -1.0692  -11.5317 C   0  0  0  0  0  0  0  0  0  0  0  0
  -23.6070   -1.9537  -12.2175 C   0  0  0  0  0  0  0  0  0  0  0  0
  -22.7580   -1.4899  -13.2287 C   0  0  0  0  0  0  0  0  0  0  0  0
  -22.6988   -0.1399  -13.5818 C   0  0  0  0  0  0  0  0  0  0  0  0
  -23.5332    0.7435  -12.8827 C   0  0  0  0  0  0  0  0  0  0  0  0
  -24.3877    0.2842  -11.8709 C   0  0  0  0  0  0  0  0  0  0  0  0
  -25.3381   -1.4002  -10.5688 O   0  0  0  0  0  0  0  0  0  0  0  0
  -26.7254   -2.5908  -11.9171 F   0  0  0  0  0  0  0  0  0  0  0  0
  -26.6883   -1.6189  -10.9717 C   0  0  0  0  0  0  0  0  0  0  0  0
  -27.2137   -0.4923  -11.5055 F   0  0  0  0  0  0  0  0  0  0  0  0
  -27.6497   -2.1054   -9.5725 Cl  0  0  0  0  0  0  0  0  0  0  0  0
 29 30  1  0  0  0
 30 31  1  0  0  0
 30 32  1  0  0  0
 30 28  1  0  0  0
 28 22  1  0  0  0
 22 23  1  0  0  0
 22 27  2  0  0  0
 23 24  2  0  0  0
 24 25  1  0  0  0
 25 20  1  0  0  0
 25 26  2  0  0  0
 20  1  1  0  0  0
 20 21  1  0  0  0
  1  2  2  0  0  0
  1  5  1  0  0  0
  2  3  1  0  0  0
  3  4  2  0  0  0
  4  6  1  0  0  0
  4  5  1  0  0  0
  6  7  1  0  0  0
  6 11  2  0  0  0
  7  8  2  0  0  0
  8  9  1  0  0  0
  9 10  2  0  0  0
 10 11  1  0  0  0
 11 12  1  0  0  0
 12 13  1  0  0  0
 13 14  1  0  0  0
 14 15  1  0  0  0
 14 19  2  0  0  0
 15 16  2  0  0  0
 16 17  1  0  0  0
 17 18  2  0  0  0
 18 19  1  0  0  0
 26 27  1  0  0  0
M  END
> <minimizedAffinity>
-10.06655

$$$$
