CHEMBL3323600


 29 33  0  0  0  0  0  0  0  0999 V2000
  -25.9137   -9.3949   -4.6084 C   0  0  0  0  0  0  0  0  0  0  0  0
  -26.8603   -9.9003   -5.3748 N   0  0  0  0  0  0  0  0  0  0  0  0
  -27.8285   -8.9383   -5.4645 C   0  0  0  0  0  0  0  0  0  0  0  0
  -29.0617   -8.9840   -6.1157 C   0  0  0  0  0  0  0  0  0  0  0  0
  -29.8832   -7.8546   -6.0506 C   0  0  0  0  0  0  0  0  0  0  0  0
  -29.4834   -6.6698   -5.4038 C   0  0  0  0  0  0  0  0  0  0  0  0
  -28.2566   -6.6391   -4.7183 C   0  0  0  0  0  0  0  0  0  0  0  0
  -27.4606   -7.7906   -4.7760 C   0  0  0  0  0  0  0  0  0  0  0  0
  -26.2381   -8.1075   -4.2409 N   0  0  0  0  0  0  0  0  0  0  0  0
  -25.6610   -7.4968   -3.6835 H   0  0  0  0  0  0  0  0  0  0  0  0
  -21.5146  -11.0309   -5.7405 F   0  0  0  0  0  0  0  0  0  0  0  0
  -22.4887  -10.8949   -4.8276 C   0  0  0  0  0  0  0  0  0  0  0  0
  -22.3069  -11.4204   -3.5556 C   0  0  0  0  0  0  0  0  0  0  0  0
  -23.3198  -11.2868   -2.6068 C   0  0  0  0  0  0  0  0  0  0  0  0
  -24.5038  -10.6197   -2.9372 C   0  0  0  0  0  0  0  0  0  0  0  0
  -24.6836  -10.0816   -4.2217 C   0  0  0  0  0  0  0  0  0  0  0  0
  -23.6633  -10.2366   -5.1704 C   0  0  0  0  0  0  0  0  0  0  0  0
  -30.3493   -5.5483   -5.3537 N   0  0  0  0  0  0  0  0  0  0  0  0
  -31.2700   -5.7495   -4.9772 H   0  0  0  0  0  0  0  0  0  0  0  0
  -29.9603   -4.2047   -5.0942 C   0  0  0  0  0  0  0  0  0  0  0  0
  -30.2268   -3.6261   -3.8503 C   0  0  0  0  0  0  0  0  0  0  0  0
  -29.7552   -2.3559   -3.5957 C   0  0  0  0  0  0  0  0  0  0  0  0
  -29.0753   -1.6199   -4.4936 N   0  0  0  0  0  0  0  0  0  0  0  0
  -28.8665   -2.1436   -5.7127 C   0  0  0  0  0  0  0  0  0  0  0  0
  -28.1601   -1.3864   -6.6359 C   0  0  0  0  0  0  0  0  0  0  0  0
  -27.9044   -1.8481   -7.9285 C   0  0  0  0  0  0  0  0  0  0  0  0
  -28.3687   -3.0969   -8.3182 C   0  0  0  0  0  0  0  0  0  0  0  0
  -29.0637   -3.8876   -7.4037 C   0  0  0  0  0  0  0  0  0  0  0  0
  -29.3153   -3.4299   -6.0881 C   0  0  0  0  0  0  0  0  0  0  0  0
 11 12  1  0  0  0
 12 13  1  0  0  0
 12 17  2  0  0  0
 13 14  2  0  0  0
 14 15  1  0  0  0
 15 16  2  0  0  0
 16  1  1  0  0  0
 16 17  1  0  0  0
  1  2  2  0  0  0
  1  9  1  0  0  0
  2  3  1  0  0  0
  3  4  1  0  0  0
  3  8  2  0  0  0
  4  5  2  0  0  0
  5  6  1  0  0  0
  6 18  1  0  0  0
  6  7  2  0  0  0
 18 20  1  0  0  0
 18 19  1  0  0  0
 20 21  1  0  0  0
 20 29  2  0  0  0
 21 22  2  0  0  0
 22 23  1  0  0  0
 23 24  2  0  0  0
 24 25  1  0  0  0
 24 29  1  0  0  0
 25 26  2  0  0  0
 26 27  1  0  0  0
 27 28  2  0  0  0
 28 29  1  0  0  0
  7  8  1  0  0  0
  8  9  1  0  0  0
  9 10  1  0  0  0
M  END
> <minimizedAffinity>
-9.47770

$$$$
