CHEMBL3676340


 35 37  0  0  0  0  0  0  0  0999 V2000
  -28.5798   -4.8886   -5.3731 C   0  0  0  0  0  0  0  0  0  0  0  0
  -28.3147   -6.1794   -4.9186 C   0  0  0  0  0  0  0  0  0  0  0  0
  -28.5524   -7.2903   -5.7495 C   0  0  0  0  0  0  0  0  0  0  0  0
  -28.3938   -8.6230   -5.3413 C   0  0  0  0  0  0  0  0  0  0  0  0
  -28.6226   -9.6542   -6.1726 N   0  0  0  0  0  0  0  0  0  0  0  0
  -29.0092   -9.3485   -7.4144 C   0  0  0  0  0  0  0  0  0  0  0  0
  -29.2194   -8.1170   -7.8965 N   0  0  0  0  0  0  0  0  0  0  0  0
  -28.9897   -7.0943   -7.0674 C   0  0  0  0  0  0  0  0  0  0  0  0
  -29.2006   -5.7901   -7.5139 C   0  0  0  0  0  0  0  0  0  0  0  0
  -28.9882   -4.6737   -6.6947 C   0  0  0  0  0  0  0  0  0  0  0  0
  -29.6781   -3.4850   -3.6962 C   0  0  0  0  0  0  0  0  0  0  0  0
  -29.5578   -2.8124   -2.6774 O   0  0  0  0  0  0  0  0  0  0  0  0
  -28.5716   -3.8529   -4.4246 N   0  0  0  0  0  0  0  0  0  0  0  0
  -27.7424   -3.7791   -3.8442 H   0  0  0  0  0  0  0  0  0  0  0  0
  -31.6874   -4.8334   -3.4013 C   0  0  0  0  0  0  0  0  0  0  0  0
  -30.9995   -3.9801   -4.1676 C   0  0  0  0  0  0  0  0  0  0  0  0
  -28.0393   -8.9059   -3.9912 N   0  0  0  0  0  0  0  0  0  0  0  0
  -28.8817   -9.1587   -3.4764 H   0  0  0  0  0  0  0  0  0  0  0  0
  -26.9617   -9.7607   -3.6494 C   0  0  0  0  0  0  0  0  0  0  0  0
  -27.1682  -11.1020   -3.2978 C   0  0  0  0  0  0  0  0  0  0  0  0
  -28.3943  -11.6410   -3.3789 F   0  0  0  0  0  0  0  0  0  0  0  0
  -26.1212  -11.9144   -2.8737 C   0  0  0  0  0  0  0  0  0  0  0  0
  -24.8341  -11.3899   -2.8146 C   0  0  0  0  0  0  0  0  0  0  0  0
  -23.4195  -12.4660   -2.1739 Br  0  0  0  0  0  0  0  0  0  0  0  0
  -24.5832  -10.0789   -3.2137 C   0  0  0  0  0  0  0  0  0  0  0  0
  -25.6470   -9.2826   -3.6331 C   0  0  0  0  0  0  0  0  0  0  0  0
  -25.4021   -8.0149   -4.0024 F   0  0  0  0  0  0  0  0  0  0  0  0
  -29.2791   -3.4534   -7.2642 O   0  0  0  0  0  0  0  0  0  0  0  0
  -28.3807   -3.0544   -8.3090 C   0  0  0  0  0  0  0  0  0  0  0  0
  -27.4825   -1.8951   -7.8684 C   0  0  0  0  0  0  0  0  0  0  0  0
  -28.2309   -0.9178   -7.0860 N   0  0  0  0  0  0  0  0  0  0  0  0
  -27.9911   -0.7388   -5.7427 C   0  0  0  0  0  0  0  0  0  0  0  0
  -28.9604    0.1834   -5.0501 C   0  0  0  0  0  0  0  0  0  0  0  0
  -27.0669   -1.2788   -5.1451 O   0  0  0  0  0  0  0  0  0  0  0  0
  -29.0718   -0.5254   -7.4915 H   0  0  0  0  0  0  0  0  0  0  0  0
 15 16  2  0  0  0
 16 11  1  0  0  0
 11 12  2  0  0  0
 11 13  1  0  0  0
 13  1  1  0  0  0
 13 14  1  0  0  0
  1  2  1  0  0  0
  1 10  2  0  0  0
  2  3  2  0  0  0
  3  4  1  0  0  0
  3  8  1  0  0  0
  4 17  1  0  0  0
  4  5  2  0  0  0
 17 19  1  0  0  0
 17 18  1  0  0  0
 19 20  1  0  0  0
 19 26  2  0  0  0
 20 21  1  0  0  0
 20 22  2  0  0  0
 22 23  1  0  0  0
 23 24  1  0  0  0
 23 25  2  0  0  0
 25 26  1  0  0  0
 26 27  1  0  0  0
  5  6  1  0  0  0
  6  7  2  0  0  0
  7  8  1  0  0  0
  8  9  2  0  0  0
  9 10  1  0  0  0
 10 28  1  0  0  0
 28 29  1  0  0  0
 29 30  1  0  0  0
 30 31  1  0  0  0
 31 32  1  0  0  0
 31 35  1  0  0  0
 32 33  1  0  0  0
 32 34  2  0  0  0
M  END
> <minimizedAffinity>
-8.08010

$$$$
