CHEMBL3898120


 36 40  0  0  0  0  0  0  0  0999 V2000
  -27.4420   -1.8044   -9.4610 C   0  0  0  0  0  0  0  0  0  0  0  0
  -28.3529   -1.5828  -10.4884 C   0  0  0  0  0  0  0  0  0  0  0  0
  -27.9165   -1.4990  -11.7915 C   0  0  0  0  0  0  0  0  0  0  0  0
  -26.5852   -1.4651  -12.0985 C   0  0  0  0  0  0  0  0  0  0  0  0
  -26.3156   -1.6302  -13.4051 N   0  0  0  0  0  0  0  0  0  0  0  0
  -25.0659   -1.3601  -13.7989 C   0  0  0  0  0  0  0  0  0  0  0  0
  -24.1419   -0.7940  -12.9424 C   0  0  0  0  0  0  0  0  0  0  0  0
  -24.3496   -0.8065  -11.5742 N   0  0  0  0  0  0  0  0  0  0  0  0
  -25.6082   -1.2467  -11.1183 C   0  0  0  0  0  0  0  0  0  0  0  0
  -26.0728   -1.5182   -9.7593 C   0  0  0  0  0  0  0  0  0  0  0  0
  -23.1979    0.1164  -13.6038 C   0  0  0  0  0  0  0  0  0  0  0  0
  -23.0565    1.5193  -13.6599 C   0  0  0  0  0  0  0  0  0  0  0  0
  -21.8960    1.9103  -14.2285 N   0  0  0  0  0  0  0  0  0  0  0  0
  -21.2829    0.7518  -14.5327 N   0  0  0  0  0  0  0  0  0  0  0  0
  -21.9752   -0.3384  -14.0915 C   0  0  0  0  0  0  0  0  0  0  0  0
  -20.0388    0.7412  -15.2899 C   0  0  0  0  0  0  0  0  0  0  0  0
  -18.9461    1.5992  -14.6449 C   0  0  0  0  0  0  0  0  0  0  0  0
  -18.6570    2.9119  -15.3745 C   0  0  0  0  0  0  0  0  0  0  0  0
  -19.6223    3.9494  -15.0289 N   0  0  0  0  0  0  0  0  0  0  0  0
  -20.5333    3.6952  -15.4217 H   0  0  0  0  0  0  0  0  0  0  0  0
  -19.3673    4.8058  -15.5230 H   0  0  0  0  0  0  0  0  0  0  0  0
  -27.9763   -2.4723   -8.3037 N   0  0  0  0  0  0  0  0  0  0  0  0
  -28.2049   -2.4313   -4.5140 C   0  0  0  0  0  0  0  0  0  0  0  0
  -28.6404   -1.1334   -4.2929 C   0  0  0  0  0  0  0  0  0  0  0  0
  -28.8847   -0.2924   -5.3759 C   0  0  0  0  0  0  0  0  0  0  0  0
  -28.7098   -0.7614   -6.6904 C   0  0  0  0  0  0  0  0  0  0  0  0
  -28.1876   -2.0283   -6.9689 C   0  0  0  0  0  0  0  0  0  0  0  0
  -27.9492   -2.8507   -5.8359 C   0  0  0  0  0  0  0  0  0  0  0  0
  -27.8255   -4.7097   -3.9353 C   0  0  0  0  0  0  0  0  0  0  0  0
  -27.9699   -3.3505   -3.5198 O   0  0  0  0  0  0  0  0  0  0  0  0
  -29.3028    1.0096   -5.2738 O   0  0  0  0  0  0  0  0  0  0  0  0
  -30.4751    1.3600   -6.0040 C   0  0  0  0  0  0  0  0  0  0  0  0
  -28.0227   -3.9558   -8.5552 C   0  0  0  0  0  0  0  0  0  0  0  0
  -28.7174   -4.7826   -7.4754 C   0  0  0  0  0  0  0  0  0  0  0  0
  -28.8690   -6.2748   -7.7164 C   0  0  0  0  0  0  0  0  0  0  0  0
  -30.0867   -5.4064   -7.6749 C   0  0  0  0  0  0  0  0  0  0  0  0
 29 30  1  0  0  0
 30 23  1  0  0  0
 23 24  1  0  0  0
 23 28  2  0  0  0
 24 25  2  0  0  0
 25 31  1  0  0  0
 25 26  1  0  0  0
 31 32  1  0  0  0
 26 27  2  0  0  0
 27 22  1  0  0  0
 27 28  1  0  0  0
 22 33  1  0  0  0
 22  1  1  0  0  0
 33 34  1  0  0  0
 34 35  1  0  0  0
 34 36  1  0  0  0
 35 36  1  0  0  0
  1  2  1  0  0  0
  1 10  2  0  0  0
  2  3  2  0  0  0
  3  4  1  0  0  0
  4  5  1  0  0  0
  4  9  2  0  0  0
  5  6  2  0  0  0
  6  7  1  0  0  0
  7 11  1  0  0  0
  7  8  2  0  0  0
 11 12  1  0  0  0
 11 15  2  0  0  0
 12 13  2  0  0  0
 13 14  1  0  0  0
 14 16  1  0  0  0
 14 15  1  0  0  0
 16 17  1  0  0  0
 17 18  1  0  0  0
 18 19  1  0  0  0
 19 20  1  0  0  0
 19 21  1  0  0  0
  8  9  1  0  0  0
  9 10  1  0  0  0
M  END
> <minimizedAffinity>
-9.02535

$$$$
