CHEMBL3931393


 34 37  0  0  0  0  0  0  0  0999 V2000
  -28.3299   -3.1897   -7.9774 C   0  0  0  0  0  0  0  0  0  0  0  0
  -28.8259   -2.3910   -6.9206 C   0  0  0  0  0  0  0  0  0  0  0  0
  -29.2331   -2.9047   -5.6929 C   0  0  0  0  0  0  0  0  0  0  0  0
  -29.7357   -2.0902   -4.7549 N   0  0  0  0  0  0  0  0  0  0  0  0
  -30.1155   -2.6634   -3.6012 C   0  0  0  0  0  0  0  0  0  0  0  0
  -30.0120   -3.9599   -3.2935 N   0  0  0  0  0  0  0  0  0  0  0  0
  -29.4839   -4.7602   -4.2346 C   0  0  0  0  0  0  0  0  0  0  0  0
  -29.0971   -4.2756   -5.4958 C   0  0  0  0  0  0  0  0  0  0  0  0
  -28.6161   -5.0913   -6.5471 C   0  0  0  0  0  0  0  0  0  0  0  0
  -28.2219   -4.5694   -7.7883 C   0  0  0  0  0  0  0  0  0  0  0  0
  -29.2584   -6.1364   -3.9400 N   0  0  0  0  0  0  0  0  0  0  0  0
  -29.5271   -6.2987   -2.9742 H   0  0  0  0  0  0  0  0  0  0  0  0
  -29.5938   -7.2223   -4.7719 C   0  0  0  0  0  0  0  0  0  0  0  0
  -28.7550   -8.3369   -4.8804 C   0  0  0  0  0  0  0  0  0  0  0  0
  -29.0846   -9.4008   -5.7205 C   0  0  0  0  0  0  0  0  0  0  0  0
  -30.2642   -9.3641   -6.4667 C   0  0  0  0  0  0  0  0  0  0  0  0
  -30.5937  -10.6911   -7.5186 Cl  0  0  0  0  0  0  0  0  0  0  0  0
  -31.1260   -8.2688   -6.3434 C   0  0  0  0  0  0  0  0  0  0  0  0
  -32.6081   -8.1529   -7.2253 Cl  0  0  0  0  0  0  0  0  0  0  0  0
  -30.7952   -7.2111   -5.4893 C   0  0  0  0  0  0  0  0  0  0  0  0
  -27.9177   -5.5665   -8.6644 O   0  0  0  0  0  0  0  0  0  0  0  0
  -28.2670   -6.9096   -8.3693 C   0  0  0  0  0  0  0  0  0  0  0  0
  -28.0453   -2.4256   -9.0775 O   0  0  0  0  0  0  0  0  0  0  0  0
  -26.8490   -1.6713   -9.0698 C   0  0  0  0  0  0  0  0  0  0  0  0
  -24.5159   -1.2694  -11.9073 C   0  0  0  0  0  0  0  0  0  0  0  0
  -23.1490   -1.9678  -11.9667 C   0  0  0  0  0  0  0  0  0  0  0  0
  -25.4349   -1.8709  -13.0187 C   0  0  0  0  0  0  0  0  0  0  0  0
  -26.8438   -1.4442  -12.8910 N   0  0  0  0  0  0  0  0  0  0  0  0
  -27.6829   -2.0484  -13.9181 C   0  0  0  0  0  0  0  0  0  0  0  0
  -27.3316   -1.8306  -11.5468 C   0  0  0  0  0  0  0  0  0  0  0  0
  -26.4428   -1.2071  -10.4613 C   0  0  0  0  0  0  0  0  0  0  0  0
  -25.0619   -1.5912  -10.6138 O   0  0  0  0  0  0  0  0  0  0  0  0
  -23.3903    0.6751  -13.1857 C   0  0  0  0  0  0  0  0  0  0  0  0
  -24.3415    0.2628  -12.0634 C   0  0  0  0  0  0  0  0  0  0  0  0
 33 34  1  0  0  0
 34 25  1  0  0  0
 25 26  1  0  0  0
 25 27  1  0  0  0
 25 32  1  0  0  0
 27 28  1  0  0  0
 28 29  1  0  0  0
 28 30  1  0  0  0
 30 31  1  0  0  0
 31 24  1  0  0  0
 31 32  1  0  0  0
 24 23  1  0  0  0
 23  1  1  0  0  0
  1  2  1  0  0  0
  1 10  2  0  0  0
  2  3  2  0  0  0
  3  4  1  0  0  0
  3  8  1  0  0  0
  4  5  2  0  0  0
  5  6  1  0  0  0
  6  7  2  0  0  0
  7 11  1  0  0  0
  7  8  1  0  0  0
 11 13  1  0  0  0
 11 12  1  0  0  0
 13 14  1  0  0  0
 13 20  2  0  0  0
 14 15  2  0  0  0
 15 16  1  0  0  0
 16 17  1  0  0  0
 16 18  2  0  0  0
 18 19  1  0  0  0
 18 20  1  0  0  0
  8  9  2  0  0  0
  9 10  1  0  0  0
 10 21  1  0  0  0
 21 22  1  0  0  0
M  END
> <minimizedAffinity>
-8.30647

$$$$
