CHEMBL194149


 38 42  0  0  0  0  0  0  0  0999 V2000
  -30.3001   -6.2451   -6.1144 C   0  0  0  0  0  0  0  0  0  0  0  0
  -31.0246   -6.6730   -5.0435 O   0  0  0  0  0  0  0  0  0  0  0  0
  -31.1799   -5.6249   -4.1910 C   0  0  0  0  0  0  0  0  0  0  0  0
  -31.8718   -5.7207   -3.0459 N   0  0  0  0  0  0  0  0  0  0  0  0
  -31.8851   -4.5660   -2.3799 C   0  0  0  0  0  0  0  0  0  0  0  0
  -31.2934   -3.4141   -2.7269 N   0  0  0  0  0  0  0  0  0  0  0  0
  -30.5716   -3.3578   -3.8657 C   0  0  0  0  0  0  0  0  0  0  0  0
  -29.9585   -2.1453   -4.1398 N   0  0  0  0  0  0  0  0  0  0  0  0
  -30.5176   -4.5046   -4.6710 C   0  0  0  0  0  0  0  0  0  0  0  0
  -29.9722   -4.9055   -5.9300 C   0  0  0  0  0  0  0  0  0  0  0  0
  -30.3402   -1.3875   -3.5902 H   0  0  0  0  0  0  0  0  0  0  0  0
  -29.6223   -1.9557   -5.0606 H   0  0  0  0  0  0  0  0  0  0  0  0
  -29.4696   -9.3852   -8.9248 C   0  0  0  0  0  0  0  0  0  0  0  0
  -28.4702   -8.4942   -8.5533 C   0  0  0  0  0  0  0  0  0  0  0  0
  -28.7693   -7.4002   -7.7357 C   0  0  0  0  0  0  0  0  0  0  0  0
  -30.0491   -7.2353   -7.1647 C   0  0  0  0  0  0  0  0  0  0  0  0
  -31.0542   -8.1293   -7.5588 C   0  0  0  0  0  0  0  0  0  0  0  0
  -30.7674   -9.1809   -8.4469 C   0  0  0  0  0  0  0  0  0  0  0  0
  -29.0292  -10.2200  -11.1098 C   0  0  0  0  0  0  0  0  0  0  0  0
  -29.3121  -10.4723   -9.7370 O   0  0  0  0  0  0  0  0  0  0  0  0
  -29.2116   -4.1142   -6.8961 C   0  0  0  0  0  0  0  0  0  0  0  0
  -29.6137   -4.0419   -8.2299 C   0  0  0  0  0  0  0  0  0  0  0  0
  -29.0389   -3.1055   -9.0854 C   0  0  0  0  0  0  0  0  0  0  0  0
  -27.9788   -2.2974   -8.6668 C   0  0  0  0  0  0  0  0  0  0  0  0
  -27.4984   -2.4466   -7.3647 C   0  0  0  0  0  0  0  0  0  0  0  0
  -28.1406   -3.3129   -6.4735 C   0  0  0  0  0  0  0  0  0  0  0  0
  -27.3793   -1.3276   -9.4978 N   0  0  0  0  0  0  0  0  0  0  0  0
  -26.4769   -1.5964  -10.5083 C   0  0  0  0  0  0  0  0  0  0  0  0
  -26.1372   -2.7214  -10.8694 O   0  0  0  0  0  0  0  0  0  0  0  0
  -25.9591   -0.4384  -11.0716 N   0  0  0  0  0  0  0  0  0  0  0  0
  -27.7404   -0.3876   -9.4527 H   0  0  0  0  0  0  0  0  0  0  0  0
  -25.8330    0.3121  -10.4084 H   0  0  0  0  0  0  0  0  0  0  0  0
  -24.9528   -0.5689  -12.0573 C   0  0  0  0  0  0  0  0  0  0  0  0
  -23.6240   -0.2244  -11.7813 C   0  0  0  0  0  0  0  0  0  0  0  0
  -22.6682   -0.2450  -12.7952 C   0  0  0  0  0  0  0  0  0  0  0  0
  -23.0416   -0.6023  -14.0889 C   0  0  0  0  0  0  0  0  0  0  0  0
  -24.3633   -0.9590  -14.3624 C   0  0  0  0  0  0  0  0  0  0  0  0
  -25.3167   -0.9656  -13.3426 C   0  0  0  0  0  0  0  0  0  0  0  0
 19 20  1  0  0  0
 20 13  1  0  0  0
 13 14  1  0  0  0
 13 18  2  0  0  0
 14 15  2  0  0  0
 15 16  1  0  0  0
 16  1  1  0  0  0
 16 17  2  0  0  0
  1  2  1  0  0  0
  1 10  2  0  0  0
  2  3  1  0  0  0
  3  4  1  0  0  0
  3  9  2  0  0  0
  4  5  2  0  0  0
  5  6  1  0  0  0
  6  7  2  0  0  0
  7  8  1  0  0  0
  7  9  1  0  0  0
  8 11  1  0  0  0
  8 12  1  0  0  0
  9 10  1  0  0  0
 10 21  1  0  0  0
 21 22  1  0  0  0
 21 26  2  0  0  0
 22 23  2  0  0  0
 23 24  1  0  0  0
 24 27  1  0  0  0
 24 25  2  0  0  0
 27 28  1  0  0  0
 27 31  1  0  0  0
 28 29  2  0  0  0
 28 30  1  0  0  0
 30 33  1  0  0  0
 30 32  1  0  0  0
 33 34  1  0  0  0
 33 38  2  0  0  0
 34 35  2  0  0  0
 35 36  1  0  0  0
 36 37  2  0  0  0
 37 38  1  0  0  0
 25 26  1  0  0  0
 17 18  1  0  0  0
M  END
> <minimizedAffinity>
-9.00399

$$$$
