CHEMBL1990346


 20 22  0  0  0  0  0  0  0  0999 V2000
  -32.9815   -7.9296   -6.4881 N   0  0  0  0  0  0  0  0  0  0  0  0
  -32.3056   -8.7079   -7.3478 C   0  0  0  0  0  0  0  0  0  0  0  0
  -32.9113   -9.7433   -7.9168 N   0  0  0  0  0  0  0  0  0  0  0  0
  -31.9825  -10.2460   -8.7308 N   0  0  0  0  0  0  0  0  0  0  0  0
  -30.7906   -9.5745   -8.7130 C   0  0  0  0  0  0  0  0  0  0  0  0
  -29.6269   -9.8040   -9.4485 C   0  0  0  0  0  0  0  0  0  0  0  0
  -28.5499   -8.9616   -9.2088 C   0  0  0  0  0  0  0  0  0  0  0  0
  -28.6417   -7.9452   -8.2587 C   0  0  0  0  0  0  0  0  0  0  0  0
  -29.8214   -7.6947   -7.5092 C   0  0  0  0  0  0  0  0  0  0  0  0
  -30.9404   -8.5485   -7.7705 C   0  0  0  0  0  0  0  0  0  0  0  0
  -33.9775   -8.1159   -6.4353 H   0  0  0  0  0  0  0  0  0  0  0  0
  -32.7641   -6.9408   -6.4497 H   0  0  0  0  0  0  0  0  0  0  0  0
  -32.2248  -11.0557   -9.2885 H   0  0  0  0  0  0  0  0  0  0  0  0
  -29.8558   -6.5906   -6.5187 C   0  0  0  0  0  0  0  0  0  0  0  0
  -29.9199   -5.2431   -6.9328 C   0  0  0  0  0  0  0  0  0  0  0  0
  -29.9714   -4.1884   -6.0122 C   0  0  0  0  0  0  0  0  0  0  0  0
  -29.9935   -4.4643   -4.6509 C   0  0  0  0  0  0  0  0  0  0  0  0
  -30.1396   -3.0541   -3.4027 Br  0  0  0  0  0  0  0  0  0  0  0  0
  -29.9041   -5.7775   -4.2063 C   0  0  0  0  0  0  0  0  0  0  0  0
  -29.7904   -6.8197   -5.1345 C   0  0  0  0  0  0  0  0  0  0  0  0
  1  2  1  0  0  0
  1 11  1  0  0  0
  1 12  1  0  0  0
  2  3  2  0  0  0
  2 10  1  0  0  0
  3  4  1  0  0  0
  4  5  1  0  0  0
  4 13  1  0  0  0
  5  6  1  0  0  0
  5 10  2  0  0  0
  6  7  2  0  0  0
  7  8  1  0  0  0
  8  9  2  0  0  0
  9 14  1  0  0  0
  9 10  1  0  0  0
 14 15  1  0  0  0
 14 20  2  0  0  0
 15 16  2  0  0  0
 16 17  1  0  0  0
 17 18  1  0  0  0
 17 19  2  0  0  0
 19 20  1  0  0  0
M  END
> <minimizedAffinity>
-7.59303

$$$$
