CHEMBL231309


 32 35  0  0  0  0  0  0  0  0999 V2000
  -23.5144   11.3982  -17.6462 C   0  0  0  0  0  0  0  0  0  0  0  0
  -24.8464   10.9823  -17.6319 C   0  0  0  0  0  0  0  0  0  0  0  0
  -25.6230   11.1329  -16.4803 C   0  0  0  0  0  0  0  0  0  0  0  0
  -25.0745   11.6736  -15.3070 C   0  0  0  0  0  0  0  0  0  0  0  0
  -23.7028   11.9556  -15.2977 C   0  0  0  0  0  0  0  0  0  0  0  0
  -22.9276   11.8362  -16.4616 C   0  0  0  0  0  0  0  0  0  0  0  0
  -25.9333   11.9516  -14.1422 C   0  0  0  0  0  0  0  0  0  0  0  0
  -25.3511   12.4273  -12.9800 C   0  0  0  0  0  0  0  0  0  0  0  0
  -26.4536   12.6588  -11.7141 S   0  0  0  0  0  0  0  0  0  0  0  0
  -27.7762   12.1437  -12.6803 C   0  0  0  0  0  0  0  0  0  0  0  0
  -29.1076   12.0820  -12.2518 C   0  0  0  0  0  0  0  0  0  0  0  0
  -30.0217   11.6434  -13.1787 C   0  0  0  0  0  0  0  0  0  0  0  0
  -29.7012   11.2619  -14.4232 N   0  0  0  0  0  0  0  0  0  0  0  0
  -28.4146   11.2965  -14.8383 C   0  0  0  0  0  0  0  0  0  0  0  0
  -28.2325   10.8085  -16.1274 N   0  0  0  0  0  0  0  0  0  0  0  0
  -27.3839   11.7706  -13.9758 C   0  0  0  0  0  0  0  0  0  0  0  0
  -29.0915   10.3514  -16.4171 H   0  0  0  0  0  0  0  0  0  0  0  0
  -27.3995   10.2398  -16.2183 H   0  0  0  0  0  0  0  0  0  0  0  0
  -20.8390   11.3063  -20.0858 N   0  0  0  0  0  0  0  0  0  0  0  0
  -21.3931   11.2322  -18.8214 C   0  0  0  0  0  0  0  0  0  0  0  0
  -20.7608   10.9956  -17.7967 O   0  0  0  0  0  0  0  0  0  0  0  0
  -22.7699   11.4350  -18.8486 N   0  0  0  0  0  0  0  0  0  0  0  0
  -21.3245   11.8985  -20.7464 H   0  0  0  0  0  0  0  0  0  0  0  0
  -23.2214   11.0658  -19.6723 H   0  0  0  0  0  0  0  0  0  0  0  0
  -16.0770   12.6097  -20.0584 C   0  0  0  0  0  0  0  0  0  0  0  0
  -17.1475   11.6087  -20.3831 C   0  0  0  0  0  0  0  0  0  0  0  0
  -16.8082   10.3499  -20.9014 C   0  0  0  0  0  0  0  0  0  0  0  0
  -17.7963    9.4111  -21.1847 C   0  0  0  0  0  0  0  0  0  0  0  0
  -17.4538    8.0563  -21.7400 C   0  0  0  0  0  0  0  0  0  0  0  0
  -19.1335    9.7307  -20.9300 C   0  0  0  0  0  0  0  0  0  0  0  0
  -19.4975   10.9702  -20.3880 C   0  0  0  0  0  0  0  0  0  0  0  0
  -18.4942   11.9139  -20.1422 C   0  0  0  0  0  0  0  0  0  0  0  0
 25 26  1  0  0  0
 26 27  1  0  0  0
 26 32  2  0  0  0
 27 28  2  0  0  0
 28 29  1  0  0  0
 28 30  1  0  0  0
 30 31  2  0  0  0
 31 19  1  0  0  0
 31 32  1  0  0  0
 19 20  1  0  0  0
 19 23  1  0  0  0
 20 21  2  0  0  0
 20 22  1  0  0  0
 22  1  1  0  0  0
 22 24  1  0  0  0
  1  2  1  0  0  0
  1  6  2  0  0  0
  2  3  2  0  0  0
  3  4  1  0  0  0
  4  7  1  0  0  0
  4  5  2  0  0  0
  7  8  2  0  0  0
  7 16  1  0  0  0
  8  9  1  0  0  0
  9 10  1  0  0  0
 10 11  1  0  0  0
 10 16  2  0  0  0
 11 12  2  0  0  0
 12 13  1  0  0  0
 13 14  2  0  0  0
 14 15  1  0  0  0
 14 16  1  0  0  0
 15 17  1  0  0  0
 15 18  1  0  0  0
  5  6  1  0  0  0
M  END
> <minimizedAffinity>
-4.21721

$$$$
