CHEMBL220540


 51 56  0  0  0  0  0  0  0  0999 V2000
  -12.1813   -1.0753  -15.0017 C   0  0  0  0  0  0  0  0  0  0  0  0
  -11.4537   -1.2133  -13.7958 C   0  0  0  0  0  0  0  0  0  0  0  0
  -10.9490   -0.1106  -13.1281 C   0  0  0  0  0  0  0  0  0  0  0  0
  -11.1768    1.1206  -13.6853 C   0  0  0  0  0  0  0  0  0  0  0  0
  -11.8651    1.3021  -14.8252 N   0  0  0  0  0  0  0  0  0  0  0  0
  -12.3860    0.2331  -15.4857 C   0  0  0  0  0  0  0  0  0  0  0  0
  -13.7604   -4.2013  -15.7979 C   0  0  0  0  0  0  0  0  0  0  0  0
  -13.6438   -4.2547  -17.1293 N   0  0  0  0  0  0  0  0  0  0  0  0
  -12.9139   -3.3102  -17.6889 C   0  0  0  0  0  0  0  0  0  0  0  0
  -12.3494   -2.3090  -17.0401 N   0  0  0  0  0  0  0  0  0  0  0  0
  -12.5964   -2.2875  -15.7236 C   0  0  0  0  0  0  0  0  0  0  0  0
  -13.2738   -3.2256  -15.0597 N   0  0  0  0  0  0  0  0  0  0  0  0
  -14.3653   -5.2811  -15.1316 N   0  0  0  0  0  0  0  0  0  0  0  0
  -15.3115   -5.3715  -15.4783 H   0  0  0  0  0  0  0  0  0  0  0  0
  -13.2555   -6.4426  -11.7639 C   0  0  0  0  0  0  0  0  0  0  0  0
  -13.3297   -6.2326  -13.1381 C   0  0  0  0  0  0  0  0  0  0  0  0
  -14.2954   -5.4101  -13.7190 C   0  0  0  0  0  0  0  0  0  0  0  0
  -15.1646   -4.7029  -12.9026 C   0  0  0  0  0  0  0  0  0  0  0  0
  -15.1295   -4.9048  -11.5147 C   0  0  0  0  0  0  0  0  0  0  0  0
  -14.1479   -5.7481  -10.9321 C   0  0  0  0  0  0  0  0  0  0  0  0
  -11.0403   -7.0031  -11.0886 C   0  0  0  0  0  0  0  0  0  0  0  0
  -12.4066   -7.3866  -11.2406 O   0  0  0  0  0  0  0  0  0  0  0  0
  -16.0080   -4.2842  -10.6549 O   0  0  0  0  0  0  0  0  0  0  0  0
  -16.0269   -2.8601  -10.7055 C   0  0  0  0  0  0  0  0  0  0  0  0
  -14.1930   -5.8518   -9.5611 O   0  0  0  0  0  0  0  0  0  0  0  0
  -13.2988   -5.0171   -8.8335 C   0  0  0  0  0  0  0  0  0  0  0  0
  -13.1682    0.4830  -16.6444 N   0  0  0  0  0  0  0  0  0  0  0  0
  -12.8816   -0.0820  -17.4401 H   0  0  0  0  0  0  0  0  0  0  0  0
  -13.8858    1.6518  -16.9615 C   0  0  0  0  0  0  0  0  0  0  0  0
  -13.3065    2.6830  -17.7131 C   0  0  0  0  0  0  0  0  0  0  0  0
  -13.9562    3.9173  -17.8524 C   0  0  0  0  0  0  0  0  0  0  0  0
  -15.2024    4.1273  -17.2625 C   0  0  0  0  0  0  0  0  0  0  0  0
  -15.8290    3.0729  -16.5853 C   0  0  0  0  0  0  0  0  0  0  0  0
  -15.1739    1.8527  -16.4662 C   0  0  0  0  0  0  0  0  0  0  0  0
  -17.1747    3.2551  -15.9975 C   0  0  0  0  0  0  0  0  0  0  0  0
  -17.4653    4.3625  -15.5597 O   0  0  0  0  0  0  0  0  0  0  0  0
  -17.9699    2.1105  -15.9590 N   0  0  0  0  0  0  0  0  0  0  0  0
  -17.5243    1.2306  -16.1853 H   0  0  0  0  0  0  0  0  0  0  0  0
  -19.2635    2.0300  -15.4136 C   0  0  0  0  0  0  0  0  0  0  0  0
  -19.9516    3.1440  -14.9425 C   0  0  0  0  0  0  0  0  0  0  0  0
  -21.1835    2.9949  -14.3075 C   0  0  0  0  0  0  0  0  0  0  0  0
  -21.7818    1.7393  -14.2104 C   0  0  0  0  0  0  0  0  0  0  0  0
  -21.1119    0.6190  -14.7040 C   0  0  0  0  0  0  0  0  0  0  0  0
  -19.8601    0.7668  -15.3152 C   0  0  0  0  0  0  0  0  0  0  0  0
  -22.9979    1.5031  -13.6033 O   0  0  0  0  0  0  0  0  0  0  0  0
  -23.2919    0.2418  -13.1366 C   0  0  0  0  0  0  0  0  0  0  0  0
  -22.7224   -0.3215  -11.9895 C   0  0  0  0  0  0  0  0  0  0  0  0
  -23.0376   -1.6235  -11.6120 C   0  0  0  0  0  0  0  0  0  0  0  0
  -23.9803   -2.3442  -12.3363 C   0  0  0  0  0  0  0  0  0  0  0  0
  -24.6024   -1.7671  -13.4443 C   0  0  0  0  0  0  0  0  0  0  0  0
  -24.2556   -0.4755  -13.8482 C   0  0  0  0  0  0  0  0  0  0  0  0
 21 22  1  0  0  0
 22 15  1  0  0  0
 15 16  1  0  0  0
 15 20  2  0  0  0
 16 17  2  0  0  0
 17 13  1  0  0  0
 17 18  1  0  0  0
 13  7  1  0  0  0
 13 14  1  0  0  0
  7  8  1  0  0  0
  7 12  2  0  0  0
  8  9  2  0  0  0
  9 10  1  0  0  0
 10 11  2  0  0  0
 11  1  1  0  0  0
 11 12  1  0  0  0
  1  2  1  0  0  0
  1  6  2  0  0  0
  2  3  2  0  0  0
  3  4  1  0  0  0
  4  5  2  0  0  0
  5  6  1  0  0  0
  6 27  1  0  0  0
 27 29  1  0  0  0
 27 28  1  0  0  0
 29 30  1  0  0  0
 29 34  2  0  0  0
 30 31  2  0  0  0
 31 32  1  0  0  0
 32 33  2  0  0  0
 33 35  1  0  0  0
 33 34  1  0  0  0
 35 36  2  0  0  0
 35 37  1  0  0  0
 37 39  1  0  0  0
 37 38  1  0  0  0
 39 40  1  0  0  0
 39 44  2  0  0  0
 40 41  2  0  0  0
 41 42  1  0  0  0
 42 45  1  0  0  0
 42 43  2  0  0  0
 45 46  1  0  0  0
 46 47  1  0  0  0
 46 51  2  0  0  0
 47 48  2  0  0  0
 48 49  1  0  0  0
 49 50  2  0  0  0
 50 51  1  0  0  0
 43 44  1  0  0  0
 18 19  2  0  0  0
 19 23  1  0  0  0
 19 20  1  0  0  0
 23 24  1  0  0  0
 20 25  1  0  0  0
 25 26  1  0  0  0
M  END
> <minimizedAffinity>
-10.13677

$$$$
