CHEMBL205823


 30 34  0  0  0  0  0  0  0  0999 V2000
  -15.7180   -0.0593  -14.4477 C   0  0  0  0  0  0  0  0  0  0  0  0
  -14.3800    0.0835  -14.4826 N   0  0  0  0  0  0  0  0  0  0  0  0
  -13.8120    1.2476  -14.9134 N   0  0  0  0  0  0  0  0  0  0  0  0
  -14.5577    2.2442  -15.4326 C   0  0  0  0  0  0  0  0  0  0  0  0
  -15.9773    2.1455  -15.4308 C   0  0  0  0  0  0  0  0  0  0  0  0
  -16.8673    3.1059  -15.9903 C   0  0  0  0  0  0  0  0  0  0  0  0
  -18.2518    3.0275  -15.8421 C   0  0  0  0  0  0  0  0  0  0  0  0
  -18.8074    1.9420  -15.1868 C   0  0  0  0  0  0  0  0  0  0  0  0
  -17.9757    0.9240  -14.7265 C   0  0  0  0  0  0  0  0  0  0  0  0
  -16.5640    0.9950  -14.8440 C   0  0  0  0  0  0  0  0  0  0  0  0
  -13.7563    3.4074  -15.9322 C   0  0  0  0  0  0  0  0  0  0  0  0
  -13.2727    4.3602  -15.0053 C   0  0  0  0  0  0  0  0  0  0  0  0
  -12.6375    5.5334  -15.4015 C   0  0  0  0  0  0  0  0  0  0  0  0
  -12.3768    5.7508  -16.7426 C   0  0  0  0  0  0  0  0  0  0  0  0
  -12.7194    4.7823  -17.6957 C   0  0  0  0  0  0  0  0  0  0  0  0
  -12.3621    4.9672  -19.0341 C   0  0  0  0  0  0  0  0  0  0  0  0
  -12.6116    4.0923  -20.0316 N   0  0  0  0  0  0  0  0  0  0  0  0
  -13.2721    2.9787  -19.6801 C   0  0  0  0  0  0  0  0  0  0  0  0
  -13.7036    2.7097  -18.3875 C   0  0  0  0  0  0  0  0  0  0  0  0
  -13.4174    3.6055  -17.3235 C   0  0  0  0  0  0  0  0  0  0  0  0
  -16.2638   -1.2948  -14.0204 N   0  0  0  0  0  0  0  0  0  0  0  0
  -17.2261   -1.1600  -13.7301 H   0  0  0  0  0  0  0  0  0  0  0  0
  -13.6528   -5.7393  -11.0257 Cl  0  0  0  0  0  0  0  0  0  0  0  0
  -14.3930   -4.4157  -11.8556 C   0  0  0  0  0  0  0  0  0  0  0  0
  -14.4360   -4.4622  -13.2463 C   0  0  0  0  0  0  0  0  0  0  0  0
  -15.0303   -3.4199  -13.9651 C   0  0  0  0  0  0  0  0  0  0  0  0
  -15.5778   -2.3054  -13.3101 C   0  0  0  0  0  0  0  0  0  0  0  0
  -15.5539   -2.2854  -11.9122 C   0  0  0  0  0  0  0  0  0  0  0  0
  -14.9531   -3.3258  -11.1849 C   0  0  0  0  0  0  0  0  0  0  0  0
  -14.9544   -3.2018   -9.4603 Cl  0  0  0  0  0  0  0  0  0  0  0  0
 23 24  1  0  0  0
 24 25  1  0  0  0
 24 29  2  0  0  0
 25 26  2  0  0  0
 26 27  1  0  0  0
 27 21  1  0  0  0
 27 28  2  0  0  0
 21  1  1  0  0  0
 21 22  1  0  0  0
  1  2  1  0  0  0
  1 10  2  0  0  0
  2  3  2  0  0  0
  3  4  1  0  0  0
  4 11  1  0  0  0
  4  5  2  0  0  0
 11 12  1  0  0  0
 11 20  2  0  0  0
 12 13  2  0  0  0
 13 14  1  0  0  0
 14 15  2  0  0  0
 15 16  1  0  0  0
 15 20  1  0  0  0
 16 17  2  0  0  0
 17 18  1  0  0  0
 18 19  2  0  0  0
 19 20  1  0  0  0
  5  6  1  0  0  0
  5 10  1  0  0  0
  6  7  2  0  0  0
  7  8  1  0  0  0
  8  9  2  0  0  0
  9 10  1  0  0  0
 28 29  1  0  0  0
 29 30  1  0  0  0
M  END
> <minimizedAffinity>
-8.13857

$$$$
