CHEMBL67057


 45 51  0  0  0  0  0  0  0  0999 V2000
  -14.1431    0.7959  -15.5753 C   0  0  0  0  0  0  0  0  0  0  0  0
  -13.7973    1.3794  -16.7383 C   0  0  0  0  0  0  0  0  0  0  0  0
  -12.7687    0.9895  -17.7652 C   0  0  0  0  0  0  0  0  0  0  0  0
  -11.9779    0.0654  -17.7195 O   0  0  0  0  0  0  0  0  0  0  0  0
  -12.9090    1.8944  -18.8007 N   0  0  0  0  0  0  0  0  0  0  0  0
  -13.8924    2.8270  -18.5289 C   0  0  0  0  0  0  0  0  0  0  0  0
  -14.2229    3.8123  -19.3644 N   0  0  0  0  0  0  0  0  0  0  0  0
  -15.1923    4.6031  -18.8889 C   0  0  0  0  0  0  0  0  0  0  0  0
  -15.7999    4.4742  -17.6963 N   0  0  0  0  0  0  0  0  0  0  0  0
  -15.4233    3.4569  -16.8888 C   0  0  0  0  0  0  0  0  0  0  0  0
  -14.4455    2.5798  -17.2852 C   0  0  0  0  0  0  0  0  0  0  0  0
  -12.3722    1.8980  -19.6537 H   0  0  0  0  0  0  0  0  0  0  0  0
  -11.7432    0.6509  -13.3787 C   0  0  0  0  0  0  0  0  0  0  0  0
  -12.5792   -0.4345  -13.9616 C   0  0  0  0  0  0  0  0  0  0  0  0
  -12.4698   -1.8034  -13.6057 C   0  0  0  0  0  0  0  0  0  0  0  0
  -13.4628   -2.5075  -14.2580 C   0  0  0  0  0  0  0  0  0  0  0  0
  -14.0320   -1.6205  -15.1451 N   0  0  0  0  0  0  0  0  0  0  0  0
  -13.6012   -0.3370  -14.9034 C   0  0  0  0  0  0  0  0  0  0  0  0
  -14.7434   -1.8757  -15.8219 H   0  0  0  0  0  0  0  0  0  0  0  0
  -13.7712   -3.9131  -14.0864 C   0  0  0  0  0  0  0  0  0  0  0  0
  -12.9874   -4.7747  -14.4862 O   0  0  0  0  0  0  0  0  0  0  0  0
  -14.9282   -4.2722  -13.3995 N   0  0  0  0  0  0  0  0  0  0  0  0
  -15.9141   -3.3712  -12.7913 C   0  0  0  0  0  0  0  0  0  0  0  0
  -16.3169   -3.8296  -11.3883 C   0  0  0  0  0  0  0  0  0  0  0  0
  -16.7204   -5.2034  -11.3739 O   0  0  0  0  0  0  0  0  0  0  0  0
  -15.6494   -6.0403  -11.8373 C   0  0  0  0  0  0  0  0  0  0  0  0
  -15.2681   -5.6913  -13.2782 C   0  0  0  0  0  0  0  0  0  0  0  0
  -16.0221    3.3175  -15.6251 N   0  0  0  0  0  0  0  0  0  0  0  0
  -15.8576    4.1433  -15.0624 H   0  0  0  0  0  0  0  0  0  0  0  0
  -17.2763    2.7241  -15.3837 C   0  0  0  0  0  0  0  0  0  0  0  0
  -17.4362    1.3377  -15.4763 C   0  0  0  0  0  0  0  0  0  0  0  0
  -18.6623    0.7244  -15.2509 C   0  0  0  0  0  0  0  0  0  0  0  0
  -19.7358    1.5447  -14.8958 C   0  0  0  0  0  0  0  0  0  0  0  0
  -19.6081    2.9244  -14.7383 C   0  0  0  0  0  0  0  0  0  0  0  0
  -20.8879    3.4270  -14.3763 C   0  0  0  0  0  0  0  0  0  0  0  0
  -21.7609    2.3630  -14.3407 C   0  0  0  0  0  0  0  0  0  0  0  0
  -21.0554    1.2301  -14.6562 N   0  0  0  0  0  0  0  0  0  0  0  0
  -18.3514    3.5190  -14.9592 C   0  0  0  0  0  0  0  0  0  0  0  0
  -21.6005   -0.1216  -14.7039 C   0  0  0  0  0  0  0  0  0  0  0  0
  -22.7627   -0.3721  -13.7680 C   0  0  0  0  0  0  0  0  0  0  0  0
  -22.6950   -0.2481  -12.3711 C   0  0  0  0  0  0  0  0  0  0  0  0
  -23.8066   -0.5333  -11.5739 C   0  0  0  0  0  0  0  0  0  0  0  0
  -25.0012   -0.9437  -12.1592 C   0  0  0  0  0  0  0  0  0  0  0  0
  -25.0921   -1.0542  -13.5437 C   0  0  0  0  0  0  0  0  0  0  0  0
  -23.9834   -0.7672  -14.3410 C   0  0  0  0  0  0  0  0  0  0  0  0
 13 14  1  0  0  0
 14 15  1  0  0  0
 14 18  2  0  0  0
 15 16  2  0  0  0
 16 20  1  0  0  0
 16 17  1  0  0  0
 20 21  2  0  0  0
 20 22  1  0  0  0
 22 23  1  0  0  0
 22 27  1  0  0  0
 23 24  1  0  0  0
 24 25  1  0  0  0
 25 26  1  0  0  0
 26 27  1  0  0  0
 17 18  1  0  0  0
 17 19  1  0  0  0
 18  1  1  0  0  0
  1  2  2  0  0  0
  2  3  1  0  0  0
  2 11  1  0  0  0
  3  4  2  0  0  0
  3  5  1  0  0  0
  5  6  1  0  0  0
  5 12  1  0  0  0
  6  7  1  0  0  0
  6 11  2  0  0  0
  7  8  2  0  0  0
  8  9  1  0  0  0
  9 10  2  0  0  0
 10 28  1  0  0  0
 10 11  1  0  0  0
 28 30  1  0  0  0
 28 29  1  0  0  0
 30 31  1  0  0  0
 30 38  2  0  0  0
 31 32  2  0  0  0
 32 33  1  0  0  0
 33 34  2  0  0  0
 33 37  1  0  0  0
 34 35  1  0  0  0
 34 38  1  0  0  0
 35 36  2  0  0  0
 36 37  1  0  0  0
 37 39  1  0  0  0
 39 40  1  0  0  0
 40 41  1  0  0  0
 40 45  2  0  0  0
 41 42  2  0  0  0
 42 43  1  0  0  0
 43 44  2  0  0  0
 44 45  1  0  0  0
M  END
> <minimizedAffinity>
-11.20496

$$$$
