CHEMBL2023476


 32 35  0  0  0  0  0  0  0  0999 V2000
  -30.2401   -6.6205   -5.3337 C   0  0  0  0  0  0  0  0  0  0  0  0
  -29.0333   -7.0770   -4.8143 C   0  0  0  0  0  0  0  0  0  0  0  0
  -28.3506   -8.1058   -5.4735 C   0  0  0  0  0  0  0  0  0  0  0  0
  -28.8923   -8.7326   -6.6153 C   0  0  0  0  0  0  0  0  0  0  0  0
  -30.2150   -8.4227   -6.9727 C   0  0  0  0  0  0  0  0  0  0  0  0
  -30.8645   -7.3478   -6.3491 C   0  0  0  0  0  0  0  0  0  0  0  0
  -30.9347   -8.9926   -7.9901 O   0  0  0  0  0  0  0  0  0  0  0  0
  -32.3186   -9.2454   -7.7535 C   0  0  0  0  0  0  0  0  0  0  0  0
  -30.8724   -5.4654   -4.9384 O   0  0  0  0  0  0  0  0  0  0  0  0
  -27.9093   -2.3105   -7.9225 C   0  0  0  0  0  0  0  0  0  0  0  0
  -28.5802   -3.4735   -8.2533 C   0  0  0  0  0  0  0  0  0  0  0  0
  -29.4166   -4.0751   -7.3156 C   0  0  0  0  0  0  0  0  0  0  0  0
  -29.5133   -3.6086   -5.9817 C   0  0  0  0  0  0  0  0  0  0  0  0
  -30.2165   -4.2431   -4.9186 C   0  0  0  0  0  0  0  0  0  0  0  0
  -30.3403   -3.5896   -3.6923 C   0  0  0  0  0  0  0  0  0  0  0  0
  -29.7143   -2.3720   -3.5278 C   0  0  0  0  0  0  0  0  0  0  0  0
  -28.9652   -1.7883   -4.4795 N   0  0  0  0  0  0  0  0  0  0  0  0
  -28.8555   -2.3959   -5.6732 C   0  0  0  0  0  0  0  0  0  0  0  0
  -28.0655   -1.7815   -6.6411 C   0  0  0  0  0  0  0  0  0  0  0  0
  -27.4642   -1.6499  -10.1373 C   0  0  0  0  0  0  0  0  0  0  0  0
  -27.0822   -1.6214   -8.7654 O   0  0  0  0  0  0  0  0  0  0  0  0
  -28.0507   -9.6922   -7.4265 C   0  0  0  0  0  0  0  0  0  0  0  0
  -26.9300  -10.3785   -6.6756 C   0  0  0  0  0  0  0  0  0  0  0  0
  -27.1901  -11.3036   -5.9107 O   0  0  0  0  0  0  0  0  0  0  0  0
  -25.6889   -9.8413   -6.9484 N   0  0  0  0  0  0  0  0  0  0  0  0
  -25.5931   -8.9595   -7.4412 H   0  0  0  0  0  0  0  0  0  0  0  0
  -24.5652  -10.3630   -6.3717 C   0  0  0  0  0  0  0  0  0  0  0  0
  -23.7559  -11.2641   -6.8596 N   0  0  0  0  0  0  0  0  0  0  0  0
  -22.8548  -11.6413   -5.8928 C   0  0  0  0  0  0  0  0  0  0  0  0
  -22.9861  -11.0018   -4.6774 C   0  0  0  0  0  0  0  0  0  0  0  0
  -22.2656  -11.2653   -3.4079 C   0  0  0  0  0  0  0  0  0  0  0  0
  -24.2021   -9.7917   -4.8043 S   0  0  0  0  0  0  0  0  0  0  0  0
 20 21  1  0  0  0
 21 10  1  0  0  0
 10 11  1  0  0  0
 10 19  2  0  0  0
 11 12  2  0  0  0
 12 13  1  0  0  0
 13 14  1  0  0  0
 13 18  2  0  0  0
 14  9  1  0  0  0
 14 15  2  0  0  0
  9  1  1  0  0  0
  1  2  1  0  0  0
  1  6  2  0  0  0
  2  3  2  0  0  0
  3  4  1  0  0  0
  4 22  1  0  0  0
  4  5  2  0  0  0
 22 23  1  0  0  0
 23 24  2  0  0  0
 23 25  1  0  0  0
 25 27  1  0  0  0
 25 26  1  0  0  0
 27 28  2  0  0  0
 27 32  1  0  0  0
 28 29  1  0  0  0
 29 30  2  0  0  0
 30 31  1  0  0  0
 30 32  1  0  0  0
  5  7  1  0  0  0
  5  6  1  0  0  0
  7  8  1  0  0  0
 15 16  1  0  0  0
 16 17  2  0  0  0
 17 18  1  0  0  0
 18 19  1  0  0  0
M  END
> <minimizedAffinity>
-8.58462

$$$$
