CHEMBL327720


 27 30  0  0  0  0  0  0  0  0999 V2000
  -24.6415   -1.3087  -11.9418 N   0  0  0  0  0  0  0  0  0  0  0  0
  -25.0407   -1.3812  -10.6299 C   0  0  0  0  0  0  0  0  0  0  0  0
  -26.3860   -1.6918  -10.5925 C   0  0  0  0  0  0  0  0  0  0  0  0
  -26.8293   -1.7695  -11.9546 C   0  0  0  0  0  0  0  0  0  0  0  0
  -28.0709   -2.0510  -12.5700 C   0  0  0  0  0  0  0  0  0  0  0  0
  -28.1812   -2.0525  -13.9624 C   0  0  0  0  0  0  0  0  0  0  0  0
  -27.0672   -1.8018  -14.7548 C   0  0  0  0  0  0  0  0  0  0  0  0
  -25.8213   -1.5426  -14.1790 C   0  0  0  0  0  0  0  0  0  0  0  0
  -25.7198   -1.5245  -12.7762 C   0  0  0  0  0  0  0  0  0  0  0  0
  -27.1194   -1.9031   -9.3535 C   0  0  0  0  0  0  0  0  0  0  0  0
  -27.3677   -0.8639   -8.4637 C   0  0  0  0  0  0  0  0  0  0  0  0
  -28.0955   -0.9819   -7.3269 N   0  0  0  0  0  0  0  0  0  0  0  0
  -28.5854   -2.2142   -7.0511 C   0  0  0  0  0  0  0  0  0  0  0  0
  -28.3715   -3.3423   -7.8398 C   0  0  0  0  0  0  0  0  0  0  0  0
  -27.6307   -3.1646   -9.0135 C   0  0  0  0  0  0  0  0  0  0  0  0
  -28.8933   -4.6602   -7.4806 C   0  0  0  0  0  0  0  0  0  0  0  0
  -28.4654   -5.9314   -7.9920 C   0  0  0  0  0  0  0  0  0  0  0  0
  -29.1367   -6.9912   -7.4228 C   0  0  0  0  0  0  0  0  0  0  0  0
  -30.2872   -6.4746   -6.2726 S   0  0  0  0  0  0  0  0  0  0  0  0
  -29.8814   -4.8306   -6.5270 C   0  0  0  0  0  0  0  0  0  0  0  0
  -23.2626   -1.0552  -12.3532 C   0  0  0  0  0  0  0  0  0  0  0  0
  -23.8832    1.3897  -12.6874 C   0  0  0  0  0  0  0  0  0  0  0  0
  -23.1076    0.1889  -13.2500 C   0  0  0  0  0  0  0  0  0  0  0  0
  -21.6220    0.5872  -13.4122 C   0  0  0  0  0  0  0  0  0  0  0  0
  -21.2707    1.2541  -14.6795 N   0  0  0  0  0  0  0  0  0  0  0  0
  -21.0658    2.6953  -14.5112 C   0  0  0  0  0  0  0  0  0  0  0  0
  -20.0504    0.6498  -15.2299 C   0  0  0  0  0  0  0  0  0  0  0  0
 22 23  1  0  0  0
 23 24  1  0  0  0
 23 21  1  0  0  0
 24 25  1  0  0  0
 25 26  1  0  0  0
 25 27  1  0  0  0
 21  1  1  0  0  0
  1  2  1  0  0  0
  1  9  1  0  0  0
  2  3  2  0  0  0
  3 10  1  0  0  0
  3  4  1  0  0  0
 10 11  1  0  0  0
 10 15  2  0  0  0
 11 12  2  0  0  0
 12 13  1  0  0  0
 13 14  2  0  0  0
 14 16  1  0  0  0
 14 15  1  0  0  0
 16 17  1  0  0  0
 16 20  2  0  0  0
 17 18  2  0  0  0
 18 19  1  0  0  0
 19 20  1  0  0  0
  4  5  1  0  0  0
  4  9  2  0  0  0
  5  6  2  0  0  0
  6  7  1  0  0  0
  7  8  2  0  0  0
  8  9  1  0  0  0
M  END
> <minimizedAffinity>
-7.95219

$$$$
