CHEMBL3935733


 34 37  0  0  0  0  0  0  0  0999 V2000
  -15.8898   -0.6284  -13.8450 C   0  0  0  0  0  0  0  0  0  0  0  0
  -14.6968    0.1066  -13.9949 C   0  0  0  0  0  0  0  0  0  0  0  0
  -14.6546    1.3573  -14.6317 C   0  0  0  0  0  0  0  0  0  0  0  0
  -15.8394    1.8888  -15.1608 C   0  0  0  0  0  0  0  0  0  0  0  0
  -16.2291    3.0627  -15.8808 C   0  0  0  0  0  0  0  0  0  0  0  0
  -17.5434    3.0615  -16.1479 N   0  0  0  0  0  0  0  0  0  0  0  0
  -17.9831    1.9138  -15.6163 N   0  0  0  0  0  0  0  0  0  0  0  0
  -17.0153    1.1603  -15.0168 C   0  0  0  0  0  0  0  0  0  0  0  0
  -17.0767   -0.0793  -14.3680 C   0  0  0  0  0  0  0  0  0  0  0  0
  -18.9696    1.6973  -15.7003 H   0  0  0  0  0  0  0  0  0  0  0  0
  -15.6101   -3.3069  -11.1370 C   0  0  0  0  0  0  0  0  0  0  0  0
  -15.5486   -2.0730  -11.7983 C   0  0  0  0  0  0  0  0  0  0  0  0
  -15.8926   -1.9469  -13.1625 C   0  0  0  0  0  0  0  0  0  0  0  0
  -16.2720   -3.1151  -13.8496 C   0  0  0  0  0  0  0  0  0  0  0  0
  -16.3127   -4.3535  -13.2123 C   0  0  0  0  0  0  0  0  0  0  0  0
  -15.9890   -4.4408  -11.8620 C   0  0  0  0  0  0  0  0  0  0  0  0
  -16.0330   -5.6561  -11.2326 O   0  0  0  0  0  0  0  0  0  0  0  0
  -16.2452   -6.3396  -11.8858 H   0  0  0  0  0  0  0  0  0  0  0  0
  -15.4149   -3.4811   -9.7935 O   0  0  0  0  0  0  0  0  0  0  0  0
  -14.0791   -3.4628   -9.3027 C   0  0  0  0  0  0  0  0  0  0  0  0
  -12.6414   -5.1605   -8.0637 C   0  0  0  0  0  0  0  0  0  0  0  0
  -13.6487   -4.8491   -8.8922 C   0  0  0  0  0  0  0  0  0  0  0  0
  -15.3357    4.1114  -16.2752 C   0  0  0  0  0  0  0  0  0  0  0  0
  -15.2295    4.5976  -17.5251 C   0  0  0  0  0  0  0  0  0  0  0  0
  -14.3181    5.6809  -17.9129 C   0  0  0  0  0  0  0  0  0  0  0  0
  -13.0319    5.7263  -17.3746 C   0  0  0  0  0  0  0  0  0  0  0  0
  -12.1378    6.7356  -17.7528 C   0  0  0  0  0  0  0  0  0  0  0  0
  -12.5058    7.7186  -18.6833 C   0  0  0  0  0  0  0  0  0  0  0  0
  -13.7946    7.6687  -19.2418 C   0  0  0  0  0  0  0  0  0  0  0  0
  -14.6760    6.6473  -18.8562 C   0  0  0  0  0  0  0  0  0  0  0  0
  -11.6692    8.7257  -19.0772 O   0  0  0  0  0  0  0  0  0  0  0  0
  -11.6697    9.9384  -18.3385 C   0  0  0  0  0  0  0  0  0  0  0  0
  -14.3686    8.5096  -20.1606 O   0  0  0  0  0  0  0  0  0  0  0  0
  -15.4644    9.3145  -19.7614 C   0  0  0  0  0  0  0  0  0  0  0  0
 21 22  2  0  0  0
 22 20  1  0  0  0
 20 19  1  0  0  0
 19 11  1  0  0  0
 11 12  1  0  0  0
 11 16  2  0  0  0
 12 13  2  0  0  0
 13  1  1  0  0  0
 13 14  1  0  0  0
  1  2  1  0  0  0
  1  9  2  0  0  0
  2  3  2  0  0  0
  3  4  1  0  0  0
  4  5  1  0  0  0
  4  8  2  0  0  0
  5 23  1  0  0  0
  5  6  2  0  0  0
 23 24  2  0  0  0
 24 25  1  0  0  0
 25 26  1  0  0  0
 25 30  2  0  0  0
 26 27  2  0  0  0
 27 28  1  0  0  0
 28 31  1  0  0  0
 28 29  2  0  0  0
 31 32  1  0  0  0
 29 33  1  0  0  0
 29 30  1  0  0  0
 33 34  1  0  0  0
  6  7  1  0  0  0
  7  8  1  0  0  0
  7 10  1  0  0  0
  8  9  1  0  0  0
 14 15  2  0  0  0
 15 16  1  0  0  0
 16 17  1  0  0  0
 17 18  1  0  0  0
M  END
> <minimizedAffinity>
-7.30570

$$$$
