CHEMBL231356


 31 34  0  0  0  0  0  0  0  0999 V2000
  -30.5727   -6.1931   -4.8014 C   0  0  0  0  0  0  0  0  0  0  0  0
  -31.1847   -6.3929   -6.0406 C   0  0  0  0  0  0  0  0  0  0  0  0
  -30.7826   -7.4504   -6.8584 C   0  0  0  0  0  0  0  0  0  0  0  0
  -29.7306   -8.2977   -6.4765 C   0  0  0  0  0  0  0  0  0  0  0  0
  -29.0333   -7.9942   -5.3021 C   0  0  0  0  0  0  0  0  0  0  0  0
  -29.4688   -6.9727   -4.4553 C   0  0  0  0  0  0  0  0  0  0  0  0
  -29.3893   -9.4810   -7.2783 C   0  0  0  0  0  0  0  0  0  0  0  0
  -29.9305  -10.7043   -6.9288 C   0  0  0  0  0  0  0  0  0  0  0  0
  -29.4140  -11.9786   -7.9178 S   0  0  0  0  0  0  0  0  0  0  0  0
  -28.4586  -10.9300   -8.8860 C   0  0  0  0  0  0  0  0  0  0  0  0
  -27.7034  -11.3283   -9.9951 C   0  0  0  0  0  0  0  0  0  0  0  0
  -27.0059  -10.3365  -10.6406 C   0  0  0  0  0  0  0  0  0  0  0  0
  -26.9966   -9.0539  -10.2527 N   0  0  0  0  0  0  0  0  0  0  0  0
  -27.7073   -8.6633   -9.1709 C   0  0  0  0  0  0  0  0  0  0  0  0
  -27.5476   -7.3160   -8.8668 N   0  0  0  0  0  0  0  0  0  0  0  0
  -28.5002   -9.5984   -8.4448 C   0  0  0  0  0  0  0  0  0  0  0  0
  -26.7926   -6.9454   -9.4341 H   0  0  0  0  0  0  0  0  0  0  0  0
  -27.4654   -7.1338   -7.8754 H   0  0  0  0  0  0  0  0  0  0  0  0
  -29.7653   -3.4754   -4.8321 N   0  0  0  0  0  0  0  0  0  0  0  0
  -30.5931   -3.8931   -3.7971 C   0  0  0  0  0  0  0  0  0  0  0  0
  -30.9544   -3.1621   -2.8728 O   0  0  0  0  0  0  0  0  0  0  0  0
  -31.0632   -5.2112   -3.9008 N   0  0  0  0  0  0  0  0  0  0  0  0
  -32.0600   -5.6749   -2.9358 C   0  0  0  0  0  0  0  0  0  0  0  0
  -29.5902   -4.1465   -5.5642 H   0  0  0  0  0  0  0  0  0  0  0  0
  -30.3271    1.3087   -5.9102 C   0  0  0  0  0  0  0  0  0  0  0  0
  -29.4381    0.1595   -5.5300 C   0  0  0  0  0  0  0  0  0  0  0  0
  -28.0667    0.3550   -5.3603 C   0  0  0  0  0  0  0  0  0  0  0  0
  -27.2446   -0.7157   -5.0191 C   0  0  0  0  0  0  0  0  0  0  0  0
  -27.7836   -1.9938   -4.8484 C   0  0  0  0  0  0  0  0  0  0  0  0
  -29.1507   -2.2157   -5.0049 C   0  0  0  0  0  0  0  0  0  0  0  0
  -29.9759   -1.1279   -5.3427 C   0  0  0  0  0  0  0  0  0  0  0  0
 25 26  1  0  0  0
 26 27  1  0  0  0
 26 31  2  0  0  0
 27 28  2  0  0  0
 28 29  1  0  0  0
 29 30  2  0  0  0
 30 19  1  0  0  0
 30 31  1  0  0  0
 19 20  1  0  0  0
 19 24  1  0  0  0
 20 21  2  0  0  0
 20 22  1  0  0  0
 22 23  1  0  0  0
 22  1  1  0  0  0
  1  2  1  0  0  0
  1  6  2  0  0  0
  2  3  2  0  0  0
  3  4  1  0  0  0
  4  7  1  0  0  0
  4  5  2  0  0  0
  7  8  2  0  0  0
  7 16  1  0  0  0
  8  9  1  0  0  0
  9 10  1  0  0  0
 10 11  1  0  0  0
 10 16  2  0  0  0
 11 12  2  0  0  0
 12 13  1  0  0  0
 13 14  2  0  0  0
 14 15  1  0  0  0
 14 16  1  0  0  0
 15 17  1  0  0  0
 15 18  1  0  0  0
  5  6  1  0  0  0
M  END
> <minimizedAffinity>
-9.70840

$$$$
