CHEMBL3925254


 36 40  0  0  0  0  0  0  0  0999 V2000
  -28.8019   -8.5883   -5.2542 C   0  0  0  0  0  0  0  0  0  0  0  0
  -29.7256   -7.8531   -5.9506 C   0  0  0  0  0  0  0  0  0  0  0  0
  -29.6579   -6.5250   -5.9059 C   0  0  0  0  0  0  0  0  0  0  0  0
  -28.6435   -5.9031   -5.2472 C   0  0  0  0  0  0  0  0  0  0  0  0
  -28.4842   -4.8400   -5.9989 N   0  0  0  0  0  0  0  0  0  0  0  0
  -29.2892   -3.8542   -5.8472 C   0  0  0  0  0  0  0  0  0  0  0  0
  -28.5582   -3.1031   -5.1248 C   0  0  0  0  0  0  0  0  0  0  0  0
  -27.5566   -4.2005   -4.2811 N   0  0  0  0  0  0  0  0  0  0  0  0
  -27.6279   -5.9850   -4.4179 C   0  0  0  0  0  0  0  0  0  0  0  0
  -27.7260   -7.7308   -4.5744 C   0  0  0  0  0  0  0  0  0  0  0  0
  -29.1875   -1.5219   -5.8700 C   0  0  0  0  0  0  0  0  0  0  0  0
  -28.1964   -0.2797   -6.3326 C   0  0  0  0  0  0  0  0  0  0  0  0
  -28.6112    1.0070   -6.5399 N   0  0  0  0  0  0  0  0  0  0  0  0
  -29.8902    1.0042   -6.1092 N   0  0  0  0  0  0  0  0  0  0  0  0
  -30.1687   -0.4135   -5.5631 C   0  0  0  0  0  0  0  0  0  0  0  0
  -30.7794    2.2723   -6.1955 C   0  0  0  0  0  0  0  0  0  0  0  0
  -31.8987    2.1419   -7.2455 C   0  0  0  0  0  0  0  0  0  0  0  0
  -32.5213    1.0903   -7.3770 O   0  0  0  0  0  0  0  0  0  0  0  0
  -32.2719    3.1729   -8.0904 N   0  0  0  0  0  0  0  0  0  0  0  0
  -31.6660    4.4838   -8.0946 C   0  0  0  0  0  0  0  0  0  0  0  0
  -33.3618    2.9102   -9.0508 C   0  0  0  0  0  0  0  0  0  0  0  0
  -29.0082  -10.0360   -5.3257 N   0  0  0  0  0  0  0  0  0  0  0  0
  -31.5841  -11.7979   -7.5839 C   0  0  0  0  0  0  0  0  0  0  0  0
  -30.8416  -11.8698   -8.7113 C   0  0  0  0  0  0  0  0  0  0  0  0
  -29.5159  -11.4407   -8.7568 C   0  0  0  0  0  0  0  0  0  0  0  0
  -28.9034  -10.9370   -7.6130 C   0  0  0  0  0  0  0  0  0  0  0  0
  -29.6384  -10.7367   -6.4424 C   0  0  0  0  0  0  0  0  0  0  0  0
  -30.9469  -11.3208   -6.4802 C   0  0  0  0  0  0  0  0  0  0  0  0
  -33.5355  -11.3427   -6.3870 C   0  0  0  0  0  0  0  0  0  0  0  0
  -32.9176  -12.0385   -7.4515 O   0  0  0  0  0  0  0  0  0  0  0  0
  -28.7812  -11.4401   -9.9098 O   0  0  0  0  0  0  0  0  0  0  0  0
  -29.0480  -10.3407  -10.7812 C   0  0  0  0  0  0  0  0  0  0  0  0
  -28.9228  -10.6925   -3.9633 C   0  0  0  0  0  0  0  0  0  0  0  0
  -27.7140  -11.5051   -3.8210 C   0  0  0  0  0  0  0  0  0  0  0  0
  -26.3778  -11.0916   -3.1661 C   0  0  0  0  0  0  0  0  0  0  0  0
  -26.4257  -11.6548   -4.5777 C   0  0  0  0  0  0  0  0  0  0  0  0
 29 30  1  0  0  0
 30 23  1  0  0  0
 23 24  1  0  0  0
 23 28  2  0  0  0
 24 25  2  0  0  0
 25 31  1  0  0  0
 25 26  1  0  0  0
 31 32  1  0  0  0
 26 27  2  0  0  0
 27 22  1  0  0  0
 27 28  1  0  0  0
 22 33  1  0  0  0
 22  1  1  0  0  0
 33 34  1  0  0  0
 34 35  1  0  0  0
 34 36  1  0  0  0
 35 36  1  0  0  0
  1  2  1  0  0  0
  1 10  2  0  0  0
  2  3  2  0  0  0
  3  4  1  0  0  0
  4  5  1  0  0  0
  4  9  2  0  0  0
  5  6  2  0  0  0
  6  7  1  0  0  0
  7 11  1  0  0  0
  7  8  2  0  0  0
 11 12  1  0  0  0
 11 15  2  0  0  0
 12 13  2  0  0  0
 13 14  1  0  0  0
 14 16  1  0  0  0
 14 15  1  0  0  0
 16 17  1  0  0  0
 17 18  2  0  0  0
 17 19  1  0  0  0
 19 20  1  0  0  0
 19 21  1  0  0  0
  8  9  1  0  0  0
  9 10  1  0  0  0
M  END
> <minimizedAffinity>
-5.51502

$$$$
