CHEMBL4465698


 32 36  0  0  0  0  0  0  0  0999 V2000
  -16.1165    1.8143  -15.1218 C   0  0  0  0  0  0  0  0  0  0  0  0
  -15.1061    2.4350  -15.8271 C   0  0  0  0  0  0  0  0  0  0  0  0
  -15.6599    3.5021  -16.4906 N   0  0  0  0  0  0  0  0  0  0  0  0
  -16.9899    3.5785  -16.2801 N   0  0  0  0  0  0  0  0  0  0  0  0
  -17.2962    2.5435  -15.4796 C   0  0  0  0  0  0  0  0  0  0  0  0
  -18.6974    2.3051  -15.1019 C   0  0  0  0  0  0  0  0  0  0  0  0
  -19.2672    1.0239  -15.1770 C   0  0  0  0  0  0  0  0  0  0  0  0
  -20.5937    0.8058  -14.7968 C   0  0  0  0  0  0  0  0  0  0  0  0
  -21.3673    1.8754  -14.3686 C   0  0  0  0  0  0  0  0  0  0  0  0
  -22.6403    1.6668  -14.0085 F   0  0  0  0  0  0  0  0  0  0  0  0
  -20.8390    3.1590  -14.3135 C   0  0  0  0  0  0  0  0  0  0  0  0
  -19.5070    3.3738  -14.6806 C   0  0  0  0  0  0  0  0  0  0  0  0
  -14.9825    4.4396  -17.3157 C   0  0  0  0  0  0  0  0  0  0  0  0
  -15.4440    4.7140  -18.6119 C   0  0  0  0  0  0  0  0  0  0  0  0
  -14.7952    5.6626  -19.4010 C   0  0  0  0  0  0  0  0  0  0  0  0
  -13.6767    6.3300  -18.9098 C   0  0  0  0  0  0  0  0  0  0  0  0
  -13.1999    6.0487  -17.6296 C   0  0  0  0  0  0  0  0  0  0  0  0
  -13.8506    5.1078  -16.8290 C   0  0  0  0  0  0  0  0  0  0  0  0
  -16.3166    0.8349  -13.0184 O   0  0  0  0  0  0  0  0  0  0  0  0
  -15.9741    0.7046  -14.1885 C   0  0  0  0  0  0  0  0  0  0  0  0
  -15.3925   -0.4282  -14.7186 N   0  0  0  0  0  0  0  0  0  0  0  0
  -14.9961   -0.4487  -15.6426 H   0  0  0  0  0  0  0  0  0  0  0  0
  -15.2576   -1.5484  -13.9473 C   0  0  0  0  0  0  0  0  0  0  0  0
  -16.1761   -2.4260  -13.6568 N   0  0  0  0  0  0  0  0  0  0  0  0
  -15.6545   -3.3930  -12.8334 C   0  0  0  0  0  0  0  0  0  0  0  0
  -16.3645   -4.4973  -12.3274 C   0  0  0  0  0  0  0  0  0  0  0  0
  -15.7145   -5.4122  -11.4975 C   0  0  0  0  0  0  0  0  0  0  0  0
  -14.3788   -5.2187  -11.1587 C   0  0  0  0  0  0  0  0  0  0  0  0
  -13.5994   -6.3615  -10.1324 Cl  0  0  0  0  0  0  0  0  0  0  0  0
  -13.6496   -4.1256  -11.6407 C   0  0  0  0  0  0  0  0  0  0  0  0
  -14.3081   -3.2288  -12.4971 C   0  0  0  0  0  0  0  0  0  0  0  0
  -13.7040   -1.8256  -13.3100 S   0  0  0  0  0  0  0  0  0  0  0  0
 19 20  2  0  0  0
 20 21  1  0  0  0
 20  1  1  0  0  0
 21 23  1  0  0  0
 21 22  1  0  0  0
 23 24  2  0  0  0
 23 32  1  0  0  0
 24 25  1  0  0  0
 25 26  1  0  0  0
 25 31  2  0  0  0
 26 27  2  0  0  0
 27 28  1  0  0  0
 28 29  1  0  0  0
 28 30  2  0  0  0
 30 31  1  0  0  0
 31 32  1  0  0  0
  1  2  2  0  0  0
  1  5  1  0  0  0
  2  3  1  0  0  0
  3 13  1  0  0  0
  3  4  1  0  0  0
 13 14  1  0  0  0
 13 18  2  0  0  0
 14 15  2  0  0  0
 15 16  1  0  0  0
 16 17  2  0  0  0
 17 18  1  0  0  0
  4  5  2  0  0  0
  5  6  1  0  0  0
  6  7  1  0  0  0
  6 12  2  0  0  0
  7  8  2  0  0  0
  8  9  1  0  0  0
  9 10  1  0  0  0
  9 11  2  0  0  0
 11 12  1  0  0  0
M  END
> <minimizedAffinity>
-9.61211

$$$$
