CHEMBL4469330


 36 39  0  0  0  0  0  0  0  0999 V2000
  -23.5168   -0.5137  -12.9139 C   0  0  0  0  0  0  0  0  0  0  0  0
  -24.5430   -1.1465  -13.6333 C   0  0  0  0  0  0  0  0  0  0  0  0
  -25.7345   -1.5163  -13.0114 C   0  0  0  0  0  0  0  0  0  0  0  0
  -25.9120   -1.2497  -11.6617 C   0  0  0  0  0  0  0  0  0  0  0  0
  -24.8685   -0.6821  -10.9087 C   0  0  0  0  0  0  0  0  0  0  0  0
  -23.6659   -0.3304  -11.5323 C   0  0  0  0  0  0  0  0  0  0  0  0
  -22.0697    1.2215  -13.9508 C   0  0  0  0  0  0  0  0  0  0  0  0
  -22.8424    2.1695  -13.8576 O   0  0  0  0  0  0  0  0  0  0  0  0
  -22.3140   -0.0662  -13.5072 N   0  0  0  0  0  0  0  0  0  0  0  0
  -21.5717   -0.7474  -13.5766 H   0  0  0  0  0  0  0  0  0  0  0  0
  -18.2740    2.1468  -15.7418 C   0  0  0  0  0  0  0  0  0  0  0  0
  -18.6153    0.8089  -15.5323 C   0  0  0  0  0  0  0  0  0  0  0  0
  -19.8467    0.4751  -14.9485 C   0  0  0  0  0  0  0  0  0  0  0  0
  -20.7553    1.4810  -14.5964 C   0  0  0  0  0  0  0  0  0  0  0  0
  -20.4053    2.8206  -14.8087 C   0  0  0  0  0  0  0  0  0  0  0  0
  -19.1753    3.1476  -15.3747 C   0  0  0  0  0  0  0  0  0  0  0  0
  -16.6846    3.9095  -15.8836 C   0  0  0  0  0  0  0  0  0  0  0  0
  -17.1050    2.6103  -16.2735 O   0  0  0  0  0  0  0  0  0  0  0  0
  -27.2011   -1.6049  -11.0221 C   0  0  0  0  0  0  0  0  0  0  0  0
  -28.2544   -1.4481  -11.6260 O   0  0  0  0  0  0  0  0  0  0  0  0
  -27.0477   -2.1217   -9.7503 N   0  0  0  0  0  0  0  0  0  0  0  0
  -26.1237   -2.0762   -9.3221 H   0  0  0  0  0  0  0  0  0  0  0  0
  -27.8640   -3.1459   -9.3785 N   0  0  0  0  0  0  0  0  0  0  0  0
  -28.4374   -3.0153   -8.2267 C   0  0  0  0  0  0  0  0  0  0  0  0
  -28.4771   -1.7985   -7.2954 C   0  0  0  0  0  0  0  0  0  0  0  0
  -28.1941   -0.6626   -7.6072 O   0  0  0  0  0  0  0  0  0  0  0  0
  -28.7618   -2.3092   -6.0486 N   0  0  0  0  0  0  0  0  0  0  0  0
  -28.7445   -3.6997   -6.1015 C   0  0  0  0  0  0  0  0  0  0  0  0
  -28.4247   -4.5642   -5.0810 C   0  0  0  0  0  0  0  0  0  0  0  0
  -28.2426   -5.9138   -5.4203 C   0  0  0  0  0  0  0  0  0  0  0  0
  -28.4887   -6.3867   -6.7293 C   0  0  0  0  0  0  0  0  0  0  0  0
  -28.7777   -5.4909   -7.7546 C   0  0  0  0  0  0  0  0  0  0  0  0
  -28.8242   -4.1580   -7.4129 C   0  0  0  0  0  0  0  0  0  0  0  0
  -28.8452   -1.7395   -5.2199 H   0  0  0  0  0  0  0  0  0  0  0  0
  -28.3679   -7.6877   -7.1329 O   0  0  0  0  0  0  0  0  0  0  0  0
  -28.9013   -7.9942   -8.4136 C   0  0  0  0  0  0  0  0  0  0  0  0
 17 18  1  0  0  0
 18 11  1  0  0  0
 11 12  1  0  0  0
 11 16  2  0  0  0
 12 13  2  0  0  0
 13 14  1  0  0  0
 14  7  1  0  0  0
 14 15  2  0  0  0
  7  8  2  0  0  0
  7  9  1  0  0  0
  9  1  1  0  0  0
  9 10  1  0  0  0
  1  2  1  0  0  0
  1  6  2  0  0  0
  2  3  2  0  0  0
  3  4  1  0  0  0
  4 19  1  0  0  0
  4  5  2  0  0  0
 19 20  2  0  0  0
 19 21  1  0  0  0
 21 23  1  0  0  0
 21 22  1  0  0  0
 23 24  2  0  0  0
 24 25  1  0  0  0
 24 33  1  0  0  0
 25 26  2  0  0  0
 25 27  1  0  0  0
 27 28  1  0  0  0
 27 34  1  0  0  0
 28 29  1  0  0  0
 28 33  2  0  0  0
 29 30  2  0  0  0
 30 31  1  0  0  0
 31 35  1  0  0  0
 31 32  2  0  0  0
 35 36  1  0  0  0
 32 33  1  0  0  0
  5  6  1  0  0  0
 15 16  1  0  0  0
M  END
> <minimizedAffinity>
-10.21279

$$$$
