CHEMBL302281


 29 32  0  0  0  0  0  0  0  0999 V2000
  -28.9682   -9.2838   -9.0735 N   0  0  0  0  0  0  0  0  0  0  0  0
  -28.6904   -8.0687   -8.4921 C   0  0  0  0  0  0  0  0  0  0  0  0
  -29.7440   -7.6967   -7.6720 C   0  0  0  0  0  0  0  0  0  0  0  0
  -30.7117   -8.7563   -7.7393 C   0  0  0  0  0  0  0  0  0  0  0  0
  -31.9935   -9.0261   -7.2160 C   0  0  0  0  0  0  0  0  0  0  0  0
  -32.7367   -8.1568   -6.4258 N   0  0  0  0  0  0  0  0  0  0  0  0
  -32.5860  -10.2034   -7.5008 N   0  0  0  0  0  0  0  0  0  0  0  0
  -31.9401  -11.0634   -8.2962 C   0  0  0  0  0  0  0  0  0  0  0  0
  -30.7522  -10.9062   -8.8883 N   0  0  0  0  0  0  0  0  0  0  0  0
  -30.1792   -9.7315   -8.5814 C   0  0  0  0  0  0  0  0  0  0  0  0
  -32.6157   -7.1836   -6.6742 H   0  0  0  0  0  0  0  0  0  0  0  0
  -33.6969   -8.4763   -6.3804 H   0  0  0  0  0  0  0  0  0  0  0  0
  -29.7494   -6.4216   -6.9598 C   0  0  0  0  0  0  0  0  0  0  0  0
  -29.8464   -5.2126   -7.6631 C   0  0  0  0  0  0  0  0  0  0  0  0
  -29.9429   -3.9971   -6.9852 C   0  0  0  0  0  0  0  0  0  0  0  0
  -30.0436   -3.9792   -5.5930 C   0  0  0  0  0  0  0  0  0  0  0  0
  -29.8635   -5.1631   -4.8821 C   0  0  0  0  0  0  0  0  0  0  0  0
  -29.6823   -6.3703   -5.5628 C   0  0  0  0  0  0  0  0  0  0  0  0
  -30.2815   -2.8497   -4.8442 O   0  0  0  0  0  0  0  0  0  0  0  0
  -29.4471   -1.7625   -4.9820 C   0  0  0  0  0  0  0  0  0  0  0  0
  -28.0635   -1.7997   -4.7699 C   0  0  0  0  0  0  0  0  0  0  0  0
  -27.3168   -0.6236   -4.8339 C   0  0  0  0  0  0  0  0  0  0  0  0
  -27.9346    0.5749   -5.1882 C   0  0  0  0  0  0  0  0  0  0  0  0
  -29.2963    0.5946   -5.4916 C   0  0  0  0  0  0  0  0  0  0  0  0
  -30.0525   -0.5731   -5.3892 C   0  0  0  0  0  0  0  0  0  0  0  0
  -26.9205   -9.1272  -10.5287 C   0  0  0  0  0  0  0  0  0  0  0  0
  -28.1242   -9.9871  -10.0661 C   0  0  0  0  0  0  0  0  0  0  0  0
  -28.9398  -10.3166  -11.3363 C   0  0  0  0  0  0  0  0  0  0  0  0
  -27.5501  -11.2814   -9.4595 C   0  0  0  0  0  0  0  0  0  0  0  0
 26 27  1  0  0  0
 27 28  1  0  0  0
 27 29  1  0  0  0
 27  1  1  0  0  0
  1  2  1  0  0  0
  1 10  1  0  0  0
  2  3  2  0  0  0
  3 13  1  0  0  0
  3  4  1  0  0  0
 13 14  1  0  0  0
 13 18  2  0  0  0
 14 15  2  0  0  0
 15 16  1  0  0  0
 16 19  1  0  0  0
 16 17  2  0  0  0
 19 20  1  0  0  0
 20 21  1  0  0  0
 20 25  2  0  0  0
 21 22  2  0  0  0
 22 23  1  0  0  0
 23 24  2  0  0  0
 24 25  1  0  0  0
 17 18  1  0  0  0
  4  5  1  0  0  0
  4 10  2  0  0  0
  5  6  1  0  0  0
  5  7  2  0  0  0
  6 11  1  0  0  0
  6 12  1  0  0  0
  7  8  1  0  0  0
  8  9  2  0  0  0
  9 10  1  0  0  0
M  END
> <minimizedAffinity>
-9.66401

$$$$
