CHEMBL412278


 33 36  0  0  0  0  0  0  0  0999 V2000
  -26.3723  -10.4401   -7.8299 C   0  0  0  0  0  0  0  0  0  0  0  0
  -26.1931  -10.9126   -9.1425 C   0  0  0  0  0  0  0  0  0  0  0  0
  -27.0521  -10.5245  -10.1598 C   0  0  0  0  0  0  0  0  0  0  0  0
  -28.1027   -9.6453   -9.8936 C   0  0  0  0  0  0  0  0  0  0  0  0
  -28.3198   -9.1337   -8.5986 C   0  0  0  0  0  0  0  0  0  0  0  0
  -29.3892   -8.2425   -8.3509 C   0  0  0  0  0  0  0  0  0  0  0  0
  -29.6433   -7.7445   -7.0692 C   0  0  0  0  0  0  0  0  0  0  0  0
  -28.7896   -8.1124   -6.0340 C   0  0  0  0  0  0  0  0  0  0  0  0
  -27.7349   -9.0000   -6.2641 C   0  0  0  0  0  0  0  0  0  0  0  0
  -27.4557   -9.5343   -7.5453 C   0  0  0  0  0  0  0  0  0  0  0  0
  -24.3336  -10.0517   -6.5265 N   0  0  0  0  0  0  0  0  0  0  0  0
  -25.4200  -10.8764   -6.7672 C   0  0  0  0  0  0  0  0  0  0  0  0
  -25.5880  -11.9153   -6.1397 O   0  0  0  0  0  0  0  0  0  0  0  0
  -24.2678   -9.1342   -6.9431 H   0  0  0  0  0  0  0  0  0  0  0  0
  -23.3547  -10.3988   -5.5091 C   0  0  0  0  0  0  0  0  0  0  0  0
  -22.2143  -11.2532   -6.0620 C   0  0  0  0  0  0  0  0  0  0  0  0
  -20.7702   -9.9072   -7.3524 C   0  0  0  0  0  0  0  0  0  0  0  0
  -21.8764  -10.8000   -7.3767 O   0  0  0  0  0  0  0  0  0  0  0  0
  -30.6870   -6.8491   -6.9204 O   0  0  0  0  0  0  0  0  0  0  0  0
  -30.6251   -5.9153   -5.8818 C   0  0  0  0  0  0  0  0  0  0  0  0
  -31.3027   -6.1834   -4.7510 N   0  0  0  0  0  0  0  0  0  0  0  0
  -31.1713   -5.2881   -3.7724 C   0  0  0  0  0  0  0  0  0  0  0  0
  -30.4616   -4.1523   -3.8311 N   0  0  0  0  0  0  0  0  0  0  0  0
  -29.8266   -3.8827   -4.9818 C   0  0  0  0  0  0  0  0  0  0  0  0
  -29.0546   -2.7261   -5.0870 C   0  0  0  0  0  0  0  0  0  0  0  0
  -28.3220   -2.3645   -6.2487 C   0  0  0  0  0  0  0  0  0  0  0  0
  -28.4155   -3.1887   -7.3653 C   0  0  0  0  0  0  0  0  0  0  0  0
  -29.1974   -4.3650   -7.2579 C   0  0  0  0  0  0  0  0  0  0  0  0
  -29.8888   -4.7336   -6.0809 C   0  0  0  0  0  0  0  0  0  0  0  0
  -27.4754   -1.3216   -5.9921 O   0  0  0  0  0  0  0  0  0  0  0  0
  -27.8314   -0.3109   -5.0654 C   0  0  0  0  0  0  0  0  0  0  0  0
  -27.8576   -3.1685   -8.6062 O   0  0  0  0  0  0  0  0  0  0  0  0
  -27.6252   -1.9990   -9.3518 C   0  0  0  0  0  0  0  0  0  0  0  0
 17 18  1  0  0  0
 18 16  1  0  0  0
 16 15  1  0  0  0
 15 11  1  0  0  0
 11 12  1  0  0  0
 11 14  1  0  0  0
 12 13  2  0  0  0
 12  1  1  0  0  0
  1  2  1  0  0  0
  1 10  2  0  0  0
  2  3  2  0  0  0
  3  4  1  0  0  0
  4  5  2  0  0  0
  5  6  1  0  0  0
  5 10  1  0  0  0
  6  7  2  0  0  0
  7 19  1  0  0  0
  7  8  1  0  0  0
 19 20  1  0  0  0
 20 21  1  0  0  0
 20 29  2  0  0  0
 21 22  2  0  0  0
 22 23  1  0  0  0
 23 24  2  0  0  0
 24 25  1  0  0  0
 24 29  1  0  0  0
 25 26  2  0  0  0
 26 30  1  0  0  0
 26 27  1  0  0  0
 30 31  1  0  0  0
 27 32  1  0  0  0
 27 28  2  0  0  0
 32 33  1  0  0  0
 28 29  1  0  0  0
  8  9  2  0  0  0
  9 10  1  0  0  0
M  END
> <minimizedAffinity>
-8.08509

$$$$
