CHEMBL469043


 31 35  0  0  0  0  0  0  0  0999 V2000
  -29.7441   -8.4771   -5.8965 C   0  0  0  0  0  0  0  0  0  0  0  0
  -29.2188   -9.6020   -5.2320 C   0  0  0  0  0  0  0  0  0  0  0  0
  -28.0360   -9.4984   -4.5008 C   0  0  0  0  0  0  0  0  0  0  0  0
  -27.3819   -8.2836   -4.4224 C   0  0  0  0  0  0  0  0  0  0  0  0
  -27.9461   -7.1445   -4.9984 C   0  0  0  0  0  0  0  0  0  0  0  0
  -29.1478   -7.2000   -5.7161 C   0  0  0  0  0  0  0  0  0  0  0  0
  -31.8414   -8.0725   -6.9373 O   0  0  0  0  0  0  0  0  0  0  0  0
  -30.7879   -8.6953   -6.9558 C   0  0  0  0  0  0  0  0  0  0  0  0
  -30.4996   -9.5809   -8.0727 C   0  0  0  0  0  0  0  0  0  0  0  0
  -31.1623  -10.7714   -8.3160 C   0  0  0  0  0  0  0  0  0  0  0  0
  -30.5527  -11.3319   -9.4031 N   0  0  0  0  0  0  0  0  0  0  0  0
  -29.2667  -10.8499   -9.4493 C   0  0  0  0  0  0  0  0  0  0  0  0
  -28.0604  -11.4058   -9.8701 C   0  0  0  0  0  0  0  0  0  0  0  0
  -26.9483  -10.5578   -9.8588 C   0  0  0  0  0  0  0  0  0  0  0  0
  -27.0897   -9.1918   -9.5967 C   0  0  0  0  0  0  0  0  0  0  0  0
  -28.3017   -8.6659   -9.1495 C   0  0  0  0  0  0  0  0  0  0  0  0
  -29.3579   -9.5608   -8.9268 C   0  0  0  0  0  0  0  0  0  0  0  0
  -30.9424  -12.0401  -10.0153 H   0  0  0  0  0  0  0  0  0  0  0  0
  -29.7368   -6.0386   -6.2136 N   0  0  0  0  0  0  0  0  0  0  0  0
  -29.9552   -5.3534   -5.4940 H   0  0  0  0  0  0  0  0  0  0  0  0
  -29.3711   -5.4566   -7.4979 C   0  0  0  0  0  0  0  0  0  0  0  0
  -29.0325   -3.9880   -7.3290 C   0  0  0  0  0  0  0  0  0  0  0  0
  -28.2004   -3.3472   -8.2707 C   0  0  0  0  0  0  0  0  0  0  0  0
  -27.8235   -2.0237   -8.1016 C   0  0  0  0  0  0  0  0  0  0  0  0
  -28.2419   -1.2684   -7.0257 C   0  0  0  0  0  0  0  0  0  0  0  0
  -27.8472    0.0099   -6.9201 N   0  0  0  0  0  0  0  0  0  0  0  0
  -28.2777    0.7290   -5.8669 C   0  0  0  0  0  0  0  0  0  0  0  0
  -29.0958    0.2196   -4.8691 C   0  0  0  0  0  0  0  0  0  0  0  0
  -29.4909   -1.1062   -4.9731 C   0  0  0  0  0  0  0  0  0  0  0  0
  -29.0691   -1.8849   -6.0574 C   0  0  0  0  0  0  0  0  0  0  0  0
  -29.4598   -3.2502   -6.2188 C   0  0  0  0  0  0  0  0  0  0  0  0
  7  8  2  0  0  0
  8  1  1  0  0  0
  8  9  1  0  0  0
  1  2  1  0  0  0
  1  6  2  0  0  0
  2  3  2  0  0  0
  3  4  1  0  0  0
  4  5  2  0  0  0
  5  6  1  0  0  0
  6 19  1  0  0  0
 19 21  1  0  0  0
 19 20  1  0  0  0
 21 22  1  0  0  0
 22 23  1  0  0  0
 22 31  2  0  0  0
 23 24  2  0  0  0
 24 25  1  0  0  0
 25 26  1  0  0  0
 25 30  2  0  0  0
 26 27  2  0  0  0
 27 28  1  0  0  0
 28 29  2  0  0  0
 29 30  1  0  0  0
 30 31  1  0  0  0
  9 10  2  0  0  0
  9 17  1  0  0  0
 10 11  1  0  0  0
 11 12  1  0  0  0
 11 18  1  0  0  0
 12 13  1  0  0  0
 12 17  2  0  0  0
 13 14  2  0  0  0
 14 15  1  0  0  0
 15 16  2  0  0  0
 16 17  1  0  0  0
M  END
> <minimizedAffinity>
-8.77101

$$$$
