CHEMBL3690525


 37 40  0  0  0  0  0  0  0  0999 V2000
  -29.4966   -5.1476   -7.0002 C   0  0  0  0  0  0  0  0  0  0  0  0
  -28.4315   -5.7772   -7.7965 C   0  0  0  0  0  0  0  0  0  0  0  0
  -28.5618   -7.0410   -8.2311 C   0  0  0  0  0  0  0  0  0  0  0  0
  -29.7029   -7.7784   -7.9031 N   0  0  0  0  0  0  0  0  0  0  0  0
  -30.0409   -9.1154   -8.1415 C   0  0  0  0  0  0  0  0  0  0  0  0
  -31.3333   -9.2155   -7.6450 C   0  0  0  0  0  0  0  0  0  0  0  0
  -31.7645   -8.0503   -7.0703 N   0  0  0  0  0  0  0  0  0  0  0  0
  -30.7627   -7.2091   -7.1999 C   0  0  0  0  0  0  0  0  0  0  0  0
  -30.6185   -5.8648   -6.7428 C   0  0  0  0  0  0  0  0  0  0  0  0
  -29.0087   -1.2464   -5.4796 C   0  0  0  0  0  0  0  0  0  0  0  0
  -29.7493   -2.2135   -4.8310 C   0  0  0  0  0  0  0  0  0  0  0  0
  -29.9489   -3.4642   -5.2939 N   0  0  0  0  0  0  0  0  0  0  0  0
  -29.3711   -3.7578   -6.4699 C   0  0  0  0  0  0  0  0  0  0  0  0
  -28.6341   -2.8881   -7.1904 N   0  0  0  0  0  0  0  0  0  0  0  0
  -28.4521   -1.6553   -6.6824 C   0  0  0  0  0  0  0  0  0  0  0  0
  -27.6287   -0.8391   -7.4613 N   0  0  0  0  0  0  0  0  0  0  0  0
  -27.3268   -1.3949   -8.2581 H   0  0  0  0  0  0  0  0  0  0  0  0
  -26.8317   -0.5200   -6.9199 H   0  0  0  0  0  0  0  0  0  0  0  0
  -29.6090    1.0433   -5.3202 C   0  0  0  0  0  0  0  0  0  0  0  0
  -28.8634   -0.0620   -4.8225 O   0  0  0  0  0  0  0  0  0  0  0  0
  -29.1757  -10.1590   -8.7174 C   0  0  0  0  0  0  0  0  0  0  0  0
  -29.2942  -10.4929  -10.0716 C   0  0  0  0  0  0  0  0  0  0  0  0
  -28.5211  -11.5031  -10.6316 C   0  0  0  0  0  0  0  0  0  0  0  0
  -27.5540  -12.1394   -9.8654 C   0  0  0  0  0  0  0  0  0  0  0  0
  -27.3263  -11.7737   -8.5376 C   0  0  0  0  0  0  0  0  0  0  0  0
  -28.1665  -10.7972   -7.9603 C   0  0  0  0  0  0  0  0  0  0  0  0
  -26.2780  -12.3416   -7.7627 N   0  0  0  0  0  0  0  0  0  0  0  0
  -25.2229  -11.6498   -7.2052 C   0  0  0  0  0  0  0  0  0  0  0  0
  -25.0131  -10.4396   -7.2674 O   0  0  0  0  0  0  0  0  0  0  0  0
  -24.3140  -12.4631   -6.5652 N   0  0  0  0  0  0  0  0  0  0  0  0
  -26.3272  -13.3298   -7.5823 H   0  0  0  0  0  0  0  0  0  0  0  0
  -24.6784  -13.2943   -6.1224 H   0  0  0  0  0  0  0  0  0  0  0  0
  -23.1420  -11.8265   -5.9434 C   0  0  0  0  0  0  0  0  0  0  0  0
  -21.8907  -11.6838   -6.8256 C   0  0  0  0  0  0  0  0  0  0  0  0
  -21.6836  -10.4054   -7.2155 F   0  0  0  0  0  0  0  0  0  0  0  0
  -20.7911  -12.0602   -6.1238 F   0  0  0  0  0  0  0  0  0  0  0  0
  -21.9427  -12.4596   -7.9282 F   0  0  0  0  0  0  0  0  0  0  0  0
 19 20  1  0  0  0
 20 10  1  0  0  0
 10 11  1  0  0  0
 10 15  2  0  0  0
 11 12  2  0  0  0
 12 13  1  0  0  0
 13  1  1  0  0  0
 13 14  2  0  0  0
  1  2  1  0  0  0
  1  9  2  0  0  0
  2  3  2  0  0  0
  3  4  1  0  0  0
  4  5  1  0  0  0
  4  8  1  0  0  0
  5 21  1  0  0  0
  5  6  2  0  0  0
 21 22  1  0  0  0
 21 26  2  0  0  0
 22 23  2  0  0  0
 23 24  1  0  0  0
 24 25  2  0  0  0
 25 27  1  0  0  0
 25 26  1  0  0  0
 27 28  1  0  0  0
 27 31  1  0  0  0
 28 29  2  0  0  0
 28 30  1  0  0  0
 30 33  1  0  0  0
 30 32  1  0  0  0
 33 34  1  0  0  0
 34 35  1  0  0  0
 34 36  1  0  0  0
 34 37  1  0  0  0
  6  7  1  0  0  0
  7  8  2  0  0  0
  8  9  1  0  0  0
 14 15  1  0  0  0
 15 16  1  0  0  0
 16 17  1  0  0  0
 16 18  1  0  0  0
M  END
> <minimizedAffinity>
-8.41122

$$$$
