CHEMBL3915562


 25 28  0  0  0  0  0  0  0  0999 V2000
  -20.2707    2.3457  -14.4040 C   0  0  0  0  0  0  0  0  0  0  0  0
  -20.4782    3.6342  -14.7158 N   0  0  0  0  0  0  0  0  0  0  0  0
  -19.3399    4.0202  -15.3095 N   0  0  0  0  0  0  0  0  0  0  0  0
  -18.3973    3.0363  -15.4175 C   0  0  0  0  0  0  0  0  0  0  0  0
  -17.1070    3.0441  -15.9635 C   0  0  0  0  0  0  0  0  0  0  0  0
  -16.3782    1.8478  -15.9138 C   0  0  0  0  0  0  0  0  0  0  0  0
  -16.9307    0.7058  -15.3242 C   0  0  0  0  0  0  0  0  0  0  0  0
  -18.2258    0.7217  -14.7842 C   0  0  0  0  0  0  0  0  0  0  0  0
  -18.9748    1.9147  -14.8315 C   0  0  0  0  0  0  0  0  0  0  0  0
  -19.2660    4.9818  -15.6202 H   0  0  0  0  0  0  0  0  0  0  0  0
  -21.9210    0.5222  -14.2808 C   0  0  0  0  0  0  0  0  0  0  0  0
  -21.2273    1.5255  -13.7128 C   0  0  0  0  0  0  0  0  0  0  0  0
  -22.9347   -0.3074  -13.6105 C   0  0  0  0  0  0  0  0  0  0  0  0
  -24.0914   -0.7586  -14.2600 C   0  0  0  0  0  0  0  0  0  0  0  0
  -24.9927   -1.6046  -13.6062 C   0  0  0  0  0  0  0  0  0  0  0  0
  -24.7434   -2.0171  -12.2991 C   0  0  0  0  0  0  0  0  0  0  0  0
  -23.5938   -1.5831  -11.6440 C   0  0  0  0  0  0  0  0  0  0  0  0
  -22.6935   -0.7370  -12.2979 C   0  0  0  0  0  0  0  0  0  0  0  0
  -14.7147    1.7924  -16.5503 S   0  0  0  0  0  0  0  0  0  0  0  0
  -13.6747    2.2391  -15.1650 C   0  0  0  0  0  0  0  0  0  0  0  0
  -13.4946    1.4513  -14.0237 C   0  0  0  0  0  0  0  0  0  0  0  0
  -12.6702    1.8849  -12.9794 C   0  0  0  0  0  0  0  0  0  0  0  0
  -12.0201    3.1142  -13.0619 C   0  0  0  0  0  0  0  0  0  0  0  0
  -12.1952    3.9127  -14.1886 C   0  0  0  0  0  0  0  0  0  0  0  0
  -13.0170    3.4769  -15.2322 C   0  0  0  0  0  0  0  0  0  0  0  0
 11 12  2  0  0  0
 11 13  1  0  0  0
 12  1  1  0  0  0
  1  2  2  0  0  0
  1  9  1  0  0  0
  2  3  1  0  0  0
  3  4  1  0  0  0
  3 10  1  0  0  0
  4  5  1  0  0  0
  4  9  2  0  0  0
  5  6  2  0  0  0
  6 19  1  0  0  0
  6  7  1  0  0  0
 19 20  1  0  0  0
 20 21  1  0  0  0
 20 25  2  0  0  0
 21 22  2  0  0  0
 22 23  1  0  0  0
 23 24  2  0  0  0
 24 25  1  0  0  0
  7  8  2  0  0  0
  8  9  1  0  0  0
 13 14  1  0  0  0
 13 18  2  0  0  0
 14 15  2  0  0  0
 15 16  1  0  0  0
 16 17  2  0  0  0
 17 18  1  0  0  0
M  END
> <minimizedAffinity>
-9.93314

$$$$
