CHEMBL202384


 27 29  0  0  0  0  0  0  0  0999 V2000
  -15.2427   -0.8208  -13.9578 N   0  0  0  0  0  0  0  0  0  0  0  0
  -15.0008    0.5307  -13.7311 C   0  0  0  0  0  0  0  0  0  0  0  0
  -14.4025    0.9686  -12.7553 O   0  0  0  0  0  0  0  0  0  0  0  0
  -15.7473   -1.0523  -14.8023 H   0  0  0  0  0  0  0  0  0  0  0  0
  -13.9428   -4.0830  -11.5354 C   0  0  0  0  0  0  0  0  0  0  0  0
  -15.1371   -3.4014  -11.2663 C   0  0  0  0  0  0  0  0  0  0  0  0
  -15.5739   -2.3364  -12.0520 C   0  0  0  0  0  0  0  0  0  0  0  0
  -14.8409   -1.9041  -13.1451 C   0  0  0  0  0  0  0  0  0  0  0  0
  -13.6450   -2.5671  -13.4405 C   0  0  0  0  0  0  0  0  0  0  0  0
  -13.2023   -3.6434  -12.6487 C   0  0  0  0  0  0  0  0  0  0  0  0
  -14.0762   -6.6074  -11.1180 C   0  0  0  0  0  0  0  0  0  0  0  0
  -13.4793   -5.2551  -10.6536 C   0  0  0  0  0  0  0  0  0  0  0  0
  -13.9127   -5.0463   -9.1883 C   0  0  0  0  0  0  0  0  0  0  0  0
  -11.9433   -5.3865  -10.6959 C   0  0  0  0  0  0  0  0  0  0  0  0
  -15.5059    1.4327  -14.7602 C   0  0  0  0  0  0  0  0  0  0  0  0
  -14.4599    2.2585  -15.8480 S   0  0  0  0  0  0  0  0  0  0  0  0
  -15.8114    3.0302  -16.5485 C   0  0  0  0  0  0  0  0  0  0  0  0
  -16.9825    2.7081  -16.0536 N   0  0  0  0  0  0  0  0  0  0  0  0
  -16.8281    1.7821  -15.0269 C   0  0  0  0  0  0  0  0  0  0  0  0
  -18.0591    1.3254  -14.2852 C   0  0  0  0  0  0  0  0  0  0  0  0
  -19.1906    0.8189  -15.1874 C   0  0  0  0  0  0  0  0  0  0  0  0
  -20.5369    1.3234  -14.7208 C   0  0  0  0  0  0  0  0  0  0  0  0
  -20.8024    2.6939  -14.6546 C   0  0  0  0  0  0  0  0  0  0  0  0
  -22.0381    3.1116  -14.1819 C   0  0  0  0  0  0  0  0  0  0  0  0
  -23.0129    2.2701  -13.7768 N   0  0  0  0  0  0  0  0  0  0  0  0
  -22.7360    0.9508  -13.8468 C   0  0  0  0  0  0  0  0  0  0  0  0
  -21.5316    0.4352  -14.3031 C   0  0  0  0  0  0  0  0  0  0  0  0
 11 12  1  0  0  0
 12 13  1  0  0  0
 12 14  1  0  0  0
 12  5  1  0  0  0
  5  6  1  0  0  0
  5 10  2  0  0  0
  6  7  2  0  0  0
  7  8  1  0  0  0
  8  1  1  0  0  0
  8  9  2  0  0  0
  1  2  1  0  0  0
  1  4  1  0  0  0
  2  3  2  0  0  0
  2 15  1  0  0  0
 15 16  1  0  0  0
 15 19  2  0  0  0
 16 17  1  0  0  0
 17 18  2  0  0  0
 18 19  1  0  0  0
 19 20  1  0  0  0
 20 21  1  0  0  0
 21 22  1  0  0  0
 22 23  1  0  0  0
 22 27  2  0  0  0
 23 24  2  0  0  0
 24 25  1  0  0  0
 25 26  2  0  0  0
 26 27  1  0  0  0
  9 10  1  0  0  0
M  END
> <minimizedAffinity>
-8.15115

$$$$
