CHEMBL3985222


 34 38  0  0  0  0  0  0  0  0999 V2000
  -29.7975   -4.7112   -6.7494 N   0  0  0  0  0  0  0  0  0  0  0  0
  -28.8035   -3.8885   -7.4847 C   0  0  0  0  0  0  0  0  0  0  0  0
  -29.0033   -2.5747   -7.2167 C   0  0  0  0  0  0  0  0  0  0  0  0
  -28.6311   -1.6093   -8.0381 C   0  0  0  0  0  0  0  0  0  0  0  0
  -27.8904   -1.8797   -9.1223 C   0  0  0  0  0  0  0  0  0  0  0  0
  -27.9128   -0.8729   -9.9601 N   0  0  0  0  0  0  0  0  0  0  0  0
  -27.1785   -0.8296  -11.0263 C   0  0  0  0  0  0  0  0  0  0  0  0
  -26.1123   -1.6860  -11.1903 C   0  0  0  0  0  0  0  0  0  0  0  0
  -26.2347   -2.9386  -10.4641 N   0  0  0  0  0  0  0  0  0  0  0  0
  -27.2303   -3.0701   -9.4159 C   0  0  0  0  0  0  0  0  0  0  0  0
  -27.7623   -4.2132   -8.5637 C   0  0  0  0  0  0  0  0  0  0  0  0
  -25.0582   -0.8407  -12.0842 C   0  0  0  0  0  0  0  0  0  0  0  0
  -24.8940   -1.3311  -13.4212 C   0  0  0  0  0  0  0  0  0  0  0  0
  -23.9864   -0.6736  -14.1084 N   0  0  0  0  0  0  0  0  0  0  0  0
  -23.5235    0.2899  -13.3625 N   0  0  0  0  0  0  0  0  0  0  0  0
  -22.4715    1.1230  -13.9675 C   0  0  0  0  0  0  0  0  0  0  0  0
  -24.1629    0.2842  -12.1245 C   0  0  0  0  0  0  0  0  0  0  0  0
  -30.7367   -8.3232   -7.3163 C   0  0  0  0  0  0  0  0  0  0  0  0
  -29.6068   -8.9621   -6.7633 C   0  0  0  0  0  0  0  0  0  0  0  0
  -28.5880   -8.2196   -6.1612 C   0  0  0  0  0  0  0  0  0  0  0  0
  -28.7112   -6.8248   -6.1071 C   0  0  0  0  0  0  0  0  0  0  0  0
  -29.8224   -6.1495   -6.6577 C   0  0  0  0  0  0  0  0  0  0  0  0
  -30.8392   -6.9173   -7.2510 C   0  0  0  0  0  0  0  0  0  0  0  0
  -32.8559   -9.5569   -7.3672 C   0  0  0  0  0  0  0  0  0  0  0  0
  -31.7210   -9.0189   -7.9504 O   0  0  0  0  0  0  0  0  0  0  0  0
  -27.4929   -8.8690   -5.6747 O   0  0  0  0  0  0  0  0  0  0  0  0
  -27.0082   -8.7745   -4.3819 C   0  0  0  0  0  0  0  0  0  0  0  0
  -30.6472   -3.9777   -5.6958 C   0  0  0  0  0  0  0  0  0  0  0  0
  -30.8233   -4.6396   -4.2468 C   0  0  0  0  0  0  0  0  0  0  0  0
  -29.8854   -4.1311   -3.1806 N   0  0  0  0  0  0  0  0  0  0  0  0
  -30.2216   -2.7338   -2.8054 C   0  0  0  0  0  0  0  0  0  0  0  0
  -29.4945   -1.8581   -3.8198 C   0  0  0  0  0  0  0  0  0  0  0  0
  -28.1428   -2.5190   -3.8135 C   0  0  0  0  0  0  0  0  0  0  0  0
  -28.4728   -4.0070   -3.6296 C   0  0  0  0  0  0  0  0  0  0  0  0
 24 25  1  0  0  0
 25 18  1  0  0  0
 18 19  1  0  0  0
 18 23  2  0  0  0
 19 20  2  0  0  0
 20 26  1  0  0  0
 20 21  1  0  0  0
 26 27  1  0  0  0
 21 22  2  0  0  0
 22  1  1  0  0  0
 22 23  1  0  0  0
  1 28  1  0  0  0
  1  2  1  0  0  0
 28 29  1  0  0  0
 29 30  1  0  0  0
 30 31  1  0  0  0
 30 34  1  0  0  0
 31 32  1  0  0  0
 32 33  1  0  0  0
 33 34  1  0  0  0
  2  3  1  0  0  0
  2 11  2  0  0  0
  3  4  2  0  0  0
  4  5  1  0  0  0
  5  6  1  0  0  0
  5 10  2  0  0  0
  6  7  2  0  0  0
  7  8  1  0  0  0
  8 12  1  0  0  0
  8  9  2  0  0  0
 12 13  1  0  0  0
 12 17  2  0  0  0
 13 14  2  0  0  0
 14 15  1  0  0  0
 15 16  1  0  0  0
 15 17  1  0  0  0
  9 10  1  0  0  0
 10 11  1  0  0  0
M  END
> <minimizedAffinity>
-6.53455

$$$$
