CHEMBL3959522


 34 38  0  0  0  0  0  0  0  0999 V2000
  -23.5743   -1.5313  -11.7300 O   0  0  0  0  0  0  0  0  0  0  0  0
  -22.9681   -0.6290  -12.5864 C   0  0  0  0  0  0  0  0  0  0  0  0
  -22.5559   -1.0873  -13.8439 C   0  0  0  0  0  0  0  0  0  0  0  0
  -21.8503   -0.2447  -14.7331 C   0  0  0  0  0  0  0  0  0  0  0  0
  -21.6850    1.1086  -14.3748 C   0  0  0  0  0  0  0  0  0  0  0  0
  -21.1049    2.3292  -14.8765 C   0  0  0  0  0  0  0  0  0  0  0  0
  -22.0790    3.2525  -14.7273 N   0  0  0  0  0  0  0  0  0  0  0  0
  -22.5722    2.8978  -13.5251 N   0  0  0  0  0  0  0  0  0  0  0  0
  -22.4011    1.5559  -13.2659 C   0  0  0  0  0  0  0  0  0  0  0  0
  -22.9002    0.7299  -12.2671 C   0  0  0  0  0  0  0  0  0  0  0  0
  -23.1283    3.5605  -13.0065 H   0  0  0  0  0  0  0  0  0  0  0  0
  -19.7959    2.9046  -14.5520 C   0  0  0  0  0  0  0  0  0  0  0  0
  -18.9321    3.3783  -15.4731 C   0  0  0  0  0  0  0  0  0  0  0  0
  -17.5324    3.0451  -15.4143 C   0  0  0  0  0  0  0  0  0  0  0  0
  -16.8826    1.8611  -15.0833 C   0  0  0  0  0  0  0  0  0  0  0  0
  -15.4912    1.8601  -15.4065 C   0  0  0  0  0  0  0  0  0  0  0  0
  -15.0909    3.0614  -15.9394 C   0  0  0  0  0  0  0  0  0  0  0  0
  -16.3773    4.1816  -16.0299 S   0  0  0  0  0  0  0  0  0  0  0  0
  -27.0094   -1.5450  -10.4193 C   0  0  0  0  0  0  0  0  0  0  0  0
  -27.7379   -1.5798  -11.6118 C   0  0  0  0  0  0  0  0  0  0  0  0
  -27.0902   -1.6146  -12.8474 C   0  0  0  0  0  0  0  0  0  0  0  0
  -25.7010   -1.6069  -12.9070 C   0  0  0  0  0  0  0  0  0  0  0  0
  -24.9571   -1.5612  -11.7254 C   0  0  0  0  0  0  0  0  0  0  0  0
  -25.6091   -1.5004  -10.4857 C   0  0  0  0  0  0  0  0  0  0  0  0
  -27.6317   -3.8617   -8.6952 O   0  0  0  0  0  0  0  0  0  0  0  0
  -27.9024   -2.7024   -8.4001 C   0  0  0  0  0  0  0  0  0  0  0  0
  -27.6237   -1.5678   -9.1465 N   0  0  0  0  0  0  0  0  0  0  0  0
  -27.7418   -0.6723   -8.6886 H   0  0  0  0  0  0  0  0  0  0  0  0
  -28.5408   -2.4588   -7.0715 C   0  0  0  0  0  0  0  0  0  0  0  0
  -28.0485   -1.4019   -6.2879 C   0  0  0  0  0  0  0  0  0  0  0  0
  -28.6089   -1.1285   -5.0453 C   0  0  0  0  0  0  0  0  0  0  0  0
  -29.6306   -1.9496   -4.5528 C   0  0  0  0  0  0  0  0  0  0  0  0
  -30.1162   -3.0058   -5.3248 C   0  0  0  0  0  0  0  0  0  0  0  0
  -29.5678   -3.2711   -6.5826 C   0  0  0  0  0  0  0  0  0  0  0  0
 25 26  2  0  0  0
 26 27  1  0  0  0
 26 29  1  0  0  0
 27 19  1  0  0  0
 27 28  1  0  0  0
 19 20  1  0  0  0
 19 24  2  0  0  0
 20 21  2  0  0  0
 21 22  1  0  0  0
 22 23  2  0  0  0
 23  1  1  0  0  0
 23 24  1  0  0  0
  1  2  1  0  0  0
  2  3  1  0  0  0
  2 10  2  0  0  0
  3  4  2  0  0  0
  4  5  1  0  0  0
  5  6  1  0  0  0
  5  9  2  0  0  0
  6 12  1  0  0  0
  6  7  2  0  0  0
 12 13  2  0  0  0
 13 14  1  0  0  0
 14 15  2  0  0  0
 14 18  1  0  0  0
 15 16  1  0  0  0
 16 17  2  0  0  0
 17 18  1  0  0  0
  7  8  1  0  0  0
  8  9  1  0  0  0
  8 11  1  0  0  0
  9 10  1  0  0  0
 29 30  1  0  0  0
 29 34  2  0  0  0
 30 31  2  0  0  0
 31 32  1  0  0  0
 32 33  2  0  0  0
 33 34  1  0  0  0
M  END
> <minimizedAffinity>
-10.14165

$$$$
