CHEMBL3702602


 32 35  0  0  0  0  0  0  0  0999 V2000
  -28.0455   -2.5895   -8.1548 C   0  0  0  0  0  0  0  0  0  0  0  0
  -27.9942   -1.9248   -6.9313 C   0  0  0  0  0  0  0  0  0  0  0  0
  -28.4886   -2.5567   -5.7888 C   0  0  0  0  0  0  0  0  0  0  0  0
  -29.0491   -3.8344   -5.8765 C   0  0  0  0  0  0  0  0  0  0  0  0
  -29.1160   -4.5313   -7.0919 C   0  0  0  0  0  0  0  0  0  0  0  0
  -28.5895   -3.8918   -8.2165 C   0  0  0  0  0  0  0  0  0  0  0  0
  -29.6719   -5.8100   -7.1255 N   0  0  0  0  0  0  0  0  0  0  0  0
  -30.3138   -6.3516   -5.9184 C   0  0  0  0  0  0  0  0  0  0  0  0
  -31.4049   -7.3204   -6.3739 C   0  0  0  0  0  0  0  0  0  0  0  0
  -30.8748   -8.3156   -7.3724 C   0  0  0  0  0  0  0  0  0  0  0  0
  -31.6212   -9.4247   -7.5748 N   0  0  0  0  0  0  0  0  0  0  0  0
  -31.1716  -10.3046   -8.4727 C   0  0  0  0  0  0  0  0  0  0  0  0
  -31.9509  -11.4172   -8.7124 N   0  0  0  0  0  0  0  0  0  0  0  0
  -30.0570  -10.1587   -9.1935 N   0  0  0  0  0  0  0  0  0  0  0  0
  -29.3415   -9.0386   -8.9711 C   0  0  0  0  0  0  0  0  0  0  0  0
  -29.7117   -8.0565   -8.0783 C   0  0  0  0  0  0  0  0  0  0  0  0
  -28.8866   -6.8209   -7.8586 C   0  0  0  0  0  0  0  0  0  0  0  0
  -32.9090  -11.2032   -8.4713 H   0  0  0  0  0  0  0  0  0  0  0  0
  -31.7749  -11.7522   -9.6489 H   0  0  0  0  0  0  0  0  0  0  0  0
  -26.8583   -2.6836  -10.3295 N   0  0  0  0  0  0  0  0  0  0  0  0
  -27.6674   -1.9652   -9.4533 C   0  0  0  0  0  0  0  0  0  0  0  0
  -28.1357   -0.8531   -9.6747 O   0  0  0  0  0  0  0  0  0  0  0  0
  -26.7384   -3.6742  -10.1703 H   0  0  0  0  0  0  0  0  0  0  0  0
  -24.5342   -1.3390  -12.9328 C   0  0  0  0  0  0  0  0  0  0  0  0
  -25.3905   -1.3046  -14.0458 C   0  0  0  0  0  0  0  0  0  0  0  0
  -26.7286   -1.6542  -13.9242 C   0  0  0  0  0  0  0  0  0  0  0  0
  -27.2239   -2.0731  -12.6940 C   0  0  0  0  0  0  0  0  0  0  0  0
  -26.3929   -2.1709  -11.5741 C   0  0  0  0  0  0  0  0  0  0  0  0
  -25.0566   -1.7532  -11.6892 C   0  0  0  0  0  0  0  0  0  0  0  0
  -22.9632   -0.0625  -14.4148 C   0  0  0  0  0  0  0  0  0  0  0  0
  -23.0899   -0.9114  -13.1477 C   0  0  0  0  0  0  0  0  0  0  0  0
  -22.4433   -0.2027  -11.9568 C   0  0  0  0  0  0  0  0  0  0  0  0
 30 31  1  0  0  0
 31 32  1  0  0  0
 31 24  1  0  0  0
 24 25  1  0  0  0
 24 29  2  0  0  0
 25 26  2  0  0  0
 26 27  1  0  0  0
 27 28  2  0  0  0
 28 20  1  0  0  0
 28 29  1  0  0  0
 20 21  1  0  0  0
 20 23  1  0  0  0
 21 22  2  0  0  0
 21  1  1  0  0  0
  1  2  1  0  0  0
  1  6  2  0  0  0
  2  3  2  0  0  0
  3  4  1  0  0  0
  4  5  2  0  0  0
  5  7  1  0  0  0
  5  6  1  0  0  0
  7  8  1  0  0  0
  7 17  1  0  0  0
  8  9  1  0  0  0
  9 10  1  0  0  0
 10 11  1  0  0  0
 10 16  2  0  0  0
 11 12  2  0  0  0
 12 13  1  0  0  0
 12 14  1  0  0  0
 13 18  1  0  0  0
 13 19  1  0  0  0
 14 15  2  0  0  0
 15 16  1  0  0  0
 16 17  1  0  0  0
M  END
> <minimizedAffinity>
-11.14091

$$$$
