CHEMBL3690466


 33 36  0  0  0  0  0  0  0  0999 V2000
  -29.6516   -6.1780   -3.5612 C   0  0  0  0  0  0  0  0  0  0  0  0
  -31.0017   -6.1566   -3.2143 C   0  0  0  0  0  0  0  0  0  0  0  0
  -31.8221   -5.1188   -3.6427 C   0  0  0  0  0  0  0  0  0  0  0  0
  -31.2889   -4.0781   -4.3959 C   0  0  0  0  0  0  0  0  0  0  0  0
  -29.9123   -3.9994   -4.6497 C   0  0  0  0  0  0  0  0  0  0  0  0
  -29.1109   -5.0880   -4.2666 C   0  0  0  0  0  0  0  0  0  0  0  0
  -29.3313   -2.8021   -5.2776 C   0  0  0  0  0  0  0  0  0  0  0  0
  -29.1910   -1.5066   -4.8049 C   0  0  0  0  0  0  0  0  0  0  0  0
  -28.5864   -0.6791   -5.7188 N   0  0  0  0  0  0  0  0  0  0  0  0
  -28.3488   -1.4360   -6.7681 C   0  0  0  0  0  0  0  0  0  0  0  0
  -27.7245   -1.1368   -8.0236 C   0  0  0  0  0  0  0  0  0  0  0  0
  -27.6214   -2.0768   -8.9950 C   0  0  0  0  0  0  0  0  0  0  0  0
  -28.1455   -3.4239   -8.7314 C   0  0  0  0  0  0  0  0  0  0  0  0
  -28.7476   -3.7011   -7.5697 C   0  0  0  0  0  0  0  0  0  0  0  0
  -28.8243   -2.7299   -6.5751 N   0  0  0  0  0  0  0  0  0  0  0  0
  -26.9559   -1.7631  -10.2858 C   0  0  0  0  0  0  0  0  0  0  0  0
  -27.6581   -1.8642  -11.4809 C   0  0  0  0  0  0  0  0  0  0  0  0
  -26.9631   -1.6990  -12.6655 C   0  0  0  0  0  0  0  0  0  0  0  0
  -27.6100   -1.8415  -13.8298 F   0  0  0  0  0  0  0  0  0  0  0  0
  -25.6121   -1.4139  -12.6636 C   0  0  0  0  0  0  0  0  0  0  0  0
  -24.9980   -1.2883  -11.4344 C   0  0  0  0  0  0  0  0  0  0  0  0
  -25.6365   -1.4567  -10.2525 N   0  0  0  0  0  0  0  0  0  0  0  0
  -28.2333   -8.0952   -5.3423 O   0  0  0  0  0  0  0  0  0  0  0  0
  -28.1608   -8.1017   -4.1212 C   0  0  0  0  0  0  0  0  0  0  0  0
  -27.3637   -9.0148   -3.4620 N   0  0  0  0  0  0  0  0  0  0  0  0
  -28.7936   -7.2535   -3.2390 N   0  0  0  0  0  0  0  0  0  0  0  0
  -27.6657   -9.2687   -2.5325 H   0  0  0  0  0  0  0  0  0  0  0  0
  -28.5523   -7.3590   -2.2659 H   0  0  0  0  0  0  0  0  0  0  0  0
  -26.7272  -10.0826   -4.2440 C   0  0  0  0  0  0  0  0  0  0  0  0
  -25.2360   -9.8683   -4.5394 C   0  0  0  0  0  0  0  0  0  0  0  0
  -24.4700  -10.8460   -4.0004 F   0  0  0  0  0  0  0  0  0  0  0  0
  -24.9742   -9.8087   -5.8604 F   0  0  0  0  0  0  0  0  0  0  0  0
  -24.8192   -8.7006   -3.9887 F   0  0  0  0  0  0  0  0  0  0  0  0
 23 24  2  0  0  0
 24 25  1  0  0  0
 24 26  1  0  0  0
 25 29  1  0  0  0
 25 27  1  0  0  0
 29 30  1  0  0  0
 30 31  1  0  0  0
 30 32  1  0  0  0
 30 33  1  0  0  0
 26  1  1  0  0  0
 26 28  1  0  0  0
  1  2  1  0  0  0
  1  6  2  0  0  0
  2  3  2  0  0  0
  3  4  1  0  0  0
  4  5  2  0  0  0
  5  7  1  0  0  0
  5  6  1  0  0  0
  7  8  2  0  0  0
  7 15  1  0  0  0
  8  9  1  0  0  0
  9 10  2  0  0  0
 10 11  1  0  0  0
 10 15  1  0  0  0
 11 12  2  0  0  0
 12 16  1  0  0  0
 12 13  1  0  0  0
 16 17  1  0  0  0
 16 22  2  0  0  0
 17 18  2  0  0  0
 18 19  1  0  0  0
 18 20  1  0  0  0
 20 21  2  0  0  0
 21 22  1  0  0  0
 13 14  2  0  0  0
 14 15  1  0  0  0
M  END
> <minimizedAffinity>
-10.17909

$$$$
