CHEMBL389963


 41 46  0  0  0  0  0  0  0  0999 V2000
  -23.2828   -0.8789  -13.4400 C   0  0  0  0  0  0  0  0  0  0  0  0
  -24.2197   -1.1390  -14.4565 C   0  0  0  0  0  0  0  0  0  0  0  0
  -25.5629   -1.4125  -14.1542 C   0  0  0  0  0  0  0  0  0  0  0  0
  -25.8597   -1.5051  -12.8025 C   0  0  0  0  0  0  0  0  0  0  0  0
  -27.0758   -1.7279  -12.2269 O   0  0  0  0  0  0  0  0  0  0  0  0
  -26.7946   -1.7940  -10.8880 C   0  0  0  0  0  0  0  0  0  0  0  0
  -25.5337   -1.5868  -10.5773 N   0  0  0  0  0  0  0  0  0  0  0  0
  -24.9335   -1.3817  -11.7831 C   0  0  0  0  0  0  0  0  0  0  0  0
  -23.6118   -1.0665  -12.0905 C   0  0  0  0  0  0  0  0  0  0  0  0
  -27.8441   -2.0824  -10.1076 N   0  0  0  0  0  0  0  0  0  0  0  0
  -28.4653   -2.7939  -10.4681 H   0  0  0  0  0  0  0  0  0  0  0  0
  -27.8964   -1.9381   -8.7085 C   0  0  0  0  0  0  0  0  0  0  0  0
  -27.8140   -0.7223   -8.0261 C   0  0  0  0  0  0  0  0  0  0  0  0
  -27.8550   -0.6820   -6.6290 C   0  0  0  0  0  0  0  0  0  0  0  0
  -27.9996   -1.8599   -5.8899 C   0  0  0  0  0  0  0  0  0  0  0  0
  -28.0118   -1.7489   -4.1683 Cl  0  0  0  0  0  0  0  0  0  0  0  0
  -28.1502   -3.0883   -6.5514 C   0  0  0  0  0  0  0  0  0  0  0  0
  -28.1072   -3.0961   -7.9520 C   0  0  0  0  0  0  0  0  0  0  0  0
  -28.2981   -4.2288   -5.7927 O   0  0  0  0  0  0  0  0  0  0  0  0
  -29.1886   -5.2015   -6.3531 C   0  0  0  0  0  0  0  0  0  0  0  0
  -30.3685   -5.5226   -5.4357 C   0  0  0  0  0  0  0  0  0  0  0  0
  -31.0729   -4.2622   -4.9263 C   0  0  0  0  0  0  0  0  0  0  0  0
  -31.4961   -4.5899   -3.4964 C   0  0  0  0  0  0  0  0  0  0  0  0
  -31.0652   -6.0306   -3.2718 C   0  0  0  0  0  0  0  0  0  0  0  0
  -29.9313   -6.1732   -4.1831 N   0  0  0  0  0  0  0  0  0  0  0  0
  -29.5345   -7.5652   -4.3473 C   0  0  0  0  0  0  0  0  0  0  0  0
  -22.0107   -0.3944  -13.6463 O   0  0  0  0  0  0  0  0  0  0  0  0
  -18.1654    2.7893  -15.1105 C   0  0  0  0  0  0  0  0  0  0  0  0
  -19.3659    3.5043  -14.9667 C   0  0  0  0  0  0  0  0  0  0  0  0
  -20.5692    2.8902  -14.6421 C   0  0  0  0  0  0  0  0  0  0  0  0
  -21.6312    3.6715  -14.3881 N   0  0  0  0  0  0  0  0  0  0  0  0
  -22.7705    3.0901  -13.9612 C   0  0  0  0  0  0  0  0  0  0  0  0
  -22.8913    1.7395  -13.7284 C   0  0  0  0  0  0  0  0  0  0  0  0
  -21.7884    0.9274  -13.9833 C   0  0  0  0  0  0  0  0  0  0  0  0
  -20.6051    1.4903  -14.5321 C   0  0  0  0  0  0  0  0  0  0  0  0
  -19.4559    0.7763  -14.9362 C   0  0  0  0  0  0  0  0  0  0  0  0
  -18.2194    1.3975  -15.1261 C   0  0  0  0  0  0  0  0  0  0  0  0
  -16.5491    3.6637  -16.6079 C   0  0  0  0  0  0  0  0  0  0  0  0
  -16.9578    3.4178  -15.2612 O   0  0  0  0  0  0  0  0  0  0  0  0
  -17.2160    0.4808  -15.2618 O   0  0  0  0  0  0  0  0  0  0  0  0
  -16.3857    0.1812  -14.1530 C   0  0  0  0  0  0  0  0  0  0  0  0
 38 39  1  0  0  0
 39 28  1  0  0  0
 28 29  1  0  0  0
 28 37  2  0  0  0
 29 30  2  0  0  0
 30 31  1  0  0  0
 30 35  1  0  0  0
 31 32  2  0  0  0
 32 33  1  0  0  0
 33 34  2  0  0  0
 34 27  1  0  0  0
 34 35  1  0  0  0
 27  1  1  0  0  0
  1  2  1  0  0  0
  1  9  2  0  0  0
  2  3  2  0  0  0
  3  4  1  0  0  0
  4  5  1  0  0  0
  4  8  2  0  0  0
  5  6  1  0  0  0
  6 10  1  0  0  0
  6  7  2  0  0  0
 10 12  1  0  0  0
 10 11  1  0  0  0
 12 13  1  0  0  0
 12 18  2  0  0  0
 13 14  2  0  0  0
 14 15  1  0  0  0
 15 16  1  0  0  0
 15 17  2  0  0  0
 17 19  1  0  0  0
 17 18  1  0  0  0
 19 20  1  0  0  0
 21 22  1  0  0  0
 21 25  1  0  0  0
 21 20  1  0  0  0
 22 23  1  0  0  0
 23 24  1  0  0  0
 24 25  1  0  0  0
 25 26  1  0  0  0
  7  8  1  0  0  0
  8  9  1  0  0  0
 35 36  2  0  0  0
 36 37  1  0  0  0
 37 40  1  0  0  0
 40 41  1  0  0  0
M  END
> <minimizedAffinity>
-11.74454

$$$$
