CHEMBL3699446


 34 37  0  0  0  0  0  0  0  0999 V2000
  -31.3319   -8.8712   -6.9846 C   0  0  0  0  0  0  0  0  0  0  0  0
  -30.8946  -10.0814   -7.3750 C   0  0  0  0  0  0  0  0  0  0  0  0
  -32.0803  -10.8661   -7.8351 C   0  0  0  0  0  0  0  0  0  0  0  0
  -32.0731  -11.9546   -8.3837 O   0  0  0  0  0  0  0  0  0  0  0  0
  -33.1677  -10.1069   -7.6253 N   0  0  0  0  0  0  0  0  0  0  0  0
  -32.8074   -8.8830   -7.2260 C   0  0  0  0  0  0  0  0  0  0  0  0
  -33.5673   -7.9275   -7.1462 O   0  0  0  0  0  0  0  0  0  0  0  0
  -34.0782  -10.3542   -7.9684 H   0  0  0  0  0  0  0  0  0  0  0  0
  -29.6152  -10.6425   -7.6409 C   0  0  0  0  0  0  0  0  0  0  0  0
  -28.7146  -10.7854   -6.6044 C   0  0  0  0  0  0  0  0  0  0  0  0
  -27.5084  -10.3389   -7.0944 N   0  0  0  0  0  0  0  0  0  0  0  0
  -27.5589  -10.2438   -8.4723 C   0  0  0  0  0  0  0  0  0  0  0  0
  -26.6056   -9.7987   -9.4042 C   0  0  0  0  0  0  0  0  0  0  0  0
  -26.9557   -9.7819  -10.7556 C   0  0  0  0  0  0  0  0  0  0  0  0
  -28.2140  -10.2037  -11.1700 C   0  0  0  0  0  0  0  0  0  0  0  0
  -29.1883  -10.5682  -10.2308 C   0  0  0  0  0  0  0  0  0  0  0  0
  -28.8680  -10.5714   -8.8554 C   0  0  0  0  0  0  0  0  0  0  0  0
  -26.4779   -9.7724   -6.2403 C   0  0  0  0  0  0  0  0  0  0  0  0
  -26.9832   -9.2278   -4.9126 C   0  0  0  0  0  0  0  0  0  0  0  0
  -25.9282   -9.2869   -3.8200 C   0  0  0  0  0  0  0  0  0  0  0  0
  -25.3410   -8.0023   -3.6626 O   0  0  0  0  0  0  0  0  0  0  0  0
  -24.8878   -7.7785   -4.4932 H   0  0  0  0  0  0  0  0  0  0  0  0
  -29.0244   -5.8454   -6.9704 C   0  0  0  0  0  0  0  0  0  0  0  0
  -29.6727   -7.0331   -7.3471 C   0  0  0  0  0  0  0  0  0  0  0  0
  -30.5900   -7.6868   -6.5103 C   0  0  0  0  0  0  0  0  0  0  0  0
  -30.8297   -7.1413   -5.2485 C   0  0  0  0  0  0  0  0  0  0  0  0
  -30.1536   -5.9873   -4.8262 C   0  0  0  0  0  0  0  0  0  0  0  0
  -29.2694   -5.3124   -5.6947 C   0  0  0  0  0  0  0  0  0  0  0  0
  -28.4322   -3.9399   -8.2801 C   0  0  0  0  0  0  0  0  0  0  0  0
  -28.0995   -5.2314   -7.7769 O   0  0  0  0  0  0  0  0  0  0  0  0
  -30.3665   -5.4233   -3.5887 O   0  0  0  0  0  0  0  0  0  0  0  0
  -31.6246   -4.7761   -3.4247 C   0  0  0  0  0  0  0  0  0  0  0  0
  -28.6581   -4.2018   -5.1608 O   0  0  0  0  0  0  0  0  0  0  0  0
  -27.5318   -4.4222   -4.3216 C   0  0  0  0  0  0  0  0  0  0  0  0
 29 30  1  0  0  0
 30 23  1  0  0  0
 23 24  1  0  0  0
 23 28  2  0  0  0
 24 25  2  0  0  0
 25  1  1  0  0  0
 25 26  1  0  0  0
  1  2  2  0  0  0
  1  6  1  0  0  0
  2  9  1  0  0  0
  2  3  1  0  0  0
  9 10  2  0  0  0
  9 17  1  0  0  0
 10 11  1  0  0  0
 11 18  1  0  0  0
 11 12  1  0  0  0
 18 19  1  0  0  0
 19 20  1  0  0  0
 20 21  1  0  0  0
 21 22  1  0  0  0
 12 13  1  0  0  0
 12 17  2  0  0  0
 13 14  2  0  0  0
 14 15  1  0  0  0
 15 16  2  0  0  0
 16 17  1  0  0  0
  3  4  2  0  0  0
  3  5  1  0  0  0
  5  6  1  0  0  0
  5  8  1  0  0  0
  6  7  2  0  0  0
 26 27  2  0  0  0
 27 31  1  0  0  0
 27 28  1  0  0  0
 31 32  1  0  0  0
 28 33  1  0  0  0
 33 34  1  0  0  0
M  END
> <minimizedAffinity>
-7.51011

$$$$
