CHEMBL204163


 25 27  0  0  0  0  0  0  0  0999 V2000
  -30.3274   -6.2198   -4.6844 C   0  0  0  0  0  0  0  0  0  0  0  0
  -29.6025   -5.1279   -5.1128 C   0  0  0  0  0  0  0  0  0  0  0  0
  -29.9154   -3.8704   -4.6527 C   0  0  0  0  0  0  0  0  0  0  0  0
  -31.0053   -3.6985   -3.8945 N   0  0  0  0  0  0  0  0  0  0  0  0
  -31.7195   -4.7967   -3.6004 C   0  0  0  0  0  0  0  0  0  0  0  0
  -31.4349   -6.0624   -3.9513 N   0  0  0  0  0  0  0  0  0  0  0  0
  -29.1004   -2.7967   -4.9791 N   0  0  0  0  0  0  0  0  0  0  0  0
  -27.9384   -2.9836   -5.8486 C   0  0  0  0  0  0  0  0  0  0  0  0
  -28.2417   -2.3911   -7.2206 C   0  0  0  0  0  0  0  0  0  0  0  0
  -27.9073   -0.9045   -7.3257 C   0  0  0  0  0  0  0  0  0  0  0  0
  -28.1821   -0.0537   -6.0721 C   0  0  0  0  0  0  0  0  0  0  0  0
  -28.1628    1.3622   -6.4593 N   0  0  0  0  0  0  0  0  0  0  0  0
  -29.4998   -0.3874   -5.3614 C   0  0  0  0  0  0  0  0  0  0  0  0
  -29.3333   -1.5158   -4.3324 C   0  0  0  0  0  0  0  0  0  0  0  0
  -28.9003    1.5453   -7.1392 H   0  0  0  0  0  0  0  0  0  0  0  0
  -27.2838    1.5753   -6.9302 H   0  0  0  0  0  0  0  0  0  0  0  0
  -29.9016   -7.5347   -4.9462 N   0  0  0  0  0  0  0  0  0  0  0  0
  -29.0397   -7.7118   -4.4446 H   0  0  0  0  0  0  0  0  0  0  0  0
  -29.8568   -9.1390   -8.3416 C   0  0  0  0  0  0  0  0  0  0  0  0
  -31.1464   -8.8266   -7.9875 C   0  0  0  0  0  0  0  0  0  0  0  0
  -31.2782   -8.3064   -6.7265 N   0  0  0  0  0  0  0  0  0  0  0  0
  -30.1100   -8.1565   -6.1343 C   0  0  0  0  0  0  0  0  0  0  0  0
  -28.7919   -8.7895   -7.0490 S   0  0  0  0  0  0  0  0  0  0  0  0
  -29.1331  -10.1119  -10.6177 N   0  0  0  0  0  0  0  0  0  0  0  0
  -29.4666   -9.6626   -9.5961 C   0  0  0  0  0  0  0  0  0  0  0  0
 24 25  3  0  0  0
 25 19  1  0  0  0
 19 20  2  0  0  0
 19 23  1  0  0  0
 20 21  1  0  0  0
 21 22  2  0  0  0
 22 17  1  0  0  0
 22 23  1  0  0  0
 17  1  1  0  0  0
 17 18  1  0  0  0
  1  2  1  0  0  0
  1  6  2  0  0  0
  2  3  2  0  0  0
  3  7  1  0  0  0
  3  4  1  0  0  0
  7  8  1  0  0  0
  7 14  1  0  0  0
  8  9  1  0  0  0
  9 10  1  0  0  0
 10 11  1  0  0  0
 11 12  1  0  0  0
 11 13  1  0  0  0
 12 15  1  0  0  0
 12 16  1  0  0  0
 13 14  1  0  0  0
  4  5  2  0  0  0
  5  6  1  0  0  0
M  END
> <minimizedAffinity>
-7.53211

$$$$
