CHEMBL505896


 45 50  0  0  0  0  0  0  0  0999 V2000
  -29.6782   -2.7040   -6.6430 O   0  0  0  0  0  0  0  0  0  0  0  0
  -29.3411   -7.0710   -5.9428 C   0  0  0  0  0  0  0  0  0  0  0  0
  -29.2467   -5.7105   -6.2288 C   0  0  0  0  0  0  0  0  0  0  0  0
  -29.2804   -4.7249   -5.2130 C   0  0  0  0  0  0  0  0  0  0  0  0
  -29.4396   -3.3332   -5.4359 C   0  0  0  0  0  0  0  0  0  0  0  0
  -29.3132   -2.4492   -4.3708 C   0  0  0  0  0  0  0  0  0  0  0  0
  -29.1259   -2.9654   -3.1091 C   0  0  0  0  0  0  0  0  0  0  0  0
  -29.0807   -4.2861   -2.8471 N   0  0  0  0  0  0  0  0  0  0  0  0
  -29.1740   -5.1460   -3.8746 C   0  0  0  0  0  0  0  0  0  0  0  0
  -29.1484   -6.5056   -3.6024 C   0  0  0  0  0  0  0  0  0  0  0  0
  -29.2218   -7.4748   -4.6127 C   0  0  0  0  0  0  0  0  0  0  0  0
  -28.9726   -7.7748   -8.2024 C   0  0  0  0  0  0  0  0  0  0  0  0
  -29.5033   -8.0233   -6.9078 O   0  0  0  0  0  0  0  0  0  0  0  0
  -29.1417   -8.7649   -4.1523 O   0  0  0  0  0  0  0  0  0  0  0  0
  -27.9451   -9.1654   -3.4699 C   0  0  0  0  0  0  0  0  0  0  0  0
  -26.6600   -8.9703   -4.2852 C   0  0  0  0  0  0  0  0  0  0  0  0
  -25.5397   -9.8859   -3.7830 C   0  0  0  0  0  0  0  0  0  0  0  0
  -25.2157  -10.9880   -4.7086 N   0  0  0  0  0  0  0  0  0  0  0  0
  -24.1117  -11.8129   -4.1568 C   0  0  0  0  0  0  0  0  0  0  0  0
  -22.7273  -11.1364   -4.2176 C   0  0  0  0  0  0  0  0  0  0  0  0
  -22.4017  -10.7090   -5.5465 O   0  0  0  0  0  0  0  0  0  0  0  0
  -23.4150   -9.8357   -6.0617 C   0  0  0  0  0  0  0  0  0  0  0  0
  -24.7860  -10.5296   -6.0522 C   0  0  0  0  0  0  0  0  0  0  0  0
  -28.6544   -2.3714   -7.4970 C   0  0  0  0  0  0  0  0  0  0  0  0
  -28.2219   -3.4101   -8.3192 C   0  0  0  0  0  0  0  0  0  0  0  0
  -27.3256   -3.1612   -9.3639 C   0  0  0  0  0  0  0  0  0  0  0  0
  -26.8550   -1.8655   -9.6313 C   0  0  0  0  0  0  0  0  0  0  0  0
  -27.1973   -0.8584   -8.7132 C   0  0  0  0  0  0  0  0  0  0  0  0
  -28.0587   -1.1204   -7.6418 C   0  0  0  0  0  0  0  0  0  0  0  0
  -28.3782   -0.0991   -6.8343 F   0  0  0  0  0  0  0  0  0  0  0  0
  -26.1008   -1.5757  -10.8799 C   0  0  0  0  0  0  0  0  0  0  0  0
  -24.7778   -1.3582  -10.9035 C   0  0  0  0  0  0  0  0  0  0  0  0
  -24.0317   -1.0514  -12.0055 N   0  0  0  0  0  0  0  0  0  0  0  0
  -24.6005   -1.1302  -13.1690 C   0  0  0  0  0  0  0  0  0  0  0  0
  -25.9265   -1.4586  -13.3229 N   0  0  0  0  0  0  0  0  0  0  0  0
  -26.5791   -1.6363  -14.6097 C   0  0  0  0  0  0  0  0  0  0  0  0
  -26.7636   -1.4613  -12.2186 C   0  0  0  0  0  0  0  0  0  0  0  0
  -27.9859   -1.3498  -12.3175 O   0  0  0  0  0  0  0  0  0  0  0  0
  -23.7393   -0.8087  -14.3891 C   0  0  0  0  0  0  0  0  0  0  0  0
  -22.8757    0.4197  -14.2095 C   0  0  0  0  0  0  0  0  0  0  0  0
  -23.4386    1.6235  -13.7625 C   0  0  0  0  0  0  0  0  0  0  0  0
  -22.6509    2.7676  -13.6231 C   0  0  0  0  0  0  0  0  0  0  0  0
  -21.2883    2.7168  -13.9081 C   0  0  0  0  0  0  0  0  0  0  0  0
  -20.7073    1.5161  -14.3085 C   0  0  0  0  0  0  0  0  0  0  0  0
  -21.4945    0.3721  -14.4515 C   0  0  0  0  0  0  0  0  0  0  0  0
 12 13  1  0  0  0
 13  2  1  0  0  0
  2  3  1  0  0  0
  2 11  2  0  0  0
  3  4  2  0  0  0
  4  5  1  0  0  0
  4  9  1  0  0  0
  5  1  1  0  0  0
  5  6  2  0  0  0
  1 24  1  0  0  0
 24 25  1  0  0  0
 24 29  2  0  0  0
 25 26  2  0  0  0
 26 27  1  0  0  0
 27 31  1  0  0  0
 27 28  2  0  0  0
 31 32  2  0  0  0
 31 37  1  0  0  0
 32 33  1  0  0  0
 33 34  2  0  0  0
 34 39  1  0  0  0
 34 35  1  0  0  0
 39 40  1  0  0  0
 40 41  1  0  0  0
 40 45  2  0  0  0
 41 42  2  0  0  0
 42 43  1  0  0  0
 43 44  2  0  0  0
 44 45  1  0  0  0
 35 36  1  0  0  0
 35 37  1  0  0  0
 37 38  2  0  0  0
 28 29  1  0  0  0
 29 30  1  0  0  0
  6  7  1  0  0  0
  7  8  2  0  0  0
  8  9  1  0  0  0
  9 10  2  0  0  0
 10 11  1  0  0  0
 11 14  1  0  0  0
 14 15  1  0  0  0
 15 16  1  0  0  0
 16 17  1  0  0  0
 17 18  1  0  0  0
 18 19  1  0  0  0
 18 23  1  0  0  0
 19 20  1  0  0  0
 20 21  1  0  0  0
 21 22  1  0  0  0
 22 23  1  0  0  0
M  END
> <minimizedAffinity>
-9.50649

$$$$
