CHEMBL3694668


 35 38  0  0  0  0  0  0  0  0999 V2000
  -29.5423   -2.5740   -5.4208 C   0  0  0  0  0  0  0  0  0  0  0  0
  -29.1284   -1.3659   -4.8771 C   0  0  0  0  0  0  0  0  0  0  0  0
  -28.3483   -0.6482   -5.7411 N   0  0  0  0  0  0  0  0  0  0  0  0
  -28.2772   -1.3822   -6.8273 C   0  0  0  0  0  0  0  0  0  0  0  0
  -27.5719   -1.1652   -8.0463 C   0  0  0  0  0  0  0  0  0  0  0  0
  -27.6499   -2.0507   -9.0702 C   0  0  0  0  0  0  0  0  0  0  0  0
  -28.5111   -3.2333   -8.9161 C   0  0  0  0  0  0  0  0  0  0  0  0
  -29.1841   -3.4380   -7.7749 C   0  0  0  0  0  0  0  0  0  0  0  0
  -29.0379   -2.5436   -6.7155 N   0  0  0  0  0  0  0  0  0  0  0  0
  -30.8850   -6.0337   -4.5934 C   0  0  0  0  0  0  0  0  0  0  0  0
  -31.7051   -5.7316   -3.5093 C   0  0  0  0  0  0  0  0  0  0  0  0
  -31.8402   -4.4129   -3.0725 C   0  0  0  0  0  0  0  0  0  0  0  0
  -31.1572   -3.3828   -3.7190 C   0  0  0  0  0  0  0  0  0  0  0  0
  -30.3080   -3.6593   -4.7961 C   0  0  0  0  0  0  0  0  0  0  0  0
  -30.1688   -4.9959   -5.2059 C   0  0  0  0  0  0  0  0  0  0  0  0
  -31.1522   -6.9898   -7.3977 O   0  0  0  0  0  0  0  0  0  0  0  0
  -30.8622   -7.7036   -6.4484 C   0  0  0  0  0  0  0  0  0  0  0  0
  -30.6126   -9.0515   -6.6172 N   0  0  0  0  0  0  0  0  0  0  0  0
  -30.7279   -7.3293   -5.1322 N   0  0  0  0  0  0  0  0  0  0  0  0
  -30.8210   -9.6381   -5.8215 H   0  0  0  0  0  0  0  0  0  0  0  0
  -30.4311   -8.0482   -4.4940 H   0  0  0  0  0  0  0  0  0  0  0  0
  -30.8686   -9.6467   -7.9334 C   0  0  0  0  0  0  0  0  0  0  0  0
  -29.6237   -9.8199   -8.8150 C   0  0  0  0  0  0  0  0  0  0  0  0
  -29.8791  -10.5878   -9.9004 F   0  0  0  0  0  0  0  0  0  0  0  0
  -29.1241   -8.6422   -9.2400 F   0  0  0  0  0  0  0  0  0  0  0  0
  -28.6463  -10.4490   -8.1158 F   0  0  0  0  0  0  0  0  0  0  0  0
  -26.8881   -1.8015  -10.3212 C   0  0  0  0  0  0  0  0  0  0  0  0
  -27.5310   -1.8670  -11.5012 N   0  0  0  0  0  0  0  0  0  0  0  0
  -26.7888   -1.6493  -12.6036 C   0  0  0  0  0  0  0  0  0  0  0  0
  -25.4431   -1.3591  -12.5782 C   0  0  0  0  0  0  0  0  0  0  0  0
  -24.8825   -1.3101  -11.3202 C   0  0  0  0  0  0  0  0  0  0  0  0
  -25.5753   -1.5266  -10.1850 N   0  0  0  0  0  0  0  0  0  0  0  0
  -24.6344   -1.1502  -13.8101 C   0  0  0  0  0  0  0  0  0  0  0  0
  -25.4365   -1.3716  -14.9591 O   0  0  0  0  0  0  0  0  0  0  0  0
  -25.6913   -2.3110  -14.9601 H   0  0  0  0  0  0  0  0  0  0  0  0
 16 17  2  0  0  0
 17 18  1  0  0  0
 17 19  1  0  0  0
 18 22  1  0  0  0
 18 20  1  0  0  0
 22 23  1  0  0  0
 23 24  1  0  0  0
 23 25  1  0  0  0
 23 26  1  0  0  0
 19 10  1  0  0  0
 19 21  1  0  0  0
 10 11  1  0  0  0
 10 15  2  0  0  0
 11 12  2  0  0  0
 12 13  1  0  0  0
 13 14  2  0  0  0
 14  1  1  0  0  0
 14 15  1  0  0  0
  1  2  2  0  0  0
  1  9  1  0  0  0
  2  3  1  0  0  0
  3  4  2  0  0  0
  4  5  1  0  0  0
  4  9  1  0  0  0
  5  6  2  0  0  0
  6 27  1  0  0  0
  6  7  1  0  0  0
 27 28  1  0  0  0
 27 32  2  0  0  0
 28 29  2  0  0  0
 29 30  1  0  0  0
 30 33  1  0  0  0
 30 31  2  0  0  0
 33 34  1  0  0  0
 34 35  1  0  0  0
 31 32  1  0  0  0
  7  8  2  0  0  0
  8  9  1  0  0  0
M  END
> <minimizedAffinity>
-9.89999

$$$$
