CHEMBL394203


 33 35  0  0  0  0  0  0  0  0999 V2000
  -26.2489   -1.6612  -11.0701 C   0  0  0  0  0  0  0  0  0  0  0  0
  -25.2447   -1.6002  -10.3656 O   0  0  0  0  0  0  0  0  0  0  0  0
  -27.5265   -1.8876  -10.5680 N   0  0  0  0  0  0  0  0  0  0  0  0
  -28.2338   -2.1628  -11.2381 H   0  0  0  0  0  0  0  0  0  0  0  0
  -28.3790   -2.3983  -13.3635 C   0  0  0  0  0  0  0  0  0  0  0  0
  -27.0249   -1.9228  -13.5057 N   0  0  0  0  0  0  0  0  0  0  0  0
  -26.4477   -1.6054  -14.7070 C   0  0  0  0  0  0  0  0  0  0  0  0
  -25.2221   -1.1643  -14.5560 N   0  0  0  0  0  0  0  0  0  0  0  0
  -25.0394   -1.1173  -13.2110 C   0  0  0  0  0  0  0  0  0  0  0  0
  -26.1298   -1.6037  -12.5098 C   0  0  0  0  0  0  0  0  0  0  0  0
  -23.9302   -0.6250  -12.6448 N   0  0  0  0  0  0  0  0  0  0  0  0
  -23.9652   -0.3081  -11.6796 H   0  0  0  0  0  0  0  0  0  0  0  0
  -22.6262   -0.6862  -13.2601 C   0  0  0  0  0  0  0  0  0  0  0  0
  -22.1786    0.6717  -13.7706 C   0  0  0  0  0  0  0  0  0  0  0  0
  -22.9960    1.7881  -13.5534 C   0  0  0  0  0  0  0  0  0  0  0  0
  -22.5620    3.0371  -13.9752 C   0  0  0  0  0  0  0  0  0  0  0  0
  -21.3807    3.2556  -14.5879 N   0  0  0  0  0  0  0  0  0  0  0  0
  -20.5970    2.1749  -14.7802 C   0  0  0  0  0  0  0  0  0  0  0  0
  -20.9406    0.8878  -14.3898 C   0  0  0  0  0  0  0  0  0  0  0  0
  -27.8558   -2.0413   -9.1934 C   0  0  0  0  0  0  0  0  0  0  0  0
  -27.8954   -0.9654   -8.3002 C   0  0  0  0  0  0  0  0  0  0  0  0
  -28.1679   -1.1479   -6.9362 C   0  0  0  0  0  0  0  0  0  0  0  0
  -28.4263   -2.4410   -6.4663 C   0  0  0  0  0  0  0  0  0  0  0  0
  -28.4359   -3.5338   -7.3465 C   0  0  0  0  0  0  0  0  0  0  0  0
  -28.1473   -3.3207   -8.7117 C   0  0  0  0  0  0  0  0  0  0  0  0
  -28.1906    0.0314   -5.9913 C   0  0  0  0  0  0  0  0  0  0  0  0
  -28.2119    1.2400   -6.6169 F   0  0  0  0  0  0  0  0  0  0  0  0
  -29.2830    0.0136   -5.1788 F   0  0  0  0  0  0  0  0  0  0  0  0
  -27.1092    0.0552   -5.1652 F   0  0  0  0  0  0  0  0  0  0  0  0
  -28.7586   -4.9220   -6.8413 C   0  0  0  0  0  0  0  0  0  0  0  0
  -30.0939   -5.1650   -6.7311 F   0  0  0  0  0  0  0  0  0  0  0  0
  -28.2690   -5.8927   -7.6609 F   0  0  0  0  0  0  0  0  0  0  0  0
  -28.2297   -5.1661   -5.6119 F   0  0  0  0  0  0  0  0  0  0  0  0
  5  6  1  0  0  0
  6  7  1  0  0  0
  6 10  1  0  0  0
  7  8  2  0  0  0
  8  9  1  0  0  0
  9 11  1  0  0  0
  9 10  2  0  0  0
 11 13  1  0  0  0
 11 12  1  0  0  0
 13 14  1  0  0  0
 14 15  1  0  0  0
 14 19  2  0  0  0
 15 16  2  0  0  0
 16 17  1  0  0  0
 17 18  2  0  0  0
 18 19  1  0  0  0
 10  1  1  0  0  0
  1  2  2  0  0  0
  1  3  1  0  0  0
  3 20  1  0  0  0
  3  4  1  0  0  0
 20 21  1  0  0  0
 20 25  2  0  0  0
 21 22  2  0  0  0
 22 26  1  0  0  0
 22 23  1  0  0  0
 26 27  1  0  0  0
 26 28  1  0  0  0
 26 29  1  0  0  0
 23 24  2  0  0  0
 24 30  1  0  0  0
 24 25  1  0  0  0
 30 31  1  0  0  0
 30 32  1  0  0  0
 30 33  1  0  0  0
M  END
> <minimizedAffinity>
-10.04023

$$$$
