CHEMBL365133


 41 43  0  0  0  0  0  0  0  0999 V2000
  -14.5604    0.6513  -14.8224 C   0  0  0  0  0  0  0  0  0  0  0  0
  -13.6718   -0.4323  -14.6986 C   0  0  0  0  0  0  0  0  0  0  0  0
  -13.8822   -1.4644  -13.7808 C   0  0  0  0  0  0  0  0  0  0  0  0
  -13.0432   -2.5701  -13.7157 C   0  0  0  0  0  0  0  0  0  0  0  0
  -13.2305   -3.6072  -12.8822 N   0  0  0  0  0  0  0  0  0  0  0  0
  -14.2949   -3.5693  -12.0632 C   0  0  0  0  0  0  0  0  0  0  0  0
  -15.1498   -2.4595  -12.0313 C   0  0  0  0  0  0  0  0  0  0  0  0
  -14.9632   -1.3883  -12.9055 C   0  0  0  0  0  0  0  0  0  0  0  0
  -15.7955   -0.3144  -12.9363 N   0  0  0  0  0  0  0  0  0  0  0  0
  -15.6331    0.6330  -13.9115 C   0  0  0  0  0  0  0  0  0  0  0  0
  -14.1429    2.5800  -18.1079 C   0  0  0  0  0  0  0  0  0  0  0  0
  -13.9153    3.8736  -17.6403 C   0  0  0  0  0  0  0  0  0  0  0  0
  -13.8480    4.1073  -16.2715 C   0  0  0  0  0  0  0  0  0  0  0  0
  -13.9425    3.0345  -15.3803 C   0  0  0  0  0  0  0  0  0  0  0  0
  -14.2274    1.7194  -15.8101 C   0  0  0  0  0  0  0  0  0  0  0  0
  -14.3140    1.5249  -17.1976 C   0  0  0  0  0  0  0  0  0  0  0  0
  -13.8769    0.8833  -19.7514 C   0  0  0  0  0  0  0  0  0  0  0  0
  -14.2465    2.2183  -19.4257 O   0  0  0  0  0  0  0  0  0  0  0  0
  -13.6992    5.3408  -15.6946 O   0  0  0  0  0  0  0  0  0  0  0  0
  -12.4174    5.5968  -15.1233 C   0  0  0  0  0  0  0  0  0  0  0  0
  -16.6286    1.6420  -13.9122 N   0  0  0  0  0  0  0  0  0  0  0  0
  -17.8398    1.3415  -14.5162 C   0  0  0  0  0  0  0  0  0  0  0  0
  -18.1109    0.2683  -15.0387 O   0  0  0  0  0  0  0  0  0  0  0  0
  -18.7384    2.3912  -14.3869 N   0  0  0  0  0  0  0  0  0  0  0  0
  -16.8316    1.9241  -12.9625 H   0  0  0  0  0  0  0  0  0  0  0  0
  -18.3023    3.3013  -14.4566 H   0  0  0  0  0  0  0  0  0  0  0  0
  -20.1655    2.3067  -14.7739 C   0  0  0  0  0  0  0  0  0  0  0  0
  -20.7393    0.9335  -14.3812 C   0  0  0  0  0  0  0  0  0  0  0  0
  -20.9704    3.3799  -14.0106 C   0  0  0  0  0  0  0  0  0  0  0  0
  -20.3730    2.5524  -16.2774 C   0  0  0  0  0  0  0  0  0  0  0  0
  -14.5249   -4.7040  -11.2392 N   0  0  0  0  0  0  0  0  0  0  0  0
  -14.0648   -4.7930   -9.9219 C   0  0  0  0  0  0  0  0  0  0  0  0
  -13.3141   -3.6358   -9.3040 C   0  0  0  0  0  0  0  0  0  0  0  0
  -14.2944   -5.7834   -9.2177 O   0  0  0  0  0  0  0  0  0  0  0  0
  -15.5699   -5.6843  -11.5843 C   0  0  0  0  0  0  0  0  0  0  0  0
  -15.9439   -5.8990  -13.0542 C   0  0  0  0  0  0  0  0  0  0  0  0
  -15.5193   -7.2759  -13.5834 C   0  0  0  0  0  0  0  0  0  0  0  0
  -14.0204   -7.4735  -13.3490 C   0  0  0  0  0  0  0  0  0  0  0  0
  -13.6913   -8.7487  -12.5879 C   0  0  0  0  0  0  0  0  0  0  0  0
  -13.4557   -8.4324  -11.2200 O   0  0  0  0  0  0  0  0  0  0  0  0
  -12.7301   -7.7850  -11.1892 H   0  0  0  0  0  0  0  0  0  0  0  0
 17 18  1  0  0  0
 18 11  1  0  0  0
 11 12  1  0  0  0
 11 16  2  0  0  0
 12 13  2  0  0  0
 13 19  1  0  0  0
 13 14  1  0  0  0
 19 20  1  0  0  0
 14 15  2  0  0  0
 15  1  1  0  0  0
 15 16  1  0  0  0
  1  2  1  0  0  0
  1 10  2  0  0  0
  2  3  2  0  0  0
  3  4  1  0  0  0
  3  8  1  0  0  0
  4  5  2  0  0  0
  5  6  1  0  0  0
  6 31  1  0  0  0
  6  7  2  0  0  0
 31 35  1  0  0  0
 31 32  1  0  0  0
 35 36  1  0  0  0
 36 37  1  0  0  0
 37 38  1  0  0  0
 38 39  1  0  0  0
 39 40  1  0  0  0
 40 41  1  0  0  0
 32 33  1  0  0  0
 32 34  2  0  0  0
  7  8  1  0  0  0
  8  9  2  0  0  0
  9 10  1  0  0  0
 10 21  1  0  0  0
 21 22  1  0  0  0
 21 25  1  0  0  0
 22 23  2  0  0  0
 22 24  1  0  0  0
 24 27  1  0  0  0
 24 26  1  0  0  0
 27 28  1  0  0  0
 27 29  1  0  0  0
 27 30  1  0  0  0
M  END
> <minimizedAffinity>
-7.08963

$$$$
