CHEMBL244482


 39 42  0  0  0  0  0  0  0  0999 V2000
  -24.7641   -1.3229  -12.9347 C   0  0  0  0  0  0  0  0  0  0  0  0
  -26.0514   -1.6479  -13.3415 C   0  0  0  0  0  0  0  0  0  0  0  0
  -27.0602   -1.8016  -12.3918 C   0  0  0  0  0  0  0  0  0  0  0  0
  -26.7971   -1.6336  -11.0277 C   0  0  0  0  0  0  0  0  0  0  0  0
  -25.4868   -1.3752  -10.6269 C   0  0  0  0  0  0  0  0  0  0  0  0
  -24.4656   -1.2488  -11.5755 C   0  0  0  0  0  0  0  0  0  0  0  0
  -27.7990   -1.6789  -10.0314 N   0  0  0  0  0  0  0  0  0  0  0  0
  -27.9444   -2.6728   -9.0882 C   0  0  0  0  0  0  0  0  0  0  0  0
  -27.1558   -3.5958   -8.9056 O   0  0  0  0  0  0  0  0  0  0  0  0
  -29.1221   -2.5427   -8.3636 N   0  0  0  0  0  0  0  0  0  0  0  0
  -28.3994   -0.8729   -9.9334 H   0  0  0  0  0  0  0  0  0  0  0  0
  -29.9225   -2.2653   -8.9198 H   0  0  0  0  0  0  0  0  0  0  0  0
  -29.3974   -3.4955   -7.3501 C   0  0  0  0  0  0  0  0  0  0  0  0
  -29.7208   -4.8186   -7.6773 C   0  0  0  0  0  0  0  0  0  0  0  0
  -30.1392   -5.7208   -6.6897 C   0  0  0  0  0  0  0  0  0  0  0  0
  -30.2213   -5.2760   -5.3597 C   0  0  0  0  0  0  0  0  0  0  0  0
  -29.8575   -3.9679   -5.0233 C   0  0  0  0  0  0  0  0  0  0  0  0
  -29.4272   -3.0932   -6.0163 C   0  0  0  0  0  0  0  0  0  0  0  0
  -29.1197   -1.8279   -5.6930 F   0  0  0  0  0  0  0  0  0  0  0  0
  -30.5199   -7.1356   -7.0537 C   0  0  0  0  0  0  0  0  0  0  0  0
  -31.8192   -7.2774   -7.4374 F   0  0  0  0  0  0  0  0  0  0  0  0
  -29.7754   -7.6147   -8.0894 F   0  0  0  0  0  0  0  0  0  0  0  0
  -30.3334   -8.0084   -6.0261 F   0  0  0  0  0  0  0  0  0  0  0  0
  -23.8560   -1.1223  -13.9453 O   0  0  0  0  0  0  0  0  0  0  0  0
  -19.5584    2.9780  -14.7890 C   0  0  0  0  0  0  0  0  0  0  0  0
  -20.6457    3.4028  -14.1917 N   0  0  0  0  0  0  0  0  0  0  0  0
  -21.5474    2.3538  -14.0853 C   0  0  0  0  0  0  0  0  0  0  0  0
  -22.8697    2.4396  -13.6064 C   0  0  0  0  0  0  0  0  0  0  0  0
  -23.6726    1.2964  -13.5935 C   0  0  0  0  0  0  0  0  0  0  0  0
  -23.1513    0.0592  -13.9821 C   0  0  0  0  0  0  0  0  0  0  0  0
  -21.8569   -0.0430  -14.4892 C   0  0  0  0  0  0  0  0  0  0  0  0
  -21.0753    1.1186  -14.5283 C   0  0  0  0  0  0  0  0  0  0  0  0
  -19.4719    1.3070  -15.0941 S   0  0  0  0  0  0  0  0  0  0  0  0
  -17.2683    3.4915  -15.4146 C   0  0  0  0  0  0  0  0  0  0  0  0
  -16.7112    2.4255  -15.1998 O   0  0  0  0  0  0  0  0  0  0  0  0
  -18.5609    3.8373  -15.1626 N   0  0  0  0  0  0  0  0  0  0  0  0
  -18.8646    4.7413  -15.4867 H   0  0  0  0  0  0  0  0  0  0  0  0
  -15.7936    4.1164  -17.1007 C   0  0  0  0  0  0  0  0  0  0  0  0
  -16.6528    4.5332  -16.0404 O   0  0  0  0  0  0  0  0  0  0  0  0
 38 39  1  0  0  0
 39 34  1  0  0  0
 34 35  2  0  0  0
 34 36  1  0  0  0
 36 25  1  0  0  0
 36 37  1  0  0  0
 25 26  2  0  0  0
 25 33  1  0  0  0
 26 27  1  0  0  0
 27 28  1  0  0  0
 27 32  2  0  0  0
 28 29  2  0  0  0
 29 30  1  0  0  0
 30 24  1  0  0  0
 30 31  2  0  0  0
 24  1  1  0  0  0
  1  2  1  0  0  0
  1  6  2  0  0  0
  2  3  2  0  0  0
  3  4  1  0  0  0
  4  7  1  0  0  0
  4  5  2  0  0  0
  7  8  1  0  0  0
  7 11  1  0  0  0
  8  9  2  0  0  0
  8 10  1  0  0  0
 10 13  1  0  0  0
 10 12  1  0  0  0
 13 14  1  0  0  0
 13 18  2  0  0  0
 14 15  2  0  0  0
 15 20  1  0  0  0
 15 16  1  0  0  0
 20 21  1  0  0  0
 20 22  1  0  0  0
 20 23  1  0  0  0
 16 17  2  0  0  0
 17 18  1  0  0  0
 18 19  1  0  0  0
  5  6  1  0  0  0
 31 32  1  0  0  0
 32 33  1  0  0  0
M  END
> <minimizedAffinity>
-10.49881

$$$$
