CHEMBL3921469


 37 40  0  0  0  0  0  0  0  0999 V2000
  -16.9674    1.8858  -15.1282 N   0  0  0  0  0  0  0  0  0  0  0  0
  -18.4088    1.7862  -15.2674 C   0  0  0  0  0  0  0  0  0  0  0  0
  -19.0470    3.0079  -15.4692 C   0  0  0  0  0  0  0  0  0  0  0  0
  -20.3435    3.1953  -15.0291 C   0  0  0  0  0  0  0  0  0  0  0  0
  -21.0970    2.1500  -14.5741 C   0  0  0  0  0  0  0  0  0  0  0  0
  -22.2555    2.5262  -14.0017 N   0  0  0  0  0  0  0  0  0  0  0  0
  -23.1319    1.5550  -13.7328 C   0  0  0  0  0  0  0  0  0  0  0  0
  -22.9096    0.2460  -14.1036 C   0  0  0  0  0  0  0  0  0  0  0  0
  -21.6642   -0.1615  -14.5549 N   0  0  0  0  0  0  0  0  0  0  0  0
  -20.6730    0.8135  -14.7297 C   0  0  0  0  0  0  0  0  0  0  0  0
  -19.2525    0.6658  -15.0160 C   0  0  0  0  0  0  0  0  0  0  0  0
  -24.1062   -0.5923  -14.2046 C   0  0  0  0  0  0  0  0  0  0  0  0
  -24.8760   -0.9017  -15.3608 C   0  0  0  0  0  0  0  0  0  0  0  0
  -26.0726   -1.4283  -15.0711 N   0  0  0  0  0  0  0  0  0  0  0  0
  -26.0919   -1.4453  -13.7284 N   0  0  0  0  0  0  0  0  0  0  0  0
  -27.1384   -2.1484  -13.0219 C   0  0  0  0  0  0  0  0  0  0  0  0
  -25.0080   -0.8176  -13.1729 C   0  0  0  0  0  0  0  0  0  0  0  0
  -14.5177    1.6343  -17.9547 C   0  0  0  0  0  0  0  0  0  0  0  0
  -14.4002    2.9701  -18.3412 C   0  0  0  0  0  0  0  0  0  0  0  0
  -15.0596    3.9627  -17.6211 C   0  0  0  0  0  0  0  0  0  0  0  0
  -15.8424    3.6121  -16.5109 C   0  0  0  0  0  0  0  0  0  0  0  0
  -16.0025    2.2792  -16.0944 C   0  0  0  0  0  0  0  0  0  0  0  0
  -15.2969    1.3015  -16.8254 C   0  0  0  0  0  0  0  0  0  0  0  0
  -13.3270   -0.4386  -17.8365 C   0  0  0  0  0  0  0  0  0  0  0  0
  -13.9463    0.5809  -18.6273 O   0  0  0  0  0  0  0  0  0  0  0  0
  -15.0494    5.3008  -17.9182 O   0  0  0  0  0  0  0  0  0  0  0  0
  -14.2466    5.7136  -19.0195 C   0  0  0  0  0  0  0  0  0  0  0  0
  -16.5302    0.7972  -14.1671 C   0  0  0  0  0  0  0  0  0  0  0  0
  -15.0982    0.8385  -13.5903 C   0  0  0  0  0  0  0  0  0  0  0  0
  -14.4400   -0.5106  -13.2378 C   0  0  0  0  0  0  0  0  0  0  0  0
  -15.2803   -1.2009  -12.2362 N   0  0  0  0  0  0  0  0  0  0  0  0
  -16.2521   -0.8963  -12.3443 H   0  0  0  0  0  0  0  0  0  0  0  0
  -15.2733   -2.6873  -12.2273 C   0  0  0  0  0  0  0  0  0  0  0  0
  -15.9824   -3.2599  -13.4655 C   0  0  0  0  0  0  0  0  0  0  0  0
  -13.8440   -3.2433  -12.1225 C   0  0  0  0  0  0  0  0  0  0  0  0
  -16.0541   -3.1881  -10.9767 C   0  0  0  0  0  0  0  0  0  0  0  0
  -16.8510   -4.2404  -11.3196 F   0  0  0  0  0  0  0  0  0  0  0  0
 24 25  1  0  0  0
 25 18  1  0  0  0
 18 19  1  0  0  0
 18 23  2  0  0  0
 19 20  2  0  0  0
 20 26  1  0  0  0
 20 21  1  0  0  0
 26 27  1  0  0  0
 21 22  2  0  0  0
 22  1  1  0  0  0
 22 23  1  0  0  0
  1 28  1  0  0  0
  1  2  1  0  0  0
 28 29  1  0  0  0
 29 30  1  0  0  0
 30 31  1  0  0  0
 31 33  1  0  0  0
 31 32  1  0  0  0
 33 34  1  0  0  0
 33 35  1  0  0  0
 33 36  1  0  0  0
 36 37  1  0  0  0
  2  3  1  0  0  0
  2 11  2  0  0  0
  3  4  2  0  0  0
  4  5  1  0  0  0
  5  6  1  0  0  0
  5 10  2  0  0  0
  6  7  2  0  0  0
  7  8  1  0  0  0
  8 12  1  0  0  0
  8  9  2  0  0  0
 12 13  1  0  0  0
 12 17  2  0  0  0
 13 14  2  0  0  0
 14 15  1  0  0  0
 15 16  1  0  0  0
 15 17  1  0  0  0
  9 10  1  0  0  0
 10 11  1  0  0  0
M  END
> <minimizedAffinity>
-8.53287

$$$$
