CHEMBL459850


 36 39  0  0  0  0  0  0  0  0999 V2000
  -11.4564   -0.9608  -13.6438 C   0  0  0  0  0  0  0  0  0  0  0  0
  -12.8763   -0.4643  -13.6061 C   0  0  0  0  0  0  0  0  0  0  0  0
  -13.1117    0.9104  -13.7190 C   0  0  0  0  0  0  0  0  0  0  0  0
  -14.4127    1.4136  -13.8005 C   0  0  0  0  0  0  0  0  0  0  0  0
  -15.5161    0.5600  -13.7737 C   0  0  0  0  0  0  0  0  0  0  0  0
  -15.2898   -0.8169  -13.6425 C   0  0  0  0  0  0  0  0  0  0  0  0
  -13.9840   -1.3311  -13.5430 C   0  0  0  0  0  0  0  0  0  0  0  0
  -13.7653   -2.7324  -13.4520 N   0  0  0  0  0  0  0  0  0  0  0  0
  -13.2538   -3.4053  -14.6317 C   0  0  0  0  0  0  0  0  0  0  0  0
  -13.5705   -4.8513  -14.6197 C   0  0  0  0  0  0  0  0  0  0  0  0
  -13.5295   -5.6408  -15.7455 C   0  0  0  0  0  0  0  0  0  0  0  0
  -13.7788   -6.9602  -15.7320 N   0  0  0  0  0  0  0  0  0  0  0  0
  -14.0765   -7.4941  -14.5474 C   0  0  0  0  0  0  0  0  0  0  0  0
  -14.3502   -8.8439  -14.5091 N   0  0  0  0  0  0  0  0  0  0  0  0
  -14.0893   -6.8241  -13.3941 N   0  0  0  0  0  0  0  0  0  0  0  0
  -13.8446   -5.4999  -13.4402 C   0  0  0  0  0  0  0  0  0  0  0  0
  -13.8421   -4.7480  -12.2436 N   0  0  0  0  0  0  0  0  0  0  0  0
  -14.1581   -5.4072  -10.9894 C   0  0  0  0  0  0  0  0  0  0  0  0
  -13.7039   -3.3603  -12.2107 C   0  0  0  0  0  0  0  0  0  0  0  0
  -13.6515   -2.7460  -11.1434 O   0  0  0  0  0  0  0  0  0  0  0  0
  -13.9305   -9.3065  -15.3029 H   0  0  0  0  0  0  0  0  0  0  0  0
  -14.1550   -9.2174  -13.5916 H   0  0  0  0  0  0  0  0  0  0  0  0
  -16.8573    1.0091  -13.8752 N   0  0  0  0  0  0  0  0  0  0  0  0
  -17.4841    1.4887  -15.0130 C   0  0  0  0  0  0  0  0  0  0  0  0
  -16.9783    1.6099  -16.1261 O   0  0  0  0  0  0  0  0  0  0  0  0
  -17.3854    1.0004  -13.0110 H   0  0  0  0  0  0  0  0  0  0  0  0
  -18.8996    1.9365  -14.8645 C   0  0  0  0  0  0  0  0  0  0  0  0
  -19.3256    3.2366  -15.1551 C   0  0  0  0  0  0  0  0  0  0  0  0
  -20.6633    3.5930  -14.9525 C   0  0  0  0  0  0  0  0  0  0  0  0
  -21.5803    2.6566  -14.4661 C   0  0  0  0  0  0  0  0  0  0  0  0
  -21.1736    1.3484  -14.1733 C   0  0  0  0  0  0  0  0  0  0  0  0
  -19.8258    1.0045  -14.3640 C   0  0  0  0  0  0  0  0  0  0  0  0
  -22.1504    0.3115  -13.6737 C   0  0  0  0  0  0  0  0  0  0  0  0
  -22.0627    0.0851  -12.3328 F   0  0  0  0  0  0  0  0  0  0  0  0
  -23.4444    0.6697  -13.9037 F   0  0  0  0  0  0  0  0  0  0  0  0
  -21.9845   -0.9010  -14.2685 F   0  0  0  0  0  0  0  0  0  0  0  0
  1  2  1  0  0  0
  2  3  1  0  0  0
  2  7  2  0  0  0
  3  4  2  0  0  0
  4  5  1  0  0  0
  5 23  1  0  0  0
  5  6  2  0  0  0
 23 24  1  0  0  0
 23 26  1  0  0  0
 24 25  2  0  0  0
 24 27  1  0  0  0
 27 28  1  0  0  0
 27 32  2  0  0  0
 28 29  2  0  0  0
 29 30  1  0  0  0
 30 31  2  0  0  0
 31 33  1  0  0  0
 31 32  1  0  0  0
 33 34  1  0  0  0
 33 35  1  0  0  0
 33 36  1  0  0  0
  6  7  1  0  0  0
  7  8  1  0  0  0
  8  9  1  0  0  0
  8 19  1  0  0  0
  9 10  1  0  0  0
 10 11  1  0  0  0
 10 16  2  0  0  0
 11 12  2  0  0  0
 12 13  1  0  0  0
 13 14  1  0  0  0
 13 15  2  0  0  0
 14 21  1  0  0  0
 14 22  1  0  0  0
 15 16  1  0  0  0
 16 17  1  0  0  0
 17 18  1  0  0  0
 17 19  1  0  0  0
 19 20  2  0  0  0
M  END
> <minimizedAffinity>
-10.09455

$$$$
