CHEMBL3128224


 39 43  0  0  0  0  0  0  0  0999 V2000
  -29.5573   -3.2584   -3.5782 C   0  0  0  0  0  0  0  0  0  0  0  0
  -29.8318   -6.8013   -4.9618 C   0  0  0  0  0  0  0  0  0  0  0  0
  -28.5012   -7.2099   -4.9742 C   0  0  0  0  0  0  0  0  0  0  0  0
  -27.5116   -6.3599   -4.4759 C   0  0  0  0  0  0  0  0  0  0  0  0
  -27.8526   -5.0949   -3.9883 C   0  0  0  0  0  0  0  0  0  0  0  0
  -29.1856   -4.6579   -4.0164 C   0  0  0  0  0  0  0  0  0  0  0  0
  -30.1757   -5.5355   -4.4856 C   0  0  0  0  0  0  0  0  0  0  0  0
  -30.8377   -7.6286   -5.5097 N   0  0  0  0  0  0  0  0  0  0  0  0
  -31.1983   -8.4192   -4.9817 H   0  0  0  0  0  0  0  0  0  0  0  0
  -31.3101   -7.5043   -7.1069 S   0  0  0  0  0  0  0  0  0  0  0  0
  -31.0409   -6.1599   -7.5764 O   0  0  0  0  0  0  0  0  0  0  0  0
  -32.6484   -8.0594   -7.1713 O   0  0  0  0  0  0  0  0  0  0  0  0
  -28.5599  -10.3108   -9.4613 C   0  0  0  0  0  0  0  0  0  0  0  0
  -29.8243  -10.7507   -9.0555 C   0  0  0  0  0  0  0  0  0  0  0  0
  -30.6632   -9.9069   -8.3147 C   0  0  0  0  0  0  0  0  0  0  0  0
  -30.2277   -8.6223   -7.9722 C   0  0  0  0  0  0  0  0  0  0  0  0
  -28.9750   -8.1712   -8.3871 C   0  0  0  0  0  0  0  0  0  0  0  0
  -28.1466   -9.0203   -9.1235 C   0  0  0  0  0  0  0  0  0  0  0  0
  -26.3681  -11.2208   -9.6112 C   0  0  0  0  0  0  0  0  0  0  0  0
  -27.6523  -11.0271  -10.1892 O   0  0  0  0  0  0  0  0  0  0  0  0
  -30.2368   -2.5656   -4.6555 N   0  0  0  0  0  0  0  0  0  0  0  0
  -31.0898   -2.0987   -4.3722 H   0  0  0  0  0  0  0  0  0  0  0  0
  -29.4171   -1.7655   -5.4554 C   0  0  0  0  0  0  0  0  0  0  0  0
  -29.1461   -0.4853   -5.1005 N   0  0  0  0  0  0  0  0  0  0  0  0
  -28.3330    0.2519   -5.8831 C   0  0  0  0  0  0  0  0  0  0  0  0
  -27.7365   -0.1092   -7.0299 N   0  0  0  0  0  0  0  0  0  0  0  0
  -28.0171   -1.3845   -7.3572 C   0  0  0  0  0  0  0  0  0  0  0  0
  -28.8266   -2.2457   -6.6345 C   0  0  0  0  0  0  0  0  0  0  0  0
  -28.8106   -3.4415   -7.3780 C   0  0  0  0  0  0  0  0  0  0  0  0
  -28.0661   -3.3589   -8.4847 N   0  0  0  0  0  0  0  0  0  0  0  0
  -27.5688   -2.0959   -8.4399 N   0  0  0  0  0  0  0  0  0  0  0  0
  -26.7181   -1.6528   -9.5315 C   0  0  0  0  0  0  0  0  0  0  0  0
  -27.4220   -1.4341  -10.8689 C   0  0  0  0  0  0  0  0  0  0  0  0
  -26.4446   -1.3014  -12.0118 C   0  0  0  0  0  0  0  0  0  0  0  0
  -25.2033   -0.6806  -11.8112 C   0  0  0  0  0  0  0  0  0  0  0  0
  -24.2935   -0.5633  -12.8625 C   0  0  0  0  0  0  0  0  0  0  0  0
  -24.6180   -1.0589  -14.1234 C   0  0  0  0  0  0  0  0  0  0  0  0
  -25.8533   -1.6693  -14.3351 C   0  0  0  0  0  0  0  0  0  0  0  0
  -26.7650   -1.7889  -13.2848 C   0  0  0  0  0  0  0  0  0  0  0  0
 19 20  1  0  0  0
 20 13  1  0  0  0
 13 14  1  0  0  0
 13 18  2  0  0  0
 14 15  2  0  0  0
 15 16  1  0  0  0
 16 10  1  0  0  0
 16 17  2  0  0  0
 10 11  2  0  0  0
 10 12  2  0  0  0
 10  8  1  0  0  0
  8  2  1  0  0  0
  8  9  1  0  0  0
  2  3  1  0  0  0
  2  7  2  0  0  0
  3  4  2  0  0  0
  4  5  1  0  0  0
  5  6  2  0  0  0
  6  1  1  0  0  0
  6  7  1  0  0  0
  1 21  1  0  0  0
 21 23  1  0  0  0
 21 22  1  0  0  0
 23 24  1  0  0  0
 23 28  2  0  0  0
 24 25  2  0  0  0
 25 26  1  0  0  0
 26 27  2  0  0  0
 27 28  1  0  0  0
 27 31  1  0  0  0
 28 29  1  0  0  0
 29 30  2  0  0  0
 30 31  1  0  0  0
 31 32  1  0  0  0
 32 33  1  0  0  0
 33 34  1  0  0  0
 34 35  1  0  0  0
 34 39  2  0  0  0
 35 36  2  0  0  0
 36 37  1  0  0  0
 37 38  2  0  0  0
 38 39  1  0  0  0
 17 18  1  0  0  0
M  END
> <minimizedAffinity>
-9.59265

$$$$
