CHEMBL255394


 37 41  0  0  0  0  0  0  0  0999 V2000
  -27.5625   -9.2132   -5.6205 C   0  0  0  0  0  0  0  0  0  0  0  0
  -26.7260  -10.1465   -6.3343 C   0  0  0  0  0  0  0  0  0  0  0  0
  -27.1878  -10.2238   -7.6237 C   0  0  0  0  0  0  0  0  0  0  0  0
  -28.2937   -9.4333   -7.7283 N   0  0  0  0  0  0  0  0  0  0  0  0
  -28.9997   -9.2767   -8.8550 N   0  0  0  0  0  0  0  0  0  0  0  0
  -30.0129   -8.4851   -8.7285 C   0  0  0  0  0  0  0  0  0  0  0  0
  -30.4023   -7.8410   -7.5902 N   0  0  0  0  0  0  0  0  0  0  0  0
  -29.7222   -7.9638   -6.4872 C   0  0  0  0  0  0  0  0  0  0  0  0
  -28.5618   -8.8316   -6.5257 C   0  0  0  0  0  0  0  0  0  0  0  0
  -25.5520  -10.9304   -5.8327 C   0  0  0  0  0  0  0  0  0  0  0  0
  -25.6500  -12.0090   -5.0805 N   0  0  0  0  0  0  0  0  0  0  0  0
  -24.3749  -12.4645   -4.8578 N   0  0  0  0  0  0  0  0  0  0  0  0
  -23.5618  -11.6363   -5.4775 C   0  0  0  0  0  0  0  0  0  0  0  0
  -24.2407  -10.6338   -6.1197 O   0  0  0  0  0  0  0  0  0  0  0  0
  -22.2153  -11.6830   -5.5966 N   0  0  0  0  0  0  0  0  0  0  0  0
  -21.4321  -12.0477   -4.4281 C   0  0  0  0  0  0  0  0  0  0  0  0
  -21.5295  -10.9508   -6.6428 C   0  0  0  0  0  0  0  0  0  0  0  0
  -27.9733   -9.7168   -3.1651 C   0  0  0  0  0  0  0  0  0  0  0  0
  -27.3360   -8.7748   -4.1883 C   0  0  0  0  0  0  0  0  0  0  0  0
  -25.8764   -8.4053   -3.9142 C   0  0  0  0  0  0  0  0  0  0  0  0
  -30.1361   -7.3026   -5.3479 N   0  0  0  0  0  0  0  0  0  0  0  0
  -30.2529   -7.8548   -4.5117 H   0  0  0  0  0  0  0  0  0  0  0  0
  -30.0403   -5.9255   -5.0497 C   0  0  0  0  0  0  0  0  0  0  0  0
  -29.1963   -5.0403   -5.7233 C   0  0  0  0  0  0  0  0  0  0  0  0
  -29.1672   -3.6680   -5.4199 C   0  0  0  0  0  0  0  0  0  0  0  0
  -29.9931   -3.1822   -4.4074 C   0  0  0  0  0  0  0  0  0  0  0  0
  -29.9954   -1.8810   -4.0803 F   0  0  0  0  0  0  0  0  0  0  0  0
  -30.8395   -4.0376   -3.7098 C   0  0  0  0  0  0  0  0  0  0  0  0
  -30.8614   -5.3890   -4.0432 C   0  0  0  0  0  0  0  0  0  0  0  0
  -31.6774   -6.2089   -3.3617 F   0  0  0  0  0  0  0  0  0  0  0  0
  -28.2547   -2.8192   -6.2296 C   0  0  0  0  0  0  0  0  0  0  0  0
  -27.2680   -2.3167   -5.6959 O   0  0  0  0  0  0  0  0  0  0  0  0
  -28.5426   -2.6444   -7.5667 N   0  0  0  0  0  0  0  0  0  0  0  0
  -29.3608   -3.0834   -7.9759 H   0  0  0  0  0  0  0  0  0  0  0  0
  -27.6611   -1.8972   -8.4062 C   0  0  0  0  0  0  0  0  0  0  0  0
  -28.1114   -1.4791   -9.7785 C   0  0  0  0  0  0  0  0  0  0  0  0
  -27.0191   -2.4965   -9.6222 C   0  0  0  0  0  0  0  0  0  0  0  0
 18 19  1  0  0  0
 19 20  1  0  0  0
 19  1  1  0  0  0
  1  2  1  0  0  0
  1  9  2  0  0  0
  2 10  1  0  0  0
  2  3  2  0  0  0
 10 11  2  0  0  0
 10 14  1  0  0  0
 11 12  1  0  0  0
 12 13  2  0  0  0
 13 15  1  0  0  0
 13 14  1  0  0  0
 15 16  1  0  0  0
 15 17  1  0  0  0
  3  4  1  0  0  0
  4  5  1  0  0  0
  4  9  1  0  0  0
  5  6  2  0  0  0
  6  7  1  0  0  0
  7  8  2  0  0  0
  8 21  1  0  0  0
  8  9  1  0  0  0
 21 23  1  0  0  0
 21 22  1  0  0  0
 23 24  1  0  0  0
 23 29  2  0  0  0
 24 25  2  0  0  0
 25 31  1  0  0  0
 25 26  1  0  0  0
 31 32  2  0  0  0
 31 33  1  0  0  0
 33 35  1  0  0  0
 33 34  1  0  0  0
 35 36  1  0  0  0
 35 37  1  0  0  0
 36 37  1  0  0  0
 26 27  1  0  0  0
 26 28  2  0  0  0
 28 29  1  0  0  0
 29 30  1  0  0  0
M  END
> <minimizedAffinity>
-8.12544

$$$$
