CHEMBL4762111


 27 30  0  0  0  0  0  0  0  0999 V2000
  -30.1714   -6.9161   -6.9187 N   0  0  0  0  0  0  0  0  0  0  0  0
  -29.7299   -5.8138   -6.4024 C   0  0  0  0  0  0  0  0  0  0  0  0
  -28.5909   -4.8889   -6.8657 C   0  0  0  0  0  0  0  0  0  0  0  0
  -27.8651   -5.0473   -7.8227 O   0  0  0  0  0  0  0  0  0  0  0  0
  -28.5602   -3.8589   -5.9280 N   0  0  0  0  0  0  0  0  0  0  0  0
  -29.5560   -4.0407   -4.9527 C   0  0  0  0  0  0  0  0  0  0  0  0
  -29.8748   -3.2409   -3.8682 C   0  0  0  0  0  0  0  0  0  0  0  0
  -30.9132   -3.6601   -3.0247 C   0  0  0  0  0  0  0  0  0  0  0  0
  -31.6045   -4.8610   -3.2723 C   0  0  0  0  0  0  0  0  0  0  0  0
  -32.8595   -5.3469   -2.2010 Cl  0  0  0  0  0  0  0  0  0  0  0  0
  -31.2924   -5.6575   -4.3704 C   0  0  0  0  0  0  0  0  0  0  0  0
  -30.2712   -5.2131   -5.1893 C   0  0  0  0  0  0  0  0  0  0  0  0
  -28.8388  -10.7703  -10.9444 O   0  0  0  0  0  0  0  0  0  0  0  0
  -29.3062  -10.2587   -9.9352 C   0  0  0  0  0  0  0  0  0  0  0  0
  -30.0805  -11.0057   -8.8794 C   0  0  0  0  0  0  0  0  0  0  0  0
  -30.6929   -9.7372   -7.7375 S   0  0  0  0  0  0  0  0  0  0  0  0
  -29.7301   -8.4916   -8.4770 C   0  0  0  0  0  0  0  0  0  0  0  0
  -29.5270   -7.2784   -8.0897 N   0  0  0  0  0  0  0  0  0  0  0  0
  -29.1470   -8.9458   -9.6093 N   0  0  0  0  0  0  0  0  0  0  0  0
  -28.5941   -8.3241  -10.1781 H   0  0  0  0  0  0  0  0  0  0  0  0
  -27.4708   -2.9100   -5.8518 C   0  0  0  0  0  0  0  0  0  0  0  0
  -27.9795   -1.4857   -5.9303 C   0  0  0  0  0  0  0  0  0  0  0  0
  -28.3572   -0.9357   -7.1659 C   0  0  0  0  0  0  0  0  0  0  0  0
  -28.7136    0.4110   -7.2659 C   0  0  0  0  0  0  0  0  0  0  0  0
  -28.6959    1.2234   -6.1348 C   0  0  0  0  0  0  0  0  0  0  0  0
  -28.3485    0.6844   -4.8982 C   0  0  0  0  0  0  0  0  0  0  0  0
  -27.9998   -0.6626   -4.7949 C   0  0  0  0  0  0  0  0  0  0  0  0
 13 14  2  0  0  0
 14 15  1  0  0  0
 14 19  1  0  0  0
 15 16  1  0  0  0
 16 17  1  0  0  0
 17 18  2  0  0  0
 17 19  1  0  0  0
 18  1  1  0  0  0
  1  2  2  0  0  0
  2  3  1  0  0  0
  2 12  1  0  0  0
  3  4  2  0  0  0
  3  5  1  0  0  0
  5 21  1  0  0  0
  5  6  1  0  0  0
 21 22  1  0  0  0
 22 23  1  0  0  0
 22 27  2  0  0  0
 23 24  2  0  0  0
 24 25  1  0  0  0
 25 26  2  0  0  0
 26 27  1  0  0  0
  6  7  1  0  0  0
  6 12  2  0  0  0
  7  8  2  0  0  0
  8  9  1  0  0  0
  9 10  1  0  0  0
  9 11  2  0  0  0
 11 12  1  0  0  0
 19 20  1  0  0  0
M  END
> <minimizedAffinity>
-8.24341

$$$$
