CHEMBL3676338


 37 39  0  0  0  0  0  0  0  0999 V2000
  -28.1091   -8.3886   -6.8489 C   0  0  0  0  0  0  0  0  0  0  0  0
  -28.7284   -7.1416   -6.7468 C   0  0  0  0  0  0  0  0  0  0  0  0
  -29.3392   -6.7415   -5.5352 C   0  0  0  0  0  0  0  0  0  0  0  0
  -30.0840   -5.5654   -5.3630 C   0  0  0  0  0  0  0  0  0  0  0  0
  -30.6443   -5.2427   -4.1803 N   0  0  0  0  0  0  0  0  0  0  0  0
  -30.4870   -6.1078   -3.1778 C   0  0  0  0  0  0  0  0  0  0  0  0
  -29.8326   -7.2697   -3.2424 N   0  0  0  0  0  0  0  0  0  0  0  0
  -29.2760   -7.5834   -4.4153 C   0  0  0  0  0  0  0  0  0  0  0  0
  -28.6166   -8.8021   -4.5309 C   0  0  0  0  0  0  0  0  0  0  0  0
  -28.0097   -9.2137   -5.7218 C   0  0  0  0  0  0  0  0  0  0  0  0
  -28.4643   -9.5545   -8.9255 C   0  0  0  0  0  0  0  0  0  0  0  0
  -29.5828   -9.9611   -8.6426 O   0  0  0  0  0  0  0  0  0  0  0  0
  -27.6389   -8.7863   -8.1180 N   0  0  0  0  0  0  0  0  0  0  0  0
  -27.1509   -8.0725   -8.6414 H   0  0  0  0  0  0  0  0  0  0  0  0
  -28.5136  -10.4103  -11.2341 C   0  0  0  0  0  0  0  0  0  0  0  0
  -27.8376   -9.8049  -10.2504 C   0  0  0  0  0  0  0  0  0  0  0  0
  -30.3146   -4.6984   -6.4640 N   0  0  0  0  0  0  0  0  0  0  0  0
  -30.6210   -5.2251   -7.2786 H   0  0  0  0  0  0  0  0  0  0  0  0
  -29.4510   -3.6295   -6.8108 C   0  0  0  0  0  0  0  0  0  0  0  0
  -28.6626   -3.6981   -7.9709 C   0  0  0  0  0  0  0  0  0  0  0  0
  -27.8719   -2.6183   -8.3670 C   0  0  0  0  0  0  0  0  0  0  0  0
  -27.8376   -1.4628   -7.5937 C   0  0  0  0  0  0  0  0  0  0  0  0
  -28.5704   -1.4014   -6.4062 C   0  0  0  0  0  0  0  0  0  0  0  0
  -28.5106    0.0342   -5.4572 Cl  0  0  0  0  0  0  0  0  0  0  0  0
  -29.3603   -2.4835   -6.0123 C   0  0  0  0  0  0  0  0  0  0  0  0
  -30.0701   -2.4293   -4.8726 F   0  0  0  0  0  0  0  0  0  0  0  0
  -27.3571  -10.4228   -5.6341 O   0  0  0  0  0  0  0  0  0  0  0  0
  -26.4193  -10.5399   -4.5583 C   0  0  0  0  0  0  0  0  0  0  0  0
  -25.1765   -9.6827   -4.8225 C   0  0  0  0  0  0  0  0  0  0  0  0
  -24.1270  -10.4456   -5.4935 N   0  0  0  0  0  0  0  0  0  0  0  0
  -23.0141  -10.8829   -4.7982 C   0  0  0  0  0  0  0  0  0  0  0  0
  -22.9044  -10.7904   -3.5797 O   0  0  0  0  0  0  0  0  0  0  0  0
  -24.0289  -10.3610   -6.4995 H   0  0  0  0  0  0  0  0  0  0  0  0
  -21.9023  -11.4635   -5.6797 C   0  0  0  0  0  0  0  0  0  0  0  0
  -21.9913  -10.9440   -7.0690 N   0  0  0  0  0  0  0  0  0  0  0  0
  -20.8588  -10.0564   -7.3661 C   0  0  0  0  0  0  0  0  0  0  0  0
  -21.9631  -12.0728   -8.0091 C   0  0  0  0  0  0  0  0  0  0  0  0
 15 16  2  0  0  0
 16 11  1  0  0  0
 11 12  2  0  0  0
 11 13  1  0  0  0
 13  1  1  0  0  0
 13 14  1  0  0  0
  1  2  1  0  0  0
  1 10  2  0  0  0
  2  3  2  0  0  0
  3  4  1  0  0  0
  3  8  1  0  0  0
  4 17  1  0  0  0
  4  5  2  0  0  0
 17 19  1  0  0  0
 17 18  1  0  0  0
 19 20  1  0  0  0
 19 25  2  0  0  0
 20 21  2  0  0  0
 21 22  1  0  0  0
 22 23  2  0  0  0
 23 24  1  0  0  0
 23 25  1  0  0  0
 25 26  1  0  0  0
  5  6  1  0  0  0
  6  7  2  0  0  0
  7  8  1  0  0  0
  8  9  2  0  0  0
  9 10  1  0  0  0
 10 27  1  0  0  0
 27 28  1  0  0  0
 28 29  1  0  0  0
 29 30  1  0  0  0
 30 31  1  0  0  0
 30 33  1  0  0  0
 31 32  2  0  0  0
 31 34  1  0  0  0
 34 35  1  0  0  0
 35 36  1  0  0  0
 35 37  1  0  0  0
M  END
> <minimizedAffinity>
-8.02256

$$$$
