CHEMBL6246


 26 29  0  0  0  0  0  0  0  0999 V2000
  -27.1665   -2.7411   -9.3782 O   0  0  0  0  0  0  0  0  0  0  0  0
  -27.8168   -3.0686   -8.3945 C   0  0  0  0  0  0  0  0  0  0  0  0
  -28.2137   -4.3950   -8.1905 O   0  0  0  0  0  0  0  0  0  0  0  0
  -28.9646   -4.8081   -7.0693 C   0  0  0  0  0  0  0  0  0  0  0  0
  -29.3139   -6.1469   -6.9503 C   0  0  0  0  0  0  0  0  0  0  0  0
  -28.9563   -7.0813   -7.8801 O   0  0  0  0  0  0  0  0  0  0  0  0
  -30.0548   -6.5602   -5.8469 C   0  0  0  0  0  0  0  0  0  0  0  0
  -30.4079   -7.8713   -5.7122 O   0  0  0  0  0  0  0  0  0  0  0  0
  -30.4479   -5.6545   -4.8662 C   0  0  0  0  0  0  0  0  0  0  0  0
  -30.0889   -4.3067   -4.9978 C   0  0  0  0  0  0  0  0  0  0  0  0
  -30.4964   -3.3214   -3.9635 C   0  0  0  0  0  0  0  0  0  0  0  0
  -31.1480   -3.6476   -2.9804 O   0  0  0  0  0  0  0  0  0  0  0  0
  -30.0986   -1.9965   -4.1664 O   0  0  0  0  0  0  0  0  0  0  0  0
  -29.3478   -1.5855   -5.2875 C   0  0  0  0  0  0  0  0  0  0  0  0
  -28.9995   -0.2470   -5.4016 C   0  0  0  0  0  0  0  0  0  0  0  0
  -29.3600    0.6807   -4.4666 O   0  0  0  0  0  0  0  0  0  0  0  0
  -28.2589    0.1702   -6.5031 C   0  0  0  0  0  0  0  0  0  0  0  0
  -27.9067    1.4823   -6.6308 O   0  0  0  0  0  0  0  0  0  0  0  0
  -27.8658   -0.7332   -7.4867 C   0  0  0  0  0  0  0  0  0  0  0  0
  -28.2240   -2.0826   -7.3595 C   0  0  0  0  0  0  0  0  0  0  0  0
  -28.9673   -2.5083   -6.2554 C   0  0  0  0  0  0  0  0  0  0  0  0
  -29.3451   -3.8835   -6.1029 C   0  0  0  0  0  0  0  0  0  0  0  0
  -28.4471   -6.6204   -8.5751 H   0  0  0  0  0  0  0  0  0  0  0  0
  -30.0371   -8.3240   -6.4966 H   0  0  0  0  0  0  0  0  0  0  0  0
  -29.8711    0.2128   -3.7772 H   0  0  0  0  0  0  0  0  0  0  0  0
  -28.2767    1.9302   -5.8427 H   0  0  0  0  0  0  0  0  0  0  0  0
  1  2  2  0  0  0
  2  3  1  0  0  0
  2 20  1  0  0  0
  3  4  1  0  0  0
  4  5  1  0  0  0
  4 22  2  0  0  0
  5  6  1  0  0  0
  5  7  2  0  0  0
  6 23  1  0  0  0
  7  8  1  0  0  0
  7  9  1  0  0  0
  8 24  1  0  0  0
  9 10  2  0  0  0
 10 11  1  0  0  0
 10 22  1  0  0  0
 11 12  2  0  0  0
 11 13  1  0  0  0
 13 14  1  0  0  0
 14 15  1  0  0  0
 14 21  2  0  0  0
 15 16  1  0  0  0
 15 17  2  0  0  0
 16 25  1  0  0  0
 17 18  1  0  0  0
 17 19  1  0  0  0
 18 26  1  0  0  0
 19 20  2  0  0  0
 20 21  1  0  0  0
 21 22  1  0  0  0
M  END
> <minimizedAffinity>
-9.02691

$$$$
