CHEMBL1242207


 25 28  0  0  0  0  0  0  0  0999 V2000
  -24.7833   -1.1517  -11.8471 N   0  0  0  0  0  0  0  0  0  0  0  0
  -25.1730   -1.3629  -10.5795 N   0  0  0  0  0  0  0  0  0  0  0  0
  -26.4703   -1.7227  -10.6645 C   0  0  0  0  0  0  0  0  0  0  0  0
  -26.8786   -1.7873  -12.0359 C   0  0  0  0  0  0  0  0  0  0  0  0
  -28.0307   -2.0585  -12.7928 C   0  0  0  0  0  0  0  0  0  0  0  0
  -29.2826   -2.3849  -12.2800 N   0  0  0  0  0  0  0  0  0  0  0  0
  -27.9670   -1.9685  -14.1410 N   0  0  0  0  0  0  0  0  0  0  0  0
  -26.8043   -1.6017  -14.7091 C   0  0  0  0  0  0  0  0  0  0  0  0
  -25.6546   -1.3015  -14.0960 N   0  0  0  0  0  0  0  0  0  0  0  0
  -25.7577   -1.4166  -12.7630 C   0  0  0  0  0  0  0  0  0  0  0  0
  -29.5211   -1.8655  -11.4471 H   0  0  0  0  0  0  0  0  0  0  0  0
  -29.9705   -2.3175  -13.0242 H   0  0  0  0  0  0  0  0  0  0  0  0
  -27.2095   -1.9110   -9.4037 C   0  0  0  0  0  0  0  0  0  0  0  0
  -27.7129   -3.1951   -9.1267 C   0  0  0  0  0  0  0  0  0  0  0  0
  -28.4930   -3.4445   -8.0009 C   0  0  0  0  0  0  0  0  0  0  0  0
  -28.7206   -2.4283   -7.0705 C   0  0  0  0  0  0  0  0  0  0  0  0
  -29.4963   -2.6315   -5.9292 C   0  0  0  0  0  0  0  0  0  0  0  0
  -29.6274   -1.7348   -4.9283 N   0  0  0  0  0  0  0  0  0  0  0  0
  -28.9710   -0.5670   -5.0833 C   0  0  0  0  0  0  0  0  0  0  0  0
  -28.2587   -0.2218   -6.2247 C   0  0  0  0  0  0  0  0  0  0  0  0
  -28.1400   -1.1603   -7.2616 C   0  0  0  0  0  0  0  0  0  0  0  0
  -27.4521   -0.8950   -8.4705 C   0  0  0  0  0  0  0  0  0  0  0  0
  -22.7077   -1.4238  -13.1594 C   0  0  0  0  0  0  0  0  0  0  0  0
  -23.4565   -0.5988  -12.1086 C   0  0  0  0  0  0  0  0  0  0  0  0
  -23.5245    0.8719  -12.5205 C   0  0  0  0  0  0  0  0  0  0  0  0
 23 24  1  0  0  0
 24 25  1  0  0  0
 24  1  1  0  0  0
  1  2  1  0  0  0
  1 10  1  0  0  0
  2  3  2  0  0  0
  3 13  1  0  0  0
  3  4  1  0  0  0
 13 14  1  0  0  0
 13 22  2  0  0  0
 14 15  2  0  0  0
 15 16  1  0  0  0
 16 17  1  0  0  0
 16 21  2  0  0  0
 17 18  2  0  0  0
 18 19  1  0  0  0
 19 20  2  0  0  0
 20 21  1  0  0  0
 21 22  1  0  0  0
  4  5  1  0  0  0
  4 10  2  0  0  0
  5  6  1  0  0  0
  5  7  2  0  0  0
  6 11  1  0  0  0
  6 12  1  0  0  0
  7  8  1  0  0  0
  8  9  2  0  0  0
  9 10  1  0  0  0
M  END
> <minimizedAffinity>
-7.32664

$$$$
