CHEMBL3978649


 34 36  0  0  0  0  0  0  0  0999 V2000
  -18.2103    1.1159  -14.4981 C   0  0  0  0  0  0  0  0  0  0  0  0
  -17.1445    0.5677  -14.4323 C   0  0  0  0  0  0  0  0  0  0  0  0
  -15.8544   -0.0368  -14.2395 C   0  0  0  0  0  0  0  0  0  0  0  0
  -15.7324   -1.0641  -13.3021 C   0  0  0  0  0  0  0  0  0  0  0  0
  -14.5410   -1.7863  -13.2215 C   0  0  0  0  0  0  0  0  0  0  0  0
  -13.4900   -1.3914  -14.0343 C   0  0  0  0  0  0  0  0  0  0  0  0
  -13.5634   -0.3594  -14.9180 N   0  0  0  0  0  0  0  0  0  0  0  0
  -14.7418    0.2907  -15.0274 C   0  0  0  0  0  0  0  0  0  0  0  0
  -14.8015    1.2349  -16.0506 N   0  0  0  0  0  0  0  0  0  0  0  0
  -13.8688    1.3407  -16.4393 H   0  0  0  0  0  0  0  0  0  0  0  0
  -15.2145    2.1115  -15.7579 H   0  0  0  0  0  0  0  0  0  0  0  0
  -14.4382   -2.9928  -12.3560 C   0  0  0  0  0  0  0  0  0  0  0  0
  -14.0368   -2.8175  -11.2089 O   0  0  0  0  0  0  0  0  0  0  0  0
  -14.6976   -4.2726  -12.8700 N   0  0  0  0  0  0  0  0  0  0  0  0
  -15.3167   -5.3764  -11.9883 S   0  0  0  0  0  0  0  0  0  0  0  0
  -14.0771   -6.0230  -10.8846 C   0  0  0  0  0  0  0  0  0  0  0  0
  -15.5901   -6.7642  -13.0671 C   0  0  0  0  0  0  0  0  0  0  0  0
  -16.5346   -5.2138  -11.2186 O   0  0  0  0  0  0  0  0  0  0  0  0
  -21.9254    1.5994  -14.1610 C   0  0  0  0  0  0  0  0  0  0  0  0
  -22.0149    2.9418  -14.5421 C   0  0  0  0  0  0  0  0  0  0  0  0
  -20.8731    3.6745  -14.8663 C   0  0  0  0  0  0  0  0  0  0  0  0
  -19.6214    3.0702  -14.8266 C   0  0  0  0  0  0  0  0  0  0  0  0
  -19.5028    1.7345  -14.4352 C   0  0  0  0  0  0  0  0  0  0  0  0
  -20.6529    1.0079  -14.0785 C   0  0  0  0  0  0  0  0  0  0  0  0
  -23.2072   -0.1143  -12.8439 C   0  0  0  0  0  0  0  0  0  0  0  0
  -22.3422   -0.3673  -12.0108 O   0  0  0  0  0  0  0  0  0  0  0  0
  -23.0635    0.8086  -13.8803 N   0  0  0  0  0  0  0  0  0  0  0  0
  -23.9104    0.9891  -14.4074 H   0  0  0  0  0  0  0  0  0  0  0  0
  -25.0835   -1.1906  -15.2858 C   0  0  0  0  0  0  0  0  0  0  0  0
  -25.3418   -1.2189  -13.8224 C   0  0  0  0  0  0  0  0  0  0  0  0
  -26.5039   -1.7301  -13.1810 C   0  0  0  0  0  0  0  0  0  0  0  0
  -26.3135   -1.5568  -11.8322 C   0  0  0  0  0  0  0  0  0  0  0  0
  -25.1122   -0.9765  -11.5884 O   0  0  0  0  0  0  0  0  0  0  0  0
  -24.5117   -0.7548  -12.8026 C   0  0  0  0  0  0  0  0  0  0  0  0
 29 30  1  0  0  0
 30 31  1  0  0  0
 30 34  2  0  0  0
 31 32  2  0  0  0
 32 33  1  0  0  0
 33 34  1  0  0  0
 34 25  1  0  0  0
 25 26  2  0  0  0
 25 27  1  0  0  0
 27 19  1  0  0  0
 27 28  1  0  0  0
 19 20  1  0  0  0
 19 24  2  0  0  0
 20 21  2  0  0  0
 21 22  1  0  0  0
 22 23  2  0  0  0
 23  1  1  0  0  0
 23 24  1  0  0  0
  1  2  3  0  0  0
  2  3  1  0  0  0
  3  4  1  0  0  0
  3  8  2  0  0  0
  4  5  2  0  0  0
  5 12  1  0  0  0
  5  6  1  0  0  0
 12 13  2  0  0  0
 12 14  1  0  0  0
 14 15  2  0  0  0
 15 16  1  0  0  0
 15 17  1  0  0  0
 15 18  2  0  0  0
  6  7  2  0  0  0
  7  8  1  0  0  0
  8  9  1  0  0  0
  9 10  1  0  0  0
  9 11  1  0  0  0
M  END
> <minimizedAffinity>
-10.22719

$$$$
