CHEMBL199755


 25 28  0  0  0  0  0  0  0  0999 V2000
  -18.7035    1.9678  -15.2125 C   0  0  0  0  0  0  0  0  0  0  0  0
  -19.6064    0.9704  -14.7523 C   0  0  0  0  0  0  0  0  0  0  0  0
  -20.8695    1.5131  -14.3795 C   0  0  0  0  0  0  0  0  0  0  0  0
  -22.1237    1.2656  -13.8985 C   0  0  0  0  0  0  0  0  0  0  0  0
  -22.6882    2.5523  -13.8560 N   0  0  0  0  0  0  0  0  0  0  0  0
  -21.8702    3.5480  -14.3121 N   0  0  0  0  0  0  0  0  0  0  0  0
  -20.8006    2.8739  -14.6064 C   0  0  0  0  0  0  0  0  0  0  0  0
  -19.3727    3.6270  -15.2331 S   0  0  0  0  0  0  0  0  0  0  0  0
  -23.6080    2.8064  -13.5135 H   0  0  0  0  0  0  0  0  0  0  0  0
  -22.8417    0.0758  -13.4468 C   0  0  0  0  0  0  0  0  0  0  0  0
  -22.5548   -0.5071  -12.2094 C   0  0  0  0  0  0  0  0  0  0  0  0
  -23.2738   -1.6195  -11.7607 C   0  0  0  0  0  0  0  0  0  0  0  0
  -24.2864   -2.1650  -12.5483 C   0  0  0  0  0  0  0  0  0  0  0  0
  -24.5754   -1.6062  -13.7886 C   0  0  0  0  0  0  0  0  0  0  0  0
  -23.8548   -0.4954  -14.2382 C   0  0  0  0  0  0  0  0  0  0  0  0
  -16.7371    0.6852  -15.5318 O   0  0  0  0  0  0  0  0  0  0  0  0
  -17.3211    1.7583  -15.6608 C   0  0  0  0  0  0  0  0  0  0  0  0
  -16.7147    2.8577  -16.2379 N   0  0  0  0  0  0  0  0  0  0  0  0
  -17.2095    3.7377  -16.1475 H   0  0  0  0  0  0  0  0  0  0  0  0
  -15.3186    2.9051  -16.6609 C   0  0  0  0  0  0  0  0  0  0  0  0
  -14.4210    3.2097  -15.4539 C   0  0  0  0  0  0  0  0  0  0  0  0
  -12.9677    3.4553  -15.8497 C   0  0  0  0  0  0  0  0  0  0  0  0
  -12.8540    4.5467  -16.9075 C   0  0  0  0  0  0  0  0  0  0  0  0
  -13.6807    4.1935  -18.1380 C   0  0  0  0  0  0  0  0  0  0  0  0
  -15.1451    3.9478  -17.7782 C   0  0  0  0  0  0  0  0  0  0  0  0
 16 17  2  0  0  0
 17 18  1  0  0  0
 17  1  1  0  0  0
 18 20  1  0  0  0
 18 19  1  0  0  0
 20 21  1  0  0  0
 20 25  1  0  0  0
 21 22  1  0  0  0
 22 23  1  0  0  0
 23 24  1  0  0  0
 24 25  1  0  0  0
  1  2  2  0  0  0
  1  8  1  0  0  0
  2  3  1  0  0  0
  3  4  2  0  0  0
  3  7  1  0  0  0
  4 10  1  0  0  0
  4  5  1  0  0  0
 10 11  1  0  0  0
 10 15  2  0  0  0
 11 12  2  0  0  0
 12 13  1  0  0  0
 13 14  2  0  0  0
 14 15  1  0  0  0
  5  6  1  0  0  0
  5  9  1  0  0  0
  6  7  2  0  0  0
  7  8  1  0  0  0
M  END
> <minimizedAffinity>
-9.41879

$$$$
