CHEMBL1085294


 36 42  0  0  0  0  0  0  0  0999 V2000
  -15.8795    1.4670  -15.1957 N   0  0  0  0  0  0  0  0  0  0  0  0
  -15.0423    2.5933  -15.3619 C   0  0  0  0  0  0  0  0  0  0  0  0
  -15.2091    3.7911  -16.0792 C   0  0  0  0  0  0  0  0  0  0  0  0
  -14.1870    4.7592  -16.0035 C   0  0  0  0  0  0  0  0  0  0  0  0
  -13.0202    4.5661  -15.2490 C   0  0  0  0  0  0  0  0  0  0  0  0
  -12.8706    3.3487  -14.5731 C   0  0  0  0  0  0  0  0  0  0  0  0
  -13.8628    2.3591  -14.6508 C   0  0  0  0  0  0  0  0  0  0  0  0
  -14.0144    1.0647  -14.2127 C   0  0  0  0  0  0  0  0  0  0  0  0
  -12.9709    0.2369  -13.7770 C   0  0  0  0  0  0  0  0  0  0  0  0
  -13.2755   -1.1449  -13.7843 C   0  0  0  0  0  0  0  0  0  0  0  0
  -14.5661   -1.6407  -14.0721 C   0  0  0  0  0  0  0  0  0  0  0  0
  -15.5810   -0.6913  -13.7477 C   0  0  0  0  0  0  0  0  0  0  0  0
  -15.2758    0.5559  -14.3318 C   0  0  0  0  0  0  0  0  0  0  0  0
  -15.8432   -0.7966  -12.1669 C   0  0  0  0  0  0  0  0  0  0  0  0
  -15.5912   -2.2013  -11.4774 C   0  0  0  0  0  0  0  0  0  0  0  0
  -15.3749   -3.2512  -12.5036 C   0  0  0  0  0  0  0  0  0  0  0  0
  -14.8869   -3.0016  -13.7616 C   0  0  0  0  0  0  0  0  0  0  0  0
  -15.0898   -4.1833  -14.4778 C   0  0  0  0  0  0  0  0  0  0  0  0
  -15.4762   -5.1821  -13.6727 N   0  0  0  0  0  0  0  0  0  0  0  0
  -15.5236   -4.6060  -12.4467 N   0  0  0  0  0  0  0  0  0  0  0  0
  -15.5876   -5.4448  -11.2763 C   0  0  0  0  0  0  0  0  0  0  0  0
  -12.1156   -1.8407  -13.2818 C   0  0  0  0  0  0  0  0  0  0  0  0
  -11.8795   -3.0117  -13.0192 O   0  0  0  0  0  0  0  0  0  0  0  0
  -11.1917   -0.8285  -13.0265 N   0  0  0  0  0  0  0  0  0  0  0  0
  -11.6113    0.5222  -13.3370 C   0  0  0  0  0  0  0  0  0  0  0  0
  -10.3321   -1.0578  -12.5500 H   0  0  0  0  0  0  0  0  0  0  0  0
  -11.9721    5.6558  -15.0269 C   0  0  0  0  0  0  0  0  0  0  0  0
  -12.3622    7.0933  -15.3732 C   0  0  0  0  0  0  0  0  0  0  0  0
  -12.4623    7.2871  -16.8798 C   0  0  0  0  0  0  0  0  0  0  0  0
  -11.1861    6.8293  -17.5725 C   0  0  0  0  0  0  0  0  0  0  0  0
  -10.6965    5.4776  -17.0738 C   0  0  0  0  0  0  0  0  0  0  0  0
  -10.7047    5.3653  -15.6507 O   0  0  0  0  0  0  0  0  0  0  0  0
  -17.1685    1.2940  -15.8666 C   0  0  0  0  0  0  0  0  0  0  0  0
  -18.9259    3.1203  -15.4541 C   0  0  0  0  0  0  0  0  0  0  0  0
  -18.4032    1.7417  -15.0357 C   0  0  0  0  0  0  0  0  0  0  0  0
  -19.5525    0.7235  -15.1583 C   0  0  0  0  0  0  0  0  0  0  0  0
 34 35  1  0  0  0
 35 36  1  0  0  0
 35 33  1  0  0  0
 33  1  1  0  0  0
  1  2  1  0  0  0
  1 13  1  0  0  0
  2  3  1  0  0  0
  2  7  2  0  0  0
  3  4  2  0  0  0
  4  5  1  0  0  0
  5 27  1  0  0  0
  5  6  2  0  0  0
 27 28  1  0  0  0
 27 32  1  0  0  0
 28 29  1  0  0  0
 29 30  1  0  0  0
 30 31  1  0  0  0
 31 32  1  0  0  0
  6  7  1  0  0  0
  7  8  1  0  0  0
  8  9  1  0  0  0
  8 13  2  0  0  0
  9 10  2  0  0  0
  9 25  1  0  0  0
 10 11  1  0  0  0
 10 22  1  0  0  0
 11 12  2  0  0  0
 11 17  1  0  0  0
 12 13  1  0  0  0
 12 14  1  0  0  0
 14 15  1  0  0  0
 15 16  1  0  0  0
 16 17  2  0  0  0
 16 20  1  0  0  0
 17 18  1  0  0  0
 18 19  2  0  0  0
 19 20  1  0  0  0
 20 21  1  0  0  0
 22 23  2  0  0  0
 22 24  1  0  0  0
 24 25  1  0  0  0
 24 26  1  0  0  0
M  END
> <minimizedAffinity>
-8.29588

$$$$
