CHEMBL4590694


 35 38  0  0  0  0  0  0  0  0999 V2000
  -20.1417    2.0131  -14.4053 C   0  0  0  0  0  0  0  0  0  0  0  0
  -19.1857    0.9972  -14.5587 C   0  0  0  0  0  0  0  0  0  0  0  0
  -17.9567    1.2471  -15.1653 C   0  0  0  0  0  0  0  0  0  0  0  0
  -17.6706    2.5239  -15.6337 C   0  0  0  0  0  0  0  0  0  0  0  0
  -18.6344    3.5377  -15.5426 C   0  0  0  0  0  0  0  0  0  0  0  0
  -19.8639    3.2820  -14.9262 C   0  0  0  0  0  0  0  0  0  0  0  0
  -21.8007   -0.3640  -14.3391 O   0  0  0  0  0  0  0  0  0  0  0  0
  -22.1530    0.6743  -13.7939 C   0  0  0  0  0  0  0  0  0  0  0  0
  -23.3763    0.8392  -13.1633 N   0  0  0  0  0  0  0  0  0  0  0  0
  -21.3859    1.8249  -13.7531 N   0  0  0  0  0  0  0  0  0  0  0  0
  -23.6190    1.7763  -12.8855 H   0  0  0  0  0  0  0  0  0  0  0  0
  -21.6831    2.5515  -13.1217 H   0  0  0  0  0  0  0  0  0  0  0  0
  -24.4107   -0.1236  -13.1086 C   0  0  0  0  0  0  0  0  0  0  0  0
  -24.8188   -0.8893  -14.2060 C   0  0  0  0  0  0  0  0  0  0  0  0
  -25.9023   -1.7644  -14.1074 C   0  0  0  0  0  0  0  0  0  0  0  0
  -26.5778   -1.9017  -12.9008 C   0  0  0  0  0  0  0  0  0  0  0  0
  -26.1586   -1.1749  -11.7889 C   0  0  0  0  0  0  0  0  0  0  0  0
  -25.0780   -0.2924  -11.8901 C   0  0  0  0  0  0  0  0  0  0  0  0
  -16.3449    2.7710  -16.2543 C   0  0  0  0  0  0  0  0  0  0  0  0
  -15.6497    1.8272  -16.6004 O   0  0  0  0  0  0  0  0  0  0  0  0
  -16.0497    4.1169  -16.4222 N   0  0  0  0  0  0  0  0  0  0  0  0
  -16.6522    4.7995  -15.9658 H   0  0  0  0  0  0  0  0  0  0  0  0
  -15.5130    4.4668  -17.6249 N   0  0  0  0  0  0  0  0  0  0  0  0
  -14.3953    5.1159  -17.5931 C   0  0  0  0  0  0  0  0  0  0  0  0
  -13.4333    5.3641  -16.4315 C   0  0  0  0  0  0  0  0  0  0  0  0
  -13.3542    4.6995  -15.4180 O   0  0  0  0  0  0  0  0  0  0  0  0
  -12.8007    6.5522  -16.7356 N   0  0  0  0  0  0  0  0  0  0  0  0
  -13.3605    7.0970  -17.8900 C   0  0  0  0  0  0  0  0  0  0  0  0
  -13.4402    8.4315  -18.2254 C   0  0  0  0  0  0  0  0  0  0  0  0
  -14.2766    8.7699  -19.3007 C   0  0  0  0  0  0  0  0  0  0  0  0
  -14.9284    7.7768  -20.0566 C   0  0  0  0  0  0  0  0  0  0  0  0
  -15.7283    8.1453  -21.0652 F   0  0  0  0  0  0  0  0  0  0  0  0
  -14.8554    6.4375  -19.7099 C   0  0  0  0  0  0  0  0  0  0  0  0
  -14.1128    6.1478  -18.5837 C   0  0  0  0  0  0  0  0  0  0  0  0
  -12.1524    7.0087  -16.1103 H   0  0  0  0  0  0  0  0  0  0  0  0
  7  8  2  0  0  0
  8  9  1  0  0  0
  8 10  1  0  0  0
  9 13  1  0  0  0
  9 11  1  0  0  0
 13 14  1  0  0  0
 13 18  2  0  0  0
 14 15  2  0  0  0
 15 16  1  0  0  0
 16 17  2  0  0  0
 17 18  1  0  0  0
 10  1  1  0  0  0
 10 12  1  0  0  0
  1  2  1  0  0  0
  1  6  2  0  0  0
  2  3  2  0  0  0
  3  4  1  0  0  0
  4 19  1  0  0  0
  4  5  2  0  0  0
 19 20  2  0  0  0
 19 21  1  0  0  0
 21 23  1  0  0  0
 21 22  1  0  0  0
 23 24  2  0  0  0
 24 25  1  0  0  0
 24 34  1  0  0  0
 25 26  2  0  0  0
 25 27  1  0  0  0
 27 28  1  0  0  0
 27 35  1  0  0  0
 28 29  1  0  0  0
 28 34  2  0  0  0
 29 30  2  0  0  0
 30 31  1  0  0  0
 31 32  1  0  0  0
 31 33  2  0  0  0
 33 34  1  0  0  0
  5  6  1  0  0  0
M  END
> <minimizedAffinity>
-9.97251

$$$$
