CHEMBL4064941


 32 35  0  0  0  0  0  0  0  0999 V2000
  -28.6562   -4.5215   -6.1956 C   0  0  0  0  0  0  0  0  0  0  0  0
  -28.1438   -3.2857   -5.8095 C   0  0  0  0  0  0  0  0  0  0  0  0
  -27.7966   -2.3110   -6.7442 C   0  0  0  0  0  0  0  0  0  0  0  0
  -28.0420   -2.4911   -8.1045 C   0  0  0  0  0  0  0  0  0  0  0  0
  -28.6633   -3.6739   -8.5055 C   0  0  0  0  0  0  0  0  0  0  0  0
  -28.9504   -4.6818   -7.5634 C   0  0  0  0  0  0  0  0  0  0  0  0
  -31.4867   -3.2815   -4.3859 C   0  0  0  0  0  0  0  0  0  0  0  0
  -31.0860   -4.6158   -3.8755 C   0  0  0  0  0  0  0  0  0  0  0  0
  -31.8386   -5.1403   -2.8870 N   0  0  0  0  0  0  0  0  0  0  0  0
  -31.2369   -6.3084   -2.6181 N   0  0  0  0  0  0  0  0  0  0  0  0
  -30.1512   -6.5755   -3.3979 C   0  0  0  0  0  0  0  0  0  0  0  0
  -29.4043   -7.6947   -3.3084 N   0  0  0  0  0  0  0  0  0  0  0  0
  -28.3985   -7.7210   -4.1970 C   0  0  0  0  0  0  0  0  0  0  0  0
  -28.1220   -6.7231   -5.1228 C   0  0  0  0  0  0  0  0  0  0  0  0
  -28.9220   -5.5662   -5.1910 C   0  0  0  0  0  0  0  0  0  0  0  0
  -30.0019   -5.4929   -4.2648 C   0  0  0  0  0  0  0  0  0  0  0  0
  -31.6129   -6.9066   -1.8934 H   0  0  0  0  0  0  0  0  0  0  0  0
  -27.7295   -1.5005   -9.0707 N   0  0  0  0  0  0  0  0  0  0  0  0
  -27.0807   -1.7568  -10.2667 C   0  0  0  0  0  0  0  0  0  0  0  0
  -26.8512   -2.8779  -10.7085 O   0  0  0  0  0  0  0  0  0  0  0  0
  -26.6624   -0.5897  -10.8976 N   0  0  0  0  0  0  0  0  0  0  0  0
  -28.1660   -0.5966   -8.9744 H   0  0  0  0  0  0  0  0  0  0  0  0
  -26.4111    0.1586  -10.2684 H   0  0  0  0  0  0  0  0  0  0  0  0
  -25.9050   -0.6874  -12.0943 C   0  0  0  0  0  0  0  0  0  0  0  0
  -26.2147   -1.6490  -13.0552 C   0  0  0  0  0  0  0  0  0  0  0  0
  -25.3873   -1.8176  -14.1530 C   0  0  0  0  0  0  0  0  0  0  0  0
  -24.2525   -1.0155  -14.2952 C   0  0  0  0  0  0  0  0  0  0  0  0
  -23.9059   -0.0186  -13.3622 C   0  0  0  0  0  0  0  0  0  0  0  0
  -24.7882    0.1451  -12.2743 C   0  0  0  0  0  0  0  0  0  0  0  0
  -22.7764    0.7788  -13.5559 N   0  0  0  0  0  0  0  0  0  0  0  0
  -22.9262    2.2365  -13.6329 C   0  0  0  0  0  0  0  0  0  0  0  0
  -21.6114    0.2770  -14.2811 C   0  0  0  0  0  0  0  0  0  0  0  0
  7  8  1  0  0  0
  8  9  2  0  0  0
  8 16  1  0  0  0
  9 10  1  0  0  0
 10 11  1  0  0  0
 10 17  1  0  0  0
 11 12  1  0  0  0
 11 16  2  0  0  0
 12 13  2  0  0  0
 13 14  1  0  0  0
 14 15  2  0  0  0
 15  1  1  0  0  0
 15 16  1  0  0  0
  1  2  1  0  0  0
  1  6  2  0  0  0
  2  3  2  0  0  0
  3  4  1  0  0  0
  4 18  1  0  0  0
  4  5  2  0  0  0
 18 19  1  0  0  0
 18 22  1  0  0  0
 19 20  2  0  0  0
 19 21  1  0  0  0
 21 24  1  0  0  0
 21 23  1  0  0  0
 24 25  1  0  0  0
 24 29  2  0  0  0
 25 26  2  0  0  0
 26 27  1  0  0  0
 27 28  2  0  0  0
 28 30  1  0  0  0
 28 29  1  0  0  0
 30 31  1  0  0  0
 30 32  1  0  0  0
  5  6  1  0  0  0
M  END
> <minimizedAffinity>
-8.79655

$$$$
