CHEMBL371373


 35 38  0  0  0  0  0  0  0  0999 V2000
  -28.6130   -3.6468   -5.0224 C   0  0  0  0  0  0  0  0  0  0  0  0
  -28.4825   -4.4413   -3.9129 C   0  0  0  0  0  0  0  0  0  0  0  0
  -28.8725   -5.6988   -4.2511 N   0  0  0  0  0  0  0  0  0  0  0  0
  -28.9006   -6.7164   -3.3792 N   0  0  0  0  0  0  0  0  0  0  0  0
  -29.2367   -7.8459   -3.9036 C   0  0  0  0  0  0  0  0  0  0  0  0
  -29.5292   -8.0689   -5.2181 N   0  0  0  0  0  0  0  0  0  0  0  0
  -29.5205   -7.0859   -6.0766 C   0  0  0  0  0  0  0  0  0  0  0  0
  -29.1958   -5.7611   -5.5871 C   0  0  0  0  0  0  0  0  0  0  0  0
  -29.0785   -4.4661   -6.1197 C   0  0  0  0  0  0  0  0  0  0  0  0
  -28.3910   -0.0667   -5.0342 C   0  0  0  0  0  0  0  0  0  0  0  0
  -27.1288   -0.3470   -4.8037 N   0  0  0  0  0  0  0  0  0  0  0  0
  -27.0463   -1.7181   -4.7775 N   0  0  0  0  0  0  0  0  0  0  0  0
  -28.2568   -2.1937   -5.0055 C   0  0  0  0  0  0  0  0  0  0  0  0
  -29.1691   -1.1785   -5.1972 O   0  0  0  0  0  0  0  0  0  0  0  0
  -30.4149    1.1467   -5.7310 C   0  0  0  0  0  0  0  0  0  0  0  0
  -29.0619    1.2494   -5.0455 C   0  0  0  0  0  0  0  0  0  0  0  0
  -29.2449   -3.9118   -7.5284 C   0  0  0  0  0  0  0  0  0  0  0  0
  -28.0272   -4.2285   -8.4015 C   0  0  0  0  0  0  0  0  0  0  0  0
  -30.5369   -4.2162   -8.2722 C   0  0  0  0  0  0  0  0  0  0  0  0
  -29.8360   -7.3597   -7.3909 N   0  0  0  0  0  0  0  0  0  0  0  0
  -30.7426   -6.9844   -7.6522 H   0  0  0  0  0  0  0  0  0  0  0  0
  -29.6098   -8.6121   -8.0158 C   0  0  0  0  0  0  0  0  0  0  0  0
  -28.3452   -8.9943   -8.4903 C   0  0  0  0  0  0  0  0  0  0  0  0
  -28.1517  -10.2355   -9.1231 C   0  0  0  0  0  0  0  0  0  0  0  0
  -29.2513  -11.0793   -9.3000 C   0  0  0  0  0  0  0  0  0  0  0  0
  -29.1211  -12.2689   -9.9075 F   0  0  0  0  0  0  0  0  0  0  0  0
  -30.5169  -10.7138   -8.8565 C   0  0  0  0  0  0  0  0  0  0  0  0
  -30.6843   -9.4868   -8.2271 C   0  0  0  0  0  0  0  0  0  0  0  0
  -31.9057   -9.1407   -7.7929 F   0  0  0  0  0  0  0  0  0  0  0  0
  -26.7706  -10.6149   -9.5373 C   0  0  0  0  0  0  0  0  0  0  0  0
  -26.3627  -10.2852  -10.6471 O   0  0  0  0  0  0  0  0  0  0  0  0
  -26.0178  -11.2884   -8.6034 N   0  0  0  0  0  0  0  0  0  0  0  0
  -26.4411  -11.8001   -7.8354 H   0  0  0  0  0  0  0  0  0  0  0  0
  -24.7541  -11.7528   -9.0268 O   0  0  0  0  0  0  0  0  0  0  0  0
  -23.9436  -11.9149   -7.8648 C   0  0  0  0  0  0  0  0  0  0  0  0
 15 16  1  0  0  0
 16 10  1  0  0  0
 10 11  2  0  0  0
 10 14  1  0  0  0
 11 12  1  0  0  0
 12 13  2  0  0  0
 13  1  1  0  0  0
 13 14  1  0  0  0
  1  2  2  0  0  0
  1  9  1  0  0  0
  2  3  1  0  0  0
  3  4  1  0  0  0
  3  8  1  0  0  0
  4  5  2  0  0  0
  5  6  1  0  0  0
  6  7  2  0  0  0
  7 20  1  0  0  0
  7  8  1  0  0  0
 20 22  1  0  0  0
 20 21  1  0  0  0
 22 23  1  0  0  0
 22 28  2  0  0  0
 23 24  2  0  0  0
 24 30  1  0  0  0
 24 25  1  0  0  0
 30 31  2  0  0  0
 30 32  1  0  0  0
 32 34  1  0  0  0
 32 33  1  0  0  0
 34 35  1  0  0  0
 25 26  1  0  0  0
 25 27  2  0  0  0
 27 28  1  0  0  0
 28 29  1  0  0  0
  8  9  2  0  0  0
  9 17  1  0  0  0
 17 18  1  0  0  0
 17 19  1  0  0  0
M  END
> <minimizedAffinity>
-8.20539

$$$$
