CHEMBL359652


 28 30  0  0  0  0  0  0  0  0999 V2000
  -28.6581   -8.2702   -6.9157 C   0  0  0  0  0  0  0  0  0  0  0  0
  -27.7956   -9.0344   -7.7936 C   0  0  0  0  0  0  0  0  0  0  0  0
  -27.1437   -9.9535   -6.9928 C   0  0  0  0  0  0  0  0  0  0  0  0
  -27.5339   -9.7776   -5.7051 N   0  0  0  0  0  0  0  0  0  0  0  0
  -27.0551  -10.4857   -4.6770 N   0  0  0  0  0  0  0  0  0  0  0  0
  -27.5717  -10.1557   -3.5412 C   0  0  0  0  0  0  0  0  0  0  0  0
  -28.5414   -9.2204   -3.3318 N   0  0  0  0  0  0  0  0  0  0  0  0
  -29.0435   -8.5404   -4.3230 C   0  0  0  0  0  0  0  0  0  0  0  0
  -28.4747   -8.7890   -5.6306 C   0  0  0  0  0  0  0  0  0  0  0  0
  -27.6337   -8.9682   -9.2459 C   0  0  0  0  0  0  0  0  0  0  0  0
  -26.9145   -8.1588   -9.8164 O   0  0  0  0  0  0  0  0  0  0  0  0
  -28.4637   -9.8480   -9.8829 O   0  0  0  0  0  0  0  0  0  0  0  0
  -27.9350  -10.4666  -11.0603 C   0  0  0  0  0  0  0  0  0  0  0  0
  -28.8883  -10.1746  -12.2070 C   0  0  0  0  0  0  0  0  0  0  0  0
  -30.0627   -7.6360   -4.1039 N   0  0  0  0  0  0  0  0  0  0  0  0
  -30.8541   -7.9617   -3.5712 H   0  0  0  0  0  0  0  0  0  0  0  0
  -29.9714   -6.2220   -4.1127 C   0  0  0  0  0  0  0  0  0  0  0  0
  -31.0827   -5.3725   -4.1340 C   0  0  0  0  0  0  0  0  0  0  0  0
  -30.9390   -3.9815   -4.1328 C   0  0  0  0  0  0  0  0  0  0  0  0
  -29.6767   -3.3915   -4.1162 C   0  0  0  0  0  0  0  0  0  0  0  0
  -29.5670   -1.8984   -4.1539 C   0  0  0  0  0  0  0  0  0  0  0  0
  -28.5605   -4.2343   -4.0752 C   0  0  0  0  0  0  0  0  0  0  0  0
  -27.2795   -3.7594   -4.0636 O   0  0  0  0  0  0  0  0  0  0  0  0
  -28.7083   -5.6246   -4.0553 C   0  0  0  0  0  0  0  0  0  0  0  0
  -27.2941   -2.7952   -4.1496 H   0  0  0  0  0  0  0  0  0  0  0  0
  -29.5763   -7.1624   -7.3505 C   0  0  0  0  0  0  0  0  0  0  0  0
  -29.7459   -4.6629   -7.6122 C   0  0  0  0  0  0  0  0  0  0  0  0
  -28.8229   -5.8708   -7.6790 C   0  0  0  0  0  0  0  0  0  0  0  0
 27 28  1  0  0  0
 28 26  1  0  0  0
 26  1  1  0  0  0
  1  2  1  0  0  0
  1  9  2  0  0  0
  2 10  1  0  0  0
  2  3  2  0  0  0
 10 11  2  0  0  0
 10 12  1  0  0  0
 12 13  1  0  0  0
 13 14  1  0  0  0
  3  4  1  0  0  0
  4  5  1  0  0  0
  4  9  1  0  0  0
  5  6  2  0  0  0
  6  7  1  0  0  0
  7  8  2  0  0  0
  8 15  1  0  0  0
  8  9  1  0  0  0
 15 17  1  0  0  0
 15 16  1  0  0  0
 17 18  1  0  0  0
 17 24  2  0  0  0
 18 19  2  0  0  0
 19 20  1  0  0  0
 20 21  1  0  0  0
 20 22  2  0  0  0
 22 23  1  0  0  0
 22 24  1  0  0  0
 23 25  1  0  0  0
M  END
> <minimizedAffinity>
-7.35984

$$$$
