CHEMBL4473213


 39 43  0  0  0  0  0  0  0  0999 V2000
  -24.3220   -1.1280  -13.1831 C   0  0  0  0  0  0  0  0  0  0  0  0
  -24.2344   -0.4974  -14.4265 C   0  0  0  0  0  0  0  0  0  0  0  0
  -23.2524    0.4484  -14.6327 C   0  0  0  0  0  0  0  0  0  0  0  0
  -22.3610    0.7650  -13.5954 C   0  0  0  0  0  0  0  0  0  0  0  0
  -22.3308    0.0435  -12.4091 C   0  0  0  0  0  0  0  0  0  0  0  0
  -23.3288   -0.9116  -12.2075 C   0  0  0  0  0  0  0  0  0  0  0  0
  -21.6249    1.9536  -13.7552 N   0  0  0  0  0  0  0  0  0  0  0  0
  -22.1828    3.0594  -14.3680 C   0  0  0  0  0  0  0  0  0  0  0  0
  -21.3141    3.7232  -15.0817 N   0  0  0  0  0  0  0  0  0  0  0  0
  -20.1535    3.0324  -14.8981 C   0  0  0  0  0  0  0  0  0  0  0  0
  -18.9751    3.1553  -15.6199 C   0  0  0  0  0  0  0  0  0  0  0  0
  -17.8619    2.3459  -15.3316 C   0  0  0  0  0  0  0  0  0  0  0  0
  -17.9529    1.4630  -14.2389 C   0  0  0  0  0  0  0  0  0  0  0  0
  -19.1534    1.2797  -13.5184 C   0  0  0  0  0  0  0  0  0  0  0  0
  -20.2571    2.0404  -13.9289 C   0  0  0  0  0  0  0  0  0  0  0  0
  -16.7029    2.4339  -16.2443 C   0  0  0  0  0  0  0  0  0  0  0  0
  -15.8981    1.2914  -16.4413 C   0  0  0  0  0  0  0  0  0  0  0  0
  -14.6857    1.3513  -17.1131 C   0  0  0  0  0  0  0  0  0  0  0  0
  -14.2784    2.5597  -17.6620 C   0  0  0  0  0  0  0  0  0  0  0  0
  -15.0619    3.7092  -17.5253 C   0  0  0  0  0  0  0  0  0  0  0  0
  -16.2701    3.6430  -16.8158 C   0  0  0  0  0  0  0  0  0  0  0  0
  -12.7236    2.6093  -18.5074 S   0  0  0  0  0  0  0  0  0  0  0  0
  -11.6767    3.4306  -17.3348 C   0  0  0  0  0  0  0  0  0  0  0  0
  -12.2570    1.2430  -18.6552 O   0  0  0  0  0  0  0  0  0  0  0  0
  -12.8770    3.4738  -19.6620 O   0  0  0  0  0  0  0  0  0  0  0  0
  -25.5127   -2.0032  -12.9025 C   0  0  0  0  0  0  0  0  0  0  0  0
  -26.2947   -2.5021  -10.6348 N   0  0  0  0  0  0  0  0  0  0  0  0
  -26.3660   -1.6493  -11.7093 C   0  0  0  0  0  0  0  0  0  0  0  0
  -27.0570   -0.6275  -11.7888 O   0  0  0  0  0  0  0  0  0  0  0  0
  -25.7094   -3.3255  -10.6791 H   0  0  0  0  0  0  0  0  0  0  0  0
  -28.3264   -2.7773   -7.7455 C   0  0  0  0  0  0  0  0  0  0  0  0
  -27.7205   -3.3826   -8.8243 C   0  0  0  0  0  0  0  0  0  0  0  0
  -27.0184   -2.3402   -9.4726 C   0  0  0  0  0  0  0  0  0  0  0  0
  -27.1677   -1.1936   -8.8067 N   0  0  0  0  0  0  0  0  0  0  0  0
  -27.9825   -1.4641   -7.7391 O   0  0  0  0  0  0  0  0  0  0  0  0
  -28.4962   -4.1499   -5.6828 C   0  0  0  0  0  0  0  0  0  0  0  0
  -29.2577   -3.2471   -6.6669 C   0  0  0  0  0  0  0  0  0  0  0  0
  -30.4070   -4.0399   -7.3124 C   0  0  0  0  0  0  0  0  0  0  0  0
  -29.8536   -2.0590   -5.8868 C   0  0  0  0  0  0  0  0  0  0  0  0
 36 37  1  0  0  0
 37 38  1  0  0  0
 37 39  1  0  0  0
 37 31  1  0  0  0
 31 32  2  0  0  0
 31 35  1  0  0  0
 32 33  1  0  0  0
 33 27  1  0  0  0
 33 34  2  0  0  0
 27 28  1  0  0  0
 27 30  1  0  0  0
 28 29  2  0  0  0
 28 26  1  0  0  0
 26  1  1  0  0  0
  1  2  1  0  0  0
  1  6  2  0  0  0
  2  3  2  0  0  0
  3  4  1  0  0  0
  4  7  1  0  0  0
  4  5  2  0  0  0
  7  8  1  0  0  0
  7 15  1  0  0  0
  8  9  2  0  0  0
  9 10  1  0  0  0
 10 11  1  0  0  0
 10 15  2  0  0  0
 11 12  2  0  0  0
 12 16  1  0  0  0
 12 13  1  0  0  0
 16 17  1  0  0  0
 16 21  2  0  0  0
 17 18  2  0  0  0
 18 19  1  0  0  0
 19 22  1  0  0  0
 19 20  2  0  0  0
 22 23  1  0  0  0
 22 24  2  0  0  0
 22 25  2  0  0  0
 20 21  1  0  0  0
 13 14  2  0  0  0
 14 15  1  0  0  0
  5  6  1  0  0  0
 34 35  1  0  0  0
M  END
> <minimizedAffinity>
-10.00966

$$$$
