CHEMBL383671


 27 30  0  0  0  0  0  0  0  0999 V2000
  -30.7302  -10.2280   -7.1434 C   0  0  0  0  0  0  0  0  0  0  0  0
  -29.5225  -10.5698   -6.5588 C   0  0  0  0  0  0  0  0  0  0  0  0
  -29.0176   -9.4799   -5.9198 N   0  0  0  0  0  0  0  0  0  0  0  0
  -27.8596   -9.4523   -5.2382 N   0  0  0  0  0  0  0  0  0  0  0  0
  -27.5816   -8.3074   -4.6994 C   0  0  0  0  0  0  0  0  0  0  0  0
  -28.3460   -7.1728   -4.7492 N   0  0  0  0  0  0  0  0  0  0  0  0
  -29.4618   -7.2406   -5.3950 C   0  0  0  0  0  0  0  0  0  0  0  0
  -29.8727   -8.4289   -6.0583 C   0  0  0  0  0  0  0  0  0  0  0  0
  -30.9653   -8.8416   -6.8121 C   0  0  0  0  0  0  0  0  0  0  0  0
  -32.1706   -8.0589   -7.2136 C   0  0  0  0  0  0  0  0  0  0  0  0
  -31.5690  -11.1371   -7.9250 C   0  0  0  0  0  0  0  0  0  0  0  0
  -31.1723  -11.7455   -8.9121 O   0  0  0  0  0  0  0  0  0  0  0  0
  -32.9540  -11.9905   -6.2286 C   0  0  0  0  0  0  0  0  0  0  0  0
  -32.8362  -11.2222   -7.4235 O   0  0  0  0  0  0  0  0  0  0  0  0
  -30.3827   -6.2110   -5.4741 O   0  0  0  0  0  0  0  0  0  0  0  0
  -29.9155   -4.9328   -5.8436 C   0  0  0  0  0  0  0  0  0  0  0  0
  -29.3852   -4.7025   -7.1160 C   0  0  0  0  0  0  0  0  0  0  0  0
  -28.8845   -3.4485   -7.4641 C   0  0  0  0  0  0  0  0  0  0  0  0
  -28.8921   -2.4514   -6.4839 C   0  0  0  0  0  0  0  0  0  0  0  0
  -28.4554   -1.1486   -6.5484 N   0  0  0  0  0  0  0  0  0  0  0  0
  -28.6345   -0.5222   -5.3408 C   0  0  0  0  0  0  0  0  0  0  0  0
  -28.2454    0.8924   -5.1227 C   0  0  0  0  0  0  0  0  0  0  0  0
  -29.2055   -1.4408   -4.4824 C   0  0  0  0  0  0  0  0  0  0  0  0
  -29.3797   -2.6628   -5.1926 C   0  0  0  0  0  0  0  0  0  0  0  0
  -29.8960   -3.9301   -4.8672 C   0  0  0  0  0  0  0  0  0  0  0  0
  -30.3574   -4.1829   -3.6318 F   0  0  0  0  0  0  0  0  0  0  0  0
  -28.0514   -0.7239   -7.3718 H   0  0  0  0  0  0  0  0  0  0  0  0
 13 14  1  0  0  0
 14 11  1  0  0  0
 11 12  2  0  0  0
 11  1  1  0  0  0
  1  2  2  0  0  0
  1  9  1  0  0  0
  2  3  1  0  0  0
  3  4  1  0  0  0
  3  8  1  0  0  0
  4  5  2  0  0  0
  5  6  1  0  0  0
  6  7  2  0  0  0
  7 15  1  0  0  0
  7  8  1  0  0  0
 15 16  1  0  0  0
 16 17  1  0  0  0
 16 25  2  0  0  0
 17 18  2  0  0  0
 18 19  1  0  0  0
 19 20  1  0  0  0
 19 24  2  0  0  0
 20 21  1  0  0  0
 20 27  1  0  0  0
 21 22  1  0  0  0
 21 23  2  0  0  0
 23 24  1  0  0  0
 24 25  1  0  0  0
 25 26  1  0  0  0
  8  9  2  0  0  0
  9 10  1  0  0  0
M  END
> <minimizedAffinity>
-8.07318

$$$$
