CHEMBL3923206


 38 41  0  0  0  0  0  0  0  0999 V2000
  -13.7609    2.7654  -16.1434 C   0  0  0  0  0  0  0  0  0  0  0  0
  -15.0151    2.2211  -15.5256 C   0  0  0  0  0  0  0  0  0  0  0  0
  -14.9385    1.3536  -14.4289 C   0  0  0  0  0  0  0  0  0  0  0  0
  -16.0912    0.8278  -13.8349 C   0  0  0  0  0  0  0  0  0  0  0  0
  -17.3393    1.1387  -14.3879 C   0  0  0  0  0  0  0  0  0  0  0  0
  -17.4345    2.0402  -15.4579 C   0  0  0  0  0  0  0  0  0  0  0  0
  -16.2727    2.5729  -16.0266 C   0  0  0  0  0  0  0  0  0  0  0  0
  -16.0323   -0.0357  -12.7147 N   0  0  0  0  0  0  0  0  0  0  0  0
  -15.5089   -1.3203  -12.7350 C   0  0  0  0  0  0  0  0  0  0  0  0
  -14.8843   -1.8164  -13.6667 O   0  0  0  0  0  0  0  0  0  0  0  0
  -15.8164   -2.0105  -11.5696 N   0  0  0  0  0  0  0  0  0  0  0  0
  -16.1046    0.3918  -11.8024 H   0  0  0  0  0  0  0  0  0  0  0  0
  -16.7249   -1.7746  -11.1951 H   0  0  0  0  0  0  0  0  0  0  0  0
  -15.3782   -3.3403  -11.3747 C   0  0  0  0  0  0  0  0  0  0  0  0
  -16.1488   -4.3824  -11.8915 C   0  0  0  0  0  0  0  0  0  0  0  0
  -15.7067   -5.7001  -11.7643 C   0  0  0  0  0  0  0  0  0  0  0  0
  -14.5304   -5.9785  -11.0713 C   0  0  0  0  0  0  0  0  0  0  0  0
  -14.1491   -7.2575  -10.9621 F   0  0  0  0  0  0  0  0  0  0  0  0
  -13.7700   -4.9616  -10.5029 C   0  0  0  0  0  0  0  0  0  0  0  0
  -14.1954   -3.6310  -10.6796 C   0  0  0  0  0  0  0  0  0  0  0  0
  -12.5346   -5.2646   -9.7091 C   0  0  0  0  0  0  0  0  0  0  0  0
  -12.7475   -5.5230   -8.3893 F   0  0  0  0  0  0  0  0  0  0  0  0
  -11.8521   -6.3411  -10.1891 F   0  0  0  0  0  0  0  0  0  0  0  0
  -11.6475   -4.2272   -9.7334 F   0  0  0  0  0  0  0  0  0  0  0  0
  -18.6168    2.3780  -16.0855 O   0  0  0  0  0  0  0  0  0  0  0  0
  -19.8004    2.3903  -15.3534 C   0  0  0  0  0  0  0  0  0  0  0  0
  -20.4468    1.1759  -15.2176 C   0  0  0  0  0  0  0  0  0  0  0  0
  -21.6030    1.1922  -14.4680 C   0  0  0  0  0  0  0  0  0  0  0  0
  -22.0834    2.3240  -13.9417 N   0  0  0  0  0  0  0  0  0  0  0  0
  -21.4031    3.4518  -14.1650 C   0  0  0  0  0  0  0  0  0  0  0  0
  -20.2686    3.5464  -14.8568 N   0  0  0  0  0  0  0  0  0  0  0  0
  -22.3045   -0.0159  -14.2707 N   0  0  0  0  0  0  0  0  0  0  0  0
  -22.6663   -0.4889  -13.0265 C   0  0  0  0  0  0  0  0  0  0  0  0
  -22.3473   -0.0365  -11.9378 O   0  0  0  0  0  0  0  0  0  0  0  0
  -22.5286   -0.5672  -15.0822 H   0  0  0  0  0  0  0  0  0  0  0  0
  -23.4986   -1.7360  -13.0759 C   0  0  0  0  0  0  0  0  0  0  0  0
  -24.9917   -1.6187  -13.3075 C   0  0  0  0  0  0  0  0  0  0  0  0
  -24.4760   -2.0300  -11.9604 C   0  0  0  0  0  0  0  0  0  0  0  0
  1  2  1  0  0  0
  2  3  1  0  0  0
  2  7  2  0  0  0
  3  4  2  0  0  0
  4  8  1  0  0  0
  4  5  1  0  0  0
  8  9  1  0  0  0
  8 12  1  0  0  0
  9 10  2  0  0  0
  9 11  1  0  0  0
 11 14  1  0  0  0
 11 13  1  0  0  0
 14 15  1  0  0  0
 14 20  2  0  0  0
 15 16  2  0  0  0
 16 17  1  0  0  0
 17 18  1  0  0  0
 17 19  2  0  0  0
 19 21  1  0  0  0
 19 20  1  0  0  0
 21 22  1  0  0  0
 21 23  1  0  0  0
 21 24  1  0  0  0
  5  6  2  0  0  0
  6 25  1  0  0  0
  6  7  1  0  0  0
 25 26  1  0  0  0
 26 27  1  0  0  0
 26 31  2  0  0  0
 27 28  2  0  0  0
 28 32  1  0  0  0
 28 29  1  0  0  0
 32 33  1  0  0  0
 32 35  1  0  0  0
 33 34  2  0  0  0
 33 36  1  0  0  0
 36 37  1  0  0  0
 36 38  1  0  0  0
 37 38  1  0  0  0
 29 30  2  0  0  0
 30 31  1  0  0  0
M  END
> <minimizedAffinity>
-10.20282

$$$$
