CHEMBL3754722


 28 30  0  0  0  0  0  0  0  0999 V2000
  -15.0212    1.7724  -15.3788 C   0  0  0  0  0  0  0  0  0  0  0  0
  -14.6647    0.8116  -14.4355 C   0  0  0  0  0  0  0  0  0  0  0  0
  -15.5885    0.2100  -13.5828 C   0  0  0  0  0  0  0  0  0  0  0  0
  -16.9391    0.5667  -13.7273 C   0  0  0  0  0  0  0  0  0  0  0  0
  -17.3614    1.5559  -14.6618 C   0  0  0  0  0  0  0  0  0  0  0  0
  -16.3742    2.1322  -15.5119 C   0  0  0  0  0  0  0  0  0  0  0  0
  -15.2027   -0.7250  -12.5827 N   0  0  0  0  0  0  0  0  0  0  0  0
  -15.0127   -2.0820  -12.8175 C   0  0  0  0  0  0  0  0  0  0  0  0
  -15.0593   -2.6166  -13.9198 O   0  0  0  0  0  0  0  0  0  0  0  0
  -14.8054   -2.8130  -11.6540 N   0  0  0  0  0  0  0  0  0  0  0  0
  -14.8695   -0.3520  -11.7081 H   0  0  0  0  0  0  0  0  0  0  0  0
  -15.3088   -2.4673  -10.8487 H   0  0  0  0  0  0  0  0  0  0  0  0
  -14.6748   -4.2275  -11.7604 C   0  0  0  0  0  0  0  0  0  0  0  0
  -13.4171   -4.8395  -11.7799 C   0  0  0  0  0  0  0  0  0  0  0  0
  -13.3478   -6.1933  -12.0452 C   0  0  0  0  0  0  0  0  0  0  0  0
  -14.4320   -6.9643  -12.2731 N   0  0  0  0  0  0  0  0  0  0  0  0
  -15.6325   -6.3486  -12.2225 C   0  0  0  0  0  0  0  0  0  0  0  0
  -15.8099   -5.0015  -11.9422 C   0  0  0  0  0  0  0  0  0  0  0  0
  -18.7831    1.9981  -14.6776 C   0  0  0  0  0  0  0  0  0  0  0  0
  -19.8293    1.1584  -15.0386 C   0  0  0  0  0  0  0  0  0  0  0  0
  -21.1444    1.4809  -15.0054 N   0  0  0  0  0  0  0  0  0  0  0  0
  -21.4249    2.7170  -14.5762 C   0  0  0  0  0  0  0  0  0  0  0  0
  -20.5257    3.6425  -14.2258 N   0  0  0  0  0  0  0  0  0  0  0  0
  -19.2280    3.2551  -14.2898 C   0  0  0  0  0  0  0  0  0  0  0  0
  -12.8577    2.7967  -15.4806 C   0  0  0  0  0  0  0  0  0  0  0  0
  -14.0827    2.4457  -16.1191 O   0  0  0  0  0  0  0  0  0  0  0  0
  -16.7980    3.1061  -16.3907 O   0  0  0  0  0  0  0  0  0  0  0  0
  -16.3913    4.4433  -16.0963 C   0  0  0  0  0  0  0  0  0  0  0  0
 25 26  1  0  0  0
 26  1  1  0  0  0
  1  2  1  0  0  0
  1  6  2  0  0  0
  2  3  2  0  0  0
  3  7  1  0  0  0
  3  4  1  0  0  0
  7  8  1  0  0  0
  7 11  1  0  0  0
  8  9  2  0  0  0
  8 10  1  0  0  0
 10 13  1  0  0  0
 10 12  1  0  0  0
 13 14  1  0  0  0
 13 18  2  0  0  0
 14 15  2  0  0  0
 15 16  1  0  0  0
 16 17  2  0  0  0
 17 18  1  0  0  0
  4  5  2  0  0  0
  5 19  1  0  0  0
  5  6  1  0  0  0
 19 20  1  0  0  0
 19 24  2  0  0  0
 20 21  2  0  0  0
 21 22  1  0  0  0
 22 23  2  0  0  0
 23 24  1  0  0  0
  6 27  1  0  0  0
 27 28  1  0  0  0
M  END
> <minimizedAffinity>
-7.05267

$$$$
