CHEMBL4463898


 41 45  0  0  0  0  0  0  0  0999 V2000
  -14.1440    0.5809  -13.6838 C   0  0  0  0  0  0  0  0  0  0  0  0
  -14.2790    1.4677  -14.7512 C   0  0  0  0  0  0  0  0  0  0  0  0
  -15.5467    1.9485  -15.1522 C   0  0  0  0  0  0  0  0  0  0  0  0
  -15.7359    2.8944  -16.1705 C   0  0  0  0  0  0  0  0  0  0  0  0
  -16.9452    3.4160  -16.4479 N   0  0  0  0  0  0  0  0  0  0  0  0
  -17.9711    2.9393  -15.7396 C   0  0  0  0  0  0  0  0  0  0  0  0
  -17.9087    2.0045  -14.7822 N   0  0  0  0  0  0  0  0  0  0  0  0
  -16.6959    1.5256  -14.4888 C   0  0  0  0  0  0  0  0  0  0  0  0
  -16.5533    0.5805  -13.4823 C   0  0  0  0  0  0  0  0  0  0  0  0
  -15.3017    0.0848  -13.0763 C   0  0  0  0  0  0  0  0  0  0  0  0
  -12.3811   -1.0098  -13.8482 C   0  0  0  0  0  0  0  0  0  0  0  0
  -12.9096    0.1784  -13.2596 O   0  0  0  0  0  0  0  0  0  0  0  0
  -14.6162    3.3122  -16.9182 N   0  0  0  0  0  0  0  0  0  0  0  0
  -14.4000    2.6638  -17.6729 H   0  0  0  0  0  0  0  0  0  0  0  0
  -14.1135    4.6047  -17.1244 C   0  0  0  0  0  0  0  0  0  0  0  0
  -13.0883    5.1379  -16.3422 C   0  0  0  0  0  0  0  0  0  0  0  0
  -12.4756    6.3454  -16.6947 C   0  0  0  0  0  0  0  0  0  0  0  0
  -12.9015    7.0339  -17.8310 C   0  0  0  0  0  0  0  0  0  0  0  0
  -11.9984    8.6057  -18.3645 Br  0  0  0  0  0  0  0  0  0  0  0  0
  -13.9569    6.5518  -18.5957 C   0  0  0  0  0  0  0  0  0  0  0  0
  -14.5474    5.3424  -18.2389 C   0  0  0  0  0  0  0  0  0  0  0  0
  -15.5352    4.8536  -19.0045 F   0  0  0  0  0  0  0  0  0  0  0  0
  -15.4157   -0.8339  -12.0690 O   0  0  0  0  0  0  0  0  0  0  0  0
  -15.9320   -2.1326  -12.3405 C   0  0  0  0  0  0  0  0  0  0  0  0
  -15.9123   -2.9974  -11.0671 C   0  0  0  0  0  0  0  0  0  0  0  0
  -14.5052   -3.0684  -10.4643 C   0  0  0  0  0  0  0  0  0  0  0  0
  -13.5585   -3.9048  -11.3194 C   0  0  0  0  0  0  0  0  0  0  0  0
  -14.1171   -5.2328  -11.5670 N   0  0  0  0  0  0  0  0  0  0  0  0
  -13.2331   -6.3057  -11.6405 C   0  0  0  0  0  0  0  0  0  0  0  0
  -12.0110   -6.1624  -11.5664 O   0  0  0  0  0  0  0  0  0  0  0  0
  -15.4688   -5.2604  -12.1360 C   0  0  0  0  0  0  0  0  0  0  0  0
  -16.4432   -4.4148  -11.3274 C   0  0  0  0  0  0  0  0  0  0  0  0
  -13.8222   -7.6970  -11.7665 C   0  0  0  0  0  0  0  0  0  0  0  0
  -13.3832   -8.4169  -12.9488 N   0  0  0  0  0  0  0  0  0  0  0  0
  -12.7510   -9.6394  -12.9178 C   0  0  0  0  0  0  0  0  0  0  0  0
  -12.5063  -10.0996  -14.1243 N   0  0  0  0  0  0  0  0  0  0  0  0
  -13.0101   -9.1590  -14.9819 C   0  0  0  0  0  0  0  0  0  0  0  0
  -13.5434   -8.1070  -14.2781 C   0  0  0  0  0  0  0  0  0  0  0  0
  -14.1418   -6.9319  -14.8153 N   0  0  0  0  0  0  0  0  0  0  0  0
  -13.4043   -5.9824  -15.0957 O   0  0  0  0  0  0  0  0  0  0  0  0
  -15.3649   -6.9630  -14.9787 O   0  0  0  0  0  0  0  0  0  0  0  0
 11 12  1  0  0  0
 12  1  1  0  0  0
  1  2  1  0  0  0
  1 10  2  0  0  0
  2  3  2  0  0  0
  3  4  1  0  0  0
  3  8  1  0  0  0
  4 13  1  0  0  0
  4  5  2  0  0  0
 13 15  1  0  0  0
 13 14  1  0  0  0
 15 16  1  0  0  0
 15 21  2  0  0  0
 16 17  2  0  0  0
 17 18  1  0  0  0
 18 19  1  0  0  0
 18 20  2  0  0  0
 20 21  1  0  0  0
 21 22  1  0  0  0
  5  6  1  0  0  0
  6  7  2  0  0  0
  7  8  1  0  0  0
  8  9  2  0  0  0
  9 10  1  0  0  0
 10 23  1  0  0  0
 23 24  1  0  0  0
 24 25  1  0  0  0
 25 26  1  0  0  0
 25 32  1  0  0  0
 26 27  1  0  0  0
 27 28  1  0  0  0
 28 29  1  0  0  0
 28 31  1  0  0  0
 29 30  2  0  0  0
 29 33  1  0  0  0
 33 34  1  0  0  0
 34 35  1  0  0  0
 34 38  1  0  0  0
 35 36  2  0  0  0
 36 37  1  0  0  0
 37 38  2  0  0  0
 38 39  1  0  0  0
 39 40  2  0  0  0
 39 41  1  0  0  0
 31 32  1  0  0  0
M  CHG 1  39   1
M  CHG 1  41  -1
M  END
> <minimizedAffinity>
-8.08855

$$$$
