CHEMBL3690505


 34 37  0  0  0  0  0  0  0  0999 V2000
  -18.8431    1.9764  -14.9880 C   0  0  0  0  0  0  0  0  0  0  0  0
  -19.4254    0.6571  -15.2260 C   0  0  0  0  0  0  0  0  0  0  0  0
  -20.7167    0.4384  -14.9373 C   0  0  0  0  0  0  0  0  0  0  0  0
  -21.4845    1.4655  -14.3887 N   0  0  0  0  0  0  0  0  0  0  0  0
  -22.7861    1.4631  -13.9038 C   0  0  0  0  0  0  0  0  0  0  0  0
  -23.0281    2.7966  -13.6066 C   0  0  0  0  0  0  0  0  0  0  0  0
  -21.9259    3.5839  -13.8049 N   0  0  0  0  0  0  0  0  0  0  0  0
  -20.9918    2.7603  -14.2284 C   0  0  0  0  0  0  0  0  0  0  0  0
  -19.6181    2.9901  -14.5353 C   0  0  0  0  0  0  0  0  0  0  0  0
  -16.3867    1.5140  -14.6389 C   0  0  0  0  0  0  0  0  0  0  0  0
  -15.0799    1.6408  -14.9744 N   0  0  0  0  0  0  0  0  0  0  0  0
  -14.7835    2.5255  -15.9490 C   0  0  0  0  0  0  0  0  0  0  0  0
  -15.7270    3.3022  -16.6002 C   0  0  0  0  0  0  0  0  0  0  0  0
  -17.0641    3.1448  -16.2506 C   0  0  0  0  0  0  0  0  0  0  0  0
  -17.4184    2.2223  -15.2627 C   0  0  0  0  0  0  0  0  0  0  0  0
  -15.5754    0.0782  -12.9978 C   0  0  0  0  0  0  0  0  0  0  0  0
  -16.7250    0.6037  -13.6559 O   0  0  0  0  0  0  0  0  0  0  0  0
  -23.6609    0.2955  -13.7345 C   0  0  0  0  0  0  0  0  0  0  0  0
  -24.0816   -0.4143  -14.8660 C   0  0  0  0  0  0  0  0  0  0  0  0
  -24.9674   -1.4803  -14.7415 C   0  0  0  0  0  0  0  0  0  0  0  0
  -25.4140   -1.8788  -13.4830 C   0  0  0  0  0  0  0  0  0  0  0  0
  -24.9875   -1.2185  -12.3297 C   0  0  0  0  0  0  0  0  0  0  0  0
  -24.1451   -0.1060  -12.4732 C   0  0  0  0  0  0  0  0  0  0  0  0
  -25.3608   -1.6140  -11.0211 N   0  0  0  0  0  0  0  0  0  0  0  0
  -26.6406   -1.6524  -10.5185 C   0  0  0  0  0  0  0  0  0  0  0  0
  -27.6746   -1.3658  -11.1095 O   0  0  0  0  0  0  0  0  0  0  0  0
  -26.6799   -2.0233   -9.1931 N   0  0  0  0  0  0  0  0  0  0  0  0
  -24.6186   -1.8829  -10.3935 H   0  0  0  0  0  0  0  0  0  0  0  0
  -25.9878   -2.6947   -8.8928 H   0  0  0  0  0  0  0  0  0  0  0  0
  -27.9957   -2.0869   -8.5405 C   0  0  0  0  0  0  0  0  0  0  0  0
  -28.4319   -3.4687   -8.0299 C   0  0  0  0  0  0  0  0  0  0  0  0
  -29.7073   -3.7585   -8.3774 F   0  0  0  0  0  0  0  0  0  0  0  0
  -27.6497   -4.4293   -8.5853 F   0  0  0  0  0  0  0  0  0  0  0  0
  -28.3199   -3.5870   -6.6914 F   0  0  0  0  0  0  0  0  0  0  0  0
 16 17  1  0  0  0
 17 10  1  0  0  0
 10 11  1  0  0  0
 10 15  2  0  0  0
 11 12  2  0  0  0
 12 13  1  0  0  0
 13 14  2  0  0  0
 14 15  1  0  0  0
 15  1  1  0  0  0
  1  2  1  0  0  0
  1  9  2  0  0  0
  2  3  2  0  0  0
  3  4  1  0  0  0
  4  5  1  0  0  0
  4  8  1  0  0  0
  5 18  1  0  0  0
  5  6  2  0  0  0
 18 19  1  0  0  0
 18 23  2  0  0  0
 19 20  2  0  0  0
 20 21  1  0  0  0
 21 22  2  0  0  0
 22 24  1  0  0  0
 22 23  1  0  0  0
 24 25  1  0  0  0
 24 28  1  0  0  0
 25 26  2  0  0  0
 25 27  1  0  0  0
 27 30  1  0  0  0
 27 29  1  0  0  0
 30 31  1  0  0  0
 31 32  1  0  0  0
 31 33  1  0  0  0
 31 34  1  0  0  0
  6  7  1  0  0  0
  7  8  2  0  0  0
  8  9  1  0  0  0
M  END
> <minimizedAffinity>
-10.30121

$$$$
