CHEMBL3954050


 37 41  0  0  0  0  0  0  0  0999 V2000
  -27.9604   -2.1416   -8.5364 C   0  0  0  0  0  0  0  0  0  0  0  0
  -28.0662   -3.4641   -8.8232 N   0  0  0  0  0  0  0  0  0  0  0  0
  -28.2166   -4.3215   -7.7936 C   0  0  0  0  0  0  0  0  0  0  0  0
  -28.2771   -3.9401   -6.5098 N   0  0  0  0  0  0  0  0  0  0  0  0
  -28.1955   -2.6267   -6.2488 C   0  0  0  0  0  0  0  0  0  0  0  0
  -28.0473   -1.6703   -7.2274 C   0  0  0  0  0  0  0  0  0  0  0  0
  -27.9380   -0.0170   -6.7769 Cl  0  0  0  0  0  0  0  0  0  0  0  0
  -28.1910   -5.6858   -8.1158 N   0  0  0  0  0  0  0  0  0  0  0  0
  -27.2424   -5.9195   -8.3930 H   0  0  0  0  0  0  0  0  0  0  0  0
  -29.0541   -6.6328   -7.7214 C   0  0  0  0  0  0  0  0  0  0  0  0
  -30.4193   -6.5248   -7.3885 C   0  0  0  0  0  0  0  0  0  0  0  0
  -30.9117   -7.6796   -6.9445 N   0  0  0  0  0  0  0  0  0  0  0  0
  -29.8687   -8.5253   -6.9970 N   0  0  0  0  0  0  0  0  0  0  0  0
  -28.7321   -7.9474   -7.4948 C   0  0  0  0  0  0  0  0  0  0  0  0
  -30.0147   -9.9034   -6.5349 C   0  0  0  0  0  0  0  0  0  0  0  0
  -28.8629  -10.7963   -7.0091 C   0  0  0  0  0  0  0  0  0  0  0  0
  -29.0168  -11.2157   -8.4708 C   0  0  0  0  0  0  0  0  0  0  0  0
  -30.3167  -11.8373   -8.7318 N   0  0  0  0  0  0  0  0  0  0  0  0
  -31.4272  -10.9517   -8.3755 C   0  0  0  0  0  0  0  0  0  0  0  0
  -31.3706  -10.5096   -6.9131 C   0  0  0  0  0  0  0  0  0  0  0  0
  -30.3904  -12.7100   -8.2171 H   0  0  0  0  0  0  0  0  0  0  0  0
  -27.5559   -1.2089   -9.6621 C   0  0  0  0  0  0  0  0  0  0  0  0
  -26.2469   -1.5272  -10.4100 C   0  0  0  0  0  0  0  0  0  0  0  0
  -25.5828   -1.4445  -12.9270 C   0  0  0  0  0  0  0  0  0  0  0  0
  -26.0612   -1.4132  -14.2561 C   0  0  0  0  0  0  0  0  0  0  0  0
  -27.3608   -1.7929  -14.5849 C   0  0  0  0  0  0  0  0  0  0  0  0
  -28.2244   -2.2125  -13.5847 C   0  0  0  0  0  0  0  0  0  0  0  0
  -27.8194   -2.1513  -12.2531 C   0  0  0  0  0  0  0  0  0  0  0  0
  -26.5223   -1.7262  -11.8989 C   0  0  0  0  0  0  0  0  0  0  0  0
  -24.0750   -1.2517  -12.7017 C   0  0  0  0  0  0  0  0  0  0  0  0
  -23.4991   -1.8848  -11.4312 C   0  0  0  0  0  0  0  0  0  0  0  0
  -23.1798   -2.5095  -12.7447 C   0  0  0  0  0  0  0  0  0  0  0  0
  -23.6833    1.1411  -12.7482 N   0  0  0  0  0  0  0  0  0  0  0  0
  -23.4401   -0.0438  -13.3569 C   0  0  0  0  0  0  0  0  0  0  0  0
  -22.7318   -0.1554  -14.3484 O   0  0  0  0  0  0  0  0  0  0  0  0
  -23.2465    1.9644  -13.1424 H   0  0  0  0  0  0  0  0  0  0  0  0
  -24.2553    1.2285  -11.9191 H   0  0  0  0  0  0  0  0  0  0  0  0
 33 34  1  0  0  0
 33 36  1  0  0  0
 33 37  1  0  0  0
 34 35  2  0  0  0
 34 30  1  0  0  0
 30 24  1  0  0  0
 30 31  1  0  0  0
 30 32  1  0  0  0
 24 25  1  0  0  0
 24 29  2  0  0  0
 25 26  2  0  0  0
 26 27  1  0  0  0
 27 28  2  0  0  0
 28 29  1  0  0  0
 29 23  1  0  0  0
 23 22  1  0  0  0
 22  1  1  0  0  0
  1  2  1  0  0  0
  1  6  2  0  0  0
  2  3  2  0  0  0
  3  8  1  0  0  0
  3  4  1  0  0  0
  8 10  1  0  0  0
  8  9  1  0  0  0
 10 11  1  0  0  0
 10 14  2  0  0  0
 11 12  2  0  0  0
 12 13  1  0  0  0
 13 15  1  0  0  0
 13 14  1  0  0  0
 15 16  1  0  0  0
 15 20  1  0  0  0
 16 17  1  0  0  0
 17 18  1  0  0  0
 18 19  1  0  0  0
 18 21  1  0  0  0
 19 20  1  0  0  0
  4  5  2  0  0  0
  5  6  1  0  0  0
  6  7  1  0  0  0
 31 32  1  0  0  0
M  END
> <minimizedAffinity>
-8.98484

$$$$
