CHEMBL407008


 30 33  0  0  0  0  0  0  0  0999 V2000
  -26.2095   -1.7327  -10.6862 C   0  0  0  0  0  0  0  0  0  0  0  0
  -24.9276   -1.4154  -10.3923 N   0  0  0  0  0  0  0  0  0  0  0  0
  -24.0212   -1.1468  -11.3894 N   0  0  0  0  0  0  0  0  0  0  0  0
  -24.3942   -1.1508  -12.6857 C   0  0  0  0  0  0  0  0  0  0  0  0
  -25.7205   -1.4579  -13.0493 C   0  0  0  0  0  0  0  0  0  0  0  0
  -26.1784   -1.3761  -14.3900 C   0  0  0  0  0  0  0  0  0  0  0  0
  -27.4896   -1.6897  -14.7416 C   0  0  0  0  0  0  0  0  0  0  0  0
  -28.3562   -2.1644  -13.7743 C   0  0  0  0  0  0  0  0  0  0  0  0
  -27.9268   -2.2580  -12.4516 C   0  0  0  0  0  0  0  0  0  0  0  0
  -26.6387   -1.8271  -12.0345 C   0  0  0  0  0  0  0  0  0  0  0  0
  -28.5748   -2.2623   -7.0956 C   0  0  0  0  0  0  0  0  0  0  0  0
  -28.3258   -3.3427   -7.9412 C   0  0  0  0  0  0  0  0  0  0  0  0
  -27.6248   -3.1545   -9.1361 C   0  0  0  0  0  0  0  0  0  0  0  0
  -27.0822   -1.9051   -9.4920 C   0  0  0  0  0  0  0  0  0  0  0  0
  -27.4326   -0.8128   -8.6743 C   0  0  0  0  0  0  0  0  0  0  0  0
  -28.1769   -0.9837   -7.4949 C   0  0  0  0  0  0  0  0  0  0  0  0
  -29.3377   -1.5036   -4.9054 N   0  0  0  0  0  0  0  0  0  0  0  0
  -29.2535   -2.5330   -5.8005 C   0  0  0  0  0  0  0  0  0  0  0  0
  -29.6667   -3.6486   -5.5109 O   0  0  0  0  0  0  0  0  0  0  0  0
  -29.6776   -1.7441   -3.9828 H   0  0  0  0  0  0  0  0  0  0  0  0
  -28.8090   -0.6494   -5.0006 H   0  0  0  0  0  0  0  0  0  0  0  0
  -23.4378   -0.8953  -13.7056 N   0  0  0  0  0  0  0  0  0  0  0  0
  -22.9254   -1.7503  -13.9014 H   0  0  0  0  0  0  0  0  0  0  0  0
  -22.6610    0.2691  -13.8750 C   0  0  0  0  0  0  0  0  0  0  0  0
  -23.2065    1.5455  -13.6647 C   0  0  0  0  0  0  0  0  0  0  0  0
  -22.4667    2.6999  -13.9362 C   0  0  0  0  0  0  0  0  0  0  0  0
  -21.1723    2.5960  -14.4365 C   0  0  0  0  0  0  0  0  0  0  0  0
  -20.6273    1.3339  -14.6658 C   0  0  0  0  0  0  0  0  0  0  0  0
  -19.0286    1.2007  -15.2908 Cl  0  0  0  0  0  0  0  0  0  0  0  0
  -21.3660    0.1763  -14.4051 C   0  0  0  0  0  0  0  0  0  0  0  0
 17 18  1  0  0  0
 17 20  1  0  0  0
 17 21  1  0  0  0
 18 19  2  0  0  0
 18 11  1  0  0  0
 11 12  1  0  0  0
 11 16  2  0  0  0
 12 13  2  0  0  0
 13 14  1  0  0  0
 14  1  1  0  0  0
 14 15  2  0  0  0
  1  2  1  0  0  0
  1 10  2  0  0  0
  2  3  2  0  0  0
  3  4  1  0  0  0
  4 22  1  0  0  0
  4  5  2  0  0  0
 22 24  1  0  0  0
 22 23  1  0  0  0
 24 25  1  0  0  0
 24 30  2  0  0  0
 25 26  2  0  0  0
 26 27  1  0  0  0
 27 28  2  0  0  0
 28 29  1  0  0  0
 28 30  1  0  0  0
  5  6  1  0  0  0
  5 10  1  0  0  0
  6  7  2  0  0  0
  7  8  1  0  0  0
  8  9  2  0  0  0
  9 10  1  0  0  0
 15 16  1  0  0  0
M  END
> <minimizedAffinity>
-9.54475

$$$$
