CHEMBL3936421


 35 39  0  0  0  0  0  0  0  0999 V2000
  -28.6239   -9.9021   -5.5119 N   0  0  0  0  0  0  0  0  0  0  0  0
  -28.6737   -8.4868   -5.1777 C   0  0  0  0  0  0  0  0  0  0  0  0
  -28.9697   -8.2115   -3.8466 C   0  0  0  0  0  0  0  0  0  0  0  0
  -29.5328   -6.9939   -3.4839 C   0  0  0  0  0  0  0  0  0  0  0  0
  -29.6116   -5.9372   -4.3508 C   0  0  0  0  0  0  0  0  0  0  0  0
  -30.2903   -4.8816   -3.8809 N   0  0  0  0  0  0  0  0  0  0  0  0
  -30.1434   -3.7350   -4.5523 C   0  0  0  0  0  0  0  0  0  0  0  0
  -29.2713   -3.6259   -5.6169 C   0  0  0  0  0  0  0  0  0  0  0  0
  -28.7288   -4.7544   -6.2096 N   0  0  0  0  0  0  0  0  0  0  0  0
  -28.9418   -5.9896   -5.5873 C   0  0  0  0  0  0  0  0  0  0  0  0
  -28.5646   -7.3323   -6.0224 C   0  0  0  0  0  0  0  0  0  0  0  0
  -28.6833   -2.2953   -5.7850 C   0  0  0  0  0  0  0  0  0  0  0  0
  -28.0324   -1.6358   -6.8507 C   0  0  0  0  0  0  0  0  0  0  0  0
  -27.8244   -0.3303   -6.6107 N   0  0  0  0  0  0  0  0  0  0  0  0
  -28.3444   -0.1427   -5.3850 N   0  0  0  0  0  0  0  0  0  0  0  0
  -28.2048    1.1238   -4.7007 C   0  0  0  0  0  0  0  0  0  0  0  0
  -28.9647   -1.2579   -4.9020 C   0  0  0  0  0  0  0  0  0  0  0  0
  -29.2553  -10.3891   -6.7355 C   0  0  0  0  0  0  0  0  0  0  0  0
  -28.5610  -10.6742   -7.9266 C   0  0  0  0  0  0  0  0  0  0  0  0
  -29.2328  -11.1352   -9.0753 C   0  0  0  0  0  0  0  0  0  0  0  0
  -30.5983  -11.4214   -9.0472 C   0  0  0  0  0  0  0  0  0  0  0  0
  -31.3013  -11.2767   -7.8652 C   0  0  0  0  0  0  0  0  0  0  0  0
  -30.6453  -10.7032   -6.7660 C   0  0  0  0  0  0  0  0  0  0  0  0
  -28.6932  -11.3850  -10.3104 O   0  0  0  0  0  0  0  0  0  0  0  0
  -28.9330  -10.4564  -11.3520 C   0  0  0  0  0  0  0  0  0  0  0  0
  -32.6044  -11.6404   -7.6803 O   0  0  0  0  0  0  0  0  0  0  0  0
  -33.1341  -11.4217   -6.3720 C   0  0  0  0  0  0  0  0  0  0  0  0
  -27.4299  -10.6824   -5.0230 C   0  0  0  0  0  0  0  0  0  0  0  0
  -25.1282  -10.8917   -6.2405 N   0  0  0  0  0  0  0  0  0  0  0  0
  -23.8669  -10.3611   -6.1195 C   0  0  0  0  0  0  0  0  0  0  0  0
  -23.9185   -9.6179   -4.9691 C   0  0  0  0  0  0  0  0  0  0  0  0
  -25.2126   -9.5337   -4.5116 N   0  0  0  0  0  0  0  0  0  0  0  0
  -25.9583  -10.2989   -5.3028 C   0  0  0  0  0  0  0  0  0  0  0  0
  -25.0858  -11.9043   -8.4291 C   0  0  0  0  0  0  0  0  0  0  0  0
  -25.4132  -12.1164   -6.9585 C   0  0  0  0  0  0  0  0  0  0  0  0
 34 35  1  0  0  0
 35 29  1  0  0  0
 29 30  1  0  0  0
 29 33  1  0  0  0
 30 31  2  0  0  0
 31 32  1  0  0  0
 32 33  2  0  0  0
 33 28  1  0  0  0
 28  1  1  0  0  0
  1 18  1  0  0  0
  1  2  1  0  0  0
 18 19  1  0  0  0
 18 23  2  0  0  0
 19 20  2  0  0  0
 20 24  1  0  0  0
 20 21  1  0  0  0
 24 25  1  0  0  0
 21 22  2  0  0  0
 22 26  1  0  0  0
 22 23  1  0  0  0
 26 27  1  0  0  0
  2  3  1  0  0  0
  2 11  2  0  0  0
  3  4  2  0  0  0
  4  5  1  0  0  0
  5  6  1  0  0  0
  5 10  2  0  0  0
  6  7  2  0  0  0
  7  8  1  0  0  0
  8 12  1  0  0  0
  8  9  2  0  0  0
 12 13  1  0  0  0
 12 17  2  0  0  0
 13 14  2  0  0  0
 14 15  1  0  0  0
 15 16  1  0  0  0
 15 17  1  0  0  0
  9 10  1  0  0  0
 10 11  1  0  0  0
M  END
> <minimizedAffinity>
-7.85382

$$$$
