CHEMBL3133752


 47 51  0  0  0  0  0  0  0  0999 V2000
  -22.1123   -0.1716  -13.6227 N   0  0  0  0  0  0  0  0  0  0  0  0
  -21.5749   -0.8347  -14.1713 H   0  0  0  0  0  0  0  0  0  0  0  0
  -17.9616    2.2391  -15.4512 C   0  0  0  0  0  0  0  0  0  0  0  0
  -19.0056    3.1527  -15.2745 C   0  0  0  0  0  0  0  0  0  0  0  0
  -20.2548    2.7714  -14.8126 C   0  0  0  0  0  0  0  0  0  0  0  0
  -21.1951    3.7194  -14.7339 N   0  0  0  0  0  0  0  0  0  0  0  0
  -22.3941    3.3312  -14.3155 C   0  0  0  0  0  0  0  0  0  0  0  0
  -22.7300    2.0972  -13.9489 N   0  0  0  0  0  0  0  0  0  0  0  0
  -21.7729    1.1473  -14.0226 C   0  0  0  0  0  0  0  0  0  0  0  0
  -20.4743    1.4363  -14.4760 C   0  0  0  0  0  0  0  0  0  0  0  0
  -19.4016    0.5092  -14.5883 C   0  0  0  0  0  0  0  0  0  0  0  0
  -18.1398    0.9154  -15.0347 C   0  0  0  0  0  0  0  0  0  0  0  0
  -16.4038    3.9646  -15.8636 C   0  0  0  0  0  0  0  0  0  0  0  0
  -16.7781    2.5956  -16.0452 O   0  0  0  0  0  0  0  0  0  0  0  0
  -17.2077   -0.0864  -15.0869 O   0  0  0  0  0  0  0  0  0  0  0  0
  -16.4259   -0.2814  -13.9031 C   0  0  0  0  0  0  0  0  0  0  0  0
  -15.9625   -1.7472  -13.8252 C   0  0  0  0  0  0  0  0  0  0  0  0
  -15.2992   -2.0692  -12.4770 C   0  0  0  0  0  0  0  0  0  0  0  0
  -16.1630   -2.7844  -11.5183 N   0  0  0  0  0  0  0  0  0  0  0  0
  -15.6307   -2.8607  -10.1399 C   0  0  0  0  0  0  0  0  0  0  0  0
  -14.4653   -3.8493   -9.9512 C   0  0  0  0  0  0  0  0  0  0  0  0
  -14.7962   -5.1604  -10.4254 O   0  0  0  0  0  0  0  0  0  0  0  0
  -15.2065   -5.1135  -11.7966 C   0  0  0  0  0  0  0  0  0  0  0  0
  -16.4118   -4.1743  -11.9797 C   0  0  0  0  0  0  0  0  0  0  0  0
  -23.4420   -0.6114  -13.3996 C   0  0  0  0  0  0  0  0  0  0  0  0
  -24.1420   -1.2618  -14.4232 C   0  0  0  0  0  0  0  0  0  0  0  0
  -25.4715   -1.6282  -14.2331 C   0  0  0  0  0  0  0  0  0  0  0  0
  -26.0940   -1.4049  -13.0066 C   0  0  0  0  0  0  0  0  0  0  0  0
  -25.3780   -0.8693  -11.9317 C   0  0  0  0  0  0  0  0  0  0  0  0
  -24.0620   -0.4554  -12.1458 C   0  0  0  0  0  0  0  0  0  0  0  0
  -25.9426   -0.7230  -10.6399 N   0  0  0  0  0  0  0  0  0  0  0  0
  -26.6164   -1.7314   -9.9684 C   0  0  0  0  0  0  0  0  0  0  0  0
  -26.7038   -2.8940  -10.3492 O   0  0  0  0  0  0  0  0  0  0  0  0
  -27.2223   -1.2664   -8.8087 N   0  0  0  0  0  0  0  0  0  0  0  0
  -25.5883    0.0324  -10.0718 H   0  0  0  0  0  0  0  0  0  0  0  0
  -27.5524   -0.3134   -8.8719 H   0  0  0  0  0  0  0  0  0  0  0  0
  -27.9584   -2.1449   -7.9805 C   0  0  0  0  0  0  0  0  0  0  0  0
  -28.6693   -3.1874   -8.5660 C   0  0  0  0  0  0  0  0  0  0  0  0
  -29.3459   -4.1024   -7.7565 C   0  0  0  0  0  0  0  0  0  0  0  0
  -29.3571   -3.9635   -6.3600 C   0  0  0  0  0  0  0  0  0  0  0  0
  -30.2594   -5.1419   -5.4821 Cl  0  0  0  0  0  0  0  0  0  0  0  0
  -28.6663   -2.9110   -5.7518 C   0  0  0  0  0  0  0  0  0  0  0  0
  -27.9702   -2.0070   -6.5862 C   0  0  0  0  0  0  0  0  0  0  0  0
  -28.5986   -2.6730   -4.2653 C   0  0  0  0  0  0  0  0  0  0  0  0
  -28.0444   -3.6635   -3.5182 F   0  0  0  0  0  0  0  0  0  0  0  0
  -27.8856   -1.5514   -3.9588 F   0  0  0  0  0  0  0  0  0  0  0  0
  -29.8380   -2.4723   -3.7287 F   0  0  0  0  0  0  0  0  0  0  0  0
 13 14  1  0  0  0
 14  3  1  0  0  0
  3  4  1  0  0  0
  3 12  2  0  0  0
  4  5  2  0  0  0
  5  6  1  0  0  0
  5 10  1  0  0  0
  6  7  2  0  0  0
  7  8  1  0  0  0
  8  9  2  0  0  0
  9  1  1  0  0  0
  9 10  1  0  0  0
  1 25  1  0  0  0
  1  2  1  0  0  0
 25 26  1  0  0  0
 25 30  2  0  0  0
 26 27  2  0  0  0
 27 28  1  0  0  0
 28 29  2  0  0  0
 29 31  1  0  0  0
 29 30  1  0  0  0
 31 32  1  0  0  0
 31 35  1  0  0  0
 32 33  2  0  0  0
 32 34  1  0  0  0
 34 37  1  0  0  0
 34 36  1  0  0  0
 37 38  1  0  0  0
 37 43  2  0  0  0
 38 39  2  0  0  0
 39 40  1  0  0  0
 40 41  1  0  0  0
 40 42  2  0  0  0
 42 44  1  0  0  0
 42 43  1  0  0  0
 44 45  1  0  0  0
 44 46  1  0  0  0
 44 47  1  0  0  0
 10 11  2  0  0  0
 11 12  1  0  0  0
 12 15  1  0  0  0
 15 16  1  0  0  0
 16 17  1  0  0  0
 17 18  1  0  0  0
 18 19  1  0  0  0
 19 20  1  0  0  0
 19 24  1  0  0  0
 20 21  1  0  0  0
 21 22  1  0  0  0
 22 23  1  0  0  0
 23 24  1  0  0  0
M  END
> <minimizedAffinity>
-10.65893

$$$$
