CHEMBL3912174


 39 43  0  0  0  0  0  0  0  0999 V2000
  -24.8433   10.4720  -16.7906 C   0  0  0  0  0  0  0  0  0  0  0  0
  -25.2851    9.3376  -16.9708 O   0  0  0  0  0  0  0  0  0  0  0  0
  -23.8073   11.0141  -17.7239 C   0  0  0  0  0  0  0  0  0  0  0  0
  -24.0609   12.0458  -18.6499 C   0  0  0  0  0  0  0  0  0  0  0  0
  -23.0754   12.4833  -19.5609 C   0  0  0  0  0  0  0  0  0  0  0  0
  -21.7669   12.0001  -19.3872 C   0  0  0  0  0  0  0  0  0  0  0  0
  -20.4517   12.1683  -19.9381 C   0  0  0  0  0  0  0  0  0  0  0  0
  -19.6507   12.3283  -18.8603 N   0  0  0  0  0  0  0  0  0  0  0  0
  -20.1867   11.4133  -18.0208 N   0  0  0  0  0  0  0  0  0  0  0  0
  -21.5187   11.2131  -18.2660 C   0  0  0  0  0  0  0  0  0  0  0  0
  -22.5026   10.5452  -17.5439 C   0  0  0  0  0  0  0  0  0  0  0  0
  -19.6390   11.1070  -17.2197 H   0  0  0  0  0  0  0  0  0  0  0  0
  -19.8134   11.3655  -20.9757 C   0  0  0  0  0  0  0  0  0  0  0  0
  -19.2406   10.1628  -20.7715 C   0  0  0  0  0  0  0  0  0  0  0  0
  -17.9547    9.7971  -21.4121 C   0  0  0  0  0  0  0  0  0  0  0  0
  -17.6793    8.4666  -21.7139 C   0  0  0  0  0  0  0  0  0  0  0  0
  -16.3834    8.1088  -22.0918 C   0  0  0  0  0  0  0  0  0  0  0  0
  -15.3937    9.0814  -22.1505 C   0  0  0  0  0  0  0  0  0  0  0  0
  -15.7473   10.3816  -21.8406 C   0  0  0  0  0  0  0  0  0  0  0  0
  -16.9968   10.7561  -21.4800 N   0  0  0  0  0  0  0  0  0  0  0  0
  -27.2282   11.9490  -14.2545 C   0  0  0  0  0  0  0  0  0  0  0  0
  -26.3212   12.5969  -13.4118 C   0  0  0  0  0  0  0  0  0  0  0  0
  -24.9697   12.6575  -13.7110 C   0  0  0  0  0  0  0  0  0  0  0  0
  -24.4895   12.0311  -14.8494 C   0  0  0  0  0  0  0  0  0  0  0  0
  -25.3490   11.2585  -15.6362 C   0  0  0  0  0  0  0  0  0  0  0  0
  -26.7272   11.2354  -15.3505 C   0  0  0  0  0  0  0  0  0  0  0  0
  -29.4357   10.8686  -13.9887 C   0  0  0  0  0  0  0  0  0  0  0  0
  -29.0697    9.7025  -14.0983 O   0  0  0  0  0  0  0  0  0  0  0  0
  -28.6284   11.9891  -14.0485 N   0  0  0  0  0  0  0  0  0  0  0  0
  -29.0136   12.8733  -13.7350 H   0  0  0  0  0  0  0  0  0  0  0  0
  -32.7806   10.4713  -12.4210 C   0  0  0  0  0  0  0  0  0  0  0  0
  -31.4212   10.3879  -12.6302 C   0  0  0  0  0  0  0  0  0  0  0  0
  -30.8755   11.0738  -13.7182 C   0  0  0  0  0  0  0  0  0  0  0  0
  -31.6999   11.8130  -14.5573 C   0  0  0  0  0  0  0  0  0  0  0  0
  -33.0475   11.8226  -14.2501 C   0  0  0  0  0  0  0  0  0  0  0  0
  -34.1649   12.6558  -15.2493 Cl  0  0  0  0  0  0  0  0  0  0  0  0
  -33.6099   11.1838  -13.2054 N   0  0  0  0  0  0  0  0  0  0  0  0
  -33.8465    8.5049  -11.7388 C   0  0  0  0  0  0  0  0  0  0  0  0
  -33.2772    9.7514  -11.3544 O   0  0  0  0  0  0  0  0  0  0  0  0
 38 39  1  0  0  0
 39 31  1  0  0  0
 31 32  1  0  0  0
 31 37  2  0  0  0
 32 33  2  0  0  0
 33 27  1  0  0  0
 33 34  1  0  0  0
 27 28  2  0  0  0
 27 29  1  0  0  0
 29 21  1  0  0  0
 29 30  1  0  0  0
 21 22  1  0  0  0
 21 26  2  0  0  0
 22 23  2  0  0  0
 23 24  1  0  0  0
 24 25  2  0  0  0
 25  1  1  0  0  0
 25 26  1  0  0  0
  1  2  2  0  0  0
  1  3  1  0  0  0
  3  4  1  0  0  0
  3 11  2  0  0  0
  4  5  2  0  0  0
  5  6  1  0  0  0
  6  7  1  0  0  0
  6 10  2  0  0  0
  7 13  1  0  0  0
  7  8  2  0  0  0
 13 14  2  0  0  0
 14 15  1  0  0  0
 15 16  1  0  0  0
 15 20  2  0  0  0
 16 17  2  0  0  0
 17 18  1  0  0  0
 18 19  2  0  0  0
 19 20  1  0  0  0
  8  9  1  0  0  0
  9 10  1  0  0  0
  9 12  1  0  0  0
 10 11  1  0  0  0
 34 35  2  0  0  0
 35 36  1  0  0  0
 35 37  1  0  0  0
M  END
> <minimizedAffinity>
-7.53370

$$$$
