CHEMBL3814710


 47 51  0  0  0  0  0  0  0  0999 V2000
  -14.4055    0.2547  -14.5115 C   0  0  0  0  0  0  0  0  0  0  0  0
  -15.1839    0.1247  -13.3583 C   0  0  0  0  0  0  0  0  0  0  0  0
  -16.4927    0.6301  -13.3218 C   0  0  0  0  0  0  0  0  0  0  0  0
  -17.0148    1.3298  -14.4147 C   0  0  0  0  0  0  0  0  0  0  0  0
  -16.2465    1.4512  -15.5746 C   0  0  0  0  0  0  0  0  0  0  0  0
  -14.9532    0.9185  -15.6164 C   0  0  0  0  0  0  0  0  0  0  0  0
  -14.2334    1.0945  -16.7356 F   0  0  0  0  0  0  0  0  0  0  0  0
  -18.2898    1.9225  -14.2736 N   0  0  0  0  0  0  0  0  0  0  0  0
  -19.4457    1.3611  -14.7912 C   0  0  0  0  0  0  0  0  0  0  0  0
  -19.5452    0.2606  -15.3221 O   0  0  0  0  0  0  0  0  0  0  0  0
  -18.3223    2.9317  -14.1419 H   0  0  0  0  0  0  0  0  0  0  0  0
  -20.6537    2.2613  -14.7517 C   0  0  0  0  0  0  0  0  0  0  0  0
  -20.9494    3.0968  -16.0024 C   0  0  0  0  0  0  0  0  0  0  0  0
  -20.4091    3.7671  -14.7814 C   0  0  0  0  0  0  0  0  0  0  0  0
  -21.8667    1.6893  -14.0625 C   0  0  0  0  0  0  0  0  0  0  0  0
  -22.7296    2.4929  -13.7250 O   0  0  0  0  0  0  0  0  0  0  0  0
  -21.8902    0.3254  -13.9140 N   0  0  0  0  0  0  0  0  0  0  0  0
  -21.1187   -0.1984  -14.3235 H   0  0  0  0  0  0  0  0  0  0  0  0
  -22.9231   -0.4492  -13.3201 C   0  0  0  0  0  0  0  0  0  0  0  0
  -22.8754   -0.9041  -11.9975 C   0  0  0  0  0  0  0  0  0  0  0  0
  -23.9482   -1.6152  -11.4484 C   0  0  0  0  0  0  0  0  0  0  0  0
  -25.0631   -1.8842  -12.2264 C   0  0  0  0  0  0  0  0  0  0  0  0
  -26.0983   -2.5469  -11.6912 F   0  0  0  0  0  0  0  0  0  0  0  0
  -25.1180   -1.4755  -13.5506 C   0  0  0  0  0  0  0  0  0  0  0  0
  -24.0468   -0.7580  -14.1003 C   0  0  0  0  0  0  0  0  0  0  0  0
  -13.0975   -0.1927  -14.4386 O   0  0  0  0  0  0  0  0  0  0  0  0
  -11.9505   -4.8818  -14.0887 N   0  0  0  0  0  0  0  0  0  0  0  0
  -12.1656   -3.6868  -14.7732 C   0  0  0  0  0  0  0  0  0  0  0  0
  -12.1087   -3.8058  -16.1118 N   0  0  0  0  0  0  0  0  0  0  0  0
  -12.4403   -2.7250  -16.8269 C   0  0  0  0  0  0  0  0  0  0  0  0
  -12.8171   -1.5446  -16.3314 N   0  0  0  0  0  0  0  0  0  0  0  0
  -12.8021   -1.4388  -14.9833 C   0  0  0  0  0  0  0  0  0  0  0  0
  -12.5253   -2.5042  -14.1379 C   0  0  0  0  0  0  0  0  0  0  0  0
  -11.5607   -5.5697  -14.7243 H   0  0  0  0  0  0  0  0  0  0  0  0
  -11.4115   -4.7379  -13.2349 H   0  0  0  0  0  0  0  0  0  0  0  0
  -12.5967   -2.3971  -12.6636 C   0  0  0  0  0  0  0  0  0  0  0  0
  -11.6655   -2.8792  -11.8930 N   0  0  0  0  0  0  0  0  0  0  0  0
  -11.9939   -2.6716  -10.5384 O   0  0  0  0  0  0  0  0  0  0  0  0
  -12.2964   -3.9435   -9.9429 C   0  0  0  0  0  0  0  0  0  0  0  0
  -13.8080   -4.1013   -9.7132 C   0  0  0  0  0  0  0  0  0  0  0  0
  -14.4115   -5.0640  -10.7462 C   0  0  0  0  0  0  0  0  0  0  0  0
  -15.8659   -4.9726  -10.9579 N   0  0  0  0  0  0  0  0  0  0  0  0
  -16.4178   -5.8060  -12.0483 C   0  0  0  0  0  0  0  0  0  0  0  0
  -16.2171   -5.2807  -13.4887 C   0  0  0  0  0  0  0  0  0  0  0  0
  -16.5150   -3.8854  -13.6307 O   0  0  0  0  0  0  0  0  0  0  0  0
  -15.8185   -3.1130  -12.6497 C   0  0  0  0  0  0  0  0  0  0  0  0
  -16.2370   -3.5626  -11.2417 C   0  0  0  0  0  0  0  0  0  0  0  0
 27 28  1  0  0  0
 27 34  1  0  0  0
 27 35  1  0  0  0
 28 29  1  0  0  0
 28 33  2  0  0  0
 29 30  2  0  0  0
 30 31  1  0  0  0
 31 32  2  0  0  0
 32 26  1  0  0  0
 32 33  1  0  0  0
 26  1  1  0  0  0
  1  2  1  0  0  0
  1  6  2  0  0  0
  2  3  2  0  0  0
  3  4  1  0  0  0
  4  8  1  0  0  0
  4  5  2  0  0  0
  8  9  1  0  0  0
  8 11  1  0  0  0
  9 10  2  0  0  0
  9 12  1  0  0  0
 12 15  1  0  0  0
 12 13  1  0  0  0
 12 14  1  0  0  0
 15 16  2  0  0  0
 15 17  1  0  0  0
 17 19  1  0  0  0
 17 18  1  0  0  0
 19 20  1  0  0  0
 19 25  2  0  0  0
 20 21  2  0  0  0
 21 22  1  0  0  0
 22 23  1  0  0  0
 22 24  2  0  0  0
 24 25  1  0  0  0
 13 14  1  0  0  0
  5  6  1  0  0  0
  6  7  1  0  0  0
 33 36  1  0  0  0
 36 37  2  0  0  0
 37 38  1  0  0  0
 38 39  1  0  0  0
 39 40  1  0  0  0
 40 41  1  0  0  0
 41 42  1  0  0  0
 42 43  1  0  0  0
 42 47  1  0  0  0
 43 44  1  0  0  0
 44 45  1  0  0  0
 45 46  1  0  0  0
 46 47  1  0  0  0
M  END
> <minimizedAffinity>
-9.38839

$$$$
