CHEMBL3287591


 40 44  0  0  0  0  0  0  0  0999 V2000
  -29.7478   -4.5529   -6.0887 C   0  0  0  0  0  0  0  0  0  0  0  0
  -30.0812   -5.2581   -4.9252 C   0  0  0  0  0  0  0  0  0  0  0  0
  -30.0161   -6.6516   -4.8780 C   0  0  0  0  0  0  0  0  0  0  0  0
  -29.6344   -7.3694   -6.0059 C   0  0  0  0  0  0  0  0  0  0  0  0
  -29.4095   -6.6798   -7.1994 C   0  0  0  0  0  0  0  0  0  0  0  0
  -29.1593   -7.3434   -8.3387 F   0  0  0  0  0  0  0  0  0  0  0  0
  -29.4539   -5.2803   -7.2457 C   0  0  0  0  0  0  0  0  0  0  0  0
  -28.5379   -2.4136   -5.8035 C   0  0  0  0  0  0  0  0  0  0  0  0
  -27.4657   -2.8602   -5.4141 O   0  0  0  0  0  0  0  0  0  0  0  0
  -29.6743   -3.1379   -6.1242 N   0  0  0  0  0  0  0  0  0  0  0  0
  -30.4244   -2.6427   -6.5961 H   0  0  0  0  0  0  0  0  0  0  0  0
  -28.5885   -0.9457   -6.0898 C   0  0  0  0  0  0  0  0  0  0  0  0
  -29.5337   -0.0182   -5.3340 C   0  0  0  0  0  0  0  0  0  0  0  0
  -28.0958   -0.0621   -4.9338 C   0  0  0  0  0  0  0  0  0  0  0  0
  -28.4252    0.5811   -7.8592 O   0  0  0  0  0  0  0  0  0  0  0  0
  -28.1868   -0.5556   -7.4837 C   0  0  0  0  0  0  0  0  0  0  0  0
  -27.6246   -1.5866   -8.2054 N   0  0  0  0  0  0  0  0  0  0  0  0
  -27.5675   -2.4861   -7.7345 H   0  0  0  0  0  0  0  0  0  0  0  0
  -27.2196   -1.5554   -9.5541 C   0  0  0  0  0  0  0  0  0  0  0  0
  -25.8822   -1.5092   -9.9602 C   0  0  0  0  0  0  0  0  0  0  0  0
  -25.5537   -1.4663  -11.3181 C   0  0  0  0  0  0  0  0  0  0  0  0
  -26.5631   -1.4700  -12.2700 C   0  0  0  0  0  0  0  0  0  0  0  0
  -26.2469   -1.4278  -13.5706 F   0  0  0  0  0  0  0  0  0  0  0  0
  -27.8975   -1.5210  -11.8889 C   0  0  0  0  0  0  0  0  0  0  0  0
  -28.2264   -1.5670  -10.5311 C   0  0  0  0  0  0  0  0  0  0  0  0
  -29.6099   -8.7335   -5.8580 O   0  0  0  0  0  0  0  0  0  0  0  0
  -28.5992   -9.3024   -5.0908 C   0  0  0  0  0  0  0  0  0  0  0  0
  -29.0031  -10.3044   -4.2406 C   0  0  0  0  0  0  0  0  0  0  0  0
  -27.9991  -10.9040   -3.5370 C   0  0  0  0  0  0  0  0  0  0  0  0
  -26.7099  -10.5614   -3.6700 N   0  0  0  0  0  0  0  0  0  0  0  0
  -26.4128   -9.5378   -4.4984 C   0  0  0  0  0  0  0  0  0  0  0  0
  -27.3327   -8.8530   -5.1863 N   0  0  0  0  0  0  0  0  0  0  0  0
  -25.0863   -9.1396   -4.6358 N   0  0  0  0  0  0  0  0  0  0  0  0
  -25.0199   -8.1577   -4.8576 H   0  0  0  0  0  0  0  0  0  0  0  0
  -23.9755   -9.9279   -4.9700 C   0  0  0  0  0  0  0  0  0  0  0  0
  -23.3104  -10.7291   -4.0308 C   0  0  0  0  0  0  0  0  0  0  0  0
  -22.1572  -11.4381   -4.3739 C   0  0  0  0  0  0  0  0  0  0  0  0
  -21.6424  -11.3416   -5.6629 C   0  0  0  0  0  0  0  0  0  0  0  0
  -22.2970  -10.5597   -6.6126 C   0  0  0  0  0  0  0  0  0  0  0  0
  -23.4639   -9.8697   -6.2710 C   0  0  0  0  0  0  0  0  0  0  0  0
 15 16  2  0  0  0
 16 17  1  0  0  0
 16 12  1  0  0  0
 17 19  1  0  0  0
 17 18  1  0  0  0
 19 20  1  0  0  0
 19 25  2  0  0  0
 20 21  2  0  0  0
 21 22  1  0  0  0
 22 23  1  0  0  0
 22 24  2  0  0  0
 24 25  1  0  0  0
 12  8  1  0  0  0
 12 13  1  0  0  0
 12 14  1  0  0  0
  8  9  2  0  0  0
  8 10  1  0  0  0
 10  1  1  0  0  0
 10 11  1  0  0  0
  1  2  1  0  0  0
  1  7  2  0  0  0
  2  3  2  0  0  0
  3  4  1  0  0  0
  4 26  1  0  0  0
  4  5  2  0  0  0
 26 27  1  0  0  0
 27 28  1  0  0  0
 27 32  2  0  0  0
 28 29  2  0  0  0
 29 30  1  0  0  0
 30 31  2  0  0  0
 31 33  1  0  0  0
 31 32  1  0  0  0
 33 35  1  0  0  0
 33 34  1  0  0  0
 35 36  1  0  0  0
 35 40  2  0  0  0
 36 37  2  0  0  0
 37 38  1  0  0  0
 38 39  2  0  0  0
 39 40  1  0  0  0
  5  6  1  0  0  0
  5  7  1  0  0  0
 13 14  1  0  0  0
M  END
> <minimizedAffinity>
-9.31969

$$$$
