CHEMBL3929942


 35 38  0  0  0  0  0  0  0  0999 V2000
  -23.9010   -0.9183  -13.9951 C   0  0  0  0  0  0  0  0  0  0  0  0
  -25.2051   -1.3162  -14.3412 C   0  0  0  0  0  0  0  0  0  0  0  0
  -26.1760   -1.6036  -13.4088 C   0  0  0  0  0  0  0  0  0  0  0  0
  -27.4353   -1.7806  -13.8203 N   0  0  0  0  0  0  0  0  0  0  0  0
  -28.3456   -1.9953  -12.8686 C   0  0  0  0  0  0  0  0  0  0  0  0
  -28.0985   -2.0733  -11.5590 N   0  0  0  0  0  0  0  0  0  0  0  0
  -26.8225   -1.8959  -11.1679 C   0  0  0  0  0  0  0  0  0  0  0  0
  -25.7960   -1.6504  -12.0760 C   0  0  0  0  0  0  0  0  0  0  0  0
  -24.4472   -1.4522  -11.7251 C   0  0  0  0  0  0  0  0  0  0  0  0
  -23.4943   -1.0533  -12.6616 C   0  0  0  0  0  0  0  0  0  0  0  0
  -26.5093   -1.9239   -9.7894 N   0  0  0  0  0  0  0  0  0  0  0  0
  -25.9093   -1.1368   -9.5614 H   0  0  0  0  0  0  0  0  0  0  0  0
  -27.4514   -2.2158   -8.7831 C   0  0  0  0  0  0  0  0  0  0  0  0
  -27.8132   -1.2342   -7.8526 C   0  0  0  0  0  0  0  0  0  0  0  0
  -28.6591   -1.5305   -6.7909 C   0  0  0  0  0  0  0  0  0  0  0  0
  -29.1710   -2.8229   -6.6608 C   0  0  0  0  0  0  0  0  0  0  0  0
  -30.1615   -3.1524   -5.2839 Cl  0  0  0  0  0  0  0  0  0  0  0  0
  -28.8548   -3.8003   -7.6114 C   0  0  0  0  0  0  0  0  0  0  0  0
  -29.4557   -5.4172   -7.5128 Cl  0  0  0  0  0  0  0  0  0  0  0  0
  -28.0060   -3.4931   -8.6776 C   0  0  0  0  0  0  0  0  0  0  0  0
  -22.3049   -0.8355  -12.0364 O   0  0  0  0  0  0  0  0  0  0  0  0
  -21.9931    0.3832  -11.3969 C   0  0  0  0  0  0  0  0  0  0  0  0
  -23.0576   -0.3378  -14.9112 O   0  0  0  0  0  0  0  0  0  0  0  0
  -22.0092    0.5292  -14.4143 C   0  0  0  0  0  0  0  0  0  0  0  0
  -19.2379    2.1005  -15.3902 N   0  0  0  0  0  0  0  0  0  0  0  0
  -19.4206    3.3160  -14.5715 C   0  0  0  0  0  0  0  0  0  0  0  0
  -20.6547    3.2616  -13.6581 C   0  0  0  0  0  0  0  0  0  0  0  0
  -21.8586    3.0170  -14.3868 O   0  0  0  0  0  0  0  0  0  0  0  0
  -21.7911    1.8454  -15.2194 C   0  0  0  0  0  0  0  0  0  0  0  0
  -20.5061    1.8392  -16.0931 C   0  0  0  0  0  0  0  0  0  0  0  0
  -18.7060    0.9779  -14.6101 C   0  0  0  0  0  0  0  0  0  0  0  0
  -17.1755    0.9693  -14.4793 C   0  0  0  0  0  0  0  0  0  0  0  0
  -16.4966    1.2974  -15.8083 C   0  0  0  0  0  0  0  0  0  0  0  0
  -16.1843    3.7010  -16.4311 C   0  0  0  0  0  0  0  0  0  0  0  0
  -15.5813    2.5127  -15.6989 C   0  0  0  0  0  0  0  0  0  0  0  0
 34 35  1  0  0  0
 35 33  1  0  0  0
 33 32  1  0  0  0
 32 31  1  0  0  0
 31 25  1  0  0  0
 25 26  1  0  0  0
 25 30  1  0  0  0
 26 27  1  0  0  0
 27 28  1  0  0  0
 28 29  1  0  0  0
 29 24  1  0  0  0
 29 30  1  0  0  0
 24 23  1  0  0  0
 23  1  1  0  0  0
  1  2  1  0  0  0
  1 10  2  0  0  0
  2  3  2  0  0  0
  3  4  1  0  0  0
  3  8  1  0  0  0
  4  5  2  0  0  0
  5  6  1  0  0  0
  6  7  2  0  0  0
  7 11  1  0  0  0
  7  8  1  0  0  0
 11 13  1  0  0  0
 11 12  1  0  0  0
 13 14  1  0  0  0
 13 20  2  0  0  0
 14 15  2  0  0  0
 15 16  1  0  0  0
 16 17  1  0  0  0
 16 18  2  0  0  0
 18 19  1  0  0  0
 18 20  1  0  0  0
  8  9  2  0  0  0
  9 10  1  0  0  0
 10 21  1  0  0  0
 21 22  1  0  0  0
M  END
> <minimizedAffinity>
-5.48973

$$$$
