CHEMBL271941


 40 44  0  0  0  0  0  0  0  0999 V2000
  -13.7137   -2.8701  -13.4831 C   0  0  0  0  0  0  0  0  0  0  0  0
  -13.0005   -3.5124  -12.3918 C   0  0  0  0  0  0  0  0  0  0  0  0
  -12.0070   -2.6633  -11.9740 C   0  0  0  0  0  0  0  0  0  0  0  0
  -12.0157   -1.5725  -12.7886 N   0  0  0  0  0  0  0  0  0  0  0  0
  -11.1434   -0.5612  -12.6738 N   0  0  0  0  0  0  0  0  0  0  0  0
  -11.2978    0.3683  -13.5560 C   0  0  0  0  0  0  0  0  0  0  0  0
  -12.2407    0.4022  -14.5402 N   0  0  0  0  0  0  0  0  0  0  0  0
  -13.1148   -0.5593  -14.6501 C   0  0  0  0  0  0  0  0  0  0  0  0
  -13.0292   -1.6632  -13.7131 C   0  0  0  0  0  0  0  0  0  0  0  0
  -13.2405   -4.8518  -11.7591 C   0  0  0  0  0  0  0  0  0  0  0  0
  -14.2214   -5.1028  -10.9128 N   0  0  0  0  0  0  0  0  0  0  0  0
  -14.1601   -6.4357  -10.5984 N   0  0  0  0  0  0  0  0  0  0  0  0
  -13.1346   -6.9214  -11.2543 C   0  0  0  0  0  0  0  0  0  0  0  0
  -12.4962   -5.9847  -12.0155 O   0  0  0  0  0  0  0  0  0  0  0  0
  -12.6795   -8.1818  -11.3349 N   0  0  0  0  0  0  0  0  0  0  0  0
  -11.6770   -8.3287  -11.3280 H   0  0  0  0  0  0  0  0  0  0  0  0
  -13.4527   -9.1512  -12.1056 C   0  0  0  0  0  0  0  0  0  0  0  0
  -13.7196   -8.6536  -13.5332 C   0  0  0  0  0  0  0  0  0  0  0  0
  -15.1211   -8.4773  -13.7422 O   0  0  0  0  0  0  0  0  0  0  0  0
  -15.5098   -9.3700  -13.7297 H   0  0  0  0  0  0  0  0  0  0  0  0
  -14.6603   -4.8537  -14.6923 C   0  0  0  0  0  0  0  0  0  0  0  0
  -14.9688   -3.4770  -14.0956 C   0  0  0  0  0  0  0  0  0  0  0  0
  -16.2386   -3.5307  -13.2608 C   0  0  0  0  0  0  0  0  0  0  0  0
  -14.0815   -0.4564  -15.6248 N   0  0  0  0  0  0  0  0  0  0  0  0
  -14.5934   -1.3238  -15.7641 H   0  0  0  0  0  0  0  0  0  0  0  0
  -14.9026    0.6784  -15.8534 C   0  0  0  0  0  0  0  0  0  0  0  0
  -16.1053    0.9062  -15.1708 C   0  0  0  0  0  0  0  0  0  0  0  0
  -16.8586    2.0816  -15.3762 C   0  0  0  0  0  0  0  0  0  0  0  0
  -16.3795    3.0341  -16.2785 C   0  0  0  0  0  0  0  0  0  0  0  0
  -17.0583    4.1664  -16.5199 F   0  0  0  0  0  0  0  0  0  0  0  0
  -15.1741    2.8458  -16.9510 C   0  0  0  0  0  0  0  0  0  0  0  0
  -14.4461    1.6841  -16.7207 C   0  0  0  0  0  0  0  0  0  0  0  0
  -13.2803    1.5153  -17.3629 F   0  0  0  0  0  0  0  0  0  0  0  0
  -18.1292    2.2613  -14.6030 C   0  0  0  0  0  0  0  0  0  0  0  0
  -18.2683    3.2644  -13.9008 O   0  0  0  0  0  0  0  0  0  0  0  0
  -19.0935    1.2775  -14.7155 N   0  0  0  0  0  0  0  0  0  0  0  0
  -18.8985    0.4476  -15.2652 H   0  0  0  0  0  0  0  0  0  0  0  0
  -20.3213    1.3151  -13.9794 C   0  0  0  0  0  0  0  0  0  0  0  0
  -21.5200    0.5407  -14.4637 C   0  0  0  0  0  0  0  0  0  0  0  0
  -21.5317    2.0402  -14.5027 C   0  0  0  0  0  0  0  0  0  0  0  0
 21 22  1  0  0  0
 22 23  1  0  0  0
 22  1  1  0  0  0
  1  2  1  0  0  0
  1  9  2  0  0  0
  2 10  1  0  0  0
  2  3  2  0  0  0
 10 11  2  0  0  0
 10 14  1  0  0  0
 11 12  1  0  0  0
 12 13  2  0  0  0
 13 15  1  0  0  0
 13 14  1  0  0  0
 15 17  1  0  0  0
 15 16  1  0  0  0
 17 18  1  0  0  0
 18 19  1  0  0  0
 19 20  1  0  0  0
  3  4  1  0  0  0
  4  5  1  0  0  0
  4  9  1  0  0  0
  5  6  2  0  0  0
  6  7  1  0  0  0
  7  8  2  0  0  0
  8 24  1  0  0  0
  8  9  1  0  0  0
 24 26  1  0  0  0
 24 25  1  0  0  0
 26 27  1  0  0  0
 26 32  2  0  0  0
 27 28  2  0  0  0
 28 34  1  0  0  0
 28 29  1  0  0  0
 34 35  2  0  0  0
 34 36  1  0  0  0
 36 38  1  0  0  0
 36 37  1  0  0  0
 38 39  1  0  0  0
 38 40  1  0  0  0
 39 40  1  0  0  0
 29 30  1  0  0  0
 29 31  2  0  0  0
 31 32  1  0  0  0
 32 33  1  0  0  0
M  END
> <minimizedAffinity>
-7.87452

$$$$
