CHEMBL1934323


 35 38  0  0  0  0  0  0  0  0999 V2000
  -16.7215    2.2703  -15.4757 C   0  0  0  0  0  0  0  0  0  0  0  0
  -16.1543    2.4988  -16.6732 N   0  0  0  0  0  0  0  0  0  0  0  0
  -15.0890    1.7575  -16.9851 C   0  0  0  0  0  0  0  0  0  0  0  0
  -14.5128    0.8337  -16.2102 N   0  0  0  0  0  0  0  0  0  0  0  0
  -15.0815    0.6092  -15.0241 C   0  0  0  0  0  0  0  0  0  0  0  0
  -14.5304   -0.3642  -14.2040 C   0  0  0  0  0  0  0  0  0  0  0  0
  -15.0937   -0.6938  -12.9712 C   0  0  0  0  0  0  0  0  0  0  0  0
  -16.2281   -0.0193  -12.5324 C   0  0  0  0  0  0  0  0  0  0  0  0
  -16.7752    0.9903  -13.3206 C   0  0  0  0  0  0  0  0  0  0  0  0
  -16.2195    1.3009  -14.5856 C   0  0  0  0  0  0  0  0  0  0  0  0
  -17.8823    3.0009  -15.1134 N   0  0  0  0  0  0  0  0  0  0  0  0
  -17.6363    3.6986  -14.4198 H   0  0  0  0  0  0  0  0  0  0  0  0
  -21.7238    1.3663  -14.3496 C   0  0  0  0  0  0  0  0  0  0  0  0
  -20.7295    0.6253  -14.9920 C   0  0  0  0  0  0  0  0  0  0  0  0
  -19.4750    1.1820  -15.2625 C   0  0  0  0  0  0  0  0  0  0  0  0
  -19.1935    2.5113  -14.9380 C   0  0  0  0  0  0  0  0  0  0  0  0
  -20.2061    3.2659  -14.3338 C   0  0  0  0  0  0  0  0  0  0  0  0
  -21.4640    2.7072  -14.0524 C   0  0  0  0  0  0  0  0  0  0  0  0
  -24.4630   -0.4423  -12.7438 N   0  0  0  0  0  0  0  0  0  0  0  0
  -23.1600    0.0133  -12.8680 C   0  0  0  0  0  0  0  0  0  0  0  0
  -22.3078   -0.2717  -12.0289 O   0  0  0  0  0  0  0  0  0  0  0  0
  -22.9723    0.8082  -13.9710 N   0  0  0  0  0  0  0  0  0  0  0  0
  -24.9242   -0.6442  -13.6200 H   0  0  0  0  0  0  0  0  0  0  0  0
  -23.7983    1.2456  -14.3442 H   0  0  0  0  0  0  0  0  0  0  0  0
  -26.1930   -1.4768  -11.2914 C   0  0  0  0  0  0  0  0  0  0  0  0
  -24.7259   -1.3298  -11.6245 C   0  0  0  0  0  0  0  0  0  0  0  0
  -14.4656   -1.7037  -12.2937 O   0  0  0  0  0  0  0  0  0  0  0  0
  -14.7823   -3.0170  -12.7498 C   0  0  0  0  0  0  0  0  0  0  0  0
  -15.9132   -3.6152  -11.9016 C   0  0  0  0  0  0  0  0  0  0  0  0
  -15.9265   -2.9617  -10.5142 C   0  0  0  0  0  0  0  0  0  0  0  0
  -14.7284   -3.4010   -9.6656 C   0  0  0  0  0  0  0  0  0  0  0  0
  -14.6739   -4.8612   -9.5355 N   0  0  0  0  0  0  0  0  0  0  0  0
  -13.5209   -5.2538   -8.7229 C   0  0  0  0  0  0  0  0  0  0  0  0
  -14.6316   -5.5446  -10.8364 C   0  0  0  0  0  0  0  0  0  0  0  0
  -15.7964   -5.1376  -11.7424 C   0  0  0  0  0  0  0  0  0  0  0  0
 25 26  1  0  0  0
 26 19  1  0  0  0
 19 20  1  0  0  0
 19 23  1  0  0  0
 20 21  2  0  0  0
 20 22  1  0  0  0
 22 13  1  0  0  0
 22 24  1  0  0  0
 13 14  1  0  0  0
 13 18  2  0  0  0
 14 15  2  0  0  0
 15 16  1  0  0  0
 16 11  1  0  0  0
 16 17  2  0  0  0
 11  1  1  0  0  0
 11 12  1  0  0  0
  1  2  1  0  0  0
  1 10  2  0  0  0
  2  3  2  0  0  0
  3  4  1  0  0  0
  4  5  2  0  0  0
  5  6  1  0  0  0
  5 10  1  0  0  0
  6  7  2  0  0  0
  7 27  1  0  0  0
  7  8  1  0  0  0
 27 28  1  0  0  0
 28 29  1  0  0  0
 29 30  1  0  0  0
 29 35  1  0  0  0
 30 31  1  0  0  0
 31 32  1  0  0  0
 32 33  1  0  0  0
 32 34  1  0  0  0
 34 35  1  0  0  0
  8  9  2  0  0  0
  9 10  1  0  0  0
 17 18  1  0  0  0
M  END
> <minimizedAffinity>
-9.98878

$$$$
