CHEMBL397497


 38 43  0  0  0  0  0  0  0  0999 V2000
  -18.5565    3.3189  -15.3224 C   0  0  0  0  0  0  0  0  0  0  0  0
  -18.6999    2.0237  -15.4484 N   0  0  0  0  0  0  0  0  0  0  0  0
  -19.9580    1.7295  -15.0020 C   0  0  0  0  0  0  0  0  0  0  0  0
  -20.6014    0.4907  -14.9127 C   0  0  0  0  0  0  0  0  0  0  0  0
  -21.8974    0.4515  -14.3889 C   0  0  0  0  0  0  0  0  0  0  0  0
  -22.5159    1.6221  -13.9310 C   0  0  0  0  0  0  0  0  0  0  0  0
  -21.9073    2.8772  -14.0680 C   0  0  0  0  0  0  0  0  0  0  0  0
  -20.6182    2.8820  -14.5973 C   0  0  0  0  0  0  0  0  0  0  0  0
  -19.7104    3.8835  -14.8324 N   0  0  0  0  0  0  0  0  0  0  0  0
  -19.8660    4.8679  -14.6887 H   0  0  0  0  0  0  0  0  0  0  0  0
  -17.4935    4.1019  -15.5979 N   0  0  0  0  0  0  0  0  0  0  0  0
  -17.6298    5.0949  -15.7373 H   0  0  0  0  0  0  0  0  0  0  0  0
  -14.6013    1.9284  -16.6813 C   0  0  0  0  0  0  0  0  0  0  0  0
  -15.6919    2.4073  -15.9268 C   0  0  0  0  0  0  0  0  0  0  0  0
  -16.2793    3.6582  -16.1770 C   0  0  0  0  0  0  0  0  0  0  0  0
  -15.6191    4.5301  -17.0482 C   0  0  0  0  0  0  0  0  0  0  0  0
  -14.5513    4.0795  -17.8157 C   0  0  0  0  0  0  0  0  0  0  0  0
  -14.1068    2.7629  -17.6948 C   0  0  0  0  0  0  0  0  0  0  0  0
  -13.0174    2.2315  -18.9217 Cl  0  0  0  0  0  0  0  0  0  0  0  0
  -14.0401    0.5491  -16.3606 C   0  0  0  0  0  0  0  0  0  0  0  0
  -15.1693   -1.9503  -12.4623 C   0  0  0  0  0  0  0  0  0  0  0  0
  -14.0890   -1.1210  -13.0004 N   0  0  0  0  0  0  0  0  0  0  0  0
  -13.5874   -1.7150  -14.2496 C   0  0  0  0  0  0  0  0  0  0  0  0
  -12.5375   -0.8315  -14.9565 C   0  0  0  0  0  0  0  0  0  0  0  0
  -13.0180    0.5250  -15.2899 N   0  0  0  0  0  0  0  0  0  0  0  0
  -13.5306    1.1249  -14.0332 C   0  0  0  0  0  0  0  0  0  0  0  0
  -14.5586    0.2571  -13.2542 C   0  0  0  0  0  0  0  0  0  0  0  0
  -22.4495   -0.8086  -14.3049 O   0  0  0  0  0  0  0  0  0  0  0  0
  -23.3921   -1.0859  -13.3434 C   0  0  0  0  0  0  0  0  0  0  0  0
  -23.1390   -1.0907  -11.9695 C   0  0  0  0  0  0  0  0  0  0  0  0
  -24.1643   -1.4187  -11.0947 C   0  0  0  0  0  0  0  0  0  0  0  0
  -25.4415   -1.6914  -11.4400 N   0  0  0  0  0  0  0  0  0  0  0  0
  -25.6546   -1.5869  -12.7642 C   0  0  0  0  0  0  0  0  0  0  0  0
  -26.8722   -1.7572  -13.3640 N   0  0  0  0  0  0  0  0  0  0  0  0
  -26.7578   -1.5532  -14.7154 C   0  0  0  0  0  0  0  0  0  0  0  0
  -25.4336   -1.2740  -14.9868 C   0  0  0  0  0  0  0  0  0  0  0  0
  -24.7241   -1.2923  -13.7512 C   0  0  0  0  0  0  0  0  0  0  0  0
  -27.7170   -1.9776  -12.8577 H   0  0  0  0  0  0  0  0  0  0  0  0
 21 22  1  0  0  0
 22 23  1  0  0  0
 22 27  1  0  0  0
 23 24  1  0  0  0
 24 25  1  0  0  0
 25 20  1  0  0  0
 25 26  1  0  0  0
 20 13  1  0  0  0
 13 14  1  0  0  0
 13 18  2  0  0  0
 14 15  2  0  0  0
 15 11  1  0  0  0
 15 16  1  0  0  0
 11  1  1  0  0  0
 11 12  1  0  0  0
  1  2  2  0  0  0
  1  9  1  0  0  0
  2  3  1  0  0  0
  3  4  1  0  0  0
  3  8  2  0  0  0
  4  5  2  0  0  0
  5 28  1  0  0  0
  5  6  1  0  0  0
 28 29  1  0  0  0
 29 30  1  0  0  0
 29 37  2  0  0  0
 30 31  2  0  0  0
 31 32  1  0  0  0
 32 33  2  0  0  0
 33 34  1  0  0  0
 33 37  1  0  0  0
 34 35  1  0  0  0
 34 38  1  0  0  0
 35 36  2  0  0  0
 36 37  1  0  0  0
  6  7  2  0  0  0
  7  8  1  0  0  0
  8  9  1  0  0  0
  9 10  1  0  0  0
 16 17  2  0  0  0
 17 18  1  0  0  0
 18 19  1  0  0  0
 26 27  1  0  0  0
M  END
> <minimizedAffinity>
-10.29864

$$$$
