CHEMBL188502


 32 35  0  0  0  0  0  0  0  0999 V2000
  -29.2281   -3.2472   -6.0143 C   0  0  0  0  0  0  0  0  0  0  0  0
  -29.0674   -1.9297   -5.5840 C   0  0  0  0  0  0  0  0  0  0  0  0
  -28.3918   -0.9715   -6.2653 N   0  0  0  0  0  0  0  0  0  0  0  0
  -27.8830   -1.3336   -7.4650 C   0  0  0  0  0  0  0  0  0  0  0  0
  -28.0083   -2.6009   -8.0370 C   0  0  0  0  0  0  0  0  0  0  0  0
  -28.6761   -3.5594   -7.2689 C   0  0  0  0  0  0  0  0  0  0  0  0
  -30.2511   -6.4740   -4.6549 C   0  0  0  0  0  0  0  0  0  0  0  0
  -31.2389   -6.0884   -3.7463 C   0  0  0  0  0  0  0  0  0  0  0  0
  -31.5903   -4.8013   -3.5161 N   0  0  0  0  0  0  0  0  0  0  0  0
  -30.9305   -3.8925   -4.2674 C   0  0  0  0  0  0  0  0  0  0  0  0
  -29.9527   -4.2313   -5.2017 C   0  0  0  0  0  0  0  0  0  0  0  0
  -29.6205   -5.5315   -5.3969 N   0  0  0  0  0  0  0  0  0  0  0  0
  -29.9857   -7.8474   -4.8784 N   0  0  0  0  0  0  0  0  0  0  0  0
  -29.1618   -8.1312   -4.3538 H   0  0  0  0  0  0  0  0  0  0  0  0
  -26.9727   -9.6146   -8.6272 Cl  0  0  0  0  0  0  0  0  0  0  0  0
  -28.5268   -9.2287   -7.9956 C   0  0  0  0  0  0  0  0  0  0  0  0
  -29.6582   -9.4206   -8.7869 C   0  0  0  0  0  0  0  0  0  0  0  0
  -30.9148   -9.0968   -8.2833 C   0  0  0  0  0  0  0  0  0  0  0  0
  -31.0320   -8.5970   -6.9834 C   0  0  0  0  0  0  0  0  0  0  0  0
  -29.9021   -8.4371   -6.1660 C   0  0  0  0  0  0  0  0  0  0  0  0
  -28.6411   -8.7219   -6.7002 C   0  0  0  0  0  0  0  0  0  0  0  0
  -27.5242   -2.8305   -9.3217 N   0  0  0  0  0  0  0  0  0  0  0  0
  -28.1599   -3.3895   -9.8890 H   0  0  0  0  0  0  0  0  0  0  0  0
  -26.7961   -1.8010  -10.0467 C   0  0  0  0  0  0  0  0  0  0  0  0
  -27.5858   -1.4229  -11.3014 C   0  0  0  0  0  0  0  0  0  0  0  0
  -26.7813   -1.7357  -12.5631 C   0  0  0  0  0  0  0  0  0  0  0  0
  -25.3506   -1.2852  -12.4648 C   0  0  0  0  0  0  0  0  0  0  0  0
  -25.0194    0.0585  -12.2788 C   0  0  0  0  0  0  0  0  0  0  0  0
  -23.6835    0.4388  -12.2042 C   0  0  0  0  0  0  0  0  0  0  0  0
  -22.7153   -0.5477  -12.3104 C   0  0  0  0  0  0  0  0  0  0  0  0
  -22.9941   -1.8586  -12.4764 N   0  0  0  0  0  0  0  0  0  0  0  0
  -24.3003   -2.1967  -12.5480 C   0  0  0  0  0  0  0  0  0  0  0  0
 15 16  1  0  0  0
 16 17  1  0  0  0
 16 21  2  0  0  0
 17 18  2  0  0  0
 18 19  1  0  0  0
 19 20  2  0  0  0
 20 13  1  0  0  0
 20 21  1  0  0  0
 13  7  1  0  0  0
 13 14  1  0  0  0
  7  8  1  0  0  0
  7 12  2  0  0  0
  8  9  2  0  0  0
  9 10  1  0  0  0
 10 11  2  0  0  0
 11  1  1  0  0  0
 11 12  1  0  0  0
  1  2  1  0  0  0
  1  6  2  0  0  0
  2  3  2  0  0  0
  3  4  1  0  0  0
  4  5  2  0  0  0
  5 22  1  0  0  0
  5  6  1  0  0  0
 22 24  1  0  0  0
 22 23  1  0  0  0
 24 25  1  0  0  0
 25 26  1  0  0  0
 26 27  1  0  0  0
 27 28  1  0  0  0
 27 32  2  0  0  0
 28 29  2  0  0  0
 29 30  1  0  0  0
 30 31  2  0  0  0
 31 32  1  0  0  0
M  END
> <minimizedAffinity>
-9.13943

$$$$
