CHEMBL3612229


 30 33  0  0  0  0  0  0  0  0999 V2000
  -28.4739   -2.6413   -8.5115 C   0  0  0  0  0  0  0  0  0  0  0  0
  -27.9321   -1.8127   -7.5205 C   0  0  0  0  0  0  0  0  0  0  0  0
  -28.0586   -2.1422   -6.1714 C   0  0  0  0  0  0  0  0  0  0  0  0
  -28.7374   -3.3024   -5.8018 C   0  0  0  0  0  0  0  0  0  0  0  0
  -29.3169   -4.1208   -6.7795 C   0  0  0  0  0  0  0  0  0  0  0  0
  -29.2003   -3.7757   -8.1368 C   0  0  0  0  0  0  0  0  0  0  0  0
  -26.9133   -1.5677  -11.6191 N   0  0  0  0  0  0  0  0  0  0  0  0
  -27.0297   -1.7819  -10.2555 C   0  0  0  0  0  0  0  0  0  0  0  0
  -26.1581   -1.5345   -9.4298 O   0  0  0  0  0  0  0  0  0  0  0  0
  -28.2445   -2.3636   -9.8887 N   0  0  0  0  0  0  0  0  0  0  0  0
  -27.7388   -1.7094  -12.1804 H   0  0  0  0  0  0  0  0  0  0  0  0
  -28.6101   -3.0343  -10.5481 H   0  0  0  0  0  0  0  0  0  0  0  0
  -23.4314   -0.1527  -13.6216 C   0  0  0  0  0  0  0  0  0  0  0  0
  -23.7946    0.3938  -12.3946 C   0  0  0  0  0  0  0  0  0  0  0  0
  -24.9426   -0.0585  -11.7350 C   0  0  0  0  0  0  0  0  0  0  0  0
  -25.7553   -1.0633  -12.2752 C   0  0  0  0  0  0  0  0  0  0  0  0
  -25.3912   -1.5985  -13.5181 C   0  0  0  0  0  0  0  0  0  0  0  0
  -24.2363   -1.1462  -14.1856 C   0  0  0  0  0  0  0  0  0  0  0  0
  -21.2822    0.6649  -14.8264 N   0  0  0  0  0  0  0  0  0  0  0  0
  -22.2473    0.2996  -14.2856 C   0  0  0  0  0  0  0  0  0  0  0  0
  -30.2602   -5.5510   -6.2893 S   0  0  0  0  0  0  0  0  0  0  0  0
  -29.7127   -6.8892   -7.3292 C   0  0  0  0  0  0  0  0  0  0  0  0
  -28.4495   -6.9596   -7.9225 C   0  0  0  0  0  0  0  0  0  0  0  0
  -28.1317   -8.0387   -8.7268 C   0  0  0  0  0  0  0  0  0  0  0  0
  -28.9447   -9.0685   -9.0010 N   0  0  0  0  0  0  0  0  0  0  0  0
  -30.1738   -9.0199   -8.4214 C   0  0  0  0  0  0  0  0  0  0  0  0
  -31.1702  -10.0269   -8.5812 C   0  0  0  0  0  0  0  0  0  0  0  0
  -32.3235   -9.7409   -7.8919 C   0  0  0  0  0  0  0  0  0  0  0  0
  -32.2120   -8.2580   -7.0557 S   0  0  0  0  0  0  0  0  0  0  0  0
  -30.5911   -7.9695   -7.5972 C   0  0  0  0  0  0  0  0  0  0  0  0
 19 20  3  0  0  0
 20 13  1  0  0  0
 13 14  1  0  0  0
 13 18  2  0  0  0
 14 15  2  0  0  0
 15 16  1  0  0  0
 16  7  1  0  0  0
 16 17  2  0  0  0
  7  8  1  0  0  0
  7 11  1  0  0  0
  8  9  2  0  0  0
  8 10  1  0  0  0
 10  1  1  0  0  0
 10 12  1  0  0  0
  1  2  1  0  0  0
  1  6  2  0  0  0
  2  3  2  0  0  0
  3  4  1  0  0  0
  4  5  2  0  0  0
  5 21  1  0  0  0
  5  6  1  0  0  0
 21 22  1  0  0  0
 22 23  1  0  0  0
 22 30  2  0  0  0
 23 24  2  0  0  0
 24 25  1  0  0  0
 25 26  2  0  0  0
 26 27  1  0  0  0
 26 30  1  0  0  0
 27 28  2  0  0  0
 28 29  1  0  0  0
 29 30  1  0  0  0
 17 18  1  0  0  0
M  END
> <minimizedAffinity>
-9.93838

$$$$
