CHEMBL3217774


 33 35  0  0  0  0  0  0  0  0999 V2000
  -28.2460   -9.7012   -6.5049 C   0  0  0  0  0  0  0  0  0  0  0  0
  -28.5885   -9.2713   -5.1913 C   0  0  0  0  0  0  0  0  0  0  0  0
  -29.1416   -8.0212   -4.9342 C   0  0  0  0  0  0  0  0  0  0  0  0
  -29.4836   -7.6975   -3.6595 N   0  0  0  0  0  0  0  0  0  0  0  0
  -30.0622   -6.5074   -3.3733 C   0  0  0  0  0  0  0  0  0  0  0  0
  -30.3029   -5.6180   -4.3685 N   0  0  0  0  0  0  0  0  0  0  0  0
  -29.9606   -5.8737   -5.6606 C   0  0  0  0  0  0  0  0  0  0  0  0
  -29.3585   -7.1132   -5.9785 C   0  0  0  0  0  0  0  0  0  0  0  0
  -29.0171   -7.4988   -7.2842 C   0  0  0  0  0  0  0  0  0  0  0  0
  -28.4937   -8.7747   -7.5747 C   0  0  0  0  0  0  0  0  0  0  0  0
  -30.2055   -4.8727   -6.6475 N   0  0  0  0  0  0  0  0  0  0  0  0
  -31.0849   -4.9012   -7.1838 H   0  0  0  0  0  0  0  0  0  0  0  0
  -29.2955   -3.8082   -6.9262 C   0  0  0  0  0  0  0  0  0  0  0  0
  -28.8058   -2.9714   -5.9023 C   0  0  0  0  0  0  0  0  0  0  0  0
  -27.9844   -1.8873   -6.2074 C   0  0  0  0  0  0  0  0  0  0  0  0
  -27.6307   -1.6276   -7.5295 C   0  0  0  0  0  0  0  0  0  0  0  0
  -28.0859   -2.4562   -8.5639 C   0  0  0  0  0  0  0  0  0  0  0  0
  -28.9271   -3.5431   -8.2550 C   0  0  0  0  0  0  0  0  0  0  0  0
  -27.6426   -2.1585  -10.0533 B   0  0  0  0  0  0  0  0  0  0  0  0
  -26.5849   -2.9390  -10.7034 O   0  0  0  0  0  0  0  0  0  0  0  0
  -28.2177   -1.0139  -10.7628 O   0  0  0  0  0  0  0  0  0  0  0  0
  -26.8148   -3.8924  -10.5776 H   0  0  0  0  0  0  0  0  0  0  0  0
  -27.8512   -0.2126  -10.3102 H   0  0  0  0  0  0  0  0  0  0  0  0
  -27.7182  -10.9603   -6.6959 O   0  0  0  0  0  0  0  0  0  0  0  0
  -26.4383  -11.2774   -6.2248 C   0  0  0  0  0  0  0  0  0  0  0  0
  -25.3998  -10.1561   -6.2070 C   0  0  0  0  0  0  0  0  0  0  0  0
  -25.1079   -9.1719   -4.1072 C   0  0  0  0  0  0  0  0  0  0  0  0
  -24.7678  -10.2524   -4.9396 O   0  0  0  0  0  0  0  0  0  0  0  0
  -28.2593   -8.9893   -8.8958 O   0  0  0  0  0  0  0  0  0  0  0  0
  -27.0999   -9.2460   -9.5933 C   0  0  0  0  0  0  0  0  0  0  0  0
  -27.3077  -10.2808  -10.7008 C   0  0  0  0  0  0  0  0  0  0  0  0
  -28.4290  -11.0586  -10.3372 O   0  0  0  0  0  0  0  0  0  0  0  0
  -28.0262  -12.3493   -9.9491 C   0  0  0  0  0  0  0  0  0  0  0  0
 27 28  1  0  0  0
 28 26  1  0  0  0
 26 25  1  0  0  0
 25 24  1  0  0  0
 24  1  1  0  0  0
  1  2  1  0  0  0
  1 10  2  0  0  0
  2  3  2  0  0  0
  3  4  1  0  0  0
  3  8  1  0  0  0
  4  5  2  0  0  0
  5  6  1  0  0  0
  6  7  2  0  0  0
  7 11  1  0  0  0
  7  8  1  0  0  0
 11 13  1  0  0  0
 11 12  1  0  0  0
 13 14  1  0  0  0
 13 18  2  0  0  0
 14 15  2  0  0  0
 15 16  1  0  0  0
 16 17  2  0  0  0
 17 19  1  0  0  0
 17 18  1  0  0  0
 19 20  1  0  0  0
 19 21  1  0  0  0
 20 22  1  0  0  0
 21 23  1  0  0  0
  8  9  2  0  0  0
  9 10  1  0  0  0
 10 29  1  0  0  0
 29 30  1  0  0  0
 30 31  1  0  0  0
 31 32  1  0  0  0
 32 33  1  0  0  0
M  END
> <minimizedAffinity>
-6.74765

$$$$
