CHEMBL1094835


 38 41  0  0  0  0  0  0  0  0999 V2000
  -15.1666   -0.8276  -13.1502 C   0  0  0  0  0  0  0  0  0  0  0  0
  -16.2779   -0.0925  -12.6621 C   0  0  0  0  0  0  0  0  0  0  0  0
  -16.8106    0.9523  -13.4080 C   0  0  0  0  0  0  0  0  0  0  0  0
  -16.2166    1.2544  -14.6377 C   0  0  0  0  0  0  0  0  0  0  0  0
  -15.1501    0.5495  -15.1162 C   0  0  0  0  0  0  0  0  0  0  0  0
  -14.5990   -0.5081  -14.3933 C   0  0  0  0  0  0  0  0  0  0  0  0
  -14.8167    1.0952  -16.3421 C   0  0  0  0  0  0  0  0  0  0  0  0
  -15.7336    2.1431  -16.5520 C   0  0  0  0  0  0  0  0  0  0  0  0
  -16.5879    2.2194  -15.4886 N   0  0  0  0  0  0  0  0  0  0  0  0
  -14.6200   -1.8390  -12.4469 O   0  0  0  0  0  0  0  0  0  0  0  0
  -15.2784   -2.5611  -11.4823 C   0  0  0  0  0  0  0  0  0  0  0  0
  -16.2725   -3.4745  -12.1707 C   0  0  0  0  0  0  0  0  0  0  0  0
  -14.6880   -7.4478  -12.6493 C   0  0  0  0  0  0  0  0  0  0  0  0
  -14.2900   -6.6431  -11.5639 C   0  0  0  0  0  0  0  0  0  0  0  0
  -14.7947   -5.3575  -11.4213 C   0  0  0  0  0  0  0  0  0  0  0  0
  -15.7004   -4.8451  -12.3602 C   0  0  0  0  0  0  0  0  0  0  0  0
  -16.0791   -5.6303  -13.4587 C   0  0  0  0  0  0  0  0  0  0  0  0
  -15.5744   -6.9249  -13.6006 C   0  0  0  0  0  0  0  0  0  0  0  0
  -13.1714   -9.2597  -12.1262 C   0  0  0  0  0  0  0  0  0  0  0  0
  -14.2563   -8.7251  -12.7910 O   0  0  0  0  0  0  0  0  0  0  0  0
  -13.6979    0.5986  -17.2402 C   0  0  0  0  0  0  0  0  0  0  0  0
  -14.0577    0.5141  -18.7281 C   0  0  0  0  0  0  0  0  0  0  0  0
  -13.9508   -0.8528  -19.2310 N   0  0  0  0  0  0  0  0  0  0  0  0
  -12.9428   -1.1267  -19.2652 H   0  0  0  0  0  0  0  0  0  0  0  0
  -14.3123   -0.8697  -20.2129 H   0  0  0  0  0  0  0  0  0  0  0  0
  -17.7293    3.0916  -15.1662 C   0  0  0  0  0  0  0  0  0  0  0  0
  -19.1344    2.6652  -15.5941 C   0  0  0  0  0  0  0  0  0  0  0  0
  -20.0680    2.9547  -14.3891 C   0  0  0  0  0  0  0  0  0  0  0  0
  -21.4010    2.2133  -14.4591 C   0  0  0  0  0  0  0  0  0  0  0  0
  -21.2027    0.6907  -14.2861 C   0  0  0  0  0  0  0  0  0  0  0  0
  -22.4262    0.0524  -13.6686 C   0  0  0  0  0  0  0  0  0  0  0  0
  -23.5453   -0.2462  -14.4643 C   0  0  0  0  0  0  0  0  0  0  0  0
  -24.6956   -0.7997  -13.8932 C   0  0  0  0  0  0  0  0  0  0  0  0
  -24.7424   -1.0694  -12.5208 C   0  0  0  0  0  0  0  0  0  0  0  0
  -23.6229   -0.7982  -11.7247 C   0  0  0  0  0  0  0  0  0  0  0  0
  -22.4702   -0.2420  -12.2934 C   0  0  0  0  0  0  0  0  0  0  0  0
  -26.2558   -1.6996  -11.7774 S   0  0  0  0  0  0  0  0  0  0  0  0
  -27.1379   -2.0043  -13.3376 C   0  0  0  0  0  0  0  0  0  0  0  0
 19 20  1  0  0  0
 20 13  1  0  0  0
 13 14  1  0  0  0
 13 18  2  0  0  0
 14 15  2  0  0  0
 15 16  1  0  0  0
 16 12  1  0  0  0
 16 17  2  0  0  0
 12 11  1  0  0  0
 11 10  1  0  0  0
 10  1  1  0  0  0
  1  2  1  0  0  0
  1  6  2  0  0  0
  2  3  2  0  0  0
  3  4  1  0  0  0
  4  5  2  0  0  0
  4  9  1  0  0  0
  5  6  1  0  0  0
  5  7  1  0  0  0
  7 21  1  0  0  0
  7  8  2  0  0  0
 21 22  1  0  0  0
 22 23  1  0  0  0
 23 24  1  0  0  0
 23 25  1  0  0  0
  8  9  1  0  0  0
  9 26  1  0  0  0
 26 27  1  0  0  0
 27 28  1  0  0  0
 28 29  1  0  0  0
 29 30  1  0  0  0
 30 31  1  0  0  0
 31 32  1  0  0  0
 31 36  2  0  0  0
 32 33  2  0  0  0
 33 34  1  0  0  0
 34 37  1  0  0  0
 34 35  2  0  0  0
 37 38  1  0  0  0
 35 36  1  0  0  0
 17 18  1  0  0  0
M  END
> <minimizedAffinity>
-9.00397

$$$$
