CHEMBL2086744


 36 40  0  0  0  0  0  0  0  0999 V2000
  -15.4317   -2.5567  -13.0874 C   0  0  0  0  0  0  0  0  0  0  0  0
  -16.0871   -3.0261  -11.9382 C   0  0  0  0  0  0  0  0  0  0  0  0
  -16.1704   -4.3854  -11.6831 C   0  0  0  0  0  0  0  0  0  0  0  0
  -15.5806   -5.2399  -12.6023 C   0  0  0  0  0  0  0  0  0  0  0  0
  -14.8696   -4.8433  -13.7504 C   0  0  0  0  0  0  0  0  0  0  0  0
  -14.7997   -3.4675  -13.9875 C   0  0  0  0  0  0  0  0  0  0  0  0
  -14.4261   -6.1319  -14.4509 C   0  0  0  0  0  0  0  0  0  0  0  0
  -13.6643   -6.3694  -15.5768 C   0  0  0  0  0  0  0  0  0  0  0  0
  -15.0247   -7.2299  -13.5560 C   0  0  0  0  0  0  0  0  0  0  0  0
  -14.9291   -8.4390  -13.6212 O   0  0  0  0  0  0  0  0  0  0  0  0
  -15.6472   -6.6097  -12.5070 N   0  0  0  0  0  0  0  0  0  0  0  0
  -16.0916   -7.1319  -11.7662 H   0  0  0  0  0  0  0  0  0  0  0  0
  -13.4534   -7.7219  -16.1582 C   0  0  0  0  0  0  0  0  0  0  0  0
  -12.7118   -8.8029  -15.8506 N   0  0  0  0  0  0  0  0  0  0  0  0
  -12.7374   -9.6558  -16.9814 C   0  0  0  0  0  0  0  0  0  0  0  0
  -12.0955  -10.8641  -17.3630 C   0  0  0  0  0  0  0  0  0  0  0  0
  -12.1564  -11.2837  -18.7215 C   0  0  0  0  0  0  0  0  0  0  0  0
  -12.8876  -10.5667  -19.6695 C   0  0  0  0  0  0  0  0  0  0  0  0
  -13.6710   -9.4884  -19.2655 C   0  0  0  0  0  0  0  0  0  0  0  0
  -13.5734   -9.0876  -17.9328 C   0  0  0  0  0  0  0  0  0  0  0  0
  -14.2022   -8.0895  -17.2534 N   0  0  0  0  0  0  0  0  0  0  0  0
  -14.8553   -7.4688  -17.7124 H   0  0  0  0  0  0  0  0  0  0  0  0
  -13.0218   -5.1741  -16.2028 C   0  0  0  0  0  0  0  0  0  0  0  0
  -11.7926   -4.6766  -15.7259 C   0  0  0  0  0  0  0  0  0  0  0  0
  -11.1985   -3.5484  -16.3098 C   0  0  0  0  0  0  0  0  0  0  0  0
  -11.8168   -2.9105  -17.3822 C   0  0  0  0  0  0  0  0  0  0  0  0
  -13.0440   -3.3794  -17.8487 C   0  0  0  0  0  0  0  0  0  0  0  0
  -13.6522   -4.4910  -17.2510 C   0  0  0  0  0  0  0  0  0  0  0  0
  -16.1805   -0.6375  -14.3970 N   0  0  0  0  0  0  0  0  0  0  0  0
  -15.4668   -1.0724  -13.3001 C   0  0  0  0  0  0  0  0  0  0  0  0
  -14.9426   -0.3202  -12.4892 O   0  0  0  0  0  0  0  0  0  0  0  0
  -16.6492   -1.3075  -14.9902 H   0  0  0  0  0  0  0  0  0  0  0  0
  -16.3705    0.7716  -14.6913 C   0  0  0  0  0  0  0  0  0  0  0  0
  -17.6454    1.3378  -14.0679 C   0  0  0  0  0  0  0  0  0  0  0  0
  -19.7971    0.6643  -15.1936 C   0  0  0  0  0  0  0  0  0  0  0  0
  -18.6942    1.7075  -15.1185 C   0  0  0  0  0  0  0  0  0  0  0  0
 35 36  1  0  0  0
 36 34  1  0  0  0
 34 33  1  0  0  0
 33 29  1  0  0  0
 29 30  1  0  0  0
 29 32  1  0  0  0
 30 31  2  0  0  0
 30  1  1  0  0  0
  1  2  1  0  0  0
  1  6  2  0  0  0
  2  3  2  0  0  0
  3  4  1  0  0  0
  4  5  2  0  0  0
  4 11  1  0  0  0
  5  6  1  0  0  0
  5  7  1  0  0  0
  7  8  2  0  0  0
  7  9  1  0  0  0
  8 23  1  0  0  0
  8 13  1  0  0  0
 23 24  1  0  0  0
 23 28  2  0  0  0
 24 25  2  0  0  0
 25 26  1  0  0  0
 26 27  2  0  0  0
 27 28  1  0  0  0
 13 14  2  0  0  0
 13 21  1  0  0  0
 14 15  1  0  0  0
 15 16  1  0  0  0
 15 20  2  0  0  0
 16 17  2  0  0  0
 17 18  1  0  0  0
 18 19  2  0  0  0
 19 20  1  0  0  0
 20 21  1  0  0  0
 21 22  1  0  0  0
  9 10  2  0  0  0
  9 11  1  0  0  0
 11 12  1  0  0  0
M  END
> <minimizedAffinity>
-8.31591

$$$$
