CHEMBL4175943


 33 36  0  0  0  0  0  0  0  0999 V2000
  -29.2222   -3.6359   -6.5060 C   0  0  0  0  0  0  0  0  0  0  0  0
  -29.3831   -3.9651   -7.8559 C   0  0  0  0  0  0  0  0  0  0  0  0
  -28.8112   -3.1794   -8.8726 C   0  0  0  0  0  0  0  0  0  0  0  0
  -28.0114   -2.0708   -8.5663 C   0  0  0  0  0  0  0  0  0  0  0  0
  -27.7528   -1.8157   -7.2269 C   0  0  0  0  0  0  0  0  0  0  0  0
  -28.3628   -2.5667   -6.2184 C   0  0  0  0  0  0  0  0  0  0  0  0
  -28.1309   -6.8213   -6.7377 N   0  0  0  0  0  0  0  0  0  0  0  0
  -28.9773   -6.8487   -5.6929 C   0  0  0  0  0  0  0  0  0  0  0  0
  -29.2043   -7.9856   -5.0471 N   0  0  0  0  0  0  0  0  0  0  0  0
  -30.1095   -7.6517   -4.1227 N   0  0  0  0  0  0  0  0  0  0  0  0
  -30.4712   -6.3319   -4.1376 C   0  0  0  0  0  0  0  0  0  0  0  0
  -31.3939   -5.6463   -3.3427 C   0  0  0  0  0  0  0  0  0  0  0  0
  -31.5522   -4.2870   -3.5781 C   0  0  0  0  0  0  0  0  0  0  0  0
  -30.8130   -3.6540   -4.5728 C   0  0  0  0  0  0  0  0  0  0  0  0
  -29.8926   -4.3471   -5.4019 C   0  0  0  0  0  0  0  0  0  0  0  0
  -29.7220   -5.7430   -5.1605 C   0  0  0  0  0  0  0  0  0  0  0  0
  -27.8353   -7.7357   -7.0640 H   0  0  0  0  0  0  0  0  0  0  0  0
  -28.3144   -6.1752   -7.4939 H   0  0  0  0  0  0  0  0  0  0  0  0
  -30.4556   -8.3759   -3.5074 H   0  0  0  0  0  0  0  0  0  0  0  0
  -27.5677   -1.2714   -9.6465 N   0  0  0  0  0  0  0  0  0  0  0  0
  -27.7281   -0.2782   -9.5226 H   0  0  0  0  0  0  0  0  0  0  0  0
  -26.9800   -1.5825  -10.8726 C   0  0  0  0  0  0  0  0  0  0  0  0
  -27.7214   -1.9682  -12.3273 S   0  0  0  0  0  0  0  0  0  0  0  0
  -25.5874   -1.6303  -10.7002 N   0  0  0  0  0  0  0  0  0  0  0  0
  -25.2904   -2.3582  -10.0625 H   0  0  0  0  0  0  0  0  0  0  0  0
  -24.6196   -1.1921  -11.6334 C   0  0  0  0  0  0  0  0  0  0  0  0
  -23.7590   -2.1344  -12.2014 C   0  0  0  0  0  0  0  0  0  0  0  0
  -22.7961   -1.7250  -13.1281 C   0  0  0  0  0  0  0  0  0  0  0  0
  -22.6716   -0.3751  -13.4697 C   0  0  0  0  0  0  0  0  0  0  0  0
  -21.4524    0.0580  -14.6133 Cl  0  0  0  0  0  0  0  0  0  0  0  0
  -23.5140    0.5708  -12.8790 C   0  0  0  0  0  0  0  0  0  0  0  0
  -23.4142    2.2583  -13.2376 Cl  0  0  0  0  0  0  0  0  0  0  0  0
  -24.4781    0.1599  -11.9568 C   0  0  0  0  0  0  0  0  0  0  0  0
  7  8  1  0  0  0
  7 17  1  0  0  0
  7 18  1  0  0  0
  8  9  2  0  0  0
  8 16  1  0  0  0
  9 10  1  0  0  0
 10 11  1  0  0  0
 10 19  1  0  0  0
 11 12  1  0  0  0
 11 16  2  0  0  0
 12 13  2  0  0  0
 13 14  1  0  0  0
 14 15  2  0  0  0
 15  1  1  0  0  0
 15 16  1  0  0  0
  1  2  1  0  0  0
  1  6  2  0  0  0
  2  3  2  0  0  0
  3  4  1  0  0  0
  4 20  1  0  0  0
  4  5  2  0  0  0
 20 22  1  0  0  0
 20 21  1  0  0  0
 22 23  2  0  0  0
 22 24  1  0  0  0
 24 26  1  0  0  0
 24 25  1  0  0  0
 26 27  1  0  0  0
 26 33  2  0  0  0
 27 28  2  0  0  0
 28 29  1  0  0  0
 29 30  1  0  0  0
 29 31  2  0  0  0
 31 32  1  0  0  0
 31 33  1  0  0  0
  5  6  1  0  0  0
M  END
> <minimizedAffinity>
-9.91805

$$$$
