CHEMBL1084337


 36 42  0  0  0  0  0  0  0  0999 V2000
  -12.9653   -0.5548  -15.9063 N   0  0  0  0  0  0  0  0  0  0  0  0
  -13.5148   -1.5850  -15.0966 C   0  0  0  0  0  0  0  0  0  0  0  0
  -13.2839   -2.9735  -15.0386 C   0  0  0  0  0  0  0  0  0  0  0  0
  -14.0293   -3.7437  -14.1183 C   0  0  0  0  0  0  0  0  0  0  0  0
  -14.9692   -3.1753  -13.2406 C   0  0  0  0  0  0  0  0  0  0  0  0
  -15.2053   -1.8057  -13.3548 C   0  0  0  0  0  0  0  0  0  0  0  0
  -14.5160   -1.0270  -14.3038 C   0  0  0  0  0  0  0  0  0  0  0  0
  -14.6197    0.2495  -14.8072 C   0  0  0  0  0  0  0  0  0  0  0  0
  -15.7964    1.0000  -14.6647 C   0  0  0  0  0  0  0  0  0  0  0  0
  -16.0017    1.9801  -15.6543 C   0  0  0  0  0  0  0  0  0  0  0  0
  -15.0353    2.3400  -16.6072 C   0  0  0  0  0  0  0  0  0  0  0  0
  -13.7009    1.9389  -16.2487 C   0  0  0  0  0  0  0  0  0  0  0  0
  -13.6479    0.6537  -15.6755 C   0  0  0  0  0  0  0  0  0  0  0  0
  -12.8673    3.1656  -15.6717 C   0  0  0  0  0  0  0  0  0  0  0  0
  -13.7218    4.4768  -15.4087 C   0  0  0  0  0  0  0  0  0  0  0  0
  -14.4953    4.7301  -16.6546 C   0  0  0  0  0  0  0  0  0  0  0  0
  -14.3879    5.7725  -17.4773 N   0  0  0  0  0  0  0  0  0  0  0  0
  -14.8984    5.2838  -18.6358 N   0  0  0  0  0  0  0  0  0  0  0  0
  -14.8092    6.0714  -19.8412 C   0  0  0  0  0  0  0  0  0  0  0  0
  -15.2360    3.9533  -18.5713 C   0  0  0  0  0  0  0  0  0  0  0  0
  -15.1478    3.6352  -17.2351 C   0  0  0  0  0  0  0  0  0  0  0  0
  -17.2598    2.6219  -15.3569 C   0  0  0  0  0  0  0  0  0  0  0  0
  -17.8824    3.5384  -15.8768 O   0  0  0  0  0  0  0  0  0  0  0  0
  -17.7105    1.9886  -14.2043 N   0  0  0  0  0  0  0  0  0  0  0  0
  -16.8989    0.9012  -13.7174 C   0  0  0  0  0  0  0  0  0  0  0  0
  -18.5438    2.3276  -13.7492 H   0  0  0  0  0  0  0  0  0  0  0  0
  -15.6273   -3.9928  -12.1322 C   0  0  0  0  0  0  0  0  0  0  0  0
  -15.9820   -3.2292  -10.8479 C   0  0  0  0  0  0  0  0  0  0  0  0
  -14.8881   -3.2729   -9.7901 C   0  0  0  0  0  0  0  0  0  0  0  0
  -14.4747   -4.7139   -9.5491 C   0  0  0  0  0  0  0  0  0  0  0  0
  -14.0007   -5.3154  -10.8563 C   0  0  0  0  0  0  0  0  0  0  0  0
  -14.9969   -5.2628  -11.8752 O   0  0  0  0  0  0  0  0  0  0  0  0
  -12.0796   -0.8085  -17.0387 C   0  0  0  0  0  0  0  0  0  0  0  0
  -13.6969   -0.5903  -18.9978 C   0  0  0  0  0  0  0  0  0  0  0  0
  -12.7063   -1.4944  -18.2651 C   0  0  0  0  0  0  0  0  0  0  0  0
  -11.5987   -1.9204  -19.2413 C   0  0  0  0  0  0  0  0  0  0  0  0
 34 35  1  0  0  0
 35 36  1  0  0  0
 35 33  1  0  0  0
 33  1  1  0  0  0
  1  2  1  0  0  0
  1 13  1  0  0  0
  2  3  1  0  0  0
  2  7  2  0  0  0
  3  4  2  0  0  0
  4  5  1  0  0  0
  5 27  1  0  0  0
  5  6  2  0  0  0
 27 28  1  0  0  0
 27 32  1  0  0  0
 28 29  1  0  0  0
 29 30  1  0  0  0
 30 31  1  0  0  0
 31 32  1  0  0  0
  6  7  1  0  0  0
  7  8  1  0  0  0
  8  9  1  0  0  0
  8 13  2  0  0  0
  9 10  2  0  0  0
  9 25  1  0  0  0
 10 11  1  0  0  0
 10 22  1  0  0  0
 11 12  2  0  0  0
 11 21  1  0  0  0
 12 13  1  0  0  0
 12 14  1  0  0  0
 14 15  1  0  0  0
 15 16  1  0  0  0
 16 17  2  0  0  0
 16 21  1  0  0  0
 17 18  1  0  0  0
 18 19  1  0  0  0
 18 20  1  0  0  0
 20 21  2  0  0  0
 22 23  2  0  0  0
 22 24  1  0  0  0
 24 25  1  0  0  0
 24 26  1  0  0  0
M  END
> <minimizedAffinity>
-7.86341

$$$$
