CHEMBL436968


 35 39  0  0  0  0  0  0  0  0999 V2000
  -13.7150   -3.2005  -14.3993 C   0  0  0  0  0  0  0  0  0  0  0  0
  -13.9194   -1.8911  -13.9281 C   0  0  0  0  0  0  0  0  0  0  0  0
  -14.9069   -1.6187  -12.9968 C   0  0  0  0  0  0  0  0  0  0  0  0
  -15.7823   -2.6349  -12.6396 C   0  0  0  0  0  0  0  0  0  0  0  0
  -15.6357   -3.9257  -13.1111 C   0  0  0  0  0  0  0  0  0  0  0  0
  -16.5395   -4.7854  -12.6348 N   0  0  0  0  0  0  0  0  0  0  0  0
  -16.4457   -6.0470  -13.0398 C   0  0  0  0  0  0  0  0  0  0  0  0
  -15.5500   -6.5228  -13.8931 N   0  0  0  0  0  0  0  0  0  0  0  0
  -14.6394   -5.6557  -14.3662 C   0  0  0  0  0  0  0  0  0  0  0  0
  -14.6030   -4.2679  -14.0051 C   0  0  0  0  0  0  0  0  0  0  0  0
  -13.7079   -6.1725  -15.2763 N   0  0  0  0  0  0  0  0  0  0  0  0
  -13.3841   -5.4233  -15.8856 H   0  0  0  0  0  0  0  0  0  0  0  0
  -13.6236   -7.4337  -15.9085 C   0  0  0  0  0  0  0  0  0  0  0  0
  -13.2365   -8.6625  -15.3331 C   0  0  0  0  0  0  0  0  0  0  0  0
  -12.7716   -8.8424  -13.6744 Cl  0  0  0  0  0  0  0  0  0  0  0  0
  -13.0918   -9.8286  -16.1280 C   0  0  0  0  0  0  0  0  0  0  0  0
  -13.2906   -9.7949  -17.5096 C   0  0  0  0  0  0  0  0  0  0  0  0
  -13.6241   -8.5846  -18.0655 C   0  0  0  0  0  0  0  0  0  0  0  0
  -13.7814   -7.4548  -17.2944 C   0  0  0  0  0  0  0  0  0  0  0  0
  -14.0713   -6.3541  -18.0556 O   0  0  0  0  0  0  0  0  0  0  0  0
  -14.1001   -6.9327  -19.3758 C   0  0  0  0  0  0  0  0  0  0  0  0
  -13.8027   -8.3429  -19.3905 O   0  0  0  0  0  0  0  0  0  0  0  0
  -12.6785   -3.2470  -15.2924 O   0  0  0  0  0  0  0  0  0  0  0  0
  -11.1981   -1.9939  -16.6830 C   0  0  0  0  0  0  0  0  0  0  0  0
  -12.6454   -2.4503  -16.4825 C   0  0  0  0  0  0  0  0  0  0  0  0
  -13.1386   -3.0886  -17.7809 C   0  0  0  0  0  0  0  0  0  0  0  0
  -14.9460   -0.3464  -12.5012 O   0  0  0  0  0  0  0  0  0  0  0  0
  -15.1845    0.6926  -13.4643 C   0  0  0  0  0  0  0  0  0  0  0  0
  -16.6980    0.9118  -13.6074 C   0  0  0  0  0  0  0  0  0  0  0  0
  -17.1903    0.7555  -14.9916 N   0  0  0  0  0  0  0  0  0  0  0  0
  -16.6086    1.7297  -15.9404 C   0  0  0  0  0  0  0  0  0  0  0  0
  -17.0888    3.1696  -15.7055 C   0  0  0  0  0  0  0  0  0  0  0  0
  -18.5183    3.2566  -15.7694 O   0  0  0  0  0  0  0  0  0  0  0  0
  -19.1386    2.3557  -14.8418 C   0  0  0  0  0  0  0  0  0  0  0  0
  -18.6628    0.9067  -15.0519 C   0  0  0  0  0  0  0  0  0  0  0  0
 24 25  1  0  0  0
 25 26  1  0  0  0
 25 23  1  0  0  0
 23  1  1  0  0  0
  1  2  1  0  0  0
  1 10  2  0  0  0
  2  3  2  0  0  0
  3 27  1  0  0  0
  3  4  1  0  0  0
 27 28  1  0  0  0
 28 29  1  0  0  0
 29 30  1  0  0  0
 30 31  1  0  0  0
 30 35  1  0  0  0
 31 32  1  0  0  0
 32 33  1  0  0  0
 33 34  1  0  0  0
 34 35  1  0  0  0
  4  5  2  0  0  0
  5  6  1  0  0  0
  5 10  1  0  0  0
  6  7  2  0  0  0
  7  8  1  0  0  0
  8  9  2  0  0  0
  9 11  1  0  0  0
  9 10  1  0  0  0
 11 13  1  0  0  0
 11 12  1  0  0  0
 13 14  1  0  0  0
 13 19  2  0  0  0
 14 15  1  0  0  0
 14 16  2  0  0  0
 16 17  1  0  0  0
 17 18  2  0  0  0
 18 19  1  0  0  0
 18 22  1  0  0  0
 19 20  1  0  0  0
 20 21  1  0  0  0
 21 22  1  0  0  0
M  END
> <minimizedAffinity>
-7.00542

$$$$
