CHEMBL3930543


 46 50  0  0  0  0  0  0  0  0999 V2000
  -12.8781   -3.8337  -14.8279 N   0  0  0  0  0  0  0  0  0  0  0  0
  -13.9352   -2.9714  -14.5741 C   0  0  0  0  0  0  0  0  0  0  0  0
  -15.0189   -3.3145  -14.1061 O   0  0  0  0  0  0  0  0  0  0  0  0
  -13.6625   -1.6527  -14.9185 N   0  0  0  0  0  0  0  0  0  0  0  0
  -11.9555   -3.4235  -14.8282 H   0  0  0  0  0  0  0  0  0  0  0  0
  -13.1061   -1.5494  -15.7558 H   0  0  0  0  0  0  0  0  0  0  0  0
  -14.6648   -0.6745  -14.6825 C   0  0  0  0  0  0  0  0  0  0  0  0
  -14.9907    0.2596  -15.6755 C   0  0  0  0  0  0  0  0  0  0  0  0
  -15.8811    1.3046  -15.4146 C   0  0  0  0  0  0  0  0  0  0  0  0
  -16.5182    1.3890  -14.1743 C   0  0  0  0  0  0  0  0  0  0  0  0
  -16.1802    0.4589  -13.1865 C   0  0  0  0  0  0  0  0  0  0  0  0
  -16.7081    0.5648  -11.9576 F   0  0  0  0  0  0  0  0  0  0  0  0
  -15.2771   -0.5833  -13.4350 C   0  0  0  0  0  0  0  0  0  0  0  0
  -17.4355    2.3770  -13.8577 O   0  0  0  0  0  0  0  0  0  0  0  0
  -18.6986    2.3330  -14.4202 C   0  0  0  0  0  0  0  0  0  0  0  0
  -19.1918    3.3266  -15.2617 C   0  0  0  0  0  0  0  0  0  0  0  0
  -20.4899    3.2152  -15.6973 C   0  0  0  0  0  0  0  0  0  0  0  0
  -21.2745    2.1636  -15.4127 N   0  0  0  0  0  0  0  0  0  0  0  0
  -20.7837    1.1565  -14.6691 C   0  0  0  0  0  0  0  0  0  0  0  0
  -19.4875    1.2041  -14.1515 C   0  0  0  0  0  0  0  0  0  0  0  0
  -21.5967    0.0345  -14.4254 N   0  0  0  0  0  0  0  0  0  0  0  0
  -22.7853    0.0962  -13.7267 C   0  0  0  0  0  0  0  0  0  0  0  0
  -23.2793    1.0809  -13.1936 O   0  0  0  0  0  0  0  0  0  0  0  0
  -21.3000   -0.8492  -14.8109 H   0  0  0  0  0  0  0  0  0  0  0  0
  -23.5861   -1.1615  -13.6258 C   0  0  0  0  0  0  0  0  0  0  0  0
  -24.7008   -1.4867  -12.6759 C   0  0  0  0  0  0  0  0  0  0  0  0
  -23.3394   -2.0767  -12.4484 C   0  0  0  0  0  0  0  0  0  0  0  0
  -13.2881   -7.4840  -15.6384 C   0  0  0  0  0  0  0  0  0  0  0  0
  -13.0732   -6.1102  -15.7616 C   0  0  0  0  0  0  0  0  0  0  0  0
  -12.9720   -5.2428  -14.6573 C   0  0  0  0  0  0  0  0  0  0  0  0
  -12.9987   -5.7898  -13.3730 C   0  0  0  0  0  0  0  0  0  0  0  0
  -13.1889   -7.1736  -13.2025 C   0  0  0  0  0  0  0  0  0  0  0  0
  -13.3206   -7.9954  -14.3399 C   0  0  0  0  0  0  0  0  0  0  0  0
  -12.3426   -9.7591  -19.0801 N   0  0  0  0  0  0  0  0  0  0  0  0
  -12.1816  -10.2488  -17.6843 C   0  0  0  0  0  0  0  0  0  0  0  0
  -13.2567   -9.7653  -16.6821 C   0  0  0  0  0  0  0  0  0  0  0  0
  -13.4778   -8.3084  -16.7378 N   0  0  0  0  0  0  0  0  0  0  0  0
  -13.4537   -7.6782  -18.0703 C   0  0  0  0  0  0  0  0  0  0  0  0
  -12.3469   -8.2768  -18.9742 C   0  0  0  0  0  0  0  0  0  0  0  0
  -13.5696   -9.9191  -21.2609 C   0  0  0  0  0  0  0  0  0  0  0  0
  -13.5409  -10.3002  -19.7686 C   0  0  0  0  0  0  0  0  0  0  0  0
  -13.6148  -11.8368  -19.7119 C   0  0  0  0  0  0  0  0  0  0  0  0
  -13.3085   -7.8134  -11.8423 C   0  0  0  0  0  0  0  0  0  0  0  0
  -12.1428   -7.8246  -11.1374 F   0  0  0  0  0  0  0  0  0  0  0  0
  -14.2146   -7.1740  -11.0500 F   0  0  0  0  0  0  0  0  0  0  0  0
  -13.7210   -9.1099  -11.9043 F   0  0  0  0  0  0  0  0  0  0  0  0
 40 41  1  0  0  0
 41 42  1  0  0  0
 41 34  1  0  0  0
 34 35  1  0  0  0
 34 39  1  0  0  0
 35 36  1  0  0  0
 36 37  1  0  0  0
 37 28  1  0  0  0
 37 38  1  0  0  0
 28 29  1  0  0  0
 28 33  2  0  0  0
 29 30  2  0  0  0
 30  1  1  0  0  0
 30 31  1  0  0  0
  1  2  1  0  0  0
  1  5  1  0  0  0
  2  3  2  0  0  0
  2  4  1  0  0  0
  4  7  1  0  0  0
  4  6  1  0  0  0
  7  8  1  0  0  0
  7 13  2  0  0  0
  8  9  2  0  0  0
  9 10  1  0  0  0
 10 14  1  0  0  0
 10 11  2  0  0  0
 14 15  1  0  0  0
 15 16  1  0  0  0
 15 20  2  0  0  0
 16 17  2  0  0  0
 17 18  1  0  0  0
 18 19  2  0  0  0
 19 21  1  0  0  0
 19 20  1  0  0  0
 21 22  1  0  0  0
 21 24  1  0  0  0
 22 23  2  0  0  0
 22 25  1  0  0  0
 25 26  1  0  0  0
 25 27  1  0  0  0
 26 27  1  0  0  0
 11 12  1  0  0  0
 11 13  1  0  0  0
 31 32  2  0  0  0
 32 43  1  0  0  0
 32 33  1  0  0  0
 43 44  1  0  0  0
 43 45  1  0  0  0
 43 46  1  0  0  0
 38 39  1  0  0  0
M  END
> <minimizedAffinity>
-8.54676

$$$$
