CHEMBL3978214


 32 36  0  0  0  0  0  0  0  0999 V2000
  -15.3225   -2.0809  -12.5639 C   0  0  0  0  0  0  0  0  0  0  0  0
  -15.7471   -2.7041  -11.3945 C   0  0  0  0  0  0  0  0  0  0  0  0
  -15.2865   -3.9916  -11.1093 C   0  0  0  0  0  0  0  0  0  0  0  0
  -14.4203   -4.6558  -11.9937 C   0  0  0  0  0  0  0  0  0  0  0  0
  -13.9814   -4.0594  -13.1817 C   0  0  0  0  0  0  0  0  0  0  0  0
  -14.4315   -2.7551  -13.4222 C   0  0  0  0  0  0  0  0  0  0  0  0
  -13.1900   -4.7315  -14.0958 N   0  0  0  0  0  0  0  0  0  0  0  0
  -12.1717   -5.7004  -13.6595 C   0  0  0  0  0  0  0  0  0  0  0  0
  -12.5764   -7.1195  -14.0687 C   0  0  0  0  0  0  0  0  0  0  0  0
  -13.0668   -7.1568  -15.4934 C   0  0  0  0  0  0  0  0  0  0  0  0
  -13.4244   -6.0235  -16.1333 C   0  0  0  0  0  0  0  0  0  0  0  0
  -13.8803   -6.2028  -17.5407 C   0  0  0  0  0  0  0  0  0  0  0  0
  -13.9602   -7.3275  -18.1852 N   0  0  0  0  0  0  0  0  0  0  0  0
  -13.5883   -8.4402  -17.4860 C   0  0  0  0  0  0  0  0  0  0  0  0
  -13.5520   -9.7690  -17.8420 C   0  0  0  0  0  0  0  0  0  0  0  0
  -13.0805  -10.4399  -16.7047 C   0  0  0  0  0  0  0  0  0  0  0  0
  -12.8291   -9.6180  -15.6861 N   0  0  0  0  0  0  0  0  0  0  0  0
  -13.1460   -8.3793  -16.1590 N   0  0  0  0  0  0  0  0  0  0  0  0
  -13.4267   -4.6451  -15.5408 C   0  0  0  0  0  0  0  0  0  0  0  0
  -16.3537   -0.7117  -14.3476 N   0  0  0  0  0  0  0  0  0  0  0  0
  -15.8566   -0.7775  -13.0513 C   0  0  0  0  0  0  0  0  0  0  0  0
  -15.8523    0.1498  -12.2464 O   0  0  0  0  0  0  0  0  0  0  0  0
  -16.5416   -1.5809  -14.8293 H   0  0  0  0  0  0  0  0  0  0  0  0
  -18.8433    1.9042  -15.2905 C   0  0  0  0  0  0  0  0  0  0  0  0
  -17.9985    2.8959  -15.8111 C   0  0  0  0  0  0  0  0  0  0  0  0
  -16.6332    2.6673  -15.9277 C   0  0  0  0  0  0  0  0  0  0  0  0
  -16.0901    1.4612  -15.4889 C   0  0  0  0  0  0  0  0  0  0  0  0
  -16.8956    0.4704  -14.9212 C   0  0  0  0  0  0  0  0  0  0  0  0
  -18.2812    0.6748  -14.8824 C   0  0  0  0  0  0  0  0  0  0  0  0
  -21.1164    0.9609  -14.7465 C   0  0  0  0  0  0  0  0  0  0  0  0
  -20.3250    2.2073  -15.1386 C   0  0  0  0  0  0  0  0  0  0  0  0
  -20.5717    3.3477  -14.1473 C   0  0  0  0  0  0  0  0  0  0  0  0
 30 31  1  0  0  0
 31 32  1  0  0  0
 31 24  1  0  0  0
 24 25  1  0  0  0
 24 29  2  0  0  0
 25 26  2  0  0  0
 26 27  1  0  0  0
 27 28  2  0  0  0
 28 20  1  0  0  0
 28 29  1  0  0  0
 20 21  1  0  0  0
 20 23  1  0  0  0
 21 22  2  0  0  0
 21  1  1  0  0  0
  1  2  1  0  0  0
  1  6  2  0  0  0
  2  3  2  0  0  0
  3  4  1  0  0  0
  4  5  2  0  0  0
  5  7  1  0  0  0
  5  6  1  0  0  0
  7  8  1  0  0  0
  7 19  1  0  0  0
  8  9  1  0  0  0
  9 10  1  0  0  0
 10 11  2  0  0  0
 10 18  1  0  0  0
 11 12  1  0  0  0
 11 19  1  0  0  0
 12 13  2  0  0  0
 13 14  1  0  0  0
 14 15  2  0  0  0
 14 18  1  0  0  0
 15 16  1  0  0  0
 16 17  2  0  0  0
 17 18  1  0  0  0
M  END
> <minimizedAffinity>
-10.26249

$$$$
