CHEMBL1996837


 18 19  0  0  0  0  0  0  0  0999 V2000
  -31.5686   -4.2670   -3.5454 C   0  0  0  0  0  0  0  0  0  0  0  0
  -30.8971   -4.9898   -4.6498 C   0  0  0  0  0  0  0  0  0  0  0  0
  -31.0873   -6.3265   -4.7855 N   0  0  0  0  0  0  0  0  0  0  0  0
  -30.3441   -6.6629   -5.8729 N   0  0  0  0  0  0  0  0  0  0  0  0
  -30.2825   -8.0191   -6.3516 C   0  0  0  0  0  0  0  0  0  0  0  0
  -29.7165   -5.5938   -6.3979 C   0  0  0  0  0  0  0  0  0  0  0  0
  -28.6976   -5.2853   -7.6622 S   0  0  0  0  0  0  0  0  0  0  0  0
  -28.6640   -3.5868   -7.2150 C   0  0  0  0  0  0  0  0  0  0  0  0
  -29.4585   -3.3391   -6.0861 C   0  0  0  0  0  0  0  0  0  0  0  0
  -29.6154   -2.1247   -5.5248 N   0  0  0  0  0  0  0  0  0  0  0  0
  -30.0419   -4.5324   -5.6547 C   0  0  0  0  0  0  0  0  0  0  0  0
  -29.1472   -1.3016   -5.9092 H   0  0  0  0  0  0  0  0  0  0  0  0
  -30.1861   -1.9384   -4.7079 H   0  0  0  0  0  0  0  0  0  0  0  0
  -27.8696   -2.6563   -8.0026 C   0  0  0  0  0  0  0  0  0  0  0  0
  -27.4724   -3.0900   -9.2425 N   0  0  0  0  0  0  0  0  0  0  0  0
  -27.5381   -1.5306   -7.6346 O   0  0  0  0  0  0  0  0  0  0  0  0
  -27.7205   -4.0054   -9.5848 H   0  0  0  0  0  0  0  0  0  0  0  0
  -26.9195   -2.4741   -9.8191 H   0  0  0  0  0  0  0  0  0  0  0  0
  1  2  1  0  0  0
  2  3  2  0  0  0
  2 11  1  0  0  0
  3  4  1  0  0  0
  4  5  1  0  0  0
  4  6  1  0  0  0
  6  7  1  0  0  0
  6 11  2  0  0  0
  7  8  1  0  0  0
  8 14  1  0  0  0
  8  9  2  0  0  0
 14 15  1  0  0  0
 14 16  2  0  0  0
 15 17  1  0  0  0
 15 18  1  0  0  0
  9 10  1  0  0  0
  9 11  1  0  0  0
 10 12  1  0  0  0
 10 13  1  0  0  0
M  END
> <minimizedAffinity>
-5.96871

$$$$
