CHEMBL3397930


 33 36  0  0  0  0  0  0  0  0999 V2000
  -22.7077   -0.7724  -11.8078 O   0  0  0  0  0  0  0  0  0  0  0  0
  -23.5811   -0.4120  -12.5884 C   0  0  0  0  0  0  0  0  0  0  0  0
  -23.4451    0.5038  -13.6176 N   0  0  0  0  0  0  0  0  0  0  0  0
  -24.2906    0.8446  -14.0555 H   0  0  0  0  0  0  0  0  0  0  0  0
  -22.2432    1.1112  -14.0343 C   0  0  0  0  0  0  0  0  0  0  0  0
  -21.1943    0.4021  -14.6188 C   0  0  0  0  0  0  0  0  0  0  0  0
  -20.0317    1.0566  -15.0324 C   0  0  0  0  0  0  0  0  0  0  0  0
  -19.9135    2.4363  -14.8870 C   0  0  0  0  0  0  0  0  0  0  0  0
  -20.9437    3.1489  -14.2745 C   0  0  0  0  0  0  0  0  0  0  0  0
  -22.1108    2.4940  -13.8650 C   0  0  0  0  0  0  0  0  0  0  0  0
  -18.8446    3.1787  -15.3092 O   0  0  0  0  0  0  0  0  0  0  0  0
  -17.8572    2.4481  -16.0501 C   0  0  0  0  0  0  0  0  0  0  0  0
  -16.6045    2.2974  -15.1757 C   0  0  0  0  0  0  0  0  0  0  0  0
  -15.9950    0.9553  -15.2238 N   0  0  0  0  0  0  0  0  0  0  0  0
  -16.4959    0.0315  -14.1829 C   0  0  0  0  0  0  0  0  0  0  0  0
  -15.9964    0.3568  -12.7659 C   0  0  0  0  0  0  0  0  0  0  0  0
  -14.5650    0.3981  -12.7156 O   0  0  0  0  0  0  0  0  0  0  0  0
  -14.0483    1.3483  -13.6558 C   0  0  0  0  0  0  0  0  0  0  0  0
  -14.5222    1.0375  -15.0868 C   0  0  0  0  0  0  0  0  0  0  0  0
  -24.9466   -0.9665  -12.3945 C   0  0  0  0  0  0  0  0  0  0  0  0
  -25.6537   -1.3942  -13.5175 C   0  0  0  0  0  0  0  0  0  0  0  0
  -26.9429   -1.8912  -13.3728 C   0  0  0  0  0  0  0  0  0  0  0  0
  -27.5213   -1.9752  -12.1019 C   0  0  0  0  0  0  0  0  0  0  0  0
  -26.8266   -1.5737  -10.9435 C   0  0  0  0  0  0  0  0  0  0  0  0
  -25.5338   -1.0448  -11.1209 C   0  0  0  0  0  0  0  0  0  0  0  0
  -27.3889   -1.7650   -9.5851 C   0  0  0  0  0  0  0  0  0  0  0  0
  -27.8788   -3.0202   -9.1770 C   0  0  0  0  0  0  0  0  0  0  0  0
  -28.3074   -3.2494   -7.8655 C   0  0  0  0  0  0  0  0  0  0  0  0
  -28.2413   -2.2303   -6.9212 C   0  0  0  0  0  0  0  0  0  0  0  0
  -27.7745   -0.9822   -7.3095 C   0  0  0  0  0  0  0  0  0  0  0  0
  -27.6591    0.0407   -6.4140 O   0  0  0  0  0  0  0  0  0  0  0  0
  -27.3776   -0.7385   -8.6235 C   0  0  0  0  0  0  0  0  0  0  0  0
  -27.8311   -0.3074   -5.5233 H   0  0  0  0  0  0  0  0  0  0  0  0
  1  2  2  0  0  0
  2  3  1  0  0  0
  2 20  1  0  0  0
  3  5  1  0  0  0
  3  4  1  0  0  0
  5  6  1  0  0  0
  5 10  2  0  0  0
  6  7  2  0  0  0
  7  8  1  0  0  0
  8 11  1  0  0  0
  8  9  2  0  0  0
 11 12  1  0  0  0
 12 13  1  0  0  0
 13 14  1  0  0  0
 14 15  1  0  0  0
 14 19  1  0  0  0
 15 16  1  0  0  0
 16 17  1  0  0  0
 17 18  1  0  0  0
 18 19  1  0  0  0
  9 10  1  0  0  0
 20 21  1  0  0  0
 20 25  2  0  0  0
 21 22  2  0  0  0
 22 23  1  0  0  0
 23 24  2  0  0  0
 24 26  1  0  0  0
 24 25  1  0  0  0
 26 27  1  0  0  0
 26 32  2  0  0  0
 27 28  2  0  0  0
 28 29  1  0  0  0
 29 30  2  0  0  0
 30 31  1  0  0  0
 30 32  1  0  0  0
 31 33  1  0  0  0
M  END
> <minimizedAffinity>
-10.07472

$$$$
