CHEMBL3908336


 38 41  0  0  0  0  0  0  0  0999 V2000
  -25.6494   -1.6989  -12.1606 C   0  0  0  0  0  0  0  0  0  0  0  0
  -24.3947   -1.5280  -11.5667 C   0  0  0  0  0  0  0  0  0  0  0  0
  -23.2861   -1.1401  -12.3198 C   0  0  0  0  0  0  0  0  0  0  0  0
  -23.4105   -0.9396  -13.6899 C   0  0  0  0  0  0  0  0  0  0  0  0
  -24.6570   -1.0919  -14.3017 C   0  0  0  0  0  0  0  0  0  0  0  0
  -25.7550   -1.4910  -13.5399 C   0  0  0  0  0  0  0  0  0  0  0  0
  -26.9411   -1.6554  -14.1483 F   0  0  0  0  0  0  0  0  0  0  0  0
  -25.9466   -1.7713   -9.3172 O   0  0  0  0  0  0  0  0  0  0  0  0
  -26.8921   -2.0368  -10.0544 C   0  0  0  0  0  0  0  0  0  0  0  0
  -26.8171   -2.0404  -11.4309 N   0  0  0  0  0  0  0  0  0  0  0  0
  -28.1529   -2.3252   -9.5754 N   0  0  0  0  0  0  0  0  0  0  0  0
  -27.6858   -2.0364  -11.9521 H   0  0  0  0  0  0  0  0  0  0  0  0
  -28.7546   -2.9127  -10.1383 H   0  0  0  0  0  0  0  0  0  0  0  0
  -28.5423   -2.1183   -8.2275 C   0  0  0  0  0  0  0  0  0  0  0  0
  -28.4630   -0.8624   -7.6116 C   0  0  0  0  0  0  0  0  0  0  0  0
  -28.9102   -0.6536   -6.2992 C   0  0  0  0  0  0  0  0  0  0  0  0
  -29.4453   -1.7374   -5.5907 C   0  0  0  0  0  0  0  0  0  0  0  0
  -29.5196   -3.0004   -6.1868 C   0  0  0  0  0  0  0  0  0  0  0  0
  -29.0748   -3.1802   -7.4965 C   0  0  0  0  0  0  0  0  0  0  0  0
  -29.1562   -4.3990   -8.0527 F   0  0  0  0  0  0  0  0  0  0  0  0
  -28.8409    0.7275   -5.6912 C   0  0  0  0  0  0  0  0  0  0  0  0
  -27.9797    0.8249   -4.6399 F   0  0  0  0  0  0  0  0  0  0  0  0
  -28.4294    1.6626   -6.5917 F   0  0  0  0  0  0  0  0  0  0  0  0
  -30.0458    1.1572   -5.2268 F   0  0  0  0  0  0  0  0  0  0  0  0
  -22.2644   -0.5425  -14.3417 O   0  0  0  0  0  0  0  0  0  0  0  0
  -21.9433    0.7954  -14.3779 C   0  0  0  0  0  0  0  0  0  0  0  0
  -22.7275    1.7904  -13.8065 C   0  0  0  0  0  0  0  0  0  0  0  0
  -22.2644    3.0837  -13.8674 C   0  0  0  0  0  0  0  0  0  0  0  0
  -21.1306    3.4273  -14.4998 N   0  0  0  0  0  0  0  0  0  0  0  0
  -20.4046    2.4766  -15.1123 C   0  0  0  0  0  0  0  0  0  0  0  0
  -20.7832    1.1400  -15.0755 C   0  0  0  0  0  0  0  0  0  0  0  0
  -19.2311    2.8346  -15.7991 N   0  0  0  0  0  0  0  0  0  0  0  0
  -17.9652    2.5469  -15.3501 C   0  0  0  0  0  0  0  0  0  0  0  0
  -17.6581    1.9477  -14.3285 O   0  0  0  0  0  0  0  0  0  0  0  0
  -19.3365    3.3128  -16.6767 H   0  0  0  0  0  0  0  0  0  0  0  0
  -16.8281    2.9927  -16.2029 C   0  0  0  0  0  0  0  0  0  0  0  0
  -15.3961    3.1729  -15.7840 C   0  0  0  0  0  0  0  0  0  0  0  0
  -16.2633    4.3794  -16.0053 C   0  0  0  0  0  0  0  0  0  0  0  0
  8  9  2  0  0  0
  9 10  1  0  0  0
  9 11  1  0  0  0
 10  1  1  0  0  0
 10 12  1  0  0  0
  1  2  1  0  0  0
  1  6  2  0  0  0
  2  3  2  0  0  0
  3  4  1  0  0  0
  4 25  1  0  0  0
  4  5  2  0  0  0
 25 26  1  0  0  0
 26 27  1  0  0  0
 26 31  2  0  0  0
 27 28  2  0  0  0
 28 29  1  0  0  0
 29 30  2  0  0  0
 30 32  1  0  0  0
 30 31  1  0  0  0
 32 33  1  0  0  0
 32 35  1  0  0  0
 33 34  2  0  0  0
 33 36  1  0  0  0
 36 37  1  0  0  0
 36 38  1  0  0  0
 37 38  1  0  0  0
  5  6  1  0  0  0
  6  7  1  0  0  0
 11 14  1  0  0  0
 11 13  1  0  0  0
 14 15  1  0  0  0
 14 19  2  0  0  0
 15 16  2  0  0  0
 16 21  1  0  0  0
 16 17  1  0  0  0
 21 22  1  0  0  0
 21 23  1  0  0  0
 21 24  1  0  0  0
 17 18  2  0  0  0
 18 19  1  0  0  0
 19 20  1  0  0  0
M  END
> <minimizedAffinity>
-11.63375

$$$$
