CHEMBL188087


 40 43  0  0  0  0  0  0  0  0999 V2000
  -13.7631   -0.7251  -13.3086 C   0  0  0  0  0  0  0  0  0  0  0  0
  -13.1999   -1.8281  -12.7432 N   0  0  0  0  0  0  0  0  0  0  0  0
  -13.9910   -2.6987  -12.0751 C   0  0  0  0  0  0  0  0  0  0  0  0
  -13.4686   -3.8156  -11.4334 C   0  0  0  0  0  0  0  0  0  0  0  0
  -14.2946   -4.7615  -10.8210 C   0  0  0  0  0  0  0  0  0  0  0  0
  -15.6260   -4.5805  -10.7551 N   0  0  0  0  0  0  0  0  0  0  0  0
  -16.1316   -3.4704  -11.3422 C   0  0  0  0  0  0  0  0  0  0  0  0
  -15.3750   -2.5308  -12.0105 C   0  0  0  0  0  0  0  0  0  0  0  0
  -15.9416   -1.4268  -12.6618 C   0  0  0  0  0  0  0  0  0  0  0  0
  -15.1524   -0.4885  -13.3498 C   0  0  0  0  0  0  0  0  0  0  0  0
  -11.5744    2.0517  -13.9874 N   0  0  0  0  0  0  0  0  0  0  0  0
  -12.5069    1.3146  -13.2812 C   0  0  0  0  0  0  0  0  0  0  0  0
  -12.9381    1.6600  -12.1867 O   0  0  0  0  0  0  0  0  0  0  0  0
  -12.8641    0.1582  -13.9485 N   0  0  0  0  0  0  0  0  0  0  0  0
  -11.5777    1.9402  -14.9935 H   0  0  0  0  0  0  0  0  0  0  0  0
  -12.0308   -0.3204  -14.2624 H   0  0  0  0  0  0  0  0  0  0  0  0
  -11.4346    4.5179  -14.2385 C   0  0  0  0  0  0  0  0  0  0  0  0
  -11.0335    3.2857  -13.4432 C   0  0  0  0  0  0  0  0  0  0  0  0
  -15.8215    0.5759  -14.1441 C   0  0  0  0  0  0  0  0  0  0  0  0
  -17.0808    1.0814  -13.7679 C   0  0  0  0  0  0  0  0  0  0  0  0
  -17.7693    2.0036  -14.5583 C   0  0  0  0  0  0  0  0  0  0  0  0
  -17.1822    2.4808  -15.7299 C   0  0  0  0  0  0  0  0  0  0  0  0
  -15.9311    2.0226  -16.1219 C   0  0  0  0  0  0  0  0  0  0  0  0
  -15.2813    1.0614  -15.3448 C   0  0  0  0  0  0  0  0  0  0  0  0
  -19.0164    2.5015  -14.2885 O   0  0  0  0  0  0  0  0  0  0  0  0
  -19.7520    3.0205  -15.3893 C   0  0  0  0  0  0  0  0  0  0  0  0
  -15.2283    2.4054  -17.2309 O   0  0  0  0  0  0  0  0  0  0  0  0
  -13.8139    2.2934  -17.1506 C   0  0  0  0  0  0  0  0  0  0  0  0
  -13.7084   -5.8815  -10.1890 N   0  0  0  0  0  0  0  0  0  0  0  0
  -13.1800   -5.5663   -9.3804 H   0  0  0  0  0  0  0  0  0  0  0  0
  -12.8569   -6.6741  -11.0904 C   0  0  0  0  0  0  0  0  0  0  0  0
  -13.7161   -7.7184  -11.8184 C   0  0  0  0  0  0  0  0  0  0  0  0
  -13.4904   -7.7531  -13.3442 C   0  0  0  0  0  0  0  0  0  0  0  0
  -13.3385   -6.4304  -13.9492 N   0  0  0  0  0  0  0  0  0  0  0  0
  -12.2838   -6.3448  -14.9719 C   0  0  0  0  0  0  0  0  0  0  0  0
  -12.0612   -4.8607  -15.3323 C   0  0  0  0  0  0  0  0  0  0  0  0
  -13.2489   -4.1961  -15.9039 N   0  0  0  0  0  0  0  0  0  0  0  0
  -13.4962   -4.6493  -17.2694 C   0  0  0  0  0  0  0  0  0  0  0  0
  -14.4141   -4.4418  -15.0230 C   0  0  0  0  0  0  0  0  0  0  0  0
  -14.5930   -5.9063  -14.5304 C   0  0  0  0  0  0  0  0  0  0  0  0
 17 18  1  0  0  0
 18 11  1  0  0  0
 11 12  1  0  0  0
 11 15  1  0  0  0
 12 13  2  0  0  0
 12 14  1  0  0  0
 14  1  1  0  0  0
 14 16  1  0  0  0
  1  2  1  0  0  0
  1 10  2  0  0  0
  2  3  2  0  0  0
  3  4  1  0  0  0
  3  8  1  0  0  0
  4  5  2  0  0  0
  5 29  1  0  0  0
  5  6  1  0  0  0
 29 31  1  0  0  0
 29 30  1  0  0  0
 31 32  1  0  0  0
 32 33  1  0  0  0
 33 34  1  0  0  0
 34 35  1  0  0  0
 34 40  1  0  0  0
 35 36  1  0  0  0
 36 37  1  0  0  0
 37 38  1  0  0  0
 37 39  1  0  0  0
 39 40  1  0  0  0
  6  7  2  0  0  0
  7  8  1  0  0  0
  8  9  2  0  0  0
  9 10  1  0  0  0
 10 19  1  0  0  0
 19 20  1  0  0  0
 19 24  2  0  0  0
 20 21  2  0  0  0
 21 25  1  0  0  0
 21 22  1  0  0  0
 25 26  1  0  0  0
 22 23  2  0  0  0
 23 27  1  0  0  0
 23 24  1  0  0  0
 27 28  1  0  0  0
M  END
> <minimizedAffinity>
-7.45118

$$$$
