CHEMBL3949914


 38 42  0  0  0  0  0  0  0  0999 V2000
  -17.5401    1.5677  -15.4327 C   0  0  0  0  0  0  0  0  0  0  0  0
  -17.5237    2.7928  -16.1023 C   0  0  0  0  0  0  0  0  0  0  0  0
  -16.3103    3.3748  -16.4129 C   0  0  0  0  0  0  0  0  0  0  0  0
  -15.1072    2.8896  -16.0641 N   0  0  0  0  0  0  0  0  0  0  0  0
  -15.1228    1.7492  -15.3245 C   0  0  0  0  0  0  0  0  0  0  0  0
  -13.9662    1.1113  -14.7924 C   0  0  0  0  0  0  0  0  0  0  0  0
  -14.2647   -0.0212  -14.0591 C   0  0  0  0  0  0  0  0  0  0  0  0
  -15.9486   -0.3269  -14.0606 S   0  0  0  0  0  0  0  0  0  0  0  0
  -16.2974    1.0719  -14.9970 C   0  0  0  0  0  0  0  0  0  0  0  0
  -13.3157   -0.8812  -13.3599 C   0  0  0  0  0  0  0  0  0  0  0  0
  -12.1669   -0.5351  -13.0932 O   0  0  0  0  0  0  0  0  0  0  0  0
  -13.7951   -2.1256  -13.0056 N   0  0  0  0  0  0  0  0  0  0  0  0
  -14.7796   -2.3058  -13.1512 H   0  0  0  0  0  0  0  0  0  0  0  0
  -13.0159   -3.0856  -12.2432 C   0  0  0  0  0  0  0  0  0  0  0  0
  -13.7783   -3.7051  -11.0722 C   0  0  0  0  0  0  0  0  0  0  0  0
  -14.9687   -4.4701  -11.5103 C   0  0  0  0  0  0  0  0  0  0  0  0
  -16.1273   -4.5195  -10.7830 N   0  0  0  0  0  0  0  0  0  0  0  0
  -16.9684   -5.2793  -11.4698 N   0  0  0  0  0  0  0  0  0  0  0  0
  -16.2812   -5.6510  -12.5579 N   0  0  0  0  0  0  0  0  0  0  0  0
  -15.0318   -5.1656  -12.6566 N   0  0  0  0  0  0  0  0  0  0  0  0
  -16.6875   -6.2574  -13.2649 H   0  0  0  0  0  0  0  0  0  0  0  0
  -18.6954    0.8772  -15.1184 O   0  0  0  0  0  0  0  0  0  0  0  0
  -22.1552    1.4219  -14.0532 C   0  0  0  0  0  0  0  0  0  0  0  0
  -22.1814    2.8133  -13.9275 C   0  0  0  0  0  0  0  0  0  0  0  0
  -21.0745    3.5829  -14.2862 C   0  0  0  0  0  0  0  0  0  0  0  0
  -19.9184    2.9656  -14.7505 C   0  0  0  0  0  0  0  0  0  0  0  0
  -19.8321    1.5720  -14.7610 C   0  0  0  0  0  0  0  0  0  0  0  0
  -20.9610    0.8032  -14.4466 C   0  0  0  0  0  0  0  0  0  0  0  0
  -23.4307   -0.3182  -12.7767 C   0  0  0  0  0  0  0  0  0  0  0  0
  -22.5910   -0.5581  -11.9138 O   0  0  0  0  0  0  0  0  0  0  0  0
  -23.2793    0.6077  -13.7994 N   0  0  0  0  0  0  0  0  0  0  0  0
  -24.1108    0.7609  -14.3620 H   0  0  0  0  0  0  0  0  0  0  0  0
  -25.2745   -1.2282  -15.2957 C   0  0  0  0  0  0  0  0  0  0  0  0
  -25.5423   -1.3816  -13.8423 C   0  0  0  0  0  0  0  0  0  0  0  0
  -26.6931   -1.9634  -13.2439 C   0  0  0  0  0  0  0  0  0  0  0  0
  -26.5060   -1.8955  -11.8852 C   0  0  0  0  0  0  0  0  0  0  0  0
  -25.3154   -1.3138  -11.5964 O   0  0  0  0  0  0  0  0  0  0  0  0
  -24.7242   -0.9845  -12.7901 C   0  0  0  0  0  0  0  0  0  0  0  0
 33 34  1  0  0  0
 34 35  1  0  0  0
 34 38  2  0  0  0
 35 36  2  0  0  0
 36 37  1  0  0  0
 37 38  1  0  0  0
 38 29  1  0  0  0
 29 30  2  0  0  0
 29 31  1  0  0  0
 31 23  1  0  0  0
 31 32  1  0  0  0
 23 24  1  0  0  0
 23 28  2  0  0  0
 24 25  2  0  0  0
 25 26  1  0  0  0
 26 27  2  0  0  0
 27 22  1  0  0  0
 27 28  1  0  0  0
 22  1  1  0  0  0
  1  2  1  0  0  0
  1  9  2  0  0  0
  2  3  2  0  0  0
  3  4  1  0  0  0
  4  5  2  0  0  0
  5  6  1  0  0  0
  5  9  1  0  0  0
  6  7  2  0  0  0
  7 10  1  0  0  0
  7  8  1  0  0  0
 10 11  2  0  0  0
 10 12  1  0  0  0
 12 14  1  0  0  0
 12 13  1  0  0  0
 14 15  1  0  0  0
 15 16  1  0  0  0
 16 17  1  0  0  0
 16 20  2  0  0  0
 17 18  2  0  0  0
 18 19  1  0  0  0
 19 20  1  0  0  0
 19 21  1  0  0  0
  8  9  1  0  0  0
M  END
> <minimizedAffinity>
-10.23991

$$$$
