CHEMBL3937972


 38 41  0  0  0  0  0  0  0  0999 V2000
  -16.7730    1.6977  -15.4028 N   0  0  0  0  0  0  0  0  0  0  0  0
  -18.2190    1.7175  -15.4488 C   0  0  0  0  0  0  0  0  0  0  0  0
  -18.7763    2.9852  -15.6276 C   0  0  0  0  0  0  0  0  0  0  0  0
  -20.0584    3.2506  -15.1897 C   0  0  0  0  0  0  0  0  0  0  0  0
  -20.8543    2.2684  -14.6702 C   0  0  0  0  0  0  0  0  0  0  0  0
  -21.9914    2.7233  -14.1158 N   0  0  0  0  0  0  0  0  0  0  0  0
  -22.8784    1.8044  -13.7135 C   0  0  0  0  0  0  0  0  0  0  0  0
  -22.6876    0.4551  -13.9293 C   0  0  0  0  0  0  0  0  0  0  0  0
  -21.4856   -0.0282  -14.3988 N   0  0  0  0  0  0  0  0  0  0  0  0
  -20.4936    0.9003  -14.7430 C   0  0  0  0  0  0  0  0  0  0  0  0
  -19.1094    0.6597  -15.1011 C   0  0  0  0  0  0  0  0  0  0  0  0
  -23.8611   -0.3939  -13.7407 C   0  0  0  0  0  0  0  0  0  0  0  0
  -24.7221   -0.9681  -14.7159 C   0  0  0  0  0  0  0  0  0  0  0  0
  -25.8449   -1.4740  -14.1866 N   0  0  0  0  0  0  0  0  0  0  0  0
  -25.7148   -1.2103  -12.8761 N   0  0  0  0  0  0  0  0  0  0  0  0
  -26.5680   -1.8600  -11.9082 C   0  0  0  0  0  0  0  0  0  0  0  0
  -24.6409   -0.4078  -12.5977 C   0  0  0  0  0  0  0  0  0  0  0  0
  -14.1417    2.1372  -18.0520 C   0  0  0  0  0  0  0  0  0  0  0  0
  -14.2559    3.5014  -18.3221 C   0  0  0  0  0  0  0  0  0  0  0  0
  -15.1450    4.2813  -17.5898 C   0  0  0  0  0  0  0  0  0  0  0  0
  -15.9288    3.6929  -16.5887 C   0  0  0  0  0  0  0  0  0  0  0  0
  -15.8503    2.3268  -16.2799 C   0  0  0  0  0  0  0  0  0  0  0  0
  -14.9211    1.5635  -17.0205 C   0  0  0  0  0  0  0  0  0  0  0  0
  -13.8445    0.7539  -19.9830 C   0  0  0  0  0  0  0  0  0  0  0  0
  -13.3282    1.2809  -18.7569 O   0  0  0  0  0  0  0  0  0  0  0  0
  -15.3715    5.6187  -17.7780 O   0  0  0  0  0  0  0  0  0  0  0  0
  -14.4678    6.3116  -18.6308 C   0  0  0  0  0  0  0  0  0  0  0  0
  -16.3375    0.3622  -14.8178 C   0  0  0  0  0  0  0  0  0  0  0  0
  -15.6647    0.4406  -13.4349 C   0  0  0  0  0  0  0  0  0  0  0  0
  -15.0613   -0.9046  -13.0333 C   0  0  0  0  0  0  0  0  0  0  0  0
  -13.9035   -1.0559  -12.6547 O   0  0  0  0  0  0  0  0  0  0  0  0
  -15.9536   -1.9641  -13.0970 N   0  0  0  0  0  0  0  0  0  0  0  0
  -16.8563   -1.8165  -13.5322 H   0  0  0  0  0  0  0  0  0  0  0  0
  -15.5876   -3.3432  -12.7183 C   0  0  0  0  0  0  0  0  0  0  0  0
  -15.9634   -3.8069  -11.2996 C   0  0  0  0  0  0  0  0  0  0  0  0
  -14.9519   -4.4560  -10.6825 F   0  0  0  0  0  0  0  0  0  0  0  0
  -16.3404   -2.7745  -10.5144 F   0  0  0  0  0  0  0  0  0  0  0  0
  -17.0112   -4.6688  -11.3529 F   0  0  0  0  0  0  0  0  0  0  0  0
 24 25  1  0  0  0
 25 18  1  0  0  0
 18 19  1  0  0  0
 18 23  2  0  0  0
 19 20  2  0  0  0
 20 26  1  0  0  0
 20 21  1  0  0  0
 26 27  1  0  0  0
 21 22  2  0  0  0
 22  1  1  0  0  0
 22 23  1  0  0  0
  1 28  1  0  0  0
  1  2  1  0  0  0
 28 29  1  0  0  0
 29 30  1  0  0  0
 30 31  2  0  0  0
 30 32  1  0  0  0
 32 34  1  0  0  0
 32 33  1  0  0  0
 34 35  1  0  0  0
 35 36  1  0  0  0
 35 37  1  0  0  0
 35 38  1  0  0  0
  2  3  1  0  0  0
  2 11  2  0  0  0
  3  4  2  0  0  0
  4  5  1  0  0  0
  5  6  1  0  0  0
  5 10  2  0  0  0
  6  7  2  0  0  0
  7  8  1  0  0  0
  8 12  1  0  0  0
  8  9  2  0  0  0
 12 13  1  0  0  0
 12 17  2  0  0  0
 13 14  2  0  0  0
 14 15  1  0  0  0
 15 16  1  0  0  0
 15 17  1  0  0  0
  9 10  1  0  0  0
 10 11  1  0  0  0
M  END
> <minimizedAffinity>
-9.32235

$$$$
