CHEMBL3401987


 32 36  0  0  0  0  0  0  0  0999 V2000
  -29.7155   -4.6366   -5.0964 C   0  0  0  0  0  0  0  0  0  0  0  0
  -29.8038   -5.6558   -5.9749 N   0  0  0  0  0  0  0  0  0  0  0  0
  -30.7833   -6.5552   -5.7672 C   0  0  0  0  0  0  0  0  0  0  0  0
  -31.6634   -6.5293   -4.7462 N   0  0  0  0  0  0  0  0  0  0  0  0
  -31.5271   -5.5161   -3.8737 C   0  0  0  0  0  0  0  0  0  0  0  0
  -30.5659   -4.5480   -4.0016 C   0  0  0  0  0  0  0  0  0  0  0  0
  -30.5152   -3.5104   -3.1542 F   0  0  0  0  0  0  0  0  0  0  0  0
  -30.9896   -7.5914   -6.7679 C   0  0  0  0  0  0  0  0  0  0  0  0
  -32.1928   -8.2409   -6.9998 C   0  0  0  0  0  0  0  0  0  0  0  0
  -32.0043   -9.1458   -8.0134 N   0  0  0  0  0  0  0  0  0  0  0  0
  -30.7029   -9.1084   -8.4330 C   0  0  0  0  0  0  0  0  0  0  0  0
  -30.1905   -9.8817   -9.4116 N   0  0  0  0  0  0  0  0  0  0  0  0
  -28.8685   -9.6515   -9.6188 C   0  0  0  0  0  0  0  0  0  0  0  0
  -28.0890   -8.7380   -8.9266 C   0  0  0  0  0  0  0  0  0  0  0  0
  -26.7883   -8.6009   -9.2125 F   0  0  0  0  0  0  0  0  0  0  0  0
  -28.6627   -7.9658   -7.9282 C   0  0  0  0  0  0  0  0  0  0  0  0
  -30.0340   -8.1523   -7.6726 C   0  0  0  0  0  0  0  0  0  0  0  0
  -32.7017   -9.7643   -8.4064 H   0  0  0  0  0  0  0  0  0  0  0  0
  -28.7306   -3.6371   -5.2673 N   0  0  0  0  0  0  0  0  0  0  0  0
  -28.3362   -3.4024   -4.3582 H   0  0  0  0  0  0  0  0  0  0  0  0
  -28.0184   -1.9786   -6.9560 C   0  0  0  0  0  0  0  0  0  0  0  0
  -27.5553   -0.5515   -6.5378 C   0  0  0  0  0  0  0  0  0  0  0  0
  -28.7080    0.4634   -6.6393 C   0  0  0  0  0  0  0  0  0  0  0  0
  -29.9355   -0.0588   -5.8869 C   0  0  0  0  0  0  0  0  0  0  0  0
  -29.5462   -1.2820   -5.0384 C   0  0  0  0  0  0  0  0  0  0  0  0
  -28.3350   -0.9023   -4.1653 C   0  0  0  0  0  0  0  0  0  0  0  0
  -27.1219   -0.6092   -5.0560 C   0  0  0  0  0  0  0  0  0  0  0  0
  -29.1792   -2.4434   -6.0102 C   0  0  0  0  0  0  0  0  0  0  0  0
  -27.2756   -1.8899   -9.4210 C   0  0  0  0  0  0  0  0  0  0  0  0
  -28.4243   -2.1156   -8.4443 C   0  0  0  0  0  0  0  0  0  0  0  0
  -28.9251   -3.4304   -8.6981 O   0  0  0  0  0  0  0  0  0  0  0  0
  -28.3326   -4.0720   -8.2668 H   0  0  0  0  0  0  0  0  0  0  0  0
 29 30  1  0  0  0
 30 31  1  0  0  0
 30 21  1  0  0  0
 31 32  1  0  0  0
 21 22  1  0  0  0
 21 28  1  0  0  0
 22 23  1  0  0  0
 22 27  1  0  0  0
 23 24  1  0  0  0
 24 25  1  0  0  0
 25 26  1  0  0  0
 25 28  1  0  0  0
 26 27  1  0  0  0
 28 19  1  0  0  0
 19  1  1  0  0  0
 19 20  1  0  0  0
  1  2  1  0  0  0
  1  6  2  0  0  0
  2  3  2  0  0  0
  3  8  1  0  0  0
  3  4  1  0  0  0
  8  9  2  0  0  0
  8 17  1  0  0  0
  9 10  1  0  0  0
 10 11  1  0  0  0
 10 18  1  0  0  0
 11 12  1  0  0  0
 11 17  2  0  0  0
 12 13  2  0  0  0
 13 14  1  0  0  0
 14 15  1  0  0  0
 14 16  2  0  0  0
 16 17  1  0  0  0
  4  5  2  0  0  0
  5  6  1  0  0  0
  6  7  1  0  0  0
M  END
> <minimizedAffinity>
-9.54817

$$$$
