CHEMBL427202


 29 32  0  0  0  0  0  0  0  0999 V2000
  -23.9563   -0.8282  -14.2409 C   0  0  0  0  0  0  0  0  0  0  0  0
  -24.4661   -0.7474  -15.4241 N   0  0  0  0  0  0  0  0  0  0  0  0
  -25.8033   -1.0362  -15.5378 C   0  0  0  0  0  0  0  0  0  0  0  0
  -26.6139   -1.3579  -14.5782 N   0  0  0  0  0  0  0  0  0  0  0  0
  -26.0433   -1.4179  -13.3637 N   0  0  0  0  0  0  0  0  0  0  0  0
  -26.6913   -1.7077  -12.2035 C   0  0  0  0  0  0  0  0  0  0  0  0
  -25.7792   -1.6685  -11.1690 C   0  0  0  0  0  0  0  0  0  0  0  0
  -24.5082   -1.3235  -11.7378 C   0  0  0  0  0  0  0  0  0  0  0  0
  -23.2024   -1.1361  -11.0452 C   0  0  0  0  0  0  0  0  0  0  0  0
  -24.7324   -1.1819  -13.1047 C   0  0  0  0  0  0  0  0  0  0  0  0
  -22.6350   -0.5733  -13.9334 O   0  0  0  0  0  0  0  0  0  0  0  0
  -17.0549    3.9126  -15.5952 C   0  0  0  0  0  0  0  0  0  0  0  0
  -18.3343    3.1778  -15.4478 C   0  0  0  0  0  0  0  0  0  0  0  0
  -18.6403    1.8466  -15.6431 C   0  0  0  0  0  0  0  0  0  0  0  0
  -19.9620    1.6288  -15.1642 C   0  0  0  0  0  0  0  0  0  0  0  0
  -20.7604    0.4878  -14.9696 C   0  0  0  0  0  0  0  0  0  0  0  0
  -20.2969   -0.7286  -15.2967 F   0  0  0  0  0  0  0  0  0  0  0  0
  -22.0036    0.6219  -14.3455 C   0  0  0  0  0  0  0  0  0  0  0  0
  -22.4874    1.8727  -13.9607 C   0  0  0  0  0  0  0  0  0  0  0  0
  -21.7320    3.0272  -14.1932 C   0  0  0  0  0  0  0  0  0  0  0  0
  -20.4631    2.8697  -14.7661 C   0  0  0  0  0  0  0  0  0  0  0  0
  -19.4782    3.8002  -15.0110 N   0  0  0  0  0  0  0  0  0  0  0  0
  -19.5591    4.7857  -14.8005 H   0  0  0  0  0  0  0  0  0  0  0  0
  -26.0560   -1.9049   -9.8515 O   0  0  0  0  0  0  0  0  0  0  0  0
  -27.4309   -1.6257   -9.5185 C   0  0  0  0  0  0  0  0  0  0  0  0
  -28.0892   -2.7053   -8.6527 C   0  0  0  0  0  0  0  0  0  0  0  0
  -28.0333   -2.4101   -7.1644 C   0  0  0  0  0  0  0  0  0  0  0  0
  -27.5122   -3.9835   -8.9007 O   0  0  0  0  0  0  0  0  0  0  0  0
  -26.5424   -3.8726   -8.8165 H   0  0  0  0  0  0  0  0  0  0  0  0
 12 13  1  0  0  0
 13 14  2  0  0  0
 13 22  1  0  0  0
 14 15  1  0  0  0
 15 16  1  0  0  0
 15 21  2  0  0  0
 16 17  1  0  0  0
 16 18  2  0  0  0
 18 11  1  0  0  0
 18 19  1  0  0  0
 11  1  1  0  0  0
  1  2  2  0  0  0
  1 10  1  0  0  0
  2  3  1  0  0  0
  3  4  2  0  0  0
  4  5  1  0  0  0
  5  6  1  0  0  0
  5 10  1  0  0  0
  6  7  2  0  0  0
  7 24  1  0  0  0
  7  8  1  0  0  0
 24 25  1  0  0  0
 26 28  1  0  0  0
 26 27  1  0  0  0
 26 25  1  0  0  0
 28 29  1  0  0  0
  8  9  1  0  0  0
  8 10  2  0  0  0
 19 20  2  0  0  0
 20 21  1  0  0  0
 21 22  1  0  0  0
 22 23  1  0  0  0
M  END
> <minimizedAffinity>
-9.27120

$$$$
