CHEMBL4783119


 34 38  0  0  0  0  0  0  0  0999 V2000
  -27.5849   -8.2033   -4.8694 C   0  0  0  0  0  0  0  0  0  0  0  0
  -28.2720   -7.1017   -4.5652 N   0  0  0  0  0  0  0  0  0  0  0  0
  -29.2602   -6.7883   -5.4118 C   0  0  0  0  0  0  0  0  0  0  0  0
  -29.5388   -7.5141   -6.5473 C   0  0  0  0  0  0  0  0  0  0  0  0
  -28.7980   -8.6475   -6.7763 C   0  0  0  0  0  0  0  0  0  0  0  0
  -27.8037   -8.9842   -5.9386 N   0  0  0  0  0  0  0  0  0  0  0  0
  -24.7489   -9.4163   -3.1222 O   0  0  0  0  0  0  0  0  0  0  0  0
  -25.4172   -9.1644   -4.1261 C   0  0  0  0  0  0  0  0  0  0  0  0
  -25.0512   -9.4586   -5.4117 N   0  0  0  0  0  0  0  0  0  0  0  0
  -26.6050   -8.5381   -3.9495 N   0  0  0  0  0  0  0  0  0  0  0  0
  -25.6678   -9.0658   -6.1201 H   0  0  0  0  0  0  0  0  0  0  0  0
  -26.8593   -8.3687   -2.9892 H   0  0  0  0  0  0  0  0  0  0  0  0
  -23.9149  -10.1586   -5.8604 C   0  0  0  0  0  0  0  0  0  0  0  0
  -22.7906   -9.5455   -6.4227 C   0  0  0  0  0  0  0  0  0  0  0  0
  -21.7065  -10.3134   -6.8425 C   0  0  0  0  0  0  0  0  0  0  0  0
  -21.7216  -11.7042   -6.6983 C   0  0  0  0  0  0  0  0  0  0  0  0
  -22.8301  -12.3233   -6.1245 C   0  0  0  0  0  0  0  0  0  0  0  0
  -23.9171  -11.5520   -5.7051 C   0  0  0  0  0  0  0  0  0  0  0  0
  -29.0424   -9.4350   -7.8771 N   0  0  0  0  0  0  0  0  0  0  0  0
  -30.2703  -10.1953   -8.0006 C   0  0  0  0  0  0  0  0  0  0  0  0
  -29.9806  -11.0536   -9.2236 C   0  0  0  0  0  0  0  0  0  0  0  0
  -29.2104  -10.1115  -10.1403 C   0  0  0  0  0  0  0  0  0  0  0  0
  -28.4912   -9.1402   -9.1979 C   0  0  0  0  0  0  0  0  0  0  0  0
  -30.3703   -5.4656   -4.9362 S   0  0  0  0  0  0  0  0  0  0  0  0
  -29.2042   -4.1571   -5.0079 C   0  0  0  0  0  0  0  0  0  0  0  0
  -28.8606   -3.3536   -3.9458 C   0  0  0  0  0  0  0  0  0  0  0  0
  -27.9858   -2.4172   -4.4250 N   0  0  0  0  0  0  0  0  0  0  0  0
  -28.0859   -2.3713   -5.7973 C   0  0  0  0  0  0  0  0  0  0  0  0
  -27.7297   -1.3698   -6.7055 C   0  0  0  0  0  0  0  0  0  0  0  0
  -27.8949   -1.6514   -8.0640 C   0  0  0  0  0  0  0  0  0  0  0  0
  -28.2930   -2.9175   -8.4909 C   0  0  0  0  0  0  0  0  0  0  0  0
  -28.6615   -3.9017   -7.5656 C   0  0  0  0  0  0  0  0  0  0  0  0
  -28.6485   -3.5868   -6.1914 C   0  0  0  0  0  0  0  0  0  0  0  0
  -27.4373   -1.7824   -3.8613 H   0  0  0  0  0  0  0  0  0  0  0  0
  7  8  2  0  0  0
  8  9  1  0  0  0
  8 10  1  0  0  0
  9 13  1  0  0  0
  9 11  1  0  0  0
 13 14  1  0  0  0
 13 18  2  0  0  0
 14 15  2  0  0  0
 15 16  1  0  0  0
 16 17  2  0  0  0
 17 18  1  0  0  0
 10  1  1  0  0  0
 10 12  1  0  0  0
  1  2  1  0  0  0
  1  6  2  0  0  0
  2  3  2  0  0  0
  3 24  1  0  0  0
  3  4  1  0  0  0
 24 25  1  0  0  0
 25 26  2  0  0  0
 25 33  1  0  0  0
 26 27  1  0  0  0
 27 28  1  0  0  0
 27 34  1  0  0  0
 28 29  1  0  0  0
 28 33  2  0  0  0
 29 30  2  0  0  0
 30 31  1  0  0  0
 31 32  2  0  0  0
 32 33  1  0  0  0
  4  5  2  0  0  0
  5 19  1  0  0  0
  5  6  1  0  0  0
 19 20  1  0  0  0
 19 23  1  0  0  0
 20 21  1  0  0  0
 21 22  1  0  0  0
 22 23  1  0  0  0
M  END
> <minimizedAffinity>
-9.38883

$$$$
