CHEMBL178455


 36 39  0  0  0  0  0  0  0  0999 V2000
  -29.8377   -7.1977   -6.0368 C   0  0  0  0  0  0  0  0  0  0  0  0
  -29.4051   -8.0581   -7.0504 C   0  0  0  0  0  0  0  0  0  0  0  0
  -28.6214   -9.1797   -6.7534 C   0  0  0  0  0  0  0  0  0  0  0  0
  -28.2956   -9.5000   -5.4332 C   0  0  0  0  0  0  0  0  0  0  0  0
  -28.7880   -8.6709   -4.4201 C   0  0  0  0  0  0  0  0  0  0  0  0
  -28.5158   -8.9622   -3.1379 F   0  0  0  0  0  0  0  0  0  0  0  0
  -29.5420   -7.5235   -4.7101 C   0  0  0  0  0  0  0  0  0  0  0  0
  -27.5361  -10.6567   -5.1021 N   0  0  0  0  0  0  0  0  0  0  0  0
  -26.1597  -10.7233   -5.2098 C   0  0  0  0  0  0  0  0  0  0  0  0
  -25.4393   -9.7403   -5.3764 O   0  0  0  0  0  0  0  0  0  0  0  0
  -25.6756  -12.0242   -5.1598 N   0  0  0  0  0  0  0  0  0  0  0  0
  -27.9803  -11.3339   -4.4944 H   0  0  0  0  0  0  0  0  0  0  0  0
  -26.2942  -12.7090   -5.5812 H   0  0  0  0  0  0  0  0  0  0  0  0
  -24.2881  -12.2594   -5.3756 C   0  0  0  0  0  0  0  0  0  0  0  0
  -23.3734  -12.2806   -4.3149 C   0  0  0  0  0  0  0  0  0  0  0  0
  -22.0039  -12.3706   -4.5701 C   0  0  0  0  0  0  0  0  0  0  0  0
  -21.5524  -12.4386   -5.8839 C   0  0  0  0  0  0  0  0  0  0  0  0
  -20.2357  -12.4659   -6.1273 F   0  0  0  0  0  0  0  0  0  0  0  0
  -22.4465  -12.4660   -6.9474 C   0  0  0  0  0  0  0  0  0  0  0  0
  -23.8115  -12.4001   -6.6831 C   0  0  0  0  0  0  0  0  0  0  0  0
  -24.6761  -12.3941   -7.7095 F   0  0  0  0  0  0  0  0  0  0  0  0
  -30.5880   -6.0514   -6.2649 O   0  0  0  0  0  0  0  0  0  0  0  0
  -28.3289   -1.6936   -4.8440 C   0  0  0  0  0  0  0  0  0  0  0  0
  -29.2992   -2.0506   -3.8971 C   0  0  0  0  0  0  0  0  0  0  0  0
  -30.1076   -3.1697   -4.0361 C   0  0  0  0  0  0  0  0  0  0  0  0
  -30.9554   -3.4492   -3.0331 N   0  0  0  0  0  0  0  0  0  0  0  0
  -31.7282   -4.5470   -3.1394 C   0  0  0  0  0  0  0  0  0  0  0  0
  -31.6847   -5.4083   -4.2117 C   0  0  0  0  0  0  0  0  0  0  0  0
  -30.7555   -5.1525   -5.2192 C   0  0  0  0  0  0  0  0  0  0  0  0
  -29.9868   -3.9645   -5.1862 C   0  0  0  0  0  0  0  0  0  0  0  0
  -29.0969   -3.5417   -6.2016 C   0  0  0  0  0  0  0  0  0  0  0  0
  -28.2649   -2.4171   -6.0409 C   0  0  0  0  0  0  0  0  0  0  0  0
  -27.9516    0.6437   -4.9961 C   0  0  0  0  0  0  0  0  0  0  0  0
  -27.4673   -0.6500   -4.6210 O   0  0  0  0  0  0  0  0  0  0  0  0
  -27.4775   -2.1963   -7.1383 O   0  0  0  0  0  0  0  0  0  0  0  0
  -27.9983   -1.4574   -8.2332 C   0  0  0  0  0  0  0  0  0  0  0  0
 33 34  1  0  0  0
 34 23  1  0  0  0
 23 24  1  0  0  0
 23 32  2  0  0  0
 24 25  2  0  0  0
 25 26  1  0  0  0
 25 30  1  0  0  0
 26 27  2  0  0  0
 27 28  1  0  0  0
 28 29  2  0  0  0
 29 22  1  0  0  0
 29 30  1  0  0  0
 22  1  1  0  0  0
  1  2  1  0  0  0
  1  7  2  0  0  0
  2  3  2  0  0  0
  3  4  1  0  0  0
  4  8  1  0  0  0
  4  5  2  0  0  0
  8  9  1  0  0  0
  8 12  1  0  0  0
  9 10  2  0  0  0
  9 11  1  0  0  0
 11 14  1  0  0  0
 11 13  1  0  0  0
 14 15  1  0  0  0
 14 20  2  0  0  0
 15 16  2  0  0  0
 16 17  1  0  0  0
 17 18  1  0  0  0
 17 19  2  0  0  0
 19 20  1  0  0  0
 20 21  1  0  0  0
  5  6  1  0  0  0
  5  7  1  0  0  0
 30 31  2  0  0  0
 31 32  1  0  0  0
 32 35  1  0  0  0
 35 36  1  0  0  0
M  END
> <minimizedAffinity>
-8.52137

$$$$
