CHEMBL3961993


 38 41  0  0  0  0  0  0  0  0999 V2000
  -24.8946   -0.8849  -15.7196 C   0  0  0  0  0  0  0  0  0  0  0  0
  -24.6877   -1.2328  -14.2723 C   0  0  0  0  0  0  0  0  0  0  0  0
  -25.8309   -1.5851  -13.5316 C   0  0  0  0  0  0  0  0  0  0  0  0
  -25.7806   -1.8966  -12.1717 C   0  0  0  0  0  0  0  0  0  0  0  0
  -24.5297   -1.9546  -11.5610 C   0  0  0  0  0  0  0  0  0  0  0  0
  -23.3738   -1.6215  -12.2844 C   0  0  0  0  0  0  0  0  0  0  0  0
  -23.4506   -1.1830  -13.6173 C   0  0  0  0  0  0  0  0  0  0  0  0
  -26.9412   -2.1366  -11.3976 N   0  0  0  0  0  0  0  0  0  0  0  0
  -27.0396   -1.9464  -10.0274 C   0  0  0  0  0  0  0  0  0  0  0  0
  -26.1449   -1.5206   -9.3029 O   0  0  0  0  0  0  0  0  0  0  0  0
  -28.2664   -2.3470   -9.5175 N   0  0  0  0  0  0  0  0  0  0  0  0
  -27.7332   -2.5430  -11.8743 H   0  0  0  0  0  0  0  0  0  0  0  0
  -28.6534   -3.1638   -9.9670 H   0  0  0  0  0  0  0  0  0  0  0  0
  -28.5247   -2.2130   -8.1319 C   0  0  0  0  0  0  0  0  0  0  0  0
  -28.7672   -3.3536   -7.3785 C   0  0  0  0  0  0  0  0  0  0  0  0
  -28.9352   -3.2442   -5.9966 C   0  0  0  0  0  0  0  0  0  0  0  0
  -28.9184   -1.9923   -5.3633 C   0  0  0  0  0  0  0  0  0  0  0  0
  -29.1468   -1.9993   -3.6533 Cl  0  0  0  0  0  0  0  0  0  0  0  0
  -28.7228   -0.8266   -6.1090 C   0  0  0  0  0  0  0  0  0  0  0  0
  -28.5077   -0.9604   -7.4999 C   0  0  0  0  0  0  0  0  0  0  0  0
  -28.7244    0.5687   -5.5386 C   0  0  0  0  0  0  0  0  0  0  0  0
  -27.8838    0.7966   -4.4952 F   0  0  0  0  0  0  0  0  0  0  0  0
  -28.4096    1.5115   -6.4719 F   0  0  0  0  0  0  0  0  0  0  0  0
  -29.9618    0.9176   -5.0756 F   0  0  0  0  0  0  0  0  0  0  0  0
  -22.3314   -0.7422  -14.3093 O   0  0  0  0  0  0  0  0  0  0  0  0
  -22.0554    0.6200  -14.3235 C   0  0  0  0  0  0  0  0  0  0  0  0
  -22.8615    1.5559  -13.6832 C   0  0  0  0  0  0  0  0  0  0  0  0
  -22.4612    2.8720  -13.6977 C   0  0  0  0  0  0  0  0  0  0  0  0
  -21.3661    3.3062  -14.3596 N   0  0  0  0  0  0  0  0  0  0  0  0
  -20.6288    2.4213  -15.0455 C   0  0  0  0  0  0  0  0  0  0  0  0
  -20.9375    1.0586  -15.0493 C   0  0  0  0  0  0  0  0  0  0  0  0
  -19.5126    2.8916  -15.7689 N   0  0  0  0  0  0  0  0  0  0  0  0
  -18.2037    2.5908  -15.4241 C   0  0  0  0  0  0  0  0  0  0  0  0
  -17.8211    1.8946  -14.4943 O   0  0  0  0  0  0  0  0  0  0  0  0
  -19.6838    3.4843  -16.5659 H   0  0  0  0  0  0  0  0  0  0  0  0
  -17.1633    3.2109  -16.3114 C   0  0  0  0  0  0  0  0  0  0  0  0
  -15.7124    3.1977  -15.8690 C   0  0  0  0  0  0  0  0  0  0  0  0
  -16.4762    4.4885  -15.8665 C   0  0  0  0  0  0  0  0  0  0  0  0
  1  2  1  0  0  0
  2  3  1  0  0  0
  2  7  2  0  0  0
  3  4  2  0  0  0
  4  8  1  0  0  0
  4  5  1  0  0  0
  8  9  1  0  0  0
  8 12  1  0  0  0
  9 10  2  0  0  0
  9 11  1  0  0  0
 11 14  1  0  0  0
 11 13  1  0  0  0
 14 15  1  0  0  0
 14 20  2  0  0  0
 15 16  2  0  0  0
 16 17  1  0  0  0
 17 18  1  0  0  0
 17 19  2  0  0  0
 19 21  1  0  0  0
 19 20  1  0  0  0
 21 22  1  0  0  0
 21 23  1  0  0  0
 21 24  1  0  0  0
  5  6  2  0  0  0
  6  7  1  0  0  0
  7 25  1  0  0  0
 25 26  1  0  0  0
 26 27  1  0  0  0
 26 31  2  0  0  0
 27 28  2  0  0  0
 28 29  1  0  0  0
 29 30  2  0  0  0
 30 32  1  0  0  0
 30 31  1  0  0  0
 32 33  1  0  0  0
 32 35  1  0  0  0
 33 34  2  0  0  0
 33 36  1  0  0  0
 36 37  1  0  0  0
 36 38  1  0  0  0
 37 38  1  0  0  0
M  END
> <minimizedAffinity>
-11.78985

$$$$
