CHEMBL558752


 39 43  0  0  0  0  0  0  0  0999 V2000
  -28.3101   -1.9554  -13.1477 C   0  0  0  0  0  0  0  0  0  0  0  0
  -27.1248   -1.8010  -12.3373 N   0  0  0  0  0  0  0  0  0  0  0  0
  -27.0154   -1.8646  -10.9622 C   0  0  0  0  0  0  0  0  0  0  0  0
  -25.7821   -1.5665  -10.6024 N   0  0  0  0  0  0  0  0  0  0  0  0
  -25.0710   -1.3557  -11.7510 C   0  0  0  0  0  0  0  0  0  0  0  0
  -23.7251   -1.0004  -11.9216 C   0  0  0  0  0  0  0  0  0  0  0  0
  -23.2372   -0.8350  -13.2245 C   0  0  0  0  0  0  0  0  0  0  0  0
  -24.0526   -1.1133  -14.3284 C   0  0  0  0  0  0  0  0  0  0  0  0
  -25.4045   -1.4302  -14.1734 C   0  0  0  0  0  0  0  0  0  0  0  0
  -25.8812   -1.5326  -12.8625 C   0  0  0  0  0  0  0  0  0  0  0  0
  -28.0593   -2.2249  -10.1702 N   0  0  0  0  0  0  0  0  0  0  0  0
  -28.8349   -2.7492  -10.5547 H   0  0  0  0  0  0  0  0  0  0  0  0
  -28.0398   -2.2331   -8.7563 C   0  0  0  0  0  0  0  0  0  0  0  0
  -28.3917   -3.3565   -8.0003 C   0  0  0  0  0  0  0  0  0  0  0  0
  -28.4929   -3.2987   -6.6063 C   0  0  0  0  0  0  0  0  0  0  0  0
  -28.2470   -2.1024   -5.9261 C   0  0  0  0  0  0  0  0  0  0  0  0
  -27.8487   -0.9816   -6.6660 C   0  0  0  0  0  0  0  0  0  0  0  0
  -27.7455   -1.0478   -8.0659 C   0  0  0  0  0  0  0  0  0  0  0  0
  -28.4410   -2.0037   -4.4327 C   0  0  0  0  0  0  0  0  0  0  0  0
  -28.1033   -3.1387   -3.7587 F   0  0  0  0  0  0  0  0  0  0  0  0
  -27.7031   -1.0048   -3.8722 F   0  0  0  0  0  0  0  0  0  0  0  0
  -29.7353   -1.7440   -4.0949 F   0  0  0  0  0  0  0  0  0  0  0  0
  -21.9216   -0.4333  -13.3339 O   0  0  0  0  0  0  0  0  0  0  0  0
  -21.6373    0.8338  -13.7980 C   0  0  0  0  0  0  0  0  0  0  0  0
  -22.5286    1.9042  -13.7614 C   0  0  0  0  0  0  0  0  0  0  0  0
  -22.1270    3.1104  -14.3086 C   0  0  0  0  0  0  0  0  0  0  0  0
  -20.8991    3.3300  -14.8246 N   0  0  0  0  0  0  0  0  0  0  0  0
  -20.0242    2.2888  -14.7852 C   0  0  0  0  0  0  0  0  0  0  0  0
  -20.3519    1.0340  -14.2858 C   0  0  0  0  0  0  0  0  0  0  0  0
  -18.6908    2.5766  -15.3025 C   0  0  0  0  0  0  0  0  0  0  0  0
  -18.2490    3.7109  -15.8130 N   0  0  0  0  0  0  0  0  0  0  0  0
  -16.9503    3.4792  -16.1893 C   0  0  0  0  0  0  0  0  0  0  0  0
  -16.5838    2.1860  -15.9063 C   0  0  0  0  0  0  0  0  0  0  0  0
  -17.6930    1.6279  -15.3246 N   0  0  0  0  0  0  0  0  0  0  0  0
  -17.8090    0.6819  -14.9792 H   0  0  0  0  0  0  0  0  0  0  0  0
  -15.3368    1.4445  -16.1299 C   0  0  0  0  0  0  0  0  0  0  0  0
  -14.2424    2.2379  -16.0463 F   0  0  0  0  0  0  0  0  0  0  0  0
  -15.1806    0.4482  -15.2247 F   0  0  0  0  0  0  0  0  0  0  0  0
  -15.3182    0.8652  -17.3565 F   0  0  0  0  0  0  0  0  0  0  0  0
  1  2  1  0  0  0
  2  3  1  0  0  0
  2 10  1  0  0  0
  3 11  1  0  0  0
  3  4  2  0  0  0
 11 13  1  0  0  0
 11 12  1  0  0  0
 13 14  1  0  0  0
 13 18  2  0  0  0
 14 15  2  0  0  0
 15 16  1  0  0  0
 16 19  1  0  0  0
 16 17  2  0  0  0
 19 20  1  0  0  0
 19 21  1  0  0  0
 19 22  1  0  0  0
 17 18  1  0  0  0
  4  5  1  0  0  0
  5  6  1  0  0  0
  5 10  2  0  0  0
  6  7  2  0  0  0
  7 23  1  0  0  0
  7  8  1  0  0  0
 23 24  1  0  0  0
 24 25  1  0  0  0
 24 29  2  0  0  0
 25 26  2  0  0  0
 26 27  1  0  0  0
 27 28  2  0  0  0
 28 30  1  0  0  0
 28 29  1  0  0  0
 30 31  2  0  0  0
 30 34  1  0  0  0
 31 32  1  0  0  0
 32 33  2  0  0  0
 33 36  1  0  0  0
 33 34  1  0  0  0
 36 37  1  0  0  0
 36 38  1  0  0  0
 36 39  1  0  0  0
 34 35  1  0  0  0
  8  9  2  0  0  0
  9 10  1  0  0  0
M  END
> <minimizedAffinity>
-11.51929

$$$$
