CHEMBL3633289


 42 45  0  0  0  0  0  0  0  0999 V2000
  -27.4535   -1.0630  -11.3118 N   0  0  0  0  0  0  0  0  0  0  0  0
  -27.2268   -1.6631  -10.0800 C   0  0  0  0  0  0  0  0  0  0  0  0
  -26.1368   -2.0838   -9.7021 O   0  0  0  0  0  0  0  0  0  0  0  0
  -28.3869   -1.8039   -9.3323 N   0  0  0  0  0  0  0  0  0  0  0  0
  -28.1871   -0.3680  -11.3771 H   0  0  0  0  0  0  0  0  0  0  0  0
  -29.2344   -1.8414   -9.8771 H   0  0  0  0  0  0  0  0  0  0  0  0
  -26.9412   -1.5098  -13.6822 C   0  0  0  0  0  0  0  0  0  0  0  0
  -25.9926   -1.5700  -14.7224 C   0  0  0  0  0  0  0  0  0  0  0  0
  -24.6533   -1.2301  -14.5006 C   0  0  0  0  0  0  0  0  0  0  0  0
  -24.2574   -0.8133  -13.2363 C   0  0  0  0  0  0  0  0  0  0  0  0
  -25.1897   -0.7748  -12.1952 C   0  0  0  0  0  0  0  0  0  0  0  0
  -26.5341   -1.0939  -12.3990 C   0  0  0  0  0  0  0  0  0  0  0  0
  -28.6059   -3.2087  -13.7041 C   0  0  0  0  0  0  0  0  0  0  0  0
  -28.2706   -1.8271  -13.8365 O   0  0  0  0  0  0  0  0  0  0  0  0
  -22.8402   -0.5111  -12.9477 C   0  0  0  0  0  0  0  0  0  0  0  0
  -22.3686   -0.4068  -11.8269 O   0  0  0  0  0  0  0  0  0  0  0  0
  -22.1935   -0.2957  -14.1155 O   0  0  0  0  0  0  0  0  0  0  0  0
  -21.6370    1.0181  -14.2493 C   0  0  0  0  0  0  0  0  0  0  0  0
  -20.2657    0.9683  -14.9254 C   0  0  0  0  0  0  0  0  0  0  0  0
  -19.2031    1.6241  -14.1372 N   0  0  0  0  0  0  0  0  0  0  0  0
  -19.0507    3.0699  -14.4200 C   0  0  0  0  0  0  0  0  0  0  0  0
  -18.4555    3.3662  -15.8045 C   0  0  0  0  0  0  0  0  0  0  0  0
  -17.1734    2.7427  -15.9504 O   0  0  0  0  0  0  0  0  0  0  0  0
  -17.2643    1.3269  -15.7425 C   0  0  0  0  0  0  0  0  0  0  0  0
  -17.8896    0.9838  -14.3769 C   0  0  0  0  0  0  0  0  0  0  0  0
  -28.3720   -2.4320   -8.0555 C   0  0  0  0  0  0  0  0  0  0  0  0
  -28.8254   -3.7663   -7.9718 C   0  0  0  0  0  0  0  0  0  0  0  0
  -28.9399   -4.4522   -6.7541 C   0  0  0  0  0  0  0  0  0  0  0  0
  -28.5722   -3.7845   -5.5850 C   0  0  0  0  0  0  0  0  0  0  0  0
  -28.0969   -2.4732   -5.6512 C   0  0  0  0  0  0  0  0  0  0  0  0
  -27.9653   -1.7897   -6.8763 C   0  0  0  0  0  0  0  0  0  0  0  0
  -29.4460   -5.8101   -6.6991 C   0  0  0  0  0  0  0  0  0  0  0  0
  -29.2021   -6.9332   -7.5270 C   0  0  0  0  0  0  0  0  0  0  0  0
  -29.8567   -8.0259   -7.1250 N   0  0  0  0  0  0  0  0  0  0  0  0
  -30.5170   -7.6120   -6.0324 N   0  0  0  0  0  0  0  0  0  0  0  0
  -30.3009   -6.2988   -5.7325 C   0  0  0  0  0  0  0  0  0  0  0  0
  -31.0956   -8.2822   -5.5364 H   0  0  0  0  0  0  0  0  0  0  0  0
  -27.6165   -0.4871   -6.6800 O   0  0  0  0  0  0  0  0  0  0  0  0
  -28.4893    0.4475   -6.0861 C   0  0  0  0  0  0  0  0  0  0  0  0
  -29.7581    0.0097   -5.9536 F   0  0  0  0  0  0  0  0  0  0  0  0
  -28.0237    0.7617   -4.8578 F   0  0  0  0  0  0  0  0  0  0  0  0
  -28.5077    1.5709   -6.8338 F   0  0  0  0  0  0  0  0  0  0  0  0
 13 14  1  0  0  0
 14  7  1  0  0  0
  7  8  1  0  0  0
  7 12  2  0  0  0
  8  9  2  0  0  0
  9 10  1  0  0  0
 10 15  1  0  0  0
 10 11  2  0  0  0
 15 16  2  0  0  0
 15 17  1  0  0  0
 17 18  1  0  0  0
 18 19  1  0  0  0
 19 20  1  0  0  0
 20 21  1  0  0  0
 20 25  1  0  0  0
 21 22  1  0  0  0
 22 23  1  0  0  0
 23 24  1  0  0  0
 24 25  1  0  0  0
 11 12  1  0  0  0
 12  1  1  0  0  0
  1  2  1  0  0  0
  1  5  1  0  0  0
  2  3  2  0  0  0
  2  4  1  0  0  0
  4 26  1  0  0  0
  4  6  1  0  0  0
 26 27  1  0  0  0
 26 31  2  0  0  0
 27 28  2  0  0  0
 28 32  1  0  0  0
 28 29  1  0  0  0
 32 33  1  0  0  0
 32 36  2  0  0  0
 33 34  2  0  0  0
 34 35  1  0  0  0
 35 36  1  0  0  0
 35 37  1  0  0  0
 29 30  2  0  0  0
 30 31  1  0  0  0
 31 38  1  0  0  0
 38 39  1  0  0  0
 39 40  1  0  0  0
 39 41  1  0  0  0
 39 42  1  0  0  0
M  END
> <minimizedAffinity>
-9.57346

$$$$
