CHEMBL223999


 36 41  0  0  0  0  0  0  0  0999 V2000
  -31.6279   11.9211  -12.7068 C   0  0  0  0  0  0  0  0  0  0  0  0
  -30.9459   12.4730  -11.5903 C   0  0  0  0  0  0  0  0  0  0  0  0
  -29.5602   12.6517  -11.5813 C   0  0  0  0  0  0  0  0  0  0  0  0
  -28.8760   12.2239  -12.6892 C   0  0  0  0  0  0  0  0  0  0  0  0
  -29.5243   11.6147  -13.7990 C   0  0  0  0  0  0  0  0  0  0  0  0
  -30.9010   11.4742  -13.8182 C   0  0  0  0  0  0  0  0  0  0  0  0
  -28.5505   11.1618  -14.8968 C   0  0  0  0  0  0  0  0  0  0  0  0
  -27.3050   11.6545  -14.2527 C   0  0  0  0  0  0  0  0  0  0  0  0
  -25.9306   11.7289  -14.4635 C   0  0  0  0  0  0  0  0  0  0  0  0
  -25.2967   12.2969  -13.4177 N   0  0  0  0  0  0  0  0  0  0  0  0
  -26.3021   12.6273  -12.5619 N   0  0  0  0  0  0  0  0  0  0  0  0
  -27.5001   12.2301  -13.0297 C   0  0  0  0  0  0  0  0  0  0  0  0
  -26.0731   13.1142  -11.7017 H   0  0  0  0  0  0  0  0  0  0  0  0
  -25.2634   11.2228  -15.6638 C   0  0  0  0  0  0  0  0  0  0  0  0
  -25.6744   10.1265  -16.3916 C   0  0  0  0  0  0  0  0  0  0  0  0
  -24.6274    9.7824  -17.6924 S   0  0  0  0  0  0  0  0  0  0  0  0
  -23.6214   11.1037  -17.2978 C   0  0  0  0  0  0  0  0  0  0  0  0
  -24.0832   11.8089  -16.2081 C   0  0  0  0  0  0  0  0  0  0  0  0
  -22.4453   11.4073  -18.0358 C   0  0  0  0  0  0  0  0  0  0  0  0
  -21.3924   11.6880  -18.7517 C   0  0  0  0  0  0  0  0  0  0  0  0
  -20.1650   12.0152  -19.5864 C   0  0  0  0  0  0  0  0  0  0  0  0
  -20.0881   11.1287  -20.6989 O   0  0  0  0  0  0  0  0  0  0  0  0
  -18.8969   10.4690  -20.7996 C   0  0  0  0  0  0  0  0  0  0  0  0
  -18.6332    9.4557  -21.7241 C   0  0  0  0  0  0  0  0  0  0  0  0
  -17.3952    8.8154  -21.7343 C   0  0  0  0  0  0  0  0  0  0  0  0
  -16.4069    9.2014  -20.8334 C   0  0  0  0  0  0  0  0  0  0  0  0
  -16.6475   10.2407  -19.9365 C   0  0  0  0  0  0  0  0  0  0  0  0
  -17.8892   10.8784  -19.9237 C   0  0  0  0  0  0  0  0  0  0  0  0
  -33.1352   11.8052  -12.7039 C   0  0  0  0  0  0  0  0  0  0  0  0
  -35.5837    8.1734  -14.3033 C   0  0  0  0  0  0  0  0  0  0  0  0
  -35.1863    8.7795  -13.0300 N   0  0  0  0  0  0  0  0  0  0  0  0
  -33.7233    8.7546  -12.9051 C   0  0  0  0  0  0  0  0  0  0  0  0
  -33.2572    9.4470  -11.6253 C   0  0  0  0  0  0  0  0  0  0  0  0
  -33.7229   10.9090  -11.5832 C   0  0  0  0  0  0  0  0  0  0  0  0
  -35.2596   10.8784  -11.6640 C   0  0  0  0  0  0  0  0  0  0  0  0
  -35.7542   10.1311  -12.9107 C   0  0  0  0  0  0  0  0  0  0  0  0
 30 31  1  0  0  0
 31 32  1  0  0  0
 31 36  1  0  0  0
 32 33  1  0  0  0
 33 34  1  0  0  0
 34 29  1  0  0  0
 34 35  1  0  0  0
 29  1  1  0  0  0
  1  2  1  0  0  0
  1  6  2  0  0  0
  2  3  2  0  0  0
  3  4  1  0  0  0
  4  5  2  0  0  0
  4 12  1  0  0  0
  5  6  1  0  0  0
  5  7  1  0  0  0
  7  8  1  0  0  0
  8  9  1  0  0  0
  8 12  2  0  0  0
  9 14  1  0  0  0
  9 10  2  0  0  0
 14 15  2  0  0  0
 14 18  1  0  0  0
 15 16  1  0  0  0
 16 17  1  0  0  0
 17 19  1  0  0  0
 17 18  2  0  0  0
 19 20  3  0  0  0
 20 21  1  0  0  0
 21 22  1  0  0  0
 22 23  1  0  0  0
 23 24  1  0  0  0
 23 28  2  0  0  0
 24 25  2  0  0  0
 25 26  1  0  0  0
 26 27  2  0  0  0
 27 28  1  0  0  0
 10 11  1  0  0  0
 11 12  1  0  0  0
 11 13  1  0  0  0
 35 36  1  0  0  0
M  END
> <minimizedAffinity>
-6.59370

$$$$
