CHEMBL193912


 21 23  0  0  0  0  0  0  0  0999 V2000
  -27.4207   -1.9498   -9.2811 C   0  0  0  0  0  0  0  0  0  0  0  0
  -28.3062   -1.7142  -10.2257 N   0  0  0  0  0  0  0  0  0  0  0  0
  -27.5528   -1.3480  -11.3063 C   0  0  0  0  0  0  0  0  0  0  0  0
  -26.2138   -1.3601  -10.9845 C   0  0  0  0  0  0  0  0  0  0  0  0
  -26.1224   -1.7550   -9.6708 O   0  0  0  0  0  0  0  0  0  0  0  0
  -24.9824   -1.0769  -11.7103 C   0  0  0  0  0  0  0  0  0  0  0  0
  -24.6576    0.2472  -12.0513 C   0  0  0  0  0  0  0  0  0  0  0  0
  -23.4975    0.5432  -12.7720 C   0  0  0  0  0  0  0  0  0  0  0  0
  -22.6405   -0.4815  -13.1599 C   0  0  0  0  0  0  0  0  0  0  0  0
  -22.9409   -1.7996  -12.8228 C   0  0  0  0  0  0  0  0  0  0  0  0
  -24.1028   -2.0955  -12.1015 C   0  0  0  0  0  0  0  0  0  0  0  0
  -27.6079   -2.3335   -8.0009 N   0  0  0  0  0  0  0  0  0  0  0  0
  -26.8931   -2.9489   -7.6285 H   0  0  0  0  0  0  0  0  0  0  0  0
  -29.0582   -1.9996   -6.0285 C   0  0  0  0  0  0  0  0  0  0  0  0
  -29.5713   -1.1476   -5.0327 C   0  0  0  0  0  0  0  0  0  0  0  0
  -29.2079    0.1982   -4.9912 C   0  0  0  0  0  0  0  0  0  0  0  0
  -28.3438    0.7064   -5.9520 C   0  0  0  0  0  0  0  0  0  0  0  0
  -27.8412   -0.1307   -6.9496 C   0  0  0  0  0  0  0  0  0  0  0  0
  -28.1808   -1.4950   -7.0101 C   0  0  0  0  0  0  0  0  0  0  0  0
  -29.8432   -4.4759   -5.9871 N   0  0  0  0  0  0  0  0  0  0  0  0
  -29.4692   -3.3785   -6.0125 C   0  0  0  0  0  0  0  0  0  0  0  0
 20 21  3  0  0  0
 21 14  1  0  0  0
 14 15  1  0  0  0
 14 19  2  0  0  0
 15 16  2  0  0  0
 16 17  1  0  0  0
 17 18  2  0  0  0
 18 19  1  0  0  0
 19 12  1  0  0  0
 12  1  1  0  0  0
 12 13  1  0  0  0
  1  2  2  0  0  0
  1  5  1  0  0  0
  2  3  1  0  0  0
  3  4  2  0  0  0
  4  6  1  0  0  0
  4  5  1  0  0  0
  6  7  1  0  0  0
  6 11  2  0  0  0
  7  8  2  0  0  0
  8  9  1  0  0  0
  9 10  2  0  0  0
 10 11  1  0  0  0
M  END
> <minimizedAffinity>
-8.49169

$$$$
