CHEMBL24979


 32 35  0  0  0  0  0  0  0  0999 V2000
  -28.0494   -3.3366   -8.1353 C   0  0  0  0  0  0  0  0  0  0  0  0
  -28.6871   -3.0323   -6.9367 C   0  0  0  0  0  0  0  0  0  0  0  0
  -28.6599   -1.7339   -6.4018 C   0  0  0  0  0  0  0  0  0  0  0  0
  -29.1705   -1.4199   -5.1337 C   0  0  0  0  0  0  0  0  0  0  0  0
  -29.1821   -0.1637   -4.6654 N   0  0  0  0  0  0  0  0  0  0  0  0
  -28.6312    0.7642   -5.4567 C   0  0  0  0  0  0  0  0  0  0  0  0
  -28.0872    0.5646   -6.6682 N   0  0  0  0  0  0  0  0  0  0  0  0
  -28.1035   -0.6878   -7.1394 C   0  0  0  0  0  0  0  0  0  0  0  0
  -27.5627   -0.9840   -8.3908 C   0  0  0  0  0  0  0  0  0  0  0  0
  -27.5389   -2.2900   -8.9104 C   0  0  0  0  0  0  0  0  0  0  0  0
  -28.6583   -5.5848   -7.7848 C   0  0  0  0  0  0  0  0  0  0  0  0
  -27.8987   -4.6381   -8.5408 O   0  0  0  0  0  0  0  0  0  0  0  0
  -29.6047   -2.4780   -4.3018 N   0  0  0  0  0  0  0  0  0  0  0  0
  -30.5165   -2.2782   -3.8982 H   0  0  0  0  0  0  0  0  0  0  0  0
  -29.3405   -3.8565   -4.4002 C   0  0  0  0  0  0  0  0  0  0  0  0
  -28.0508   -4.3713   -4.2470 C   0  0  0  0  0  0  0  0  0  0  0  0
  -27.8454   -5.7501   -4.1386 C   0  0  0  0  0  0  0  0  0  0  0  0
  -28.9253   -6.6234   -4.1849 C   0  0  0  0  0  0  0  0  0  0  0  0
  -28.6453   -8.4734   -3.9181 Br  0  0  0  0  0  0  0  0  0  0  0  0
  -30.2144   -6.1420   -4.3755 C   0  0  0  0  0  0  0  0  0  0  0  0
  -30.4116   -4.7666   -4.4722 C   0  0  0  0  0  0  0  0  0  0  0  0
  -31.6605   -4.2987   -4.6133 F   0  0  0  0  0  0  0  0  0  0  0  0
  -26.9609   -2.3973  -10.1532 O   0  0  0  0  0  0  0  0  0  0  0  0
  -27.2652   -1.3401  -11.0718 C   0  0  0  0  0  0  0  0  0  0  0  0
  -25.9651   -0.8256  -11.6907 C   0  0  0  0  0  0  0  0  0  0  0  0
  -25.1206   -1.9323  -12.3677 C   0  0  0  0  0  0  0  0  0  0  0  0
  -23.7150   -2.0103  -11.7521 C   0  0  0  0  0  0  0  0  0  0  0  0
  -22.8625   -0.7876  -12.1087 C   0  0  0  0  0  0  0  0  0  0  0  0
  -22.7827   -0.5560  -13.5580 N   0  0  0  0  0  0  0  0  0  0  0  0
  -22.0606    0.6910  -13.8258 C   0  0  0  0  0  0  0  0  0  0  0  0
  -24.0986   -0.5182  -14.2106 C   0  0  0  0  0  0  0  0  0  0  0  0
  -24.9376   -1.7542  -13.8818 C   0  0  0  0  0  0  0  0  0  0  0  0
 11 12  1  0  0  0
 12  1  1  0  0  0
  1  2  1  0  0  0
  1 10  2  0  0  0
  2  3  2  0  0  0
  3  4  1  0  0  0
  3  8  1  0  0  0
  4 13  1  0  0  0
  4  5  2  0  0  0
 13 15  1  0  0  0
 13 14  1  0  0  0
 15 16  1  0  0  0
 15 21  2  0  0  0
 16 17  2  0  0  0
 17 18  1  0  0  0
 18 19  1  0  0  0
 18 20  2  0  0  0
 20 21  1  0  0  0
 21 22  1  0  0  0
  5  6  1  0  0  0
  6  7  2  0  0  0
  7  8  1  0  0  0
  8  9  2  0  0  0
  9 10  1  0  0  0
 10 23  1  0  0  0
 23 24  1  0  0  0
 24 25  1  0  0  0
 25 26  1  0  0  0
 26 27  1  0  0  0
 26 32  1  0  0  0
 27 28  1  0  0  0
 28 29  1  0  0  0
 29 30  1  0  0  0
 29 31  1  0  0  0
 31 32  1  0  0  0
M  END
> <minimizedAffinity>
-9.44382

$$$$
