CHEMBL3946793


 27 30  0  0  0  0  0  0  0  0999 V2000
  -22.7334   -0.1567  -13.7466 C   0  0  0  0  0  0  0  0  0  0  0  0
  -23.1308    0.8683  -12.8773 C   0  0  0  0  0  0  0  0  0  0  0  0
  -24.2419    0.7177  -12.0112 C   0  0  0  0  0  0  0  0  0  0  0  0
  -25.0724   -0.4022  -12.1952 C   0  0  0  0  0  0  0  0  0  0  0  0
  -26.3020   -0.9675  -11.6971 C   0  0  0  0  0  0  0  0  0  0  0  0
  -26.9828   -1.3478  -12.8049 N   0  0  0  0  0  0  0  0  0  0  0  0
  -25.9762   -1.8163  -13.5716 N   0  0  0  0  0  0  0  0  0  0  0  0
  -24.7772   -1.2331  -13.2766 C   0  0  0  0  0  0  0  0  0  0  0  0
  -23.5535   -1.2712  -13.9256 C   0  0  0  0  0  0  0  0  0  0  0  0
  -26.2143   -2.4010  -14.3651 H   0  0  0  0  0  0  0  0  0  0  0  0
  -26.4712   -1.9374  -10.6155 C   0  0  0  0  0  0  0  0  0  0  0  0
  -27.6620   -2.2289  -10.0546 C   0  0  0  0  0  0  0  0  0  0  0  0
  -27.8783   -2.2884   -8.5905 C   0  0  0  0  0  0  0  0  0  0  0  0
  -27.7104   -1.1480   -7.7780 C   0  0  0  0  0  0  0  0  0  0  0  0
  -28.2143   -1.1126   -6.4719 C   0  0  0  0  0  0  0  0  0  0  0  0
  -28.8882   -2.2162   -5.9571 C   0  0  0  0  0  0  0  0  0  0  0  0
  -29.0315   -3.3625   -6.7369 C   0  0  0  0  0  0  0  0  0  0  0  0
  -28.5312   -3.3970   -8.0442 C   0  0  0  0  0  0  0  0  0  0  0  0
  -21.6515   -0.1551  -14.5995 O   0  0  0  0  0  0  0  0  0  0  0  0
  -18.1956    4.0572  -15.3946 O   0  0  0  0  0  0  0  0  0  0  0  0
  -19.0801    3.0484  -15.1589 C   0  0  0  0  0  0  0  0  0  0  0  0
  -20.4017    3.3094  -14.8055 C   0  0  0  0  0  0  0  0  0  0  0  0
  -21.2796    2.2528  -14.5691 C   0  0  0  0  0  0  0  0  0  0  0  0
  -20.8520    0.9381  -14.7670 C   0  0  0  0  0  0  0  0  0  0  0  0
  -19.5105    0.6833  -15.0669 C   0  0  0  0  0  0  0  0  0  0  0  0
  -18.6166    1.7377  -15.2628 C   0  0  0  0  0  0  0  0  0  0  0  0
  -18.6824    4.8978  -15.3621 H   0  0  0  0  0  0  0  0  0  0  0  0
 20 21  1  0  0  0
 20 27  1  0  0  0
 21 22  1  0  0  0
 21 26  2  0  0  0
 22 23  2  0  0  0
 23 24  1  0  0  0
 24 19  1  0  0  0
 24 25  2  0  0  0
 19  1  1  0  0  0
  1  2  1  0  0  0
  1  9  2  0  0  0
  2  3  2  0  0  0
  3  4  1  0  0  0
  4  5  1  0  0  0
  4  8  2  0  0  0
  5 11  1  0  0  0
  5  6  2  0  0  0
 11 12  2  0  0  0
 12 13  1  0  0  0
 13 14  1  0  0  0
 13 18  2  0  0  0
 14 15  2  0  0  0
 15 16  1  0  0  0
 16 17  2  0  0  0
 17 18  1  0  0  0
  6  7  1  0  0  0
  7  8  1  0  0  0
  7 10  1  0  0  0
  8  9  1  0  0  0
 25 26  1  0  0  0
M  END
> <minimizedAffinity>
-10.51424

$$$$
