CHEMBL3287312


 46 50  0  0  0  0  0  0  0  0999 V2000
  -21.0298   11.7030  -18.3175 C   0  0  0  0  0  0  0  0  0  0  0  0
  -22.0359   12.5477  -18.7925 C   0  0  0  0  0  0  0  0  0  0  0  0
  -23.2716   12.6441  -18.1551 C   0  0  0  0  0  0  0  0  0  0  0  0
  -23.5686   11.8332  -17.0629 C   0  0  0  0  0  0  0  0  0  0  0  0
  -22.5845   10.9507  -16.6094 C   0  0  0  0  0  0  0  0  0  0  0  0
  -22.8281   10.1712  -15.5444 F   0  0  0  0  0  0  0  0  0  0  0  0
  -21.3227   10.8711  -17.2308 C   0  0  0  0  0  0  0  0  0  0  0  0
  -19.4758   11.3228  -20.2045 C   0  0  0  0  0  0  0  0  0  0  0  0
  -20.3009   10.9995  -21.0494 O   0  0  0  0  0  0  0  0  0  0  0  0
  -19.7330   11.6988  -18.8950 N   0  0  0  0  0  0  0  0  0  0  0  0
  -18.9826   12.1457  -18.3780 H   0  0  0  0  0  0  0  0  0  0  0  0
  -18.0704   11.4422  -20.6799 C   0  0  0  0  0  0  0  0  0  0  0  0
  -17.6456   12.6107  -21.5612 C   0  0  0  0  0  0  0  0  0  0  0  0
  -17.2813   12.6343  -20.1123 C   0  0  0  0  0  0  0  0  0  0  0  0
  -16.1644   10.1302  -20.0084 N   0  0  0  0  0  0  0  0  0  0  0  0
  -17.3241   10.1489  -20.7633 C   0  0  0  0  0  0  0  0  0  0  0  0
  -17.7869    9.2548  -21.4559 O   0  0  0  0  0  0  0  0  0  0  0  0
  -15.9774   10.9540  -19.4412 H   0  0  0  0  0  0  0  0  0  0  0  0
  -13.3615    6.9704  -19.7956 C   0  0  0  0  0  0  0  0  0  0  0  0
  -14.3848    7.0548  -18.8570 C   0  0  0  0  0  0  0  0  0  0  0  0
  -15.3118    8.0986  -18.9121 C   0  0  0  0  0  0  0  0  0  0  0  0
  -15.2417    9.0707  -19.9078 C   0  0  0  0  0  0  0  0  0  0  0  0
  -14.2162    8.9852  -20.8562 C   0  0  0  0  0  0  0  0  0  0  0  0
  -13.2825    7.9409  -20.7968 C   0  0  0  0  0  0  0  0  0  0  0  0
  -11.7272    5.8247  -21.0751 C   0  0  0  0  0  0  0  0  0  0  0  0
  -12.3964    6.0021  -19.8297 O   0  0  0  0  0  0  0  0  0  0  0  0
  -24.7595   11.9173  -16.3677 O   0  0  0  0  0  0  0  0  0  0  0  0
  -24.7017   11.8917  -14.9779 C   0  0  0  0  0  0  0  0  0  0  0  0
  -23.5391   11.4752  -14.3855 C   0  0  0  0  0  0  0  0  0  0  0  0
  -23.5535   11.4907  -13.0108 C   0  0  0  0  0  0  0  0  0  0  0  0
  -24.6141   11.8807  -12.2717 N   0  0  0  0  0  0  0  0  0  0  0  0
  -25.7166   12.2368  -12.9436 C   0  0  0  0  0  0  0  0  0  0  0  0
  -25.7906   12.2425  -14.2791 N   0  0  0  0  0  0  0  0  0  0  0  0
  -26.8262   12.6518  -12.2048 N   0  0  0  0  0  0  0  0  0  0  0  0
  -26.5617   12.8198  -11.2451 H   0  0  0  0  0  0  0  0  0  0  0  0
  -28.1655   12.2799  -12.4158 C   0  0  0  0  0  0  0  0  0  0  0  0
  -29.1173   12.3274  -11.3904 C   0  0  0  0  0  0  0  0  0  0  0  0
  -30.4224   11.8914  -11.5973 C   0  0  0  0  0  0  0  0  0  0  0  0
  -30.7991   11.3948  -12.8409 C   0  0  0  0  0  0  0  0  0  0  0  0
  -29.8835   11.3589  -13.9019 C   0  0  0  0  0  0  0  0  0  0  0  0
  -28.5674   11.8086  -13.6741 C   0  0  0  0  0  0  0  0  0  0  0  0
  -30.2531   10.7444  -15.2274 C   0  0  0  0  0  0  0  0  0  0  0  0
  -28.8366   10.4740  -16.2898 S   0  0  0  0  0  0  0  0  0  0  0  0
  -29.5071    9.7681  -17.7764 C   0  0  0  0  0  0  0  0  0  0  0  0
  -28.3225   11.7860  -16.6457 O   0  0  0  0  0  0  0  0  0  0  0  0
  -27.9478    9.4971  -15.6884 O   0  0  0  0  0  0  0  0  0  0  0  0
 25 26  1  0  0  0
 26 19  1  0  0  0
 19 20  1  0  0  0
 19 24  2  0  0  0
 20 21  2  0  0  0
 21 22  1  0  0  0
 22 15  1  0  0  0
 22 23  2  0  0  0
 15 16  1  0  0  0
 15 18  1  0  0  0
 16 17  2  0  0  0
 16 12  1  0  0  0
 12  8  1  0  0  0
 12 13  1  0  0  0
 12 14  1  0  0  0
  8  9  2  0  0  0
  8 10  1  0  0  0
 10  1  1  0  0  0
 10 11  1  0  0  0
  1  2  1  0  0  0
  1  7  2  0  0  0
  2  3  2  0  0  0
  3  4  1  0  0  0
  4 27  1  0  0  0
  4  5  2  0  0  0
 27 28  1  0  0  0
 28 29  1  0  0  0
 28 33  2  0  0  0
 29 30  2  0  0  0
 30 31  1  0  0  0
 31 32  2  0  0  0
 32 34  1  0  0  0
 32 33  1  0  0  0
 34 36  1  0  0  0
 34 35  1  0  0  0
 36 37  1  0  0  0
 36 41  2  0  0  0
 37 38  2  0  0  0
 38 39  1  0  0  0
 39 40  2  0  0  0
 40 42  1  0  0  0
 40 41  1  0  0  0
 42 43  1  0  0  0
 43 44  1  0  0  0
 43 45  2  0  0  0
 43 46  2  0  0  0
  5  6  1  0  0  0
  5  7  1  0  0  0
 13 14  1  0  0  0
 23 24  1  0  0  0
M  END
> <minimizedAffinity>
-3.85036

$$$$
