CHEMBL4062877


 38 42  0  0  0  0  0  0  0  0999 V2000
  -29.0212   -7.1803   -6.5508 C   0  0  0  0  0  0  0  0  0  0  0  0
  -29.2102   -5.9006   -7.1229 C   0  0  0  0  0  0  0  0  0  0  0  0
  -28.9775   -4.7086   -6.4414 C   0  0  0  0  0  0  0  0  0  0  0  0
  -28.4573   -4.8764   -5.1637 C   0  0  0  0  0  0  0  0  0  0  0  0
  -28.1846   -6.0712   -4.5711 N   0  0  0  0  0  0  0  0  0  0  0  0
  -28.4274   -7.2209   -5.2695 C   0  0  0  0  0  0  0  0  0  0  0  0
  -33.2406  -11.0889   -6.4038 C   0  0  0  0  0  0  0  0  0  0  0  0
  -32.2228  -11.0603   -7.4811 C   0  0  0  0  0  0  0  0  0  0  0  0
  -32.1852  -12.0163   -8.4193 N   0  0  0  0  0  0  0  0  0  0  0  0
  -31.1222  -11.6840   -9.1702 N   0  0  0  0  0  0  0  0  0  0  0  0
  -30.4352  -10.5878   -8.7235 C   0  0  0  0  0  0  0  0  0  0  0  0
  -29.2611   -9.9818   -9.1590 C   0  0  0  0  0  0  0  0  0  0  0  0
  -28.8072   -8.8787   -8.4116 C   0  0  0  0  0  0  0  0  0  0  0  0
  -29.5245   -8.3522   -7.3191 C   0  0  0  0  0  0  0  0  0  0  0  0
  -30.7468   -8.9647   -6.9721 C   0  0  0  0  0  0  0  0  0  0  0  0
  -31.1735  -10.1211   -7.6416 C   0  0  0  0  0  0  0  0  0  0  0  0
  -30.8966  -12.2706   -9.9696 H   0  0  0  0  0  0  0  0  0  0  0  0
  -28.0280   -8.4593   -4.5322 C   0  0  0  0  0  0  0  0  0  0  0  0
  -29.0003   -9.4285   -4.2075 C   0  0  0  0  0  0  0  0  0  0  0  0
  -28.6497  -10.6261   -3.5830 C   0  0  0  0  0  0  0  0  0  0  0  0
  -29.6041  -11.5104   -3.2632 F   0  0  0  0  0  0  0  0  0  0  0  0
  -27.3268  -10.9252   -3.2909 C   0  0  0  0  0  0  0  0  0  0  0  0
  -26.3445   -9.9837   -3.5703 C   0  0  0  0  0  0  0  0  0  0  0  0
  -26.7050   -8.7523   -4.1327 C   0  0  0  0  0  0  0  0  0  0  0  0
  -25.7214   -7.8073   -4.2571 O   0  0  0  0  0  0  0  0  0  0  0  0
  -24.8712   -8.2589   -4.3937 H   0  0  0  0  0  0  0  0  0  0  0  0
  -29.1555   -3.4520   -7.0161 N   0  0  0  0  0  0  0  0  0  0  0  0
  -29.9668   -3.3497   -7.6165 H   0  0  0  0  0  0  0  0  0  0  0  0
  -28.0208   -2.5931   -7.3964 C   0  0  0  0  0  0  0  0  0  0  0  0
  -27.9965   -1.3238   -6.5562 C   0  0  0  0  0  0  0  0  0  0  0  0
  -28.5295   -0.1343   -7.0893 C   0  0  0  0  0  0  0  0  0  0  0  0
  -28.6013    1.0297   -6.3210 C   0  0  0  0  0  0  0  0  0  0  0  0
  -28.1324    1.0269   -5.0114 C   0  0  0  0  0  0  0  0  0  0  0  0
  -27.5786   -0.1335   -4.4756 C   0  0  0  0  0  0  0  0  0  0  0  0
  -27.5061   -1.2996   -5.2430 C   0  0  0  0  0  0  0  0  0  0  0  0
  -27.9993   -2.3155   -8.9212 C   0  0  0  0  0  0  0  0  0  0  0  0
  -26.8314   -2.8020   -9.5800 O   0  0  0  0  0  0  0  0  0  0  0  0
  -26.1095   -2.2003   -9.3373 H   0  0  0  0  0  0  0  0  0  0  0  0
  7  8  1  0  0  0
  8  9  2  0  0  0
  8 16  1  0  0  0
  9 10  1  0  0  0
 10 11  1  0  0  0
 10 17  1  0  0  0
 11 12  1  0  0  0
 11 16  2  0  0  0
 12 13  2  0  0  0
 13 14  1  0  0  0
 14  1  1  0  0  0
 14 15  2  0  0  0
  1  2  1  0  0  0
  1  6  2  0  0  0
  2  3  2  0  0  0
  3 27  1  0  0  0
  3  4  1  0  0  0
 27 29  1  0  0  0
 27 28  1  0  0  0
 29 36  1  0  0  0
 29 30  1  0  0  0
 36 37  1  0  0  0
 37 38  1  0  0  0
 30 31  1  0  0  0
 30 35  2  0  0  0
 31 32  2  0  0  0
 32 33  1  0  0  0
 33 34  2  0  0  0
 34 35  1  0  0  0
  4  5  2  0  0  0
  5  6  1  0  0  0
  6 18  1  0  0  0
 18 19  1  0  0  0
 18 24  2  0  0  0
 19 20  2  0  0  0
 20 21  1  0  0  0
 20 22  1  0  0  0
 22 23  2  0  0  0
 23 24  1  0  0  0
 24 25  1  0  0  0
 25 26  1  0  0  0
 15 16  1  0  0  0
M  END
> <minimizedAffinity>
-10.00986

$$$$
