CHEMBL3759279


 34 36  0  0  0  0  0  0  0  0999 V2000
  -28.2174   -1.2150   -6.8452 C   0  0  0  0  0  0  0  0  0  0  0  0
  -29.1120   -1.6584   -5.8660 C   0  0  0  0  0  0  0  0  0  0  0  0
  -29.5622   -2.9587   -5.8176 C   0  0  0  0  0  0  0  0  0  0  0  0
  -30.3076   -3.3137   -4.7666 N   0  0  0  0  0  0  0  0  0  0  0  0
  -30.6476   -4.5968   -4.6901 C   0  0  0  0  0  0  0  0  0  0  0  0
  -30.3139   -5.5445   -5.5628 N   0  0  0  0  0  0  0  0  0  0  0  0
  -29.5660   -5.1763   -6.6276 C   0  0  0  0  0  0  0  0  0  0  0  0
  -29.1759   -3.8487   -6.8286 C   0  0  0  0  0  0  0  0  0  0  0  0
  -28.3761   -3.3792   -7.8996 C   0  0  0  0  0  0  0  0  0  0  0  0
  -27.8596   -2.0840   -7.8905 C   0  0  0  0  0  0  0  0  0  0  0  0
  -28.6322    1.0791   -6.4338 C   0  0  0  0  0  0  0  0  0  0  0  0
  -27.7105    0.0574   -6.8158 O   0  0  0  0  0  0  0  0  0  0  0  0
  -29.0738   -6.1912   -7.4877 N   0  0  0  0  0  0  0  0  0  0  0  0
  -28.6213   -5.7985   -8.3074 H   0  0  0  0  0  0  0  0  0  0  0  0
  -29.7761   -7.3896   -7.7617 C   0  0  0  0  0  0  0  0  0  0  0  0
  -31.0765   -7.5619   -7.2548 C   0  0  0  0  0  0  0  0  0  0  0  0
  -31.8534   -8.6566   -7.6124 C   0  0  0  0  0  0  0  0  0  0  0  0
  -31.3364   -9.6211   -8.4727 C   0  0  0  0  0  0  0  0  0  0  0  0
  -30.0213   -9.5110   -8.9277 C   0  0  0  0  0  0  0  0  0  0  0  0
  -29.2390   -8.4102   -8.5611 C   0  0  0  0  0  0  0  0  0  0  0  0
  -27.6125   -8.3218   -9.1355 Cl  0  0  0  0  0  0  0  0  0  0  0  0
  -27.0100   -1.8141   -8.9395 O   0  0  0  0  0  0  0  0  0  0  0  0
  -27.6718   -1.6941  -10.1961 C   0  0  0  0  0  0  0  0  0  0  0  0
  -26.7094   -1.9365  -11.3603 C   0  0  0  0  0  0  0  0  0  0  0  0
  -25.3785   -1.2667  -11.0141 C   0  0  0  0  0  0  0  0  0  0  0  0
  -24.9634   -0.1830  -12.0000 C   0  0  0  0  0  0  0  0  0  0  0  0
  -23.4462   -0.2174  -12.2055 C   0  0  0  0  0  0  0  0  0  0  0  0
  -23.0832    0.0462  -13.6614 C   0  0  0  0  0  0  0  0  0  0  0  0
  -22.2049    1.2684  -13.8209 C   0  0  0  0  0  0  0  0  0  0  0  0
  -20.9783    1.2530  -13.8541 O   0  0  0  0  0  0  0  0  0  0  0  0
  -22.9243    2.4382  -13.9089 N   0  0  0  0  0  0  0  0  0  0  0  0
  -22.1643    3.6070  -14.1404 O   0  0  0  0  0  0  0  0  0  0  0  0
  -23.9001    2.4678  -14.1838 H   0  0  0  0  0  0  0  0  0  0  0  0
  -21.2422    3.2679  -14.1031 H   0  0  0  0  0  0  0  0  0  0  0  0
 11 12  1  0  0  0
 12  1  1  0  0  0
  1  2  1  0  0  0
  1 10  2  0  0  0
  2  3  2  0  0  0
  3  4  1  0  0  0
  3  8  1  0  0  0
  4  5  2  0  0  0
  5  6  1  0  0  0
  6  7  2  0  0  0
  7 13  1  0  0  0
  7  8  1  0  0  0
 13 15  1  0  0  0
 13 14  1  0  0  0
 15 16  1  0  0  0
 15 20  2  0  0  0
 16 17  2  0  0  0
 17 18  1  0  0  0
 18 19  2  0  0  0
 19 20  1  0  0  0
 20 21  1  0  0  0
  8  9  2  0  0  0
  9 10  1  0  0  0
 10 22  1  0  0  0
 22 23  1  0  0  0
 23 24  1  0  0  0
 24 25  1  0  0  0
 25 26  1  0  0  0
 26 27  1  0  0  0
 27 28  1  0  0  0
 28 29  1  0  0  0
 29 30  2  0  0  0
 29 31  1  0  0  0
 31 32  1  0  0  0
 31 33  1  0  0  0
 32 34  1  0  0  0
M  END
> <minimizedAffinity>
-9.41576

$$$$
