CHEMBL75034


 28 31  0  0  0  0  0  0  0  0999 V2000
  -27.5817   -2.3401   -8.3498 C   0  0  0  0  0  0  0  0  0  0  0  0
  -27.9327   -3.5944   -8.7074 N   0  0  0  0  0  0  0  0  0  0  0  0
  -28.9031   -4.2584   -8.0372 N   0  0  0  0  0  0  0  0  0  0  0  0
  -29.4876   -3.6950   -6.9557 C   0  0  0  0  0  0  0  0  0  0  0  0
  -29.1263   -2.4136   -6.4939 C   0  0  0  0  0  0  0  0  0  0  0  0
  -29.6256   -1.8207   -5.3078 C   0  0  0  0  0  0  0  0  0  0  0  0
  -29.2616   -0.5290   -4.9220 C   0  0  0  0  0  0  0  0  0  0  0  0
  -28.4128    0.2167   -5.7250 C   0  0  0  0  0  0  0  0  0  0  0  0
  -27.8763   -0.3575   -6.8763 C   0  0  0  0  0  0  0  0  0  0  0  0
  -28.1925   -1.6856   -7.2617 C   0  0  0  0  0  0  0  0  0  0  0  0
  -26.5522   -1.6934   -9.0694 N   0  0  0  0  0  0  0  0  0  0  0  0
  -26.1954   -0.9070   -8.5407 H   0  0  0  0  0  0  0  0  0  0  0  0
  -25.0914   -1.4250  -12.4738 C   0  0  0  0  0  0  0  0  0  0  0  0
  -25.2245   -1.4307  -11.0789 C   0  0  0  0  0  0  0  0  0  0  0  0
  -26.4779   -1.5545  -10.4686 C   0  0  0  0  0  0  0  0  0  0  0  0
  -27.6103   -1.6676  -11.2859 C   0  0  0  0  0  0  0  0  0  0  0  0
  -27.4963   -1.6469  -12.6774 C   0  0  0  0  0  0  0  0  0  0  0  0
  -26.2406   -1.5264  -13.2698 C   0  0  0  0  0  0  0  0  0  0  0  0
  -26.1471   -1.5577  -14.9953 Cl  0  0  0  0  0  0  0  0  0  0  0  0
  -22.8229   -0.7567  -12.3389 C   0  0  0  0  0  0  0  0  0  0  0  0
  -23.8828   -1.3073  -13.1127 O   0  0  0  0  0  0  0  0  0  0  0  0
  -30.6260   -4.5045   -6.3814 C   0  0  0  0  0  0  0  0  0  0  0  0
  -30.1778   -5.4507   -5.2880 C   0  0  0  0  0  0  0  0  0  0  0  0
  -28.9828   -6.1725   -5.4120 C   0  0  0  0  0  0  0  0  0  0  0  0
  -28.6368   -7.0618   -4.4088 C   0  0  0  0  0  0  0  0  0  0  0  0
  -29.3767   -7.2728   -3.2994 N   0  0  0  0  0  0  0  0  0  0  0  0
  -30.5151   -6.5563   -3.1914 C   0  0  0  0  0  0  0  0  0  0  0  0
  -30.9506   -5.6436   -4.1403 C   0  0  0  0  0  0  0  0  0  0  0  0
 20 21  1  0  0  0
 21 13  1  0  0  0
 13 14  1  0  0  0
 13 18  2  0  0  0
 14 15  2  0  0  0
 15 11  1  0  0  0
 15 16  1  0  0  0
 11  1  1  0  0  0
 11 12  1  0  0  0
  1  2  1  0  0  0
  1 10  2  0  0  0
  2  3  2  0  0  0
  3  4  1  0  0  0
  4 22  1  0  0  0
  4  5  2  0  0  0
 22 23  1  0  0  0
 23 24  1  0  0  0
 23 28  2  0  0  0
 24 25  2  0  0  0
 25 26  1  0  0  0
 26 27  2  0  0  0
 27 28  1  0  0  0
  5  6  1  0  0  0
  5 10  1  0  0  0
  6  7  2  0  0  0
  7  8  1  0  0  0
  8  9  2  0  0  0
  9 10  1  0  0  0
 16 17  2  0  0  0
 17 18  1  0  0  0
 18 19  1  0  0  0
M  END
> <minimizedAffinity>
-8.73422

$$$$
