CHEMBL3912757


 38 42  0  0  0  0  0  0  0  0999 V2000
  -14.3080   -4.2492  -14.0946 N   0  0  0  0  0  0  0  0  0  0  0  0
  -13.6782   -2.9240  -14.2553 C   0  0  0  0  0  0  0  0  0  0  0  0
  -13.8836   -2.0448  -13.2340 C   0  0  0  0  0  0  0  0  0  0  0  0
  -13.4215   -0.7848  -13.3986 C   0  0  0  0  0  0  0  0  0  0  0  0
  -12.8567   -0.2901  -14.5554 C   0  0  0  0  0  0  0  0  0  0  0  0
  -13.4614    0.8199  -14.6621 N   0  0  0  0  0  0  0  0  0  0  0  0
  -12.8164    1.7934  -14.1238 C   0  0  0  0  0  0  0  0  0  0  0  0
  -11.8515    2.2266  -14.8560 C   0  0  0  0  0  0  0  0  0  0  0  0
  -11.4404    0.9349  -15.7381 N   0  0  0  0  0  0  0  0  0  0  0  0
  -12.1588   -0.6871  -15.5570 C   0  0  0  0  0  0  0  0  0  0  0  0
  -12.8620   -2.3135  -15.4118 C   0  0  0  0  0  0  0  0  0  0  0  0
  -11.7541    3.9114  -14.2392 C   0  0  0  0  0  0  0  0  0  0  0  0
  -10.6974    4.7943  -13.5276 C   0  0  0  0  0  0  0  0  0  0  0  0
  -10.7427    6.1512  -13.7175 N   0  0  0  0  0  0  0  0  0  0  0  0
  -11.6790    6.3585  -14.6527 N   0  0  0  0  0  0  0  0  0  0  0  0
  -11.9510    7.7456  -15.1636 C   0  0  0  0  0  0  0  0  0  0  0  0
  -12.2140    5.0747  -15.0314 C   0  0  0  0  0  0  0  0  0  0  0  0
  -12.5596   -7.6641  -14.6235 C   0  0  0  0  0  0  0  0  0  0  0  0
  -12.9305   -7.9327  -15.8967 C   0  0  0  0  0  0  0  0  0  0  0  0
  -13.7134   -7.0142  -16.5936 C   0  0  0  0  0  0  0  0  0  0  0  0
  -14.0910   -5.7861  -16.0205 C   0  0  0  0  0  0  0  0  0  0  0  0
  -13.7827   -5.4705  -14.6996 C   0  0  0  0  0  0  0  0  0  0  0  0
  -12.9000   -6.4218  -14.1209 C   0  0  0  0  0  0  0  0  0  0  0  0
  -12.7741   -9.1954  -12.8502 C   0  0  0  0  0  0  0  0  0  0  0  0
  -11.9319   -8.5258  -13.7724 O   0  0  0  0  0  0  0  0  0  0  0  0
  -14.1421   -7.2296  -17.8739 O   0  0  0  0  0  0  0  0  0  0  0  0
  -13.7274   -8.4793  -18.4142 C   0  0  0  0  0  0  0  0  0  0  0  0
  -15.8158   -4.1151  -13.9716 C   0  0  0  0  0  0  0  0  0  0  0  0
  -16.5391   -5.3527  -13.4750 C   0  0  0  0  0  0  0  0  0  0  0  0
  -16.9890   -5.4476  -12.0549 C   0  0  0  0  0  0  0  0  0  0  0  0
  -15.9352   -4.8484  -11.1435 C   0  0  0  0  0  0  0  0  0  0  0  0
  -16.1798   -3.6181  -10.6513 N   0  0  0  0  0  0  0  0  0  0  0  0
  -15.2159   -3.0833   -9.8881 C   0  0  0  0  0  0  0  0  0  0  0  0
  -14.0350   -3.7209   -9.6034 C   0  0  0  0  0  0  0  0  0  0  0  0
  -13.8728   -4.9809  -10.1332 C   0  0  0  0  0  0  0  0  0  0  0  0
  -14.8203   -5.5673  -10.8903 N   0  0  0  0  0  0  0  0  0  0  0  0
  -12.7291   -5.7244   -9.9550 O   0  0  0  0  0  0  0  0  0  0  0  0
  -11.6200   -5.3703  -10.7862 C   0  0  0  0  0  0  0  0  0  0  0  0
 24 25  1  0  0  0
 25 18  1  0  0  0
 18 19  1  0  0  0
 18 23  2  0  0  0
 19 20  2  0  0  0
 20 26  1  0  0  0
 20 21  1  0  0  0
 26 27  1  0  0  0
 21 22  2  0  0  0
 22  1  1  0  0  0
 22 23  1  0  0  0
  1 28  1  0  0  0
  1  2  1  0  0  0
 28 29  1  0  0  0
 29 30  1  0  0  0
 30 31  1  0  0  0
 31 32  1  0  0  0
 31 36  2  0  0  0
 32 33  2  0  0  0
 33 34  1  0  0  0
 34 35  2  0  0  0
 35 37  1  0  0  0
 35 36  1  0  0  0
 37 38  1  0  0  0
  2  3  1  0  0  0
  2 11  2  0  0  0
  3  4  2  0  0  0
  4  5  1  0  0  0
  5  6  1  0  0  0
  5 10  2  0  0  0
  6  7  2  0  0  0
  7  8  1  0  0  0
  8 12  1  0  0  0
  8  9  2  0  0  0
 12 13  1  0  0  0
 12 17  2  0  0  0
 13 14  2  0  0  0
 14 15  1  0  0  0
 15 16  1  0  0  0
 15 17  1  0  0  0
  9 10  1  0  0  0
 10 11  1  0  0  0
M  END
> <minimizedAffinity>
-7.37277

$$$$
