CHEMBL270777


 40 45  0  0  0  0  0  0  0  0999 V2000
  -28.3758   -3.8688   -8.2177 C   0  0  0  0  0  0  0  0  0  0  0  0
  -29.4622   -3.6981   -7.4385 N   0  0  0  0  0  0  0  0  0  0  0  0
  -29.8697   -4.7315   -6.7150 C   0  0  0  0  0  0  0  0  0  0  0  0
  -29.2536   -5.9516   -6.7764 C   0  0  0  0  0  0  0  0  0  0  0  0
  -29.9417   -7.0228   -6.0879 C   0  0  0  0  0  0  0  0  0  0  0  0
  -30.2206   -6.8642   -4.9075 O   0  0  0  0  0  0  0  0  0  0  0  0
  -30.2548   -8.0850   -6.8996 N   0  0  0  0  0  0  0  0  0  0  0  0
  -29.7777   -7.9933   -8.2294 C   0  0  0  0  0  0  0  0  0  0  0  0
  -30.0240   -8.7276   -9.2869 N   0  0  0  0  0  0  0  0  0  0  0  0
  -28.8992   -9.4762   -9.2779 C   0  0  0  0  0  0  0  0  0  0  0  0
  -28.9068  -10.8542   -9.5526 C   0  0  0  0  0  0  0  0  0  0  0  0
  -28.0431  -11.6392   -8.8084 C   0  0  0  0  0  0  0  0  0  0  0  0
  -27.0669  -11.0316   -8.0096 C   0  0  0  0  0  0  0  0  0  0  0  0
  -26.8886   -9.6109   -7.9267 C   0  0  0  0  0  0  0  0  0  0  0  0
  -27.8737   -8.8002   -8.5497 C   0  0  0  0  0  0  0  0  0  0  0  0
  -28.4772   -7.4922   -8.3938 N   0  0  0  0  0  0  0  0  0  0  0  0
  -28.2817   -6.1891   -7.7467 C   0  0  0  0  0  0  0  0  0  0  0  0
  -27.7961   -5.1020   -8.4545 N   0  0  0  0  0  0  0  0  0  0  0  0
  -30.3364   -9.4035   -6.3530 C   0  0  0  0  0  0  0  0  0  0  0  0
  -31.4231  -10.2117   -6.7404 C   0  0  0  0  0  0  0  0  0  0  0  0
  -32.5346   -9.7096   -7.6268 C   0  0  0  0  0  0  0  0  0  0  0  0
  -31.5048  -11.5277   -6.2638 C   0  0  0  0  0  0  0  0  0  0  0  0
  -30.5383  -12.0423   -5.4035 C   0  0  0  0  0  0  0  0  0  0  0  0
  -29.4664  -11.2537   -5.0065 C   0  0  0  0  0  0  0  0  0  0  0  0
  -29.3314   -9.9376   -5.4793 C   0  0  0  0  0  0  0  0  0  0  0  0
  -28.0836   -9.2125   -5.0162 C   0  0  0  0  0  0  0  0  0  0  0  0
  -28.0026   -2.5949   -8.6788 N   0  0  0  0  0  0  0  0  0  0  0  0
  -27.6279   -2.1095   -7.8551 H   0  0  0  0  0  0  0  0  0  0  0  0
  -27.5972   -1.6742  -12.2407 C   0  0  0  0  0  0  0  0  0  0  0  0
  -28.1215   -2.1684  -11.0461 C   0  0  0  0  0  0  0  0  0  0  0  0
  -27.3819   -2.1937   -9.8755 C   0  0  0  0  0  0  0  0  0  0  0  0
  -26.0467   -1.7274   -9.9094 C   0  0  0  0  0  0  0  0  0  0  0  0
  -25.4762   -1.2611  -11.1072 C   0  0  0  0  0  0  0  0  0  0  0  0
  -26.2739   -1.2018  -12.2716 C   0  0  0  0  0  0  0  0  0  0  0  0
  -28.7669   -2.9636  -13.8408 C   0  0  0  0  0  0  0  0  0  0  0  0
  -28.3440   -1.6771  -13.3901 O   0  0  0  0  0  0  0  0  0  0  0  0
  -24.1883   -0.8136  -11.2654 O   0  0  0  0  0  0  0  0  0  0  0  0
  -23.1325   -1.7332  -11.4858 C   0  0  0  0  0  0  0  0  0  0  0  0
  -25.6643   -0.6897  -13.3934 O   0  0  0  0  0  0  0  0  0  0  0  0
  -25.3105   -1.6553  -14.3782 C   0  0  0  0  0  0  0  0  0  0  0  0
 35 36  1  0  0  0
 36 29  1  0  0  0
 29 30  1  0  0  0
 29 34  2  0  0  0
 30 31  2  0  0  0
 31 27  1  0  0  0
 31 32  1  0  0  0
 27  1  1  0  0  0
 27 28  1  0  0  0
  1  2  1  0  0  0
  1 18  2  0  0  0
  2  3  2  0  0  0
  3  4  1  0  0  0
  4  5  1  0  0  0
  4 17  2  0  0  0
  5  6  2  0  0  0
  5  7  1  0  0  0
  7 19  1  0  0  0
  7  8  1  0  0  0
 19 20  1  0  0  0
 19 25  2  0  0  0
 20 21  1  0  0  0
 20 22  2  0  0  0
 22 23  1  0  0  0
 23 24  2  0  0  0
 24 25  1  0  0  0
 25 26  1  0  0  0
  8  9  2  0  0  0
  8 16  1  0  0  0
  9 10  1  0  0  0
 10 11  1  0  0  0
 10 15  2  0  0  0
 11 12  2  0  0  0
 12 13  1  0  0  0
 13 14  2  0  0  0
 14 15  1  0  0  0
 15 16  1  0  0  0
 16 17  1  0  0  0
 17 18  1  0  0  0
 32 33  2  0  0  0
 33 37  1  0  0  0
 33 34  1  0  0  0
 37 38  1  0  0  0
 34 39  1  0  0  0
 39 40  1  0  0  0
M  END
> <minimizedAffinity>
-6.83951

$$$$
