CHEMBL3582442


 35 40  0  0  0  0  0  0  0  0999 V2000
  -26.9449  -10.8187   -5.1643 C   0  0  0  0  0  0  0  0  0  0  0  0
  -27.0454  -11.5301   -3.9777 C   0  0  0  0  0  0  0  0  0  0  0  0
  -27.6944  -10.8267   -3.0021 N   0  0  0  0  0  0  0  0  0  0  0  0
  -28.0049   -9.6839   -3.5687 C   0  0  0  0  0  0  0  0  0  0  0  0
  -28.6239   -8.5442   -3.0262 C   0  0  0  0  0  0  0  0  0  0  0  0
  -28.8429   -7.4893   -3.8120 C   0  0  0  0  0  0  0  0  0  0  0  0
  -28.4843   -7.5742   -5.2658 C   0  0  0  0  0  0  0  0  0  0  0  0
  -27.9010   -8.6180   -5.7940 N   0  0  0  0  0  0  0  0  0  0  0  0
  -27.6357   -9.6379   -4.9053 N   0  0  0  0  0  0  0  0  0  0  0  0
  -26.1711  -11.3767   -8.8237 C   0  0  0  0  0  0  0  0  0  0  0  0
  -26.8662  -11.1125   -7.6425 C   0  0  0  0  0  0  0  0  0  0  0  0
  -26.2343  -11.1719   -6.3988 C   0  0  0  0  0  0  0  0  0  0  0  0
  -24.8792  -11.4888   -6.3806 C   0  0  0  0  0  0  0  0  0  0  0  0
  -24.2432  -11.7261   -7.5868 C   0  0  0  0  0  0  0  0  0  0  0  0
  -24.8534  -11.6707   -8.7911 N   0  0  0  0  0  0  0  0  0  0  0  0
  -29.0223  -10.5686  -12.6560 O   0  0  0  0  0  0  0  0  0  0  0  0
  -29.1775  -10.2067  -11.2831 C   0  0  0  0  0  0  0  0  0  0  0  0
  -29.2509  -11.4505  -10.3993 C   0  0  0  0  0  0  0  0  0  0  0  0
  -27.9167  -12.1905  -10.3556 C   0  0  0  0  0  0  0  0  0  0  0  0
  -26.8201  -11.2838  -10.0413 N   0  0  0  0  0  0  0  0  0  0  0  0
  -26.6955  -10.0770  -10.8549 C   0  0  0  0  0  0  0  0  0  0  0  0
  -28.0158   -9.3095  -10.8723 C   0  0  0  0  0  0  0  0  0  0  0  0
  -29.8003  -11.0933  -12.9118 H   0  0  0  0  0  0  0  0  0  0  0  0
  -28.8304   -6.4968   -6.0501 N   0  0  0  0  0  0  0  0  0  0  0  0
  -28.5883   -5.1106   -5.6921 C   0  0  0  0  0  0  0  0  0  0  0  0
  -29.7364   -4.3880   -6.3731 C   0  0  0  0  0  0  0  0  0  0  0  0
  -29.8632   -5.1362   -7.6973 C   0  0  0  0  0  0  0  0  0  0  0  0
  -29.4446   -6.5921   -7.3754 C   0  0  0  0  0  0  0  0  0  0  0  0
  -30.6255   -7.5464   -7.4054 C   0  0  0  0  0  0  0  0  0  0  0  0
  -31.8029   -7.2099   -6.7146 C   0  0  0  0  0  0  0  0  0  0  0  0
  -32.9043   -8.0720   -6.7024 C   0  0  0  0  0  0  0  0  0  0  0  0
  -32.8467   -9.2840   -7.3850 C   0  0  0  0  0  0  0  0  0  0  0  0
  -31.6894   -9.6225   -8.0741 C   0  0  0  0  0  0  0  0  0  0  0  0
  -31.6315  -10.7878   -8.7328 F   0  0  0  0  0  0  0  0  0  0  0  0
  -30.5833   -8.7724   -8.0883 C   0  0  0  0  0  0  0  0  0  0  0  0
 16 17  1  0  0  0
 16 23  1  0  0  0
 17 18  1  0  0  0
 17 22  1  0  0  0
 18 19  1  0  0  0
 19 20  1  0  0  0
 20 10  1  0  0  0
 20 21  1  0  0  0
 10 11  1  0  0  0
 10 15  2  0  0  0
 11 12  2  0  0  0
 12  1  1  0  0  0
 12 13  1  0  0  0
  1  2  2  0  0  0
  1  9  1  0  0  0
  2  3  1  0  0  0
  3  4  2  0  0  0
  4  5  1  0  0  0
  4  9  1  0  0  0
  5  6  2  0  0  0
  6  7  1  0  0  0
  7 24  1  0  0  0
  7  8  2  0  0  0
 24 25  1  0  0  0
 24 28  1  0  0  0
 25 26  1  0  0  0
 26 27  1  0  0  0
 27 28  1  0  0  0
 28 29  1  0  0  0
 29 30  1  0  0  0
 29 35  2  0  0  0
 30 31  2  0  0  0
 31 32  1  0  0  0
 32 33  2  0  0  0
 33 34  1  0  0  0
 33 35  1  0  0  0
  8  9  1  0  0  0
 13 14  2  0  0  0
 14 15  1  0  0  0
 21 22  1  0  0  0
M  END
> <minimizedAffinity>
-7.31149

$$$$
