CHEMBL3933449


 31 34  0  0  0  0  0  0  0  0999 V2000
  -27.1294   -1.8679   -9.9223 C   0  0  0  0  0  0  0  0  0  0  0  0
  -27.9335   -1.9304  -11.0598 C   0  0  0  0  0  0  0  0  0  0  0  0
  -27.4590   -1.7933  -12.3436 C   0  0  0  0  0  0  0  0  0  0  0  0
  -26.1645   -1.5131  -12.5966 C   0  0  0  0  0  0  0  0  0  0  0  0
  -25.9189   -1.5628  -13.8910 N   0  0  0  0  0  0  0  0  0  0  0  0
  -24.7422   -1.0717  -14.2873 C   0  0  0  0  0  0  0  0  0  0  0  0
  -23.8500   -0.5081  -13.3888 C   0  0  0  0  0  0  0  0  0  0  0  0
  -24.0665   -0.5890  -12.0183 N   0  0  0  0  0  0  0  0  0  0  0  0
  -25.2694   -1.1686  -11.5487 C   0  0  0  0  0  0  0  0  0  0  0  0
  -25.7830   -1.4442  -10.1901 C   0  0  0  0  0  0  0  0  0  0  0  0
  -22.8332    0.3056  -14.0333 C   0  0  0  0  0  0  0  0  0  0  0  0
  -21.5369   -0.0657  -14.4996 C   0  0  0  0  0  0  0  0  0  0  0  0
  -20.7209    0.9831  -14.6953 N   0  0  0  0  0  0  0  0  0  0  0  0
  -21.4709    2.0355  -14.3304 N   0  0  0  0  0  0  0  0  0  0  0  0
  -21.0086    3.3871  -14.5459 C   0  0  0  0  0  0  0  0  0  0  0  0
  -22.6789    1.6680  -13.8028 C   0  0  0  0  0  0  0  0  0  0  0  0
  -27.7378   -2.2155   -8.6570 N   0  0  0  0  0  0  0  0  0  0  0  0
  -28.0337   -1.4477   -7.4633 C   0  0  0  0  0  0  0  0  0  0  0  0
  -27.6875   -1.9353   -6.1686 C   0  0  0  0  0  0  0  0  0  0  0  0
  -28.0700   -1.3446   -4.9659 C   0  0  0  0  0  0  0  0  0  0  0  0
  -28.7115   -0.1257   -5.0190 C   0  0  0  0  0  0  0  0  0  0  0  0
  -28.9137    0.4904   -6.2598 C   0  0  0  0  0  0  0  0  0  0  0  0
  -28.6193   -0.1816   -7.4700 C   0  0  0  0  0  0  0  0  0  0  0  0
  -27.8492   -1.8662   -3.7175 O   0  0  0  0  0  0  0  0  0  0  0  0
  -28.8087   -2.8010   -3.2212 C   0  0  0  0  0  0  0  0  0  0  0  0
  -29.4116    1.7696   -6.3806 O   0  0  0  0  0  0  0  0  0  0  0  0
  -30.8268    1.8442   -6.5639 C   0  0  0  0  0  0  0  0  0  0  0  0
  -27.9273   -3.6937   -8.4150 C   0  0  0  0  0  0  0  0  0  0  0  0
  -29.3716   -4.0497   -8.0064 C   0  0  0  0  0  0  0  0  0  0  0  0
  -28.7354   -5.4867   -6.2578 C   0  0  0  0  0  0  0  0  0  0  0  0
  -29.3853   -5.3971   -7.5180 O   0  0  0  0  0  0  0  0  0  0  0  0
 30 31  1  0  0  0
 31 29  1  0  0  0
 29 28  1  0  0  0
 28 17  1  0  0  0
 17 18  1  0  0  0
 17  1  1  0  0  0
 18 19  1  0  0  0
 18 23  2  0  0  0
 19 20  2  0  0  0
 20 24  1  0  0  0
 20 21  1  0  0  0
 24 25  1  0  0  0
 21 22  2  0  0  0
 22 26  1  0  0  0
 22 23  1  0  0  0
 26 27  1  0  0  0
  1  2  1  0  0  0
  1 10  2  0  0  0
  2  3  2  0  0  0
  3  4  1  0  0  0
  4  5  1  0  0  0
  4  9  2  0  0  0
  5  6  2  0  0  0
  6  7  1  0  0  0
  7 11  1  0  0  0
  7  8  2  0  0  0
 11 12  1  0  0  0
 11 16  2  0  0  0
 12 13  2  0  0  0
 13 14  1  0  0  0
 14 15  1  0  0  0
 14 16  1  0  0  0
  8  9  1  0  0  0
  9 10  1  0  0  0
M  END
> <minimizedAffinity>
-8.22572

$$$$
