CHEMBL4751105


 35 39  0  0  0  0  0  0  0  0999 V2000
  -12.6672   -2.1147  -12.6183 N   0  0  0  0  0  0  0  0  0  0  0  0
  -13.0384   -3.2644  -12.1474 C   0  0  0  0  0  0  0  0  0  0  0  0
  -13.7896   -4.3798  -12.8719 C   0  0  0  0  0  0  0  0  0  0  0  0
  -14.1209   -4.3294  -14.0405 O   0  0  0  0  0  0  0  0  0  0  0  0
  -14.0095   -5.3610  -11.9201 N   0  0  0  0  0  0  0  0  0  0  0  0
  -13.4574   -4.9824  -10.6823 C   0  0  0  0  0  0  0  0  0  0  0  0
  -13.4686   -5.6574   -9.4774 C   0  0  0  0  0  0  0  0  0  0  0  0
  -12.8781   -5.0307   -8.3684 C   0  0  0  0  0  0  0  0  0  0  0  0
  -12.2931   -3.7543   -8.4850 C   0  0  0  0  0  0  0  0  0  0  0  0
  -11.6067   -3.0149   -7.0907 Cl  0  0  0  0  0  0  0  0  0  0  0  0
  -12.2698   -3.0799   -9.7022 C   0  0  0  0  0  0  0  0  0  0  0  0
  -12.8528   -3.7247  -10.7765 C   0  0  0  0  0  0  0  0  0  0  0  0
  -13.0384   -1.8411  -13.9035 N   0  0  0  0  0  0  0  0  0  0  0  0
  -12.7462   -2.4738  -14.6553 H   0  0  0  0  0  0  0  0  0  0  0  0
  -14.7851    1.8090  -16.5144 C   0  0  0  0  0  0  0  0  0  0  0  0
  -14.7881    0.8492  -15.3792 C   0  0  0  0  0  0  0  0  0  0  0  0
  -13.6745    0.0398  -15.2177 N   0  0  0  0  0  0  0  0  0  0  0  0
  -13.8750   -0.8320  -14.2562 C   0  0  0  0  0  0  0  0  0  0  0  0
  -15.3634   -0.6336  -13.4102 S   0  0  0  0  0  0  0  0  0  0  0  0
  -15.8151    0.6518  -14.4614 C   0  0  0  0  0  0  0  0  0  0  0  0
  -17.0264    1.2575  -14.2951 N   0  0  0  0  0  0  0  0  0  0  0  0
  -17.9381    0.7634  -14.9881 N   0  0  0  0  0  0  0  0  0  0  0  0
  -19.1789    1.4155  -14.8628 C   0  0  0  0  0  0  0  0  0  0  0  0
  -20.4098    0.7553  -14.7402 C   0  0  0  0  0  0  0  0  0  0  0  0
  -21.5882    1.4779  -14.5240 C   0  0  0  0  0  0  0  0  0  0  0  0
  -21.5483    2.8678  -14.4225 C   0  0  0  0  0  0  0  0  0  0  0  0
  -20.3338    3.5374  -14.5444 C   0  0  0  0  0  0  0  0  0  0  0  0
  -19.1603    2.8127  -14.7620 C   0  0  0  0  0  0  0  0  0  0  0  0
  -14.9062   -6.4709  -12.1464 C   0  0  0  0  0  0  0  0  0  0  0  0
  -14.1600   -7.6844  -12.6585 C   0  0  0  0  0  0  0  0  0  0  0  0
  -13.4730   -8.5257  -11.7682 C   0  0  0  0  0  0  0  0  0  0  0  0
  -12.7018   -9.5873  -12.2446 C   0  0  0  0  0  0  0  0  0  0  0  0
  -12.6057   -9.8201  -13.6143 C   0  0  0  0  0  0  0  0  0  0  0  0
  -13.2957   -9.0035  -14.5073 C   0  0  0  0  0  0  0  0  0  0  0  0
  -14.0715   -7.9442  -14.0329 C   0  0  0  0  0  0  0  0  0  0  0  0
 15 16  1  0  0  0
 16 17  1  0  0  0
 16 20  2  0  0  0
 17 18  2  0  0  0
 18 13  1  0  0  0
 18 19  1  0  0  0
 13  1  1  0  0  0
 13 14  1  0  0  0
  1  2  2  0  0  0
  2  3  1  0  0  0
  2 12  1  0  0  0
  3  4  2  0  0  0
  3  5  1  0  0  0
  5 29  1  0  0  0
  5  6  1  0  0  0
 29 30  1  0  0  0
 30 31  1  0  0  0
 30 35  2  0  0  0
 31 32  2  0  0  0
 32 33  1  0  0  0
 33 34  2  0  0  0
 34 35  1  0  0  0
  6  7  1  0  0  0
  6 12  2  0  0  0
  7  8  2  0  0  0
  8  9  1  0  0  0
  9 10  1  0  0  0
  9 11  2  0  0  0
 11 12  1  0  0  0
 19 20  1  0  0  0
 20 21  1  0  0  0
 21 22  2  0  0  0
 22 23  1  0  0  0
 23 24  1  0  0  0
 23 28  2  0  0  0
 24 25  2  0  0  0
 25 26  1  0  0  0
 26 27  2  0  0  0
 27 28  1  0  0  0
M  END
> <minimizedAffinity>
-9.03309

$$$$
