CHEMBL3220320


 44 47  0  0  0  0  0  0  0  0999 V2000
  -14.1692    5.2686  -17.7581 C   0  0  0  0  0  0  0  0  0  0  0  0
  -15.3240    5.1797  -16.9493 C   0  0  0  0  0  0  0  0  0  0  0  0
  -15.6823    4.0602  -16.1995 C   0  0  0  0  0  0  0  0  0  0  0  0
  -14.8817    2.9287  -16.3079 C   0  0  0  0  0  0  0  0  0  0  0  0
  -13.7463    2.9385  -17.1432 C   0  0  0  0  0  0  0  0  0  0  0  0
  -13.3722    4.1052  -17.8574 C   0  0  0  0  0  0  0  0  0  0  0  0
  -12.5801    8.6718  -18.5680 C   0  0  0  0  0  0  0  0  0  0  0  0
  -12.8037    7.3824  -18.0612 C   0  0  0  0  0  0  0  0  0  0  0  0
  -13.9130    6.5812  -18.4394 C   0  0  0  0  0  0  0  0  0  0  0  0
  -14.7798    7.1311  -19.3907 C   0  0  0  0  0  0  0  0  0  0  0  0
  -14.5310    8.3871  -19.9630 C   0  0  0  0  0  0  0  0  0  0  0  0
  -13.4237    9.1558  -19.5723 C   0  0  0  0  0  0  0  0  0  0  0  0
  -13.1830   10.4497  -20.2900 C   0  0  0  0  0  0  0  0  0  0  0  0
  -12.4950   10.4259  -21.6455 C   0  0  0  0  0  0  0  0  0  0  0  0
  -13.6271   11.5556  -19.7608 N   0  0  0  0  0  0  0  0  0  0  0  0
  -13.3613   12.6586  -20.5813 O   0  0  0  0  0  0  0  0  0  0  0  0
  -13.7558   13.3940  -20.0791 H   0  0  0  0  0  0  0  0  0  0  0  0
  -11.8689   10.0694  -16.7630 C   0  0  0  0  0  0  0  0  0  0  0  0
  -11.6365    9.5248  -18.0566 O   0  0  0  0  0  0  0  0  0  0  0  0
  -16.7975    4.0558  -15.3191 N   0  0  0  0  0  0  0  0  0  0  0  0
  -17.9082    3.2289  -15.4262 C   0  0  0  0  0  0  0  0  0  0  0  0
  -18.0463    2.3346  -16.2550 O   0  0  0  0  0  0  0  0  0  0  0  0
  -18.9045    3.5465  -14.5052 N   0  0  0  0  0  0  0  0  0  0  0  0
  -16.7556    4.6635  -14.5145 H   0  0  0  0  0  0  0  0  0  0  0  0
  -19.0266    4.5330  -14.3456 H   0  0  0  0  0  0  0  0  0  0  0  0
  -20.0745    2.7459  -14.4494 C   0  0  0  0  0  0  0  0  0  0  0  0
  -21.3016    3.2974  -14.0757 C   0  0  0  0  0  0  0  0  0  0  0  0
  -22.4309    2.4971  -13.9392 C   0  0  0  0  0  0  0  0  0  0  0  0
  -22.3511    1.1205  -14.1756 C   0  0  0  0  0  0  0  0  0  0  0  0
  -21.1244    0.5729  -14.5515 C   0  0  0  0  0  0  0  0  0  0  0  0
  -19.9934    1.3832  -14.7227 C   0  0  0  0  0  0  0  0  0  0  0  0
  -23.3906    0.2322  -14.0304 O   0  0  0  0  0  0  0  0  0  0  0  0
  -22.9903   -1.0731  -13.5964 C   0  0  0  0  0  0  0  0  0  0  0  0
  -23.4360   -1.3468  -12.1475 C   0  0  0  0  0  0  0  0  0  0  0  0
  -24.8386   -1.8175  -12.0380 N   0  0  0  0  0  0  0  0  0  0  0  0
  -25.4440   -1.3262  -10.7881 C   0  0  0  0  0  0  0  0  0  0  0  0
  -26.8715   -1.8515  -10.6075 C   0  0  0  0  0  0  0  0  0  0  0  0
  -27.7506   -1.4999  -11.8012 C   0  0  0  0  0  0  0  0  0  0  0  0
  -27.0876   -1.9585  -13.0901 C   0  0  0  0  0  0  0  0  0  0  0  0
  -25.6573   -1.4298  -13.1989 C   0  0  0  0  0  0  0  0  0  0  0  0
  -12.9219    1.8374  -17.1754 O   0  0  0  0  0  0  0  0  0  0  0  0
  -12.7543    1.1942  -15.9128 C   0  0  0  0  0  0  0  0  0  0  0  0
  -12.2255    4.2192  -18.6078 O   0  0  0  0  0  0  0  0  0  0  0  0
  -12.3097    3.9077  -19.9936 C   0  0  0  0  0  0  0  0  0  0  0  0
 18 19  1  0  0  0
 19  7  1  0  0  0
  7  8  1  0  0  0
  7 12  2  0  0  0
  8  9  2  0  0  0
  9  1  1  0  0  0
  9 10  1  0  0  0
  1  2  1  0  0  0
  1  6  2  0  0  0
  2  3  2  0  0  0
  3 20  1  0  0  0
  3  4  1  0  0  0
 20 21  1  0  0  0
 20 24  1  0  0  0
 21 22  2  0  0  0
 21 23  1  0  0  0
 23 26  1  0  0  0
 23 25  1  0  0  0
 26 27  1  0  0  0
 26 31  2  0  0  0
 27 28  2  0  0  0
 28 29  1  0  0  0
 29 32  1  0  0  0
 29 30  2  0  0  0
 32 33  1  0  0  0
 33 34  1  0  0  0
 34 35  1  0  0  0
 35 36  1  0  0  0
 35 40  1  0  0  0
 36 37  1  0  0  0
 37 38  1  0  0  0
 38 39  1  0  0  0
 39 40  1  0  0  0
 30 31  1  0  0  0
  4  5  2  0  0  0
  5 41  1  0  0  0
  5  6  1  0  0  0
 41 42  1  0  0  0
  6 43  1  0  0  0
 43 44  1  0  0  0
 10 11  2  0  0  0
 11 12  1  0  0  0
 12 13  1  0  0  0
 13 14  1  0  0  0
 13 15  2  0  0  0
 15 16  1  0  0  0
 16 17  1  0  0  0
M  END
> <minimizedAffinity>
-8.26623

$$$$
