CHEMBL3397917


 37 40  0  0  0  0  0  0  0  0999 V2000
  -27.9388   -2.3983   -8.6384 C   0  0  0  0  0  0  0  0  0  0  0  0
  -28.2092   -1.2072   -8.5420 O   0  0  0  0  0  0  0  0  0  0  0  0
  -27.1448   -2.9808   -9.6231 N   0  0  0  0  0  0  0  0  0  0  0  0
  -27.1785   -3.9884   -9.7179 H   0  0  0  0  0  0  0  0  0  0  0  0
  -29.2615   -5.3629   -5.8479 C   0  0  0  0  0  0  0  0  0  0  0  0
  -29.0135   -5.6768   -7.1797 C   0  0  0  0  0  0  0  0  0  0  0  0
  -28.6582   -4.6687   -8.0746 C   0  0  0  0  0  0  0  0  0  0  0  0
  -28.5294   -3.3340   -7.6430 C   0  0  0  0  0  0  0  0  0  0  0  0
  -28.8048   -2.9557   -6.2987 C   0  0  0  0  0  0  0  0  0  0  0  0
  -29.1954   -4.0140   -5.4318 C   0  0  0  0  0  0  0  0  0  0  0  0
  -29.5535   -3.7916   -4.1172 O   0  0  0  0  0  0  0  0  0  0  0  0
  -29.8143   -2.8645   -4.0033 H   0  0  0  0  0  0  0  0  0  0  0  0
  -28.6957   -1.5433   -5.8072 C   0  0  0  0  0  0  0  0  0  0  0  0
  -27.5016   -1.0309   -5.2632 C   0  0  0  0  0  0  0  0  0  0  0  0
  -27.4075    0.2886   -4.7983 C   0  0  0  0  0  0  0  0  0  0  0  0
  -28.4855    1.1581   -4.9284 C   0  0  0  0  0  0  0  0  0  0  0  0
  -29.6595    0.6865   -5.4953 C   0  0  0  0  0  0  0  0  0  0  0  0
  -30.7281    1.5096   -5.7000 O   0  0  0  0  0  0  0  0  0  0  0  0
  -29.7819   -0.6471   -5.8878 C   0  0  0  0  0  0  0  0  0  0  0  0
  -30.4820    2.4111   -5.4341 H   0  0  0  0  0  0  0  0  0  0  0  0
  -28.9250   -7.5356   -4.9009 C   0  0  0  0  0  0  0  0  0  0  0  0
  -29.5809   -6.2769   -4.8766 O   0  0  0  0  0  0  0  0  0  0  0  0
  -26.5874   -2.2504  -10.6990 C   0  0  0  0  0  0  0  0  0  0  0  0
  -27.1877   -2.2022  -11.9586 C   0  0  0  0  0  0  0  0  0  0  0  0
  -26.5567   -1.5587  -13.0304 C   0  0  0  0  0  0  0  0  0  0  0  0
  -25.3100   -0.9595  -12.8577 C   0  0  0  0  0  0  0  0  0  0  0  0
  -24.7194   -0.9823  -11.5925 C   0  0  0  0  0  0  0  0  0  0  0  0
  -25.3710   -1.5904  -10.5079 C   0  0  0  0  0  0  0  0  0  0  0  0
  -24.5737   -0.3794  -13.8610 O   0  0  0  0  0  0  0  0  0  0  0  0
  -23.2084   -0.1064  -13.5142 C   0  0  0  0  0  0  0  0  0  0  0  0
  -22.8653    1.3643  -13.8190 C   0  0  0  0  0  0  0  0  0  0  0  0
  -21.4126    1.6138  -13.9593 N   0  0  0  0  0  0  0  0  0  0  0  0
  -20.7914    0.7171  -14.9470 C   0  0  0  0  0  0  0  0  0  0  0  0
  -19.2831    0.9527  -15.0519 C   0  0  0  0  0  0  0  0  0  0  0  0
  -18.9704    2.4031  -15.3878 C   0  0  0  0  0  0  0  0  0  0  0  0
  -19.6714    3.3311  -14.4001 C   0  0  0  0  0  0  0  0  0  0  0  0
  -21.1702    3.0263  -14.3068 C   0  0  0  0  0  0  0  0  0  0  0  0
 21 22  1  0  0  0
 22  5  1  0  0  0
  5  6  1  0  0  0
  5 10  2  0  0  0
  6  7  2  0  0  0
  7  8  1  0  0  0
  8  1  1  0  0  0
  8  9  2  0  0  0
  1  2  2  0  0  0
  1  3  1  0  0  0
  3 23  1  0  0  0
  3  4  1  0  0  0
 23 24  1  0  0  0
 23 28  2  0  0  0
 24 25  2  0  0  0
 25 26  1  0  0  0
 26 29  1  0  0  0
 26 27  2  0  0  0
 29 30  1  0  0  0
 30 31  1  0  0  0
 31 32  1  0  0  0
 32 33  1  0  0  0
 32 37  1  0  0  0
 33 34  1  0  0  0
 34 35  1  0  0  0
 35 36  1  0  0  0
 36 37  1  0  0  0
 27 28  1  0  0  0
  9 13  1  0  0  0
  9 10  1  0  0  0
 13 14  1  0  0  0
 13 19  2  0  0  0
 14 15  2  0  0  0
 15 16  1  0  0  0
 16 17  2  0  0  0
 17 18  1  0  0  0
 17 19  1  0  0  0
 18 20  1  0  0  0
 10 11  1  0  0  0
 11 12  1  0  0  0
M  END
> <minimizedAffinity>
-10.43500

$$$$
