CHEMBL103055


 39 44  0  0  0  0  0  0  0  0999 V2000
  -13.1249    1.7640  -14.0488 N   0  0  0  0  0  0  0  0  0  0  0  0
  -14.6063    1.7520  -14.0332 C   0  0  0  0  0  0  0  0  0  0  0  0
  -15.2389    0.6259  -13.1853 C   0  0  0  0  0  0  0  0  0  0  0  0
  -15.6660   -0.4902  -13.9909 O   0  0  0  0  0  0  0  0  0  0  0  0
  -15.5329   -1.6957  -13.2333 C   0  0  0  0  0  0  0  0  0  0  0  0
  -15.7984   -2.9701  -14.0241 C   0  0  0  0  0  0  0  0  0  0  0  0
  -15.0750   -4.1604  -13.5638 N   0  0  0  0  0  0  0  0  0  0  0  0
  -14.9771   -5.2846  -14.3615 C   0  0  0  0  0  0  0  0  0  0  0  0
  -14.0998   -6.1622  -13.7666 C   0  0  0  0  0  0  0  0  0  0  0  0
  -13.6606   -5.5802  -12.5489 C   0  0  0  0  0  0  0  0  0  0  0  0
  -12.7372   -5.9885  -11.5595 C   0  0  0  0  0  0  0  0  0  0  0  0
  -12.4601   -5.1607  -10.4725 C   0  0  0  0  0  0  0  0  0  0  0  0
  -13.1252   -3.9556  -10.3329 C   0  0  0  0  0  0  0  0  0  0  0  0
  -14.0776   -3.5516  -11.2716 C   0  0  0  0  0  0  0  0  0  0  0  0
  -14.3105   -4.3432  -12.4161 C   0  0  0  0  0  0  0  0  0  0  0  0
  -13.6502   -7.3875  -14.3285 C   0  0  0  0  0  0  0  0  0  0  0  0
  -12.9808   -7.5873  -15.4650 C   0  0  0  0  0  0  0  0  0  0  0  0
  -12.7042   -9.0356  -15.5756 C   0  0  0  0  0  0  0  0  0  0  0  0
  -12.1238   -9.6079  -16.4799 O   0  0  0  0  0  0  0  0  0  0  0  0
  -13.2067   -9.6197  -14.4628 N   0  0  0  0  0  0  0  0  0  0  0  0
  -13.7875   -8.7032  -13.6627 C   0  0  0  0  0  0  0  0  0  0  0  0
  -14.3140   -8.9295  -12.5887 O   0  0  0  0  0  0  0  0  0  0  0  0
  -12.5407   -6.6203  -16.4048 C   0  0  0  0  0  0  0  0  0  0  0  0
  -11.6882   -5.5821  -16.1023 C   0  0  0  0  0  0  0  0  0  0  0  0
  -11.6707   -4.7259  -17.1779 N   0  0  0  0  0  0  0  0  0  0  0  0
  -12.4092   -5.2569  -18.2177 C   0  0  0  0  0  0  0  0  0  0  0  0
  -12.6794   -4.7667  -19.5080 C   0  0  0  0  0  0  0  0  0  0  0  0
  -13.5306   -5.5119  -20.3303 C   0  0  0  0  0  0  0  0  0  0  0  0
  -14.1035   -6.6984  -19.8840 C   0  0  0  0  0  0  0  0  0  0  0  0
  -13.8348   -7.1762  -18.5981 C   0  0  0  0  0  0  0  0  0  0  0  0
  -12.9661   -6.4545  -17.7512 C   0  0  0  0  0  0  0  0  0  0  0  0
  -11.1918   -3.3484  -17.0729 C   0  0  0  0  0  0  0  0  0  0  0  0
  -12.2203   -2.5437  -16.2788 C   0  0  0  0  0  0  0  0  0  0  0  0
  -11.8474   -1.1790  -16.0887 O   0  0  0  0  0  0  0  0  0  0  0  0
  -12.8186   -0.5312  -15.2344 C   0  0  0  0  0  0  0  0  0  0  0  0
  -12.4492    0.9426  -15.0754 C   0  0  0  0  0  0  0  0  0  0  0  0
  -13.1390  -10.5998  -14.2546 H   0  0  0  0  0  0  0  0  0  0  0  0
  -13.2620    4.1138  -15.0784 C   0  0  0  0  0  0  0  0  0  0  0  0
  -12.5875    3.1444  -14.1039 C   0  0  0  0  0  0  0  0  0  0  0  0
 38 39  1  0  0  0
 39  1  1  0  0  0
  1  2  1  0  0  0
  1 36  1  0  0  0
  2  3  1  0  0  0
  3  4  1  0  0  0
  4  5  1  0  0  0
  5  6  1  0  0  0
  6  7  1  0  0  0
  7  8  1  0  0  0
  7 15  1  0  0  0
  8  9  2  0  0  0
  9 10  1  0  0  0
  9 16  1  0  0  0
 10 11  1  0  0  0
 10 15  2  0  0  0
 11 12  2  0  0  0
 12 13  1  0  0  0
 13 14  2  0  0  0
 14 15  1  0  0  0
 16 17  2  0  0  0
 16 21  1  0  0  0
 17 18  1  0  0  0
 17 23  1  0  0  0
 18 19  2  0  0  0
 18 20  1  0  0  0
 20 21  1  0  0  0
 20 37  1  0  0  0
 21 22  2  0  0  0
 23 24  2  0  0  0
 23 31  1  0  0  0
 24 25  1  0  0  0
 25 26  1  0  0  0
 25 32  1  0  0  0
 26 27  1  0  0  0
 26 31  2  0  0  0
 27 28  2  0  0  0
 28 29  1  0  0  0
 29 30  2  0  0  0
 30 31  1  0  0  0
 32 33  1  0  0  0
 33 34  1  0  0  0
 34 35  1  0  0  0
 35 36  1  0  0  0
M  END
> <minimizedAffinity>
-7.48322

$$$$
