CHEMBL3909572


 36 40  0  0  0  0  0  0  0  0999 V2000
  -29.4831  -10.2793   -6.4467 C   0  0  0  0  0  0  0  0  0  0  0  0
  -29.3078   -9.8703   -5.1209 C   0  0  0  0  0  0  0  0  0  0  0  0
  -29.3771   -8.5399   -4.7284 C   0  0  0  0  0  0  0  0  0  0  0  0
  -29.1717   -8.2534   -3.4411 N   0  0  0  0  0  0  0  0  0  0  0  0
  -29.1860   -6.9623   -3.1018 C   0  0  0  0  0  0  0  0  0  0  0  0
  -29.3941   -5.9344   -3.9276 N   0  0  0  0  0  0  0  0  0  0  0  0
  -29.6177   -6.2318   -5.2209 C   0  0  0  0  0  0  0  0  0  0  0  0
  -29.6318   -7.5616   -5.6914 C   0  0  0  0  0  0  0  0  0  0  0  0
  -29.8455   -7.9629   -7.0346 C   0  0  0  0  0  0  0  0  0  0  0  0
  -29.8153   -9.3115   -7.4102 C   0  0  0  0  0  0  0  0  0  0  0  0
  -29.8163   -5.1712   -6.1369 N   0  0  0  0  0  0  0  0  0  0  0  0
  -30.6698   -5.2958   -6.6669 H   0  0  0  0  0  0  0  0  0  0  0  0
  -29.3320   -3.8492   -6.0970 C   0  0  0  0  0  0  0  0  0  0  0  0
  -29.7759   -2.9977   -5.0746 C   0  0  0  0  0  0  0  0  0  0  0  0
  -29.5058   -1.6247   -5.1078 C   0  0  0  0  0  0  0  0  0  0  0  0
  -28.7883   -1.0766   -6.1723 C   0  0  0  0  0  0  0  0  0  0  0  0
  -28.5755    0.8095   -6.2114 Br  0  0  0  0  0  0  0  0  0  0  0  0
  -28.3007   -1.9135   -7.1773 C   0  0  0  0  0  0  0  0  0  0  0  0
  -27.3904   -1.3236   -8.5238 Cl  0  0  0  0  0  0  0  0  0  0  0  0
  -28.5792   -3.2855   -7.1363 C   0  0  0  0  0  0  0  0  0  0  0  0
  -30.0494   -9.5056   -8.7470 O   0  0  0  0  0  0  0  0  0  0  0  0
  -28.9919   -9.2015   -9.6493 C   0  0  0  0  0  0  0  0  0  0  0  0
  -29.3339  -11.5749   -6.8550 O   0  0  0  0  0  0  0  0  0  0  0  0
  -24.5379  -11.3753   -6.4330 C   0  0  0  0  0  0  0  0  0  0  0  0
  -25.0471  -12.4627   -5.4628 C   0  0  0  0  0  0  0  0  0  0  0  0
  -26.3843  -12.1275   -5.0654 O   0  0  0  0  0  0  0  0  0  0  0  0
  -26.9653  -11.3277   -6.1121 C   0  0  0  0  0  0  0  0  0  0  0  0
  -28.0160  -12.1361   -6.8819 C   0  0  0  0  0  0  0  0  0  0  0  0
  -27.5131  -12.0695   -8.3202 C   0  0  0  0  0  0  0  0  0  0  0  0
  -26.0921  -11.9297   -8.2420 O   0  0  0  0  0  0  0  0  0  0  0  0
  -25.8656  -11.0472   -7.1275 C   0  0  0  0  0  0  0  0  0  0  0  0
  -23.9124  -10.1500   -5.8529 N   0  0  0  0  0  0  0  0  0  0  0  0
  -21.8621  -11.1438   -7.0519 C   0  0  0  0  0  0  0  0  0  0  0  0
  -22.5400   -9.9462   -6.3830 C   0  0  0  0  0  0  0  0  0  0  0  0
  -23.9518  -10.0917   -4.3816 C   0  0  0  0  0  0  0  0  0  0  0  0
  -24.9991   -9.1130   -3.8517 C   0  0  0  0  0  0  0  0  0  0  0  0
 33 34  1  0  0  0
 34 32  1  0  0  0
 32 35  1  0  0  0
 35 36  1  0  0  0
 24 25  1  0  0  0
 24 31  1  0  0  0
 24 32  1  0  0  0
 25 26  1  0  0  0
 26 27  1  0  0  0
 27 28  1  0  0  0
 27 31  1  0  0  0
 28 23  1  0  0  0
 28 29  1  0  0  0
 23  1  1  0  0  0
  1  2  1  0  0  0
  1 10  2  0  0  0
  2  3  2  0  0  0
  3  4  1  0  0  0
  3  8  1  0  0  0
  4  5  2  0  0  0
  5  6  1  0  0  0
  6  7  2  0  0  0
  7 11  1  0  0  0
  7  8  1  0  0  0
 11 13  1  0  0  0
 11 12  1  0  0  0
 13 14  1  0  0  0
 13 20  2  0  0  0
 14 15  2  0  0  0
 15 16  1  0  0  0
 16 17  1  0  0  0
 16 18  2  0  0  0
 18 19  1  0  0  0
 18 20  1  0  0  0
  8  9  2  0  0  0
  9 10  1  0  0  0
 10 21  1  0  0  0
 21 22  1  0  0  0
 29 30  1  0  0  0
 30 31  1  0  0  0
M  END
> <minimizedAffinity>
-7.46077

$$$$
