CHEMBL3985692


 37 41  0  0  0  0  0  0  0  0999 V2000
  -25.0808  -10.9354   -7.2763 C   0  0  0  0  0  0  0  0  0  0  0  0
  -25.1448  -11.4009   -8.5789 C   0  0  0  0  0  0  0  0  0  0  0  0
  -26.1816  -11.1340   -9.4081 N   0  0  0  0  0  0  0  0  0  0  0  0
  -27.1569  -10.3623   -8.8988 C   0  0  0  0  0  0  0  0  0  0  0  0
  -28.2183   -9.9858   -9.6990 C   0  0  0  0  0  0  0  0  0  0  0  0
  -29.2085   -9.1249   -9.2183 C   0  0  0  0  0  0  0  0  0  0  0  0
  -29.1970   -8.6481   -7.8952 C   0  0  0  0  0  0  0  0  0  0  0  0
  -28.1412   -9.0909   -7.0859 C   0  0  0  0  0  0  0  0  0  0  0  0
  -27.1136   -9.9013   -7.5628 C   0  0  0  0  0  0  0  0  0  0  0  0
  -26.0858  -10.2048   -6.7442 N   0  0  0  0  0  0  0  0  0  0  0  0
  -22.6949  -11.7602   -4.6947 N   0  0  0  0  0  0  0  0  0  0  0  0
  -23.9845  -11.7266   -5.1507 C   0  0  0  0  0  0  0  0  0  0  0  0
  -23.9397  -11.1720   -6.4112 C   0  0  0  0  0  0  0  0  0  0  0  0
  -22.5627  -10.9381   -6.6329 C   0  0  0  0  0  0  0  0  0  0  0  0
  -21.8068  -11.3010   -5.5919 N   0  0  0  0  0  0  0  0  0  0  0  0
  -22.2687  -12.1774   -3.3728 C   0  0  0  0  0  0  0  0  0  0  0  0
  -23.0846  -11.5194   -2.2679 C   0  0  0  0  0  0  0  0  0  0  0  0
  -22.2942  -12.4422   -0.2519 C   0  0  0  0  0  0  0  0  0  0  0  0
  -23.3318  -12.4658   -1.2260 O   0  0  0  0  0  0  0  0  0  0  0  0
  -30.2192   -7.7810   -7.4398 N   0  0  0  0  0  0  0  0  0  0  0  0
  -30.0134   -6.5066   -6.8345 C   0  0  0  0  0  0  0  0  0  0  0  0
  -29.5043   -5.4389   -7.5972 C   0  0  0  0  0  0  0  0  0  0  0  0
  -29.2759   -4.1790   -7.0400 C   0  0  0  0  0  0  0  0  0  0  0  0
  -29.5865   -3.9559   -5.6998 C   0  0  0  0  0  0  0  0  0  0  0  0
  -30.1319   -4.9793   -4.9297 C   0  0  0  0  0  0  0  0  0  0  0  0
  -30.3165   -6.2476   -5.4887 C   0  0  0  0  0  0  0  0  0  0  0  0
  -28.7667   -3.0941   -7.7020 O   0  0  0  0  0  0  0  0  0  0  0  0
  -27.9467   -2.2125   -6.9434 C   0  0  0  0  0  0  0  0  0  0  0  0
  -30.4914   -4.8584   -3.6139 O   0  0  0  0  0  0  0  0  0  0  0  0
  -31.8628   -4.5383   -3.3932 C   0  0  0  0  0  0  0  0  0  0  0  0
  -31.6397   -8.0985   -7.7496 C   0  0  0  0  0  0  0  0  0  0  0  0
  -32.1348   -9.4651   -7.4140 C   0  0  0  0  0  0  0  0  0  0  0  0
  -32.7415  -10.0619   -6.3339 C   0  0  0  0  0  0  0  0  0  0  0  0
  -33.0490  -11.3675   -6.7847 C   0  0  0  0  0  0  0  0  0  0  0  0
  -33.8004  -12.4363   -6.0857 C   0  0  0  0  0  0  0  0  0  0  0  0
  -32.5987  -11.5721   -8.0264 N   0  0  0  0  0  0  0  0  0  0  0  0
  -32.0245  -10.3794   -8.4175 O   0  0  0  0  0  0  0  0  0  0  0  0
 18 19  1  0  0  0
 19 17  1  0  0  0
 17 16  1  0  0  0
 16 11  1  0  0  0
 11 12  1  0  0  0
 11 15  1  0  0  0
 12 13  2  0  0  0
 13  1  1  0  0  0
 13 14  1  0  0  0
  1  2  1  0  0  0
  1 10  2  0  0  0
  2  3  2  0  0  0
  3  4  1  0  0  0
  4  5  1  0  0  0
  4  9  2  0  0  0
  5  6  2  0  0  0
  6  7  1  0  0  0
  7 20  1  0  0  0
  7  8  2  0  0  0
 20 31  1  0  0  0
 20 21  1  0  0  0
 31 32  1  0  0  0
 32 33  2  0  0  0
 32 37  1  0  0  0
 33 34  1  0  0  0
 34 35  1  0  0  0
 34 36  2  0  0  0
 36 37  1  0  0  0
 21 22  1  0  0  0
 21 26  2  0  0  0
 22 23  2  0  0  0
 23 27  1  0  0  0
 23 24  1  0  0  0
 27 28  1  0  0  0
 24 25  2  0  0  0
 25 29  1  0  0  0
 25 26  1  0  0  0
 29 30  1  0  0  0
  8  9  1  0  0  0
  9 10  1  0  0  0
 14 15  2  0  0  0
M  END
> <minimizedAffinity>
-7.26930

$$$$
