CHEMBL2016923


 31 35  0  0  0  0  0  0  0  0999 V2000
  -30.8741  -10.6792   -9.1340 O   0  0  0  0  0  0  0  0  0  0  0  0
  -29.9394  -10.0119   -8.7006 C   0  0  0  0  0  0  0  0  0  0  0  0
  -30.1503   -8.9368   -7.8073 N   0  0  0  0  0  0  0  0  0  0  0  0
  -31.5488   -8.6968   -7.4231 C   0  0  0  0  0  0  0  0  0  0  0  0
  -31.7981   -7.7855   -6.2022 C   0  0  0  0  0  0  0  0  0  0  0  0
  -30.7265   -6.7817   -6.0716 C   0  0  0  0  0  0  0  0  0  0  0  0
  -30.7300   -5.7211   -5.2121 N   0  0  0  0  0  0  0  0  0  0  0  0
  -29.6143   -5.0470   -5.4676 C   0  0  0  0  0  0  0  0  0  0  0  0
  -28.8753   -5.6972   -6.4393 N   0  0  0  0  0  0  0  0  0  0  0  0
  -29.5765   -6.8119   -6.8126 C   0  0  0  0  0  0  0  0  0  0  0  0
  -29.1951   -7.8020   -7.8335 C   0  0  0  0  0  0  0  0  0  0  0  0
  -28.0059   -5.3469   -6.8342 H   0  0  0  0  0  0  0  0  0  0  0  0
  -29.1915   -3.7778   -4.9739 C   0  0  0  0  0  0  0  0  0  0  0  0
  -30.0294   -2.7352   -5.1112 C   0  0  0  0  0  0  0  0  0  0  0  0
  -29.5157   -1.3673   -5.0785 C   0  0  0  0  0  0  0  0  0  0  0  0
  -30.3504   -0.3062   -5.4202 C   0  0  0  0  0  0  0  0  0  0  0  0
  -29.7841    0.8290   -5.9910 C   0  0  0  0  0  0  0  0  0  0  0  0
  -28.3972    0.9946   -5.9924 C   0  0  0  0  0  0  0  0  0  0  0  0
  -27.5740    0.0424   -5.3861 C   0  0  0  0  0  0  0  0  0  0  0  0
  -28.1333   -1.1700   -4.9942 C   0  0  0  0  0  0  0  0  0  0  0  0
  -27.3215   -2.2394   -4.5924 N   0  0  0  0  0  0  0  0  0  0  0  0
  -27.7817   -3.5344   -4.5169 C   0  0  0  0  0  0  0  0  0  0  0  0
  -27.0503   -4.4573   -4.1529 O   0  0  0  0  0  0  0  0  0  0  0  0
  -26.3378   -2.0951   -4.4099 H   0  0  0  0  0  0  0  0  0  0  0  0
  -28.5195  -10.3409   -9.1158 C   0  0  0  0  0  0  0  0  0  0  0  0
  -28.1776   -9.9759  -10.5358 C   0  0  0  0  0  0  0  0  0  0  0  0
  -29.0034  -10.3387  -11.5960 C   0  0  0  0  0  0  0  0  0  0  0  0
  -28.6157  -10.0188  -12.8950 C   0  0  0  0  0  0  0  0  0  0  0  0
  -27.4194   -9.3436  -13.1042 C   0  0  0  0  0  0  0  0  0  0  0  0
  -26.6590   -9.0061  -11.9971 C   0  0  0  0  0  0  0  0  0  0  0  0
  -27.0104   -9.3042  -10.7253 N   0  0  0  0  0  0  0  0  0  0  0  0
  1  2  2  0  0  0
  2 25  1  0  0  0
  2  3  1  0  0  0
 25 26  1  0  0  0
 26 27  1  0  0  0
 26 31  2  0  0  0
 27 28  2  0  0  0
 28 29  1  0  0  0
 29 30  2  0  0  0
 30 31  1  0  0  0
  3  4  1  0  0  0
  3 11  1  0  0  0
  4  5  1  0  0  0
  5  6  1  0  0  0
  6  7  1  0  0  0
  6 10  2  0  0  0
  7  8  2  0  0  0
  8 13  1  0  0  0
  8  9  1  0  0  0
 13 14  2  0  0  0
 13 22  1  0  0  0
 14 15  1  0  0  0
 15 16  1  0  0  0
 15 20  2  0  0  0
 16 17  2  0  0  0
 17 18  1  0  0  0
 18 19  2  0  0  0
 19 20  1  0  0  0
 20 21  1  0  0  0
 21 22  1  0  0  0
 21 24  1  0  0  0
 22 23  2  0  0  0
  9 10  1  0  0  0
  9 12  1  0  0  0
 10 11  1  0  0  0
M  END
> <minimizedAffinity>
-9.56031

$$$$
