CHEMBL101325


 29 32  0  0  0  0  0  0  0  0999 V2000
  -31.6407   12.1996  -11.9482 C   0  0  0  0  0  0  0  0  0  0  0  0
  -30.3003   12.3568  -11.7794 O   0  0  0  0  0  0  0  0  0  0  0  0
  -29.7399   11.9023  -12.9371 C   0  0  0  0  0  0  0  0  0  0  0  0
  -30.6109   11.4401  -13.8126 N   0  0  0  0  0  0  0  0  0  0  0  0
  -31.8317   11.6197  -13.1902 C   0  0  0  0  0  0  0  0  0  0  0  0
  -28.2980   12.0336  -13.0345 C   0  0  0  0  0  0  0  0  0  0  0  0
  -27.5579   12.5248  -11.9690 C   0  0  0  0  0  0  0  0  0  0  0  0
  -26.2110   12.6588  -11.9809 N   0  0  0  0  0  0  0  0  0  0  0  0
  -25.5715   12.2765  -13.1152 C   0  0  0  0  0  0  0  0  0  0  0  0
  -26.1909   11.7555  -14.2541 C   0  0  0  0  0  0  0  0  0  0  0  0
  -27.5878   11.6456  -14.1821 C   0  0  0  0  0  0  0  0  0  0  0  0
  -25.4359   11.3314  -15.4527 C   0  0  0  0  0  0  0  0  0  0  0  0
  -25.7507   10.1428  -16.1400 C   0  0  0  0  0  0  0  0  0  0  0  0
  -25.0288    9.7295  -17.2655 C   0  0  0  0  0  0  0  0  0  0  0  0
  -23.9770   10.5051  -17.7418 C   0  0  0  0  0  0  0  0  0  0  0  0
  -23.6486   11.6855  -17.0846 C   0  0  0  0  0  0  0  0  0  0  0  0
  -22.3505   12.6534  -17.6703 Cl  0  0  0  0  0  0  0  0  0  0  0  0
  -24.3616   12.0942  -15.9529 C   0  0  0  0  0  0  0  0  0  0  0  0
  -33.0941   11.2737  -13.8169 C   0  0  0  0  0  0  0  0  0  0  0  0
  -33.7976   12.1817  -14.6210 C   0  0  0  0  0  0  0  0  0  0  0  0
  -34.9809   11.7974  -15.2565 C   0  0  0  0  0  0  0  0  0  0  0  0
  -35.4857   10.5120  -15.0730 C   0  0  0  0  0  0  0  0  0  0  0  0
  -34.8208    9.6163  -14.2385 C   0  0  0  0  0  0  0  0  0  0  0  0
  -33.6332    9.9967  -13.6100 C   0  0  0  0  0  0  0  0  0  0  0  0
  -33.9447   12.5569   -9.0682 C   0  0  0  0  0  0  0  0  0  0  0  0
  -33.0220   11.8220  -10.0040 C   0  0  0  0  0  0  0  0  0  0  0  0
  -32.8276   10.6182   -9.8782 O   0  0  0  0  0  0  0  0  0  0  0  0
  -32.4934   12.6554  -10.9710 N   0  0  0  0  0  0  0  0  0  0  0  0
  -32.7727   13.6257  -11.0050 H   0  0  0  0  0  0  0  0  0  0  0  0
 25 26  1  0  0  0
 26 27  2  0  0  0
 26 28  1  0  0  0
 28  1  1  0  0  0
 28 29  1  0  0  0
  1  2  1  0  0  0
  1  5  2  0  0  0
  2  3  1  0  0  0
  3  6  1  0  0  0
  3  4  2  0  0  0
  6  7  1  0  0  0
  6 11  2  0  0  0
  7  8  2  0  0  0
  8  9  1  0  0  0
  9 10  2  0  0  0
 10 12  1  0  0  0
 10 11  1  0  0  0
 12 13  1  0  0  0
 12 18  2  0  0  0
 13 14  2  0  0  0
 14 15  1  0  0  0
 15 16  2  0  0  0
 16 17  1  0  0  0
 16 18  1  0  0  0
  4  5  1  0  0  0
  5 19  1  0  0  0
 19 20  1  0  0  0
 19 24  2  0  0  0
 20 21  2  0  0  0
 21 22  1  0  0  0
 22 23  2  0  0  0
 23 24  1  0  0  0
M  END
> <minimizedAffinity>
-5.39366

$$$$
