CHEMBL525744


 33 37  0  0  0  0  0  0  0  0999 V2000
  -28.7063   -2.6680  -12.9731 C   0  0  0  0  0  0  0  0  0  0  0  0
  -27.3276   -2.0630  -13.1076 C   0  0  0  0  0  0  0  0  0  0  0  0
  -26.8075   -1.8008  -14.4256 C   0  0  0  0  0  0  0  0  0  0  0  0
  -25.8334   -0.8836  -14.5631 C   0  0  0  0  0  0  0  0  0  0  0  0
  -24.9550   -0.6347  -13.5082 N   0  0  0  0  0  0  0  0  0  0  0  0
  -25.2627   -1.0573  -12.2177 C   0  0  0  0  0  0  0  0  0  0  0  0
  -24.5352   -0.9573  -11.2298 O   0  0  0  0  0  0  0  0  0  0  0  0
  -26.6366   -1.5817  -12.0532 C   0  0  0  0  0  0  0  0  0  0  0  0
  -27.1877   -1.6896  -10.7267 C   0  0  0  0  0  0  0  0  0  0  0  0
  -27.7014   -0.4887  -10.2887 C   0  0  0  0  0  0  0  0  0  0  0  0
  -28.3782   -0.4731   -9.1696 C   0  0  0  0  0  0  0  0  0  0  0  0
  -28.1445   -1.5017   -8.3643 C   0  0  0  0  0  0  0  0  0  0  0  0
  -28.4958   -1.2844   -7.1450 N   0  0  0  0  0  0  0  0  0  0  0  0
  -28.8403   -1.0145   -5.9916 C   0  0  0  0  0  0  0  0  0  0  0  0
  -28.9833    0.3397   -6.3443 N   0  0  0  0  0  0  0  0  0  0  0  0
  -28.4826   -2.3357   -5.9424 N   0  0  0  0  0  0  0  0  0  0  0  0
  -27.8840   -3.2593   -7.1729 C   0  0  0  0  0  0  0  0  0  0  0  0
  -27.6945   -2.7159   -8.5205 C   0  0  0  0  0  0  0  0  0  0  0  0
  -27.3078   -2.8770   -9.9456 C   0  0  0  0  0  0  0  0  0  0  0  0
  -28.5958    0.6408   -7.2311 H   0  0  0  0  0  0  0  0  0  0  0  0
  -29.3704    1.1578   -5.9121 H   0  0  0  0  0  0  0  0  0  0  0  0
  -23.6477   -0.0923  -13.6977 C   0  0  0  0  0  0  0  0  0  0  0  0
  -23.3939    1.2854  -13.5900 C   0  0  0  0  0  0  0  0  0  0  0  0
  -22.1753    1.8350  -14.0345 C   0  0  0  0  0  0  0  0  0  0  0  0
  -21.1269    1.0234  -14.4586 C   0  0  0  0  0  0  0  0  0  0  0  0
  -21.3441   -0.3616  -14.3717 C   0  0  0  0  0  0  0  0  0  0  0  0
  -22.6059   -0.9163  -14.0812 C   0  0  0  0  0  0  0  0  0  0  0  0
  -19.9700    1.5629  -14.9717 N   0  0  0  0  0  0  0  0  0  0  0  0
  -18.7624    0.7562  -15.1814 C   0  0  0  0  0  0  0  0  0  0  0  0
  -17.6026    1.3758  -14.3935 C   0  0  0  0  0  0  0  0  0  0  0  0
  -17.3944    2.7545  -14.7545 O   0  0  0  0  0  0  0  0  0  0  0  0
  -18.5931    3.5111  -14.4905 C   0  0  0  0  0  0  0  0  0  0  0  0
  -19.7887    2.9794  -15.3063 C   0  0  0  0  0  0  0  0  0  0  0  0
  1  2  1  0  0  0
  2  3  1  0  0  0
  2  8  2  0  0  0
  3  4  2  0  0  0
  4  5  1  0  0  0
  5 22  1  0  0  0
  5  6  1  0  0  0
 22 23  1  0  0  0
 22 27  2  0  0  0
 23 24  2  0  0  0
 24 25  1  0  0  0
 25 28  1  0  0  0
 25 26  2  0  0  0
 28 29  1  0  0  0
 28 33  1  0  0  0
 29 30  1  0  0  0
 30 31  1  0  0  0
 31 32  1  0  0  0
 32 33  1  0  0  0
 26 27  1  0  0  0
  6  7  2  0  0  0
  6  8  1  0  0  0
  8  9  1  0  0  0
  9 10  1  0  0  0
  9 19  2  0  0  0
 10 11  2  0  0  0
 11 12  1  0  0  0
 12 13  1  0  0  0
 12 18  2  0  0  0
 13 14  2  0  0  0
 14 15  1  0  0  0
 14 16  1  0  0  0
 15 20  1  0  0  0
 15 21  1  0  0  0
 16 17  2  0  0  0
 17 18  1  0  0  0
 18 19  1  0  0  0
M  END
> <minimizedAffinity>
-6.89387

$$$$
