CHEMBL101464


 20 22  0  0  0  0  0  0  0  0999 V2000
  -20.3189    2.9236  -14.6603 C   0  0  0  0  0  0  0  0  0  0  0  0
  -21.4156    3.5621  -14.3187 N   0  0  0  0  0  0  0  0  0  0  0  0
  -22.3802    2.6811  -13.8976 C   0  0  0  0  0  0  0  0  0  0  0  0
  -22.0349    1.3446  -13.9273 C   0  0  0  0  0  0  0  0  0  0  0  0
  -20.4675    1.2042  -14.6225 S   0  0  0  0  0  0  0  0  0  0  0  0
  -22.8201    0.1877  -13.4899 C   0  0  0  0  0  0  0  0  0  0  0  0
  -22.5441   -0.4079  -12.2479 C   0  0  0  0  0  0  0  0  0  0  0  0
  -23.2470   -1.5349  -11.8193 C   0  0  0  0  0  0  0  0  0  0  0  0
  -24.2360   -2.0851  -12.6288 C   0  0  0  0  0  0  0  0  0  0  0  0
  -24.5159   -1.5154  -13.8683 C   0  0  0  0  0  0  0  0  0  0  0  0
  -23.8105   -0.3878  -14.2987 C   0  0  0  0  0  0  0  0  0  0  0  0
  -19.1523    3.5059  -15.0029 N   0  0  0  0  0  0  0  0  0  0  0  0
  -19.1208    4.4685  -15.3092 H   0  0  0  0  0  0  0  0  0  0  0  0
  -15.8870    0.0682  -13.0994 Br  0  0  0  0  0  0  0  0  0  0  0  0
  -16.3701    1.3491  -14.4139 C   0  0  0  0  0  0  0  0  0  0  0  0
  -15.4860    1.5923  -15.4507 C   0  0  0  0  0  0  0  0  0  0  0  0
  -15.8543    2.5229  -16.4071 C   0  0  0  0  0  0  0  0  0  0  0  0
  -17.0857    3.1557  -16.2871 C   0  0  0  0  0  0  0  0  0  0  0  0
  -17.9260    2.8707  -15.2098 C   0  0  0  0  0  0  0  0  0  0  0  0
  -17.5657    1.9712  -14.2698 N   0  0  0  0  0  0  0  0  0  0  0  0
 14 15  1  0  0  0
 15 16  1  0  0  0
 15 20  2  0  0  0
 16 17  2  0  0  0
 17 18  1  0  0  0
 18 19  2  0  0  0
 19 12  1  0  0  0
 19 20  1  0  0  0
 12  1  1  0  0  0
 12 13  1  0  0  0
  1  2  2  0  0  0
  1  5  1  0  0  0
  2  3  1  0  0  0
  3  4  2  0  0  0
  4  6  1  0  0  0
  4  5  1  0  0  0
  6  7  1  0  0  0
  6 11  2  0  0  0
  7  8  2  0  0  0
  8  9  1  0  0  0
  9 10  2  0  0  0
 10 11  1  0  0  0
M  END
> <minimizedAffinity>
-8.68346

$$$$
