CHEMBL3891894


 38 43  0  0  0  0  0  0  0  0999 V2000
  -22.1396    0.3437  -14.3552 N   0  0  0  0  0  0  0  0  0  0  0  0
  -21.1025   -0.4148  -14.8203 N   0  0  0  0  0  0  0  0  0  0  0  0
  -20.1255    0.4568  -15.0787 C   0  0  0  0  0  0  0  0  0  0  0  0
  -20.4391    1.7755  -14.7054 C   0  0  0  0  0  0  0  0  0  0  0  0
  -21.7887    1.7053  -14.3270 C   0  0  0  0  0  0  0  0  0  0  0  0
  -22.6029    2.6976  -13.9036 N   0  0  0  0  0  0  0  0  0  0  0  0
  -22.1711    3.6101  -13.7369 H   0  0  0  0  0  0  0  0  0  0  0  0
  -23.3684    2.5271  -13.2520 H   0  0  0  0  0  0  0  0  0  0  0  0
  -27.2857   -1.9960   -9.6736 C   0  0  0  0  0  0  0  0  0  0  0  0
  -26.4524   -1.7112  -10.8659 C   0  0  0  0  0  0  0  0  0  0  0  0
  -26.7959   -1.8544  -12.1299 N   0  0  0  0  0  0  0  0  0  0  0  0
  -25.7190   -1.4073  -12.8641 C   0  0  0  0  0  0  0  0  0  0  0  0
  -25.5465   -1.2874  -14.2503 C   0  0  0  0  0  0  0  0  0  0  0  0
  -24.3520   -0.7223  -14.7493 C   0  0  0  0  0  0  0  0  0  0  0  0
  -23.3298   -0.3021  -13.8768 C   0  0  0  0  0  0  0  0  0  0  0  0
  -23.4681   -0.4780  -12.4917 C   0  0  0  0  0  0  0  0  0  0  0  0
  -24.6894   -0.9996  -12.0266 C   0  0  0  0  0  0  0  0  0  0  0  0
  -25.1731   -1.2167  -10.7606 N   0  0  0  0  0  0  0  0  0  0  0  0
  -24.6870   -1.0164   -9.8972 H   0  0  0  0  0  0  0  0  0  0  0  0
  -19.6297    2.9894  -14.6086 C   0  0  0  0  0  0  0  0  0  0  0  0
  -19.9908    3.8631  -13.8170 O   0  0  0  0  0  0  0  0  0  0  0  0
  -18.4327    3.2286  -15.4185 C   0  0  0  0  0  0  0  0  0  0  0  0
  -17.7868    2.1845  -16.0817 C   0  0  0  0  0  0  0  0  0  0  0  0
  -16.4422    2.5525  -16.2801 C   0  0  0  0  0  0  0  0  0  0  0  0
  -15.2717    1.8102  -16.5375 C   0  0  0  0  0  0  0  0  0  0  0  0
  -14.3197    2.1237  -15.5602 C   0  0  0  0  0  0  0  0  0  0  0  0
  -14.0714    3.4908  -15.3446 C   0  0  0  0  0  0  0  0  0  0  0  0
  -15.0651    4.4501  -15.6552 C   0  0  0  0  0  0  0  0  0  0  0  0
  -16.3276    3.8801  -15.8757 C   0  0  0  0  0  0  0  0  0  0  0  0
  -17.6281    4.3325  -15.6753 N   0  0  0  0  0  0  0  0  0  0  0  0
  -17.8510    5.2964  -15.4765 H   0  0  0  0  0  0  0  0  0  0  0  0
  -14.0545    1.0556  -14.4865 C   0  0  0  0  0  0  0  0  0  0  0  0
  -14.7088   -0.2404  -14.7098 N   0  0  0  0  0  0  0  0  0  0  0  0
  -15.8052   -0.5273  -13.7433 C   0  0  0  0  0  0  0  0  0  0  0  0
  -15.4125   -1.1031  -12.3583 C   0  0  0  0  0  0  0  0  0  0  0  0
  -14.3894   -2.1040  -12.4263 O   0  0  0  0  0  0  0  0  0  0  0  0
  -13.2845   -1.6392  -13.2056 C   0  0  0  0  0  0  0  0  0  0  0  0
  -13.7531   -1.3586  -14.6403 C   0  0  0  0  0  0  0  0  0  0  0  0
  9 10  1  0  0  0
 10 11  2  0  0  0
 10 18  1  0  0  0
 11 12  1  0  0  0
 12 13  1  0  0  0
 12 17  2  0  0  0
 13 14  2  0  0  0
 14 15  1  0  0  0
 15  1  1  0  0  0
 15 16  2  0  0  0
  1  2  1  0  0  0
  1  5  1  0  0  0
  2  3  2  0  0  0
  3  4  1  0  0  0
  4 20  1  0  0  0
  4  5  2  0  0  0
 20 21  2  0  0  0
 20 22  1  0  0  0
 22 23  2  0  0  0
 22 30  1  0  0  0
 23 24  1  0  0  0
 24 25  1  0  0  0
 24 29  2  0  0  0
 25 26  2  0  0  0
 26 32  1  0  0  0
 26 27  1  0  0  0
 32 33  1  0  0  0
 33 34  1  0  0  0
 33 38  1  0  0  0
 34 35  1  0  0  0
 35 36  1  0  0  0
 36 37  1  0  0  0
 37 38  1  0  0  0
 27 28  2  0  0  0
 28 29  1  0  0  0
 29 30  1  0  0  0
 30 31  1  0  0  0
  5  6  1  0  0  0
  6  7  1  0  0  0
  6  8  1  0  0  0
 16 17  1  0  0  0
 17 18  1  0  0  0
 18 19  1  0  0  0
M  END
> <minimizedAffinity>
-10.03180

$$$$
