CHEMBL1095035


 52 57  0  0  0  0  0  0  0  0999 V2000
  -28.6171   -8.6046   -7.1304 O   0  0  0  0  0  0  0  0  0  0  0  0
  -29.7357   -5.0377   -4.4451 C   0  0  0  0  0  0  0  0  0  0  0  0
  -29.5108   -5.8867   -3.3780 C   0  0  0  0  0  0  0  0  0  0  0  0
  -29.0864   -7.1866   -3.7831 C   0  0  0  0  0  0  0  0  0  0  0  0
  -28.7900   -8.2158   -2.9443 N   0  0  0  0  0  0  0  0  0  0  0  0
  -28.4476   -9.3735   -3.5427 C   0  0  0  0  0  0  0  0  0  0  0  0
  -28.3764   -9.5802   -4.9079 C   0  0  0  0  0  0  0  0  0  0  0  0
  -28.6296   -8.5088   -5.7582 C   0  0  0  0  0  0  0  0  0  0  0  0
  -29.0074   -7.2980   -5.1670 C   0  0  0  0  0  0  0  0  0  0  0  0
  -29.4023   -5.8258   -5.9317 S   0  0  0  0  0  0  0  0  0  0  0  0
  -30.5193   -0.8495   -4.6815 C   0  0  0  0  0  0  0  0  0  0  0  0
  -29.8289   -1.3755   -3.5844 C   0  0  0  0  0  0  0  0  0  0  0  0
  -29.6263   -2.7515   -3.4765 C   0  0  0  0  0  0  0  0  0  0  0  0
  -30.1118   -3.6198   -4.4634 C   0  0  0  0  0  0  0  0  0  0  0  0
  -30.8870   -3.0883   -5.5048 C   0  0  0  0  0  0  0  0  0  0  0  0
  -31.0834   -1.7184   -5.6215 C   0  0  0  0  0  0  0  0  0  0  0  0
  -30.6230    0.6348   -4.8723 C   0  0  0  0  0  0  0  0  0  0  0  0
  -29.9521    1.2399   -6.0322 N   0  0  0  0  0  0  0  0  0  0  0  0
  -30.7219    1.8296   -7.0347 C   0  0  0  0  0  0  0  0  0  0  0  0
  -32.2005    2.0642   -6.7750 C   0  0  0  0  0  0  0  0  0  0  0  0
  -30.2509    2.1989   -8.1116 O   0  0  0  0  0  0  0  0  0  0  0  0
  -28.4615    1.1789   -6.1700 C   0  0  0  0  0  0  0  0  0  0  0  0
  -27.7506    1.2349   -4.8154 C   0  0  0  0  0  0  0  0  0  0  0  0
  -27.9294   -0.0302   -6.9824 C   0  0  0  0  0  0  0  0  0  0  0  0
  -27.6130   -2.3244   -6.5777 C   0  0  0  0  0  0  0  0  0  0  0  0
  -27.3646   -1.0075   -6.0996 O   0  0  0  0  0  0  0  0  0  0  0  0
  -28.2445   -7.5163   -7.8785 C   0  0  0  0  0  0  0  0  0  0  0  0
  -28.7647   -6.2355   -7.7200 C   0  0  0  0  0  0  0  0  0  0  0  0
  -28.2765   -5.1818   -8.4927 C   0  0  0  0  0  0  0  0  0  0  0  0
  -27.3108   -5.4004   -9.4750 C   0  0  0  0  0  0  0  0  0  0  0  0
  -26.8435   -6.7017   -9.6887 C   0  0  0  0  0  0  0  0  0  0  0  0
  -27.3103   -7.7433   -8.8888 C   0  0  0  0  0  0  0  0  0  0  0  0
  -26.8409   -8.9815   -9.1062 F   0  0  0  0  0  0  0  0  0  0  0  0
  -26.8118   -4.3732  -10.3020 N   0  0  0  0  0  0  0  0  0  0  0  0
  -27.4153   -3.1539  -10.5445 C   0  0  0  0  0  0  0  0  0  0  0  0
  -28.3971   -2.6902   -9.9704 O   0  0  0  0  0  0  0  0  0  0  0  0
  -25.9675   -4.5847  -10.8150 H   0  0  0  0  0  0  0  0  0  0  0  0
  -26.7975   -2.4096  -11.6201 C   0  0  0  0  0  0  0  0  0  0  0  0
  -27.2226   -2.2419  -12.9432 C   0  0  0  0  0  0  0  0  0  0  0  0
  -26.4470   -1.3993  -13.6169 N   0  0  0  0  0  0  0  0  0  0  0  0
  -25.4150   -1.1087  -12.7718 N   0  0  0  0  0  0  0  0  0  0  0  0
  -25.6360   -1.6541  -11.5236 C   0  0  0  0  0  0  0  0  0  0  0  0
  -24.3524   -0.2941  -13.2582 C   0  0  0  0  0  0  0  0  0  0  0  0
  -24.4314    1.0944  -13.0657 C   0  0  0  0  0  0  0  0  0  0  0  0
  -23.3859    1.9239  -13.4738 C   0  0  0  0  0  0  0  0  0  0  0  0
  -22.2684    1.3804  -14.1023 C   0  0  0  0  0  0  0  0  0  0  0  0
  -22.2046    0.0099  -14.3412 C   0  0  0  0  0  0  0  0  0  0  0  0
  -23.2451   -0.8267  -13.9270 C   0  0  0  0  0  0  0  0  0  0  0  0
  -24.8356   -1.3157  -10.3308 C   0  0  0  0  0  0  0  0  0  0  0  0
  -24.5099   -0.0002  -10.2713 F   0  0  0  0  0  0  0  0  0  0  0  0
  -25.4789   -1.6084   -9.1754 F   0  0  0  0  0  0  0  0  0  0  0  0
  -23.6500   -1.9769  -10.3134 F   0  0  0  0  0  0  0  0  0  0  0  0
 25 26  1  0  0  0
 26 24  1  0  0  0
 22 18  1  0  0  0
 22 23  1  0  0  0
 22 24  1  0  0  0
 18 17  1  0  0  0
 18 19  1  0  0  0
 17 11  1  0  0  0
 11 12  1  0  0  0
 11 16  2  0  0  0
 12 13  2  0  0  0
 13 14  1  0  0  0
 14  2  1  0  0  0
 14 15  2  0  0  0
  2  3  2  0  0  0
  2 10  1  0  0  0
  3  4  1  0  0  0
  4  5  1  0  0  0
  4  9  2  0  0  0
  5  6  2  0  0  0
  6  7  1  0  0  0
  7  8  2  0  0  0
  8  1  1  0  0  0
  8  9  1  0  0  0
  1 27  1  0  0  0
 27 28  1  0  0  0
 27 32  2  0  0  0
 28 29  2  0  0  0
 29 30  1  0  0  0
 30 34  1  0  0  0
 30 31  2  0  0  0
 34 35  1  0  0  0
 34 37  1  0  0  0
 35 36  2  0  0  0
 35 38  1  0  0  0
 38 39  1  0  0  0
 38 42  2  0  0  0
 39 40  2  0  0  0
 40 41  1  0  0  0
 41 43  1  0  0  0
 41 42  1  0  0  0
 43 44  1  0  0  0
 43 48  2  0  0  0
 44 45  2  0  0  0
 45 46  1  0  0  0
 46 47  2  0  0  0
 47 48  1  0  0  0
 42 49  1  0  0  0
 49 50  1  0  0  0
 49 51  1  0  0  0
 49 52  1  0  0  0
 31 32  1  0  0  0
 32 33  1  0  0  0
  9 10  1  0  0  0
 15 16  1  0  0  0
 19 20  1  0  0  0
 19 21  2  0  0  0
M  END
> <minimizedAffinity>
4.35995

$$$$
