CHEMBL1934329


 41 45  0  0  0  0  0  0  0  0999 V2000
  -22.5985   -0.0127  -14.3865 N   0  0  0  0  0  0  0  0  0  0  0  0
  -22.5425   -0.3981  -15.3211 H   0  0  0  0  0  0  0  0  0  0  0  0
  -21.9191    1.2319  -14.3387 C   0  0  0  0  0  0  0  0  0  0  0  0
  -22.6011    2.3444  -14.0129 N   0  0  0  0  0  0  0  0  0  0  0  0
  -21.9268    3.4939  -14.0301 C   0  0  0  0  0  0  0  0  0  0  0  0
  -20.6311    3.6489  -14.3165 N   0  0  0  0  0  0  0  0  0  0  0  0
  -19.9577    2.5478  -14.6455 C   0  0  0  0  0  0  0  0  0  0  0  0
  -18.6289    2.6792  -15.0252 C   0  0  0  0  0  0  0  0  0  0  0  0
  -17.8935    1.5859  -15.4836 C   0  0  0  0  0  0  0  0  0  0  0  0
  -18.4429    0.3124  -15.4292 C   0  0  0  0  0  0  0  0  0  0  0  0
  -19.7668    0.1521  -15.0299 C   0  0  0  0  0  0  0  0  0  0  0  0
  -20.5496    1.2782  -14.6706 C   0  0  0  0  0  0  0  0  0  0  0  0
  -16.6537    1.8622  -15.9976 O   0  0  0  0  0  0  0  0  0  0  0  0
  -15.6282    0.9661  -15.5471 C   0  0  0  0  0  0  0  0  0  0  0  0
  -15.2005    1.3332  -14.1185 C   0  0  0  0  0  0  0  0  0  0  0  0
  -13.6789    1.4795  -13.9864 C   0  0  0  0  0  0  0  0  0  0  0  0
  -12.9610    0.1420  -14.1711 C   0  0  0  0  0  0  0  0  0  0  0  0
  -13.4436   -0.8845  -13.2382 N   0  0  0  0  0  0  0  0  0  0  0  0
  -12.8019   -2.1681  -13.5441 C   0  0  0  0  0  0  0  0  0  0  0  0
  -14.9030   -1.0445  -13.2287 C   0  0  0  0  0  0  0  0  0  0  0  0
  -15.6750    0.2760  -13.1146 C   0  0  0  0  0  0  0  0  0  0  0  0
  -26.1024   -1.2973  -12.3702 C   0  0  0  0  0  0  0  0  0  0  0  0
  -25.8609   -1.6642  -13.6987 C   0  0  0  0  0  0  0  0  0  0  0  0
  -24.7208   -1.2091  -14.3703 C   0  0  0  0  0  0  0  0  0  0  0  0
  -23.8075   -0.3582  -13.7353 C   0  0  0  0  0  0  0  0  0  0  0  0
  -24.0734    0.0166  -12.4101 C   0  0  0  0  0  0  0  0  0  0  0  0
  -25.2236   -0.4225  -11.7371 C   0  0  0  0  0  0  0  0  0  0  0  0
  -28.1535   -2.5478   -9.6403 N   0  0  0  0  0  0  0  0  0  0  0  0
  -27.0416   -1.9817  -10.2491 C   0  0  0  0  0  0  0  0  0  0  0  0
  -26.0400   -1.5868   -9.6640 O   0  0  0  0  0  0  0  0  0  0  0  0
  -27.1767   -1.8687  -11.6346 N   0  0  0  0  0  0  0  0  0  0  0  0
  -28.8365   -2.9825  -10.2282 H   0  0  0  0  0  0  0  0  0  0  0  0
  -28.1062   -1.6286  -11.9425 H   0  0  0  0  0  0  0  0  0  0  0  0
  -28.7494   -3.0743   -3.9130 C   0  0  0  0  0  0  0  0  0  0  0  0
  -28.5905   -2.8937   -5.3963 C   0  0  0  0  0  0  0  0  0  0  0  0
  -28.8263   -3.9883   -6.2249 C   0  0  0  0  0  0  0  0  0  0  0  0
  -28.6818   -3.8822   -7.6113 C   0  0  0  0  0  0  0  0  0  0  0  0
  -28.3121   -2.6848   -8.2247 C   0  0  0  0  0  0  0  0  0  0  0  0
  -28.0767   -1.5767   -7.4015 C   0  0  0  0  0  0  0  0  0  0  0  0
  -28.2162   -1.6839   -6.0013 C   0  0  0  0  0  0  0  0  0  0  0  0
  -27.8744   -0.1297   -4.9609 Br  0  0  0  0  0  0  0  0  0  0  0  0
 34 35  1  0  0  0
 35 36  1  0  0  0
 35 40  2  0  0  0
 36 37  2  0  0  0
 37 38  1  0  0  0
 38 28  1  0  0  0
 38 39  2  0  0  0
 28 29  1  0  0  0
 28 32  1  0  0  0
 29 30  2  0  0  0
 29 31  1  0  0  0
 31 22  1  0  0  0
 31 33  1  0  0  0
 22 23  1  0  0  0
 22 27  2  0  0  0
 23 24  2  0  0  0
 24 25  1  0  0  0
 25  1  1  0  0  0
 25 26  2  0  0  0
  1  3  1  0  0  0
  1  2  1  0  0  0
  3  4  1  0  0  0
  3 12  2  0  0  0
  4  5  2  0  0  0
  5  6  1  0  0  0
  6  7  2  0  0  0
  7  8  1  0  0  0
  7 12  1  0  0  0
  8  9  2  0  0  0
  9 13  1  0  0  0
  9 10  1  0  0  0
 13 14  1  0  0  0
 14 15  1  0  0  0
 15 16  1  0  0  0
 15 21  1  0  0  0
 16 17  1  0  0  0
 17 18  1  0  0  0
 18 19  1  0  0  0
 18 20  1  0  0  0
 20 21  1  0  0  0
 10 11  2  0  0  0
 11 12  1  0  0  0
 26 27  1  0  0  0
 39 40  1  0  0  0
 40 41  1  0  0  0
M  END
> <minimizedAffinity>
-12.25597

$$$$
