CHEMBL3690469


 35 38  0  0  0  0  0  0  0  0999 V2000
  -14.6786   -3.4299  -12.9907 C   0  0  0  0  0  0  0  0  0  0  0  0
  -15.9134   -2.9852  -13.6524 C   0  0  0  0  0  0  0  0  0  0  0  0
  -16.0401   -1.7225  -14.0862 C   0  0  0  0  0  0  0  0  0  0  0  0
  -15.0176   -0.7995  -13.8600 N   0  0  0  0  0  0  0  0  0  0  0  0
  -14.9316    0.5684  -14.1388 C   0  0  0  0  0  0  0  0  0  0  0  0
  -13.6431    0.8950  -13.7396 C   0  0  0  0  0  0  0  0  0  0  0  0
  -12.9729   -0.1689  -13.1974 N   0  0  0  0  0  0  0  0  0  0  0  0
  -13.8217   -1.1720  -13.2450 C   0  0  0  0  0  0  0  0  0  0  0  0
  -13.6868   -2.5245  -12.7966 C   0  0  0  0  0  0  0  0  0  0  0  0
  -14.8145   -8.1053  -13.9595 N   0  0  0  0  0  0  0  0  0  0  0  0
  -14.5618   -7.1033  -13.0241 C   0  0  0  0  0  0  0  0  0  0  0  0
  -14.0579   -7.4379  -11.7754 C   0  0  0  0  0  0  0  0  0  0  0  0
  -13.7934   -6.4226  -10.8682 C   0  0  0  0  0  0  0  0  0  0  0  0
  -14.0205   -5.1059  -11.2484 C   0  0  0  0  0  0  0  0  0  0  0  0
  -14.4926   -4.8395  -12.5340 C   0  0  0  0  0  0  0  0  0  0  0  0
  -14.7766   -5.8322  -13.4145 N   0  0  0  0  0  0  0  0  0  0  0  0
  -15.4026   -8.8382  -13.5811 H   0  0  0  0  0  0  0  0  0  0  0  0
  -15.2304   -7.6610  -14.7744 H   0  0  0  0  0  0  0  0  0  0  0  0
  -15.9912    1.4492  -14.6728 C   0  0  0  0  0  0  0  0  0  0  0  0
  -15.7549    2.2658  -15.7863 C   0  0  0  0  0  0  0  0  0  0  0  0
  -16.7490    3.0979  -16.2969 C   0  0  0  0  0  0  0  0  0  0  0  0
  -18.0261    3.0692  -15.7495 C   0  0  0  0  0  0  0  0  0  0  0  0
  -18.3330    2.2105  -14.6964 C   0  0  0  0  0  0  0  0  0  0  0  0
  -17.2993    1.4319  -14.1373 C   0  0  0  0  0  0  0  0  0  0  0  0
  -19.6503    2.0753  -14.1826 N   0  0  0  0  0  0  0  0  0  0  0  0
  -20.5340    1.0582  -14.4780 C   0  0  0  0  0  0  0  0  0  0  0  0
  -20.3548    0.1101  -15.2289 O   0  0  0  0  0  0  0  0  0  0  0  0
  -21.7531    1.2202  -13.8497 N   0  0  0  0  0  0  0  0  0  0  0  0
  -19.9513    2.7660  -13.5143 H   0  0  0  0  0  0  0  0  0  0  0  0
  -21.7395    1.6621  -12.9420 H   0  0  0  0  0  0  0  0  0  0  0  0
  -22.7853    0.1939  -14.0708 C   0  0  0  0  0  0  0  0  0  0  0  0
  -23.1209   -0.7019  -12.8682 C   0  0  0  0  0  0  0  0  0  0  0  0
  -22.3709   -0.3995  -11.7835 F   0  0  0  0  0  0  0  0  0  0  0  0
  -24.4172   -0.5192  -12.5079 F   0  0  0  0  0  0  0  0  0  0  0  0
  -22.9635   -2.0131  -13.1401 F   0  0  0  0  0  0  0  0  0  0  0  0
 10 11  1  0  0  0
 10 17  1  0  0  0
 10 18  1  0  0  0
 11 12  1  0  0  0
 11 16  2  0  0  0
 12 13  2  0  0  0
 13 14  1  0  0  0
 14 15  2  0  0  0
 15  1  1  0  0  0
 15 16  1  0  0  0
  1  2  1  0  0  0
  1  9  2  0  0  0
  2  3  2  0  0  0
  3  4  1  0  0  0
  4  5  1  0  0  0
  4  8  1  0  0  0
  5 19  1  0  0  0
  5  6  2  0  0  0
 19 20  1  0  0  0
 19 24  2  0  0  0
 20 21  2  0  0  0
 21 22  1  0  0  0
 22 23  2  0  0  0
 23 25  1  0  0  0
 23 24  1  0  0  0
 25 26  1  0  0  0
 25 29  1  0  0  0
 26 27  2  0  0  0
 26 28  1  0  0  0
 28 31  1  0  0  0
 28 30  1  0  0  0
 31 32  1  0  0  0
 32 33  1  0  0  0
 32 34  1  0  0  0
 32 35  1  0  0  0
  6  7  1  0  0  0
  7  8  2  0  0  0
  8  9  1  0  0  0
M  END
> <minimizedAffinity>
-9.11370

$$$$
