CHEMBL4437058


 37 41  0  0  0  0  0  0  0  0999 V2000
  -26.5867   -1.6925  -10.4733 C   0  0  0  0  0  0  0  0  0  0  0  0
  -25.3003   -1.1709  -10.2601 C   0  0  0  0  0  0  0  0  0  0  0  0
  -24.4752   -0.8151  -11.3321 C   0  0  0  0  0  0  0  0  0  0  0  0
  -24.9949   -1.0201  -12.6202 C   0  0  0  0  0  0  0  0  0  0  0  0
  -24.5683   -0.8540  -13.9675 C   0  0  0  0  0  0  0  0  0  0  0  0
  -25.5231   -1.2489  -14.8124 N   0  0  0  0  0  0  0  0  0  0  0  0
  -26.5339   -1.6526  -14.0331 N   0  0  0  0  0  0  0  0  0  0  0  0
  -26.2760   -1.5475  -12.7030 C   0  0  0  0  0  0  0  0  0  0  0  0
  -27.1085   -1.8995  -11.7046 N   0  0  0  0  0  0  0  0  0  0  0  0
  -27.3750   -2.0005  -14.4693 H   0  0  0  0  0  0  0  0  0  0  0  0
  -28.4031   -3.8769   -7.9479 C   0  0  0  0  0  0  0  0  0  0  0  0
  -28.5980   -2.9652   -6.9063 C   0  0  0  0  0  0  0  0  0  0  0  0
  -28.2447   -1.6291   -7.0739 C   0  0  0  0  0  0  0  0  0  0  0  0
  -27.6911   -1.2125   -8.2825 C   0  0  0  0  0  0  0  0  0  0  0  0
  -27.4106   -2.1168   -9.3212 C   0  0  0  0  0  0  0  0  0  0  0  0
  -27.8334   -3.4452   -9.1539 C   0  0  0  0  0  0  0  0  0  0  0  0
  -28.6904   -5.8093   -6.5930 C   0  0  0  0  0  0  0  0  0  0  0  0
  -28.6939   -5.2154   -7.8875 O   0  0  0  0  0  0  0  0  0  0  0  0
  -28.3481   -0.6385   -6.1370 O   0  0  0  0  0  0  0  0  0  0  0  0
  -27.4125   -0.6671   -5.0682 C   0  0  0  0  0  0  0  0  0  0  0  0
  -23.3330   -0.3627  -14.3710 N   0  0  0  0  0  0  0  0  0  0  0  0
  -22.8990    0.9118  -14.0466 C   0  0  0  0  0  0  0  0  0  0  0  0
  -23.5030    1.7341  -13.3627 O   0  0  0  0  0  0  0  0  0  0  0  0
  -22.7384   -0.9973  -14.8775 H   0  0  0  0  0  0  0  0  0  0  0  0
  -21.5636    1.3377  -14.5527 C   0  0  0  0  0  0  0  0  0  0  0  0
  -21.1361    2.6605  -14.6203 C   0  0  0  0  0  0  0  0  0  0  0  0
  -19.8178    2.9388  -15.0147 C   0  0  0  0  0  0  0  0  0  0  0  0
  -18.8959    1.9255  -15.3410 C   0  0  0  0  0  0  0  0  0  0  0  0
  -19.3522    0.6083  -15.2729 C   0  0  0  0  0  0  0  0  0  0  0  0
  -20.6633    0.3179  -14.8913 C   0  0  0  0  0  0  0  0  0  0  0  0
  -17.5863    2.2453  -15.6329 N   0  0  0  0  0  0  0  0  0  0  0  0
  -17.1008    3.6346  -15.6734 C   0  0  0  0  0  0  0  0  0  0  0  0
  -15.9905    3.7474  -16.7495 C   0  0  0  0  0  0  0  0  0  0  0  0
  -14.8838    2.7827  -16.5385 N   0  0  0  0  0  0  0  0  0  0  0  0
  -13.9001    2.8850  -17.6122 C   0  0  0  0  0  0  0  0  0  0  0  0
  -15.4375    1.4100  -16.4755 C   0  0  0  0  0  0  0  0  0  0  0  0
  -16.5191    1.2642  -15.3837 C   0  0  0  0  0  0  0  0  0  0  0  0
 17 18  1  0  0  0
 18 11  1  0  0  0
 11 12  1  0  0  0
 11 16  2  0  0  0
 12 13  2  0  0  0
 13 19  1  0  0  0
 13 14  1  0  0  0
 19 20  1  0  0  0
 14 15  2  0  0  0
 15  1  1  0  0  0
 15 16  1  0  0  0
  1  2  1  0  0  0
  1  9  2  0  0  0
  2  3  2  0  0  0
  3  4  1  0  0  0
  4  5  1  0  0  0
  4  8  2  0  0  0
  5 21  1  0  0  0
  5  6  2  0  0  0
 21 22  1  0  0  0
 21 24  1  0  0  0
 22 23  2  0  0  0
 22 25  1  0  0  0
 25 26  1  0  0  0
 25 30  2  0  0  0
 26 27  2  0  0  0
 27 28  1  0  0  0
 28 31  1  0  0  0
 28 29  2  0  0  0
 31 32  1  0  0  0
 31 37  1  0  0  0
 32 33  1  0  0  0
 33 34  1  0  0  0
 34 35  1  0  0  0
 34 36  1  0  0  0
 36 37  1  0  0  0
 29 30  1  0  0  0
  6  7  1  0  0  0
  7  8  1  0  0  0
  7 10  1  0  0  0
  8  9  1  0  0  0
M  END
> <minimizedAffinity>
-10.42882

$$$$
