CHEMBL2377495


 12 13  0  0  0  0  0  0  0  0999 V2000
  -29.7002   -4.1602   -5.2224 C   0  0  0  0  0  0  0  0  0  0  0  0
  -29.0364   -4.1805   -6.3540 N   0  0  0  0  0  0  0  0  0  0  0  0
  -28.5546   -2.9155   -6.6203 C   0  0  0  0  0  0  0  0  0  0  0  0
  -27.8385   -2.6224   -7.7250 N   0  0  0  0  0  0  0  0  0  0  0  0
  -27.4408   -1.4368   -7.9016 N   0  0  0  0  0  0  0  0  0  0  0  0
  -27.6862   -0.4598   -7.0598 N   0  0  0  0  0  0  0  0  0  0  0  0
  -28.3919   -0.6832   -5.9347 C   0  0  0  0  0  0  0  0  0  0  0  0
  -28.6474    0.6705   -4.9275 Cl  0  0  0  0  0  0  0  0  0  0  0  0
  -28.8551   -1.9465   -5.6790 C   0  0  0  0  0  0  0  0  0  0  0  0
  -29.7658   -2.6493   -4.4128 S   0  0  0  0  0  0  0  0  0  0  0  0
  -31.7099   -4.8334   -3.4787 C   0  0  0  0  0  0  0  0  0  0  0  0
  -30.4870   -5.5842   -4.5762 S   0  0  0  0  0  0  0  0  0  0  0  0
 11 12  1  0  0  0
 12  1  1  0  0  0
  1  2  2  0  0  0
  1 10  1  0  0  0
  2  3  1  0  0  0
  3  4  1  0  0  0
  3  9  2  0  0  0
  4  5  2  0  0  0
  5  6  1  0  0  0
  6  7  2  0  0  0
  7  8  1  0  0  0
  7  9  1  0  0  0
  9 10  1  0  0  0
M  END
> <minimizedAffinity>
-5.16870

$$$$
