CHEMBL2088256


 27 29  0  0  0  0  0  0  0  0999 V2000
  -28.5611   -3.3217   -7.0694 C   0  0  0  0  0  0  0  0  0  0  0  0
  -28.1162   -3.5068   -8.3350 N   0  0  0  0  0  0  0  0  0  0  0  0
  -27.5130   -2.4743   -8.9570 C   0  0  0  0  0  0  0  0  0  0  0  0
  -27.3500   -1.2680   -8.4139 N   0  0  0  0  0  0  0  0  0  0  0  0
  -27.8309   -1.0987   -7.1685 C   0  0  0  0  0  0  0  0  0  0  0  0
  -28.4446   -2.0918   -6.4371 C   0  0  0  0  0  0  0  0  0  0  0  0
  -29.2277   -1.5832   -4.7870 Br  0  0  0  0  0  0  0  0  0  0  0  0
  -29.1973   -4.4405   -6.5014 N   0  0  0  0  0  0  0  0  0  0  0  0
  -30.0609   -4.6150   -6.9986 H   0  0  0  0  0  0  0  0  0  0  0  0
  -28.3265   -7.5691   -5.1754 C   0  0  0  0  0  0  0  0  0  0  0  0
  -28.7866   -6.8036   -6.2276 C   0  0  0  0  0  0  0  0  0  0  0  0
  -28.6555   -5.4608   -5.8019 C   0  0  0  0  0  0  0  0  0  0  0  0
  -27.9868   -5.3905   -4.6492 N   0  0  0  0  0  0  0  0  0  0  0  0
  -27.8191   -6.6685   -4.2793 N   0  0  0  0  0  0  0  0  0  0  0  0
  -27.3937   -6.8535   -3.3762 H   0  0  0  0  0  0  0  0  0  0  0  0
  -27.5555   -9.8362   -5.9203 C   0  0  0  0  0  0  0  0  0  0  0  0
  -28.3982   -9.0430   -4.9252 C   0  0  0  0  0  0  0  0  0  0  0  0
  -27.9960   -9.3709   -3.4845 C   0  0  0  0  0  0  0  0  0  0  0  0
  -27.0320   -2.5922  -10.2493 N   0  0  0  0  0  0  0  0  0  0  0  0
  -27.3939   -3.4775  -10.5974 H   0  0  0  0  0  0  0  0  0  0  0  0
  -27.3271   -1.4594  -11.1068 C   0  0  0  0  0  0  0  0  0  0  0  0
  -26.1881   -1.2363  -12.0699 C   0  0  0  0  0  0  0  0  0  0  0  0
  -25.0524   -0.5047  -11.7053 C   0  0  0  0  0  0  0  0  0  0  0  0
  -24.0331   -0.2946  -12.6316 C   0  0  0  0  0  0  0  0  0  0  0  0
  -24.1847   -0.8238  -13.9033 C   0  0  0  0  0  0  0  0  0  0  0  0
  -25.2638   -1.5314  -14.2953 N   0  0  0  0  0  0  0  0  0  0  0  0
  -26.2386   -1.7191  -13.3739 C   0  0  0  0  0  0  0  0  0  0  0  0
 16 17  1  0  0  0
 17 18  1  0  0  0
 17 10  1  0  0  0
 10 11  2  0  0  0
 10 14  1  0  0  0
 11 12  1  0  0  0
 12  8  1  0  0  0
 12 13  2  0  0  0
  8  1  1  0  0  0
  8  9  1  0  0  0
  1  2  1  0  0  0
  1  6  2  0  0  0
  2  3  2  0  0  0
  3 19  1  0  0  0
  3  4  1  0  0  0
 19 21  1  0  0  0
 19 20  1  0  0  0
 21 22  1  0  0  0
 22 23  1  0  0  0
 22 27  2  0  0  0
 23 24  2  0  0  0
 24 25  1  0  0  0
 25 26  2  0  0  0
 26 27  1  0  0  0
  4  5  2  0  0  0
  5  6  1  0  0  0
  6  7  1  0  0  0
 13 14  1  0  0  0
 14 15  1  0  0  0
M  END
> <minimizedAffinity>
-8.31249

$$$$
