CHEMBL191594


 40 43  0  0  0  0  0  0  0  0999 V2000
  -12.9945   -4.8581  -11.0444 C   0  0  0  0  0  0  0  0  0  0  0  0
  -13.1987   -5.1412   -9.7855 N   0  0  0  0  0  0  0  0  0  0  0  0
  -14.2131   -4.5377   -9.1027 C   0  0  0  0  0  0  0  0  0  0  0  0
  -15.0505   -3.6714   -9.5702 N   0  0  0  0  0  0  0  0  0  0  0  0
  -14.8338   -3.3406  -10.8500 N   0  0  0  0  0  0  0  0  0  0  0  0
  -15.5494   -2.4086  -11.5319 C   0  0  0  0  0  0  0  0  0  0  0  0
  -15.0052   -2.2195  -12.7807 C   0  0  0  0  0  0  0  0  0  0  0  0
  -13.8921   -3.1625  -12.8766 C   0  0  0  0  0  0  0  0  0  0  0  0
  -13.8486   -3.8461  -11.6480 C   0  0  0  0  0  0  0  0  0  0  0  0
  -15.4645   -1.2687  -13.7069 N   0  0  0  0  0  0  0  0  0  0  0  0
  -15.4173    0.1018  -13.5263 C   0  0  0  0  0  0  0  0  0  0  0  0
  -15.0112    0.7001  -12.5421 O   0  0  0  0  0  0  0  0  0  0  0  0
  -15.7397   -1.5702  -14.6309 H   0  0  0  0  0  0  0  0  0  0  0  0
  -15.8067    0.7703  -14.6686 O   0  0  0  0  0  0  0  0  0  0  0  0
  -14.8247    0.7944  -15.7421 C   0  0  0  0  0  0  0  0  0  0  0  0
  -13.3832    1.0959  -15.3133 C   0  0  0  0  0  0  0  0  0  0  0  0
  -13.1347    2.5627  -14.9563 C   0  0  0  0  0  0  0  0  0  0  0  0
  -13.6311    3.5071  -15.9679 N   0  0  0  0  0  0  0  0  0  0  0  0
  -13.4722    4.8837  -15.4814 C   0  0  0  0  0  0  0  0  0  0  0  0
  -15.0342    3.2558  -16.3123 C   0  0  0  0  0  0  0  0  0  0  0  0
  -15.2575    1.8220  -16.7893 C   0  0  0  0  0  0  0  0  0  0  0  0
  -12.9032   -3.3618  -14.0072 C   0  0  0  0  0  0  0  0  0  0  0  0
  -13.5805   -3.9193  -15.2573 C   0  0  0  0  0  0  0  0  0  0  0  0
  -12.0582   -2.1376  -14.3574 C   0  0  0  0  0  0  0  0  0  0  0  0
  -12.0049   -5.5472  -11.7218 N   0  0  0  0  0  0  0  0  0  0  0  0
  -11.1248   -5.0778  -11.8905 H   0  0  0  0  0  0  0  0  0  0  0  0
  -12.5690   -8.4169  -14.0737 C   0  0  0  0  0  0  0  0  0  0  0  0
  -12.4507   -7.1029  -13.5806 C   0  0  0  0  0  0  0  0  0  0  0  0
  -12.0845   -6.8563  -12.2503 C   0  0  0  0  0  0  0  0  0  0  0  0
  -11.7715   -7.9663  -11.4495 C   0  0  0  0  0  0  0  0  0  0  0  0
  -11.3910   -7.7767  -10.1775 F   0  0  0  0  0  0  0  0  0  0  0  0
  -11.8460   -9.2751  -11.9322 C   0  0  0  0  0  0  0  0  0  0  0  0
  -12.2570   -9.4903  -13.2443 C   0  0  0  0  0  0  0  0  0  0  0  0
  -12.3667  -10.7539  -13.6825 F   0  0  0  0  0  0  0  0  0  0  0  0
  -14.0753   -7.7335  -15.8648 N   0  0  0  0  0  0  0  0  0  0  0  0
  -13.0853   -8.5997  -15.4529 C   0  0  0  0  0  0  0  0  0  0  0  0
  -12.6249   -9.5115  -16.1367 O   0  0  0  0  0  0  0  0  0  0  0  0
  -14.1826   -6.8215  -15.4306 H   0  0  0  0  0  0  0  0  0  0  0  0
  -13.5815   -6.7616  -17.8949 C   0  0  0  0  0  0  0  0  0  0  0  0
  -14.3573   -7.7714  -17.2528 O   0  0  0  0  0  0  0  0  0  0  0  0
 39 40  1  0  0  0
 40 35  1  0  0  0
 35 36  1  0  0  0
 35 38  1  0  0  0
 36 37  2  0  0  0
 36 27  1  0  0  0
 27 28  1  0  0  0
 27 33  2  0  0  0
 28 29  2  0  0  0
 29 25  1  0  0  0
 29 30  1  0  0  0
 25  1  1  0  0  0
 25 26  1  0  0  0
  1  2  2  0  0  0
  1  9  1  0  0  0
  2  3  1  0  0  0
  3  4  2  0  0  0
  4  5  1  0  0  0
  5  6  1  0  0  0
  5  9  1  0  0  0
  6  7  2  0  0  0
  7 10  1  0  0  0
  7  8  1  0  0  0
 10 11  1  0  0  0
 10 13  1  0  0  0
 11 12  2  0  0  0
 11 14  1  0  0  0
 14 15  1  0  0  0
 15 16  1  0  0  0
 15 21  1  0  0  0
 16 17  1  0  0  0
 17 18  1  0  0  0
 18 19  1  0  0  0
 18 20  1  0  0  0
 20 21  1  0  0  0
  8 22  1  0  0  0
  8  9  2  0  0  0
 22 23  1  0  0  0
 22 24  1  0  0  0
 30 31  1  0  0  0
 30 32  2  0  0  0
 32 33  1  0  0  0
 33 34  1  0  0  0
M  END
> <minimizedAffinity>
-7.51978

$$$$
