CHEMBL3986861


 37 41  0  0  0  0  0  0  0  0999 V2000
  -28.1718   -9.5875   -5.3213 N   0  0  0  0  0  0  0  0  0  0  0  0
  -28.5601   -8.2038   -5.6235 C   0  0  0  0  0  0  0  0  0  0  0  0
  -29.1430   -8.1142   -6.8738 C   0  0  0  0  0  0  0  0  0  0  0  0
  -29.1962   -6.9675   -7.5480 C   0  0  0  0  0  0  0  0  0  0  0  0
  -28.7973   -5.8109   -6.9876 C   0  0  0  0  0  0  0  0  0  0  0  0
  -28.7089   -4.8028   -7.8395 N   0  0  0  0  0  0  0  0  0  0  0  0
  -28.4283   -3.5760   -7.4612 C   0  0  0  0  0  0  0  0  0  0  0  0
  -28.3895   -3.2517   -6.1068 C   0  0  0  0  0  0  0  0  0  0  0  0
  -28.3059   -4.3248   -5.1837 N   0  0  0  0  0  0  0  0  0  0  0  0
  -28.4503   -5.6615   -5.6339 C   0  0  0  0  0  0  0  0  0  0  0  0
  -28.2763   -6.9385   -4.9010 C   0  0  0  0  0  0  0  0  0  0  0  0
  -28.7114   -1.7516   -5.9020 C   0  0  0  0  0  0  0  0  0  0  0  0
  -27.8581   -0.7368   -6.4061 C   0  0  0  0  0  0  0  0  0  0  0  0
  -28.4217    0.4550   -6.3091 N   0  0  0  0  0  0  0  0  0  0  0  0
  -29.6162    0.3188   -5.7697 N   0  0  0  0  0  0  0  0  0  0  0  0
  -30.4878    1.4510   -5.6700 C   0  0  0  0  0  0  0  0  0  0  0  0
  -29.8238   -1.0226   -5.4594 C   0  0  0  0  0  0  0  0  0  0  0  0
  -25.3818  -11.3085   -3.2266 C   0  0  0  0  0  0  0  0  0  0  0  0
  -24.2989  -11.0243   -3.9995 C   0  0  0  0  0  0  0  0  0  0  0  0
  -24.3639  -10.2311   -5.1264 C   0  0  0  0  0  0  0  0  0  0  0  0
  -25.6351   -9.7731   -5.5667 C   0  0  0  0  0  0  0  0  0  0  0  0
  -26.8392  -10.0200   -4.8154 C   0  0  0  0  0  0  0  0  0  0  0  0
  -26.6652  -10.7811   -3.5843 C   0  0  0  0  0  0  0  0  0  0  0  0
  -24.0696  -12.0904   -1.1940 C   0  0  0  0  0  0  0  0  0  0  0  0
  -25.0091  -12.1082   -2.1872 O   0  0  0  0  0  0  0  0  0  0  0  0
  -23.1943   -9.8922   -5.7518 O   0  0  0  0  0  0  0  0  0  0  0  0
  -22.3148  -10.8523   -6.2731 C   0  0  0  0  0  0  0  0  0  0  0  0
  -29.3369  -10.5951   -5.5758 C   0  0  0  0  0  0  0  0  0  0  0  0
  -29.0883  -11.1421   -6.9720 C   0  0  0  0  0  0  0  0  0  0  0  0
  -28.8749  -11.6113   -8.1696 C   0  0  0  0  0  0  0  0  0  0  0  0
  -28.6262  -12.1584   -9.5658 C   0  0  0  0  0  0  0  0  0  0  0  0
  -27.1055  -12.4653   -9.4135 C   0  0  0  0  0  0  0  0  0  0  0  0
  -26.3107  -11.1336   -9.2318 C   0  0  0  0  0  0  0  0  0  0  0  0
  -26.4538  -10.2915  -10.4236 N   0  0  0  0  0  0  0  0  0  0  0  0
  -27.8677   -9.9965  -10.7330 C   0  0  0  0  0  0  0  0  0  0  0  0
  -28.7419  -11.2652  -10.8166 C   0  0  0  0  0  0  0  0  0  0  0  0
  -25.9977  -10.7764  -11.2293 H   0  0  0  0  0  0  0  0  0  0  0  0
 24 25  1  0  0  0
 25 18  1  0  0  0
 18 19  1  0  0  0
 18 23  2  0  0  0
 19 20  2  0  0  0
 20 26  1  0  0  0
 20 21  1  0  0  0
 26 27  1  0  0  0
 21 22  2  0  0  0
 22  1  1  0  0  0
 22 23  1  0  0  0
  1 28  1  0  0  0
  1  2  1  0  0  0
 28 29  1  0  0  0
 29 30  3  0  0  0
 30 31  1  0  0  0
 31 32  1  0  0  0
 31 36  1  0  0  0
 32 33  1  0  0  0
 33 34  1  0  0  0
 34 35  1  0  0  0
 34 37  1  0  0  0
 35 36  1  0  0  0
  2  3  1  0  0  0
  2 11  2  0  0  0
  3  4  2  0  0  0
  4  5  1  0  0  0
  5  6  1  0  0  0
  5 10  2  0  0  0
  6  7  2  0  0  0
  7  8  1  0  0  0
  8 12  1  0  0  0
  8  9  2  0  0  0
 12 13  1  0  0  0
 12 17  2  0  0  0
 13 14  2  0  0  0
 14 15  1  0  0  0
 15 16  1  0  0  0
 15 17  1  0  0  0
  9 10  1  0  0  0
 10 11  1  0  0  0
M  END
> <minimizedAffinity>
-8.24372

$$$$
