CHEMBL3221266


 31 33  0  0  0  0  0  0  0  0999 V2000
  -28.2213   -1.9556   -9.9380 N   0  0  0  0  0  0  0  0  0  0  0  0
  -29.1215   -2.2402  -10.3528 H   0  0  0  0  0  0  0  0  0  0  0  0
  -28.1069   -1.8496   -8.5159 C   0  0  0  0  0  0  0  0  0  0  0  0
  -27.8400   -0.6259   -7.9839 N   0  0  0  0  0  0  0  0  0  0  0  0
  -27.7070   -0.4394   -6.6483 C   0  0  0  0  0  0  0  0  0  0  0  0
  -27.8837   -1.4798   -5.8018 N   0  0  0  0  0  0  0  0  0  0  0  0
  -28.1661   -2.7221   -6.2635 C   0  0  0  0  0  0  0  0  0  0  0  0
  -28.3760   -3.7624   -5.3618 C   0  0  0  0  0  0  0  0  0  0  0  0
  -28.6744   -5.0808   -5.7882 C   0  0  0  0  0  0  0  0  0  0  0  0
  -28.7529   -5.3136   -7.2224 C   0  0  0  0  0  0  0  0  0  0  0  0
  -28.5430   -4.2459   -8.0961 C   0  0  0  0  0  0  0  0  0  0  0  0
  -28.2608   -2.9547   -7.6483 C   0  0  0  0  0  0  0  0  0  0  0  0
  -28.8806   -6.0593   -4.8492 O   0  0  0  0  0  0  0  0  0  0  0  0
  -30.0975   -6.2730   -4.1707 C   0  0  0  0  0  0  0  0  0  0  0  0
  -29.0308   -6.4696   -7.8942 O   0  0  0  0  0  0  0  0  0  0  0  0
  -29.9347   -7.4933   -7.7851 C   0  0  0  0  0  0  0  0  0  0  0  0
  -24.8578   -1.4049  -12.4712 C   0  0  0  0  0  0  0  0  0  0  0  0
  -24.7092   -1.4808  -11.0790 C   0  0  0  0  0  0  0  0  0  0  0  0
  -25.8077   -1.6869  -10.2445 C   0  0  0  0  0  0  0  0  0  0  0  0
  -27.0967   -1.7766  -10.7923 C   0  0  0  0  0  0  0  0  0  0  0  0
  -27.2552   -1.7244  -12.1947 C   0  0  0  0  0  0  0  0  0  0  0  0
  -26.1543   -1.5694  -13.0478 C   0  0  0  0  0  0  0  0  0  0  0  0
  -26.3790   -1.6216  -14.5375 C   0  0  0  0  0  0  0  0  0  0  0  0
  -23.1904    0.0455  -13.4379 C   0  0  0  0  0  0  0  0  0  0  0  0
  -23.6664    1.0041  -12.8471 O   0  0  0  0  0  0  0  0  0  0  0  0
  -23.7308   -1.1948  -13.2806 N   0  0  0  0  0  0  0  0  0  0  0  0
  -23.3383   -1.9978  -13.7978 H   0  0  0  0  0  0  0  0  0  0  0  0
  -22.0207    0.2459  -14.3526 C   0  0  0  0  0  0  0  0  0  0  0  0
  -21.3228    1.5775  -14.0683 C   0  0  0  0  0  0  0  0  0  0  0  0
  -19.8969    3.2154  -15.2744 C   0  0  0  0  0  0  0  0  0  0  0  0
  -20.0251    1.7562  -14.8609 C   0  0  0  0  0  0  0  0  0  0  0  0
 30 31  1  0  0  0
 31 29  1  0  0  0
 29 28  1  0  0  0
 28 24  1  0  0  0
 24 25  2  0  0  0
 24 26  1  0  0  0
 26 17  1  0  0  0
 26 27  1  0  0  0
 17 18  1  0  0  0
 17 22  2  0  0  0
 18 19  2  0  0  0
 19 20  1  0  0  0
 20  1  1  0  0  0
 20 21  2  0  0  0
  1  3  1  0  0  0
  1  2  1  0  0  0
  3  4  1  0  0  0
  3 12  2  0  0  0
  4  5  2  0  0  0
  5  6  1  0  0  0
  6  7  2  0  0  0
  7  8  1  0  0  0
  7 12  1  0  0  0
  8  9  2  0  0  0
  9 13  1  0  0  0
  9 10  1  0  0  0
 13 14  1  0  0  0
 10 15  1  0  0  0
 10 11  2  0  0  0
 15 16  1  0  0  0
 11 12  1  0  0  0
 21 22  1  0  0  0
 22 23  1  0  0  0
M  END
> <minimizedAffinity>
-8.93864

$$$$
