CHEMBL150151


 34 37  0  0  0  0  0  0  0  0999 V2000
  -14.1785    4.7240  -17.0649 C   0  0  0  0  0  0  0  0  0  0  0  0
  -13.1264    4.0023  -16.4419 C   0  0  0  0  0  0  0  0  0  0  0  0
  -13.3348    2.7785  -15.8032 C   0  0  0  0  0  0  0  0  0  0  0  0
  -14.6209    2.2793  -15.7636 C   0  0  0  0  0  0  0  0  0  0  0  0
  -15.6740    2.9902  -16.3340 C   0  0  0  0  0  0  0  0  0  0  0  0
  -15.4818    4.1889  -16.9955 C   0  0  0  0  0  0  0  0  0  0  0  0
  -16.8764    2.3180  -16.1276 N   0  0  0  0  0  0  0  0  0  0  0  0
  -16.6809    1.1364  -15.4239 C   0  0  0  0  0  0  0  0  0  0  0  0
  -17.5407    0.3546  -15.0631 O   0  0  0  0  0  0  0  0  0  0  0  0
  -15.1911    1.0449  -15.2066 C   0  0  0  0  0  0  0  0  0  0  0  0
  -14.4074    0.0864  -14.6973 C   0  0  0  0  0  0  0  0  0  0  0  0
  -17.7884    2.6415  -16.4113 H   0  0  0  0  0  0  0  0  0  0  0  0
  -14.7409   -1.1997  -14.2010 C   0  0  0  0  0  0  0  0  0  0  0  0
  -14.3699   -2.3482  -14.8395 N   0  0  0  0  0  0  0  0  0  0  0  0
  -14.7863   -3.4475  -14.1289 C   0  0  0  0  0  0  0  0  0  0  0  0
  -14.4714   -4.8124  -14.6237 C   0  0  0  0  0  0  0  0  0  0  0  0
  -15.4804   -3.0000  -13.0128 C   0  0  0  0  0  0  0  0  0  0  0  0
  -15.4446   -1.5639  -13.0577 C   0  0  0  0  0  0  0  0  0  0  0  0
  -16.0426   -0.6051  -12.0794 C   0  0  0  0  0  0  0  0  0  0  0  0
  -13.8565   -2.3937  -15.7153 H   0  0  0  0  0  0  0  0  0  0  0  0
  -16.1586   -3.8470  -11.9715 C   0  0  0  0  0  0  0  0  0  0  0  0
  -15.1793   -4.4870  -10.9937 C   0  0  0  0  0  0  0  0  0  0  0  0
  -14.7371   -3.5084   -9.9363 C   0  0  0  0  0  0  0  0  0  0  0  0
  -13.5926   -3.3535   -9.5429 O   0  0  0  0  0  0  0  0  0  0  0  0
  -15.7733   -2.7873   -9.4444 O   0  0  0  0  0  0  0  0  0  0  0  0
  -16.6320   -3.0140   -9.8500 H   0  0  0  0  0  0  0  0  0  0  0  0
  -13.3496    8.5026  -18.9854 C   0  0  0  0  0  0  0  0  0  0  0  0
  -12.4001    7.9089  -18.1608 C   0  0  0  0  0  0  0  0  0  0  0  0
  -12.6666    6.6724  -17.5631 C   0  0  0  0  0  0  0  0  0  0  0  0
  -13.8936    6.0064  -17.7470 C   0  0  0  0  0  0  0  0  0  0  0  0
  -14.8338    6.6242  -18.5858 C   0  0  0  0  0  0  0  0  0  0  0  0
  -14.5617    7.8503  -19.2021 C   0  0  0  0  0  0  0  0  0  0  0  0
  -14.3971   10.2487  -20.1958 C   0  0  0  0  0  0  0  0  0  0  0  0
  -13.2139    9.7005  -19.6284 O   0  0  0  0  0  0  0  0  0  0  0  0
 33 34  1  0  0  0
 34 27  1  0  0  0
 27 28  1  0  0  0
 27 32  2  0  0  0
 28 29  2  0  0  0
 29 30  1  0  0  0
 30  1  1  0  0  0
 30 31  2  0  0  0
  1  2  1  0  0  0
  1  6  2  0  0  0
  2  3  2  0  0  0
  3  4  1  0  0  0
  4  5  2  0  0  0
  4 10  1  0  0  0
  5  6  1  0  0  0
  5  7  1  0  0  0
  7  8  1  0  0  0
  7 12  1  0  0  0
  8  9  2  0  0  0
  8 10  1  0  0  0
 10 11  2  0  0  0
 11 13  1  0  0  0
 13 14  1  0  0  0
 13 18  2  0  0  0
 14 15  1  0  0  0
 14 20  1  0  0  0
 15 16  1  0  0  0
 15 17  2  0  0  0
 17 21  1  0  0  0
 17 18  1  0  0  0
 21 22  1  0  0  0
 22 23  1  0  0  0
 23 24  2  0  0  0
 23 25  1  0  0  0
 25 26  1  0  0  0
 18 19  1  0  0  0
 31 32  1  0  0  0
M  END
> <minimizedAffinity>
-7.24394

$$$$
