CHEMBL203056


 29 32  0  0  0  0  0  0  0  0999 V2000
  -12.1902    2.8894  -13.9186 C   0  0  0  0  0  0  0  0  0  0  0  0
  -12.6366    1.5216  -13.7916 N   0  0  0  0  0  0  0  0  0  0  0  0
  -11.9785    0.5419  -13.1011 C   0  0  0  0  0  0  0  0  0  0  0  0
  -12.5742   -0.6229  -13.2262 N   0  0  0  0  0  0  0  0  0  0  0  0
  -13.6862   -0.3703  -13.9690 C   0  0  0  0  0  0  0  0  0  0  0  0
  -13.7606    0.9537  -14.3503 C   0  0  0  0  0  0  0  0  0  0  0  0
  -14.6921    1.6146  -15.1955 C   0  0  0  0  0  0  0  0  0  0  0  0
  -14.5324    1.7650  -16.4957 N   0  0  0  0  0  0  0  0  0  0  0  0
  -15.6526    2.4036  -16.9628 N   0  0  0  0  0  0  0  0  0  0  0  0
  -16.4341    2.6102  -15.9249 C   0  0  0  0  0  0  0  0  0  0  0  0
  -15.8874    2.1443  -14.7650 O   0  0  0  0  0  0  0  0  0  0  0  0
  -17.6306    3.2160  -15.8130 N   0  0  0  0  0  0  0  0  0  0  0  0
  -17.7428    4.1225  -16.2475 H   0  0  0  0  0  0  0  0  0  0  0  0
  -18.7932    2.6338  -15.2839 C   0  0  0  0  0  0  0  0  0  0  0  0
  -19.0491    1.2561  -15.3595 C   0  0  0  0  0  0  0  0  0  0  0  0
  -20.2612    0.7179  -14.9212 C   0  0  0  0  0  0  0  0  0  0  0  0
  -21.2424    1.5578  -14.4094 C   0  0  0  0  0  0  0  0  0  0  0  0
  -22.7496    0.9036  -13.9038 Cl  0  0  0  0  0  0  0  0  0  0  0  0
  -21.0117    2.9281  -14.3177 C   0  0  0  0  0  0  0  0  0  0  0  0
  -19.7918    3.4609  -14.7496 C   0  0  0  0  0  0  0  0  0  0  0  0
  -14.5614   -1.3288  -14.2870 N   0  0  0  0  0  0  0  0  0  0  0  0
  -14.3866   -1.9670  -15.0591 H   0  0  0  0  0  0  0  0  0  0  0  0
  -15.8777   -1.4036  -13.6944 C   0  0  0  0  0  0  0  0  0  0  0  0
  -15.8958   -2.5302  -12.6845 C   0  0  0  0  0  0  0  0  0  0  0  0
  -16.1838   -3.8429  -13.0827 C   0  0  0  0  0  0  0  0  0  0  0  0
  -16.1821   -4.8495  -12.1294 C   0  0  0  0  0  0  0  0  0  0  0  0
  -15.9163   -4.6425  -10.8233 N   0  0  0  0  0  0  0  0  0  0  0  0
  -15.6326   -3.3734  -10.4579 C   0  0  0  0  0  0  0  0  0  0  0  0
  -15.6114   -2.3011  -11.3368 C   0  0  0  0  0  0  0  0  0  0  0  0
  1  2  1  0  0  0
  2  3  1  0  0  0
  2  6  1  0  0  0
  3  4  2  0  0  0
  4  5  1  0  0  0
  5 21  1  0  0  0
  5  6  2  0  0  0
 21 23  1  0  0  0
 21 22  1  0  0  0
 23 24  1  0  0  0
 24 25  1  0  0  0
 24 29  2  0  0  0
 25 26  2  0  0  0
 26 27  1  0  0  0
 27 28  2  0  0  0
 28 29  1  0  0  0
  6  7  1  0  0  0
  7  8  2  0  0  0
  7 11  1  0  0  0
  8  9  1  0  0  0
  9 10  2  0  0  0
 10 12  1  0  0  0
 10 11  1  0  0  0
 12 14  1  0  0  0
 12 13  1  0  0  0
 14 15  1  0  0  0
 14 20  2  0  0  0
 15 16  2  0  0  0
 16 17  1  0  0  0
 17 18  1  0  0  0
 17 19  2  0  0  0
 19 20  1  0  0  0
M  END
> <minimizedAffinity>
-8.12274

$$$$
