CHEMBL3979610


 19 21  0  0  0  0  0  0  0  0999 V2000
  -24.0341   -0.7387  -13.9811 C   0  0  0  0  0  0  0  0  0  0  0  0
  -24.3699   -0.8161  -15.2922 N   0  0  0  0  0  0  0  0  0  0  0  0
  -25.6234   -1.1597  -15.6959 N   0  0  0  0  0  0  0  0  0  0  0  0
  -26.5325   -1.4850  -14.7667 C   0  0  0  0  0  0  0  0  0  0  0  0
  -26.2659   -1.4674  -13.4066 C   0  0  0  0  0  0  0  0  0  0  0  0
  -27.2454   -1.8556  -12.4768 C   0  0  0  0  0  0  0  0  0  0  0  0
  -26.9698   -1.8484  -11.1123 C   0  0  0  0  0  0  0  0  0  0  0  0
  -25.7173   -1.4433  -10.6650 C   0  0  0  0  0  0  0  0  0  0  0  0
  -24.7333   -1.0617  -11.5835 C   0  0  0  0  0  0  0  0  0  0  0  0
  -24.9809   -1.0688  -12.9801 C   0  0  0  0  0  0  0  0  0  0  0  0
  -22.6877   -0.4409  -13.6179 N   0  0  0  0  0  0  0  0  0  0  0  0
  -22.5864   -0.5215  -12.6102 H   0  0  0  0  0  0  0  0  0  0  0  0
  -19.8047    3.9980  -15.2975 F   0  0  0  0  0  0  0  0  0  0  0  0
  -20.5121    2.9198  -14.9368 C   0  0  0  0  0  0  0  0  0  0  0  0
  -20.0197    1.6532  -15.2154 C   0  0  0  0  0  0  0  0  0  0  0  0
  -20.7444    0.5296  -14.8114 C   0  0  0  0  0  0  0  0  0  0  0  0
  -21.9375    0.6649  -14.0882 C   0  0  0  0  0  0  0  0  0  0  0  0
  -22.4506    1.9542  -13.8856 C   0  0  0  0  0  0  0  0  0  0  0  0
  -21.7303    3.0822  -14.2907 C   0  0  0  0  0  0  0  0  0  0  0  0
 13 14  1  0  0  0
 14 15  1  0  0  0
 14 19  2  0  0  0
 15 16  2  0  0  0
 16 17  1  0  0  0
 17 11  1  0  0  0
 17 18  2  0  0  0
 11  1  1  0  0  0
 11 12  1  0  0  0
  1  2  1  0  0  0
  1 10  2  0  0  0
  2  3  2  0  0  0
  3  4  1  0  0  0
  4  5  2  0  0  0
  5  6  1  0  0  0
  5 10  1  0  0  0
  6  7  2  0  0  0
  7  8  1  0  0  0
  8  9  2  0  0  0
  9 10  1  0  0  0
 18 19  1  0  0  0
M  END
> <minimizedAffinity>
-8.70105

$$$$
