CHEMBL3671503


 32 34  0  0  0  0  0  0  0  0999 V2000
  -13.9051   -0.4294  -13.8676 C   0  0  0  0  0  0  0  0  0  0  0  0
  -14.7478    0.3202  -14.6919 C   0  0  0  0  0  0  0  0  0  0  0  0
  -14.4706    1.6620  -15.0049 C   0  0  0  0  0  0  0  0  0  0  0  0
  -15.3047    2.4717  -15.7848 C   0  0  0  0  0  0  0  0  0  0  0  0
  -15.0109    3.7627  -16.0281 N   0  0  0  0  0  0  0  0  0  0  0  0
  -13.8910    4.2399  -15.4826 C   0  0  0  0  0  0  0  0  0  0  0  0
  -13.0258    3.5511  -14.7189 N   0  0  0  0  0  0  0  0  0  0  0  0
  -13.3320    2.2738  -14.4764 C   0  0  0  0  0  0  0  0  0  0  0  0
  -12.4946    1.5174  -13.6589 C   0  0  0  0  0  0  0  0  0  0  0  0
  -12.7357    0.1631  -13.3650 C   0  0  0  0  0  0  0  0  0  0  0  0
  -15.1870   -2.0270  -12.5451 C   0  0  0  0  0  0  0  0  0  0  0  0
  -15.7038   -1.2058  -11.7997 O   0  0  0  0  0  0  0  0  0  0  0  0
  -14.3243   -1.7445  -13.5888 N   0  0  0  0  0  0  0  0  0  0  0  0
  -13.8347   -2.5134  -14.0083 H   0  0  0  0  0  0  0  0  0  0  0  0
  -16.2898   -3.9287  -11.4710 C   0  0  0  0  0  0  0  0  0  0  0  0
  -15.3930   -3.4873  -12.3626 C   0  0  0  0  0  0  0  0  0  0  0  0
  -16.5159    1.9376  -16.2976 N   0  0  0  0  0  0  0  0  0  0  0  0
  -16.5520    1.9991  -17.3117 H   0  0  0  0  0  0  0  0  0  0  0  0
  -17.7767    2.1070  -15.6933 C   0  0  0  0  0  0  0  0  0  0  0  0
  -18.3778    3.3720  -15.6410 C   0  0  0  0  0  0  0  0  0  0  0  0
  -19.6692    3.5321  -15.1406 C   0  0  0  0  0  0  0  0  0  0  0  0
  -20.3610    2.4237  -14.6602 C   0  0  0  0  0  0  0  0  0  0  0  0
  -22.1465    2.6261  -14.0751 Br  0  0  0  0  0  0  0  0  0  0  0  0
  -19.7557    1.1696  -14.6284 C   0  0  0  0  0  0  0  0  0  0  0  0
  -18.4659    1.0249  -15.1322 C   0  0  0  0  0  0  0  0  0  0  0  0
  -17.8905   -0.1898  -15.1189 F   0  0  0  0  0  0  0  0  0  0  0  0
  -11.8180   -0.3770  -12.4884 O   0  0  0  0  0  0  0  0  0  0  0  0
  -10.8273   -1.2008  -13.0872 C   0  0  0  0  0  0  0  0  0  0  0  0
  -11.0043   -2.6900  -12.7785 C   0  0  0  0  0  0  0  0  0  0  0  0
  -11.8685   -2.7744  -11.5914 N   0  0  0  0  0  0  0  0  0  0  0  0
  -11.2246   -3.4519  -10.4800 C   0  0  0  0  0  0  0  0  0  0  0  0
  -12.7232   -3.2768  -11.8329 H   0  0  0  0  0  0  0  0  0  0  0  0
 15 16  2  0  0  0
 16 11  1  0  0  0
 11 12  2  0  0  0
 11 13  1  0  0  0
 13  1  1  0  0  0
 13 14  1  0  0  0
  1  2  1  0  0  0
  1 10  2  0  0  0
  2  3  2  0  0  0
  3  4  1  0  0  0
  3  8  1  0  0  0
  4 17  1  0  0  0
  4  5  2  0  0  0
 17 19  1  0  0  0
 17 18  1  0  0  0
 19 20  1  0  0  0
 19 25  2  0  0  0
 20 21  2  0  0  0
 21 22  1  0  0  0
 22 23  1  0  0  0
 22 24  2  0  0  0
 24 25  1  0  0  0
 25 26  1  0  0  0
  5  6  1  0  0  0
  6  7  2  0  0  0
  7  8  1  0  0  0
  8  9  2  0  0  0
  9 10  1  0  0  0
 10 27  1  0  0  0
 27 28  1  0  0  0
 28 29  1  0  0  0
 29 30  1  0  0  0
 30 31  1  0  0  0
 30 32  1  0  0  0
M  END
> <minimizedAffinity>
-7.34699

$$$$
