CHEMBL595406


 41 46  0  0  0  0  0  0  0  0999 V2000
  -28.5166   -4.6164   -7.4844 C   0  0  0  0  0  0  0  0  0  0  0  0
  -29.4813   -5.5195   -7.0288 C   0  0  0  0  0  0  0  0  0  0  0  0
  -30.1657   -5.3039   -5.8313 C   0  0  0  0  0  0  0  0  0  0  0  0
  -30.9512   -6.3015   -5.2171 C   0  0  0  0  0  0  0  0  0  0  0  0
  -31.6703   -6.0278   -4.1159 N   0  0  0  0  0  0  0  0  0  0  0  0
  -31.5437   -4.7853   -3.6221 C   0  0  0  0  0  0  0  0  0  0  0  0
  -30.7639   -3.8002   -4.0917 N   0  0  0  0  0  0  0  0  0  0  0  0
  -30.0627   -4.0646   -5.2008 C   0  0  0  0  0  0  0  0  0  0  0  0
  -29.2133   -3.0969   -5.7533 C   0  0  0  0  0  0  0  0  0  0  0  0
  -28.4341   -3.3440   -6.8977 C   0  0  0  0  0  0  0  0  0  0  0  0
  -27.6592   -6.4278   -8.7239 C   0  0  0  0  0  0  0  0  0  0  0  0
  -27.6283   -5.0170   -8.4553 O   0  0  0  0  0  0  0  0  0  0  0  0
  -30.9085   -7.6337   -5.6972 N   0  0  0  0  0  0  0  0  0  0  0  0
  -31.6279   -7.7839   -6.3984 H   0  0  0  0  0  0  0  0  0  0  0  0
  -29.7891   -8.4925   -5.8367 C   0  0  0  0  0  0  0  0  0  0  0  0
  -29.6023   -9.1881   -7.0411 C   0  0  0  0  0  0  0  0  0  0  0  0
  -28.3948   -9.8292   -7.3382 C   0  0  0  0  0  0  0  0  0  0  0  0
  -27.3442   -9.8334   -6.4187 C   0  0  0  0  0  0  0  0  0  0  0  0
  -27.5549   -9.2157   -5.1779 C   0  0  0  0  0  0  0  0  0  0  0  0
  -28.7597   -8.5482   -4.8696 C   0  0  0  0  0  0  0  0  0  0  0  0
  -28.8864   -7.9376   -3.4985 C   0  0  0  0  0  0  0  0  0  0  0  0
  -26.0500  -10.4361   -6.7878 C   0  0  0  0  0  0  0  0  0  0  0  0
  -24.9152  -10.2180   -6.1620 N   0  0  0  0  0  0  0  0  0  0  0  0
  -23.8905  -10.9441   -6.7489 C   0  0  0  0  0  0  0  0  0  0  0  0
  -22.5397  -10.9741   -6.3361 C   0  0  0  0  0  0  0  0  0  0  0  0
  -21.6097  -11.7364   -7.0564 C   0  0  0  0  0  0  0  0  0  0  0  0
  -22.0074  -12.4659   -8.1632 C   0  0  0  0  0  0  0  0  0  0  0  0
  -23.3415  -12.4659   -8.5857 C   0  0  0  0  0  0  0  0  0  0  0  0
  -24.2601  -11.7001   -7.8583 C   0  0  0  0  0  0  0  0  0  0  0  0
  -25.9456  -11.5022   -8.1354 S   0  0  0  0  0  0  0  0  0  0  0  0
  -27.6615   -2.2699   -7.3061 O   0  0  0  0  0  0  0  0  0  0  0  0
  -28.0971   -1.6504   -8.5249 C   0  0  0  0  0  0  0  0  0  0  0  0
  -27.1831   -1.9341   -9.7287 C   0  0  0  0  0  0  0  0  0  0  0  0
  -27.6585   -1.1319  -10.9679 C   0  0  0  0  0  0  0  0  0  0  0  0
  -26.6085   -0.8670  -11.9616 N   0  0  0  0  0  0  0  0  0  0  0  0
  -25.2916   -0.5606  -11.3814 C   0  0  0  0  0  0  0  0  0  0  0  0
  -24.3268   -0.1143  -12.5028 C   0  0  0  0  0  0  0  0  0  0  0  0
  -24.0780   -1.1474  -13.5275 N   0  0  0  0  0  0  0  0  0  0  0  0
  -23.2468   -2.2254  -12.9971 C   0  0  0  0  0  0  0  0  0  0  0  0
  -25.3784   -1.6438  -14.0292 C   0  0  0  0  0  0  0  0  0  0  0  0
  -26.4529   -1.9601  -12.9459 C   0  0  0  0  0  0  0  0  0  0  0  0
 11 12  1  0  0  0
 12  1  1  0  0  0
  1  2  1  0  0  0
  1 10  2  0  0  0
  2  3  2  0  0  0
  3  4  1  0  0  0
  3  8  1  0  0  0
  4 13  1  0  0  0
  4  5  2  0  0  0
 13 15  1  0  0  0
 13 14  1  0  0  0
 15 16  1  0  0  0
 15 20  2  0  0  0
 16 17  2  0  0  0
 17 18  1  0  0  0
 18 22  1  0  0  0
 18 19  2  0  0  0
 22 23  2  0  0  0
 22 30  1  0  0  0
 23 24  1  0  0  0
 24 25  1  0  0  0
 24 29  2  0  0  0
 25 26  2  0  0  0
 26 27  1  0  0  0
 27 28  2  0  0  0
 28 29  1  0  0  0
 29 30  1  0  0  0
 19 20  1  0  0  0
 20 21  1  0  0  0
  5  6  1  0  0  0
  6  7  2  0  0  0
  7  8  1  0  0  0
  8  9  2  0  0  0
  9 10  1  0  0  0
 10 31  1  0  0  0
 31 32  1  0  0  0
 32 33  1  0  0  0
 33 34  1  0  0  0
 34 35  1  0  0  0
 35 36  1  0  0  0
 35 41  1  0  0  0
 36 37  1  0  0  0
 37 38  1  0  0  0
 38 39  1  0  0  0
 38 40  1  0  0  0
 40 41  1  0  0  0
M  END
> <minimizedAffinity>
-9.08347

$$$$
