CHEMBL1242469


 26 28  0  0  0  0  0  0  0  0999 V2000
  -16.1413    1.2409  -14.8964 N   0  0  0  0  0  0  0  0  0  0  0  0
  -16.6624    0.1142  -14.3772 N   0  0  0  0  0  0  0  0  0  0  0  0
  -15.6012   -0.5377  -13.8587 C   0  0  0  0  0  0  0  0  0  0  0  0
  -14.3825    0.1694  -14.1276 C   0  0  0  0  0  0  0  0  0  0  0  0
  -12.9991    0.0292  -13.9187 C   0  0  0  0  0  0  0  0  0  0  0  0
  -12.3788   -1.0485  -13.3177 N   0  0  0  0  0  0  0  0  0  0  0  0
  -12.1844    1.0326  -14.3070 N   0  0  0  0  0  0  0  0  0  0  0  0
  -12.7207    2.1192  -14.8966 C   0  0  0  0  0  0  0  0  0  0  0  0
  -14.0107    2.3470  -15.1802 N   0  0  0  0  0  0  0  0  0  0  0  0
  -14.7877    1.3322  -14.7636 C   0  0  0  0  0  0  0  0  0  0  0  0
  -12.8178   -1.9570  -13.3364 H   0  0  0  0  0  0  0  0  0  0  0  0
  -11.3674   -1.0108  -13.3547 H   0  0  0  0  0  0  0  0  0  0  0  0
  -15.8084   -1.7973  -13.1385 C   0  0  0  0  0  0  0  0  0  0  0  0
  -16.0473   -2.9917  -13.8412 C   0  0  0  0  0  0  0  0  0  0  0  0
  -16.2992   -4.1873  -13.1674 C   0  0  0  0  0  0  0  0  0  0  0  0
  -16.2315   -4.2099  -11.7847 C   0  0  0  0  0  0  0  0  0  0  0  0
  -16.4351   -5.3605  -11.1273 F   0  0  0  0  0  0  0  0  0  0  0  0
  -15.9329   -3.0520  -11.0711 C   0  0  0  0  0  0  0  0  0  0  0  0
  -15.8210   -3.0838   -9.7104 O   0  0  0  0  0  0  0  0  0  0  0  0
  -15.7375   -1.8506  -11.7354 C   0  0  0  0  0  0  0  0  0  0  0  0
  -15.9378   -4.0138   -9.4367 H   0  0  0  0  0  0  0  0  0  0  0  0
  -17.0077    2.1776  -15.5824 C   0  0  0  0  0  0  0  0  0  0  0  0
  -18.1840    2.6389  -14.7210 C   0  0  0  0  0  0  0  0  0  0  0  0
  -19.5190    2.0250  -15.1478 C   0  0  0  0  0  0  0  0  0  0  0  0
  -21.6065    3.6046  -14.2094 N   0  0  0  0  0  0  0  0  0  0  0  0
  -20.6600    2.8884  -14.6349 C   0  0  0  0  0  0  0  0  0  0  0  0
 25 26  3  0  0  0
 26 24  1  0  0  0
 24 23  1  0  0  0
 23 22  1  0  0  0
 22  1  1  0  0  0
  1  2  1  0  0  0
  1 10  1  0  0  0
  2  3  2  0  0  0
  3 13  1  0  0  0
  3  4  1  0  0  0
 13 14  1  0  0  0
 13 20  2  0  0  0
 14 15  2  0  0  0
 15 16  1  0  0  0
 16 17  1  0  0  0
 16 18  2  0  0  0
 18 19  1  0  0  0
 18 20  1  0  0  0
 19 21  1  0  0  0
  4  5  1  0  0  0
  4 10  2  0  0  0
  5  6  1  0  0  0
  5  7  2  0  0  0
  6 11  1  0  0  0
  6 12  1  0  0  0
  7  8  1  0  0  0
  8  9  2  0  0  0
  9 10  1  0  0  0
M  END
> <minimizedAffinity>
-7.30257

$$$$
