CHEMBL3967141


 32 35  0  0  0  0  0  0  0  0999 V2000
  -21.8078    1.0985  -14.3871 C   0  0  0  0  0  0  0  0  0  0  0  0
  -21.5871    2.4713  -14.2345 C   0  0  0  0  0  0  0  0  0  0  0  0
  -20.3653    3.0637  -14.5829 C   0  0  0  0  0  0  0  0  0  0  0  0
  -19.3201    2.2910  -15.0784 C   0  0  0  0  0  0  0  0  0  0  0  0
  -19.4896    0.9029  -15.1409 C   0  0  0  0  0  0  0  0  0  0  0  0
  -20.7224    0.3081  -14.7858 C   0  0  0  0  0  0  0  0  0  0  0  0
  -23.3747   -0.4135  -13.1723 C   0  0  0  0  0  0  0  0  0  0  0  0
  -22.5610   -0.8008  -12.3345 O   0  0  0  0  0  0  0  0  0  0  0  0
  -23.0858    0.4965  -14.1886 N   0  0  0  0  0  0  0  0  0  0  0  0
  -23.8623    0.8645  -14.7289 H   0  0  0  0  0  0  0  0  0  0  0  0
  -27.0571   -1.6648  -10.0509 C   0  0  0  0  0  0  0  0  0  0  0  0
  -26.5619   -1.5650  -11.4655 C   0  0  0  0  0  0  0  0  0  0  0  0
  -27.3474   -1.9670  -12.5470 C   0  0  0  0  0  0  0  0  0  0  0  0
  -26.8549   -1.8537  -13.8517 C   0  0  0  0  0  0  0  0  0  0  0  0
  -25.5728   -1.3427  -14.0854 C   0  0  0  0  0  0  0  0  0  0  0  0
  -25.1473   -1.2460  -15.3541 F   0  0  0  0  0  0  0  0  0  0  0  0
  -24.7639   -0.9433  -13.0270 C   0  0  0  0  0  0  0  0  0  0  0  0
  -25.2788   -1.0564  -11.7172 C   0  0  0  0  0  0  0  0  0  0  0  0
  -18.1262    2.9448  -15.5522 C   0  0  0  0  0  0  0  0  0  0  0  0
  -17.1304    3.4582  -15.9973 C   0  0  0  0  0  0  0  0  0  0  0  0
  -15.8980    4.0580  -16.4717 C   0  0  0  0  0  0  0  0  0  0  0  0
  -15.7091    4.3247  -17.9185 C   0  0  0  0  0  0  0  0  0  0  0  0
  -14.5514    4.8827  -18.2914 C   0  0  0  0  0  0  0  0  0  0  0  0
  -13.5834    5.1828  -17.3111 C   0  0  0  0  0  0  0  0  0  0  0  0
  -12.3843    5.7189  -17.4217 N   0  0  0  0  0  0  0  0  0  0  0  0
  -11.9124    5.7590  -16.1514 C   0  0  0  0  0  0  0  0  0  0  0  0
  -10.6965    6.2399  -15.9085 N   0  0  0  0  0  0  0  0  0  0  0  0
  -12.8095    5.2634  -15.2402 C   0  0  0  0  0  0  0  0  0  0  0  0
  -13.8943    4.8820  -15.9909 N   0  0  0  0  0  0  0  0  0  0  0  0
  -15.0549    4.3113  -15.5185 N   0  0  0  0  0  0  0  0  0  0  0  0
  -10.1670    6.6524  -16.6670 H   0  0  0  0  0  0  0  0  0  0  0  0
  -10.3259    6.3957  -14.9794 H   0  0  0  0  0  0  0  0  0  0  0  0
 11 12  1  0  0  0
 12 13  1  0  0  0
 12 18  2  0  0  0
 13 14  2  0  0  0
 14 15  1  0  0  0
 15 16  1  0  0  0
 15 17  2  0  0  0
 17  7  1  0  0  0
 17 18  1  0  0  0
  7  8  2  0  0  0
  7  9  1  0  0  0
  9  1  1  0  0  0
  9 10  1  0  0  0
  1  2  1  0  0  0
  1  6  2  0  0  0
  2  3  2  0  0  0
  3  4  1  0  0  0
  4 19  1  0  0  0
  4  5  2  0  0  0
 19 20  3  0  0  0
 20 21  1  0  0  0
 21 22  1  0  0  0
 21 30  2  0  0  0
 22 23  2  0  0  0
 23 24  1  0  0  0
 24 25  2  0  0  0
 24 29  1  0  0  0
 25 26  1  0  0  0
 26 27  1  0  0  0
 26 28  2  0  0  0
 27 31  1  0  0  0
 27 32  1  0  0  0
 28 29  1  0  0  0
 29 30  1  0  0  0
  5  6  1  0  0  0
M  END
> <minimizedAffinity>
-11.17984

$$$$
