CHEMBL4081227


 20 23  0  0  0  0  0  0  0  0999 V2000
  -29.8384   -2.9286   -4.5737 C   0  0  0  0  0  0  0  0  0  0  0  0
  -30.4782   -3.4034   -3.4095 C   0  0  0  0  0  0  0  0  0  0  0  0
  -30.8985   -4.6629   -3.5157 N   0  0  0  0  0  0  0  0  0  0  0  0
  -30.5401   -5.0279   -4.7691 N   0  0  0  0  0  0  0  0  0  0  0  0
  -30.7835   -6.2476   -5.3828 C   0  0  0  0  0  0  0  0  0  0  0  0
  -30.3838   -6.4878   -6.6439 C   0  0  0  0  0  0  0  0  0  0  0  0
  -29.6533   -5.3317   -7.2677 C   0  0  0  0  0  0  0  0  0  0  0  0
  -29.4154   -4.1740   -6.7268 N   0  0  0  0  0  0  0  0  0  0  0  0
  -29.8731   -4.0028   -5.4461 C   0  0  0  0  0  0  0  0  0  0  0  0
  -27.4529   -0.0868   -5.0040 C   0  0  0  0  0  0  0  0  0  0  0  0
  -27.9277   -1.3445   -4.6777 C   0  0  0  0  0  0  0  0  0  0  0  0
  -29.2832   -1.6186   -4.8663 C   0  0  0  0  0  0  0  0  0  0  0  0
  -30.1068   -0.6019   -5.3548 C   0  0  0  0  0  0  0  0  0  0  0  0
  -29.5373    0.6264   -5.6484 C   0  0  0  0  0  0  0  0  0  0  0  0
  -28.2281    0.9070   -5.4851 N   0  0  0  0  0  0  0  0  0  0  0  0
  -30.6067   -7.6996   -7.3720 C   0  0  0  0  0  0  0  0  0  0  0  0
  -31.8325   -8.4344   -7.4081 C   0  0  0  0  0  0  0  0  0  0  0  0
  -31.7380   -9.5706   -8.1855 C   0  0  0  0  0  0  0  0  0  0  0  0
  -30.1844   -9.7573   -8.8684 S   0  0  0  0  0  0  0  0  0  0  0  0
  -29.6299   -8.3165   -8.1303 C   0  0  0  0  0  0  0  0  0  0  0  0
 10 11  1  0  0  0
 10 15  2  0  0  0
 11 12  2  0  0  0
 12  1  1  0  0  0
 12 13  1  0  0  0
  1  2  1  0  0  0
  1  9  2  0  0  0
  2  3  2  0  0  0
  3  4  1  0  0  0
  4  5  1  0  0  0
  4  9  1  0  0  0
  5  6  2  0  0  0
  6 16  1  0  0  0
  6  7  1  0  0  0
 16 17  1  0  0  0
 16 20  2  0  0  0
 17 18  2  0  0  0
 18 19  1  0  0  0
 19 20  1  0  0  0
  7  8  2  0  0  0
  8  9  1  0  0  0
 13 14  2  0  0  0
 14 15  1  0  0  0
M  END
> <minimizedAffinity>
-7.65577

$$$$
