CHEMBL360724


 30 33  0  0  0  0  0  0  0  0999 V2000
  -19.9999    2.4563  -15.1855 C   0  0  0  0  0  0  0  0  0  0  0  0
  -21.1157    2.9756  -14.5244 C   0  0  0  0  0  0  0  0  0  0  0  0
  -22.0563    2.1235  -13.9329 C   0  0  0  0  0  0  0  0  0  0  0  0
  -21.9289    0.7257  -14.0068 C   0  0  0  0  0  0  0  0  0  0  0  0
  -20.8412    0.2332  -14.7530 C   0  0  0  0  0  0  0  0  0  0  0  0
  -19.8865    1.0806  -15.3368 C   0  0  0  0  0  0  0  0  0  0  0  0
  -22.9060   -0.1714  -13.3385 C   0  0  0  0  0  0  0  0  0  0  0  0
  -22.6611   -0.6551  -12.0281 C   0  0  0  0  0  0  0  0  0  0  0  0
  -23.5583   -1.5011  -11.3420 C   0  0  0  0  0  0  0  0  0  0  0  0
  -24.7476   -1.8959  -11.9396 C   0  0  0  0  0  0  0  0  0  0  0  0
  -24.9831   -1.4393  -13.2197 C   0  0  0  0  0  0  0  0  0  0  0  0
  -24.0991   -0.6064  -13.9249 C   0  0  0  0  0  0  0  0  0  0  0  0
  -24.6708   -0.3580  -15.2878 C   0  0  0  0  0  0  0  0  0  0  0  0
  -25.9044   -1.1045  -15.2742 N   0  0  0  0  0  0  0  0  0  0  0  0
  -26.1447   -1.7181  -14.0696 C   0  0  0  0  0  0  0  0  0  0  0  0
  -27.1287   -2.3560  -13.7563 O   0  0  0  0  0  0  0  0  0  0  0  0
  -26.5995   -1.1054  -16.0084 H   0  0  0  0  0  0  0  0  0  0  0  0
  -16.7201    3.6545  -16.1843 N   0  0  0  0  0  0  0  0  0  0  0  0
  -17.6703    2.7491  -15.7389 C   0  0  0  0  0  0  0  0  0  0  0  0
  -17.4580    1.5634  -15.5055 O   0  0  0  0  0  0  0  0  0  0  0  0
  -18.9439    3.2990  -15.6244 N   0  0  0  0  0  0  0  0  0  0  0  0
  -17.0348    4.5774  -16.4415 H   0  0  0  0  0  0  0  0  0  0  0  0
  -19.1779    3.9654  -16.3449 H   0  0  0  0  0  0  0  0  0  0  0  0
  -15.4219    4.3815  -18.7608 C   0  0  0  0  0  0  0  0  0  0  0  0
  -14.7301    3.6475  -17.6401 C   0  0  0  0  0  0  0  0  0  0  0  0
  -13.3851    3.2707  -17.8468 C   0  0  0  0  0  0  0  0  0  0  0  0
  -12.6637    2.5860  -16.8708 C   0  0  0  0  0  0  0  0  0  0  0  0
  -13.2647    2.2969  -15.6607 C   0  0  0  0  0  0  0  0  0  0  0  0
  -14.5838    2.6825  -15.4364 C   0  0  0  0  0  0  0  0  0  0  0  0
  -15.3504    3.3352  -16.4169 C   0  0  0  0  0  0  0  0  0  0  0  0
 24 25  1  0  0  0
 25 26  1  0  0  0
 25 30  2  0  0  0
 26 27  2  0  0  0
 27 28  1  0  0  0
 28 29  2  0  0  0
 29 30  1  0  0  0
 30 18  1  0  0  0
 18 19  1  0  0  0
 18 22  1  0  0  0
 19 20  2  0  0  0
 19 21  1  0  0  0
 21  1  1  0  0  0
 21 23  1  0  0  0
  1  2  1  0  0  0
  1  6  2  0  0  0
  2  3  2  0  0  0
  3  4  1  0  0  0
  4  7  1  0  0  0
  4  5  2  0  0  0
  7  8  1  0  0  0
  7 12  2  0  0  0
  8  9  2  0  0  0
  9 10  1  0  0  0
 10 11  2  0  0  0
 11 12  1  0  0  0
 11 15  1  0  0  0
 12 13  1  0  0  0
 13 14  1  0  0  0
 14 15  1  0  0  0
 14 17  1  0  0  0
 15 16  2  0  0  0
  5  6  1  0  0  0
M  END
> <minimizedAffinity>
-9.83107

$$$$
