CHEMBL4466350


 44 48  0  0  0  0  0  0  0  0999 V2000
  -27.4682   -9.8597   -4.6925 C   0  0  0  0  0  0  0  0  0  0  0  0
  -26.1196   -9.9079   -4.3441 C   0  0  0  0  0  0  0  0  0  0  0  0
  -25.6164  -11.0754   -3.7523 C   0  0  0  0  0  0  0  0  0  0  0  0
  -24.3432  -11.2188   -3.2094 C   0  0  0  0  0  0  0  0  0  0  0  0
  -24.2822  -11.2792   -1.8818 N   0  0  0  0  0  0  0  0  0  0  0  0
  -25.3198  -11.9318   -1.3436 C   0  0  0  0  0  0  0  0  0  0  0  0
  -26.3586  -12.4643   -2.0295 N   0  0  0  0  0  0  0  0  0  0  0  0
  -26.5456  -11.9627   -3.2587 C   0  0  0  0  0  0  0  0  0  0  0  0
  -27.7332  -12.1121   -3.9681 C   0  0  0  0  0  0  0  0  0  0  0  0
  -28.1816  -11.0631   -4.7691 C   0  0  0  0  0  0  0  0  0  0  0  0
  -28.6563   -8.0615   -5.9279 C   0  0  0  0  0  0  0  0  0  0  0  0
  -28.6879   -8.5249   -7.0609 O   0  0  0  0  0  0  0  0  0  0  0  0
  -28.2037   -8.6550   -4.7710 N   0  0  0  0  0  0  0  0  0  0  0  0
  -28.1644   -8.0784   -3.9349 H   0  0  0  0  0  0  0  0  0  0  0  0
  -28.3256   -5.7017   -6.1407 C   0  0  0  0  0  0  0  0  0  0  0  0
  -29.1342   -6.6783   -5.6961 C   0  0  0  0  0  0  0  0  0  0  0  0
  -28.6681   -1.9793   -6.8030 C   0  0  0  0  0  0  0  0  0  0  0  0
  -28.3293   -3.3313   -6.9760 C   0  0  0  0  0  0  0  0  0  0  0  0
  -28.5837   -4.2785   -5.9802 C   0  0  0  0  0  0  0  0  0  0  0  0
  -29.1736   -3.8572   -4.7805 C   0  0  0  0  0  0  0  0  0  0  0  0
  -29.4777   -2.5086   -4.5702 C   0  0  0  0  0  0  0  0  0  0  0  0
  -29.2636   -1.5655   -5.5953 C   0  0  0  0  0  0  0  0  0  0  0  0
  -27.6038   -1.4579   -8.8692 C   0  0  0  0  0  0  0  0  0  0  0  0
  -28.3811   -1.0309   -7.7543 O   0  0  0  0  0  0  0  0  0  0  0  0
  -30.0520   -2.0575   -3.3992 O   0  0  0  0  0  0  0  0  0  0  0  0
  -30.6609   -3.0692   -2.6032 C   0  0  0  0  0  0  0  0  0  0  0  0
  -29.6147   -0.2724   -5.2892 O   0  0  0  0  0  0  0  0  0  0  0  0
  -28.5637    0.5714   -4.8316 C   0  0  0  0  0  0  0  0  0  0  0  0
  -23.4822  -12.1632   -3.8632 N   0  0  0  0  0  0  0  0  0  0  0  0
  -23.6220  -13.1143   -3.5431 H   0  0  0  0  0  0  0  0  0  0  0  0
  -23.0084  -12.1245   -5.1889 C   0  0  0  0  0  0  0  0  0  0  0  0
  -21.6237  -12.1946   -5.4229 C   0  0  0  0  0  0  0  0  0  0  0  0
  -21.1218  -12.2841   -6.7238 C   0  0  0  0  0  0  0  0  0  0  0  0
  -22.0062  -12.3127   -7.7955 C   0  0  0  0  0  0  0  0  0  0  0  0
  -21.5128  -12.4570   -9.0343 F   0  0  0  0  0  0  0  0  0  0  0  0
  -23.3780  -12.2021   -7.5820 C   0  0  0  0  0  0  0  0  0  0  0  0
  -24.4778  -12.2562   -8.9056 Cl  0  0  0  0  0  0  0  0  0  0  0  0
  -23.8772  -12.0843   -6.2835 C   0  0  0  0  0  0  0  0  0  0  0  0
  -29.3610  -11.0529   -5.4716 O   0  0  0  0  0  0  0  0  0  0  0  0
  -29.6269  -12.1961   -6.3096 C   0  0  0  0  0  0  0  0  0  0  0  0
  -28.6790  -12.3171   -7.4904 C   0  0  0  0  0  0  0  0  0  0  0  0
  -29.3460  -11.5479   -8.6157 C   0  0  0  0  0  0  0  0  0  0  0  0
  -30.7096  -11.3230   -8.2546 O   0  0  0  0  0  0  0  0  0  0  0  0
  -30.9662  -11.9936   -7.0134 C   0  0  0  0  0  0  0  0  0  0  0  0
 23 24  1  0  0  0
 24 17  1  0  0  0
 17 18  1  0  0  0
 17 22  2  0  0  0
 18 19  2  0  0  0
 19 15  1  0  0  0
 19 20  1  0  0  0
 15 16  2  0  0  0
 16 11  1  0  0  0
 11 12  2  0  0  0
 11 13  1  0  0  0
 13  1  1  0  0  0
 13 14  1  0  0  0
  1  2  1  0  0  0
  1 10  2  0  0  0
  2  3  2  0  0  0
  3  4  1  0  0  0
  3  8  1  0  0  0
  4 29  1  0  0  0
  4  5  2  0  0  0
 29 31  1  0  0  0
 29 30  1  0  0  0
 31 32  1  0  0  0
 31 38  2  0  0  0
 32 33  2  0  0  0
 33 34  1  0  0  0
 34 35  1  0  0  0
 34 36  2  0  0  0
 36 37  1  0  0  0
 36 38  1  0  0  0
  5  6  1  0  0  0
  6  7  2  0  0  0
  7  8  1  0  0  0
  8  9  2  0  0  0
  9 10  1  0  0  0
 10 39  1  0  0  0
 39 40  1  0  0  0
 40 41  1  0  0  0
 40 44  1  0  0  0
 41 42  1  0  0  0
 42 43  1  0  0  0
 43 44  1  0  0  0
 20 21  2  0  0  0
 21 25  1  0  0  0
 21 22  1  0  0  0
 25 26  1  0  0  0
 22 27  1  0  0  0
 27 28  1  0  0  0
M  END
> <minimizedAffinity>
-7.14257

$$$$
