CHEMBL3633304


 36 39  0  0  0  0  0  0  0  0999 V2000
  -29.8397   -6.0564   -6.5044 C   0  0  0  0  0  0  0  0  0  0  0  0
  -29.3832   -6.0090   -5.1711 C   0  0  0  0  0  0  0  0  0  0  0  0
  -28.6590   -4.9255   -4.6818 C   0  0  0  0  0  0  0  0  0  0  0  0
  -28.3843   -3.8489   -5.5151 C   0  0  0  0  0  0  0  0  0  0  0  0
  -28.7859   -3.8668   -6.8532 C   0  0  0  0  0  0  0  0  0  0  0  0
  -29.5049   -4.9715   -7.3380 C   0  0  0  0  0  0  0  0  0  0  0  0
  -27.7880   -7.6511   -8.6870 N   0  0  0  0  0  0  0  0  0  0  0  0
  -28.9105   -8.3897   -8.7028 C   0  0  0  0  0  0  0  0  0  0  0  0
  -28.9965   -9.4517   -9.4992 N   0  0  0  0  0  0  0  0  0  0  0  0
  -30.2332   -9.9072   -9.2882 N   0  0  0  0  0  0  0  0  0  0  0  0
  -30.9497   -9.1915   -8.3692 C   0  0  0  0  0  0  0  0  0  0  0  0
  -32.2584   -9.3784   -7.9149 C   0  0  0  0  0  0  0  0  0  0  0  0
  -32.7291   -8.4927   -6.9553 C   0  0  0  0  0  0  0  0  0  0  0  0
  -31.9181   -7.4600   -6.4908 C   0  0  0  0  0  0  0  0  0  0  0  0
  -30.5972   -7.2394   -6.9699 C   0  0  0  0  0  0  0  0  0  0  0  0
  -30.1029   -8.1636   -7.9383 C   0  0  0  0  0  0  0  0  0  0  0  0
  -27.1379   -7.8788   -9.4326 H   0  0  0  0  0  0  0  0  0  0  0  0
  -27.8783   -6.6517   -8.5478 H   0  0  0  0  0  0  0  0  0  0  0  0
  -30.5416  -10.7180   -9.8111 H   0  0  0  0  0  0  0  0  0  0  0  0
  -28.5071   -2.7893   -7.7290 N   0  0  0  0  0  0  0  0  0  0  0  0
  -27.8051   -2.9295   -8.9124 C   0  0  0  0  0  0  0  0  0  0  0  0
  -27.4729   -4.0069   -9.4032 O   0  0  0  0  0  0  0  0  0  0  0  0
  -27.4915   -1.7069   -9.4874 N   0  0  0  0  0  0  0  0  0  0  0  0
  -29.1071   -1.9786   -7.6684 H   0  0  0  0  0  0  0  0  0  0  0  0
  -27.2751   -0.9814   -8.8166 H   0  0  0  0  0  0  0  0  0  0  0  0
  -26.8443   -1.6422  -10.7417 C   0  0  0  0  0  0  0  0  0  0  0  0
  -27.5999   -1.7556  -11.9037 C   0  0  0  0  0  0  0  0  0  0  0  0
  -26.9797   -1.6177  -13.1476 C   0  0  0  0  0  0  0  0  0  0  0  0
  -25.5944   -1.4136  -13.2473 C   0  0  0  0  0  0  0  0  0  0  0  0
  -24.9534   -1.2738  -14.8404 Cl  0  0  0  0  0  0  0  0  0  0  0  0
  -24.8118   -1.3396  -12.0940 C   0  0  0  0  0  0  0  0  0  0  0  0
  -25.4601   -1.4565  -10.8424 C   0  0  0  0  0  0  0  0  0  0  0  0
  -23.3188   -1.1356  -12.0745 C   0  0  0  0  0  0  0  0  0  0  0  0
  -22.6576   -1.3612  -13.2393 F   0  0  0  0  0  0  0  0  0  0  0  0
  -22.9757    0.1317  -11.7020 F   0  0  0  0  0  0  0  0  0  0  0  0
  -22.7132   -1.9533  -11.1615 F   0  0  0  0  0  0  0  0  0  0  0  0
  7  8  1  0  0  0
  7 17  1  0  0  0
  7 18  1  0  0  0
  8  9  2  0  0  0
  8 16  1  0  0  0
  9 10  1  0  0  0
 10 11  1  0  0  0
 10 19  1  0  0  0
 11 12  1  0  0  0
 11 16  2  0  0  0
 12 13  2  0  0  0
 13 14  1  0  0  0
 14 15  2  0  0  0
 15  1  1  0  0  0
 15 16  1  0  0  0
  1  2  1  0  0  0
  1  6  2  0  0  0
  2  3  2  0  0  0
  3  4  1  0  0  0
  4  5  2  0  0  0
  5 20  1  0  0  0
  5  6  1  0  0  0
 20 21  1  0  0  0
 20 24  1  0  0  0
 21 22  2  0  0  0
 21 23  1  0  0  0
 23 26  1  0  0  0
 23 25  1  0  0  0
 26 27  1  0  0  0
 26 32  2  0  0  0
 27 28  2  0  0  0
 28 29  1  0  0  0
 29 30  1  0  0  0
 29 31  2  0  0  0
 31 33  1  0  0  0
 31 32  1  0  0  0
 33 34  1  0  0  0
 33 35  1  0  0  0
 33 36  1  0  0  0
M  END
> <minimizedAffinity>
-11.12663

$$$$
