CHEMBL469038


 31 35  0  0  0  0  0  0  0  0999 V2000
  -28.6689   -1.1145   -5.9047 C   0  0  0  0  0  0  0  0  0  0  0  0
  -29.5546   -0.4627   -5.0443 C   0  0  0  0  0  0  0  0  0  0  0  0
  -29.9705    0.8349   -5.3301 C   0  0  0  0  0  0  0  0  0  0  0  0
  -29.4829    1.4754   -6.4631 C   0  0  0  0  0  0  0  0  0  0  0  0
  -28.6477    0.7927   -7.3514 C   0  0  0  0  0  0  0  0  0  0  0  0
  -28.2499   -0.5304   -7.1189 C   0  0  0  0  0  0  0  0  0  0  0  0
  -26.7294   -2.3187   -5.2504 O   0  0  0  0  0  0  0  0  0  0  0  0
  -27.9420   -2.3298   -5.3572 C   0  0  0  0  0  0  0  0  0  0  0  0
  -28.6873   -3.4401   -4.8385 C   0  0  0  0  0  0  0  0  0  0  0  0
  -28.5277   -3.9106   -3.5407 C   0  0  0  0  0  0  0  0  0  0  0  0
  -29.3232   -5.0189   -3.4292 N   0  0  0  0  0  0  0  0  0  0  0  0
  -29.4954   -5.5280   -4.6933 C   0  0  0  0  0  0  0  0  0  0  0  0
  -29.6802   -6.8297   -5.1603 C   0  0  0  0  0  0  0  0  0  0  0  0
  -29.9166   -6.9671   -6.5298 C   0  0  0  0  0  0  0  0  0  0  0  0
  -30.1114   -5.8520   -7.3497 C   0  0  0  0  0  0  0  0  0  0  0  0
  -29.8911   -4.5606   -6.8629 C   0  0  0  0  0  0  0  0  0  0  0  0
  -29.4374   -4.4241   -5.5420 C   0  0  0  0  0  0  0  0  0  0  0  0
  -29.6260   -5.4550   -2.5666 H   0  0  0  0  0  0  0  0  0  0  0  0
  -27.4628   -1.2176   -8.0343 N   0  0  0  0  0  0  0  0  0  0  0  0
  -26.5837   -1.5690   -7.6601 H   0  0  0  0  0  0  0  0  0  0  0  0
  -27.9977   -1.9821   -9.1466 C   0  0  0  0  0  0  0  0  0  0  0  0
  -27.1459   -1.8169  -10.3931 C   0  0  0  0  0  0  0  0  0  0  0  0
  -27.7629   -1.7667  -11.6547 C   0  0  0  0  0  0  0  0  0  0  0  0
  -27.0197   -1.5766  -12.8315 C   0  0  0  0  0  0  0  0  0  0  0  0
  -25.6296   -1.4023  -12.7331 C   0  0  0  0  0  0  0  0  0  0  0  0
  -24.5529   -1.2095  -13.6272 C   0  0  0  0  0  0  0  0  0  0  0  0
  -23.3830   -1.0431  -13.0027 N   0  0  0  0  0  0  0  0  0  0  0  0
  -23.7127   -1.1383  -11.6998 N   0  0  0  0  0  0  0  0  0  0  0  0
  -25.0393   -1.3984  -11.4776 C   0  0  0  0  0  0  0  0  0  0  0  0
  -25.7569   -1.6084  -10.2962 C   0  0  0  0  0  0  0  0  0  0  0  0
  -22.9876   -1.0079  -11.0033 H   0  0  0  0  0  0  0  0  0  0  0  0
  7  8  2  0  0  0
  8  1  1  0  0  0
  8  9  1  0  0  0
  1  2  1  0  0  0
  1  6  2  0  0  0
  2  3  2  0  0  0
  3  4  1  0  0  0
  4  5  2  0  0  0
  5  6  1  0  0  0
  6 19  1  0  0  0
 19 21  1  0  0  0
 19 20  1  0  0  0
 21 22  1  0  0  0
 22 23  1  0  0  0
 22 30  2  0  0  0
 23 24  2  0  0  0
 24 25  1  0  0  0
 25 26  1  0  0  0
 25 29  2  0  0  0
 26 27  2  0  0  0
 27 28  1  0  0  0
 28 29  1  0  0  0
 28 31  1  0  0  0
 29 30  1  0  0  0
  9 10  2  0  0  0
  9 17  1  0  0  0
 10 11  1  0  0  0
 11 12  1  0  0  0
 11 18  1  0  0  0
 12 13  1  0  0  0
 12 17  2  0  0  0
 13 14  2  0  0  0
 14 15  1  0  0  0
 15 16  2  0  0  0
 16 17  1  0  0  0
M  END
> <minimizedAffinity>
-9.93614

$$$$
