CHEMBL3426917


 40 43  0  0  0  0  0  0  0  0999 V2000
  -13.4016    4.0691  -19.2689 C   0  0  0  0  0  0  0  0  0  0  0  0
  -12.9464    3.1241  -18.3179 C   0  0  0  0  0  0  0  0  0  0  0  0
  -13.7118    2.8088  -17.1896 C   0  0  0  0  0  0  0  0  0  0  0  0
  -13.2553    1.8732  -16.3120 N   0  0  0  0  0  0  0  0  0  0  0  0
  -13.9713    1.5024  -15.2241 C   0  0  0  0  0  0  0  0  0  0  0  0
  -15.2333    2.0518  -14.9888 C   0  0  0  0  0  0  0  0  0  0  0  0
  -15.7649    3.0118  -15.8585 C   0  0  0  0  0  0  0  0  0  0  0  0
  -14.9596    3.4365  -16.9685 C   0  0  0  0  0  0  0  0  0  0  0  0
  -15.3432    4.4529  -17.8696 C   0  0  0  0  0  0  0  0  0  0  0  0
  -14.6176    4.7501  -19.0163 C   0  0  0  0  0  0  0  0  0  0  0  0
  -10.7794    4.5055  -21.0723 H   0  0  0  0  0  0  0  0  0  0  0  0
  -11.5288    5.0692  -20.4800 C   0  0  0  0  0  0  0  0  0  0  0  0
  -11.0680    5.2482  -19.4851 H   0  0  0  0  0  0  0  0  0  0  0  0
  -11.7319    6.0379  -20.9801 H   0  0  0  0  0  0  0  0  0  0  0  0
  -12.6943    4.3216  -20.4009 O   0  0  0  0  0  0  0  0  0  0  0  0
  -15.2046    5.6579  -19.8435 O   0  0  0  0  0  0  0  0  0  0  0  0
  -14.9544    6.9985  -20.0119 C   0  0  0  0  0  0  0  0  0  0  0  0
  -15.3227    7.5724  -19.1393 H   0  0  0  0  0  0  0  0  0  0  0  0
  -13.8773    7.1779  -20.2057 H   0  0  0  0  0  0  0  0  0  0  0  0
  -15.5124    7.3329  -20.9142 H   0  0  0  0  0  0  0  0  0  0  0  0
  -17.0351    3.4566  -15.5968 O   0  0  0  0  0  0  0  0  0  0  0  0
  -18.1075    2.6864  -15.2612 C   0  0  0  0  0  0  0  0  0  0  0  0
  -18.0684    1.2888  -15.3644 C   0  0  0  0  0  0  0  0  0  0  0  0
  -19.2263    0.5361  -15.2168 C   0  0  0  0  0  0  0  0  0  0  0  0
  -20.4750    1.1449  -14.9347 C   0  0  0  0  0  0  0  0  0  0  0  0
  -20.4757    2.5465  -14.6966 C   0  0  0  0  0  0  0  0  0  0  0  0
  -21.9444    3.4230  -14.2817 Cl  0  0  0  0  0  0  0  0  0  0  0  0
  -19.3000    3.2996  -14.8668 C   0  0  0  0  0  0  0  0  0  0  0  0
  -21.7188    0.3980  -14.9225 N   0  0  0  0  0  0  0  0  0  0  0  0
  -22.3989    0.0199  -13.7900 C   0  0  0  0  0  0  0  0  0  0  0  0
  -21.9756    0.3270  -12.6884 O   0  0  0  0  0  0  0  0  0  0  0  0
  -23.5248   -0.7530  -13.8669 N   0  0  0  0  0  0  0  0  0  0  0  0
  -22.0790    0.0440  -15.8217 H   0  0  0  0  0  0  0  0  0  0  0  0
  -23.8598   -1.0816  -14.7856 H   0  0  0  0  0  0  0  0  0  0  0  0
  -24.2584   -1.1333  -12.6955 C   0  0  0  0  0  0  0  0  0  0  0  0
  -25.6252   -1.0539  -12.5144 C   0  0  0  0  0  0  0  0  0  0  0  0
  -25.8121   -1.5136  -11.2215 C   0  0  0  0  0  0  0  0  0  0  0  0
  -27.0967   -1.6489  -10.4759 C   0  0  0  0  0  0  0  0  0  0  0  0
  -24.6461   -1.8287  -10.7115 O   0  0  0  0  0  0  0  0  0  0  0  0
  -23.6931   -1.6173  -11.5693 N   0  0  0  0  0  0  0  0  0  0  0  0
 11 12  1  0  0  0
 12 13  1  0  0  0
 12 14  1  0  0  0
 12 15  1  0  0  0
 15  1  1  0  0  0
  1  2  1  0  0  0
  1 10  2  0  0  0
  2  3  2  0  0  0
  3  4  1  0  0  0
  3  8  1  0  0  0
  4  5  2  0  0  0
  5  6  1  0  0  0
  6  7  2  0  0  0
  7 21  1  0  0  0
  7  8  1  0  0  0
 21 22  1  0  0  0
 22 23  1  0  0  0
 22 28  2  0  0  0
 23 24  2  0  0  0
 24 25  1  0  0  0
 25 29  1  0  0  0
 25 26  2  0  0  0
 29 30  1  0  0  0
 29 33  1  0  0  0
 30 31  2  0  0  0
 30 32  1  0  0  0
 32 35  1  0  0  0
 32 34  1  0  0  0
 35 36  1  0  0  0
 35 40  2  0  0  0
 36 37  2  0  0  0
 37 38  1  0  0  0
 37 39  1  0  0  0
 39 40  1  0  0  0
 26 27  1  0  0  0
 26 28  1  0  0  0
  8  9  2  0  0  0
  9 10  1  0  0  0
 10 16  1  0  0  0
 16 17  1  0  0  0
 17 18  1  0  0  0
 17 19  1  0  0  0
 17 20  1  0  0  0
M  ISO 1  11   2
M  ISO 1  13   2
M  ISO 1  14   2
M  ISO 1  18   2
M  ISO 1  19   2
M  ISO 1  20   2
M  END
> <minimizedAffinity>
-8.91171

$$$$
