CHEMBL394789


 31 34  0  0  0  0  0  0  0  0999 V2000
  -20.3333    2.0345  -14.8833 C   0  0  0  0  0  0  0  0  0  0  0  0
  -19.6504    0.8356  -15.1038 C   0  0  0  0  0  0  0  0  0  0  0  0
  -18.2803    0.8346  -15.3866 C   0  0  0  0  0  0  0  0  0  0  0  0
  -17.5653    2.0368  -15.4912 C   0  0  0  0  0  0  0  0  0  0  0  0
  -18.2894    3.2329  -15.4041 C   0  0  0  0  0  0  0  0  0  0  0  0
  -19.6603    3.2371  -15.0900 C   0  0  0  0  0  0  0  0  0  0  0  0
  -16.1009    2.0218  -15.6719 C   0  0  0  0  0  0  0  0  0  0  0  0
  -15.5628    2.5869  -16.8156 C   0  0  0  0  0  0  0  0  0  0  0  0
  -13.8744    2.4679  -16.9046 S   0  0  0  0  0  0  0  0  0  0  0  0
  -13.7829    1.6614  -15.3915 C   0  0  0  0  0  0  0  0  0  0  0  0
  -12.5978    1.2353  -14.7789 C   0  0  0  0  0  0  0  0  0  0  0  0
  -12.7363    0.6072  -13.5648 C   0  0  0  0  0  0  0  0  0  0  0  0
  -13.9177    0.3689  -12.9774 N   0  0  0  0  0  0  0  0  0  0  0  0
  -15.0684    0.7558  -13.5728 C   0  0  0  0  0  0  0  0  0  0  0  0
  -16.2115    0.3779  -12.8789 N   0  0  0  0  0  0  0  0  0  0  0  0
  -15.0464    1.4559  -14.8139 C   0  0  0  0  0  0  0  0  0  0  0  0
  -15.9373   -0.2834  -12.1589 H   0  0  0  0  0  0  0  0  0  0  0  0
  -16.9497    0.0533  -13.4914 H   0  0  0  0  0  0  0  0  0  0  0  0
  -23.5511    1.0040  -13.5153 N   0  0  0  0  0  0  0  0  0  0  0  0
  -22.2622    0.8516  -14.0080 C   0  0  0  0  0  0  0  0  0  0  0  0
  -21.6661   -0.2173  -14.0677 O   0  0  0  0  0  0  0  0  0  0  0  0
  -21.6632    2.0493  -14.3826 N   0  0  0  0  0  0  0  0  0  0  0  0
  -23.9225    1.9426  -13.4716 H   0  0  0  0  0  0  0  0  0  0  0  0
  -21.9229    2.8482  -13.8260 H   0  0  0  0  0  0  0  0  0  0  0  0
  -24.9761   -0.8278  -15.3719 C   0  0  0  0  0  0  0  0  0  0  0  0
  -25.0600   -0.9136  -13.8725 C   0  0  0  0  0  0  0  0  0  0  0  0
  -25.8834   -1.9248  -13.3281 C   0  0  0  0  0  0  0  0  0  0  0  0
  -26.0350   -2.0785  -11.9521 C   0  0  0  0  0  0  0  0  0  0  0  0
  -25.3410   -1.2425  -11.0952 C   0  0  0  0  0  0  0  0  0  0  0  0
  -24.5090   -0.2520  -11.6191 C   0  0  0  0  0  0  0  0  0  0  0  0
  -24.3639   -0.0489  -13.0019 C   0  0  0  0  0  0  0  0  0  0  0  0
 25 26  1  0  0  0
 26 27  1  0  0  0
 26 31  2  0  0  0
 27 28  2  0  0  0
 28 29  1  0  0  0
 29 30  2  0  0  0
 30 31  1  0  0  0
 31 19  1  0  0  0
 19 20  1  0  0  0
 19 23  1  0  0  0
 20 21  2  0  0  0
 20 22  1  0  0  0
 22  1  1  0  0  0
 22 24  1  0  0  0
  1  2  1  0  0  0
  1  6  2  0  0  0
  2  3  2  0  0  0
  3  4  1  0  0  0
  4  7  1  0  0  0
  4  5  2  0  0  0
  7  8  2  0  0  0
  7 16  1  0  0  0
  8  9  1  0  0  0
  9 10  1  0  0  0
 10 11  1  0  0  0
 10 16  2  0  0  0
 11 12  2  0  0  0
 12 13  1  0  0  0
 13 14  2  0  0  0
 14 15  1  0  0  0
 14 16  1  0  0  0
 15 17  1  0  0  0
 15 18  1  0  0  0
  5  6  1  0  0  0
M  END
> <minimizedAffinity>
-9.54060

$$$$
