CHEMBL459478


 41 46  0  0  0  0  0  0  0  0999 V2000
  -30.1756   -9.6823   -6.6840 C   0  0  0  0  0  0  0  0  0  0  0  0
  -29.5254   -9.4903   -5.3963 C   0  0  0  0  0  0  0  0  0  0  0  0
  -29.3076   -8.1485   -4.8451 C   0  0  0  0  0  0  0  0  0  0  0  0
  -30.0635   -7.0702   -5.3149 C   0  0  0  0  0  0  0  0  0  0  0  0
  -30.9766   -7.4239   -6.3102 C   0  0  0  0  0  0  0  0  0  0  0  0
  -31.0146   -8.6658   -6.9899 C   0  0  0  0  0  0  0  0  0  0  0  0
  -31.9178   -8.8101   -7.9595 F   0  0  0  0  0  0  0  0  0  0  0  0
  -29.9618   -5.6974   -4.8332 N   0  0  0  0  0  0  0  0  0  0  0  0
  -30.7726   -5.1678   -3.8029 C   0  0  0  0  0  0  0  0  0  0  0  0
  -31.6453   -5.8003   -3.2064 O   0  0  0  0  0  0  0  0  0  0  0  0
  -29.2458   -5.1010   -5.2408 H   0  0  0  0  0  0  0  0  0  0  0  0
  -30.6204   -3.7011   -3.4185 C   0  0  0  0  0  0  0  0  0  0  0  0
  -29.2783   -3.4637   -2.6945 C   0  0  0  0  0  0  0  0  0  0  0  0
  -28.8911   -2.0303   -3.0337 C   0  0  0  0  0  0  0  0  0  0  0  0
  -29.4977   -1.8048   -4.3143 N   0  0  0  0  0  0  0  0  0  0  0  0
  -30.4477   -2.7892   -4.6326 C   0  0  0  0  0  0  0  0  0  0  0  0
  -31.0605   -2.8997   -5.6847 O   0  0  0  0  0  0  0  0  0  0  0  0
  -29.1808   -0.7149   -5.1564 C   0  0  0  0  0  0  0  0  0  0  0  0
  -30.0997    0.3229   -5.3403 C   0  0  0  0  0  0  0  0  0  0  0  0
  -29.7903    1.4012   -6.1760 C   0  0  0  0  0  0  0  0  0  0  0  0
  -28.6974    1.3165   -7.0301 C   0  0  0  0  0  0  0  0  0  0  0  0
  -27.8652    0.2052   -6.9568 C   0  0  0  0  0  0  0  0  0  0  0  0
  -27.9930   -0.6901   -5.8887 C   0  0  0  0  0  0  0  0  0  0  0  0
  -29.9881  -10.7576   -7.5747 O   0  0  0  0  0  0  0  0  0  0  0  0
  -25.8642  -11.9393   -7.5315 C   0  0  0  0  0  0  0  0  0  0  0  0
  -25.8385  -11.8920   -8.8874 C   0  0  0  0  0  0  0  0  0  0  0  0
  -27.0657  -11.6096   -9.1508 C   0  0  0  0  0  0  0  0  0  0  0  0
  -27.5780  -11.5473  -10.2880 N   0  0  0  0  0  0  0  0  0  0  0  0
  -28.0339  -11.4983  -11.4074 C   0  0  0  0  0  0  0  0  0  0  0  0
  -29.1725  -11.2858  -10.5293 C   0  0  0  0  0  0  0  0  0  0  0  0
  -29.3758  -11.2046   -8.7656 C   0  0  0  0  0  0  0  0  0  0  0  0
  -28.0482  -11.4018   -8.3047 C   0  0  0  0  0  0  0  0  0  0  0  0
  -27.3920  -11.7226   -6.8031 S   0  0  0  0  0  0  0  0  0  0  0  0
  -23.2643  -12.2848   -5.2184 N   0  0  0  0  0  0  0  0  0  0  0  0
  -22.6186  -11.8045   -6.3278 C   0  0  0  0  0  0  0  0  0  0  0  0
  -23.4281  -11.6441   -7.3453 N   0  0  0  0  0  0  0  0  0  0  0  0
  -24.6139  -12.0397   -6.8480 C   0  0  0  0  0  0  0  0  0  0  0  0
  -24.5665  -12.4472   -5.5426 C   0  0  0  0  0  0  0  0  0  0  0  0
  -21.1604  -12.4655   -4.0025 C   0  0  0  0  0  0  0  0  0  0  0  0
  -22.6840  -12.4639   -3.9028 C   0  0  0  0  0  0  0  0  0  0  0  0
  -23.1290  -11.3876   -2.9122 C   0  0  0  0  0  0  0  0  0  0  0  0
 39 40  1  0  0  0
 40 41  1  0  0  0
 40 34  1  0  0  0
 34 35  1  0  0  0
 34 38  1  0  0  0
 35 36  2  0  0  0
 36 37  1  0  0  0
 37 25  1  0  0  0
 37 38  2  0  0  0
 25 26  2  0  0  0
 25 33  1  0  0  0
 26 27  1  0  0  0
 27 28  1  0  0  0
 27 32  2  0  0  0
 28 29  2  0  0  0
 29 30  1  0  0  0
 30 31  2  0  0  0
 31 24  1  0  0  0
 31 32  1  0  0  0
 24  1  1  0  0  0
  1  2  1  0  0  0
  1  6  2  0  0  0
  2  3  2  0  0  0
  3  4  1  0  0  0
  4  8  1  0  0  0
  4  5  2  0  0  0
  8  9  1  0  0  0
  8 11  1  0  0  0
  9 10  2  0  0  0
  9 12  1  0  0  0
 12 13  1  0  0  0
 12 16  1  0  0  0
 13 14  1  0  0  0
 14 15  1  0  0  0
 15 18  1  0  0  0
 15 16  1  0  0  0
 18 19  1  0  0  0
 18 23  2  0  0  0
 19 20  2  0  0  0
 20 21  1  0  0  0
 21 22  2  0  0  0
 22 23  1  0  0  0
 16 17  2  0  0  0
  5  6  1  0  0  0
  6  7  1  0  0  0
 32 33  1  0  0  0
M  END
> <minimizedAffinity>
-7.76150

$$$$
