CHEMBL221574


 40 43  0  0  0  0  0  0  0  0999 V2000
  -29.7347  -10.9206   -8.0109 N   0  0  0  0  0  0  0  0  0  0  0  0
  -30.2073   -9.7808   -8.5139 N   0  0  0  0  0  0  0  0  0  0  0  0
  -29.9352   -8.8896   -7.5773 C   0  0  0  0  0  0  0  0  0  0  0  0
  -30.1689   -7.5905   -7.8186 N   0  0  0  0  0  0  0  0  0  0  0  0
  -29.3910   -9.4766   -6.3813 C   0  0  0  0  0  0  0  0  0  0  0  0
  -28.9937   -9.0527   -5.0725 C   0  0  0  0  0  0  0  0  0  0  0  0
  -28.5091  -10.0619   -4.1952 C   0  0  0  0  0  0  0  0  0  0  0  0
  -28.4006  -11.3979   -4.5756 C   0  0  0  0  0  0  0  0  0  0  0  0
  -28.7836  -11.8110   -5.8497 C   0  0  0  0  0  0  0  0  0  0  0  0
  -29.2790  -10.8320   -6.7218 C   0  0  0  0  0  0  0  0  0  0  0  0
  -30.4297   -7.3546   -8.7682 H   0  0  0  0  0  0  0  0  0  0  0  0
  -29.6142   -6.8761   -7.3638 H   0  0  0  0  0  0  0  0  0  0  0  0
  -29.0772   -7.6518   -4.6246 C   0  0  0  0  0  0  0  0  0  0  0  0
  -30.2851   -7.1096   -4.1771 C   0  0  0  0  0  0  0  0  0  0  0  0
  -30.4207   -5.7475   -3.9058 C   0  0  0  0  0  0  0  0  0  0  0  0
  -29.3188   -4.8923   -3.9319 C   0  0  0  0  0  0  0  0  0  0  0  0
  -28.0808   -5.4274   -4.2814 C   0  0  0  0  0  0  0  0  0  0  0  0
  -27.9670   -6.7860   -4.6327 C   0  0  0  0  0  0  0  0  0  0  0  0
  -29.4254   -3.5148   -3.6301 N   0  0  0  0  0  0  0  0  0  0  0  0
  -29.4442   -2.5227   -4.5908 C   0  0  0  0  0  0  0  0  0  0  0  0
  -29.5178   -2.7329   -5.7981 O   0  0  0  0  0  0  0  0  0  0  0  0
  -29.3413   -1.2466   -4.0527 N   0  0  0  0  0  0  0  0  0  0  0  0
  -29.7463   -3.2542   -2.7072 H   0  0  0  0  0  0  0  0  0  0  0  0
  -28.7073   -1.1807   -3.2654 H   0  0  0  0  0  0  0  0  0  0  0  0
  -29.2800   -0.1538   -4.9616 C   0  0  0  0  0  0  0  0  0  0  0  0
  -30.4388    0.5438   -5.3296 C   0  0  0  0  0  0  0  0  0  0  0  0
  -30.4202    1.4543   -6.3879 C   0  0  0  0  0  0  0  0  0  0  0  0
  -31.6937    2.0960   -6.8542 C   0  0  0  0  0  0  0  0  0  0  0  0
  -29.2135    1.6912   -7.0603 C   0  0  0  0  0  0  0  0  0  0  0  0
  -28.0407    1.0479   -6.6542 C   0  0  0  0  0  0  0  0  0  0  0  0
  -28.0751    0.1442   -5.5970 C   0  0  0  0  0  0  0  0  0  0  0  0
  -26.9600   -0.5214   -5.2605 F   0  0  0  0  0  0  0  0  0  0  0  0
  -29.7827  -12.0935   -8.7818 O   0  0  0  0  0  0  0  0  0  0  0  0
  -29.0234  -11.8947   -9.9865 C   0  0  0  0  0  0  0  0  0  0  0  0
  -27.5675  -12.3227   -9.7652 C   0  0  0  0  0  0  0  0  0  0  0  0
  -26.5839  -11.2149   -9.7498 N   0  0  0  0  0  0  0  0  0  0  0  0
  -26.9853   -8.7180   -9.7780 C   0  0  0  0  0  0  0  0  0  0  0  0
  -27.1360  -10.0623  -10.4851 C   0  0  0  0  0  0  0  0  0  0  0  0
  -26.0782  -10.8781   -8.4080 C   0  0  0  0  0  0  0  0  0  0  0  0
  -25.5261  -12.0370   -7.5822 C   0  0  0  0  0  0  0  0  0  0  0  0
 37 38  1  0  0  0
 38 36  1  0  0  0
 36 39  1  0  0  0
 36 35  1  0  0  0
 39 40  1  0  0  0
 35 34  1  0  0  0
 34 33  1  0  0  0
 33  1  1  0  0  0
  1  2  1  0  0  0
  1 10  1  0  0  0
  2  3  2  0  0  0
  3  4  1  0  0  0
  3  5  1  0  0  0
  4 11  1  0  0  0
  4 12  1  0  0  0
  5  6  1  0  0  0
  5 10  2  0  0  0
  6 13  1  0  0  0
  6  7  2  0  0  0
 13 14  1  0  0  0
 13 18  2  0  0  0
 14 15  2  0  0  0
 15 16  1  0  0  0
 16 19  1  0  0  0
 16 17  2  0  0  0
 19 20  1  0  0  0
 19 23  1  0  0  0
 20 21  2  0  0  0
 20 22  1  0  0  0
 22 25  1  0  0  0
 22 24  1  0  0  0
 25 26  1  0  0  0
 25 31  2  0  0  0
 26 27  2  0  0  0
 27 28  1  0  0  0
 27 29  1  0  0  0
 29 30  2  0  0  0
 30 31  1  0  0  0
 31 32  1  0  0  0
 17 18  1  0  0  0
  7  8  1  0  0  0
  8  9  2  0  0  0
  9 10  1  0  0  0
M  END
> <minimizedAffinity>
-7.34256

$$$$
