CHEMBL256974


 37 40  0  0  0  0  0  0  0  0999 V2000
  -15.5190   -4.4334  -11.5343 C   0  0  0  0  0  0  0  0  0  0  0  0
  -15.5525   -3.1363  -11.0233 C   0  0  0  0  0  0  0  0  0  0  0  0
  -15.7267   -2.0574  -11.8884 C   0  0  0  0  0  0  0  0  0  0  0  0
  -15.9047   -2.2591  -13.2643 C   0  0  0  0  0  0  0  0  0  0  0  0
  -16.0066   -3.5591  -13.7489 C   0  0  0  0  0  0  0  0  0  0  0  0
  -15.8160   -4.6346  -12.8818 C   0  0  0  0  0  0  0  0  0  0  0  0
  -15.9150   -5.8810  -13.3682 F   0  0  0  0  0  0  0  0  0  0  0  0
  -15.9959   -1.0935  -14.0427 N   0  0  0  0  0  0  0  0  0  0  0  0
  -16.8240   -1.0590  -14.6402 H   0  0  0  0  0  0  0  0  0  0  0  0
  -15.2753    0.0774  -14.0640 C   0  0  0  0  0  0  0  0  0  0  0  0
  -13.6819    0.3425  -13.6415 S   0  0  0  0  0  0  0  0  0  0  0  0
  -16.0190    1.1954  -14.4228 N   0  0  0  0  0  0  0  0  0  0  0  0
  -16.3613    1.6146  -15.7020 C   0  0  0  0  0  0  0  0  0  0  0  0
  -15.9334    1.0810  -16.7249 O   0  0  0  0  0  0  0  0  0  0  0  0
  -16.3873    1.7126  -13.6344 H   0  0  0  0  0  0  0  0  0  0  0  0
  -17.3423    2.7642  -15.7565 C   0  0  0  0  0  0  0  0  0  0  0  0
  -18.7315    2.4046  -15.3000 C   0  0  0  0  0  0  0  0  0  0  0  0
  -19.1781    1.0751  -15.3302 C   0  0  0  0  0  0  0  0  0  0  0  0
  -20.4435    0.7429  -14.8444 C   0  0  0  0  0  0  0  0  0  0  0  0
  -21.2721    1.7314  -14.3190 C   0  0  0  0  0  0  0  0  0  0  0  0
  -20.8383    3.0546  -14.2813 C   0  0  0  0  0  0  0  0  0  0  0  0
  -19.5735    3.3902  -14.7667 C   0  0  0  0  0  0  0  0  0  0  0  0
  -15.2340   -5.5495  -10.7827 O   0  0  0  0  0  0  0  0  0  0  0  0
  -11.6034   -4.3342   -8.1954 C   0  0  0  0  0  0  0  0  0  0  0  0
  -10.8851   -5.2384   -8.9524 C   0  0  0  0  0  0  0  0  0  0  0  0
  -11.6882   -5.9259   -9.9063 C   0  0  0  0  0  0  0  0  0  0  0  0
  -11.2445   -6.8969  -10.7487 N   0  0  0  0  0  0  0  0  0  0  0  0
  -12.1795   -7.4609  -11.5338 C   0  0  0  0  0  0  0  0  0  0  0  0
  -13.5129   -7.1018  -11.5676 C   0  0  0  0  0  0  0  0  0  0  0  0
  -13.9441   -6.0368  -10.7753 C   0  0  0  0  0  0  0  0  0  0  0  0
  -13.0096   -5.4850   -9.8869 C   0  0  0  0  0  0  0  0  0  0  0  0
  -13.2359   -4.2669   -8.6990 S   0  0  0  0  0  0  0  0  0  0  0  0
  -10.9824   -4.1175   -5.8871 N   0  0  0  0  0  0  0  0  0  0  0  0
  -11.1005   -3.5145   -7.1084 C   0  0  0  0  0  0  0  0  0  0  0  0
  -10.7710   -2.3388   -7.2310 O   0  0  0  0  0  0  0  0  0  0  0  0
  -10.6018   -3.5776   -5.1240 H   0  0  0  0  0  0  0  0  0  0  0  0
  -11.2075   -5.0926   -5.7487 H   0  0  0  0  0  0  0  0  0  0  0  0
 33 34  1  0  0  0
 33 36  1  0  0  0
 33 37  1  0  0  0
 34 35  2  0  0  0
 34 24  1  0  0  0
 24 25  2  0  0  0
 24 32  1  0  0  0
 25 26  1  0  0  0
 26 27  1  0  0  0
 26 31  2  0  0  0
 27 28  2  0  0  0
 28 29  1  0  0  0
 29 30  2  0  0  0
 30 23  1  0  0  0
 30 31  1  0  0  0
 23  1  1  0  0  0
  1  2  1  0  0  0
  1  6  2  0  0  0
  2  3  2  0  0  0
  3  4  1  0  0  0
  4  8  1  0  0  0
  4  5  2  0  0  0
  8 10  1  0  0  0
  8  9  1  0  0  0
 10 11  2  0  0  0
 10 12  1  0  0  0
 12 13  1  0  0  0
 12 15  1  0  0  0
 13 14  2  0  0  0
 13 16  1  0  0  0
 16 17  1  0  0  0
 17 18  1  0  0  0
 17 22  2  0  0  0
 18 19  2  0  0  0
 19 20  1  0  0  0
 20 21  2  0  0  0
 21 22  1  0  0  0
  5  6  1  0  0  0
  6  7  1  0  0  0
 31 32  1  0  0  0
M  END
> <minimizedAffinity>
-9.97513

$$$$
