CHEMBL3976548


 29 32  0  0  0  0  0  0  0  0999 V2000
  -14.2596   -2.5803  -14.7593 N   0  0  0  0  0  0  0  0  0  0  0  0
  -14.8203   -1.9236  -13.7064 C   0  0  0  0  0  0  0  0  0  0  0  0
  -15.3277   -0.6369  -13.6691 C   0  0  0  0  0  0  0  0  0  0  0  0
  -15.8089   -0.4955  -12.3484 C   0  0  0  0  0  0  0  0  0  0  0  0
  -15.5645   -1.5476  -11.5880 N   0  0  0  0  0  0  0  0  0  0  0  0
  -15.0240   -2.4694  -12.4236 N   0  0  0  0  0  0  0  0  0  0  0  0
  -14.3325   -2.1395  -15.6792 H   0  0  0  0  0  0  0  0  0  0  0  0
  -14.3596   -3.5924  -14.8371 H   0  0  0  0  0  0  0  0  0  0  0  0
  -14.7216   -3.7646  -11.9261 C   0  0  0  0  0  0  0  0  0  0  0  0
  -13.6503   -3.9294  -11.0294 C   0  0  0  0  0  0  0  0  0  0  0  0
  -13.3246   -5.2028  -10.5734 C   0  0  0  0  0  0  0  0  0  0  0  0
  -12.2957   -5.4107   -9.7022 O   0  0  0  0  0  0  0  0  0  0  0  0
  -14.0364   -6.3226  -10.9831 C   0  0  0  0  0  0  0  0  0  0  0  0
  -15.1177   -6.1639  -11.8448 C   0  0  0  0  0  0  0  0  0  0  0  0
  -15.4736   -4.8935  -12.3204 C   0  0  0  0  0  0  0  0  0  0  0  0
  -16.7755   -4.8872  -13.4677 Cl  0  0  0  0  0  0  0  0  0  0  0  0
  -11.9168   -4.5541   -9.4420 H   0  0  0  0  0  0  0  0  0  0  0  0
  -15.4074    0.3649  -14.7587 C   0  0  0  0  0  0  0  0  0  0  0  0
  -14.4159    0.7105  -15.3787 O   0  0  0  0  0  0  0  0  0  0  0  0
  -16.7273    0.8622  -14.9690 C   0  0  0  0  0  0  0  0  0  0  0  0
  -17.9365    0.2044  -14.8041 C   0  0  0  0  0  0  0  0  0  0  0  0
  -18.9673    1.0705  -15.1919 C   0  0  0  0  0  0  0  0  0  0  0  0
  -20.3553    0.9188  -15.2086 C   0  0  0  0  0  0  0  0  0  0  0  0
  -21.0411    1.9871  -14.6531 C   0  0  0  0  0  0  0  0  0  0  0  0
  -20.4937    3.2648  -14.7202 C   0  0  0  0  0  0  0  0  0  0  0  0
  -19.1918    3.4836  -15.2037 C   0  0  0  0  0  0  0  0  0  0  0  0
  -18.4031    2.3371  -15.2687 C   0  0  0  0  0  0  0  0  0  0  0  0
  -17.0379    2.1565  -15.3331 N   0  0  0  0  0  0  0  0  0  0  0  0
  -16.3567    2.8951  -15.4554 H   0  0  0  0  0  0  0  0  0  0  0  0
  1  2  1  0  0  0
  1  7  1  0  0  0
  1  8  1  0  0  0
  2  3  2  0  0  0
  2  6  1  0  0  0
  3 18  1  0  0  0
  3  4  1  0  0  0
 18 19  2  0  0  0
 18 20  1  0  0  0
 20 21  2  0  0  0
 20 28  1  0  0  0
 21 22  1  0  0  0
 22 23  1  0  0  0
 22 27  2  0  0  0
 23 24  2  0  0  0
 24 25  1  0  0  0
 25 26  2  0  0  0
 26 27  1  0  0  0
 27 28  1  0  0  0
 28 29  1  0  0  0
  4  5  2  0  0  0
  5  6  1  0  0  0
  6  9  1  0  0  0
  9 10  1  0  0  0
  9 15  2  0  0  0
 10 11  2  0  0  0
 11 12  1  0  0  0
 11 13  1  0  0  0
 12 17  1  0  0  0
 13 14  2  0  0  0
 14 15  1  0  0  0
 15 16  1  0  0  0
M  END
> <minimizedAffinity>
-8.77622

$$$$
