CHEMBL608533


 44 52  0  0  0  0  0  0  0  0999 V2000
  -26.6815  -10.3809   -3.5567 C   0  0  0  0  0  0  0  0  0  0  0  0
  -25.3258  -11.0756   -4.0812 C   0  0  0  0  0  0  0  0  0  0  0  0
  -25.2538  -10.2340   -5.5313 C   0  0  0  0  0  0  0  0  0  0  0  0
  -26.7788   -9.9549   -6.0814 C   0  0  0  0  0  0  0  0  0  0  0  0
  -26.9648  -11.3920   -5.6691 O   0  0  0  0  0  0  0  0  0  0  0  0
  -27.7898  -11.3614   -4.5709 C   0  0  0  0  0  0  0  0  0  0  0  0
  -28.2823  -12.4633   -3.6108 C   0  0  0  0  0  0  0  0  0  0  0  0
  -28.8546  -11.4810   -5.5125 N   0  0  0  0  0  0  0  0  0  0  0  0
  -28.9379  -11.8029   -6.9733 C   0  0  0  0  0  0  0  0  0  0  0  0
  -27.9024  -11.9458   -7.9622 C   0  0  0  0  0  0  0  0  0  0  0  0
  -28.1018  -11.4609   -9.2606 C   0  0  0  0  0  0  0  0  0  0  0  0
  -29.3668  -11.1199   -9.6903 C   0  0  0  0  0  0  0  0  0  0  0  0
  -30.4582  -11.2217   -8.8150 C   0  0  0  0  0  0  0  0  0  0  0  0
  -30.2700  -11.4765   -7.4143 C   0  0  0  0  0  0  0  0  0  0  0  0
  -31.0481  -11.0841   -6.2052 C   0  0  0  0  0  0  0  0  0  0  0  0
  -32.1135  -10.2528   -6.5526 C   0  0  0  0  0  0  0  0  0  0  0  0
  -31.7939   -8.9023   -6.6753 C   0  0  0  0  0  0  0  0  0  0  0  0
  -30.4540   -8.6030   -6.2881 C   0  0  0  0  0  0  0  0  0  0  0  0
  -29.6538   -7.6229   -6.8697 C   0  0  0  0  0  0  0  0  0  0  0  0
  -29.8439   -6.6516   -7.8591 C   0  0  0  0  0  0  0  0  0  0  0  0
  -28.9031   -5.6437   -7.9140 C   0  0  0  0  0  0  0  0  0  0  0  0
  -28.3042   -5.3526   -6.7031 C   0  0  0  0  0  0  0  0  0  0  0  0
  -27.9250   -6.3954   -5.8479 C   0  0  0  0  0  0  0  0  0  0  0  0
  -28.3202   -7.6910   -6.2248 C   0  0  0  0  0  0  0  0  0  0  0  0
  -28.0399   -9.0214   -5.7398 N   0  0  0  0  0  0  0  0  0  0  0  0
  -29.4405   -9.3725   -5.6889 C   0  0  0  0  0  0  0  0  0  0  0  0
  -29.8894  -10.6695   -5.4722 C   0  0  0  0  0  0  0  0  0  0  0  0
  -32.9299   -8.2414   -7.2822 C   0  0  0  0  0  0  0  0  0  0  0  0
  -33.1637   -7.1039   -7.6447 O   0  0  0  0  0  0  0  0  0  0  0  0
  -33.8658   -9.3039   -7.4353 N   0  0  0  0  0  0  0  0  0  0  0  0
  -33.4465  -10.6138   -6.9889 C   0  0  0  0  0  0  0  0  0  0  0  0
  -34.7576   -9.1220   -7.8683 H   0  0  0  0  0  0  0  0  0  0  0  0
  -24.0117  -11.3241   -3.3595 N   0  0  0  0  0  0  0  0  0  0  0  0
  -23.9912  -10.8563   -1.9638 C   0  0  0  0  0  0  0  0  0  0  0  0
  -22.6578  -11.1820   -3.8831 C   0  0  0  0  0  0  0  0  0  0  0  0
  -21.7114  -10.8673   -3.1483 O   0  0  0  0  0  0  0  0  0  0  0  0
  -22.2599  -11.5225   -5.2729 C   0  0  0  0  0  0  0  0  0  0  0  0
  -21.1763  -10.9398   -5.8702 C   0  0  0  0  0  0  0  0  0  0  0  0
  -21.0809  -10.8299   -7.2551 C   0  0  0  0  0  0  0  0  0  0  0  0
  -21.9404  -11.5674   -8.0473 C   0  0  0  0  0  0  0  0  0  0  0  0
  -22.8110  -12.4642   -7.4347 C   0  0  0  0  0  0  0  0  0  0  0  0
  -22.9843  -12.4323   -6.0446 C   0  0  0  0  0  0  0  0  0  0  0  0
  -25.2722   -8.3107   -3.3356 C   0  0  0  0  0  0  0  0  0  0  0  0
  -26.3438   -9.0150   -3.8847 O   0  0  0  0  0  0  0  0  0  0  0  0
 43 44  1  0  0  0
 44  1  1  0  0  0
  1  2  1  0  0  0
  1  6  1  0  0  0
  2  3  1  0  0  0
  2 33  1  0  0  0
 33 34  1  0  0  0
 33 35  1  0  0  0
 35 36  2  0  0  0
 35 37  1  0  0  0
 37 38  1  0  0  0
 37 42  2  0  0  0
 38 39  2  0  0  0
 39 40  1  0  0  0
 40 41  2  0  0  0
 41 42  1  0  0  0
  3  4  1  0  0  0
  4  5  1  0  0  0
  4 25  1  0  0  0
  5  6  1  0  0  0
  6  7  1  0  0  0
  6  8  1  0  0  0
  8  9  1  0  0  0
  8 27  1  0  0  0
  9 10  1  0  0  0
  9 14  2  0  0  0
 10 11  2  0  0  0
 11 12  1  0  0  0
 12 13  2  0  0  0
 13 14  1  0  0  0
 14 15  1  0  0  0
 15 16  1  0  0  0
 15 27  2  0  0  0
 16 17  2  0  0  0
 16 31  1  0  0  0
 17 18  1  0  0  0
 17 28  1  0  0  0
 18 19  1  0  0  0
 18 26  2  0  0  0
 19 20  1  0  0  0
 19 24  2  0  0  0
 20 21  2  0  0  0
 21 22  1  0  0  0
 22 23  2  0  0  0
 23 24  1  0  0  0
 24 25  1  0  0  0
 25 26  1  0  0  0
 26 27  1  0  0  0
 28 29  2  0  0  0
 28 30  1  0  0  0
 30 31  1  0  0  0
 30 32  1  0  0  0
M  END
> <minimizedAffinity>
-5.77577

$$$$
