CHEMBL409103


 32 35  0  0  0  0  0  0  0  0999 V2000
  -17.8220    2.6600  -15.2097 C   0  0  0  0  0  0  0  0  0  0  0  0
  -17.4834    3.6224  -16.1770 C   0  0  0  0  0  0  0  0  0  0  0  0
  -16.2057    3.6424  -16.7310 C   0  0  0  0  0  0  0  0  0  0  0  0
  -15.2529    2.7160  -16.3241 C   0  0  0  0  0  0  0  0  0  0  0  0
  -15.5543    1.7427  -15.3529 C   0  0  0  0  0  0  0  0  0  0  0  0
  -14.5659    0.8131  -14.9441 C   0  0  0  0  0  0  0  0  0  0  0  0
  -14.8275   -0.1468  -13.9768 C   0  0  0  0  0  0  0  0  0  0  0  0
  -16.1114   -0.2194  -13.4334 C   0  0  0  0  0  0  0  0  0  0  0  0
  -17.0923    0.7008  -13.8107 C   0  0  0  0  0  0  0  0  0  0  0  0
  -16.8501    1.7080  -14.7739 C   0  0  0  0  0  0  0  0  0  0  0  0
  -20.0019    1.5949  -14.8172 N   0  0  0  0  0  0  0  0  0  0  0  0
  -19.2028    2.7058  -14.6173 C   0  0  0  0  0  0  0  0  0  0  0  0
  -19.5981    3.6848  -13.9946 O   0  0  0  0  0  0  0  0  0  0  0  0
  -19.6319    0.7708  -15.2704 H   0  0  0  0  0  0  0  0  0  0  0  0
  -21.3580    1.5475  -14.3030 C   0  0  0  0  0  0  0  0  0  0  0  0
  -22.6352   -0.1095  -12.8670 C   0  0  0  0  0  0  0  0  0  0  0  0
  -21.8996    0.1231  -14.1783 C   0  0  0  0  0  0  0  0  0  0  0  0
  -13.8005   -1.0067  -13.6280 O   0  0  0  0  0  0  0  0  0  0  0  0
  -13.6897   -2.2288  -14.2796 C   0  0  0  0  0  0  0  0  0  0  0  0
  -13.2414   -2.2991  -15.5970 C   0  0  0  0  0  0  0  0  0  0  0  0
  -13.0466   -3.5432  -16.1454 C   0  0  0  0  0  0  0  0  0  0  0  0
  -13.3094   -4.6951  -15.4960 N   0  0  0  0  0  0  0  0  0  0  0  0
  -13.8191   -4.6274  -14.2533 C   0  0  0  0  0  0  0  0  0  0  0  0
  -14.0923   -5.8173  -13.5753 C   0  0  0  0  0  0  0  0  0  0  0  0
  -14.6183   -5.8919  -12.2620 C   0  0  0  0  0  0  0  0  0  0  0  0
  -14.9208   -4.6921  -11.6174 C   0  0  0  0  0  0  0  0  0  0  0  0
  -14.6294   -3.4811  -12.3012 C   0  0  0  0  0  0  0  0  0  0  0  0
  -14.0576   -3.4190  -13.5939 C   0  0  0  0  0  0  0  0  0  0  0  0
  -14.5621   -7.1805  -11.8154 O   0  0  0  0  0  0  0  0  0  0  0  0
  -13.3521   -7.8986  -11.6955 C   0  0  0  0  0  0  0  0  0  0  0  0
  -15.4096   -4.3695  -10.3912 O   0  0  0  0  0  0  0  0  0  0  0  0
  -14.8485   -3.4225   -9.5188 C   0  0  0  0  0  0  0  0  0  0  0  0
 16 17  1  0  0  0
 17 15  1  0  0  0
 15 11  1  0  0  0
 11 12  1  0  0  0
 11 14  1  0  0  0
 12 13  2  0  0  0
 12  1  1  0  0  0
  1  2  1  0  0  0
  1 10  2  0  0  0
  2  3  2  0  0  0
  3  4  1  0  0  0
  4  5  2  0  0  0
  5  6  1  0  0  0
  5 10  1  0  0  0
  6  7  2  0  0  0
  7 18  1  0  0  0
  7  8  1  0  0  0
 18 19  1  0  0  0
 19 20  1  0  0  0
 19 28  2  0  0  0
 20 21  2  0  0  0
 21 22  1  0  0  0
 22 23  2  0  0  0
 23 24  1  0  0  0
 23 28  1  0  0  0
 24 25  2  0  0  0
 25 29  1  0  0  0
 25 26  1  0  0  0
 29 30  1  0  0  0
 26 31  1  0  0  0
 26 27  2  0  0  0
 31 32  1  0  0  0
 27 28  1  0  0  0
  8  9  2  0  0  0
  9 10  1  0  0  0
M  END
> <minimizedAffinity>
-7.97212

$$$$
