CHEMBL4455006


 49 54  0  0  0  0  0  0  0  0999 V2000
  -29.6244   -5.9275   -5.2062 O   0  0  0  0  0  0  0  0  0  0  0  0
  -28.7790   -7.0024   -5.0091 C   0  0  0  0  0  0  0  0  0  0  0  0
  -27.5855   -6.7615   -4.4175 N   0  0  0  0  0  0  0  0  0  0  0  0
  -26.8232   -7.8285   -4.2169 C   0  0  0  0  0  0  0  0  0  0  0  0
  -27.1348   -9.0748   -4.5604 N   0  0  0  0  0  0  0  0  0  0  0  0
  -28.2998   -9.2598   -5.1840 C   0  0  0  0  0  0  0  0  0  0  0  0
  -28.6038  -10.5529   -5.5436 C   0  0  0  0  0  0  0  0  0  0  0  0
  -29.7763  -10.9008   -6.2201 C   0  0  0  0  0  0  0  0  0  0  0  0
  -30.6922   -9.8938   -6.5453 C   0  0  0  0  0  0  0  0  0  0  0  0
  -30.4294   -8.5740   -6.1448 C   0  0  0  0  0  0  0  0  0  0  0  0
  -29.2125   -8.2504   -5.4699 C   0  0  0  0  0  0  0  0  0  0  0  0
  -31.3137   -7.5454   -6.3967 O   0  0  0  0  0  0  0  0  0  0  0  0
  -32.6121   -8.0077   -6.7766 C   0  0  0  0  0  0  0  0  0  0  0  0
  -32.4874   -9.1073   -7.8107 C   0  0  0  0  0  0  0  0  0  0  0  0
  -31.8254  -10.2447   -7.2430 O   0  0  0  0  0  0  0  0  0  0  0  0
  -30.0634  -12.1943   -6.5897 O   0  0  0  0  0  0  0  0  0  0  0  0
  -29.9380  -12.4659   -7.9916 C   0  0  0  0  0  0  0  0  0  0  0  0
  -28.5195  -12.2075   -8.4630 C   0  0  0  0  0  0  0  0  0  0  0  0
  -28.4930  -11.8557   -9.9491 C   0  0  0  0  0  0  0  0  0  0  0  0
  -28.9985  -10.5007  -10.2200 N   0  0  0  0  0  0  0  0  0  0  0  0
  -28.7742  -10.0522  -11.6129 C   0  0  0  0  0  0  0  0  0  0  0  0
  -27.3076   -9.7347  -11.9510 C   0  0  0  0  0  0  0  0  0  0  0  0
  -26.7414   -8.7929  -11.0302 O   0  0  0  0  0  0  0  0  0  0  0  0
  -26.8699   -9.2542   -9.6798 C   0  0  0  0  0  0  0  0  0  0  0  0
  -28.3432   -9.5189   -9.3237 C   0  0  0  0  0  0  0  0  0  0  0  0
  -28.5552   -3.0846   -8.0547 C   0  0  0  0  0  0  0  0  0  0  0  0
  -28.7547   -4.4309   -8.3786 C   0  0  0  0  0  0  0  0  0  0  0  0
  -29.1087   -5.3545   -7.4012 C   0  0  0  0  0  0  0  0  0  0  0  0
  -29.2323   -4.9484   -6.0789 C   0  0  0  0  0  0  0  0  0  0  0  0
  -29.0301   -3.6114   -5.7301 C   0  0  0  0  0  0  0  0  0  0  0  0
  -28.6725   -2.6984   -6.7161 C   0  0  0  0  0  0  0  0  0  0  0  0
  -28.4774   -1.4141   -6.3739 F   0  0  0  0  0  0  0  0  0  0  0  0
  -26.3551   -3.0112   -9.8847 O   0  0  0  0  0  0  0  0  0  0  0  0
  -27.2118   -2.1379   -9.8914 C   0  0  0  0  0  0  0  0  0  0  0  0
  -28.2832   -2.0876   -9.0230 N   0  0  0  0  0  0  0  0  0  0  0  0
  -27.2304   -1.1113  -10.8146 N   0  0  0  0  0  0  0  0  0  0  0  0
  -29.0594   -1.4846   -9.2653 H   0  0  0  0  0  0  0  0  0  0  0  0
  -27.6398   -0.2306  -10.5299 H   0  0  0  0  0  0  0  0  0  0  0  0
  -26.4183   -1.0927  -11.9743 C   0  0  0  0  0  0  0  0  0  0  0  0
  -25.1241   -0.5558  -11.9753 C   0  0  0  0  0  0  0  0  0  0  0  0
  -24.3258   -0.5643  -13.1283 C   0  0  0  0  0  0  0  0  0  0  0  0
  -24.8416   -1.1353  -14.2999 C   0  0  0  0  0  0  0  0  0  0  0  0
  -26.1272   -1.6848  -14.3099 C   0  0  0  0  0  0  0  0  0  0  0  0
  -26.9007   -1.6654  -13.1506 C   0  0  0  0  0  0  0  0  0  0  0  0
  -28.1321   -2.1982  -13.1764 F   0  0  0  0  0  0  0  0  0  0  0  0
  -22.9298    0.0118  -13.0879 C   0  0  0  0  0  0  0  0  0  0  0  0
  -22.8872    1.3655  -13.2352 F   0  0  0  0  0  0  0  0  0  0  0  0
  -22.3018   -0.2498  -11.9082 F   0  0  0  0  0  0  0  0  0  0  0  0
  -22.1256   -0.4945  -14.0622 F   0  0  0  0  0  0  0  0  0  0  0  0
 33 34  2  0  0  0
 34 35  1  0  0  0
 34 36  1  0  0  0
 35 26  1  0  0  0
 35 37  1  0  0  0
 26 27  1  0  0  0
 26 31  2  0  0  0
 27 28  2  0  0  0
 28 29  1  0  0  0
 29  1  1  0  0  0
 29 30  2  0  0  0
  1  2  1  0  0  0
  2  3  1  0  0  0
  2 11  2  0  0  0
  3  4  2  0  0  0
  4  5  1  0  0  0
  5  6  2  0  0  0
  6  7  1  0  0  0
  6 11  1  0  0  0
  7  8  2  0  0  0
  8 16  1  0  0  0
  8  9  1  0  0  0
 16 17  1  0  0  0
 17 18  1  0  0  0
 18 19  1  0  0  0
 19 20  1  0  0  0
 20 21  1  0  0  0
 20 25  1  0  0  0
 21 22  1  0  0  0
 22 23  1  0  0  0
 23 24  1  0  0  0
 24 25  1  0  0  0
  9 10  2  0  0  0
  9 15  1  0  0  0
 10 11  1  0  0  0
 10 12  1  0  0  0
 12 13  1  0  0  0
 13 14  1  0  0  0
 14 15  1  0  0  0
 30 31  1  0  0  0
 31 32  1  0  0  0
 36 39  1  0  0  0
 36 38  1  0  0  0
 39 40  1  0  0  0
 39 44  2  0  0  0
 40 41  2  0  0  0
 41 46  1  0  0  0
 41 42  1  0  0  0
 46 47  1  0  0  0
 46 48  1  0  0  0
 46 49  1  0  0  0
 42 43  2  0  0  0
 43 44  1  0  0  0
 44 45  1  0  0  0
M  END
> <minimizedAffinity>
-9.92454

$$$$
