CHEMBL3980022


 38 42  0  0  0  0  0  0  0  0999 V2000
  -27.8513  -10.3158   -8.3408 C   0  0  0  0  0  0  0  0  0  0  0  0
  -28.3670   -9.4181   -7.4626 N   0  0  0  0  0  0  0  0  0  0  0  0
  -29.6959   -9.3538   -7.2292 C   0  0  0  0  0  0  0  0  0  0  0  0
  -30.5695  -10.0779   -7.9492 N   0  0  0  0  0  0  0  0  0  0  0  0
  -30.0368  -10.9198   -8.8850 C   0  0  0  0  0  0  0  0  0  0  0  0
  -28.6788  -11.0831   -9.1169 C   0  0  0  0  0  0  0  0  0  0  0  0
  -28.1305  -12.2584  -10.2502 Cl  0  0  0  0  0  0  0  0  0  0  0  0
  -30.2113   -8.5718   -6.1596 N   0  0  0  0  0  0  0  0  0  0  0  0
  -30.1087   -9.0911   -5.2974 H   0  0  0  0  0  0  0  0  0  0  0  0
  -30.2471   -7.1611   -6.0278 C   0  0  0  0  0  0  0  0  0  0  0  0
  -30.5650   -6.5591   -4.8370 C   0  0  0  0  0  0  0  0  0  0  0  0
  -30.7118   -5.1776   -4.7010 C   0  0  0  0  0  0  0  0  0  0  0  0
  -30.2447   -4.3118   -5.6441 C   0  0  0  0  0  0  0  0  0  0  0  0
  -29.8467   -4.8428   -6.8311 N   0  0  0  0  0  0  0  0  0  0  0  0
  -29.8984   -6.2298   -7.0002 C   0  0  0  0  0  0  0  0  0  0  0  0
  -30.0494   -2.8031   -5.3410 C   0  0  0  0  0  0  0  0  0  0  0  0
  -29.2703   -1.7847   -6.2466 C   0  0  0  0  0  0  0  0  0  0  0  0
  -27.7588   -1.9554   -6.2054 C   0  0  0  0  0  0  0  0  0  0  0  0
  -27.1629   -2.0198   -4.8867 N   0  0  0  0  0  0  0  0  0  0  0  0
  -27.9121   -2.8952   -3.9850 C   0  0  0  0  0  0  0  0  0  0  0  0
  -29.4148   -2.5972   -3.9666 C   0  0  0  0  0  0  0  0  0  0  0  0
  -27.0901   -1.0814   -4.4970 H   0  0  0  0  0  0  0  0  0  0  0  0
  -26.3360  -10.5285   -8.3406 C   0  0  0  0  0  0  0  0  0  0  0  0
  -25.7639  -11.4379   -7.2290 C   0  0  0  0  0  0  0  0  0  0  0  0
  -23.7726  -10.9051   -5.6862 C   0  0  0  0  0  0  0  0  0  0  0  0
  -22.3469  -10.9026   -5.5851 C   0  0  0  0  0  0  0  0  0  0  0  0
  -21.4947  -11.5607   -6.4935 C   0  0  0  0  0  0  0  0  0  0  0  0
  -22.0186  -12.1274   -7.6308 C   0  0  0  0  0  0  0  0  0  0  0  0
  -23.3724  -11.9687   -7.8792 C   0  0  0  0  0  0  0  0  0  0  0  0
  -24.2696  -11.3927   -6.9336 C   0  0  0  0  0  0  0  0  0  0  0  0
  -24.6930  -10.6085   -4.3920 C   0  0  0  0  0  0  0  0  0  0  0  0
  -25.3773  -11.8130   -3.7185 C   0  0  0  0  0  0  0  0  0  0  0  0
  -24.2902  -11.1134   -2.9955 C   0  0  0  0  0  0  0  0  0  0  0  0
  -26.4517   -8.9268   -5.0306 N   0  0  0  0  0  0  0  0  0  0  0  0
  -25.3789   -9.2525   -4.2634 C   0  0  0  0  0  0  0  0  0  0  0  0
  -24.9793   -8.4614   -3.4033 O   0  0  0  0  0  0  0  0  0  0  0  0
  -26.7007   -7.9566   -5.1202 H   0  0  0  0  0  0  0  0  0  0  0  0
  -26.6800   -9.4842   -5.8352 H   0  0  0  0  0  0  0  0  0  0  0  0
 34 35  1  0  0  0
 34 37  1  0  0  0
 34 38  1  0  0  0
 35 36  2  0  0  0
 35 31  1  0  0  0
 31 25  1  0  0  0
 31 32  1  0  0  0
 31 33  1  0  0  0
 25 26  1  0  0  0
 25 30  2  0  0  0
 26 27  2  0  0  0
 27 28  1  0  0  0
 28 29  2  0  0  0
 29 30  1  0  0  0
 30 24  1  0  0  0
 24 23  1  0  0  0
 23  1  1  0  0  0
  1  2  1  0  0  0
  1  6  2  0  0  0
  2  3  2  0  0  0
  3  8  1  0  0  0
  3  4  1  0  0  0
  8 10  1  0  0  0
  8  9  1  0  0  0
 10 11  1  0  0  0
 10 15  2  0  0  0
 11 12  2  0  0  0
 12 13  1  0  0  0
 13 16  1  0  0  0
 13 14  2  0  0  0
 16 17  1  0  0  0
 16 21  1  0  0  0
 17 18  1  0  0  0
 18 19  1  0  0  0
 19 20  1  0  0  0
 19 22  1  0  0  0
 20 21  1  0  0  0
 14 15  1  0  0  0
  4  5  2  0  0  0
  5  6  1  0  0  0
  6  7  1  0  0  0
 32 33  1  0  0  0
M  END
> <minimizedAffinity>
-8.39648

$$$$
