CHEMBL3586070


 34 36  0  0  0  0  0  0  0  0999 V2000
  -15.1664    3.3673  -17.1698 C   0  0  0  0  0  0  0  0  0  0  0  0
  -14.4829    2.1555  -17.3174 C   0  0  0  0  0  0  0  0  0  0  0  0
  -14.8426    1.0120  -16.6009 C   0  0  0  0  0  0  0  0  0  0  0  0
  -15.8851    1.0357  -15.6790 C   0  0  0  0  0  0  0  0  0  0  0  0
  -16.5810    2.2375  -15.5100 C   0  0  0  0  0  0  0  0  0  0  0  0
  -16.2284    3.3856  -16.2509 C   0  0  0  0  0  0  0  0  0  0  0  0
  -14.1078    6.8351  -19.3945 C   0  0  0  0  0  0  0  0  0  0  0  0
  -13.4999    6.6332  -18.1677 C   0  0  0  0  0  0  0  0  0  0  0  0
  -13.8173    5.4745  -17.4619 C   0  0  0  0  0  0  0  0  0  0  0  0
  -14.7486    4.5473  -17.9637 C   0  0  0  0  0  0  0  0  0  0  0  0
  -15.2842    4.8520  -19.2184 C   0  0  0  0  0  0  0  0  0  0  0  0
  -14.9927    5.9611  -19.9508 N   0  0  0  0  0  0  0  0  0  0  0  0
  -13.6095   10.5263  -20.0316 C   0  0  0  0  0  0  0  0  0  0  0  0
  -13.8572    9.2434  -19.4358 N   0  0  0  0  0  0  0  0  0  0  0  0
  -13.7980    8.0794  -20.1694 C   0  0  0  0  0  0  0  0  0  0  0  0
  -13.5155    8.0386  -21.3623 O   0  0  0  0  0  0  0  0  0  0  0  0
  -14.0976    9.1533  -18.4520 H   0  0  0  0  0  0  0  0  0  0  0  0
  -16.2777   -0.1046  -14.9352 N   0  0  0  0  0  0  0  0  0  0  0  0
  -15.5679   -0.6659  -13.8879 C   0  0  0  0  0  0  0  0  0  0  0  0
  -14.5584   -0.1919  -13.3828 O   0  0  0  0  0  0  0  0  0  0  0  0
  -16.0957   -1.8852  -13.4885 N   0  0  0  0  0  0  0  0  0  0  0  0
  -17.2143   -0.4518  -15.0870 H   0  0  0  0  0  0  0  0  0  0  0  0
  -16.5226   -2.4156  -14.2339 H   0  0  0  0  0  0  0  0  0  0  0  0
  -15.4873   -2.6308  -12.4512 C   0  0  0  0  0  0  0  0  0  0  0  0
  -15.8585   -2.3753  -11.1363 C   0  0  0  0  0  0  0  0  0  0  0  0
  -15.3236   -3.1476  -10.1028 C   0  0  0  0  0  0  0  0  0  0  0  0
  -14.3805   -4.1519  -10.3652 C   0  0  0  0  0  0  0  0  0  0  0  0
  -13.7780   -5.0091   -8.9953 Cl  0  0  0  0  0  0  0  0  0  0  0  0
  -13.9723   -4.4114  -11.6765 C   0  0  0  0  0  0  0  0  0  0  0  0
  -14.5440   -3.6352  -12.7126 C   0  0  0  0  0  0  0  0  0  0  0  0
  -12.9752   -5.4689  -12.0748 C   0  0  0  0  0  0  0  0  0  0  0  0
  -11.7292   -5.3558  -11.5444 F   0  0  0  0  0  0  0  0  0  0  0  0
  -13.3964   -6.7225  -11.7421 F   0  0  0  0  0  0  0  0  0  0  0  0
  -12.7857   -5.4978  -13.4269 F   0  0  0  0  0  0  0  0  0  0  0  0
 13 14  1  0  0  0
 14 15  1  0  0  0
 14 17  1  0  0  0
 15 16  2  0  0  0
 15  7  1  0  0  0
  7  8  1  0  0  0
  7 12  2  0  0  0
  8  9  2  0  0  0
  9 10  1  0  0  0
 10  1  1  0  0  0
 10 11  2  0  0  0
  1  2  1  0  0  0
  1  6  2  0  0  0
  2  3  2  0  0  0
  3  4  1  0  0  0
  4 18  1  0  0  0
  4  5  2  0  0  0
 18 19  1  0  0  0
 18 22  1  0  0  0
 19 20  2  0  0  0
 19 21  1  0  0  0
 21 24  1  0  0  0
 21 23  1  0  0  0
 24 25  1  0  0  0
 24 30  2  0  0  0
 25 26  2  0  0  0
 26 27  1  0  0  0
 27 28  1  0  0  0
 27 29  2  0  0  0
 29 31  1  0  0  0
 29 30  1  0  0  0
 31 32  1  0  0  0
 31 33  1  0  0  0
 31 34  1  0  0  0
  5  6  1  0  0  0
 11 12  1  0  0  0
M  END
> <minimizedAffinity>
-7.35458

$$$$
