CHEMBL1688246


 31 34  0  0  0  0  0  0  0  0999 V2000
  -27.2705   -2.0366   -9.5095 C   0  0  0  0  0  0  0  0  0  0  0  0
  -27.1355   -1.2957   -8.4293 N   0  0  0  0  0  0  0  0  0  0  0  0
  -27.6953   -1.9691   -7.3705 N   0  0  0  0  0  0  0  0  0  0  0  0
  -28.1244   -3.1367   -7.8061 C   0  0  0  0  0  0  0  0  0  0  0  0
  -27.9095   -3.1944   -9.1562 N   0  0  0  0  0  0  0  0  0  0  0  0
  -28.1202   -3.9824   -9.7502 H   0  0  0  0  0  0  0  0  0  0  0  0
  -24.7818   -1.3541  -12.2330 C   0  0  0  0  0  0  0  0  0  0  0  0
  -25.5820   -1.5049  -13.3728 C   0  0  0  0  0  0  0  0  0  0  0  0
  -26.9484   -1.7644  -13.2503 C   0  0  0  0  0  0  0  0  0  0  0  0
  -27.5221   -1.9067  -11.9864 C   0  0  0  0  0  0  0  0  0  0  0  0
  -26.7358   -1.7754  -10.8352 C   0  0  0  0  0  0  0  0  0  0  0  0
  -25.3787   -1.4565  -10.9679 C   0  0  0  0  0  0  0  0  0  0  0  0
  -22.7767   -1.4759  -13.5463 F   0  0  0  0  0  0  0  0  0  0  0  0
  -23.2940   -1.1293  -12.3348 C   0  0  0  0  0  0  0  0  0  0  0  0
  -22.6006   -1.8581  -11.4160 F   0  0  0  0  0  0  0  0  0  0  0  0
  -22.9399    0.1685  -12.1319 F   0  0  0  0  0  0  0  0  0  0  0  0
  -28.7910   -4.1767   -7.0364 C   0  0  0  0  0  0  0  0  0  0  0  0
  -29.6578   -5.0376   -7.7238 C   0  0  0  0  0  0  0  0  0  0  0  0
  -30.2582   -6.0986   -7.0660 C   0  0  0  0  0  0  0  0  0  0  0  0
  -29.9711   -6.2612   -5.7276 C   0  0  0  0  0  0  0  0  0  0  0  0
  -29.1807   -5.4224   -5.0206 N   0  0  0  0  0  0  0  0  0  0  0  0
  -28.6214   -4.3635   -5.6503 C   0  0  0  0  0  0  0  0  0  0  0  0
  -27.8297   -3.4676   -4.8945 N   0  0  0  0  0  0  0  0  0  0  0  0
  -27.3240   -2.8543   -5.5320 H   0  0  0  0  0  0  0  0  0  0  0  0
  -28.5830   -2.6267   -3.9482 C   0  0  0  0  0  0  0  0  0  0  0  0
  -28.8120   -1.2365   -4.5121 C   0  0  0  0  0  0  0  0  0  0  0  0
  -27.8077   -0.2617   -4.4916 C   0  0  0  0  0  0  0  0  0  0  0  0
  -28.0651    0.9820   -5.0491 C   0  0  0  0  0  0  0  0  0  0  0  0
  -29.2362    1.3149   -5.6299 N   0  0  0  0  0  0  0  0  0  0  0  0
  -30.1914    0.3669   -5.6541 C   0  0  0  0  0  0  0  0  0  0  0  0
  -30.0302   -0.9014   -5.1159 C   0  0  0  0  0  0  0  0  0  0  0  0
 13 14  1  0  0  0
 14 15  1  0  0  0
 14 16  1  0  0  0
 14  7  1  0  0  0
  7  8  1  0  0  0
  7 12  2  0  0  0
  8  9  2  0  0  0
  9 10  1  0  0  0
 10 11  2  0  0  0
 11  1  1  0  0  0
 11 12  1  0  0  0
  1  2  2  0  0  0
  1  5  1  0  0  0
  2  3  1  0  0  0
  3  4  2  0  0  0
  4 17  1  0  0  0
  4  5  1  0  0  0
 17 18  1  0  0  0
 17 22  2  0  0  0
 18 19  2  0  0  0
 19 20  1  0  0  0
 20 21  2  0  0  0
 21 22  1  0  0  0
 22 23  1  0  0  0
 23 25  1  0  0  0
 23 24  1  0  0  0
 25 26  1  0  0  0
 26 27  1  0  0  0
 26 31  2  0  0  0
 27 28  2  0  0  0
 28 29  1  0  0  0
 29 30  2  0  0  0
 30 31  1  0  0  0
  5  6  1  0  0  0
M  END
> <minimizedAffinity>
-10.58044

$$$$
