CHEMBL443962


 18 20  0  0  0  0  0  0  0  0999 V2000
  -29.3980   -5.1440   -7.1478 C   0  0  0  0  0  0  0  0  0  0  0  0
  -30.0271   -4.4579   -5.9708 C   0  0  0  0  0  0  0  0  0  0  0  0
  -29.8391   -3.2196   -5.6099 N   0  0  0  0  0  0  0  0  0  0  0  0
  -28.9800   -2.4946   -6.3927 C   0  0  0  0  0  0  0  0  0  0  0  0
  -28.5325   -1.1946   -6.3453 C   0  0  0  0  0  0  0  0  0  0  0  0
  -28.9592    0.1420   -5.1125 Br  0  0  0  0  0  0  0  0  0  0  0  0
  -27.6646   -1.0372   -7.4288 C   0  0  0  0  0  0  0  0  0  0  0  0
  -27.5411   -2.1576   -8.1439 N   0  0  0  0  0  0  0  0  0  0  0  0
  -28.3444   -3.0506   -7.5106 N   0  0  0  0  0  0  0  0  0  0  0  0
  -28.5722   -4.3755   -7.8661 C   0  0  0  0  0  0  0  0  0  0  0  0
  -30.2706   -9.1797   -8.2561 C   0  0  0  0  0  0  0  0  0  0  0  0
  -31.2072   -8.4290   -7.5469 C   0  0  0  0  0  0  0  0  0  0  0  0
  -30.9171   -7.1148   -7.1645 C   0  0  0  0  0  0  0  0  0  0  0  0
  -29.6897   -6.5340   -7.5005 C   0  0  0  0  0  0  0  0  0  0  0  0
  -28.7395   -7.3003   -8.1846 C   0  0  0  0  0  0  0  0  0  0  0  0
  -29.0341   -8.6121   -8.5697 C   0  0  0  0  0  0  0  0  0  0  0  0
  -29.5269  -10.9413   -9.6478 C   0  0  0  0  0  0  0  0  0  0  0  0
  -30.4453  -10.4734   -8.6658 O   0  0  0  0  0  0  0  0  0  0  0  0
 17 18  1  0  0  0
 18 11  1  0  0  0
 11 12  1  0  0  0
 11 16  2  0  0  0
 12 13  2  0  0  0
 13 14  1  0  0  0
 14  1  1  0  0  0
 14 15  2  0  0  0
  1  2  1  0  0  0
  1 10  2  0  0  0
  2  3  2  0  0  0
  3  4  1  0  0  0
  4  5  2  0  0  0
  4  9  1  0  0  0
  5  6  1  0  0  0
  5  7  1  0  0  0
  7  8  2  0  0  0
  8  9  1  0  0  0
  9 10  1  0  0  0
 15 16  1  0  0  0
M  END
> <minimizedAffinity>
-7.01409

$$$$
