CHEMBL148744


 26 28  0  0  0  0  0  0  0  0999 V2000
  -12.8145   -0.2515  -14.7308 C   0  0  0  0  0  0  0  0  0  0  0  0
  -14.2030    0.1418  -15.0936 C   0  0  0  0  0  0  0  0  0  0  0  0
  -14.5835    0.7135  -16.2922 C   0  0  0  0  0  0  0  0  0  0  0  0
  -15.9267    0.9604  -16.2486 N   0  0  0  0  0  0  0  0  0  0  0  0
  -16.4361    0.5187  -15.0568 C   0  0  0  0  0  0  0  0  0  0  0  0
  -15.3927    0.0092  -14.2966 C   0  0  0  0  0  0  0  0  0  0  0  0
  -16.4630    1.3834  -16.9940 H   0  0  0  0  0  0  0  0  0  0  0  0
  -17.8338    0.5462  -14.8882 C   0  0  0  0  0  0  0  0  0  0  0  0
  -18.5886    1.6503  -14.8270 C   0  0  0  0  0  0  0  0  0  0  0  0
  -18.2121    3.1010  -14.9928 C   0  0  0  0  0  0  0  0  0  0  0  0
  -17.1290    3.5821  -15.2545 O   0  0  0  0  0  0  0  0  0  0  0  0
  -19.4050    3.7969  -14.8096 N   0  0  0  0  0  0  0  0  0  0  0  0
  -20.4700    2.9358  -14.5543 C   0  0  0  0  0  0  0  0  0  0  0  0
  -21.7890    3.2716  -14.3248 C   0  0  0  0  0  0  0  0  0  0  0  0
  -22.6874    2.2239  -14.0797 C   0  0  0  0  0  0  0  0  0  0  0  0
  -22.2438    0.8892  -14.0692 C   0  0  0  0  0  0  0  0  0  0  0  0
  -23.4751   -0.5059  -13.7261 Br  0  0  0  0  0  0  0  0  0  0  0  0
  -20.9076    0.5689  -14.3075 C   0  0  0  0  0  0  0  0  0  0  0  0
  -20.0301    1.6103  -14.5543 C   0  0  0  0  0  0  0  0  0  0  0  0
  -19.4553    4.8044  -14.8651 H   0  0  0  0  0  0  0  0  0  0  0  0
  -15.4957   -0.5654  -12.9088 C   0  0  0  0  0  0  0  0  0  0  0  0
  -15.6650   -2.0846  -12.9019 C   0  0  0  0  0  0  0  0  0  0  0  0
  -15.4121   -2.6698  -11.5361 C   0  0  0  0  0  0  0  0  0  0  0  0
  -16.2632   -3.1056  -10.7788 O   0  0  0  0  0  0  0  0  0  0  0  0
  -14.0943   -2.6755  -11.2187 O   0  0  0  0  0  0  0  0  0  0  0  0
  -13.5204   -2.2970  -11.9113 H   0  0  0  0  0  0  0  0  0  0  0  0
  1  2  1  0  0  0
  2  3  2  0  0  0
  2  6  1  0  0  0
  3  4  1  0  0  0
  4  5  1  0  0  0
  4  7  1  0  0  0
  5  8  1  0  0  0
  5  6  2  0  0  0
  8  9  2  0  0  0
  9 10  1  0  0  0
  9 19  1  0  0  0
 10 11  2  0  0  0
 10 12  1  0  0  0
 12 13  1  0  0  0
 12 20  1  0  0  0
 13 14  1  0  0  0
 13 19  2  0  0  0
 14 15  2  0  0  0
 15 16  1  0  0  0
 16 17  1  0  0  0
 16 18  2  0  0  0
 18 19  1  0  0  0
  6 21  1  0  0  0
 21 22  1  0  0  0
 22 23  1  0  0  0
 23 24  2  0  0  0
 23 25  1  0  0  0
 25 26  1  0  0  0
M  END
> <minimizedAffinity>
-8.63786

$$$$
