CHEMBL4475766


 26 29  0  0  0  0  0  0  0  0999 V2000
  -30.0380   -4.8095   -5.5252 C   0  0  0  0  0  0  0  0  0  0  0  0
  -29.5703   -5.4530   -6.7227 C   0  0  0  0  0  0  0  0  0  0  0  0
  -28.8381   -4.6019   -7.4592 N   0  0  0  0  0  0  0  0  0  0  0  0
  -28.8805   -3.4277   -6.8043 N   0  0  0  0  0  0  0  0  0  0  0  0
  -29.5028   -3.5255   -5.5893 C   0  0  0  0  0  0  0  0  0  0  0  0
  -29.6550   -2.4722   -4.7268 N   0  0  0  0  0  0  0  0  0  0  0  0
  -28.4963   -2.0205   -3.9498 C   0  0  0  0  0  0  0  0  0  0  0  0
  -27.2825   -1.6141   -4.7753 C   0  0  0  0  0  0  0  0  0  0  0  0
  -27.5494   -0.5284   -5.8169 C   0  0  0  0  0  0  0  0  0  0  0  0
  -28.5573   -0.8815   -6.9122 C   0  0  0  0  0  0  0  0  0  0  0  0
  -28.3668   -2.2705   -7.5198 C   0  0  0  0  0  0  0  0  0  0  0  0
  -30.4028   -2.6441   -4.0447 H   0  0  0  0  0  0  0  0  0  0  0  0
  -29.7887   -6.8107   -7.2554 C   0  0  0  0  0  0  0  0  0  0  0  0
  -31.0156   -7.4724   -7.1588 C   0  0  0  0  0  0  0  0  0  0  0  0
  -31.2321   -8.7173   -7.7686 C   0  0  0  0  0  0  0  0  0  0  0  0
  -30.1433   -9.3550   -8.3804 C   0  0  0  0  0  0  0  0  0  0  0  0
  -30.0721  -10.8968   -9.1476 S   0  0  0  0  0  0  0  0  0  0  0  0
  -28.3877  -10.6928   -9.3762 C   0  0  0  0  0  0  0  0  0  0  0  0
  -27.8837   -9.5401   -9.0013 N   0  0  0  0  0  0  0  0  0  0  0  0
  -28.8780   -8.7680   -8.4218 C   0  0  0  0  0  0  0  0  0  0  0  0
  -28.7158   -7.4772   -7.8806 C   0  0  0  0  0  0  0  0  0  0  0  0
  -30.6404   -6.4965   -3.9096 N   0  0  0  0  0  0  0  0  0  0  0  0
  -30.8793   -5.2584   -4.4286 C   0  0  0  0  0  0  0  0  0  0  0  0
  -31.8242   -4.6039   -3.9890 O   0  0  0  0  0  0  0  0  0  0  0  0
  -31.2818   -6.8236   -3.2008 H   0  0  0  0  0  0  0  0  0  0  0  0
  -30.0343   -7.1668   -4.3597 H   0  0  0  0  0  0  0  0  0  0  0  0
 22 23  1  0  0  0
 22 25  1  0  0  0
 22 26  1  0  0  0
 23 24  2  0  0  0
 23  1  1  0  0  0
  1  2  1  0  0  0
  1  5  2  0  0  0
  2 13  1  0  0  0
  2  3  2  0  0  0
 13 14  1  0  0  0
 13 21  2  0  0  0
 14 15  2  0  0  0
 15 16  1  0  0  0
 16 17  1  0  0  0
 16 20  2  0  0  0
 17 18  1  0  0  0
 18 19  2  0  0  0
 19 20  1  0  0  0
 20 21  1  0  0  0
  3  4  1  0  0  0
  4  5  1  0  0  0
  4 11  1  0  0  0
  5  6  1  0  0  0
  6  7  1  0  0  0
  6 12  1  0  0  0
  7  8  1  0  0  0
  8  9  1  0  0  0
  9 10  1  0  0  0
 10 11  1  0  0  0
M  END
> <minimizedAffinity>
-8.13141

$$$$
