CHEMBL1076468


 47 51  0  0  0  0  0  0  0  0999 V2000
  -16.2971    1.8054  -15.0807 N   0  0  0  0  0  0  0  0  0  0  0  0
  -15.8693    2.7822  -15.9999 C   0  0  0  0  0  0  0  0  0  0  0  0
  -16.8680    3.5831  -16.3141 N   0  0  0  0  0  0  0  0  0  0  0  0
  -17.9840    3.0826  -15.6986 C   0  0  0  0  0  0  0  0  0  0  0  0
  -19.3137    3.5344  -15.7586 C   0  0  0  0  0  0  0  0  0  0  0  0
  -20.2992    2.8678  -15.0209 C   0  0  0  0  0  0  0  0  0  0  0  0
  -19.9700    1.7709  -14.2287 C   0  0  0  0  0  0  0  0  0  0  0  0
  -18.6516    1.3009  -14.1608 C   0  0  0  0  0  0  0  0  0  0  0  0
  -17.6733    1.9733  -14.9237 C   0  0  0  0  0  0  0  0  0  0  0  0
  -15.3685   -1.3631  -13.4584 C   0  0  0  0  0  0  0  0  0  0  0  0
  -16.0769   -0.4866  -14.2578 C   0  0  0  0  0  0  0  0  0  0  0  0
  -15.5356    0.7674  -14.4529 C   0  0  0  0  0  0  0  0  0  0  0  0
  -14.2891    1.0689  -14.0286 N   0  0  0  0  0  0  0  0  0  0  0  0
  -13.6412    0.1196  -13.3474 C   0  0  0  0  0  0  0  0  0  0  0  0
  -14.1332   -1.0779  -13.0209 N   0  0  0  0  0  0  0  0  0  0  0  0
  -15.9782   -2.5924  -13.1374 N   0  0  0  0  0  0  0  0  0  0  0  0
  -16.9734   -2.5334  -13.3461 H   0  0  0  0  0  0  0  0  0  0  0  0
  -15.8332   -2.9810  -11.7274 C   0  0  0  0  0  0  0  0  0  0  0  0
  -16.2947   -4.4434  -11.4656 C   0  0  0  0  0  0  0  0  0  0  0  0
  -15.2595   -5.3693  -10.9272 N   0  0  0  0  0  0  0  0  0  0  0  0
  -15.7649   -6.4762  -13.1387 C   0  0  0  0  0  0  0  0  0  0  0  0
  -14.8195   -6.3348  -11.9480 C   0  0  0  0  0  0  0  0  0  0  0  0
  -14.1495   -4.6069  -10.3147 C   0  0  0  0  0  0  0  0  0  0  0  0
  -13.6923   -5.0488   -8.9243 C   0  0  0  0  0  0  0  0  0  0  0  0
  -14.5986    2.8380  -16.5111 N   0  0  0  0  0  0  0  0  0  0  0  0
  -13.8438    2.7110  -15.8452 H   0  0  0  0  0  0  0  0  0  0  0  0
  -14.1532    2.1556  -17.6871 C   0  0  0  0  0  0  0  0  0  0  0  0
  -14.4817    0.8099  -17.9234 C   0  0  0  0  0  0  0  0  0  0  0  0
  -13.8689    0.0682  -18.9425 C   0  0  0  0  0  0  0  0  0  0  0  0
  -12.9431    0.7056  -19.7717 C   0  0  0  0  0  0  0  0  0  0  0  0
  -12.6105    2.0456  -19.5635 C   0  0  0  0  0  0  0  0  0  0  0  0
  -13.1938    2.7747  -18.5149 C   0  0  0  0  0  0  0  0  0  0  0  0
  -12.7694    4.2009  -18.2935 C   0  0  0  0  0  0  0  0  0  0  0  0
  -14.0865   -1.3161  -19.1560 N   0  0  0  0  0  0  0  0  0  0  0  0
  -13.3429   -2.3481  -18.6135 C   0  0  0  0  0  0  0  0  0  0  0  0
  -12.4226   -2.2420  -17.8104 O   0  0  0  0  0  0  0  0  0  0  0  0
  -14.8496   -1.5537  -19.7732 H   0  0  0  0  0  0  0  0  0  0  0  0
  -13.6731   -3.7327  -19.0530 C   0  0  0  0  0  0  0  0  0  0  0  0
  -13.9545   -4.0774  -20.3791 C   0  0  0  0  0  0  0  0  0  0  0  0
  -14.1315   -5.4221  -20.7230 C   0  0  0  0  0  0  0  0  0  0  0  0
  -14.0299   -6.4226  -19.7506 C   0  0  0  0  0  0  0  0  0  0  0  0
  -13.7600   -6.0927  -18.4164 C   0  0  0  0  0  0  0  0  0  0  0  0
  -13.5844   -4.7433  -18.0821 C   0  0  0  0  0  0  0  0  0  0  0  0
  -13.6401   -7.1414  -17.3388 C   0  0  0  0  0  0  0  0  0  0  0  0
  -12.3577   -7.3576  -16.9316 F   0  0  0  0  0  0  0  0  0  0  0  0
  -14.3387   -6.8215  -16.2153 F   0  0  0  0  0  0  0  0  0  0  0  0
  -14.1116   -8.3536  -17.7423 F   0  0  0  0  0  0  0  0  0  0  0  0
 21 22  1  0  0  0
 22 20  1  0  0  0
 20 23  1  0  0  0
 20 19  1  0  0  0
 23 24  1  0  0  0
 19 18  1  0  0  0
 18 16  1  0  0  0
 16 10  1  0  0  0
 16 17  1  0  0  0
 10 11  1  0  0  0
 10 15  2  0  0  0
 11 12  2  0  0  0
 12  1  1  0  0  0
 12 13  1  0  0  0
  1  2  1  0  0  0
  1  9  1  0  0  0
  2 25  1  0  0  0
  2  3  2  0  0  0
 25 27  1  0  0  0
 25 26  1  0  0  0
 27 28  1  0  0  0
 27 32  2  0  0  0
 28 29  2  0  0  0
 29 34  1  0  0  0
 29 30  1  0  0  0
 34 35  1  0  0  0
 34 37  1  0  0  0
 35 36  2  0  0  0
 35 38  1  0  0  0
 38 39  1  0  0  0
 38 43  2  0  0  0
 39 40  2  0  0  0
 40 41  1  0  0  0
 41 42  2  0  0  0
 42 44  1  0  0  0
 42 43  1  0  0  0
 44 45  1  0  0  0
 44 46  1  0  0  0
 44 47  1  0  0  0
 30 31  2  0  0  0
 31 32  1  0  0  0
 32 33  1  0  0  0
  3  4  1  0  0  0
  4  5  1  0  0  0
  4  9  2  0  0  0
  5  6  2  0  0  0
  6  7  1  0  0  0
  7  8  2  0  0  0
  8  9  1  0  0  0
 13 14  2  0  0  0
 14 15  1  0  0  0
M  END
> <minimizedAffinity>
-8.22535

$$$$
