CHEMBL3690515


 33 36  0  0  0  0  0  0  0  0999 V2000
  -29.4748   -2.6029   -5.5707 C   0  0  0  0  0  0  0  0  0  0  0  0
  -29.2240   -1.3212   -5.0993 C   0  0  0  0  0  0  0  0  0  0  0  0
  -28.4719   -0.5812   -5.9703 N   0  0  0  0  0  0  0  0  0  0  0  0
  -28.2380   -1.3820   -6.9847 C   0  0  0  0  0  0  0  0  0  0  0  0
  -27.5282   -1.1487   -8.2002 C   0  0  0  0  0  0  0  0  0  0  0  0
  -27.4146   -2.1168   -9.1428 C   0  0  0  0  0  0  0  0  0  0  0  0
  -27.9894   -3.4425   -8.8605 C   0  0  0  0  0  0  0  0  0  0  0  0
  -28.6369   -3.6740   -7.7096 C   0  0  0  0  0  0  0  0  0  0  0  0
  -28.7983   -2.6430   -6.7857 N   0  0  0  0  0  0  0  0  0  0  0  0
  -26.7228   -1.8303  -10.4295 C   0  0  0  0  0  0  0  0  0  0  0  0
  -27.5091   -1.6999  -11.5202 N   0  0  0  0  0  0  0  0  0  0  0  0
  -26.8844   -1.4211  -12.6802 C   0  0  0  0  0  0  0  0  0  0  0  0
  -25.5265   -1.2692  -12.7810 C   0  0  0  0  0  0  0  0  0  0  0  0
  -24.9460   -0.9796  -13.9526 F   0  0  0  0  0  0  0  0  0  0  0  0
  -24.8004   -1.4091  -11.6123 C   0  0  0  0  0  0  0  0  0  0  0  0
  -23.4061   -1.3329  -11.6156 N   0  0  0  0  0  0  0  0  0  0  0  0
  -25.3804   -1.6931  -10.4335 N   0  0  0  0  0  0  0  0  0  0  0  0
  -23.0581   -0.5341  -12.1343 H   0  0  0  0  0  0  0  0  0  0  0  0
  -23.0681   -1.3713  -10.6583 H   0  0  0  0  0  0  0  0  0  0  0  0
  -30.8380   -6.0607   -4.7257 C   0  0  0  0  0  0  0  0  0  0  0  0
  -31.6249   -5.7442   -3.6177 C   0  0  0  0  0  0  0  0  0  0  0  0
  -31.7574   -4.4230   -3.1956 C   0  0  0  0  0  0  0  0  0  0  0  0
  -31.0619   -3.4082   -3.8490 C   0  0  0  0  0  0  0  0  0  0  0  0
  -30.2224   -3.6973   -4.9336 C   0  0  0  0  0  0  0  0  0  0  0  0
  -30.1494   -5.0296   -5.3817 C   0  0  0  0  0  0  0  0  0  0  0  0
  -30.8464   -9.1641   -6.6406 N   0  0  0  0  0  0  0  0  0  0  0  0
  -31.0537   -7.8072   -6.4712 C   0  0  0  0  0  0  0  0  0  0  0  0
  -31.4759   -7.1008   -7.3820 O   0  0  0  0  0  0  0  0  0  0  0  0
  -30.6942   -7.3821   -5.2115 N   0  0  0  0  0  0  0  0  0  0  0  0
  -31.0505   -9.7288   -5.8284 H   0  0  0  0  0  0  0  0  0  0  0  0
  -30.0686   -7.9967   -4.7121 H   0  0  0  0  0  0  0  0  0  0  0  0
  -29.9800   -9.9369   -8.8254 C   0  0  0  0  0  0  0  0  0  0  0  0
  -31.1862   -9.7211   -7.9370 C   0  0  0  0  0  0  0  0  0  0  0  0
 32 33  1  0  0  0
 33 26  1  0  0  0
 26 27  1  0  0  0
 26 30  1  0  0  0
 27 28  2  0  0  0
 27 29  1  0  0  0
 29 20  1  0  0  0
 29 31  1  0  0  0
 20 21  1  0  0  0
 20 25  2  0  0  0
 21 22  2  0  0  0
 22 23  1  0  0  0
 23 24  2  0  0  0
 24  1  1  0  0  0
 24 25  1  0  0  0
  1  2  2  0  0  0
  1  9  1  0  0  0
  2  3  1  0  0  0
  3  4  2  0  0  0
  4  5  1  0  0  0
  4  9  1  0  0  0
  5  6  2  0  0  0
  6 10  1  0  0  0
  6  7  1  0  0  0
 10 11  1  0  0  0
 10 17  2  0  0  0
 11 12  2  0  0  0
 12 13  1  0  0  0
 13 14  1  0  0  0
 13 15  2  0  0  0
 15 16  1  0  0  0
 15 17  1  0  0  0
 16 18  1  0  0  0
 16 19  1  0  0  0
  7  8  2  0  0  0
  8  9  1  0  0  0
M  END
> <minimizedAffinity>
-10.01821

$$$$
