CHEMBL3648113


 30 31  0  0  0  0  0  0  0  0999 V2000
  -15.7726   -1.1936  -12.2472 N   0  0  0  0  0  0  0  0  0  0  0  0
  -15.7192   -0.8732  -11.2882 H   0  0  0  0  0  0  0  0  0  0  0  0
  -15.4550   -0.0891  -13.0556 C   0  0  0  0  0  0  0  0  0  0  0  0
  -14.3091    0.5253  -12.7463 N   0  0  0  0  0  0  0  0  0  0  0  0
  -13.8489    1.4135  -13.6491 C   0  0  0  0  0  0  0  0  0  0  0  0
  -14.4888    1.7445  -14.8208 C   0  0  0  0  0  0  0  0  0  0  0  0
  -13.5463    2.8026  -16.0661 Br  0  0  0  0  0  0  0  0  0  0  0  0
  -15.7498    1.1874  -14.9904 C   0  0  0  0  0  0  0  0  0  0  0  0
  -16.2078    0.2673  -14.1133 N   0  0  0  0  0  0  0  0  0  0  0  0
  -16.6517    1.4152  -16.0180 N   0  0  0  0  0  0  0  0  0  0  0  0
  -17.0421    0.5023  -16.2443 H   0  0  0  0  0  0  0  0  0  0  0  0
  -17.6386    2.5042  -16.0150 C   0  0  0  0  0  0  0  0  0  0  0  0
  -17.0094    3.8515  -15.6434 C   0  0  0  0  0  0  0  0  0  0  0  0
  -18.8209    2.1872  -15.0468 C   0  0  0  0  0  0  0  0  0  0  0  0
  -20.0737    3.0194  -15.3129 C   0  0  0  0  0  0  0  0  0  0  0  0
  -19.1796    0.8034  -15.0756 O   0  0  0  0  0  0  0  0  0  0  0  0
  -19.6271    0.6259  -15.9196 H   0  0  0  0  0  0  0  0  0  0  0  0
  -14.7673   -5.3052  -12.7358 C   0  0  0  0  0  0  0  0  0  0  0  0
  -15.0211   -4.4775  -13.8406 C   0  0  0  0  0  0  0  0  0  0  0  0
  -15.3679   -3.1383  -13.6862 C   0  0  0  0  0  0  0  0  0  0  0  0
  -15.4113   -2.5449  -12.4306 C   0  0  0  0  0  0  0  0  0  0  0  0
  -15.1635   -3.3777  -11.3203 C   0  0  0  0  0  0  0  0  0  0  0  0
  -14.8280   -4.7498  -11.4539 C   0  0  0  0  0  0  0  0  0  0  0  0
  -13.3517   -9.0156  -11.8899 C   0  0  0  0  0  0  0  0  0  0  0  0
  -13.6047   -7.5963  -11.9961 N   0  0  0  0  0  0  0  0  0  0  0  0
  -14.5374   -7.0448  -13.1017 S   0  0  0  0  0  0  0  0  0  0  0  0
  -13.5646   -7.0568  -14.5899 C   0  0  0  0  0  0  0  0  0  0  0  0
  -15.8380   -7.6134  -13.3943 O   0  0  0  0  0  0  0  0  0  0  0  0
  -14.7561   -5.4222  -10.2639 O   0  0  0  0  0  0  0  0  0  0  0  0
  -13.9412   -4.8396   -9.2474 C   0  0  0  0  0  0  0  0  0  0  0  0
 24 25  1  0  0  0
 25 26  2  0  0  0
 26 27  1  0  0  0
 26 28  2  0  0  0
 26 18  1  0  0  0
 18 19  1  0  0  0
 18 23  2  0  0  0
 19 20  2  0  0  0
 20 21  1  0  0  0
 21  1  1  0  0  0
 21 22  2  0  0  0
  1  3  1  0  0  0
  1  2  1  0  0  0
  3  4  1  0  0  0
  3  9  2  0  0  0
  4  5  2  0  0  0
  5  6  1  0  0  0
  6  7  1  0  0  0
  6  8  2  0  0  0
  8 10  1  0  0  0
  8  9  1  0  0  0
 10 11  1  0  0  0
 12 14  1  0  0  0
 12 13  1  0  0  0
 12 10  1  0  0  0
 14 15  1  0  0  0
 14 16  1  0  0  0
 16 17  1  0  0  0
 22 23  1  0  0  0
 23 29  1  0  0  0
 29 30  1  0  0  0
M  END
> <minimizedAffinity>
-7.35914

$$$$
