CHEMBL4784540


 38 42  0  0  0  0  0  0  0  0999 V2000
  -30.1095   -5.8760   -3.9383 C   0  0  0  0  0  0  0  0  0  0  0  0
  -29.2746   -6.6689   -3.2716 N   0  0  0  0  0  0  0  0  0  0  0  0
  -28.8143   -7.7660   -3.8958 C   0  0  0  0  0  0  0  0  0  0  0  0
  -29.0762   -8.0044   -5.2253 C   0  0  0  0  0  0  0  0  0  0  0  0
  -29.9453   -7.1234   -5.8304 C   0  0  0  0  0  0  0  0  0  0  0  0
  -30.4907   -6.0764   -5.1961 N   0  0  0  0  0  0  0  0  0  0  0  0
  -30.9119   -2.7467   -2.4976 O   0  0  0  0  0  0  0  0  0  0  0  0
  -30.3542   -3.5026   -3.3034 C   0  0  0  0  0  0  0  0  0  0  0  0
  -29.5447   -3.1183   -4.3344 N   0  0  0  0  0  0  0  0  0  0  0  0
  -30.6411   -4.8276   -3.2135 N   0  0  0  0  0  0  0  0  0  0  0  0
  -29.2054   -3.8793   -4.9151 H   0  0  0  0  0  0  0  0  0  0  0  0
  -31.3980   -5.0789   -2.5935 H   0  0  0  0  0  0  0  0  0  0  0  0
  -29.2015   -1.8180   -4.7367 C   0  0  0  0  0  0  0  0  0  0  0  0
  -30.1058   -0.9173   -5.2950 C   0  0  0  0  0  0  0  0  0  0  0  0
  -29.6967    0.3580   -5.6680 C   0  0  0  0  0  0  0  0  0  0  0  0
  -28.3653    0.7350   -5.5168 C   0  0  0  0  0  0  0  0  0  0  0  0
  -27.4460   -0.1589   -4.9737 C   0  0  0  0  0  0  0  0  0  0  0  0
  -27.8645   -1.4279   -4.5725 C   0  0  0  0  0  0  0  0  0  0  0  0
  -28.1443   -8.7459   -3.1344 N   0  0  0  0  0  0  0  0  0  0  0  0
  -28.7548   -9.2311   -2.4893 H   0  0  0  0  0  0  0  0  0  0  0  0
  -27.0271   -9.4836   -3.5807 C   0  0  0  0  0  0  0  0  0  0  0  0
  -25.8543   -8.8313   -4.0018 C   0  0  0  0  0  0  0  0  0  0  0  0
  -24.7531   -9.5472   -4.4740 C   0  0  0  0  0  0  0  0  0  0  0  0
  -24.8120  -10.9340   -4.5251 C   0  0  0  0  0  0  0  0  0  0  0  0
  -23.4657  -11.8220   -5.1215 Cl  0  0  0  0  0  0  0  0  0  0  0  0
  -25.9575  -11.6045   -4.0976 C   0  0  0  0  0  0  0  0  0  0  0  0
  -27.0591  -10.8814   -3.6207 C   0  0  0  0  0  0  0  0  0  0  0  0
  -30.5121   -7.3723   -7.4936 S   0  0  0  0  0  0  0  0  0  0  0  0
  -29.0604   -7.9112   -8.3156 C   0  0  0  0  0  0  0  0  0  0  0  0
  -27.9851   -7.1588   -8.7377 C   0  0  0  0  0  0  0  0  0  0  0  0
  -27.1072   -8.0214   -9.3411 N   0  0  0  0  0  0  0  0  0  0  0  0
  -27.7781   -9.1761   -9.6656 C   0  0  0  0  0  0  0  0  0  0  0  0
  -27.5104  -10.1564  -10.6233 C   0  0  0  0  0  0  0  0  0  0  0  0
  -28.3530  -11.2708  -10.6396 C   0  0  0  0  0  0  0  0  0  0  0  0
  -29.3264  -11.4508   -9.6572 C   0  0  0  0  0  0  0  0  0  0  0  0
  -29.5924  -10.4457   -8.7215 C   0  0  0  0  0  0  0  0  0  0  0  0
  -28.8780   -9.2356   -8.8098 C   0  0  0  0  0  0  0  0  0  0  0  0
  -26.1540   -7.8083   -9.6042 H   0  0  0  0  0  0  0  0  0  0  0  0
  7  8  2  0  0  0
  8  9  1  0  0  0
  8 10  1  0  0  0
  9 13  1  0  0  0
  9 11  1  0  0  0
 13 14  1  0  0  0
 13 18  2  0  0  0
 14 15  2  0  0  0
 15 16  1  0  0  0
 16 17  2  0  0  0
 17 18  1  0  0  0
 10  1  1  0  0  0
 10 12  1  0  0  0
  1  2  1  0  0  0
  1  6  2  0  0  0
  2  3  2  0  0  0
  3 19  1  0  0  0
  3  4  1  0  0  0
 19 21  1  0  0  0
 19 20  1  0  0  0
 21 22  1  0  0  0
 21 27  2  0  0  0
 22 23  2  0  0  0
 23 24  1  0  0  0
 24 25  1  0  0  0
 24 26  2  0  0  0
 26 27  1  0  0  0
  4  5  2  0  0  0
  5 28  1  0  0  0
  5  6  1  0  0  0
 28 29  1  0  0  0
 29 30  2  0  0  0
 29 37  1  0  0  0
 30 31  1  0  0  0
 31 32  1  0  0  0
 31 38  1  0  0  0
 32 33  1  0  0  0
 32 37  2  0  0  0
 33 34  2  0  0  0
 34 35  1  0  0  0
 35 36  2  0  0  0
 36 37  1  0  0  0
M  END
> <minimizedAffinity>
-9.96814

$$$$
