CHEMBL46696


 31 34  0  0  0  0  0  0  0  0999 V2000
  -29.4451   -5.3129   -5.1416 C   0  0  0  0  0  0  0  0  0  0  0  0
  -28.3252   -5.8396   -4.6194 N   0  0  0  0  0  0  0  0  0  0  0  0
  -28.1480   -7.1646   -4.7240 C   0  0  0  0  0  0  0  0  0  0  0  0
  -29.0431   -7.9988   -5.3396 C   0  0  0  0  0  0  0  0  0  0  0  0
  -30.1363   -7.3744   -5.9011 C   0  0  0  0  0  0  0  0  0  0  0  0
  -30.3577   -6.0454   -5.7878 N   0  0  0  0  0  0  0  0  0  0  0  0
  -31.0261   -8.1420   -6.7037 N   0  0  0  0  0  0  0  0  0  0  0  0
  -32.3915   -8.2325   -6.5171 C   0  0  0  0  0  0  0  0  0  0  0  0
  -32.8697   -8.9576   -7.5763 C   0  0  0  0  0  0  0  0  0  0  0  0
  -31.8416   -9.3869   -8.3647 N   0  0  0  0  0  0  0  0  0  0  0  0
  -30.7213   -8.9458   -7.8058 C   0  0  0  0  0  0  0  0  0  0  0  0
  -29.3742   -9.3461   -8.2708 C   0  0  0  0  0  0  0  0  0  0  0  0
  -28.9180  -10.6494   -8.0296 C   0  0  0  0  0  0  0  0  0  0  0  0
  -27.6617  -11.0667   -8.4849 C   0  0  0  0  0  0  0  0  0  0  0  0
  -26.8489  -10.1907   -9.1999 C   0  0  0  0  0  0  0  0  0  0  0  0
  -27.2639   -8.8811   -9.4085 C   0  0  0  0  0  0  0  0  0  0  0  0
  -28.4957   -8.4556   -8.9078 C   0  0  0  0  0  0  0  0  0  0  0  0
  -29.6945   -3.9483   -5.0132 N   0  0  0  0  0  0  0  0  0  0  0  0
  -30.6318   -3.7965   -4.6560 H   0  0  0  0  0  0  0  0  0  0  0  0
  -27.8560   -2.1462   -7.7087 C   0  0  0  0  0  0  0  0  0  0  0  0
  -28.4345   -3.1814   -6.9737 C   0  0  0  0  0  0  0  0  0  0  0  0
  -29.1624   -2.9179   -5.8033 C   0  0  0  0  0  0  0  0  0  0  0  0
  -29.3680   -1.5882   -5.4203 C   0  0  0  0  0  0  0  0  0  0  0  0
  -28.7753   -0.5341   -6.1312 C   0  0  0  0  0  0  0  0  0  0  0  0
  -28.0268   -0.8287   -7.2818 C   0  0  0  0  0  0  0  0  0  0  0  0
  -28.8839    0.8896   -5.6534 C   0  0  0  0  0  0  0  0  0  0  0  0
  -28.6111    1.8122   -6.6181 F   0  0  0  0  0  0  0  0  0  0  0  0
  -30.1319    1.1904   -5.1968 F   0  0  0  0  0  0  0  0  0  0  0  0
  -28.0340    1.1645   -4.6249 F   0  0  0  0  0  0  0  0  0  0  0  0
  -27.5731   -1.6651  -10.0188 C   0  0  0  0  0  0  0  0  0  0  0  0
  -27.0928   -2.2911   -8.8348 O   0  0  0  0  0  0  0  0  0  0  0  0
 30 31  1  0  0  0
 31 20  1  0  0  0
 20 21  1  0  0  0
 20 25  2  0  0  0
 21 22  2  0  0  0
 22 18  1  0  0  0
 22 23  1  0  0  0
 18  1  1  0  0  0
 18 19  1  0  0  0
  1  2  1  0  0  0
  1  6  2  0  0  0
  2  3  2  0  0  0
  3  4  1  0  0  0
  4  5  2  0  0  0
  5  7  1  0  0  0
  5  6  1  0  0  0
  7  8  1  0  0  0
  7 11  1  0  0  0
  8  9  2  0  0  0
  9 10  1  0  0  0
 10 11  2  0  0  0
 11 12  1  0  0  0
 12 13  1  0  0  0
 12 17  2  0  0  0
 13 14  2  0  0  0
 14 15  1  0  0  0
 15 16  2  0  0  0
 16 17  1  0  0  0
 23 24  2  0  0  0
 24 26  1  0  0  0
 24 25  1  0  0  0
 26 27  1  0  0  0
 26 28  1  0  0  0
 26 29  1  0  0  0
M  END
> <minimizedAffinity>
-9.18507

$$$$
