CHEMBL89010


 26 29  0  0  0  0  0  0  0  0999 V2000
  -23.7739    2.0187  -13.6198 O   0  0  0  0  0  0  0  0  0  0  0  0
  -22.5954    2.0354  -13.9175 C   0  0  0  0  0  0  0  0  0  0  0  0
  -21.8774    3.1588  -14.2763 N   0  0  0  0  0  0  0  0  0  0  0  0
  -20.5794    2.8447  -14.6453 C   0  0  0  0  0  0  0  0  0  0  0  0
  -19.6341    3.7428  -15.0957 C   0  0  0  0  0  0  0  0  0  0  0  0
  -18.3937    3.2281  -15.4680 C   0  0  0  0  0  0  0  0  0  0  0  0
  -18.1258    1.8430  -15.3779 C   0  0  0  0  0  0  0  0  0  0  0  0
  -19.1113    0.9459  -14.9079 C   0  0  0  0  0  0  0  0  0  0  0  0
  -20.3461    1.4662  -14.5366 C   0  0  0  0  0  0  0  0  0  0  0  0
  -21.6109    0.8885  -14.0327 C   0  0  0  0  0  0  0  0  0  0  0  0
  -21.8502   -0.3908  -13.6944 C   0  0  0  0  0  0  0  0  0  0  0  0
  -22.2982    4.0742  -14.3008 H   0  0  0  0  0  0  0  0  0  0  0  0
  -23.0774   -0.8066  -13.1177 C   0  0  0  0  0  0  0  0  0  0  0  0
  -23.5029   -0.9558  -11.8088 C   0  0  0  0  0  0  0  0  0  0  0  0
  -24.8743   -1.3132  -11.8379 C   0  0  0  0  0  0  0  0  0  0  0  0
  -25.2337   -1.4186  -13.1655 C   0  0  0  0  0  0  0  0  0  0  0  0
  -24.1426   -1.1128  -13.9367 N   0  0  0  0  0  0  0  0  0  0  0  0
  -26.5895   -1.7640  -13.6760 C   0  0  0  0  0  0  0  0  0  0  0  0
  -27.6322   -1.5280  -12.5655 C   0  0  0  0  0  0  0  0  0  0  0  0
  -27.1727   -2.1069  -11.2135 C   0  0  0  0  0  0  0  0  0  0  0  0
  -25.8527   -1.4782  -10.7223 C   0  0  0  0  0  0  0  0  0  0  0  0
  -24.1411   -1.0561  -14.9457 H   0  0  0  0  0  0  0  0  0  0  0  0
  -16.7936    1.3971  -15.8699 C   0  0  0  0  0  0  0  0  0  0  0  0
  -16.0857    2.1015  -16.5700 O   0  0  0  0  0  0  0  0  0  0  0  0
  -16.4184    0.1754  -15.4448 O   0  0  0  0  0  0  0  0  0  0  0  0
  -16.9624   -0.2099  -14.7360 H   0  0  0  0  0  0  0  0  0  0  0  0
  1  2  2  0  0  0
  2  3  1  0  0  0
  2 10  1  0  0  0
  3  4  1  0  0  0
  3 12  1  0  0  0
  4  5  1  0  0  0
  4  9  2  0  0  0
  5  6  2  0  0  0
  6  7  1  0  0  0
  7 23  1  0  0  0
  7  8  2  0  0  0
 23 24  2  0  0  0
 23 25  1  0  0  0
 25 26  1  0  0  0
  8  9  1  0  0  0
  9 10  1  0  0  0
 10 11  2  0  0  0
 11 13  1  0  0  0
 13 14  2  0  0  0
 13 17  1  0  0  0
 14 15  1  0  0  0
 15 16  2  0  0  0
 15 21  1  0  0  0
 16 17  1  0  0  0
 16 18  1  0  0  0
 17 22  1  0  0  0
 18 19  1  0  0  0
 19 20  1  0  0  0
 20 21  1  0  0  0
M  END
> <minimizedAffinity>
-10.42339

$$$$
