CHEMBL3093586


 39 44  0  0  0  0  0  0  0  0999 V2000
  -13.1904   -2.8730  -17.9645 C   0  0  0  0  0  0  0  0  0  0  0  0
  -12.9421   -2.5292  -16.6302 C   0  0  0  0  0  0  0  0  0  0  0  0
  -13.0399   -1.2091  -16.1759 C   0  0  0  0  0  0  0  0  0  0  0  0
  -13.3712   -0.1938  -17.0587 C   0  0  0  0  0  0  0  0  0  0  0  0
  -13.5563   -0.4889  -18.4084 C   0  0  0  0  0  0  0  0  0  0  0  0
  -13.4552   -1.8232  -18.8613 C   0  0  0  0  0  0  0  0  0  0  0  0
  -14.1706   -4.8101  -19.2225 C   0  0  0  0  0  0  0  0  0  0  0  0
  -15.1955   -4.2365  -19.5906 O   0  0  0  0  0  0  0  0  0  0  0  0
  -13.2166   -4.2250  -18.4140 N   0  0  0  0  0  0  0  0  0  0  0  0
  -12.3778   -4.7919  -18.2509 H   0  0  0  0  0  0  0  0  0  0  0  0
  -13.1038   -8.8566  -22.0487 C   0  0  0  0  0  0  0  0  0  0  0  0
  -13.3075   -7.9494  -20.9013 C   0  0  0  0  0  0  0  0  0  0  0  0
  -13.5234   -6.5829  -20.9379 C   0  0  0  0  0  0  0  0  0  0  0  0
  -13.8859   -6.1894  -19.6256 C   0  0  0  0  0  0  0  0  0  0  0  0
  -13.9007   -7.2588  -18.8002 N   0  0  0  0  0  0  0  0  0  0  0  0
  -13.4619   -8.3070  -19.5729 N   0  0  0  0  0  0  0  0  0  0  0  0
  -13.1955   -9.5732  -18.9855 C   0  0  0  0  0  0  0  0  0  0  0  0
  -14.2447  -10.4770  -18.7938 C   0  0  0  0  0  0  0  0  0  0  0  0
  -13.9946  -11.7304  -18.2254 C   0  0  0  0  0  0  0  0  0  0  0  0
  -12.7057  -12.0747  -17.8188 C   0  0  0  0  0  0  0  0  0  0  0  0
  -11.6611  -11.1694  -17.9834 C   0  0  0  0  0  0  0  0  0  0  0  0
  -11.9016   -9.9220  -18.5673 C   0  0  0  0  0  0  0  0  0  0  0  0
  -13.6172    1.1480  -16.6492 O   0  0  0  0  0  0  0  0  0  0  0  0
  -14.8368    1.6770  -16.2310 C   0  0  0  0  0  0  0  0  0  0  0  0
  -15.1653    2.8349  -17.0854 C   0  0  0  0  0  0  0  0  0  0  0  0
  -16.0925    3.6731  -16.5945 C   0  0  0  0  0  0  0  0  0  0  0  0
  -17.0637    3.1021  -15.7383 C   0  0  0  0  0  0  0  0  0  0  0  0
  -18.3504    3.3360  -15.5639 N   0  0  0  0  0  0  0  0  0  0  0  0
  -18.7817    2.3529  -14.7151 C   0  0  0  0  0  0  0  0  0  0  0  0
  -17.7304    1.5801  -14.2886 C   0  0  0  0  0  0  0  0  0  0  0  0
  -16.6914    1.9575  -15.0766 N   0  0  0  0  0  0  0  0  0  0  0  0
  -15.5333    1.2529  -15.2276 N   0  0  0  0  0  0  0  0  0  0  0  0
  -20.0904    2.0916  -14.3845 N   0  0  0  0  0  0  0  0  0  0  0  0
  -20.7584    0.9427  -14.7251 C   0  0  0  0  0  0  0  0  0  0  0  0
  -20.3731    0.0356  -15.4484 O   0  0  0  0  0  0  0  0  0  0  0  0
  -20.5064    2.7181  -13.7159 H   0  0  0  0  0  0  0  0  0  0  0  0
  -22.0947    0.8334  -14.0469 C   0  0  0  0  0  0  0  0  0  0  0  0
  -22.1928    0.1145  -12.7174 C   0  0  0  0  0  0  0  0  0  0  0  0
  -22.7785   -0.5122  -13.9490 C   0  0  0  0  0  0  0  0  0  0  0  0
 11 12  1  0  0  0
 12 13  2  0  0  0
 12 16  1  0  0  0
 13 14  1  0  0  0
 14  7  1  0  0  0
 14 15  2  0  0  0
  7  8  2  0  0  0
  7  9  1  0  0  0
  9  1  1  0  0  0
  9 10  1  0  0  0
  1  2  1  0  0  0
  1  6  2  0  0  0
  2  3  2  0  0  0
  3  4  1  0  0  0
  4 23  1  0  0  0
  4  5  2  0  0  0
 23 24  1  0  0  0
 24 25  1  0  0  0
 24 32  2  0  0  0
 25 26  2  0  0  0
 26 27  1  0  0  0
 27 28  2  0  0  0
 27 31  1  0  0  0
 28 29  1  0  0  0
 29 33  1  0  0  0
 29 30  2  0  0  0
 33 34  1  0  0  0
 33 36  1  0  0  0
 34 35  2  0  0  0
 34 37  1  0  0  0
 37 38  1  0  0  0
 37 39  1  0  0  0
 38 39  1  0  0  0
 30 31  1  0  0  0
 31 32  1  0  0  0
  5  6  1  0  0  0
 15 16  1  0  0  0
 16 17  1  0  0  0
 17 18  1  0  0  0
 17 22  2  0  0  0
 18 19  2  0  0  0
 19 20  1  0  0  0
 20 21  2  0  0  0
 21 22  1  0  0  0
M  END
> <minimizedAffinity>
-8.09192

$$$$
