CHEMBL3900967


 34 37  0  0  0  0  0  0  0  0999 V2000
  -29.6156   -9.3790   -7.7689 C   0  0  0  0  0  0  0  0  0  0  0  0
  -30.7866  -10.0437   -7.6253 N   0  0  0  0  0  0  0  0  0  0  0  0
  -31.9023   -9.3370   -7.3476 C   0  0  0  0  0  0  0  0  0  0  0  0
  -32.0309   -8.0077   -7.1977 N   0  0  0  0  0  0  0  0  0  0  0  0
  -30.8548   -7.3891   -7.3650 C   0  0  0  0  0  0  0  0  0  0  0  0
  -30.6616   -6.0412   -7.2537 N   0  0  0  0  0  0  0  0  0  0  0  0
  -29.3316   -5.7235   -7.4312 C   0  0  0  0  0  0  0  0  0  0  0  0
  -28.6841   -6.9223   -7.7051 C   0  0  0  0  0  0  0  0  0  0  0  0
  -29.6369   -7.9781   -7.6528 C   0  0  0  0  0  0  0  0  0  0  0  0
  -31.4051   -5.3912   -7.0469 H   0  0  0  0  0  0  0  0  0  0  0  0
  -28.7977   -4.3666   -7.3027 C   0  0  0  0  0  0  0  0  0  0  0  0
  -28.3633   -3.6440   -8.4228 C   0  0  0  0  0  0  0  0  0  0  0  0
  -27.9211   -2.3200   -8.2996 C   0  0  0  0  0  0  0  0  0  0  0  0
  -27.9048   -1.7050   -7.0499 C   0  0  0  0  0  0  0  0  0  0  0  0
  -28.3022   -2.4262   -5.9257 C   0  0  0  0  0  0  0  0  0  0  0  0
  -28.7512   -3.7434   -6.0505 C   0  0  0  0  0  0  0  0  0  0  0  0
  -27.4734   -0.4334   -6.8004 O   0  0  0  0  0  0  0  0  0  0  0  0
  -28.0258    0.2006   -5.6477 C   0  0  0  0  0  0  0  0  0  0  0  0
  -29.4062    0.7659   -5.9642 C   0  0  0  0  0  0  0  0  0  0  0  0
  -30.4260    0.4012   -5.3850 O   0  0  0  0  0  0  0  0  0  0  0  0
  -29.4299    1.7200   -6.9509 N   0  0  0  0  0  0  0  0  0  0  0  0
  -30.6900    2.2253   -7.3317 O   0  0  0  0  0  0  0  0  0  0  0  0
  -28.6232    1.9425   -7.5296 H   0  0  0  0  0  0  0  0  0  0  0  0
  -31.2974    1.7639   -6.7144 H   0  0  0  0  0  0  0  0  0  0  0  0
  -28.4184  -10.0650   -7.9940 N   0  0  0  0  0  0  0  0  0  0  0  0
  -27.7184   -9.3669   -8.2395 H   0  0  0  0  0  0  0  0  0  0  0  0
  -27.4037  -12.1959   -8.7611 C   0  0  0  0  0  0  0  0  0  0  0  0
  -28.4530  -11.1092   -9.0291 C   0  0  0  0  0  0  0  0  0  0  0  0
  -28.1631  -10.4370  -10.3681 C   0  0  0  0  0  0  0  0  0  0  0  0
  -27.0044   -9.6676  -10.5496 C   0  0  0  0  0  0  0  0  0  0  0  0
  -26.7142   -9.1056  -11.7961 C   0  0  0  0  0  0  0  0  0  0  0  0
  -27.5781   -9.3022  -12.8728 C   0  0  0  0  0  0  0  0  0  0  0  0
  -28.7474  -10.0374  -12.7002 C   0  0  0  0  0  0  0  0  0  0  0  0
  -29.0411  -10.5944  -11.4559 C   0  0  0  0  0  0  0  0  0  0  0  0
 27 28  1  0  0  0
 28 25  1  0  0  0
 28 29  1  0  0  0
 25  1  1  0  0  0
 25 26  1  0  0  0
  1  2  1  0  0  0
  1  9  2  0  0  0
  2  3  2  0  0  0
  3  4  1  0  0  0
  4  5  2  0  0  0
  5  6  1  0  0  0
  5  9  1  0  0  0
  6  7  1  0  0  0
  6 10  1  0  0  0
  7 11  1  0  0  0
  7  8  2  0  0  0
 11 12  1  0  0  0
 11 16  2  0  0  0
 12 13  2  0  0  0
 13 14  1  0  0  0
 14 17  1  0  0  0
 14 15  2  0  0  0
 17 18  1  0  0  0
 18 19  1  0  0  0
 19 20  2  0  0  0
 19 21  1  0  0  0
 21 22  1  0  0  0
 21 23  1  0  0  0
 22 24  1  0  0  0
 15 16  1  0  0  0
  8  9  1  0  0  0
 29 30  1  0  0  0
 29 34  2  0  0  0
 30 31  2  0  0  0
 31 32  1  0  0  0
 32 33  2  0  0  0
 33 34  1  0  0  0
M  END
> <minimizedAffinity>
-8.86301

$$$$
