CHEMBL410840


 34 37  0  0  0  0  0  0  0  0999 V2000
  -23.3221   -0.1428  -13.2747 C   0  0  0  0  0  0  0  0  0  0  0  0
  -23.7374    0.2372  -12.0082 C   0  0  0  0  0  0  0  0  0  0  0  0
  -24.9544   -0.2455  -11.5304 C   0  0  0  0  0  0  0  0  0  0  0  0
  -25.8812   -0.9402  -12.3525 C   0  0  0  0  0  0  0  0  0  0  0  0
  -27.1227   -1.5086  -11.9284 C   0  0  0  0  0  0  0  0  0  0  0  0
  -27.9620   -2.1570  -12.8524 C   0  0  0  0  0  0  0  0  0  0  0  0
  -27.6045   -2.2547  -14.1915 C   0  0  0  0  0  0  0  0  0  0  0  0
  -26.3811   -1.7464  -14.6127 C   0  0  0  0  0  0  0  0  0  0  0  0
  -25.5097   -1.1105  -13.7099 C   0  0  0  0  0  0  0  0  0  0  0  0
  -24.2343   -0.7295  -14.1498 C   0  0  0  0  0  0  0  0  0  0  0  0
  -27.5930   -1.5600  -10.5088 C   0  0  0  0  0  0  0  0  0  0  0  0
  -28.2732   -0.6504  -10.0457 O   0  0  0  0  0  0  0  0  0  0  0  0
  -27.2055   -2.6380   -9.7496 N   0  0  0  0  0  0  0  0  0  0  0  0
  -26.4010   -3.1691  -10.0599 H   0  0  0  0  0  0  0  0  0  0  0  0
  -27.5918   -2.7543   -8.3450 C   0  0  0  0  0  0  0  0  0  0  0  0
  -28.4323   -3.9909   -8.0202 C   0  0  0  0  0  0  0  0  0  0  0  0
  -29.6900   -3.8897   -8.5110 F   0  0  0  0  0  0  0  0  0  0  0  0
  -27.8796   -5.1235   -8.5004 F   0  0  0  0  0  0  0  0  0  0  0  0
  -28.5474   -4.1333   -6.6766 F   0  0  0  0  0  0  0  0  0  0  0  0
  -22.0253   -0.0560  -13.7139 O   0  0  0  0  0  0  0  0  0  0  0  0
  -17.5793    2.2079  -15.4295 C   0  0  0  0  0  0  0  0  0  0  0  0
  -18.6172    3.1386  -15.2925 C   0  0  0  0  0  0  0  0  0  0  0  0
  -19.8966    2.7749  -14.8966 C   0  0  0  0  0  0  0  0  0  0  0  0
  -20.8062    3.7574  -14.8191 N   0  0  0  0  0  0  0  0  0  0  0  0
  -22.0590    3.4500  -14.4378 C   0  0  0  0  0  0  0  0  0  0  0  0
  -22.4513    2.1808  -14.0865 C   0  0  0  0  0  0  0  0  0  0  0  0
  -21.5053    1.1575  -14.1400 C   0  0  0  0  0  0  0  0  0  0  0  0
  -20.1831    1.4257  -14.6144 C   0  0  0  0  0  0  0  0  0  0  0  0
  -19.1241    0.4918  -14.8066 C   0  0  0  0  0  0  0  0  0  0  0  0
  -17.8130    0.8785  -15.1004 C   0  0  0  0  0  0  0  0  0  0  0  0
  -16.2748    3.9411  -16.3017 C   0  0  0  0  0  0  0  0  0  0  0  0
  -16.3462    2.5688  -15.9093 O   0  0  0  0  0  0  0  0  0  0  0  0
  -16.9024   -0.1419  -15.0740 O   0  0  0  0  0  0  0  0  0  0  0  0
  -16.0855   -0.2309  -13.9072 C   0  0  0  0  0  0  0  0  0  0  0  0
 31 32  1  0  0  0
 32 21  1  0  0  0
 21 22  1  0  0  0
 21 30  2  0  0  0
 22 23  2  0  0  0
 23 24  1  0  0  0
 23 28  1  0  0  0
 24 25  2  0  0  0
 25 26  1  0  0  0
 26 27  2  0  0  0
 27 20  1  0  0  0
 27 28  1  0  0  0
 20  1  1  0  0  0
  1  2  1  0  0  0
  1 10  2  0  0  0
  2  3  2  0  0  0
  3  4  1  0  0  0
  4  5  1  0  0  0
  4  9  2  0  0  0
  5 11  1  0  0  0
  5  6  2  0  0  0
 11 12  2  0  0  0
 11 13  1  0  0  0
 13 15  1  0  0  0
 13 14  1  0  0  0
 15 16  1  0  0  0
 16 17  1  0  0  0
 16 18  1  0  0  0
 16 19  1  0  0  0
  6  7  1  0  0  0
  7  8  2  0  0  0
  8  9  1  0  0  0
  9 10  1  0  0  0
 28 29  2  0  0  0
 29 30  1  0  0  0
 30 33  1  0  0  0
 33 34  1  0  0  0
M  END
> <minimizedAffinity>
-10.47770

$$$$
