CHEMBL3974080


 37 41  0  0  0  0  0  0  0  0999 V2000
  -15.4529    1.8232  -15.7095 N   0  0  0  0  0  0  0  0  0  0  0  0
  -16.9079    1.9531  -15.6918 C   0  0  0  0  0  0  0  0  0  0  0  0
  -17.4342    3.1590  -16.1759 C   0  0  0  0  0  0  0  0  0  0  0  0
  -18.6343    3.6578  -15.7079 C   0  0  0  0  0  0  0  0  0  0  0  0
  -19.4772    2.8981  -14.9539 C   0  0  0  0  0  0  0  0  0  0  0  0
  -20.5073    3.5684  -14.4310 N   0  0  0  0  0  0  0  0  0  0  0  0
  -21.4782    2.8080  -13.8811 C   0  0  0  0  0  0  0  0  0  0  0  0
  -21.4570    1.4400  -13.9364 C   0  0  0  0  0  0  0  0  0  0  0  0
  -20.3356    0.7520  -14.3554 N   0  0  0  0  0  0  0  0  0  0  0  0
  -19.2576    1.5170  -14.8234 C   0  0  0  0  0  0  0  0  0  0  0  0
  -17.9117    1.0891  -15.1674 C   0  0  0  0  0  0  0  0  0  0  0  0
  -22.7450    0.7865  -13.6925 C   0  0  0  0  0  0  0  0  0  0  0  0
  -23.4546    0.6556  -12.4741 C   0  0  0  0  0  0  0  0  0  0  0  0
  -24.4260   -0.2651  -12.5229 N   0  0  0  0  0  0  0  0  0  0  0  0
  -24.3335   -0.7523  -13.7715 N   0  0  0  0  0  0  0  0  0  0  0  0
  -25.3170   -1.6871  -14.2676 C   0  0  0  0  0  0  0  0  0  0  0  0
  -23.2641   -0.2452  -14.4663 C   0  0  0  0  0  0  0  0  0  0  0  0
  -12.5421    4.3271  -15.1357 C   0  0  0  0  0  0  0  0  0  0  0  0
  -12.4355    4.8971  -16.4081 C   0  0  0  0  0  0  0  0  0  0  0  0
  -13.2688    4.4274  -17.4101 C   0  0  0  0  0  0  0  0  0  0  0  0
  -14.2103    3.4131  -17.1391 C   0  0  0  0  0  0  0  0  0  0  0  0
  -14.3984    2.7940  -15.9000 C   0  0  0  0  0  0  0  0  0  0  0  0
  -13.5208    3.2926  -14.8966 C   0  0  0  0  0  0  0  0  0  0  0  0
  -11.1316    3.6405  -13.2746 C   0  0  0  0  0  0  0  0  0  0  0  0
  -11.7848    4.6648  -14.0422 O   0  0  0  0  0  0  0  0  0  0  0  0
  -13.4205    4.8652  -18.6945 O   0  0  0  0  0  0  0  0  0  0  0  0
  -14.5400    5.5942  -19.1513 C   0  0  0  0  0  0  0  0  0  0  0  0
  -15.0248    0.3398  -15.7040 C   0  0  0  0  0  0  0  0  0  0  0  0
  -14.3067   -0.1582  -14.4103 C   0  0  0  0  0  0  0  0  0  0  0  0
  -13.9280   -1.6439  -14.2553 C   0  0  0  0  0  0  0  0  0  0  0  0
  -14.8874   -2.5949  -13.5017 C   0  0  0  0  0  0  0  0  0  0  0  0
  -15.5221   -2.0631  -12.3102 N   0  0  0  0  0  0  0  0  0  0  0  0
  -15.9014   -0.6680  -12.3272 C   0  0  0  0  0  0  0  0  0  0  0  0
  -14.9727    0.3050  -13.0952 C   0  0  0  0  0  0  0  0  0  0  0  0
  -16.0136   -3.0004  -11.2690 C   0  0  0  0  0  0  0  0  0  0  0  0
  -16.3970   -4.4485  -11.6780 C   0  0  0  0  0  0  0  0  0  0  0  0
  -15.2018   -3.1331   -9.9568 C   0  0  0  0  0  0  0  0  0  0  0  0
 24 25  1  0  0  0
 25 18  1  0  0  0
 18 19  1  0  0  0
 18 23  2  0  0  0
 19 20  2  0  0  0
 20 26  1  0  0  0
 20 21  1  0  0  0
 26 27  1  0  0  0
 21 22  2  0  0  0
 22  1  1  0  0  0
 22 23  1  0  0  0
  1 28  1  0  0  0
  1  2  1  0  0  0
 28 29  1  0  0  0
 29 30  1  0  0  0
 29 34  1  0  0  0
 30 31  1  0  0  0
 31 32  1  0  0  0
 32 35  1  0  0  0
 32 33  1  0  0  0
 35 36  1  0  0  0
 35 37  1  0  0  0
 33 34  1  0  0  0
  2  3  1  0  0  0
  2 11  2  0  0  0
  3  4  2  0  0  0
  4  5  1  0  0  0
  5  6  1  0  0  0
  5 10  2  0  0  0
  6  7  2  0  0  0
  7  8  1  0  0  0
  8 12  1  0  0  0
  8  9  2  0  0  0
 12 13  1  0  0  0
 12 17  2  0  0  0
 13 14  2  0  0  0
 14 15  1  0  0  0
 15 16  1  0  0  0
 15 17  1  0  0  0
  9 10  1  0  0  0
 10 11  1  0  0  0
M  END
> <minimizedAffinity>
-8.98866

$$$$
