CHEMBL3901827


 39 43  0  0  0  0  0  0  0  0999 V2000
  -29.2388  -10.0835   -7.7601 C   0  0  0  0  0  0  0  0  0  0  0  0
  -30.2219  -10.8040   -7.9562 O   0  0  0  0  0  0  0  0  0  0  0  0
  -29.5000   -8.6858   -7.2723 C   0  0  0  0  0  0  0  0  0  0  0  0
  -29.3731   -7.5531   -8.0786 C   0  0  0  0  0  0  0  0  0  0  0  0
  -29.6814   -6.2633   -7.5845 C   0  0  0  0  0  0  0  0  0  0  0  0
  -30.1131   -6.0876   -6.2489 C   0  0  0  0  0  0  0  0  0  0  0  0
  -30.4355   -5.0040   -5.3565 C   0  0  0  0  0  0  0  0  0  0  0  0
  -30.8614   -5.4753   -4.1726 N   0  0  0  0  0  0  0  0  0  0  0  0
  -30.7813   -6.8074   -4.2877 N   0  0  0  0  0  0  0  0  0  0  0  0
  -30.2917   -7.2406   -5.4896 C   0  0  0  0  0  0  0  0  0  0  0  0
  -30.0041   -8.5342   -5.9632 C   0  0  0  0  0  0  0  0  0  0  0  0
  -31.0620   -7.3721   -3.4944 H   0  0  0  0  0  0  0  0  0  0  0  0
  -30.3042   -3.5826   -5.5412 C   0  0  0  0  0  0  0  0  0  0  0  0
  -29.2083   -2.8896   -5.8870 C   0  0  0  0  0  0  0  0  0  0  0  0
  -29.0991   -1.4299   -5.9875 C   0  0  0  0  0  0  0  0  0  0  0  0
  -29.7520   -0.5433   -5.1354 C   0  0  0  0  0  0  0  0  0  0  0  0
  -29.5009    0.8243   -5.2594 C   0  0  0  0  0  0  0  0  0  0  0  0
  -28.6056    1.2678   -6.2239 C   0  0  0  0  0  0  0  0  0  0  0  0
  -27.9902    0.3207   -7.0220 C   0  0  0  0  0  0  0  0  0  0  0  0
  -28.2049   -1.0104   -6.9136 N   0  0  0  0  0  0  0  0  0  0  0  0
  -25.7060  -11.4077   -7.0708 C   0  0  0  0  0  0  0  0  0  0  0  0
  -25.2681  -11.6853   -8.3618 C   0  0  0  0  0  0  0  0  0  0  0  0
  -26.1106  -11.4523   -9.4662 C   0  0  0  0  0  0  0  0  0  0  0  0
  -27.4123  -10.9515   -9.3034 C   0  0  0  0  0  0  0  0  0  0  0  0
  -27.8891  -10.6877   -8.0215 C   0  0  0  0  0  0  0  0  0  0  0  0
  -27.0171  -10.8976   -6.9199 C   0  0  0  0  0  0  0  0  0  0  0  0
  -24.3366  -10.6862   -5.0197 C   0  0  0  0  0  0  0  0  0  0  0  0
  -24.4953   -9.4692   -5.0818 O   0  0  0  0  0  0  0  0  0  0  0  0
  -24.9275  -11.6090   -5.8937 N   0  0  0  0  0  0  0  0  0  0  0  0
  -24.8085  -12.5803   -5.6415 H   0  0  0  0  0  0  0  0  0  0  0  0
  -22.2832  -11.9679   -4.1113 N   0  0  0  0  0  0  0  0  0  0  0  0
  -21.6731  -12.1534   -2.9190 N   0  0  0  0  0  0  0  0  0  0  0  0
  -22.6513  -12.0280   -2.0289 C   0  0  0  0  0  0  0  0  0  0  0  0
  -22.4332  -12.4395   -0.6253 C   0  0  0  0  0  0  0  0  0  0  0  0
  -23.8029  -11.4881   -2.6307 C   0  0  0  0  0  0  0  0  0  0  0  0
  -23.5048  -11.3209   -3.9844 C   0  0  0  0  0  0  0  0  0  0  0  0
  -21.5427  -12.4634   -5.2552 C   0  0  0  0  0  0  0  0  0  0  0  0
  -21.7876  -11.9041   -7.8295 C   0  0  0  0  0  0  0  0  0  0  0  0
  -21.3689  -11.4620   -6.4257 C   0  0  0  0  0  0  0  0  0  0  0  0
 38 39  1  0  0  0
 39 37  1  0  0  0
 37 31  1  0  0  0
 31 32  1  0  0  0
 31 36  1  0  0  0
 32 33  2  0  0  0
 33 34  1  0  0  0
 33 35  1  0  0  0
 35 36  2  0  0  0
 36 27  1  0  0  0
 27 28  2  0  0  0
 27 29  1  0  0  0
 29 21  1  0  0  0
 29 30  1  0  0  0
 21 22  1  0  0  0
 21 26  2  0  0  0
 22 23  2  0  0  0
 23 24  1  0  0  0
 24 25  2  0  0  0
 25  1  1  0  0  0
 25 26  1  0  0  0
  1  2  2  0  0  0
  1  3  1  0  0  0
  3  4  1  0  0  0
  3 11  2  0  0  0
  4  5  2  0  0  0
  5  6  1  0  0  0
  6  7  1  0  0  0
  6 10  2  0  0  0
  7 13  1  0  0  0
  7  8  2  0  0  0
 13 14  2  0  0  0
 14 15  1  0  0  0
 15 16  1  0  0  0
 15 20  2  0  0  0
 16 17  2  0  0  0
 17 18  1  0  0  0
 18 19  2  0  0  0
 19 20  1  0  0  0
  8  9  1  0  0  0
  9 10  1  0  0  0
  9 12  1  0  0  0
 10 11  1  0  0  0
M  END
> <minimizedAffinity>
-9.34526

$$$$
