CHEMBL201659


 25 27  0  0  0  0  0  0  0  0999 V2000
  -27.6339   -2.0367  -10.1430 N   0  0  0  0  0  0  0  0  0  0  0  0
  -26.3979   -1.7298  -10.6980 C   0  0  0  0  0  0  0  0  0  0  0  0
  -25.3812   -1.5484  -10.0351 O   0  0  0  0  0  0  0  0  0  0  0  0
  -28.3969   -2.1635  -10.7928 H   0  0  0  0  0  0  0  0  0  0  0  0
  -28.4974   -2.7454   -6.0493 C   0  0  0  0  0  0  0  0  0  0  0  0
  -28.0522   -1.4872   -6.4628 C   0  0  0  0  0  0  0  0  0  0  0  0
  -27.7732   -1.2322   -7.8072 C   0  0  0  0  0  0  0  0  0  0  0  0
  -27.9309   -2.2240   -8.7748 C   0  0  0  0  0  0  0  0  0  0  0  0
  -28.3960   -3.4798   -8.3700 C   0  0  0  0  0  0  0  0  0  0  0  0
  -28.6788   -3.7381   -7.0221 C   0  0  0  0  0  0  0  0  0  0  0  0
  -30.2276   -3.2320   -4.2819 C   0  0  0  0  0  0  0  0  0  0  0  0
  -28.7464   -2.9922   -4.5738 C   0  0  0  0  0  0  0  0  0  0  0  0
  -27.8804   -4.1391   -4.0491 C   0  0  0  0  0  0  0  0  0  0  0  0
  -26.3630   -1.6437  -12.1545 C   0  0  0  0  0  0  0  0  0  0  0  0
  -27.7040   -2.0739  -13.1403 S   0  0  0  0  0  0  0  0  0  0  0  0
  -26.7770   -1.7370  -14.5360 C   0  0  0  0  0  0  0  0  0  0  0  0
  -25.5534   -1.3055  -14.3280 N   0  0  0  0  0  0  0  0  0  0  0  0
  -25.3009   -1.2399  -12.9626 C   0  0  0  0  0  0  0  0  0  0  0  0
  -23.9286   -0.8250  -12.5016 C   0  0  0  0  0  0  0  0  0  0  0  0
  -22.8359   -0.9045  -13.5714 C   0  0  0  0  0  0  0  0  0  0  0  0
  -22.3233    0.4489  -13.9370 C   0  0  0  0  0  0  0  0  0  0  0  0
  -21.0992    0.7856  -14.5570 C   0  0  0  0  0  0  0  0  0  0  0  0
  -20.9561    2.1031  -14.7229 N   0  0  0  0  0  0  0  0  0  0  0  0
  -22.1113    2.6611  -14.1984 O   0  0  0  0  0  0  0  0  0  0  0  0
  -22.9168    1.6729  -13.7352 C   0  0  0  0  0  0  0  0  0  0  0  0
 11 12  1  0  0  0
 12 13  1  0  0  0
 12  5  1  0  0  0
  5  6  1  0  0  0
  5 10  2  0  0  0
  6  7  2  0  0  0
  7  8  1  0  0  0
  8  1  1  0  0  0
  8  9  2  0  0  0
  1  2  1  0  0  0
  1  4  1  0  0  0
  2  3  2  0  0  0
  2 14  1  0  0  0
 14 15  1  0  0  0
 14 18  2  0  0  0
 15 16  1  0  0  0
 16 17  2  0  0  0
 17 18  1  0  0  0
 18 19  1  0  0  0
 19 20  1  0  0  0
 20 21  1  0  0  0
 21 22  1  0  0  0
 21 25  2  0  0  0
 22 23  2  0  0  0
 23 24  1  0  0  0
 24 25  1  0  0  0
  9 10  1  0  0  0
M  END
> <minimizedAffinity>
-8.67128

$$$$
