CHEMBL1980297


 40 44  0  0  0  0  0  0  0  0999 V2000
  -22.7849    2.9775  -13.6365 N   0  0  0  0  0  0  0  0  0  0  0  0
  -21.5374    2.7741  -14.2130 C   0  0  0  0  0  0  0  0  0  0  0  0
  -20.8655    3.9146  -14.4657 N   0  0  0  0  0  0  0  0  0  0  0  0
  -19.6282    3.8633  -14.9866 C   0  0  0  0  0  0  0  0  0  0  0  0
  -18.9495    2.6998  -15.3039 C   0  0  0  0  0  0  0  0  0  0  0  0
  -19.6576    1.5034  -15.0607 C   0  0  0  0  0  0  0  0  0  0  0  0
  -19.1218   -0.1075  -15.3848 S   0  0  0  0  0  0  0  0  0  0  0  0
  -20.5415   -0.7936  -14.7970 C   0  0  0  0  0  0  0  0  0  0  0  0
  -21.4616    0.1366  -14.3543 C   0  0  0  0  0  0  0  0  0  0  0  0
  -20.9617    1.5064  -14.5146 C   0  0  0  0  0  0  0  0  0  0  0  0
  -22.8539    3.9506  -13.3544 H   0  0  0  0  0  0  0  0  0  0  0  0
  -23.0021    2.3094  -12.9080 H   0  0  0  0  0  0  0  0  0  0  0  0
  -22.7169   -0.3644  -13.7817 C   0  0  0  0  0  0  0  0  0  0  0  0
  -22.7604   -0.6910  -12.4218 C   0  0  0  0  0  0  0  0  0  0  0  0
  -23.9255   -1.1762  -11.8334 C   0  0  0  0  0  0  0  0  0  0  0  0
  -25.1012   -1.2851  -12.5672 C   0  0  0  0  0  0  0  0  0  0  0  0
  -25.0679   -1.0101  -13.9347 C   0  0  0  0  0  0  0  0  0  0  0  0
  -23.8744   -0.5724  -14.5424 C   0  0  0  0  0  0  0  0  0  0  0  0
  -26.3148   -1.6901  -11.9618 N   0  0  0  0  0  0  0  0  0  0  0  0
  -26.5035   -1.7408  -10.5910 C   0  0  0  0  0  0  0  0  0  0  0  0
  -25.7179   -1.2993   -9.7589 O   0  0  0  0  0  0  0  0  0  0  0  0
  -27.6867   -2.3810  -10.2604 N   0  0  0  0  0  0  0  0  0  0  0  0
  -27.1536   -1.6466  -12.5227 H   0  0  0  0  0  0  0  0  0  0  0  0
  -27.9405   -3.1370  -10.8805 H   0  0  0  0  0  0  0  0  0  0  0  0
  -28.1199   -2.4762   -8.9179 C   0  0  0  0  0  0  0  0  0  0  0  0
  -28.8549   -3.5807   -8.4620 C   0  0  0  0  0  0  0  0  0  0  0  0
  -29.3011   -3.6455   -7.1407 C   0  0  0  0  0  0  0  0  0  0  0  0
  -29.0168   -2.5976   -6.2694 C   0  0  0  0  0  0  0  0  0  0  0  0
  -28.2829   -1.5068   -6.7251 C   0  0  0  0  0  0  0  0  0  0  0  0
  -28.0397   -0.4866   -5.8915 F   0  0  0  0  0  0  0  0  0  0  0  0
  -27.8125   -1.4437   -8.0340 C   0  0  0  0  0  0  0  0  0  0  0  0
  -17.6172    2.7247  -15.8766 C   0  0  0  0  0  0  0  0  0  0  0  0
  -16.6094    1.7356  -15.9949 C   0  0  0  0  0  0  0  0  0  0  0  0
  -15.5218    2.1809  -16.6323 N   0  0  0  0  0  0  0  0  0  0  0  0
  -15.8226    3.4588  -16.9179 N   0  0  0  0  0  0  0  0  0  0  0  0
  -17.0540    3.8364  -16.4660 C   0  0  0  0  0  0  0  0  0  0  0  0
  -14.8893    4.2729  -17.6719 C   0  0  0  0  0  0  0  0  0  0  0  0
  -13.7309    4.7705  -16.8171 C   0  0  0  0  0  0  0  0  0  0  0  0
  -14.1565    5.0626  -15.4865 O   0  0  0  0  0  0  0  0  0  0  0  0
  -14.6180    5.9250  -15.5232 H   0  0  0  0  0  0  0  0  0  0  0  0
  1  2  1  0  0  0
  1 11  1  0  0  0
  1 12  1  0  0  0
  2  3  1  0  0  0
  2 10  2  0  0  0
  3  4  2  0  0  0
  4  5  1  0  0  0
  5 32  1  0  0  0
  5  6  2  0  0  0
 32 33  1  0  0  0
 32 36  2  0  0  0
 33 34  2  0  0  0
 34 35  1  0  0  0
 35 37  1  0  0  0
 35 36  1  0  0  0
 37 38  1  0  0  0
 38 39  1  0  0  0
 39 40  1  0  0  0
  6  7  1  0  0  0
  6 10  1  0  0  0
  7  8  1  0  0  0
  8  9  2  0  0  0
  9 13  1  0  0  0
  9 10  1  0  0  0
 13 14  1  0  0  0
 13 18  2  0  0  0
 14 15  2  0  0  0
 15 16  1  0  0  0
 16 19  1  0  0  0
 16 17  2  0  0  0
 19 20  1  0  0  0
 19 23  1  0  0  0
 20 21  2  0  0  0
 20 22  1  0  0  0
 22 25  1  0  0  0
 22 24  1  0  0  0
 25 26  1  0  0  0
 25 31  2  0  0  0
 26 27  2  0  0  0
 27 28  1  0  0  0
 28 29  2  0  0  0
 29 30  1  0  0  0
 29 31  1  0  0  0
 17 18  1  0  0  0
M  END
> <minimizedAffinity>
-9.73794

$$$$
