CHEMBL3899614


 39 43  0  0  0  0  0  0  0  0999 V2000
  -27.0952   -1.6459  -10.0574 N   0  0  0  0  0  0  0  0  0  0  0  0
  -27.4793   -0.6260   -9.0677 C   0  0  0  0  0  0  0  0  0  0  0  0
  -28.3256   -1.0823   -7.7790 C   0  0  0  0  0  0  0  0  0  0  0  0
  -28.4987   -2.5618   -7.4558 C   0  0  0  0  0  0  0  0  0  0  0  0
  -27.9768   -3.4221   -8.4187 C   0  0  0  0  0  0  0  0  0  0  0  0
  -28.1425   -4.7749   -8.2268 C   0  0  0  0  0  0  0  0  0  0  0  0
  -28.9359   -5.3209   -7.3082 N   0  0  0  0  0  0  0  0  0  0  0  0
  -29.4842   -4.5406   -6.3934 C   0  0  0  0  0  0  0  0  0  0  0  0
  -30.2838   -5.2598   -5.5367 C   0  0  0  0  0  0  0  0  0  0  0  0
  -30.7557   -4.7880   -4.3138 C   0  0  0  0  0  0  0  0  0  0  0  0
  -30.4115   -3.4677   -3.9772 C   0  0  0  0  0  0  0  0  0  0  0  0
  -29.7347   -2.6421   -4.9763 C   0  0  0  0  0  0  0  0  0  0  0  0
  -29.2408   -3.1505   -6.2738 C   0  0  0  0  0  0  0  0  0  0  0  0
  -27.2941   -3.0529   -9.7022 C   0  0  0  0  0  0  0  0  0  0  0  0
  -24.3273   -0.5531  -12.5410 C   0  0  0  0  0  0  0  0  0  0  0  0
  -24.8414   -1.1867  -13.6926 C   0  0  0  0  0  0  0  0  0  0  0  0
  -26.0432   -1.8645  -13.6745 C   0  0  0  0  0  0  0  0  0  0  0  0
  -26.7573   -1.9587  -12.4734 C   0  0  0  0  0  0  0  0  0  0  0  0
  -26.3139   -1.4120  -11.2349 C   0  0  0  0  0  0  0  0  0  0  0  0
  -25.0835   -0.6710  -11.3176 C   0  0  0  0  0  0  0  0  0  0  0  0
  -22.7840    0.9296  -13.9632 N   0  0  0  0  0  0  0  0  0  0  0  0
  -22.9824    0.1495  -12.8161 C   0  0  0  0  0  0  0  0  0  0  0  0
  -22.0994   -0.0078  -11.9700 O   0  0  0  0  0  0  0  0  0  0  0  0
  -23.5522    0.9977  -14.6023 H   0  0  0  0  0  0  0  0  0  0  0  0
  -19.1589    1.6104  -14.7600 C   0  0  0  0  0  0  0  0  0  0  0  0
  -19.1746    2.9937  -15.0016 C   0  0  0  0  0  0  0  0  0  0  0  0
  -20.3619    3.7037  -14.8823 C   0  0  0  0  0  0  0  0  0  0  0  0
  -21.5535    3.0511  -14.5479 C   0  0  0  0  0  0  0  0  0  0  0  0
  -21.5929    1.6702  -14.2948 C   0  0  0  0  0  0  0  0  0  0  0  0
  -20.3715    0.9703  -14.3850 C   0  0  0  0  0  0  0  0  0  0  0  0
  -16.9398    1.5883  -15.9880 C   0  0  0  0  0  0  0  0  0  0  0  0
  -17.8235    0.8964  -14.9451 C   0  0  0  0  0  0  0  0  0  0  0  0
  -17.0381    0.6624  -13.6552 C   0  0  0  0  0  0  0  0  0  0  0  0
  -31.4314   -5.8040   -3.4031 C   0  0  0  0  0  0  0  0  0  0  0  0
  -30.5316   -6.7408   -2.8356 O   0  0  0  0  0  0  0  0  0  0  0  0
  -30.3307   -7.3768   -3.5525 H   0  0  0  0  0  0  0  0  0  0  0  0
  -30.5860   -3.0236   -2.5302 C   0  0  0  0  0  0  0  0  0  0  0  0
  -29.3542   -2.6809   -1.8979 O   0  0  0  0  0  0  0  0  0  0  0  0
  -28.8870   -3.5156   -1.7181 H   0  0  0  0  0  0  0  0  0  0  0  0
 31 32  1  0  0  0
 32 33  1  0  0  0
 32 25  1  0  0  0
 25 26  1  0  0  0
 25 30  2  0  0  0
 26 27  2  0  0  0
 27 28  1  0  0  0
 28 29  2  0  0  0
 29 21  1  0  0  0
 29 30  1  0  0  0
 21 22  1  0  0  0
 21 24  1  0  0  0
 22 23  2  0  0  0
 22 15  1  0  0  0
 15 16  1  0  0  0
 15 20  2  0  0  0
 16 17  2  0  0  0
 17 18  1  0  0  0
 18 19  2  0  0  0
 19  1  1  0  0  0
 19 20  1  0  0  0
  1  2  1  0  0  0
  1 14  1  0  0  0
  2  3  1  0  0  0
  3  4  1  0  0  0
  4  5  1  0  0  0
  4 13  2  0  0  0
  5  6  2  0  0  0
  5 14  1  0  0  0
  6  7  1  0  0  0
  7  8  2  0  0  0
  8  9  1  0  0  0
  8 13  1  0  0  0
  9 10  2  0  0  0
 10 34  1  0  0  0
 10 11  1  0  0  0
 34 35  1  0  0  0
 35 36  1  0  0  0
 11 37  1  0  0  0
 11 12  2  0  0  0
 37 38  1  0  0  0
 38 39  1  0  0  0
 12 13  1  0  0  0
M  END
> <minimizedAffinity>
-11.45853

$$$$
