CHEMBL3754536


 35 39  0  0  0  0  0  0  0  0999 V2000
  -30.6392   -5.8290   -4.7515 N   0  0  0  0  0  0  0  0  0  0  0  0
  -30.4181   -6.9586   -3.8113 C   0  0  0  0  0  0  0  0  0  0  0  0
  -28.9324   -7.2670   -3.5387 C   0  0  0  0  0  0  0  0  0  0  0  0
  -28.1821   -7.5501   -4.7662 N   0  0  0  0  0  0  0  0  0  0  0  0
  -28.4846   -6.7679   -5.9695 C   0  0  0  0  0  0  0  0  0  0  0  0
  -29.9405   -6.1970   -6.0123 C   0  0  0  0  0  0  0  0  0  0  0  0
  -27.1910   -8.5328   -4.7658 C   0  0  0  0  0  0  0  0  0  0  0  0
  -26.0617   -8.3370   -4.0488 N   0  0  0  0  0  0  0  0  0  0  0  0
  -24.9298   -9.1337   -4.2367 N   0  0  0  0  0  0  0  0  0  0  0  0
  -24.8856  -10.0738   -5.2100 C   0  0  0  0  0  0  0  0  0  0  0  0
  -26.0273  -10.2957   -6.0100 C   0  0  0  0  0  0  0  0  0  0  0  0
  -26.0615  -11.1178   -7.1717 C   0  0  0  0  0  0  0  0  0  0  0  0
  -27.2466  -11.4484   -7.8253 C   0  0  0  0  0  0  0  0  0  0  0  0
  -28.4470  -11.0052   -7.3045 C   0  0  0  0  0  0  0  0  0  0  0  0
  -28.4255  -10.1330   -6.2252 C   0  0  0  0  0  0  0  0  0  0  0  0
  -27.2280   -9.6381   -5.6550 C   0  0  0  0  0  0  0  0  0  0  0  0
  -23.6183  -10.8621   -5.2927 C   0  0  0  0  0  0  0  0  0  0  0  0
  -23.1592  -11.6713   -4.2297 C   0  0  0  0  0  0  0  0  0  0  0  0
  -22.0104  -12.4641   -4.3326 C   0  0  0  0  0  0  0  0  0  0  0  0
  -21.2387  -12.4140   -5.4853 C   0  0  0  0  0  0  0  0  0  0  0  0
  -21.6187  -11.5729   -6.5259 C   0  0  0  0  0  0  0  0  0  0  0  0
  -22.7949  -10.8130   -6.4332 C   0  0  0  0  0  0  0  0  0  0  0  0
  -30.1472   -4.5939   -4.0991 C   0  0  0  0  0  0  0  0  0  0  0  0
  -29.2767   -2.3298   -4.5523 N   0  0  0  0  0  0  0  0  0  0  0  0
  -30.1554   -3.3197   -4.9292 C   0  0  0  0  0  0  0  0  0  0  0  0
  -30.8895   -3.2983   -5.9231 O   0  0  0  0  0  0  0  0  0  0  0  0
  -28.7369   -2.5183   -3.7114 H   0  0  0  0  0  0  0  0  0  0  0  0
  -30.0304    1.0515   -5.9182 C   0  0  0  0  0  0  0  0  0  0  0  0
  -28.8150    1.3905   -6.5141 C   0  0  0  0  0  0  0  0  0  0  0  0
  -27.7446    0.5080   -6.4566 C   0  0  0  0  0  0  0  0  0  0  0  0
  -27.8853   -0.7179   -5.8084 C   0  0  0  0  0  0  0  0  0  0  0  0
  -29.0932   -1.0876   -5.2069 C   0  0  0  0  0  0  0  0  0  0  0  0
  -30.1644   -0.1857   -5.2649 C   0  0  0  0  0  0  0  0  0  0  0  0
  -31.6326    2.2615   -7.1862 C   0  0  0  0  0  0  0  0  0  0  0  0
  -31.1470    1.8473   -5.9125 O   0  0  0  0  0  0  0  0  0  0  0  0
 34 35  1  0  0  0
 35 28  1  0  0  0
 28 29  1  0  0  0
 28 33  2  0  0  0
 29 30  2  0  0  0
 30 31  1  0  0  0
 31 32  2  0  0  0
 32 24  1  0  0  0
 32 33  1  0  0  0
 24 25  1  0  0  0
 24 27  1  0  0  0
 25 26  2  0  0  0
 25 23  1  0  0  0
 23  1  1  0  0  0
  1  2  1  0  0  0
  1  6  1  0  0  0
  2  3  1  0  0  0
  3  4  1  0  0  0
  4  7  1  0  0  0
  4  5  1  0  0  0
  7  8  1  0  0  0
  7 16  2  0  0  0
  8  9  2  0  0  0
  9 10  1  0  0  0
 10 17  1  0  0  0
 10 11  2  0  0  0
 17 18  1  0  0  0
 17 22  2  0  0  0
 18 19  2  0  0  0
 19 20  1  0  0  0
 20 21  2  0  0  0
 21 22  1  0  0  0
 11 12  1  0  0  0
 11 16  1  0  0  0
 12 13  2  0  0  0
 13 14  1  0  0  0
 14 15  2  0  0  0
 15 16  1  0  0  0
  5  6  1  0  0  0
M  END
> <minimizedAffinity>
-8.55563

$$$$
