CHEMBL3754450


 33 37  0  0  0  0  0  0  0  0999 V2000
  -28.6780  -10.0798   -6.9166 N   0  0  0  0  0  0  0  0  0  0  0  0
  -29.5431   -9.3396   -7.8581 C   0  0  0  0  0  0  0  0  0  0  0  0
  -29.1869   -7.8372   -8.0071 C   0  0  0  0  0  0  0  0  0  0  0  0
  -29.2982   -7.1910   -6.6954 N   0  0  0  0  0  0  0  0  0  0  0  0
  -28.4044   -7.8303   -5.6917 C   0  0  0  0  0  0  0  0  0  0  0  0
  -28.7007   -9.3532   -5.6176 C   0  0  0  0  0  0  0  0  0  0  0  0
  -29.5600   -5.8322   -6.4830 C   0  0  0  0  0  0  0  0  0  0  0  0
  -28.8175   -4.9497   -7.1924 N   0  0  0  0  0  0  0  0  0  0  0  0
  -28.7243   -3.6126   -6.8558 N   0  0  0  0  0  0  0  0  0  0  0  0
  -29.3430   -3.1312   -5.7606 C   0  0  0  0  0  0  0  0  0  0  0  0
  -30.2004   -3.9695   -5.0088 C   0  0  0  0  0  0  0  0  0  0  0  0
  -30.8999   -3.5240   -3.8494 C   0  0  0  0  0  0  0  0  0  0  0  0
  -31.6972   -4.3563   -3.0706 C   0  0  0  0  0  0  0  0  0  0  0  0
  -31.9331   -5.6364   -3.5015 C   0  0  0  0  0  0  0  0  0  0  0  0
  -31.2985   -6.0917   -4.6538 C   0  0  0  0  0  0  0  0  0  0  0  0
  -30.3637   -5.3302   -5.4119 C   0  0  0  0  0  0  0  0  0  0  0  0
  -29.0269   -1.6999   -5.4718 C   0  0  0  0  0  0  0  0  0  0  0  0
  -27.8061   -1.3316   -4.8817 C   0  0  0  0  0  0  0  0  0  0  0  0
  -27.4801    0.0109   -4.6392 C   0  0  0  0  0  0  0  0  0  0  0  0
  -28.3635    1.0222   -5.0012 C   0  0  0  0  0  0  0  0  0  0  0  0
  -29.5925    0.6900   -5.5568 C   0  0  0  0  0  0  0  0  0  0  0  0
  -29.9331   -0.6540   -5.7475 C   0  0  0  0  0  0  0  0  0  0  0  0
  -27.3134  -10.2028   -7.4689 C   0  0  0  0  0  0  0  0  0  0  0  0
  -26.6047  -11.4317   -6.9161 C   0  0  0  0  0  0  0  0  0  0  0  0
  -27.2231  -12.4646   -6.6640 O   0  0  0  0  0  0  0  0  0  0  0  0
  -23.2963  -10.9685   -5.2046 C   0  0  0  0  0  0  0  0  0  0  0  0
  -22.3958  -11.3358   -6.2118 C   0  0  0  0  0  0  0  0  0  0  0  0
  -22.8682  -11.7161   -7.4696 C   0  0  0  0  0  0  0  0  0  0  0  0
  -24.2384  -11.7485   -7.7223 C   0  0  0  0  0  0  0  0  0  0  0  0
  -25.1367  -11.3840   -6.7154 C   0  0  0  0  0  0  0  0  0  0  0  0
  -24.6578  -10.9869   -5.4700 C   0  0  0  0  0  0  0  0  0  0  0  0
  -21.9458  -11.3542   -3.2860 C   0  0  0  0  0  0  0  0  0  0  0  0
  -22.9491  -10.5907   -3.9335 O   0  0  0  0  0  0  0  0  0  0  0  0
 32 33  1  0  0  0
 33 26  1  0  0  0
 26 27  1  0  0  0
 26 31  2  0  0  0
 27 28  2  0  0  0
 28 29  1  0  0  0
 29 30  2  0  0  0
 30 24  1  0  0  0
 30 31  1  0  0  0
 24 25  2  0  0  0
 24 23  1  0  0  0
 23  1  1  0  0  0
  1  2  1  0  0  0
  1  6  1  0  0  0
  2  3  1  0  0  0
  3  4  1  0  0  0
  4  7  1  0  0  0
  4  5  1  0  0  0
  7  8  1  0  0  0
  7 16  2  0  0  0
  8  9  2  0  0  0
  9 10  1  0  0  0
 10 17  1  0  0  0
 10 11  2  0  0  0
 17 18  1  0  0  0
 17 22  2  0  0  0
 18 19  2  0  0  0
 19 20  1  0  0  0
 20 21  2  0  0  0
 21 22  1  0  0  0
 11 12  1  0  0  0
 11 16  1  0  0  0
 12 13  2  0  0  0
 13 14  1  0  0  0
 14 15  2  0  0  0
 15 16  1  0  0  0
  5  6  1  0  0  0
M  END
> <minimizedAffinity>
-9.32726

$$$$
