CHEMBL437754


 40 45  0  0  0  0  0  0  0  0999 V2000
  -13.3244   -4.1805  -16.5911 C   0  0  0  0  0  0  0  0  0  0  0  0
  -13.2440   -3.3265  -17.6961 C   0  0  0  0  0  0  0  0  0  0  0  0
  -13.4288   -4.0216  -18.8474 O   0  0  0  0  0  0  0  0  0  0  0  0
  -13.5750   -5.3355  -18.5135 C   0  0  0  0  0  0  0  0  0  0  0  0
  -13.7103   -6.2967  -19.4494 N   0  0  0  0  0  0  0  0  0  0  0  0
  -13.8002   -7.5314  -18.9185 C   0  0  0  0  0  0  0  0  0  0  0  0
  -13.8044   -7.8359  -17.5639 C   0  0  0  0  0  0  0  0  0  0  0  0
  -13.7240   -6.8132  -16.6090 C   0  0  0  0  0  0  0  0  0  0  0  0
  -13.5570   -5.4946  -17.1237 C   0  0  0  0  0  0  0  0  0  0  0  0
  -12.6450   -2.8409  -12.5803 C   0  0  0  0  0  0  0  0  0  0  0  0
  -13.7749   -2.4144  -13.2702 C   0  0  0  0  0  0  0  0  0  0  0  0
  -14.0376   -2.9073  -14.5498 C   0  0  0  0  0  0  0  0  0  0  0  0
  -13.1191   -3.7384  -15.2074 C   0  0  0  0  0  0  0  0  0  0  0  0
  -11.9522   -4.1003  -14.5184 C   0  0  0  0  0  0  0  0  0  0  0  0
  -11.7451   -3.7033  -13.1963 C   0  0  0  0  0  0  0  0  0  0  0  0
  -12.9883   -1.8910  -17.8433 C   0  0  0  0  0  0  0  0  0  0  0  0
  -12.0813   -1.2776  -16.9737 C   0  0  0  0  0  0  0  0  0  0  0  0
  -12.0499    0.1071  -16.8314 C   0  0  0  0  0  0  0  0  0  0  0  0
  -12.8476    0.9161  -17.6390 C   0  0  0  0  0  0  0  0  0  0  0  0
  -13.6717    0.3193  -18.5947 C   0  0  0  0  0  0  0  0  0  0  0  0
  -13.7439   -1.0819  -18.7023 C   0  0  0  0  0  0  0  0  0  0  0  0
  -12.9094    2.2862  -17.5300 O   0  0  0  0  0  0  0  0  0  0  0  0
  -13.5967    2.7347  -16.3533 C   0  0  0  0  0  0  0  0  0  0  0  0
  -15.0071    3.2371  -16.6900 C   0  0  0  0  0  0  0  0  0  0  0  0
  -16.0390    2.7237  -15.7576 N   0  0  0  0  0  0  0  0  0  0  0  0
  -17.3528    3.3424  -16.0044 C   0  0  0  0  0  0  0  0  0  0  0  0
  -18.4236    2.8137  -15.0540 C   0  0  0  0  0  0  0  0  0  0  0  0
  -18.5336    1.3002  -15.1347 C   0  0  0  0  0  0  0  0  0  0  0  0
  -17.1666    0.6682  -14.9083 C   0  0  0  0  0  0  0  0  0  0  0  0
  -16.1147    1.2566  -15.8531 C   0  0  0  0  0  0  0  0  0  0  0  0
  -13.8926   -7.0960  -15.2444 N   0  0  0  0  0  0  0  0  0  0  0  0
  -13.5287   -8.0096  -14.9877 H   0  0  0  0  0  0  0  0  0  0  0  0
  -15.1583   -6.7500  -14.5923 C   0  0  0  0  0  0  0  0  0  0  0  0
  -15.1280   -7.1747  -13.1159 C   0  0  0  0  0  0  0  0  0  0  0  0
  -15.2714   -6.0084  -12.1820 C   0  0  0  0  0  0  0  0  0  0  0  0
  -16.2773   -5.0554  -12.3751 C   0  0  0  0  0  0  0  0  0  0  0  0
  -16.4095   -4.0000  -11.4764 C   0  0  0  0  0  0  0  0  0  0  0  0
  -15.5260   -3.9316  -10.4118 C   0  0  0  0  0  0  0  0  0  0  0  0
  -14.5409   -4.8287  -10.1971 N   0  0  0  0  0  0  0  0  0  0  0  0
  -14.4359   -5.8419  -11.0860 C   0  0  0  0  0  0  0  0  0  0  0  0
 10 11  1  0  0  0
 10 15  2  0  0  0
 11 12  2  0  0  0
 12 13  1  0  0  0
 13  1  1  0  0  0
 13 14  2  0  0  0
  1  2  2  0  0  0
  1  9  1  0  0  0
  2 16  1  0  0  0
  2  3  1  0  0  0
 16 17  1  0  0  0
 16 21  2  0  0  0
 17 18  2  0  0  0
 18 19  1  0  0  0
 19 22  1  0  0  0
 19 20  2  0  0  0
 22 23  1  0  0  0
 23 24  1  0  0  0
 24 25  1  0  0  0
 25 26  1  0  0  0
 25 30  1  0  0  0
 26 27  1  0  0  0
 27 28  1  0  0  0
 28 29  1  0  0  0
 29 30  1  0  0  0
 20 21  1  0  0  0
  3  4  1  0  0  0
  4  5  1  0  0  0
  4  9  2  0  0  0
  5  6  2  0  0  0
  6  7  1  0  0  0
  7  8  2  0  0  0
  8 31  1  0  0  0
  8  9  1  0  0  0
 31 33  1  0  0  0
 31 32  1  0  0  0
 33 34  1  0  0  0
 34 35  1  0  0  0
 35 36  1  0  0  0
 35 40  2  0  0  0
 36 37  2  0  0  0
 37 38  1  0  0  0
 38 39  2  0  0  0
 39 40  1  0  0  0
 14 15  1  0  0  0
M  END
> <minimizedAffinity>
-7.22931

$$$$
