CHEMBL1242569


 26 28  0  0  0  0  0  0  0  0999 V2000
  -12.6472   -4.2246  -10.2596 N   0  0  0  0  0  0  0  0  0  0  0  0
  -12.2080   -5.2663  -10.9991 N   0  0  0  0  0  0  0  0  0  0  0  0
  -13.2926   -5.6679  -11.6907 C   0  0  0  0  0  0  0  0  0  0  0  0
  -14.4497   -4.8994  -11.3270 C   0  0  0  0  0  0  0  0  0  0  0  0
  -15.8209   -4.8347  -11.6220 C   0  0  0  0  0  0  0  0  0  0  0  0
  -16.5135   -5.7134  -12.4512 N   0  0  0  0  0  0  0  0  0  0  0  0
  -16.5648   -3.8606  -11.0554 N   0  0  0  0  0  0  0  0  0  0  0  0
  -15.9642   -2.9939  -10.2204 C   0  0  0  0  0  0  0  0  0  0  0  0
  -14.6786   -2.9715   -9.8418 N   0  0  0  0  0  0  0  0  0  0  0  0
  -13.9760   -3.9573  -10.4277 C   0  0  0  0  0  0  0  0  0  0  0  0
  -16.1808   -6.6682  -12.4204 H   0  0  0  0  0  0  0  0  0  0  0  0
  -17.5122   -5.5953  -12.3240 H   0  0  0  0  0  0  0  0  0  0  0  0
  -13.1716   -6.7476  -12.6774 C   0  0  0  0  0  0  0  0  0  0  0  0
  -13.6131   -6.5780  -13.9891 C   0  0  0  0  0  0  0  0  0  0  0  0
  -13.5446   -7.6246  -14.9124 C   0  0  0  0  0  0  0  0  0  0  0  0
  -12.9635   -8.8502  -14.5697 C   0  0  0  0  0  0  0  0  0  0  0  0
  -12.4524   -9.0157  -13.2699 C   0  0  0  0  0  0  0  0  0  0  0  0
  -12.5769   -7.9692  -12.3373 C   0  0  0  0  0  0  0  0  0  0  0  0
  -11.8221  -10.1135  -12.7392 O   0  0  0  0  0  0  0  0  0  0  0  0
  -10.8206   -9.9152  -11.7516 C   0  0  0  0  0  0  0  0  0  0  0  0
  -12.8736   -9.8963  -15.4442 O   0  0  0  0  0  0  0  0  0  0  0  0
  -13.1365   -9.6652  -16.8252 C   0  0  0  0  0  0  0  0  0  0  0  0
  -13.6412  -10.9693  -17.4145 C   0  0  0  0  0  0  0  0  0  0  0  0
  -11.7136   -3.4660   -9.4379 C   0  0  0  0  0  0  0  0  0  0  0  0
  -12.1974   -5.0252   -7.5200 C   0  0  0  0  0  0  0  0  0  0  0  0
  -11.3826   -4.1662   -8.1487 C   0  0  0  0  0  0  0  0  0  0  0  0
 25 26  2  0  0  0
 26 24  1  0  0  0
 24  1  1  0  0  0
  1  2  1  0  0  0
  1 10  1  0  0  0
  2  3  2  0  0  0
  3 13  1  0  0  0
  3  4  1  0  0  0
 13 14  1  0  0  0
 13 18  2  0  0  0
 14 15  2  0  0  0
 15 16  1  0  0  0
 16 21  1  0  0  0
 16 17  2  0  0  0
 21 22  1  0  0  0
 22 23  1  0  0  0
 17 19  1  0  0  0
 17 18  1  0  0  0
 19 20  1  0  0  0
  4  5  1  0  0  0
  4 10  2  0  0  0
  5  6  1  0  0  0
  5  7  2  0  0  0
  6 11  1  0  0  0
  6 12  1  0  0  0
  7  8  1  0  0  0
  8  9  2  0  0  0
  9 10  1  0  0  0
M  END
> <minimizedAffinity>
-6.18725

$$$$
