CHEMBL3900296


 32 35  0  0  0  0  0  0  0  0999 V2000
  -28.1152   -3.2488   -8.0716 C   0  0  0  0  0  0  0  0  0  0  0  0
  -28.7154   -2.9433   -6.8461 C   0  0  0  0  0  0  0  0  0  0  0  0
  -28.6928   -1.6175   -6.3296 C   0  0  0  0  0  0  0  0  0  0  0  0
  -29.2116   -1.1812   -5.0914 C   0  0  0  0  0  0  0  0  0  0  0  0
  -29.0960    0.1012   -4.6914 N   0  0  0  0  0  0  0  0  0  0  0  0
  -28.5016    0.9594   -5.5183 C   0  0  0  0  0  0  0  0  0  0  0  0
  -28.0070    0.6634   -6.7166 N   0  0  0  0  0  0  0  0  0  0  0  0
  -28.1022   -0.6091   -7.1005 C   0  0  0  0  0  0  0  0  0  0  0  0
  -27.5869   -0.9174   -8.3441 C   0  0  0  0  0  0  0  0  0  0  0  0
  -27.5687   -2.2214   -8.8452 C   0  0  0  0  0  0  0  0  0  0  0  0
  -28.6323   -5.4529   -7.4313 C   0  0  0  0  0  0  0  0  0  0  0  0
  -28.1771   -4.5658   -8.4551 O   0  0  0  0  0  0  0  0  0  0  0  0
  -29.8991   -2.0972   -4.2499 N   0  0  0  0  0  0  0  0  0  0  0  0
  -30.8796   -1.8427   -4.1957 H   0  0  0  0  0  0  0  0  0  0  0  0
  -29.7100   -3.4984   -4.1708 C   0  0  0  0  0  0  0  0  0  0  0  0
  -28.5571   -4.0809   -3.6273 C   0  0  0  0  0  0  0  0  0  0  0  0
  -28.3959   -5.4681   -3.5688 C   0  0  0  0  0  0  0  0  0  0  0  0
  -29.4157   -6.3065   -4.0102 C   0  0  0  0  0  0  0  0  0  0  0  0
  -29.1497   -8.0103   -3.9270 Cl  0  0  0  0  0  0  0  0  0  0  0  0
  -30.6038   -5.7486   -4.4895 C   0  0  0  0  0  0  0  0  0  0  0  0
  -31.9325   -6.7216   -5.0156 Cl  0  0  0  0  0  0  0  0  0  0  0  0
  -30.7508   -4.3552   -4.5580 C   0  0  0  0  0  0  0  0  0  0  0  0
  -27.1177   -2.5115  -10.1067 O   0  0  0  0  0  0  0  0  0  0  0  0
  -27.2869   -1.4645  -11.0655 C   0  0  0  0  0  0  0  0  0  0  0  0
  -26.0661   -1.4097  -11.9446 C   0  0  0  0  0  0  0  0  0  0  0  0
  -26.2032   -1.4925  -13.3408 C   0  0  0  0  0  0  0  0  0  0  0  0
  -25.0838   -1.3865  -14.1567 C   0  0  0  0  0  0  0  0  0  0  0  0
  -25.2319   -1.4552  -15.4874 F   0  0  0  0  0  0  0  0  0  0  0  0
  -23.8188   -1.2006  -13.6177 C   0  0  0  0  0  0  0  0  0  0  0  0
  -23.6850   -1.1248  -12.2401 C   0  0  0  0  0  0  0  0  0  0  0  0
  -22.4721   -0.9390  -11.7038 F   0  0  0  0  0  0  0  0  0  0  0  0
  -24.7898   -1.2253  -11.3991 C   0  0  0  0  0  0  0  0  0  0  0  0
 11 12  1  0  0  0
 12  1  1  0  0  0
  1  2  1  0  0  0
  1 10  2  0  0  0
  2  3  2  0  0  0
  3  4  1  0  0  0
  3  8  1  0  0  0
  4 13  1  0  0  0
  4  5  2  0  0  0
 13 15  1  0  0  0
 13 14  1  0  0  0
 15 16  1  0  0  0
 15 22  2  0  0  0
 16 17  2  0  0  0
 17 18  1  0  0  0
 18 19  1  0  0  0
 18 20  2  0  0  0
 20 21  1  0  0  0
 20 22  1  0  0  0
  5  6  1  0  0  0
  6  7  2  0  0  0
  7  8  1  0  0  0
  8  9  2  0  0  0
  9 10  1  0  0  0
 10 23  1  0  0  0
 23 24  1  0  0  0
 24 25  1  0  0  0
 25 26  1  0  0  0
 25 32  2  0  0  0
 26 27  2  0  0  0
 27 28  1  0  0  0
 27 29  1  0  0  0
 29 30  2  0  0  0
 30 31  1  0  0  0
 30 32  1  0  0  0
M  END
> <minimizedAffinity>
-9.72207

$$$$
