CHEMBL1172886


 31 34  0  0  0  0  0  0  0  0999 V2000
  -20.1326    0.9317  -15.1275 C   0  0  0  0  0  0  0  0  0  0  0  0
  -20.2957    2.3313  -15.2356 C   0  0  0  0  0  0  0  0  0  0  0  0
  -19.2119    3.1889  -15.4858 C   0  0  0  0  0  0  0  0  0  0  0  0
  -17.9594    2.6266  -15.6206 C   0  0  0  0  0  0  0  0  0  0  0  0
  -17.8032    1.2429  -15.5125 C   0  0  0  0  0  0  0  0  0  0  0  0
  -18.8538    0.3805  -15.2639 C   0  0  0  0  0  0  0  0  0  0  0  0
  -16.4756    0.8835  -15.7067 N   0  0  0  0  0  0  0  0  0  0  0  0
  -15.6797    1.9886  -15.9597 C   0  0  0  0  0  0  0  0  0  0  0  0
  -14.4785    1.9680  -16.1365 O   0  0  0  0  0  0  0  0  0  0  0  0
  -16.6268    3.1679  -15.9169 C   0  0  0  0  0  0  0  0  0  0  0  0
  -16.3295    4.4567  -16.1441 C   0  0  0  0  0  0  0  0  0  0  0  0
  -16.0986   -0.0507  -15.6822 H   0  0  0  0  0  0  0  0  0  0  0  0
  -22.6012    1.3675  -13.6329 O   0  0  0  0  0  0  0  0  0  0  0  0
  -22.3172    0.2763  -14.1048 C   0  0  0  0  0  0  0  0  0  0  0  0
  -23.0588   -0.8820  -13.9115 N   0  0  0  0  0  0  0  0  0  0  0  0
  -21.1908    0.0298  -14.8708 N   0  0  0  0  0  0  0  0  0  0  0  0
  -22.6192   -1.7495  -14.1700 H   0  0  0  0  0  0  0  0  0  0  0  0
  -21.1606   -0.8512  -15.3564 H   0  0  0  0  0  0  0  0  0  0  0  0
  -24.2192   -0.9844  -13.1078 C   0  0  0  0  0  0  0  0  0  0  0  0
  -24.2263   -0.7422  -11.7315 C   0  0  0  0  0  0  0  0  0  0  0  0
  -25.3778   -0.9608  -10.9705 C   0  0  0  0  0  0  0  0  0  0  0  0
  -26.5390   -1.4038  -11.5898 C   0  0  0  0  0  0  0  0  0  0  0  0
  -27.9419   -1.7180  -10.6469 Cl  0  0  0  0  0  0  0  0  0  0  0  0
  -26.5666   -1.5994  -12.9687 C   0  0  0  0  0  0  0  0  0  0  0  0
  -25.4114   -1.3806  -13.7291 C   0  0  0  0  0  0  0  0  0  0  0  0
  -15.0463    4.8618  -16.5732 C   0  0  0  0  0  0  0  0  0  0  0  0
  -14.5084    5.0895  -17.8226 C   0  0  0  0  0  0  0  0  0  0  0  0
  -13.1347    5.3847  -17.6501 C   0  0  0  0  0  0  0  0  0  0  0  0
  -12.8785    5.3655  -16.2976 C   0  0  0  0  0  0  0  0  0  0  0  0
  -14.0487    5.0593  -15.6486 N   0  0  0  0  0  0  0  0  0  0  0  0
  -14.1426    4.9377  -14.6494 H   0  0  0  0  0  0  0  0  0  0  0  0
 13 14  2  0  0  0
 14 15  1  0  0  0
 14 16  1  0  0  0
 15 19  1  0  0  0
 15 17  1  0  0  0
 19 20  1  0  0  0
 19 25  2  0  0  0
 20 21  2  0  0  0
 21 22  1  0  0  0
 22 23  1  0  0  0
 22 24  2  0  0  0
 24 25  1  0  0  0
 16  1  1  0  0  0
 16 18  1  0  0  0
  1  2  1  0  0  0
  1  6  2  0  0  0
  2  3  2  0  0  0
  3  4  1  0  0  0
  4  5  2  0  0  0
  4 10  1  0  0  0
  5  6  1  0  0  0
  5  7  1  0  0  0
  7  8  1  0  0  0
  7 12  1  0  0  0
  8  9  2  0  0  0
  8 10  1  0  0  0
 10 11  2  0  0  0
 11 26  1  0  0  0
 26 27  2  0  0  0
 26 30  1  0  0  0
 27 28  1  0  0  0
 28 29  2  0  0  0
 29 30  1  0  0  0
 30 31  1  0  0  0
M  END
> <minimizedAffinity>
-10.30206

$$$$
