CHEMBL3690557


 37 40  0  0  0  0  0  0  0  0999 V2000
  -30.5653   -6.7258   -6.1264 C   0  0  0  0  0  0  0  0  0  0  0  0
  -29.8630   -5.7998   -7.0258 C   0  0  0  0  0  0  0  0  0  0  0  0
  -29.5746   -4.5542   -6.6287 C   0  0  0  0  0  0  0  0  0  0  0  0
  -29.9969   -4.1170   -5.3760 N   0  0  0  0  0  0  0  0  0  0  0  0
  -29.8710   -2.8811   -4.7586 C   0  0  0  0  0  0  0  0  0  0  0  0
  -30.3874   -3.0931   -3.4877 C   0  0  0  0  0  0  0  0  0  0  0  0
  -30.8875   -4.3582   -3.3337 N   0  0  0  0  0  0  0  0  0  0  0  0
  -30.6674   -4.9517   -4.4849 C   0  0  0  0  0  0  0  0  0  0  0  0
  -30.9654   -6.2792   -4.9110 C   0  0  0  0  0  0  0  0  0  0  0  0
  -31.1099  -10.6307   -7.6750 C   0  0  0  0  0  0  0  0  0  0  0  0
  -30.0426  -10.4135   -6.8047 C   0  0  0  0  0  0  0  0  0  0  0  0
  -29.8724   -9.1532   -6.2306 C   0  0  0  0  0  0  0  0  0  0  0  0
  -30.7766   -8.1381   -6.5384 C   0  0  0  0  0  0  0  0  0  0  0  0
  -31.8308   -8.3463   -7.3693 N   0  0  0  0  0  0  0  0  0  0  0  0
  -31.9699   -9.5746   -7.9252 C   0  0  0  0  0  0  0  0  0  0  0  0
  -32.5844  -12.4291   -8.3595 N   0  0  0  0  0  0  0  0  0  0  0  0
  -31.3230  -11.9072   -8.3827 C   0  0  0  0  0  0  0  0  0  0  0  0
  -30.4120  -12.4643   -8.9810 O   0  0  0  0  0  0  0  0  0  0  0  0
  -32.7397  -13.2605   -8.9150 H   0  0  0  0  0  0  0  0  0  0  0  0
  -33.3943  -11.8960   -8.0766 H   0  0  0  0  0  0  0  0  0  0  0  0
  -29.3105   -1.6579   -5.3439 C   0  0  0  0  0  0  0  0  0  0  0  0
  -29.6130   -0.4222   -4.7614 C   0  0  0  0  0  0  0  0  0  0  0  0
  -29.1629    0.7589   -5.3416 C   0  0  0  0  0  0  0  0  0  0  0  0
  -28.3689    0.7193   -6.4870 C   0  0  0  0  0  0  0  0  0  0  0  0
  -28.0040   -0.4960   -7.0648 C   0  0  0  0  0  0  0  0  0  0  0  0
  -28.5184   -1.6770   -6.5098 C   0  0  0  0  0  0  0  0  0  0  0  0
  -27.1404   -0.5989   -8.1827 N   0  0  0  0  0  0  0  0  0  0  0  0
  -27.3591   -1.3585   -9.3100 C   0  0  0  0  0  0  0  0  0  0  0  0
  -28.3272   -2.0655   -9.5457 O   0  0  0  0  0  0  0  0  0  0  0  0
  -26.3081   -1.3018  -10.1993 N   0  0  0  0  0  0  0  0  0  0  0  0
  -26.2878   -0.0616   -8.1543 H   0  0  0  0  0  0  0  0  0  0  0  0
  -25.7966   -0.4322  -10.2506 H   0  0  0  0  0  0  0  0  0  0  0  0
  -26.4227   -2.0846  -11.4385 C   0  0  0  0  0  0  0  0  0  0  0  0
  -25.6607   -1.5411  -12.6571 C   0  0  0  0  0  0  0  0  0  0  0  0
  -26.3949   -1.6141  -13.7912 F   0  0  0  0  0  0  0  0  0  0  0  0
  -25.3690   -0.2291  -12.4660 F   0  0  0  0  0  0  0  0  0  0  0  0
  -24.4931   -2.1829  -12.8664 F   0  0  0  0  0  0  0  0  0  0  0  0
 16 17  1  0  0  0
 16 19  1  0  0  0
 16 20  1  0  0  0
 17 18  2  0  0  0
 17 10  1  0  0  0
 10 11  1  0  0  0
 10 15  2  0  0  0
 11 12  2  0  0  0
 12 13  1  0  0  0
 13  1  1  0  0  0
 13 14  2  0  0  0
  1  2  1  0  0  0
  1  9  2  0  0  0
  2  3  2  0  0  0
  3  4  1  0  0  0
  4  5  1  0  0  0
  4  8  1  0  0  0
  5 21  1  0  0  0
  5  6  2  0  0  0
 21 22  1  0  0  0
 21 26  2  0  0  0
 22 23  2  0  0  0
 23 24  1  0  0  0
 24 25  2  0  0  0
 25 27  1  0  0  0
 25 26  1  0  0  0
 27 28  1  0  0  0
 27 31  1  0  0  0
 28 29  2  0  0  0
 28 30  1  0  0  0
 30 33  1  0  0  0
 30 32  1  0  0  0
 33 34  1  0  0  0
 34 35  1  0  0  0
 34 36  1  0  0  0
 34 37  1  0  0  0
  6  7  1  0  0  0
  7  8  2  0  0  0
  8  9  1  0  0  0
 14 15  1  0  0  0
M  END
> <minimizedAffinity>
-9.42153

$$$$
