CHEMBL181959


 26 29  0  0  0  0  0  0  0  0999 V2000
  -29.1888   -5.2566   -7.1960 C   0  0  0  0  0  0  0  0  0  0  0  0
  -28.3678   -4.6771   -8.1465 C   0  0  0  0  0  0  0  0  0  0  0  0
  -28.2684   -3.2982   -7.8197 C   0  0  0  0  0  0  0  0  0  0  0  0
  -27.6236   -2.1582   -8.3116 C   0  0  0  0  0  0  0  0  0  0  0  0
  -27.7898   -0.9977   -7.6460 N   0  0  0  0  0  0  0  0  0  0  0  0
  -28.5699   -0.9671   -6.5535 C   0  0  0  0  0  0  0  0  0  0  0  0
  -29.2403   -1.9835   -6.0034 N   0  0  0  0  0  0  0  0  0  0  0  0
  -29.0449   -3.1198   -6.6838 C   0  0  0  0  0  0  0  0  0  0  0  0
  -29.6076   -4.3025   -6.3139 O   0  0  0  0  0  0  0  0  0  0  0  0
  -30.4662   -9.3091   -6.6088 C   0  0  0  0  0  0  0  0  0  0  0  0
  -31.3146   -8.3782   -7.2034 C   0  0  0  0  0  0  0  0  0  0  0  0
  -30.9036   -7.0476   -7.3588 C   0  0  0  0  0  0  0  0  0  0  0  0
  -29.6354   -6.6241   -6.9360 C   0  0  0  0  0  0  0  0  0  0  0  0
  -28.8052   -7.5613   -6.3070 C   0  0  0  0  0  0  0  0  0  0  0  0
  -29.2169   -8.8900   -6.1500 C   0  0  0  0  0  0  0  0  0  0  0  0
  -31.8262  -11.1820   -7.1498 C   0  0  0  0  0  0  0  0  0  0  0  0
  -30.7330  -10.6364   -6.4220 O   0  0  0  0  0  0  0  0  0  0  0  0
  -26.8193   -2.2314   -9.4614 N   0  0  0  0  0  0  0  0  0  0  0  0
  -27.1331   -1.6263  -10.6663 C   0  0  0  0  0  0  0  0  0  0  0  0
  -28.1546   -0.9961  -10.9101 O   0  0  0  0  0  0  0  0  0  0  0  0
  -25.9761   -2.7827   -9.4014 H   0  0  0  0  0  0  0  0  0  0  0  0
  -26.0855   -1.8650  -11.7528 C   0  0  0  0  0  0  0  0  0  0  0  0
  -24.9874   -0.8052  -11.7926 C   0  0  0  0  0  0  0  0  0  0  0  0
  -24.4496   -0.8311  -13.2228 C   0  0  0  0  0  0  0  0  0  0  0  0
  -25.4923   -1.5553  -14.0690 C   0  0  0  0  0  0  0  0  0  0  0  0
  -26.6873   -1.7661  -13.1553 C   0  0  0  0  0  0  0  0  0  0  0  0
 16 17  1  0  0  0
 17 10  1  0  0  0
 10 11  1  0  0  0
 10 15  2  0  0  0
 11 12  2  0  0  0
 12 13  1  0  0  0
 13  1  1  0  0  0
 13 14  2  0  0  0
  1  2  2  0  0  0
  1  9  1  0  0  0
  2  3  1  0  0  0
  3  4  1  0  0  0
  3  8  2  0  0  0
  4 18  1  0  0  0
  4  5  2  0  0  0
 18 19  1  0  0  0
 18 21  1  0  0  0
 19 20  2  0  0  0
 19 22  1  0  0  0
 22 23  1  0  0  0
 22 26  1  0  0  0
 23 24  1  0  0  0
 24 25  1  0  0  0
 25 26  1  0  0  0
  5  6  1  0  0  0
  6  7  2  0  0  0
  7  8  1  0  0  0
  8  9  1  0  0  0
 14 15  1  0  0  0
M  END
> <minimizedAffinity>
-8.59133

$$$$
