CHEMBL2032016


 42 47  0  0  0  0  0  0  0  0999 V2000
  -14.1019    1.0904  -15.0264 N   0  0  0  0  0  0  0  0  0  0  0  0
  -14.8400    1.5481  -16.1008 C   0  0  0  0  0  0  0  0  0  0  0  0
  -15.9363    1.1134  -16.4446 O   0  0  0  0  0  0  0  0  0  0  0  0
  -13.1872    1.4911  -14.8511 H   0  0  0  0  0  0  0  0  0  0  0  0
  -14.2565    2.6647  -16.8785 C   0  0  0  0  0  0  0  0  0  0  0  0
  -13.5892    2.5657  -18.0480 C   0  0  0  0  0  0  0  0  0  0  0  0
  -13.3686    3.7990  -18.6616 N   0  0  0  0  0  0  0  0  0  0  0  0
  -12.2537    4.0953  -19.5614 C   0  0  0  0  0  0  0  0  0  0  0  0
  -13.7081    4.7643  -17.6938 N   0  0  0  0  0  0  0  0  0  0  0  0
  -14.3043    4.1230  -16.5974 C   0  0  0  0  0  0  0  0  0  0  0  0
  -14.7887    4.5972  -15.5800 O   0  0  0  0  0  0  0  0  0  0  0  0
  -13.0738    1.3221  -18.6251 C   0  0  0  0  0  0  0  0  0  0  0  0
  -13.6876    0.6948  -19.7065 C   0  0  0  0  0  0  0  0  0  0  0  0
  -13.1751   -0.5101  -20.1818 C   0  0  0  0  0  0  0  0  0  0  0  0
  -12.0491   -1.0393  -19.5691 C   0  0  0  0  0  0  0  0  0  0  0  0
  -11.4092   -0.4505  -18.5348 N   0  0  0  0  0  0  0  0  0  0  0  0
  -11.9512    0.7039  -18.0772 C   0  0  0  0  0  0  0  0  0  0  0  0
  -13.7681    6.1417  -17.9752 C   0  0  0  0  0  0  0  0  0  0  0  0
  -12.7509    6.9815  -17.5110 C   0  0  0  0  0  0  0  0  0  0  0  0
  -12.7407    8.3388  -17.8510 C   0  0  0  0  0  0  0  0  0  0  0  0
  -13.7760    8.8720  -18.6179 C   0  0  0  0  0  0  0  0  0  0  0  0
  -14.8052    8.0487  -19.0660 C   0  0  0  0  0  0  0  0  0  0  0  0
  -14.7955    6.6850  -18.7612 C   0  0  0  0  0  0  0  0  0  0  0  0
  -15.5802   -1.8000  -12.3655 C   0  0  0  0  0  0  0  0  0  0  0  0
  -14.6696   -2.1673  -13.3564 C   0  0  0  0  0  0  0  0  0  0  0  0
  -14.1607   -1.2012  -14.2421 C   0  0  0  0  0  0  0  0  0  0  0  0
  -14.5842    0.1180  -14.1219 C   0  0  0  0  0  0  0  0  0  0  0  0
  -15.4322    0.4810  -13.1426 N   0  0  0  0  0  0  0  0  0  0  0  0
  -15.8924   -0.4552  -12.2794 C   0  0  0  0  0  0  0  0  0  0  0  0
  -16.1019   -2.8064  -11.5851 O   0  0  0  0  0  0  0  0  0  0  0  0
  -14.4598   -7.6254  -12.5058 C   0  0  0  0  0  0  0  0  0  0  0  0
  -15.2835   -6.7851  -13.2356 C   0  0  0  0  0  0  0  0  0  0  0  0
  -15.4945   -5.4839  -12.8067 C   0  0  0  0  0  0  0  0  0  0  0  0
  -14.9780   -5.0201  -11.5742 C   0  0  0  0  0  0  0  0  0  0  0  0
  -15.2673   -3.7553  -11.0140 C   0  0  0  0  0  0  0  0  0  0  0  0
  -14.6332   -3.3558   -9.8403 C   0  0  0  0  0  0  0  0  0  0  0  0
  -13.7824   -4.2515   -9.2251 C   0  0  0  0  0  0  0  0  0  0  0  0
  -13.5408   -5.4950   -9.6883 N   0  0  0  0  0  0  0  0  0  0  0  0
  -14.1310   -5.8771  -10.8362 C   0  0  0  0  0  0  0  0  0  0  0  0
  -13.8914   -7.1632  -11.3114 C   0  0  0  0  0  0  0  0  0  0  0  0
  -12.9929   -9.4448  -12.2458 C   0  0  0  0  0  0  0  0  0  0  0  0
  -14.1635   -8.9134  -12.8657 O   0  0  0  0  0  0  0  0  0  0  0  0
 41 42  1  0  0  0
 42 31  1  0  0  0
 31 32  1  0  0  0
 31 40  2  0  0  0
 32 33  2  0  0  0
 33 34  1  0  0  0
 34 35  1  0  0  0
 34 39  2  0  0  0
 35 30  1  0  0  0
 35 36  2  0  0  0
 30 24  1  0  0  0
 24 25  1  0  0  0
 24 29  2  0  0  0
 25 26  2  0  0  0
 26 27  1  0  0  0
 27  1  1  0  0  0
 27 28  2  0  0  0
  1  2  1  0  0  0
  1  4  1  0  0  0
  2  3  2  0  0  0
  2  5  1  0  0  0
  5  6  2  0  0  0
  5 10  1  0  0  0
  6 12  1  0  0  0
  6  7  1  0  0  0
 12 13  1  0  0  0
 12 17  2  0  0  0
 13 14  2  0  0  0
 14 15  1  0  0  0
 15 16  2  0  0  0
 16 17  1  0  0  0
  7  8  1  0  0  0
  7  9  1  0  0  0
  9 18  1  0  0  0
  9 10  1  0  0  0
 18 19  1  0  0  0
 18 23  2  0  0  0
 19 20  2  0  0  0
 20 21  1  0  0  0
 21 22  2  0  0  0
 22 23  1  0  0  0
 10 11  2  0  0  0
 28 29  1  0  0  0
 36 37  1  0  0  0
 37 38  2  0  0  0
 38 39  1  0  0  0
 39 40  1  0  0  0
M  END
> <minimizedAffinity>
-8.26570

$$$$
