CHEMBL3633766


 31 33  0  0  0  0  0  0  0  0999 V2000
  -27.8279   -1.8642   -5.5551 C   0  0  0  0  0  0  0  0  0  0  0  0
  -28.0281   -2.7666   -4.5028 C   0  0  0  0  0  0  0  0  0  0  0  0
  -28.7043   -3.9674   -4.6678 C   0  0  0  0  0  0  0  0  0  0  0  0
  -28.8747   -4.7471   -3.5985 N   0  0  0  0  0  0  0  0  0  0  0  0
  -29.5291   -5.8945   -3.7924 C   0  0  0  0  0  0  0  0  0  0  0  0
  -29.9945   -6.3421   -4.9593 N   0  0  0  0  0  0  0  0  0  0  0  0
  -29.8007   -5.5598   -6.0376 C   0  0  0  0  0  0  0  0  0  0  0  0
  -29.1729   -4.3096   -5.9390 C   0  0  0  0  0  0  0  0  0  0  0  0
  -28.9830   -3.4126   -7.0088 C   0  0  0  0  0  0  0  0  0  0  0  0
  -28.2798   -2.2192   -6.8324 C   0  0  0  0  0  0  0  0  0  0  0  0
  -27.9835    0.4750   -5.0135 C   0  0  0  0  0  0  0  0  0  0  0  0
  -27.2077   -0.6570   -5.3994 O   0  0  0  0  0  0  0  0  0  0  0  0
  -30.2133   -6.0422   -7.3111 N   0  0  0  0  0  0  0  0  0  0  0  0
  -29.9838   -5.3413   -8.0165 H   0  0  0  0  0  0  0  0  0  0  0  0
  -29.9033   -7.3433   -7.7851 C   0  0  0  0  0  0  0  0  0  0  0  0
  -28.6248   -7.6066   -8.2974 C   0  0  0  0  0  0  0  0  0  0  0  0
  -28.3164   -8.8482   -8.8516 C   0  0  0  0  0  0  0  0  0  0  0  0
  -29.2838   -9.8479   -8.8796 C   0  0  0  0  0  0  0  0  0  0  0  0
  -28.9171  -11.3610   -9.6120 Cl  0  0  0  0  0  0  0  0  0  0  0  0
  -30.5467   -9.6302   -8.3327 C   0  0  0  0  0  0  0  0  0  0  0  0
  -30.8505   -8.3834   -7.7809 C   0  0  0  0  0  0  0  0  0  0  0  0
  -32.4318   -8.1308   -7.1282 Cl  0  0  0  0  0  0  0  0  0  0  0  0
  -28.1436   -1.5185   -7.9969 O   0  0  0  0  0  0  0  0  0  0  0  0
  -27.4965   -2.1434   -9.1062 C   0  0  0  0  0  0  0  0  0  0  0  0
  -27.7803   -1.4767  -10.4504 C   0  0  0  0  0  0  0  0  0  0  0  0
  -26.6880   -1.8217  -11.4280 C   0  0  0  0  0  0  0  0  0  0  0  0
  -26.8448   -1.9189  -12.6424 O   0  0  0  0  0  0  0  0  0  0  0  0
  -25.4561   -2.0453  -10.8484 N   0  0  0  0  0  0  0  0  0  0  0  0
  -24.4060   -2.2469  -11.7748 O   0  0  0  0  0  0  0  0  0  0  0  0
  -25.1979   -1.6610   -9.9494 H   0  0  0  0  0  0  0  0  0  0  0  0
  -24.8728   -2.2178  -12.6352 H   0  0  0  0  0  0  0  0  0  0  0  0
 11 12  1  0  0  0
 12  1  1  0  0  0
  1  2  1  0  0  0
  1 10  2  0  0  0
  2  3  2  0  0  0
  3  4  1  0  0  0
  3  8  1  0  0  0
  4  5  2  0  0  0
  5  6  1  0  0  0
  6  7  2  0  0  0
  7 13  1  0  0  0
  7  8  1  0  0  0
 13 15  1  0  0  0
 13 14  1  0  0  0
 15 16  1  0  0  0
 15 21  2  0  0  0
 16 17  2  0  0  0
 17 18  1  0  0  0
 18 19  1  0  0  0
 18 20  2  0  0  0
 20 21  1  0  0  0
 21 22  1  0  0  0
  8  9  2  0  0  0
  9 10  1  0  0  0
 10 23  1  0  0  0
 23 24  1  0  0  0
 24 25  1  0  0  0
 25 26  1  0  0  0
 26 27  2  0  0  0
 26 28  1  0  0  0
 28 29  1  0  0  0
 28 30  1  0  0  0
 29 31  1  0  0  0
M  END
> <minimizedAffinity>
-8.72618

$$$$
