CHEMBL249994


 24 27  0  0  0  0  0  0  0  0999 V2000
  -29.6024   -5.7634   -7.0911 C   0  0  0  0  0  0  0  0  0  0  0  0
  -29.2667   -6.7374   -6.2285 C   0  0  0  0  0  0  0  0  0  0  0  0
  -28.2576   -6.7633   -5.1418 C   0  0  0  0  0  0  0  0  0  0  0  0
  -27.6240   -5.8601   -4.6362 O   0  0  0  0  0  0  0  0  0  0  0  0
  -28.2105   -8.1018   -4.7918 N   0  0  0  0  0  0  0  0  0  0  0  0
  -29.1485   -8.8981   -5.4003 N   0  0  0  0  0  0  0  0  0  0  0  0
  -29.8170   -8.1236   -6.2240 C   0  0  0  0  0  0  0  0  0  0  0  0
  -27.6318   -8.4622   -4.0414 H   0  0  0  0  0  0  0  0  0  0  0  0
  -27.3589   -1.7092   -8.8145 C   0  0  0  0  0  0  0  0  0  0  0  0
  -28.1272   -2.5826   -7.9563 N   0  0  0  0  0  0  0  0  0  0  0  0
  -28.4636   -3.8715   -8.2722 C   0  0  0  0  0  0  0  0  0  0  0  0
  -29.1117   -4.4255   -7.1936 C   0  0  0  0  0  0  0  0  0  0  0  0
  -29.2690   -3.3880   -6.2180 C   0  0  0  0  0  0  0  0  0  0  0  0
  -29.8826   -3.2965   -4.9505 C   0  0  0  0  0  0  0  0  0  0  0  0
  -30.5220   -4.3537   -4.4261 F   0  0  0  0  0  0  0  0  0  0  0  0
  -29.8409   -2.1056   -4.2220 C   0  0  0  0  0  0  0  0  0  0  0  0
  -29.1828   -0.9936   -4.7376 C   0  0  0  0  0  0  0  0  0  0  0  0
  -28.5641   -1.0448   -5.9912 C   0  0  0  0  0  0  0  0  0  0  0  0
  -28.6257   -2.2476   -6.7162 C   0  0  0  0  0  0  0  0  0  0  0  0
  -30.9586   -8.5923   -6.9480 C   0  0  0  0  0  0  0  0  0  0  0  0
  -32.3046   -8.2816   -6.8657 C   0  0  0  0  0  0  0  0  0  0  0  0
  -33.1334   -8.9765   -7.7303 N   0  0  0  0  0  0  0  0  0  0  0  0
  -32.4534   -9.8378   -8.4665 N   0  0  0  0  0  0  0  0  0  0  0  0
  -30.8161   -9.8333   -8.1264 S   0  0  0  0  0  0  0  0  0  0  0  0
  9 10  1  0  0  0
 10 11  1  0  0  0
 10 19  1  0  0  0
 11 12  2  0  0  0
 12  1  1  0  0  0
 12 13  1  0  0  0
  1  2  2  0  0  0
  2  3  1  0  0  0
  2  7  1  0  0  0
  3  4  2  0  0  0
  3  5  1  0  0  0
  5  6  1  0  0  0
  5  8  1  0  0  0
  6  7  2  0  0  0
  7 20  1  0  0  0
 20 21  2  0  0  0
 20 24  1  0  0  0
 21 22  1  0  0  0
 22 23  2  0  0  0
 23 24  1  0  0  0
 13 14  1  0  0  0
 13 19  2  0  0  0
 14 15  1  0  0  0
 14 16  2  0  0  0
 16 17  1  0  0  0
 17 18  2  0  0  0
 18 19  1  0  0  0
M  END
> <minimizedAffinity>
-8.60984

$$$$
