CHEMBL437747


 37 41  0  0  0  0  0  0  0  0999 V2000
  -14.1638   -3.7614  -13.1071 N   0  0  0  0  0  0  0  0  0  0  0  0
  -13.7135   -5.0215  -13.4739 C   0  0  0  0  0  0  0  0  0  0  0  0
  -13.4673   -5.0504  -14.7636 N   0  0  0  0  0  0  0  0  0  0  0  0
  -13.4882   -3.7380  -15.1890 C   0  0  0  0  0  0  0  0  0  0  0  0
  -13.9056   -2.8787  -14.1644 C   0  0  0  0  0  0  0  0  0  0  0  0
  -12.9995   -3.4158  -16.5285 C   0  0  0  0  0  0  0  0  0  0  0  0
  -11.9097   -2.5414  -16.6679 C   0  0  0  0  0  0  0  0  0  0  0  0
  -11.4502   -2.1645  -17.9342 C   0  0  0  0  0  0  0  0  0  0  0  0
  -12.0692   -2.6607  -19.0816 C   0  0  0  0  0  0  0  0  0  0  0  0
  -11.4440   -2.1675  -20.6153 Cl  0  0  0  0  0  0  0  0  0  0  0  0
  -13.1664   -3.5158  -18.9581 C   0  0  0  0  0  0  0  0  0  0  0  0
  -13.9952   -4.1635  -20.3299 Cl  0  0  0  0  0  0  0  0  0  0  0  0
  -13.6394   -3.8675  -17.6891 C   0  0  0  0  0  0  0  0  0  0  0  0
  -13.2693   -6.0673  -12.4853 C   0  0  0  0  0  0  0  0  0  0  0  0
  -13.4235   -7.5324  -12.9011 C   0  0  0  0  0  0  0  0  0  0  0  0
  -13.1416   -8.4037  -11.6646 C   0  0  0  0  0  0  0  0  0  0  0  0
  -11.8175   -8.1616  -11.0855 N   0  0  0  0  0  0  0  0  0  0  0  0
  -11.5642   -6.7439  -10.8165 C   0  0  0  0  0  0  0  0  0  0  0  0
  -11.8137   -5.8712  -12.0448 C   0  0  0  0  0  0  0  0  0  0  0  0
  -11.1054   -8.5034  -11.7289 H   0  0  0  0  0  0  0  0  0  0  0  0
  -14.0465   -1.4035  -14.1243 C   0  0  0  0  0  0  0  0  0  0  0  0
  -13.1181   -0.5700  -13.5450 C   0  0  0  0  0  0  0  0  0  0  0  0
  -13.3921    0.7697  -13.5797 C   0  0  0  0  0  0  0  0  0  0  0  0
  -14.4445    1.2911  -14.2186 N   0  0  0  0  0  0  0  0  0  0  0  0
  -15.2609    0.4301  -14.8367 C   0  0  0  0  0  0  0  0  0  0  0  0
  -15.1246   -0.9079  -14.7635 N   0  0  0  0  0  0  0  0  0  0  0  0
  -16.2651    0.9061  -15.6514 N   0  0  0  0  0  0  0  0  0  0  0  0
  -16.3976    0.2842  -16.4365 H   0  0  0  0  0  0  0  0  0  0  0  0
  -17.4429    1.5169  -15.0495 C   0  0  0  0  0  0  0  0  0  0  0  0
  -18.6603    0.5858  -15.1482 C   0  0  0  0  0  0  0  0  0  0  0  0
  -19.9280    1.2515  -14.6182 C   0  0  0  0  0  0  0  0  0  0  0  0
  -20.2103    2.5716  -15.3265 C   0  0  0  0  0  0  0  0  0  0  0  0
  -19.0111    3.5118  -15.2565 C   0  0  0  0  0  0  0  0  0  0  0  0
  -17.7359    2.8451  -15.7725 C   0  0  0  0  0  0  0  0  0  0  0  0
  -14.6846   -3.4561  -11.7820 C   0  0  0  0  0  0  0  0  0  0  0  0
  -16.7241   -4.9594  -11.7185 C   0  0  0  0  0  0  0  0  0  0  0  0
  -16.2014   -3.5333  -11.6322 C   0  0  0  0  0  0  0  0  0  0  0  0
 36 37  1  0  0  0
 37 35  1  0  0  0
 35  1  1  0  0  0
  1  2  1  0  0  0
  1  5  1  0  0  0
  2 14  1  0  0  0
  2  3  2  0  0  0
 14 15  1  0  0  0
 14 19  1  0  0  0
 15 16  1  0  0  0
 16 17  1  0  0  0
 17 18  1  0  0  0
 17 20  1  0  0  0
 18 19  1  0  0  0
  3  4  1  0  0  0
  4  6  1  0  0  0
  4  5  2  0  0  0
  6  7  1  0  0  0
  6 13  2  0  0  0
  7  8  2  0  0  0
  8  9  1  0  0  0
  9 10  1  0  0  0
  9 11  2  0  0  0
 11 12  1  0  0  0
 11 13  1  0  0  0
  5 21  1  0  0  0
 21 22  1  0  0  0
 21 26  2  0  0  0
 22 23  2  0  0  0
 23 24  1  0  0  0
 24 25  2  0  0  0
 25 27  1  0  0  0
 25 26  1  0  0  0
 27 29  1  0  0  0
 27 28  1  0  0  0
 29 30  1  0  0  0
 29 34  1  0  0  0
 30 31  1  0  0  0
 31 32  1  0  0  0
 32 33  1  0  0  0
 33 34  1  0  0  0
M  END
> <minimizedAffinity>
-7.75268

$$$$
