CHEMBL4093721


 26 29  0  0  0  0  0  0  0  0999 V2000
  -23.7115    0.0265  -13.0499 C   0  0  0  0  0  0  0  0  0  0  0  0
  -22.6804   -0.6997  -13.6464 C   0  0  0  0  0  0  0  0  0  0  0  0
  -21.6863   -0.0817  -14.4069 C   0  0  0  0  0  0  0  0  0  0  0  0
  -21.6197    1.3047  -14.5121 C   0  0  0  0  0  0  0  0  0  0  0  0
  -22.5736    2.0608  -13.8271 C   0  0  0  0  0  0  0  0  0  0  0  0
  -23.6150    1.4286  -13.1204 C   0  0  0  0  0  0  0  0  0  0  0  0
  -25.9304   -0.9608  -15.6812 C   0  0  0  0  0  0  0  0  0  0  0  0
  -26.4398   -1.4282  -14.3627 C   0  0  0  0  0  0  0  0  0  0  0  0
  -27.5854   -2.1283  -14.3710 N   0  0  0  0  0  0  0  0  0  0  0  0
  -27.8072   -2.3964  -13.0786 N   0  0  0  0  0  0  0  0  0  0  0  0
  -26.8590   -1.9046  -12.2379 C   0  0  0  0  0  0  0  0  0  0  0  0
  -26.8817   -2.0436  -10.9012 N   0  0  0  0  0  0  0  0  0  0  0  0
  -25.8264   -1.4687  -10.2972 C   0  0  0  0  0  0  0  0  0  0  0  0
  -24.8010   -0.7953  -10.9447 C   0  0  0  0  0  0  0  0  0  0  0  0
  -24.8079   -0.6655  -12.3488 C   0  0  0  0  0  0  0  0  0  0  0  0
  -25.9141   -1.2580  -13.0306 C   0  0  0  0  0  0  0  0  0  0  0  0
  -28.6263   -2.9250  -12.8157 H   0  0  0  0  0  0  0  0  0  0  0  0
  -20.6183    1.9722  -15.2545 N   0  0  0  0  0  0  0  0  0  0  0  0
  -19.2870    2.0826  -14.8863 C   0  0  0  0  0  0  0  0  0  0  0  0
  -18.7608    1.5727  -13.9009 O   0  0  0  0  0  0  0  0  0  0  0  0
  -18.5495    2.8414  -15.7775 N   0  0  0  0  0  0  0  0  0  0  0  0
  -20.8532    2.2662  -16.1856 H   0  0  0  0  0  0  0  0  0  0  0  0
  -19.0397    3.4796  -16.3835 H   0  0  0  0  0  0  0  0  0  0  0  0
  -17.1525    3.0573  -15.5366 C   0  0  0  0  0  0  0  0  0  0  0  0
  -16.2822    3.6714  -16.6020 C   0  0  0  0  0  0  0  0  0  0  0  0
  -16.0916    2.2353  -16.2075 C   0  0  0  0  0  0  0  0  0  0  0  0
  7  8  1  0  0  0
  8  9  2  0  0  0
  8 16  1  0  0  0
  9 10  1  0  0  0
 10 11  1  0  0  0
 10 17  1  0  0  0
 11 12  1  0  0  0
 11 16  2  0  0  0
 12 13  2  0  0  0
 13 14  1  0  0  0
 14 15  2  0  0  0
 15  1  1  0  0  0
 15 16  1  0  0  0
  1  2  1  0  0  0
  1  6  2  0  0  0
  2  3  2  0  0  0
  3  4  1  0  0  0
  4 18  1  0  0  0
  4  5  2  0  0  0
 18 19  1  0  0  0
 18 22  1  0  0  0
 19 20  2  0  0  0
 19 21  1  0  0  0
 21 24  1  0  0  0
 21 23  1  0  0  0
 24 25  1  0  0  0
 24 26  1  0  0  0
 25 26  1  0  0  0
  5  6  1  0  0  0
M  END
> <minimizedAffinity>
-8.36392

$$$$
