CHEMBL3979670


 35 39  0  0  0  0  0  0  0  0999 V2000
  -16.5462    2.7388  -15.8085 N   0  0  0  0  0  0  0  0  0  0  0  0
  -17.9326    2.2187  -15.5342 C   0  0  0  0  0  0  0  0  0  0  0  0
  -18.7853    3.2937  -15.5168 C   0  0  0  0  0  0  0  0  0  0  0  0
  -20.0288    3.2582  -15.1015 C   0  0  0  0  0  0  0  0  0  0  0  0
  -20.6183    2.1393  -14.7250 C   0  0  0  0  0  0  0  0  0  0  0  0
  -21.7632    2.4180  -14.1742 N   0  0  0  0  0  0  0  0  0  0  0  0
  -22.6054    1.5382  -13.7836 C   0  0  0  0  0  0  0  0  0  0  0  0
  -22.4650    0.1891  -14.0719 C   0  0  0  0  0  0  0  0  0  0  0  0
  -21.1126   -0.1867  -14.5011 N   0  0  0  0  0  0  0  0  0  0  0  0
  -20.1201    0.8271  -14.8179 C   0  0  0  0  0  0  0  0  0  0  0  0
  -18.6191    0.8643  -15.2366 C   0  0  0  0  0  0  0  0  0  0  0  0
  -23.9718   -0.4077  -13.7860 C   0  0  0  0  0  0  0  0  0  0  0  0
  -24.4925   -0.1491  -12.4749 C   0  0  0  0  0  0  0  0  0  0  0  0
  -25.6453   -0.7444  -12.2414 N   0  0  0  0  0  0  0  0  0  0  0  0
  -26.0167   -1.3700  -13.3244 N   0  0  0  0  0  0  0  0  0  0  0  0
  -27.2790   -2.1335  -13.2219 C   0  0  0  0  0  0  0  0  0  0  0  0
  -25.0787   -1.1641  -14.3363 C   0  0  0  0  0  0  0  0  0  0  0  0
  -13.0015    1.4556  -14.9694 C   0  0  0  0  0  0  0  0  0  0  0  0
  -12.8539    0.5358  -16.0048 C   0  0  0  0  0  0  0  0  0  0  0  0
  -13.8481    0.3757  -16.9633 C   0  0  0  0  0  0  0  0  0  0  0  0
  -15.0412    1.1344  -16.9011 C   0  0  0  0  0  0  0  0  0  0  0  0
  -15.2786    2.0162  -15.8786 C   0  0  0  0  0  0  0  0  0  0  0  0
  -14.2089    2.1776  -14.8967 C   0  0  0  0  0  0  0  0  0  0  0  0
  -12.0865    2.5181  -12.9471 C   0  0  0  0  0  0  0  0  0  0  0  0
  -12.0177    1.6446  -14.0308 O   0  0  0  0  0  0  0  0  0  0  0  0
  -13.6468   -0.5338  -17.9361 O   0  0  0  0  0  0  0  0  0  0  0  0
  -12.9096   -1.6839  -17.7740 C   0  0  0  0  0  0  0  0  0  0  0  0
  -16.4103    4.2079  -16.2000 C   0  0  0  0  0  0  0  0  0  0  0  0
  -15.6348    4.3312  -17.5272 C   0  0  0  0  0  0  0  0  0  0  0  0
  -14.4060    5.1701  -17.4959 N   0  0  0  0  0  0  0  0  0  0  0  0
  -13.1723    4.3704  -17.7643 C   0  0  0  0  0  0  0  0  0  0  0  0
  -12.0069    5.1833  -18.3097 C   0  0  0  0  0  0  0  0  0  0  0  0
  -12.1172    6.4757  -18.6482 C   0  0  0  0  0  0  0  0  0  0  0  0
  -13.4233    7.1966  -18.5466 C   0  0  0  0  0  0  0  0  0  0  0  0
  -14.5846    6.2066  -18.5328 C   0  0  0  0  0  0  0  0  0  0  0  0
 24 25  1  0  0  0
 25 18  1  0  0  0
 18 19  1  0  0  0
 18 23  2  0  0  0
 19 20  2  0  0  0
 20 26  1  0  0  0
 20 21  1  0  0  0
 26 27  1  0  0  0
 21 22  2  0  0  0
 22  1  1  0  0  0
 22 23  1  0  0  0
  1 28  1  0  0  0
  1  2  1  0  0  0
 28 29  1  0  0  0
 29 30  1  0  0  0
 30 31  1  0  0  0
 30 35  1  0  0  0
 31 32  1  0  0  0
 32 33  2  0  0  0
 33 34  1  0  0  0
 34 35  1  0  0  0
  2  3  1  0  0  0
  2 11  2  0  0  0
  3  4  2  0  0  0
  4  5  1  0  0  0
  5  6  1  0  0  0
  5 10  2  0  0  0
  6  7  2  0  0  0
  7  8  1  0  0  0
  8 12  1  0  0  0
  8  9  2  0  0  0
 12 13  1  0  0  0
 12 17  2  0  0  0
 13 14  2  0  0  0
 14 15  1  0  0  0
 15 16  1  0  0  0
 15 17  1  0  0  0
  9 10  1  0  0  0
 10 11  1  0  0  0
M  END
> <minimizedAffinity>
-7.97530

$$$$
