CHEMBL3901265


 34 38  0  0  0  0  0  0  0  0999 V2000
  -28.6540   -9.4964   -5.9272 N   0  0  0  0  0  0  0  0  0  0  0  0
  -28.9092   -8.1426   -5.4264 C   0  0  0  0  0  0  0  0  0  0  0  0
  -30.0764   -7.5958   -5.8838 C   0  0  0  0  0  0  0  0  0  0  0  0
  -30.1887   -6.2659   -6.0342 C   0  0  0  0  0  0  0  0  0  0  0  0
  -29.3492   -5.3853   -5.4723 C   0  0  0  0  0  0  0  0  0  0  0  0
  -29.9652   -4.3080   -5.7827 N   0  0  0  0  0  0  0  0  0  0  0  0
  -30.0551   -3.4028   -4.8272 C   0  0  0  0  0  0  0  0  0  0  0  0
  -28.9070   -3.0857   -4.1367 C   0  0  0  0  0  0  0  0  0  0  0  0
  -27.9705   -4.1636   -4.0065 N   0  0  0  0  0  0  0  0  0  0  0  0
  -28.2880   -5.6036   -4.5772 C   0  0  0  0  0  0  0  0  0  0  0  0
  -28.0543   -7.1787   -4.6786 C   0  0  0  0  0  0  0  0  0  0  0  0
  -28.8107   -1.5459   -4.3780 C   0  0  0  0  0  0  0  0  0  0  0  0
  -27.5141   -0.9873   -4.7886 C   0  0  0  0  0  0  0  0  0  0  0  0
  -27.5580    0.0357   -5.6360 N   0  0  0  0  0  0  0  0  0  0  0  0
  -28.8630    0.2637   -5.7926 N   0  0  0  0  0  0  0  0  0  0  0  0
  -29.2036    1.3698   -6.6812 C   0  0  0  0  0  0  0  0  0  0  0  0
  -29.6527   -0.6893   -5.1376 C   0  0  0  0  0  0  0  0  0  0  0  0
  -31.2333  -11.7704   -7.5316 C   0  0  0  0  0  0  0  0  0  0  0  0
  -30.8166  -11.7643   -8.8716 C   0  0  0  0  0  0  0  0  0  0  0  0
  -29.7219  -11.0118   -9.2514 C   0  0  0  0  0  0  0  0  0  0  0  0
  -28.9978  -10.3378   -8.2590 C   0  0  0  0  0  0  0  0  0  0  0  0
  -29.3983  -10.2935   -6.8851 C   0  0  0  0  0  0  0  0  0  0  0  0
  -30.5507  -11.0088   -6.5589 C   0  0  0  0  0  0  0  0  0  0  0  0
  -33.2247  -11.7470   -6.2367 C   0  0  0  0  0  0  0  0  0  0  0  0
  -32.3318  -12.4644   -7.0894 O   0  0  0  0  0  0  0  0  0  0  0  0
  -29.2805  -10.8544  -10.5428 O   0  0  0  0  0  0  0  0  0  0  0  0
  -27.8919  -10.5684  -10.7198 C   0  0  0  0  0  0  0  0  0  0  0  0
  -27.1460   -9.6991   -6.2939 C   0  0  0  0  0  0  0  0  0  0  0  0
  -26.2909  -10.2632   -5.1764 C   0  0  0  0  0  0  0  0  0  0  0  0
  -24.9862   -9.9099   -5.2066 N   0  0  0  0  0  0  0  0  0  0  0  0
  -24.2518  -10.2167   -4.1247 C   0  0  0  0  0  0  0  0  0  0  0  0
  -24.7633  -10.8664   -3.0220 C   0  0  0  0  0  0  0  0  0  0  0  0
  -26.0923  -11.1682   -3.0797 C   0  0  0  0  0  0  0  0  0  0  0  0
  -26.8838  -10.8696   -4.1356 N   0  0  0  0  0  0  0  0  0  0  0  0
 24 25  1  0  0  0
 25 18  1  0  0  0
 18 19  1  0  0  0
 18 23  2  0  0  0
 19 20  2  0  0  0
 20 26  1  0  0  0
 20 21  1  0  0  0
 26 27  1  0  0  0
 21 22  2  0  0  0
 22  1  1  0  0  0
 22 23  1  0  0  0
  1 28  1  0  0  0
  1  2  1  0  0  0
 28 29  1  0  0  0
 29 30  1  0  0  0
 29 34  2  0  0  0
 30 31  2  0  0  0
 31 32  1  0  0  0
 32 33  2  0  0  0
 33 34  1  0  0  0
  2  3  1  0  0  0
  2 11  2  0  0  0
  3  4  2  0  0  0
  4  5  1  0  0  0
  5  6  1  0  0  0
  5 10  2  0  0  0
  6  7  2  0  0  0
  7  8  1  0  0  0
  8 12  1  0  0  0
  8  9  2  0  0  0
 12 13  1  0  0  0
 12 17  2  0  0  0
 13 14  2  0  0  0
 14 15  1  0  0  0
 15 16  1  0  0  0
 15 17  1  0  0  0
  9 10  1  0  0  0
 10 11  1  0  0  0
M  END
> <minimizedAffinity>
-8.14515

$$$$
