CHEMBL1995765


 16 17  0  0  0  0  0  0  0  0999 V2000
  -27.3642   -4.9937   -3.9411 N   0  0  0  0  0  0  0  0  0  0  0  0
  -28.2487   -5.0239   -4.9959 C   0  0  0  0  0  0  0  0  0  0  0  0
  -28.7693   -6.1540   -5.5066 C   0  0  0  0  0  0  0  0  0  0  0  0
  -29.7485   -5.7272   -6.5374 C   0  0  0  0  0  0  0  0  0  0  0  0
  -30.3330   -6.4793   -7.2940 O   0  0  0  0  0  0  0  0  0  0  0  0
  -29.8281   -4.3577   -6.4588 N   0  0  0  0  0  0  0  0  0  0  0  0
  -28.8103   -3.9335   -5.6367 N   0  0  0  0  0  0  0  0  0  0  0  0
  -27.3859   -5.8454   -3.3871 H   0  0  0  0  0  0  0  0  0  0  0  0
  -27.5353   -4.1770   -3.3543 H   0  0  0  0  0  0  0  0  0  0  0  0
  -30.2300   -3.7434   -7.1527 H   0  0  0  0  0  0  0  0  0  0  0  0
  -28.6485   -2.5484   -5.4325 C   0  0  0  0  0  0  0  0  0  0  0  0
  -29.7633   -1.7063   -5.4739 C   0  0  0  0  0  0  0  0  0  0  0  0
  -29.6055   -0.3324   -5.3099 C   0  0  0  0  0  0  0  0  0  0  0  0
  -28.3319    0.1815   -5.1250 C   0  0  0  0  0  0  0  0  0  0  0  0
  -27.2756   -0.7097   -5.0689 C   0  0  0  0  0  0  0  0  0  0  0  0
  -27.4095   -2.0507   -5.1850 N   0  0  0  0  0  0  0  0  0  0  0  0
  1  2  1  0  0  0
  1  8  1  0  0  0
  1  9  1  0  0  0
  2  3  2  0  0  0
  2  7  1  0  0  0
  3  4  1  0  0  0
  4  5  2  0  0  0
  4  6  1  0  0  0
  6  7  1  0  0  0
  6 10  1  0  0  0
  7 11  1  0  0  0
 11 12  1  0  0  0
 11 16  2  0  0  0
 12 13  2  0  0  0
 13 14  1  0  0  0
 14 15  2  0  0  0
 15 16  1  0  0  0
M  END
> <minimizedAffinity>
-5.89826

$$$$
