CHEMBL3656036


 36 39  0  0  0  0  0  0  0  0999 V2000
  -23.0322   11.3713  -16.5952 C   0  0  0  0  0  0  0  0  0  0  0  0
  -22.3315   11.0453  -15.4231 C   0  0  0  0  0  0  0  0  0  0  0  0
  -22.9511   11.1536  -14.1792 C   0  0  0  0  0  0  0  0  0  0  0  0
  -24.2571   11.6222  -14.1031 C   0  0  0  0  0  0  0  0  0  0  0  0
  -24.8467   11.6349  -12.8988 F   0  0  0  0  0  0  0  0  0  0  0  0
  -24.9208   12.0798  -15.2460 C   0  0  0  0  0  0  0  0  0  0  0  0
  -24.3201   11.9121  -16.5035 C   0  0  0  0  0  0  0  0  0  0  0  0
  -21.2369   11.9577  -18.1429 N   0  0  0  0  0  0  0  0  0  0  0  0
  -22.3333   11.1504  -17.8949 C   0  0  0  0  0  0  0  0  0  0  0  0
  -22.7762   10.2670  -18.6182 O   0  0  0  0  0  0  0  0  0  0  0  0
  -20.8731   12.5182  -17.3871 H   0  0  0  0  0  0  0  0  0  0  0  0
  -16.8245   11.5609  -20.3193 C   0  0  0  0  0  0  0  0  0  0  0  0
  -18.3052   11.7932  -20.4281 C   0  0  0  0  0  0  0  0  0  0  0  0
  -18.8942   12.0036  -21.6778 C   0  0  0  0  0  0  0  0  0  0  0  0
  -20.2595   12.2561  -21.7684 C   0  0  0  0  0  0  0  0  0  0  0  0
  -21.0498   12.2710  -20.6184 C   0  0  0  0  0  0  0  0  0  0  0  0
  -22.3251   12.6531  -20.7690 F   0  0  0  0  0  0  0  0  0  0  0  0
  -20.4990   12.0066  -19.3576 C   0  0  0  0  0  0  0  0  0  0  0  0
  -19.1112   11.8035  -19.2746 C   0  0  0  0  0  0  0  0  0  0  0  0
  -26.1710   12.6590  -15.2616 O   0  0  0  0  0  0  0  0  0  0  0  0
  -27.2990   11.8736  -15.1684 C   0  0  0  0  0  0  0  0  0  0  0  0
  -27.6465   10.8705  -16.0680 C   0  0  0  0  0  0  0  0  0  0  0  0
  -28.8504   10.2141  -15.8757 C   0  0  0  0  0  0  0  0  0  0  0  0
  -29.6767   10.4435  -14.8315 N   0  0  0  0  0  0  0  0  0  0  0  0
  -29.2755   11.3749  -13.9320 C   0  0  0  0  0  0  0  0  0  0  0  0
  -28.1025   12.1007  -14.0564 C   0  0  0  0  0  0  0  0  0  0  0  0
  -30.1955   11.5612  -12.8140 C   0  0  0  0  0  0  0  0  0  0  0  0
  -31.4321   11.0100  -12.5319 C   0  0  0  0  0  0  0  0  0  0  0  0
  -31.9144   11.5509  -11.2996 C   0  0  0  0  0  0  0  0  0  0  0  0
  -30.9297   12.4208  -10.8605 C   0  0  0  0  0  0  0  0  0  0  0  0
  -29.9063   12.4143  -11.7738 N   0  0  0  0  0  0  0  0  0  0  0  0
  -29.0453   12.9473  -11.7287 H   0  0  0  0  0  0  0  0  0  0  0  0
  -33.1959   11.2152  -10.6809 C   0  0  0  0  0  0  0  0  0  0  0  0
  -33.5984   11.7423   -9.6548 O   0  0  0  0  0  0  0  0  0  0  0  0
  -33.9238   10.2667  -11.3216 O   0  0  0  0  0  0  0  0  0  0  0  0
  -33.4774    9.9356  -12.1184 H   0  0  0  0  0  0  0  0  0  0  0  0
 12 13  1  0  0  0
 13 14  1  0  0  0
 13 19  2  0  0  0
 14 15  2  0  0  0
 15 16  1  0  0  0
 16 17  1  0  0  0
 16 18  2  0  0  0
 18  8  1  0  0  0
 18 19  1  0  0  0
  8  9  1  0  0  0
  8 11  1  0  0  0
  9 10  2  0  0  0
  9  1  1  0  0  0
  1  2  1  0  0  0
  1  7  2  0  0  0
  2  3  2  0  0  0
  3  4  1  0  0  0
  4  5  1  0  0  0
  4  6  2  0  0  0
  6 20  1  0  0  0
  6  7  1  0  0  0
 20 21  1  0  0  0
 21 22  1  0  0  0
 21 26  2  0  0  0
 22 23  2  0  0  0
 23 24  1  0  0  0
 24 25  2  0  0  0
 25 27  1  0  0  0
 25 26  1  0  0  0
 27 28  2  0  0  0
 27 31  1  0  0  0
 28 29  1  0  0  0
 29 33  1  0  0  0
 29 30  2  0  0  0
 33 34  2  0  0  0
 33 35  1  0  0  0
 35 36  1  0  0  0
 30 31  1  0  0  0
 31 32  1  0  0  0
M  END
> <minimizedAffinity>
-5.19623

$$$$
