CHEMBL3593285


 41 45  0  0  0  0  0  0  0  0999 V2000
  -26.8928   10.8977  -15.4972 C   0  0  0  0  0  0  0  0  0  0  0  0
  -26.6379   12.1833  -15.4046 N   0  0  0  0  0  0  0  0  0  0  0  0
  -25.6115   12.5516  -16.2201 C   0  0  0  0  0  0  0  0  0  0  0  0
  -25.0058   11.5286  -16.9194 C   0  0  0  0  0  0  0  0  0  0  0  0
  -25.8049   10.0550  -16.5485 S   0  0  0  0  0  0  0  0  0  0  0  0
  -23.8365   11.6391  -17.7910 C   0  0  0  0  0  0  0  0  0  0  0  0
  -23.9127   12.5353  -18.8600 C   0  0  0  0  0  0  0  0  0  0  0  0
  -22.8726   12.6573  -19.7714 C   0  0  0  0  0  0  0  0  0  0  0  0
  -21.7083   11.9061  -19.6472 C   0  0  0  0  0  0  0  0  0  0  0  0
  -21.6192   11.0022  -18.5774 C   0  0  0  0  0  0  0  0  0  0  0  0
  -22.6788   10.8694  -17.6562 C   0  0  0  0  0  0  0  0  0  0  0  0
  -20.6298   12.0096  -20.5631 N   0  0  0  0  0  0  0  0  0  0  0  0
  -19.3475   11.5327  -20.3291 C   0  0  0  0  0  0  0  0  0  0  0  0
  -18.9947   10.9091  -19.3327 O   0  0  0  0  0  0  0  0  0  0  0  0
  -18.4549   11.8765  -21.3371 N   0  0  0  0  0  0  0  0  0  0  0  0
  -20.8357   12.3471  -21.4874 H   0  0  0  0  0  0  0  0  0  0  0  0
  -18.6189   12.7895  -21.7358 H   0  0  0  0  0  0  0  0  0  0  0  0
  -17.0975   11.4872  -21.1957 C   0  0  0  0  0  0  0  0  0  0  0  0
  -16.1279   12.3961  -20.7459 C   0  0  0  0  0  0  0  0  0  0  0  0
  -14.7784   12.0390  -20.7215 C   0  0  0  0  0  0  0  0  0  0  0  0
  -14.3974   10.7729  -21.1555 C   0  0  0  0  0  0  0  0  0  0  0  0
  -12.7314   10.3430  -21.1753 Cl  0  0  0  0  0  0  0  0  0  0  0  0
  -15.3571    9.8554  -21.5849 C   0  0  0  0  0  0  0  0  0  0  0  0
  -16.7129   10.2027  -21.5830 C   0  0  0  0  0  0  0  0  0  0  0  0
  -27.9151   10.2642  -14.8708 N   0  0  0  0  0  0  0  0  0  0  0  0
  -28.3922    9.5071  -15.3401 H   0  0  0  0  0  0  0  0  0  0  0  0
  -30.8904   11.2080  -12.9098 C   0  0  0  0  0  0  0  0  0  0  0  0
  -30.1248   10.7412  -13.9544 C   0  0  0  0  0  0  0  0  0  0  0  0
  -28.7528   10.8557  -13.9081 C   0  0  0  0  0  0  0  0  0  0  0  0
  -28.1639   11.5138  -12.9004 N   0  0  0  0  0  0  0  0  0  0  0  0
  -28.9736   11.9610  -11.9156 C   0  0  0  0  0  0  0  0  0  0  0  0
  -28.3333   12.6583  -10.7566 C   0  0  0  0  0  0  0  0  0  0  0  0
  -30.3121   11.8050  -11.8635 N   0  0  0  0  0  0  0  0  0  0  0  0
  -35.1514   10.6417  -12.7739 N   0  0  0  0  0  0  0  0  0  0  0  0
  -34.4733   11.5983  -13.7025 C   0  0  0  0  0  0  0  0  0  0  0  0
  -33.0303   11.2068  -14.1346 C   0  0  0  0  0  0  0  0  0  0  0  0
  -32.2462   10.9488  -12.9323 N   0  0  0  0  0  0  0  0  0  0  0  0
  -32.8154    9.9633  -12.0073 C   0  0  0  0  0  0  0  0  0  0  0  0
  -34.2442   10.4021  -11.6222 C   0  0  0  0  0  0  0  0  0  0  0  0
  -35.6313    8.1803  -12.6148 C   0  0  0  0  0  0  0  0  0  0  0  0
  -35.5219    9.4197  -13.4950 C   0  0  0  0  0  0  0  0  0  0  0  0
 40 41  1  0  0  0
 41 34  1  0  0  0
 34 35  1  0  0  0
 34 39  1  0  0  0
 35 36  1  0  0  0
 36 37  1  0  0  0
 37 27  1  0  0  0
 37 38  1  0  0  0
 27 28  1  0  0  0
 27 33  2  0  0  0
 28 29  2  0  0  0
 29 25  1  0  0  0
 29 30  1  0  0  0
 25  1  1  0  0  0
 25 26  1  0  0  0
  1  2  2  0  0  0
  1  5  1  0  0  0
  2  3  1  0  0  0
  3  4  2  0  0  0
  4  6  1  0  0  0
  4  5  1  0  0  0
  6  7  1  0  0  0
  6 11  2  0  0  0
  7  8  2  0  0  0
  8  9  1  0  0  0
  9 12  1  0  0  0
  9 10  2  0  0  0
 12 13  1  0  0  0
 12 16  1  0  0  0
 13 14  2  0  0  0
 13 15  1  0  0  0
 15 18  1  0  0  0
 15 17  1  0  0  0
 18 19  1  0  0  0
 18 24  2  0  0  0
 19 20  2  0  0  0
 20 21  1  0  0  0
 21 22  1  0  0  0
 21 23  2  0  0  0
 23 24  1  0  0  0
 10 11  1  0  0  0
 30 31  2  0  0  0
 31 32  1  0  0  0
 31 33  1  0  0  0
 38 39  1  0  0  0
M  END
> <minimizedAffinity>
-6.27876

$$$$
