CHEMBL3925322


 35 38  0  0  0  0  0  0  0  0999 V2000
  -28.2282   -9.1638   -5.6481 C   0  0  0  0  0  0  0  0  0  0  0  0
  -28.7779   -9.2971   -4.3686 C   0  0  0  0  0  0  0  0  0  0  0  0
  -29.2169   -8.1991   -3.6357 C   0  0  0  0  0  0  0  0  0  0  0  0
  -29.1160   -6.9249   -4.1451 C   0  0  0  0  0  0  0  0  0  0  0  0
  -29.6305   -5.9202   -3.4239 N   0  0  0  0  0  0  0  0  0  0  0  0
  -29.4964   -4.6886   -3.9519 C   0  0  0  0  0  0  0  0  0  0  0  0
  -28.8410   -4.4501   -5.1522 C   0  0  0  0  0  0  0  0  0  0  0  0
  -28.3332   -5.4651   -5.8913 N   0  0  0  0  0  0  0  0  0  0  0  0
  -28.4871   -6.7208   -5.3974 C   0  0  0  0  0  0  0  0  0  0  0  0
  -28.0469   -7.8461   -6.1110 C   0  0  0  0  0  0  0  0  0  0  0  0
  -28.6051   -3.0958   -5.6118 C   0  0  0  0  0  0  0  0  0  0  0  0
  -28.4410   -2.0319   -4.7428 C   0  0  0  0  0  0  0  0  0  0  0  0
  -28.2123   -0.9355   -5.5107 N   0  0  0  0  0  0  0  0  0  0  0  0
  -27.9801    0.4108   -5.0440 C   0  0  0  0  0  0  0  0  0  0  0  0
  -28.2252   -1.1950   -6.8250 N   0  0  0  0  0  0  0  0  0  0  0  0
  -28.4564   -2.5290   -6.9142 C   0  0  0  0  0  0  0  0  0  0  0  0
  -28.5614   -3.2012   -8.2602 C   0  0  0  0  0  0  0  0  0  0  0  0
  -27.5977   -4.1258   -8.5075 F   0  0  0  0  0  0  0  0  0  0  0  0
  -29.7438   -3.8715   -8.3930 F   0  0  0  0  0  0  0  0  0  0  0  0
  -28.5132   -2.3069   -9.2862 F   0  0  0  0  0  0  0  0  0  0  0  0
  -27.9456  -10.3236   -6.3952 N   0  0  0  0  0  0  0  0  0  0  0  0
  -30.7924   -9.6218   -7.9222 C   0  0  0  0  0  0  0  0  0  0  0  0
  -30.3572  -10.3640   -6.8872 C   0  0  0  0  0  0  0  0  0  0  0  0
  -29.0673  -11.1567   -6.9422 C   0  0  0  0  0  0  0  0  0  0  0  0
  -28.8447  -11.5861   -8.4341 C   0  0  0  0  0  0  0  0  0  0  0  0
  -29.0476  -10.4449   -9.3980 C   0  0  0  0  0  0  0  0  0  0  0  0
  -29.9783   -9.5172   -9.1156 C   0  0  0  0  0  0  0  0  0  0  0  0
  -31.7351   -7.7229   -6.8205 C   0  0  0  0  0  0  0  0  0  0  0  0
  -31.8756   -8.7890   -7.7515 O   0  0  0  0  0  0  0  0  0  0  0  0
  -28.2298  -10.2710  -10.4981 O   0  0  0  0  0  0  0  0  0  0  0  0
  -28.8624  -10.3539  -11.7689 C   0  0  0  0  0  0  0  0  0  0  0  0
  -26.6773  -10.2265   -7.1810 C   0  0  0  0  0  0  0  0  0  0  0  0
  -25.4089  -10.5589   -6.3649 C   0  0  0  0  0  0  0  0  0  0  0  0
  -24.6949   -9.4182   -5.9106 O   0  0  0  0  0  0  0  0  0  0  0  0
  -24.3008   -9.0141   -6.7062 H   0  0  0  0  0  0  0  0  0  0  0  0
 28 29  1  0  0  0
 29 22  1  0  0  0
 22 23  2  0  0  0
 22 27  1  0  0  0
 23 24  1  0  0  0
 24 21  1  0  0  0
 24 25  1  0  0  0
 21 32  1  0  0  0
 21  1  1  0  0  0
 32 33  1  0  0  0
 33 34  1  0  0  0
 34 35  1  0  0  0
  1  2  1  0  0  0
  1 10  2  0  0  0
  2  3  2  0  0  0
  3  4  1  0  0  0
  4  5  1  0  0  0
  4  9  2  0  0  0
  5  6  2  0  0  0
  6  7  1  0  0  0
  7 11  1  0  0  0
  7  8  2  0  0  0
 11 12  2  0  0  0
 11 16  1  0  0  0
 12 13  1  0  0  0
 13 14  1  0  0  0
 13 15  1  0  0  0
 15 16  2  0  0  0
 16 17  1  0  0  0
 17 18  1  0  0  0
 17 19  1  0  0  0
 17 20  1  0  0  0
  8  9  1  0  0  0
  9 10  1  0  0  0
 25 26  1  0  0  0
 26 30  1  0  0  0
 26 27  2  0  0  0
 30 31  1  0  0  0
M  END
> <minimizedAffinity>
-7.85123

$$$$
