CHEMBL3928180


 36 40  0  0  0  0  0  0  0  0999 V2000
  -28.6451   -8.7067   -7.7636 C   0  0  0  0  0  0  0  0  0  0  0  0
  -27.8668   -9.7430   -7.2199 C   0  0  0  0  0  0  0  0  0  0  0  0
  -27.8704  -10.0173   -5.8255 C   0  0  0  0  0  0  0  0  0  0  0  0
  -27.1130  -10.9923   -5.1636 C   0  0  0  0  0  0  0  0  0  0  0  0
  -27.1932  -11.1906   -3.8301 N   0  0  0  0  0  0  0  0  0  0  0  0
  -28.0311  -10.4151   -3.1464 C   0  0  0  0  0  0  0  0  0  0  0  0
  -28.7995   -9.4639   -3.6699 N   0  0  0  0  0  0  0  0  0  0  0  0
  -28.7044   -9.2823   -4.9861 C   0  0  0  0  0  0  0  0  0  0  0  0
  -29.4704   -8.2798   -5.5307 C   0  0  0  0  0  0  0  0  0  0  0  0
  -29.4095   -7.9290   -6.8873 C   0  0  0  0  0  0  0  0  0  0  0  0
  -27.4433   -9.2625   -9.7668 C   0  0  0  0  0  0  0  0  0  0  0  0
  -28.4538   -8.5152   -9.0989 O   0  0  0  0  0  0  0  0  0  0  0  0
  -26.2175  -11.8098   -5.9028 N   0  0  0  0  0  0  0  0  0  0  0  0
  -26.7123  -12.2303   -6.6837 H   0  0  0  0  0  0  0  0  0  0  0  0
  -24.9006  -11.4131   -6.2150 C   0  0  0  0  0  0  0  0  0  0  0  0
  -24.3277  -10.3132   -5.5578 C   0  0  0  0  0  0  0  0  0  0  0  0
  -23.0611   -9.8519   -5.9057 C   0  0  0  0  0  0  0  0  0  0  0  0
  -22.3359  -10.4958   -6.9072 C   0  0  0  0  0  0  0  0  0  0  0  0
  -20.7890   -9.8497   -7.3174 Cl  0  0  0  0  0  0  0  0  0  0  0  0
  -22.8828  -11.6170   -7.5445 C   0  0  0  0  0  0  0  0  0  0  0  0
  -22.0408  -12.4639   -8.7962 Cl  0  0  0  0  0  0  0  0  0  0  0  0
  -24.1572  -12.0773   -7.1947 C   0  0  0  0  0  0  0  0  0  0  0  0
  -30.0451   -6.8051   -7.3539 O   0  0  0  0  0  0  0  0  0  0  0  0
  -29.1792   -5.6785   -7.5364 C   0  0  0  0  0  0  0  0  0  0  0  0
  -29.5579   -4.5432   -6.6062 C   0  0  0  0  0  0  0  0  0  0  0  0
  -28.3166   -4.0003   -5.8797 C   0  0  0  0  0  0  0  0  0  0  0  0
  -28.6552   -2.8748   -4.9861 N   0  0  0  0  0  0  0  0  0  0  0  0
  -29.7068   -3.3602   -4.0555 C   0  0  0  0  0  0  0  0  0  0  0  0
  -30.9087   -4.0478   -4.7348 C   0  0  0  0  0  0  0  0  0  0  0  0
  -30.5008   -5.0652   -5.6530 O   0  0  0  0  0  0  0  0  0  0  0  0
  -29.0193   -1.6158   -5.6864 C   0  0  0  0  0  0  0  0  0  0  0  0
  -28.0006   -1.1739   -6.7657 C   0  0  0  0  0  0  0  0  0  0  0  0
  -28.2863    0.2266   -7.2879 C   0  0  0  0  0  0  0  0  0  0  0  0
  -28.3554    1.1667   -6.2231 O   0  0  0  0  0  0  0  0  0  0  0  0
  -29.4005    0.8524   -5.3092 C   0  0  0  0  0  0  0  0  0  0  0  0
  -29.1494   -0.4915   -4.6434 C   0  0  0  0  0  0  0  0  0  0  0  0
 11 12  1  0  0  0
 12  1  1  0  0  0
  1  2  1  0  0  0
  1 10  2  0  0  0
  2  3  2  0  0  0
  3  4  1  0  0  0
  3  8  1  0  0  0
  4 13  1  0  0  0
  4  5  2  0  0  0
 13 15  1  0  0  0
 13 14  1  0  0  0
 15 16  1  0  0  0
 15 22  2  0  0  0
 16 17  2  0  0  0
 17 18  1  0  0  0
 18 19  1  0  0  0
 18 20  2  0  0  0
 20 21  1  0  0  0
 20 22  1  0  0  0
  5  6  1  0  0  0
  6  7  2  0  0  0
  7  8  1  0  0  0
  8  9  2  0  0  0
  9 10  1  0  0  0
 10 23  1  0  0  0
 23 24  1  0  0  0
 24 25  1  0  0  0
 25 26  1  0  0  0
 25 30  1  0  0  0
 26 27  1  0  0  0
 27 31  1  0  0  0
 27 28  1  0  0  0
 31 32  1  0  0  0
 31 36  1  0  0  0
 32 33  1  0  0  0
 33 34  1  0  0  0
 34 35  1  0  0  0
 35 36  1  0  0  0
 28 29  1  0  0  0
 29 30  1  0  0  0
M  END
> <minimizedAffinity>
-7.98776

$$$$
