CHEMBL3891464


 31 34  0  0  0  0  0  0  0  0999 V2000
  -16.7570    1.8611  -15.6993 C   0  0  0  0  0  0  0  0  0  0  0  0
  -17.0167    3.2356  -15.8084 C   0  0  0  0  0  0  0  0  0  0  0  0
  -18.2802    3.7722  -15.5354 C   0  0  0  0  0  0  0  0  0  0  0  0
  -19.3274    2.9751  -15.1152 C   0  0  0  0  0  0  0  0  0  0  0  0
  -20.5201    3.5307  -14.8410 N   0  0  0  0  0  0  0  0  0  0  0  0
  -21.4940    2.6863  -14.4232 C   0  0  0  0  0  0  0  0  0  0  0  0
  -21.2957    1.3223  -14.2841 C   0  0  0  0  0  0  0  0  0  0  0  0
  -20.0940    0.7586  -14.5690 N   0  0  0  0  0  0  0  0  0  0  0  0
  -19.1076    1.5849  -14.9826 C   0  0  0  0  0  0  0  0  0  0  0  0
  -17.8497    1.0629  -15.2930 C   0  0  0  0  0  0  0  0  0  0  0  0
  -22.3523    0.4364  -13.8252 C   0  0  0  0  0  0  0  0  0  0  0  0
  -23.4703   -0.1113  -14.4943 C   0  0  0  0  0  0  0  0  0  0  0  0
  -24.2048   -0.9071  -13.7130 N   0  0  0  0  0  0  0  0  0  0  0  0
  -23.5569   -0.8771  -12.5362 N   0  0  0  0  0  0  0  0  0  0  0  0
  -24.0441   -1.6510  -11.4202 C   0  0  0  0  0  0  0  0  0  0  0  0
  -22.4482   -0.0834  -12.5497 C   0  0  0  0  0  0  0  0  0  0  0  0
  -15.4657    1.3453  -16.0127 N   0  0  0  0  0  0  0  0  0  0  0  0
  -14.8135    1.5147  -17.2753 C   0  0  0  0  0  0  0  0  0  0  0  0
  -14.4004    0.4499  -18.0857 C   0  0  0  0  0  0  0  0  0  0  0  0
  -13.6819    0.6436  -19.2615 C   0  0  0  0  0  0  0  0  0  0  0  0
  -13.2943   -0.4250  -19.9719 F   0  0  0  0  0  0  0  0  0  0  0  0
  -13.3260    1.9074  -19.6799 C   0  0  0  0  0  0  0  0  0  0  0  0
  -13.7267    3.0033  -18.9241 C   0  0  0  0  0  0  0  0  0  0  0  0
  -14.4746    2.8054  -17.7501 C   0  0  0  0  0  0  0  0  0  0  0  0
  -13.3082    4.1985  -19.4355 O   0  0  0  0  0  0  0  0  0  0  0  0
  -13.8664    5.3739  -18.8703 C   0  0  0  0  0  0  0  0  0  0  0  0
  -14.8362    0.4132  -15.0148 C   0  0  0  0  0  0  0  0  0  0  0  0
  -14.3891    1.0927  -13.7012 C   0  0  0  0  0  0  0  0  0  0  0  0
  -15.5775   -0.7848  -12.8153 C   0  0  0  0  0  0  0  0  0  0  0  0
  -14.8456    0.4348  -12.4645 N   0  0  0  0  0  0  0  0  0  0  0  0
  -14.0445    0.1911  -11.8833 H   0  0  0  0  0  0  0  0  0  0  0  0
 29 30  1  0  0  0
 30 28  1  0  0  0
 30 31  1  0  0  0
 28 27  1  0  0  0
 27 17  1  0  0  0
 17 18  1  0  0  0
 17  1  1  0  0  0
 18 19  1  0  0  0
 18 24  2  0  0  0
 19 20  2  0  0  0
 20 21  1  0  0  0
 20 22  1  0  0  0
 22 23  2  0  0  0
 23 25  1  0  0  0
 23 24  1  0  0  0
 25 26  1  0  0  0
  1  2  1  0  0  0
  1 10  2  0  0  0
  2  3  2  0  0  0
  3  4  1  0  0  0
  4  5  1  0  0  0
  4  9  2  0  0  0
  5  6  2  0  0  0
  6  7  1  0  0  0
  7 11  1  0  0  0
  7  8  2  0  0  0
 11 12  1  0  0  0
 11 16  2  0  0  0
 12 13  2  0  0  0
 13 14  1  0  0  0
 14 15  1  0  0  0
 14 16  1  0  0  0
  8  9  1  0  0  0
  9 10  1  0  0  0
M  END
> <minimizedAffinity>
-8.25276

$$$$
