CHEMBL3827098


 35 39  0  0  0  0  0  0  0  0999 V2000
  -28.9730   -9.3609   -6.8656 N   0  0  0  0  0  0  0  0  0  0  0  0
  -27.5673   -9.4228   -6.7647 C   0  0  0  0  0  0  0  0  0  0  0  0
  -26.8606   -9.9970   -7.7549 C   0  0  0  0  0  0  0  0  0  0  0  0
  -27.4336  -10.1505   -9.0596 C   0  0  0  0  0  0  0  0  0  0  0  0
  -26.6912   -9.9816  -10.2292 C   0  0  0  0  0  0  0  0  0  0  0  0
  -27.3443  -10.0121  -11.4573 C   0  0  0  0  0  0  0  0  0  0  0  0
  -28.7203  -10.2546  -11.5025 C   0  0  0  0  0  0  0  0  0  0  0  0
  -29.3785  -10.2488  -12.6986 O   0  0  0  0  0  0  0  0  0  0  0  0
  -29.4691  -10.4602  -10.3437 C   0  0  0  0  0  0  0  0  0  0  0  0
  -28.8139  -10.3716   -9.1198 C   0  0  0  0  0  0  0  0  0  0  0  0
  -29.5554  -10.2964   -7.8170 C   0  0  0  0  0  0  0  0  0  0  0  0
  -30.6252  -10.8875   -7.6617 O   0  0  0  0  0  0  0  0  0  0  0  0
  -25.8175  -10.8399   -7.1496 C   0  0  0  0  0  0  0  0  0  0  0  0
  -24.9535  -11.4755   -7.7268 O   0  0  0  0  0  0  0  0  0  0  0  0
  -26.0582  -10.7782   -5.7207 C   0  0  0  0  0  0  0  0  0  0  0  0
  -25.7008  -11.6449   -4.7195 C   0  0  0  0  0  0  0  0  0  0  0  0
  -26.0364  -11.2364   -3.4378 C   0  0  0  0  0  0  0  0  0  0  0  0
  -25.9625  -12.1169   -2.3999 O   0  0  0  0  0  0  0  0  0  0  0  0
  -26.5426   -9.9540   -3.1773 C   0  0  0  0  0  0  0  0  0  0  0  0
  -27.0298   -9.1822   -4.2324 C   0  0  0  0  0  0  0  0  0  0  0  0
  -26.9011   -9.7039   -5.5043 C   0  0  0  0  0  0  0  0  0  0  0  0
  -28.7473  -10.0086  -13.3979 H   0  0  0  0  0  0  0  0  0  0  0  0
  -26.3481  -12.9515   -2.7274 H   0  0  0  0  0  0  0  0  0  0  0  0
  -29.6525   -5.4909   -6.1289 C   0  0  0  0  0  0  0  0  0  0  0  0
  -28.8284   -5.8046   -7.2120 C   0  0  0  0  0  0  0  0  0  0  0  0
  -28.8194   -7.1026   -7.7186 C   0  0  0  0  0  0  0  0  0  0  0  0
  -29.5989   -8.0789   -7.1009 C   0  0  0  0  0  0  0  0  0  0  0  0
  -30.6409   -7.6922   -6.2434 C   0  0  0  0  0  0  0  0  0  0  0  0
  -30.6215   -6.4022   -5.7143 C   0  0  0  0  0  0  0  0  0  0  0  0
  -29.5491   -4.3548   -5.3680 O   0  0  0  0  0  0  0  0  0  0  0  0
  -30.3274   -3.2578   -5.8608 C   0  0  0  0  0  0  0  0  0  0  0  0
  -29.5746   -1.9380   -5.6757 C   0  0  0  0  0  0  0  0  0  0  0  0
  -27.8849   -1.7160   -7.3757 C   0  0  0  0  0  0  0  0  0  0  0  0
  -28.1341   -2.0605   -5.9772 N   0  0  0  0  0  0  0  0  0  0  0  0
  -27.3038   -1.2345   -5.0977 C   0  0  0  0  0  0  0  0  0  0  0  0
 33 34  1  0  0  0
 34 35  1  0  0  0
 34 32  1  0  0  0
 32 31  1  0  0  0
 31 30  1  0  0  0
 30 24  1  0  0  0
 24 25  1  0  0  0
 24 29  2  0  0  0
 25 26  2  0  0  0
 26 27  1  0  0  0
 27  1  1  0  0  0
 27 28  2  0  0  0
  1  2  1  0  0  0
  1 11  1  0  0  0
  2  3  2  0  0  0
  2 21  1  0  0  0
  3  4  1  0  0  0
  3 13  1  0  0  0
  4  5  1  0  0  0
  4 10  2  0  0  0
  5  6  2  0  0  0
  6  7  1  0  0  0
  7  8  1  0  0  0
  7  9  2  0  0  0
  8 22  1  0  0  0
  9 10  1  0  0  0
 10 11  1  0  0  0
 11 12  2  0  0  0
 13 14  2  0  0  0
 13 15  1  0  0  0
 15 16  1  0  0  0
 15 21  2  0  0  0
 16 17  2  0  0  0
 17 18  1  0  0  0
 17 19  1  0  0  0
 18 23  1  0  0  0
 19 20  2  0  0  0
 20 21  1  0  0  0
 28 29  1  0  0  0
M  END
> <minimizedAffinity>
-8.33377

$$$$
