CHEMBL4226090


 35 37  0  0  0  0  0  0  0  0999 V2000
  -18.3519    2.6067  -15.2455 C   0  0  0  0  0  0  0  0  0  0  0  0
  -17.3905    3.0170  -16.1666 C   0  0  0  0  0  0  0  0  0  0  0  0
  -16.2371    2.2501  -16.3839 C   0  0  0  0  0  0  0  0  0  0  0  0
  -16.0062    1.0784  -15.6649 C   0  0  0  0  0  0  0  0  0  0  0  0
  -16.9560    0.6884  -14.7115 C   0  0  0  0  0  0  0  0  0  0  0  0
  -18.1172    1.4488  -14.4999 C   0  0  0  0  0  0  0  0  0  0  0  0
  -14.9205    0.2048  -15.9157 N   0  0  0  0  0  0  0  0  0  0  0  0
  -14.9251   -0.2374  -16.8275 H   0  0  0  0  0  0  0  0  0  0  0  0
  -13.9175   -0.2761  -15.0716 C   0  0  0  0  0  0  0  0  0  0  0  0
  -12.6586    0.6126  -14.4065 S   0  0  0  0  0  0  0  0  0  0  0  0
  -14.1091   -1.6526  -14.8732 N   0  0  0  0  0  0  0  0  0  0  0  0
  -13.4288   -2.2232  -15.3641 H   0  0  0  0  0  0  0  0  0  0  0  0
  -14.8016   -2.2814  -13.8131 C   0  0  0  0  0  0  0  0  0  0  0  0
  -15.0592   -1.5583  -12.6448 C   0  0  0  0  0  0  0  0  0  0  0  0
  -15.7357   -2.1678  -11.5820 C   0  0  0  0  0  0  0  0  0  0  0  0
  -16.1459   -3.4965  -11.6839 C   0  0  0  0  0  0  0  0  0  0  0  0
  -16.8007   -4.0430  -10.6505 F   0  0  0  0  0  0  0  0  0  0  0  0
  -15.8762   -4.2412  -12.8251 C   0  0  0  0  0  0  0  0  0  0  0  0
  -15.1800   -3.6250  -13.8781 C   0  0  0  0  0  0  0  0  0  0  0  0
  -16.3220   -5.6638  -12.9752 C   0  0  0  0  0  0  0  0  0  0  0  0
  -16.1654   -6.1905  -14.2193 F   0  0  0  0  0  0  0  0  0  0  0  0
  -15.6550   -6.5024  -12.1326 F   0  0  0  0  0  0  0  0  0  0  0  0
  -17.6436   -5.8197  -12.6735 F   0  0  0  0  0  0  0  0  0  0  0  0
  -19.8383    3.5637  -15.0187 S   0  0  0  0  0  0  0  0  0  0  0  0
  -22.8888    0.4000  -13.8587 C   0  0  0  0  0  0  0  0  0  0  0  0
  -21.7349    0.0131  -14.5376 C   0  0  0  0  0  0  0  0  0  0  0  0
  -20.7910    0.9846  -14.8846 C   0  0  0  0  0  0  0  0  0  0  0  0
  -21.0270    2.3148  -14.5421 C   0  0  0  0  0  0  0  0  0  0  0  0
  -22.1536    2.7060  -13.9030 N   0  0  0  0  0  0  0  0  0  0  0  0
  -23.0588    1.7493  -13.5821 C   0  0  0  0  0  0  0  0  0  0  0  0
  -25.3998   -1.3565  -11.6395 C   0  0  0  0  0  0  0  0  0  0  0  0
  -24.3081   -0.5401  -12.1127 N   0  0  0  0  0  0  0  0  0  0  0  0
  -23.9526   -0.5502  -13.4465 C   0  0  0  0  0  0  0  0  0  0  0  0
  -24.4927   -1.2663  -14.2857 O   0  0  0  0  0  0  0  0  0  0  0  0
  -23.9639    0.1892  -11.5042 H   0  0  0  0  0  0  0  0  0  0  0  0
 31 32  1  0  0  0
 32 33  1  0  0  0
 32 35  1  0  0  0
 33 34  2  0  0  0
 33 25  1  0  0  0
 25 26  1  0  0  0
 25 30  2  0  0  0
 26 27  2  0  0  0
 27 28  1  0  0  0
 28 24  1  0  0  0
 28 29  2  0  0  0
 24  1  1  0  0  0
  1  2  1  0  0  0
  1  6  2  0  0  0
  2  3  2  0  0  0
  3  4  1  0  0  0
  4  7  1  0  0  0
  4  5  2  0  0  0
  7  9  1  0  0  0
  7  8  1  0  0  0
  9 10  2  0  0  0
  9 11  1  0  0  0
 11 13  1  0  0  0
 11 12  1  0  0  0
 13 14  1  0  0  0
 13 19  2  0  0  0
 14 15  2  0  0  0
 15 16  1  0  0  0
 16 17  1  0  0  0
 16 18  2  0  0  0
 18 20  1  0  0  0
 18 19  1  0  0  0
 20 21  1  0  0  0
 20 22  1  0  0  0
 20 23  1  0  0  0
  5  6  1  0  0  0
 29 30  1  0  0  0
M  END
> <minimizedAffinity>
-9.76956

$$$$
