CHEMBL4242710


 41 45  0  0  0  0  0  0  0  0999 V2000
  -27.3505   -2.0271   -9.6046 C   0  0  0  0  0  0  0  0  0  0  0  0
  -25.9518   -1.9273   -9.5596 C   0  0  0  0  0  0  0  0  0  0  0  0
  -25.2176   -1.4077  -10.6238 C   0  0  0  0  0  0  0  0  0  0  0  0
  -25.8483   -1.0196  -11.8022 C   0  0  0  0  0  0  0  0  0  0  0  0
  -27.2422   -1.0577  -11.8544 C   0  0  0  0  0  0  0  0  0  0  0  0
  -27.9827   -1.5338  -10.7552 C   0  0  0  0  0  0  0  0  0  0  0  0
  -27.7853    0.4957   -7.4193 N   0  0  0  0  0  0  0  0  0  0  0  0
  -28.3116   -0.6215   -6.8763 C   0  0  0  0  0  0  0  0  0  0  0  0
  -28.8646   -0.4641   -5.6383 O   0  0  0  0  0  0  0  0  0  0  0  0
  -29.4376   -1.6472   -5.2114 N   0  0  0  0  0  0  0  0  0  0  0  0
  -29.2048   -2.5272   -6.1899 C   0  0  0  0  0  0  0  0  0  0  0  0
  -29.6157   -3.8195   -6.2105 N   0  0  0  0  0  0  0  0  0  0  0  0
  -29.2393   -4.4911   -7.3311 C   0  0  0  0  0  0  0  0  0  0  0  0
  -28.5045   -3.9184   -8.4054 C   0  0  0  0  0  0  0  0  0  0  0  0
  -28.0587   -2.5748   -8.4456 C   0  0  0  0  0  0  0  0  0  0  0  0
  -28.4628   -1.9291   -7.2670 C   0  0  0  0  0  0  0  0  0  0  0  0
  -27.9924    1.3762   -6.9536 H   0  0  0  0  0  0  0  0  0  0  0  0
  -27.7739    0.5877   -8.4316 H   0  0  0  0  0  0  0  0  0  0  0  0
  -29.6591   -5.9162   -7.3866 C   0  0  0  0  0  0  0  0  0  0  0  0
  -28.8533   -6.8888   -8.0060 C   0  0  0  0  0  0  0  0  0  0  0  0
  -29.2543   -8.2274   -8.0792 C   0  0  0  0  0  0  0  0  0  0  0  0
  -30.4710   -8.6239   -7.5309 C   0  0  0  0  0  0  0  0  0  0  0  0
  -31.2836   -7.6857   -6.9047 C   0  0  0  0  0  0  0  0  0  0  0  0
  -30.8823   -6.3484   -6.8364 C   0  0  0  0  0  0  0  0  0  0  0  0
  -25.1146   -0.5742  -12.9255 N   0  0  0  0  0  0  0  0  0  0  0  0
  -23.9389    0.1515  -12.8289 C   0  0  0  0  0  0  0  0  0  0  0  0
  -23.3175    0.3396  -11.7880 O   0  0  0  0  0  0  0  0  0  0  0  0
  -23.5525    0.6763  -14.0526 N   0  0  0  0  0  0  0  0  0  0  0  0
  -25.2696   -1.0498  -13.8026 H   0  0  0  0  0  0  0  0  0  0  0  0
  -24.3213    0.9410  -14.6528 H   0  0  0  0  0  0  0  0  0  0  0  0
  -22.3444    1.3970  -14.1872 C   0  0  0  0  0  0  0  0  0  0  0  0
  -22.3066    2.7864  -14.0673 C   0  0  0  0  0  0  0  0  0  0  0  0
  -21.1069    3.4767  -14.2338 C   0  0  0  0  0  0  0  0  0  0  0  0
  -19.9301    2.7890  -14.5435 C   0  0  0  0  0  0  0  0  0  0  0  0
  -18.5094    3.7492  -14.7245 Cl  0  0  0  0  0  0  0  0  0  0  0  0
  -19.9457    1.3964  -14.6856 C   0  0  0  0  0  0  0  0  0  0  0  0
  -21.1646    0.7071  -14.4676 C   0  0  0  0  0  0  0  0  0  0  0  0
  -18.7610    0.5724  -15.1162 C   0  0  0  0  0  0  0  0  0  0  0  0
  -19.0182   -0.6742  -15.5850 F   0  0  0  0  0  0  0  0  0  0  0  0
  -18.0495    1.1942  -16.1040 F   0  0  0  0  0  0  0  0  0  0  0  0
  -17.8747    0.4012  -14.0925 F   0  0  0  0  0  0  0  0  0  0  0  0
  7  8  1  0  0  0
  7 17  1  0  0  0
  7 18  1  0  0  0
  8  9  1  0  0  0
  8 16  2  0  0  0
  9 10  1  0  0  0
 10 11  2  0  0  0
 11 12  1  0  0  0
 11 16  1  0  0  0
 12 13  2  0  0  0
 13 19  1  0  0  0
 13 14  1  0  0  0
 19 20  1  0  0  0
 19 24  2  0  0  0
 20 21  2  0  0  0
 21 22  1  0  0  0
 22 23  2  0  0  0
 23 24  1  0  0  0
 14 15  2  0  0  0
 15  1  1  0  0  0
 15 16  1  0  0  0
  1  2  1  0  0  0
  1  6  2  0  0  0
  2  3  2  0  0  0
  3  4  1  0  0  0
  4 25  1  0  0  0
  4  5  2  0  0  0
 25 26  1  0  0  0
 25 29  1  0  0  0
 26 27  2  0  0  0
 26 28  1  0  0  0
 28 31  1  0  0  0
 28 30  1  0  0  0
 31 32  1  0  0  0
 31 37  2  0  0  0
 32 33  2  0  0  0
 33 34  1  0  0  0
 34 35  1  0  0  0
 34 36  2  0  0  0
 36 38  1  0  0  0
 36 37  1  0  0  0
 38 39  1  0  0  0
 38 40  1  0  0  0
 38 41  1  0  0  0
  5  6  1  0  0  0
M  END
> <minimizedAffinity>
-9.96641

$$$$
