CHEMBL4072383


 32 36  0  0  0  0  0  0  0  0999 V2000
  -29.1739   -6.8484   -5.3513 C   0  0  0  0  0  0  0  0  0  0  0  0
  -28.1798   -7.2564   -4.5234 N   0  0  0  0  0  0  0  0  0  0  0  0
  -27.4804   -8.3661   -4.8186 C   0  0  0  0  0  0  0  0  0  0  0  0
  -26.5502   -8.7639   -3.8761 N   0  0  0  0  0  0  0  0  0  0  0  0
  -27.5931   -9.1252   -5.9125 N   0  0  0  0  0  0  0  0  0  0  0  0
  -28.5504   -8.7163   -6.7722 C   0  0  0  0  0  0  0  0  0  0  0  0
  -29.0193   -9.3124   -7.9859 C   0  0  0  0  0  0  0  0  0  0  0  0
  -30.0330   -8.4971   -8.4587 C   0  0  0  0  0  0  0  0  0  0  0  0
  -30.1308   -7.4206   -7.6254 N   0  0  0  0  0  0  0  0  0  0  0  0
  -29.3113   -7.5834   -6.5314 C   0  0  0  0  0  0  0  0  0  0  0  0
  -26.2725   -7.9842   -3.2992 H   0  0  0  0  0  0  0  0  0  0  0  0
  -25.8313   -9.3337   -4.2980 H   0  0  0  0  0  0  0  0  0  0  0  0
  -30.7868   -6.6572   -7.7329 H   0  0  0  0  0  0  0  0  0  0  0  0
  -28.8410   -1.7292   -4.8397 C   0  0  0  0  0  0  0  0  0  0  0  0
  -28.2624   -2.5927   -5.7598 C   0  0  0  0  0  0  0  0  0  0  0  0
  -28.7337   -3.8956   -5.8753 C   0  0  0  0  0  0  0  0  0  0  0  0
  -29.7161   -4.4050   -5.0119 C   0  0  0  0  0  0  0  0  0  0  0  0
  -30.3325   -3.5210   -4.1115 C   0  0  0  0  0  0  0  0  0  0  0  0
  -29.8831   -2.1888   -4.0294 C   0  0  0  0  0  0  0  0  0  0  0  0
  -31.4939   -3.9714   -3.2621 C   0  0  0  0  0  0  0  0  0  0  0  0
  -31.6574   -5.4901   -3.2246 C   0  0  0  0  0  0  0  0  0  0  0  0
  -31.3911   -6.1081   -4.5964 C   0  0  0  0  0  0  0  0  0  0  0  0
  -30.0242   -5.7827   -5.0088 N   0  0  0  0  0  0  0  0  0  0  0  0
  -29.1819    0.5333   -5.4002 C   0  0  0  0  0  0  0  0  0  0  0  0
  -28.4506   -0.4314   -4.6465 O   0  0  0  0  0  0  0  0  0  0  0  0
  -28.5357  -10.5590   -8.6460 C   0  0  0  0  0  0  0  0  0  0  0  0
  -28.2090  -10.1958  -10.0748 C   0  0  0  0  0  0  0  0  0  0  0  0
  -27.0257   -9.5074  -10.4034 C   0  0  0  0  0  0  0  0  0  0  0  0
  -26.7498   -9.1691  -11.7263 C   0  0  0  0  0  0  0  0  0  0  0  0
  -27.6420   -9.5097  -12.7389 C   0  0  0  0  0  0  0  0  0  0  0  0
  -28.8129  -10.2002  -12.4288 C   0  0  0  0  0  0  0  0  0  0  0  0
  -29.0942  -10.5370  -11.1047 C   0  0  0  0  0  0  0  0  0  0  0  0
 24 25  1  0  0  0
 25 14  1  0  0  0
 14 15  1  0  0  0
 14 19  2  0  0  0
 15 16  2  0  0  0
 16 17  1  0  0  0
 17 18  2  0  0  0
 17 23  1  0  0  0
 18 19  1  0  0  0
 18 20  1  0  0  0
 20 21  1  0  0  0
 21 22  1  0  0  0
 22 23  1  0  0  0
 23  1  1  0  0  0
  1  2  1  0  0  0
  1 10  2  0  0  0
  2  3  2  0  0  0
  3  4  1  0  0  0
  3  5  1  0  0  0
  4 11  1  0  0  0
  4 12  1  0  0  0
  5  6  2  0  0  0
  6  7  1  0  0  0
  6 10  1  0  0  0
  7 26  1  0  0  0
  7  8  2  0  0  0
 26 27  1  0  0  0
 27 28  1  0  0  0
 27 32  2  0  0  0
 28 29  2  0  0  0
 29 30  1  0  0  0
 30 31  2  0  0  0
 31 32  1  0  0  0
  8  9  1  0  0  0
  9 10  1  0  0  0
  9 13  1  0  0  0
M  END
> <minimizedAffinity>
-9.37723

$$$$
