CHEMBL257546


 39 43  0  0  0  0  0  0  0  0999 V2000
  -27.5101   -1.8096   -8.7154 C   0  0  0  0  0  0  0  0  0  0  0  0
  -27.8795   -3.0948   -9.0991 C   0  0  0  0  0  0  0  0  0  0  0  0
  -28.6197   -3.8930   -8.2309 C   0  0  0  0  0  0  0  0  0  0  0  0
  -28.9612   -3.4235   -6.9549 C   0  0  0  0  0  0  0  0  0  0  0  0
  -28.6458   -2.1112   -6.6092 C   0  0  0  0  0  0  0  0  0  0  0  0
  -29.0176   -1.6128   -5.4230 F   0  0  0  0  0  0  0  0  0  0  0  0
  -27.9295   -1.3010   -7.4806 C   0  0  0  0  0  0  0  0  0  0  0  0
  -26.7594   -1.0472   -9.6221 N   0  0  0  0  0  0  0  0  0  0  0  0
  -26.3558   -0.1802   -9.2790 H   0  0  0  0  0  0  0  0  0  0  0  0
  -26.3458   -1.4259  -10.8792 C   0  0  0  0  0  0  0  0  0  0  0  0
  -27.5196   -1.6187  -12.0410 S   0  0  0  0  0  0  0  0  0  0  0  0
  -22.8241   -1.9013  -11.5833 O   0  0  0  0  0  0  0  0  0  0  0  0
  -23.9080   -1.3680  -11.7898 C   0  0  0  0  0  0  0  0  0  0  0  0
  -24.9707   -1.6917  -10.9494 N   0  0  0  0  0  0  0  0  0  0  0  0
  -24.6536   -2.3811  -10.2810 H   0  0  0  0  0  0  0  0  0  0  0  0
  -24.2017   -0.3896  -12.8935 C   0  0  0  0  0  0  0  0  0  0  0  0
  -23.0635    0.4515  -13.4069 C   0  0  0  0  0  0  0  0  0  0  0  0
  -21.9661   -0.1218  -14.0597 C   0  0  0  0  0  0  0  0  0  0  0  0
  -21.0258    0.6900  -14.6909 C   0  0  0  0  0  0  0  0  0  0  0  0
  -21.1741    2.0759  -14.6754 C   0  0  0  0  0  0  0  0  0  0  0  0
  -22.2525    2.6561  -14.0056 C   0  0  0  0  0  0  0  0  0  0  0  0
  -23.1908    1.8477  -13.3725 C   0  0  0  0  0  0  0  0  0  0  0  0
  -29.6307   -4.1673   -6.0117 O   0  0  0  0  0  0  0  0  0  0  0  0
  -29.0652   -5.3377   -5.5559 C   0  0  0  0  0  0  0  0  0  0  0  0
  -28.1982   -5.3980   -4.4622 C   0  0  0  0  0  0  0  0  0  0  0  0
  -27.6121   -6.6020   -4.1351 C   0  0  0  0  0  0  0  0  0  0  0  0
  -27.8627   -7.7699   -4.7471 N   0  0  0  0  0  0  0  0  0  0  0  0
  -28.7938   -7.7307   -5.7353 C   0  0  0  0  0  0  0  0  0  0  0  0
  -29.2542   -8.8706   -6.4453 C   0  0  0  0  0  0  0  0  0  0  0  0
  -30.2254   -8.5723   -7.3794 C   0  0  0  0  0  0  0  0  0  0  0  0
  -30.5077   -6.8836   -7.4525 S   0  0  0  0  0  0  0  0  0  0  0  0
  -29.4056   -6.5568   -6.1681 C   0  0  0  0  0  0  0  0  0  0  0  0
  -30.9479   -9.4708   -8.2727 C   0  0  0  0  0  0  0  0  0  0  0  0
  -32.1736   -9.5083   -8.3537 O   0  0  0  0  0  0  0  0  0  0  0  0
  -30.0915  -10.3010   -9.1057 C   0  0  0  0  0  0  0  0  0  0  0  0
  -29.6044  -11.5821   -8.9146 C   0  0  0  0  0  0  0  0  0  0  0  0
  -28.7678  -11.8736  -10.0202 C   0  0  0  0  0  0  0  0  0  0  0  0
  -28.7801  -10.7524  -10.8147 C   0  0  0  0  0  0  0  0  0  0  0  0
  -29.5822   -9.8000  -10.2775 O   0  0  0  0  0  0  0  0  0  0  0  0
 12 13  2  0  0  0
 13 16  1  0  0  0
 13 14  1  0  0  0
 16 17  1  0  0  0
 17 18  1  0  0  0
 17 22  2  0  0  0
 18 19  2  0  0  0
 19 20  1  0  0  0
 20 21  2  0  0  0
 21 22  1  0  0  0
 14 10  1  0  0  0
 14 15  1  0  0  0
 10 11  2  0  0  0
 10  8  1  0  0  0
  8  1  1  0  0  0
  8  9  1  0  0  0
  1  2  1  0  0  0
  1  7  2  0  0  0
  2  3  2  0  0  0
  3  4  1  0  0  0
  4 23  1  0  0  0
  4  5  2  0  0  0
 23 24  1  0  0  0
 24 25  1  0  0  0
 24 32  2  0  0  0
 25 26  2  0  0  0
 26 27  1  0  0  0
 27 28  2  0  0  0
 28 29  1  0  0  0
 28 32  1  0  0  0
 29 30  2  0  0  0
 30 33  1  0  0  0
 30 31  1  0  0  0
 33 34  2  0  0  0
 33 35  1  0  0  0
 35 36  2  0  0  0
 35 39  1  0  0  0
 36 37  1  0  0  0
 37 38  2  0  0  0
 38 39  1  0  0  0
 31 32  1  0  0  0
  5  6  1  0  0  0
  5  7  1  0  0  0
M  END
> <minimizedAffinity>
-9.86476

$$$$
