CHEMBL3628537


 24 27  0  0  0  0  0  0  0  0999 V2000
  -14.4985    0.4437  -13.5835 C   0  0  0  0  0  0  0  0  0  0  0  0
  -13.6904    1.0273  -12.6873 N   0  0  0  0  0  0  0  0  0  0  0  0
  -12.8613    1.9820  -13.1334 C   0  0  0  0  0  0  0  0  0  0  0  0
  -12.8489    2.3944  -14.4382 C   0  0  0  0  0  0  0  0  0  0  0  0
  -13.5821    1.6300  -15.3363 C   0  0  0  0  0  0  0  0  0  0  0  0
  -14.3998    0.6430  -14.9139 N   0  0  0  0  0  0  0  0  0  0  0  0
  -13.7254    2.1225  -16.7135 C   0  0  0  0  0  0  0  0  0  0  0  0
  -13.3096    1.4108  -17.8423 C   0  0  0  0  0  0  0  0  0  0  0  0
  -13.4359    1.9800  -19.1178 C   0  0  0  0  0  0  0  0  0  0  0  0
  -14.0798    3.2087  -19.2863 C   0  0  0  0  0  0  0  0  0  0  0  0
  -14.4429    3.9565  -18.1719 C   0  0  0  0  0  0  0  0  0  0  0  0
  -14.1318    3.4627  -16.9063 C   0  0  0  0  0  0  0  0  0  0  0  0
  -13.7760    4.6586  -15.5870 S   0  0  0  0  0  0  0  0  0  0  0  0
  -12.3278    3.7210  -14.8917 C   0  0  0  0  0  0  0  0  0  0  0  0
  -15.5640   -0.2641  -13.0298 N   0  0  0  0  0  0  0  0  0  0  0  0
  -16.3328    0.3698  -12.8420 H   0  0  0  0  0  0  0  0  0  0  0  0
  -16.0695   -4.3235  -11.9932 C   0  0  0  0  0  0  0  0  0  0  0  0
  -16.1311   -3.9222  -13.3247 C   0  0  0  0  0  0  0  0  0  0  0  0
  -15.9802   -2.5789  -13.6632 C   0  0  0  0  0  0  0  0  0  0  0  0
  -15.7401   -1.6034  -12.6929 C   0  0  0  0  0  0  0  0  0  0  0  0
  -15.7319   -2.0093  -11.3512 C   0  0  0  0  0  0  0  0  0  0  0  0
  -15.8892   -3.3602  -11.0024 C   0  0  0  0  0  0  0  0  0  0  0  0
  -15.1477   -6.5056  -11.9712 C   0  0  0  0  0  0  0  0  0  0  0  0
  -16.1817   -5.6166  -11.5477 O   0  0  0  0  0  0  0  0  0  0  0  0
 23 24  1  0  0  0
 24 17  1  0  0  0
 17 18  1  0  0  0
 17 22  2  0  0  0
 18 19  2  0  0  0
 19 20  1  0  0  0
 20 15  1  0  0  0
 20 21  2  0  0  0
 15  1  1  0  0  0
 15 16  1  0  0  0
  1  2  1  0  0  0
  1  6  2  0  0  0
  2  3  2  0  0  0
  3  4  1  0  0  0
  4  5  2  0  0  0
  4 14  1  0  0  0
  5  6  1  0  0  0
  5  7  1  0  0  0
  7  8  1  0  0  0
  7 12  2  0  0  0
  8  9  2  0  0  0
  9 10  1  0  0  0
 10 11  2  0  0  0
 11 12  1  0  0  0
 12 13  1  0  0  0
 13 14  1  0  0  0
 21 22  1  0  0  0
M  END
> <minimizedAffinity>
-6.62372

$$$$
