CHEMBL467132


101103  0  0  0  0  0  0  0  0999 V2000
  -12.8767    1.7897  -19.0392 C   0  0  0  0  0  0  0  0  0  0  0  0
  -12.7427    1.5897  -17.8246 O   0  0  0  0  0  0  0  0  0  0  0  0
  -12.8221    3.0997  -19.5486 N   0  0  0  0  0  0  0  0  0  0  0  0
  -11.8676    3.3510  -20.6274 C   0  0  0  0  0  0  0  0  0  0  0  0
  -11.4659    4.7826  -20.8938 C   0  0  0  0  0  0  0  0  0  0  0  0
  -11.2635    5.1541  -22.2489 C   0  0  0  0  0  0  0  0  0  0  0  0
  -11.0046    6.4760  -22.6222 C   0  0  0  0  0  0  0  0  0  0  0  0
  -10.8757    7.3988  -21.6154 C   0  0  0  0  0  0  0  0  0  0  0  0
  -10.9349    7.0310  -20.2900 C   0  0  0  0  0  0  0  0  0  0  0  0
  -11.2591    5.7423  -19.8983 C   0  0  0  0  0  0  0  0  0  0  0  0
  -10.7747    8.1128  -19.4677 O   0  0  0  0  0  0  0  0  0  0  0  0
  -11.0370    9.1640  -20.4213 C   0  0  0  0  0  0  0  0  0  0  0  0
  -10.7544    8.7470  -21.7684 O   0  0  0  0  0  0  0  0  0  0  0  0
  -13.3682    0.5635  -19.9777 C   0  0  0  0  0  0  0  0  0  0  0  0
  -12.8887   -1.8952  -19.4767 C   0  0  0  0  0  0  0  0  0  0  0  0
  -13.5405   -1.8005  -18.4369 O   0  0  0  0  0  0  0  0  0  0  0  0
  -12.7997   -0.8072  -20.3766 N   0  0  0  0  0  0  0  0  0  0  0  0
  -12.1174   -0.8680  -21.7004 C   0  0  0  0  0  0  0  0  0  0  0  0
  -10.7039   -0.2496  -21.8703 C   0  0  0  0  0  0  0  0  0  0  0  0
  -12.2837   -2.2074  -22.4010 C   0  0  0  0  0  0  0  0  0  0  0  0
  -11.1401   -2.9944  -22.5906 C   0  0  0  0  0  0  0  0  0  0  0  0
  -11.2402   -4.3770  -22.6247 C   0  0  0  0  0  0  0  0  0  0  0  0
  -12.4882   -4.9748  -22.4756 C   0  0  0  0  0  0  0  0  0  0  0  0
  -13.6400   -4.1942  -22.4809 C   0  0  0  0  0  0  0  0  0  0  0  0
  -13.5428   -2.8102  -22.5216 C   0  0  0  0  0  0  0  0  0  0  0  0
  -12.0186   -3.2001  -19.7388 C   0  0  0  0  0  0  0  0  0  0  0  0
  -11.4459   -5.4489  -18.5271 C   0  0  0  0  0  0  0  0  0  0  0  0
  -10.6994   -6.0668  -17.7563 O   0  0  0  0  0  0  0  0  0  0  0  0
  -11.3445   -4.0513  -18.6881 N   0  0  0  0  0  0  0  0  0  0  0  0
  -12.5181   -6.2196  -19.3132 C   0  0  0  0  0  0  0  0  0  0  0  0
  -12.9754   -7.5148  -18.7638 N   0  0  0  0  0  0  0  0  0  0  0  0
  -12.4231   -8.7732  -19.0892 C   0  0  0  0  0  0  0  0  0  0  0  0
  -12.6436   -9.7938  -18.4375 O   0  0  0  0  0  0  0  0  0  0  0  0
  -11.6341   -8.8668  -20.3918 C   0  0  0  0  0  0  0  0  0  0  0  0
  -11.5622  -10.2672  -20.8486 N   0  0  0  0  0  0  0  0  0  0  0  0
  -11.2517  -10.8157  -20.0367 H   0  0  0  0  0  0  0  0  0  0  0  0
  -12.7649  -10.8881  -21.4068 C   0  0  0  0  0  0  0  0  0  0  0  0
  -13.2845  -12.2572  -20.9028 C   0  0  0  0  0  0  0  0  0  0  0  0
  -14.7441  -12.4199  -20.4487 C   0  0  0  0  0  0  0  0  0  0  0  0
  -15.2498  -11.2985  -19.5227 C   0  0  0  0  0  0  0  0  0  0  0  0
  -15.1438  -11.5249  -18.0761 N   0  0  0  0  0  0  0  0  0  0  0  0
  -14.8147  -12.4664  -17.8868 H   0  0  0  0  0  0  0  0  0  0  0  0
  -14.3900  -10.9328  -17.7096 H   0  0  0  0  0  0  0  0  0  0  0  0
  -13.8486   -7.5518  -17.5828 C   0  0  0  0  0  0  0  0  0  0  0  0
  -11.7440   -7.7557  -16.1515 C   0  0  0  0  0  0  0  0  0  0  0  0
  -13.2019   -8.1921  -16.3321 C   0  0  0  0  0  0  0  0  0  0  0  0
  -14.0027   -7.7902  -15.0898 C   0  0  0  0  0  0  0  0  0  0  0  0
  -10.7181   -3.3496  -17.5402 C   0  0  0  0  0  0  0  0  0  0  0  0
  -10.9085   -4.0640  -16.1879 C   0  0  0  0  0  0  0  0  0  0  0  0
  -12.3906   -4.2278  -15.8276 C   0  0  0  0  0  0  0  0  0  0  0  0
  -12.5502   -4.5620  -14.3430 C   0  0  0  0  0  0  0  0  0  0  0  0
  -11.3333   -5.1575  -13.8109 N   0  0  0  0  0  0  0  0  0  0  0  0
  -11.1181   -6.0194  -14.3111 H   0  0  0  0  0  0  0  0  0  0  0  0
  -11.4815   -5.4261  -12.8381 H   0  0  0  0  0  0  0  0  0  0  0  0
  -13.0437    4.2574  -18.6048 C   0  0  0  0  0  0  0  0  0  0  0  0
  -12.5639    4.0924  -17.1337 C   0  0  0  0  0  0  0  0  0  0  0  0
  -11.3573    3.9841  -16.9014 O   0  0  0  0  0  0  0  0  0  0  0  0
  -13.5230    4.1503  -16.0807 N   0  0  0  0  0  0  0  0  0  0  0  0
  -12.9534    4.2974  -14.7174 C   0  0  0  0  0  0  0  0  0  0  0  0
  -12.1601    3.0597  -14.2607 C   0  0  0  0  0  0  0  0  0  0  0  0
  -10.7099    3.3609  -13.8722 C   0  0  0  0  0  0  0  0  0  0  0  0
  -10.7077    4.4337  -12.7796 C   0  0  0  0  0  0  0  0  0  0  0  0
  -10.8232    5.7748  -13.3336 N   0  0  0  0  0  0  0  0  0  0  0  0
  -10.0387    5.9588  -13.9565 H   0  0  0  0  0  0  0  0  0  0  0  0
  -10.7471    6.4510  -12.5737 H   0  0  0  0  0  0  0  0  0  0  0  0
  -14.8086    3.4000  -16.2247 C   0  0  0  0  0  0  0  0  0  0  0  0
  -16.2079    4.0294  -16.0483 C   0  0  0  0  0  0  0  0  0  0  0  0
  -16.4168    5.2244  -16.2159 O   0  0  0  0  0  0  0  0  0  0  0  0
  -17.3144    3.1583  -15.7824 N   0  0  0  0  0  0  0  0  0  0  0  0
  -18.6349    3.7777  -16.0586 C   0  0  0  0  0  0  0  0  0  0  0  0
  -19.4581    4.1235  -14.7666 C   0  0  0  0  0  0  0  0  0  0  0  0
  -20.8301    3.4570  -14.7795 C   0  0  0  0  0  0  0  0  0  0  0  0
  -18.7129    3.7436  -13.4768 C   0  0  0  0  0  0  0  0  0  0  0  0
  -17.2211    1.6373  -15.4418 C   0  0  0  0  0  0  0  0  0  0  0  0
  -18.5116    0.7552  -15.1231 C   0  0  0  0  0  0  0  0  0  0  0  0
  -19.6090    1.3348  -15.1547 O   0  0  0  0  0  0  0  0  0  0  0  0
  -18.4874   -0.6875  -15.0047 N   0  0  0  0  0  0  0  0  0  0  0  0
  -19.7276   -1.3313  -15.4522 C   0  0  0  0  0  0  0  0  0  0  0  0
  -20.9191   -0.3836  -15.2481 C   0  0  0  0  0  0  0  0  0  0  0  0
  -21.9844   -0.9943  -14.3398 C   0  0  0  0  0  0  0  0  0  0  0  0
  -23.1062    0.0055  -14.0591 C   0  0  0  0  0  0  0  0  0  0  0  0
  -22.6576    1.0082  -13.1030 N   0  0  0  0  0  0  0  0  0  0  0  0
  -22.3542    0.5613  -12.2394 H   0  0  0  0  0  0  0  0  0  0  0  0
  -23.4374    1.6158  -12.8540 H   0  0  0  0  0  0  0  0  0  0  0  0
  -17.4048   -1.7092  -14.6116 C   0  0  0  0  0  0  0  0  0  0  0  0
  -16.0514   -1.2175  -13.8311 C   0  0  0  0  0  0  0  0  0  0  0  0
  -16.0407    0.0004  -13.5632 O   0  0  0  0  0  0  0  0  0  0  0  0
  -14.8424   -1.9630  -13.5487 N   0  0  0  0  0  0  0  0  0  0  0  0
  -13.6881   -1.0794  -13.2536 C   0  0  0  0  0  0  0  0  0  0  0  0
  -12.6279   -0.7878  -14.3468 C   0  0  0  0  0  0  0  0  0  0  0  0
  -13.0353   -0.1906  -15.4920 N   0  0  0  0  0  0  0  0  0  0  0  0
  -11.4688   -1.1891  -14.2462 O   0  0  0  0  0  0  0  0  0  0  0  0
  -14.0022   -0.3153  -15.7783 H   0  0  0  0  0  0  0  0  0  0  0  0
  -12.3587   -0.2272  -16.2503 H   0  0  0  0  0  0  0  0  0  0  0  0
  -14.6597   -3.3372  -12.9337 C   0  0  0  0  0  0  0  0  0  0  0  0
  -15.8733   -4.3753  -12.7978 C   0  0  0  0  0  0  0  0  0  0  0  0
  -15.8920   -5.7985  -12.1324 C   0  0  0  0  0  0  0  0  0  0  0  0
  -14.6378   -6.4751  -11.5485 C   0  0  0  0  0  0  0  0  0  0  0  0
  -14.2403   -6.0077  -10.2234 N   0  0  0  0  0  0  0  0  0  0  0  0
  -13.2173   -6.0001  -10.1852 H   0  0  0  0  0  0  0  0  0  0  0  0
  -14.4825   -6.7263   -9.5320 H   0  0  0  0  0  0  0  0  0  0  0  0
 45 46  1  0  0  0
 46 47  1  0  0  0
 46 44  1  0  0  0
 44 31  1  0  0  0
 31 30  1  0  0  0
 31 32  1  0  0  0
 30 27  1  0  0  0
 27 28  2  0  0  0
 27 29  1  0  0  0
 29 48  1  0  0  0
 29 26  1  0  0  0
 48 49  1  0  0  0
 49 50  1  0  0  0
 50 51  1  0  0  0
 51 52  1  0  0  0
 52 53  1  0  0  0
 52 54  1  0  0  0
 26 15  1  0  0  0
 15 16  2  0  0  0
 15 17  1  0  0  0
 17 14  1  0  0  0
 17 18  1  0  0  0
 14  1  1  0  0  0
  1  2  2  0  0  0
  1  3  1  0  0  0
  3 55  1  0  0  0
  3  4  1  0  0  0
 55 56  1  0  0  0
 56 57  2  0  0  0
 56 58  1  0  0  0
 58 59  1  0  0  0
 58 66  1  0  0  0
 59 60  1  0  0  0
 60 61  1  0  0  0
 61 62  1  0  0  0
 62 63  1  0  0  0
 63 64  1  0  0  0
 63 65  1  0  0  0
 66 67  1  0  0  0
 67 68  2  0  0  0
 67 69  1  0  0  0
 69 74  1  0  0  0
 69 70  1  0  0  0
 74 75  1  0  0  0
 75 76  2  0  0  0
 75 77  1  0  0  0
 77 78  1  0  0  0
 77 85  1  0  0  0
 78 79  1  0  0  0
 79 80  1  0  0  0
 80 81  1  0  0  0
 81 82  1  0  0  0
 82 83  1  0  0  0
 82 84  1  0  0  0
 85 86  1  0  0  0
 86 87  2  0  0  0
 86 88  1  0  0  0
 88 95  1  0  0  0
 88 89  1  0  0  0
 95 96  1  0  0  0
 96 97  1  0  0  0
 97 98  1  0  0  0
 98 99  1  0  0  0
 99100  1  0  0  0
 99101  1  0  0  0
 89 90  1  0  0  0
 90 91  1  0  0  0
 90 92  2  0  0  0
 91 93  1  0  0  0
 91 94  1  0  0  0
 70 71  1  0  0  0
 71 72  1  0  0  0
 71 73  1  0  0  0
  4  5  1  0  0  0
  5  6  1  0  0  0
  5 10  2  0  0  0
  6  7  2  0  0  0
  7  8  1  0  0  0
  8  9  2  0  0  0
  8 13  1  0  0  0
  9 10  1  0  0  0
  9 11  1  0  0  0
 11 12  1  0  0  0
 12 13  1  0  0  0
 18 19  1  0  0  0
 18 20  1  0  0  0
 20 21  1  0  0  0
 20 25  2  0  0  0
 21 22  2  0  0  0
 22 23  1  0  0  0
 23 24  2  0  0  0
 24 25  1  0  0  0
 32 33  2  0  0  0
 32 34  1  0  0  0
 34 35  1  0  0  0
 35 37  1  0  0  0
 35 36  1  0  0  0
 37 38  1  0  0  0
 38 39  1  0  0  0
 39 40  1  0  0  0
 40 41  1  0  0  0
 41 42  1  0  0  0
 41 43  1  0  0  0
M  END
> <minimizedAffinity>
-1.75857

$$$$
