CHEMBL461991


 32 36  0  0  0  0  0  0  0  0999 V2000
  -29.7965   -2.7311   -5.2463 N   0  0  0  0  0  0  0  0  0  0  0  0
  -30.5814   -2.0984   -5.1226 H   0  0  0  0  0  0  0  0  0  0  0  0
  -29.3052   -6.1425   -3.8352 C   0  0  0  0  0  0  0  0  0  0  0  0
  -29.0446   -4.9062   -4.4401 C   0  0  0  0  0  0  0  0  0  0  0  0
  -30.0811   -3.9864   -4.6465 C   0  0  0  0  0  0  0  0  0  0  0  0
  -31.3531   -4.3194   -4.1930 C   0  0  0  0  0  0  0  0  0  0  0  0
  -31.5343   -5.5471   -3.5892 C   0  0  0  0  0  0  0  0  0  0  0  0
  -30.5490   -6.4492   -3.4111 N   0  0  0  0  0  0  0  0  0  0  0  0
  -28.2664   -7.0887   -3.7511 N   0  0  0  0  0  0  0  0  0  0  0  0
  -27.6693   -6.9782   -2.9449 H   0  0  0  0  0  0  0  0  0  0  0  0
  -27.8268  -10.0885   -7.6917 C   0  0  0  0  0  0  0  0  0  0  0  0
  -27.7107   -9.3545   -6.4151 C   0  0  0  0  0  0  0  0  0  0  0  0
  -28.5454   -8.4511   -5.7976 C   0  0  0  0  0  0  0  0  0  0  0  0
  -27.8703   -8.0366   -4.6260 C   0  0  0  0  0  0  0  0  0  0  0  0
  -26.7161   -8.6997   -4.4841 N   0  0  0  0  0  0  0  0  0  0  0  0
  -26.6305   -9.4606   -5.5879 N   0  0  0  0  0  0  0  0  0  0  0  0
  -25.7961  -10.0226   -5.7178 H   0  0  0  0  0  0  0  0  0  0  0  0
  -29.0950   -2.4934   -6.4523 C   0  0  0  0  0  0  0  0  0  0  0  0
  -28.3472   -1.3228   -6.6351 C   0  0  0  0  0  0  0  0  0  0  0  0
  -27.6259   -1.0920   -7.8262 C   0  0  0  0  0  0  0  0  0  0  0  0
  -27.6080   -2.0420   -8.8602 C   0  0  0  0  0  0  0  0  0  0  0  0
  -28.3356   -3.2238   -8.6477 C   0  0  0  0  0  0  0  0  0  0  0  0
  -29.0564   -3.4501   -7.4670 C   0  0  0  0  0  0  0  0  0  0  0  0
  -26.8341   -1.8019  -10.1106 C   0  0  0  0  0  0  0  0  0  0  0  0
  -25.5413   -1.5328  -10.1847 N   0  0  0  0  0  0  0  0  0  0  0  0
  -25.1457   -1.3888  -11.5166 C   0  0  0  0  0  0  0  0  0  0  0  0
  -23.8442   -1.1110  -11.9938 C   0  0  0  0  0  0  0  0  0  0  0  0
  -23.6104   -1.0013  -13.3740 C   0  0  0  0  0  0  0  0  0  0  0  0
  -24.6489   -1.1692  -14.2837 C   0  0  0  0  0  0  0  0  0  0  0  0
  -25.9416   -1.4457  -13.8394 C   0  0  0  0  0  0  0  0  0  0  0  0
  -26.1621   -1.5483  -12.4566 C   0  0  0  0  0  0  0  0  0  0  0  0
  -27.6296   -1.8671  -11.6428 S   0  0  0  0  0  0  0  0  0  0  0  0
 11 12  1  0  0  0
 12 13  2  0  0  0
 12 16  1  0  0  0
 13 14  1  0  0  0
 14  9  1  0  0  0
 14 15  2  0  0  0
  9  3  1  0  0  0
  9 10  1  0  0  0
  3  4  1  0  0  0
  3  8  2  0  0  0
  4  5  2  0  0  0
  5  1  1  0  0  0
  5  6  1  0  0  0
  1 18  1  0  0  0
  1  2  1  0  0  0
 18 19  1  0  0  0
 18 23  2  0  0  0
 19 20  2  0  0  0
 20 21  1  0  0  0
 21 24  1  0  0  0
 21 22  2  0  0  0
 24 25  2  0  0  0
 24 32  1  0  0  0
 25 26  1  0  0  0
 26 27  1  0  0  0
 26 31  2  0  0  0
 27 28  2  0  0  0
 28 29  1  0  0  0
 29 30  2  0  0  0
 30 31  1  0  0  0
 31 32  1  0  0  0
 22 23  1  0  0  0
  6  7  2  0  0  0
  7  8  1  0  0  0
 15 16  1  0  0  0
 16 17  1  0  0  0
M  END
> <minimizedAffinity>
-10.02677

$$$$
