CHEMBL201512


 26 28  0  0  0  0  0  0  0  0999 V2000
  -31.0642   -8.2855   -7.3308 C   0  0  0  0  0  0  0  0  0  0  0  0
  -30.3243   -9.2569   -7.8951 C   0  0  0  0  0  0  0  0  0  0  0  0
  -31.2784  -10.3192   -8.3041 C   0  0  0  0  0  0  0  0  0  0  0  0
  -31.0150  -11.3671   -8.8701 O   0  0  0  0  0  0  0  0  0  0  0  0
  -32.5179   -9.9115   -7.9553 N   0  0  0  0  0  0  0  0  0  0  0  0
  -32.4785   -8.6944   -7.3816 C   0  0  0  0  0  0  0  0  0  0  0  0
  -33.4283   -8.0436   -6.9900 O   0  0  0  0  0  0  0  0  0  0  0  0
  -33.3594  -10.4315   -8.1383 H   0  0  0  0  0  0  0  0  0  0  0  0
  -30.4295   -5.5457   -4.8456 C   0  0  0  0  0  0  0  0  0  0  0  0
  -30.6888   -6.8084   -5.3904 C   0  0  0  0  0  0  0  0  0  0  0  0
  -30.5825   -7.0290   -6.7700 C   0  0  0  0  0  0  0  0  0  0  0  0
  -30.1724   -5.9925   -7.6108 C   0  0  0  0  0  0  0  0  0  0  0  0
  -29.9003   -4.7291   -7.0838 C   0  0  0  0  0  0  0  0  0  0  0  0
  -30.0013   -4.5043   -5.6924 C   0  0  0  0  0  0  0  0  0  0  0  0
  -32.0596   -5.1410   -3.1416 C   0  0  0  0  0  0  0  0  0  0  0  0
  -30.6971   -5.2408   -3.5333 O   0  0  0  0  0  0  0  0  0  0  0  0
  -29.5088   -3.6686   -7.8647 O   0  0  0  0  0  0  0  0  0  0  0  0
  -28.1477   -3.6944   -8.2915 C   0  0  0  0  0  0  0  0  0  0  0  0
  -29.7436   -3.2131   -5.2865 O   0  0  0  0  0  0  0  0  0  0  0  0
  -28.4872   -2.9869   -4.6579 C   0  0  0  0  0  0  0  0  0  0  0  0
  -28.9148   -9.3337   -8.1052 C   0  0  0  0  0  0  0  0  0  0  0  0
  -28.2172   -9.1833   -9.3333 C   0  0  0  0  0  0  0  0  0  0  0  0
  -26.8728   -9.3318   -9.0750 C   0  0  0  0  0  0  0  0  0  0  0  0
  -26.7218   -9.5633   -7.7351 N   0  0  0  0  0  0  0  0  0  0  0  0
  -27.9557   -9.5608   -7.1373 C   0  0  0  0  0  0  0  0  0  0  0  0
  -25.8421   -9.7064   -7.2554 H   0  0  0  0  0  0  0  0  0  0  0  0
 15 16  1  0  0  0
 16  9  1  0  0  0
  9 10  1  0  0  0
  9 14  2  0  0  0
 10 11  2  0  0  0
 11  1  1  0  0  0
 11 12  1  0  0  0
  1  2  2  0  0  0
  1  6  1  0  0  0
  2 21  1  0  0  0
  2  3  1  0  0  0
 21 22  1  0  0  0
 21 25  2  0  0  0
 22 23  2  0  0  0
 23 24  1  0  0  0
 24 25  1  0  0  0
 24 26  1  0  0  0
  3  4  2  0  0  0
  3  5  1  0  0  0
  5  6  1  0  0  0
  5  8  1  0  0  0
  6  7  2  0  0  0
 12 13  2  0  0  0
 13 17  1  0  0  0
 13 14  1  0  0  0
 17 18  1  0  0  0
 14 19  1  0  0  0
 19 20  1  0  0  0
M  END
> <minimizedAffinity>
-6.99907

$$$$
