CHEMBL2018754


 32 34  0  0  0  0  0  0  0  0999 V2000
  -29.3343   -3.4412   -6.3157 C   0  0  0  0  0  0  0  0  0  0  0  0
  -29.6871   -4.2923   -7.3679 C   0  0  0  0  0  0  0  0  0  0  0  0
  -30.0058   -5.6382   -7.1360 C   0  0  0  0  0  0  0  0  0  0  0  0
  -29.9545   -6.1800   -5.8490 C   0  0  0  0  0  0  0  0  0  0  0  0
  -29.6099   -5.3253   -4.7933 C   0  0  0  0  0  0  0  0  0  0  0  0
  -29.2922   -3.9800   -5.0214 C   0  0  0  0  0  0  0  0  0  0  0  0
  -28.8592   -3.0023   -3.6586 Cl  0  0  0  0  0  0  0  0  0  0  0  0
  -27.9467   -1.6055   -7.2695 C   0  0  0  0  0  0  0  0  0  0  0  0
  -27.2611   -2.2224   -8.0717 O   0  0  0  0  0  0  0  0  0  0  0  0
  -28.9833   -2.0858   -6.5188 N   0  0  0  0  0  0  0  0  0  0  0  0
  -29.4871   -1.3926   -5.9774 H   0  0  0  0  0  0  0  0  0  0  0  0
  -27.7000   -0.3150   -6.9154 O   0  0  0  0  0  0  0  0  0  0  0  0
  -27.6815   -0.1228   -5.4948 C   0  0  0  0  0  0  0  0  0  0  0  0
  -28.4583    1.1052   -5.0305 C   0  0  0  0  0  0  0  0  0  0  0  0
  -30.5934    1.5761   -6.3350 C   0  0  0  0  0  0  0  0  0  0  0  0
  -29.9584    0.8296   -5.1767 C   0  0  0  0  0  0  0  0  0  0  0  0
  -30.3483   -7.5161   -5.6270 N   0  0  0  0  0  0  0  0  0  0  0  0
  -30.7285   -7.6901   -4.7037 H   0  0  0  0  0  0  0  0  0  0  0  0
  -30.9585   -8.3745   -6.5763 C   0  0  0  0  0  0  0  0  0  0  0  0
  -32.2951   -8.3281   -6.7095 N   0  0  0  0  0  0  0  0  0  0  0  0
  -32.8229   -9.0911   -7.6646 C   0  0  0  0  0  0  0  0  0  0  0  0
  -32.1423   -9.8688   -8.5189 N   0  0  0  0  0  0  0  0  0  0  0  0
  -30.8164   -9.9073   -8.3906 C   0  0  0  0  0  0  0  0  0  0  0  0
  -30.0349  -10.5893   -9.3158 C   0  0  0  0  0  0  0  0  0  0  0  0
  -28.6174  -10.6248   -9.2817 C   0  0  0  0  0  0  0  0  0  0  0  0
  -27.9615  -10.0007   -8.2220 C   0  0  0  0  0  0  0  0  0  0  0  0
  -28.7464   -9.3061   -7.2841 C   0  0  0  0  0  0  0  0  0  0  0  0
  -30.1541   -9.2071   -7.3791 C   0  0  0  0  0  0  0  0  0  0  0  0
  -28.0522  -11.0479  -10.4573 O   0  0  0  0  0  0  0  0  0  0  0  0
  -27.4746  -10.0674  -11.3066 C   0  0  0  0  0  0  0  0  0  0  0  0
  -26.6497   -9.8476   -7.8967 O   0  0  0  0  0  0  0  0  0  0  0  0
  -25.7706  -10.9298   -7.7082 C   0  0  0  0  0  0  0  0  0  0  0  0
 15 16  1  0  0  0
 16 14  1  0  0  0
 14 13  1  0  0  0
 13 12  1  0  0  0
 12  8  1  0  0  0
  8  9  2  0  0  0
  8 10  1  0  0  0
 10  1  1  0  0  0
 10 11  1  0  0  0
  1  2  1  0  0  0
  1  6  2  0  0  0
  2  3  2  0  0  0
  3  4  1  0  0  0
  4 17  1  0  0  0
  4  5  2  0  0  0
 17 19  1  0  0  0
 17 18  1  0  0  0
 19 20  1  0  0  0
 19 28  2  0  0  0
 20 21  2  0  0  0
 21 22  1  0  0  0
 22 23  2  0  0  0
 23 24  1  0  0  0
 23 28  1  0  0  0
 24 25  2  0  0  0
 25 29  1  0  0  0
 25 26  1  0  0  0
 29 30  1  0  0  0
 26 31  1  0  0  0
 26 27  2  0  0  0
 31 32  1  0  0  0
 27 28  1  0  0  0
  5  6  1  0  0  0
  6  7  1  0  0  0
M  END
> <minimizedAffinity>
-8.07003

$$$$
