CHEMBL1682556


 26 30  0  0  0  0  0  0  0  0999 V2000
  -32.5466   -9.0894   -7.4424 C   0  0  0  0  0  0  0  0  0  0  0  0
  -31.6808   -8.1251   -7.1000 C   0  0  0  0  0  0  0  0  0  0  0  0
  -30.4874   -8.6370   -6.6155 N   0  0  0  0  0  0  0  0  0  0  0  0
  -29.2769   -8.1626   -6.1450 C   0  0  0  0  0  0  0  0  0  0  0  0
  -28.5158   -9.3388   -5.9907 C   0  0  0  0  0  0  0  0  0  0  0  0
  -29.2621  -10.4748   -6.2823 N   0  0  0  0  0  0  0  0  0  0  0  0
  -30.4204   -9.9959   -6.6288 C   0  0  0  0  0  0  0  0  0  0  0  0
  -31.8932  -10.7122   -7.2109 S   0  0  0  0  0  0  0  0  0  0  0  0
  -27.1015   -9.4822   -5.6395 C   0  0  0  0  0  0  0  0  0  0  0  0
  -26.6542   -8.9269   -4.4238 C   0  0  0  0  0  0  0  0  0  0  0  0
  -25.3359   -9.0612   -3.9692 C   0  0  0  0  0  0  0  0  0  0  0  0
  -24.4712   -9.7961   -4.7786 C   0  0  0  0  0  0  0  0  0  0  0  0
  -23.1636  -10.1698   -4.6087 N   0  0  0  0  0  0  0  0  0  0  0  0
  -22.6594  -10.8794   -5.6342 N   0  0  0  0  0  0  0  0  0  0  0  0
  -23.6843  -10.9581   -6.4877 C   0  0  0  0  0  0  0  0  0  0  0  0
  -24.8509  -10.3197   -6.0088 C   0  0  0  0  0  0  0  0  0  0  0  0
  -26.1722  -10.1351   -6.4679 C   0  0  0  0  0  0  0  0  0  0  0  0
  -22.5674   -9.9881   -3.8091 H   0  0  0  0  0  0  0  0  0  0  0  0
  -28.9842   -6.8330   -6.0203 N   0  0  0  0  0  0  0  0  0  0  0  0
  -28.3523   -6.3937   -6.6870 H   0  0  0  0  0  0  0  0  0  0  0  0
  -29.2362   -6.0424   -4.8090 C   0  0  0  0  0  0  0  0  0  0  0  0
  -30.5789   -5.3126   -4.9736 C   0  0  0  0  0  0  0  0  0  0  0  0
  -30.8360   -4.2935   -3.8688 C   0  0  0  0  0  0  0  0  0  0  0  0
  -29.6729   -3.3181   -3.7490 C   0  0  0  0  0  0  0  0  0  0  0  0
  -28.3736   -4.0600   -3.4594 C   0  0  0  0  0  0  0  0  0  0  0  0
  -28.0577   -5.0990   -4.5359 C   0  0  0  0  0  0  0  0  0  0  0  0
  1  2  2  0  0  0
  1  8  1  0  0  0
  2  3  1  0  0  0
  3  4  1  0  0  0
  3  7  1  0  0  0
  4 19  1  0  0  0
  4  5  2  0  0  0
 19 21  1  0  0  0
 19 20  1  0  0  0
 21 22  1  0  0  0
 21 26  1  0  0  0
 22 23  1  0  0  0
 23 24  1  0  0  0
 24 25  1  0  0  0
 25 26  1  0  0  0
  5  9  1  0  0  0
  5  6  1  0  0  0
  9 10  1  0  0  0
  9 17  2  0  0  0
 10 11  2  0  0  0
 11 12  1  0  0  0
 12 13  1  0  0  0
 12 16  2  0  0  0
 13 14  1  0  0  0
 13 18  1  0  0  0
 14 15  2  0  0  0
 15 16  1  0  0  0
 16 17  1  0  0  0
  6  7  2  0  0  0
  7  8  1  0  0  0
M  END
> <minimizedAffinity>
-7.45886

$$$$
