CHEMBL375670


 32 35  0  0  0  0  0  0  0  0999 V2000
  -29.4632   -8.7763   -7.0989 C   0  0  0  0  0  0  0  0  0  0  0  0
  -28.6155   -8.3897   -6.0618 C   0  0  0  0  0  0  0  0  0  0  0  0
  -28.7689   -7.1714   -5.3993 C   0  0  0  0  0  0  0  0  0  0  0  0
  -29.8497   -6.3309   -5.6653 C   0  0  0  0  0  0  0  0  0  0  0  0
  -30.7784   -6.7488   -6.6219 C   0  0  0  0  0  0  0  0  0  0  0  0
  -30.5745   -7.9456   -7.3400 C   0  0  0  0  0  0  0  0  0  0  0  0
  -27.1400   -7.8762   -9.4257 N   0  0  0  0  0  0  0  0  0  0  0  0
  -27.3587   -9.1784   -9.6509 C   0  0  0  0  0  0  0  0  0  0  0  0
  -26.6720   -9.7962  -10.6079 N   0  0  0  0  0  0  0  0  0  0  0  0
  -27.1247  -11.0471  -10.5673 N   0  0  0  0  0  0  0  0  0  0  0  0
  -28.0748  -11.2754   -9.6138 C   0  0  0  0  0  0  0  0  0  0  0  0
  -28.7534  -12.4575   -9.2915 C   0  0  0  0  0  0  0  0  0  0  0  0
  -29.6628  -12.4011   -8.2448 C   0  0  0  0  0  0  0  0  0  0  0  0
  -29.8800  -11.2104   -7.5512 C   0  0  0  0  0  0  0  0  0  0  0  0
  -29.2059  -10.0082   -7.8732 C   0  0  0  0  0  0  0  0  0  0  0  0
  -28.2655  -10.0557   -8.9559 C   0  0  0  0  0  0  0  0  0  0  0  0
  -26.5118   -7.3939  -10.0577 H   0  0  0  0  0  0  0  0  0  0  0  0
  -27.8090   -7.2803   -8.9620 H   0  0  0  0  0  0  0  0  0  0  0  0
  -26.7318  -11.7113  -11.2252 H   0  0  0  0  0  0  0  0  0  0  0  0
  -30.0560   -5.1107   -4.9761 N   0  0  0  0  0  0  0  0  0  0  0  0
  -29.6593   -3.8628   -5.4308 C   0  0  0  0  0  0  0  0  0  0  0  0
  -29.1974   -3.6375   -6.5497 O   0  0  0  0  0  0  0  0  0  0  0  0
  -29.7878   -2.8757   -4.4691 N   0  0  0  0  0  0  0  0  0  0  0  0
  -30.6560   -5.1293   -4.1645 H   0  0  0  0  0  0  0  0  0  0  0  0
  -29.6291   -3.1944   -3.5217 H   0  0  0  0  0  0  0  0  0  0  0  0
  -29.3664   -1.5527   -4.7638 C   0  0  0  0  0  0  0  0  0  0  0  0
  -28.0433   -1.1899   -4.5039 C   0  0  0  0  0  0  0  0  0  0  0  0
  -27.5772    0.0734   -4.8809 C   0  0  0  0  0  0  0  0  0  0  0  0
  -28.4425    0.9923   -5.4770 C   0  0  0  0  0  0  0  0  0  0  0  0
  -29.7714    0.6416   -5.7036 C   0  0  0  0  0  0  0  0  0  0  0  0
  -30.8403    1.7776   -6.4310 Cl  0  0  0  0  0  0  0  0  0  0  0  0
  -30.2349   -0.6260   -5.3562 C   0  0  0  0  0  0  0  0  0  0  0  0
  7  8  1  0  0  0
  7 17  1  0  0  0
  7 18  1  0  0  0
  8  9  2  0  0  0
  8 16  1  0  0  0
  9 10  1  0  0  0
 10 11  1  0  0  0
 10 19  1  0  0  0
 11 12  1  0  0  0
 11 16  2  0  0  0
 12 13  2  0  0  0
 13 14  1  0  0  0
 14 15  2  0  0  0
 15  1  1  0  0  0
 15 16  1  0  0  0
  1  2  1  0  0  0
  1  6  2  0  0  0
  2  3  2  0  0  0
  3  4  1  0  0  0
  4 20  1  0  0  0
  4  5  2  0  0  0
 20 21  1  0  0  0
 20 24  1  0  0  0
 21 22  2  0  0  0
 21 23  1  0  0  0
 23 26  1  0  0  0
 23 25  1  0  0  0
 26 27  1  0  0  0
 26 32  2  0  0  0
 27 28  2  0  0  0
 28 29  1  0  0  0
 29 30  2  0  0  0
 30 31  1  0  0  0
 30 32  1  0  0  0
  5  6  1  0  0  0
M  END
> <minimizedAffinity>
-9.24099

$$$$
