CHEMBL3656123


 48 52  0  0  0  0  0  0  0  0999 V2000
  -30.4925  -11.1619   -8.5756 C   0  0  0  0  0  0  0  0  0  0  0  0
  -30.9481  -10.2727   -7.6093 C   0  0  0  0  0  0  0  0  0  0  0  0
  -32.3136  -10.2006   -7.3505 C   0  0  0  0  0  0  0  0  0  0  0  0
  -33.1615  -11.1107   -7.9691 C   0  0  0  0  0  0  0  0  0  0  0  0
  -32.6127  -11.9931   -8.8898 C   0  0  0  0  0  0  0  0  0  0  0  0
  -31.3038  -12.0159   -9.2389 N   0  0  0  0  0  0  0  0  0  0  0  0
  -26.7908  -11.1676   -8.9860 C   0  0  0  0  0  0  0  0  0  0  0  0
  -27.2600  -11.1507  -10.2884 C   0  0  0  0  0  0  0  0  0  0  0  0
  -28.6383  -11.2039  -10.2544 N   0  0  0  0  0  0  0  0  0  0  0  0
  -29.0835  -11.1949   -8.9518 C   0  0  0  0  0  0  0  0  0  0  0  0
  -27.9478  -11.1934   -8.1593 C   0  0  0  0  0  0  0  0  0  0  0  0
  -29.2577  -11.2236  -11.0561 H   0  0  0  0  0  0  0  0  0  0  0  0
  -25.1722  -10.4300   -7.3361 N   0  0  0  0  0  0  0  0  0  0  0  0
  -25.4280  -11.1780   -8.4657 C   0  0  0  0  0  0  0  0  0  0  0  0
  -24.5481  -11.8387   -9.0168 O   0  0  0  0  0  0  0  0  0  0  0  0
  -25.9400  -10.1001   -6.7646 H   0  0  0  0  0  0  0  0  0  0  0  0
  -23.8444  -10.4956   -6.7612 C   0  0  0  0  0  0  0  0  0  0  0  0
  -23.7695  -11.1771   -5.3802 C   0  0  0  0  0  0  0  0  0  0  0  0
  -21.3958  -11.1259   -4.6395 C   0  0  0  0  0  0  0  0  0  0  0  0
  -21.3863  -12.4266   -3.8521 C   0  0  0  0  0  0  0  0  0  0  0  0
  -22.1511  -12.0469   -2.6015 C   0  0  0  0  0  0  0  0  0  0  0  0
  -23.0896  -10.9223   -3.0365 C   0  0  0  0  0  0  0  0  0  0  0  0
  -22.7831  -10.5861   -4.4470 N   0  0  0  0  0  0  0  0  0  0  0  0
  -20.9083  -11.2785   -6.0770 C   0  0  0  0  0  0  0  0  0  0  0  0
  -20.1007  -10.5327   -6.6211 O   0  0  0  0  0  0  0  0  0  0  0  0
  -21.3913  -12.3512   -8.1163 C   0  0  0  0  0  0  0  0  0  0  0  0
  -21.5668  -12.2987   -6.7012 O   0  0  0  0  0  0  0  0  0  0  0  0
  -32.8841   -9.2912   -6.4795 O   0  0  0  0  0  0  0  0  0  0  0  0
  -32.1183   -8.2379   -6.0194 C   0  0  0  0  0  0  0  0  0  0  0  0
  -32.4503   -6.9030   -6.2306 C   0  0  0  0  0  0  0  0  0  0  0  0
  -31.5708   -5.8918   -5.8456 C   0  0  0  0  0  0  0  0  0  0  0  0
  -30.3800   -6.1804   -5.1715 C   0  0  0  0  0  0  0  0  0  0  0  0
  -30.1046   -7.5169   -4.8636 C   0  0  0  0  0  0  0  0  0  0  0  0
  -30.9702   -8.5433   -5.2892 C   0  0  0  0  0  0  0  0  0  0  0  0
  -29.4347   -5.1844   -4.8161 N   0  0  0  0  0  0  0  0  0  0  0  0
  -29.4842   -3.8586   -5.2158 C   0  0  0  0  0  0  0  0  0  0  0  0
  -30.4086   -3.3391   -5.8295 O   0  0  0  0  0  0  0  0  0  0  0  0
  -28.3339   -3.1570   -4.8726 N   0  0  0  0  0  0  0  0  0  0  0  0
  -28.6870   -5.4483   -4.1942 H   0  0  0  0  0  0  0  0  0  0  0  0
  -27.4745   -3.6817   -4.9820 H   0  0  0  0  0  0  0  0  0  0  0  0
  -28.2380   -1.7825   -5.2249 C   0  0  0  0  0  0  0  0  0  0  0  0
  -29.0107   -0.8052   -4.5823 C   0  0  0  0  0  0  0  0  0  0  0  0
  -28.9898    0.5269   -5.0187 C   0  0  0  0  0  0  0  0  0  0  0  0
  -29.8335    1.5664   -4.3397 C   0  0  0  0  0  0  0  0  0  0  0  0
  -28.1863    0.8736   -6.1126 C   0  0  0  0  0  0  0  0  0  0  0  0
  -27.3893   -0.0897   -6.7363 C   0  0  0  0  0  0  0  0  0  0  0  0
  -27.4026   -1.4028   -6.2743 C   0  0  0  0  0  0  0  0  0  0  0  0
  -26.6572   -2.3269   -6.9005 F   0  0  0  0  0  0  0  0  0  0  0  0
 26 27  1  0  0  0
 27 24  1  0  0  0
 24 25  2  0  0  0
 24 19  1  0  0  0
 19 20  1  0  0  0
 19 23  1  0  0  0
 20 21  1  0  0  0
 21 22  1  0  0  0
 22 23  1  0  0  0
 23 18  1  0  0  0
 18 17  1  0  0  0
 17 13  1  0  0  0
 13 14  1  0  0  0
 13 16  1  0  0  0
 14 15  2  0  0  0
 14  7  1  0  0  0
  7  8  2  0  0  0
  7 11  1  0  0  0
  8  9  1  0  0  0
  9 10  1  0  0  0
  9 12  1  0  0  0
 10  1  1  0  0  0
 10 11  2  0  0  0
  1  2  1  0  0  0
  1  6  2  0  0  0
  2  3  2  0  0  0
  3 28  1  0  0  0
  3  4  1  0  0  0
 28 29  1  0  0  0
 29 30  1  0  0  0
 29 34  2  0  0  0
 30 31  2  0  0  0
 31 32  1  0  0  0
 32 35  1  0  0  0
 32 33  2  0  0  0
 35 36  1  0  0  0
 35 39  1  0  0  0
 36 37  2  0  0  0
 36 38  1  0  0  0
 38 41  1  0  0  0
 38 40  1  0  0  0
 41 42  1  0  0  0
 41 47  2  0  0  0
 42 43  2  0  0  0
 43 44  1  0  0  0
 43 45  1  0  0  0
 45 46  2  0  0  0
 46 47  1  0  0  0
 47 48  1  0  0  0
 33 34  1  0  0  0
  4  5  2  0  0  0
  5  6  1  0  0  0
M  END
> <minimizedAffinity>
0.69506

$$$$
