CHEMBL400140


 29 31  0  0  0  0  0  0  0  0999 V2000
  -30.0237   -7.6664   -7.2244 C   0  0  0  0  0  0  0  0  0  0  0  0
  -31.4249   -7.6907   -7.1611 C   0  0  0  0  0  0  0  0  0  0  0  0
  -32.1185   -8.7943   -7.6231 C   0  0  0  0  0  0  0  0  0  0  0  0
  -31.3770   -9.8375   -8.1339 C   0  0  0  0  0  0  0  0  0  0  0  0
  -30.0223   -9.8613   -8.1589 N   0  0  0  0  0  0  0  0  0  0  0  0
  -29.3361   -8.7998   -7.6748 C   0  0  0  0  0  0  0  0  0  0  0  0
  -29.8717   -5.2401   -7.2358 N   0  0  0  0  0  0  0  0  0  0  0  0
  -29.3663   -6.4311   -6.7458 C   0  0  0  0  0  0  0  0  0  0  0  0
  -28.4498   -6.5689   -5.9398 O   0  0  0  0  0  0  0  0  0  0  0  0
  -30.6211   -5.3023   -7.9205 H   0  0  0  0  0  0  0  0  0  0  0  0
  -28.7029   -1.3739   -5.9626 C   0  0  0  0  0  0  0  0  0  0  0  0
  -28.1686   -1.9243   -7.1308 C   0  0  0  0  0  0  0  0  0  0  0  0
  -28.5604   -3.1849   -7.5723 C   0  0  0  0  0  0  0  0  0  0  0  0
  -29.4703   -3.9469   -6.8451 C   0  0  0  0  0  0  0  0  0  0  0  0
  -29.9942   -3.4158   -5.6564 C   0  0  0  0  0  0  0  0  0  0  0  0
  -29.6171   -2.1371   -5.2227 C   0  0  0  0  0  0  0  0  0  0  0  0
  -28.2718    0.0033   -5.5247 C   0  0  0  0  0  0  0  0  0  0  0  0
  -29.0107    1.1020   -6.2988 C   0  0  0  0  0  0  0  0  0  0  0  0
  -31.2791    2.0055   -6.8499 C   0  0  0  0  0  0  0  0  0  0  0  0
  -30.4361    1.3054   -5.7947 C   0  0  0  0  0  0  0  0  0  0  0  0
  -27.9258   -8.8406   -7.6935 N   0  0  0  0  0  0  0  0  0  0  0  0
  -27.5445   -8.0875   -7.1207 H   0  0  0  0  0  0  0  0  0  0  0  0
  -27.3221  -10.1165   -7.2925 C   0  0  0  0  0  0  0  0  0  0  0  0
  -26.3994   -9.9512   -6.1008 C   0  0  0  0  0  0  0  0  0  0  0  0
  -25.0396  -10.2782   -6.1709 C   0  0  0  0  0  0  0  0  0  0  0  0
  -24.2345  -10.0475   -5.0646 C   0  0  0  0  0  0  0  0  0  0  0  0
  -24.6813   -9.5162   -3.9076 N   0  0  0  0  0  0  0  0  0  0  0  0
  -25.9915   -9.2009   -3.8548 C   0  0  0  0  0  0  0  0  0  0  0  0
  -26.8765   -9.3995   -4.9051 C   0  0  0  0  0  0  0  0  0  0  0  0
 19 20  1  0  0  0
 20 18  1  0  0  0
 18 17  1  0  0  0
 17 11  1  0  0  0
 11 12  1  0  0  0
 11 16  2  0  0  0
 12 13  2  0  0  0
 13 14  1  0  0  0
 14  7  1  0  0  0
 14 15  2  0  0  0
  7  8  1  0  0  0
  7 10  1  0  0  0
  8  9  2  0  0  0
  8  1  1  0  0  0
  1  2  1  0  0  0
  1  6  2  0  0  0
  2  3  2  0  0  0
  3  4  1  0  0  0
  4  5  2  0  0  0
  5  6  1  0  0  0
  6 21  1  0  0  0
 21 23  1  0  0  0
 21 22  1  0  0  0
 23 24  1  0  0  0
 24 25  1  0  0  0
 24 29  2  0  0  0
 25 26  2  0  0  0
 26 27  1  0  0  0
 27 28  2  0  0  0
 28 29  1  0  0  0
 15 16  1  0  0  0
M  END
> <minimizedAffinity>
-7.93096

$$$$
