CHEMBL3893176


 34 37  0  0  0  0  0  0  0  0999 V2000
  -29.1441   -5.9003   -6.0598 C   0  0  0  0  0  0  0  0  0  0  0  0
  -28.4098   -7.0658   -6.3153 C   0  0  0  0  0  0  0  0  0  0  0  0
  -28.2803   -8.0864   -5.3392 C   0  0  0  0  0  0  0  0  0  0  0  0
  -27.5160   -9.2493   -5.4672 C   0  0  0  0  0  0  0  0  0  0  0  0
  -27.4830  -10.2011   -4.5105 N   0  0  0  0  0  0  0  0  0  0  0  0
  -28.1990   -9.9829   -3.4092 C   0  0  0  0  0  0  0  0  0  0  0  0
  -28.9324   -8.8998   -3.1705 N   0  0  0  0  0  0  0  0  0  0  0  0
  -28.9568   -7.9833   -4.1337 C   0  0  0  0  0  0  0  0  0  0  0  0
  -29.7251   -6.8634   -3.9196 C   0  0  0  0  0  0  0  0  0  0  0  0
  -29.8565   -5.8157   -4.8509 C   0  0  0  0  0  0  0  0  0  0  0  0
  -28.2286   -4.8233   -7.9914 C   0  0  0  0  0  0  0  0  0  0  0  0
  -29.1971   -4.8482   -6.9373 O   0  0  0  0  0  0  0  0  0  0  0  0
  -26.7232   -9.4295   -6.6323 N   0  0  0  0  0  0  0  0  0  0  0  0
  -25.9114   -9.9880   -6.3907 H   0  0  0  0  0  0  0  0  0  0  0  0
  -27.2884   -9.7828   -7.8744 C   0  0  0  0  0  0  0  0  0  0  0  0
  -26.6104   -9.4556   -9.0586 C   0  0  0  0  0  0  0  0  0  0  0  0
  -27.1882   -9.7043  -10.2985 C   0  0  0  0  0  0  0  0  0  0  0  0
  -28.4402  -10.3107  -10.3688 C   0  0  0  0  0  0  0  0  0  0  0  0
  -29.1219  -10.5524  -11.9358 Cl  0  0  0  0  0  0  0  0  0  0  0  0
  -29.1012  -10.6851   -9.1931 C   0  0  0  0  0  0  0  0  0  0  0  0
  -30.6533  -11.4430   -9.2075 Cl  0  0  0  0  0  0  0  0  0  0  0  0
  -28.5211  -10.4328   -7.9476 C   0  0  0  0  0  0  0  0  0  0  0  0
  -30.6754   -4.7214   -4.5992 O   0  0  0  0  0  0  0  0  0  0  0  0
  -30.1018   -3.8189   -3.6419 C   0  0  0  0  0  0  0  0  0  0  0  0
  -29.4075   -2.5822   -4.1883 C   0  0  0  0  0  0  0  0  0  0  0  0
  -30.0282   -2.1138   -5.5173 C   0  0  0  0  0  0  0  0  0  0  0  0
  -29.2628   -1.0052   -6.1526 N   0  0  0  0  0  0  0  0  0  0  0  0
  -27.8596   -1.4634   -6.2886 C   0  0  0  0  0  0  0  0  0  0  0  0
  -27.2357   -1.9606   -4.9771 C   0  0  0  0  0  0  0  0  0  0  0  0
  -28.0287   -2.9834   -4.3765 O   0  0  0  0  0  0  0  0  0  0  0  0
  -29.4010    0.2269   -5.3400 C   0  0  0  0  0  0  0  0  0  0  0  0
  -30.0573    1.3901   -6.0937 C   0  0  0  0  0  0  0  0  0  0  0  0
  -29.1811    1.8917   -7.0956 O   0  0  0  0  0  0  0  0  0  0  0  0
  -28.2921    1.8785   -6.6889 H   0  0  0  0  0  0  0  0  0  0  0  0
 11 12  1  0  0  0
 12  1  1  0  0  0
  1  2  1  0  0  0
  1 10  2  0  0  0
  2  3  2  0  0  0
  3  4  1  0  0  0
  3  8  1  0  0  0
  4 13  1  0  0  0
  4  5  2  0  0  0
 13 15  1  0  0  0
 13 14  1  0  0  0
 15 16  1  0  0  0
 15 22  2  0  0  0
 16 17  2  0  0  0
 17 18  1  0  0  0
 18 19  1  0  0  0
 18 20  2  0  0  0
 20 21  1  0  0  0
 20 22  1  0  0  0
  5  6  1  0  0  0
  6  7  2  0  0  0
  7  8  1  0  0  0
  8  9  2  0  0  0
  9 10  1  0  0  0
 10 23  1  0  0  0
 23 24  1  0  0  0
 24 25  1  0  0  0
 25 26  1  0  0  0
 25 30  1  0  0  0
 26 27  1  0  0  0
 27 31  1  0  0  0
 27 28  1  0  0  0
 31 32  1  0  0  0
 32 33  1  0  0  0
 33 34  1  0  0  0
 28 29  1  0  0  0
 29 30  1  0  0  0
M  END
> <minimizedAffinity>
-7.85010

$$$$
