CHEMBL1934326


 44 48  0  0  0  0  0  0  0  0999 V2000
  -17.3791    1.3657  -14.6514 C   0  0  0  0  0  0  0  0  0  0  0  0
  -18.2831    2.3440  -14.2439 C   0  0  0  0  0  0  0  0  0  0  0  0
  -19.6589    2.1569  -14.3372 C   0  0  0  0  0  0  0  0  0  0  0  0
  -20.1909    1.0041  -14.9049 C   0  0  0  0  0  0  0  0  0  0  0  0
  -19.2987    0.0467  -15.4019 C   0  0  0  0  0  0  0  0  0  0  0  0
  -17.9066    0.2306  -15.2817 C   0  0  0  0  0  0  0  0  0  0  0  0
  -21.5846    0.7547  -14.9623 N   0  0  0  0  0  0  0  0  0  0  0  0
  -22.3456    0.2347  -13.9256 C   0  0  0  0  0  0  0  0  0  0  0  0
  -21.9542    0.0329  -12.7816 O   0  0  0  0  0  0  0  0  0  0  0  0
  -23.6271   -0.1041  -14.3395 N   0  0  0  0  0  0  0  0  0  0  0  0
  -22.0723    1.0465  -15.7926 H   0  0  0  0  0  0  0  0  0  0  0  0
  -23.6835   -0.4204  -15.2970 H   0  0  0  0  0  0  0  0  0  0  0  0
  -24.5382   -0.6866  -13.4274 C   0  0  0  0  0  0  0  0  0  0  0  0
  -24.1869   -0.7596  -12.0836 C   0  0  0  0  0  0  0  0  0  0  0  0
  -25.1063   -1.2528  -11.1550 C   0  0  0  0  0  0  0  0  0  0  0  0
  -26.3660   -1.7161  -11.5622 C   0  0  0  0  0  0  0  0  0  0  0  0
  -27.3975   -2.3154  -10.3148 Cl  0  0  0  0  0  0  0  0  0  0  0  0
  -26.7300   -1.6785  -12.9103 C   0  0  0  0  0  0  0  0  0  0  0  0
  -25.7953   -1.1576  -13.8310 C   0  0  0  0  0  0  0  0  0  0  0  0
  -28.0574   -2.1394  -13.4575 C   0  0  0  0  0  0  0  0  0  0  0  0
  -28.2658   -3.4818  -13.4896 F   0  0  0  0  0  0  0  0  0  0  0  0
  -29.1096   -1.6294  -12.7552 F   0  0  0  0  0  0  0  0  0  0  0  0
  -28.2438   -1.7195  -14.7436 F   0  0  0  0  0  0  0  0  0  0  0  0
  -15.9823    1.5446  -14.5217 N   0  0  0  0  0  0  0  0  0  0  0  0
  -15.6666    2.4286  -14.8970 H   0  0  0  0  0  0  0  0  0  0  0  0
  -14.6354   -2.7698  -12.0926 C   0  0  0  0  0  0  0  0  0  0  0  0
  -15.6354   -1.8452  -11.8203 C   0  0  0  0  0  0  0  0  0  0  0  0
  -15.8068   -0.7466  -12.6632 C   0  0  0  0  0  0  0  0  0  0  0  0
  -14.9538   -0.5533  -13.7817 C   0  0  0  0  0  0  0  0  0  0  0  0
  -14.9784    0.5430  -14.6625 C   0  0  0  0  0  0  0  0  0  0  0  0
  -14.0917    0.6430  -15.6732 N   0  0  0  0  0  0  0  0  0  0  0  0
  -13.2214   -0.3504  -15.8461 C   0  0  0  0  0  0  0  0  0  0  0  0
  -13.1266   -1.4396  -15.0885 N   0  0  0  0  0  0  0  0  0  0  0  0
  -13.9802   -1.5218  -14.0686 C   0  0  0  0  0  0  0  0  0  0  0  0
  -13.8620   -2.6246  -13.2448 C   0  0  0  0  0  0  0  0  0  0  0  0
  -14.4645   -3.7742  -11.1748 O   0  0  0  0  0  0  0  0  0  0  0  0
  -13.7362   -4.9008  -11.6788 C   0  0  0  0  0  0  0  0  0  0  0  0
  -13.7075   -7.5834  -15.5738 C   0  0  0  0  0  0  0  0  0  0  0  0
  -14.2737   -7.5041  -14.2250 N   0  0  0  0  0  0  0  0  0  0  0  0
  -13.2001   -7.5617  -13.2235 C   0  0  0  0  0  0  0  0  0  0  0  0
  -13.7486   -7.4490  -11.7998 C   0  0  0  0  0  0  0  0  0  0  0  0
  -14.5848   -6.1776  -11.6067 C   0  0  0  0  0  0  0  0  0  0  0  0
  -15.6824   -6.1451  -12.6800 C   0  0  0  0  0  0  0  0  0  0  0  0
  -15.1139   -6.3061  -14.0963 C   0  0  0  0  0  0  0  0  0  0  0  0
 38 39  1  0  0  0
 39 40  1  0  0  0
 39 44  1  0  0  0
 40 41  1  0  0  0
 41 42  1  0  0  0
 42 37  1  0  0  0
 42 43  1  0  0  0
 37 36  1  0  0  0
 36 26  1  0  0  0
 26 27  1  0  0  0
 26 35  2  0  0  0
 27 28  2  0  0  0
 28 29  1  0  0  0
 29 30  1  0  0  0
 29 34  2  0  0  0
 30 24  1  0  0  0
 30 31  2  0  0  0
 24  1  1  0  0  0
 24 25  1  0  0  0
  1  2  1  0  0  0
  1  6  2  0  0  0
  2  3  2  0  0  0
  3  4  1  0  0  0
  4  7  1  0  0  0
  4  5  2  0  0  0
  7  8  1  0  0  0
  7 11  1  0  0  0
  8  9  2  0  0  0
  8 10  1  0  0  0
 10 13  1  0  0  0
 10 12  1  0  0  0
 13 14  1  0  0  0
 13 19  2  0  0  0
 14 15  2  0  0  0
 15 16  1  0  0  0
 16 17  1  0  0  0
 16 18  2  0  0  0
 18 20  1  0  0  0
 18 19  1  0  0  0
 20 21  1  0  0  0
 20 22  1  0  0  0
 20 23  1  0  0  0
  5  6  1  0  0  0
 31 32  1  0  0  0
 32 33  2  0  0  0
 33 34  1  0  0  0
 34 35  1  0  0  0
 43 44  1  0  0  0
M  END
> <minimizedAffinity>
-10.04999

$$$$
