CHEMBL248978


 30 32  0  0  0  0  0  0  0  0999 V2000
  -27.8199   -3.8828   -8.4893 O   0  0  0  0  0  0  0  0  0  0  0  0
  -28.0563   -2.7194   -8.1839 C   0  0  0  0  0  0  0  0  0  0  0  0
  -27.7768   -1.6006   -8.9510 N   0  0  0  0  0  0  0  0  0  0  0  0
  -28.0609   -0.6980   -8.5700 H   0  0  0  0  0  0  0  0  0  0  0  0
  -27.1416   -1.6076  -10.2132 C   0  0  0  0  0  0  0  0  0  0  0  0
  -27.8449   -1.6319  -11.4225 C   0  0  0  0  0  0  0  0  0  0  0  0
  -27.1858   -1.6362  -12.6557 C   0  0  0  0  0  0  0  0  0  0  0  0
  -25.8016   -1.5780  -12.7062 C   0  0  0  0  0  0  0  0  0  0  0  0
  -25.0851   -1.5896  -11.5035 C   0  0  0  0  0  0  0  0  0  0  0  0
  -25.7466   -1.5991  -10.2657 C   0  0  0  0  0  0  0  0  0  0  0  0
  -25.0431   -1.5465  -13.8345 O   0  0  0  0  0  0  0  0  0  0  0  0
  -23.8960   -0.7073  -13.8942 C   0  0  0  0  0  0  0  0  0  0  0  0
  -22.7354   -1.3199  -13.5805 F   0  0  0  0  0  0  0  0  0  0  0  0
  -23.7781   -0.2429  -15.1594 F   0  0  0  0  0  0  0  0  0  0  0  0
  -24.0663    0.3525  -13.0740 F   0  0  0  0  0  0  0  0  0  0  0  0
  -28.6807   -2.5108   -6.8550 C   0  0  0  0  0  0  0  0  0  0  0  0
  -28.2868   -1.3429   -6.1745 C   0  0  0  0  0  0  0  0  0  0  0  0
  -28.7585   -1.0886   -4.8986 C   0  0  0  0  0  0  0  0  0  0  0  0
  -29.6246   -2.0100   -4.3519 C   0  0  0  0  0  0  0  0  0  0  0  0
  -30.0472   -3.1313   -4.9916 N   0  0  0  0  0  0  0  0  0  0  0  0
  -29.5813   -3.3869   -6.2391 C   0  0  0  0  0  0  0  0  0  0  0  0
  -30.0406   -4.5401   -6.9076 N   0  0  0  0  0  0  0  0  0  0  0  0
  -29.4885   -4.6682   -7.7572 H   0  0  0  0  0  0  0  0  0  0  0  0
  -30.0456   -5.7566   -6.0996 C   0  0  0  0  0  0  0  0  0  0  0  0
  -29.9860   -6.9471   -7.0268 C   0  0  0  0  0  0  0  0  0  0  0  0
  -28.8817   -7.1964   -7.8455 C   0  0  0  0  0  0  0  0  0  0  0  0
  -28.9069   -8.3152   -8.6674 C   0  0  0  0  0  0  0  0  0  0  0  0
  -29.9415   -9.1808   -8.7328 N   0  0  0  0  0  0  0  0  0  0  0  0
  -30.9992   -8.9215   -7.9375 C   0  0  0  0  0  0  0  0  0  0  0  0
  -31.0681   -7.8338   -7.0831 C   0  0  0  0  0  0  0  0  0  0  0  0
  1  2  2  0  0  0
  2  3  1  0  0  0
  2 16  1  0  0  0
  3  5  1  0  0  0
  3  4  1  0  0  0
  5  6  1  0  0  0
  5 10  2  0  0  0
  6  7  2  0  0  0
  7  8  1  0  0  0
  8 11  1  0  0  0
  8  9  2  0  0  0
 11 12  1  0  0  0
 12 13  1  0  0  0
 12 14  1  0  0  0
 12 15  1  0  0  0
  9 10  1  0  0  0
 16 17  1  0  0  0
 16 21  2  0  0  0
 17 18  2  0  0  0
 18 19  1  0  0  0
 19 20  2  0  0  0
 20 21  1  0  0  0
 21 22  1  0  0  0
 22 24  1  0  0  0
 22 23  1  0  0  0
 24 25  1  0  0  0
 25 26  1  0  0  0
 25 30  2  0  0  0
 26 27  2  0  0  0
 27 28  1  0  0  0
 28 29  2  0  0  0
 29 30  1  0  0  0
M  END
> <minimizedAffinity>
-8.74096

$$$$
