CHEMBL3815081


 45 49  0  0  0  0  0  0  0  0999 V2000
  -29.8288   -4.2206   -4.3345 C   0  0  0  0  0  0  0  0  0  0  0  0
  -30.8912   -5.0871   -4.5892 C   0  0  0  0  0  0  0  0  0  0  0  0
  -30.7426   -6.4637   -4.4220 C   0  0  0  0  0  0  0  0  0  0  0  0
  -29.5276   -7.0088   -3.9996 C   0  0  0  0  0  0  0  0  0  0  0  0
  -28.4629   -6.1444   -3.7270 C   0  0  0  0  0  0  0  0  0  0  0  0
  -28.6045   -4.7649   -3.9447 C   0  0  0  0  0  0  0  0  0  0  0  0
  -27.5408   -3.9758   -3.7270 F   0  0  0  0  0  0  0  0  0  0  0  0
  -29.3524   -8.4040   -3.8447 N   0  0  0  0  0  0  0  0  0  0  0  0
  -28.2876   -9.1196   -4.3673 C   0  0  0  0  0  0  0  0  0  0  0  0
  -27.3213   -8.6613   -4.9639 O   0  0  0  0  0  0  0  0  0  0  0  0
  -30.0151   -8.9036   -3.2614 H   0  0  0  0  0  0  0  0  0  0  0  0
  -28.3182  -10.5977   -4.1384 C   0  0  0  0  0  0  0  0  0  0  0  0
  -29.4977  -11.4294   -4.6416 C   0  0  0  0  0  0  0  0  0  0  0  0
  -29.4099  -11.1028   -3.1863 C   0  0  0  0  0  0  0  0  0  0  0  0
  -26.9863  -11.2745   -4.1708 C   0  0  0  0  0  0  0  0  0  0  0  0
  -26.9071  -12.3214   -4.8065 O   0  0  0  0  0  0  0  0  0  0  0  0
  -25.9801  -10.6290   -3.4904 N   0  0  0  0  0  0  0  0  0  0  0  0
  -26.2216   -9.7577   -3.0337 H   0  0  0  0  0  0  0  0  0  0  0  0
  -24.6310  -11.0422   -3.4050 C   0  0  0  0  0  0  0  0  0  0  0  0
  -24.0988  -11.7015   -2.2914 C   0  0  0  0  0  0  0  0  0  0  0  0
  -22.7679  -12.1240   -2.2777 C   0  0  0  0  0  0  0  0  0  0  0  0
  -21.9598  -11.8765   -3.3761 C   0  0  0  0  0  0  0  0  0  0  0  0
  -20.6876  -12.2942   -3.3674 F   0  0  0  0  0  0  0  0  0  0  0  0
  -22.4577  -11.2047   -4.4850 C   0  0  0  0  0  0  0  0  0  0  0  0
  -23.7947  -10.7898   -4.5022 C   0  0  0  0  0  0  0  0  0  0  0  0
  -30.1436   -2.9006   -4.5181 O   0  0  0  0  0  0  0  0  0  0  0  0
  -27.4558   -1.3281   -8.3188 N   0  0  0  0  0  0  0  0  0  0  0  0
  -28.0656   -1.2453   -7.0601 C   0  0  0  0  0  0  0  0  0  0  0  0
  -27.9440   -0.0477   -6.4772 N   0  0  0  0  0  0  0  0  0  0  0  0
  -28.5553    0.0929   -5.2993 C   0  0  0  0  0  0  0  0  0  0  0  0
  -29.2760   -0.8405   -4.6730 N   0  0  0  0  0  0  0  0  0  0  0  0
  -29.4169   -2.0360   -5.2932 C   0  0  0  0  0  0  0  0  0  0  0  0
  -28.7839   -2.3000   -6.4909 C   0  0  0  0  0  0  0  0  0  0  0  0
  -26.9791   -0.4454   -8.4918 H   0  0  0  0  0  0  0  0  0  0  0  0
  -26.8204   -2.1152   -8.4067 H   0  0  0  0  0  0  0  0  0  0  0  0
  -28.8869   -3.5130   -7.2966 C   0  0  0  0  0  0  0  0  0  0  0  0
  -27.9058   -4.1800   -7.8111 N   0  0  0  0  0  0  0  0  0  0  0  0
  -28.2317   -5.4461   -8.3880 O   0  0  0  0  0  0  0  0  0  0  0  0
  -28.8667   -6.3799   -7.5142 C   0  0  0  0  0  0  0  0  0  0  0  0
  -29.1933   -7.6874   -8.2184 C   0  0  0  0  0  0  0  0  0  0  0  0
  -29.8836   -8.6308   -7.3169 N   0  0  0  0  0  0  0  0  0  0  0  0
  -29.7302  -10.0512   -7.6716 C   0  0  0  0  0  0  0  0  0  0  0  0
  -30.8525  -10.3342   -8.6450 C   0  0  0  0  0  0  0  0  0  0  0  0
  -31.9939   -9.5062   -8.0900 C   0  0  0  0  0  0  0  0  0  0  0  0
  -31.3308   -8.3667   -7.3248 C   0  0  0  0  0  0  0  0  0  0  0  0
 27 28  1  0  0  0
 27 34  1  0  0  0
 27 35  1  0  0  0
 28 29  1  0  0  0
 28 33  2  0  0  0
 29 30  2  0  0  0
 30 31  1  0  0  0
 31 32  2  0  0  0
 32 26  1  0  0  0
 32 33  1  0  0  0
 26  1  1  0  0  0
  1  2  1  0  0  0
  1  6  2  0  0  0
  2  3  2  0  0  0
  3  4  1  0  0  0
  4  8  1  0  0  0
  4  5  2  0  0  0
  8  9  1  0  0  0
  8 11  1  0  0  0
  9 10  2  0  0  0
  9 12  1  0  0  0
 12 15  1  0  0  0
 12 13  1  0  0  0
 12 14  1  0  0  0
 15 16  2  0  0  0
 15 17  1  0  0  0
 17 19  1  0  0  0
 17 18  1  0  0  0
 19 20  1  0  0  0
 19 25  2  0  0  0
 20 21  2  0  0  0
 21 22  1  0  0  0
 22 23  1  0  0  0
 22 24  2  0  0  0
 24 25  1  0  0  0
 13 14  1  0  0  0
  5  6  1  0  0  0
  6  7  1  0  0  0
 33 36  1  0  0  0
 36 37  2  0  0  0
 37 38  1  0  0  0
 38 39  1  0  0  0
 39 40  1  0  0  0
 40 41  1  0  0  0
 41 42  1  0  0  0
 41 45  1  0  0  0
 42 43  1  0  0  0
 43 44  1  0  0  0
 44 45  1  0  0  0
M  END
> <minimizedAffinity>
-9.03948

$$$$
