CHEMBL2016910


 32 36  0  0  0  0  0  0  0  0999 V2000
  -24.8794   -0.7496  -15.4505 O   0  0  0  0  0  0  0  0  0  0  0  0
  -24.5682   -0.9763  -14.2803 C   0  0  0  0  0  0  0  0  0  0  0  0
  -25.4970   -1.3980  -13.3199 N   0  0  0  0  0  0  0  0  0  0  0  0
  -26.8625   -1.6013  -13.8402 C   0  0  0  0  0  0  0  0  0  0  0  0
  -27.9368   -2.1663  -12.9008 C   0  0  0  0  0  0  0  0  0  0  0  0
  -27.5761   -1.9782  -11.4912 C   0  0  0  0  0  0  0  0  0  0  0  0
  -28.3689   -2.3122  -10.4354 N   0  0  0  0  0  0  0  0  0  0  0  0
  -27.6450   -2.0784   -9.3567 C   0  0  0  0  0  0  0  0  0  0  0  0
  -26.4118   -1.5517   -9.7101 N   0  0  0  0  0  0  0  0  0  0  0  0
  -26.3686   -1.5029  -11.0735 C   0  0  0  0  0  0  0  0  0  0  0  0
  -25.2523   -1.0634  -11.9090 C   0  0  0  0  0  0  0  0  0  0  0  0
  -25.6801   -1.3008   -9.0590 H   0  0  0  0  0  0  0  0  0  0  0  0
  -27.9369   -2.3110   -7.9855 C   0  0  0  0  0  0  0  0  0  0  0  0
  -28.2861   -3.5531   -7.5974 C   0  0  0  0  0  0  0  0  0  0  0  0
  -28.5644   -3.8496   -6.1910 C   0  0  0  0  0  0  0  0  0  0  0  0
  -28.9544   -5.1249   -5.7723 C   0  0  0  0  0  0  0  0  0  0  0  0
  -29.2206   -5.3528   -4.4211 C   0  0  0  0  0  0  0  0  0  0  0  0
  -29.7206   -6.9149   -3.9017 Cl  0  0  0  0  0  0  0  0  0  0  0  0
  -29.0901   -4.3260   -3.4843 C   0  0  0  0  0  0  0  0  0  0  0  0
  -28.6852   -3.0560   -3.8966 C   0  0  0  0  0  0  0  0  0  0  0  0
  -28.4300   -2.8273   -5.2439 C   0  0  0  0  0  0  0  0  0  0  0  0
  -28.0446   -1.5489   -5.6625 N   0  0  0  0  0  0  0  0  0  0  0  0
  -27.8239   -1.2148   -6.9688 C   0  0  0  0  0  0  0  0  0  0  0  0
  -27.5373   -0.0592   -7.2775 O   0  0  0  0  0  0  0  0  0  0  0  0
  -27.9388   -0.7991   -4.9937 H   0  0  0  0  0  0  0  0  0  0  0  0
  -23.1006   -0.8896  -13.8358 C   0  0  0  0  0  0  0  0  0  0  0  0
  -22.9024    0.2777  -12.9507 N   0  0  0  0  0  0  0  0  0  0  0  0
  -23.5010    1.4947  -13.5398 C   0  0  0  0  0  0  0  0  0  0  0  0
  -22.7358    2.0327  -14.7618 C   0  0  0  0  0  0  0  0  0  0  0  0
  -21.3573    2.2725  -14.4552 O   0  0  0  0  0  0  0  0  0  0  0  0
  -20.7252    1.0888  -13.9481 C   0  0  0  0  0  0  0  0  0  0  0  0
  -21.4633    0.5522  -12.7113 C   0  0  0  0  0  0  0  0  0  0  0  0
  1  2  2  0  0  0
  2 26  1  0  0  0
  2  3  1  0  0  0
 26 27  1  0  0  0
 27 28  1  0  0  0
 27 32  1  0  0  0
 28 29  1  0  0  0
 29 30  1  0  0  0
 30 31  1  0  0  0
 31 32  1  0  0  0
  3  4  1  0  0  0
  3 11  1  0  0  0
  4  5  1  0  0  0
  5  6  1  0  0  0
  6  7  1  0  0  0
  6 10  2  0  0  0
  7  8  2  0  0  0
  8 13  1  0  0  0
  8  9  1  0  0  0
 13 14  2  0  0  0
 13 23  1  0  0  0
 14 15  1  0  0  0
 15 16  1  0  0  0
 15 21  2  0  0  0
 16 17  2  0  0  0
 17 18  1  0  0  0
 17 19  1  0  0  0
 19 20  2  0  0  0
 20 21  1  0  0  0
 21 22  1  0  0  0
 22 23  1  0  0  0
 22 25  1  0  0  0
 23 24  2  0  0  0
  9 10  1  0  0  0
  9 12  1  0  0  0
 10 11  1  0  0  0
M  END
> <minimizedAffinity>
-7.43069

$$$$
