CHEMBL4086718


 34 38  0  0  0  0  0  0  0  0999 V2000
  -17.4165    1.4880  -15.6258 C   0  0  0  0  0  0  0  0  0  0  0  0
  -18.0147    0.3258  -15.1422 C   0  0  0  0  0  0  0  0  0  0  0  0
  -19.3432    0.3218  -14.6963 C   0  0  0  0  0  0  0  0  0  0  0  0
  -20.0377    1.5423  -14.6655 C   0  0  0  0  0  0  0  0  0  0  0  0
  -19.4206    2.7384  -15.0612 C   0  0  0  0  0  0  0  0  0  0  0  0
  -20.3661    3.7803  -14.8956 C   0  0  0  0  0  0  0  0  0  0  0  0
  -21.5503    3.2028  -14.5086 C   0  0  0  0  0  0  0  0  0  0  0  0
  -21.3743    1.8350  -14.3742 N   0  0  0  0  0  0  0  0  0  0  0  0
  -22.4239    0.9281  -14.1063 C   0  0  0  0  0  0  0  0  0  0  0  0
  -23.4437    0.9853  -14.7791 O   0  0  0  0  0  0  0  0  0  0  0  0
  -22.1575    0.2006  -12.9656 N   0  0  0  0  0  0  0  0  0  0  0  0
  -18.0935    2.7083  -15.5433 C   0  0  0  0  0  0  0  0  0  0  0  0
  -21.5814    0.6540  -12.2737 H   0  0  0  0  0  0  0  0  0  0  0  0
  -23.1827   -0.5394  -12.4036 C   0  0  0  0  0  0  0  0  0  0  0  0
  -24.5042   -0.1388  -12.0931 C   0  0  0  0  0  0  0  0  0  0  0  0
  -25.1040   -1.2570  -11.5510 C   0  0  0  0  0  0  0  0  0  0  0  0
  -24.1148   -2.1998  -11.5037 N   0  0  0  0  0  0  0  0  0  0  0  0
  -22.9833   -1.8304  -12.1321 N   0  0  0  0  0  0  0  0  0  0  0  0
  -24.1637   -3.1318  -11.1080 H   0  0  0  0  0  0  0  0  0  0  0  0
  -26.5627   -1.4756  -11.1044 C   0  0  0  0  0  0  0  0  0  0  0  0
  -26.7901   -1.8847   -9.6684 C   0  0  0  0  0  0  0  0  0  0  0  0
  -27.4953   -2.0515  -12.1652 C   0  0  0  0  0  0  0  0  0  0  0  0
  -27.6575   -0.6343  -11.7410 C   0  0  0  0  0  0  0  0  0  0  0  0
  -16.1504    1.5428  -16.1801 O   0  0  0  0  0  0  0  0  0  0  0  0
  -13.3241    3.4419  -14.8794 C   0  0  0  0  0  0  0  0  0  0  0  0
  -14.4436    3.1836  -15.6458 C   0  0  0  0  0  0  0  0  0  0  0  0
  -15.0855    1.9849  -15.4200 C   0  0  0  0  0  0  0  0  0  0  0  0
  -14.7436    1.1577  -14.4154 N   0  0  0  0  0  0  0  0  0  0  0  0
  -13.6883    1.5333  -13.6819 C   0  0  0  0  0  0  0  0  0  0  0  0
  -12.9335    2.6242  -13.8788 N   0  0  0  0  0  0  0  0  0  0  0  0
  -12.4807    4.6665  -15.1658 C   0  0  0  0  0  0  0  0  0  0  0  0
  -12.5863    6.3231  -16.9222 C   0  0  0  0  0  0  0  0  0  0  0  0
  -13.2356    5.8015  -15.7229 N   0  0  0  0  0  0  0  0  0  0  0  0
  -14.1658    5.4695  -15.9754 H   0  0  0  0  0  0  0  0  0  0  0  0
 32 33  1  0  0  0
 33 31  1  0  0  0
 33 34  1  0  0  0
 31 25  1  0  0  0
 25 26  1  0  0  0
 25 30  2  0  0  0
 26 27  2  0  0  0
 27 24  1  0  0  0
 27 28  1  0  0  0
 24  1  1  0  0  0
  1  2  1  0  0  0
  1 12  2  0  0  0
  2  3  2  0  0  0
  3  4  1  0  0  0
  4  5  2  0  0  0
  4  8  1  0  0  0
  5  6  1  0  0  0
  5 12  1  0  0  0
  6  7  2  0  0  0
  7  8  1  0  0  0
  8  9  1  0  0  0
  9 10  2  0  0  0
  9 11  1  0  0  0
 11 14  1  0  0  0
 11 13  1  0  0  0
 14 15  1  0  0  0
 14 18  2  0  0  0
 15 16  2  0  0  0
 16 20  1  0  0  0
 16 17  1  0  0  0
 20 21  1  0  0  0
 20 22  1  0  0  0
 20 23  1  0  0  0
 22 23  1  0  0  0
 17 18  1  0  0  0
 17 19  1  0  0  0
 28 29  2  0  0  0
 29 30  1  0  0  0
M  END
> <minimizedAffinity>
-8.71985

$$$$
