CHEMBL3656028


 38 41  0  0  0  0  0  0  0  0999 V2000
  -30.6586   -6.1341   -5.2424 C   0  0  0  0  0  0  0  0  0  0  0  0
  -29.5297   -5.3238   -5.2146 C   0  0  0  0  0  0  0  0  0  0  0  0
  -29.4959   -4.2251   -4.3652 C   0  0  0  0  0  0  0  0  0  0  0  0
  -30.5512   -4.0369   -3.4822 C   0  0  0  0  0  0  0  0  0  0  0  0
  -31.6259   -4.9160   -3.5474 C   0  0  0  0  0  0  0  0  0  0  0  0
  -31.7184   -5.9485   -4.4215 N   0  0  0  0  0  0  0  0  0  0  0  0
  -30.3582   -8.8980   -7.7201 C   0  0  0  0  0  0  0  0  0  0  0  0
  -31.7128   -8.8567   -7.4466 C   0  0  0  0  0  0  0  0  0  0  0  0
  -31.9439   -7.8588   -6.5244 N   0  0  0  0  0  0  0  0  0  0  0  0
  -30.7624   -7.2332   -6.1948 C   0  0  0  0  0  0  0  0  0  0  0  0
  -29.7783   -7.8585   -6.9353 C   0  0  0  0  0  0  0  0  0  0  0  0
  -32.8369   -7.6026   -6.1256 H   0  0  0  0  0  0  0  0  0  0  0  0
  -29.2232   -9.2703   -9.8109 N   0  0  0  0  0  0  0  0  0  0  0  0
  -29.5881   -9.7800   -8.5892 C   0  0  0  0  0  0  0  0  0  0  0  0
  -29.2861  -10.9192   -8.2508 O   0  0  0  0  0  0  0  0  0  0  0  0
  -29.4593   -8.3238  -10.0745 H   0  0  0  0  0  0  0  0  0  0  0  0
  -28.4865  -10.1017  -10.7462 C   0  0  0  0  0  0  0  0  0  0  0  0
  -26.9904   -9.9042  -10.6158 C   0  0  0  0  0  0  0  0  0  0  0  0
  -26.2811  -10.4824   -9.8012 O   0  0  0  0  0  0  0  0  0  0  0  0
  -27.1457   -9.1508  -12.8292 C   0  0  0  0  0  0  0  0  0  0  0  0
  -26.5600   -8.9976  -11.5356 O   0  0  0  0  0  0  0  0  0  0  0  0
  -28.4445   -3.3266   -4.3134 O   0  0  0  0  0  0  0  0  0  0  0  0
  -28.4769   -2.1883   -5.1045 C   0  0  0  0  0  0  0  0  0  0  0  0
  -29.0178   -0.9728   -4.6727 C   0  0  0  0  0  0  0  0  0  0  0  0
  -29.1090    0.1004   -5.5500 C   0  0  0  0  0  0  0  0  0  0  0  0
  -28.5457    0.0093   -6.8196 C   0  0  0  0  0  0  0  0  0  0  0  0
  -27.8622   -1.1415   -7.2213 C   0  0  0  0  0  0  0  0  0  0  0  0
  -27.8747   -2.2622   -6.3721 C   0  0  0  0  0  0  0  0  0  0  0  0
  -27.1412   -1.2021   -8.4383 N   0  0  0  0  0  0  0  0  0  0  0  0
  -27.5020   -1.9325   -9.5703 C   0  0  0  0  0  0  0  0  0  0  0  0
  -28.4917   -2.6531   -9.6556 O   0  0  0  0  0  0  0  0  0  0  0  0
  -26.3732   -0.5550   -8.5698 H   0  0  0  0  0  0  0  0  0  0  0  0
  -26.6161   -1.7342  -10.7083 C   0  0  0  0  0  0  0  0  0  0  0  0
  -25.2890   -1.4659  -10.4845 O   0  0  0  0  0  0  0  0  0  0  0  0
  -24.6986   -1.3215  -11.6968 C   0  0  0  0  0  0  0  0  0  0  0  0
  -25.6139   -1.4847  -12.7042 C   0  0  0  0  0  0  0  0  0  0  0  0
  -26.8654   -1.7494  -12.0778 C   0  0  0  0  0  0  0  0  0  0  0  0
  -28.1664   -1.9767  -12.7602 C   0  0  0  0  0  0  0  0  0  0  0  0
 20 21  1  0  0  0
 21 18  1  0  0  0
 18 19  2  0  0  0
 18 17  1  0  0  0
 17 13  1  0  0  0
 13 14  1  0  0  0
 13 16  1  0  0  0
 14 15  2  0  0  0
 14  7  1  0  0  0
  7  8  2  0  0  0
  7 11  1  0  0  0
  8  9  1  0  0  0
  9 10  1  0  0  0
  9 12  1  0  0  0
 10  1  1  0  0  0
 10 11  2  0  0  0
  1  2  1  0  0  0
  1  6  2  0  0  0
  2  3  2  0  0  0
  3 22  1  0  0  0
  3  4  1  0  0  0
 22 23  1  0  0  0
 23 24  1  0  0  0
 23 28  2  0  0  0
 24 25  2  0  0  0
 25 26  1  0  0  0
 26 27  2  0  0  0
 27 29  1  0  0  0
 27 28  1  0  0  0
 29 30  1  0  0  0
 29 32  1  0  0  0
 30 31  2  0  0  0
 30 33  1  0  0  0
 33 34  1  0  0  0
 33 37  2  0  0  0
 34 35  1  0  0  0
 35 36  2  0  0  0
 36 37  1  0  0  0
 37 38  1  0  0  0
  4  5  2  0  0  0
  5  6  1  0  0  0
M  END
> <minimizedAffinity>
-9.70365

$$$$
