CHEMBL67560


 34 38  0  0  0  0  0  0  0  0999 V2000
  -28.6789   -8.0742   -7.1375 C   0  0  0  0  0  0  0  0  0  0  0  0
  -28.6240   -7.8838   -5.7466 C   0  0  0  0  0  0  0  0  0  0  0  0
  -28.2501   -9.1295   -5.1446 C   0  0  0  0  0  0  0  0  0  0  0  0
  -27.9412   -9.6029   -3.8488 C   0  0  0  0  0  0  0  0  0  0  0  0
  -27.9520   -8.8260   -2.6961 N   0  0  0  0  0  0  0  0  0  0  0  0
  -27.5776  -10.8895   -3.6837 N   0  0  0  0  0  0  0  0  0  0  0  0
  -27.5534  -11.6730   -4.7585 C   0  0  0  0  0  0  0  0  0  0  0  0
  -27.8470  -11.3595   -6.0267 N   0  0  0  0  0  0  0  0  0  0  0  0
  -28.1759  -10.0580   -6.1692 C   0  0  0  0  0  0  0  0  0  0  0  0
  -28.4569   -9.4368   -7.3702 N   0  0  0  0  0  0  0  0  0  0  0  0
  -28.6589   -8.1009   -2.6790 H   0  0  0  0  0  0  0  0  0  0  0  0
  -27.8783   -9.3957   -1.8628 H   0  0  0  0  0  0  0  0  0  0  0  0
  -28.8174   -6.5782   -5.1206 C   0  0  0  0  0  0  0  0  0  0  0  0
  -30.1060   -6.1464   -4.8007 C   0  0  0  0  0  0  0  0  0  0  0  0
  -30.3347   -4.8380   -4.4188 C   0  0  0  0  0  0  0  0  0  0  0  0
  -29.2619   -4.0324   -4.0288 C   0  0  0  0  0  0  0  0  0  0  0  0
  -27.9660   -4.4810   -4.2383 C   0  0  0  0  0  0  0  0  0  0  0  0
  -27.7511   -5.7104   -4.8618 C   0  0  0  0  0  0  0  0  0  0  0  0
  -29.4060   -2.7951   -3.4526 O   0  0  0  0  0  0  0  0  0  0  0  0
  -29.1003   -1.6739   -4.1921 C   0  0  0  0  0  0  0  0  0  0  0  0
  -27.8138   -1.1251   -4.2876 C   0  0  0  0  0  0  0  0  0  0  0  0
  -27.6124    0.0707   -4.9672 C   0  0  0  0  0  0  0  0  0  0  0  0
  -28.6814    0.6721   -5.6351 C   0  0  0  0  0  0  0  0  0  0  0  0
  -29.9460    0.0794   -5.6096 C   0  0  0  0  0  0  0  0  0  0  0  0
  -30.1580   -1.0882   -4.8815 C   0  0  0  0  0  0  0  0  0  0  0  0
  -28.4507  -10.0645   -8.6788 C   0  0  0  0  0  0  0  0  0  0  0  0
  -27.1757   -9.8623   -9.5099 C   0  0  0  0  0  0  0  0  0  0  0  0
  -27.5321  -10.4694  -10.8697 C   0  0  0  0  0  0  0  0  0  0  0  0
  -29.0617  -10.4818  -10.9447 C   0  0  0  0  0  0  0  0  0  0  0  0
  -29.5438   -9.7402   -9.6967 C   0  0  0  0  0  0  0  0  0  0  0  0
  -29.9734   -6.0546   -7.9215 C   0  0  0  0  0  0  0  0  0  0  0  0
  -28.8430   -7.0234   -8.2232 C   0  0  0  0  0  0  0  0  0  0  0  0
  -27.5944   -6.3921   -8.4571 O   0  0  0  0  0  0  0  0  0  0  0  0
  -27.7015   -5.4422   -8.2911 H   0  0  0  0  0  0  0  0  0  0  0  0
 31 32  1  0  0  0
 32 33  1  0  0  0
 32  1  1  0  0  0
 33 34  1  0  0  0
  1  2  2  0  0  0
  1 10  1  0  0  0
  2 13  1  0  0  0
  2  3  1  0  0  0
 13 14  1  0  0  0
 13 18  2  0  0  0
 14 15  2  0  0  0
 15 16  1  0  0  0
 16 19  1  0  0  0
 16 17  2  0  0  0
 19 20  1  0  0  0
 20 21  1  0  0  0
 20 25  2  0  0  0
 21 22  2  0  0  0
 22 23  1  0  0  0
 23 24  2  0  0  0
 24 25  1  0  0  0
 17 18  1  0  0  0
  3  4  1  0  0  0
  3  9  2  0  0  0
  4  5  1  0  0  0
  4  6  2  0  0  0
  5 11  1  0  0  0
  5 12  1  0  0  0
  6  7  1  0  0  0
  7  8  2  0  0  0
  8  9  1  0  0  0
  9 10  1  0  0  0
 10 26  1  0  0  0
 26 27  1  0  0  0
 26 30  1  0  0  0
 27 28  1  0  0  0
 28 29  1  0  0  0
 29 30  1  0  0  0
M  END
> <minimizedAffinity>
-8.48887

$$$$
