CHEMBL500152


 25 27  0  0  0  0  0  0  0  0999 V2000
  -29.6051   -6.0661   -5.7392 C   0  0  0  0  0  0  0  0  0  0  0  0
  -28.4601   -6.4976   -5.6137 O   0  0  0  0  0  0  0  0  0  0  0  0
  -30.5352   -6.6083   -6.6029 N   0  0  0  0  0  0  0  0  0  0  0  0
  -31.2825   -6.0097   -6.9293 H   0  0  0  0  0  0  0  0  0  0  0  0
  -30.2289   -7.6582   -7.4821 C   0  0  0  0  0  0  0  0  0  0  0  0
  -29.0546   -7.6924   -8.2012 C   0  0  0  0  0  0  0  0  0  0  0  0
  -28.9259   -8.7352   -9.0810 C   0  0  0  0  0  0  0  0  0  0  0  0
  -29.8735   -9.6700   -9.2561 N   0  0  0  0  0  0  0  0  0  0  0  0
  -30.9623   -9.5629   -8.4912 C   0  0  0  0  0  0  0  0  0  0  0  0
  -31.9924  -10.4469   -8.7464 N   0  0  0  0  0  0  0  0  0  0  0  0
  -31.1739   -8.6066   -7.5813 N   0  0  0  0  0  0  0  0  0  0  0  0
  -31.8847  -10.7941   -9.6910 H   0  0  0  0  0  0  0  0  0  0  0  0
  -32.8737  -10.0004   -8.5342 H   0  0  0  0  0  0  0  0  0  0  0  0
  -31.2155   -6.0080   -3.0694 C   0  0  0  0  0  0  0  0  0  0  0  0
  -30.7456   -4.8733   -3.8274 N   0  0  0  0  0  0  0  0  0  0  0  0
  -30.8002   -3.5821   -3.3888 C   0  0  0  0  0  0  0  0  0  0  0  0
  -30.2640   -2.7584   -4.2549 N   0  0  0  0  0  0  0  0  0  0  0  0
  -29.8033   -3.5534   -5.2839 C   0  0  0  0  0  0  0  0  0  0  0  0
  -30.0613   -4.8953   -5.0249 C   0  0  0  0  0  0  0  0  0  0  0  0
  -29.1041   -2.9921   -6.4312 C   0  0  0  0  0  0  0  0  0  0  0  0
  -28.4558   -1.7560   -6.3030 C   0  0  0  0  0  0  0  0  0  0  0  0
  -27.7397   -1.2111   -7.3724 C   0  0  0  0  0  0  0  0  0  0  0  0
  -27.6750   -1.8918   -8.5862 C   0  0  0  0  0  0  0  0  0  0  0  0
  -28.3477   -3.1021   -8.7394 C   0  0  0  0  0  0  0  0  0  0  0  0
  -29.0673   -3.6447   -7.6712 C   0  0  0  0  0  0  0  0  0  0  0  0
 14 15  1  0  0  0
 15 16  1  0  0  0
 15 19  1  0  0  0
 16 17  2  0  0  0
 17 18  1  0  0  0
 18 20  1  0  0  0
 18 19  2  0  0  0
 20 21  1  0  0  0
 20 25  2  0  0  0
 21 22  2  0  0  0
 22 23  1  0  0  0
 23 24  2  0  0  0
 24 25  1  0  0  0
 19  1  1  0  0  0
  1  2  2  0  0  0
  1  3  1  0  0  0
  3  5  1  0  0  0
  3  4  1  0  0  0
  5  6  1  0  0  0
  5 11  2  0  0  0
  6  7  2  0  0  0
  7  8  1  0  0  0
  8  9  2  0  0  0
  9 10  1  0  0  0
  9 11  1  0  0  0
 10 12  1  0  0  0
 10 13  1  0  0  0
M  END
> <minimizedAffinity>
-7.77967

$$$$
