CHEMBL3526621


 31 34  0  0  0  0  0  0  0  0999 V2000
  -17.4157    0.8866  -13.5894 C   0  0  0  0  0  0  0  0  0  0  0  0
  -16.7282    1.7684  -14.5703 C   0  0  0  0  0  0  0  0  0  0  0  0
  -17.3139    2.5085  -15.6403 C   0  0  0  0  0  0  0  0  0  0  0  0
  -16.3154    3.2200  -16.2635 C   0  0  0  0  0  0  0  0  0  0  0  0
  -15.1319    2.8754  -15.6813 N   0  0  0  0  0  0  0  0  0  0  0  0
  -13.9187    3.2974  -16.0740 N   0  0  0  0  0  0  0  0  0  0  0  0
  -12.9331    2.7973  -15.3945 C   0  0  0  0  0  0  0  0  0  0  0  0
  -13.0183    1.9055  -14.3568 N   0  0  0  0  0  0  0  0  0  0  0  0
  -14.2004    1.5160  -14.0146 C   0  0  0  0  0  0  0  0  0  0  0  0
  -15.3630    1.9990  -14.6674 C   0  0  0  0  0  0  0  0  0  0  0  0
  -18.6274    2.5004  -15.9780 O   0  0  0  0  0  0  0  0  0  0  0  0
  -19.4264    3.3952  -15.1842 C   0  0  0  0  0  0  0  0  0  0  0  0
  -20.8797    2.9101  -15.1345 C   0  0  0  0  0  0  0  0  0  0  0  0
  -20.9952    1.4798  -14.6278 C   0  0  0  0  0  0  0  0  0  0  0  0
  -21.6607    3.7613  -14.2975 O   0  0  0  0  0  0  0  0  0  0  0  0
  -21.2011    3.8026  -13.4386 H   0  0  0  0  0  0  0  0  0  0  0  0
  -14.4755    0.5705  -13.0411 O   0  0  0  0  0  0  0  0  0  0  0  0
  -14.3931   -0.7919  -13.3922 C   0  0  0  0  0  0  0  0  0  0  0  0
  -13.6418   -1.2071  -14.4931 C   0  0  0  0  0  0  0  0  0  0  0  0
  -13.5994   -2.5536  -14.8606 C   0  0  0  0  0  0  0  0  0  0  0  0
  -14.3723   -3.4530  -14.1176 C   0  0  0  0  0  0  0  0  0  0  0  0
  -14.5199   -4.8133  -14.2543 N   0  0  0  0  0  0  0  0  0  0  0  0
  -15.4158   -5.2975  -13.3334 C   0  0  0  0  0  0  0  0  0  0  0  0
  -15.8318   -4.2271  -12.5666 C   0  0  0  0  0  0  0  0  0  0  0  0
  -15.1705   -3.0583  -13.0425 C   0  0  0  0  0  0  0  0  0  0  0  0
  -15.1767   -1.6986  -12.6750 C   0  0  0  0  0  0  0  0  0  0  0  0
  -15.9366   -1.2744  -11.6507 F   0  0  0  0  0  0  0  0  0  0  0  0
  -14.0564   -5.3863  -14.9479 H   0  0  0  0  0  0  0  0  0  0  0  0
  -15.7483   -6.7403  -13.2630 C   0  0  0  0  0  0  0  0  0  0  0  0
  -16.1229   -7.1505  -14.5709 O   0  0  0  0  0  0  0  0  0  0  0  0
  -17.0320   -6.8305  -14.7029 H   0  0  0  0  0  0  0  0  0  0  0  0
  1  2  1  0  0  0
  2  3  1  0  0  0
  2 10  2  0  0  0
  3 11  1  0  0  0
  3  4  2  0  0  0
 11 12  1  0  0  0
 12 13  1  0  0  0
 13 14  1  0  0  0
 13 15  1  0  0  0
 15 16  1  0  0  0
  4  5  1  0  0  0
  5  6  1  0  0  0
  5 10  1  0  0  0
  6  7  2  0  0  0
  7  8  1  0  0  0
  8  9  2  0  0  0
  9 17  1  0  0  0
  9 10  1  0  0  0
 17 18  1  0  0  0
 18 19  1  0  0  0
 18 26  2  0  0  0
 19 20  2  0  0  0
 20 21  1  0  0  0
 21 22  1  0  0  0
 21 25  2  0  0  0
 22 23  1  0  0  0
 22 28  1  0  0  0
 23 29  1  0  0  0
 23 24  2  0  0  0
 29 30  1  0  0  0
 30 31  1  0  0  0
 24 25  1  0  0  0
 25 26  1  0  0  0
 26 27  1  0  0  0
M  END
> <minimizedAffinity>
-7.66359

$$$$
