CHEMBL3545376


 34 37  0  0  0  0  0  0  0  0999 V2000
  -28.6155   -8.6862   -6.1541 N   0  0  0  0  0  0  0  0  0  0  0  0
  -28.7712   -7.2960   -5.7950 C   0  0  0  0  0  0  0  0  0  0  0  0
  -29.5238   -6.5696   -6.6815 C   0  0  0  0  0  0  0  0  0  0  0  0
  -29.5227   -5.2271   -6.5616 C   0  0  0  0  0  0  0  0  0  0  0  0
  -28.7483   -4.5602   -5.6526 C   0  0  0  0  0  0  0  0  0  0  0  0
  -28.3262   -3.5355   -6.2869 N   0  0  0  0  0  0  0  0  0  0  0  0
  -28.8959   -2.4529   -5.8209 C   0  0  0  0  0  0  0  0  0  0  0  0
  -28.6436   -1.8541   -4.6381 C   0  0  0  0  0  0  0  0  0  0  0  0
  -28.3001   -3.1474   -3.9860 N   0  0  0  0  0  0  0  0  0  0  0  0
  -28.2920   -4.7894   -4.4143 C   0  0  0  0  0  0  0  0  0  0  0  0
  -28.2158   -6.4886   -4.6617 C   0  0  0  0  0  0  0  0  0  0  0  0
  -29.0379   -0.3788   -5.4158 C   0  0  0  0  0  0  0  0  0  0  0  0
  -28.2859    0.6350   -6.1495 C   0  0  0  0  0  0  0  0  0  0  0  0
  -28.9909    1.6738   -6.6617 N   0  0  0  0  0  0  0  0  0  0  0  0
  -30.2670    1.4278   -6.3363 N   0  0  0  0  0  0  0  0  0  0  0  0
  -31.3405    2.2919   -6.8607 C   0  0  0  0  0  0  0  0  0  0  0  0
  -30.3364    0.2658   -5.5543 C   0  0  0  0  0  0  0  0  0  0  0  0
  -31.6478  -10.5138   -7.5177 C   0  0  0  0  0  0  0  0  0  0  0  0
  -31.1703  -10.9230   -8.7469 C   0  0  0  0  0  0  0  0  0  0  0  0
  -29.8660  -10.6009   -9.1161 C   0  0  0  0  0  0  0  0  0  0  0  0
  -29.0364   -9.8765   -8.2505 C   0  0  0  0  0  0  0  0  0  0  0  0
  -29.4622   -9.4658   -6.9844 C   0  0  0  0  0  0  0  0  0  0  0  0
  -30.7775   -9.8534   -6.6248 C   0  0  0  0  0  0  0  0  0  0  0  0
  -33.2137  -11.8741   -6.3293 C   0  0  0  0  0  0  0  0  0  0  0  0
  -32.9363  -10.6936   -7.0828 O   0  0  0  0  0  0  0  0  0  0  0  0
  -29.3032  -10.9408  -10.3186 O   0  0  0  0  0  0  0  0  0  0  0  0
  -28.1298  -11.7388  -10.2082 C   0  0  0  0  0  0  0  0  0  0  0  0
  -27.7721   -9.4249   -5.0922 C   0  0  0  0  0  0  0  0  0  0  0  0
  -26.3364   -9.8932   -5.4644 C   0  0  0  0  0  0  0  0  0  0  0  0
  -25.1842   -9.1231   -5.0039 N   0  0  0  0  0  0  0  0  0  0  0  0
  -25.4560   -8.6187   -4.1588 H   0  0  0  0  0  0  0  0  0  0  0  0
  -23.9874   -9.9279   -4.7609 C   0  0  0  0  0  0  0  0  0  0  0  0
  -24.2638  -11.3687   -4.3122 C   0  0  0  0  0  0  0  0  0  0  0  0
  -23.2006   -9.9431   -6.0630 C   0  0  0  0  0  0  0  0  0  0  0  0
 24 25  1  0  0  0
 25 18  1  0  0  0
 18 19  1  0  0  0
 18 23  2  0  0  0
 19 20  2  0  0  0
 20 26  1  0  0  0
 20 21  1  0  0  0
 26 27  1  0  0  0
 21 22  2  0  0  0
 22  1  1  0  0  0
 22 23  1  0  0  0
  1 28  1  0  0  0
  1  2  1  0  0  0
 28 29  1  0  0  0
 29 30  1  0  0  0
 30 32  1  0  0  0
 30 31  1  0  0  0
 32 33  1  0  0  0
 32 34  1  0  0  0
  2  3  1  0  0  0
  2 11  2  0  0  0
  3  4  2  0  0  0
  4  5  1  0  0  0
  5  6  1  0  0  0
  5 10  2  0  0  0
  6  7  2  0  0  0
  7  8  1  0  0  0
  8 12  1  0  0  0
  8  9  2  0  0  0
 12 13  1  0  0  0
 12 17  2  0  0  0
 13 14  2  0  0  0
 14 15  1  0  0  0
 15 16  1  0  0  0
 15 17  1  0  0  0
  9 10  1  0  0  0
 10 11  1  0  0  0
M  END
> <minimizedAffinity>
-8.26893

$$$$
