CHEMBL3671544


 39 41  0  0  0  0  0  0  0  0999 V2000
  -14.4432    0.0368  -14.0498 C   0  0  0  0  0  0  0  0  0  0  0  0
  -15.3645    0.7024  -14.8540 C   0  0  0  0  0  0  0  0  0  0  0  0
  -15.1565    2.0538  -15.2228 C   0  0  0  0  0  0  0  0  0  0  0  0
  -16.0658    2.8349  -15.9634 C   0  0  0  0  0  0  0  0  0  0  0  0
  -15.7845    4.1009  -16.3365 N   0  0  0  0  0  0  0  0  0  0  0  0
  -14.6142    4.5994  -15.9341 C   0  0  0  0  0  0  0  0  0  0  0  0
  -13.6926    3.9588  -15.2074 N   0  0  0  0  0  0  0  0  0  0  0  0
  -13.9709    2.7017  -14.8584 C   0  0  0  0  0  0  0  0  0  0  0  0
  -13.0394    1.9998  -14.1092 C   0  0  0  0  0  0  0  0  0  0  0  0
  -13.2427    0.6737  -13.7085 C   0  0  0  0  0  0  0  0  0  0  0  0
  -15.5158   -1.3476  -12.4003 C   0  0  0  0  0  0  0  0  0  0  0  0
  -15.9243   -0.4198  -11.7109 O   0  0  0  0  0  0  0  0  0  0  0  0
  -14.7802   -1.2373  -13.5598 N   0  0  0  0  0  0  0  0  0  0  0  0
  -14.8942   -1.9897  -14.2401 H   0  0  0  0  0  0  0  0  0  0  0  0
  -15.9378   -3.1559  -10.7678 C   0  0  0  0  0  0  0  0  0  0  0  0
  -15.8033   -2.7696  -12.0491 C   0  0  0  0  0  0  0  0  0  0  0  0
  -17.3186    2.2831  -16.3096 N   0  0  0  0  0  0  0  0  0  0  0  0
  -17.2302    1.4953  -16.9457 H   0  0  0  0  0  0  0  0  0  0  0  0
  -18.4964    2.2566  -15.5369 C   0  0  0  0  0  0  0  0  0  0  0  0
  -19.2276    3.4198  -15.2826 C   0  0  0  0  0  0  0  0  0  0  0  0
  -20.5057    3.3562  -14.7232 C   0  0  0  0  0  0  0  0  0  0  0  0
  -21.0514    2.1182  -14.3840 C   0  0  0  0  0  0  0  0  0  0  0  0
  -22.8351    2.0256  -13.7687 Br  0  0  0  0  0  0  0  0  0  0  0  0
  -20.3087    0.9535  -14.5403 C   0  0  0  0  0  0  0  0  0  0  0  0
  -19.0424    1.0331  -15.1175 C   0  0  0  0  0  0  0  0  0  0  0  0
  -18.3445   -0.0991  -15.2989 F   0  0  0  0  0  0  0  0  0  0  0  0
  -12.1825    0.1520  -13.0233 O   0  0  0  0  0  0  0  0  0  0  0  0
  -11.1695   -0.5252  -13.7632 C   0  0  0  0  0  0  0  0  0  0  0  0
  -10.7710   -1.8888  -13.1844 C   0  0  0  0  0  0  0  0  0  0  0  0
  -11.6757   -2.9288  -13.6129 N   0  0  0  0  0  0  0  0  0  0  0  0
  -12.3709   -3.7201  -12.7339 C   0  0  0  0  0  0  0  0  0  0  0  0
  -12.2539   -3.6140  -11.5129 O   0  0  0  0  0  0  0  0  0  0  0  0
  -11.9863   -2.9353  -14.5842 H   0  0  0  0  0  0  0  0  0  0  0  0
  -13.1976   -4.8134  -13.4154 C   0  0  0  0  0  0  0  0  0  0  0  0
  -13.2957   -4.5199  -14.9189 C   0  0  0  0  0  0  0  0  0  0  0  0
  -12.6165   -6.2270  -13.1930 C   0  0  0  0  0  0  0  0  0  0  0  0
  -13.4626   -7.1928  -12.4435 N   0  0  0  0  0  0  0  0  0  0  0  0
  -14.1781   -6.5872  -11.3137 C   0  0  0  0  0  0  0  0  0  0  0  0
  -14.4386   -7.7860  -13.3705 C   0  0  0  0  0  0  0  0  0  0  0  0
 15 16  2  0  0  0
 16 11  1  0  0  0
 11 12  2  0  0  0
 11 13  1  0  0  0
 13  1  1  0  0  0
 13 14  1  0  0  0
  1  2  1  0  0  0
  1 10  2  0  0  0
  2  3  2  0  0  0
  3  4  1  0  0  0
  3  8  1  0  0  0
  4 17  1  0  0  0
  4  5  2  0  0  0
 17 19  1  0  0  0
 17 18  1  0  0  0
 19 20  1  0  0  0
 19 25  2  0  0  0
 20 21  2  0  0  0
 21 22  1  0  0  0
 22 23  1  0  0  0
 22 24  2  0  0  0
 24 25  1  0  0  0
 25 26  1  0  0  0
  5  6  1  0  0  0
  6  7  2  0  0  0
  7  8  1  0  0  0
  8  9  2  0  0  0
  9 10  1  0  0  0
 10 27  1  0  0  0
 27 28  1  0  0  0
 28 29  1  0  0  0
 29 30  1  0  0  0
 30 31  1  0  0  0
 30 33  1  0  0  0
 31 32  2  0  0  0
 31 34  1  0  0  0
 34 35  1  0  0  0
 34 36  1  0  0  0
 36 37  1  0  0  0
 37 38  1  0  0  0
 37 39  1  0  0  0
M  END
> <minimizedAffinity>
-7.52176

$$$$
