CHEMBL4436576


 26 28  0  0  0  0  0  0  0  0999 V2000
  -28.9491   -4.5503   -7.4240 C   0  0  0  0  0  0  0  0  0  0  0  0
  -29.2943   -3.8271   -6.2908 C   0  0  0  0  0  0  0  0  0  0  0  0
  -28.9164   -2.5075   -6.1638 C   0  0  0  0  0  0  0  0  0  0  0  0
  -29.2916   -1.8282   -5.0621 N   0  0  0  0  0  0  0  0  0  0  0  0
  -28.9060   -0.5345   -4.9881 C   0  0  0  0  0  0  0  0  0  0  0  0
  -28.1659    0.0675   -5.9801 C   0  0  0  0  0  0  0  0  0  0  0  0
  -27.7827   -0.5956   -7.0897 N   0  0  0  0  0  0  0  0  0  0  0  0
  -28.1556   -1.9034   -7.1816 C   0  0  0  0  0  0  0  0  0  0  0  0
  -27.8293   -2.7005   -8.2903 C   0  0  0  0  0  0  0  0  0  0  0  0
  -28.2172   -3.9957   -8.4210 N   0  0  0  0  0  0  0  0  0  0  0  0
  -30.5573  -10.0986   -8.1539 C   0  0  0  0  0  0  0  0  0  0  0  0
  -30.1387   -8.6712   -7.9685 C   0  0  0  0  0  0  0  0  0  0  0  0
  -28.8828   -8.2346   -8.3895 C   0  0  0  0  0  0  0  0  0  0  0  0
  -28.4994   -6.9031   -8.2067 C   0  0  0  0  0  0  0  0  0  0  0  0
  -29.3557   -5.9612   -7.6043 C   0  0  0  0  0  0  0  0  0  0  0  0
  -30.6165   -6.4186   -7.1870 C   0  0  0  0  0  0  0  0  0  0  0  0
  -31.0054   -7.7531   -7.3677 C   0  0  0  0  0  0  0  0  0  0  0  0
  -26.9596   -2.1340   -9.2504 N   0  0  0  0  0  0  0  0  0  0  0  0
  -26.3824   -1.4429   -8.7665 H   0  0  0  0  0  0  0  0  0  0  0  0
  -27.5773   -1.6160  -10.4581 C   0  0  0  0  0  0  0  0  0  0  0  0
  -26.6257   -1.8723  -11.6344 C   0  0  0  0  0  0  0  0  0  0  0  0
  -25.6666   -0.7033  -11.9083 C   0  0  0  0  0  0  0  0  0  0  0  0
  -24.2319   -1.1288  -12.2243 C   0  0  0  0  0  0  0  0  0  0  0  0
  -23.7101   -2.0433  -11.2123 N   0  0  0  0  0  0  0  0  0  0  0  0
  -23.6970   -1.5837  -10.3035 H   0  0  0  0  0  0  0  0  0  0  0  0
  -22.7378   -2.2566  -11.4271 H   0  0  0  0  0  0  0  0  0  0  0  0
 11 12  1  0  0  0
 12 13  1  0  0  0
 12 17  2  0  0  0
 13 14  2  0  0  0
 14 15  1  0  0  0
 15  1  1  0  0  0
 15 16  2  0  0  0
  1  2  1  0  0  0
  1 10  2  0  0  0
  2  3  2  0  0  0
  3  4  1  0  0  0
  3  8  1  0  0  0
  4  5  2  0  0  0
  5  6  1  0  0  0
  6  7  2  0  0  0
  7  8  1  0  0  0
  8  9  2  0  0  0
  9 18  1  0  0  0
  9 10  1  0  0  0
 18 20  1  0  0  0
 18 19  1  0  0  0
 20 21  1  0  0  0
 21 22  1  0  0  0
 22 23  1  0  0  0
 23 24  1  0  0  0
 24 25  1  0  0  0
 24 26  1  0  0  0
 16 17  1  0  0  0
M  END
> <minimizedAffinity>
-7.58049

$$$$
