CHEMBL1085291


 38 45  0  0  0  0  0  0  0  0999 V2000
  -15.1952    5.1627  -19.3455 C   0  0  0  0  0  0  0  0  0  0  0  0
  -14.2750    4.1906  -18.7934 N   0  0  0  0  0  0  0  0  0  0  0  0
  -14.3294    2.7992  -18.7700 C   0  0  0  0  0  0  0  0  0  0  0  0
  -13.2693    2.3446  -17.9632 C   0  0  0  0  0  0  0  0  0  0  0  0
  -13.0254    3.5919  -17.2518 C   0  0  0  0  0  0  0  0  0  0  0  0
  -13.4075    4.6810  -17.9043 N   0  0  0  0  0  0  0  0  0  0  0  0
  -12.8662    3.6722  -15.7625 C   0  0  0  0  0  0  0  0  0  0  0  0
  -12.3948    2.3259  -15.2791 C   0  0  0  0  0  0  0  0  0  0  0  0
  -13.4102    1.3290  -15.8364 C   0  0  0  0  0  0  0  0  0  0  0  0
  -13.2292    1.0499  -17.2042 C   0  0  0  0  0  0  0  0  0  0  0  0
  -12.4484   -0.1463  -17.2668 C   0  0  0  0  0  0  0  0  0  0  0  0
  -12.5256   -1.1846  -16.2271 C   0  0  0  0  0  0  0  0  0  0  0  0
  -13.5104   -0.9866  -15.2341 C   0  0  0  0  0  0  0  0  0  0  0  0
  -13.9993   -1.7796  -14.1945 C   0  0  0  0  0  0  0  0  0  0  0  0
  -13.7303   -3.0098  -13.5537 C   0  0  0  0  0  0  0  0  0  0  0  0
  -14.5498   -3.4456  -12.4810 C   0  0  0  0  0  0  0  0  0  0  0  0
  -15.7108   -2.7252  -12.1851 C   0  0  0  0  0  0  0  0  0  0  0  0
  -15.9759   -1.4888  -12.7560 C   0  0  0  0  0  0  0  0  0  0  0  0
  -15.0849   -1.0038  -13.7100 C   0  0  0  0  0  0  0  0  0  0  0  0
  -15.0642    0.2084  -14.3629 N   0  0  0  0  0  0  0  0  0  0  0  0
  -13.9201    0.2963  -15.1035 C   0  0  0  0  0  0  0  0  0  0  0  0
  -11.4519   -2.1635  -16.3043 C   0  0  0  0  0  0  0  0  0  0  0  0
  -10.7287   -1.6048  -17.4355 N   0  0  0  0  0  0  0  0  0  0  0  0
  -11.2745   -0.4601  -18.0423 C   0  0  0  0  0  0  0  0  0  0  0  0
  -10.6965    0.1267  -18.9497 O   0  0  0  0  0  0  0  0  0  0  0  0
   -9.7649   -1.8407  -17.6296 H   0  0  0  0  0  0  0  0  0  0  0  0
  -14.1193   -4.6332  -11.6259 C   0  0  0  0  0  0  0  0  0  0  0  0
  -13.0303   -5.5715  -12.1849 C   0  0  0  0  0  0  0  0  0  0  0  0
  -13.5313   -6.4751  -13.3144 C   0  0  0  0  0  0  0  0  0  0  0  0
  -14.8432   -7.1478  -12.9494 C   0  0  0  0  0  0  0  0  0  0  0  0
  -15.8341   -6.1703  -12.3316 C   0  0  0  0  0  0  0  0  0  0  0  0
  -15.2619   -5.4260  -11.2534 O   0  0  0  0  0  0  0  0  0  0  0  0
  -16.0890    1.2236  -14.5113 C   0  0  0  0  0  0  0  0  0  0  0  0
  -17.3317    0.9575  -13.6675 C   0  0  0  0  0  0  0  0  0  0  0  0
  -18.2446    2.1794  -13.7193 C   0  0  0  0  0  0  0  0  0  0  0  0
  -18.5676    2.5867  -15.1543 C   0  0  0  0  0  0  0  0  0  0  0  0
  -17.2980    2.8306  -15.9874 C   0  0  0  0  0  0  0  0  0  0  0  0
  -16.3779    1.6157  -15.9603 C   0  0  0  0  0  0  0  0  0  0  0  0
  1  2  1  0  0  0
  2  3  1  0  0  0
  2  6  1  0  0  0
  3  4  2  0  0  0
  4  5  1  0  0  0
  4 10  1  0  0  0
  5  6  2  0  0  0
  5  7  1  0  0  0
  7  8  1  0  0  0
  8  9  1  0  0  0
  9 10  1  0  0  0
  9 21  2  0  0  0
 10 11  2  0  0  0
 11 12  1  0  0  0
 11 24  1  0  0  0
 12 13  2  0  0  0
 12 22  1  0  0  0
 13 14  1  0  0  0
 13 21  1  0  0  0
 14 15  1  0  0  0
 14 19  2  0  0  0
 15 16  2  0  0  0
 16 27  1  0  0  0
 16 17  1  0  0  0
 27 28  1  0  0  0
 27 32  1  0  0  0
 28 29  1  0  0  0
 29 30  1  0  0  0
 30 31  1  0  0  0
 31 32  1  0  0  0
 17 18  2  0  0  0
 18 19  1  0  0  0
 19 20  1  0  0  0
 20 33  1  0  0  0
 20 21  1  0  0  0
 33 34  1  0  0  0
 33 38  1  0  0  0
 34 35  1  0  0  0
 35 36  1  0  0  0
 36 37  1  0  0  0
 37 38  1  0  0  0
 22 23  1  0  0  0
 23 24  1  0  0  0
 23 26  1  0  0  0
 24 25  2  0  0  0
M  END
> <minimizedAffinity>
-8.21095

$$$$
