CHEMBL3621294


 34 36  0  0  0  0  0  0  0  0999 V2000
  -18.1574    1.4520  -15.0108 C   0  0  0  0  0  0  0  0  0  0  0  0
  -18.2765    2.8348  -15.2385 C   0  0  0  0  0  0  0  0  0  0  0  0
  -19.5081    3.4719  -15.1050 C   0  0  0  0  0  0  0  0  0  0  0  0
  -20.5698    2.7066  -14.6695 C   0  0  0  0  0  0  0  0  0  0  0  0
  -20.4592    1.3495  -14.3462 C   0  0  0  0  0  0  0  0  0  0  0  0
  -19.2498    0.6957  -14.5433 C   0  0  0  0  0  0  0  0  0  0  0  0
  -21.7985    0.9285  -13.8967 C   0  0  0  0  0  0  0  0  0  0  0  0
  -22.1605   -0.2796  -13.4397 C   0  0  0  0  0  0  0  0  0  0  0  0
  -22.6979    2.1433  -14.0363 C   0  0  0  0  0  0  0  0  0  0  0  0
  -23.8794    2.2712  -13.7697 O   0  0  0  0  0  0  0  0  0  0  0  0
  -21.8756    3.1505  -14.5050 N   0  0  0  0  0  0  0  0  0  0  0  0
  -22.2195    4.0760  -14.7048 H   0  0  0  0  0  0  0  0  0  0  0  0
  -23.5075   -0.6020  -13.1479 C   0  0  0  0  0  0  0  0  0  0  0  0
  -24.4894   -1.2376  -13.8781 C   0  0  0  0  0  0  0  0  0  0  0  0
  -25.6856   -1.1942  -13.1216 C   0  0  0  0  0  0  0  0  0  0  0  0
  -25.3952   -0.5641  -11.9325 C   0  0  0  0  0  0  0  0  0  0  0  0
  -24.0656   -0.2130  -11.9499 N   0  0  0  0  0  0  0  0  0  0  0  0
  -23.5959    0.3030  -11.2219 H   0  0  0  0  0  0  0  0  0  0  0  0
  -15.9858    0.5797  -14.3048 C   0  0  0  0  0  0  0  0  0  0  0  0
  -16.1277    0.8286  -13.1117 O   0  0  0  0  0  0  0  0  0  0  0  0
  -16.9068    0.8675  -15.2990 N   0  0  0  0  0  0  0  0  0  0  0  0
  -16.8698    0.2622  -16.1097 H   0  0  0  0  0  0  0  0  0  0  0  0
  -14.7553   -0.1455  -14.8184 C   0  0  0  0  0  0  0  0  0  0  0  0
  -14.0857   -0.9775  -13.7232 C   0  0  0  0  0  0  0  0  0  0  0  0
  -14.3613   -2.4823  -13.8539 C   0  0  0  0  0  0  0  0  0  0  0  0
  -15.7844   -2.8706  -13.4427 C   0  0  0  0  0  0  0  0  0  0  0  0
  -15.8778   -3.2235  -11.9574 C   0  0  0  0  0  0  0  0  0  0  0  0
  -16.5381   -4.5883  -11.7627 C   0  0  0  0  0  0  0  0  0  0  0  0
  -14.7719   -6.1061  -12.4638 O   0  0  0  0  0  0  0  0  0  0  0  0
  -15.9069   -5.6645  -12.6193 C   0  0  0  0  0  0  0  0  0  0  0  0
  -16.7372   -6.1228  -13.6119 N   0  0  0  0  0  0  0  0  0  0  0  0
  -16.2158   -7.1146  -14.4690 O   0  0  0  0  0  0  0  0  0  0  0  0
  -17.6626   -5.7653  -13.8185 H   0  0  0  0  0  0  0  0  0  0  0  0
  -15.3105   -7.2452  -14.1101 H   0  0  0  0  0  0  0  0  0  0  0  0
 29 30  2  0  0  0
 30 28  1  0  0  0
 30 31  1  0  0  0
 28 27  1  0  0  0
 27 26  1  0  0  0
 26 25  1  0  0  0
 25 24  1  0  0  0
 24 23  1  0  0  0
 23 19  1  0  0  0
 19 20  2  0  0  0
 19 21  1  0  0  0
 21  1  1  0  0  0
 21 22  1  0  0  0
  1  2  1  0  0  0
  1  6  2  0  0  0
  2  3  2  0  0  0
  3  4  1  0  0  0
  4  5  2  0  0  0
  4 11  1  0  0  0
  5  6  1  0  0  0
  5  7  1  0  0  0
  7  8  2  0  0  0
  7  9  1  0  0  0
  8 13  1  0  0  0
 13 14  2  0  0  0
 13 17  1  0  0  0
 14 15  1  0  0  0
 15 16  2  0  0  0
 16 17  1  0  0  0
 17 18  1  0  0  0
  9 10  2  0  0  0
  9 11  1  0  0  0
 11 12  1  0  0  0
 31 32  1  0  0  0
 31 33  1  0  0  0
 32 34  1  0  0  0
M  END
> <minimizedAffinity>
-9.13707

$$$$
