CHEMBL3656072


 47 51  0  0  0  0  0  0  0  0999 V2000
  -21.9517    0.8319  -14.5186 C   0  0  0  0  0  0  0  0  0  0  0  0
  -22.4327    2.0715  -14.1094 C   0  0  0  0  0  0  0  0  0  0  0  0
  -21.5484    3.1314  -14.0438 C   0  0  0  0  0  0  0  0  0  0  0  0
  -20.2279    3.0306  -14.3058 N   0  0  0  0  0  0  0  0  0  0  0  0
  -19.7721    1.7995  -14.6491 C   0  0  0  0  0  0  0  0  0  0  0  0
  -20.5916    0.6804  -14.7475 C   0  0  0  0  0  0  0  0  0  0  0  0
  -18.3388    1.7365  -14.9450 C   0  0  0  0  0  0  0  0  0  0  0  0
  -17.3654    0.8239  -14.5525 C   0  0  0  0  0  0  0  0  0  0  0  0
  -16.1034    1.2381  -15.0770 C   0  0  0  0  0  0  0  0  0  0  0  0
  -16.3663    2.3736  -15.8259 C   0  0  0  0  0  0  0  0  0  0  0  0
  -17.7122    2.6452  -15.7601 N   0  0  0  0  0  0  0  0  0  0  0  0
  -18.1908    3.4017  -16.2234 H   0  0  0  0  0  0  0  0  0  0  0  0
  -14.8086    0.5936  -14.8604 C   0  0  0  0  0  0  0  0  0  0  0  0
  -13.7711    1.2329  -14.7176 O   0  0  0  0  0  0  0  0  0  0  0  0
  -14.8343   -0.7819  -14.8472 N   0  0  0  0  0  0  0  0  0  0  0  0
  -15.6840   -1.2867  -15.0622 H   0  0  0  0  0  0  0  0  0  0  0  0
  -13.6284   -1.5612  -14.6788 C   0  0  0  0  0  0  0  0  0  0  0  0
  -13.5434   -2.1651  -13.2764 C   0  0  0  0  0  0  0  0  0  0  0  0
  -12.8079   -1.6744  -12.4079 O   0  0  0  0  0  0  0  0  0  0  0  0
  -14.3491   -3.2548  -13.0140 N   0  0  0  0  0  0  0  0  0  0  0  0
  -14.4879   -3.7836  -11.6683 C   0  0  0  0  0  0  0  0  0  0  0  0
  -15.6693   -4.7477  -11.7213 C   0  0  0  0  0  0  0  0  0  0  0  0
  -16.3936   -4.3972  -13.0202 C   0  0  0  0  0  0  0  0  0  0  0  0
  -17.1001   -5.5063  -13.5474 O   0  0  0  0  0  0  0  0  0  0  0  0
  -15.2649   -3.9164  -13.9296 C   0  0  0  0  0  0  0  0  0  0  0  0
  -16.5114   -6.2805  -13.5522 H   0  0  0  0  0  0  0  0  0  0  0  0
  -22.7517   -0.2789  -14.7004 O   0  0  0  0  0  0  0  0  0  0  0  0
  -26.0823   -0.9915  -12.2415 C   0  0  0  0  0  0  0  0  0  0  0  0
  -25.0457   -0.1735  -11.7826 C   0  0  0  0  0  0  0  0  0  0  0  0
  -23.9437    0.1055  -12.5922 C   0  0  0  0  0  0  0  0  0  0  0  0
  -23.8227   -0.4856  -13.8515 C   0  0  0  0  0  0  0  0  0  0  0  0
  -24.8562   -1.3031  -14.3184 C   0  0  0  0  0  0  0  0  0  0  0  0
  -25.9761   -1.5739  -13.5088 C   0  0  0  0  0  0  0  0  0  0  0  0
  -28.3086   -1.9303   -9.5077 N   0  0  0  0  0  0  0  0  0  0  0  0
  -27.1195   -1.8102  -10.2193 C   0  0  0  0  0  0  0  0  0  0  0  0
  -26.0202   -2.1766   -9.8116 O   0  0  0  0  0  0  0  0  0  0  0  0
  -27.2569   -1.1513  -11.4458 N   0  0  0  0  0  0  0  0  0  0  0  0
  -29.1276   -1.4866   -9.8938 H   0  0  0  0  0  0  0  0  0  0  0  0
  -27.8958   -0.3707  -11.4366 H   0  0  0  0  0  0  0  0  0  0  0  0
  -29.7319   -5.8316   -6.7270 C   0  0  0  0  0  0  0  0  0  0  0  0
  -29.1489   -4.4507   -6.8493 C   0  0  0  0  0  0  0  0  0  0  0  0
  -28.7758   -3.7758   -5.6836 C   0  0  0  0  0  0  0  0  0  0  0  0
  -28.2202   -2.5086   -5.7675 C   0  0  0  0  0  0  0  0  0  0  0  0
  -28.0383   -1.9006   -7.0086 C   0  0  0  0  0  0  0  0  0  0  0  0
  -27.3769   -0.7383   -6.9827 F   0  0  0  0  0  0  0  0  0  0  0  0
  -28.4321   -2.5217   -8.2080 C   0  0  0  0  0  0  0  0  0  0  0  0
  -28.9726   -3.8220   -8.1063 C   0  0  0  0  0  0  0  0  0  0  0  0
 40 41  1  0  0  0
 41 42  1  0  0  0
 41 47  2  0  0  0
 42 43  2  0  0  0
 43 44  1  0  0  0
 44 45  1  0  0  0
 44 46  2  0  0  0
 46 34  1  0  0  0
 46 47  1  0  0  0
 34 35  1  0  0  0
 34 38  1  0  0  0
 35 36  2  0  0  0
 35 37  1  0  0  0
 37 28  1  0  0  0
 37 39  1  0  0  0
 28 29  1  0  0  0
 28 33  2  0  0  0
 29 30  2  0  0  0
 30 31  1  0  0  0
 31 27  1  0  0  0
 31 32  2  0  0  0
 27  1  1  0  0  0
  1  2  1  0  0  0
  1  6  2  0  0  0
  2  3  2  0  0  0
  3  4  1  0  0  0
  4  5  2  0  0  0
  5  7  1  0  0  0
  5  6  1  0  0  0
  7  8  2  0  0  0
  7 11  1  0  0  0
  8  9  1  0  0  0
  9 13  1  0  0  0
  9 10  2  0  0  0
 13 14  2  0  0  0
 13 15  1  0  0  0
 15 17  1  0  0  0
 15 16  1  0  0  0
 17 18  1  0  0  0
 18 19  2  0  0  0
 18 20  1  0  0  0
 20 21  1  0  0  0
 20 25  1  0  0  0
 21 22  1  0  0  0
 22 23  1  0  0  0
 23 24  1  0  0  0
 23 25  1  0  0  0
 24 26  1  0  0  0
 10 11  1  0  0  0
 11 12  1  0  0  0
 32 33  1  0  0  0
M  END
> <minimizedAffinity>
-12.11389

$$$$
