CHEMBL3747565


 33 37  0  0  0  0  0  0  0  0999 V2000
  -20.1129    1.1363  -14.5717 N   0  0  0  0  0  0  0  0  0  0  0  0
  -19.7100    2.4533  -14.6046 C   0  0  0  0  0  0  0  0  0  0  0  0
  -20.3507    3.4670  -14.3677 O   0  0  0  0  0  0  0  0  0  0  0  0
  -18.4057    2.6011  -15.1227 N   0  0  0  0  0  0  0  0  0  0  0  0
  -18.0524    3.6619  -15.9412 C   0  0  0  0  0  0  0  0  0  0  0  0
  -16.7268    3.5780  -16.2627 C   0  0  0  0  0  0  0  0  0  0  0  0
  -16.1969    2.4639  -15.5644 C   0  0  0  0  0  0  0  0  0  0  0  0
  -14.8838    1.9729  -15.4228 C   0  0  0  0  0  0  0  0  0  0  0  0
  -14.6334    0.8937  -14.5739 C   0  0  0  0  0  0  0  0  0  0  0  0
  -15.6994    0.2439  -13.9513 C   0  0  0  0  0  0  0  0  0  0  0  0
  -17.0172    0.7134  -14.0739 C   0  0  0  0  0  0  0  0  0  0  0  0
  -17.2552    1.8352  -14.8867 C   0  0  0  0  0  0  0  0  0  0  0  0
  -19.5494    0.4152  -14.9985 H   0  0  0  0  0  0  0  0  0  0  0  0
  -23.3034   -0.0688  -13.4903 C   0  0  0  0  0  0  0  0  0  0  0  0
  -21.9859   -0.3948  -13.9186 C   0  0  0  0  0  0  0  0  0  0  0  0
  -21.3901    0.8170  -14.1698 C   0  0  0  0  0  0  0  0  0  0  0  0
  -22.2967    1.8034  -13.9395 O   0  0  0  0  0  0  0  0  0  0  0  0
  -23.4927    1.2548  -13.5138 N   0  0  0  0  0  0  0  0  0  0  0  0
  -23.7496   -2.2215  -12.3238 C   0  0  0  0  0  0  0  0  0  0  0  0
  -24.3960   -0.9976  -13.0047 C   0  0  0  0  0  0  0  0  0  0  0  0
  -25.2612   -1.4788  -14.1880 C   0  0  0  0  0  0  0  0  0  0  0  0
  -25.3349   -0.3233  -11.9806 C   0  0  0  0  0  0  0  0  0  0  0  0
  -13.2935    0.5628  -14.4357 O   0  0  0  0  0  0  0  0  0  0  0  0
  -12.9966   -0.7715  -14.2316 C   0  0  0  0  0  0  0  0  0  0  0  0
  -13.0835   -1.2772  -12.9823 N   0  0  0  0  0  0  0  0  0  0  0  0
  -13.1104   -2.6200  -12.8914 C   0  0  0  0  0  0  0  0  0  0  0  0
  -13.0985   -3.4878  -13.9205 N   0  0  0  0  0  0  0  0  0  0  0  0
  -12.9511   -2.9065  -15.1176 C   0  0  0  0  0  0  0  0  0  0  0  0
  -12.8253   -1.5564  -15.3274 C   0  0  0  0  0  0  0  0  0  0  0  0
  -12.7414   -1.2761  -16.7754 C   0  0  0  0  0  0  0  0  0  0  0  0
  -13.4606   -2.4162  -17.3960 N   0  0  0  0  0  0  0  0  0  0  0  0
  -13.1792   -3.5567  -16.4622 C   0  0  0  0  0  0  0  0  0  0  0  0
  -14.4552   -2.2050  -17.2981 H   0  0  0  0  0  0  0  0  0  0  0  0
 19 20  1  0  0  0
 20 21  1  0  0  0
 20 22  1  0  0  0
 20 14  1  0  0  0
 14 15  1  0  0  0
 14 18  2  0  0  0
 15 16  2  0  0  0
 16  1  1  0  0  0
 16 17  1  0  0  0
  1  2  1  0  0  0
  1 13  1  0  0  0
  2  3  2  0  0  0
  2  4  1  0  0  0
  4  5  1  0  0  0
  4 12  1  0  0  0
  5  6  2  0  0  0
  6  7  1  0  0  0
  7  8  1  0  0  0
  7 12  2  0  0  0
  8  9  2  0  0  0
  9 23  1  0  0  0
  9 10  1  0  0  0
 23 24  1  0  0  0
 24 25  1  0  0  0
 24 29  2  0  0  0
 25 26  2  0  0  0
 26 27  1  0  0  0
 27 28  2  0  0  0
 28 29  1  0  0  0
 28 32  1  0  0  0
 29 30  1  0  0  0
 30 31  1  0  0  0
 31 32  1  0  0  0
 31 33  1  0  0  0
 10 11  2  0  0  0
 11 12  1  0  0  0
 17 18  1  0  0  0
M  END
> <minimizedAffinity>
-9.50588

$$$$
