CHEMBL188978


 34 36  0  0  0  0  0  0  0  0999 V2000
  -15.1588   -0.2231  -13.8649 C   0  0  0  0  0  0  0  0  0  0  0  0
  -15.9598   -1.2730  -13.4490 C   0  0  0  0  0  0  0  0  0  0  0  0
  -15.4692   -2.5553  -13.4611 C   0  0  0  0  0  0  0  0  0  0  0  0
  -16.3064   -3.5653  -13.2167 N   0  0  0  0  0  0  0  0  0  0  0  0
  -15.8631   -4.8264  -13.3666 C   0  0  0  0  0  0  0  0  0  0  0  0
  -16.8709   -5.7745  -13.1926 N   0  0  0  0  0  0  0  0  0  0  0  0
  -14.5409   -5.1609  -13.7230 C   0  0  0  0  0  0  0  0  0  0  0  0
  -13.6600   -4.0809  -13.8995 C   0  0  0  0  0  0  0  0  0  0  0  0
  -14.1250   -2.7609  -13.7973 C   0  0  0  0  0  0  0  0  0  0  0  0
  -13.3509   -1.6364  -14.0683 C   0  0  0  0  0  0  0  0  0  0  0  0
  -13.8507   -0.3849  -14.1331 N   0  0  0  0  0  0  0  0  0  0  0  0
  -17.7002   -5.2705  -12.8903 H   0  0  0  0  0  0  0  0  0  0  0  0
  -16.5914   -6.5022  -12.5446 H   0  0  0  0  0  0  0  0  0  0  0  0
  -14.0845   -6.5558  -13.9312 C   0  0  0  0  0  0  0  0  0  0  0  0
  -13.7929   -7.3934  -12.8369 C   0  0  0  0  0  0  0  0  0  0  0  0
  -13.2272   -8.6561  -13.0064 C   0  0  0  0  0  0  0  0  0  0  0  0
  -13.0409   -9.1532  -14.2952 C   0  0  0  0  0  0  0  0  0  0  0  0
  -13.4030   -8.3890  -15.4022 C   0  0  0  0  0  0  0  0  0  0  0  0
  -13.9071   -7.0954  -15.2145 C   0  0  0  0  0  0  0  0  0  0  0  0
  -12.8082   -9.4785  -11.9941 O   0  0  0  0  0  0  0  0  0  0  0  0
  -11.4193   -9.7972  -11.9672 C   0  0  0  0  0  0  0  0  0  0  0  0
  -13.3007   -8.7739  -16.7120 O   0  0  0  0  0  0  0  0  0  0  0  0
  -13.6191   -7.7920  -17.6911 C   0  0  0  0  0  0  0  0  0  0  0  0
  -15.7910    1.0013  -14.0846 N   0  0  0  0  0  0  0  0  0  0  0  0
  -15.4322    1.7028  -13.4487 H   0  0  0  0  0  0  0  0  0  0  0  0
  -15.9408    1.4058  -15.4736 C   0  0  0  0  0  0  0  0  0  0  0  0
  -17.3354    1.9948  -15.6800 C   0  0  0  0  0  0  0  0  0  0  0  0
  -18.3539    1.5284  -14.6329 C   0  0  0  0  0  0  0  0  0  0  0  0
  -19.4795    0.6420  -15.1910 C   0  0  0  0  0  0  0  0  0  0  0  0
  -20.8342    1.1957  -15.0148 N   0  0  0  0  0  0  0  0  0  0  0  0
  -22.6266   -0.2143  -13.9177 C   0  0  0  0  0  0  0  0  0  0  0  0
  -21.4435    0.7333  -13.7563 C   0  0  0  0  0  0  0  0  0  0  0  0
  -20.8389    2.6597  -15.1840 C   0  0  0  0  0  0  0  0  0  0  0  0
  -21.7810    3.4414  -14.2712 C   0  0  0  0  0  0  0  0  0  0  0  0
 31 32  1  0  0  0
 32 30  1  0  0  0
 30 33  1  0  0  0
 30 29  1  0  0  0
 33 34  1  0  0  0
 29 28  1  0  0  0
 28 27  1  0  0  0
 27 26  1  0  0  0
 26 24  1  0  0  0
 24  1  1  0  0  0
 24 25  1  0  0  0
  1  2  1  0  0  0
  1 11  2  0  0  0
  2  3  2  0  0  0
  3  4  1  0  0  0
  3  9  1  0  0  0
  4  5  2  0  0  0
  5  6  1  0  0  0
  5  7  1  0  0  0
  6 12  1  0  0  0
  6 13  1  0  0  0
  7 14  1  0  0  0
  7  8  2  0  0  0
 14 15  1  0  0  0
 14 19  2  0  0  0
 15 16  2  0  0  0
 16 20  1  0  0  0
 16 17  1  0  0  0
 20 21  1  0  0  0
 17 18  2  0  0  0
 18 22  1  0  0  0
 18 19  1  0  0  0
 22 23  1  0  0  0
  8  9  1  0  0  0
  9 10  2  0  0  0
 10 11  1  0  0  0
M  END
> <minimizedAffinity>
-6.87122

$$$$
