CHEMBL3923190


 38 42  0  0  0  0  0  0  0  0999 V2000
  -27.1515   -9.6317   -4.6768 N   0  0  0  0  0  0  0  0  0  0  0  0
  -27.6852   -8.3537   -4.2821 C   0  0  0  0  0  0  0  0  0  0  0  0
  -28.9123   -8.4228   -3.6193 C   0  0  0  0  0  0  0  0  0  0  0  0
  -29.8103   -7.3862   -3.7107 C   0  0  0  0  0  0  0  0  0  0  0  0
  -29.4794   -6.1951   -4.3212 C   0  0  0  0  0  0  0  0  0  0  0  0
  -30.5212   -5.3706   -4.4910 N   0  0  0  0  0  0  0  0  0  0  0  0
  -30.2389   -4.1404   -4.9325 C   0  0  0  0  0  0  0  0  0  0  0  0
  -28.9468   -3.6992   -5.1296 C   0  0  0  0  0  0  0  0  0  0  0  0
  -27.8857   -4.5737   -5.0607 N   0  0  0  0  0  0  0  0  0  0  0  0
  -28.1507   -5.9014   -4.7119 C   0  0  0  0  0  0  0  0  0  0  0  0
  -27.2697   -7.0628   -4.7304 C   0  0  0  0  0  0  0  0  0  0  0  0
  -28.7880   -2.2505   -5.2427 C   0  0  0  0  0  0  0  0  0  0  0  0
  -27.7016   -1.4276   -4.8342 C   0  0  0  0  0  0  0  0  0  0  0  0
  -28.0089   -0.1242   -4.8306 N   0  0  0  0  0  0  0  0  0  0  0  0
  -29.2894   -0.1033   -5.2347 N   0  0  0  0  0  0  0  0  0  0  0  0
  -29.9107    1.1339   -5.6432 C   0  0  0  0  0  0  0  0  0  0  0  0
  -29.8395   -1.3530   -5.3183 C   0  0  0  0  0  0  0  0  0  0  0  0
  -23.4865  -10.1247   -5.3675 C   0  0  0  0  0  0  0  0  0  0  0  0
  -23.0878  -10.8197   -4.2235 C   0  0  0  0  0  0  0  0  0  0  0  0
  -24.0325  -11.1854   -3.2741 C   0  0  0  0  0  0  0  0  0  0  0  0
  -25.3758  -10.8486   -3.4701 C   0  0  0  0  0  0  0  0  0  0  0  0
  -25.8296  -10.1456   -4.5986 C   0  0  0  0  0  0  0  0  0  0  0  0
  -24.8572   -9.8235   -5.5662 C   0  0  0  0  0  0  0  0  0  0  0  0
  -21.7758  -10.6392   -6.9596 C   0  0  0  0  0  0  0  0  0  0  0  0
  -22.6217   -9.6674   -6.3307 O   0  0  0  0  0  0  0  0  0  0  0  0
  -23.7902  -11.8457   -2.0999 O   0  0  0  0  0  0  0  0  0  0  0  0
  -24.9150  -12.2634   -1.3407 C   0  0  0  0  0  0  0  0  0  0  0  0
  -28.0035  -10.1834   -5.7997 C   0  0  0  0  0  0  0  0  0  0  0  0
  -27.6513   -9.6043   -7.1593 C   0  0  0  0  0  0  0  0  0  0  0  0
  -28.5705   -9.1561   -8.0562 C   0  0  0  0  0  0  0  0  0  0  0  0
  -30.0329   -9.0551   -7.8263 C   0  0  0  0  0  0  0  0  0  0  0  0
  -30.4247   -7.9065   -7.1991 N   0  0  0  0  0  0  0  0  0  0  0  0
  -31.7436   -7.7190   -6.9993 C   0  0  0  0  0  0  0  0  0  0  0  0
  -32.7070   -8.6324   -7.3788 C   0  0  0  0  0  0  0  0  0  0  0  0
  -32.2969   -9.7943   -8.0251 C   0  0  0  0  0  0  0  0  0  0  0  0
  -30.9335  -10.0260   -8.2678 C   0  0  0  0  0  0  0  0  0  0  0  0
  -30.4476  -11.1529   -8.8706 O   0  0  0  0  0  0  0  0  0  0  0  0
  -30.5063  -12.3643   -8.1221 C   0  0  0  0  0  0  0  0  0  0  0  0
 24 25  1  0  0  0
 25 18  1  0  0  0
 18 19  1  0  0  0
 18 23  2  0  0  0
 19 20  2  0  0  0
 20 26  1  0  0  0
 20 21  1  0  0  0
 26 27  1  0  0  0
 21 22  2  0  0  0
 22  1  1  0  0  0
 22 23  1  0  0  0
  1 28  1  0  0  0
  1  2  1  0  0  0
 28 29  1  0  0  0
 29 30  2  0  0  0
 30 31  1  0  0  0
 31 32  1  0  0  0
 31 36  2  0  0  0
 32 33  2  0  0  0
 33 34  1  0  0  0
 34 35  2  0  0  0
 35 36  1  0  0  0
 36 37  1  0  0  0
 37 38  1  0  0  0
  2  3  1  0  0  0
  2 11  2  0  0  0
  3  4  2  0  0  0
  4  5  1  0  0  0
  5  6  1  0  0  0
  5 10  2  0  0  0
  6  7  2  0  0  0
  7  8  1  0  0  0
  8 12  1  0  0  0
  8  9  2  0  0  0
 12 13  1  0  0  0
 12 17  2  0  0  0
 13 14  2  0  0  0
 14 15  1  0  0  0
 15 16  1  0  0  0
 15 17  1  0  0  0
  9 10  1  0  0  0
 10 11  1  0  0  0
M  END
> <minimizedAffinity>
-8.13838

$$$$
