CHEMBL3947189


 37 41  0  0  0  0  0  0  0  0999 V2000
  -24.8824   11.2294  -15.6112 N   0  0  0  0  0  0  0  0  0  0  0  0
  -23.8403   11.6188  -16.6138 C   0  0  0  0  0  0  0  0  0  0  0  0
  -24.3623   12.4011  -17.6385 C   0  0  0  0  0  0  0  0  0  0  0  0
  -23.7299   12.6164  -18.8096 C   0  0  0  0  0  0  0  0  0  0  0  0
  -22.4866   12.1417  -19.0492 C   0  0  0  0  0  0  0  0  0  0  0  0
  -22.0496   12.3441  -20.2907 N   0  0  0  0  0  0  0  0  0  0  0  0
  -20.8327   12.0174  -20.6892 C   0  0  0  0  0  0  0  0  0  0  0  0
  -19.9003   11.5120  -19.7944 C   0  0  0  0  0  0  0  0  0  0  0  0
  -20.3646   11.1870  -18.4848 N   0  0  0  0  0  0  0  0  0  0  0  0
  -21.7068   11.4841  -18.0820 C   0  0  0  0  0  0  0  0  0  0  0  0
  -22.4201   11.1839  -16.7916 C   0  0  0  0  0  0  0  0  0  0  0  0
  -18.4676   11.5277  -20.4430 C   0  0  0  0  0  0  0  0  0  0  0  0
  -17.8700   12.3178  -21.4221 C   0  0  0  0  0  0  0  0  0  0  0  0
  -16.6308   11.8139  -21.7132 N   0  0  0  0  0  0  0  0  0  0  0  0
  -16.3674   10.7554  -20.9634 N   0  0  0  0  0  0  0  0  0  0  0  0
  -17.4473   10.5478  -20.1746 C   0  0  0  0  0  0  0  0  0  0  0  0
  -15.1734    9.8676  -21.1488 C   0  0  0  0  0  0  0  0  0  0  0  0
  -14.1959    9.7935  -19.9546 C   0  0  0  0  0  0  0  0  0  0  0  0
  -15.5956    8.4353  -21.5203 C   0  0  0  0  0  0  0  0  0  0  0  0
  -26.7971   12.4615  -12.5324 C   0  0  0  0  0  0  0  0  0  0  0  0
  -25.7059   12.6585  -11.6653 C   0  0  0  0  0  0  0  0  0  0  0  0
  -24.4054   12.4775  -12.0994 C   0  0  0  0  0  0  0  0  0  0  0  0
  -24.1787   12.0898  -13.4275 C   0  0  0  0  0  0  0  0  0  0  0  0
  -25.2241   11.8385  -14.3365 C   0  0  0  0  0  0  0  0  0  0  0  0
  -26.5536   12.0458  -13.8794 C   0  0  0  0  0  0  0  0  0  0  0  0
  -28.4651   12.5411  -10.7516 C   0  0  0  0  0  0  0  0  0  0  0  0
  -28.0736   12.6348  -12.0832 O   0  0  0  0  0  0  0  0  0  0  0  0
  -23.3971   12.6566  -11.2066 O   0  0  0  0  0  0  0  0  0  0  0  0
  -23.4716   12.4109   -9.8513 C   0  0  0  0  0  0  0  0  0  0  0  0
  -25.6333    9.9722  -16.0003 C   0  0  0  0  0  0  0  0  0  0  0  0
  -27.0769    9.9246  -16.6409 C   0  0  0  0  0  0  0  0  0  0  0  0
  -28.1762   10.9364  -16.1973 C   0  0  0  0  0  0  0  0  0  0  0  0
  -29.3380   10.2306  -15.5607 N   0  0  0  0  0  0  0  0  0  0  0  0
  -30.5472   11.0640  -15.3691 C   0  0  0  0  0  0  0  0  0  0  0  0
  -30.4773   11.5794  -13.9479 C   0  0  0  0  0  0  0  0  0  0  0  0
  -30.0872   10.3100  -13.2439 C   0  0  0  0  0  0  0  0  0  0  0  0
  -29.0208    9.7439  -14.1890 C   0  0  0  0  0  0  0  0  0  0  0  0
 26 27  1  0  0  0
 27 20  1  0  0  0
 20 21  1  0  0  0
 20 25  2  0  0  0
 21 22  2  0  0  0
 22 28  1  0  0  0
 22 23  1  0  0  0
 28 29  1  0  0  0
 23 24  2  0  0  0
 24  1  1  0  0  0
 24 25  1  0  0  0
  1 30  1  0  0  0
  1  2  1  0  0  0
 30 31  1  0  0  0
 31 32  1  0  0  0
 32 33  1  0  0  0
 33 34  1  0  0  0
 33 37  1  0  0  0
 34 35  1  0  0  0
 35 36  1  0  0  0
 36 37  1  0  0  0
  2  3  1  0  0  0
  2 11  2  0  0  0
  3  4  2  0  0  0
  4  5  1  0  0  0
  5  6  1  0  0  0
  5 10  2  0  0  0
  6  7  2  0  0  0
  7  8  1  0  0  0
  8 12  1  0  0  0
  8  9  2  0  0  0
 12 13  1  0  0  0
 12 16  2  0  0  0
 13 14  2  0  0  0
 14 15  1  0  0  0
 15 17  1  0  0  0
 15 16  1  0  0  0
 17 18  1  0  0  0
 17 19  1  0  0  0
  9 10  1  0  0  0
 10 11  1  0  0  0
M  END
> <minimizedAffinity>
-4.71007

$$$$
