CHEMBL405666


 48 52  0  0  0  0  0  0  0  0999 V2000
  -21.6128    0.4859  -14.3079 C   0  0  0  0  0  0  0  0  0  0  0  0
  -22.1383   -0.1104  -15.2315 O   0  0  0  0  0  0  0  0  0  0  0  0
  -22.0283    0.4410  -12.9856 N   0  0  0  0  0  0  0  0  0  0  0  0
  -21.5784    1.0520  -12.3222 H   0  0  0  0  0  0  0  0  0  0  0  0
  -21.6079    3.6624  -14.1022 C   0  0  0  0  0  0  0  0  0  0  0  0
  -20.4508    2.7909  -14.5178 C   0  0  0  0  0  0  0  0  0  0  0  0
  -19.2694    3.4785  -14.8028 C   0  0  0  0  0  0  0  0  0  0  0  0
  -18.0976    2.8115  -15.1535 C   0  0  0  0  0  0  0  0  0  0  0  0
  -18.0329    1.4260  -15.2393 C   0  0  0  0  0  0  0  0  0  0  0  0
  -19.2189    0.7135  -14.9725 C   0  0  0  0  0  0  0  0  0  0  0  0
  -20.4350    1.3848  -14.6180 C   0  0  0  0  0  0  0  0  0  0  0  0
  -16.8147    0.7479  -15.5832 N   0  0  0  0  0  0  0  0  0  0  0  0
  -15.8484    0.3421  -14.6601 C   0  0  0  0  0  0  0  0  0  0  0  0
  -15.9213    0.4953  -13.4429 O   0  0  0  0  0  0  0  0  0  0  0  0
  -14.7255   -0.2424  -15.2343 N   0  0  0  0  0  0  0  0  0  0  0  0
  -16.6996    0.4645  -16.5469 H   0  0  0  0  0  0  0  0  0  0  0  0
  -14.4509    0.1547  -16.1205 H   0  0  0  0  0  0  0  0  0  0  0  0
  -13.6611   -0.6684  -14.3837 C   0  0  0  0  0  0  0  0  0  0  0  0
  -12.5211    0.1270  -14.2518 C   0  0  0  0  0  0  0  0  0  0  0  0
  -11.4574   -0.2911  -13.4438 C   0  0  0  0  0  0  0  0  0  0  0  0
  -11.5086   -1.5237  -12.7954 C   0  0  0  0  0  0  0  0  0  0  0  0
  -12.6419   -2.3405  -12.9141 C   0  0  0  0  0  0  0  0  0  0  0  0
  -13.7284   -1.8876  -13.6905 C   0  0  0  0  0  0  0  0  0  0  0  0
  -12.6753   -3.7003  -12.2577 C   0  0  0  0  0  0  0  0  0  0  0  0
  -13.8856   -4.3221  -12.3658 F   0  0  0  0  0  0  0  0  0  0  0  0
  -11.7668   -4.5712  -12.7744 F   0  0  0  0  0  0  0  0  0  0  0  0
  -12.4192   -3.6362  -10.9206 F   0  0  0  0  0  0  0  0  0  0  0  0
  -23.1157   -0.3159  -12.4694 C   0  0  0  0  0  0  0  0  0  0  0  0
  -23.0896   -1.6520  -12.1517 C   0  0  0  0  0  0  0  0  0  0  0  0
  -24.1656   -2.3338  -11.6981 N   0  0  0  0  0  0  0  0  0  0  0  0
  -25.3275   -1.6728  -11.5569 C   0  0  0  0  0  0  0  0  0  0  0  0
  -25.4636   -0.3690  -11.8332 N   0  0  0  0  0  0  0  0  0  0  0  0
  -24.3500    0.2770  -12.2626 C   0  0  0  0  0  0  0  0  0  0  0  0
  -26.4564   -2.3679  -11.1302 N   0  0  0  0  0  0  0  0  0  0  0  0
  -27.0957   -2.5538  -11.8863 H   0  0  0  0  0  0  0  0  0  0  0  0
  -27.0048   -2.3545   -9.8415 C   0  0  0  0  0  0  0  0  0  0  0  0
  -27.5292   -3.5079   -9.2572 C   0  0  0  0  0  0  0  0  0  0  0  0
  -28.1784   -3.4526   -8.0284 C   0  0  0  0  0  0  0  0  0  0  0  0
  -28.3512   -2.2466   -7.3416 C   0  0  0  0  0  0  0  0  0  0  0  0
  -27.7656   -1.1043   -7.9017 C   0  0  0  0  0  0  0  0  0  0  0  0
  -27.0944   -1.1568   -9.1322 C   0  0  0  0  0  0  0  0  0  0  0  0
  -29.0464   -2.2401   -6.1543 N   0  0  0  0  0  0  0  0  0  0  0  0
  -29.0275   -1.0998   -5.2357 C   0  0  0  0  0  0  0  0  0  0  0  0
  -29.1081   -1.6341   -3.7854 C   0  0  0  0  0  0  0  0  0  0  0  0
  -30.2995   -2.4888   -3.5630 N   0  0  0  0  0  0  0  0  0  0  0  0
  -30.3351   -2.9799   -2.1912 C   0  0  0  0  0  0  0  0  0  0  0  0
  -30.2663   -3.6190   -4.5223 C   0  0  0  0  0  0  0  0  0  0  0  0
  -30.2033   -3.1396   -5.9878 C   0  0  0  0  0  0  0  0  0  0  0  0
  5  6  1  0  0  0
  6  7  1  0  0  0
  6 11  2  0  0  0
  7  8  2  0  0  0
  8  9  1  0  0  0
  9 12  1  0  0  0
  9 10  2  0  0  0
 12 13  1  0  0  0
 12 16  1  0  0  0
 13 14  2  0  0  0
 13 15  1  0  0  0
 15 18  1  0  0  0
 15 17  1  0  0  0
 18 19  1  0  0  0
 18 23  2  0  0  0
 19 20  2  0  0  0
 20 21  1  0  0  0
 21 22  2  0  0  0
 22 24  1  0  0  0
 22 23  1  0  0  0
 24 25  1  0  0  0
 24 26  1  0  0  0
 24 27  1  0  0  0
 10 11  1  0  0  0
 11  1  1  0  0  0
  1  2  2  0  0  0
  1  3  1  0  0  0
  3 28  1  0  0  0
  3  4  1  0  0  0
 28 29  1  0  0  0
 28 33  2  0  0  0
 29 30  2  0  0  0
 30 31  1  0  0  0
 31 34  1  0  0  0
 31 32  2  0  0  0
 34 36  1  0  0  0
 34 35  1  0  0  0
 36 37  1  0  0  0
 36 41  2  0  0  0
 37 38  2  0  0  0
 38 39  1  0  0  0
 39 42  1  0  0  0
 39 40  2  0  0  0
 42 43  1  0  0  0
 42 48  1  0  0  0
 43 44  1  0  0  0
 44 45  1  0  0  0
 45 46  1  0  0  0
 45 47  1  0  0  0
 47 48  1  0  0  0
 40 41  1  0  0  0
 32 33  1  0  0  0
M  END
> <minimizedAffinity>
-9.93815

$$$$
