CHEMBL147112


 33 36  0  0  0  0  0  0  0  0999 V2000
  -28.8011   -3.0059   -5.7594 C   0  0  0  0  0  0  0  0  0  0  0  0
  -28.0243   -3.4144   -4.6395 C   0  0  0  0  0  0  0  0  0  0  0  0
  -27.9055   -4.7437   -4.2491 C   0  0  0  0  0  0  0  0  0  0  0  0
  -28.5477   -5.6971   -5.0089 C   0  0  0  0  0  0  0  0  0  0  0  0
  -29.3002   -5.3333   -6.1238 C   0  0  0  0  0  0  0  0  0  0  0  0
  -29.4433   -4.0091   -6.5154 C   0  0  0  0  0  0  0  0  0  0  0  0
  -29.8453   -6.4712   -6.7196 N   0  0  0  0  0  0  0  0  0  0  0  0
  -29.4851   -7.6287   -6.0359 C   0  0  0  0  0  0  0  0  0  0  0  0
  -29.8291   -8.7699   -6.2856 O   0  0  0  0  0  0  0  0  0  0  0  0
  -28.5989   -7.1652   -4.9118 C   0  0  0  0  0  0  0  0  0  0  0  0
  -27.8923   -7.8118   -3.9763 C   0  0  0  0  0  0  0  0  0  0  0  0
  -30.4418   -6.4761   -7.5317 H   0  0  0  0  0  0  0  0  0  0  0  0
  -27.7068   -9.1994   -3.7560 C   0  0  0  0  0  0  0  0  0  0  0  0
  -28.7455  -10.0903   -3.6907 N   0  0  0  0  0  0  0  0  0  0  0  0
  -28.2548  -11.3556   -3.4970 C   0  0  0  0  0  0  0  0  0  0  0  0
  -26.8775  -11.2916   -3.4057 C   0  0  0  0  0  0  0  0  0  0  0  0
  -26.5252   -9.9143   -3.5762 C   0  0  0  0  0  0  0  0  0  0  0  0
  -25.1521   -9.3232   -3.5767 C   0  0  0  0  0  0  0  0  0  0  0  0
  -29.7306   -9.8537   -3.7823 H   0  0  0  0  0  0  0  0  0  0  0  0
  -25.9491  -12.4429   -3.1575 C   0  0  0  0  0  0  0  0  0  0  0  0
  -25.3751  -12.4474   -1.7448 C   0  0  0  0  0  0  0  0  0  0  0  0
  -23.8808  -12.2481   -1.7735 C   0  0  0  0  0  0  0  0  0  0  0  0
  -23.1869  -12.2133   -2.7802 O   0  0  0  0  0  0  0  0  0  0  0  0
  -23.3547  -12.1065   -0.5360 O   0  0  0  0  0  0  0  0  0  0  0  0
  -24.0202  -12.1550    0.1779 H   0  0  0  0  0  0  0  0  0  0  0  0
  -28.1131   -0.8624   -7.0024 C   0  0  0  0  0  0  0  0  0  0  0  0
  -28.2188    0.5344   -7.1249 C   0  0  0  0  0  0  0  0  0  0  0  0
  -29.0845    1.2675   -6.3109 C   0  0  0  0  0  0  0  0  0  0  0  0
  -29.8848    0.6125   -5.3906 C   0  0  0  0  0  0  0  0  0  0  0  0
  -29.8063   -0.7741   -5.2803 C   0  0  0  0  0  0  0  0  0  0  0  0
  -28.9051   -1.5478   -6.0530 C   0  0  0  0  0  0  0  0  0  0  0  0
  -27.6875   -1.8104   -9.1490 C   0  0  0  0  0  0  0  0  0  0  0  0
  -27.2844   -1.6138   -7.7989 O   0  0  0  0  0  0  0  0  0  0  0  0
 32 33  1  0  0  0
 33 26  1  0  0  0
 26 27  1  0  0  0
 26 31  2  0  0  0
 27 28  2  0  0  0
 28 29  1  0  0  0
 29 30  2  0  0  0
 30 31  1  0  0  0
 31  1  1  0  0  0
  1  2  1  0  0  0
  1  6  2  0  0  0
  2  3  2  0  0  0
  3  4  1  0  0  0
  4  5  2  0  0  0
  4 10  1  0  0  0
  5  6  1  0  0  0
  5  7  1  0  0  0
  7  8  1  0  0  0
  7 12  1  0  0  0
  8  9  2  0  0  0
  8 10  1  0  0  0
 10 11  2  0  0  0
 11 13  1  0  0  0
 13 14  1  0  0  0
 13 17  2  0  0  0
 14 15  1  0  0  0
 14 19  1  0  0  0
 15 16  2  0  0  0
 16 20  1  0  0  0
 16 17  1  0  0  0
 20 21  1  0  0  0
 21 22  1  0  0  0
 22 23  2  0  0  0
 22 24  1  0  0  0
 24 25  1  0  0  0
 17 18  1  0  0  0
M  END
> <minimizedAffinity>
-8.87083

$$$$
