CHEMBL270754


 30 33  0  0  0  0  0  0  0  0999 V2000
  -24.8428   -1.0811  -13.3795 C   0  0  0  0  0  0  0  0  0  0  0  0
  -25.2966   -1.2042  -14.7066 C   0  0  0  0  0  0  0  0  0  0  0  0
  -26.6164   -1.5550  -14.9641 C   0  0  0  0  0  0  0  0  0  0  0  0
  -27.4858   -1.8030  -13.9047 C   0  0  0  0  0  0  0  0  0  0  0  0
  -27.0644   -1.6997  -12.5703 C   0  0  0  0  0  0  0  0  0  0  0  0
  -27.9709   -1.9749  -11.5155 C   0  0  0  0  0  0  0  0  0  0  0  0
  -27.5777   -1.8908  -10.1796 C   0  0  0  0  0  0  0  0  0  0  0  0
  -26.2843   -1.4644   -9.8884 C   0  0  0  0  0  0  0  0  0  0  0  0
  -25.3769   -1.2131  -10.9181 C   0  0  0  0  0  0  0  0  0  0  0  0
  -25.7231   -1.3269  -12.2861 C   0  0  0  0  0  0  0  0  0  0  0  0
  -21.5294    0.7343  -13.7692 C   0  0  0  0  0  0  0  0  0  0  0  0
  -22.9002    0.3092  -13.9244 N   0  0  0  0  0  0  0  0  0  0  0  0
  -23.3940   -0.7463  -13.1758 C   0  0  0  0  0  0  0  0  0  0  0  0
  -22.6966   -1.3804  -12.3973 O   0  0  0  0  0  0  0  0  0  0  0  0
  -23.5344    0.9056  -14.4377 H   0  0  0  0  0  0  0  0  0  0  0  0
  -28.5310   -2.2010   -9.2236 O   0  0  0  0  0  0  0  0  0  0  0  0
  -28.2204   -2.0366   -7.8773 C   0  0  0  0  0  0  0  0  0  0  0  0
  -27.8164   -0.8055   -7.3750 C   0  0  0  0  0  0  0  0  0  0  0  0
  -27.6168   -0.7006   -6.0141 C   0  0  0  0  0  0  0  0  0  0  0  0
  -27.7673   -1.7322   -5.1547 N   0  0  0  0  0  0  0  0  0  0  0  0
  -28.0872   -2.9465   -5.6489 C   0  0  0  0  0  0  0  0  0  0  0  0
  -28.2553   -4.0140   -4.7681 C   0  0  0  0  0  0  0  0  0  0  0  0
  -28.6024   -5.3230   -5.1734 C   0  0  0  0  0  0  0  0  0  0  0  0
  -28.7356   -5.5774   -6.5406 C   0  0  0  0  0  0  0  0  0  0  0  0
  -28.5875   -4.4851   -7.4302 C   0  0  0  0  0  0  0  0  0  0  0  0
  -28.2979   -3.1650   -7.0204 C   0  0  0  0  0  0  0  0  0  0  0  0
  -29.0045   -6.0992   -4.1175 O   0  0  0  0  0  0  0  0  0  0  0  0
  -30.3846   -6.2492   -3.8250 C   0  0  0  0  0  0  0  0  0  0  0  0
  -29.0543   -6.6878   -7.2544 O   0  0  0  0  0  0  0  0  0  0  0  0
  -30.3681   -7.1663   -7.4056 C   0  0  0  0  0  0  0  0  0  0  0  0
 11 12  1  0  0  0
 12 13  1  0  0  0
 12 15  1  0  0  0
 13 14  2  0  0  0
 13  1  1  0  0  0
  1  2  1  0  0  0
  1 10  2  0  0  0
  2  3  2  0  0  0
  3  4  1  0  0  0
  4  5  2  0  0  0
  5  6  1  0  0  0
  5 10  1  0  0  0
  6  7  2  0  0  0
  7 16  1  0  0  0
  7  8  1  0  0  0
 16 17  1  0  0  0
 17 18  1  0  0  0
 17 26  2  0  0  0
 18 19  2  0  0  0
 19 20  1  0  0  0
 20 21  2  0  0  0
 21 22  1  0  0  0
 21 26  1  0  0  0
 22 23  2  0  0  0
 23 27  1  0  0  0
 23 24  1  0  0  0
 27 28  1  0  0  0
 24 29  1  0  0  0
 24 25  2  0  0  0
 29 30  1  0  0  0
 25 26  1  0  0  0
  8  9  2  0  0  0
  9 10  1  0  0  0
M  END
> <minimizedAffinity>
-9.23180

$$$$
