CHEMBL1683339


 32 35  0  0  0  0  0  0  0  0999 V2000
  -28.1769   -2.0198   -7.3633 C   0  0  0  0  0  0  0  0  0  0  0  0
  -27.8765   -0.7398   -6.9097 C   0  0  0  0  0  0  0  0  0  0  0  0
  -28.4628   -0.5768   -5.6956 N   0  0  0  0  0  0  0  0  0  0  0  0
  -28.7142   -1.8256   -5.1806 C   0  0  0  0  0  0  0  0  0  0  0  0
  -28.7866   -2.2392   -3.8495 C   0  0  0  0  0  0  0  0  0  0  0  0
  -29.0840   -3.5758   -3.6236 C   0  0  0  0  0  0  0  0  0  0  0  0
  -29.4965   -4.3923   -4.6716 C   0  0  0  0  0  0  0  0  0  0  0  0
  -29.5014   -3.9429   -6.0076 C   0  0  0  0  0  0  0  0  0  0  0  0
  -28.8897   -2.6881   -6.2733 C   0  0  0  0  0  0  0  0  0  0  0  0
  -28.5112    0.2888   -5.1754 H   0  0  0  0  0  0  0  0  0  0  0  0
  -27.4705   -3.7175   -8.8028 O   0  0  0  0  0  0  0  0  0  0  0  0
  -27.6005   -2.5154   -8.6047 C   0  0  0  0  0  0  0  0  0  0  0  0
  -27.2025   -1.5263   -9.4713 N   0  0  0  0  0  0  0  0  0  0  0  0
  -27.2833   -0.5711   -9.1106 H   0  0  0  0  0  0  0  0  0  0  0  0
  -26.7879   -1.6600  -10.8027 C   0  0  0  0  0  0  0  0  0  0  0  0
  -27.6530   -1.6104  -11.8980 C   0  0  0  0  0  0  0  0  0  0  0  0
  -27.1430   -1.6647  -13.1937 C   0  0  0  0  0  0  0  0  0  0  0  0
  -25.7686   -1.7652  -13.4024 C   0  0  0  0  0  0  0  0  0  0  0  0
  -24.8881   -1.8285  -12.3168 C   0  0  0  0  0  0  0  0  0  0  0  0
  -25.4146   -1.7848  -11.0164 C   0  0  0  0  0  0  0  0  0  0  0  0
  -23.3991   -1.9235  -12.4990 C   0  0  0  0  0  0  0  0  0  0  0  0
  -22.9079   -1.0561  -13.4230 F   0  0  0  0  0  0  0  0  0  0  0  0
  -22.7229   -1.6641  -11.3441 F   0  0  0  0  0  0  0  0  0  0  0  0
  -23.0022   -3.1641  -12.8943 F   0  0  0  0  0  0  0  0  0  0  0  0
  -30.3214   -4.8721   -7.2987 S   0  0  0  0  0  0  0  0  0  0  0  0
  -29.5731   -6.5422   -7.1085 C   0  0  0  0  0  0  0  0  0  0  0  0
  -30.4990   -7.6964   -7.4193 C   0  0  0  0  0  0  0  0  0  0  0  0
  -31.8303   -7.6923   -6.9878 C   0  0  0  0  0  0  0  0  0  0  0  0
  -32.6748   -8.7142   -7.4000 C   0  0  0  0  0  0  0  0  0  0  0  0
  -32.2942   -9.7251   -8.2087 N   0  0  0  0  0  0  0  0  0  0  0  0
  -31.0092   -9.7179   -8.6177 C   0  0  0  0  0  0  0  0  0  0  0  0
  -30.0885   -8.7427   -8.2573 C   0  0  0  0  0  0  0  0  0  0  0  0
 11 12  2  0  0  0
 12 13  1  0  0  0
 12  1  1  0  0  0
 13 15  1  0  0  0
 13 14  1  0  0  0
 15 16  1  0  0  0
 15 20  2  0  0  0
 16 17  2  0  0  0
 17 18  1  0  0  0
 18 19  2  0  0  0
 19 21  1  0  0  0
 19 20  1  0  0  0
 21 22  1  0  0  0
 21 23  1  0  0  0
 21 24  1  0  0  0
  1  2  2  0  0  0
  1  9  1  0  0  0
  2  3  1  0  0  0
  3  4  1  0  0  0
  3 10  1  0  0  0
  4  5  1  0  0  0
  4  9  2  0  0  0
  5  6  2  0  0  0
  6  7  1  0  0  0
  7  8  2  0  0  0
  8 25  1  0  0  0
  8  9  1  0  0  0
 25 26  1  0  0  0
 26 27  1  0  0  0
 27 28  1  0  0  0
 27 32  2  0  0  0
 28 29  2  0  0  0
 29 30  1  0  0  0
 30 31  2  0  0  0
 31 32  1  0  0  0
M  END
> <minimizedAffinity>
-10.48505

$$$$
