CHEMBL3706822


 30 32  0  0  0  0  0  0  0  0999 V2000
  -16.4730    2.4825  -15.7649 C   0  0  0  0  0  0  0  0  0  0  0  0
  -15.1051    2.1470  -15.6140 C   0  0  0  0  0  0  0  0  0  0  0  0
  -14.6370    1.1773  -14.7315 C   0  0  0  0  0  0  0  0  0  0  0  0
  -13.3237    0.9679  -14.5980 N   0  0  0  0  0  0  0  0  0  0  0  0
  -12.9340    0.0512  -13.7042 C   0  0  0  0  0  0  0  0  0  0  0  0
  -13.7422   -0.7006  -12.9502 N   0  0  0  0  0  0  0  0  0  0  0  0
  -15.0648   -0.5005  -13.1001 C   0  0  0  0  0  0  0  0  0  0  0  0
  -15.5776    0.4617  -13.9861 C   0  0  0  0  0  0  0  0  0  0  0  0
  -16.9438    0.7855  -14.1236 C   0  0  0  0  0  0  0  0  0  0  0  0
  -17.4106    1.7779  -15.0024 C   0  0  0  0  0  0  0  0  0  0  0  0
  -15.9710   -1.2925  -12.3371 N   0  0  0  0  0  0  0  0  0  0  0  0
  -16.9066   -1.2362  -12.7475 H   0  0  0  0  0  0  0  0  0  0  0  0
  -15.6732   -2.5973  -11.9523 C   0  0  0  0  0  0  0  0  0  0  0  0
  -15.2918   -2.9564  -10.7233 C   0  0  0  0  0  0  0  0  0  0  0  0
  -14.9462   -4.3395  -10.3771 C   0  0  0  0  0  0  0  0  0  0  0  0
  -14.7506   -4.6415   -9.2065 O   0  0  0  0  0  0  0  0  0  0  0  0
  -14.8325   -5.2932  -11.5038 C   0  0  0  0  0  0  0  0  0  0  0  0
  -14.0796   -6.8125  -11.1250 Cl  0  0  0  0  0  0  0  0  0  0  0  0
  -15.2588   -5.0149  -12.7466 C   0  0  0  0  0  0  0  0  0  0  0  0
  -15.8630   -3.6613  -12.9955 C   0  0  0  0  0  0  0  0  0  0  0  0
  -16.4727   -3.3686  -14.0218 O   0  0  0  0  0  0  0  0  0  0  0  0
  -15.1162   -5.9818  -13.7352 O   0  0  0  0  0  0  0  0  0  0  0  0
  -14.1136   -5.8304  -14.7274 C   0  0  0  0  0  0  0  0  0  0  0  0
  -18.7504    1.9646  -14.8239 O   0  0  0  0  0  0  0  0  0  0  0  0
  -19.2728    3.2072  -14.3867 C   0  0  0  0  0  0  0  0  0  0  0  0
  -16.6173    3.5279  -16.6432 O   0  0  0  0  0  0  0  0  0  0  0  0
  -15.4878    4.3463  -16.8730 C   0  0  0  0  0  0  0  0  0  0  0  0
  -15.2129    4.6198  -18.3445 C   0  0  0  0  0  0  0  0  0  0  0  0
  -13.1839    4.0744  -19.4589 C   0  0  0  0  0  0  0  0  0  0  0  0
  -14.3091    3.5879  -18.7536 O   0  0  0  0  0  0  0  0  0  0  0  0
 29 30  1  0  0  0
 30 28  1  0  0  0
 28 27  1  0  0  0
 27 26  1  0  0  0
 26  1  1  0  0  0
  1  2  1  0  0  0
  1 10  2  0  0  0
  2  3  2  0  0  0
  3  4  1  0  0  0
  3  8  1  0  0  0
  4  5  2  0  0  0
  5  6  1  0  0  0
  6  7  2  0  0  0
  7 11  1  0  0  0
  7  8  1  0  0  0
 11 13  1  0  0  0
 11 12  1  0  0  0
 13 14  2  0  0  0
 13 20  1  0  0  0
 14 15  1  0  0  0
 15 16  2  0  0  0
 15 17  1  0  0  0
 17 18  1  0  0  0
 17 19  2  0  0  0
 19 22  1  0  0  0
 19 20  1  0  0  0
 22 23  1  0  0  0
 20 21  2  0  0  0
  8  9  2  0  0  0
  9 10  1  0  0  0
 10 24  1  0  0  0
 24 25  1  0  0  0
M  END
> <minimizedAffinity>
-6.58947

$$$$
