CHEMBL514511


 43 47  0  0  0  0  0  0  0  0999 V2000
  -17.2424    3.9209  -15.8455 C   0  0  0  0  0  0  0  0  0  0  0  0
  -16.4484    2.7238  -15.5404 N   0  0  0  0  0  0  0  0  0  0  0  0
  -17.0149    1.4396  -15.3667 C   0  0  0  0  0  0  0  0  0  0  0  0
  -16.3980    0.3778  -15.4746 O   0  0  0  0  0  0  0  0  0  0  0  0
  -18.4636    1.2877  -15.0747 C   0  0  0  0  0  0  0  0  0  0  0  0
  -19.1208    2.3144  -14.3750 C   0  0  0  0  0  0  0  0  0  0  0  0
  -20.4724    2.1929  -14.0356 C   0  0  0  0  0  0  0  0  0  0  0  0
  -21.1647    1.0290  -14.3837 C   0  0  0  0  0  0  0  0  0  0  0  0
  -20.5213    0.0397  -15.1418 C   0  0  0  0  0  0  0  0  0  0  0  0
  -19.1945    0.1909  -15.5281 C   0  0  0  0  0  0  0  0  0  0  0  0
  -22.5908    0.7836  -14.0538 C   0  0  0  0  0  0  0  0  0  0  0  0
  -23.2765    1.7662  -13.7708 O   0  0  0  0  0  0  0  0  0  0  0  0
  -23.0302   -0.5240  -14.0873 N   0  0  0  0  0  0  0  0  0  0  0  0
  -22.3851   -1.2748  -14.2943 H   0  0  0  0  0  0  0  0  0  0  0  0
  -24.3640   -0.9449  -13.8672 C   0  0  0  0  0  0  0  0  0  0  0  0
  -25.2901   -1.0782  -14.9083 C   0  0  0  0  0  0  0  0  0  0  0  0
  -26.5853   -1.5263  -14.6568 C   0  0  0  0  0  0  0  0  0  0  0  0
  -26.9580   -1.8722  -13.3637 C   0  0  0  0  0  0  0  0  0  0  0  0
  -26.0361   -1.7665  -12.3197 C   0  0  0  0  0  0  0  0  0  0  0  0
  -24.7516   -1.2562  -12.5476 C   0  0  0  0  0  0  0  0  0  0  0  0
  -23.8258   -1.1959  -11.4790 N   0  0  0  0  0  0  0  0  0  0  0  0
  -24.2880   -1.2332  -10.5736 H   0  0  0  0  0  0  0  0  0  0  0  0
  -23.2450   -0.3653  -11.5401 H   0  0  0  0  0  0  0  0  0  0  0  0
  -15.0112    2.8825  -15.5447 C   0  0  0  0  0  0  0  0  0  0  0  0
  -14.3967    3.7996  -16.4078 C   0  0  0  0  0  0  0  0  0  0  0  0
  -13.0196    3.9834  -16.4024 C   0  0  0  0  0  0  0  0  0  0  0  0
  -12.2280    3.2405  -15.5370 C   0  0  0  0  0  0  0  0  0  0  0  0
  -12.7827    2.2886  -14.6772 C   0  0  0  0  0  0  0  0  0  0  0  0
  -14.1751    2.1071  -14.7149 C   0  0  0  0  0  0  0  0  0  0  0  0
  -12.0011    1.4530  -13.8634 N   0  0  0  0  0  0  0  0  0  0  0  0
  -11.2934    1.8834  -13.2861 H   0  0  0  0  0  0  0  0  0  0  0  0
  -11.8631    0.0696  -13.8648 C   0  0  0  0  0  0  0  0  0  0  0  0
  -10.8267   -0.4928  -14.5046 N   0  0  0  0  0  0  0  0  0  0  0  0
  -10.6965   -1.8200  -14.4619 C   0  0  0  0  0  0  0  0  0  0  0  0
  -11.5840   -2.6264  -13.8107 C   0  0  0  0  0  0  0  0  0  0  0  0
  -12.6535   -1.9944  -13.2037 C   0  0  0  0  0  0  0  0  0  0  0  0
  -12.8045   -0.6486  -13.2326 N   0  0  0  0  0  0  0  0  0  0  0  0
  -13.7147   -2.7623  -12.5318 C   0  0  0  0  0  0  0  0  0  0  0  0
  -14.9725   -2.2146  -12.2298 C   0  0  0  0  0  0  0  0  0  0  0  0
  -15.9111   -2.9447  -11.5035 C   0  0  0  0  0  0  0  0  0  0  0  0
  -15.5768   -4.2249  -11.1042 C   0  0  0  0  0  0  0  0  0  0  0  0
  -14.3995   -4.8129  -11.3966 N   0  0  0  0  0  0  0  0  0  0  0  0
  -13.5065   -4.0738  -12.1044 C   0  0  0  0  0  0  0  0  0  0  0  0
  1  2  1  0  0  0
  2  3  1  0  0  0
  2 24  1  0  0  0
  3  4  2  0  0  0
  3  5  1  0  0  0
  5  6  1  0  0  0
  5 10  2  0  0  0
  6  7  2  0  0  0
  7  8  1  0  0  0
  8 11  1  0  0  0
  8  9  2  0  0  0
 11 12  2  0  0  0
 11 13  1  0  0  0
 13 15  1  0  0  0
 13 14  1  0  0  0
 15 16  1  0  0  0
 15 20  2  0  0  0
 16 17  2  0  0  0
 17 18  1  0  0  0
 18 19  2  0  0  0
 19 20  1  0  0  0
 20 21  1  0  0  0
 21 22  1  0  0  0
 21 23  1  0  0  0
  9 10  1  0  0  0
 24 25  1  0  0  0
 24 29  2  0  0  0
 25 26  2  0  0  0
 26 27  1  0  0  0
 27 28  2  0  0  0
 28 30  1  0  0  0
 28 29  1  0  0  0
 30 32  1  0  0  0
 30 31  1  0  0  0
 32 33  1  0  0  0
 32 37  2  0  0  0
 33 34  2  0  0  0
 34 35  1  0  0  0
 35 36  2  0  0  0
 36 38  1  0  0  0
 36 37  1  0  0  0
 38 39  1  0  0  0
 38 43  2  0  0  0
 39 40  2  0  0  0
 40 41  1  0  0  0
 41 42  2  0  0  0
 42 43  1  0  0  0
M  END
> <minimizedAffinity>
-9.68302

$$$$
