CHEMBL1975927


 31 34  0  0  0  0  0  0  0  0999 V2000
  -28.2711   -9.9745   -6.1564 N   0  0  0  0  0  0  0  0  0  0  0  0
  -29.0843  -11.0678   -5.8861 C   0  0  0  0  0  0  0  0  0  0  0  0
  -30.3949  -10.7352   -6.1240 C   0  0  0  0  0  0  0  0  0  0  0  0
  -30.4052   -9.3981   -6.5690 C   0  0  0  0  0  0  0  0  0  0  0  0
  -31.3863   -8.5147   -6.9798 C   0  0  0  0  0  0  0  0  0  0  0  0
  -31.0399   -7.2760   -7.3712 N   0  0  0  0  0  0  0  0  0  0  0  0
  -29.7382   -6.9188   -7.4056 C   0  0  0  0  0  0  0  0  0  0  0  0
  -28.7142   -7.7096   -7.0367 N   0  0  0  0  0  0  0  0  0  0  0  0
  -29.0928   -8.9331   -6.5956 C   0  0  0  0  0  0  0  0  0  0  0  0
  -24.0582   -9.9880   -5.6445 C   0  0  0  0  0  0  0  0  0  0  0  0
  -24.8922   -9.5025   -4.6405 C   0  0  0  0  0  0  0  0  0  0  0  0
  -26.2797   -9.4842   -4.8237 C   0  0  0  0  0  0  0  0  0  0  0  0
  -26.8526   -9.9775   -6.0069 C   0  0  0  0  0  0  0  0  0  0  0  0
  -26.0165  -10.4564   -7.0178 C   0  0  0  0  0  0  0  0  0  0  0  0
  -24.6267  -10.4457   -6.8361 C   0  0  0  0  0  0  0  0  0  0  0  0
  -22.0346  -10.6367   -6.7064 C   0  0  0  0  0  0  0  0  0  0  0  0
  -22.6935  -10.0566   -5.5868 O   0  0  0  0  0  0  0  0  0  0  0  0
  -29.4325   -5.6465   -7.8983 N   0  0  0  0  0  0  0  0  0  0  0  0
  -29.5390   -5.5761   -8.8983 H   0  0  0  0  0  0  0  0  0  0  0  0
  -28.8413   -4.5745   -7.2114 C   0  0  0  0  0  0  0  0  0  0  0  0
  -28.8716   -4.5090   -5.8139 C   0  0  0  0  0  0  0  0  0  0  0  0
  -28.3769   -3.4104   -5.0951 C   0  0  0  0  0  0  0  0  0  0  0  0
  -27.8592   -2.3028   -5.7977 C   0  0  0  0  0  0  0  0  0  0  0  0
  -27.7937   -2.3711   -7.2095 C   0  0  0  0  0  0  0  0  0  0  0  0
  -28.2863   -3.4976   -7.8961 C   0  0  0  0  0  0  0  0  0  0  0  0
  -28.3803   -3.3825   -3.7232 O   0  0  0  0  0  0  0  0  0  0  0  0
  -29.5628   -2.9573   -3.0567 C   0  0  0  0  0  0  0  0  0  0  0  0
  -27.4297   -1.1262   -5.2390 O   0  0  0  0  0  0  0  0  0  0  0  0
  -28.3382   -0.0618   -5.0078 C   0  0  0  0  0  0  0  0  0  0  0  0
  -27.3412   -1.3913   -8.0653 O   0  0  0  0  0  0  0  0  0  0  0  0
  -27.3899   -1.6691   -9.4598 C   0  0  0  0  0  0  0  0  0  0  0  0
 16 17  1  0  0  0
 17 10  1  0  0  0
 10 11  1  0  0  0
 10 15  2  0  0  0
 11 12  2  0  0  0
 12 13  1  0  0  0
 13  1  1  0  0  0
 13 14  2  0  0  0
  1  2  1  0  0  0
  1  9  1  0  0  0
  2  3  2  0  0  0
  3  4  1  0  0  0
  4  5  1  0  0  0
  4  9  2  0  0  0
  5  6  2  0  0  0
  6  7  1  0  0  0
  7 18  1  0  0  0
  7  8  2  0  0  0
 18 20  1  0  0  0
 18 19  1  0  0  0
 20 21  1  0  0  0
 20 25  2  0  0  0
 21 22  2  0  0  0
 22 26  1  0  0  0
 22 23  1  0  0  0
 26 27  1  0  0  0
 23 28  1  0  0  0
 23 24  2  0  0  0
 28 29  1  0  0  0
 24 30  1  0  0  0
 24 25  1  0  0  0
 30 31  1  0  0  0
  8  9  1  0  0  0
 14 15  1  0  0  0
M  END
> <minimizedAffinity>
-7.40045

$$$$
