CHEMBL1083757


 34 40  0  0  0  0  0  0  0  0999 V2000
  -12.8269   -3.1912  -15.7847 N   0  0  0  0  0  0  0  0  0  0  0  0
  -13.2986   -1.8553  -15.5792 C   0  0  0  0  0  0  0  0  0  0  0  0
  -12.9380   -0.5775  -16.0990 C   0  0  0  0  0  0  0  0  0  0  0  0
  -13.5991    0.5773  -15.6181 C   0  0  0  0  0  0  0  0  0  0  0  0
  -14.6381    0.5003  -14.6855 C   0  0  0  0  0  0  0  0  0  0  0  0
  -14.8890   -0.7306  -14.1029 C   0  0  0  0  0  0  0  0  0  0  0  0
  -14.2654   -1.9006  -14.5724 C   0  0  0  0  0  0  0  0  0  0  0  0
  -14.3049   -3.2389  -14.2551 C   0  0  0  0  0  0  0  0  0  0  0  0
  -14.7415   -3.6136  -12.9644 C   0  0  0  0  0  0  0  0  0  0  0  0
  -14.1850   -4.7408  -12.4345 C   0  0  0  0  0  0  0  0  0  0  0  0
  -13.2973   -5.5693  -13.1524 C   0  0  0  0  0  0  0  0  0  0  0  0
  -13.5104   -5.5030  -14.5736 C   0  0  0  0  0  0  0  0  0  0  0  0
  -13.6139   -4.1263  -15.0179 C   0  0  0  0  0  0  0  0  0  0  0  0
  -14.5445   -6.7473  -14.9457 C   0  0  0  0  0  0  0  0  0  0  0  0
  -15.2192   -7.4903  -13.6820 C   0  0  0  0  0  0  0  0  0  0  0  0
  -14.0693   -7.8732  -12.8085 C   0  0  0  0  0  0  0  0  0  0  0  0
  -13.6269   -9.0929  -12.5044 N   0  0  0  0  0  0  0  0  0  0  0  0
  -12.3300   -8.8536  -12.1626 N   0  0  0  0  0  0  0  0  0  0  0  0
  -11.4251   -9.9492  -11.9091 C   0  0  0  0  0  0  0  0  0  0  0  0
  -11.9454   -7.5513  -12.3384 C   0  0  0  0  0  0  0  0  0  0  0  0
  -13.0991   -6.8812  -12.5933 C   0  0  0  0  0  0  0  0  0  0  0  0
  -14.8214   -4.9582  -11.1494 C   0  0  0  0  0  0  0  0  0  0  0  0
  -14.7606   -5.8845  -10.3116 O   0  0  0  0  0  0  0  0  0  0  0  0
  -15.7040   -3.9059  -10.9932 N   0  0  0  0  0  0  0  0  0  0  0  0
  -15.6775   -2.9293  -12.0565 C   0  0  0  0  0  0  0  0  0  0  0  0
  -16.3316   -3.8855  -10.2016 H   0  0  0  0  0  0  0  0  0  0  0  0
  -15.5762    1.6588  -14.3740 C   0  0  0  0  0  0  0  0  0  0  0  0
  -16.9705    1.2045  -13.9628 C   0  0  0  0  0  0  0  0  0  0  0  0
  -17.9526    1.2261  -15.1212 C   0  0  0  0  0  0  0  0  0  0  0  0
  -17.9786    2.6262  -15.6907 C   0  0  0  0  0  0  0  0  0  0  0  0
  -16.6016    3.0088  -16.2024 C   0  0  0  0  0  0  0  0  0  0  0  0
  -15.5065    2.7105  -15.3458 O   0  0  0  0  0  0  0  0  0  0  0  0
  -11.9430   -4.4187  -17.8438 C   0  0  0  0  0  0  0  0  0  0  0  0
  -11.6819   -3.5057  -16.6431 C   0  0  0  0  0  0  0  0  0  0  0  0
 33 34  1  0  0  0
 34  1  1  0  0  0
  1  2  1  0  0  0
  1 13  1  0  0  0
  2  3  1  0  0  0
  2  7  2  0  0  0
  3  4  2  0  0  0
  4  5  1  0  0  0
  5 27  1  0  0  0
  5  6  2  0  0  0
 27 28  1  0  0  0
 27 32  1  0  0  0
 28 29  1  0  0  0
 29 30  1  0  0  0
 30 31  1  0  0  0
 31 32  1  0  0  0
  6  7  1  0  0  0
  7  8  1  0  0  0
  8  9  1  0  0  0
  8 13  2  0  0  0
  9 10  2  0  0  0
  9 25  1  0  0  0
 10 11  1  0  0  0
 10 22  1  0  0  0
 11 12  2  0  0  0
 11 21  1  0  0  0
 12 13  1  0  0  0
 12 14  1  0  0  0
 14 15  1  0  0  0
 15 16  1  0  0  0
 16 17  2  0  0  0
 16 21  1  0  0  0
 17 18  1  0  0  0
 18 19  1  0  0  0
 18 20  1  0  0  0
 20 21  2  0  0  0
 22 23  2  0  0  0
 22 24  1  0  0  0
 24 25  1  0  0  0
 24 26  1  0  0  0
M  END
> <minimizedAffinity>
-8.51687

$$$$
