CHEMBL3703196


 39 43  0  0  0  0  0  0  0  0999 V2000
  -26.3582   -2.1583  -10.9058 C   0  0  0  0  0  0  0  0  0  0  0  0
  -26.9598   -1.7489  -12.0991 C   0  0  0  0  0  0  0  0  0  0  0  0
  -26.1871   -1.2557  -13.1581 C   0  0  0  0  0  0  0  0  0  0  0  0
  -24.8007   -1.1657  -13.0394 C   0  0  0  0  0  0  0  0  0  0  0  0
  -24.2184   -1.4664  -11.8063 C   0  0  0  0  0  0  0  0  0  0  0  0
  -22.9013   -1.3087  -11.6091 F   0  0  0  0  0  0  0  0  0  0  0  0
  -24.9813   -1.9763  -10.7527 C   0  0  0  0  0  0  0  0  0  0  0  0
  -27.4075   -2.1762   -8.6311 C   0  0  0  0  0  0  0  0  0  0  0  0
  -27.1199   -1.0350   -8.2858 O   0  0  0  0  0  0  0  0  0  0  0  0
  -27.0679   -2.7572   -9.8453 N   0  0  0  0  0  0  0  0  0  0  0  0
  -27.4494   -3.6887  -10.0297 H   0  0  0  0  0  0  0  0  0  0  0  0
  -29.2456   -1.3844   -6.0857 C   0  0  0  0  0  0  0  0  0  0  0  0
  -29.0862   -2.7184   -6.7500 C   0  0  0  0  0  0  0  0  0  0  0  0
  -28.2554   -3.0327   -7.7679 C   0  0  0  0  0  0  0  0  0  0  0  0
  -28.2967   -4.5147   -7.8330 C   0  0  0  0  0  0  0  0  0  0  0  0
  -27.6905   -5.1656   -8.6739 O   0  0  0  0  0  0  0  0  0  0  0  0
  -29.1328   -4.9535   -6.8069 N   0  0  0  0  0  0  0  0  0  0  0  0
  -29.8011   -3.8385   -6.2824 N   0  0  0  0  0  0  0  0  0  0  0  0
  -30.3636   -3.9214   -4.9374 C   0  0  0  0  0  0  0  0  0  0  0  0
  -29.5847   -6.2807   -6.7350 C   0  0  0  0  0  0  0  0  0  0  0  0
  -28.7971   -7.1895   -6.0153 C   0  0  0  0  0  0  0  0  0  0  0  0
  -29.1723   -8.5255   -5.9072 C   0  0  0  0  0  0  0  0  0  0  0  0
  -30.3211   -8.9719   -6.5537 C   0  0  0  0  0  0  0  0  0  0  0  0
  -31.1016   -8.0778   -7.2908 C   0  0  0  0  0  0  0  0  0  0  0  0
  -30.7472   -6.7262   -7.3677 C   0  0  0  0  0  0  0  0  0  0  0  0
  -24.1226   -0.7203  -14.1538 O   0  0  0  0  0  0  0  0  0  0  0  0
  -23.2647    0.3575  -14.0618 C   0  0  0  0  0  0  0  0  0  0  0  0
  -23.6328    1.6220  -13.6165 C   0  0  0  0  0  0  0  0  0  0  0  0
  -22.6828    2.6159  -13.6645 C   0  0  0  0  0  0  0  0  0  0  0  0
  -21.4117    2.4113  -14.0502 N   0  0  0  0  0  0  0  0  0  0  0  0
  -21.0249    1.1723  -14.3984 C   0  0  0  0  0  0  0  0  0  0  0  0
  -21.9294    0.1140  -14.4155 C   0  0  0  0  0  0  0  0  0  0  0  0
  -19.6851    0.9459  -14.7602 N   0  0  0  0  0  0  0  0  0  0  0  0
  -18.8841    1.8999  -15.3637 C   0  0  0  0  0  0  0  0  0  0  0  0
  -19.1883    3.0370  -15.6740 O   0  0  0  0  0  0  0  0  0  0  0  0
  -19.2979    0.0413  -14.5689 H   0  0  0  0  0  0  0  0  0  0  0  0
  -17.4788    1.4889  -15.6794 C   0  0  0  0  0  0  0  0  0  0  0  0
  -16.6873    0.5053  -14.8576 C   0  0  0  0  0  0  0  0  0  0  0  0
  -16.2807    1.9519  -14.8885 C   0  0  0  0  0  0  0  0  0  0  0  0
 12 13  1  0  0  0
 13 14  2  0  0  0
 13 18  1  0  0  0
 14  8  1  0  0  0
 14 15  1  0  0  0
  8  9  2  0  0  0
  8 10  1  0  0  0
 10  1  1  0  0  0
 10 11  1  0  0  0
  1  2  1  0  0  0
  1  7  2  0  0  0
  2  3  2  0  0  0
  3  4  1  0  0  0
  4 26  1  0  0  0
  4  5  2  0  0  0
 26 27  1  0  0  0
 27 28  1  0  0  0
 27 32  2  0  0  0
 28 29  2  0  0  0
 29 30  1  0  0  0
 30 31  2  0  0  0
 31 33  1  0  0  0
 31 32  1  0  0  0
 33 34  1  0  0  0
 33 36  1  0  0  0
 34 35  2  0  0  0
 34 37  1  0  0  0
 37 38  1  0  0  0
 37 39  1  0  0  0
 38 39  1  0  0  0
  5  6  1  0  0  0
  5  7  1  0  0  0
 15 16  2  0  0  0
 15 17  1  0  0  0
 17 20  1  0  0  0
 17 18  1  0  0  0
 20 21  1  0  0  0
 20 25  2  0  0  0
 21 22  2  0  0  0
 22 23  1  0  0  0
 23 24  2  0  0  0
 24 25  1  0  0  0
 18 19  1  0  0  0
M  END
> <minimizedAffinity>
-10.30966

$$$$
