CHEMBL3759848


 40 44  0  0  0  0  0  0  0  0999 V2000
  -14.6776   -0.1848  -14.0163 C   0  0  0  0  0  0  0  0  0  0  0  0
  -15.6562    0.7750  -14.2760 C   0  0  0  0  0  0  0  0  0  0  0  0
  -15.6059    1.5824  -15.4230 C   0  0  0  0  0  0  0  0  0  0  0  0
  -16.4577    2.6774  -15.6243 C   0  0  0  0  0  0  0  0  0  0  0  0
  -16.3393    3.4627  -16.7067 N   0  0  0  0  0  0  0  0  0  0  0  0
  -15.3820    3.1409  -17.5792 C   0  0  0  0  0  0  0  0  0  0  0  0
  -14.5165    2.1266  -17.4803 N   0  0  0  0  0  0  0  0  0  0  0  0
  -14.6212    1.3552  -16.3892 C   0  0  0  0  0  0  0  0  0  0  0  0
  -13.7196    0.3049  -16.1723 C   0  0  0  0  0  0  0  0  0  0  0  0
  -13.7383   -0.4926  -15.0111 C   0  0  0  0  0  0  0  0  0  0  0  0
  -15.8917   -0.8753  -12.1164 C   0  0  0  0  0  0  0  0  0  0  0  0
  -14.6280   -0.7807  -12.7829 O   0  0  0  0  0  0  0  0  0  0  0  0
  -17.4411    2.9843  -14.6401 N   0  0  0  0  0  0  0  0  0  0  0  0
  -17.0098    2.9639  -13.7211 H   0  0  0  0  0  0  0  0  0  0  0  0
  -18.7687    2.5094  -14.6189 C   0  0  0  0  0  0  0  0  0  0  0  0
  -19.8135    3.3589  -14.2550 C   0  0  0  0  0  0  0  0  0  0  0  0
  -21.1227    2.8726  -14.1433 C   0  0  0  0  0  0  0  0  0  0  0  0
  -21.4243    1.5371  -14.4231 C   0  0  0  0  0  0  0  0  0  0  0  0
  -20.4020    0.7197  -14.9087 C   0  0  0  0  0  0  0  0  0  0  0  0
  -19.0928    1.2073  -15.0141 C   0  0  0  0  0  0  0  0  0  0  0  0
  -22.6974    0.9502  -14.2052 N   0  0  0  0  0  0  0  0  0  0  0  0
  -23.0355    0.1272  -13.1441 C   0  0  0  0  0  0  0  0  0  0  0  0
  -22.3247   -0.1088  -12.1716 O   0  0  0  0  0  0  0  0  0  0  0  0
  -23.3959    1.1357  -14.9115 H   0  0  0  0  0  0  0  0  0  0  0  0
  -24.3725   -0.5350  -13.1643 C   0  0  0  0  0  0  0  0  0  0  0  0
  -24.9658   -1.0721  -14.3147 C   0  0  0  0  0  0  0  0  0  0  0  0
  -26.1783   -1.7687  -14.2136 C   0  0  0  0  0  0  0  0  0  0  0  0
  -26.7953   -1.9367  -12.9737 C   0  0  0  0  0  0  0  0  0  0  0  0
  -26.2050   -1.4049  -11.8317 C   0  0  0  0  0  0  0  0  0  0  0  0
  -26.9440   -1.6345  -10.2954 Cl  0  0  0  0  0  0  0  0  0  0  0  0
  -25.0060   -0.7051  -11.9222 C   0  0  0  0  0  0  0  0  0  0  0  0
  -12.7667   -1.4758  -14.9712 O   0  0  0  0  0  0  0  0  0  0  0  0
  -13.2670   -2.8143  -15.1013 C   0  0  0  0  0  0  0  0  0  0  0  0
  -13.0066   -3.6962  -13.8578 C   0  0  0  0  0  0  0  0  0  0  0  0
  -14.1679   -4.5522  -13.4882 N   0  0  0  0  0  0  0  0  0  0  0  0
  -14.1317   -4.8985  -12.0560 C   0  0  0  0  0  0  0  0  0  0  0  0
  -15.2713   -5.8528  -11.6757 C   0  0  0  0  0  0  0  0  0  0  0  0
  -16.6341   -5.2855  -12.0546 C   0  0  0  0  0  0  0  0  0  0  0  0
  -16.6379   -4.8588  -13.5133 C   0  0  0  0  0  0  0  0  0  0  0  0
  -15.4614   -3.9353  -13.8305 C   0  0  0  0  0  0  0  0  0  0  0  0
 11 12  1  0  0  0
 12  1  1  0  0  0
  1  2  1  0  0  0
  1 10  2  0  0  0
  2  3  2  0  0  0
  3  4  1  0  0  0
  3  8  1  0  0  0
  4 13  1  0  0  0
  4  5  2  0  0  0
 13 15  1  0  0  0
 13 14  1  0  0  0
 15 16  1  0  0  0
 15 20  2  0  0  0
 16 17  2  0  0  0
 17 18  1  0  0  0
 18 21  1  0  0  0
 18 19  2  0  0  0
 21 22  1  0  0  0
 21 24  1  0  0  0
 22 23  2  0  0  0
 22 25  1  0  0  0
 25 26  1  0  0  0
 25 31  2  0  0  0
 26 27  2  0  0  0
 27 28  1  0  0  0
 28 29  2  0  0  0
 29 30  1  0  0  0
 29 31  1  0  0  0
 19 20  1  0  0  0
  5  6  1  0  0  0
  6  7  2  0  0  0
  7  8  1  0  0  0
  8  9  2  0  0  0
  9 10  1  0  0  0
 10 32  1  0  0  0
 32 33  1  0  0  0
 33 34  1  0  0  0
 34 35  1  0  0  0
 35 36  1  0  0  0
 35 40  1  0  0  0
 36 37  1  0  0  0
 37 38  1  0  0  0
 38 39  1  0  0  0
 39 40  1  0  0  0
M  END
> <minimizedAffinity>
-9.86282

$$$$
