CHEMBL3892030


 34 37  0  0  0  0  0  0  0  0999 V2000
  -28.4679   -9.5759   -5.6152 C   0  0  0  0  0  0  0  0  0  0  0  0
  -27.6324  -10.4641   -6.2953 C   0  0  0  0  0  0  0  0  0  0  0  0
  -27.3723  -10.3076   -7.6764 C   0  0  0  0  0  0  0  0  0  0  0  0
  -26.5163  -11.1177   -8.4312 C   0  0  0  0  0  0  0  0  0  0  0  0
  -26.2786  -10.8931   -9.7382 N   0  0  0  0  0  0  0  0  0  0  0  0
  -26.9046   -9.8559  -10.2968 C   0  0  0  0  0  0  0  0  0  0  0  0
  -27.7374   -9.0219   -9.6756 N   0  0  0  0  0  0  0  0  0  0  0  0
  -27.9554   -9.2557   -8.3800 C   0  0  0  0  0  0  0  0  0  0  0  0
  -28.8181   -8.4175   -7.7093 C   0  0  0  0  0  0  0  0  0  0  0  0
  -29.1419   -8.5893   -6.3519 C   0  0  0  0  0  0  0  0  0  0  0  0
  -27.6884  -10.3957   -3.5281 C   0  0  0  0  0  0  0  0  0  0  0  0
  -28.6591   -9.6376   -4.2591 O   0  0  0  0  0  0  0  0  0  0  0  0
  -25.8648  -12.2083   -7.7960 N   0  0  0  0  0  0  0  0  0  0  0  0
  -25.7336  -12.9623   -8.4621 H   0  0  0  0  0  0  0  0  0  0  0  0
  -24.7974  -12.0659   -6.8885 C   0  0  0  0  0  0  0  0  0  0  0  0
  -24.9440  -12.4660   -5.5529 C   0  0  0  0  0  0  0  0  0  0  0  0
  -23.9158  -12.2585   -4.6329 C   0  0  0  0  0  0  0  0  0  0  0  0
  -22.7207  -11.6635   -5.0429 C   0  0  0  0  0  0  0  0  0  0  0  0
  -21.5073  -11.3931   -3.8449 Cl  0  0  0  0  0  0  0  0  0  0  0  0
  -22.5533  -11.2962   -6.3835 C   0  0  0  0  0  0  0  0  0  0  0  0
  -21.1054  -10.5520   -6.9632 Cl  0  0  0  0  0  0  0  0  0  0  0  0
  -23.5852  -11.5072   -7.3034 C   0  0  0  0  0  0  0  0  0  0  0  0
  -30.0978   -7.8162   -5.7245 O   0  0  0  0  0  0  0  0  0  0  0  0
  -30.5692   -6.7336   -6.5384 C   0  0  0  0  0  0  0  0  0  0  0  0
  -29.8633   -5.4073   -6.2914 C   0  0  0  0  0  0  0  0  0  0  0  0
  -30.5799   -4.5533   -5.2417 C   0  0  0  0  0  0  0  0  0  0  0  0
  -29.8176   -3.2714   -5.0401 N   0  0  0  0  0  0  0  0  0  0  0  0
  -29.7099   -2.5465   -6.3500 C   0  0  0  0  0  0  0  0  0  0  0  0
  -29.1751   -3.4514   -7.4744 C   0  0  0  0  0  0  0  0  0  0  0  0
  -29.8699   -4.7013   -7.5573 O   0  0  0  0  0  0  0  0  0  0  0  0
  -28.3805   -3.4521   -4.1391 S   0  0  0  0  0  0  0  0  0  0  0  0
  -27.3221   -2.2364   -4.8832 C   0  0  0  0  0  0  0  0  0  0  0  0
  -28.6475   -3.0166   -2.7861 O   0  0  0  0  0  0  0  0  0  0  0  0
  -27.8327   -4.7629   -4.4092 O   0  0  0  0  0  0  0  0  0  0  0  0
 11 12  1  0  0  0
 12  1  1  0  0  0
  1  2  1  0  0  0
  1 10  2  0  0  0
  2  3  2  0  0  0
  3  4  1  0  0  0
  3  8  1  0  0  0
  4 13  1  0  0  0
  4  5  2  0  0  0
 13 15  1  0  0  0
 13 14  1  0  0  0
 15 16  1  0  0  0
 15 22  2  0  0  0
 16 17  2  0  0  0
 17 18  1  0  0  0
 18 19  1  0  0  0
 18 20  2  0  0  0
 20 21  1  0  0  0
 20 22  1  0  0  0
  5  6  1  0  0  0
  6  7  2  0  0  0
  7  8  1  0  0  0
  8  9  2  0  0  0
  9 10  1  0  0  0
 10 23  1  0  0  0
 23 24  1  0  0  0
 24 25  1  0  0  0
 25 26  1  0  0  0
 25 30  1  0  0  0
 26 27  1  0  0  0
 27 31  1  0  0  0
 27 28  1  0  0  0
 31 32  1  0  0  0
 31 33  2  0  0  0
 31 34  2  0  0  0
 28 29  1  0  0  0
 29 30  1  0  0  0
M  END
> <minimizedAffinity>
-7.33667

$$$$
