CHEMBL412082


 26 29  0  0  0  0  0  0  0  0999 V2000
  -15.0546   -4.3765  -12.5084 C   0  0  0  0  0  0  0  0  0  0  0  0
  -14.3125   -4.8583  -13.5680 C   0  0  0  0  0  0  0  0  0  0  0  0
  -13.9130   -3.8124  -14.3394 N   0  0  0  0  0  0  0  0  0  0  0  0
  -13.1914   -3.9444  -15.4581 N   0  0  0  0  0  0  0  0  0  0  0  0
  -12.9064   -2.8206  -16.0265 C   0  0  0  0  0  0  0  0  0  0  0  0
  -13.2557   -1.5768  -15.5871 N   0  0  0  0  0  0  0  0  0  0  0  0
  -13.9553   -1.4246  -14.5001 C   0  0  0  0  0  0  0  0  0  0  0  0
  -14.3497   -2.6314  -13.8004 C   0  0  0  0  0  0  0  0  0  0  0  0
  -15.0782   -2.9353  -12.6463 C   0  0  0  0  0  0  0  0  0  0  0  0
  -15.7784   -2.0517  -11.6676 C   0  0  0  0  0  0  0  0  0  0  0  0
  -15.6716   -5.2035  -11.4715 C   0  0  0  0  0  0  0  0  0  0  0  0
  -16.8841   -5.3158  -11.3298 O   0  0  0  0  0  0  0  0  0  0  0  0
  -14.0419   -4.9713   -9.7989 C   0  0  0  0  0  0  0  0  0  0  0  0
  -14.7452   -5.8324  -10.6911 O   0  0  0  0  0  0  0  0  0  0  0  0
  -14.2808   -0.1646  -14.0421 N   0  0  0  0  0  0  0  0  0  0  0  0
  -13.5635    0.3221  -13.5366 H   0  0  0  0  0  0  0  0  0  0  0  0
  -15.2593    0.7128  -14.5559 C   0  0  0  0  0  0  0  0  0  0  0  0
  -14.9921    1.8937  -15.2574 C   0  0  0  0  0  0  0  0  0  0  0  0
  -15.9019    2.7924  -15.7195 N   0  0  0  0  0  0  0  0  0  0  0  0
  -17.1650    2.4450  -15.4276 C   0  0  0  0  0  0  0  0  0  0  0  0
  -18.2659    3.1819  -15.7613 N   0  0  0  0  0  0  0  0  0  0  0  0
  -19.3973    2.5530  -15.3086 C   0  0  0  0  0  0  0  0  0  0  0  0
  -19.0120    1.3882  -14.6775 C   0  0  0  0  0  0  0  0  0  0  0  0
  -17.5959    1.3116  -14.7520 C   0  0  0  0  0  0  0  0  0  0  0  0
  -16.6111    0.4120  -14.3131 C   0  0  0  0  0  0  0  0  0  0  0  0
  -18.2197    4.0579  -16.2606 H   0  0  0  0  0  0  0  0  0  0  0  0
 13 14  1  0  0  0
 14 11  1  0  0  0
 11 12  2  0  0  0
 11  1  1  0  0  0
  1  2  2  0  0  0
  1  9  1  0  0  0
  2  3  1  0  0  0
  3  4  1  0  0  0
  3  8  1  0  0  0
  4  5  2  0  0  0
  5  6  1  0  0  0
  6  7  2  0  0  0
  7 15  1  0  0  0
  7  8  1  0  0  0
 15 17  1  0  0  0
 15 16  1  0  0  0
 17 18  1  0  0  0
 17 25  2  0  0  0
 18 19  2  0  0  0
 19 20  1  0  0  0
 20 21  1  0  0  0
 20 24  2  0  0  0
 21 22  1  0  0  0
 21 26  1  0  0  0
 22 23  2  0  0  0
 23 24  1  0  0  0
 24 25  1  0  0  0
  8  9  2  0  0  0
  9 10  1  0  0  0
M  END
> <minimizedAffinity>
-7.02161

$$$$
