CHEMBL3781034


 33 36  0  0  0  0  0  0  0  0999 V2000
  -28.5919   -9.1847   -4.1186 C   0  0  0  0  0  0  0  0  0  0  0  0
  -28.9416   -8.4011   -3.0772 N   0  0  0  0  0  0  0  0  0  0  0  0
  -29.6219   -7.2462   -3.2930 N   0  0  0  0  0  0  0  0  0  0  0  0
  -29.9859   -6.8673   -4.5378 C   0  0  0  0  0  0  0  0  0  0  0  0
  -29.5582   -7.5970   -5.6665 C   0  0  0  0  0  0  0  0  0  0  0  0
  -29.8865   -7.2407   -6.9977 C   0  0  0  0  0  0  0  0  0  0  0  0
  -29.4597   -8.0046   -8.0857 C   0  0  0  0  0  0  0  0  0  0  0  0
  -28.6984   -9.1445   -7.8713 C   0  0  0  0  0  0  0  0  0  0  0  0
  -28.3875   -9.5355   -6.5692 C   0  0  0  0  0  0  0  0  0  0  0  0
  -28.8184   -8.7868   -5.4483 C   0  0  0  0  0  0  0  0  0  0  0  0
  -30.8606   -5.7555   -4.6800 N   0  0  0  0  0  0  0  0  0  0  0  0
  -31.6784   -6.0086   -5.2157 H   0  0  0  0  0  0  0  0  0  0  0  0
  -30.4378   -4.4156   -4.8370 C   0  0  0  0  0  0  0  0  0  0  0  0
  -30.1736   -3.6093   -3.7218 C   0  0  0  0  0  0  0  0  0  0  0  0
  -29.7124   -2.2936   -3.8830 C   0  0  0  0  0  0  0  0  0  0  0  0
  -29.4810   -1.7924   -5.1673 C   0  0  0  0  0  0  0  0  0  0  0  0
  -29.7218   -2.5823   -6.2875 C   0  0  0  0  0  0  0  0  0  0  0  0
  -30.1795   -3.8871   -6.1137 C   0  0  0  0  0  0  0  0  0  0  0  0
  -28.8810   -0.1488   -5.3956 S   0  0  0  0  0  0  0  0  0  0  0  0
  -28.2319   -0.2456   -6.9397 N   0  0  0  0  0  0  0  0  0  0  0  0
  -29.9943    0.7658   -5.4903 O   0  0  0  0  0  0  0  0  0  0  0  0
  -27.7631    0.0791   -4.5089 O   0  0  0  0  0  0  0  0  0  0  0  0
  -28.7447    0.3646   -7.5747 H   0  0  0  0  0  0  0  0  0  0  0  0
  -27.2276   -0.0719   -6.9077 H   0  0  0  0  0  0  0  0  0  0  0  0
  -28.0879  -10.5544   -3.7240 C   0  0  0  0  0  0  0  0  0  0  0  0
  -23.8633  -10.9609   -2.8613 C   0  0  0  0  0  0  0  0  0  0  0  0
  -24.7607  -11.9283   -2.4094 C   0  0  0  0  0  0  0  0  0  0  0  0
  -26.1301  -11.8028   -2.6692 C   0  0  0  0  0  0  0  0  0  0  0  0
  -26.6278  -10.6959   -3.3654 C   0  0  0  0  0  0  0  0  0  0  0  0
  -25.7148   -9.7423   -3.8422 C   0  0  0  0  0  0  0  0  0  0  0  0
  -24.3474   -9.8735   -3.5879 C   0  0  0  0  0  0  0  0  0  0  0  0
  -21.7303  -11.5813   -3.6913 C   0  0  0  0  0  0  0  0  0  0  0  0
  -22.5089  -10.9713   -2.6689 O   0  0  0  0  0  0  0  0  0  0  0  0
 32 33  1  0  0  0
 33 26  1  0  0  0
 26 27  1  0  0  0
 26 31  2  0  0  0
 27 28  2  0  0  0
 28 29  1  0  0  0
 29 25  1  0  0  0
 29 30  2  0  0  0
 25  1  1  0  0  0
  1  2  1  0  0  0
  1 10  2  0  0  0
  2  3  2  0  0  0
  3  4  1  0  0  0
  4 11  1  0  0  0
  4  5  2  0  0  0
 11 13  1  0  0  0
 11 12  1  0  0  0
 13 14  1  0  0  0
 13 18  2  0  0  0
 14 15  2  0  0  0
 15 16  1  0  0  0
 16 19  1  0  0  0
 16 17  2  0  0  0
 19 20  1  0  0  0
 19 21  2  0  0  0
 19 22  2  0  0  0
 20 23  1  0  0  0
 20 24  1  0  0  0
 17 18  1  0  0  0
  5  6  1  0  0  0
  5 10  1  0  0  0
  6  7  2  0  0  0
  7  8  1  0  0  0
  8  9  2  0  0  0
  9 10  1  0  0  0
 30 31  1  0  0  0
M  END
> <minimizedAffinity>
-8.73931

$$$$
