CHEMBL3932218


 35 38  0  0  0  0  0  0  0  0999 V2000
  -29.5124   -9.0732   -5.8450 C   0  0  0  0  0  0  0  0  0  0  0  0
  -28.5931   -9.9782   -6.3926 C   0  0  0  0  0  0  0  0  0  0  0  0
  -27.2449  -10.0285   -5.9522 C   0  0  0  0  0  0  0  0  0  0  0  0
  -26.2351  -10.8714   -6.4346 C   0  0  0  0  0  0  0  0  0  0  0  0
  -24.9890  -10.8785   -5.9066 N   0  0  0  0  0  0  0  0  0  0  0  0
  -24.7430  -10.0387   -4.9041 C   0  0  0  0  0  0  0  0  0  0  0  0
  -25.6164   -9.1771   -4.3882 N   0  0  0  0  0  0  0  0  0  0  0  0
  -26.8391   -9.1907   -4.9141 C   0  0  0  0  0  0  0  0  0  0  0  0
  -27.7446   -8.3058   -4.3900 C   0  0  0  0  0  0  0  0  0  0  0  0
  -29.0602   -8.1810   -4.8683 C   0  0  0  0  0  0  0  0  0  0  0  0
  -31.0408  -10.1397   -7.3746 C   0  0  0  0  0  0  0  0  0  0  0  0
  -30.7379   -9.1078   -6.4436 O   0  0  0  0  0  0  0  0  0  0  0  0
  -26.5056  -11.7547   -7.5173 N   0  0  0  0  0  0  0  0  0  0  0  0
  -26.8639  -12.6360   -7.1578 H   0  0  0  0  0  0  0  0  0  0  0  0
  -27.1243  -11.3266   -8.7076 C   0  0  0  0  0  0  0  0  0  0  0  0
  -28.2940  -11.9702   -9.1537 C   0  0  0  0  0  0  0  0  0  0  0  0
  -28.8642  -11.6543  -10.3794 C   0  0  0  0  0  0  0  0  0  0  0  0
  -28.2834  -10.6759  -11.1852 C   0  0  0  0  0  0  0  0  0  0  0  0
  -28.9936  -10.3861  -12.7308 Cl  0  0  0  0  0  0  0  0  0  0  0  0
  -27.1465   -9.9877  -10.7341 C   0  0  0  0  0  0  0  0  0  0  0  0
  -26.3845   -8.7583  -11.6740 Cl  0  0  0  0  0  0  0  0  0  0  0  0
  -26.5803  -10.3067   -9.4911 C   0  0  0  0  0  0  0  0  0  0  0  0
  -29.8771   -7.1733   -4.4231 O   0  0  0  0  0  0  0  0  0  0  0  0
  -30.2114   -6.2142   -5.4289 C   0  0  0  0  0  0  0  0  0  0  0  0
  -29.7918   -4.8146   -5.0329 C   0  0  0  0  0  0  0  0  0  0  0  0
  -28.2876   -4.7575   -4.6832 C   0  0  0  0  0  0  0  0  0  0  0  0
  -27.8672   -3.4165   -4.1992 N   0  0  0  0  0  0  0  0  0  0  0  0
  -28.7655   -3.0578   -3.0764 C   0  0  0  0  0  0  0  0  0  0  0  0
  -30.2620   -3.1505   -3.4121 C   0  0  0  0  0  0  0  0  0  0  0  0
  -30.6046   -4.4492   -3.9027 O   0  0  0  0  0  0  0  0  0  0  0  0
  -27.9309   -2.4636   -5.3168 C   0  0  0  0  0  0  0  0  0  0  0  0
  -27.6182   -1.0489   -4.9386 C   0  0  0  0  0  0  0  0  0  0  0  0
  -28.4737   -0.0097   -5.0202 C   0  0  0  0  0  0  0  0  0  0  0  0
  -29.8878   -0.0942   -5.5353 C   0  0  0  0  0  0  0  0  0  0  0  0
  -28.0491    1.3742   -4.6148 C   0  0  0  0  0  0  0  0  0  0  0  0
 11 12  1  0  0  0
 12  1  1  0  0  0
  1  2  1  0  0  0
  1 10  2  0  0  0
  2  3  2  0  0  0
  3  4  1  0  0  0
  3  8  1  0  0  0
  4 13  1  0  0  0
  4  5  2  0  0  0
 13 15  1  0  0  0
 13 14  1  0  0  0
 15 16  1  0  0  0
 15 22  2  0  0  0
 16 17  2  0  0  0
 17 18  1  0  0  0
 18 19  1  0  0  0
 18 20  2  0  0  0
 20 21  1  0  0  0
 20 22  1  0  0  0
  5  6  1  0  0  0
  6  7  2  0  0  0
  7  8  1  0  0  0
  8  9  2  0  0  0
  9 10  1  0  0  0
 10 23  1  0  0  0
 23 24  1  0  0  0
 24 25  1  0  0  0
 25 26  1  0  0  0
 25 30  1  0  0  0
 26 27  1  0  0  0
 27 31  1  0  0  0
 27 28  1  0  0  0
 31 32  1  0  0  0
 32 33  2  0  0  0
 33 34  1  0  0  0
 33 35  1  0  0  0
 28 29  1  0  0  0
 29 30  1  0  0  0
M  END
> <minimizedAffinity>
-8.01713

$$$$
