CHEMBL4779200


 51 57  0  0  0  0  0  0  0  0999 V2000
  -12.3967   -2.9489  -16.2406 C   0  0  0  0  0  0  0  0  0  0  0  0
  -12.5631   -2.8527  -14.8575 C   0  0  0  0  0  0  0  0  0  0  0  0
  -13.0885   -1.6804  -14.2869 C   0  0  0  0  0  0  0  0  0  0  0  0
  -13.4460   -0.5821  -15.0851 C   0  0  0  0  0  0  0  0  0  0  0  0
  -13.3110   -0.7132  -16.4705 C   0  0  0  0  0  0  0  0  0  0  0  0
  -12.7675   -1.8633  -17.0360 C   0  0  0  0  0  0  0  0  0  0  0  0
  -12.5775   -1.8764  -18.3646 F   0  0  0  0  0  0  0  0  0  0  0  0
  -13.8757    0.6192  -14.4866 N   0  0  0  0  0  0  0  0  0  0  0  0
  -13.8414    0.6340  -13.4647 H   0  0  0  0  0  0  0  0  0  0  0  0
  -13.8650    1.9264  -15.0280 C   0  0  0  0  0  0  0  0  0  0  0  0
  -12.6715    2.4953  -15.3378 N   0  0  0  0  0  0  0  0  0  0  0  0
  -12.6418    3.7063  -15.9276 C   0  0  0  0  0  0  0  0  0  0  0  0
  -13.7728    4.4282  -16.2418 C   0  0  0  0  0  0  0  0  0  0  0  0
  -15.0074    3.8772  -15.9141 C   0  0  0  0  0  0  0  0  0  0  0  0
  -16.1924    4.5396  -16.2770 N   0  0  0  0  0  0  0  0  0  0  0  0
  -17.4125    4.0078  -15.9628 C   0  0  0  0  0  0  0  0  0  0  0  0
  -17.6024    2.8340  -15.3416 C   0  0  0  0  0  0  0  0  0  0  0  0
  -16.3864    2.0582  -14.9324 C   0  0  0  0  0  0  0  0  0  0  0  0
  -16.4809    1.0413  -14.2624 O   0  0  0  0  0  0  0  0  0  0  0  0
  -15.0534    2.6031  -15.3087 C   0  0  0  0  0  0  0  0  0  0  0  0
  -16.1460    5.5268  -16.5058 H   0  0  0  0  0  0  0  0  0  0  0  0
  -18.9557    2.3974  -14.9825 C   0  0  0  0  0  0  0  0  0  0  0  0
  -19.3704    1.0735  -15.1898 C   0  0  0  0  0  0  0  0  0  0  0  0
  -20.6787    0.6958  -14.8806 C   0  0  0  0  0  0  0  0  0  0  0  0
  -21.5648    1.6377  -14.3687 C   0  0  0  0  0  0  0  0  0  0  0  0
  -22.8235    1.2772  -14.0872 F   0  0  0  0  0  0  0  0  0  0  0  0
  -21.1654    2.9503  -14.1467 C   0  0  0  0  0  0  0  0  0  0  0  0
  -19.8598    3.3311  -14.4513 C   0  0  0  0  0  0  0  0  0  0  0  0
  -11.7907   -4.0919  -16.7269 O   0  0  0  0  0  0  0  0  0  0  0  0
  -12.5443   -8.4682  -14.1918 C   0  0  0  0  0  0  0  0  0  0  0  0
  -13.3169   -8.4242  -15.3554 C   0  0  0  0  0  0  0  0  0  0  0  0
  -13.3111   -7.3405  -16.2133 C   0  0  0  0  0  0  0  0  0  0  0  0
  -14.0725   -7.4338  -17.3076 N   0  0  0  0  0  0  0  0  0  0  0  0
  -14.0793   -6.3843  -18.1335 C   0  0  0  0  0  0  0  0  0  0  0  0
  -13.4075   -5.2496  -17.9571 N   0  0  0  0  0  0  0  0  0  0  0  0
  -12.5973   -5.2155  -16.8758 C   0  0  0  0  0  0  0  0  0  0  0  0
  -12.5174   -6.2329  -15.9120 C   0  0  0  0  0  0  0  0  0  0  0  0
  -11.7101   -6.2579  -14.7389 C   0  0  0  0  0  0  0  0  0  0  0  0
  -11.6803   -7.3939  -13.9150 C   0  0  0  0  0  0  0  0  0  0  0  0
  -13.1347   -9.4290  -12.0723 C   0  0  0  0  0  0  0  0  0  0  0  0
  -12.5467   -9.5577  -13.3637 O   0  0  0  0  0  0  0  0  0  0  0  0
  -10.7695   -7.3477  -12.8772 O   0  0  0  0  0  0  0  0  0  0  0  0
  -10.7798   -6.0883  -12.1907 C   0  0  0  0  0  0  0  0  0  0  0  0
  -11.9213   -5.9898  -11.1776 C   0  0  0  0  0  0  0  0  0  0  0  0
  -12.6095   -4.6216  -11.3554 C   0  0  0  0  0  0  0  0  0  0  0  0
  -13.9893   -4.6623  -11.8615 N   0  0  0  0  0  0  0  0  0  0  0  0
  -14.4644   -6.0316  -12.1053 C   0  0  0  0  0  0  0  0  0  0  0  0
  -15.8361   -5.9861  -12.7771 C   0  0  0  0  0  0  0  0  0  0  0  0
  -16.8540   -5.2540  -11.9118 C   0  0  0  0  0  0  0  0  0  0  0  0
  -16.3188   -3.8981  -11.4629 C   0  0  0  0  0  0  0  0  0  0  0  0
  -14.8968   -3.9944  -10.9050 C   0  0  0  0  0  0  0  0  0  0  0  0
 40 41  1  0  0  0
 41 30  1  0  0  0
 30 31  1  0  0  0
 30 39  2  0  0  0
 31 32  2  0  0  0
 32 33  1  0  0  0
 32 37  1  0  0  0
 33 34  2  0  0  0
 34 35  1  0  0  0
 35 36  2  0  0  0
 36 29  1  0  0  0
 36 37  1  0  0  0
 29  1  1  0  0  0
  1  2  1  0  0  0
  1  6  2  0  0  0
  2  3  2  0  0  0
  3  4  1  0  0  0
  4  8  1  0  0  0
  4  5  2  0  0  0
  8 10  1  0  0  0
  8  9  1  0  0  0
 10 11  1  0  0  0
 10 20  2  0  0  0
 11 12  2  0  0  0
 12 13  1  0  0  0
 13 14  2  0  0  0
 14 15  1  0  0  0
 14 20  1  0  0  0
 15 16  1  0  0  0
 15 21  1  0  0  0
 16 17  2  0  0  0
 17 22  1  0  0  0
 17 18  1  0  0  0
 22 23  1  0  0  0
 22 28  2  0  0  0
 23 24  2  0  0  0
 24 25  1  0  0  0
 25 26  1  0  0  0
 25 27  2  0  0  0
 27 28  1  0  0  0
 18 19  2  0  0  0
 18 20  1  0  0  0
  5  6  1  0  0  0
  6  7  1  0  0  0
 37 38  2  0  0  0
 38 39  1  0  0  0
 39 42  1  0  0  0
 42 43  1  0  0  0
 43 44  1  0  0  0
 44 45  1  0  0  0
 45 46  1  0  0  0
 46 47  1  0  0  0
 46 51  1  0  0  0
 47 48  1  0  0  0
 48 49  1  0  0  0
 49 50  1  0  0  0
 50 51  1  0  0  0
M  END
> <minimizedAffinity>
-9.39405

$$$$
