CHEMBL4160549


 30 34  0  0  0  0  0  0  0  0999 V2000
  -27.9422   -2.0480   -8.3409 C   0  0  0  0  0  0  0  0  0  0  0  0
  -28.4823   -3.2246   -8.5785 N   0  0  0  0  0  0  0  0  0  0  0  0
  -29.0043   -3.6656   -7.3926 C   0  0  0  0  0  0  0  0  0  0  0  0
  -29.7160   -4.8421   -7.1148 C   0  0  0  0  0  0  0  0  0  0  0  0
  -30.1727   -5.0614   -5.8092 C   0  0  0  0  0  0  0  0  0  0  0  0
  -29.8665   -4.1475   -4.7934 C   0  0  0  0  0  0  0  0  0  0  0  0
  -29.1710   -2.9630   -5.0577 C   0  0  0  0  0  0  0  0  0  0  0  0
  -28.7574   -2.7513   -6.3766 C   0  0  0  0  0  0  0  0  0  0  0  0
  -28.0892   -1.7253   -7.0040 N   0  0  0  0  0  0  0  0  0  0  0  0
  -27.6930   -0.4848   -6.3828 C   0  0  0  0  0  0  0  0  0  0  0  0
  -27.3435   -1.1852   -9.1992 N   0  0  0  0  0  0  0  0  0  0  0  0
  -27.3587   -0.1933   -9.0069 H   0  0  0  0  0  0  0  0  0  0  0  0
  -23.4248   -1.8387  -12.1278 C   0  0  0  0  0  0  0  0  0  0  0  0
  -24.9139   -1.7804  -11.9606 C   0  0  0  0  0  0  0  0  0  0  0  0
  -25.7620   -1.8927  -13.0635 C   0  0  0  0  0  0  0  0  0  0  0  0
  -27.1407   -1.8033  -12.8940 C   0  0  0  0  0  0  0  0  0  0  0  0
  -27.6813   -1.5904  -11.6237 C   0  0  0  0  0  0  0  0  0  0  0  0
  -26.8619   -1.4685  -10.4973 C   0  0  0  0  0  0  0  0  0  0  0  0
  -25.4720   -1.5826  -10.6866 C   0  0  0  0  0  0  0  0  0  0  0  0
  -30.8484   -6.2444   -5.5975 O   0  0  0  0  0  0  0  0  0  0  0  0
  -30.2994   -7.4198   -6.0917 C   0  0  0  0  0  0  0  0  0  0  0  0
  -29.0070   -7.7417   -5.8328 N   0  0  0  0  0  0  0  0  0  0  0  0
  -28.5180   -8.8760   -6.3675 C   0  0  0  0  0  0  0  0  0  0  0  0
  -29.1616   -9.7737   -7.1345 N   0  0  0  0  0  0  0  0  0  0  0  0
  -30.4469   -9.4288   -7.3204 C   0  0  0  0  0  0  0  0  0  0  0  0
  -31.0813   -8.2998   -6.8344 C   0  0  0  0  0  0  0  0  0  0  0  0
  -32.4048   -8.4038   -7.3000 C   0  0  0  0  0  0  0  0  0  0  0  0
  -32.6096   -9.5060   -8.0338 N   0  0  0  0  0  0  0  0  0  0  0  0
  -31.3983  -10.1092   -8.0318 N   0  0  0  0  0  0  0  0  0  0  0  0
  -31.1947  -11.3462   -8.7430 C   0  0  0  0  0  0  0  0  0  0  0  0
 13 14  1  0  0  0
 14 15  1  0  0  0
 14 19  2  0  0  0
 15 16  2  0  0  0
 16 17  1  0  0  0
 17 18  2  0  0  0
 18 11  1  0  0  0
 18 19  1  0  0  0
 11  1  1  0  0  0
 11 12  1  0  0  0
  1  2  2  0  0  0
  1  9  1  0  0  0
  2  3  1  0  0  0
  3  4  1  0  0  0
  3  8  2  0  0  0
  4  5  2  0  0  0
  5 20  1  0  0  0
  5  6  1  0  0  0
 20 21  1  0  0  0
 21 22  1  0  0  0
 21 26  2  0  0  0
 22 23  2  0  0  0
 23 24  1  0  0  0
 24 25  2  0  0  0
 25 26  1  0  0  0
 25 29  1  0  0  0
 26 27  1  0  0  0
 27 28  2  0  0  0
 28 29  1  0  0  0
 29 30  1  0  0  0
  6  7  2  0  0  0
  7  8  1  0  0  0
  8  9  1  0  0  0
  9 10  1  0  0  0
M  END
> <minimizedAffinity>
-9.80795

$$$$
