CHEMBL363607


 31 33  0  0  0  0  0  0  0  0999 V2000
  -16.9515    1.3290  -15.6000 C   0  0  0  0  0  0  0  0  0  0  0  0
  -16.4873    1.6989  -16.6755 O   0  0  0  0  0  0  0  0  0  0  0  0
  -16.1391    0.5335  -14.7794 N   0  0  0  0  0  0  0  0  0  0  0  0
  -16.6740   -0.2276  -13.7823 N   0  0  0  0  0  0  0  0  0  0  0  0
  -15.5929   -0.7780  -13.2336 C   0  0  0  0  0  0  0  0  0  0  0  0
  -14.4164   -0.4030  -13.8210 N   0  0  0  0  0  0  0  0  0  0  0  0
  -14.7706    0.3987  -14.7956 C   0  0  0  0  0  0  0  0  0  0  0  0
  -13.8556    1.1327  -15.6967 C   0  0  0  0  0  0  0  0  0  0  0  0
  -21.7069    0.2419  -14.6670 C   0  0  0  0  0  0  0  0  0  0  0  0
  -20.6083    1.2603  -14.6927 C   0  0  0  0  0  0  0  0  0  0  0  0
  -20.8154    2.5875  -14.3047 C   0  0  0  0  0  0  0  0  0  0  0  0
  -19.7606    3.5039  -14.3513 C   0  0  0  0  0  0  0  0  0  0  0  0
  -18.5059    3.1043  -14.8075 C   0  0  0  0  0  0  0  0  0  0  0  0
  -17.5255    4.0164  -14.8603 F   0  0  0  0  0  0  0  0  0  0  0  0
  -18.2876    1.7898  -15.1982 C   0  0  0  0  0  0  0  0  0  0  0  0
  -19.3326    0.8712  -15.1052 C   0  0  0  0  0  0  0  0  0  0  0  0
  -19.1186   -0.4307  -15.3505 F   0  0  0  0  0  0  0  0  0  0  0  0
  -15.5782   -1.6000  -12.1651 N   0  0  0  0  0  0  0  0  0  0  0  0
  -15.6976   -1.1852  -11.2525 H   0  0  0  0  0  0  0  0  0  0  0  0
  -15.3560   -2.9910  -12.1812 C   0  0  0  0  0  0  0  0  0  0  0  0
  -14.5511   -3.5964  -11.2081 C   0  0  0  0  0  0  0  0  0  0  0  0
  -14.1483   -4.9300  -11.3536 C   0  0  0  0  0  0  0  0  0  0  0  0
  -14.5644   -5.6623  -12.4712 C   0  0  0  0  0  0  0  0  0  0  0  0
  -15.4012   -5.0921  -13.4229 C   0  0  0  0  0  0  0  0  0  0  0  0
  -15.7950   -3.7696  -13.2657 C   0  0  0  0  0  0  0  0  0  0  0  0
  -13.9528   -7.2944  -12.7442 S   0  0  0  0  0  0  0  0  0  0  0  0
  -13.5550   -7.7660  -11.1859 N   0  0  0  0  0  0  0  0  0  0  0  0
  -15.0377   -8.1587  -13.1521 O   0  0  0  0  0  0  0  0  0  0  0  0
  -12.7078   -7.2230  -13.4700 O   0  0  0  0  0  0  0  0  0  0  0  0
  -14.1339   -8.5576  -10.9087 H   0  0  0  0  0  0  0  0  0  0  0  0
  -12.5517   -7.9383  -11.1281 H   0  0  0  0  0  0  0  0  0  0  0  0
  9 10  1  0  0  0
 10 11  1  0  0  0
 10 16  2  0  0  0
 11 12  2  0  0  0
 12 13  1  0  0  0
 13 14  1  0  0  0
 13 15  2  0  0  0
 15  1  1  0  0  0
 15 16  1  0  0  0
  1  2  2  0  0  0
  1  3  1  0  0  0
  3  4  1  0  0  0
  3  7  1  0  0  0
  4  5  2  0  0  0
  5 18  1  0  0  0
  5  6  1  0  0  0
 18 20  1  0  0  0
 18 19  1  0  0  0
 20 21  1  0  0  0
 20 25  2  0  0  0
 21 22  2  0  0  0
 22 23  1  0  0  0
 23 26  1  0  0  0
 23 24  2  0  0  0
 26 27  1  0  0  0
 26 28  2  0  0  0
 26 29  2  0  0  0
 27 30  1  0  0  0
 27 31  1  0  0  0
 24 25  1  0  0  0
  6  7  2  0  0  0
  7  8  1  0  0  0
 16 17  1  0  0  0
M  END
> <minimizedAffinity>
-8.67683

$$$$
