CHEMBL428039


 35 37  0  0  0  0  0  0  0  0999 V2000
  -28.0342   -2.0789   -5.5540 C   0  0  0  0  0  0  0  0  0  0  0  0
  -28.3755   -2.8687   -4.4409 C   0  0  0  0  0  0  0  0  0  0  0  0
  -29.0487   -4.0753   -4.5567 C   0  0  0  0  0  0  0  0  0  0  0  0
  -29.2575   -4.8042   -3.4576 N   0  0  0  0  0  0  0  0  0  0  0  0
  -29.8961   -5.9644   -3.6254 C   0  0  0  0  0  0  0  0  0  0  0  0
  -30.3461   -6.4514   -4.7831 N   0  0  0  0  0  0  0  0  0  0  0  0
  -30.1325   -5.7054   -5.8852 C   0  0  0  0  0  0  0  0  0  0  0  0
  -29.4748   -4.4736   -5.8200 C   0  0  0  0  0  0  0  0  0  0  0  0
  -29.2402   -3.6389   -6.9267 C   0  0  0  0  0  0  0  0  0  0  0  0
  -28.4687   -2.4779   -6.8267 C   0  0  0  0  0  0  0  0  0  0  0  0
  -28.1164   -1.7469   -7.9937 N   0  0  0  0  0  0  0  0  0  0  0  0
  -27.5067   -2.3242   -9.0952 C   0  0  0  0  0  0  0  0  0  0  0  0
  -27.1152   -3.4876   -9.1635 O   0  0  0  0  0  0  0  0  0  0  0  0
  -28.1939   -0.7384   -7.9303 H   0  0  0  0  0  0  0  0  0  0  0  0
  -27.2878   -1.4139  -10.2491 C   0  0  0  0  0  0  0  0  0  0  0  0
  -26.4855   -1.8555  -11.2367 C   0  0  0  0  0  0  0  0  0  0  0  0
  -26.0691   -1.1522  -12.4921 C   0  0  0  0  0  0  0  0  0  0  0  0
  -24.6254   -0.9609  -12.6784 N   0  0  0  0  0  0  0  0  0  0  0  0
  -24.1802    0.3133  -12.0997 C   0  0  0  0  0  0  0  0  0  0  0  0
  -23.9133   -2.0588  -12.0111 C   0  0  0  0  0  0  0  0  0  0  0  0
  -30.6035   -6.1926   -7.1348 N   0  0  0  0  0  0  0  0  0  0  0  0
  -30.6854   -5.4277   -7.8125 H   0  0  0  0  0  0  0  0  0  0  0  0
  -30.0510   -7.3332   -7.7024 C   0  0  0  0  0  0  0  0  0  0  0  0
  -28.7979   -7.4016   -8.1647 C   0  0  0  0  0  0  0  0  0  0  0  0
  -28.2518   -8.5618   -8.8747 C   0  0  0  0  0  0  0  0  0  0  0  0
  -27.1034   -8.4923   -9.2978 O   0  0  0  0  0  0  0  0  0  0  0  0
  -29.1488   -9.7486   -9.0547 C   0  0  0  0  0  0  0  0  0  0  0  0
  -30.3815   -9.7080   -8.5326 C   0  0  0  0  0  0  0  0  0  0  0  0
  -30.9230   -8.5414   -7.8096 C   0  0  0  0  0  0  0  0  0  0  0  0
  -32.0516   -8.5544   -7.3357 O   0  0  0  0  0  0  0  0  0  0  0  0
  -28.7735  -10.9004   -9.7335 O   0  0  0  0  0  0  0  0  0  0  0  0
  -28.7962  -10.8580  -11.1568 C   0  0  0  0  0  0  0  0  0  0  0  0
  -27.2507   -0.9482   -5.4558 O   0  0  0  0  0  0  0  0  0  0  0  0
  -28.6046    1.0188   -5.8521 C   0  0  0  0  0  0  0  0  0  0  0  0
  -27.8931    0.1693   -4.8192 C   0  0  0  0  0  0  0  0  0  0  0  0
 34 35  1  0  0  0
 35 33  1  0  0  0
 33  1  1  0  0  0
  1  2  1  0  0  0
  1 10  2  0  0  0
  2  3  2  0  0  0
  3  4  1  0  0  0
  3  8  1  0  0  0
  4  5  2  0  0  0
  5  6  1  0  0  0
  6  7  2  0  0  0
  7 21  1  0  0  0
  7  8  1  0  0  0
 21 23  1  0  0  0
 21 22  1  0  0  0
 23 24  2  0  0  0
 23 29  1  0  0  0
 24 25  1  0  0  0
 25 26  2  0  0  0
 25 27  1  0  0  0
 27 31  1  0  0  0
 27 28  2  0  0  0
 31 32  1  0  0  0
 28 29  1  0  0  0
 29 30  2  0  0  0
  8  9  2  0  0  0
  9 10  1  0  0  0
 10 11  1  0  0  0
 11 12  1  0  0  0
 11 14  1  0  0  0
 12 13  2  0  0  0
 12 15  1  0  0  0
 15 16  2  0  0  0
 16 17  1  0  0  0
 17 18  1  0  0  0
 18 19  1  0  0  0
 18 20  1  0  0  0
M  END
> <minimizedAffinity>
-8.57471

$$$$
