CHEMBL3753316


 35 39  0  0  0  0  0  0  0  0999 V2000
  -29.3075  -10.1213   -7.1252 N   0  0  0  0  0  0  0  0  0  0  0  0
  -30.0641   -9.2281   -8.0397 C   0  0  0  0  0  0  0  0  0  0  0  0
  -29.7026   -7.7213   -8.0053 C   0  0  0  0  0  0  0  0  0  0  0  0
  -29.3821   -7.1666   -6.6810 N   0  0  0  0  0  0  0  0  0  0  0  0
  -28.9926   -8.0596   -5.5823 C   0  0  0  0  0  0  0  0  0  0  0  0
  -29.4513   -9.5267   -5.7759 C   0  0  0  0  0  0  0  0  0  0  0  0
  -29.4873   -5.7934   -6.4126 C   0  0  0  0  0  0  0  0  0  0  0  0
  -28.7156   -4.9425   -7.1231 N   0  0  0  0  0  0  0  0  0  0  0  0
  -28.6111   -3.5902   -6.8019 N   0  0  0  0  0  0  0  0  0  0  0  0
  -29.2134   -3.0839   -5.7040 C   0  0  0  0  0  0  0  0  0  0  0  0
  -30.0104   -3.9296   -4.9013 C   0  0  0  0  0  0  0  0  0  0  0  0
  -30.5733   -3.5453   -3.6534 C   0  0  0  0  0  0  0  0  0  0  0  0
  -31.5120   -4.3258   -2.9826 C   0  0  0  0  0  0  0  0  0  0  0  0
  -31.9421   -5.5035   -3.5622 C   0  0  0  0  0  0  0  0  0  0  0  0
  -31.3331   -5.9431   -4.7325 C   0  0  0  0  0  0  0  0  0  0  0  0
  -30.2661   -5.2508   -5.3567 C   0  0  0  0  0  0  0  0  0  0  0  0
  -29.0105   -1.6184   -5.4941 C   0  0  0  0  0  0  0  0  0  0  0  0
  -30.0108   -0.6577   -5.7592 C   0  0  0  0  0  0  0  0  0  0  0  0
  -29.8368    0.7030   -5.4769 C   0  0  0  0  0  0  0  0  0  0  0  0
  -28.6214    1.1589   -4.9867 C   0  0  0  0  0  0  0  0  0  0  0  0
  -27.5819    0.2549   -4.7930 C   0  0  0  0  0  0  0  0  0  0  0  0
  -27.7764   -1.1132   -5.0358 C   0  0  0  0  0  0  0  0  0  0  0  0
  -27.9047  -10.2091   -7.5905 C   0  0  0  0  0  0  0  0  0  0  0  0
  -25.9894   -9.9405   -6.0281 N   0  0  0  0  0  0  0  0  0  0  0  0
  -26.9050  -10.8096   -6.5998 C   0  0  0  0  0  0  0  0  0  0  0  0
  -27.0311  -12.0007   -6.3094 O   0  0  0  0  0  0  0  0  0  0  0  0
  -26.1085   -8.9563   -6.2496 H   0  0  0  0  0  0  0  0  0  0  0  0
  -22.9424  -11.0792   -3.2800 C   0  0  0  0  0  0  0  0  0  0  0  0
  -22.6703  -11.0129   -4.6386 C   0  0  0  0  0  0  0  0  0  0  0  0
  -23.6686  -10.6298   -5.5443 C   0  0  0  0  0  0  0  0  0  0  0  0
  -24.9609  -10.3122   -5.1215 C   0  0  0  0  0  0  0  0  0  0  0  0
  -25.2279  -10.3489   -3.7492 C   0  0  0  0  0  0  0  0  0  0  0  0
  -24.2245  -10.7403   -2.8369 C   0  0  0  0  0  0  0  0  0  0  0  0
  -22.5297  -12.2890   -1.2758 C   0  0  0  0  0  0  0  0  0  0  0  0
  -22.0386  -11.4503   -2.3199 O   0  0  0  0  0  0  0  0  0  0  0  0
 34 35  1  0  0  0
 35 28  1  0  0  0
 28 29  1  0  0  0
 28 33  2  0  0  0
 29 30  2  0  0  0
 30 31  1  0  0  0
 31 24  1  0  0  0
 31 32  2  0  0  0
 24 25  1  0  0  0
 24 27  1  0  0  0
 25 26  2  0  0  0
 25 23  1  0  0  0
 23  1  1  0  0  0
  1  2  1  0  0  0
  1  6  1  0  0  0
  2  3  1  0  0  0
  3  4  1  0  0  0
  4  7  1  0  0  0
  4  5  1  0  0  0
  7  8  1  0  0  0
  7 16  2  0  0  0
  8  9  2  0  0  0
  9 10  1  0  0  0
 10 17  1  0  0  0
 10 11  2  0  0  0
 17 18  1  0  0  0
 17 22  2  0  0  0
 18 19  2  0  0  0
 19 20  1  0  0  0
 20 21  2  0  0  0
 21 22  1  0  0  0
 11 12  1  0  0  0
 11 16  1  0  0  0
 12 13  2  0  0  0
 13 14  1  0  0  0
 14 15  2  0  0  0
 15 16  1  0  0  0
  5  6  1  0  0  0
 32 33  1  0  0  0
M  END
> <minimizedAffinity>
-9.91997

$$$$
