CHEMBL3644559


 41 45  0  0  0  0  0  0  0  0999 V2000
  -12.8455   -3.3928  -15.7134 N   0  0  0  0  0  0  0  0  0  0  0  0
  -11.8837   -4.4955  -15.7132 C   0  0  0  0  0  0  0  0  0  0  0  0
  -12.4848   -5.7161  -16.4123 C   0  0  0  0  0  0  0  0  0  0  0  0
  -13.1463   -5.3836  -17.7329 C   0  0  0  0  0  0  0  0  0  0  0  0
  -13.4900   -4.0361  -17.9999 C   0  0  0  0  0  0  0  0  0  0  0  0
  -14.0707   -3.7376  -19.2317 C   0  0  0  0  0  0  0  0  0  0  0  0
  -14.3477   -4.6528  -20.1836 N   0  0  0  0  0  0  0  0  0  0  0  0
  -14.0270   -5.9395  -19.8991 C   0  0  0  0  0  0  0  0  0  0  0  0
  -13.4476   -6.3631  -18.7036 C   0  0  0  0  0  0  0  0  0  0  0  0
  -13.2117   -2.8961  -17.0388 C   0  0  0  0  0  0  0  0  0  0  0  0
  -15.0886   -1.4927  -13.4096 C   0  0  0  0  0  0  0  0  0  0  0  0
  -15.1072   -2.3212  -12.2921 C   0  0  0  0  0  0  0  0  0  0  0  0
  -14.3525   -3.4947  -12.3098 C   0  0  0  0  0  0  0  0  0  0  0  0
  -13.5886   -3.8371  -13.4379 C   0  0  0  0  0  0  0  0  0  0  0  0
  -13.5496   -3.0256  -14.5806 C   0  0  0  0  0  0  0  0  0  0  0  0
  -14.3064   -1.8489  -14.5273 C   0  0  0  0  0  0  0  0  0  0  0  0
  -16.5806   -0.0790  -14.7788 N   0  0  0  0  0  0  0  0  0  0  0  0
  -15.9469   -0.2818  -13.5578 C   0  0  0  0  0  0  0  0  0  0  0  0
  -16.0668    0.4290  -12.5669 O   0  0  0  0  0  0  0  0  0  0  0  0
  -16.6017   -0.8438  -15.4363 H   0  0  0  0  0  0  0  0  0  0  0  0
  -19.6770    1.9832  -15.0856 C   0  0  0  0  0  0  0  0  0  0  0  0
  -19.1335    3.2271  -15.4373 C   0  0  0  0  0  0  0  0  0  0  0  0
  -17.7638    3.3676  -15.6329 C   0  0  0  0  0  0  0  0  0  0  0  0
  -16.9199    2.2772  -15.4486 C   0  0  0  0  0  0  0  0  0  0  0  0
  -17.4211    1.0310  -15.0615 C   0  0  0  0  0  0  0  0  0  0  0  0
  -18.8093    0.8802  -14.9283 C   0  0  0  0  0  0  0  0  0  0  0  0
  -21.5347    0.6628  -13.9971 C   0  0  0  0  0  0  0  0  0  0  0  0
  -21.1730    1.8824  -14.8448 C   0  0  0  0  0  0  0  0  0  0  0  0
  -21.7312    3.1689  -14.2324 C   0  0  0  0  0  0  0  0  0  0  0  0
  -13.1662   -7.8224  -18.5949 C   0  0  0  0  0  0  0  0  0  0  0  0
  -12.4325   -8.3713  -19.4108 O   0  0  0  0  0  0  0  0  0  0  0  0
  -13.8032   -8.4998  -17.5780 N   0  0  0  0  0  0  0  0  0  0  0  0
  -14.5975   -8.0548  -17.1400 H   0  0  0  0  0  0  0  0  0  0  0  0
  -13.6450   -9.9312  -17.3714 C   0  0  0  0  0  0  0  0  0  0  0  0
  -13.0256  -10.1964  -15.9989 C   0  0  0  0  0  0  0  0  0  0  0  0
  -13.2985   -9.0674  -14.9965 C   0  0  0  0  0  0  0  0  0  0  0  0
  -12.2768   -8.9785  -13.9364 N   0  0  0  0  0  0  0  0  0  0  0  0
  -12.5326   -9.8254  -12.7615 C   0  0  0  0  0  0  0  0  0  0  0  0
  -13.4096   -8.9917  -11.8487 C   0  0  0  0  0  0  0  0  0  0  0  0
  -12.8723   -7.5879  -12.0404 C   0  0  0  0  0  0  0  0  0  0  0  0
  -12.1832   -7.6046  -13.4031 C   0  0  0  0  0  0  0  0  0  0  0  0
 27 28  1  0  0  0
 28 29  1  0  0  0
 28 21  1  0  0  0
 21 22  1  0  0  0
 21 26  2  0  0  0
 22 23  2  0  0  0
 23 24  1  0  0  0
 24 25  2  0  0  0
 25 17  1  0  0  0
 25 26  1  0  0  0
 17 18  1  0  0  0
 17 20  1  0  0  0
 18 19  2  0  0  0
 18 11  1  0  0  0
 11 12  1  0  0  0
 11 16  2  0  0  0
 12 13  2  0  0  0
 13 14  1  0  0  0
 14 15  2  0  0  0
 15  1  1  0  0  0
 15 16  1  0  0  0
  1  2  1  0  0  0
  1 10  1  0  0  0
  2  3  1  0  0  0
  3  4  1  0  0  0
  4  5  1  0  0  0
  4  9  2  0  0  0
  5  6  2  0  0  0
  5 10  1  0  0  0
  6  7  1  0  0  0
  7  8  2  0  0  0
  8  9  1  0  0  0
  9 30  1  0  0  0
 30 31  2  0  0  0
 30 32  1  0  0  0
 32 34  1  0  0  0
 32 33  1  0  0  0
 34 35  1  0  0  0
 35 36  1  0  0  0
 36 37  1  0  0  0
 37 38  1  0  0  0
 37 41  1  0  0  0
 38 39  1  0  0  0
 39 40  1  0  0  0
 40 41  1  0  0  0
M  END
> <minimizedAffinity>
-9.09367

$$$$
