CHEMBL3931724


 37 40  0  0  0  0  0  0  0  0999 V2000
  -13.6463   -2.1448  -14.6338 C   0  0  0  0  0  0  0  0  0  0  0  0
  -14.3079   -1.6103  -13.4882 C   0  0  0  0  0  0  0  0  0  0  0  0
  -14.9303   -2.4501  -12.5416 C   0  0  0  0  0  0  0  0  0  0  0  0
  -15.4730   -1.9428  -11.4227 N   0  0  0  0  0  0  0  0  0  0  0  0
  -15.9905   -2.8357  -10.5475 C   0  0  0  0  0  0  0  0  0  0  0  0
  -15.9845   -4.1466  -10.6561 N   0  0  0  0  0  0  0  0  0  0  0  0
  -15.4400   -4.6697  -11.7656 C   0  0  0  0  0  0  0  0  0  0  0  0
  -14.9574   -3.7970  -12.7786 C   0  0  0  0  0  0  0  0  0  0  0  0
  -14.4828   -4.2676  -14.0100 C   0  0  0  0  0  0  0  0  0  0  0  0
  -13.7325   -3.5253  -14.8757 C   0  0  0  0  0  0  0  0  0  0  0  0
  -15.3731   -6.0644  -11.9102 N   0  0  0  0  0  0  0  0  0  0  0  0
  -16.2681   -6.5084  -12.0553 H   0  0  0  0  0  0  0  0  0  0  0  0
  -14.2446   -6.9118  -12.0271 C   0  0  0  0  0  0  0  0  0  0  0  0
  -14.2567   -8.0695  -12.8083 C   0  0  0  0  0  0  0  0  0  0  0  0
  -13.2091   -8.9969  -12.7559 C   0  0  0  0  0  0  0  0  0  0  0  0
  -12.1029   -8.7503  -11.9429 C   0  0  0  0  0  0  0  0  0  0  0  0
  -10.8900   -9.9758  -11.8406 Cl  0  0  0  0  0  0  0  0  0  0  0  0
  -12.0341   -7.5583  -11.2165 C   0  0  0  0  0  0  0  0  0  0  0  0
  -10.7167   -7.2033  -10.1524 Cl  0  0  0  0  0  0  0  0  0  0  0  0
  -13.0972   -6.6395  -11.2698 C   0  0  0  0  0  0  0  0  0  0  0  0
  -13.0093   -4.2250  -15.8328 O   0  0  0  0  0  0  0  0  0  0  0  0
  -12.5211   -5.5344  -15.4566 C   0  0  0  0  0  0  0  0  0  0  0  0
  -12.9677   -1.2519  -15.3931 O   0  0  0  0  0  0  0  0  0  0  0  0
  -13.7524   -0.1879  -15.9336 C   0  0  0  0  0  0  0  0  0  0  0  0
  -16.4584    1.5068  -14.7642 C   0  0  0  0  0  0  0  0  0  0  0  0
  -16.3874    1.0155  -13.6581 O   0  0  0  0  0  0  0  0  0  0  0  0
  -15.3918    2.2223  -15.3122 N   0  0  0  0  0  0  0  0  0  0  0  0
  -15.3199    2.8714  -16.6224 C   0  0  0  0  0  0  0  0  0  0  0  0
  -14.2889    2.2201  -17.5625 C   0  0  0  0  0  0  0  0  0  0  0  0
  -13.0342    1.9867  -16.9086 O   0  0  0  0  0  0  0  0  0  0  0  0
  -13.1937    1.2324  -15.6850 C   0  0  0  0  0  0  0  0  0  0  0  0
  -14.0830    2.0076  -14.6960 C   0  0  0  0  0  0  0  0  0  0  0  0
  -17.6763    1.2695  -15.6491 C   0  0  0  0  0  0  0  0  0  0  0  0
  -18.9561    1.3781  -14.8257 C   0  0  0  0  0  0  0  0  0  0  0  0
  -19.6249    2.7419  -14.9773 C   0  0  0  0  0  0  0  0  0  0  0  0
  -21.5376    1.3474  -14.1118 C   0  0  0  0  0  0  0  0  0  0  0  0
  -20.9815    2.7514  -14.2726 C   0  0  0  0  0  0  0  0  0  0  0  0
 36 37  1  0  0  0
 37 35  1  0  0  0
 35 34  1  0  0  0
 34 33  1  0  0  0
 33 25  1  0  0  0
 25 26  2  0  0  0
 25 27  1  0  0  0
 27 28  1  0  0  0
 27 32  1  0  0  0
 28 29  1  0  0  0
 29 30  1  0  0  0
 30 31  1  0  0  0
 31 24  1  0  0  0
 31 32  1  0  0  0
 24 23  1  0  0  0
 23  1  1  0  0  0
  1  2  1  0  0  0
  1 10  2  0  0  0
  2  3  2  0  0  0
  3  4  1  0  0  0
  3  8  1  0  0  0
  4  5  2  0  0  0
  5  6  1  0  0  0
  6  7  2  0  0  0
  7 11  1  0  0  0
  7  8  1  0  0  0
 11 13  1  0  0  0
 11 12  1  0  0  0
 13 14  1  0  0  0
 13 20  2  0  0  0
 14 15  2  0  0  0
 15 16  1  0  0  0
 16 17  1  0  0  0
 16 18  2  0  0  0
 18 19  1  0  0  0
 18 20  1  0  0  0
  8  9  2  0  0  0
  9 10  1  0  0  0
 10 21  1  0  0  0
 21 22  1  0  0  0
M  END
> <minimizedAffinity>
-8.04343

$$$$
