CHEMBL1973178


 37 40  0  0  0  0  0  0  0  0999 V2000
  -22.7895   -0.4225  -13.5320 C   0  0  0  0  0  0  0  0  0  0  0  0
  -22.6778   -0.8772  -12.2185 C   0  0  0  0  0  0  0  0  0  0  0  0
  -23.7461   -1.4787  -11.5549 C   0  0  0  0  0  0  0  0  0  0  0  0
  -24.9528   -1.7348  -12.2045 C   0  0  0  0  0  0  0  0  0  0  0  0
  -25.0649   -1.3657  -13.5444 C   0  0  0  0  0  0  0  0  0  0  0  0
  -24.0027   -0.7035  -14.1922 C   0  0  0  0  0  0  0  0  0  0  0  0
  -19.3227    1.4621  -15.3564 C   0  0  0  0  0  0  0  0  0  0  0  0
  -19.4926    0.0795  -15.3689 C   0  0  0  0  0  0  0  0  0  0  0  0
  -20.6176   -0.5077  -14.7875 C   0  0  0  0  0  0  0  0  0  0  0  0
  -21.6565    0.2546  -14.1950 C   0  0  0  0  0  0  0  0  0  0  0  0
  -21.5184    1.6788  -14.2274 C   0  0  0  0  0  0  0  0  0  0  0  0
  -22.2387    2.8591  -13.8271 C   0  0  0  0  0  0  0  0  0  0  0  0
  -23.4516    2.9062  -13.2393 N   0  0  0  0  0  0  0  0  0  0  0  0
  -21.5608    3.9722  -14.1013 N   0  0  0  0  0  0  0  0  0  0  0  0
  -20.4041    3.5690  -14.7159 O   0  0  0  0  0  0  0  0  0  0  0  0
  -20.3593    2.2150  -14.7937 C   0  0  0  0  0  0  0  0  0  0  0  0
  -24.1130    2.1434  -13.3224 H   0  0  0  0  0  0  0  0  0  0  0  0
  -23.8812    3.8175  -13.1142 H   0  0  0  0  0  0  0  0  0  0  0  0
  -16.9661    1.3255  -15.5170 C   0  0  0  0  0  0  0  0  0  0  0  0
  -18.1734    1.9339  -15.9657 O   0  0  0  0  0  0  0  0  0  0  0  0
  -26.0328   -2.3916  -11.5669 N   0  0  0  0  0  0  0  0  0  0  0  0
  -26.5503   -2.0255  -10.3389 C   0  0  0  0  0  0  0  0  0  0  0  0
  -26.2513   -0.9984   -9.7367 O   0  0  0  0  0  0  0  0  0  0  0  0
  -27.4288   -2.9715   -9.8242 N   0  0  0  0  0  0  0  0  0  0  0  0
  -26.5744   -3.0479  -12.1101 H   0  0  0  0  0  0  0  0  0  0  0  0
  -27.1875   -3.9268  -10.0471 H   0  0  0  0  0  0  0  0  0  0  0  0
  -27.9925   -2.7435   -8.5447 C   0  0  0  0  0  0  0  0  0  0  0  0
  -27.5695   -1.6661   -7.7563 C   0  0  0  0  0  0  0  0  0  0  0  0
  -27.9776   -1.5441   -6.4270 C   0  0  0  0  0  0  0  0  0  0  0  0
  -28.8605   -2.4726   -5.8884 C   0  0  0  0  0  0  0  0  0  0  0  0
  -29.3042   -3.5353   -6.6874 C   0  0  0  0  0  0  0  0  0  0  0  0
  -28.8972   -3.6611   -8.0200 C   0  0  0  0  0  0  0  0  0  0  0  0
  -29.3318   -2.4908   -4.6122 O   0  0  0  0  0  0  0  0  0  0  0  0
  -28.7747   -3.3947   -3.6697 C   0  0  0  0  0  0  0  0  0  0  0  0
  -27.5446   -3.8422   -3.9976 F   0  0  0  0  0  0  0  0  0  0  0  0
  -28.6711   -2.7531   -2.4828 F   0  0  0  0  0  0  0  0  0  0  0  0
  -29.5989   -4.4505   -3.5043 F   0  0  0  0  0  0  0  0  0  0  0  0
 19 20  1  0  0  0
 20  7  1  0  0  0
  7  8  1  0  0  0
  7 16  2  0  0  0
  8  9  2  0  0  0
  9 10  1  0  0  0
 10  1  1  0  0  0
 10 11  2  0  0  0
  1  2  1  0  0  0
  1  6  2  0  0  0
  2  3  2  0  0  0
  3  4  1  0  0  0
  4 21  1  0  0  0
  4  5  2  0  0  0
 21 22  1  0  0  0
 21 25  1  0  0  0
 22 23  2  0  0  0
 22 24  1  0  0  0
 24 27  1  0  0  0
 24 26  1  0  0  0
 27 28  1  0  0  0
 27 32  2  0  0  0
 28 29  2  0  0  0
 29 30  1  0  0  0
 30 33  1  0  0  0
 30 31  2  0  0  0
 33 34  1  0  0  0
 34 35  1  0  0  0
 34 36  1  0  0  0
 34 37  1  0  0  0
 31 32  1  0  0  0
  5  6  1  0  0  0
 11 12  1  0  0  0
 11 16  1  0  0  0
 12 13  1  0  0  0
 12 14  2  0  0  0
 13 17  1  0  0  0
 13 18  1  0  0  0
 14 15  1  0  0  0
 15 16  1  0  0  0
M  END
> <minimizedAffinity>
-10.77009

$$$$
