CHEMBL488645


 33 36  0  0  0  0  0  0  0  0999 V2000
  -27.1223  -10.2270   -8.3220 C   0  0  0  0  0  0  0  0  0  0  0  0
  -27.9762   -9.4788   -9.0411 C   0  0  0  0  0  0  0  0  0  0  0  0
  -28.2584  -10.0434  -10.4075 C   0  0  0  0  0  0  0  0  0  0  0  0
  -27.5730  -11.2822  -10.3531 N   0  0  0  0  0  0  0  0  0  0  0  0
  -26.9176  -11.4436   -9.1655 C   0  0  0  0  0  0  0  0  0  0  0  0
  -26.3223  -12.4647   -8.8505 O   0  0  0  0  0  0  0  0  0  0  0  0
  -27.6917  -12.0541  -10.9970 H   0  0  0  0  0  0  0  0  0  0  0  0
  -28.8246   -8.3637   -8.7606 C   0  0  0  0  0  0  0  0  0  0  0  0
  -28.2464   -7.1787   -8.3480 C   0  0  0  0  0  0  0  0  0  0  0  0
  -29.0253   -6.7127   -7.3142 N   0  0  0  0  0  0  0  0  0  0  0  0
  -30.2130   -7.4266   -7.2578 C   0  0  0  0  0  0  0  0  0  0  0  0
  -31.2566   -7.3735   -6.3178 C   0  0  0  0  0  0  0  0  0  0  0  0
  -32.3431   -8.2283   -6.4923 C   0  0  0  0  0  0  0  0  0  0  0  0
  -32.3868   -9.1046   -7.5674 C   0  0  0  0  0  0  0  0  0  0  0  0
  -31.2964   -9.2201   -8.4458 C   0  0  0  0  0  0  0  0  0  0  0  0
  -30.1689   -8.3847   -8.2789 C   0  0  0  0  0  0  0  0  0  0  0  0
  -28.5422   -5.9515   -6.1655 C   0  0  0  0  0  0  0  0  0  0  0  0
  -28.9499   -4.5881   -6.2082 O   0  0  0  0  0  0  0  0  0  0  0  0
  -29.0177   -4.0411   -4.8817 C   0  0  0  0  0  0  0  0  0  0  0  0
  -30.3953   -4.2617   -4.2544 C   0  0  0  0  0  0  0  0  0  0  0  0
  -27.9430   -4.7059   -4.0328 C   0  0  0  0  0  0  0  0  0  0  0  0
  -26.7803   -9.7528   -4.5652 C   0  0  0  0  0  0  0  0  0  0  0  0
  -27.3424   -9.8791   -5.8439 C   0  0  0  0  0  0  0  0  0  0  0  0
  -26.5505  -10.0740   -6.9735 C   0  0  0  0  0  0  0  0  0  0  0  0
  -25.1558  -10.1273   -6.8096 C   0  0  0  0  0  0  0  0  0  0  0  0
  -24.5678   -9.9828   -5.5438 C   0  0  0  0  0  0  0  0  0  0  0  0
  -25.3829   -9.8281   -4.4090 C   0  0  0  0  0  0  0  0  0  0  0  0
  -28.7319   -8.7277   -3.6455 C   0  0  0  0  0  0  0  0  0  0  0  0
  -27.5293   -9.4613   -3.4518 O   0  0  0  0  0  0  0  0  0  0  0  0
  -23.2076  -10.0362   -5.3521 O   0  0  0  0  0  0  0  0  0  0  0  0
  -22.5705  -11.2236   -5.8089 C   0  0  0  0  0  0  0  0  0  0  0  0
  -24.7085   -9.7036   -3.2126 O   0  0  0  0  0  0  0  0  0  0  0  0
  -24.4880  -10.9096   -2.4913 C   0  0  0  0  0  0  0  0  0  0  0  0
 28 29  1  0  0  0
 29 22  1  0  0  0
 22 23  1  0  0  0
 22 27  2  0  0  0
 23 24  2  0  0  0
 24  1  1  0  0  0
 24 25  1  0  0  0
  1  2  2  0  0  0
  1  5  1  0  0  0
  2  8  1  0  0  0
  2  3  1  0  0  0
  8  9  2  0  0  0
  8 16  1  0  0  0
  9 10  1  0  0  0
 10 17  1  0  0  0
 10 11  1  0  0  0
 17 18  1  0  0  0
 18 19  1  0  0  0
 19 20  1  0  0  0
 19 21  1  0  0  0
 11 12  1  0  0  0
 11 16  2  0  0  0
 12 13  2  0  0  0
 13 14  1  0  0  0
 14 15  2  0  0  0
 15 16  1  0  0  0
  3  4  1  0  0  0
  4  5  1  0  0  0
  4  7  1  0  0  0
  5  6  2  0  0  0
 25 26  2  0  0  0
 26 30  1  0  0  0
 26 27  1  0  0  0
 30 31  1  0  0  0
 27 32  1  0  0  0
 32 33  1  0  0  0
M  END
> <minimizedAffinity>
-6.87107

$$$$
