CHEMBL223892


 27 29  0  0  0  0  0  0  0  0999 V2000
  -30.2420   -9.1228   -7.6123 C   0  0  0  0  0  0  0  0  0  0  0  0
  -31.2830   -9.7546   -8.2860 C   0  0  0  0  0  0  0  0  0  0  0  0
  -31.0899  -10.8736   -9.0952 N   0  0  0  0  0  0  0  0  0  0  0  0
  -32.5743   -9.4230   -8.1124 N   0  0  0  0  0  0  0  0  0  0  0  0
  -32.8232   -8.4194   -7.2677 C   0  0  0  0  0  0  0  0  0  0  0  0
  -31.9078   -7.7423   -6.5722 N   0  0  0  0  0  0  0  0  0  0  0  0
  -30.6214   -8.1326   -6.7256 C   0  0  0  0  0  0  0  0  0  0  0  0
  -30.2714  -10.7643   -9.6957 H   0  0  0  0  0  0  0  0  0  0  0  0
  -31.9488  -11.0947   -9.5865 H   0  0  0  0  0  0  0  0  0  0  0  0
  -28.2264   -9.0227   -8.9213 N   0  0  0  0  0  0  0  0  0  0  0  0
  -28.8319   -9.4697   -7.8628 C   0  0  0  0  0  0  0  0  0  0  0  0
  -26.9028   -9.4805   -8.9611 O   0  0  0  0  0  0  0  0  0  0  0  0
  -27.3412   -9.9335  -11.2835 C   0  0  0  0  0  0  0  0  0  0  0  0
  -26.8185  -10.4888   -9.9752 C   0  0  0  0  0  0  0  0  0  0  0  0
  -29.6533   -7.4855   -5.9595 O   0  0  0  0  0  0  0  0  0  0  0  0
  -29.4211   -6.1451   -6.2286 C   0  0  0  0  0  0  0  0  0  0  0  0
  -28.9563   -5.7044   -7.4740 C   0  0  0  0  0  0  0  0  0  0  0  0
  -28.6897   -4.3541   -7.7172 C   0  0  0  0  0  0  0  0  0  0  0  0
  -28.9961   -3.4426   -6.7046 C   0  0  0  0  0  0  0  0  0  0  0  0
  -28.8770   -2.0727   -6.6895 N   0  0  0  0  0  0  0  0  0  0  0  0
  -29.4522   -1.5582   -5.5549 C   0  0  0  0  0  0  0  0  0  0  0  0
  -29.6401   -0.0983   -5.3723 C   0  0  0  0  0  0  0  0  0  0  0  0
  -29.7899   -2.6293   -4.7490 C   0  0  0  0  0  0  0  0  0  0  0  0
  -29.5317   -3.8296   -5.4753 C   0  0  0  0  0  0  0  0  0  0  0  0
  -29.7277   -5.2074   -5.2325 C   0  0  0  0  0  0  0  0  0  0  0  0
  -30.2290   -5.6173   -4.0561 F   0  0  0  0  0  0  0  0  0  0  0  0
  -28.4955   -1.5254   -7.4494 H   0  0  0  0  0  0  0  0  0  0  0  0
 13 14  1  0  0  0
 14 12  1  0  0  0
 12 10  1  0  0  0
 10 11  2  0  0  0
 11  1  1  0  0  0
  1  2  1  0  0  0
  1  7  2  0  0  0
  2  3  1  0  0  0
  2  4  2  0  0  0
  3  8  1  0  0  0
  3  9  1  0  0  0
  4  5  1  0  0  0
  5  6  2  0  0  0
  6  7  1  0  0  0
  7 15  1  0  0  0
 15 16  1  0  0  0
 16 17  1  0  0  0
 16 25  2  0  0  0
 17 18  2  0  0  0
 18 19  1  0  0  0
 19 20  1  0  0  0
 19 24  2  0  0  0
 20 21  1  0  0  0
 20 27  1  0  0  0
 21 22  1  0  0  0
 21 23  2  0  0  0
 23 24  1  0  0  0
 24 25  1  0  0  0
 25 26  1  0  0  0
M  END
> <minimizedAffinity>
-7.75257

$$$$
