CHEMBL250196


 24 27  0  0  0  0  0  0  0  0999 V2000
  -29.6434   -5.7788   -7.0585 C   0  0  0  0  0  0  0  0  0  0  0  0
  -29.3116   -6.7388   -6.1836 C   0  0  0  0  0  0  0  0  0  0  0  0
  -28.2834   -6.7677   -5.1130 C   0  0  0  0  0  0  0  0  0  0  0  0
  -27.5998   -5.8738   -4.6582 O   0  0  0  0  0  0  0  0  0  0  0  0
  -28.2798   -8.0950   -4.7215 N   0  0  0  0  0  0  0  0  0  0  0  0
  -29.2155   -8.8915   -5.3332 N   0  0  0  0  0  0  0  0  0  0  0  0
  -29.8608   -8.1246   -6.1786 C   0  0  0  0  0  0  0  0  0  0  0  0
  -27.6886   -8.4587   -3.9839 H   0  0  0  0  0  0  0  0  0  0  0  0
  -27.3684   -1.7957   -8.8800 C   0  0  0  0  0  0  0  0  0  0  0  0
  -28.1361   -2.6383   -7.9896 N   0  0  0  0  0  0  0  0  0  0  0  0
  -28.4448   -3.9454   -8.2359 C   0  0  0  0  0  0  0  0  0  0  0  0
  -29.1896   -4.4266   -7.1831 C   0  0  0  0  0  0  0  0  0  0  0  0
  -29.3107   -3.3583   -6.2185 C   0  0  0  0  0  0  0  0  0  0  0  0
  -29.9029   -3.1613   -4.9446 C   0  0  0  0  0  0  0  0  0  0  0  0
  -30.7857   -4.4504   -4.2452 Cl  0  0  0  0  0  0  0  0  0  0  0  0
  -29.7958   -1.9491   -4.2573 C   0  0  0  0  0  0  0  0  0  0  0  0
  -29.1040   -0.8898   -4.8270 C   0  0  0  0  0  0  0  0  0  0  0  0
  -28.5155   -1.0226   -6.0856 C   0  0  0  0  0  0  0  0  0  0  0  0
  -28.6272   -2.2534   -6.7603 C   0  0  0  0  0  0  0  0  0  0  0  0
  -30.9862   -8.6020   -6.9273 C   0  0  0  0  0  0  0  0  0  0  0  0
  -32.3353   -8.3041   -6.8734 C   0  0  0  0  0  0  0  0  0  0  0  0
  -33.1398   -9.0014   -7.7590 N   0  0  0  0  0  0  0  0  0  0  0  0
  -32.4362   -9.8513   -8.4888 N   0  0  0  0  0  0  0  0  0  0  0  0
  -30.8052   -9.8310   -8.1132 S   0  0  0  0  0  0  0  0  0  0  0  0
  9 10  1  0  0  0
 10 11  1  0  0  0
 10 19  1  0  0  0
 11 12  2  0  0  0
 12  1  1  0  0  0
 12 13  1  0  0  0
  1  2  2  0  0  0
  2  3  1  0  0  0
  2  7  1  0  0  0
  3  4  2  0  0  0
  3  5  1  0  0  0
  5  6  1  0  0  0
  5  8  1  0  0  0
  6  7  2  0  0  0
  7 20  1  0  0  0
 20 21  2  0  0  0
 20 24  1  0  0  0
 21 22  1  0  0  0
 22 23  2  0  0  0
 23 24  1  0  0  0
 13 14  1  0  0  0
 13 19  2  0  0  0
 14 15  1  0  0  0
 14 16  2  0  0  0
 16 17  1  0  0  0
 17 18  2  0  0  0
 18 19  1  0  0  0
M  END
> <minimizedAffinity>
-8.69813

$$$$
