CHEMBL3952283


 30 34  0  0  0  0  0  0  0  0999 V2000
  -21.0095    1.6580  -14.5557 C   0  0  0  0  0  0  0  0  0  0  0  0
  -20.9623    2.9388  -15.1149 C   0  0  0  0  0  0  0  0  0  0  0  0
  -19.7391    3.5531  -15.3868 C   0  0  0  0  0  0  0  0  0  0  0  0
  -18.5428    2.8861  -15.1209 C   0  0  0  0  0  0  0  0  0  0  0  0
  -18.5630    1.6098  -14.5466 C   0  0  0  0  0  0  0  0  0  0  0  0
  -19.7983    1.0180  -14.2308 C   0  0  0  0  0  0  0  0  0  0  0  0
  -21.8849    0.1960  -12.1624 O   0  0  0  0  0  0  0  0  0  0  0  0
  -22.5806    0.2779  -13.1710 C   0  0  0  0  0  0  0  0  0  0  0  0
  -22.2272    0.9715  -14.3253 N   0  0  0  0  0  0  0  0  0  0  0  0
  -22.9687    1.0822  -15.0073 H   0  0  0  0  0  0  0  0  0  0  0  0
  -23.9010   -0.3297  -13.2151 C   0  0  0  0  0  0  0  0  0  0  0  0
  -24.5783   -0.9092  -14.2741 C   0  0  0  0  0  0  0  0  0  0  0  0
  -25.8341   -1.3434  -13.7820 C   0  0  0  0  0  0  0  0  0  0  0  0
  -26.9594   -1.9896  -14.3231 C   0  0  0  0  0  0  0  0  0  0  0  0
  -28.0561   -2.2479  -13.4851 C   0  0  0  0  0  0  0  0  0  0  0  0
  -28.0361   -1.8730  -12.1419 C   0  0  0  0  0  0  0  0  0  0  0  0
  -26.9218   -1.2329  -11.5821 C   0  0  0  0  0  0  0  0  0  0  0  0
  -25.8494   -0.9894  -12.4367 C   0  0  0  0  0  0  0  0  0  0  0  0
  -24.6771   -0.3829  -12.0862 O   0  0  0  0  0  0  0  0  0  0  0  0
  -17.3247    0.8952  -14.3616 C   0  0  0  0  0  0  0  0  0  0  0  0
  -16.3249    0.2565  -14.1353 C   0  0  0  0  0  0  0  0  0  0  0  0
  -15.1755   -0.5642  -13.7977 C   0  0  0  0  0  0  0  0  0  0  0  0
  -15.3259   -2.0017  -13.4532 C   0  0  0  0  0  0  0  0  0  0  0  0
  -14.2092   -2.6816  -13.1537 C   0  0  0  0  0  0  0  0  0  0  0  0
  -12.9687   -2.0107  -13.1773 C   0  0  0  0  0  0  0  0  0  0  0  0
  -11.7450   -2.4418  -12.9320 N   0  0  0  0  0  0  0  0  0  0  0  0
  -10.9398   -1.3480  -13.1057 C   0  0  0  0  0  0  0  0  0  0  0  0
  -11.6799   -0.2406  -13.4605 C   0  0  0  0  0  0  0  0  0  0  0  0
  -12.9817   -0.6636  -13.5126 N   0  0  0  0  0  0  0  0  0  0  0  0
  -14.0675    0.1087  -13.8333 N   0  0  0  0  0  0  0  0  0  0  0  0
  7  8  2  0  0  0
  8  9  1  0  0  0
  8 11  1  0  0  0
  9  1  1  0  0  0
  9 10  1  0  0  0
  1  2  1  0  0  0
  1  6  2  0  0  0
  2  3  2  0  0  0
  3  4  1  0  0  0
  4  5  2  0  0  0
  5 20  1  0  0  0
  5  6  1  0  0  0
 20 21  3  0  0  0
 21 22  1  0  0  0
 22 23  1  0  0  0
 22 30  2  0  0  0
 23 24  2  0  0  0
 24 25  1  0  0  0
 25 26  2  0  0  0
 25 29  1  0  0  0
 26 27  1  0  0  0
 27 28  2  0  0  0
 28 29  1  0  0  0
 29 30  1  0  0  0
 11 12  2  0  0  0
 11 19  1  0  0  0
 12 13  1  0  0  0
 13 14  1  0  0  0
 13 18  2  0  0  0
 14 15  2  0  0  0
 15 16  1  0  0  0
 16 17  2  0  0  0
 17 18  1  0  0  0
 18 19  1  0  0  0
M  END
> <minimizedAffinity>
-9.53777

$$$$
