CHEMBL3527569


 33 36  0  0  0  0  0  0  0  0999 V2000
  -13.6215    0.8791  -15.9408 C   0  0  0  0  0  0  0  0  0  0  0  0
  -13.0629    1.5883  -16.8705 N   0  0  0  0  0  0  0  0  0  0  0  0
  -11.7114    1.7953  -16.7503 C   0  0  0  0  0  0  0  0  0  0  0  0
  -10.9285    1.3296  -15.8273 N   0  0  0  0  0  0  0  0  0  0  0  0
  -11.5534    0.5882  -14.8961 N   0  0  0  0  0  0  0  0  0  0  0  0
  -10.9429   -0.0371  -13.8579 C   0  0  0  0  0  0  0  0  0  0  0  0
  -11.9043   -0.7059  -13.1250 C   0  0  0  0  0  0  0  0  0  0  0  0
  -13.1704   -0.4617  -13.7578 C   0  0  0  0  0  0  0  0  0  0  0  0
  -14.5247   -0.9467  -13.3729 C   0  0  0  0  0  0  0  0  0  0  0  0
  -12.8850    0.3297  -14.8619 C   0  0  0  0  0  0  0  0  0  0  0  0
  -14.9624    0.5543  -15.9012 O   0  0  0  0  0  0  0  0  0  0  0  0
  -21.7001    3.1870  -14.6802 C   0  0  0  0  0  0  0  0  0  0  0  0
  -20.2495    2.8824  -14.7093 C   0  0  0  0  0  0  0  0  0  0  0  0
  -19.5668    1.7159  -14.4328 C   0  0  0  0  0  0  0  0  0  0  0  0
  -18.2199    1.8925  -14.8536 C   0  0  0  0  0  0  0  0  0  0  0  0
  -17.1116    1.0372  -14.9772 C   0  0  0  0  0  0  0  0  0  0  0  0
  -17.2084   -0.2544  -14.6248 F   0  0  0  0  0  0  0  0  0  0  0  0
  -15.9386    1.5197  -15.5632 C   0  0  0  0  0  0  0  0  0  0  0  0
  -15.8335    2.8457  -15.9841 C   0  0  0  0  0  0  0  0  0  0  0  0
  -16.9066    3.7285  -15.8211 C   0  0  0  0  0  0  0  0  0  0  0  0
  -18.0941    3.2153  -15.2826 C   0  0  0  0  0  0  0  0  0  0  0  0
  -19.3215    3.8143  -15.1065 N   0  0  0  0  0  0  0  0  0  0  0  0
  -19.5282    4.7737  -15.3489 H   0  0  0  0  0  0  0  0  0  0  0  0
  -11.6714   -1.4623  -12.0156 O   0  0  0  0  0  0  0  0  0  0  0  0
  -11.8220   -2.8771  -12.2454 C   0  0  0  0  0  0  0  0  0  0  0  0
  -12.3015   -3.6425  -11.0010 C   0  0  0  0  0  0  0  0  0  0  0  0
  -11.2277   -3.6117   -9.9190 C   0  0  0  0  0  0  0  0  0  0  0  0
  -13.5025   -3.0029  -10.5508 O   0  0  0  0  0  0  0  0  0  0  0  0
  -14.8567   -3.8768  -10.3485 S   0  0  0  0  0  0  0  0  0  0  0  0
  -15.2689   -4.3773  -11.6376 O   0  0  0  0  0  0  0  0  0  0  0  0
  -14.7050   -4.7428   -9.1992 O   0  0  0  0  0  0  0  0  0  0  0  0
  -15.9413   -2.7551   -9.9590 O   0  0  0  0  0  0  0  0  0  0  0  0
  -16.3868   -2.4756  -10.7830 H   0  0  0  0  0  0  0  0  0  0  0  0
 12 13  1  0  0  0
 13 14  2  0  0  0
 13 22  1  0  0  0
 14 15  1  0  0  0
 15 16  1  0  0  0
 15 21  2  0  0  0
 16 17  1  0  0  0
 16 18  2  0  0  0
 18 11  1  0  0  0
 18 19  1  0  0  0
 11  1  1  0  0  0
  1  2  2  0  0  0
  1 10  1  0  0  0
  2  3  1  0  0  0
  3  4  2  0  0  0
  4  5  1  0  0  0
  5  6  1  0  0  0
  5 10  1  0  0  0
  6  7  2  0  0  0
  7 24  1  0  0  0
  7  8  1  0  0  0
 24 25  1  0  0  0
 25 26  1  0  0  0
 26 27  1  0  0  0
 26 28  1  0  0  0
 28 29  1  0  0  0
 29 30  2  0  0  0
 29 31  2  0  0  0
 29 32  1  0  0  0
 32 33  1  0  0  0
  8  9  1  0  0  0
  8 10  2  0  0  0
 19 20  2  0  0  0
 20 21  1  0  0  0
 21 22  1  0  0  0
 22 23  1  0  0  0
M  END
> <minimizedAffinity>
-8.10400

$$$$
