CHEMBL2000393


 32 37  0  0  0  0  0  0  0  0999 V2000
  -31.1935   -9.3765   -7.0313 O   0  0  0  0  0  0  0  0  0  0  0  0
  -31.0458   -8.2244   -6.6650 C   0  0  0  0  0  0  0  0  0  0  0  0
  -31.8805   -7.5587   -5.7477 N   0  0  0  0  0  0  0  0  0  0  0  0
  -31.3110   -6.3253   -5.4705 C   0  0  0  0  0  0  0  0  0  0  0  0
  -31.5366   -5.3867   -4.5168 C   0  0  0  0  0  0  0  0  0  0  0  0
  -30.7163   -4.3130   -4.3938 N   0  0  0  0  0  0  0  0  0  0  0  0
  -29.6766   -4.2006   -5.2677 C   0  0  0  0  0  0  0  0  0  0  0  0
  -29.3821   -5.0994   -6.2265 N   0  0  0  0  0  0  0  0  0  0  0  0
  -30.2066   -6.1447   -6.2665 C   0  0  0  0  0  0  0  0  0  0  0  0
  -29.9993   -7.3295   -6.9843 N   0  0  0  0  0  0  0  0  0  0  0  0
  -32.6353   -8.0216   -5.2654 H   0  0  0  0  0  0  0  0  0  0  0  0
  -28.6424   -7.7470   -7.3316 C   0  0  0  0  0  0  0  0  0  0  0  0
  -28.5533   -8.3309   -8.7411 C   0  0  0  0  0  0  0  0  0  0  0  0
  -27.9715   -9.7310   -8.8156 C   0  0  0  0  0  0  0  0  0  0  0  0
  -28.2391  -10.5714   -7.7016 O   0  0  0  0  0  0  0  0  0  0  0  0
  -27.9125  -10.0110   -6.5009 C   0  0  0  0  0  0  0  0  0  0  0  0
  -27.4839  -10.8612   -5.4790 C   0  0  0  0  0  0  0  0  0  0  0  0
  -27.2906  -12.1653   -5.7229 F   0  0  0  0  0  0  0  0  0  0  0  0
  -27.2452  -10.3826   -4.1941 C   0  0  0  0  0  0  0  0  0  0  0  0
  -27.4350   -9.0335   -3.9219 C   0  0  0  0  0  0  0  0  0  0  0  0
  -27.8307   -8.1720   -4.9477 C   0  0  0  0  0  0  0  0  0  0  0  0
  -28.0834   -8.6506   -6.2520 C   0  0  0  0  0  0  0  0  0  0  0  0
  -28.7676   -3.1112   -5.1390 N   0  0  0  0  0  0  0  0  0  0  0  0
  -27.4488   -3.2386   -4.7814 C   0  0  0  0  0  0  0  0  0  0  0  0
  -26.8366   -2.0826   -4.6875 N   0  0  0  0  0  0  0  0  0  0  0  0
  -27.7998   -1.1541   -4.9717 C   0  0  0  0  0  0  0  0  0  0  0  0
  -27.6997    0.2457   -4.9660 C   0  0  0  0  0  0  0  0  0  0  0  0
  -28.8386    1.0048   -5.2541 C   0  0  0  0  0  0  0  0  0  0  0  0
  -30.0428    0.3776   -5.5539 C   0  0  0  0  0  0  0  0  0  0  0  0
  -31.1216    1.1287   -5.8106 F   0  0  0  0  0  0  0  0  0  0  0  0
  -30.1688   -1.0120   -5.5809 C   0  0  0  0  0  0  0  0  0  0  0  0
  -29.0199   -1.7612   -5.2779 C   0  0  0  0  0  0  0  0  0  0  0  0
  1  2  2  0  0  0
  2  3  1  0  0  0
  2 10  1  0  0  0
  3  4  1  0  0  0
  3 11  1  0  0  0
  4  5  1  0  0  0
  4  9  2  0  0  0
  5  6  2  0  0  0
  6  7  1  0  0  0
  7 23  1  0  0  0
  7  8  2  0  0  0
 23 24  1  0  0  0
 23 32  1  0  0  0
 24 25  2  0  0  0
 25 26  1  0  0  0
 26 27  1  0  0  0
 26 32  2  0  0  0
 27 28  2  0  0  0
 28 29  1  0  0  0
 29 30  1  0  0  0
 29 31  2  0  0  0
 31 32  1  0  0  0
  8  9  1  0  0  0
  9 10  1  0  0  0
 10 12  1  0  0  0
 12 13  1  0  0  0
 12 22  1  0  0  0
 13 14  1  0  0  0
 14 15  1  0  0  0
 15 16  1  0  0  0
 16 17  1  0  0  0
 16 22  2  0  0  0
 17 18  1  0  0  0
 17 19  2  0  0  0
 19 20  1  0  0  0
 20 21  2  0  0  0
 21 22  1  0  0  0
M  END
> <minimizedAffinity>
-8.95635

$$$$
