CHEMBL3981567


 48 52  0  0  0  0  0  0  0  0999 V2000
  -22.3408   -0.3706  -13.9263 C   0  0  0  0  0  0  0  0  0  0  0  0
  -23.4539   -0.8191  -14.6298 C   0  0  0  0  0  0  0  0  0  0  0  0
  -24.6964   -0.9037  -13.9956 C   0  0  0  0  0  0  0  0  0  0  0  0
  -24.8485   -0.6035  -12.6378 C   0  0  0  0  0  0  0  0  0  0  0  0
  -23.7103   -0.2758  -11.9002 C   0  0  0  0  0  0  0  0  0  0  0  0
  -22.4756   -0.1499  -12.5503 C   0  0  0  0  0  0  0  0  0  0  0  0
  -21.4059    0.2125  -11.8286 F   0  0  0  0  0  0  0  0  0  0  0  0
  -26.1082   -0.6327  -11.9884 N   0  0  0  0  0  0  0  0  0  0  0  0
  -26.5209   -1.6174  -11.1037 C   0  0  0  0  0  0  0  0  0  0  0  0
  -25.9101   -2.6481  -10.8465 O   0  0  0  0  0  0  0  0  0  0  0  0
  -26.7799    0.0758  -12.2520 H   0  0  0  0  0  0  0  0  0  0  0  0
  -27.8200   -1.4078  -10.3815 C   0  0  0  0  0  0  0  0  0  0  0  0
  -29.1836   -1.2493  -11.0574 C   0  0  0  0  0  0  0  0  0  0  0  0
  -28.4428   -0.0322  -10.6092 C   0  0  0  0  0  0  0  0  0  0  0  0
  -27.8747   -2.1431   -9.0772 C   0  0  0  0  0  0  0  0  0  0  0  0
  -27.1189   -1.7623   -8.1891 O   0  0  0  0  0  0  0  0  0  0  0  0
  -28.7456   -3.2207   -8.9839 N   0  0  0  0  0  0  0  0  0  0  0  0
  -29.0364   -3.6709   -9.8399 H   0  0  0  0  0  0  0  0  0  0  0  0
  -28.8414   -3.9446   -7.7785 C   0  0  0  0  0  0  0  0  0  0  0  0
  -28.4859   -5.2998   -7.7350 C   0  0  0  0  0  0  0  0  0  0  0  0
  -28.7599   -6.0630   -6.6027 C   0  0  0  0  0  0  0  0  0  0  0  0
  -29.3902   -5.4640   -5.5214 C   0  0  0  0  0  0  0  0  0  0  0  0
  -29.7358   -6.2108   -4.4648 F   0  0  0  0  0  0  0  0  0  0  0  0
  -29.6843   -4.1024   -5.5261 C   0  0  0  0  0  0  0  0  0  0  0  0
  -29.3758   -3.3259   -6.6471 C   0  0  0  0  0  0  0  0  0  0  0  0
  -21.1120   -0.0913  -14.4905 O   0  0  0  0  0  0  0  0  0  0  0  0
  -16.9980    1.2142  -15.2856 C   0  0  0  0  0  0  0  0  0  0  0  0
  -18.3093    0.7499  -15.1782 C   0  0  0  0  0  0  0  0  0  0  0  0
  -19.3997    1.6332  -15.0117 C   0  0  0  0  0  0  0  0  0  0  0  0
  -20.7156    1.2243  -14.6845 C   0  0  0  0  0  0  0  0  0  0  0  0
  -21.7367    2.1622  -14.5839 C   0  0  0  0  0  0  0  0  0  0  0  0
  -21.4066    3.4893  -14.7594 C   0  0  0  0  0  0  0  0  0  0  0  0
  -20.1559    3.9275  -15.0141 N   0  0  0  0  0  0  0  0  0  0  0  0
  -19.1720    3.0188  -15.1305 C   0  0  0  0  0  0  0  0  0  0  0  0
  -17.8745    3.4600  -15.3846 C   0  0  0  0  0  0  0  0  0  0  0  0
  -16.7837    2.5816  -15.4786 C   0  0  0  0  0  0  0  0  0  0  0  0
  -15.5527   -0.0394  -13.8716 C   0  0  0  0  0  0  0  0  0  0  0  0
  -15.9209    0.3740  -15.1858 O   0  0  0  0  0  0  0  0  0  0  0  0
  -15.5794    3.1957  -15.7310 O   0  0  0  0  0  0  0  0  0  0  0  0
  -15.6425    4.3786  -16.5352 C   0  0  0  0  0  0  0  0  0  0  0  0
  -15.2039    4.0668  -17.9656 C   0  0  0  0  0  0  0  0  0  0  0  0
  -13.8404    3.3831  -18.0235 C   0  0  0  0  0  0  0  0  0  0  0  0
  -13.9462    1.9128  -18.3763 C   0  0  0  0  0  0  0  0  0  0  0  0
  -14.0209    1.4678  -19.5127 O   0  0  0  0  0  0  0  0  0  0  0  0
  -13.9545    1.0949  -17.2691 N   0  0  0  0  0  0  0  0  0  0  0  0
  -14.1664   -0.2810  -17.5182 O   0  0  0  0  0  0  0  0  0  0  0  0
  -14.1950    1.4310  -16.3430 H   0  0  0  0  0  0  0  0  0  0  0  0
  -14.2162   -0.3110  -18.4991 H   0  0  0  0  0  0  0  0  0  0  0  0
 37 38  1  0  0  0
 38 27  1  0  0  0
 27 28  1  0  0  0
 27 36  2  0  0  0
 28 29  2  0  0  0
 29 30  1  0  0  0
 29 34  1  0  0  0
 30 26  1  0  0  0
 30 31  2  0  0  0
 26  1  1  0  0  0
  1  2  1  0  0  0
  1  6  2  0  0  0
  2  3  2  0  0  0
  3  4  1  0  0  0
  4  8  1  0  0  0
  4  5  2  0  0  0
  8  9  1  0  0  0
  8 11  1  0  0  0
  9 10  2  0  0  0
  9 12  1  0  0  0
 12 15  1  0  0  0
 12 13  1  0  0  0
 12 14  1  0  0  0
 15 16  2  0  0  0
 15 17  1  0  0  0
 17 19  1  0  0  0
 17 18  1  0  0  0
 19 20  1  0  0  0
 19 25  2  0  0  0
 20 21  2  0  0  0
 21 22  1  0  0  0
 22 23  1  0  0  0
 22 24  2  0  0  0
 24 25  1  0  0  0
 13 14  1  0  0  0
  5  6  1  0  0  0
  6  7  1  0  0  0
 31 32  1  0  0  0
 32 33  2  0  0  0
 33 34  1  0  0  0
 34 35  2  0  0  0
 35 36  1  0  0  0
 36 39  1  0  0  0
 39 40  1  0  0  0
 40 41  1  0  0  0
 41 42  1  0  0  0
 42 43  1  0  0  0
 43 44  2  0  0  0
 43 45  1  0  0  0
 45 46  1  0  0  0
 45 47  1  0  0  0
 46 48  1  0  0  0
M  END
> <minimizedAffinity>
-7.93144

$$$$
