CHEMBL1088429


 39 43  0  0  0  0  0  0  0  0999 V2000
  -16.7519    4.0947  -16.2457 C   0  0  0  0  0  0  0  0  0  0  0  0
  -16.6152    2.7427  -15.5849 C   0  0  0  0  0  0  0  0  0  0  0  0
  -17.7802    2.0182  -15.3088 C   0  0  0  0  0  0  0  0  0  0  0  0
  -17.7096    0.7346  -14.7691 C   0  0  0  0  0  0  0  0  0  0  0  0
  -16.4753    0.1205  -14.5810 C   0  0  0  0  0  0  0  0  0  0  0  0
  -15.3144    0.8372  -14.8834 C   0  0  0  0  0  0  0  0  0  0  0  0
  -15.3568    2.1825  -15.2577 C   0  0  0  0  0  0  0  0  0  0  0  0
  -16.3203   -1.1975  -14.0818 N   0  0  0  0  0  0  0  0  0  0  0  0
  -15.6813   -1.5385  -12.9073 C   0  0  0  0  0  0  0  0  0  0  0  0
  -15.1151   -0.7642  -12.1384 O   0  0  0  0  0  0  0  0  0  0  0  0
  -16.5635   -1.9474  -14.7141 H   0  0  0  0  0  0  0  0  0  0  0  0
  -15.6123   -2.9925  -12.5890 C   0  0  0  0  0  0  0  0  0  0  0  0
  -16.4506   -3.9324  -13.1970 C   0  0  0  0  0  0  0  0  0  0  0  0
  -16.3948   -5.2717  -12.8009 C   0  0  0  0  0  0  0  0  0  0  0  0
  -15.4966   -5.6798  -11.8114 C   0  0  0  0  0  0  0  0  0  0  0  0
  -14.6329   -4.7559  -11.2067 C   0  0  0  0  0  0  0  0  0  0  0  0
  -14.7104   -3.4082  -11.5953 C   0  0  0  0  0  0  0  0  0  0  0  0
  -13.6289   -5.1864  -10.1642 C   0  0  0  0  0  0  0  0  0  0  0  0
  -14.1702   -5.3434   -8.9232 F   0  0  0  0  0  0  0  0  0  0  0  0
  -13.0480   -6.3800  -10.4678 F   0  0  0  0  0  0  0  0  0  0  0  0
  -12.6087   -4.2982  -10.0153 F   0  0  0  0  0  0  0  0  0  0  0  0
  -14.2049    2.9834  -15.3623 N   0  0  0  0  0  0  0  0  0  0  0  0
  -13.6859    2.9734  -14.4873 H   0  0  0  0  0  0  0  0  0  0  0  0
  -13.3147    3.1759  -16.3811 C   0  0  0  0  0  0  0  0  0  0  0  0
  -12.6019    4.2894  -16.3593 N   0  0  0  0  0  0  0  0  0  0  0  0
  -13.1913    5.0225  -17.3542 C   0  0  0  0  0  0  0  0  0  0  0  0
  -13.2022    6.4082  -17.5451 C   0  0  0  0  0  0  0  0  0  0  0  0
  -14.0045    6.9244  -18.5660 C   0  0  0  0  0  0  0  0  0  0  0  0
  -14.7141    6.0777  -19.4233 C   0  0  0  0  0  0  0  0  0  0  0  0
  -14.6563    4.6855  -19.2920 C   0  0  0  0  0  0  0  0  0  0  0  0
  -13.9185    4.1938  -18.2122 C   0  0  0  0  0  0  0  0  0  0  0  0
  -13.6201    2.9283  -17.7210 N   0  0  0  0  0  0  0  0  0  0  0  0
  -13.4840    1.7365  -18.4851 C   0  0  0  0  0  0  0  0  0  0  0  0
  -13.1008    1.8040  -19.8076 C   0  0  0  0  0  0  0  0  0  0  0  0
  -13.0186    0.5886  -20.4507 C   0  0  0  0  0  0  0  0  0  0  0  0
  -12.5156    0.4920  -22.0879 Cl  0  0  0  0  0  0  0  0  0  0  0  0
  -13.2788   -0.6026  -19.8903 N   0  0  0  0  0  0  0  0  0  0  0  0
  -13.6809   -0.5510  -18.6199 C   0  0  0  0  0  0  0  0  0  0  0  0
  -13.7991    0.5635  -17.8873 N   0  0  0  0  0  0  0  0  0  0  0  0
  1  2  1  0  0  0
  2  3  1  0  0  0
  2  7  2  0  0  0
  3  4  2  0  0  0
  4  5  1  0  0  0
  5  8  1  0  0  0
  5  6  2  0  0  0
  8  9  1  0  0  0
  8 11  1  0  0  0
  9 10  2  0  0  0
  9 12  1  0  0  0
 12 13  1  0  0  0
 12 17  2  0  0  0
 13 14  2  0  0  0
 14 15  1  0  0  0
 15 16  2  0  0  0
 16 18  1  0  0  0
 16 17  1  0  0  0
 18 19  1  0  0  0
 18 20  1  0  0  0
 18 21  1  0  0  0
  6  7  1  0  0  0
  7 22  1  0  0  0
 22 24  1  0  0  0
 22 23  1  0  0  0
 24 25  2  0  0  0
 24 32  1  0  0  0
 25 26  1  0  0  0
 26 27  1  0  0  0
 26 31  2  0  0  0
 27 28  2  0  0  0
 28 29  1  0  0  0
 29 30  2  0  0  0
 30 31  1  0  0  0
 31 32  1  0  0  0
 32 33  1  0  0  0
 33 34  1  0  0  0
 33 39  2  0  0  0
 34 35  2  0  0  0
 35 36  1  0  0  0
 35 37  1  0  0  0
 37 38  2  0  0  0
 38 39  1  0  0  0
M  END
> <minimizedAffinity>
-8.65211

$$$$
