CHEMBL3590223


 36 40  0  0  0  0  0  0  0  0999 V2000
  -30.1057   -8.3709   -7.9228 C   0  0  0  0  0  0  0  0  0  0  0  0
  -29.6693   -7.3659   -7.1911 N   0  0  0  0  0  0  0  0  0  0  0  0
  -30.7227   -7.0441   -6.3666 C   0  0  0  0  0  0  0  0  0  0  0  0
  -31.8041   -7.7994   -6.5756 N   0  0  0  0  0  0  0  0  0  0  0  0
  -31.4064   -8.6192   -7.5646 N   0  0  0  0  0  0  0  0  0  0  0  0
  -32.3396   -9.6076   -8.0394 C   0  0  0  0  0  0  0  0  0  0  0  0
  -30.6243   -6.0143   -5.3399 C   0  0  0  0  0  0  0  0  0  0  0  0
  -31.4324   -6.0437   -4.2178 C   0  0  0  0  0  0  0  0  0  0  0  0
  -31.4364   -5.0527   -3.2909 N   0  0  0  0  0  0  0  0  0  0  0  0
  -30.6013   -4.0104   -3.5069 C   0  0  0  0  0  0  0  0  0  0  0  0
  -30.8018   -2.9510   -2.6372 N   0  0  0  0  0  0  0  0  0  0  0  0
  -29.7413   -3.9939   -4.6206 C   0  0  0  0  0  0  0  0  0  0  0  0
  -29.7507   -4.9947   -5.5450 N   0  0  0  0  0  0  0  0  0  0  0  0
  -31.4025   -3.2448   -1.8726 H   0  0  0  0  0  0  0  0  0  0  0  0
  -29.9481   -2.4801   -2.3514 H   0  0  0  0  0  0  0  0  0  0  0  0
  -28.7975   -2.9429   -4.8036 N   0  0  0  0  0  0  0  0  0  0  0  0
  -27.4505   -3.1519   -4.7285 N   0  0  0  0  0  0  0  0  0  0  0  0
  -26.8258   -2.0159   -4.9973 N   0  0  0  0  0  0  0  0  0  0  0  0
  -27.7695   -1.0653   -5.2573 C   0  0  0  0  0  0  0  0  0  0  0  0
  -27.6146    0.2847   -5.5960 C   0  0  0  0  0  0  0  0  0  0  0  0
  -28.7576    1.0597   -5.8177 C   0  0  0  0  0  0  0  0  0  0  0  0
  -30.0290    0.4974   -5.7037 C   0  0  0  0  0  0  0  0  0  0  0  0
  -30.1987   -0.8511   -5.3689 C   0  0  0  0  0  0  0  0  0  0  0  0
  -29.0429   -1.6168   -5.1501 C   0  0  0  0  0  0  0  0  0  0  0  0
  -25.9768  -11.2387   -7.2428 C   0  0  0  0  0  0  0  0  0  0  0  0
  -26.0723  -12.4643   -7.1132 O   0  0  0  0  0  0  0  0  0  0  0  0
  -27.0628  -10.4539   -7.6259 N   0  0  0  0  0  0  0  0  0  0  0  0
  -28.4072  -11.0125   -7.5055 C   0  0  0  0  0  0  0  0  0  0  0  0
  -29.2849  -10.6305   -8.6962 C   0  0  0  0  0  0  0  0  0  0  0  0
  -29.3081   -9.1155   -8.9564 C   0  0  0  0  0  0  0  0  0  0  0  0
  -27.8572   -8.6018   -9.0417 C   0  0  0  0  0  0  0  0  0  0  0  0
  -26.9904   -9.0119   -7.8489 C   0  0  0  0  0  0  0  0  0  0  0  0
  -24.6250  -10.5532   -6.9714 C   0  0  0  0  0  0  0  0  0  0  0  0
  -22.5911  -11.8755   -7.1143 C   0  0  0  0  0  0  0  0  0  0  0  0
  -23.6962  -11.4533   -6.2442 N   0  0  0  0  0  0  0  0  0  0  0  0
  -23.1612  -10.7794   -5.0613 C   0  0  0  0  0  0  0  0  0  0  0  0
 34 35  1  0  0  0
 35 36  1  0  0  0
 35 33  1  0  0  0
 33 25  1  0  0  0
 25 26  2  0  0  0
 25 27  1  0  0  0
 27 28  1  0  0  0
 27 32  1  0  0  0
 28 29  1  0  0  0
 29 30  1  0  0  0
 30  1  1  0  0  0
 30 31  1  0  0  0
  1  2  2  0  0  0
  1  5  1  0  0  0
  2  3  1  0  0  0
  3  7  1  0  0  0
  3  4  2  0  0  0
  7  8  1  0  0  0
  7 13  2  0  0  0
  8  9  2  0  0  0
  9 10  1  0  0  0
 10 11  1  0  0  0
 10 12  2  0  0  0
 11 14  1  0  0  0
 11 15  1  0  0  0
 12 16  1  0  0  0
 12 13  1  0  0  0
 16 17  1  0  0  0
 16 24  1  0  0  0
 17 18  2  0  0  0
 18 19  1  0  0  0
 19 20  1  0  0  0
 19 24  2  0  0  0
 20 21  2  0  0  0
 21 22  1  0  0  0
 22 23  2  0  0  0
 23 24  1  0  0  0
  4  5  1  0  0  0
  5  6  1  0  0  0
 31 32  1  0  0  0
M  END
> <minimizedAffinity>
-8.97322

$$$$
