CHEMBL1241578


 24 26  0  0  0  0  0  0  0  0999 V2000
  -14.9759    2.9624  -16.4718 N   0  0  0  0  0  0  0  0  0  0  0  0
  -16.3238    2.9497  -16.4460 N   0  0  0  0  0  0  0  0  0  0  0  0
  -16.6378    2.1327  -15.4231 C   0  0  0  0  0  0  0  0  0  0  0  0
  -15.4574    1.6303  -14.7814 C   0  0  0  0  0  0  0  0  0  0  0  0
  -15.0971    0.8031  -13.7039 C   0  0  0  0  0  0  0  0  0  0  0  0
  -15.9737    0.1762  -12.8329 N   0  0  0  0  0  0  0  0  0  0  0  0
  -13.7871    0.5824  -13.4639 N   0  0  0  0  0  0  0  0  0  0  0  0
  -12.8751    1.1702  -14.2554 C   0  0  0  0  0  0  0  0  0  0  0  0
  -13.0926    1.9941  -15.2928 N   0  0  0  0  0  0  0  0  0  0  0  0
  -14.4079    2.1829  -15.5018 C   0  0  0  0  0  0  0  0  0  0  0  0
  -16.8386    0.6618  -12.6382 H   0  0  0  0  0  0  0  0  0  0  0  0
  -15.4847   -0.1955  -12.0266 H   0  0  0  0  0  0  0  0  0  0  0  0
  -18.0481    1.8929  -15.1025 C   0  0  0  0  0  0  0  0  0  0  0  0
  -18.6076    0.6174  -15.2980 C   0  0  0  0  0  0  0  0  0  0  0  0
  -19.9581    0.3737  -15.0227 C   0  0  0  0  0  0  0  0  0  0  0  0
  -20.7655    1.4140  -14.5666 C   0  0  0  0  0  0  0  0  0  0  0  0
  -22.5986    1.0851  -14.2225 Br  0  0  0  0  0  0  0  0  0  0  0  0
  -20.2146    2.6767  -14.3581 C   0  0  0  0  0  0  0  0  0  0  0  0
  -20.9601    3.7460  -13.9465 O   0  0  0  0  0  0  0  0  0  0  0  0
  -18.8616    2.9088  -14.5893 C   0  0  0  0  0  0  0  0  0  0  0  0
  -21.8804    3.4414  -13.8505 H   0  0  0  0  0  0  0  0  0  0  0  0
  -14.0875    2.9558  -18.7683 C   0  0  0  0  0  0  0  0  0  0  0  0
  -14.2625    3.7490  -17.4741 C   0  0  0  0  0  0  0  0  0  0  0  0
  -14.9322    5.0971  -17.7583 C   0  0  0  0  0  0  0  0  0  0  0  0
 22 23  1  0  0  0
 23 24  1  0  0  0
 23  1  1  0  0  0
  1  2  1  0  0  0
  1 10  1  0  0  0
  2  3  2  0  0  0
  3 13  1  0  0  0
  3  4  1  0  0  0
 13 14  1  0  0  0
 13 20  2  0  0  0
 14 15  2  0  0  0
 15 16  1  0  0  0
 16 17  1  0  0  0
 16 18  2  0  0  0
 18 19  1  0  0  0
 18 20  1  0  0  0
 19 21  1  0  0  0
  4  5  1  0  0  0
  4 10  2  0  0  0
  5  6  1  0  0  0
  5  7  2  0  0  0
  6 11  1  0  0  0
  6 12  1  0  0  0
  7  8  1  0  0  0
  8  9  2  0  0  0
  9 10  1  0  0  0
M  END
> <minimizedAffinity>
-7.09844

$$$$
