CHEMBL465793


 38 43  0  0  0  0  0  0  0  0999 V2000
  -14.3892   -0.1711  -14.3372 C   0  0  0  0  0  0  0  0  0  0  0  0
  -15.5996   -0.0676  -13.6491 C   0  0  0  0  0  0  0  0  0  0  0  0
  -16.6273    0.7255  -14.1456 C   0  0  0  0  0  0  0  0  0  0  0  0
  -16.4641    1.4869  -15.3073 C   0  0  0  0  0  0  0  0  0  0  0  0
  -15.1579    1.5721  -15.8906 C   0  0  0  0  0  0  0  0  0  0  0  0
  -14.8330    2.4782  -16.9353 C   0  0  0  0  0  0  0  0  0  0  0  0
  -13.5659    2.5277  -17.5142 C   0  0  0  0  0  0  0  0  0  0  0  0
  -12.5778    1.6630  -17.0710 C   0  0  0  0  0  0  0  0  0  0  0  0
  -12.8532    0.7639  -16.0364 C   0  0  0  0  0  0  0  0  0  0  0  0
  -14.1214    0.7088  -15.4148 C   0  0  0  0  0  0  0  0  0  0  0  0
  -17.5803    2.1627  -15.8896 N   0  0  0  0  0  0  0  0  0  0  0  0
  -17.4766    2.2828  -16.8849 H   0  0  0  0  0  0  0  0  0  0  0  0
  -18.8534    2.1292  -15.4179 C   0  0  0  0  0  0  0  0  0  0  0  0
  -19.6686    3.0967  -15.0609 N   0  0  0  0  0  0  0  0  0  0  0  0
  -20.8087    2.4891  -14.6004 C   0  0  0  0  0  0  0  0  0  0  0  0
  -21.9806    3.0545  -14.0783 C   0  0  0  0  0  0  0  0  0  0  0  0
  -23.0207    2.2013  -13.6880 C   0  0  0  0  0  0  0  0  0  0  0  0
  -22.8945    0.8150  -13.8141 C   0  0  0  0  0  0  0  0  0  0  0  0
  -21.7272    0.2327  -14.3231 C   0  0  0  0  0  0  0  0  0  0  0  0
  -20.7071    1.1081  -14.7011 C   0  0  0  0  0  0  0  0  0  0  0  0
  -19.4539    0.9080  -15.2191 N   0  0  0  0  0  0  0  0  0  0  0  0
  -19.0395    0.0154  -15.4293 H   0  0  0  0  0  0  0  0  0  0  0  0
  -13.4189   -1.0899  -13.9366 O   0  0  0  0  0  0  0  0  0  0  0  0
  -14.0491   -3.4160  -13.5976 C   0  0  0  0  0  0  0  0  0  0  0  0
  -14.1889   -4.6786  -14.2220 C   0  0  0  0  0  0  0  0  0  0  0  0
  -13.8300   -4.8904  -15.5499 C   0  0  0  0  0  0  0  0  0  0  0  0
  -13.2855   -3.8350  -16.2407 C   0  0  0  0  0  0  0  0  0  0  0  0
  -13.1041   -2.6186  -15.6977 N   0  0  0  0  0  0  0  0  0  0  0  0
  -13.5243   -2.4008  -14.4185 C   0  0  0  0  0  0  0  0  0  0  0  0
  -13.8335   -3.4310   -9.9582 C   0  0  0  0  0  0  0  0  0  0  0  0
  -15.0779   -3.2538   -9.5190 N   0  0  0  0  0  0  0  0  0  0  0  0
  -16.0342   -3.0791  -10.4468 C   0  0  0  0  0  0  0  0  0  0  0  0
  -15.7947   -3.0889  -11.8013 C   0  0  0  0  0  0  0  0  0  0  0  0
  -14.4864   -3.2807  -12.1871 C   0  0  0  0  0  0  0  0  0  0  0  0
  -13.5041   -3.4504  -11.2580 N   0  0  0  0  0  0  0  0  0  0  0  0
  -12.5816   -4.9869   -8.5876 C   0  0  0  0  0  0  0  0  0  0  0  0
  -12.8928   -3.6312   -8.9637 N   0  0  0  0  0  0  0  0  0  0  0  0
  -13.1398   -2.9995   -8.2073 H   0  0  0  0  0  0  0  0  0  0  0  0
 36 37  1  0  0  0
 37 30  1  0  0  0
 37 38  1  0  0  0
 30 31  1  0  0  0
 30 35  2  0  0  0
 31 32  2  0  0  0
 32 33  1  0  0  0
 33 34  2  0  0  0
 34 24  1  0  0  0
 34 35  1  0  0  0
 24 25  1  0  0  0
 24 29  2  0  0  0
 25 26  2  0  0  0
 26 27  1  0  0  0
 27 28  2  0  0  0
 28 29  1  0  0  0
 29 23  1  0  0  0
 23  1  1  0  0  0
  1  2  1  0  0  0
  1 10  2  0  0  0
  2  3  2  0  0  0
  3  4  1  0  0  0
  4 11  1  0  0  0
  4  5  2  0  0  0
 11 13  1  0  0  0
 11 12  1  0  0  0
 13 14  2  0  0  0
 13 21  1  0  0  0
 14 15  1  0  0  0
 15 16  1  0  0  0
 15 20  2  0  0  0
 16 17  2  0  0  0
 17 18  1  0  0  0
 18 19  2  0  0  0
 19 20  1  0  0  0
 20 21  1  0  0  0
 21 22  1  0  0  0
  5  6  1  0  0  0
  5 10  1  0  0  0
  6  7  2  0  0  0
  7  8  1  0  0  0
  8  9  2  0  0  0
  9 10  1  0  0  0
M  END
> <minimizedAffinity>
-9.27911

$$$$
