CHEMBL220951


 30 32  0  0  0  0  0  0  0  0999 V2000
  -29.3065   -8.1636   -6.2565 C   0  0  0  0  0  0  0  0  0  0  0  0
  -28.6549   -9.0495   -5.4043 C   0  0  0  0  0  0  0  0  0  0  0  0
  -27.9391  -10.1543   -5.8621 N   0  0  0  0  0  0  0  0  0  0  0  0
  -28.5487   -8.8439   -4.0789 N   0  0  0  0  0  0  0  0  0  0  0  0
  -29.1397   -7.7472   -3.5962 C   0  0  0  0  0  0  0  0  0  0  0  0
  -29.7983   -6.8383   -4.3154 N   0  0  0  0  0  0  0  0  0  0  0  0
  -29.8430   -7.0419   -5.6513 C   0  0  0  0  0  0  0  0  0  0  0  0
  -28.4471  -10.6499   -6.5959 H   0  0  0  0  0  0  0  0  0  0  0  0
  -27.6601  -10.7317   -5.0764 H   0  0  0  0  0  0  0  0  0  0  0  0
  -29.9493   -9.5458   -8.1218 N   0  0  0  0  0  0  0  0  0  0  0  0
  -29.4377   -8.4290   -7.7008 C   0  0  0  0  0  0  0  0  0  0  0  0
  -29.9603   -9.5824   -9.5222 O   0  0  0  0  0  0  0  0  0  0  0  0
  -29.1600  -10.7017   -9.9306 C   0  0  0  0  0  0  0  0  0  0  0  0
  -28.2739  -10.2860  -11.0976 C   0  0  0  0  0  0  0  0  0  0  0  0
  -27.0348   -9.5286  -10.6344 C   0  0  0  0  0  0  0  0  0  0  0  0
  -27.1298   -9.1498  -12.9621 C   0  0  0  0  0  0  0  0  0  0  0  0
  -26.4259   -8.8907  -11.7548 O   0  0  0  0  0  0  0  0  0  0  0  0
  -30.4799   -6.0779   -6.4336 O   0  0  0  0  0  0  0  0  0  0  0  0
  -29.8025   -4.8911   -6.6636 C   0  0  0  0  0  0  0  0  0  0  0  0
  -28.9055   -4.7377   -7.7300 C   0  0  0  0  0  0  0  0  0  0  0  0
  -28.2098   -3.5458   -7.9389 C   0  0  0  0  0  0  0  0  0  0  0  0
  -28.5065   -2.4709   -7.0940 C   0  0  0  0  0  0  0  0  0  0  0  0
  -28.0155   -1.1878   -7.1003 N   0  0  0  0  0  0  0  0  0  0  0  0
  -28.7071   -0.4090   -6.2078 C   0  0  0  0  0  0  0  0  0  0  0  0
  -28.5268    1.0623   -6.1523 C   0  0  0  0  0  0  0  0  0  0  0  0
  -29.5395   -1.2503   -5.4932 C   0  0  0  0  0  0  0  0  0  0  0  0
  -29.4442   -2.5530   -6.0665 C   0  0  0  0  0  0  0  0  0  0  0  0
  -30.0871   -3.7962   -5.8368 C   0  0  0  0  0  0  0  0  0  0  0  0
  -30.9842   -3.9159   -4.8515 F   0  0  0  0  0  0  0  0  0  0  0  0
  -27.3028   -0.8515   -7.7344 H   0  0  0  0  0  0  0  0  0  0  0  0
 16 17  1  0  0  0
 17 15  1  0  0  0
 15 14  1  0  0  0
 14 13  1  0  0  0
 13 12  1  0  0  0
 12 10  1  0  0  0
 10 11  2  0  0  0
 11  1  1  0  0  0
  1  2  1  0  0  0
  1  7  2  0  0  0
  2  3  1  0  0  0
  2  4  2  0  0  0
  3  8  1  0  0  0
  3  9  1  0  0  0
  4  5  1  0  0  0
  5  6  2  0  0  0
  6  7  1  0  0  0
  7 18  1  0  0  0
 18 19  1  0  0  0
 19 20  1  0  0  0
 19 28  2  0  0  0
 20 21  2  0  0  0
 21 22  1  0  0  0
 22 23  1  0  0  0
 22 27  2  0  0  0
 23 24  1  0  0  0
 23 30  1  0  0  0
 24 25  1  0  0  0
 24 26  2  0  0  0
 26 27  1  0  0  0
 27 28  1  0  0  0
 28 29  1  0  0  0
M  END
> <minimizedAffinity>
-7.33889

$$$$
