CHEMBL2403108


 41 44  0  0  0  0  0  0  0  0999 V2000
  -29.0104   -3.8294   -7.8191 C   0  0  0  0  0  0  0  0  0  0  0  0
  -29.2332   -3.2018   -6.6548 N   0  0  0  0  0  0  0  0  0  0  0  0
  -28.6699   -1.9796   -6.5081 C   0  0  0  0  0  0  0  0  0  0  0  0
  -27.9321   -1.3508   -7.4856 C   0  0  0  0  0  0  0  0  0  0  0  0
  -27.3069    0.2286   -7.2359 Cl  0  0  0  0  0  0  0  0  0  0  0  0
  -27.7177   -2.0833   -8.6407 C   0  0  0  0  0  0  0  0  0  0  0  0
  -28.2321   -3.3226   -8.7876 N   0  0  0  0  0  0  0  0  0  0  0  0
  -29.6835   -5.0310   -8.0552 N   0  0  0  0  0  0  0  0  0  0  0  0
  -30.6821   -4.8731   -7.9978 H   0  0  0  0  0  0  0  0  0  0  0  0
  -27.2743   -9.2441   -8.9383 C   0  0  0  0  0  0  0  0  0  0  0  0
  -28.0466   -8.3998   -7.9592 C   0  0  0  0  0  0  0  0  0  0  0  0
  -28.5411   -7.1642   -8.4164 C   0  0  0  0  0  0  0  0  0  0  0  0
  -29.3106   -6.3190   -7.6048 C   0  0  0  0  0  0  0  0  0  0  0  0
  -29.6224   -6.7594   -6.3073 C   0  0  0  0  0  0  0  0  0  0  0  0
  -29.0584   -7.9480   -5.8164 C   0  0  0  0  0  0  0  0  0  0  0  0
  -28.2421   -8.7671   -6.6121 C   0  0  0  0  0  0  0  0  0  0  0  0
  -27.5472   -9.9900   -6.0059 C   0  0  0  0  0  0  0  0  0  0  0  0
  -28.5149  -11.0253   -5.4003 C   0  0  0  0  0  0  0  0  0  0  0  0
  -28.6572  -10.9531   -3.8855 C   0  0  0  0  0  0  0  0  0  0  0  0
  -27.3559  -10.9341   -3.2228 N   0  0  0  0  0  0  0  0  0  0  0  0
  -26.6361   -9.7178   -3.5828 C   0  0  0  0  0  0  0  0  0  0  0  0
  -26.3590   -9.6329   -5.0830 C   0  0  0  0  0  0  0  0  0  0  0  0
  -26.8122  -11.7488   -3.5109 H   0  0  0  0  0  0  0  0  0  0  0  0
  -30.4666   -5.9753   -5.5470 O   0  0  0  0  0  0  0  0  0  0  0  0
  -30.2633   -6.0463   -4.1231 C   0  0  0  0  0  0  0  0  0  0  0  0
  -29.1701   -5.0573   -3.7299 C   0  0  0  0  0  0  0  0  0  0  0  0
  -31.5711   -5.7057   -3.4149 C   0  0  0  0  0  0  0  0  0  0  0  0
  -26.9356   -1.5638   -9.6933 N   0  0  0  0  0  0  0  0  0  0  0  0
  -26.3899   -0.7440   -9.4133 H   0  0  0  0  0  0  0  0  0  0  0  0
  -27.2163   -1.6605  -11.0681 C   0  0  0  0  0  0  0  0  0  0  0  0
  -28.5023   -2.0766  -11.4628 C   0  0  0  0  0  0  0  0  0  0  0  0
  -28.8379   -2.2796  -12.8009 C   0  0  0  0  0  0  0  0  0  0  0  0
  -27.8987   -2.0253  -13.7911 C   0  0  0  0  0  0  0  0  0  0  0  0
  -26.6334   -1.5517  -13.4397 C   0  0  0  0  0  0  0  0  0  0  0  0
  -26.2941   -1.3566  -12.0849 C   0  0  0  0  0  0  0  0  0  0  0  0
  -24.6051   -0.8956  -11.7232 S   0  0  0  0  0  0  0  0  0  0  0  0
  -24.5851    0.5470  -11.5369 O   0  0  0  0  0  0  0  0  0  0  0  0
  -24.1668   -1.7658  -10.6456 O   0  0  0  0  0  0  0  0  0  0  0  0
  -23.6221   -1.2899  -13.1711 C   0  0  0  0  0  0  0  0  0  0  0  0
  -22.4555   -0.3299  -13.3754 C   0  0  0  0  0  0  0  0  0  0  0  0
  -23.0773   -2.7196  -13.0469 C   0  0  0  0  0  0  0  0  0  0  0  0
 10 11  1  0  0  0
 11 12  1  0  0  0
 11 16  2  0  0  0
 12 13  2  0  0  0
 13  8  1  0  0  0
 13 14  1  0  0  0
  8  1  1  0  0  0
  8  9  1  0  0  0
  1  2  1  0  0  0
  1  7  2  0  0  0
  2  3  2  0  0  0
  3  4  1  0  0  0
  4  5  1  0  0  0
  4  6  2  0  0  0
  6 28  1  0  0  0
  6  7  1  0  0  0
 28 30  1  0  0  0
 28 29  1  0  0  0
 30 31  1  0  0  0
 30 35  2  0  0  0
 31 32  2  0  0  0
 32 33  1  0  0  0
 33 34  2  0  0  0
 34 35  1  0  0  0
 35 36  1  0  0  0
 36 37  2  0  0  0
 36 38  2  0  0  0
 36 39  1  0  0  0
 39 40  1  0  0  0
 39 41  1  0  0  0
 14 24  1  0  0  0
 14 15  2  0  0  0
 24 25  1  0  0  0
 25 26  1  0  0  0
 25 27  1  0  0  0
 15 16  1  0  0  0
 16 17  1  0  0  0
 17 18  1  0  0  0
 17 22  1  0  0  0
 18 19  1  0  0  0
 19 20  1  0  0  0
 20 21  1  0  0  0
 20 23  1  0  0  0
 21 22  1  0  0  0
M  END
> <minimizedAffinity>
-7.28540

$$$$
