CHEMBL3287597


 44 48  0  0  0  0  0  0  0  0999 V2000
  -29.3937   -7.2116   -5.1779 C   0  0  0  0  0  0  0  0  0  0  0  0
  -30.5437   -6.5851   -5.6744 C   0  0  0  0  0  0  0  0  0  0  0  0
  -30.6156   -5.1945   -5.7990 C   0  0  0  0  0  0  0  0  0  0  0  0
  -29.5385   -4.4011   -5.4172 C   0  0  0  0  0  0  0  0  0  0  0  0
  -28.4238   -5.0147   -4.8421 C   0  0  0  0  0  0  0  0  0  0  0  0
  -27.4039   -4.2847   -4.3649 F   0  0  0  0  0  0  0  0  0  0  0  0
  -28.3437   -6.4094   -4.7240 C   0  0  0  0  0  0  0  0  0  0  0  0
  -28.8674   -9.3257   -3.9849 C   0  0  0  0  0  0  0  0  0  0  0  0
  -28.6485   -8.8578   -2.8694 O   0  0  0  0  0  0  0  0  0  0  0  0
  -29.2614   -8.6203   -5.1127 N   0  0  0  0  0  0  0  0  0  0  0  0
  -29.5313   -9.1573   -5.9259 H   0  0  0  0  0  0  0  0  0  0  0  0
  -28.7022  -10.8014   -4.1402 C   0  0  0  0  0  0  0  0  0  0  0  0
  -29.6615  -11.6597   -3.3013 C   0  0  0  0  0  0  0  0  0  0  0  0
  -29.7687  -11.6765   -4.7913 C   0  0  0  0  0  0  0  0  0  0  0  0
  -27.0722  -12.2001   -5.0530 O   0  0  0  0  0  0  0  0  0  0  0  0
  -27.2836  -11.2482   -4.3157 C   0  0  0  0  0  0  0  0  0  0  0  0
  -26.3593  -10.5287   -3.5799 N   0  0  0  0  0  0  0  0  0  0  0  0
  -26.7264   -9.8156   -2.9592 H   0  0  0  0  0  0  0  0  0  0  0  0
  -24.9729  -10.7647   -3.5326 C   0  0  0  0  0  0  0  0  0  0  0  0
  -24.1052  -10.4137   -4.5719 C   0  0  0  0  0  0  0  0  0  0  0  0
  -22.7501  -10.7436   -4.5057 C   0  0  0  0  0  0  0  0  0  0  0  0
  -22.2643  -11.4218   -3.3986 C   0  0  0  0  0  0  0  0  0  0  0  0
  -20.9732  -11.7738   -3.3541 F   0  0  0  0  0  0  0  0  0  0  0  0
  -23.1011  -11.7426   -2.3366 C   0  0  0  0  0  0  0  0  0  0  0  0
  -24.4551  -11.3992   -2.3956 C   0  0  0  0  0  0  0  0  0  0  0  0
  -29.7251   -3.0461   -5.5501 O   0  0  0  0  0  0  0  0  0  0  0  0
  -28.9267   -2.3462   -6.4461 C   0  0  0  0  0  0  0  0  0  0  0  0
  -28.5130   -1.1039   -6.0279 C   0  0  0  0  0  0  0  0  0  0  0  0
  -27.6936   -0.4488   -6.9024 C   0  0  0  0  0  0  0  0  0  0  0  0
  -27.3072   -0.9748   -8.0755 N   0  0  0  0  0  0  0  0  0  0  0  0
  -27.7672   -2.1928   -8.4010 C   0  0  0  0  0  0  0  0  0  0  0  0
  -28.6249   -2.8823   -7.6442 N   0  0  0  0  0  0  0  0  0  0  0  0
  -27.3402   -2.8309   -9.5678 N   0  0  0  0  0  0  0  0  0  0  0  0
  -26.9877   -3.7459   -9.3260 H   0  0  0  0  0  0  0  0  0  0  0  0
  -26.8585   -2.2876  -10.7704 C   0  0  0  0  0  0  0  0  0  0  0  0
  -27.6604   -2.1070  -11.9044 C   0  0  0  0  0  0  0  0  0  0  0  0
  -27.1339   -1.6335  -13.1077 C   0  0  0  0  0  0  0  0  0  0  0  0
  -25.7823   -1.3278  -13.1975 C   0  0  0  0  0  0  0  0  0  0  0  0
  -24.9482   -1.4904  -12.0845 C   0  0  0  0  0  0  0  0  0  0  0  0
  -25.4946   -1.9870  -10.8841 C   0  0  0  0  0  0  0  0  0  0  0  0
  -23.4872   -1.1324  -12.1555 C   0  0  0  0  0  0  0  0  0  0  0  0
  -23.2272    0.1637  -11.8242 F   0  0  0  0  0  0  0  0  0  0  0  0
  -22.7286   -1.8887  -11.3137 F   0  0  0  0  0  0  0  0  0  0  0  0
  -22.9606   -1.3133  -13.3974 F   0  0  0  0  0  0  0  0  0  0  0  0
 15 16  2  0  0  0
 16 17  1  0  0  0
 16 12  1  0  0  0
 17 19  1  0  0  0
 17 18  1  0  0  0
 19 20  1  0  0  0
 19 25  2  0  0  0
 20 21  2  0  0  0
 21 22  1  0  0  0
 22 23  1  0  0  0
 22 24  2  0  0  0
 24 25  1  0  0  0
 12  8  1  0  0  0
 12 13  1  0  0  0
 12 14  1  0  0  0
  8  9  2  0  0  0
  8 10  1  0  0  0
 10  1  1  0  0  0
 10 11  1  0  0  0
  1  2  1  0  0  0
  1  7  2  0  0  0
  2  3  2  0  0  0
  3  4  1  0  0  0
  4 26  1  0  0  0
  4  5  2  0  0  0
 26 27  1  0  0  0
 27 28  1  0  0  0
 27 32  2  0  0  0
 28 29  2  0  0  0
 29 30  1  0  0  0
 30 31  2  0  0  0
 31 33  1  0  0  0
 31 32  1  0  0  0
 33 35  1  0  0  0
 33 34  1  0  0  0
 35 36  1  0  0  0
 35 40  2  0  0  0
 36 37  2  0  0  0
 37 38  1  0  0  0
 38 39  2  0  0  0
 39 41  1  0  0  0
 39 40  1  0  0  0
 41 42  1  0  0  0
 41 43  1  0  0  0
 41 44  1  0  0  0
  5  6  1  0  0  0
  5  7  1  0  0  0
 13 14  1  0  0  0
M  END
> <minimizedAffinity>
-10.62704

$$$$
