CHEMBL1968070


 24 26  0  0  0  0  0  0  0  0999 V2000
  -30.5291   -5.9143   -5.2419 C   0  0  0  0  0  0  0  0  0  0  0  0
  -31.2086   -6.9020   -5.9741 C   0  0  0  0  0  0  0  0  0  0  0  0
  -30.8247   -7.2006   -7.2758 C   0  0  0  0  0  0  0  0  0  0  0  0
  -29.7842   -6.4904   -7.8623 C   0  0  0  0  0  0  0  0  0  0  0  0
  -29.1704   -5.4245   -7.1878 C   0  0  0  0  0  0  0  0  0  0  0  0
  -29.5134   -5.1327   -5.8562 C   0  0  0  0  0  0  0  0  0  0  0  0
  -28.8259   -4.1318   -5.1277 N   0  0  0  0  0  0  0  0  0  0  0  0
  -28.6849   -2.8150   -5.5678 C   0  0  0  0  0  0  0  0  0  0  0  0
  -28.9149   -1.8633   -4.6297 N   0  0  0  0  0  0  0  0  0  0  0  0
  -28.9165   -0.5300   -4.9497 N   0  0  0  0  0  0  0  0  0  0  0  0
  -28.6854   -0.1666   -6.2177 C   0  0  0  0  0  0  0  0  0  0  0  0
  -28.7629    1.5109   -6.5357 Cl  0  0  0  0  0  0  0  0  0  0  0  0
  -28.4023   -1.0810   -7.2017 C   0  0  0  0  0  0  0  0  0  0  0  0
  -28.3750   -2.4414   -6.8626 C   0  0  0  0  0  0  0  0  0  0  0  0
  -27.9328   -3.3716   -7.9125 C   0  0  0  0  0  0  0  0  0  0  0  0
  -27.3134   -2.9153   -8.8761 O   0  0  0  0  0  0  0  0  0  0  0  0
  -28.2306   -4.7083   -7.9375 N   0  0  0  0  0  0  0  0  0  0  0  0
  -29.1788   -4.0545   -4.1614 H   0  0  0  0  0  0  0  0  0  0  0  0
  -27.9208   -5.1224   -8.8094 H   0  0  0  0  0  0  0  0  0  0  0  0
  -30.6574   -6.6230   -2.8984 N   0  0  0  0  0  0  0  0  0  0  0  0
  -30.9234   -5.6574   -3.8269 C   0  0  0  0  0  0  0  0  0  0  0  0
  -31.4239   -4.5927   -3.4829 O   0  0  0  0  0  0  0  0  0  0  0  0
  -30.8503   -6.3724   -1.9320 H   0  0  0  0  0  0  0  0  0  0  0  0
  -30.0179   -7.3860   -3.0551 H   0  0  0  0  0  0  0  0  0  0  0  0
 20 21  1  0  0  0
 20 23  1  0  0  0
 20 24  1  0  0  0
 21 22  2  0  0  0
 21  1  1  0  0  0
  1  2  1  0  0  0
  1  6  2  0  0  0
  2  3  2  0  0  0
  3  4  1  0  0  0
  4  5  2  0  0  0
  5  6  1  0  0  0
  5 17  1  0  0  0
  6  7  1  0  0  0
  7  8  1  0  0  0
  7 18  1  0  0  0
  8  9  1  0  0  0
  8 14  2  0  0  0
  9 10  2  0  0  0
 10 11  1  0  0  0
 11 12  1  0  0  0
 11 13  2  0  0  0
 13 14  1  0  0  0
 14 15  1  0  0  0
 15 16  2  0  0  0
 15 17  1  0  0  0
 17 19  1  0  0  0
M  END
> <minimizedAffinity>
-8.05711

$$$$
