CHEMBL3893914


 30 32  0  0  0  0  0  0  0  0999 V2000
  -16.7858    1.1566  -14.9050 C   0  0  0  0  0  0  0  0  0  0  0  0
  -17.8836    1.7538  -14.3966 N   0  0  0  0  0  0  0  0  0  0  0  0
  -18.2719    2.9670  -14.8420 C   0  0  0  0  0  0  0  0  0  0  0  0
  -17.5500    3.6446  -15.8144 C   0  0  0  0  0  0  0  0  0  0  0  0
  -16.3755    3.0779  -16.3182 C   0  0  0  0  0  0  0  0  0  0  0  0
  -15.5656    3.8180  -17.3454 C   0  0  0  0  0  0  0  0  0  0  0  0
  -15.9858    1.8113  -15.8466 C   0  0  0  0  0  0  0  0  0  0  0  0
  -16.4453   -0.1109  -14.4071 N   0  0  0  0  0  0  0  0  0  0  0  0
  -17.1629   -0.8114  -14.5659 H   0  0  0  0  0  0  0  0  0  0  0  0
  -15.9774   -0.1072  -13.0114 C   0  0  0  0  0  0  0  0  0  0  0  0
  -14.8441   -1.1258  -12.8233 C   0  0  0  0  0  0  0  0  0  0  0  0
  -15.1729   -2.0207  -11.7601 O   0  0  0  0  0  0  0  0  0  0  0  0
  -15.4975   -7.3678  -13.4356 C   0  0  0  0  0  0  0  0  0  0  0  0
  -15.4797   -5.9483  -12.9572 C   0  0  0  0  0  0  0  0  0  0  0  0
  -16.4492   -5.4792  -12.0765 C   0  0  0  0  0  0  0  0  0  0  0  0
  -16.3921   -4.1532  -11.6426 C   0  0  0  0  0  0  0  0  0  0  0  0
  -15.3696   -3.3276  -12.0972 C   0  0  0  0  0  0  0  0  0  0  0  0
  -14.4539   -3.8803  -12.9818 C   0  0  0  0  0  0  0  0  0  0  0  0
  -14.4802   -5.1629  -13.4189 N   0  0  0  0  0  0  0  0  0  0  0  0
  -19.4313    3.5639  -14.3132 N   0  0  0  0  0  0  0  0  0  0  0  0
  -19.4759    4.5456  -14.5567 H   0  0  0  0  0  0  0  0  0  0  0  0
  -20.6332    2.9595  -14.1997 C   0  0  0  0  0  0  0  0  0  0  0  0
  -20.8099    1.5594  -14.1178 C   0  0  0  0  0  0  0  0  0  0  0  0
  -22.1672    1.3617  -14.0450 C   0  0  0  0  0  0  0  0  0  0  0  0
  -22.9693    0.1232  -14.0084 C   0  0  0  0  0  0  0  0  0  0  0  0
  -22.7103    2.6159  -14.0375 N   0  0  0  0  0  0  0  0  0  0  0  0
  -21.7979    3.6035  -14.0999 N   0  0  0  0  0  0  0  0  0  0  0  0
  -23.6909    2.8716  -13.9970 H   0  0  0  0  0  0  0  0  0  0  0  0
  -14.8313    1.1621  -16.3860 C   0  0  0  0  0  0  0  0  0  0  0  0
  -13.9177    0.5858  -16.8172 N   0  0  0  0  0  0  0  0  0  0  0  0
 13 14  1  0  0  0
 14 15  1  0  0  0
 14 19  2  0  0  0
 15 16  2  0  0  0
 16 17  1  0  0  0
 17 12  1  0  0  0
 17 18  2  0  0  0
 12 11  1  0  0  0
 11 10  1  0  0  0
 10  8  1  0  0  0
  8  1  1  0  0  0
  8  9  1  0  0  0
  1  2  1  0  0  0
  1  7  2  0  0  0
  2  3  2  0  0  0
  3 20  1  0  0  0
  3  4  1  0  0  0
 20 22  1  0  0  0
 20 21  1  0  0  0
 22 23  1  0  0  0
 22 27  2  0  0  0
 23 24  2  0  0  0
 24 25  1  0  0  0
 24 26  1  0  0  0
 26 27  1  0  0  0
 26 28  1  0  0  0
  4  5  2  0  0  0
  5  6  1  0  0  0
  5  7  1  0  0  0
  7 29  1  0  0  0
 29 30  3  0  0  0
 18 19  1  0  0  0
M  END
> <minimizedAffinity>
-8.53557

$$$$
