CHEMBL443296


 34 37  0  0  0  0  0  0  0  0999 V2000
  -24.1165   -0.4103  -13.0767 C   0  0  0  0  0  0  0  0  0  0  0  0
  -23.0478   -1.2383  -13.5046 C   0  0  0  0  0  0  0  0  0  0  0  0
  -21.8553   -0.7124  -14.0027 C   0  0  0  0  0  0  0  0  0  0  0  0
  -21.7397    0.6610  -14.0974 C   0  0  0  0  0  0  0  0  0  0  0  0
  -22.7862    1.4902  -13.7042 C   0  0  0  0  0  0  0  0  0  0  0  0
  -23.9629    0.9890  -13.1830 C   0  0  0  0  0  0  0  0  0  0  0  0
  -22.4546    2.8246  -13.9209 N   0  0  0  0  0  0  0  0  0  0  0  0
  -21.1846    2.9465  -14.4690 C   0  0  0  0  0  0  0  0  0  0  0  0
  -20.6344    3.9775  -14.8083 O   0  0  0  0  0  0  0  0  0  0  0  0
  -20.6582    1.5376  -14.5638 C   0  0  0  0  0  0  0  0  0  0  0  0
  -19.4725    1.0331  -14.9300 C   0  0  0  0  0  0  0  0  0  0  0  0
  -23.0526    3.6169  -13.7443 H   0  0  0  0  0  0  0  0  0  0  0  0
  -18.2905    1.6924  -15.3478 C   0  0  0  0  0  0  0  0  0  0  0  0
  -18.3226    2.8854  -16.0189 N   0  0  0  0  0  0  0  0  0  0  0  0
  -17.0514    3.2894  -16.3134 C   0  0  0  0  0  0  0  0  0  0  0  0
  -16.1674    2.3379  -15.8479 C   0  0  0  0  0  0  0  0  0  0  0  0
  -14.6903    2.3893  -16.0005 C   0  0  0  0  0  0  0  0  0  0  0  0
  -16.9542    1.3201  -15.2080 C   0  0  0  0  0  0  0  0  0  0  0  0
  -19.1626    3.4043  -16.2646 H   0  0  0  0  0  0  0  0  0  0  0  0
  -16.4379    0.0748  -14.5333 C   0  0  0  0  0  0  0  0  0  0  0  0
  -16.0207    0.3250  -13.0866 C   0  0  0  0  0  0  0  0  0  0  0  0
  -14.5255    0.2719  -12.9200 C   0  0  0  0  0  0  0  0  0  0  0  0
  -13.7966    1.2342  -12.7214 O   0  0  0  0  0  0  0  0  0  0  0  0
  -14.0416   -0.9909  -13.0201 O   0  0  0  0  0  0  0  0  0  0  0  0
  -14.7352   -1.6609  -13.1842 H   0  0  0  0  0  0  0  0  0  0  0  0
  -26.7236   -1.6493  -10.5926 C   0  0  0  0  0  0  0  0  0  0  0  0
  -27.7319   -2.0841  -11.4476 C   0  0  0  0  0  0  0  0  0  0  0  0
  -27.5566   -2.0007  -12.8282 C   0  0  0  0  0  0  0  0  0  0  0  0
  -26.3782   -1.4745  -13.3582 C   0  0  0  0  0  0  0  0  0  0  0  0
  -25.3503   -1.0086  -12.5226 C   0  0  0  0  0  0  0  0  0  0  0  0
  -25.5467   -1.1231  -11.1332 C   0  0  0  0  0  0  0  0  0  0  0  0
  -26.7586   -1.6787   -9.2252 O   0  0  0  0  0  0  0  0  0  0  0  0
  -27.9079   -2.0358   -7.1663 C   0  0  0  0  0  0  0  0  0  0  0  0
  -27.8204   -2.4216   -8.6311 C   0  0  0  0  0  0  0  0  0  0  0  0
 33 34  1  0  0  0
 34 32  1  0  0  0
 32 26  1  0  0  0
 26 27  1  0  0  0
 26 31  2  0  0  0
 27 28  2  0  0  0
 28 29  1  0  0  0
 29 30  2  0  0  0
 30  1  1  0  0  0
 30 31  1  0  0  0
  1  2  1  0  0  0
  1  6  2  0  0  0
  2  3  2  0  0  0
  3  4  1  0  0  0
  4  5  2  0  0  0
  4 10  1  0  0  0
  5  6  1  0  0  0
  5  7  1  0  0  0
  7  8  1  0  0  0
  7 12  1  0  0  0
  8  9  2  0  0  0
  8 10  1  0  0  0
 10 11  2  0  0  0
 11 13  1  0  0  0
 13 14  1  0  0  0
 13 18  2  0  0  0
 14 15  1  0  0  0
 14 19  1  0  0  0
 15 16  2  0  0  0
 16 17  1  0  0  0
 16 18  1  0  0  0
 18 20  1  0  0  0
 20 21  1  0  0  0
 21 22  1  0  0  0
 22 23  2  0  0  0
 22 24  1  0  0  0
 24 25  1  0  0  0
M  END
> <minimizedAffinity>
-10.89805

$$$$
