CHEMBL519976


 20 22  0  0  0  0  0  0  0  0999 V2000
  -31.0047   -7.4108   -6.8411 C   0  0  0  0  0  0  0  0  0  0  0  0
  -30.1118   -7.5828   -7.8507 N   0  0  0  0  0  0  0  0  0  0  0  0
  -28.9356   -6.9291   -7.7684 C   0  0  0  0  0  0  0  0  0  0  0  0
  -28.4960   -6.1070   -6.7895 N   0  0  0  0  0  0  0  0  0  0  0  0
  -29.4260   -5.9737   -5.8247 C   0  0  0  0  0  0  0  0  0  0  0  0
  -30.6757   -6.5798   -5.7637 C   0  0  0  0  0  0  0  0  0  0  0  0
  -31.3264   -6.2250   -4.6040 N   0  0  0  0  0  0  0  0  0  0  0  0
  -30.4922   -5.4240   -3.9692 C   0  0  0  0  0  0  0  0  0  0  0  0
  -29.3312   -5.2404   -4.6715 N   0  0  0  0  0  0  0  0  0  0  0  0
  -32.2010   -9.2100   -7.7303 C   0  0  0  0  0  0  0  0  0  0  0  0
  -32.2182   -8.0693   -6.8783 O   0  0  0  0  0  0  0  0  0  0  0  0
  -28.1430   -4.5569   -4.1942 C   0  0  0  0  0  0  0  0  0  0  0  0
  -28.3671   -3.1239   -3.7659 C   0  0  0  0  0  0  0  0  0  0  0  0
  -28.7583   -2.8035   -2.6413 O   0  0  0  0  0  0  0  0  0  0  0  0
  -28.1315   -2.0546   -4.7844 C   0  0  0  0  0  0  0  0  0  0  0  0
  -27.9877   -2.3477   -6.1483 C   0  0  0  0  0  0  0  0  0  0  0  0
  -27.9516   -1.3169   -7.0885 C   0  0  0  0  0  0  0  0  0  0  0  0
  -28.0300    0.0100   -6.6734 C   0  0  0  0  0  0  0  0  0  0  0  0
  -28.0975    0.3142   -5.3148 C   0  0  0  0  0  0  0  0  0  0  0  0
  -28.1371   -0.7124   -4.3699 C   0  0  0  0  0  0  0  0  0  0  0  0
 10 11  1  0  0  0
 11  1  1  0  0  0
  1  2  1  0  0  0
  1  6  2  0  0  0
  2  3  2  0  0  0
  3  4  1  0  0  0
  4  5  2  0  0  0
  5  6  1  0  0  0
  5  9  1  0  0  0
  6  7  1  0  0  0
  7  8  2  0  0  0
  8  9  1  0  0  0
  9 12  1  0  0  0
 12 13  1  0  0  0
 13 14  2  0  0  0
 13 15  1  0  0  0
 15 16  1  0  0  0
 15 20  2  0  0  0
 16 17  2  0  0  0
 17 18  1  0  0  0
 18 19  2  0  0  0
 19 20  1  0  0  0
M  END
> <minimizedAffinity>
-7.21768

$$$$
