CHEMBL596988


 27 30  0  0  0  0  0  0  0  0999 V2000
  -28.8018   -7.2030   -6.1165 C   0  0  0  0  0  0  0  0  0  0  0  0
  -29.7436   -7.3798   -5.1805 N   0  0  0  0  0  0  0  0  0  0  0  0
  -30.3661   -6.2771   -4.7333 C   0  0  0  0  0  0  0  0  0  0  0  0
  -30.0909   -5.0075   -5.1873 C   0  0  0  0  0  0  0  0  0  0  0  0
  -29.0979   -4.9067   -6.1418 C   0  0  0  0  0  0  0  0  0  0  0  0
  -28.4652   -5.9979   -6.6152 N   0  0  0  0  0  0  0  0  0  0  0  0
  -28.6689   -3.6110   -6.6955 C   0  0  0  0  0  0  0  0  0  0  0  0
  -28.3675   -3.4965   -8.0547 C   0  0  0  0  0  0  0  0  0  0  0  0
  -27.9664   -2.3573   -8.6733 N   0  0  0  0  0  0  0  0  0  0  0  0
  -27.7907   -1.2735   -7.8965 C   0  0  0  0  0  0  0  0  0  0  0  0
  -28.0035   -1.2738   -6.5325 C   0  0  0  0  0  0  0  0  0  0  0  0
  -28.4970   -2.4364   -5.9338 C   0  0  0  0  0  0  0  0  0  0  0  0
  -28.8039   -2.3248   -4.5616 N   0  0  0  0  0  0  0  0  0  0  0  0
  -29.8305   -2.9293   -3.8875 C   0  0  0  0  0  0  0  0  0  0  0  0
  -30.0030   -2.6869   -2.6900 O   0  0  0  0  0  0  0  0  0  0  0  0
  -30.7839   -3.8009   -4.6651 C   0  0  0  0  0  0  0  0  0  0  0  0
  -28.3579   -1.5913   -4.0214 H   0  0  0  0  0  0  0  0  0  0  0  0
  -28.1642   -8.3580   -6.5780 N   0  0  0  0  0  0  0  0  0  0  0  0
  -27.1882   -8.2765   -6.3161 H   0  0  0  0  0  0  0  0  0  0  0  0
  -28.7390  -10.1314  -10.3704 C   0  0  0  0  0  0  0  0  0  0  0  0
  -27.4515   -9.8216   -9.9369 C   0  0  0  0  0  0  0  0  0  0  0  0
  -27.2548   -9.2339   -8.6842 C   0  0  0  0  0  0  0  0  0  0  0  0
  -28.3377   -8.9295   -7.8523 C   0  0  0  0  0  0  0  0  0  0  0  0
  -29.6197   -9.2973   -8.2671 C   0  0  0  0  0  0  0  0  0  0  0  0
  -29.8206   -9.8742   -9.5260 C   0  0  0  0  0  0  0  0  0  0  0  0
  -28.6642   -9.9507  -12.7333 C   0  0  0  0  0  0  0  0  0  0  0  0
  -29.0619  -10.6831  -11.5796 O   0  0  0  0  0  0  0  0  0  0  0  0
 26 27  1  0  0  0
 27 20  1  0  0  0
 20 21  1  0  0  0
 20 25  2  0  0  0
 21 22  2  0  0  0
 22 23  1  0  0  0
 23 18  1  0  0  0
 23 24  2  0  0  0
 18  1  1  0  0  0
 18 19  1  0  0  0
  1  2  1  0  0  0
  1  6  2  0  0  0
  2  3  2  0  0  0
  3  4  1  0  0  0
  4  5  2  0  0  0
  4 16  1  0  0  0
  5  6  1  0  0  0
  5  7  1  0  0  0
  7  8  1  0  0  0
  7 12  2  0  0  0
  8  9  2  0  0  0
  9 10  1  0  0  0
 10 11  2  0  0  0
 11 12  1  0  0  0
 12 13  1  0  0  0
 13 14  1  0  0  0
 13 17  1  0  0  0
 14 15  2  0  0  0
 14 16  1  0  0  0
 24 25  1  0  0  0
M  END
> <minimizedAffinity>
-8.28814

$$$$
