CHEMBL3702642


 31 34  0  0  0  0  0  0  0  0999 V2000
  -28.1284   -9.1514   -8.5513 C   0  0  0  0  0  0  0  0  0  0  0  0
  -28.0888   -9.6054   -9.8650 C   0  0  0  0  0  0  0  0  0  0  0  0
  -27.1666  -10.5957  -10.2069 C   0  0  0  0  0  0  0  0  0  0  0  0
  -26.2789  -11.1127   -9.2453 C   0  0  0  0  0  0  0  0  0  0  0  0
  -26.2887  -10.6784   -7.9143 C   0  0  0  0  0  0  0  0  0  0  0  0
  -27.2550   -9.7129   -7.5963 C   0  0  0  0  0  0  0  0  0  0  0  0
  -25.3967  -11.1481   -6.9762 N   0  0  0  0  0  0  0  0  0  0  0  0
  -23.9888  -11.4849   -7.2591 C   0  0  0  0  0  0  0  0  0  0  0  0
  -23.3497  -11.4041   -5.9202 C   0  0  0  0  0  0  0  0  0  0  0  0
  -22.0474  -11.4530   -5.5264 C   0  0  0  0  0  0  0  0  0  0  0  0
  -21.6913  -11.3423   -4.2284 N   0  0  0  0  0  0  0  0  0  0  0  0
  -22.6801  -11.1986   -3.3269 C   0  0  0  0  0  0  0  0  0  0  0  0
  -22.3218  -11.0874   -1.9999 N   0  0  0  0  0  0  0  0  0  0  0  0
  -23.9830  -11.1171   -3.6173 N   0  0  0  0  0  0  0  0  0  0  0  0
  -24.2761  -11.2290   -4.9219 C   0  0  0  0  0  0  0  0  0  0  0  0
  -25.6576  -11.1375   -5.5158 C   0  0  0  0  0  0  0  0  0  0  0  0
  -21.3766  -10.7401   -1.9273 H   0  0  0  0  0  0  0  0  0  0  0  0
  -23.0415  -10.5930   -1.4930 H   0  0  0  0  0  0  0  0  0  0  0  0
  -28.3270   -6.9194   -7.5169 N   0  0  0  0  0  0  0  0  0  0  0  0
  -28.9654   -8.0019   -8.1029 C   0  0  0  0  0  0  0  0  0  0  0  0
  -30.1736   -8.0792   -8.3219 O   0  0  0  0  0  0  0  0  0  0  0  0
  -27.3214   -6.8537   -7.6115 H   0  0  0  0  0  0  0  0  0  0  0  0
  -30.0290   -4.5814   -5.1653 C   0  0  0  0  0  0  0  0  0  0  0  0
  -30.1540   -3.4393   -5.9670 C   0  0  0  0  0  0  0  0  0  0  0  0
  -29.7447   -3.4636   -7.2943 C   0  0  0  0  0  0  0  0  0  0  0  0
  -29.1722   -4.6179   -7.8277 C   0  0  0  0  0  0  0  0  0  0  0  0
  -28.9987   -5.7617   -7.0433 C   0  0  0  0  0  0  0  0  0  0  0  0
  -29.4804   -5.7529   -5.7279 C   0  0  0  0  0  0  0  0  0  0  0  0
  -30.3136   -3.0920   -3.1488 C   0  0  0  0  0  0  0  0  0  0  0  0
  -30.4473   -4.5084   -3.7062 C   0  0  0  0  0  0  0  0  0  0  0  0
  -31.8676   -5.0451   -3.5004 C   0  0  0  0  0  0  0  0  0  0  0  0
 29 30  1  0  0  0
 30 31  1  0  0  0
 30 23  1  0  0  0
 23 24  1  0  0  0
 23 28  2  0  0  0
 24 25  2  0  0  0
 25 26  1  0  0  0
 26 27  2  0  0  0
 27 19  1  0  0  0
 27 28  1  0  0  0
 19 20  1  0  0  0
 19 22  1  0  0  0
 20 21  2  0  0  0
 20  1  1  0  0  0
  1  2  1  0  0  0
  1  6  2  0  0  0
  2  3  2  0  0  0
  3  4  1  0  0  0
  4  5  2  0  0  0
  5  7  1  0  0  0
  5  6  1  0  0  0
  7  8  1  0  0  0
  7 16  1  0  0  0
  8  9  1  0  0  0
  9 10  1  0  0  0
  9 15  2  0  0  0
 10 11  2  0  0  0
 11 12  1  0  0  0
 12 13  1  0  0  0
 12 14  2  0  0  0
 13 17  1  0  0  0
 13 18  1  0  0  0
 14 15  1  0  0  0
 15 16  1  0  0  0
M  END
> <minimizedAffinity>
-8.82255

$$$$
