CHEMBL1242661


 26 29  0  0  0  0  0  0  0  0999 V2000
  -23.7903   11.0960  -16.6650 C   0  0  0  0  0  0  0  0  0  0  0  0
  -23.8856   12.1369  -15.7414 C   0  0  0  0  0  0  0  0  0  0  0  0
  -25.0870   12.3666  -15.0621 C   0  0  0  0  0  0  0  0  0  0  0  0
  -26.2151   11.5726  -15.3049 C   0  0  0  0  0  0  0  0  0  0  0  0
  -27.4319   11.8106  -14.6471 C   0  0  0  0  0  0  0  0  0  0  0  0
  -28.5718   11.0418  -14.9240 C   0  0  0  0  0  0  0  0  0  0  0  0
  -28.4801   10.0339  -15.8885 C   0  0  0  0  0  0  0  0  0  0  0  0
  -27.2641    9.7541  -16.5181 C   0  0  0  0  0  0  0  0  0  0  0  0
  -26.1240   10.5213  -16.2433 C   0  0  0  0  0  0  0  0  0  0  0  0
  -24.9049   10.2858  -16.9005 C   0  0  0  0  0  0  0  0  0  0  0  0
  -29.8355   11.3293  -14.2377 C   0  0  0  0  0  0  0  0  0  0  0  0
  -30.9946   11.2864  -14.9261 N   0  0  0  0  0  0  0  0  0  0  0  0
  -31.9401   11.5349  -14.0016 N   0  0  0  0  0  0  0  0  0  0  0  0
  -33.3349   11.5110  -14.3639 C   0  0  0  0  0  0  0  0  0  0  0  0
  -31.4417   11.7855  -12.7579 C   0  0  0  0  0  0  0  0  0  0  0  0
  -32.1496   12.0732  -11.6519 N   0  0  0  0  0  0  0  0  0  0  0  0
  -31.3453   12.2612  -10.5947 C   0  0  0  0  0  0  0  0  0  0  0  0
  -30.0013   12.2065  -10.5579 N   0  0  0  0  0  0  0  0  0  0  0  0
  -29.3319   11.9196  -11.6943 C   0  0  0  0  0  0  0  0  0  0  0  0
  -27.9470   11.9091  -11.5950 N   0  0  0  0  0  0  0  0  0  0  0  0
  -30.0637   11.6769  -12.8675 C   0  0  0  0  0  0  0  0  0  0  0  0
  -27.6539   12.3338  -10.7219 H   0  0  0  0  0  0  0  0  0  0  0  0
  -27.4600   12.2348  -12.4209 H   0  0  0  0  0  0  0  0  0  0  0  0
  -22.6776   10.7778  -17.3975 O   0  0  0  0  0  0  0  0  0  0  0  0
  -21.2876   11.6025  -19.1623 C   0  0  0  0  0  0  0  0  0  0  0  0
  -22.6883   11.1717  -18.7695 C   0  0  0  0  0  0  0  0  0  0  0  0
 25 26  1  0  0  0
 26 24  1  0  0  0
 24  1  1  0  0  0
  1  2  1  0  0  0
  1 10  2  0  0  0
  2  3  2  0  0  0
  3  4  1  0  0  0
  4  5  1  0  0  0
  4  9  2  0  0  0
  5  6  2  0  0  0
  6 11  1  0  0  0
  6  7  1  0  0  0
 11 12  2  0  0  0
 11 21  1  0  0  0
 12 13  1  0  0  0
 13 14  1  0  0  0
 13 15  1  0  0  0
 15 16  1  0  0  0
 15 21  2  0  0  0
 16 17  2  0  0  0
 17 18  1  0  0  0
 18 19  2  0  0  0
 19 20  1  0  0  0
 19 21  1  0  0  0
 20 22  1  0  0  0
 20 23  1  0  0  0
  7  8  2  0  0  0
  8  9  1  0  0  0
  9 10  1  0  0  0
M  END
> <minimizedAffinity>
-6.71166

$$$$
