CHEMBL3900906


 39 42  0  0  0  0  0  0  0  0999 V2000
  -28.6257   -5.0444   -4.3220 C   0  0  0  0  0  0  0  0  0  0  0  0
  -27.9334   -6.0856   -4.8415 N   0  0  0  0  0  0  0  0  0  0  0  0
  -28.6054   -7.1690   -5.2587 C   0  0  0  0  0  0  0  0  0  0  0  0
  -29.9321   -7.2874   -5.1486 N   0  0  0  0  0  0  0  0  0  0  0  0
  -30.6008   -6.2516   -4.6271 C   0  0  0  0  0  0  0  0  0  0  0  0
  -30.0054   -5.0797   -4.2094 C   0  0  0  0  0  0  0  0  0  0  0  0
  -30.9120   -3.9763   -3.7888 C   0  0  0  0  0  0  0  0  0  0  0  0
  -32.2183   -4.3209   -3.6541 F   0  0  0  0  0  0  0  0  0  0  0  0
  -30.5465   -3.4525   -2.5840 F   0  0  0  0  0  0  0  0  0  0  0  0
  -30.8895   -2.9310   -4.6607 F   0  0  0  0  0  0  0  0  0  0  0  0
  -27.8432   -8.1828   -5.8306 N   0  0  0  0  0  0  0  0  0  0  0  0
  -27.8615   -8.0705   -6.8351 H   0  0  0  0  0  0  0  0  0  0  0  0
  -26.9869   -9.0191   -5.2223 C   0  0  0  0  0  0  0  0  0  0  0  0
  -26.2906   -8.8655   -4.0055 C   0  0  0  0  0  0  0  0  0  0  0  0
  -25.4923   -9.9141   -3.7694 N   0  0  0  0  0  0  0  0  0  0  0  0
  -25.6596  -10.7136   -4.8435 N   0  0  0  0  0  0  0  0  0  0  0  0
  -26.5960  -10.2359   -5.7211 C   0  0  0  0  0  0  0  0  0  0  0  0
  -24.9516  -11.9876   -4.9552 C   0  0  0  0  0  0  0  0  0  0  0  0
  -23.6049  -12.0240   -4.2249 C   0  0  0  0  0  0  0  0  0  0  0  0
  -22.5408  -11.1922   -4.9442 C   0  0  0  0  0  0  0  0  0  0  0  0
  -22.3944  -11.5344   -6.3677 N   0  0  0  0  0  0  0  0  0  0  0  0
  -21.5046  -10.5501   -7.0038 C   0  0  0  0  0  0  0  0  0  0  0  0
  -23.6681  -11.5669   -7.0967 C   0  0  0  0  0  0  0  0  0  0  0  0
  -24.7313  -12.4189   -6.4082 C   0  0  0  0  0  0  0  0  0  0  0  0
  -27.7863   -3.8097   -4.1028 C   0  0  0  0  0  0  0  0  0  0  0  0
  -27.1315   -3.1015   -5.3162 C   0  0  0  0  0  0  0  0  0  0  0  0
  -28.2156   -1.3426   -6.9351 C   0  0  0  0  0  0  0  0  0  0  0  0
  -28.6007    0.0109   -7.1362 C   0  0  0  0  0  0  0  0  0  0  0  0
  -28.6140    0.9441   -6.1055 C   0  0  0  0  0  0  0  0  0  0  0  0
  -28.2368    0.5518   -4.8384 C   0  0  0  0  0  0  0  0  0  0  0  0
  -27.7960   -0.7537   -4.6260 C   0  0  0  0  0  0  0  0  0  0  0  0
  -27.7528   -1.7319   -5.6494 C   0  0  0  0  0  0  0  0  0  0  0  0
  -27.1566   -2.2346   -9.0668 C   0  0  0  0  0  0  0  0  0  0  0  0
  -28.3929   -2.2306   -8.1707 C   0  0  0  0  0  0  0  0  0  0  0  0
  -28.9777   -3.6155   -7.9200 C   0  0  0  0  0  0  0  0  0  0  0  0
  -28.1619   -4.6635   -8.2487 N   0  0  0  0  0  0  0  0  0  0  0  0
  -30.0612   -3.8223   -7.3831 O   0  0  0  0  0  0  0  0  0  0  0  0
  -27.3504   -4.5382   -8.8401 H   0  0  0  0  0  0  0  0  0  0  0  0
  -28.5310   -5.5977   -8.1271 H   0  0  0  0  0  0  0  0  0  0  0  0
 33 34  1  0  0  0
 34 35  1  0  0  0
 34 27  1  0  0  0
 35 36  1  0  0  0
 35 37  2  0  0  0
 36 38  1  0  0  0
 36 39  1  0  0  0
 27 28  1  0  0  0
 27 32  2  0  0  0
 28 29  2  0  0  0
 29 30  1  0  0  0
 30 31  2  0  0  0
 31 32  1  0  0  0
 32 26  1  0  0  0
 26 25  1  0  0  0
 25  1  1  0  0  0
  1  2  1  0  0  0
  1  6  2  0  0  0
  2  3  2  0  0  0
  3 11  1  0  0  0
  3  4  1  0  0  0
 11 13  1  0  0  0
 11 12  1  0  0  0
 13 14  1  0  0  0
 13 17  2  0  0  0
 14 15  2  0  0  0
 15 16  1  0  0  0
 16 18  1  0  0  0
 16 17  1  0  0  0
 18 19  1  0  0  0
 18 24  1  0  0  0
 19 20  1  0  0  0
 20 21  1  0  0  0
 21 22  1  0  0  0
 21 23  1  0  0  0
 23 24  1  0  0  0
  4  5  2  0  0  0
  5  6  1  0  0  0
  6  7  1  0  0  0
  7  8  1  0  0  0
  7  9  1  0  0  0
  7 10  1  0  0  0
M  END
> <minimizedAffinity>
-8.92993

$$$$
