CHEMBL3671550


 35 37  0  0  0  0  0  0  0  0999 V2000
  -29.6266   -5.2348   -7.1378 C   0  0  0  0  0  0  0  0  0  0  0  0
  -28.9844   -4.3928   -8.0376 C   0  0  0  0  0  0  0  0  0  0  0  0
  -28.4855   -3.1506   -7.6109 C   0  0  0  0  0  0  0  0  0  0  0  0
  -27.9854   -2.1733   -8.4776 C   0  0  0  0  0  0  0  0  0  0  0  0
  -27.5245   -0.9942   -8.0187 N   0  0  0  0  0  0  0  0  0  0  0  0
  -27.6006   -0.7790   -6.7040 C   0  0  0  0  0  0  0  0  0  0  0  0
  -28.1146   -1.6177   -5.7975 N   0  0  0  0  0  0  0  0  0  0  0  0
  -28.5590   -2.7924   -6.2528 C   0  0  0  0  0  0  0  0  0  0  0  0
  -29.1248   -3.6927   -5.3578 C   0  0  0  0  0  0  0  0  0  0  0  0
  -29.6248   -4.9318   -5.7735 C   0  0  0  0  0  0  0  0  0  0  0  0
  -29.8620   -7.4869   -8.0832 C   0  0  0  0  0  0  0  0  0  0  0  0
  -30.5779   -8.4582   -8.2702 O   0  0  0  0  0  0  0  0  0  0  0  0
  -30.3943   -6.2864   -7.6621 N   0  0  0  0  0  0  0  0  0  0  0  0
  -31.2973   -6.4565   -7.2366 H   0  0  0  0  0  0  0  0  0  0  0  0
  -27.8372   -8.5752   -8.9001 C   0  0  0  0  0  0  0  0  0  0  0  0
  -28.3811   -7.5513   -8.2288 C   0  0  0  0  0  0  0  0  0  0  0  0
  -28.0660   -2.3736   -9.8820 N   0  0  0  0  0  0  0  0  0  0  0  0
  -28.3798   -3.3114  -10.1163 H   0  0  0  0  0  0  0  0  0  0  0  0
  -27.1195   -1.8766  -10.8084 C   0  0  0  0  0  0  0  0  0  0  0  0
  -25.8315   -1.5209  -10.3844 C   0  0  0  0  0  0  0  0  0  0  0  0
  -24.8477   -1.1624  -11.3052 C   0  0  0  0  0  0  0  0  0  0  0  0
  -25.1515   -1.1438  -12.6637 C   0  0  0  0  0  0  0  0  0  0  0  0
  -23.7808   -0.7873  -13.9152 Br  0  0  0  0  0  0  0  0  0  0  0  0
  -26.4438   -1.4207  -13.1039 C   0  0  0  0  0  0  0  0  0  0  0  0
  -27.4151   -1.7761  -12.1697 C   0  0  0  0  0  0  0  0  0  0  0  0
  -28.6548   -2.0657  -12.6025 F   0  0  0  0  0  0  0  0  0  0  0  0
  -30.0637   -5.7504   -4.7628 O   0  0  0  0  0  0  0  0  0  0  0  0
  -29.0396   -6.4012   -3.9778 C   0  0  0  0  0  0  0  0  0  0  0  0
  -29.6147   -7.2600   -2.8464 C   0  0  0  0  0  0  0  0  0  0  0  0
  -28.1845   -7.2713   -4.9156 C   0  0  0  0  0  0  0  0  0  0  0  0
  -26.9379   -7.6447   -4.2723 N   0  0  0  0  0  0  0  0  0  0  0  0
  -26.4288   -8.9231   -4.3328 C   0  0  0  0  0  0  0  0  0  0  0  0
  -25.1205   -9.0966   -3.6144 C   0  0  0  0  0  0  0  0  0  0  0  0
  -26.9837   -9.8505   -4.9165 O   0  0  0  0  0  0  0  0  0  0  0  0
  -26.3506   -6.8958   -3.9286 H   0  0  0  0  0  0  0  0  0  0  0  0
 15 16  2  0  0  0
 16 11  1  0  0  0
 11 12  2  0  0  0
 11 13  1  0  0  0
 13  1  1  0  0  0
 13 14  1  0  0  0
  1  2  1  0  0  0
  1 10  2  0  0  0
  2  3  2  0  0  0
  3  4  1  0  0  0
  3  8  1  0  0  0
  4 17  1  0  0  0
  4  5  2  0  0  0
 17 19  1  0  0  0
 17 18  1  0  0  0
 19 20  1  0  0  0
 19 25  2  0  0  0
 20 21  2  0  0  0
 21 22  1  0  0  0
 22 23  1  0  0  0
 22 24  2  0  0  0
 24 25  1  0  0  0
 25 26  1  0  0  0
  5  6  1  0  0  0
  6  7  2  0  0  0
  7  8  1  0  0  0
  8  9  2  0  0  0
  9 10  1  0  0  0
 10 27  1  0  0  0
 27 28  1  0  0  0
 28 29  1  0  0  0
 28 30  1  0  0  0
 30 31  1  0  0  0
 31 32  1  0  0  0
 31 35  1  0  0  0
 32 33  1  0  0  0
 32 34  2  0  0  0
M  END
> <minimizedAffinity>
-8.68895

$$$$
