CHEMBL1923983


 31 34  0  0  0  0  0  0  0  0999 V2000
  -29.1256   -4.2192   -6.0562 C   0  0  0  0  0  0  0  0  0  0  0  0
  -28.5868   -4.4978   -7.2918 N   0  0  0  0  0  0  0  0  0  0  0  0
  -28.1357   -3.4499   -8.0003 C   0  0  0  0  0  0  0  0  0  0  0  0
  -27.5565   -3.4564   -9.2377 N   0  0  0  0  0  0  0  0  0  0  0  0
  -27.1969   -2.1687   -9.6133 C   0  0  0  0  0  0  0  0  0  0  0  0
  -27.5856   -1.3157   -8.5772 C   0  0  0  0  0  0  0  0  0  0  0  0
  -28.1666   -2.1422   -7.5937 C   0  0  0  0  0  0  0  0  0  0  0  0
  -28.7056   -1.8524   -6.3826 C   0  0  0  0  0  0  0  0  0  0  0  0
  -29.2006   -2.8690   -5.5912 C   0  0  0  0  0  0  0  0  0  0  0  0
  -29.6768   -2.3261   -4.4113 N   0  0  0  0  0  0  0  0  0  0  0  0
  -29.4852   -1.0248   -4.5273 C   0  0  0  0  0  0  0  0  0  0  0  0
  -28.8738   -0.6987   -5.7169 N   0  0  0  0  0  0  0  0  0  0  0  0
  -28.4976    0.6391   -6.0914 C   0  0  0  0  0  0  0  0  0  0  0  0
  -27.3962   -4.2810   -9.7986 H   0  0  0  0  0  0  0  0  0  0  0  0
  -26.5289   -1.8996  -10.8878 C   0  0  0  0  0  0  0  0  0  0  0  0
  -27.2420   -1.8534  -12.0802 C   0  0  0  0  0  0  0  0  0  0  0  0
  -26.5588   -1.5810  -13.2572 C   0  0  0  0  0  0  0  0  0  0  0  0
  -25.1892   -1.3556  -13.2091 C   0  0  0  0  0  0  0  0  0  0  0  0
  -24.5377   -1.3952  -11.9768 C   0  0  0  0  0  0  0  0  0  0  0  0
  -25.1904   -1.6795  -10.8133 N   0  0  0  0  0  0  0  0  0  0  0  0
  -23.0542   -1.0891  -11.9135 C   0  0  0  0  0  0  0  0  0  0  0  0
  -22.7136    0.2170  -12.4367 N   0  0  0  0  0  0  0  0  0  0  0  0
  -22.1384    0.3881  -13.6760 C   0  0  0  0  0  0  0  0  0  0  0  0
  -21.9052   -0.5338  -14.4526 O   0  0  0  0  0  0  0  0  0  0  0  0
  -22.7141    1.0057  -11.7995 H   0  0  0  0  0  0  0  0  0  0  0  0
  -21.8291    1.8510  -14.0124 C   0  0  0  0  0  0  0  0  0  0  0  0
  -20.4475    2.1127  -14.2298 O   0  0  0  0  0  0  0  0  0  0  0  0
  -20.2496    3.1739  -15.1595 C   0  0  0  0  0  0  0  0  0  0  0  0
  -28.5784   -5.8009   -4.3552 C   0  0  0  0  0  0  0  0  0  0  0  0
  -29.5864   -5.2694   -5.2465 N   0  0  0  0  0  0  0  0  0  0  0  0
  -30.4611   -4.9857   -4.8074 H   0  0  0  0  0  0  0  0  0  0  0  0
 29 30  1  0  0  0
 30  1  1  0  0  0
 30 31  1  0  0  0
  1  2  1  0  0  0
  1  9  2  0  0  0
  2  3  2  0  0  0
  3  4  1  0  0  0
  3  7  1  0  0  0
  4  5  1  0  0  0
  4 14  1  0  0  0
  5 15  1  0  0  0
  5  6  2  0  0  0
 15 16  1  0  0  0
 15 20  2  0  0  0
 16 17  2  0  0  0
 17 18  1  0  0  0
 18 19  2  0  0  0
 19 21  1  0  0  0
 19 20  1  0  0  0
 21 22  1  0  0  0
 22 23  1  0  0  0
 22 25  1  0  0  0
 23 24  2  0  0  0
 23 26  1  0  0  0
 26 27  1  0  0  0
 27 28  1  0  0  0
  6  7  1  0  0  0
  7  8  2  0  0  0
  8  9  1  0  0  0
  8 12  1  0  0  0
  9 10  1  0  0  0
 10 11  2  0  0  0
 11 12  1  0  0  0
 12 13  1  0  0  0
M  END
> <minimizedAffinity>
-9.24543

$$$$
