CHEMBL3930387


 38 41  0  0  0  0  0  0  0  0999 V2000
  -25.7150   -1.5304  -12.3632 C   0  0  0  0  0  0  0  0  0  0  0  0
  -25.6947   -1.4398  -13.7616 C   0  0  0  0  0  0  0  0  0  0  0  0
  -24.5138   -1.1111  -14.4378 C   0  0  0  0  0  0  0  0  0  0  0  0
  -23.3421   -0.8764  -13.7165 C   0  0  0  0  0  0  0  0  0  0  0  0
  -23.3935   -0.8850  -12.3196 C   0  0  0  0  0  0  0  0  0  0  0  0
  -22.3072   -0.5842  -11.5920 F   0  0  0  0  0  0  0  0  0  0  0  0
  -24.5701   -1.2038  -11.6397 C   0  0  0  0  0  0  0  0  0  0  0  0
  -28.0948   -2.3750   -9.7620 N   0  0  0  0  0  0  0  0  0  0  0  0
  -26.8655   -1.9809  -10.2740 C   0  0  0  0  0  0  0  0  0  0  0  0
  -25.9143   -1.6363   -9.5867 O   0  0  0  0  0  0  0  0  0  0  0  0
  -26.8581   -1.9923  -11.6644 N   0  0  0  0  0  0  0  0  0  0  0  0
  -28.6047   -3.0496  -10.3162 H   0  0  0  0  0  0  0  0  0  0  0  0
  -27.7542   -1.7745  -12.0776 H   0  0  0  0  0  0  0  0  0  0  0  0
  -28.8417   -0.8472   -6.4084 C   0  0  0  0  0  0  0  0  0  0  0  0
  -28.5468   -0.9847   -7.7806 C   0  0  0  0  0  0  0  0  0  0  0  0
  -28.4590   -2.2353   -8.4033 C   0  0  0  0  0  0  0  0  0  0  0  0
  -28.7461   -3.3761   -7.6568 C   0  0  0  0  0  0  0  0  0  0  0  0
  -29.0524   -3.2625   -6.2950 C   0  0  0  0  0  0  0  0  0  0  0  0
  -29.0861   -2.0096   -5.6704 C   0  0  0  0  0  0  0  0  0  0  0  0
  -29.4038   -1.9843   -3.9736 Cl  0  0  0  0  0  0  0  0  0  0  0  0
  -30.2104    1.0165   -5.4546 C   0  0  0  0  0  0  0  0  0  0  0  0
  -28.8080    0.5429   -5.8118 C   0  0  0  0  0  0  0  0  0  0  0  0
  -28.2309    1.4763   -6.6201 F   0  0  0  0  0  0  0  0  0  0  0  0
  -28.0658    0.5884   -4.6617 F   0  0  0  0  0  0  0  0  0  0  0  0
  -22.2114   -0.5632  -14.4386 O   0  0  0  0  0  0  0  0  0  0  0  0
  -21.8014    0.7699  -14.4600 C   0  0  0  0  0  0  0  0  0  0  0  0
  -20.5571    1.0223  -15.0026 C   0  0  0  0  0  0  0  0  0  0  0  0
  -20.1591    2.3440  -15.0070 C   0  0  0  0  0  0  0  0  0  0  0  0
  -20.9470    3.3150  -14.5327 N   0  0  0  0  0  0  0  0  0  0  0  0
  -22.1225    2.9589  -14.0185 C   0  0  0  0  0  0  0  0  0  0  0  0
  -22.5906    1.7172  -13.9219 N   0  0  0  0  0  0  0  0  0  0  0  0
  -18.8911    2.6654  -15.5239 N   0  0  0  0  0  0  0  0  0  0  0  0
  -17.7016    2.2550  -14.9518 C   0  0  0  0  0  0  0  0  0  0  0  0
  -17.5488    1.5998  -13.9331 O   0  0  0  0  0  0  0  0  0  0  0  0
  -18.8530    3.2097  -16.3703 H   0  0  0  0  0  0  0  0  0  0  0  0
  -16.4890    2.7112  -15.7056 C   0  0  0  0  0  0  0  0  0  0  0  0
  -15.6881    1.7152  -16.5222 C   0  0  0  0  0  0  0  0  0  0  0  0
  -15.1208    2.2595  -15.2442 C   0  0  0  0  0  0  0  0  0  0  0  0
 21 22  1  0  0  0
 22 23  1  0  0  0
 22 24  1  0  0  0
 22 14  1  0  0  0
 14 15  1  0  0  0
 14 19  2  0  0  0
 15 16  2  0  0  0
 16  8  1  0  0  0
 16 17  1  0  0  0
  8  9  1  0  0  0
  8 12  1  0  0  0
  9 10  2  0  0  0
  9 11  1  0  0  0
 11  1  1  0  0  0
 11 13  1  0  0  0
  1  2  1  0  0  0
  1  7  2  0  0  0
  2  3  2  0  0  0
  3  4  1  0  0  0
  4 25  1  0  0  0
  4  5  2  0  0  0
 25 26  1  0  0  0
 26 27  1  0  0  0
 26 31  2  0  0  0
 27 28  2  0  0  0
 28 32  1  0  0  0
 28 29  1  0  0  0
 32 33  1  0  0  0
 32 35  1  0  0  0
 33 34  2  0  0  0
 33 36  1  0  0  0
 36 37  1  0  0  0
 36 38  1  0  0  0
 37 38  1  0  0  0
 29 30  2  0  0  0
 30 31  1  0  0  0
  5  6  1  0  0  0
  5  7  1  0  0  0
 17 18  2  0  0  0
 18 19  1  0  0  0
 19 20  1  0  0  0
M  END
> <minimizedAffinity>
-11.75144

$$$$
