CHEMBL2016912


 32 36  0  0  0  0  0  0  0  0999 V2000
  -16.5586    2.0071  -15.9244 C   0  0  0  0  0  0  0  0  0  0  0  0
  -16.0180    2.9949  -16.4334 O   0  0  0  0  0  0  0  0  0  0  0  0
  -17.8675    2.0588  -15.4385 N   0  0  0  0  0  0  0  0  0  0  0  0
  -18.5689    3.3638  -15.5391 C   0  0  0  0  0  0  0  0  0  0  0  0
  -20.0721    3.4810  -15.2068 C   0  0  0  0  0  0  0  0  0  0  0  0
  -20.6506    2.2005  -14.7926 C   0  0  0  0  0  0  0  0  0  0  0  0
  -21.9606    1.9900  -14.4719 N   0  0  0  0  0  0  0  0  0  0  0  0
  -22.0442    0.7111  -14.1321 C   0  0  0  0  0  0  0  0  0  0  0  0
  -20.8119    0.1029  -14.2521 N   0  0  0  0  0  0  0  0  0  0  0  0
  -19.9341    1.0486  -14.6899 C   0  0  0  0  0  0  0  0  0  0  0  0
  -18.5345    0.8267  -15.0180 C   0  0  0  0  0  0  0  0  0  0  0  0
  -20.6228   -0.8715  -14.0395 H   0  0  0  0  0  0  0  0  0  0  0  0
  -23.1490   -0.0497  -13.6717 C   0  0  0  0  0  0  0  0  0  0  0  0
  -24.1440   -0.2987  -14.5389 C   0  0  0  0  0  0  0  0  0  0  0  0
  -25.3532   -0.9954  -14.1213 C   0  0  0  0  0  0  0  0  0  0  0  0
  -26.3875   -1.2488  -15.0227 C   0  0  0  0  0  0  0  0  0  0  0  0
  -27.5532   -1.8766  -14.5797 C   0  0  0  0  0  0  0  0  0  0  0  0
  -27.6881   -2.2469  -13.2380 C   0  0  0  0  0  0  0  0  0  0  0  0
  -26.6499   -2.0023  -12.3353 C   0  0  0  0  0  0  0  0  0  0  0  0
  -25.4853   -1.3859  -12.7800 C   0  0  0  0  0  0  0  0  0  0  0  0
  -24.4277   -1.1497  -11.8926 N   0  0  0  0  0  0  0  0  0  0  0  0
  -23.2562   -0.5464  -12.2511 C   0  0  0  0  0  0  0  0  0  0  0  0
  -22.3393   -0.3988  -11.4443 O   0  0  0  0  0  0  0  0  0  0  0  0
  -24.4972   -1.4539  -10.9275 H   0  0  0  0  0  0  0  0  0  0  0  0
  -15.7899    0.6673  -15.8341 C   0  0  0  0  0  0  0  0  0  0  0  0
  -15.4008   -2.3132  -12.0614 C   0  0  0  0  0  0  0  0  0  0  0  0
  -14.7667   -1.2337  -12.8068 N   0  0  0  0  0  0  0  0  0  0  0  0
  -14.4878   -1.6334  -14.1978 C   0  0  0  0  0  0  0  0  0  0  0  0
  -13.7998   -0.4850  -14.9743 C   0  0  0  0  0  0  0  0  0  0  0  0
  -14.5704    0.7834  -15.0077 N   0  0  0  0  0  0  0  0  0  0  0  0
  -14.9257    1.1344  -13.6103 C   0  0  0  0  0  0  0  0  0  0  0  0
  -15.5800   -0.0070  -12.7867 C   0  0  0  0  0  0  0  0  0  0  0  0
 26 27  1  0  0  0
 27 28  1  0  0  0
 27 32  1  0  0  0
 28 29  1  0  0  0
 29 30  1  0  0  0
 30 25  1  0  0  0
 30 31  1  0  0  0
 25  1  1  0  0  0
  1  2  2  0  0  0
  1  3  1  0  0  0
  3  4  1  0  0  0
  3 11  1  0  0  0
  4  5  1  0  0  0
  5  6  1  0  0  0
  6  7  1  0  0  0
  6 10  2  0  0  0
  7  8  2  0  0  0
  8 13  1  0  0  0
  8  9  1  0  0  0
 13 14  2  0  0  0
 13 22  1  0  0  0
 14 15  1  0  0  0
 15 16  1  0  0  0
 15 20  2  0  0  0
 16 17  2  0  0  0
 17 18  1  0  0  0
 18 19  2  0  0  0
 19 20  1  0  0  0
 20 21  1  0  0  0
 21 22  1  0  0  0
 21 24  1  0  0  0
 22 23  2  0  0  0
  9 10  1  0  0  0
  9 12  1  0  0  0
 10 11  1  0  0  0
 31 32  1  0  0  0
M  END
> <minimizedAffinity>
-8.95140

$$$$
