CHEMBL3889604


 36 40  0  0  0  0  0  0  0  0999 V2000
  -27.8924   -2.0161   -8.9989 N   0  0  0  0  0  0  0  0  0  0  0  0
  -26.9635   -1.7403  -10.1324 C   0  0  0  0  0  0  0  0  0  0  0  0
  -25.6808   -1.5504   -9.6825 C   0  0  0  0  0  0  0  0  0  0  0  0
  -24.8115   -1.0996  -10.6417 C   0  0  0  0  0  0  0  0  0  0  0  0
  -25.1729   -0.8061  -11.8901 C   0  0  0  0  0  0  0  0  0  0  0  0
  -24.4864    0.2819  -12.0945 N   0  0  0  0  0  0  0  0  0  0  0  0
  -23.4164   -0.0580  -12.7602 C   0  0  0  0  0  0  0  0  0  0  0  0
  -23.5753   -0.3017  -14.0226 C   0  0  0  0  0  0  0  0  0  0  0  0
  -25.0155   -0.8370  -14.1565 N   0  0  0  0  0  0  0  0  0  0  0  0
  -26.0053   -1.2215  -12.7893 C   0  0  0  0  0  0  0  0  0  0  0  0
  -27.2018   -1.6348  -11.5772 C   0  0  0  0  0  0  0  0  0  0  0  0
  -22.1989    0.5847  -14.6358 C   0  0  0  0  0  0  0  0  0  0  0  0
  -21.8313    2.0543  -14.2581 C   0  0  0  0  0  0  0  0  0  0  0  0
  -20.5573    2.4455  -14.4536 N   0  0  0  0  0  0  0  0  0  0  0  0
  -19.9400    1.3456  -14.9034 N   0  0  0  0  0  0  0  0  0  0  0  0
  -18.4840    1.4051  -15.1652 C   0  0  0  0  0  0  0  0  0  0  0  0
  -20.8584    0.2383  -14.9683 C   0  0  0  0  0  0  0  0  0  0  0  0
  -28.8281    0.5795   -6.4190 C   0  0  0  0  0  0  0  0  0  0  0  0
  -28.4347   -0.0510   -5.2494 C   0  0  0  0  0  0  0  0  0  0  0  0
  -27.8371   -1.3083   -5.3064 C   0  0  0  0  0  0  0  0  0  0  0  0
  -27.6379   -1.9336   -6.5446 C   0  0  0  0  0  0  0  0  0  0  0  0
  -28.0253   -1.3298   -7.7549 C   0  0  0  0  0  0  0  0  0  0  0  0
  -28.5733   -0.0360   -7.6546 C   0  0  0  0  0  0  0  0  0  0  0  0
  -30.8969    1.7580   -6.4711 C   0  0  0  0  0  0  0  0  0  0  0  0
  -29.4727    1.7873   -6.4822 O   0  0  0  0  0  0  0  0  0  0  0  0
  -27.4190   -2.0097   -4.2039 O   0  0  0  0  0  0  0  0  0  0  0  0
  -28.3935   -2.8970   -3.6606 C   0  0  0  0  0  0  0  0  0  0  0  0
  -28.8557   -3.2144   -9.2117 C   0  0  0  0  0  0  0  0  0  0  0  0
  -29.4472   -3.8879   -7.9501 C   0  0  0  0  0  0  0  0  0  0  0  0
  -28.8336   -5.2609   -7.6201 C   0  0  0  0  0  0  0  0  0  0  0  0
  -29.2294   -5.6854   -6.2230 C   0  0  0  0  0  0  0  0  0  0  0  0
  -30.4160   -5.2678   -5.7362 N   0  0  0  0  0  0  0  0  0  0  0  0
  -30.7454   -5.7106   -4.5050 C   0  0  0  0  0  0  0  0  0  0  0  0
  -29.9415   -6.5323   -3.7514 C   0  0  0  0  0  0  0  0  0  0  0  0
  -28.7374   -6.8649   -4.3215 C   0  0  0  0  0  0  0  0  0  0  0  0
  -28.3568   -6.4576   -5.5463 N   0  0  0  0  0  0  0  0  0  0  0  0
 24 25  1  0  0  0
 25 18  1  0  0  0
 18 19  1  0  0  0
 18 23  2  0  0  0
 19 20  2  0  0  0
 20 26  1  0  0  0
 20 21  1  0  0  0
 26 27  1  0  0  0
 21 22  2  0  0  0
 22  1  1  0  0  0
 22 23  1  0  0  0
  1 28  1  0  0  0
  1  2  1  0  0  0
 28 29  1  0  0  0
 29 30  1  0  0  0
 30 31  1  0  0  0
 31 32  1  0  0  0
 31 36  2  0  0  0
 32 33  2  0  0  0
 33 34  1  0  0  0
 34 35  2  0  0  0
 35 36  1  0  0  0
  2  3  1  0  0  0
  2 11  2  0  0  0
  3  4  2  0  0  0
  4  5  1  0  0  0
  5  6  1  0  0  0
  5 10  2  0  0  0
  6  7  2  0  0  0
  7  8  1  0  0  0
  8 12  1  0  0  0
  8  9  2  0  0  0
 12 13  1  0  0  0
 12 17  2  0  0  0
 13 14  2  0  0  0
 14 15  1  0  0  0
 15 16  1  0  0  0
 15 17  1  0  0  0
  9 10  1  0  0  0
 10 11  1  0  0  0
M  END
> <minimizedAffinity>
-7.72714

$$$$
