CHEMBL606245


 34 37  0  0  0  0  0  0  0  0999 V2000
  -28.7880   -8.1258   -6.4198 C   0  0  0  0  0  0  0  0  0  0  0  0
  -29.1110   -9.5003   -6.4222 C   0  0  0  0  0  0  0  0  0  0  0  0
  -29.3054  -10.1451   -7.6403 C   0  0  0  0  0  0  0  0  0  0  0  0
  -29.2135   -9.5459   -8.8443 N   0  0  0  0  0  0  0  0  0  0  0  0
  -28.9124   -8.2312   -8.8302 C   0  0  0  0  0  0  0  0  0  0  0  0
  -28.6996   -7.4762   -7.6716 C   0  0  0  0  0  0  0  0  0  0  0  0
  -28.5941   -7.3885   -5.2257 N   0  0  0  0  0  0  0  0  0  0  0  0
  -27.7112   -7.5572   -4.7551 H   0  0  0  0  0  0  0  0  0  0  0  0
  -27.2848   -4.9775   -4.1144 C   0  0  0  0  0  0  0  0  0  0  0  0
  -28.7720   -5.2100   -4.0805 C   0  0  0  0  0  0  0  0  0  0  0  0
  -29.3803   -6.3645   -4.6435 C   0  0  0  0  0  0  0  0  0  0  0  0
  -30.7716   -6.5380   -4.5339 C   0  0  0  0  0  0  0  0  0  0  0  0
  -31.5947   -5.6219   -3.8773 C   0  0  0  0  0  0  0  0  0  0  0  0
  -30.9845   -4.4886   -3.3473 C   0  0  0  0  0  0  0  0  0  0  0  0
  -31.5404   -3.4307   -2.6638 N   0  0  0  0  0  0  0  0  0  0  0  0
  -30.5718   -2.5307   -2.3145 C   0  0  0  0  0  0  0  0  0  0  0  0
  -29.3694   -3.0151   -2.7749 C   0  0  0  0  0  0  0  0  0  0  0  0
  -29.6131   -4.2581   -3.4359 C   0  0  0  0  0  0  0  0  0  0  0  0
  -32.5247   -3.3414   -2.4529 H   0  0  0  0  0  0  0  0  0  0  0  0
  -29.1787  -10.3144   -5.2498 C   0  0  0  0  0  0  0  0  0  0  0  0
  -29.3174  -10.9530   -4.2855 N   0  0  0  0  0  0  0  0  0  0  0  0
  -28.3543   -6.0600   -7.8577 C   0  0  0  0  0  0  0  0  0  0  0  0
  -29.2099   -5.0491   -7.6269 C   0  0  0  0  0  0  0  0  0  0  0  0
  -28.9793   -3.5954   -8.0026 C   0  0  0  0  0  0  0  0  0  0  0  0
  -28.8599   -2.6501   -6.7882 C   0  0  0  0  0  0  0  0  0  0  0  0
  -27.6580   -1.7991   -6.7138 N   0  0  0  0  0  0  0  0  0  0  0  0
  -27.0999   -1.6374   -5.3650 C   0  0  0  0  0  0  0  0  0  0  0  0
  -27.9920   -0.8307   -4.4186 C   0  0  0  0  0  0  0  0  0  0  0  0
  -28.3210    0.5431   -5.0026 C   0  0  0  0  0  0  0  0  0  0  0  0
  -28.8806    0.4184   -6.4249 C   0  0  0  0  0  0  0  0  0  0  0  0
  -29.0795    1.7447   -7.0170 N   0  0  0  0  0  0  0  0  0  0  0  0
  -27.9464   -0.4648   -7.2949 C   0  0  0  0  0  0  0  0  0  0  0  0
  -28.1900    2.2403   -7.0640 H   0  0  0  0  0  0  0  0  0  0  0  0
  -29.6800    2.3012   -6.4087 H   0  0  0  0  0  0  0  0  0  0  0  0
  9 10  1  0  0  0
 10 11  1  0  0  0
 10 18  2  0  0  0
 11  7  1  0  0  0
 11 12  2  0  0  0
  7  1  1  0  0  0
  7  8  1  0  0  0
  1  2  1  0  0  0
  1  6  2  0  0  0
  2 20  1  0  0  0
  2  3  2  0  0  0
 20 21  3  0  0  0
  3  4  1  0  0  0
  4  5  2  0  0  0
  5  6  1  0  0  0
  6 22  1  0  0  0
 22 23  2  0  0  0
 23 24  1  0  0  0
 24 25  1  0  0  0
 25 26  1  0  0  0
 26 27  1  0  0  0
 26 32  1  0  0  0
 27 28  1  0  0  0
 28 29  1  0  0  0
 29 30  1  0  0  0
 30 31  1  0  0  0
 30 32  1  0  0  0
 31 33  1  0  0  0
 31 34  1  0  0  0
 12 13  1  0  0  0
 13 14  2  0  0  0
 14 15  1  0  0  0
 14 18  1  0  0  0
 15 16  1  0  0  0
 15 19  1  0  0  0
 16 17  2  0  0  0
 17 18  1  0  0  0
M  END
> <minimizedAffinity>
-8.44687

$$$$
