CHEMBL3656076


 45 48  0  0  0  0  0  0  0  0999 V2000
  -29.3126   -1.3128   -4.7424 C   0  0  0  0  0  0  0  0  0  0  0  0
  -29.3860    0.0722   -4.6414 C   0  0  0  0  0  0  0  0  0  0  0  0
  -28.9934    0.8254   -5.7332 C   0  0  0  0  0  0  0  0  0  0  0  0
  -28.4947    0.2995   -6.8740 N   0  0  0  0  0  0  0  0  0  0  0  0
  -28.3764   -1.0495   -6.9248 C   0  0  0  0  0  0  0  0  0  0  0  0
  -28.7640   -1.8857   -5.8852 C   0  0  0  0  0  0  0  0  0  0  0  0
  -27.7974   -1.5611   -8.1645 C   0  0  0  0  0  0  0  0  0  0  0  0
  -27.0622   -0.9441   -9.1632 C   0  0  0  0  0  0  0  0  0  0  0  0
  -26.7589   -1.8967  -10.1835 C   0  0  0  0  0  0  0  0  0  0  0  0
  -27.3126   -3.0889   -9.7504 C   0  0  0  0  0  0  0  0  0  0  0  0
  -27.9295   -2.8788   -8.5472 N   0  0  0  0  0  0  0  0  0  0  0  0
  -28.4232   -3.5674   -7.9942 H   0  0  0  0  0  0  0  0  0  0  0  0
  -26.0318   -1.7244  -11.4424 C   0  0  0  0  0  0  0  0  0  0  0  0
  -26.5804   -1.3575  -12.4774 O   0  0  0  0  0  0  0  0  0  0  0  0
  -24.6797   -1.9954  -11.3704 N   0  0  0  0  0  0  0  0  0  0  0  0
  -24.2736   -2.2596  -10.4868 H   0  0  0  0  0  0  0  0  0  0  0  0
  -23.8018   -1.8488  -12.5096 C   0  0  0  0  0  0  0  0  0  0  0  0
  -23.0529   -0.5192  -12.4718 C   0  0  0  0  0  0  0  0  0  0  0  0
  -22.4212   -0.2207  -13.8273 C   0  0  0  0  0  0  0  0  0  0  0  0
  -22.0400    1.2318  -13.9921 C   0  0  0  0  0  0  0  0  0  0  0  0
  -23.0408    2.1352  -13.8071 N   0  0  0  0  0  0  0  0  0  0  0  0
  -20.9129    1.5950  -14.3090 O   0  0  0  0  0  0  0  0  0  0  0  0
  -23.9914    1.8777  -13.5806 H   0  0  0  0  0  0  0  0  0  0  0  0
  -22.8227    3.1131  -13.9489 H   0  0  0  0  0  0  0  0  0  0  0  0
  -29.7056   -2.1790   -3.7442 O   0  0  0  0  0  0  0  0  0  0  0  0
  -29.8077   -6.2784   -4.5716 C   0  0  0  0  0  0  0  0  0  0  0  0
  -30.9558   -5.5083   -4.7877 C   0  0  0  0  0  0  0  0  0  0  0  0
  -30.9465   -4.1354   -4.5405 C   0  0  0  0  0  0  0  0  0  0  0  0
  -29.8041   -3.5271   -4.0181 C   0  0  0  0  0  0  0  0  0  0  0  0
  -28.6535   -4.2939   -3.8072 C   0  0  0  0  0  0  0  0  0  0  0  0
  -28.6599   -5.6736   -4.0577 C   0  0  0  0  0  0  0  0  0  0  0  0
  -29.4185   -9.3242   -6.4971 N   0  0  0  0  0  0  0  0  0  0  0  0
  -29.3049   -7.9745   -6.2132 C   0  0  0  0  0  0  0  0  0  0  0  0
  -28.7823   -7.1380   -6.9452 O   0  0  0  0  0  0  0  0  0  0  0  0
  -29.7870   -7.6478   -4.9453 N   0  0  0  0  0  0  0  0  0  0  0  0
  -29.6988   -9.9295   -5.7405 H   0  0  0  0  0  0  0  0  0  0  0  0
  -29.5133   -8.2977   -4.2235 H   0  0  0  0  0  0  0  0  0  0  0  0
  -25.8109  -11.7234   -8.9007 C   0  0  0  0  0  0  0  0  0  0  0  0
  -27.1797  -11.1052   -8.8907 C   0  0  0  0  0  0  0  0  0  0  0  0
  -27.9384  -11.0879  -10.0653 C   0  0  0  0  0  0  0  0  0  0  0  0
  -29.2171  -10.5467  -10.0566 C   0  0  0  0  0  0  0  0  0  0  0  0
  -29.7389  -10.0039   -8.8854 C   0  0  0  0  0  0  0  0  0  0  0  0
  -31.0250   -9.6361   -8.9340 F   0  0  0  0  0  0  0  0  0  0  0  0
  -28.9837   -9.9433   -7.7033 C   0  0  0  0  0  0  0  0  0  0  0  0
  -27.7082  -10.5345   -7.7139 C   0  0  0  0  0  0  0  0  0  0  0  0
 38 39  1  0  0  0
 39 40  1  0  0  0
 39 45  2  0  0  0
 40 41  2  0  0  0
 41 42  1  0  0  0
 42 43  1  0  0  0
 42 44  2  0  0  0
 44 32  1  0  0  0
 44 45  1  0  0  0
 32 33  1  0  0  0
 32 36  1  0  0  0
 33 34  2  0  0  0
 33 35  1  0  0  0
 35 26  1  0  0  0
 35 37  1  0  0  0
 26 27  1  0  0  0
 26 31  2  0  0  0
 27 28  2  0  0  0
 28 29  1  0  0  0
 29 25  1  0  0  0
 29 30  2  0  0  0
 25  1  1  0  0  0
  1  2  1  0  0  0
  1  6  2  0  0  0
  2  3  2  0  0  0
  3  4  1  0  0  0
  4  5  2  0  0  0
  5  7  1  0  0  0
  5  6  1  0  0  0
  7  8  2  0  0  0
  7 11  1  0  0  0
  8  9  1  0  0  0
  9 13  1  0  0  0
  9 10  2  0  0  0
 13 14  2  0  0  0
 13 15  1  0  0  0
 15 17  1  0  0  0
 15 16  1  0  0  0
 17 18  1  0  0  0
 18 19  1  0  0  0
 19 20  1  0  0  0
 20 21  1  0  0  0
 20 22  2  0  0  0
 21 23  1  0  0  0
 21 24  1  0  0  0
 10 11  1  0  0  0
 11 12  1  0  0  0
 30 31  1  0  0  0
M  END
> <minimizedAffinity>
-9.62725

$$$$
