CHEMBL607707


 35 37  0  0  0  0  0  0  0  0999 V2000
  -15.1830   -1.1653  -12.9012 C   0  0  0  0  0  0  0  0  0  0  0  0
  -15.9283   -2.2061  -12.3310 C   0  0  0  0  0  0  0  0  0  0  0  0
  -15.6681   -3.5340  -12.6116 C   0  0  0  0  0  0  0  0  0  0  0  0
  -16.3524   -4.4509  -11.9210 N   0  0  0  0  0  0  0  0  0  0  0  0
  -16.0504   -5.7469  -12.1202 C   0  0  0  0  0  0  0  0  0  0  0  0
  -15.1067   -6.1975  -13.0274 C   0  0  0  0  0  0  0  0  0  0  0  0
  -14.4092   -5.2543  -13.7929 C   0  0  0  0  0  0  0  0  0  0  0  0
  -14.6922   -3.8688  -13.5680 C   0  0  0  0  0  0  0  0  0  0  0  0
  -14.0355   -2.8101  -14.2296 C   0  0  0  0  0  0  0  0  0  0  0  0
  -14.2338   -1.4659  -13.8883 C   0  0  0  0  0  0  0  0  0  0  0  0
  -13.4801   -0.4123  -14.4827 N   0  0  0  0  0  0  0  0  0  0  0  0
  -12.3584    0.1736  -13.9319 C   0  0  0  0  0  0  0  0  0  0  0  0
  -11.8621   -0.0938  -12.8406 O   0  0  0  0  0  0  0  0  0  0  0  0
  -13.8475   -0.0713  -15.3632 H   0  0  0  0  0  0  0  0  0  0  0  0
  -11.7273    1.2201  -14.7818 C   0  0  0  0  0  0  0  0  0  0  0  0
  -12.5451    2.0058  -15.5063 C   0  0  0  0  0  0  0  0  0  0  0  0
  -12.1302    3.1816  -16.3318 C   0  0  0  0  0  0  0  0  0  0  0  0
  -13.0020    4.3413  -16.0905 N   0  0  0  0  0  0  0  0  0  0  0  0
  -14.3786    3.9485  -15.7767 C   0  0  0  0  0  0  0  0  0  0  0  0
  -12.4612    5.1556  -15.0011 C   0  0  0  0  0  0  0  0  0  0  0  0
  -14.8247   -7.5894  -13.0445 C   0  0  0  0  0  0  0  0  0  0  0  0
  -14.5629   -8.7244  -13.0178 N   0  0  0  0  0  0  0  0  0  0  0  0
  -13.4448   -5.6375  -14.7629 N   0  0  0  0  0  0  0  0  0  0  0  0
  -12.4802   -5.5639  -14.4475 H   0  0  0  0  0  0  0  0  0  0  0  0
  -13.5778   -5.9987  -16.1180 C   0  0  0  0  0  0  0  0  0  0  0  0
  -13.5507   -7.3613  -16.4600 C   0  0  0  0  0  0  0  0  0  0  0  0
  -13.7012   -7.7770  -17.7870 C   0  0  0  0  0  0  0  0  0  0  0  0
  -13.8953   -6.8310  -18.7851 C   0  0  0  0  0  0  0  0  0  0  0  0
  -14.0130   -7.2458  -20.0553 F   0  0  0  0  0  0  0  0  0  0  0  0
  -13.9548   -5.4782  -18.4663 C   0  0  0  0  0  0  0  0  0  0  0  0
  -14.2050   -4.2987  -19.6970 Cl  0  0  0  0  0  0  0  0  0  0  0  0
  -13.7993   -5.0636  -17.1390 C   0  0  0  0  0  0  0  0  0  0  0  0
  -15.3254    0.1476  -12.5067 O   0  0  0  0  0  0  0  0  0  0  0  0
  -16.6887    1.1182  -14.2397 C   0  0  0  0  0  0  0  0  0  0  0  0
  -16.6222    0.7054  -12.7839 C   0  0  0  0  0  0  0  0  0  0  0  0
 34 35  1  0  0  0
 35 33  1  0  0  0
 33  1  1  0  0  0
  1  2  1  0  0  0
  1 10  2  0  0  0
  2  3  2  0  0  0
  3  4  1  0  0  0
  3  8  1  0  0  0
  4  5  2  0  0  0
  5  6  1  0  0  0
  6 21  1  0  0  0
  6  7  2  0  0  0
 21 22  3  0  0  0
  7 23  1  0  0  0
  7  8  1  0  0  0
 23 25  1  0  0  0
 23 24  1  0  0  0
 25 26  1  0  0  0
 25 32  2  0  0  0
 26 27  2  0  0  0
 27 28  1  0  0  0
 28 29  1  0  0  0
 28 30  2  0  0  0
 30 31  1  0  0  0
 30 32  1  0  0  0
  8  9  2  0  0  0
  9 10  1  0  0  0
 10 11  1  0  0  0
 11 12  1  0  0  0
 11 14  1  0  0  0
 12 13  2  0  0  0
 12 15  1  0  0  0
 15 16  2  0  0  0
 16 17  1  0  0  0
 17 18  1  0  0  0
 18 19  1  0  0  0
 18 20  1  0  0  0
M  END
> <minimizedAffinity>
-6.50493

$$$$
