CHEMBL3929131


 37 40  0  0  0  0  0  0  0  0999 V2000
  -20.7240    1.3821  -14.3708 C   0  0  0  0  0  0  0  0  0  0  0  0
  -20.1485    0.3332  -15.1000 C   0  0  0  0  0  0  0  0  0  0  0  0
  -18.8222    0.4007  -15.5434 C   0  0  0  0  0  0  0  0  0  0  0  0
  -18.0520    1.5287  -15.2756 C   0  0  0  0  0  0  0  0  0  0  0  0
  -18.6577    2.6141  -14.6391 C   0  0  0  0  0  0  0  0  0  0  0  0
  -17.9918    3.7614  -14.4489 F   0  0  0  0  0  0  0  0  0  0  0  0
  -19.9644    2.5338  -14.1562 C   0  0  0  0  0  0  0  0  0  0  0  0
  -22.4177   -0.9150  -13.7904 O   0  0  0  0  0  0  0  0  0  0  0  0
  -22.8103    0.2346  -13.6218 C   0  0  0  0  0  0  0  0  0  0  0  0
  -24.1010    0.5541  -13.2250 N   0  0  0  0  0  0  0  0  0  0  0  0
  -22.0378    1.3602  -13.8424 N   0  0  0  0  0  0  0  0  0  0  0  0
  -24.3888    1.5166  -13.3188 H   0  0  0  0  0  0  0  0  0  0  0  0
  -22.4087    2.2408  -13.5192 H   0  0  0  0  0  0  0  0  0  0  0  0
  -25.1185   -0.4025  -12.9819 C   0  0  0  0  0  0  0  0  0  0  0  0
  -25.7476   -1.1520  -13.9755 C   0  0  0  0  0  0  0  0  0  0  0  0
  -26.7614   -2.0251  -13.7529 N   0  0  0  0  0  0  0  0  0  0  0  0
  -27.1813   -2.1620  -12.4813 C   0  0  0  0  0  0  0  0  0  0  0  0
  -26.6164   -1.4898  -11.4090 C   0  0  0  0  0  0  0  0  0  0  0  0
  -25.5523   -0.6076  -11.6696 C   0  0  0  0  0  0  0  0  0  0  0  0
  -27.1566   -1.6987  -10.0296 C   0  0  0  0  0  0  0  0  0  0  0  0
  -27.2292   -3.0082   -9.6616 F   0  0  0  0  0  0  0  0  0  0  0  0
  -26.4023   -1.0847   -9.0777 F   0  0  0  0  0  0  0  0  0  0  0  0
  -28.4158   -1.2017   -9.8851 F   0  0  0  0  0  0  0  0  0  0  0  0
  -16.7490    1.4981  -15.7162 O   0  0  0  0  0  0  0  0  0  0  0  0
  -15.7538    1.0336  -14.8797 C   0  0  0  0  0  0  0  0  0  0  0  0
  -14.4549    1.5269  -14.8441 C   0  0  0  0  0  0  0  0  0  0  0  0
  -13.5513    0.8999  -14.0144 C   0  0  0  0  0  0  0  0  0  0  0  0
  -13.8823   -0.1053  -13.1870 N   0  0  0  0  0  0  0  0  0  0  0  0
  -15.1570   -0.5261  -13.1594 C   0  0  0  0  0  0  0  0  0  0  0  0
  -16.1250    0.0179  -13.9958 C   0  0  0  0  0  0  0  0  0  0  0  0
  -15.5325   -1.5474  -12.2736 N   0  0  0  0  0  0  0  0  0  0  0  0
  -15.8348   -2.8350  -12.6630 C   0  0  0  0  0  0  0  0  0  0  0  0
  -15.8187   -3.3065  -13.7901 O   0  0  0  0  0  0  0  0  0  0  0  0
  -15.5979   -1.3136  -11.2959 H   0  0  0  0  0  0  0  0  0  0  0  0
  -16.2658   -3.7071  -11.5247 C   0  0  0  0  0  0  0  0  0  0  0  0
  -15.3936   -4.8597  -11.0743 C   0  0  0  0  0  0  0  0  0  0  0  0
  -16.6682   -5.1361  -11.8158 C   0  0  0  0  0  0  0  0  0  0  0  0
  8  9  2  0  0  0
  9 10  1  0  0  0
  9 11  1  0  0  0
 10 14  1  0  0  0
 10 12  1  0  0  0
 14 15  1  0  0  0
 14 19  2  0  0  0
 15 16  2  0  0  0
 16 17  1  0  0  0
 17 18  2  0  0  0
 18 20  1  0  0  0
 18 19  1  0  0  0
 20 21  1  0  0  0
 20 22  1  0  0  0
 20 23  1  0  0  0
 11  1  1  0  0  0
 11 13  1  0  0  0
  1  2  1  0  0  0
  1  7  2  0  0  0
  2  3  2  0  0  0
  3  4  1  0  0  0
  4 24  1  0  0  0
  4  5  2  0  0  0
 24 25  1  0  0  0
 25 26  1  0  0  0
 25 30  2  0  0  0
 26 27  2  0  0  0
 27 28  1  0  0  0
 28 29  2  0  0  0
 29 31  1  0  0  0
 29 30  1  0  0  0
 31 32  1  0  0  0
 31 34  1  0  0  0
 32 33  2  0  0  0
 32 35  1  0  0  0
 35 36  1  0  0  0
 35 37  1  0  0  0
 36 37  1  0  0  0
  5  6  1  0  0  0
  5  7  1  0  0  0
M  END
> <minimizedAffinity>
-9.39117

$$$$
