CHEMBL3964796


 39 42  0  0  0  0  0  0  0  0999 V2000
  -28.8419   -2.9175   -6.6306 C   0  0  0  0  0  0  0  0  0  0  0  0
  -30.1381   -3.4087   -6.5025 C   0  0  0  0  0  0  0  0  0  0  0  0
  -30.5380   -4.3056   -5.5759 N   0  0  0  0  0  0  0  0  0  0  0  0
  -29.6067   -4.8370   -4.7635 C   0  0  0  0  0  0  0  0  0  0  0  0
  -28.2720   -4.4280   -4.7948 C   0  0  0  0  0  0  0  0  0  0  0  0
  -27.2292   -4.9562   -3.8585 C   0  0  0  0  0  0  0  0  0  0  0  0
  -27.9003   -3.4363   -5.7422 C   0  0  0  0  0  0  0  0  0  0  0  0
  -27.4517   -1.2930   -9.6118 N   0  0  0  0  0  0  0  0  0  0  0  0
  -27.9511   -2.3355   -8.8477 C   0  0  0  0  0  0  0  0  0  0  0  0
  -27.9499   -3.5068   -9.2120 O   0  0  0  0  0  0  0  0  0  0  0  0
  -28.4638   -1.9583   -7.6184 N   0  0  0  0  0  0  0  0  0  0  0  0
  -27.5950   -0.3464   -9.2910 H   0  0  0  0  0  0  0  0  0  0  0  0
  -28.7920   -1.0114   -7.5059 H   0  0  0  0  0  0  0  0  0  0  0  0
  -25.5541   -1.7025  -13.4111 C   0  0  0  0  0  0  0  0  0  0  0  0
  -26.9369   -1.6362  -13.3137 C   0  0  0  0  0  0  0  0  0  0  0  0
  -27.5565   -1.5255  -12.0737 C   0  0  0  0  0  0  0  0  0  0  0  0
  -26.8295   -1.4707  -10.8818 C   0  0  0  0  0  0  0  0  0  0  0  0
  -25.4389   -1.5931  -10.9730 C   0  0  0  0  0  0  0  0  0  0  0  0
  -24.7865   -1.6982  -12.2361 C   0  0  0  0  0  0  0  0  0  0  0  0
  -23.2783   -1.7681  -12.2601 C   0  0  0  0  0  0  0  0  0  0  0  0
  -22.6289   -0.7289  -12.8506 F   0  0  0  0  0  0  0  0  0  0  0  0
  -22.7620   -1.8401  -10.9964 F   0  0  0  0  0  0  0  0  0  0  0  0
  -22.8281   -2.8907  -12.8927 F   0  0  0  0  0  0  0  0  0  0  0  0
  -25.3160   -0.9017  -15.6302 C   0  0  0  0  0  0  0  0  0  0  0  0
  -24.9105   -1.8169  -14.6123 O   0  0  0  0  0  0  0  0  0  0  0  0
  -30.0322   -5.8533   -3.9012 O   0  0  0  0  0  0  0  0  0  0  0  0
  -29.6863   -7.1570   -4.2501 C   0  0  0  0  0  0  0  0  0  0  0  0
  -29.0690   -8.0163   -3.3407 C   0  0  0  0  0  0  0  0  0  0  0  0
  -28.6959   -9.2666   -3.7734 C   0  0  0  0  0  0  0  0  0  0  0  0
  -28.9666   -9.7306   -5.0043 N   0  0  0  0  0  0  0  0  0  0  0  0
  -29.6166   -8.9377   -5.8717 C   0  0  0  0  0  0  0  0  0  0  0  0
  -29.9916   -7.6338   -5.5354 C   0  0  0  0  0  0  0  0  0  0  0  0
  -29.9169   -9.4509   -7.1529 N   0  0  0  0  0  0  0  0  0  0  0  0
  -29.0329   -9.4127   -8.2219 C   0  0  0  0  0  0  0  0  0  0  0  0
  -27.9026   -8.9596   -8.2311 O   0  0  0  0  0  0  0  0  0  0  0  0
  -30.8304   -9.8514   -7.2918 H   0  0  0  0  0  0  0  0  0  0  0  0
  -29.5132   -9.9829   -9.5198 C   0  0  0  0  0  0  0  0  0  0  0  0
  -29.0459  -11.3466   -9.9652 C   0  0  0  0  0  0  0  0  0  0  0  0
  -28.7343  -10.1340  -10.7965 C   0  0  0  0  0  0  0  0  0  0  0  0
 24 25  1  0  0  0
 25 14  1  0  0  0
 14 15  1  0  0  0
 14 19  2  0  0  0
 15 16  2  0  0  0
 16 17  1  0  0  0
 17  8  1  0  0  0
 17 18  2  0  0  0
  8  9  1  0  0  0
  8 12  1  0  0  0
  9 10  2  0  0  0
  9 11  1  0  0  0
 11  1  1  0  0  0
 11 13  1  0  0  0
  1  2  1  0  0  0
  1  7  2  0  0  0
  2  3  2  0  0  0
  3  4  1  0  0  0
  4 26  1  0  0  0
  4  5  2  0  0  0
 26 27  1  0  0  0
 27 28  1  0  0  0
 27 32  2  0  0  0
 28 29  2  0  0  0
 29 30  1  0  0  0
 30 31  2  0  0  0
 31 33  1  0  0  0
 31 32  1  0  0  0
 33 34  1  0  0  0
 33 36  1  0  0  0
 34 35  2  0  0  0
 34 37  1  0  0  0
 37 38  1  0  0  0
 37 39  1  0  0  0
 38 39  1  0  0  0
  5  6  1  0  0  0
  5  7  1  0  0  0
 18 19  1  0  0  0
 19 20  1  0  0  0
 20 21  1  0  0  0
 20 22  1  0  0  0
 20 23  1  0  0  0
M  END
> <minimizedAffinity>
-8.96328

$$$$
