CHEMBL435748


 32 35  0  0  0  0  0  0  0  0999 V2000
  -29.7235   -4.0332   -6.2786 C   0  0  0  0  0  0  0  0  0  0  0  0
  -30.4493   -4.3432   -5.1826 N   0  0  0  0  0  0  0  0  0  0  0  0
  -30.0454   -3.7804   -4.0394 C   0  0  0  0  0  0  0  0  0  0  0  0
  -29.0107   -2.9414   -3.9005 N   0  0  0  0  0  0  0  0  0  0  0  0
  -28.3335   -2.6271   -5.0167 C   0  0  0  0  0  0  0  0  0  0  0  0
  -27.3465   -1.6578   -4.8439 N   0  0  0  0  0  0  0  0  0  0  0  0
  -28.6659   -3.1432   -6.2589 C   0  0  0  0  0  0  0  0  0  0  0  0
  -27.1750   -1.5136   -3.8559 H   0  0  0  0  0  0  0  0  0  0  0  0
  -26.5115   -1.8581   -5.3955 H   0  0  0  0  0  0  0  0  0  0  0  0
  -27.9160   -2.8282   -7.4800 C   0  0  0  0  0  0  0  0  0  0  0  0
  -27.5238   -1.6186   -7.7365 N   0  0  0  0  0  0  0  0  0  0  0  0
  -26.8283   -1.6192   -8.9571 O   0  0  0  0  0  0  0  0  0  0  0  0
  -27.7817   -1.6130  -10.0218 C   0  0  0  0  0  0  0  0  0  0  0  0
  -27.0646   -1.6024  -11.3463 C   0  0  0  0  0  0  0  0  0  0  0  0
  -27.7567   -1.8942  -12.5307 C   0  0  0  0  0  0  0  0  0  0  0  0
  -27.0965   -1.8722  -13.7604 C   0  0  0  0  0  0  0  0  0  0  0  0
  -25.7393   -1.5600  -13.8183 C   0  0  0  0  0  0  0  0  0  0  0  0
  -25.0413   -1.2700  -12.6476 C   0  0  0  0  0  0  0  0  0  0  0  0
  -25.6996   -1.2912  -11.4173 C   0  0  0  0  0  0  0  0  0  0  0  0
  -30.0375   -4.6572   -7.4801 O   0  0  0  0  0  0  0  0  0  0  0  0
  -27.5513  -11.4168   -9.1362 C   0  0  0  0  0  0  0  0  0  0  0  0
  -28.1129  -10.1395   -8.6332 C   0  0  0  0  0  0  0  0  0  0  0  0
  -27.6414   -8.8443   -8.7128 C   0  0  0  0  0  0  0  0  0  0  0  0
  -28.6425   -7.9781   -8.1878 C   0  0  0  0  0  0  0  0  0  0  0  0
  -28.7829   -6.5806   -8.0736 C   0  0  0  0  0  0  0  0  0  0  0  0
  -27.7984   -5.7702   -8.4957 F   0  0  0  0  0  0  0  0  0  0  0  0
  -29.9600   -6.0333   -7.5477 C   0  0  0  0  0  0  0  0  0  0  0  0
  -30.9609   -6.8804   -7.0603 C   0  0  0  0  0  0  0  0  0  0  0  0
  -30.8459   -8.2723   -7.1549 C   0  0  0  0  0  0  0  0  0  0  0  0
  -29.6821   -8.7899   -7.7328 C   0  0  0  0  0  0  0  0  0  0  0  0
  -29.3191  -10.0942   -7.9790 N   0  0  0  0  0  0  0  0  0  0  0  0
  -29.8903  -10.8979   -7.7559 H   0  0  0  0  0  0  0  0  0  0  0  0
 21 22  1  0  0  0
 22 23  2  0  0  0
 22 31  1  0  0  0
 23 24  1  0  0  0
 24 25  1  0  0  0
 24 30  2  0  0  0
 25 26  1  0  0  0
 25 27  2  0  0  0
 27 20  1  0  0  0
 27 28  1  0  0  0
 20  1  1  0  0  0
  1  2  1  0  0  0
  1  7  2  0  0  0
  2  3  2  0  0  0
  3  4  1  0  0  0
  4  5  2  0  0  0
  5  6  1  0  0  0
  5  7  1  0  0  0
  6  8  1  0  0  0
  6  9  1  0  0  0
  7 10  1  0  0  0
 10 11  2  0  0  0
 11 12  1  0  0  0
 12 13  1  0  0  0
 13 14  1  0  0  0
 14 15  1  0  0  0
 14 19  2  0  0  0
 15 16  2  0  0  0
 16 17  1  0  0  0
 17 18  2  0  0  0
 18 19  1  0  0  0
 28 29  2  0  0  0
 29 30  1  0  0  0
 30 31  1  0  0  0
 31 32  1  0  0  0
M  END
> <minimizedAffinity>
-9.32378

$$$$
