CHEMBL392990


 32 36  0  0  0  0  0  0  0  0999 V2000
  -27.4794   -9.9321   -8.6483 C   0  0  0  0  0  0  0  0  0  0  0  0
  -26.1847  -10.1738   -8.3053 O   0  0  0  0  0  0  0  0  0  0  0  0
  -26.0816  -10.0542   -6.9611 C   0  0  0  0  0  0  0  0  0  0  0  0
  -24.8960  -10.1613   -6.3368 N   0  0  0  0  0  0  0  0  0  0  0  0
  -24.9802   -9.9810   -5.0091 C   0  0  0  0  0  0  0  0  0  0  0  0
  -26.1504   -9.7498   -4.3025 C   0  0  0  0  0  0  0  0  0  0  0  0
  -27.3830   -9.6900   -4.9745 C   0  0  0  0  0  0  0  0  0  0  0  0
  -27.3310   -9.8020   -6.3921 C   0  0  0  0  0  0  0  0  0  0  0  0
  -28.2435   -9.6988   -7.5071 C   0  0  0  0  0  0  0  0  0  0  0  0
  -28.2362   -9.8172  -12.8606 C   0  0  0  0  0  0  0  0  0  0  0  0
  -29.1043  -10.4992  -12.0141 C   0  0  0  0  0  0  0  0  0  0  0  0
  -28.8454  -10.5504  -10.6413 C   0  0  0  0  0  0  0  0  0  0  0  0
  -27.7130   -9.9265  -10.0978 C   0  0  0  0  0  0  0  0  0  0  0  0
  -26.8262   -9.2799  -10.9737 C   0  0  0  0  0  0  0  0  0  0  0  0
  -27.0964   -9.2105  -12.3421 C   0  0  0  0  0  0  0  0  0  0  0  0
  -29.6617   -9.3244   -7.5397 C   0  0  0  0  0  0  0  0  0  0  0  0
  -30.6506  -10.3088   -7.4055 C   0  0  0  0  0  0  0  0  0  0  0  0
  -32.0060   -9.9704   -7.3819 C   0  0  0  0  0  0  0  0  0  0  0  0
  -32.3885   -8.6330   -7.4236 C   0  0  0  0  0  0  0  0  0  0  0  0
  -31.4194   -7.6393   -7.5349 C   0  0  0  0  0  0  0  0  0  0  0  0
  -30.0680   -7.9839   -7.6319 C   0  0  0  0  0  0  0  0  0  0  0  0
  -28.5809   -9.5900   -4.2481 N   0  0  0  0  0  0  0  0  0  0  0  0
  -29.3852   -9.8600   -4.8080 H   0  0  0  0  0  0  0  0  0  0  0  0
  -28.7968   -8.3697   -3.4576 C   0  0  0  0  0  0  0  0  0  0  0  0
  -28.9367   -7.1496   -4.4003 C   0  0  0  0  0  0  0  0  0  0  0  0
  -29.5562   -5.9484   -3.8053 N   0  0  0  0  0  0  0  0  0  0  0  0
  -30.5843   -5.3960   -4.7209 C   0  0  0  0  0  0  0  0  0  0  0  0
  -30.0193   -4.6498   -5.9546 C   0  0  0  0  0  0  0  0  0  0  0  0
  -29.0365   -3.6061   -5.6135 N   0  0  0  0  0  0  0  0  0  0  0  0
  -28.0004   -4.1641   -4.7285 C   0  0  0  0  0  0  0  0  0  0  0  0
  -28.5881   -4.8776   -3.4908 C   0  0  0  0  0  0  0  0  0  0  0  0
  -29.5274   -2.8755   -5.0958 H   0  0  0  0  0  0  0  0  0  0  0  0
 10 11  1  0  0  0
 10 15  2  0  0  0
 11 12  2  0  0  0
 12 13  1  0  0  0
 13  1  1  0  0  0
 13 14  2  0  0  0
  1  2  1  0  0  0
  1  9  2  0  0  0
  2  3  1  0  0  0
  3  4  1  0  0  0
  3  8  2  0  0  0
  4  5  2  0  0  0
  5  6  1  0  0  0
  6  7  2  0  0  0
  7 22  1  0  0  0
  7  8  1  0  0  0
 22 24  1  0  0  0
 22 23  1  0  0  0
 24 25  1  0  0  0
 25 26  1  0  0  0
 26 27  1  0  0  0
 26 31  1  0  0  0
 27 28  1  0  0  0
 28 29  1  0  0  0
 29 30  1  0  0  0
 29 32  1  0  0  0
 30 31  1  0  0  0
  8  9  1  0  0  0
  9 16  1  0  0  0
 16 17  1  0  0  0
 16 21  2  0  0  0
 17 18  2  0  0  0
 18 19  1  0  0  0
 19 20  2  0  0  0
 20 21  1  0  0  0
 14 15  1  0  0  0
M  END
> <minimizedAffinity>
-7.33677

$$$$
