CHEMBL3633686


 38 41  0  0  0  0  0  0  0  0999 V2000
  -28.2187   -8.9652   -3.4900 N   0  0  0  0  0  0  0  0  0  0  0  0
  -28.2206   -7.6903   -4.0174 C   0  0  0  0  0  0  0  0  0  0  0  0
  -27.3867   -7.2715   -4.8251 O   0  0  0  0  0  0  0  0  0  0  0  0
  -29.2546   -6.9148   -3.5209 N   0  0  0  0  0  0  0  0  0  0  0  0
  -29.1184   -9.3166   -3.1935 H   0  0  0  0  0  0  0  0  0  0  0  0
  -29.4851   -7.1067   -2.5564 H   0  0  0  0  0  0  0  0  0  0  0  0
  -25.0997  -11.6976   -4.3329 C   0  0  0  0  0  0  0  0  0  0  0  0
  -25.0642  -10.9550   -3.1624 C   0  0  0  0  0  0  0  0  0  0  0  0
  -26.1012  -10.0727   -2.8584 C   0  0  0  0  0  0  0  0  0  0  0  0
  -27.1901   -9.9117   -3.7237 C   0  0  0  0  0  0  0  0  0  0  0  0
  -27.2685  -10.7231   -4.8569 C   0  0  0  0  0  0  0  0  0  0  0  0
  -26.2296  -11.6038   -5.1505 C   0  0  0  0  0  0  0  0  0  0  0  0
  -26.3505  -12.3540   -6.2611 F   0  0  0  0  0  0  0  0  0  0  0  0
  -23.9858  -12.4647   -4.5605 O   0  0  0  0  0  0  0  0  0  0  0  0
  -22.7743  -11.7322   -4.7770 C   0  0  0  0  0  0  0  0  0  0  0  0
  -22.0246  -12.3369   -5.9775 C   0  0  0  0  0  0  0  0  0  0  0  0
  -21.3504  -10.4087   -7.2630 C   0  0  0  0  0  0  0  0  0  0  0  0
  -22.2135  -11.5916   -7.2390 N   0  0  0  0  0  0  0  0  0  0  0  0
  -21.9522  -12.4205   -8.4160 C   0  0  0  0  0  0  0  0  0  0  0  0
  -29.3814   -5.5688   -3.9377 C   0  0  0  0  0  0  0  0  0  0  0  0
  -30.3351   -5.1827   -4.8846 C   0  0  0  0  0  0  0  0  0  0  0  0
  -30.3366   -3.8823   -5.4047 C   0  0  0  0  0  0  0  0  0  0  0  0
  -29.4011   -2.9273   -4.9808 C   0  0  0  0  0  0  0  0  0  0  0  0
  -28.5323   -3.3176   -3.9401 C   0  0  0  0  0  0  0  0  0  0  0  0
  -28.5024   -4.6222   -3.4372 C   0  0  0  0  0  0  0  0  0  0  0  0
  -29.3456   -1.5665   -5.5651 C   0  0  0  0  0  0  0  0  0  0  0  0
  -29.9659   -0.4565   -4.9379 C   0  0  0  0  0  0  0  0  0  0  0  0
  -29.8107    0.8504   -5.4041 C   0  0  0  0  0  0  0  0  0  0  0  0
  -28.9758    1.1277   -6.4834 C   0  0  0  0  0  0  0  0  0  0  0  0
  -28.3981    0.0343   -7.1278 C   0  0  0  0  0  0  0  0  0  0  0  0
  -27.5177   -0.0233   -8.1764 N   0  0  0  0  0  0  0  0  0  0  0  0
  -27.3024   -1.2565   -8.6485 N   0  0  0  0  0  0  0  0  0  0  0  0
  -27.9927   -2.0339   -7.8188 C   0  0  0  0  0  0  0  0  0  0  0  0
  -28.0833   -3.3595   -8.0100 N   0  0  0  0  0  0  0  0  0  0  0  0
  -28.6174   -1.2940   -6.7611 C   0  0  0  0  0  0  0  0  0  0  0  0
  -27.0402    0.7505   -8.6211 H   0  0  0  0  0  0  0  0  0  0  0  0
  -27.7568   -3.7223   -8.8976 H   0  0  0  0  0  0  0  0  0  0  0  0
  -28.8639   -3.8759   -7.6158 H   0  0  0  0  0  0  0  0  0  0  0  0
 17 18  1  0  0  0
 18 19  1  0  0  0
 18 16  1  0  0  0
 16 15  1  0  0  0
 15 14  1  0  0  0
 14  7  1  0  0  0
  7  8  1  0  0  0
  7 12  2  0  0  0
  8  9  2  0  0  0
  9 10  1  0  0  0
 10  1  1  0  0  0
 10 11  2  0  0  0
  1  2  1  0  0  0
  1  5  1  0  0  0
  2  3  2  0  0  0
  2  4  1  0  0  0
  4 20  1  0  0  0
  4  6  1  0  0  0
 20 21  1  0  0  0
 20 25  2  0  0  0
 21 22  2  0  0  0
 22 23  1  0  0  0
 23 26  1  0  0  0
 23 24  2  0  0  0
 26 27  1  0  0  0
 26 35  2  0  0  0
 27 28  2  0  0  0
 28 29  1  0  0  0
 29 30  2  0  0  0
 30 31  1  0  0  0
 30 35  1  0  0  0
 31 32  1  0  0  0
 31 36  1  0  0  0
 32 33  2  0  0  0
 33 34  1  0  0  0
 33 35  1  0  0  0
 34 37  1  0  0  0
 34 38  1  0  0  0
 24 25  1  0  0  0
 11 12  1  0  0  0
 12 13  1  0  0  0
M  END
> <minimizedAffinity>
-7.50389

$$$$
