CHEMBL401860


 43 47  0  0  0  0  0  0  0  0999 V2000
  -29.2435   -4.0333   -6.7988 C   0  0  0  0  0  0  0  0  0  0  0  0
  -29.6203   -4.0881   -8.1423 C   0  0  0  0  0  0  0  0  0  0  0  0
  -29.0284   -3.2406   -9.0782 C   0  0  0  0  0  0  0  0  0  0  0  0
  -27.9944   -2.3808   -8.7080 C   0  0  0  0  0  0  0  0  0  0  0  0
  -27.5528   -2.3936   -7.3831 C   0  0  0  0  0  0  0  0  0  0  0  0
  -28.1947   -3.1873   -6.4270 C   0  0  0  0  0  0  0  0  0  0  0  0
  -30.4025   -6.0878   -5.9389 C   0  0  0  0  0  0  0  0  0  0  0  0
  -31.1096   -6.4727   -4.8353 O   0  0  0  0  0  0  0  0  0  0  0  0
  -31.1800   -5.4060   -3.9919 C   0  0  0  0  0  0  0  0  0  0  0  0
  -31.8335   -5.4566   -2.8229 N   0  0  0  0  0  0  0  0  0  0  0  0
  -31.7652   -4.2899   -2.1747 C   0  0  0  0  0  0  0  0  0  0  0  0
  -31.1338   -3.1669   -2.5605 N   0  0  0  0  0  0  0  0  0  0  0  0
  -30.4670   -3.1646   -3.7310 C   0  0  0  0  0  0  0  0  0  0  0  0
  -29.8003   -1.9979   -4.0402 N   0  0  0  0  0  0  0  0  0  0  0  0
  -30.4970   -4.3212   -4.5258 C   0  0  0  0  0  0  0  0  0  0  0  0
  -29.9962   -4.7609   -5.7906 C   0  0  0  0  0  0  0  0  0  0  0  0
  -30.0840   -1.1999   -3.4879 H   0  0  0  0  0  0  0  0  0  0  0  0
  -29.4294   -1.8491   -4.9630 H   0  0  0  0  0  0  0  0  0  0  0  0
  -29.7936   -9.3186   -8.7092 C   0  0  0  0  0  0  0  0  0  0  0  0
  -28.7459   -8.4654   -8.3810 C   0  0  0  0  0  0  0  0  0  0  0  0
  -28.9738   -7.3592   -7.5533 C   0  0  0  0  0  0  0  0  0  0  0  0
  -30.2278   -7.1211   -6.9701 C   0  0  0  0  0  0  0  0  0  0  0  0
  -31.2836   -7.9643   -7.3370 C   0  0  0  0  0  0  0  0  0  0  0  0
  -31.0670   -9.0470   -8.2028 C   0  0  0  0  0  0  0  0  0  0  0  0
  -28.9825  -10.2887  -10.7238 C   0  0  0  0  0  0  0  0  0  0  0  0
  -29.7031  -10.4282   -9.5032 O   0  0  0  0  0  0  0  0  0  0  0  0
  -27.3735   -1.4864   -9.6067 N   0  0  0  0  0  0  0  0  0  0  0  0
  -26.8762   -1.8240  -10.8444 C   0  0  0  0  0  0  0  0  0  0  0  0
  -26.9500   -2.9281  -11.3779 O   0  0  0  0  0  0  0  0  0  0  0  0
  -26.2539   -0.7466  -11.4585 N   0  0  0  0  0  0  0  0  0  0  0  0
  -27.4934   -0.5018   -9.4305 H   0  0  0  0  0  0  0  0  0  0  0  0
  -25.6851   -0.2117  -10.8101 H   0  0  0  0  0  0  0  0  0  0  0  0
  -25.6655   -0.9415  -12.7351 C   0  0  0  0  0  0  0  0  0  0  0  0
  -26.5327   -1.3409  -13.7615 C   0  0  0  0  0  0  0  0  0  0  0  0
  -27.8201   -1.5929  -13.4738 F   0  0  0  0  0  0  0  0  0  0  0  0
  -26.1117   -1.4154  -15.0830 C   0  0  0  0  0  0  0  0  0  0  0  0
  -24.7933   -1.1054  -15.3962 C   0  0  0  0  0  0  0  0  0  0  0  0
  -23.9028   -0.7555  -14.3786 C   0  0  0  0  0  0  0  0  0  0  0  0
  -24.3141   -0.6878  -13.0291 C   0  0  0  0  0  0  0  0  0  0  0  0
  -23.2467   -0.3921  -11.9988 C   0  0  0  0  0  0  0  0  0  0  0  0
  -22.8748   -1.4316  -11.2013 F   0  0  0  0  0  0  0  0  0  0  0  0
  -22.0817   -0.0034  -12.6068 F   0  0  0  0  0  0  0  0  0  0  0  0
  -23.5675    0.6416  -11.1710 F   0  0  0  0  0  0  0  0  0  0  0  0
 25 26  1  0  0  0
 26 19  1  0  0  0
 19 20  1  0  0  0
 19 24  2  0  0  0
 20 21  2  0  0  0
 21 22  1  0  0  0
 22  7  1  0  0  0
 22 23  2  0  0  0
  7  8  1  0  0  0
  7 16  2  0  0  0
  8  9  1  0  0  0
  9 10  1  0  0  0
  9 15  2  0  0  0
 10 11  2  0  0  0
 11 12  1  0  0  0
 12 13  2  0  0  0
 13 14  1  0  0  0
 13 15  1  0  0  0
 14 17  1  0  0  0
 14 18  1  0  0  0
 15 16  1  0  0  0
 16  1  1  0  0  0
  1  2  1  0  0  0
  1  6  2  0  0  0
  2  3  2  0  0  0
  3  4  1  0  0  0
  4 27  1  0  0  0
  4  5  2  0  0  0
 27 28  1  0  0  0
 27 31  1  0  0  0
 28 29  2  0  0  0
 28 30  1  0  0  0
 30 33  1  0  0  0
 30 32  1  0  0  0
 33 34  1  0  0  0
 33 39  2  0  0  0
 34 35  1  0  0  0
 34 36  2  0  0  0
 36 37  1  0  0  0
 37 38  2  0  0  0
 38 39  1  0  0  0
 39 40  1  0  0  0
 40 41  1  0  0  0
 40 42  1  0  0  0
 40 43  1  0  0  0
  5  6  1  0  0  0
 23 24  1  0  0  0
M  END
> <minimizedAffinity>
-9.61636

$$$$
