CHEMBL25450


 32 35  0  0  0  0  0  0  0  0999 V2000
  -30.4194   -7.6529   -6.1830 C   0  0  0  0  0  0  0  0  0  0  0  0
  -29.7619   -8.8528   -6.4483 C   0  0  0  0  0  0  0  0  0  0  0  0
  -28.4861   -9.1240   -5.9208 C   0  0  0  0  0  0  0  0  0  0  0  0
  -27.7452  -10.2647   -6.2516 C   0  0  0  0  0  0  0  0  0  0  0  0
  -26.5522  -10.5246   -5.6929 N   0  0  0  0  0  0  0  0  0  0  0  0
  -26.1076   -9.6323   -4.8032 C   0  0  0  0  0  0  0  0  0  0  0  0
  -26.7158   -8.4913   -4.4486 N   0  0  0  0  0  0  0  0  0  0  0  0
  -27.9052   -8.2403   -5.0099 C   0  0  0  0  0  0  0  0  0  0  0  0
  -28.6026   -7.0751   -4.6902 C   0  0  0  0  0  0  0  0  0  0  0  0
  -29.8520   -6.7583   -5.2592 C   0  0  0  0  0  0  0  0  0  0  0  0
  -32.4296   -8.4346   -7.2519 C   0  0  0  0  0  0  0  0  0  0  0  0
  -31.6128   -7.3640   -6.7826 O   0  0  0  0  0  0  0  0  0  0  0  0
  -28.2337  -11.1370   -7.2661 N   0  0  0  0  0  0  0  0  0  0  0  0
  -29.1853  -11.4140   -7.0263 H   0  0  0  0  0  0  0  0  0  0  0  0
  -28.1172  -10.8379   -8.6471 C   0  0  0  0  0  0  0  0  0  0  0  0
  -26.8714  -10.6963   -9.2612 C   0  0  0  0  0  0  0  0  0  0  0  0
  -25.7427  -10.9494   -8.5771 F   0  0  0  0  0  0  0  0  0  0  0  0
  -26.7548  -10.3040  -10.5926 C   0  0  0  0  0  0  0  0  0  0  0  0
  -27.9077  -10.0821  -11.3335 C   0  0  0  0  0  0  0  0  0  0  0  0
  -27.7746   -9.5348  -12.9597 Cl  0  0  0  0  0  0  0  0  0  0  0  0
  -29.1651  -10.2907  -10.7737 C   0  0  0  0  0  0  0  0  0  0  0  0
  -29.2581  -10.6791   -9.4404 C   0  0  0  0  0  0  0  0  0  0  0  0
  -30.4718  -10.8700   -8.9016 F   0  0  0  0  0  0  0  0  0  0  0  0
  -30.3658   -5.5556   -4.8106 O   0  0  0  0  0  0  0  0  0  0  0  0
  -29.5457   -4.4069   -5.0057 C   0  0  0  0  0  0  0  0  0  0  0  0
  -30.0818   -3.4535   -6.0887 C   0  0  0  0  0  0  0  0  0  0  0  0
  -29.8745   -3.9689   -7.5205 C   0  0  0  0  0  0  0  0  0  0  0  0
  -28.4050   -3.9344   -7.9431 C   0  0  0  0  0  0  0  0  0  0  0  0
  -27.8289   -2.5944   -7.7993 N   0  0  0  0  0  0  0  0  0  0  0  0
  -27.9367   -2.1106   -6.4232 C   0  0  0  0  0  0  0  0  0  0  0  0
  -29.3903   -2.0836   -5.9400 C   0  0  0  0  0  0  0  0  0  0  0  0
  -28.3296   -1.9529   -8.4149 H   0  0  0  0  0  0  0  0  0  0  0  0
 11 12  1  0  0  0
 12  1  1  0  0  0
  1  2  1  0  0  0
  1 10  2  0  0  0
  2  3  2  0  0  0
  3  4  1  0  0  0
  3  8  1  0  0  0
  4 13  1  0  0  0
  4  5  2  0  0  0
 13 15  1  0  0  0
 13 14  1  0  0  0
 15 16  1  0  0  0
 15 22  2  0  0  0
 16 17  1  0  0  0
 16 18  2  0  0  0
 18 19  1  0  0  0
 19 20  1  0  0  0
 19 21  2  0  0  0
 21 22  1  0  0  0
 22 23  1  0  0  0
  5  6  1  0  0  0
  6  7  2  0  0  0
  7  8  1  0  0  0
  8  9  2  0  0  0
  9 10  1  0  0  0
 10 24  1  0  0  0
 24 25  1  0  0  0
 25 26  1  0  0  0
 26 27  1  0  0  0
 26 31  1  0  0  0
 27 28  1  0  0  0
 28 29  1  0  0  0
 29 30  1  0  0  0
 29 32  1  0  0  0
 30 31  1  0  0  0
M  END
> <minimizedAffinity>
-7.93699

$$$$
