CHEMBL1992342


 27 29  0  0  0  0  0  0  0  0999 V2000
  -22.1212    1.3426  -14.0037 C   0  0  0  0  0  0  0  0  0  0  0  0
  -21.6345    2.6451  -13.9996 C   0  0  0  0  0  0  0  0  0  0  0  0
  -20.3773    2.9146  -14.5353 C   0  0  0  0  0  0  0  0  0  0  0  0
  -19.5420    1.9069  -15.0802 C   0  0  0  0  0  0  0  0  0  0  0  0
  -20.0814    0.6145  -15.1239 C   0  0  0  0  0  0  0  0  0  0  0  0
  -21.3660    0.3377  -14.5931 C   0  0  0  0  0  0  0  0  0  0  0  0
  -18.1388    2.2288  -15.4864 C   0  0  0  0  0  0  0  0  0  0  0  0
  -17.7923    3.5903  -15.6226 C   0  0  0  0  0  0  0  0  0  0  0  0
  -16.5623    4.0179  -16.1134 C   0  0  0  0  0  0  0  0  0  0  0  0
  -15.6214    3.0277  -16.3915 C   0  0  0  0  0  0  0  0  0  0  0  0
  -14.4235    3.1050  -17.0138 N   0  0  0  0  0  0  0  0  0  0  0  0
  -13.6704    2.0169  -16.8806 N   0  0  0  0  0  0  0  0  0  0  0  0
  -14.5415    1.1058  -16.4630 C   0  0  0  0  0  0  0  0  0  0  0  0
  -14.1301   -0.1750  -16.4118 N   0  0  0  0  0  0  0  0  0  0  0  0
  -15.8218    1.6698  -16.1470 C   0  0  0  0  0  0  0  0  0  0  0  0
  -17.1276    1.2598  -15.7399 C   0  0  0  0  0  0  0  0  0  0  0  0
  -14.0898    3.8419  -17.6323 H   0  0  0  0  0  0  0  0  0  0  0  0
  -14.4440   -0.7859  -15.6667 H   0  0  0  0  0  0  0  0  0  0  0  0
  -13.1291   -0.2497  -16.5719 H   0  0  0  0  0  0  0  0  0  0  0  0
  -23.3925    1.0863  -13.3986 N   0  0  0  0  0  0  0  0  0  0  0  0
  -23.6786    1.7597  -12.6807 H   0  0  0  0  0  0  0  0  0  0  0  0
  -23.7460   -0.4868  -12.8776 S   0  0  0  0  0  0  0  0  0  0  0  0
  -22.6642   -0.8536  -11.9896 O   0  0  0  0  0  0  0  0  0  0  0  0
  -24.0982   -1.3008  -14.0116 O   0  0  0  0  0  0  0  0  0  0  0  0
  -25.2207   -0.2506  -11.8573 C   0  0  0  0  0  0  0  0  0  0  0  0
  -27.4951   -1.2414  -11.3184 C   0  0  0  0  0  0  0  0  0  0  0  0
  -26.3194   -1.2279  -12.2843 C   0  0  0  0  0  0  0  0  0  0  0  0
 26 27  1  0  0  0
 27 25  1  0  0  0
 25 22  1  0  0  0
 22 23  2  0  0  0
 22 24  2  0  0  0
 22 20  1  0  0  0
 20  1  1  0  0  0
 20 21  1  0  0  0
  1  2  1  0  0  0
  1  6  2  0  0  0
  2  3  2  0  0  0
  3  4  1  0  0  0
  4  7  1  0  0  0
  4  5  2  0  0  0
  7  8  1  0  0  0
  7 16  2  0  0  0
  8  9  2  0  0  0
  9 10  1  0  0  0
 10 11  1  0  0  0
 10 15  2  0  0  0
 11 12  1  0  0  0
 11 17  1  0  0  0
 12 13  2  0  0  0
 13 14  1  0  0  0
 13 15  1  0  0  0
 14 18  1  0  0  0
 14 19  1  0  0  0
 15 16  1  0  0  0
  5  6  1  0  0  0
M  END
> <minimizedAffinity>
-8.94998

$$$$
