CHEMBL1242290


 25 27  0  0  0  0  0  0  0  0999 V2000
  -29.9678   -7.7042   -7.7926 C   0  0  0  0  0  0  0  0  0  0  0  0
  -28.9059   -8.0040   -8.5635 N   0  0  0  0  0  0  0  0  0  0  0  0
  -29.1449   -9.2622   -8.9958 N   0  0  0  0  0  0  0  0  0  0  0  0
  -30.3231   -9.7741   -8.5309 C   0  0  0  0  0  0  0  0  0  0  0  0
  -30.8064  -11.0096   -8.7686 N   0  0  0  0  0  0  0  0  0  0  0  0
  -31.9899  -11.1973   -8.1672 C   0  0  0  0  0  0  0  0  0  0  0  0
  -32.6931  -10.3151   -7.4350 N   0  0  0  0  0  0  0  0  0  0  0  0
  -32.1818   -9.0810   -7.2329 C   0  0  0  0  0  0  0  0  0  0  0  0
  -32.9570   -8.2343   -6.4641 N   0  0  0  0  0  0  0  0  0  0  0  0
  -30.9203   -8.7657   -7.7811 C   0  0  0  0  0  0  0  0  0  0  0  0
  -33.8728   -8.6030   -6.2387 H   0  0  0  0  0  0  0  0  0  0  0  0
  -32.8616   -7.2346   -6.5781 H   0  0  0  0  0  0  0  0  0  0  0  0
  -30.0838   -3.9467   -5.7132 C   0  0  0  0  0  0  0  0  0  0  0  0
  -29.8621   -4.0016   -7.0916 C   0  0  0  0  0  0  0  0  0  0  0  0
  -29.8757   -5.2211   -7.7676 C   0  0  0  0  0  0  0  0  0  0  0  0
  -30.0052   -6.4256   -7.0759 C   0  0  0  0  0  0  0  0  0  0  0  0
  -30.2177   -6.3754   -5.6908 C   0  0  0  0  0  0  0  0  0  0  0  0
  -30.2918   -5.1470   -5.0133 C   0  0  0  0  0  0  0  0  0  0  0  0
  -29.3769   -1.6843   -5.6278 C   0  0  0  0  0  0  0  0  0  0  0  0
  -30.0612   -2.7702   -5.0118 O   0  0  0  0  0  0  0  0  0  0  0  0
  -30.5376   -5.2613   -3.6666 O   0  0  0  0  0  0  0  0  0  0  0  0
  -31.9152   -5.2852   -3.3022 C   0  0  0  0  0  0  0  0  0  0  0  0
  -28.1987   -9.9205   -9.8892 C   0  0  0  0  0  0  0  0  0  0  0  0
  -28.8316  -10.2185  -11.2491 C   0  0  0  0  0  0  0  0  0  0  0  0
  -26.9059   -9.1208  -10.0517 C   0  0  0  0  0  0  0  0  0  0  0  0
 19 20  1  0  0  0
 20 13  1  0  0  0
 13 14  1  0  0  0
 13 18  2  0  0  0
 14 15  2  0  0  0
 15 16  1  0  0  0
 16  1  1  0  0  0
 16 17  2  0  0  0
  1  2  2  0  0  0
  1 10  1  0  0  0
  2  3  1  0  0  0
  3 23  1  0  0  0
  3  4  1  0  0  0
 23 24  1  0  0  0
 23 25  1  0  0  0
  4  5  1  0  0  0
  4 10  2  0  0  0
  5  6  2  0  0  0
  6  7  1  0  0  0
  7  8  2  0  0  0
  8  9  1  0  0  0
  8 10  1  0  0  0
  9 11  1  0  0  0
  9 12  1  0  0  0
 17 18  1  0  0  0
 18 21  1  0  0  0
 21 22  1  0  0  0
M  END
> <minimizedAffinity>
-7.62404

$$$$
