CHEMBL184750


 21 23  0  0  0  0  0  0  0  0999 V2000
  -29.9956   -4.2666   -6.1293 N   0  0  0  0  0  0  0  0  0  0  0  0
  -30.9879   -4.1296   -6.2691 H   0  0  0  0  0  0  0  0  0  0  0  0
  -28.4451    1.0231   -4.6079 C   0  0  0  0  0  0  0  0  0  0  0  0
  -28.3495   -0.1675   -5.4885 C   0  0  0  0  0  0  0  0  0  0  0  0
  -29.0167   -1.4162   -5.3244 C   0  0  0  0  0  0  0  0  0  0  0  0
  -28.7142   -2.1925   -6.4263 C   0  0  0  0  0  0  0  0  0  0  0  0
  -29.1449   -3.4821   -6.8800 C   0  0  0  0  0  0  0  0  0  0  0  0
  -28.6854   -3.8834   -8.0312 N   0  0  0  0  0  0  0  0  0  0  0  0
  -27.8244   -3.0859   -8.7396 C   0  0  0  0  0  0  0  0  0  0  0  0
  -27.3862   -1.9181   -8.4018 N   0  0  0  0  0  0  0  0  0  0  0  0
  -27.8617   -1.4893   -7.2230 N   0  0  0  0  0  0  0  0  0  0  0  0
  -27.6140   -0.2705   -6.6545 C   0  0  0  0  0  0  0  0  0  0  0  0
  -29.6941   -5.5334   -5.5915 C   0  0  0  0  0  0  0  0  0  0  0  0
  -29.3322   -6.6266   -6.3855 C   0  0  0  0  0  0  0  0  0  0  0  0
  -29.0226   -7.8649   -5.8142 C   0  0  0  0  0  0  0  0  0  0  0  0
  -29.0459   -8.0395   -4.4245 C   0  0  0  0  0  0  0  0  0  0  0  0
  -28.6945   -9.3798   -3.8501 C   0  0  0  0  0  0  0  0  0  0  0  0
  -29.3936   -6.9424   -3.6322 C   0  0  0  0  0  0  0  0  0  0  0  0
  -29.4415   -7.0017   -2.2669 O   0  0  0  0  0  0  0  0  0  0  0  0
  -29.7142   -5.7078   -4.2035 C   0  0  0  0  0  0  0  0  0  0  0  0
  -29.1925   -7.8925   -1.9766 H   0  0  0  0  0  0  0  0  0  0  0  0
  3  4  1  0  0  0
  4  5  1  0  0  0
  4 12  2  0  0  0
  5  6  2  0  0  0
  6  7  1  0  0  0
  6 11  1  0  0  0
  7  1  1  0  0  0
  7  8  2  0  0  0
  1 13  1  0  0  0
  1  2  1  0  0  0
 13 14  1  0  0  0
 13 20  2  0  0  0
 14 15  2  0  0  0
 15 16  1  0  0  0
 16 17  1  0  0  0
 16 18  2  0  0  0
 18 19  1  0  0  0
 18 20  1  0  0  0
 19 21  1  0  0  0
  8  9  1  0  0  0
  9 10  2  0  0  0
 10 11  1  0  0  0
 11 12  1  0  0  0
M  END
> <minimizedAffinity>
-7.63136

$$$$
