CHEMBL3781651


 32 36  0  0  0  0  0  0  0  0999 V2000
  -17.8357    1.9627  -15.4781 C   0  0  0  0  0  0  0  0  0  0  0  0
  -16.9263    0.9284  -15.3046 C   0  0  0  0  0  0  0  0  0  0  0  0
  -15.6280    1.0086  -15.6911 N   0  0  0  0  0  0  0  0  0  0  0  0
  -15.2324    2.1896  -16.2445 C   0  0  0  0  0  0  0  0  0  0  0  0
  -13.9222    2.4384  -16.6792 C   0  0  0  0  0  0  0  0  0  0  0  0
  -13.5259    3.6339  -17.1916 N   0  0  0  0  0  0  0  0  0  0  0  0
  -14.4417    4.5984  -17.3438 C   0  0  0  0  0  0  0  0  0  0  0  0
  -15.7596    4.4331  -16.9966 C   0  0  0  0  0  0  0  0  0  0  0  0
  -16.1547    3.2381  -16.4322 C   0  0  0  0  0  0  0  0  0  0  0  0
  -17.4392    3.1205  -16.0638 N   0  0  0  0  0  0  0  0  0  0  0  0
  -21.9345    1.9920  -14.1438 C   0  0  0  0  0  0  0  0  0  0  0  0
  -21.1752    3.1573  -14.1420 C   0  0  0  0  0  0  0  0  0  0  0  0
  -19.8473    3.1243  -14.5786 C   0  0  0  0  0  0  0  0  0  0  0  0
  -19.2360    1.9363  -15.0245 C   0  0  0  0  0  0  0  0  0  0  0  0
  -20.0194    0.7720  -15.0172 C   0  0  0  0  0  0  0  0  0  0  0  0
  -21.3516    0.8029  -14.5821 C   0  0  0  0  0  0  0  0  0  0  0  0
  -23.6012    0.7144  -13.0445 C   0  0  0  0  0  0  0  0  0  0  0  0
  -23.2431    1.8935  -13.7533 O   0  0  0  0  0  0  0  0  0  0  0  0
  -12.9468    1.4095  -16.5220 N   0  0  0  0  0  0  0  0  0  0  0  0
  -12.7840    1.2707  -15.5246 H   0  0  0  0  0  0  0  0  0  0  0  0
  -12.9988    0.1691  -17.1964 C   0  0  0  0  0  0  0  0  0  0  0  0
  -12.7161   -1.0062  -16.5058 C   0  0  0  0  0  0  0  0  0  0  0  0
  -12.7540   -2.2467  -17.1634 C   0  0  0  0  0  0  0  0  0  0  0  0
  -13.1048   -2.3655  -18.5180 C   0  0  0  0  0  0  0  0  0  0  0  0
  -13.4445   -1.1773  -19.1733 C   0  0  0  0  0  0  0  0  0  0  0  0
  -13.4048    0.0612  -18.5271 C   0  0  0  0  0  0  0  0  0  0  0  0
  -13.1035   -3.5795  -19.1769 N   0  0  0  0  0  0  0  0  0  0  0  0
  -12.2726   -3.8297  -20.3533 C   0  0  0  0  0  0  0  0  0  0  0  0
  -13.1570   -4.2927  -21.5087 C   0  0  0  0  0  0  0  0  0  0  0  0
  -14.0153   -5.4923  -21.1053 C   0  0  0  0  0  0  0  0  0  0  0  0
  -14.7990   -5.2076  -19.8257 C   0  0  0  0  0  0  0  0  0  0  0  0
  -13.8829   -4.7247  -18.7004 C   0  0  0  0  0  0  0  0  0  0  0  0
 17 18  1  0  0  0
 18 11  1  0  0  0
 11 12  1  0  0  0
 11 16  2  0  0  0
 12 13  2  0  0  0
 13 14  1  0  0  0
 14  1  1  0  0  0
 14 15  2  0  0  0
  1  2  1  0  0  0
  1 10  2  0  0  0
  2  3  2  0  0  0
  3  4  1  0  0  0
  4  5  1  0  0  0
  4  9  2  0  0  0
  5 19  1  0  0  0
  5  6  2  0  0  0
 19 21  1  0  0  0
 19 20  1  0  0  0
 21 22  1  0  0  0
 21 26  2  0  0  0
 22 23  2  0  0  0
 23 24  1  0  0  0
 24 27  1  0  0  0
 24 25  2  0  0  0
 27 28  1  0  0  0
 27 32  1  0  0  0
 28 29  1  0  0  0
 29 30  1  0  0  0
 30 31  1  0  0  0
 31 32  1  0  0  0
 25 26  1  0  0  0
  6  7  1  0  0  0
  7  8  2  0  0  0
  8  9  1  0  0  0
  9 10  1  0  0  0
 15 16  1  0  0  0
M  END
> <minimizedAffinity>
-8.41993

$$$$
