CHEMBL4163870


 35 39  0  0  0  0  0  0  0  0999 V2000
  -22.1784    1.3869  -13.5938 C   0  0  0  0  0  0  0  0  0  0  0  0
  -23.0133    2.4707  -13.4940 C   0  0  0  0  0  0  0  0  0  0  0  0
  -22.3484    3.5190  -14.0426 N   0  0  0  0  0  0  0  0  0  0  0  0
  -21.1167    3.2105  -14.4952 N   0  0  0  0  0  0  0  0  0  0  0  0
  -21.0109    1.8843  -14.2521 C   0  0  0  0  0  0  0  0  0  0  0  0
  -22.6733    4.4758  -14.1335 H   0  0  0  0  0  0  0  0  0  0  0  0
  -19.8247    1.1193  -14.6784 C   0  0  0  0  0  0  0  0  0  0  0  0
  -19.9346    0.0551  -15.2721 O   0  0  0  0  0  0  0  0  0  0  0  0
  -18.6257    1.7202  -14.2982 N   0  0  0  0  0  0  0  0  0  0  0  0
  -18.7457    2.5274  -13.6915 H   0  0  0  0  0  0  0  0  0  0  0  0
  -17.3242    1.2474  -14.5524 C   0  0  0  0  0  0  0  0  0  0  0  0
  -16.5928    0.4952  -13.6357 C   0  0  0  0  0  0  0  0  0  0  0  0
  -15.2782    0.0954  -13.9191 C   0  0  0  0  0  0  0  0  0  0  0  0
  -14.6405    0.4426  -15.1130 C   0  0  0  0  0  0  0  0  0  0  0  0
  -15.4066    1.1664  -16.0432 C   0  0  0  0  0  0  0  0  0  0  0  0
  -16.7334    1.5462  -15.7799 C   0  0  0  0  0  0  0  0  0  0  0  0
  -13.3325    0.0887  -15.3911 N   0  0  0  0  0  0  0  0  0  0  0  0
  -12.9545   -1.2634  -15.8323 C   0  0  0  0  0  0  0  0  0  0  0  0
  -12.0162   -1.9542  -14.8199 C   0  0  0  0  0  0  0  0  0  0  0  0
  -10.8328   -1.1406  -14.4654 N   0  0  0  0  0  0  0  0  0  0  0  0
  -11.3089    0.1554  -13.9358 C   0  0  0  0  0  0  0  0  0  0  0  0
  -12.2264    0.9348  -14.9104 C   0  0  0  0  0  0  0  0  0  0  0  0
  -10.3116   -0.9557  -15.3223 H   0  0  0  0  0  0  0  0  0  0  0  0
  -22.4302    0.1279  -13.1427 N   0  0  0  0  0  0  0  0  0  0  0  0
  -21.7358   -0.5867  -13.3483 H   0  0  0  0  0  0  0  0  0  0  0  0
  -25.7034   -1.5343  -10.0100 C   0  0  0  0  0  0  0  0  0  0  0  0
  -25.3164   -1.2650  -11.4324 C   0  0  0  0  0  0  0  0  0  0  0  0
  -26.2078   -1.5590  -12.3937 N   0  0  0  0  0  0  0  0  0  0  0  0
  -25.7912   -1.2836  -13.6272 C   0  0  0  0  0  0  0  0  0  0  0  0
  -24.5552   -0.7387  -13.9464 C   0  0  0  0  0  0  0  0  0  0  0  0
  -23.7098   -0.4431  -12.8991 C   0  0  0  0  0  0  0  0  0  0  0  0
  -24.0933   -0.7281  -11.6391 N   0  0  0  0  0  0  0  0  0  0  0  0
  -24.4478   -0.4807  -15.4045 C   0  0  0  0  0  0  0  0  0  0  0  0
  -25.5825   -1.3608  -15.9579 C   0  0  0  0  0  0  0  0  0  0  0  0
  -26.6389   -1.4535  -14.8541 C   0  0  0  0  0  0  0  0  0  0  0  0
 26 27  1  0  0  0
 27 28  1  0  0  0
 27 32  2  0  0  0
 28 29  2  0  0  0
 29 30  1  0  0  0
 29 35  1  0  0  0
 30 31  2  0  0  0
 30 33  1  0  0  0
 31 24  1  0  0  0
 31 32  1  0  0  0
 24  1  1  0  0  0
 24 25  1  0  0  0
  1  2  2  0  0  0
  1  5  1  0  0  0
  2  3  1  0  0  0
  3  4  1  0  0  0
  3  6  1  0  0  0
  4  5  2  0  0  0
  5  7  1  0  0  0
  7  8  2  0  0  0
  7  9  1  0  0  0
  9 11  1  0  0  0
  9 10  1  0  0  0
 11 12  1  0  0  0
 11 16  2  0  0  0
 12 13  2  0  0  0
 13 14  1  0  0  0
 14 17  1  0  0  0
 14 15  2  0  0  0
 17 18  1  0  0  0
 17 22  1  0  0  0
 18 19  1  0  0  0
 19 20  1  0  0  0
 20 21  1  0  0  0
 20 23  1  0  0  0
 21 22  1  0  0  0
 15 16  1  0  0  0
 33 34  1  0  0  0
 34 35  1  0  0  0
M  END
> <minimizedAffinity>
-6.71482

$$$$
