CHEMBL3968233


 32 35  0  0  0  0  0  0  0  0999 V2000
  -27.9490   -9.0079   -7.4033 C   0  0  0  0  0  0  0  0  0  0  0  0
  -28.7631   -7.9081   -7.1064 C   0  0  0  0  0  0  0  0  0  0  0  0
  -29.1618   -7.6306   -5.7807 C   0  0  0  0  0  0  0  0  0  0  0  0
  -29.9226   -6.5255   -5.3753 C   0  0  0  0  0  0  0  0  0  0  0  0
  -30.1859   -6.2690   -4.0776 N   0  0  0  0  0  0  0  0  0  0  0  0
  -29.7076   -7.1314   -3.1806 C   0  0  0  0  0  0  0  0  0  0  0  0
  -29.0068   -8.2318   -3.4552 N   0  0  0  0  0  0  0  0  0  0  0  0
  -28.7400   -8.4621   -4.7421 C   0  0  0  0  0  0  0  0  0  0  0  0
  -28.0103   -9.5918   -5.0617 C   0  0  0  0  0  0  0  0  0  0  0  0
  -27.6591   -9.9217   -6.3803 C   0  0  0  0  0  0  0  0  0  0  0  0
  -28.4101   -9.6121   -9.6386 C   0  0  0  0  0  0  0  0  0  0  0  0
  -27.4436   -9.2264   -8.6559 O   0  0  0  0  0  0  0  0  0  0  0  0
  -30.4315   -5.6277   -6.3553 N   0  0  0  0  0  0  0  0  0  0  0  0
  -31.4488   -5.6067   -6.2864 H   0  0  0  0  0  0  0  0  0  0  0  0
  -29.8945   -4.3305   -6.5273 C   0  0  0  0  0  0  0  0  0  0  0  0
  -29.0637   -4.0545   -7.6222 C   0  0  0  0  0  0  0  0  0  0  0  0
  -28.4159   -2.8269   -7.7334 C   0  0  0  0  0  0  0  0  0  0  0  0
  -27.3659   -2.5941   -9.0843 Cl  0  0  0  0  0  0  0  0  0  0  0  0
  -28.6192   -1.8442   -6.7538 C   0  0  0  0  0  0  0  0  0  0  0  0
  -27.7867   -0.3309   -6.7840 Cl  0  0  0  0  0  0  0  0  0  0  0  0
  -29.4992   -2.0820   -5.6932 C   0  0  0  0  0  0  0  0  0  0  0  0
  -30.1317   -3.3177   -5.5947 C   0  0  0  0  0  0  0  0  0  0  0  0
  -30.9542   -3.5500   -4.5605 F   0  0  0  0  0  0  0  0  0  0  0  0
  -27.0227  -11.1100   -6.6931 O   0  0  0  0  0  0  0  0  0  0  0  0
  -25.8491  -11.3440   -5.8915 C   0  0  0  0  0  0  0  0  0  0  0  0
  -24.7302  -10.3123   -6.0923 C   0  0  0  0  0  0  0  0  0  0  0  0
  -23.4750  -10.9016   -6.7585 C   0  0  0  0  0  0  0  0  0  0  0  0
  -22.8128  -11.8822   -5.8731 N   0  0  0  0  0  0  0  0  0  0  0  0
  -21.6487  -12.4657   -6.5292 C   0  0  0  0  0  0  0  0  0  0  0  0
  -22.4464  -11.2104   -4.6127 C   0  0  0  0  0  0  0  0  0  0  0  0
  -23.6782  -10.5751   -3.9456 C   0  0  0  0  0  0  0  0  0  0  0  0
  -24.3782   -9.6838   -4.8328 O   0  0  0  0  0  0  0  0  0  0  0  0
 11 12  1  0  0  0
 12  1  1  0  0  0
  1  2  1  0  0  0
  1 10  2  0  0  0
  2  3  2  0  0  0
  3  4  1  0  0  0
  3  8  1  0  0  0
  4 13  1  0  0  0
  4  5  2  0  0  0
 13 15  1  0  0  0
 13 14  1  0  0  0
 15 16  1  0  0  0
 15 22  2  0  0  0
 16 17  2  0  0  0
 17 18  1  0  0  0
 17 19  1  0  0  0
 19 20  1  0  0  0
 19 21  2  0  0  0
 21 22  1  0  0  0
 22 23  1  0  0  0
  5  6  1  0  0  0
  6  7  2  0  0  0
  7  8  1  0  0  0
  8  9  2  0  0  0
  9 10  1  0  0  0
 10 24  1  0  0  0
 24 25  1  0  0  0
 25 26  1  0  0  0
 26 27  1  0  0  0
 26 32  1  0  0  0
 27 28  1  0  0  0
 28 29  1  0  0  0
 28 30  1  0  0  0
 30 31  1  0  0  0
 31 32  1  0  0  0
M  END
> <minimizedAffinity>
-7.86688

$$$$
