CHEMBL3660287


 44 47  0  0  0  0  0  0  0  0999 V2000
  -28.1587   -1.9293   -8.9647 C   0  0  0  0  0  0  0  0  0  0  0  0
  -27.7960   -1.1841   -7.8503 C   0  0  0  0  0  0  0  0  0  0  0  0
  -27.6686   -1.8379   -6.6376 C   0  0  0  0  0  0  0  0  0  0  0  0
  -27.9260   -3.1515   -6.4581 N   0  0  0  0  0  0  0  0  0  0  0  0
  -28.3398   -3.8442   -7.5462 C   0  0  0  0  0  0  0  0  0  0  0  0
  -28.4794   -3.2743   -8.8059 C   0  0  0  0  0  0  0  0  0  0  0  0
  -28.6204   -5.2570   -7.3000 C   0  0  0  0  0  0  0  0  0  0  0  0
  -28.5978   -6.3503   -8.1480 C   0  0  0  0  0  0  0  0  0  0  0  0
  -28.9939   -7.5128   -7.4246 C   0  0  0  0  0  0  0  0  0  0  0  0
  -29.2125   -7.0867   -6.1255 C   0  0  0  0  0  0  0  0  0  0  0  0
  -28.9838   -5.7373   -6.0605 N   0  0  0  0  0  0  0  0  0  0  0  0
  -29.0736   -5.1503   -5.2399 H   0  0  0  0  0  0  0  0  0  0  0  0
  -29.1837   -8.8847   -7.8994 C   0  0  0  0  0  0  0  0  0  0  0  0
  -29.3403   -9.8370   -7.1404 O   0  0  0  0  0  0  0  0  0  0  0  0
  -29.1879   -9.0258   -9.2734 N   0  0  0  0  0  0  0  0  0  0  0  0
  -28.8338   -8.2780   -9.8490 H   0  0  0  0  0  0  0  0  0  0  0  0
  -29.3512  -10.3286   -9.8875 C   0  0  0  0  0  0  0  0  0  0  0  0
  -28.5121  -10.4628  -11.1636 C   0  0  0  0  0  0  0  0  0  0  0  0
  -29.0921   -9.6533  -12.1971 O   0  0  0  0  0  0  0  0  0  0  0  0
  -28.8482   -8.7263  -12.0215 H   0  0  0  0  0  0  0  0  0  0  0  0
  -27.0550  -10.0550  -10.8994 C   0  0  0  0  0  0  0  0  0  0  0  0
  -26.7535   -8.7813  -11.4638 O   0  0  0  0  0  0  0  0  0  0  0  0
  -27.1003   -8.7625  -12.3727 H   0  0  0  0  0  0  0  0  0  0  0  0
  -28.2647   -1.4136  -10.2403 O   0  0  0  0  0  0  0  0  0  0  0  0
  -24.8218   -1.4537  -12.6261 C   0  0  0  0  0  0  0  0  0  0  0  0
  -26.0772   -1.5835  -13.2293 C   0  0  0  0  0  0  0  0  0  0  0  0
  -27.2422   -1.5432  -12.4626 C   0  0  0  0  0  0  0  0  0  0  0  0
  -27.1644   -1.4398  -11.0730 C   0  0  0  0  0  0  0  0  0  0  0  0
  -25.9119   -1.3001  -10.4668 C   0  0  0  0  0  0  0  0  0  0  0  0
  -24.7386   -1.3310  -11.2376 C   0  0  0  0  0  0  0  0  0  0  0  0
  -21.9137   -0.1385  -14.3603 N   0  0  0  0  0  0  0  0  0  0  0  0
  -23.0062   -0.1317  -13.5130 C   0  0  0  0  0  0  0  0  0  0  0  0
  -23.3635    0.8274  -12.8281 O   0  0  0  0  0  0  0  0  0  0  0  0
  -23.6522   -1.3644  -13.4308 N   0  0  0  0  0  0  0  0  0  0  0  0
  -21.6304   -1.0301  -14.7368 H   0  0  0  0  0  0  0  0  0  0  0  0
  -23.0256   -2.1545  -13.3861 H   0  0  0  0  0  0  0  0  0  0  0  0
  -17.3639    1.4878  -15.5263 C   0  0  0  0  0  0  0  0  0  0  0  0
  -18.7929    1.7660  -15.1535 C   0  0  0  0  0  0  0  0  0  0  0  0
  -19.2132    3.0901  -14.9985 C   0  0  0  0  0  0  0  0  0  0  0  0
  -20.5371    3.3630  -14.6852 C   0  0  0  0  0  0  0  0  0  0  0  0
  -21.4462    2.3219  -14.5120 C   0  0  0  0  0  0  0  0  0  0  0  0
  -22.7230    2.6895  -14.3532 F   0  0  0  0  0  0  0  0  0  0  0  0
  -21.0529    0.9758  -14.6008 C   0  0  0  0  0  0  0  0  0  0  0  0
  -19.7156    0.7148  -14.9537 C   0  0  0  0  0  0  0  0  0  0  0  0
 37 38  1  0  0  0
 38 39  1  0  0  0
 38 44  2  0  0  0
 39 40  2  0  0  0
 40 41  1  0  0  0
 41 42  1  0  0  0
 41 43  2  0  0  0
 43 31  1  0  0  0
 43 44  1  0  0  0
 31 32  1  0  0  0
 31 35  1  0  0  0
 32 33  2  0  0  0
 32 34  1  0  0  0
 34 25  1  0  0  0
 34 36  1  0  0  0
 25 26  1  0  0  0
 25 30  2  0  0  0
 26 27  2  0  0  0
 27 28  1  0  0  0
 28 24  1  0  0  0
 28 29  2  0  0  0
 24  1  1  0  0  0
  1  2  1  0  0  0
  1  6  2  0  0  0
  2  3  2  0  0  0
  3  4  1  0  0  0
  4  5  2  0  0  0
  5  7  1  0  0  0
  5  6  1  0  0  0
  7  8  2  0  0  0
  7 11  1  0  0  0
  8  9  1  0  0  0
  9 13  1  0  0  0
  9 10  2  0  0  0
 13 14  2  0  0  0
 13 15  1  0  0  0
 15 17  1  0  0  0
 15 16  1  0  0  0
 17 18  1  0  0  0
 18 19  1  0  0  0
 18 21  1  0  0  0
 19 20  1  0  0  0
 21 22  1  0  0  0
 22 23  1  0  0  0
 10 11  1  0  0  0
 11 12  1  0  0  0
 29 30  1  0  0  0
M  END
> <minimizedAffinity>
-11.36202

$$$$
