CHEMBL3690439


 41 45  0  0  0  0  0  0  0  0999 V2000
  -26.1520   -1.5079  -10.8749 C   0  0  0  0  0  0  0  0  0  0  0  0
  -25.1335   -0.4936  -10.6105 C   0  0  0  0  0  0  0  0  0  0  0  0
  -24.4188    0.0100  -11.6254 C   0  0  0  0  0  0  0  0  0  0  0  0
  -24.6043   -0.4846  -12.9158 N   0  0  0  0  0  0  0  0  0  0  0  0
  -23.9281   -0.2016  -14.0950 C   0  0  0  0  0  0  0  0  0  0  0  0
  -24.6112   -0.9428  -15.0497 C   0  0  0  0  0  0  0  0  0  0  0  0
  -25.6237   -1.6879  -14.5048 N   0  0  0  0  0  0  0  0  0  0  0  0
  -25.5807   -1.4330  -13.2176 C   0  0  0  0  0  0  0  0  0  0  0  0
  -26.3671   -1.9422  -12.1394 C   0  0  0  0  0  0  0  0  0  0  0  0
  -28.4016   -2.9189   -7.6164 C   0  0  0  0  0  0  0  0  0  0  0  0
  -28.2024   -1.5489   -7.7603 C   0  0  0  0  0  0  0  0  0  0  0  0
  -27.5385   -1.0621   -8.8804 C   0  0  0  0  0  0  0  0  0  0  0  0
  -27.0333   -1.9697   -9.7930 C   0  0  0  0  0  0  0  0  0  0  0  0
  -27.1991   -3.2976   -9.6267 N   0  0  0  0  0  0  0  0  0  0  0  0
  -27.9067   -3.7690   -8.5385 N   0  0  0  0  0  0  0  0  0  0  0  0
  -29.0228   -3.3724   -6.4429 N   0  0  0  0  0  0  0  0  0  0  0  0
  -29.2851   -2.5364   -5.9196 H   0  0  0  0  0  0  0  0  0  0  0  0
  -31.8588   -5.3153   -3.4823 C   0  0  0  0  0  0  0  0  0  0  0  0
  -30.4360   -5.3215   -3.8299 N   0  0  0  0  0  0  0  0  0  0  0  0
  -30.2765   -5.7903   -5.2160 C   0  0  0  0  0  0  0  0  0  0  0  0
  -28.8146   -5.7427   -5.6566 C   0  0  0  0  0  0  0  0  0  0  0  0
  -28.2716   -4.3132   -5.5851 C   0  0  0  0  0  0  0  0  0  0  0  0
  -28.4154   -3.8645   -4.1209 C   0  0  0  0  0  0  0  0  0  0  0  0
  -29.8679   -3.9766   -3.6380 C   0  0  0  0  0  0  0  0  0  0  0  0
  -22.7609    0.6778  -14.2473 C   0  0  0  0  0  0  0  0  0  0  0  0
  -22.8902    2.0376  -13.9462 C   0  0  0  0  0  0  0  0  0  0  0  0
  -21.8228    2.9047  -14.1377 C   0  0  0  0  0  0  0  0  0  0  0  0
  -20.5954    2.4164  -14.5894 C   0  0  0  0  0  0  0  0  0  0  0  0
  -20.4062    1.0575  -14.8420 C   0  0  0  0  0  0  0  0  0  0  0  0
  -21.5111    0.2065  -14.7190 C   0  0  0  0  0  0  0  0  0  0  0  0
  -19.1461    0.5066  -15.2088 N   0  0  0  0  0  0  0  0  0  0  0  0
  -17.9479    0.7967  -14.6029 C   0  0  0  0  0  0  0  0  0  0  0  0
  -17.7746    1.5600  -13.6552 O   0  0  0  0  0  0  0  0  0  0  0  0
  -16.8573    0.1868  -15.1682 N   0  0  0  0  0  0  0  0  0  0  0  0
  -19.1371   -0.1857  -15.9440 H   0  0  0  0  0  0  0  0  0  0  0  0
  -16.9931   -0.7023  -15.6240 H   0  0  0  0  0  0  0  0  0  0  0  0
  -15.5401    0.4701  -14.5658 C   0  0  0  0  0  0  0  0  0  0  0  0
  -15.0514   -0.5004  -13.4834 C   0  0  0  0  0  0  0  0  0  0  0  0
  -15.6181   -0.2637  -12.2776 F   0  0  0  0  0  0  0  0  0  0  0  0
  -15.3779   -1.7756  -13.8233 F   0  0  0  0  0  0  0  0  0  0  0  0
  -13.7096   -0.4669  -13.3280 F   0  0  0  0  0  0  0  0  0  0  0  0
 18 19  1  0  0  0
 19 20  1  0  0  0
 19 24  1  0  0  0
 20 21  1  0  0  0
 21 22  1  0  0  0
 22 16  1  0  0  0
 22 23  1  0  0  0
 16 10  1  0  0  0
 16 17  1  0  0  0
 10 11  1  0  0  0
 10 15  2  0  0  0
 11 12  2  0  0  0
 12 13  1  0  0  0
 13  1  1  0  0  0
 13 14  2  0  0  0
  1  2  1  0  0  0
  1  9  2  0  0  0
  2  3  2  0  0  0
  3  4  1  0  0  0
  4  5  1  0  0  0
  4  8  1  0  0  0
  5 25  1  0  0  0
  5  6  2  0  0  0
 25 26  1  0  0  0
 25 30  2  0  0  0
 26 27  2  0  0  0
 27 28  1  0  0  0
 28 29  2  0  0  0
 29 31  1  0  0  0
 29 30  1  0  0  0
 31 32  1  0  0  0
 31 35  1  0  0  0
 32 33  2  0  0  0
 32 34  1  0  0  0
 34 37  1  0  0  0
 34 36  1  0  0  0
 37 38  1  0  0  0
 38 39  1  0  0  0
 38 40  1  0  0  0
 38 41  1  0  0  0
  6  7  1  0  0  0
  7  8  2  0  0  0
  8  9  1  0  0  0
 14 15  1  0  0  0
 23 24  1  0  0  0
M  END
> <minimizedAffinity>
-9.76577

$$$$
