CHEMBL3944320


 35 38  0  0  0  0  0  0  0  0999 V2000
  -29.4329  -10.1394   -5.4182 N   0  0  0  0  0  0  0  0  0  0  0  0
  -29.2468   -8.6217   -5.3432 C   0  0  0  0  0  0  0  0  0  0  0  0
  -30.1022   -8.0570   -6.2682 C   0  0  0  0  0  0  0  0  0  0  0  0
  -30.1036   -6.8143   -6.6609 C   0  0  0  0  0  0  0  0  0  0  0  0
  -29.3132   -5.9032   -6.1260 C   0  0  0  0  0  0  0  0  0  0  0  0
  -29.3349   -4.7996   -6.8283 N   0  0  0  0  0  0  0  0  0  0  0  0
  -28.7594   -3.7089   -6.4600 C   0  0  0  0  0  0  0  0  0  0  0  0
  -28.2613   -3.5555   -5.1789 C   0  0  0  0  0  0  0  0  0  0  0  0
  -28.0107   -4.8051   -4.4658 N   0  0  0  0  0  0  0  0  0  0  0  0
  -28.5268   -6.0722   -4.9917 C   0  0  0  0  0  0  0  0  0  0  0  0
  -28.4355   -7.5554   -4.5766 C   0  0  0  0  0  0  0  0  0  0  0  0
  -28.2614   -1.9492   -4.9541 C   0  0  0  0  0  0  0  0  0  0  0  0
  -29.5188   -1.3146   -5.1968 C   0  0  0  0  0  0  0  0  0  0  0  0
  -29.4695   -0.0047   -5.1008 N   0  0  0  0  0  0  0  0  0  0  0  0
  -28.2601    0.3389   -4.7561 N   0  0  0  0  0  0  0  0  0  0  0  0
  -28.0059    1.7833   -4.6244 C   0  0  0  0  0  0  0  0  0  0  0  0
  -27.4754   -0.7993   -4.5882 C   0  0  0  0  0  0  0  0  0  0  0  0
  -29.9066  -10.9768   -6.5302 C   0  0  0  0  0  0  0  0  0  0  0  0
  -31.2707  -11.4664   -6.5771 C   0  0  0  0  0  0  0  0  0  0  0  0
  -31.8097  -12.1603   -7.6434 C   0  0  0  0  0  0  0  0  0  0  0  0
  -30.9840  -12.4660   -8.7115 C   0  0  0  0  0  0  0  0  0  0  0  0
  -29.6356  -12.0790   -8.6933 C   0  0  0  0  0  0  0  0  0  0  0  0
  -29.1006  -11.3420   -7.5983 C   0  0  0  0  0  0  0  0  0  0  0  0
  -33.1395  -12.4655   -7.5920 O   0  0  0  0  0  0  0  0  0  0  0  0
  -34.0242  -12.1970   -6.5697 C   0  0  0  0  0  0  0  0  0  0  0  0
  -28.8649  -12.3890   -9.7668 O   0  0  0  0  0  0  0  0  0  0  0  0
  -28.5346  -11.5036  -10.7329 C   0  0  0  0  0  0  0  0  0  0  0  0
  -28.8674  -11.0034   -4.2935 C   0  0  0  0  0  0  0  0  0  0  0  0
  -27.6131  -11.8742   -4.5834 C   0  0  0  0  0  0  0  0  0  0  0  0
  -26.4301  -11.0242   -4.9954 N   0  0  0  0  0  0  0  0  0  0  0  0
  -25.3903  -10.7937   -3.9149 C   0  0  0  0  0  0  0  0  0  0  0  0
  -25.2089   -9.3005   -3.5390 C   0  0  0  0  0  0  0  0  0  0  0  0
  -25.7339  -11.5383   -2.6092 C   0  0  0  0  0  0  0  0  0  0  0  0
  -25.6544  -10.4564   -7.3551 C   0  0  0  0  0  0  0  0  0  0  0  0
  -25.7717  -11.5051   -6.2490 C   0  0  0  0  0  0  0  0  0  0  0  0
 34 35  1  0  0  0
 35 30  1  0  0  0
 30 29  1  0  0  0
 30 31  1  0  0  0
 29 28  1  0  0  0
 28  1  1  0  0  0
  1 18  1  0  0  0
  1  2  1  0  0  0
 18 19  1  0  0  0
 18 23  2  0  0  0
 19 20  2  0  0  0
 20 24  1  0  0  0
 20 21  1  0  0  0
 24 25  1  0  0  0
 21 22  2  0  0  0
 22 26  1  0  0  0
 22 23  1  0  0  0
 26 27  1  0  0  0
  2  3  1  0  0  0
  2 11  2  0  0  0
  3  4  2  0  0  0
  4  5  1  0  0  0
  5  6  1  0  0  0
  5 10  2  0  0  0
  6  7  2  0  0  0
  7  8  1  0  0  0
  8 12  1  0  0  0
  8  9  2  0  0  0
 12 13  1  0  0  0
 12 17  2  0  0  0
 13 14  2  0  0  0
 14 15  1  0  0  0
 15 16  1  0  0  0
 15 17  1  0  0  0
  9 10  1  0  0  0
 10 11  1  0  0  0
 31 32  1  0  0  0
 31 33  1  0  0  0
M  END
> <minimizedAffinity>
-5.90838

$$$$
