CHEMBL3671545


 39 41  0  0  0  0  0  0  0  0999 V2000
  -27.2793   -1.4874   -9.0448 C   0  0  0  0  0  0  0  0  0  0  0  0
  -26.4367   -0.8274   -9.9404 C   0  0  0  0  0  0  0  0  0  0  0  0
  -26.4950   -1.1115  -11.3212 C   0  0  0  0  0  0  0  0  0  0  0  0
  -25.6061   -0.5996  -12.2789 C   0  0  0  0  0  0  0  0  0  0  0  0
  -25.7128   -0.9065  -13.5840 N   0  0  0  0  0  0  0  0  0  0  0  0
  -26.6889   -1.7441  -13.9328 C   0  0  0  0  0  0  0  0  0  0  0  0
  -27.5616   -2.3205  -13.1032 N   0  0  0  0  0  0  0  0  0  0  0  0
  -27.4507   -2.0152  -11.8066 C   0  0  0  0  0  0  0  0  0  0  0  0
  -28.3084   -2.6307  -10.9010 C   0  0  0  0  0  0  0  0  0  0  0  0
  -28.2546   -2.3714   -9.5277 C   0  0  0  0  0  0  0  0  0  0  0  0
  -27.8569   -0.3394   -7.0141 C   0  0  0  0  0  0  0  0  0  0  0  0
  -28.7225    0.3598   -7.5216 O   0  0  0  0  0  0  0  0  0  0  0  0
  -27.0652   -1.2721   -7.6675 N   0  0  0  0  0  0  0  0  0  0  0  0
  -26.9162   -2.1051   -7.1163 H   0  0  0  0  0  0  0  0  0  0  0  0
  -28.1408    0.5956   -4.7579 C   0  0  0  0  0  0  0  0  0  0  0  0
  -27.5637   -0.3091   -5.5572 C   0  0  0  0  0  0  0  0  0  0  0  0
  -24.5142    0.2113  -11.8695 N   0  0  0  0  0  0  0  0  0  0  0  0
  -24.8167    0.9308  -11.2187 H   0  0  0  0  0  0  0  0  0  0  0  0
  -23.5122    0.6780  -12.7536 C   0  0  0  0  0  0  0  0  0  0  0  0
  -23.4819    2.0206  -13.1579 C   0  0  0  0  0  0  0  0  0  0  0  0
  -22.4349    2.5102  -13.9394 C   0  0  0  0  0  0  0  0  0  0  0  0
  -21.4181    1.6488  -14.3436 C   0  0  0  0  0  0  0  0  0  0  0  0
  -19.9541    2.3348  -15.3216 Br  0  0  0  0  0  0  0  0  0  0  0  0
  -21.4619    0.2962  -14.0139 C   0  0  0  0  0  0  0  0  0  0  0  0
  -22.5132   -0.1777  -13.2321 C   0  0  0  0  0  0  0  0  0  0  0  0
  -22.5435   -1.4782  -12.8993 F   0  0  0  0  0  0  0  0  0  0  0  0
  -29.2080   -3.0334   -8.7890 O   0  0  0  0  0  0  0  0  0  0  0  0
  -28.7408   -4.1914   -8.0946 C   0  0  0  0  0  0  0  0  0  0  0  0
  -29.9071   -5.0882   -7.6728 C   0  0  0  0  0  0  0  0  0  0  0  0
  -29.9842   -5.2138   -6.2218 N   0  0  0  0  0  0  0  0  0  0  0  0
  -29.3273   -6.2312   -5.5623 C   0  0  0  0  0  0  0  0  0  0  0  0
  -28.6186   -7.0485   -6.1426 O   0  0  0  0  0  0  0  0  0  0  0  0
  -30.6153   -4.6075   -5.7129 H   0  0  0  0  0  0  0  0  0  0  0  0
  -29.6125   -6.3132   -4.0727 C   0  0  0  0  0  0  0  0  0  0  0  0
  -29.3139   -4.9697   -3.3625 C   0  0  0  0  0  0  0  0  0  0  0  0
  -27.9295   -4.4806   -3.8406 C   0  0  0  0  0  0  0  0  0  0  0  0
  -30.3569   -3.9314   -3.6298 N   0  0  0  0  0  0  0  0  0  0  0  0
  -31.7084   -4.3939   -3.2878 C   0  0  0  0  0  0  0  0  0  0  0  0
  -30.0997   -2.6951   -2.8723 C   0  0  0  0  0  0  0  0  0  0  0  0
 15 16  2  0  0  0
 16 11  1  0  0  0
 11 12  2  0  0  0
 11 13  1  0  0  0
 13  1  1  0  0  0
 13 14  1  0  0  0
  1  2  1  0  0  0
  1 10  2  0  0  0
  2  3  2  0  0  0
  3  4  1  0  0  0
  3  8  1  0  0  0
  4 17  1  0  0  0
  4  5  2  0  0  0
 17 19  1  0  0  0
 17 18  1  0  0  0
 19 20  1  0  0  0
 19 25  2  0  0  0
 20 21  2  0  0  0
 21 22  1  0  0  0
 22 23  1  0  0  0
 22 24  2  0  0  0
 24 25  1  0  0  0
 25 26  1  0  0  0
  5  6  1  0  0  0
  6  7  2  0  0  0
  7  8  1  0  0  0
  8  9  2  0  0  0
  9 10  1  0  0  0
 10 27  1  0  0  0
 27 28  1  0  0  0
 28 29  1  0  0  0
 29 30  1  0  0  0
 30 31  1  0  0  0
 30 33  1  0  0  0
 31 32  2  0  0  0
 31 34  1  0  0  0
 34 35  1  0  0  0
 35 36  1  0  0  0
 35 37  1  0  0  0
 37 38  1  0  0  0
 37 39  1  0  0  0
M  END
> <minimizedAffinity>
-6.36324

$$$$
