CHEMBL437876


 46 52  0  0  0  0  0  0  0  0999 V2000
  -25.7977   11.7152  -13.7325 N   0  0  0  0  0  0  0  0  0  0  0  0
  -24.8269   11.4733  -14.7384 C   0  0  0  0  0  0  0  0  0  0  0  0
  -23.4980   11.9084  -14.8940 C   0  0  0  0  0  0  0  0  0  0  0  0
  -22.8111   11.5862  -16.0884 C   0  0  0  0  0  0  0  0  0  0  0  0
  -23.3933   10.8408  -17.1165 C   0  0  0  0  0  0  0  0  0  0  0  0
  -24.7031   10.4034  -16.9349 C   0  0  0  0  0  0  0  0  0  0  0  0
  -25.4240   10.7292  -15.7642 C   0  0  0  0  0  0  0  0  0  0  0  0
  -26.7220   10.6185  -15.3048 C   0  0  0  0  0  0  0  0  0  0  0  0
  -27.7887   10.3465  -16.1730 C   0  0  0  0  0  0  0  0  0  0  0  0
  -29.0525   10.7636  -15.7210 C   0  0  0  0  0  0  0  0  0  0  0  0
  -29.2964   11.2982  -14.4432 C   0  0  0  0  0  0  0  0  0  0  0  0
  -28.2953   10.9049  -13.4881 C   0  0  0  0  0  0  0  0  0  0  0  0
  -26.9717   10.9953  -14.0136 C   0  0  0  0  0  0  0  0  0  0  0  0
  -28.8364    9.6470  -12.6301 C   0  0  0  0  0  0  0  0  0  0  0  0
  -30.2007    9.0039  -13.1573 C   0  0  0  0  0  0  0  0  0  0  0  0
  -31.1487   10.1386  -13.3322 C   0  0  0  0  0  0  0  0  0  0  0  0
  -32.3000   10.3549  -12.6951 N   0  0  0  0  0  0  0  0  0  0  0  0
  -32.4809   11.6906  -12.8670 N   0  0  0  0  0  0  0  0  0  0  0  0
  -33.5623   12.3659  -12.1918 C   0  0  0  0  0  0  0  0  0  0  0  0
  -31.4341   12.3101  -13.5056 C   0  0  0  0  0  0  0  0  0  0  0  0
  -30.6521   11.2872  -13.9690 C   0  0  0  0  0  0  0  0  0  0  0  0
  -30.0136   10.3530  -16.7237 C   0  0  0  0  0  0  0  0  0  0  0  0
  -31.2333   10.3720  -16.7827 O   0  0  0  0  0  0  0  0  0  0  0  0
  -29.2428    9.7686  -17.7249 N   0  0  0  0  0  0  0  0  0  0  0  0
  -27.8184    9.7591  -17.5056 C   0  0  0  0  0  0  0  0  0  0  0  0
  -29.7075    9.3053  -18.4927 H   0  0  0  0  0  0  0  0  0  0  0  0
  -22.7641   10.5000  -18.3501 N   0  0  0  0  0  0  0  0  0  0  0  0
  -21.6126   11.0693  -18.8392 C   0  0  0  0  0  0  0  0  0  0  0  0
  -21.0161   11.9787  -18.2757 O   0  0  0  0  0  0  0  0  0  0  0  0
  -21.1891   10.5078  -20.0451 N   0  0  0  0  0  0  0  0  0  0  0  0
  -23.2071    9.7934  -18.9140 H   0  0  0  0  0  0  0  0  0  0  0  0
  -21.8681   10.1166  -20.6658 H   0  0  0  0  0  0  0  0  0  0  0  0
  -19.9315   10.8643  -20.6361 C   0  0  0  0  0  0  0  0  0  0  0  0
  -18.7601   10.1511  -20.3621 C   0  0  0  0  0  0  0  0  0  0  0  0
  -17.5011   10.6033  -20.7788 C   0  0  0  0  0  0  0  0  0  0  0  0
  -17.4308   11.7464  -21.5838 C   0  0  0  0  0  0  0  0  0  0  0  0
  -18.6022   12.4147  -21.9558 C   0  0  0  0  0  0  0  0  0  0  0  0
  -19.8411   11.9765  -21.4787 C   0  0  0  0  0  0  0  0  0  0  0  0
  -20.9459   12.6588  -21.8102 F   0  0  0  0  0  0  0  0  0  0  0  0
  -16.2585    9.8846  -20.3088 C   0  0  0  0  0  0  0  0  0  0  0  0
  -15.9472    8.7829  -21.0474 F   0  0  0  0  0  0  0  0  0  0  0  0
  -15.1535   10.6787  -20.3452 F   0  0  0  0  0  0  0  0  0  0  0  0
  -16.3690    9.4504  -19.0238 F   0  0  0  0  0  0  0  0  0  0  0  0
  -25.5892   12.6588  -12.6354 C   0  0  0  0  0  0  0  0  0  0  0  0
  -27.1071   12.5702  -10.5450 C   0  0  0  0  0  0  0  0  0  0  0  0
  -25.8072   12.1322  -11.2018 C   0  0  0  0  0  0  0  0  0  0  0  0
 45 46  1  0  0  0
 46 44  1  0  0  0
 44  1  1  0  0  0
  1  2  1  0  0  0
  1 13  1  0  0  0
  2  3  1  0  0  0
  2  7  2  0  0  0
  3  4  2  0  0  0
  4  5  1  0  0  0
  5 27  1  0  0  0
  5  6  2  0  0  0
 27 28  1  0  0  0
 27 31  1  0  0  0
 28 29  2  0  0  0
 28 30  1  0  0  0
 30 33  1  0  0  0
 30 32  1  0  0  0
 33 34  1  0  0  0
 33 38  2  0  0  0
 34 35  2  0  0  0
 35 40  1  0  0  0
 35 36  1  0  0  0
 40 41  1  0  0  0
 40 42  1  0  0  0
 40 43  1  0  0  0
 36 37  2  0  0  0
 37 38  1  0  0  0
 38 39  1  0  0  0
  6  7  1  0  0  0
  7  8  1  0  0  0
  8  9  1  0  0  0
  8 13  2  0  0  0
  9 10  2  0  0  0
  9 25  1  0  0  0
 10 11  1  0  0  0
 10 22  1  0  0  0
 11 12  2  0  0  0
 11 21  1  0  0  0
 12 13  1  0  0  0
 12 14  1  0  0  0
 14 15  1  0  0  0
 15 16  1  0  0  0
 16 17  2  0  0  0
 16 21  1  0  0  0
 17 18  1  0  0  0
 18 19  1  0  0  0
 18 20  1  0  0  0
 20 21  2  0  0  0
 22 23  2  0  0  0
 22 24  1  0  0  0
 24 25  1  0  0  0
 24 26  1  0  0  0
M  END
> <minimizedAffinity>
1.70146

$$$$
