CHEMBL3979920


 29 32  0  0  0  0  0  0  0  0999 V2000
  -29.1210   -4.0359   -5.3213 C   0  0  0  0  0  0  0  0  0  0  0  0
  -28.5584   -4.9519   -6.1815 N   0  0  0  0  0  0  0  0  0  0  0  0
  -28.9570   -6.2524   -6.1336 C   0  0  0  0  0  0  0  0  0  0  0  0
  -29.9330   -6.6736   -5.2174 C   0  0  0  0  0  0  0  0  0  0  0  0
  -30.3270   -7.9554   -5.1739 F   0  0  0  0  0  0  0  0  0  0  0  0
  -30.4925   -5.7526   -4.3631 C   0  0  0  0  0  0  0  0  0  0  0  0
  -30.0710   -4.4248   -4.3983 C   0  0  0  0  0  0  0  0  0  0  0  0
  -30.7747   -3.7306   -3.3041 C   0  0  0  0  0  0  0  0  0  0  0  0
  -30.6433   -2.5837   -2.9238 O   0  0  0  0  0  0  0  0  0  0  0  0
  -31.6231   -4.6532   -2.7289 N   0  0  0  0  0  0  0  0  0  0  0  0
  -31.5384   -5.9593   -3.3318 C   0  0  0  0  0  0  0  0  0  0  0  0
  -32.1798   -4.4183   -1.9197 H   0  0  0  0  0  0  0  0  0  0  0  0
  -28.6363    0.7517   -6.6000 C   0  0  0  0  0  0  0  0  0  0  0  0
  -28.4193   -0.5645   -6.0488 N   0  0  0  0  0  0  0  0  0  0  0  0
  -29.2795   -1.6245   -6.0873 C   0  0  0  0  0  0  0  0  0  0  0  0
  -28.6282   -2.6817   -5.4830 C   0  0  0  0  0  0  0  0  0  0  0  0
  -27.3629   -2.1457   -5.1499 C   0  0  0  0  0  0  0  0  0  0  0  0
  -27.2379   -0.8557   -5.4774 N   0  0  0  0  0  0  0  0  0  0  0  0
  -28.3240   -7.2356   -6.9204 N   0  0  0  0  0  0  0  0  0  0  0  0
  -28.0782   -8.0386   -6.3462 H   0  0  0  0  0  0  0  0  0  0  0  0
  -28.9471   -7.6212   -8.2039 C   0  0  0  0  0  0  0  0  0  0  0  0
  -29.9847   -8.7393   -8.0290 C   0  0  0  0  0  0  0  0  0  0  0  0
  -29.3714  -10.0699   -7.5945 C   0  0  0  0  0  0  0  0  0  0  0  0
  -28.2454  -10.5294   -8.5142 C   0  0  0  0  0  0  0  0  0  0  0  0
  -27.2108   -9.4423   -8.7936 C   0  0  0  0  0  0  0  0  0  0  0  0
  -27.8458   -8.1044   -9.2069 C   0  0  0  0  0  0  0  0  0  0  0  0
  -26.7681   -7.1136   -9.3730 N   0  0  0  0  0  0  0  0  0  0  0  0
  -26.5031   -6.8001   -8.4345 H   0  0  0  0  0  0  0  0  0  0  0  0
  -27.1613   -6.2775   -9.8065 H   0  0  0  0  0  0  0  0  0  0  0  0
 13 14  1  0  0  0
 14 15  1  0  0  0
 14 18  1  0  0  0
 15 16  2  0  0  0
 16  1  1  0  0  0
 16 17  1  0  0  0
  1  2  1  0  0  0
  1  7  2  0  0  0
  2  3  2  0  0  0
  3 19  1  0  0  0
  3  4  1  0  0  0
 19 20  1  0  0  0
 21 22  1  0  0  0
 21 26  1  0  0  0
 21 19  1  0  0  0
 22 23  1  0  0  0
 23 24  1  0  0  0
 24 25  1  0  0  0
 25 26  1  0  0  0
 26 27  1  0  0  0
 27 28  1  0  0  0
 27 29  1  0  0  0
  4  5  1  0  0  0
  4  6  2  0  0  0
  6  7  1  0  0  0
  6 11  1  0  0  0
  7  8  1  0  0  0
  8  9  2  0  0  0
  8 10  1  0  0  0
 10 11  1  0  0  0
 10 12  1  0  0  0
 17 18  2  0  0  0
M  END
> <minimizedAffinity>
-8.35424

$$$$
