CHEMBL4483816


 34 38  0  0  0  0  0  0  0  0999 V2000
  -29.6653   -2.9767   -4.9121 N   0  0  0  0  0  0  0  0  0  0  0  0
  -28.8854   -3.2829   -5.9733 N   0  0  0  0  0  0  0  0  0  0  0  0
  -29.1712   -4.5661   -6.2304 C   0  0  0  0  0  0  0  0  0  0  0  0
  -28.5267   -5.2417   -7.3829 C   0  0  0  0  0  0  0  0  0  0  0  0
  -30.1166   -5.1070   -5.3115 C   0  0  0  0  0  0  0  0  0  0  0  0
  -30.7740   -6.3408   -5.1195 C   0  0  0  0  0  0  0  0  0  0  0  0
  -31.7184   -6.4415   -4.0795 C   0  0  0  0  0  0  0  0  0  0  0  0
  -32.0054   -5.3577   -3.2560 C   0  0  0  0  0  0  0  0  0  0  0  0
  -31.3842   -4.1233   -3.4462 C   0  0  0  0  0  0  0  0  0  0  0  0
  -30.4445   -4.0313   -4.4842 C   0  0  0  0  0  0  0  0  0  0  0  0
  -30.4684   -7.4806   -5.9104 N   0  0  0  0  0  0  0  0  0  0  0  0
  -31.3751   -8.0134   -6.8145 C   0  0  0  0  0  0  0  0  0  0  0  0
  -32.5007   -7.5513   -6.9939 O   0  0  0  0  0  0  0  0  0  0  0  0
  -29.4963   -7.7382   -6.0354 H   0  0  0  0  0  0  0  0  0  0  0  0
  -30.9092   -9.1505   -7.6233 C   0  0  0  0  0  0  0  0  0  0  0  0
  -31.6763  -10.3014   -7.7096 C   0  0  0  0  0  0  0  0  0  0  0  0
  -30.9610  -11.5343   -8.6348 S   0  0  0  0  0  0  0  0  0  0  0  0
  -29.5809  -10.5716   -8.9674 C   0  0  0  0  0  0  0  0  0  0  0  0
  -28.4326  -10.9038   -9.6904 C   0  0  0  0  0  0  0  0  0  0  0  0
  -28.2326  -12.1332  -10.2912 N   0  0  0  0  0  0  0  0  0  0  0  0
  -27.4661   -9.9803   -9.8077 N   0  0  0  0  0  0  0  0  0  0  0  0
  -27.6597   -8.7810   -9.2383 C   0  0  0  0  0  0  0  0  0  0  0  0
  -28.7231   -8.3587   -8.5371 N   0  0  0  0  0  0  0  0  0  0  0  0
  -29.6934   -9.3041   -8.3844 C   0  0  0  0  0  0  0  0  0  0  0  0
  -28.7840  -12.9048   -9.9310 H   0  0  0  0  0  0  0  0  0  0  0  0
  -27.2583  -12.3230  -10.4963 H   0  0  0  0  0  0  0  0  0  0  0  0
  -29.4697   -1.7056   -4.2252 C   0  0  0  0  0  0  0  0  0  0  0  0
  -31.5566    1.9232   -6.7342 C   0  0  0  0  0  0  0  0  0  0  0  0
  -30.2917    1.2513   -6.2879 C   0  0  0  0  0  0  0  0  0  0  0  0
  -29.0530    1.7753   -6.6372 C   0  0  0  0  0  0  0  0  0  0  0  0
  -27.9059    1.0990   -6.2386 C   0  0  0  0  0  0  0  0  0  0  0  0
  -28.0231   -0.0699   -5.4930 C   0  0  0  0  0  0  0  0  0  0  0  0
  -29.2930   -0.5310   -5.1538 C   0  0  0  0  0  0  0  0  0  0  0  0
  -30.4230    0.1210   -5.5469 N   0  0  0  0  0  0  0  0  0  0  0  0
 28 29  1  0  0  0
 29 30  1  0  0  0
 29 34  2  0  0  0
 30 31  2  0  0  0
 31 32  1  0  0  0
 32 33  2  0  0  0
 33 27  1  0  0  0
 33 34  1  0  0  0
 27  1  1  0  0  0
  1  2  1  0  0  0
  1 10  1  0  0  0
  2  3  2  0  0  0
  3  4  1  0  0  0
  3  5  1  0  0  0
  5  6  1  0  0  0
  5 10  2  0  0  0
  6 11  1  0  0  0
  6  7  2  0  0  0
 11 12  1  0  0  0
 11 14  1  0  0  0
 12 13  2  0  0  0
 12 15  1  0  0  0
 15 16  2  0  0  0
 15 24  1  0  0  0
 16 17  1  0  0  0
 17 18  1  0  0  0
 18 19  1  0  0  0
 18 24  2  0  0  0
 19 20  1  0  0  0
 19 21  2  0  0  0
 20 25  1  0  0  0
 20 26  1  0  0  0
 21 22  1  0  0  0
 22 23  2  0  0  0
 23 24  1  0  0  0
  7  8  1  0  0  0
  8  9  2  0  0  0
  9 10  1  0  0  0
M  END
> <minimizedAffinity>
-9.01571

$$$$
