CHEMBL3971947


 37 41  0  0  0  0  0  0  0  0999 V2000
  -28.0604   -1.9413   -8.8034 N   0  0  0  0  0  0  0  0  0  0  0  0
  -27.1321   -1.7070   -9.9043 C   0  0  0  0  0  0  0  0  0  0  0  0
  -25.8351   -1.5597   -9.4781 C   0  0  0  0  0  0  0  0  0  0  0  0
  -24.9385   -1.1643  -10.3917 C   0  0  0  0  0  0  0  0  0  0  0  0
  -25.2219   -0.7995  -11.6816 C   0  0  0  0  0  0  0  0  0  0  0  0
  -24.5133    0.2018  -11.8700 N   0  0  0  0  0  0  0  0  0  0  0  0
  -23.5371   -0.1017  -12.6569 C   0  0  0  0  0  0  0  0  0  0  0  0
  -23.7997   -0.3542  -13.9461 C   0  0  0  0  0  0  0  0  0  0  0  0
  -25.2063   -0.8093  -13.9936 N   0  0  0  0  0  0  0  0  0  0  0  0
  -26.1341   -1.1735  -12.6047 C   0  0  0  0  0  0  0  0  0  0  0  0
  -27.2851   -1.6216  -11.4292 C   0  0  0  0  0  0  0  0  0  0  0  0
  -22.4732    0.3936  -14.6566 C   0  0  0  0  0  0  0  0  0  0  0  0
  -22.1261    1.8355  -14.3496 C   0  0  0  0  0  0  0  0  0  0  0  0
  -20.8523    2.2140  -14.4884 N   0  0  0  0  0  0  0  0  0  0  0  0
  -20.2294    1.1067  -14.9024 N   0  0  0  0  0  0  0  0  0  0  0  0
  -18.7762    1.1911  -15.1201 C   0  0  0  0  0  0  0  0  0  0  0  0
  -21.1345   -0.0017  -14.9593 C   0  0  0  0  0  0  0  0  0  0  0  0
  -29.1798    0.0229   -5.8268 C   0  0  0  0  0  0  0  0  0  0  0  0
  -28.7529   -0.8090   -4.8092 C   0  0  0  0  0  0  0  0  0  0  0  0
  -27.8936   -1.8507   -5.0954 C   0  0  0  0  0  0  0  0  0  0  0  0
  -27.5783   -2.1364   -6.4222 C   0  0  0  0  0  0  0  0  0  0  0  0
  -28.0896   -1.3914   -7.4829 C   0  0  0  0  0  0  0  0  0  0  0  0
  -28.6837   -0.1539   -7.1264 C   0  0  0  0  0  0  0  0  0  0  0  0
  -30.8709    1.6353   -6.3402 C   0  0  0  0  0  0  0  0  0  0  0  0
  -30.1841    0.8412   -5.3980 O   0  0  0  0  0  0  0  0  0  0  0  0
  -27.4251   -2.7258   -4.1567 O   0  0  0  0  0  0  0  0  0  0  0  0
  -28.4634   -3.4168   -3.4705 C   0  0  0  0  0  0  0  0  0  0  0  0
  -29.0518   -3.1146   -9.0525 C   0  0  0  0  0  0  0  0  0  0  0  0
  -29.3621   -3.9450   -7.8013 C   0  0  0  0  0  0  0  0  0  0  0  0
  -30.2953   -3.4731   -6.8922 C   0  0  0  0  0  0  0  0  0  0  0  0
  -30.8276   -4.3684   -5.9855 C   0  0  0  0  0  0  0  0  0  0  0  0
  -30.2879   -5.6369   -5.8841 C   0  0  0  0  0  0  0  0  0  0  0  0
  -29.1775   -5.9835   -6.6411 C   0  0  0  0  0  0  0  0  0  0  0  0
  -28.7440   -5.1525   -7.6290 N   0  0  0  0  0  0  0  0  0  0  0  0
  -28.5151   -7.1757   -6.4095 N   0  0  0  0  0  0  0  0  0  0  0  0
  -28.1029   -7.4592   -5.0455 C   0  0  0  0  0  0  0  0  0  0  0  0
  -28.5136   -8.2725   -7.3651 C   0  0  0  0  0  0  0  0  0  0  0  0
 24 25  1  0  0  0
 25 18  1  0  0  0
 18 19  1  0  0  0
 18 23  2  0  0  0
 19 20  2  0  0  0
 20 26  1  0  0  0
 20 21  1  0  0  0
 26 27  1  0  0  0
 21 22  2  0  0  0
 22  1  1  0  0  0
 22 23  1  0  0  0
  1 28  1  0  0  0
  1  2  1  0  0  0
 28 29  1  0  0  0
 29 30  1  0  0  0
 29 34  2  0  0  0
 30 31  2  0  0  0
 31 32  1  0  0  0
 32 33  2  0  0  0
 33 35  1  0  0  0
 33 34  1  0  0  0
 35 36  1  0  0  0
 35 37  1  0  0  0
  2  3  1  0  0  0
  2 11  2  0  0  0
  3  4  2  0  0  0
  4  5  1  0  0  0
  5  6  1  0  0  0
  5 10  2  0  0  0
  6  7  2  0  0  0
  7  8  1  0  0  0
  8 12  1  0  0  0
  8  9  2  0  0  0
 12 13  1  0  0  0
 12 17  2  0  0  0
 13 14  2  0  0  0
 14 15  1  0  0  0
 15 16  1  0  0  0
 15 17  1  0  0  0
  9 10  1  0  0  0
 10 11  1  0  0  0
M  END
> <minimizedAffinity>
-6.89141

$$$$
