CHEMBL398460


 26 29  0  0  0  0  0  0  0  0999 V2000
  -31.7560   -9.6237   -7.8434 C   0  0  0  0  0  0  0  0  0  0  0  0
  -31.2008  -10.5264   -8.7432 C   0  0  0  0  0  0  0  0  0  0  0  0
  -29.9248  -10.3254   -9.2676 C   0  0  0  0  0  0  0  0  0  0  0  0
  -29.2137   -9.1783   -8.8888 C   0  0  0  0  0  0  0  0  0  0  0  0
  -29.7233   -8.2240   -7.9883 C   0  0  0  0  0  0  0  0  0  0  0  0
  -28.6924   -7.2109   -7.8549 C   0  0  0  0  0  0  0  0  0  0  0  0
  -27.6626   -7.5612   -8.6967 C   0  0  0  0  0  0  0  0  0  0  0  0
  -27.9632   -8.7561   -9.2815 N   0  0  0  0  0  0  0  0  0  0  0  0
  -27.0955   -9.4600  -10.2000 C   0  0  0  0  0  0  0  0  0  0  0  0
  -31.0255   -8.4693   -7.4593 C   0  0  0  0  0  0  0  0  0  0  0  0
  -31.8166   -7.2734   -6.1975 Br  0  0  0  0  0  0  0  0  0  0  0  0
  -28.7148   -6.0111   -7.0670 C   0  0  0  0  0  0  0  0  0  0  0  0
  -28.5998   -5.8410   -5.7378 C   0  0  0  0  0  0  0  0  0  0  0  0
  -28.4565   -6.8269   -4.6351 C   0  0  0  0  0  0  0  0  0  0  0  0
  -28.1680   -8.0047   -4.6610 O   0  0  0  0  0  0  0  0  0  0  0  0
  -28.6981   -6.0695   -3.5023 N   0  0  0  0  0  0  0  0  0  0  0  0
  -28.8408   -4.7240   -3.7176 N   0  0  0  0  0  0  0  0  0  0  0  0
  -28.7509   -4.5410   -5.0147 C   0  0  0  0  0  0  0  0  0  0  0  0
  -28.6459   -6.4422   -2.5610 H   0  0  0  0  0  0  0  0  0  0  0  0
  -28.7519   -3.2313   -5.5871 C   0  0  0  0  0  0  0  0  0  0  0  0
  -28.1667   -2.7130   -6.7282 C   0  0  0  0  0  0  0  0  0  0  0  0
  -28.3429   -1.3532   -6.9269 N   0  0  0  0  0  0  0  0  0  0  0  0
  -29.0446   -0.8067   -5.9490 N   0  0  0  0  0  0  0  0  0  0  0  0
  -29.4933   -1.9103   -4.7764 S   0  0  0  0  0  0  0  0  0  0  0  0
  -33.2783  -10.9434   -6.5686 C   0  0  0  0  0  0  0  0  0  0  0  0
  -33.0223   -9.7681   -7.3295 O   0  0  0  0  0  0  0  0  0  0  0  0
 25 26  1  0  0  0
 26  1  1  0  0  0
  1  2  1  0  0  0
  1 10  2  0  0  0
  2  3  2  0  0  0
  3  4  1  0  0  0
  4  5  2  0  0  0
  4  8  1  0  0  0
  5  6  1  0  0  0
  5 10  1  0  0  0
  6 12  1  0  0  0
  6  7  2  0  0  0
 12 13  2  0  0  0
 13 14  1  0  0  0
 13 18  1  0  0  0
 14 15  2  0  0  0
 14 16  1  0  0  0
 16 17  1  0  0  0
 16 19  1  0  0  0
 17 18  2  0  0  0
 18 20  1  0  0  0
 20 21  2  0  0  0
 20 24  1  0  0  0
 21 22  1  0  0  0
 22 23  2  0  0  0
 23 24  1  0  0  0
  7  8  1  0  0  0
  8  9  1  0  0  0
 10 11  1  0  0  0
M  END
> <minimizedAffinity>
-7.55341

$$$$
