CHEMBL485081


 31 35  0  0  0  0  0  0  0  0999 V2000
  -30.1534   -6.9101   -6.9600 C   0  0  0  0  0  0  0  0  0  0  0  0
  -29.2530   -6.3645   -7.8630 C   0  0  0  0  0  0  0  0  0  0  0  0
  -28.9900   -5.0189   -7.4901 C   0  0  0  0  0  0  0  0  0  0  0  0
  -28.2414   -3.9705   -8.0552 C   0  0  0  0  0  0  0  0  0  0  0  0
  -28.2143   -2.7240   -7.4183 C   0  0  0  0  0  0  0  0  0  0  0  0
  -28.9213   -2.5222   -6.2319 C   0  0  0  0  0  0  0  0  0  0  0  0
  -29.6765   -3.5493   -5.6570 C   0  0  0  0  0  0  0  0  0  0  0  0
  -29.6957   -4.7797   -6.3172 C   0  0  0  0  0  0  0  0  0  0  0  0
  -30.3887   -5.9284   -6.0225 N   0  0  0  0  0  0  0  0  0  0  0  0
  -31.0747   -5.9983   -5.2788 H   0  0  0  0  0  0  0  0  0  0  0  0
  -27.8385   -9.0070   -6.2737 O   0  0  0  0  0  0  0  0  0  0  0  0
  -28.8103   -9.7321   -6.2039 C   0  0  0  0  0  0  0  0  0  0  0  0
  -28.7811  -11.0530   -5.8163 N   0  0  0  0  0  0  0  0  0  0  0  0
  -30.0469  -11.7136   -5.9696 C   0  0  0  0  0  0  0  0  0  0  0  0
  -30.9234  -10.6179   -6.4748 C   0  0  0  0  0  0  0  0  0  0  0  0
  -32.2671  -10.6804   -6.8004 C   0  0  0  0  0  0  0  0  0  0  0  0
  -32.8920   -9.5105   -7.2268 C   0  0  0  0  0  0  0  0  0  0  0  0
  -32.1786   -8.2993   -7.2948 C   0  0  0  0  0  0  0  0  0  0  0  0
  -30.8137   -8.2193   -6.9569 C   0  0  0  0  0  0  0  0  0  0  0  0
  -30.2060   -9.4152   -6.5789 C   0  0  0  0  0  0  0  0  0  0  0  0
  -27.9130  -11.4965   -5.5469 H   0  0  0  0  0  0  0  0  0  0  0  0
  -27.5169   -1.7488   -8.0829 O   0  0  0  0  0  0  0  0  0  0  0  0
  -27.8356   -1.6208   -9.4699 C   0  0  0  0  0  0  0  0  0  0  0  0
  -26.5599   -1.8675  -10.2692 C   0  0  0  0  0  0  0  0  0  0  0  0
  -26.7339   -1.5143  -11.7495 C   0  0  0  0  0  0  0  0  0  0  0  0
  -25.5352   -0.9074  -12.3509 N   0  0  0  0  0  0  0  0  0  0  0  0
  -24.3429   -1.0893  -11.5076 C   0  0  0  0  0  0  0  0  0  0  0  0
  -23.1305   -0.3795  -12.1064 C   0  0  0  0  0  0  0  0  0  0  0  0
  -22.8555   -0.8607  -13.5235 C   0  0  0  0  0  0  0  0  0  0  0  0
  -24.1151   -0.7503  -14.3743 C   0  0  0  0  0  0  0  0  0  0  0  0
  -25.3069   -1.4375  -13.7039 C   0  0  0  0  0  0  0  0  0  0  0  0
 11 12  2  0  0  0
 12 13  1  0  0  0
 12 20  1  0  0  0
 13 14  1  0  0  0
 13 21  1  0  0  0
 14 15  1  0  0  0
 15 16  1  0  0  0
 15 20  2  0  0  0
 16 17  2  0  0  0
 17 18  1  0  0  0
 18 19  2  0  0  0
 19  1  1  0  0  0
 19 20  1  0  0  0
  1  2  2  0  0  0
  1  9  1  0  0  0
  2  3  1  0  0  0
  3  4  1  0  0  0
  3  8  2  0  0  0
  4  5  2  0  0  0
  5 22  1  0  0  0
  5  6  1  0  0  0
 22 23  1  0  0  0
 23 24  1  0  0  0
 24 25  1  0  0  0
 25 26  1  0  0  0
 26 27  1  0  0  0
 26 31  1  0  0  0
 27 28  1  0  0  0
 28 29  1  0  0  0
 29 30  1  0  0  0
 30 31  1  0  0  0
  6  7  2  0  0  0
  7  8  1  0  0  0
  8  9  1  0  0  0
  9 10  1  0  0  0
M  END
> <minimizedAffinity>
-9.09396

$$$$
