CHEMBL3612233


 32 35  0  0  0  0  0  0  0  0999 V2000
  -26.3166   -9.9476   -5.5319 O   0  0  0  0  0  0  0  0  0  0  0  0
  -26.1186   -9.1537   -4.6141 C   0  0  0  0  0  0  0  0  0  0  0  0
  -26.9361   -8.0684   -4.3474 N   0  0  0  0  0  0  0  0  0  0  0  0
  -25.0333   -9.2201   -3.7507 N   0  0  0  0  0  0  0  0  0  0  0  0
  -26.6138   -7.4000   -3.6652 H   0  0  0  0  0  0  0  0  0  0  0  0
  -25.0174   -8.5702   -2.9813 H   0  0  0  0  0  0  0  0  0  0  0  0
  -28.1054   -7.7210   -5.0704 C   0  0  0  0  0  0  0  0  0  0  0  0
  -28.8928   -8.6572   -5.7504 C   0  0  0  0  0  0  0  0  0  0  0  0
  -30.0285   -8.2635   -6.4579 C   0  0  0  0  0  0  0  0  0  0  0  0
  -30.4157   -6.9255   -6.4592 C   0  0  0  0  0  0  0  0  0  0  0  0
  -29.6683   -5.9785   -5.7543 C   0  0  0  0  0  0  0  0  0  0  0  0
  -28.5046   -6.3775   -5.0771 C   0  0  0  0  0  0  0  0  0  0  0  0
  -30.3024   -4.3218   -5.5598 S   0  0  0  0  0  0  0  0  0  0  0  0
  -29.1917   -3.3425   -6.5362 C   0  0  0  0  0  0  0  0  0  0  0  0
  -28.7137   -3.7893   -7.7673 C   0  0  0  0  0  0  0  0  0  0  0  0
  -27.8884   -2.9648   -8.5061 C   0  0  0  0  0  0  0  0  0  0  0  0
  -27.5020   -1.7297   -8.1449 N   0  0  0  0  0  0  0  0  0  0  0  0
  -27.9905   -1.2787   -6.9587 C   0  0  0  0  0  0  0  0  0  0  0  0
  -27.7136    0.0092   -6.4128 C   0  0  0  0  0  0  0  0  0  0  0  0
  -28.3440    0.2184   -5.2095 C   0  0  0  0  0  0  0  0  0  0  0  0
  -29.2614   -1.1367   -4.7272 S   0  0  0  0  0  0  0  0  0  0  0  0
  -28.8289   -2.0396   -6.1378 C   0  0  0  0  0  0  0  0  0  0  0  0
  -23.9592  -10.1394   -3.8332 C   0  0  0  0  0  0  0  0  0  0  0  0
  -23.6044  -11.0065   -2.7932 C   0  0  0  0  0  0  0  0  0  0  0  0
  -22.5389  -11.8984   -2.9207 C   0  0  0  0  0  0  0  0  0  0  0  0
  -21.8339  -11.9653   -4.1145 C   0  0  0  0  0  0  0  0  0  0  0  0
  -22.1945  -11.1493   -5.1937 C   0  0  0  0  0  0  0  0  0  0  0  0
  -23.2377  -10.2113   -5.0307 C   0  0  0  0  0  0  0  0  0  0  0  0
  -21.5159  -11.3171   -6.5292 C   0  0  0  0  0  0  0  0  0  0  0  0
  -20.6457  -10.3109   -6.8277 F   0  0  0  0  0  0  0  0  0  0  0  0
  -20.7852  -12.4658   -6.5907 F   0  0  0  0  0  0  0  0  0  0  0  0
  -22.3930  -11.3750   -7.5669 F   0  0  0  0  0  0  0  0  0  0  0  0
  1  2  2  0  0  0
  2  3  1  0  0  0
  2  4  1  0  0  0
  3  7  1  0  0  0
  3  5  1  0  0  0
  7  8  1  0  0  0
  7 12  2  0  0  0
  8  9  2  0  0  0
  9 10  1  0  0  0
 10 11  2  0  0  0
 11 13  1  0  0  0
 11 12  1  0  0  0
 13 14  1  0  0  0
 14 15  1  0  0  0
 14 22  2  0  0  0
 15 16  2  0  0  0
 16 17  1  0  0  0
 17 18  2  0  0  0
 18 19  1  0  0  0
 18 22  1  0  0  0
 19 20  2  0  0  0
 20 21  1  0  0  0
 21 22  1  0  0  0
  4 23  1  0  0  0
  4  6  1  0  0  0
 23 24  1  0  0  0
 23 28  2  0  0  0
 24 25  2  0  0  0
 25 26  1  0  0  0
 26 27  2  0  0  0
 27 29  1  0  0  0
 27 28  1  0  0  0
 29 30  1  0  0  0
 29 31  1  0  0  0
 29 32  1  0  0  0
M  END
> <minimizedAffinity>
-9.75370

$$$$
