CHEMBL452812


 25 28  0  0  0  0  0  0  0  0999 V2000
  -30.5842   -5.1146   -4.6485 C   0  0  0  0  0  0  0  0  0  0  0  0
  -30.1782   -3.9050   -4.2310 C   0  0  0  0  0  0  0  0  0  0  0  0
  -30.9919   -3.6078   -3.0190 C   0  0  0  0  0  0  0  0  0  0  0  0
  -30.9935   -2.5987   -2.3560 O   0  0  0  0  0  0  0  0  0  0  0  0
  -31.7812   -4.7112   -2.7847 N   0  0  0  0  0  0  0  0  0  0  0  0
  -31.5618   -5.7567   -3.7208 C   0  0  0  0  0  0  0  0  0  0  0  0
  -32.4122   -4.7371   -1.9883 H   0  0  0  0  0  0  0  0  0  0  0  0
  -29.0886   -3.1143   -4.6836 C   0  0  0  0  0  0  0  0  0  0  0  0
  -27.7507   -3.3956   -4.4922 C   0  0  0  0  0  0  0  0  0  0  0  0
  -27.0544   -2.3393   -5.0175 N   0  0  0  0  0  0  0  0  0  0  0  0
  -27.8895   -1.2483   -5.0613 C   0  0  0  0  0  0  0  0  0  0  0  0
  -27.6342    0.1257   -5.0211 C   0  0  0  0  0  0  0  0  0  0  0  0
  -28.7263    0.9765   -5.2151 C   0  0  0  0  0  0  0  0  0  0  0  0
  -29.9774    0.4708   -5.5635 C   0  0  0  0  0  0  0  0  0  0  0  0
  -30.2146   -0.9073   -5.5605 C   0  0  0  0  0  0  0  0  0  0  0  0
  -29.1742   -1.7764   -5.1810 C   0  0  0  0  0  0  0  0  0  0  0  0
  -26.0713   -2.3315   -5.2459 H   0  0  0  0  0  0  0  0  0  0  0  0
  -29.0934   -7.3902   -7.9537 C   0  0  0  0  0  0  0  0  0  0  0  0
  -28.8669   -6.0189   -7.8846 C   0  0  0  0  0  0  0  0  0  0  0  0
  -29.3663   -5.2709   -6.8031 C   0  0  0  0  0  0  0  0  0  0  0  0
  -30.0876   -5.8951   -5.7862 C   0  0  0  0  0  0  0  0  0  0  0  0
  -30.3259   -7.2732   -5.8630 C   0  0  0  0  0  0  0  0  0  0  0  0
  -29.8297   -8.0133   -6.9420 C   0  0  0  0  0  0  0  0  0  0  0  0
  -29.4111   -9.4073   -9.1710 C   0  0  0  0  0  0  0  0  0  0  0  0
  -28.6504   -8.2253   -8.9443 O   0  0  0  0  0  0  0  0  0  0  0  0
 24 25  1  0  0  0
 25 18  1  0  0  0
 18 19  1  0  0  0
 18 23  2  0  0  0
 19 20  2  0  0  0
 20 21  1  0  0  0
 21  1  1  0  0  0
 21 22  2  0  0  0
  1  2  2  0  0  0
  1  6  1  0  0  0
  2  8  1  0  0  0
  2  3  1  0  0  0
  8  9  2  0  0  0
  8 16  1  0  0  0
  9 10  1  0  0  0
 10 11  1  0  0  0
 10 17  1  0  0  0
 11 12  1  0  0  0
 11 16  2  0  0  0
 12 13  2  0  0  0
 13 14  1  0  0  0
 14 15  2  0  0  0
 15 16  1  0  0  0
  3  4  2  0  0  0
  3  5  1  0  0  0
  5  6  1  0  0  0
  5  7  1  0  0  0
 22 23  1  0  0  0
M  END
> <minimizedAffinity>
-8.71802

$$$$
