CHEMBL3897215


 37 41  0  0  0  0  0  0  0  0999 V2000
  -23.5858    0.4889  -13.5301 C   0  0  0  0  0  0  0  0  0  0  0  0
  -23.1686    1.8297  -13.6834 C   0  0  0  0  0  0  0  0  0  0  0  0
  -21.8883    2.1904  -14.0724 C   0  0  0  0  0  0  0  0  0  0  0  0
  -21.5789    3.4884  -14.1396 N   0  0  0  0  0  0  0  0  0  0  0  0
  -20.3288    3.7874  -14.5042 C   0  0  0  0  0  0  0  0  0  0  0  0
  -19.3763    2.9090  -14.8232 N   0  0  0  0  0  0  0  0  0  0  0  0
  -19.7009    1.6042  -14.7621 C   0  0  0  0  0  0  0  0  0  0  0  0
  -20.9777    1.1791  -14.3583 C   0  0  0  0  0  0  0  0  0  0  0  0
  -21.3823   -0.1689  -14.2278 C   0  0  0  0  0  0  0  0  0  0  0  0
  -22.6790   -0.5261  -13.8406 C   0  0  0  0  0  0  0  0  0  0  0  0
  -18.7396    0.6155  -15.1052 N   0  0  0  0  0  0  0  0  0  0  0  0
  -19.0091    0.1913  -15.9874 H   0  0  0  0  0  0  0  0  0  0  0  0
  -17.3395    0.6610  -14.9639 C   0  0  0  0  0  0  0  0  0  0  0  0
  -16.6695    0.0876  -13.8775 C   0  0  0  0  0  0  0  0  0  0  0  0
  -15.2749    0.1360  -13.7864 C   0  0  0  0  0  0  0  0  0  0  0  0
  -14.5238    0.7228  -14.8066 C   0  0  0  0  0  0  0  0  0  0  0  0
  -12.8117    0.7651  -14.6190 Cl  0  0  0  0  0  0  0  0  0  0  0  0
  -15.1771    1.2427  -15.9241 C   0  0  0  0  0  0  0  0  0  0  0  0
  -14.3209    1.9544  -17.2467 Cl  0  0  0  0  0  0  0  0  0  0  0  0
  -16.5715    1.1988  -16.0054 C   0  0  0  0  0  0  0  0  0  0  0  0
  -22.8217   -1.8795  -13.7677 O   0  0  0  0  0  0  0  0  0  0  0  0
  -23.1380   -2.4908  -12.5290 C   0  0  0  0  0  0  0  0  0  0  0  0
  -24.8378    0.1634  -13.0539 O   0  0  0  0  0  0  0  0  0  0  0  0
  -24.8350   -0.2813  -11.6855 C   0  0  0  0  0  0  0  0  0  0  0  0
  -27.3183   -1.7687   -9.5719 C   0  0  0  0  0  0  0  0  0  0  0  0
  -26.2102   -1.1213   -9.8545 N   0  0  0  0  0  0  0  0  0  0  0  0
  -26.1019   -0.9110  -11.2202 C   0  0  0  0  0  0  0  0  0  0  0  0
  -27.1893   -1.3375  -11.9535 C   0  0  0  0  0  0  0  0  0  0  0  0
  -28.3553   -2.0492  -10.9118 S   0  0  0  0  0  0  0  0  0  0  0  0
  -28.1905   -1.6435   -5.8839 N   0  0  0  0  0  0  0  0  0  0  0  0
  -29.4100   -2.4694   -5.9339 C   0  0  0  0  0  0  0  0  0  0  0  0
  -29.2107   -3.7004   -6.8219 C   0  0  0  0  0  0  0  0  0  0  0  0
  -28.7909   -3.3173   -8.2406 C   0  0  0  0  0  0  0  0  0  0  0  0
  -27.5860   -2.3698   -8.2176 C   0  0  0  0  0  0  0  0  0  0  0  0
  -27.8370   -1.2004   -7.2428 C   0  0  0  0  0  0  0  0  0  0  0  0
  -29.4730    0.4768   -5.4725 C   0  0  0  0  0  0  0  0  0  0  0  0
  -28.3975   -0.4924   -4.9842 C   0  0  0  0  0  0  0  0  0  0  0  0
 36 37  1  0  0  0
 37 30  1  0  0  0
 30 31  1  0  0  0
 30 35  1  0  0  0
 31 32  1  0  0  0
 32 33  1  0  0  0
 33 34  1  0  0  0
 34 25  1  0  0  0
 34 35  1  0  0  0
 25 26  2  0  0  0
 25 29  1  0  0  0
 26 27  1  0  0  0
 27 24  1  0  0  0
 27 28  2  0  0  0
 24 23  1  0  0  0
 23  1  1  0  0  0
  1  2  1  0  0  0
  1 10  2  0  0  0
  2  3  2  0  0  0
  3  4  1  0  0  0
  3  8  1  0  0  0
  4  5  2  0  0  0
  5  6  1  0  0  0
  6  7  2  0  0  0
  7 11  1  0  0  0
  7  8  1  0  0  0
 11 13  1  0  0  0
 11 12  1  0  0  0
 13 14  1  0  0  0
 13 20  2  0  0  0
 14 15  2  0  0  0
 15 16  1  0  0  0
 16 17  1  0  0  0
 16 18  2  0  0  0
 18 19  1  0  0  0
 18 20  1  0  0  0
  8  9  2  0  0  0
  9 10  1  0  0  0
 10 21  1  0  0  0
 21 22  1  0  0  0
 28 29  1  0  0  0
M  END
> <minimizedAffinity>
-8.24364

$$$$
