CHEMBL3965770


 38 41  0  0  0  0  0  0  0  0999 V2000
  -26.8186   -1.6255  -14.1829 C   0  0  0  0  0  0  0  0  0  0  0  0
  -25.5171   -1.5543  -13.4286 C   0  0  0  0  0  0  0  0  0  0  0  0
  -24.3679   -1.1268  -14.1385 C   0  0  0  0  0  0  0  0  0  0  0  0
  -23.1551   -1.0069  -13.4730 C   0  0  0  0  0  0  0  0  0  0  0  0
  -23.0351   -1.2126  -12.1540 N   0  0  0  0  0  0  0  0  0  0  0  0
  -24.1327   -1.6504  -11.4952 C   0  0  0  0  0  0  0  0  0  0  0  0
  -25.3900   -1.8712  -12.0626 C   0  0  0  0  0  0  0  0  0  0  0  0
  -26.4793   -2.3990  -11.3001 N   0  0  0  0  0  0  0  0  0  0  0  0
  -26.7890   -1.9902  -10.0065 C   0  0  0  0  0  0  0  0  0  0  0  0
  -26.1741   -1.1302   -9.3804 O   0  0  0  0  0  0  0  0  0  0  0  0
  -27.8457   -2.6848   -9.4431 N   0  0  0  0  0  0  0  0  0  0  0  0
  -27.0051   -3.1651  -11.6901 H   0  0  0  0  0  0  0  0  0  0  0  0
  -27.8954   -3.6674   -9.6839 H   0  0  0  0  0  0  0  0  0  0  0  0
  -28.2663   -2.3825   -8.1154 C   0  0  0  0  0  0  0  0  0  0  0  0
  -28.3502   -1.0650   -7.6343 C   0  0  0  0  0  0  0  0  0  0  0  0
  -28.7038   -0.8020   -6.2944 C   0  0  0  0  0  0  0  0  0  0  0  0
  -28.9590   -1.8857   -5.4376 C   0  0  0  0  0  0  0  0  0  0  0  0
  -28.8937   -3.1964   -5.9138 C   0  0  0  0  0  0  0  0  0  0  0  0
  -28.5722   -3.4316   -7.2481 C   0  0  0  0  0  0  0  0  0  0  0  0
  -28.4893   -4.6977   -7.6866 F   0  0  0  0  0  0  0  0  0  0  0  0
  -28.8068    0.6207   -5.7804 C   0  0  0  0  0  0  0  0  0  0  0  0
  -30.2359    1.0128   -5.4361 C   0  0  0  0  0  0  0  0  0  0  0  0
  -28.0392    0.8259   -4.6699 F   0  0  0  0  0  0  0  0  0  0  0  0
  -28.3478    1.5241   -6.6988 F   0  0  0  0  0  0  0  0  0  0  0  0
  -22.0255   -0.6413  -14.2022 O   0  0  0  0  0  0  0  0  0  0  0  0
  -21.7623    0.7124  -14.3263 C   0  0  0  0  0  0  0  0  0  0  0  0
  -22.5969    1.6893  -13.7858 C   0  0  0  0  0  0  0  0  0  0  0  0
  -22.2589    3.0073  -13.9859 C   0  0  0  0  0  0  0  0  0  0  0  0
  -21.1433    3.3986  -14.6236 N   0  0  0  0  0  0  0  0  0  0  0  0
  -20.3121    2.4617  -15.1123 C   0  0  0  0  0  0  0  0  0  0  0  0
  -20.5849    1.1012  -14.9781 C   0  0  0  0  0  0  0  0  0  0  0  0
  -19.1367    2.8706  -15.7748 N   0  0  0  0  0  0  0  0  0  0  0  0
  -17.8666    2.6685  -15.2761 C   0  0  0  0  0  0  0  0  0  0  0  0
  -17.5536    2.1330  -14.2218 O   0  0  0  0  0  0  0  0  0  0  0  0
  -19.2456    3.3594  -16.6477 H   0  0  0  0  0  0  0  0  0  0  0  0
  -16.7279    3.1703  -16.1083 C   0  0  0  0  0  0  0  0  0  0  0  0
  -15.6148    2.2235  -16.4949 C   0  0  0  0  0  0  0  0  0  0  0  0
  -15.3161    3.4349  -15.6577 C   0  0  0  0  0  0  0  0  0  0  0  0
  1  2  1  0  0  0
  2  3  1  0  0  0
  2  7  2  0  0  0
  3  4  2  0  0  0
  4 25  1  0  0  0
  4  5  1  0  0  0
 25 26  1  0  0  0
 26 27  1  0  0  0
 26 31  2  0  0  0
 27 28  2  0  0  0
 28 29  1  0  0  0
 29 30  2  0  0  0
 30 32  1  0  0  0
 30 31  1  0  0  0
 32 33  1  0  0  0
 32 35  1  0  0  0
 33 34  2  0  0  0
 33 36  1  0  0  0
 36 37  1  0  0  0
 36 38  1  0  0  0
 37 38  1  0  0  0
  5  6  2  0  0  0
  6  7  1  0  0  0
  7  8  1  0  0  0
  8  9  1  0  0  0
  8 12  1  0  0  0
  9 10  2  0  0  0
  9 11  1  0  0  0
 11 14  1  0  0  0
 11 13  1  0  0  0
 14 15  1  0  0  0
 14 19  2  0  0  0
 15 16  2  0  0  0
 16 21  1  0  0  0
 16 17  1  0  0  0
 21 22  1  0  0  0
 21 23  1  0  0  0
 21 24  1  0  0  0
 17 18  2  0  0  0
 18 19  1  0  0  0
 19 20  1  0  0  0
M  END
> <minimizedAffinity>
-11.88739

$$$$
