CHEMBL220057


 32 35  0  0  0  0  0  0  0  0999 V2000
  -29.8738   -6.5867   -5.8128 C   0  0  0  0  0  0  0  0  0  0  0  0
  -28.9053   -7.4921   -5.3648 C   0  0  0  0  0  0  0  0  0  0  0  0
  -28.5290   -8.5982   -6.1391 C   0  0  0  0  0  0  0  0  0  0  0  0
  -29.1259   -8.8486   -7.3798 C   0  0  0  0  0  0  0  0  0  0  0  0
  -30.1737   -7.9826   -7.7627 C   0  0  0  0  0  0  0  0  0  0  0  0
  -30.5405   -6.8610   -7.0010 C   0  0  0  0  0  0  0  0  0  0  0  0
  -28.7055   -9.9828   -8.2342 C   0  0  0  0  0  0  0  0  0  0  0  0
  -29.1049  -11.3161   -7.9744 C   0  0  0  0  0  0  0  0  0  0  0  0
  -28.8316  -12.3629   -8.8605 C   0  0  0  0  0  0  0  0  0  0  0  0
  -28.2210  -12.1190  -10.0890 C   0  0  0  0  0  0  0  0  0  0  0  0
  -27.7995  -10.8102  -10.3297 C   0  0  0  0  0  0  0  0  0  0  0  0
  -27.2423  -10.2287  -11.4364 N   0  0  0  0  0  0  0  0  0  0  0  0
  -26.7698   -8.9923  -11.2277 N   0  0  0  0  0  0  0  0  0  0  0  0
  -27.1456   -8.7228   -9.9810 C   0  0  0  0  0  0  0  0  0  0  0  0
  -26.8026   -7.5886   -9.3584 N   0  0  0  0  0  0  0  0  0  0  0  0
  -27.9296   -9.7728   -9.4075 C   0  0  0  0  0  0  0  0  0  0  0  0
  -27.1540  -10.6257  -12.3642 H   0  0  0  0  0  0  0  0  0  0  0  0
  -26.1974   -6.9251   -9.8230 H   0  0  0  0  0  0  0  0  0  0  0  0
  -26.9215   -7.4584   -8.3593 H   0  0  0  0  0  0  0  0  0  0  0  0
  -29.7887   -3.1282   -4.6676 N   0  0  0  0  0  0  0  0  0  0  0  0
  -29.4077   -4.2322   -5.4152 C   0  0  0  0  0  0  0  0  0  0  0  0
  -28.5364   -4.2218   -6.2787 O   0  0  0  0  0  0  0  0  0  0  0  0
  -30.1436   -5.3759   -5.1167 N   0  0  0  0  0  0  0  0  0  0  0  0
  -30.3176   -3.3030   -3.8276 H   0  0  0  0  0  0  0  0  0  0  0  0
  -31.1035   -5.2147   -4.8469 H   0  0  0  0  0  0  0  0  0  0  0  0
  -30.6225    1.5374   -6.1725 C   0  0  0  0  0  0  0  0  0  0  0  0
  -29.7115    0.4878   -5.6056 C   0  0  0  0  0  0  0  0  0  0  0  0
  -28.3896    0.8280   -5.2931 C   0  0  0  0  0  0  0  0  0  0  0  0
  -27.5303   -0.1312   -4.7752 C   0  0  0  0  0  0  0  0  0  0  0  0
  -27.9836   -1.4319   -4.5778 C   0  0  0  0  0  0  0  0  0  0  0  0
  -29.3081   -1.8049   -4.8671 C   0  0  0  0  0  0  0  0  0  0  0  0
  -30.1619   -0.8234   -5.3931 C   0  0  0  0  0  0  0  0  0  0  0  0
 26 27  1  0  0  0
 27 28  1  0  0  0
 27 32  2  0  0  0
 28 29  2  0  0  0
 29 30  1  0  0  0
 30 31  2  0  0  0
 31 20  1  0  0  0
 31 32  1  0  0  0
 20 21  1  0  0  0
 20 24  1  0  0  0
 21 22  2  0  0  0
 21 23  1  0  0  0
 23  1  1  0  0  0
 23 25  1  0  0  0
  1  2  1  0  0  0
  1  6  2  0  0  0
  2  3  2  0  0  0
  3  4  1  0  0  0
  4  7  1  0  0  0
  4  5  2  0  0  0
  7  8  1  0  0  0
  7 16  2  0  0  0
  8  9  2  0  0  0
  9 10  1  0  0  0
 10 11  2  0  0  0
 11 12  1  0  0  0
 11 16  1  0  0  0
 12 13  1  0  0  0
 12 17  1  0  0  0
 13 14  2  0  0  0
 14 15  1  0  0  0
 14 16  1  0  0  0
 15 18  1  0  0  0
 15 19  1  0  0  0
  5  6  1  0  0  0
M  END
> <minimizedAffinity>
-9.55006

$$$$
