CHEMBL3690380


 41 44  0  0  0  0  0  0  0  0999 V2000
  -14.2882   -0.4670  -14.0333 C   0  0  0  0  0  0  0  0  0  0  0  0
  -15.6195   -0.7245  -13.4718 C   0  0  0  0  0  0  0  0  0  0  0  0
  -16.6880   -0.0327  -13.9042 C   0  0  0  0  0  0  0  0  0  0  0  0
  -16.5303    0.9678  -14.8709 N   0  0  0  0  0  0  0  0  0  0  0  0
  -17.4390    1.8683  -15.4402 C   0  0  0  0  0  0  0  0  0  0  0  0
  -16.6713    2.5625  -16.3655 C   0  0  0  0  0  0  0  0  0  0  0  0
  -15.3632    2.1636  -16.3693 N   0  0  0  0  0  0  0  0  0  0  0  0
  -15.2887    1.2256  -15.4530 C   0  0  0  0  0  0  0  0  0  0  0  0
  -14.1662    0.4696  -15.0050 C   0  0  0  0  0  0  0  0  0  0  0  0
  -18.8552    2.0740  -15.0806 C   0  0  0  0  0  0  0  0  0  0  0  0
  -19.3951    3.3645  -15.0452 C   0  0  0  0  0  0  0  0  0  0  0  0
  -20.7253    3.5788  -14.7091 C   0  0  0  0  0  0  0  0  0  0  0  0
  -21.5661    2.4964  -14.4758 C   0  0  0  0  0  0  0  0  0  0  0  0
  -21.0989    1.1862  -14.5841 C   0  0  0  0  0  0  0  0  0  0  0  0
  -19.7298    0.9842  -14.8516 C   0  0  0  0  0  0  0  0  0  0  0  0
  -21.9649    0.0629  -14.4520 N   0  0  0  0  0  0  0  0  0  0  0  0
  -22.6184   -0.3189  -13.3036 C   0  0  0  0  0  0  0  0  0  0  0  0
  -22.5723    0.2260  -12.2061 O   0  0  0  0  0  0  0  0  0  0  0  0
  -23.3595   -1.4711  -13.4573 N   0  0  0  0  0  0  0  0  0  0  0  0
  -22.1408   -0.4753  -15.2875 H   0  0  0  0  0  0  0  0  0  0  0  0
  -23.7645   -1.6379  -14.3660 H   0  0  0  0  0  0  0  0  0  0  0  0
  -24.1068   -1.9700  -12.2878 C   0  0  0  0  0  0  0  0  0  0  0  0
  -25.5985   -1.6080  -12.2236 C   0  0  0  0  0  0  0  0  0  0  0  0
  -25.7972   -0.3056  -11.9159 F   0  0  0  0  0  0  0  0  0  0  0  0
  -26.1711   -1.8125  -13.4380 F   0  0  0  0  0  0  0  0  0  0  0  0
  -26.2771   -2.3612  -11.3340 F   0  0  0  0  0  0  0  0  0  0  0  0
  -13.2733   -2.3892  -12.9154 C   0  0  0  0  0  0  0  0  0  0  0  0
  -13.1121   -1.2490  -13.6149 C   0  0  0  0  0  0  0  0  0  0  0  0
  -11.8774   -0.7343  -13.9536 N   0  0  0  0  0  0  0  0  0  0  0  0
  -11.1187   -1.0474  -13.3483 H   0  0  0  0  0  0  0  0  0  0  0  0
  -11.8819    0.2818  -14.0248 H   0  0  0  0  0  0  0  0  0  0  0  0
  -12.1817   -3.2988  -12.4229 C   0  0  0  0  0  0  0  0  0  0  0  0
  -11.3628   -4.1494  -10.2398 N   0  0  0  0  0  0  0  0  0  0  0  0
  -12.3721   -3.9542  -11.0349 C   0  0  0  0  0  0  0  0  0  0  0  0
  -10.4952   -3.7840  -10.6411 H   0  0  0  0  0  0  0  0  0  0  0  0
  -13.6346   -4.3531  -10.6342 N   0  0  0  0  0  0  0  0  0  0  0  0
  -14.1916   -5.6600  -11.0269 C   0  0  0  0  0  0  0  0  0  0  0  0
  -15.5056   -5.4406  -11.7851 C   0  0  0  0  0  0  0  0  0  0  0  0
  -16.4481   -4.7113  -10.9786 O   0  0  0  0  0  0  0  0  0  0  0  0
  -15.9111   -3.4263  -10.6227 C   0  0  0  0  0  0  0  0  0  0  0  0
  -14.5842   -3.5515   -9.8543 C   0  0  0  0  0  0  0  0  0  0  0  0
 33 34  2  0  0  0
 33 35  1  0  0  0
 34 32  1  0  0  0
 34 36  1  0  0  0
 32 27  1  0  0  0
 27 28  2  0  0  0
 28 29  1  0  0  0
 28  1  1  0  0  0
 29 30  1  0  0  0
 29 31  1  0  0  0
  1  2  1  0  0  0
  1  9  2  0  0  0
  2  3  2  0  0  0
  3  4  1  0  0  0
  4  5  1  0  0  0
  4  8  1  0  0  0
  5 10  1  0  0  0
  5  6  2  0  0  0
 10 11  1  0  0  0
 10 15  2  0  0  0
 11 12  2  0  0  0
 12 13  1  0  0  0
 13 14  2  0  0  0
 14 16  1  0  0  0
 14 15  1  0  0  0
 16 17  1  0  0  0
 16 20  1  0  0  0
 17 18  2  0  0  0
 17 19  1  0  0  0
 19 22  1  0  0  0
 19 21  1  0  0  0
 22 23  1  0  0  0
 23 24  1  0  0  0
 23 25  1  0  0  0
 23 26  1  0  0  0
  6  7  1  0  0  0
  7  8  2  0  0  0
  8  9  1  0  0  0
 36 37  1  0  0  0
 36 41  1  0  0  0
 37 38  1  0  0  0
 38 39  1  0  0  0
 39 40  1  0  0  0
 40 41  1  0  0  0
M  END
> <minimizedAffinity>
-9.66984

$$$$
