CHEMBL2204530


 39 42  0  0  0  0  0  0  0  0999 V2000
  -28.2499   -3.0134   -7.8613 C   0  0  0  0  0  0  0  0  0  0  0  0
  -28.6531   -2.9058   -6.5221 C   0  0  0  0  0  0  0  0  0  0  0  0
  -28.8528   -4.0417   -5.7439 C   0  0  0  0  0  0  0  0  0  0  0  0
  -28.6719   -5.3060   -6.2956 C   0  0  0  0  0  0  0  0  0  0  0  0
  -28.7213   -6.3362   -5.4421 F   0  0  0  0  0  0  0  0  0  0  0  0
  -28.3547   -5.4695   -7.6511 C   0  0  0  0  0  0  0  0  0  0  0  0
  -28.1339   -4.3071   -8.4186 C   0  0  0  0  0  0  0  0  0  0  0  0
  -28.1947   -6.7294   -8.2976 N   0  0  0  0  0  0  0  0  0  0  0  0
  -29.1260   -7.7593   -8.3040 C   0  0  0  0  0  0  0  0  0  0  0  0
  -30.2736   -7.6839   -7.8785 O   0  0  0  0  0  0  0  0  0  0  0  0
  -27.4123   -6.8090   -8.9319 H   0  0  0  0  0  0  0  0  0  0  0  0
  -28.7285   -9.0436   -8.9641 C   0  0  0  0  0  0  0  0  0  0  0  0
  -29.5834   -9.7994   -9.7716 C   0  0  0  0  0  0  0  0  0  0  0  0
  -29.1114  -10.9710  -10.3754 C   0  0  0  0  0  0  0  0  0  0  0  0
  -27.7823  -11.3788  -10.2069 C   0  0  0  0  0  0  0  0  0  0  0  0
  -26.9071  -10.6037   -9.4535 C   0  0  0  0  0  0  0  0  0  0  0  0
  -27.3953   -9.4644   -8.8083 C   0  0  0  0  0  0  0  0  0  0  0  0
  -25.5837  -10.8560   -9.2440 O   0  0  0  0  0  0  0  0  0  0  0  0
  -25.1105  -11.5450   -8.0596 C   0  0  0  0  0  0  0  0  0  0  0  0
  -26.2725  -12.4648   -7.6409 C   0  0  0  0  0  0  0  0  0  0  0  0
  -23.9145  -12.4245   -8.4402 C   0  0  0  0  0  0  0  0  0  0  0  0
  -24.7907  -10.6814   -6.8961 C   0  0  0  0  0  0  0  0  0  0  0  0
  -24.5143   -9.9854   -6.0074 N   0  0  0  0  0  0  0  0  0  0  0  0
  -27.9363   -1.8457   -8.6030 N   0  0  0  0  0  0  0  0  0  0  0  0
  -27.9157   -0.6187   -7.7992 C   0  0  0  0  0  0  0  0  0  0  0  0
  -23.9916   -1.1465  -13.0224 C   0  0  0  0  0  0  0  0  0  0  0  0
  -25.2480   -1.1323  -13.3838 N   0  0  0  0  0  0  0  0  0  0  0  0
  -26.0351   -1.3780  -12.2835 C   0  0  0  0  0  0  0  0  0  0  0  0
  -27.4329   -1.4013  -12.2352 C   0  0  0  0  0  0  0  0  0  0  0  0
  -28.0285   -1.6107  -10.9938 C   0  0  0  0  0  0  0  0  0  0  0  0
  -27.2448   -1.7765   -9.8393 C   0  0  0  0  0  0  0  0  0  0  0  0
  -25.8879   -1.7925   -9.8715 N   0  0  0  0  0  0  0  0  0  0  0  0
  -25.3512   -1.5973  -11.0966 C   0  0  0  0  0  0  0  0  0  0  0  0
  -23.6645   -1.5670  -11.3965 S   0  0  0  0  0  0  0  0  0  0  0  0
  -21.3160    0.5913  -14.8927 C   0  0  0  0  0  0  0  0  0  0  0  0
  -22.5254    0.4616  -14.0052 C   0  0  0  0  0  0  0  0  0  0  0  0
  -23.0599    1.4653  -13.5457 O   0  0  0  0  0  0  0  0  0  0  0  0
  -22.8980   -0.8516  -13.7938 N   0  0  0  0  0  0  0  0  0  0  0  0
  -22.3028   -1.6142  -14.0788 H   0  0  0  0  0  0  0  0  0  0  0  0
 35 36  1  0  0  0
 36 37  2  0  0  0
 36 38  1  0  0  0
 38 26  1  0  0  0
 38 39  1  0  0  0
 26 27  2  0  0  0
 26 34  1  0  0  0
 27 28  1  0  0  0
 28 29  1  0  0  0
 28 33  2  0  0  0
 29 30  2  0  0  0
 30 31  1  0  0  0
 31 24  1  0  0  0
 31 32  2  0  0  0
 24 25  1  0  0  0
 24  1  1  0  0  0
  1  2  1  0  0  0
  1  7  2  0  0  0
  2  3  2  0  0  0
  3  4  1  0  0  0
  4  5  1  0  0  0
  4  6  2  0  0  0
  6  8  1  0  0  0
  6  7  1  0  0  0
  8  9  1  0  0  0
  8 11  1  0  0  0
  9 10  2  0  0  0
  9 12  1  0  0  0
 12 13  1  0  0  0
 12 17  2  0  0  0
 13 14  2  0  0  0
 14 15  1  0  0  0
 15 16  2  0  0  0
 16 18  1  0  0  0
 16 17  1  0  0  0
 18 19  1  0  0  0
 19 20  1  0  0  0
 19 21  1  0  0  0
 19 22  1  0  0  0
 22 23  3  0  0  0
 32 33  1  0  0  0
 33 34  1  0  0  0
M  END
> <minimizedAffinity>
-9.61200

$$$$
