CHEMBL225192


 36 40  0  0  0  0  0  0  0  0999 V2000
  -27.5230   -1.6150  -10.3747 C   0  0  0  0  0  0  0  0  0  0  0  0
  -28.0379   -2.1348  -11.5883 C   0  0  0  0  0  0  0  0  0  0  0  0
  -27.3315   -2.0793  -12.7872 C   0  0  0  0  0  0  0  0  0  0  0  0
  -26.1543   -1.3789  -12.7834 C   0  0  0  0  0  0  0  0  0  0  0  0
  -25.6461   -0.7597  -11.6090 C   0  0  0  0  0  0  0  0  0  0  0  0
  -26.3051   -0.9036  -10.3951 C   0  0  0  0  0  0  0  0  0  0  0  0
  -24.3650    0.0508  -11.8758 C   0  0  0  0  0  0  0  0  0  0  0  0
  -24.2648   -0.2323  -13.3393 C   0  0  0  0  0  0  0  0  0  0  0  0
  -23.4862    0.0761  -14.4632 C   0  0  0  0  0  0  0  0  0  0  0  0
  -23.9895   -0.4883  -15.5803 N   0  0  0  0  0  0  0  0  0  0  0  0
  -25.0732   -1.1910  -15.1438 N   0  0  0  0  0  0  0  0  0  0  0  0
  -25.2512   -1.0340  -13.8103 C   0  0  0  0  0  0  0  0  0  0  0  0
  -25.6168   -1.7241  -15.8098 H   0  0  0  0  0  0  0  0  0  0  0  0
  -22.2704    0.8780  -14.4207 C   0  0  0  0  0  0  0  0  0  0  0  0
  -22.2360    2.2047  -14.0413 C   0  0  0  0  0  0  0  0  0  0  0  0
  -20.6718    2.8664  -14.0980 S   0  0  0  0  0  0  0  0  0  0  0  0
  -20.0193    1.3855  -14.6352 C   0  0  0  0  0  0  0  0  0  0  0  0
  -20.9719    0.3945  -14.7608 C   0  0  0  0  0  0  0  0  0  0  0  0
  -18.6337    1.2569  -14.9060 C   0  0  0  0  0  0  0  0  0  0  0  0
  -17.3607    1.1281  -15.1566 C   0  0  0  0  0  0  0  0  0  0  0  0
  -15.8766    0.9779  -15.4488 C   0  0  0  0  0  0  0  0  0  0  0  0
  -15.5303    1.8395  -16.5298 O   0  0  0  0  0  0  0  0  0  0  0  0
  -14.9564    3.0509  -16.0450 C   0  0  0  0  0  0  0  0  0  0  0  0
  -15.6734    4.2971  -16.5704 C   0  0  0  0  0  0  0  0  0  0  0  0
  -16.6706    4.7785  -15.7864 N   0  0  0  0  0  0  0  0  0  0  0  0
  -15.3748    4.8390  -17.6364 O   0  0  0  0  0  0  0  0  0  0  0  0
  -16.8968    4.3255  -14.9071 H   0  0  0  0  0  0  0  0  0  0  0  0
  -17.1795    5.6080  -16.0765 H   0  0  0  0  0  0  0  0  0  0  0  0
  -28.2594   -1.8659   -9.0666 C   0  0  0  0  0  0  0  0  0  0  0  0
  -30.7408   -3.7586   -5.3802 C   0  0  0  0  0  0  0  0  0  0  0  0
  -29.4390   -3.5961   -6.0062 N   0  0  0  0  0  0  0  0  0  0  0  0
  -29.4233   -4.1354   -7.3746 C   0  0  0  0  0  0  0  0  0  0  0  0
  -27.9815   -4.0383   -7.9264 C   0  0  0  0  0  0  0  0  0  0  0  0
  -27.5076   -2.6398   -8.0619 N   0  0  0  0  0  0  0  0  0  0  0  0
  -27.6338   -2.0083   -6.7199 C   0  0  0  0  0  0  0  0  0  0  0  0
  -29.0243   -2.1804   -6.0472 C   0  0  0  0  0  0  0  0  0  0  0  0
 30 31  1  0  0  0
 31 32  1  0  0  0
 31 36  1  0  0  0
 32 33  1  0  0  0
 33 34  1  0  0  0
 34 29  1  0  0  0
 34 35  1  0  0  0
 29  1  1  0  0  0
  1  2  1  0  0  0
  1  6  2  0  0  0
  2  3  2  0  0  0
  3  4  1  0  0  0
  4  5  2  0  0  0
  4 12  1  0  0  0
  5  6  1  0  0  0
  5  7  1  0  0  0
  7  8  1  0  0  0
  8  9  1  0  0  0
  8 12  2  0  0  0
  9 14  1  0  0  0
  9 10  2  0  0  0
 14 15  2  0  0  0
 14 18  1  0  0  0
 15 16  1  0  0  0
 16 17  1  0  0  0
 17 19  1  0  0  0
 17 18  2  0  0  0
 19 20  3  0  0  0
 20 21  1  0  0  0
 21 22  1  0  0  0
 22 23  1  0  0  0
 23 24  1  0  0  0
 24 25  1  0  0  0
 24 26  2  0  0  0
 25 27  1  0  0  0
 25 28  1  0  0  0
 10 11  1  0  0  0
 11 12  1  0  0  0
 11 13  1  0  0  0
 35 36  1  0  0  0
M  END
> <minimizedAffinity>
-8.42563

$$$$
