CHEMBL2016915


 33 37  0  0  0  0  0  0  0  0999 V2000
  -17.1262    1.8062  -15.7750 C   0  0  0  0  0  0  0  0  0  0  0  0
  -16.5935    0.6956  -15.8685 O   0  0  0  0  0  0  0  0  0  0  0  0
  -18.4153    1.9454  -15.2495 N   0  0  0  0  0  0  0  0  0  0  0  0
  -19.0192    3.2799  -15.0657 C   0  0  0  0  0  0  0  0  0  0  0  0
  -20.4491    3.4538  -14.5501 C   0  0  0  0  0  0  0  0  0  0  0  0
  -21.1154    2.1715  -14.3542 C   0  0  0  0  0  0  0  0  0  0  0  0
  -22.4098    2.0351  -13.9527 N   0  0  0  0  0  0  0  0  0  0  0  0
  -22.6425    0.7324  -13.9611 C   0  0  0  0  0  0  0  0  0  0  0  0
  -21.4990    0.0474  -14.3343 N   0  0  0  0  0  0  0  0  0  0  0  0
  -20.5276    0.9630  -14.5987 C   0  0  0  0  0  0  0  0  0  0  0  0
  -19.1740    0.6955  -15.0913 C   0  0  0  0  0  0  0  0  0  0  0  0
  -21.4386   -0.9653  -14.4178 H   0  0  0  0  0  0  0  0  0  0  0  0
  -23.8392    0.0074  -13.6719 C   0  0  0  0  0  0  0  0  0  0  0  0
  -24.2327   -0.0848  -12.3896 C   0  0  0  0  0  0  0  0  0  0  0  0
  -25.4444   -0.8199  -12.0312 C   0  0  0  0  0  0  0  0  0  0  0  0
  -25.8503   -0.9506  -10.7022 C   0  0  0  0  0  0  0  0  0  0  0  0
  -27.0096   -1.6782  -10.4075 C   0  0  0  0  0  0  0  0  0  0  0  0
  -27.5125   -1.8569   -8.7717 Cl  0  0  0  0  0  0  0  0  0  0  0  0
  -27.7612   -2.2671  -11.4266 C   0  0  0  0  0  0  0  0  0  0  0  0
  -27.3578   -2.1307  -12.7545 C   0  0  0  0  0  0  0  0  0  0  0  0
  -26.2032   -1.4150  -13.0477 C   0  0  0  0  0  0  0  0  0  0  0  0
  -25.7825   -1.2948  -14.3758 N   0  0  0  0  0  0  0  0  0  0  0  0
  -24.6441   -0.6365  -14.7551 C   0  0  0  0  0  0  0  0  0  0  0  0
  -24.3218   -0.5876  -15.9424 O   0  0  0  0  0  0  0  0  0  0  0  0
  -26.3153   -1.7225  -15.1218 H   0  0  0  0  0  0  0  0  0  0  0  0
  -16.3831    3.0872  -16.2316 C   0  0  0  0  0  0  0  0  0  0  0  0
  -12.6066    5.9527  -15.4511 C   0  0  0  0  0  0  0  0  0  0  0  0
  -13.0982    4.8012  -16.1958 N   0  0  0  0  0  0  0  0  0  0  0  0
  -13.5011    3.7099  -15.2906 C   0  0  0  0  0  0  0  0  0  0  0  0
  -13.9980    2.4886  -16.0966 C   0  0  0  0  0  0  0  0  0  0  0  0
  -15.1473    2.7772  -16.9884 N   0  0  0  0  0  0  0  0  0  0  0  0
  -14.7698    3.9281  -17.8471 C   0  0  0  0  0  0  0  0  0  0  0  0
  -14.2154    5.1601  -17.0857 C   0  0  0  0  0  0  0  0  0  0  0  0
 27 28  1  0  0  0
 28 29  1  0  0  0
 28 33  1  0  0  0
 29 30  1  0  0  0
 30 31  1  0  0  0
 31 26  1  0  0  0
 31 32  1  0  0  0
 26  1  1  0  0  0
  1  2  2  0  0  0
  1  3  1  0  0  0
  3  4  1  0  0  0
  3 11  1  0  0  0
  4  5  1  0  0  0
  5  6  1  0  0  0
  6  7  1  0  0  0
  6 10  2  0  0  0
  7  8  2  0  0  0
  8 13  1  0  0  0
  8  9  1  0  0  0
 13 14  2  0  0  0
 13 23  1  0  0  0
 14 15  1  0  0  0
 15 16  1  0  0  0
 15 21  2  0  0  0
 16 17  2  0  0  0
 17 18  1  0  0  0
 17 19  1  0  0  0
 19 20  2  0  0  0
 20 21  1  0  0  0
 21 22  1  0  0  0
 22 23  1  0  0  0
 22 25  1  0  0  0
 23 24  2  0  0  0
  9 10  1  0  0  0
  9 12  1  0  0  0
 10 11  1  0  0  0
 32 33  1  0  0  0
M  END
> <minimizedAffinity>
-9.14672

$$$$
