CHEMBL102301


 34 38  0  0  0  0  0  0  0  0999 V2000
  -29.4004   -6.1351   -5.5098 N   0  0  0  0  0  0  0  0  0  0  0  0
  -30.1780   -6.6633   -6.6446 C   0  0  0  0  0  0  0  0  0  0  0  0
  -30.6740   -8.0989   -6.3720 C   0  0  0  0  0  0  0  0  0  0  0  0
  -29.5380   -8.9418   -5.9744 N   0  0  0  0  0  0  0  0  0  0  0  0
  -28.8986   -8.4704   -4.7449 C   0  0  0  0  0  0  0  0  0  0  0  0
  -28.3805   -7.0358   -4.9415 C   0  0  0  0  0  0  0  0  0  0  0  0
  -28.3485   -1.1242   -6.1863 C   0  0  0  0  0  0  0  0  0  0  0  0
  -29.1976   -1.3000   -5.0770 C   0  0  0  0  0  0  0  0  0  0  0  0
  -29.6729   -2.5478   -4.6761 C   0  0  0  0  0  0  0  0  0  0  0  0
  -30.4424   -2.6211   -3.5873 N   0  0  0  0  0  0  0  0  0  0  0  0
  -30.8614   -3.8404   -3.2354 C   0  0  0  0  0  0  0  0  0  0  0  0
  -30.5576   -4.9907   -3.8510 N   0  0  0  0  0  0  0  0  0  0  0  0
  -29.7611   -4.9263   -4.9373 C   0  0  0  0  0  0  0  0  0  0  0  0
  -29.3258   -3.6743   -5.4270 C   0  0  0  0  0  0  0  0  0  0  0  0
  -28.5947   -3.4659   -6.6184 C   0  0  0  0  0  0  0  0  0  0  0  0
  -28.0557   -2.2315   -6.9782 C   0  0  0  0  0  0  0  0  0  0  0  0
  -28.7767    1.1611   -6.6701 C   0  0  0  0  0  0  0  0  0  0  0  0
  -27.8387    0.0959   -6.5400 O   0  0  0  0  0  0  0  0  0  0  0  0
  -27.2706   -2.3503   -8.0878 O   0  0  0  0  0  0  0  0  0  0  0  0
  -27.7868   -1.9997   -9.3572 C   0  0  0  0  0  0  0  0  0  0  0  0
  -29.3345  -10.2121   -6.4452 C   0  0  0  0  0  0  0  0  0  0  0  0
  -30.3994  -11.4288   -5.7331 S   0  0  0  0  0  0  0  0  0  0  0  0
  -28.5086  -10.6738   -7.3039 N   0  0  0  0  0  0  0  0  0  0  0  0
  -30.9912  -10.6098   -4.8593 H   0  0  0  0  0  0  0  0  0  0  0  0
  -27.6518   -9.7394   -8.0175 C   0  0  0  0  0  0  0  0  0  0  0  0
  -27.8610   -9.7543   -9.5165 C   0  0  0  0  0  0  0  0  0  0  0  0
  -28.9665  -10.3912  -10.1255 C   0  0  0  0  0  0  0  0  0  0  0  0
  -29.1061  -10.4244  -11.5178 C   0  0  0  0  0  0  0  0  0  0  0  0
  -28.1272   -9.8193  -12.2741 C   0  0  0  0  0  0  0  0  0  0  0  0
  -27.0529   -9.1897  -11.6935 C   0  0  0  0  0  0  0  0  0  0  0  0
  -26.8934   -9.1349  -10.3264 C   0  0  0  0  0  0  0  0  0  0  0  0
  -26.1975   -8.6633  -12.6093 O   0  0  0  0  0  0  0  0  0  0  0  0
  -26.8284   -9.0858  -13.8352 C   0  0  0  0  0  0  0  0  0  0  0  0
  -28.0823   -9.7697  -13.6324 O   0  0  0  0  0  0  0  0  0  0  0  0
 17 18  1  0  0  0
 18  7  1  0  0  0
  7  8  1  0  0  0
  7 16  2  0  0  0
  8  9  2  0  0  0
  9 10  1  0  0  0
  9 14  1  0  0  0
 10 11  2  0  0  0
 11 12  1  0  0  0
 12 13  2  0  0  0
 13  1  1  0  0  0
 13 14  1  0  0  0
  1  2  1  0  0  0
  1  6  1  0  0  0
  2  3  1  0  0  0
  3  4  1  0  0  0
  4 21  1  0  0  0
  4  5  1  0  0  0
 21 22  1  0  0  0
 21 23  2  0  0  0
 22 24  1  0  0  0
 23 25  1  0  0  0
 25 26  1  0  0  0
 26 27  1  0  0  0
 26 31  2  0  0  0
 27 28  2  0  0  0
 28 29  1  0  0  0
 29 30  2  0  0  0
 29 34  1  0  0  0
 30 31  1  0  0  0
 30 32  1  0  0  0
 32 33  1  0  0  0
 33 34  1  0  0  0
  5  6  1  0  0  0
 14 15  2  0  0  0
 15 16  1  0  0  0
 16 19  1  0  0  0
 19 20  1  0  0  0
M  END
> <minimizedAffinity>
-8.70438

$$$$
