CHEMBL2032031


 45 49  0  0  0  0  0  0  0  0999 V2000
  -16.8235    2.5194  -14.9791 N   0  0  0  0  0  0  0  0  0  0  0  0
  -15.7712    2.0709  -15.7600 C   0  0  0  0  0  0  0  0  0  0  0  0
  -15.8429    1.1142  -16.5274 O   0  0  0  0  0  0  0  0  0  0  0  0
  -16.6113    3.1974  -14.2462 H   0  0  0  0  0  0  0  0  0  0  0  0
  -20.8801    1.2437  -15.2621 C   0  0  0  0  0  0  0  0  0  0  0  0
  -19.8558    0.3049  -15.2531 C   0  0  0  0  0  0  0  0  0  0  0  0
  -18.5241    0.7176  -15.1306 C   0  0  0  0  0  0  0  0  0  0  0  0
  -18.1732    2.0745  -15.0976 C   0  0  0  0  0  0  0  0  0  0  0  0
  -19.1906    3.0171  -15.2145 C   0  0  0  0  0  0  0  0  0  0  0  0
  -20.5299    2.5944  -15.2825 C   0  0  0  0  0  0  0  0  0  0  0  0
  -21.4924    3.5338  -15.3392 F   0  0  0  0  0  0  0  0  0  0  0  0
  -22.2277    0.9340  -15.2041 O   0  0  0  0  0  0  0  0  0  0  0  0
  -26.4578   -1.7271  -13.8719 C   0  0  0  0  0  0  0  0  0  0  0  0
  -26.0184   -1.2707  -15.1052 C   0  0  0  0  0  0  0  0  0  0  0  0
  -24.7585   -0.6909  -15.2157 C   0  0  0  0  0  0  0  0  0  0  0  0
  -23.9465   -0.4685  -14.0824 C   0  0  0  0  0  0  0  0  0  0  0  0
  -22.7402    0.2779  -14.0938 C   0  0  0  0  0  0  0  0  0  0  0  0
  -21.9653    0.3661  -12.9422 C   0  0  0  0  0  0  0  0  0  0  0  0
  -22.4418   -0.2355  -11.7962 C   0  0  0  0  0  0  0  0  0  0  0  0
  -23.6247   -0.8820  -11.7240 N   0  0  0  0  0  0  0  0  0  0  0  0
  -24.3691   -0.9869  -12.8400 C   0  0  0  0  0  0  0  0  0  0  0  0
  -25.6125   -1.6085  -12.7636 C   0  0  0  0  0  0  0  0  0  0  0  0
  -28.2601   -2.0334  -12.3629 C   0  0  0  0  0  0  0  0  0  0  0  0
  -27.6743   -2.3063  -13.6327 O   0  0  0  0  0  0  0  0  0  0  0  0
  -14.4942    2.8053  -15.6366 C   0  0  0  0  0  0  0  0  0  0  0  0
  -13.2867    2.2895  -15.3084 C   0  0  0  0  0  0  0  0  0  0  0  0
  -13.0396    0.8457  -14.9943 C   0  0  0  0  0  0  0  0  0  0  0  0
  -12.2663    3.2531  -15.3505 N   0  0  0  0  0  0  0  0  0  0  0  0
  -12.9210    4.5004  -15.5704 N   0  0  0  0  0  0  0  0  0  0  0  0
  -14.2735    4.2524  -15.8500 C   0  0  0  0  0  0  0  0  0  0  0  0
  -15.1475    5.0110  -16.2447 O   0  0  0  0  0  0  0  0  0  0  0  0
  -12.2622    5.6846  -15.9661 C   0  0  0  0  0  0  0  0  0  0  0  0
  -11.6444    5.7180  -17.2239 C   0  0  0  0  0  0  0  0  0  0  0  0
  -11.0185    6.8809  -17.6803 C   0  0  0  0  0  0  0  0  0  0  0  0
  -10.9673    8.0088  -16.8644 C   0  0  0  0  0  0  0  0  0  0  0  0
  -11.5548    7.9777  -15.6001 C   0  0  0  0  0  0  0  0  0  0  0  0
  -12.2151    6.8249  -15.1575 C   0  0  0  0  0  0  0  0  0  0  0  0
  -10.9248    3.2941  -14.7049 C   0  0  0  0  0  0  0  0  0  0  0  0
  -10.8444    3.5950  -13.1905 C   0  0  0  0  0  0  0  0  0  0  0  0
  -10.9348    5.0013  -12.8930 O   0  0  0  0  0  0  0  0  0  0  0  0
  -11.4181    5.4181  -13.6271 H   0  0  0  0  0  0  0  0  0  0  0  0
  -12.0040    2.9578  -12.3982 C   0  0  0  0  0  0  0  0  0  0  0  0
  -12.1675    3.5981  -11.0836 N   0  0  0  0  0  0  0  0  0  0  0  0
  -11.2628    3.5295  -10.6045 H   0  0  0  0  0  0  0  0  0  0  0  0
  -12.7981    3.0301  -10.5196 H   0  0  0  0  0  0  0  0  0  0  0  0
 23 24  1  0  0  0
 24 13  1  0  0  0
 13 14  1  0  0  0
 13 22  2  0  0  0
 14 15  2  0  0  0
 15 16  1  0  0  0
 16 17  1  0  0  0
 16 21  2  0  0  0
 17 12  1  0  0  0
 17 18  2  0  0  0
 12  5  1  0  0  0
  5  6  1  0  0  0
  5 10  2  0  0  0
  6  7  2  0  0  0
  7  8  1  0  0  0
  8  1  1  0  0  0
  8  9  2  0  0  0
  1  2  1  0  0  0
  1  4  1  0  0  0
  2  3  2  0  0  0
  2 25  1  0  0  0
 25 26  2  0  0  0
 25 30  1  0  0  0
 26 27  1  0  0  0
 26 28  1  0  0  0
 28 38  1  0  0  0
 28 29  1  0  0  0
 38 39  1  0  0  0
 39 40  1  0  0  0
 39 42  1  0  0  0
 40 41  1  0  0  0
 42 43  1  0  0  0
 43 44  1  0  0  0
 43 45  1  0  0  0
 29 32  1  0  0  0
 29 30  1  0  0  0
 32 33  1  0  0  0
 32 37  2  0  0  0
 33 34  2  0  0  0
 34 35  1  0  0  0
 35 36  2  0  0  0
 36 37  1  0  0  0
 30 31  2  0  0  0
  9 10  1  0  0  0
 10 11  1  0  0  0
 18 19  1  0  0  0
 19 20  2  0  0  0
 20 21  1  0  0  0
 21 22  1  0  0  0
M  END
> <minimizedAffinity>
-9.16756

$$$$
