CHEMBL3648084


 33 34  0  0  0  0  0  0  0  0999 V2000
  -30.8829   -7.1172   -5.8169 N   0  0  0  0  0  0  0  0  0  0  0  0
  -31.8880   -7.0504   -5.9158 H   0  0  0  0  0  0  0  0  0  0  0  0
  -30.4798   -8.2758   -6.4893 C   0  0  0  0  0  0  0  0  0  0  0  0
  -31.1798   -8.6097   -7.5801 N   0  0  0  0  0  0  0  0  0  0  0  0
  -30.7400   -9.6911   -8.2543 C   0  0  0  0  0  0  0  0  0  0  0  0
  -29.6521  -10.4615   -7.8800 C   0  0  0  0  0  0  0  0  0  0  0  0
  -29.1144  -11.8375   -9.0544 Br  0  0  0  0  0  0  0  0  0  0  0  0
  -29.0166  -10.0793   -6.7137 C   0  0  0  0  0  0  0  0  0  0  0  0
  -29.4331   -8.9878   -6.0366 N   0  0  0  0  0  0  0  0  0  0  0  0
  -27.8740  -10.6079   -6.1383 N   0  0  0  0  0  0  0  0  0  0  0  0
  -27.9265  -11.5996   -6.3831 H   0  0  0  0  0  0  0  0  0  0  0  0
  -26.5091  -10.0729   -6.3248 C   0  0  0  0  0  0  0  0  0  0  0  0
  -25.7396  -10.8446   -7.3960 C   0  0  0  0  0  0  0  0  0  0  0  0
  -25.7824  -10.0770   -4.9262 C   0  0  0  0  0  0  0  0  0  0  0  0
  -26.6815   -9.6841   -3.7467 C   0  0  0  0  0  0  0  0  0  0  0  0
  -25.1310  -11.4318   -4.6310 C   0  0  0  0  0  0  0  0  0  0  0  0
  -24.7194   -9.1085   -4.9712 O   0  0  0  0  0  0  0  0  0  0  0  0
  -25.1096   -8.3171   -5.3947 H   0  0  0  0  0  0  0  0  0  0  0  0
  -29.0128   -3.3390   -5.8968 C   0  0  0  0  0  0  0  0  0  0  0  0
  -29.2545   -4.0040   -7.0998 C   0  0  0  0  0  0  0  0  0  0  0  0
  -29.8728   -5.2576   -7.0817 C   0  0  0  0  0  0  0  0  0  0  0  0
  -30.2447   -5.8631   -5.8724 C   0  0  0  0  0  0  0  0  0  0  0  0
  -30.0448   -5.1529   -4.6803 C   0  0  0  0  0  0  0  0  0  0  0  0
  -29.4183   -3.9025   -4.6850 C   0  0  0  0  0  0  0  0  0  0  0  0
  -29.2118   -0.7069   -5.4740 N   0  0  0  0  0  0  0  0  0  0  0  0
  -28.1754   -1.7583   -5.9059 S   0  0  0  0  0  0  0  0  0  0  0  0
  -27.8340   -1.5382   -7.6411 C   0  0  0  0  0  0  0  0  0  0  0  0
  -26.9023   -1.9625   -5.2400 O   0  0  0  0  0  0  0  0  0  0  0  0
  -28.8274    0.6185   -5.4008 C   0  0  0  0  0  0  0  0  0  0  0  0
  -27.9177    1.0283   -4.6867 O   0  0  0  0  0  0  0  0  0  0  0  0
  -29.5091    1.4075   -6.2728 O   0  0  0  0  0  0  0  0  0  0  0  0
  -31.5872    2.2589   -7.1663 C   0  0  0  0  0  0  0  0  0  0  0  0
  -30.9255    1.4684   -6.0544 C   0  0  0  0  0  0  0  0  0  0  0  0
 32 33  1  0  0  0
 33 31  1  0  0  0
 31 29  1  0  0  0
 29 30  2  0  0  0
 29 25  1  0  0  0
 25 26  2  0  0  0
 26 27  1  0  0  0
 26 28  2  0  0  0
 26 19  1  0  0  0
 19 20  1  0  0  0
 19 24  2  0  0  0
 20 21  2  0  0  0
 21 22  1  0  0  0
 22  1  1  0  0  0
 22 23  2  0  0  0
  1  3  1  0  0  0
  1  2  1  0  0  0
  3  4  1  0  0  0
  3  9  2  0  0  0
  4  5  2  0  0  0
  5  6  1  0  0  0
  6  7  1  0  0  0
  6  8  2  0  0  0
  8 10  1  0  0  0
  8  9  1  0  0  0
 10 11  1  0  0  0
 12 14  1  0  0  0
 12 13  1  0  0  0
 12 10  1  0  0  0
 14 15  1  0  0  0
 14 16  1  0  0  0
 14 17  1  0  0  0
 17 18  1  0  0  0
 23 24  1  0  0  0
M  END
> <minimizedAffinity>
-7.52531

$$$$
