CHEMBL1979883


 37 40  0  0  0  0  0  0  0  0999 V2000
  -13.8913    0.3449  -16.0708 C   0  0  0  0  0  0  0  0  0  0  0  0
  -12.6205    0.8212  -16.4025 C   0  0  0  0  0  0  0  0  0  0  0  0
  -12.4414    2.1469  -16.8160 C   0  0  0  0  0  0  0  0  0  0  0  0
  -13.5320    3.0230  -16.9419 C   0  0  0  0  0  0  0  0  0  0  0  0
  -14.8102    2.4924  -16.7208 C   0  0  0  0  0  0  0  0  0  0  0  0
  -14.9914    1.1755  -16.2616 C   0  0  0  0  0  0  0  0  0  0  0  0
  -13.3161    4.4470  -17.2832 C   0  0  0  0  0  0  0  0  0  0  0  0
  -13.6219    4.8763  -18.5621 C   0  0  0  0  0  0  0  0  0  0  0  0
  -13.2921    6.5139  -18.8332 S   0  0  0  0  0  0  0  0  0  0  0  0
  -12.7144    6.7491  -17.2261 C   0  0  0  0  0  0  0  0  0  0  0  0
  -12.2300    7.9490  -16.6729 C   0  0  0  0  0  0  0  0  0  0  0  0
  -11.8181    7.8972  -15.3613 C   0  0  0  0  0  0  0  0  0  0  0  0
  -11.8462    6.7861  -14.6071 N   0  0  0  0  0  0  0  0  0  0  0  0
  -12.2951    5.6227  -15.1275 C   0  0  0  0  0  0  0  0  0  0  0  0
  -12.2194    4.5552  -14.2421 N   0  0  0  0  0  0  0  0  0  0  0  0
  -12.7688    5.5543  -16.4730 C   0  0  0  0  0  0  0  0  0  0  0  0
  -11.6641    4.8296  -13.4388 H   0  0  0  0  0  0  0  0  0  0  0  0
  -11.9325    3.6895  -14.6816 H   0  0  0  0  0  0  0  0  0  0  0  0
  -12.1733    9.1620  -17.4296 C   0  0  0  0  0  0  0  0  0  0  0  0
  -12.1059   10.2719  -18.1104 C   0  0  0  0  0  0  0  0  0  0  0  0
  -12.0274   11.5659  -18.9041 C   0  0  0  0  0  0  0  0  0  0  0  0
  -12.6513   11.4008  -20.2268 N   0  0  0  0  0  0  0  0  0  0  0  0
  -11.9361   10.4269  -21.0591 C   0  0  0  0  0  0  0  0  0  0  0  0
  -14.0455   10.9867  -20.0741 C   0  0  0  0  0  0  0  0  0  0  0  0
  -14.2897   -2.3620  -13.6775 N   0  0  0  0  0  0  0  0  0  0  0  0
  -14.1017   -1.0583  -14.1070 C   0  0  0  0  0  0  0  0  0  0  0  0
  -14.0061   -0.0783  -13.3687 O   0  0  0  0  0  0  0  0  0  0  0  0
  -14.0636   -0.9413  -15.4947 N   0  0  0  0  0  0  0  0  0  0  0  0
  -14.1947   -3.0915  -14.3664 H   0  0  0  0  0  0  0  0  0  0  0  0
  -14.6860   -1.5693  -15.9816 H   0  0  0  0  0  0  0  0  0  0  0  0
  -12.3910   -4.4898   -9.5932 C   0  0  0  0  0  0  0  0  0  0  0  0
  -13.5201   -3.8146  -10.3136 C   0  0  0  0  0  0  0  0  0  0  0  0
  -14.7243   -3.5863   -9.6372 C   0  0  0  0  0  0  0  0  0  0  0  0
  -15.7790   -2.9679  -10.2802 C   0  0  0  0  0  0  0  0  0  0  0  0
  -15.6482   -2.5640  -11.6122 C   0  0  0  0  0  0  0  0  0  0  0  0
  -14.4640   -2.7598  -12.3243 C   0  0  0  0  0  0  0  0  0  0  0  0
  -13.3958   -3.3984  -11.6608 C   0  0  0  0  0  0  0  0  0  0  0  0
 31 32  1  0  0  0
 32 33  1  0  0  0
 32 37  2  0  0  0
 33 34  2  0  0  0
 34 35  1  0  0  0
 35 36  2  0  0  0
 36 25  1  0  0  0
 36 37  1  0  0  0
 25 26  1  0  0  0
 25 29  1  0  0  0
 26 27  2  0  0  0
 26 28  1  0  0  0
 28  1  1  0  0  0
 28 30  1  0  0  0
  1  2  1  0  0  0
  1  6  2  0  0  0
  2  3  2  0  0  0
  3  4  1  0  0  0
  4  7  1  0  0  0
  4  5  2  0  0  0
  7  8  2  0  0  0
  7 16  1  0  0  0
  8  9  1  0  0  0
  9 10  1  0  0  0
 10 11  1  0  0  0
 10 16  2  0  0  0
 11 19  1  0  0  0
 11 12  2  0  0  0
 19 20  3  0  0  0
 20 21  1  0  0  0
 21 22  1  0  0  0
 22 23  1  0  0  0
 22 24  1  0  0  0
 12 13  1  0  0  0
 13 14  2  0  0  0
 14 15  1  0  0  0
 14 16  1  0  0  0
 15 17  1  0  0  0
 15 18  1  0  0  0
  5  6  1  0  0  0
M  END
> <minimizedAffinity>
-6.40661

$$$$
