CHEMBL370493


 38 44  0  0  0  0  0  0  0  0999 V2000
  -29.4154   -5.3512   -7.0441 N   0  0  0  0  0  0  0  0  0  0  0  0
  -29.9904   -5.3478   -5.7404 C   0  0  0  0  0  0  0  0  0  0  0  0
  -30.5514   -6.3894   -4.9741 C   0  0  0  0  0  0  0  0  0  0  0  0
  -31.1058   -6.0886   -3.7231 C   0  0  0  0  0  0  0  0  0  0  0  0
  -31.0979   -4.7916   -3.2280 C   0  0  0  0  0  0  0  0  0  0  0  0
  -30.5419   -3.7586   -3.9780 C   0  0  0  0  0  0  0  0  0  0  0  0
  -29.9804   -4.0282   -5.2374 C   0  0  0  0  0  0  0  0  0  0  0  0
  -29.3847   -3.3062   -6.2506 C   0  0  0  0  0  0  0  0  0  0  0  0
  -29.0825   -1.9236   -6.2199 C   0  0  0  0  0  0  0  0  0  0  0  0
  -28.6427   -1.3256   -7.4304 C   0  0  0  0  0  0  0  0  0  0  0  0
  -28.5455   -2.1359   -8.6059 C   0  0  0  0  0  0  0  0  0  0  0  0
  -27.9216   -1.7006   -9.7508 C   0  0  0  0  0  0  0  0  0  0  0  0
  -28.1517   -0.7660  -10.7684 C   0  0  0  0  0  0  0  0  0  0  0  0
  -27.1766   -0.6235  -11.7554 C   0  0  0  0  0  0  0  0  0  0  0  0
  -25.9502   -1.2778  -11.6275 C   0  0  0  0  0  0  0  0  0  0  0  0
  -25.7645   -2.2974  -10.6804 C   0  0  0  0  0  0  0  0  0  0  0  0
  -26.8728   -2.6153   -9.8881 C   0  0  0  0  0  0  0  0  0  0  0  0
  -27.2436   -3.7601   -9.1636 N   0  0  0  0  0  0  0  0  0  0  0  0
  -28.3066   -3.4474   -8.3502 C   0  0  0  0  0  0  0  0  0  0  0  0
  -28.9699   -4.0725   -7.3102 C   0  0  0  0  0  0  0  0  0  0  0  0
  -28.1721    0.0541   -7.2005 C   0  0  0  0  0  0  0  0  0  0  0  0
  -28.5565    0.2116   -5.8069 N   0  0  0  0  0  0  0  0  0  0  0  0
  -29.0222   -0.9366   -5.1715 C   0  0  0  0  0  0  0  0  0  0  0  0
  -29.2391   -0.9403   -3.9602 O   0  0  0  0  0  0  0  0  0  0  0  0
  -26.7405   -4.6344   -9.1656 H   0  0  0  0  0  0  0  0  0  0  0  0
  -28.3033    1.0173   -5.2469 H   0  0  0  0  0  0  0  0  0  0  0  0
  -31.2871   -9.6005   -8.3885 C   0  0  0  0  0  0  0  0  0  0  0  0
  -30.1978   -8.7908   -7.6683 C   0  0  0  0  0  0  0  0  0  0  0  0
  -30.0807   -9.3169   -6.2310 C   0  0  0  0  0  0  0  0  0  0  0  0
  -30.6506   -7.4007   -7.5759 O   0  0  0  0  0  0  0  0  0  0  0  0
  -29.5688   -6.5127   -7.9452 C   0  0  0  0  0  0  0  0  0  0  0  0
  -28.3111   -7.3782   -8.0579 C   0  0  0  0  0  0  0  0  0  0  0  0
  -28.8492   -8.7471   -8.4352 C   0  0  0  0  0  0  0  0  0  0  0  0
  -29.0372   -8.7650   -9.8677 O   0  0  0  0  0  0  0  0  0  0  0  0
  -29.8162   -8.2283  -10.0951 H   0  0  0  0  0  0  0  0  0  0  0  0
  -27.8338   -9.8628   -8.1282 C   0  0  0  0  0  0  0  0  0  0  0  0
  -26.7214   -9.3614   -7.3915 O   0  0  0  0  0  0  0  0  0  0  0  0
  -27.0823   -9.0682   -6.5336 H   0  0  0  0  0  0  0  0  0  0  0  0
 27 28  1  0  0  0
 28 29  1  0  0  0
 28 30  1  0  0  0
 28 33  1  0  0  0
 30 31  1  0  0  0
 31  1  1  0  0  0
 31 32  1  0  0  0
  1  2  1  0  0  0
  1 20  1  0  0  0
  2  3  1  0  0  0
  2  7  2  0  0  0
  3  4  2  0  0  0
  4  5  1  0  0  0
  5  6  2  0  0  0
  6  7  1  0  0  0
  7  8  1  0  0  0
  8  9  1  0  0  0
  8 20  2  0  0  0
  9 10  2  0  0  0
  9 23  1  0  0  0
 10 11  1  0  0  0
 10 21  1  0  0  0
 11 12  1  0  0  0
 11 19  2  0  0  0
 12 13  1  0  0  0
 12 17  2  0  0  0
 13 14  2  0  0  0
 14 15  1  0  0  0
 15 16  2  0  0  0
 16 17  1  0  0  0
 17 18  1  0  0  0
 18 19  1  0  0  0
 18 25  1  0  0  0
 19 20  1  0  0  0
 21 22  1  0  0  0
 22 23  1  0  0  0
 22 26  1  0  0  0
 23 24  2  0  0  0
 32 33  1  0  0  0
 33 36  1  0  0  0
 33 34  1  0  0  0
 34 35  1  0  0  0
 36 37  1  0  0  0
 37 38  1  0  0  0
M  END
> <minimizedAffinity>
-9.54475

$$$$
