CHEMBL1946171


 39 43  0  0  0  0  0  0  0  0999 V2000
  -27.9353   -6.7724   -4.9930 C   0  0  0  0  0  0  0  0  0  0  0  0
  -29.3331   -6.7142   -5.3551 N   0  0  0  0  0  0  0  0  0  0  0  0
  -30.3127   -5.8714   -4.8741 C   0  0  0  0  0  0  0  0  0  0  0  0
  -31.4867   -6.2337   -5.3548 N   0  0  0  0  0  0  0  0  0  0  0  0
  -31.2724   -7.3101   -6.1649 C   0  0  0  0  0  0  0  0  0  0  0  0
  -32.1855   -8.0862   -6.8881 C   0  0  0  0  0  0  0  0  0  0  0  0
  -31.7044   -9.1864   -7.6127 C   0  0  0  0  0  0  0  0  0  0  0  0
  -30.3388   -9.4863   -7.6348 C   0  0  0  0  0  0  0  0  0  0  0  0
  -29.4086   -8.6505   -7.0017 C   0  0  0  0  0  0  0  0  0  0  0  0
  -29.9192   -7.6108   -6.2212 C   0  0  0  0  0  0  0  0  0  0  0  0
  -30.0446   -4.8649   -4.0041 N   0  0  0  0  0  0  0  0  0  0  0  0
  -30.2692   -4.9447   -3.0223 H   0  0  0  0  0  0  0  0  0  0  0  0
  -29.6244   -3.5660   -4.3727 C   0  0  0  0  0  0  0  0  0  0  0  0
  -28.7563   -2.8570   -3.5286 C   0  0  0  0  0  0  0  0  0  0  0  0
  -28.4377   -1.5169   -3.7820 C   0  0  0  0  0  0  0  0  0  0  0  0
  -28.9780   -0.8510   -4.8913 C   0  0  0  0  0  0  0  0  0  0  0  0
  -29.8043   -1.5688   -5.7627 C   0  0  0  0  0  0  0  0  0  0  0  0
  -30.1214   -2.9035   -5.5011 C   0  0  0  0  0  0  0  0  0  0  0  0
  -28.7226    0.6147   -5.1453 C   0  0  0  0  0  0  0  0  0  0  0  0
  -27.9026    1.1901   -4.2216 F   0  0  0  0  0  0  0  0  0  0  0  0
  -28.1421    0.8430   -6.3536 F   0  0  0  0  0  0  0  0  0  0  0  0
  -29.8689    1.3540   -5.1329 F   0  0  0  0  0  0  0  0  0  0  0  0
  -29.9809  -10.6172   -8.3379 O   0  0  0  0  0  0  0  0  0  0  0  0
  -28.7879  -10.6343   -9.0278 C   0  0  0  0  0  0  0  0  0  0  0  0
  -28.6386  -10.2614  -10.3595 C   0  0  0  0  0  0  0  0  0  0  0  0
  -27.3782  -10.3664  -10.9250 C   0  0  0  0  0  0  0  0  0  0  0  0
  -26.2754  -10.7580  -10.2462 N   0  0  0  0  0  0  0  0  0  0  0  0
  -26.4388  -11.0517   -8.9347 C   0  0  0  0  0  0  0  0  0  0  0  0
  -27.6693  -11.0037   -8.2920 C   0  0  0  0  0  0  0  0  0  0  0  0
  -25.2190  -11.4066   -8.2307 C   0  0  0  0  0  0  0  0  0  0  0  0
  -24.2746  -12.3885   -8.4452 C   0  0  0  0  0  0  0  0  0  0  0  0
  -23.2979  -12.3624   -7.4888 N   0  0  0  0  0  0  0  0  0  0  0  0
  -23.6210  -11.3772   -6.6673 C   0  0  0  0  0  0  0  0  0  0  0  0
  -24.7720  -10.7590   -7.1001 N   0  0  0  0  0  0  0  0  0  0  0  0
  -25.2426   -9.9756   -6.6659 H   0  0  0  0  0  0  0  0  0  0  0  0
  -22.9169  -10.9287   -5.4303 C   0  0  0  0  0  0  0  0  0  0  0  0
  -23.1694   -9.6355   -5.1072 F   0  0  0  0  0  0  0  0  0  0  0  0
  -23.2685  -11.6827   -4.3545 F   0  0  0  0  0  0  0  0  0  0  0  0
  -21.5675  -11.0482   -5.5545 F   0  0  0  0  0  0  0  0  0  0  0  0
  1  2  1  0  0  0
  2  3  1  0  0  0
  2 10  1  0  0  0
  3 11  1  0  0  0
  3  4  2  0  0  0
 11 13  1  0  0  0
 11 12  1  0  0  0
 13 14  1  0  0  0
 13 18  2  0  0  0
 14 15  2  0  0  0
 15 16  1  0  0  0
 16 19  1  0  0  0
 16 17  2  0  0  0
 19 20  1  0  0  0
 19 21  1  0  0  0
 19 22  1  0  0  0
 17 18  1  0  0  0
  4  5  1  0  0  0
  5  6  1  0  0  0
  5 10  2  0  0  0
  6  7  2  0  0  0
  7  8  1  0  0  0
  8 23  1  0  0  0
  8  9  2  0  0  0
 23 24  1  0  0  0
 24 25  1  0  0  0
 24 29  2  0  0  0
 25 26  2  0  0  0
 26 27  1  0  0  0
 27 28  2  0  0  0
 28 30  1  0  0  0
 28 29  1  0  0  0
 30 31  2  0  0  0
 30 34  1  0  0  0
 31 32  1  0  0  0
 32 33  2  0  0  0
 33 36  1  0  0  0
 33 34  1  0  0  0
 36 37  1  0  0  0
 36 38  1  0  0  0
 36 39  1  0  0  0
 34 35  1  0  0  0
  9 10  1  0  0  0
M  END
> <minimizedAffinity>
-9.77924

$$$$
