CHEMBL3895671


 54 59  0  0  0  0  0  0  0  0999 V2000
  -18.0964    2.0115  -14.9437 C   0  0  0  0  0  0  0  0  0  0  0  0
  -18.8017    3.0925  -14.4501 C   0  0  0  0  0  0  0  0  0  0  0  0
  -20.1786    2.8061  -14.2679 C   0  0  0  0  0  0  0  0  0  0  0  0
  -21.1357    3.7398  -14.0232 N   0  0  0  0  0  0  0  0  0  0  0  0
  -22.3923    3.2732  -13.9274 C   0  0  0  0  0  0  0  0  0  0  0  0
  -22.7495    1.9426  -13.9904 C   0  0  0  0  0  0  0  0  0  0  0  0
  -21.7477    0.9845  -14.1456 C   0  0  0  0  0  0  0  0  0  0  0  0
  -20.4438    1.4446  -14.3729 C   0  0  0  0  0  0  0  0  0  0  0  0
  -19.0167    0.5750  -14.7918 S   0  0  0  0  0  0  0  0  0  0  0  0
  -14.3403   -1.3806  -14.2877 N   0  0  0  0  0  0  0  0  0  0  0  0
  -14.1372   -0.6328  -15.5650 C   0  0  0  0  0  0  0  0  0  0  0  0
  -14.5230    0.8698  -15.5358 C   0  0  0  0  0  0  0  0  0  0  0  0
  -15.8481    1.0671  -14.9330 N   0  0  0  0  0  0  0  0  0  0  0  0
  -16.7549    1.9622  -15.5132 C   0  0  0  0  0  0  0  0  0  0  0  0
  -16.4215    2.6653  -16.4668 O   0  0  0  0  0  0  0  0  0  0  0  0
  -16.0091    0.3865  -13.6432 C   0  0  0  0  0  0  0  0  0  0  0  0
  -15.7220   -1.1158  -13.8196 C   0  0  0  0  0  0  0  0  0  0  0  0
  -13.3778   -0.9573  -13.2423 C   0  0  0  0  0  0  0  0  0  0  0  0
  -12.8845   -5.9550  -11.6882 N   0  0  0  0  0  0  0  0  0  0  0  0
  -13.9838   -4.9704  -11.7867 C   0  0  0  0  0  0  0  0  0  0  0  0
  -13.8040   -3.8976  -12.8775 C   0  0  0  0  0  0  0  0  0  0  0  0
  -12.4869   -3.2575  -12.7870 N   0  0  0  0  0  0  0  0  0  0  0  0
  -12.2174   -1.9359  -13.0996 C   0  0  0  0  0  0  0  0  0  0  0  0
  -11.0606   -1.5255  -13.2150 O   0  0  0  0  0  0  0  0  0  0  0  0
  -11.3554   -4.1766  -12.6597 C   0  0  0  0  0  0  0  0  0  0  0  0
  -11.6010   -5.2326  -11.5694 C   0  0  0  0  0  0  0  0  0  0  0  0
  -12.8628   -6.9119  -12.8169 C   0  0  0  0  0  0  0  0  0  0  0  0
  -13.7807   -8.1145  -12.5833 C   0  0  0  0  0  0  0  0  0  0  0  0
  -14.8964   -8.2893  -13.0541 O   0  0  0  0  0  0  0  0  0  0  0  0
  -13.1704   -8.9689  -11.7062 O   0  0  0  0  0  0  0  0  0  0  0  0
  -10.8682   -9.5983  -11.6598 C   0  0  0  0  0  0  0  0  0  0  0  0
  -12.2177   -9.8583  -12.3049 C   0  0  0  0  0  0  0  0  0  0  0  0
  -21.9976   -0.3642  -14.1771 O   0  0  0  0  0  0  0  0  0  0  0  0
  -23.1551   -0.8459  -13.6143 C   0  0  0  0  0  0  0  0  0  0  0  0
  -23.0495   -1.1715  -12.2657 C   0  0  0  0  0  0  0  0  0  0  0  0
  -24.1547   -1.6669  -11.5783 C   0  0  0  0  0  0  0  0  0  0  0  0
  -25.3872   -1.8213  -12.2238 C   0  0  0  0  0  0  0  0  0  0  0  0
  -25.4763   -1.4990  -13.5778 C   0  0  0  0  0  0  0  0  0  0  0  0
  -26.6419   -1.6568  -14.2247 F   0  0  0  0  0  0  0  0  0  0  0  0
  -24.3830   -0.9811  -14.2690 C   0  0  0  0  0  0  0  0  0  0  0  0
  -26.5435   -2.2826  -11.5496 N   0  0  0  0  0  0  0  0  0  0  0  0
  -26.7727   -2.0175  -10.2183 C   0  0  0  0  0  0  0  0  0  0  0  0
  -26.0664   -1.2769   -9.5386 O   0  0  0  0  0  0  0  0  0  0  0  0
  -27.8703   -2.6992   -9.7148 N   0  0  0  0  0  0  0  0  0  0  0  0
  -27.3612   -2.4628  -12.1190 H   0  0  0  0  0  0  0  0  0  0  0  0
  -27.9562   -3.6427  -10.0750 H   0  0  0  0  0  0  0  0  0  0  0  0
  -28.1259   -2.5671   -8.3242 C   0  0  0  0  0  0  0  0  0  0  0  0
  -27.9502   -1.3369   -7.6793 C   0  0  0  0  0  0  0  0  0  0  0  0
  -27.9538   -1.2581   -6.2827 C   0  0  0  0  0  0  0  0  0  0  0  0
  -27.6576    0.0444   -5.5987 C   0  0  0  0  0  0  0  0  0  0  0  0
  -28.1522   -2.4275   -5.5374 C   0  0  0  0  0  0  0  0  0  0  0  0
  -28.3968   -3.6451   -6.1801 C   0  0  0  0  0  0  0  0  0  0  0  0
  -28.4045   -3.7039   -7.5697 C   0  0  0  0  0  0  0  0  0  0  0  0
  -28.5714   -4.8873   -8.1803 F   0  0  0  0  0  0  0  0  0  0  0  0
 31 32  1  0  0  0
 32 30  1  0  0  0
 30 28  1  0  0  0
 28 29  2  0  0  0
 28 27  1  0  0  0
 27 19  1  0  0  0
 19 20  1  0  0  0
 19 26  1  0  0  0
 20 21  1  0  0  0
 21 22  1  0  0  0
 22 23  1  0  0  0
 22 25  1  0  0  0
 23 24  2  0  0  0
 23 18  1  0  0  0
 18 10  1  0  0  0
 10 11  1  0  0  0
 10 17  1  0  0  0
 11 12  1  0  0  0
 12 13  1  0  0  0
 13 14  1  0  0  0
 13 16  1  0  0  0
 14 15  2  0  0  0
 14  1  1  0  0  0
  1  2  2  0  0  0
  1  9  1  0  0  0
  2  3  1  0  0  0
  3  4  1  0  0  0
  3  8  2  0  0  0
  4  5  2  0  0  0
  5  6  1  0  0  0
  6  7  2  0  0  0
  7 33  1  0  0  0
  7  8  1  0  0  0
 33 34  1  0  0  0
 34 35  1  0  0  0
 34 40  2  0  0  0
 35 36  2  0  0  0
 36 37  1  0  0  0
 37 41  1  0  0  0
 37 38  2  0  0  0
 41 42  1  0  0  0
 41 45  1  0  0  0
 42 43  2  0  0  0
 42 44  1  0  0  0
 44 47  1  0  0  0
 44 46  1  0  0  0
 47 48  1  0  0  0
 47 53  2  0  0  0
 48 49  2  0  0  0
 49 50  1  0  0  0
 49 51  1  0  0  0
 51 52  2  0  0  0
 52 53  1  0  0  0
 53 54  1  0  0  0
 38 39  1  0  0  0
 38 40  1  0  0  0
  8  9  1  0  0  0
 16 17  1  0  0  0
 25 26  1  0  0  0
M  END
> <minimizedAffinity>
-11.77637

$$$$
