CHEMBL3754556


 27 29  0  0  0  0  0  0  0  0999 V2000
  -27.5222   -1.8903   -8.7293 C   0  0  0  0  0  0  0  0  0  0  0  0
  -28.0222   -3.1576   -8.4119 C   0  0  0  0  0  0  0  0  0  0  0  0
  -28.7399   -3.4027   -7.2254 C   0  0  0  0  0  0  0  0  0  0  0  0
  -28.9580   -2.3077   -6.3697 C   0  0  0  0  0  0  0  0  0  0  0  0
  -28.4313   -1.0340   -6.6446 C   0  0  0  0  0  0  0  0  0  0  0  0
  -27.7003   -0.8419   -7.8245 C   0  0  0  0  0  0  0  0  0  0  0  0
  -28.5350   -1.3647  -11.4521 O   0  0  0  0  0  0  0  0  0  0  0  0
  -27.3382   -1.4009  -11.1684 C   0  0  0  0  0  0  0  0  0  0  0  0
  -26.8213   -1.6114   -9.9154 N   0  0  0  0  0  0  0  0  0  0  0  0
  -26.4404   -1.2104  -12.1797 N   0  0  0  0  0  0  0  0  0  0  0  0
  -25.8174   -1.4583   -9.8379 H   0  0  0  0  0  0  0  0  0  0  0  0
  -26.8377   -1.0772  -13.0973 H   0  0  0  0  0  0  0  0  0  0  0  0
  -25.0835   -1.2325  -12.0618 C   0  0  0  0  0  0  0  0  0  0  0  0
  -24.3096   -2.2765  -11.8812 N   0  0  0  0  0  0  0  0  0  0  0  0
  -22.9940   -1.8515  -11.8477 C   0  0  0  0  0  0  0  0  0  0  0  0
  -22.8018   -0.4942  -12.0043 C   0  0  0  0  0  0  0  0  0  0  0  0
  -24.3216    0.2862  -12.1741 S   0  0  0  0  0  0  0  0  0  0  0  0
  -29.2181   -4.7586   -6.8821 C   0  0  0  0  0  0  0  0  0  0  0  0
  -28.9414   -5.8813   -7.6517 C   0  0  0  0  0  0  0  0  0  0  0  0
  -29.3754   -7.1345   -7.3903 N   0  0  0  0  0  0  0  0  0  0  0  0
  -30.1385   -7.2636   -6.2980 C   0  0  0  0  0  0  0  0  0  0  0  0
  -30.4876   -6.2741   -5.4670 N   0  0  0  0  0  0  0  0  0  0  0  0
  -30.0144   -5.0459   -5.7832 C   0  0  0  0  0  0  0  0  0  0  0  0
  -28.6388    0.1147   -5.6897 C   0  0  0  0  0  0  0  0  0  0  0  0
  -29.8810    0.1397   -5.1306 F   0  0  0  0  0  0  0  0  0  0  0  0
  -27.7631    0.0867   -4.6472 F   0  0  0  0  0  0  0  0  0  0  0  0
  -28.4731    1.3268   -6.2861 F   0  0  0  0  0  0  0  0  0  0  0  0
  7  8  2  0  0  0
  8  9  1  0  0  0
  8 10  1  0  0  0
  9  1  1  0  0  0
  9 11  1  0  0  0
  1  2  1  0  0  0
  1  6  2  0  0  0
  2  3  2  0  0  0
  3 18  1  0  0  0
  3  4  1  0  0  0
 18 19  1  0  0  0
 18 23  2  0  0  0
 19 20  2  0  0  0
 20 21  1  0  0  0
 21 22  2  0  0  0
 22 23  1  0  0  0
  4  5  2  0  0  0
  5 24  1  0  0  0
  5  6  1  0  0  0
 24 25  1  0  0  0
 24 26  1  0  0  0
 24 27  1  0  0  0
 10 13  1  0  0  0
 10 12  1  0  0  0
 13 14  2  0  0  0
 13 17  1  0  0  0
 14 15  1  0  0  0
 15 16  2  0  0  0
 16 17  1  0  0  0
M  END
> <minimizedAffinity>
-8.77990

$$$$
