CHEMBL4561931


 24 26  0  0  0  0  0  0  0  0999 V2000
  -29.2248   -9.6251   -9.1924 N   0  0  0  0  0  0  0  0  0  0  0  0
  -28.7886   -8.4447   -8.7367 N   0  0  0  0  0  0  0  0  0  0  0  0
  -29.7998   -7.9487   -8.0046 C   0  0  0  0  0  0  0  0  0  0  0  0
  -30.9225   -8.8539   -8.0124 C   0  0  0  0  0  0  0  0  0  0  0  0
  -30.4799   -9.9525   -8.7451 C   0  0  0  0  0  0  0  0  0  0  0  0
  -31.0817  -11.1312   -9.0431 N   0  0  0  0  0  0  0  0  0  0  0  0
  -32.0960  -11.2060   -8.9687 H   0  0  0  0  0  0  0  0  0  0  0  0
  -30.7024  -11.7708   -9.7372 H   0  0  0  0  0  0  0  0  0  0  0  0
  -29.5784   -6.6801   -7.2888 C   0  0  0  0  0  0  0  0  0  0  0  0
  -30.0773   -5.4623   -7.7462 C   0  0  0  0  0  0  0  0  0  0  0  0
  -29.9419   -4.2783   -7.0125 C   0  0  0  0  0  0  0  0  0  0  0  0
  -29.1504   -4.3076   -5.8604 C   0  0  0  0  0  0  0  0  0  0  0  0
  -28.7030   -3.0104   -4.8212 S   0  0  0  0  0  0  0  0  0  0  0  0
  -27.7017   -4.0823   -3.9408 C   0  0  0  0  0  0  0  0  0  0  0  0
  -27.7440   -5.3468   -4.2922 N   0  0  0  0  0  0  0  0  0  0  0  0
  -28.5605   -5.4872   -5.4044 C   0  0  0  0  0  0  0  0  0  0  0  0
  -28.8184   -6.6855   -6.1017 C   0  0  0  0  0  0  0  0  0  0  0  0
  -32.2332   -8.7204   -7.3901 C   0  0  0  0  0  0  0  0  0  0  0  0
  -32.2840   -7.9801   -6.2431 N   0  0  0  0  0  0  0  0  0  0  0  0
  -33.2728   -9.2196   -7.8047 O   0  0  0  0  0  0  0  0  0  0  0  0
  -31.5085   -7.3736   -5.9960 H   0  0  0  0  0  0  0  0  0  0  0  0
  -33.2125   -7.7670   -5.9040 H   0  0  0  0  0  0  0  0  0  0  0  0
  -28.8950  -10.2565  -11.5448 C   0  0  0  0  0  0  0  0  0  0  0  0
  -28.3765  -10.3520  -10.1191 C   0  0  0  0  0  0  0  0  0  0  0  0
 23 24  1  0  0  0
 24  1  1  0  0  0
  1  2  1  0  0  0
  1  5  1  0  0  0
  2  3  2  0  0  0
  3  9  1  0  0  0
  3  4  1  0  0  0
  9 10  1  0  0  0
  9 17  2  0  0  0
 10 11  2  0  0  0
 11 12  1  0  0  0
 12 13  1  0  0  0
 12 16  2  0  0  0
 13 14  1  0  0  0
 14 15  2  0  0  0
 15 16  1  0  0  0
 16 17  1  0  0  0
  4 18  1  0  0  0
  4  5  2  0  0  0
 18 19  1  0  0  0
 18 20  2  0  0  0
 19 21  1  0  0  0
 19 22  1  0  0  0
  5  6  1  0  0  0
  6  7  1  0  0  0
  6  8  1  0  0  0
M  END
> <minimizedAffinity>
-7.43265

$$$$
