CHEMBL443338


 23 26  0  0  0  0  0  0  0  0999 V2000
  -28.8123   -4.0928   -6.5573 C   0  0  0  0  0  0  0  0  0  0  0  0
  -28.1185   -3.1595   -7.3145 C   0  0  0  0  0  0  0  0  0  0  0  0
  -28.4260   -1.8566   -6.8328 C   0  0  0  0  0  0  0  0  0  0  0  0
  -28.0206   -0.5557   -7.1901 C   0  0  0  0  0  0  0  0  0  0  0  0
  -28.5310    0.5245   -6.4647 C   0  0  0  0  0  0  0  0  0  0  0  0
  -28.1637    1.8060   -6.7615 O   0  0  0  0  0  0  0  0  0  0  0  0
  -29.4276    0.3410   -5.4177 C   0  0  0  0  0  0  0  0  0  0  0  0
  -29.8501   -0.9393   -5.0599 C   0  0  0  0  0  0  0  0  0  0  0  0
  -29.3273   -2.0162   -5.7853 C   0  0  0  0  0  0  0  0  0  0  0  0
  -29.5693   -3.3632   -5.6661 N   0  0  0  0  0  0  0  0  0  0  0  0
  -27.5335    1.7780   -7.4990 H   0  0  0  0  0  0  0  0  0  0  0  0
  -30.2540   -3.7629   -5.0339 H   0  0  0  0  0  0  0  0  0  0  0  0
  -28.7377   -5.0148   -3.5047 O   0  0  0  0  0  0  0  0  0  0  0  0
  -28.8107   -6.1028   -4.0407 C   0  0  0  0  0  0  0  0  0  0  0  0
  -28.8579   -7.3070   -3.3748 N   0  0  0  0  0  0  0  0  0  0  0  0
  -28.8178   -8.4400   -4.2563 C   0  0  0  0  0  0  0  0  0  0  0  0
  -28.7893   -7.7986   -5.6026 C   0  0  0  0  0  0  0  0  0  0  0  0
  -28.7488   -8.4168   -6.8402 C   0  0  0  0  0  0  0  0  0  0  0  0
  -28.7345   -7.6071   -7.9733 C   0  0  0  0  0  0  0  0  0  0  0  0
  -28.7657   -6.2044   -7.8554 C   0  0  0  0  0  0  0  0  0  0  0  0
  -28.7990   -5.5602   -6.6029 C   0  0  0  0  0  0  0  0  0  0  0  0
  -28.8021   -6.3980   -5.4884 C   0  0  0  0  0  0  0  0  0  0  0  0
  -28.8381   -7.3446   -2.3643 H   0  0  0  0  0  0  0  0  0  0  0  0
 13 14  2  0  0  0
 14 15  1  0  0  0
 14 22  1  0  0  0
 15 16  1  0  0  0
 15 23  1  0  0  0
 16 17  1  0  0  0
 17 18  1  0  0  0
 17 22  2  0  0  0
 18 19  2  0  0  0
 19 20  1  0  0  0
 20 21  2  0  0  0
 21  1  1  0  0  0
 21 22  1  0  0  0
  1  2  2  0  0  0
  1 10  1  0  0  0
  2  3  1  0  0  0
  3  4  1  0  0  0
  3  9  2  0  0  0
  4  5  2  0  0  0
  5  6  1  0  0  0
  5  7  1  0  0  0
  6 11  1  0  0  0
  7  8  2  0  0  0
  8  9  1  0  0  0
  9 10  1  0  0  0
 10 12  1  0  0  0
M  END
> <minimizedAffinity>
-8.52701

$$$$
