CHEMBL3633273


 39 41  0  0  0  0  0  0  0  0999 V2000
  -30.5018   -6.6427   -6.8168 N   0  0  0  0  0  0  0  0  0  0  0  0
  -29.5029   -5.7014   -7.0419 C   0  0  0  0  0  0  0  0  0  0  0  0
  -28.2991   -5.9478   -7.1197 O   0  0  0  0  0  0  0  0  0  0  0  0
  -29.9725   -4.4158   -7.2486 N   0  0  0  0  0  0  0  0  0  0  0  0
  -31.4582   -6.3383   -6.6905 H   0  0  0  0  0  0  0  0  0  0  0  0
  -30.8574   -4.1644   -6.8282 H   0  0  0  0  0  0  0  0  0  0  0  0
  -29.5475   -8.5708   -5.5763 C   0  0  0  0  0  0  0  0  0  0  0  0
  -29.3014   -9.9591   -5.5026 C   0  0  0  0  0  0  0  0  0  0  0  0
  -29.7540  -10.8271   -6.4959 C   0  0  0  0  0  0  0  0  0  0  0  0
  -30.5060  -10.3267   -7.5462 C   0  0  0  0  0  0  0  0  0  0  0  0
  -30.7900   -8.9578   -7.5986 C   0  0  0  0  0  0  0  0  0  0  0  0
  -30.2891   -8.0516   -6.6600 C   0  0  0  0  0  0  0  0  0  0  0  0
  -27.6836   -7.7752   -4.3372 C   0  0  0  0  0  0  0  0  0  0  0  0
  -29.0803   -7.6784   -4.6364 O   0  0  0  0  0  0  0  0  0  0  0  0
  -30.8738  -11.2167   -8.6759 C   0  0  0  0  0  0  0  0  0  0  0  0
  -32.0097  -11.6284   -8.8719 O   0  0  0  0  0  0  0  0  0  0  0  0
  -29.7582  -11.6206   -9.3224 O   0  0  0  0  0  0  0  0  0  0  0  0
  -29.2024  -10.6680  -10.2374 C   0  0  0  0  0  0  0  0  0  0  0  0
  -27.6892  -10.9533  -10.3648 C   0  0  0  0  0  0  0  0  0  0  0  0
  -26.8139  -10.0831   -9.5616 N   0  0  0  0  0  0  0  0  0  0  0  0
  -27.4620   -8.8084   -9.2493 C   0  0  0  0  0  0  0  0  0  0  0  0
  -26.4539  -10.7627   -8.3111 C   0  0  0  0  0  0  0  0  0  0  0  0
  -29.0692   -3.3289   -7.4491 C   0  0  0  0  0  0  0  0  0  0  0  0
  -28.4793   -3.1376   -8.7180 C   0  0  0  0  0  0  0  0  0  0  0  0
  -27.7158   -1.9963   -9.0437 C   0  0  0  0  0  0  0  0  0  0  0  0
  -27.5670   -1.0320   -8.0384 C   0  0  0  0  0  0  0  0  0  0  0  0
  -28.1108   -1.2235   -6.7609 C   0  0  0  0  0  0  0  0  0  0  0  0
  -28.8318   -2.3851   -6.4458 C   0  0  0  0  0  0  0  0  0  0  0  0
  -27.1272   -1.8066  -10.3906 C   0  0  0  0  0  0  0  0  0  0  0  0
  -27.8888   -1.9073  -11.5668 C   0  0  0  0  0  0  0  0  0  0  0  0
  -27.3043   -1.7151  -12.8193 C   0  0  0  0  0  0  0  0  0  0  0  0
  -25.9562   -1.4143  -12.8759 C   0  0  0  0  0  0  0  0  0  0  0  0
  -25.1724   -1.3110  -11.7850 N   0  0  0  0  0  0  0  0  0  0  0  0
  -25.7717   -1.5164  -10.5830 C   0  0  0  0  0  0  0  0  0  0  0  0
  -29.3608   -2.3640   -5.1910 O   0  0  0  0  0  0  0  0  0  0  0  0
  -28.7488   -3.1351   -4.1738 C   0  0  0  0  0  0  0  0  0  0  0  0
  -28.4606   -2.4496   -3.0439 F   0  0  0  0  0  0  0  0  0  0  0  0
  -29.5874   -4.1404   -3.8334 F   0  0  0  0  0  0  0  0  0  0  0  0
  -27.6109   -3.6834   -4.6504 F   0  0  0  0  0  0  0  0  0  0  0  0
 13 14  1  0  0  0
 14  7  1  0  0  0
  7  8  1  0  0  0
  7 12  2  0  0  0
  8  9  2  0  0  0
  9 10  1  0  0  0
 10 15  1  0  0  0
 10 11  2  0  0  0
 15 16  2  0  0  0
 15 17  1  0  0  0
 17 18  1  0  0  0
 18 19  1  0  0  0
 19 20  1  0  0  0
 20 21  1  0  0  0
 20 22  1  0  0  0
 11 12  1  0  0  0
 12  1  1  0  0  0
  1  2  1  0  0  0
  1  5  1  0  0  0
  2  3  2  0  0  0
  2  4  1  0  0  0
  4 23  1  0  0  0
  4  6  1  0  0  0
 23 24  1  0  0  0
 23 28  2  0  0  0
 24 25  2  0  0  0
 25 29  1  0  0  0
 25 26  1  0  0  0
 29 30  1  0  0  0
 29 34  2  0  0  0
 30 31  2  0  0  0
 31 32  1  0  0  0
 32 33  2  0  0  0
 33 34  1  0  0  0
 26 27  2  0  0  0
 27 28  1  0  0  0
 28 35  1  0  0  0
 35 36  1  0  0  0
 36 37  1  0  0  0
 36 38  1  0  0  0
 36 39  1  0  0  0
M  END
> <minimizedAffinity>
-8.16028

$$$$
