CHEMBL4245415


 21 23  0  0  0  0  0  0  0  0999 V2000
  -29.7390   -3.4286   -4.5606 N   0  0  0  0  0  0  0  0  0  0  0  0
  -30.3613   -3.0657   -3.2746 C   0  0  0  0  0  0  0  0  0  0  0  0
  -29.1381   -4.4883   -7.9220 C   0  0  0  0  0  0  0  0  0  0  0  0
  -28.5240   -3.1620   -7.6696 C   0  0  0  0  0  0  0  0  0  0  0  0
  -27.8392   -2.4399   -8.6289 C   0  0  0  0  0  0  0  0  0  0  0  0
  -27.4174   -1.2564   -8.1405 O   0  0  0  0  0  0  0  0  0  0  0  0
  -27.8178   -1.1877   -6.8461 C   0  0  0  0  0  0  0  0  0  0  0  0
  -27.5628   -0.1030   -6.1053 N   0  0  0  0  0  0  0  0  0  0  0  0
  -28.0591   -0.2242   -4.8814 C   0  0  0  0  0  0  0  0  0  0  0  0
  -28.7281   -1.2693   -4.3758 N   0  0  0  0  0  0  0  0  0  0  0  0
  -28.9768   -2.3821   -5.1375 C   0  0  0  0  0  0  0  0  0  0  0  0
  -28.4995   -2.3484   -6.4747 C   0  0  0  0  0  0  0  0  0  0  0  0
  -29.4936   -4.8241   -4.6469 C   0  0  0  0  0  0  0  0  0  0  0  0
  -28.2217   -5.3805   -4.4954 C   0  0  0  0  0  0  0  0  0  0  0  0
  -28.0102   -6.7660   -4.6158 C   0  0  0  0  0  0  0  0  0  0  0  0
  -29.0550   -7.6736   -4.8468 C   0  0  0  0  0  0  0  0  0  0  0  0
  -30.3293   -7.1089   -4.9618 C   0  0  0  0  0  0  0  0  0  0  0  0
  -30.5418   -5.7210   -4.8806 C   0  0  0  0  0  0  0  0  0  0  0  0
  -28.8215   -9.0333   -5.0262 N   0  0  0  0  0  0  0  0  0  0  0  0
  -28.2103   -9.5173   -6.2655 C   0  0  0  0  0  0  0  0  0  0  0  0
  -28.6615   -9.9379   -3.8878 C   0  0  0  0  0  0  0  0  0  0  0  0
  3  4  1  0  0  0
  4  5  2  0  0  0
  4 12  1  0  0  0
  5  6  1  0  0  0
  6  7  1  0  0  0
  7  8  1  0  0  0
  7 12  2  0  0  0
  8  9  2  0  0  0
  9 10  1  0  0  0
 10 11  2  0  0  0
 11  1  1  0  0  0
 11 12  1  0  0  0
  1  2  1  0  0  0
  1 13  1  0  0  0
 13 14  1  0  0  0
 13 18  2  0  0  0
 14 15  2  0  0  0
 15 16  1  0  0  0
 16 19  1  0  0  0
 16 17  2  0  0  0
 19 20  1  0  0  0
 19 21  1  0  0  0
 17 18  1  0  0  0
M  END
> <minimizedAffinity>
-7.18663

$$$$
