CHEMBL1241676


 26 29  0  0  0  0  0  0  0  0999 V2000
  -29.2999   -6.7682   -2.9452 N   0  0  0  0  0  0  0  0  0  0  0  0
  -29.0108   -7.7980   -3.8336 C   0  0  0  0  0  0  0  0  0  0  0  0
  -28.7966   -9.0056   -3.2683 N   0  0  0  0  0  0  0  0  0  0  0  0
  -28.5376  -10.0559   -4.0680 C   0  0  0  0  0  0  0  0  0  0  0  0
  -28.4762  -10.0746   -5.4059 N   0  0  0  0  0  0  0  0  0  0  0  0
  -28.6858   -8.8536   -5.9266 C   0  0  0  0  0  0  0  0  0  0  0  0
  -28.9391   -7.6797   -5.2302 C   0  0  0  0  0  0  0  0  0  0  0  0
  -29.0360   -6.6680   -6.2434 C   0  0  0  0  0  0  0  0  0  0  0  0
  -28.9192   -7.2084   -7.4732 N   0  0  0  0  0  0  0  0  0  0  0  0
  -28.6868   -8.5180   -7.2526 N   0  0  0  0  0  0  0  0  0  0  0  0
  -29.5002   -7.1464   -2.0249 H   0  0  0  0  0  0  0  0  0  0  0  0
  -29.9675   -6.0882   -3.2864 H   0  0  0  0  0  0  0  0  0  0  0  0
  -29.2179   -5.2173   -6.1076 C   0  0  0  0  0  0  0  0  0  0  0  0
  -30.2759   -4.6854   -5.3564 C   0  0  0  0  0  0  0  0  0  0  0  0
  -30.4689   -3.3043   -5.2529 C   0  0  0  0  0  0  0  0  0  0  0  0
  -29.5619   -2.4364   -5.8525 C   0  0  0  0  0  0  0  0  0  0  0  0
  -29.7882   -0.7352   -5.7010 Cl  0  0  0  0  0  0  0  0  0  0  0  0
  -28.4704   -2.9487   -6.5531 C   0  0  0  0  0  0  0  0  0  0  0  0
  -27.5279   -2.1354   -7.1192 O   0  0  0  0  0  0  0  0  0  0  0  0
  -28.3032   -4.3271   -6.6946 C   0  0  0  0  0  0  0  0  0  0  0  0
  -27.7488   -1.2204   -6.8625 H   0  0  0  0  0  0  0  0  0  0  0  0
  -28.4559   -9.4181   -8.3634 C   0  0  0  0  0  0  0  0  0  0  0  0
  -27.2819   -9.0183   -9.2601 C   0  0  0  0  0  0  0  0  0  0  0  0
  -27.5438   -9.7149  -10.5940 C   0  0  0  0  0  0  0  0  0  0  0  0
  -29.0077  -10.1511  -10.5812 C   0  0  0  0  0  0  0  0  0  0  0  0
  -29.6250   -9.5141   -9.3426 C   0  0  0  0  0  0  0  0  0  0  0  0
  1  2  1  0  0  0
  1 11  1  0  0  0
  1 12  1  0  0  0
  2  3  1  0  0  0
  2  7  2  0  0  0
  3  4  2  0  0  0
  4  5  1  0  0  0
  5  6  2  0  0  0
  6  7  1  0  0  0
  6 10  1  0  0  0
  7  8  1  0  0  0
  8 13  1  0  0  0
  8  9  2  0  0  0
 13 14  1  0  0  0
 13 20  2  0  0  0
 14 15  2  0  0  0
 15 16  1  0  0  0
 16 17  1  0  0  0
 16 18  2  0  0  0
 18 19  1  0  0  0
 18 20  1  0  0  0
 19 21  1  0  0  0
  9 10  1  0  0  0
 10 22  1  0  0  0
 22 23  1  0  0  0
 22 26  1  0  0  0
 23 24  1  0  0  0
 24 25  1  0  0  0
 25 26  1  0  0  0
M  END
> <minimizedAffinity>
-8.06413

$$$$
