CHEMBL3706831


 31 34  0  0  0  0  0  0  0  0999 V2000
  -27.9941   -1.4046   -5.5194 C   0  0  0  0  0  0  0  0  0  0  0  0
  -28.8194   -1.8885   -4.4768 C   0  0  0  0  0  0  0  0  0  0  0  0
  -29.5594   -3.0656   -4.5568 C   0  0  0  0  0  0  0  0  0  0  0  0
  -30.3460   -3.4268   -3.5360 N   0  0  0  0  0  0  0  0  0  0  0  0
  -31.0365   -4.5634   -3.6831 C   0  0  0  0  0  0  0  0  0  0  0  0
  -31.0011   -5.3740   -4.7430 N   0  0  0  0  0  0  0  0  0  0  0  0
  -30.2189   -5.0031   -5.7763 C   0  0  0  0  0  0  0  0  0  0  0  0
  -29.4620   -3.8172   -5.7278 C   0  0  0  0  0  0  0  0  0  0  0  0
  -28.6457   -3.3478   -6.7763 C   0  0  0  0  0  0  0  0  0  0  0  0
  -27.8955   -2.1644   -6.6907 C   0  0  0  0  0  0  0  0  0  0  0  0
  -30.2007   -5.7977   -6.9554 N   0  0  0  0  0  0  0  0  0  0  0  0
  -29.8051   -5.3036   -7.7558 H   0  0  0  0  0  0  0  0  0  0  0  0
  -29.9293   -7.1542   -7.0177 C   0  0  0  0  0  0  0  0  0  0  0  0
  -28.7188   -7.7197   -6.9076 C   0  0  0  0  0  0  0  0  0  0  0  0
  -28.4795   -9.1520   -7.0687 C   0  0  0  0  0  0  0  0  0  0  0  0
  -27.3632   -9.5974   -6.8244 O   0  0  0  0  0  0  0  0  0  0  0  0
  -29.6062  -10.0167   -7.5629 C   0  0  0  0  0  0  0  0  0  0  0  0
  -30.8443   -9.4940   -7.5209 C   0  0  0  0  0  0  0  0  0  0  0  0
  -31.0976   -8.0778   -7.1859 C   0  0  0  0  0  0  0  0  0  0  0  0
  -32.2436   -7.6439   -7.1098 O   0  0  0  0  0  0  0  0  0  0  0  0
  -29.1584  -11.2393   -8.0280 N   0  0  0  0  0  0  0  0  0  0  0  0
  -30.0463  -12.3067   -8.4576 C   0  0  0  0  0  0  0  0  0  0  0  0
  -29.2082  -11.5480   -9.4531 C   0  0  0  0  0  0  0  0  0  0  0  0
  -27.9583  -12.1067  -10.0470 C   0  0  0  0  0  0  0  0  0  0  0  0
  -27.2968   -1.9150   -7.8901 O   0  0  0  0  0  0  0  0  0  0  0  0
  -27.9043   -2.2719   -9.1183 C   0  0  0  0  0  0  0  0  0  0  0  0
  -27.4573   -0.1846   -5.1847 O   0  0  0  0  0  0  0  0  0  0  0  0
  -28.3501    0.9036   -5.0650 C   0  0  0  0  0  0  0  0  0  0  0  0
  -29.0812    1.2576   -6.3506 C   0  0  0  0  0  0  0  0  0  0  0  0
  -31.2745    2.0454   -6.8296 C   0  0  0  0  0  0  0  0  0  0  0  0
  -30.4699    1.2269   -6.0043 O   0  0  0  0  0  0  0  0  0  0  0  0
 30 31  1  0  0  0
 31 29  1  0  0  0
 29 28  1  0  0  0
 28 27  1  0  0  0
 27  1  1  0  0  0
  1  2  1  0  0  0
  1 10  2  0  0  0
  2  3  2  0  0  0
  3  4  1  0  0  0
  3  8  1  0  0  0
  4  5  2  0  0  0
  5  6  1  0  0  0
  6  7  2  0  0  0
  7 11  1  0  0  0
  7  8  1  0  0  0
 11 13  1  0  0  0
 11 12  1  0  0  0
 13 14  2  0  0  0
 13 19  1  0  0  0
 14 15  1  0  0  0
 15 16  2  0  0  0
 15 17  1  0  0  0
 17 21  1  0  0  0
 17 18  2  0  0  0
 21 22  1  0  0  0
 21 23  1  0  0  0
 22 23  1  0  0  0
 23 24  1  0  0  0
 18 19  1  0  0  0
 19 20  2  0  0  0
  8  9  2  0  0  0
  9 10  1  0  0  0
 10 25  1  0  0  0
 25 26  1  0  0  0
M  END
> <minimizedAffinity>
-7.86015

$$$$
