CHEMBL4171244


 44 49  0  0  0  0  0  0  0  0999 V2000
  -14.6942   -2.8037  -11.6488 C   0  0  0  0  0  0  0  0  0  0  0  0
  -15.9431   -2.1960  -11.9088 C   0  0  0  0  0  0  0  0  0  0  0  0
  -16.0900   -1.2531  -12.9391 C   0  0  0  0  0  0  0  0  0  0  0  0
  -14.9770   -0.9108  -13.6821 C   0  0  0  0  0  0  0  0  0  0  0  0
  -13.7543   -1.5479  -13.4301 C   0  0  0  0  0  0  0  0  0  0  0  0
  -13.5850   -2.4962  -12.4429 C   0  0  0  0  0  0  0  0  0  0  0  0
  -12.7514   -1.0501  -14.2533 N   0  0  0  0  0  0  0  0  0  0  0  0
  -13.2326   -0.0263  -15.0516 C   0  0  0  0  0  0  0  0  0  0  0  0
  -12.5522    0.7702  -15.6794 O   0  0  0  0  0  0  0  0  0  0  0  0
  -14.7225    0.0013  -14.8076 C   0  0  0  0  0  0  0  0  0  0  0  0
  -15.5549    0.7245  -15.5923 C   0  0  0  0  0  0  0  0  0  0  0  0
  -11.7702   -1.2732  -14.1825 H   0  0  0  0  0  0  0  0  0  0  0  0
  -16.9315    1.0424  -15.1652 C   0  0  0  0  0  0  0  0  0  0  0  0
  -17.1386    2.2144  -14.4209 C   0  0  0  0  0  0  0  0  0  0  0  0
  -18.4312    2.5944  -14.0540 C   0  0  0  0  0  0  0  0  0  0  0  0
  -19.5158    1.8047  -14.4279 C   0  0  0  0  0  0  0  0  0  0  0  0
  -19.3152    0.6428  -15.1693 C   0  0  0  0  0  0  0  0  0  0  0  0
  -18.0247    0.2618  -15.5444 C   0  0  0  0  0  0  0  0  0  0  0  0
  -14.4761   -3.7323  -10.5083 C   0  0  0  0  0  0  0  0  0  0  0  0
  -15.2314   -4.6545  -10.2447 O   0  0  0  0  0  0  0  0  0  0  0  0
  -12.6812   -4.5722   -9.2847 C   0  0  0  0  0  0  0  0  0  0  0  0
  -13.3269   -3.4338   -9.8558 O   0  0  0  0  0  0  0  0  0  0  0  0
  -15.2509    1.2768  -16.8362 N   0  0  0  0  0  0  0  0  0  0  0  0
  -16.1092    1.3555  -17.3867 H   0  0  0  0  0  0  0  0  0  0  0  0
  -14.5751    2.5311  -16.8879 C   0  0  0  0  0  0  0  0  0  0  0  0
  -13.6772    2.8612  -17.8994 C   0  0  0  0  0  0  0  0  0  0  0  0
  -12.9895    4.0875  -17.8928 C   0  0  0  0  0  0  0  0  0  0  0  0
  -13.1620    5.0225  -16.8659 C   0  0  0  0  0  0  0  0  0  0  0  0
  -14.0440    4.6505  -15.8438 C   0  0  0  0  0  0  0  0  0  0  0  0
  -14.8019    3.4734  -15.8939 C   0  0  0  0  0  0  0  0  0  0  0  0
  -12.5016    6.3006  -16.8800 N   0  0  0  0  0  0  0  0  0  0  0  0
  -11.4496    6.6537  -16.0107 C   0  0  0  0  0  0  0  0  0  0  0  0
  -10.8412    5.9680  -15.2008 O   0  0  0  0  0  0  0  0  0  0  0  0
  -11.1635    8.1233  -16.1557 C   0  0  0  0  0  0  0  0  0  0  0  0
  -11.8064    8.4943  -17.4647 C   0  0  0  0  0  0  0  0  0  0  0  0
  -12.9084    7.4517  -17.6881 C   0  0  0  0  0  0  0  0  0  0  0  0
  -13.1237    7.3181  -19.2294 C   0  0  0  0  0  0  0  0  0  0  0  0
  -13.9076    8.3527  -19.9311 N   0  0  0  0  0  0  0  0  0  0  0  0
  -14.1360    8.0600  -21.3595 C   0  0  0  0  0  0  0  0  0  0  0  0
  -15.0395    9.1034  -22.0519 C   0  0  0  0  0  0  0  0  0  0  0  0
  -16.3456    9.3102  -21.3999 N   0  0  0  0  0  0  0  0  0  0  0  0
  -17.2332    8.1690  -21.6172 C   0  0  0  0  0  0  0  0  0  0  0  0
  -16.1175    9.5638  -19.9638 C   0  0  0  0  0  0  0  0  0  0  0  0
  -15.2113    8.5339  -19.2546 C   0  0  0  0  0  0  0  0  0  0  0  0
 21 22  1  0  0  0
 22 19  1  0  0  0
 19 20  2  0  0  0
 19  1  1  0  0  0
  1  2  1  0  0  0
  1  6  2  0  0  0
  2  3  2  0  0  0
  3  4  1  0  0  0
  4  5  2  0  0  0
  4 10  1  0  0  0
  5  6  1  0  0  0
  5  7  1  0  0  0
  7  8  1  0  0  0
  7 12  1  0  0  0
  8  9  2  0  0  0
  8 10  1  0  0  0
 10 11  2  0  0  0
 11 23  1  0  0  0
 11 13  1  0  0  0
 23 25  1  0  0  0
 23 24  1  0  0  0
 25 26  1  0  0  0
 25 30  2  0  0  0
 26 27  2  0  0  0
 27 28  1  0  0  0
 28 31  1  0  0  0
 28 29  2  0  0  0
 31 32  1  0  0  0
 31 36  1  0  0  0
 32 33  2  0  0  0
 32 34  1  0  0  0
 34 35  1  0  0  0
 35 36  1  0  0  0
 36 37  1  0  0  0
 37 38  1  0  0  0
 38 39  1  0  0  0
 38 44  1  0  0  0
 39 40  1  0  0  0
 40 41  1  0  0  0
 41 42  1  0  0  0
 41 43  1  0  0  0
 43 44  1  0  0  0
 29 30  1  0  0  0
 13 14  1  0  0  0
 13 18  2  0  0  0
 14 15  2  0  0  0
 15 16  1  0  0  0
 16 17  2  0  0  0
 17 18  1  0  0  0
M  END
> <minimizedAffinity>
-7.21765

$$$$
