CHEMBL529663


 29 32  0  0  0  0  0  0  0  0999 V2000
  -29.5730   -6.4003   -5.3422 C   0  0  0  0  0  0  0  0  0  0  0  0
  -29.4081   -5.0722   -5.4074 C   0  0  0  0  0  0  0  0  0  0  0  0
  -29.1822   -4.4122   -4.0892 C   0  0  0  0  0  0  0  0  0  0  0  0
  -29.1114   -5.5521   -3.2295 N   0  0  0  0  0  0  0  0  0  0  0  0
  -29.3416   -6.7210   -3.8971 C   0  0  0  0  0  0  0  0  0  0  0  0
  -29.2924   -7.8321   -3.4128 O   0  0  0  0  0  0  0  0  0  0  0  0
  -28.8271   -5.5374   -2.2646 H   0  0  0  0  0  0  0  0  0  0  0  0
  -29.2445   -4.1852   -6.5137 C   0  0  0  0  0  0  0  0  0  0  0  0
  -28.5980   -4.5522   -7.6790 C   0  0  0  0  0  0  0  0  0  0  0  0
  -28.3649   -3.3895   -8.3675 N   0  0  0  0  0  0  0  0  0  0  0  0
  -28.3757   -2.3514   -7.4679 C   0  0  0  0  0  0  0  0  0  0  0  0
  -27.7153   -1.1199   -7.4438 C   0  0  0  0  0  0  0  0  0  0  0  0
  -28.0564   -0.2419   -6.4087 C   0  0  0  0  0  0  0  0  0  0  0  0
  -29.0887   -0.5424   -5.5196 C   0  0  0  0  0  0  0  0  0  0  0  0
  -29.6960   -1.8019   -5.5288 C   0  0  0  0  0  0  0  0  0  0  0  0
  -29.2403   -2.7583   -6.4527 C   0  0  0  0  0  0  0  0  0  0  0  0
  -28.0860   -3.3220   -9.3359 H   0  0  0  0  0  0  0  0  0  0  0  0
  -28.8918   -9.1314   -7.8638 C   0  0  0  0  0  0  0  0  0  0  0  0
  -28.7064   -8.0740   -6.9396 C   0  0  0  0  0  0  0  0  0  0  0  0
  -29.7907   -7.4188   -6.3616 C   0  0  0  0  0  0  0  0  0  0  0  0
  -31.0876   -7.8030   -6.7285 C   0  0  0  0  0  0  0  0  0  0  0  0
  -31.2964   -8.8248   -7.6640 C   0  0  0  0  0  0  0  0  0  0  0  0
  -30.1959   -9.5131   -8.2224 C   0  0  0  0  0  0  0  0  0  0  0  0
  -27.2045   -9.0554   -9.5456 C   0  0  0  0  0  0  0  0  0  0  0  0
  -27.8404   -9.7575   -8.4843 O   0  0  0  0  0  0  0  0  0  0  0  0
  -32.5524   -9.2600   -8.0297 O   0  0  0  0  0  0  0  0  0  0  0  0
  -33.2559   -9.9926   -7.0372 C   0  0  0  0  0  0  0  0  0  0  0  0
  -30.5300  -10.4870   -9.1361 O   0  0  0  0  0  0  0  0  0  0  0  0
  -30.4655  -11.8457   -8.7182 C   0  0  0  0  0  0  0  0  0  0  0  0
 24 25  1  0  0  0
 25 18  1  0  0  0
 18 19  1  0  0  0
 18 23  2  0  0  0
 19 20  2  0  0  0
 20  1  1  0  0  0
 20 21  1  0  0  0
  1  2  2  0  0  0
  1  5  1  0  0  0
  2  8  1  0  0  0
  2  3  1  0  0  0
  8  9  2  0  0  0
  8 16  1  0  0  0
  9 10  1  0  0  0
 10 11  1  0  0  0
 10 17  1  0  0  0
 11 12  1  0  0  0
 11 16  2  0  0  0
 12 13  2  0  0  0
 13 14  1  0  0  0
 14 15  2  0  0  0
 15 16  1  0  0  0
  3  4  1  0  0  0
  4  5  1  0  0  0
  4  7  1  0  0  0
  5  6  2  0  0  0
 21 22  2  0  0  0
 22 26  1  0  0  0
 22 23  1  0  0  0
 26 27  1  0  0  0
 23 28  1  0  0  0
 28 29  1  0  0  0
M  END
> <minimizedAffinity>
-8.66557

$$$$
