CHEMBL4516736


 37 42  0  0  0  0  0  0  0  0999 V2000
  -29.0850   -4.9334   -7.2093 N   0  0  0  0  0  0  0  0  0  0  0  0
  -28.1705   -4.5299   -8.1516 N   0  0  0  0  0  0  0  0  0  0  0  0
  -28.4553   -3.3075   -8.4733 C   0  0  0  0  0  0  0  0  0  0  0  0
  -29.6157   -2.7060   -7.7344 C   0  0  0  0  0  0  0  0  0  0  0  0
  -30.0737   -3.9052   -6.8965 C   0  0  0  0  0  0  0  0  0  0  0  0
  -30.0925   -3.5660   -5.4118 C   0  0  0  0  0  0  0  0  0  0  0  0
  -29.1204   -2.7100   -4.8702 C   0  0  0  0  0  0  0  0  0  0  0  0
  -29.1609   -2.3558   -3.5180 C   0  0  0  0  0  0  0  0  0  0  0  0
  -30.1663   -2.8613   -2.6973 C   0  0  0  0  0  0  0  0  0  0  0  0
  -30.2292   -2.4048   -1.0397 Cl  0  0  0  0  0  0  0  0  0  0  0  0
  -31.1257   -3.7284   -3.2106 C   0  0  0  0  0  0  0  0  0  0  0  0
  -31.0884   -4.0798   -4.5608 C   0  0  0  0  0  0  0  0  0  0  0  0
  -27.7062   -2.5402   -9.4938 C   0  0  0  0  0  0  0  0  0  0  0  0
  -26.4324   -2.0566   -9.1987 C   0  0  0  0  0  0  0  0  0  0  0  0
  -25.6959   -1.3802  -10.1789 C   0  0  0  0  0  0  0  0  0  0  0  0
  -26.2005   -1.1575  -11.4692 C   0  0  0  0  0  0  0  0  0  0  0  0
  -27.4968   -1.6232  -11.7267 C   0  0  0  0  0  0  0  0  0  0  0  0
  -28.2411   -2.3129  -10.7607 C   0  0  0  0  0  0  0  0  0  0  0  0
  -25.4563   -0.5242  -12.4369 N   0  0  0  0  0  0  0  0  0  0  0  0
  -25.6167   -0.8019  -13.8718 C   0  0  0  0  0  0  0  0  0  0  0  0
  -24.2595   -1.1861  -14.4737 C   0  0  0  0  0  0  0  0  0  0  0  0
  -23.2740   -0.1666  -14.2314 O   0  0  0  0  0  0  0  0  0  0  0  0
  -23.1000    0.0361  -12.8179 C   0  0  0  0  0  0  0  0  0  0  0  0
  -24.4110    0.4630  -12.1314 C   0  0  0  0  0  0  0  0  0  0  0  0
  -28.7083   -8.1306   -5.6947 C   0  0  0  0  0  0  0  0  0  0  0  0
  -29.9718   -8.4432   -6.1517 C   0  0  0  0  0  0  0  0  0  0  0  0
  -30.6563   -7.1042   -6.9506 S   0  0  0  0  0  0  0  0  0  0  0  0
  -29.1853   -6.2073   -6.7260 C   0  0  0  0  0  0  0  0  0  0  0  0
  -28.2405   -6.8801   -6.0876 N   0  0  0  0  0  0  0  0  0  0  0  0
  -26.3808  -10.8017   -3.2845 C   0  0  0  0  0  0  0  0  0  0  0  0
  -27.6605  -11.1676   -3.7116 C   0  0  0  0  0  0  0  0  0  0  0  0
  -28.4287  -10.2882   -4.4888 C   0  0  0  0  0  0  0  0  0  0  0  0
  -27.9289   -9.0306   -4.8465 C   0  0  0  0  0  0  0  0  0  0  0  0
  -26.6431   -8.6704   -4.4053 C   0  0  0  0  0  0  0  0  0  0  0  0
  -25.8733   -9.5466   -3.6324 C   0  0  0  0  0  0  0  0  0  0  0  0
  -24.9326  -12.4440   -1.8788 N   0  0  0  0  0  0  0  0  0  0  0  0
  -25.5796  -11.7101   -2.5088 C   0  0  0  0  0  0  0  0  0  0  0  0
 36 37  3  0  0  0
 37 30  1  0  0  0
 30 31  1  0  0  0
 30 35  2  0  0  0
 31 32  2  0  0  0
 32 33  1  0  0  0
 33 25  1  0  0  0
 33 34  2  0  0  0
 25 26  2  0  0  0
 25 29  1  0  0  0
 26 27  1  0  0  0
 27 28  1  0  0  0
 28  1  1  0  0  0
 28 29  2  0  0  0
  1  2  1  0  0  0
  1  5  1  0  0  0
  2  3  2  0  0  0
  3 13  1  0  0  0
  3  4  1  0  0  0
 13 14  1  0  0  0
 13 18  2  0  0  0
 14 15  2  0  0  0
 15 16  1  0  0  0
 16 19  1  0  0  0
 16 17  2  0  0  0
 19 20  1  0  0  0
 19 24  1  0  0  0
 20 21  1  0  0  0
 21 22  1  0  0  0
 22 23  1  0  0  0
 23 24  1  0  0  0
 17 18  1  0  0  0
  4  5  1  0  0  0
  5  6  1  0  0  0
  6  7  1  0  0  0
  6 12  2  0  0  0
  7  8  2  0  0  0
  8  9  1  0  0  0
  9 10  1  0  0  0
  9 11  2  0  0  0
 11 12  1  0  0  0
 34 35  1  0  0  0
M  END
> <minimizedAffinity>
-6.46640

$$$$
