CHEMBL209421


 40 45  0  0  0  0  0  0  0  0999 V2000
  -13.1083   -2.8168  -12.0949 C   0  0  0  0  0  0  0  0  0  0  0  0
  -12.8129   -3.8762  -11.2634 N   0  0  0  0  0  0  0  0  0  0  0  0
  -13.9300   -4.4705  -10.7036 N   0  0  0  0  0  0  0  0  0  0  0  0
  -14.9258   -3.6381  -11.0337 C   0  0  0  0  0  0  0  0  0  0  0  0
  -14.4158   -2.5190  -11.7787 C   0  0  0  0  0  0  0  0  0  0  0  0
  -15.5048   -1.8763  -12.5440 C   0  0  0  0  0  0  0  0  0  0  0  0
  -16.1606   -3.2421  -12.8209 C   0  0  0  0  0  0  0  0  0  0  0  0
  -15.7775   -4.1072  -13.8761 C   0  0  0  0  0  0  0  0  0  0  0  0
  -16.0029   -5.4885  -13.7260 C   0  0  0  0  0  0  0  0  0  0  0  0
  -16.8829   -5.9015  -12.7275 C   0  0  0  0  0  0  0  0  0  0  0  0
  -16.9853   -5.1053  -11.5920 C   0  0  0  0  0  0  0  0  0  0  0  0
  -16.3164   -3.8971  -11.5763 C   0  0  0  0  0  0  0  0  0  0  0  0
  -11.9519   -4.3936  -11.2021 H   0  0  0  0  0  0  0  0  0  0  0  0
  -11.4135   -0.9592  -15.0664 C   0  0  0  0  0  0  0  0  0  0  0  0
  -11.5735   -2.2706  -15.4396 C   0  0  0  0  0  0  0  0  0  0  0  0
  -12.0328   -3.0589  -14.3674 C   0  0  0  0  0  0  0  0  0  0  0  0
  -12.3429   -2.3267  -13.2076 C   0  0  0  0  0  0  0  0  0  0  0  0
  -11.7126   -0.7401  -13.3764 S   0  0  0  0  0  0  0  0  0  0  0  0
  -11.2469    0.2108  -15.9866 C   0  0  0  0  0  0  0  0  0  0  0  0
  -14.2155    2.2752  -15.5225 N   0  0  0  0  0  0  0  0  0  0  0  0
  -13.3753    1.2619  -15.9195 C   0  0  0  0  0  0  0  0  0  0  0  0
  -13.7697    0.2070  -16.4275 O   0  0  0  0  0  0  0  0  0  0  0  0
  -12.0048    1.4386  -15.7185 N   0  0  0  0  0  0  0  0  0  0  0  0
  -11.3283    2.6262  -15.2190 C   0  0  0  0  0  0  0  0  0  0  0  0
  -13.8363    3.1942  -15.4326 H   0  0  0  0  0  0  0  0  0  0  0  0
  -15.8993    4.2256  -16.9569 C   0  0  0  0  0  0  0  0  0  0  0  0
  -16.4563    3.0969  -16.1309 C   0  0  0  0  0  0  0  0  0  0  0  0
  -17.8614    2.9612  -16.0573 C   0  0  0  0  0  0  0  0  0  0  0  0
  -18.4592    1.9432  -15.3275 C   0  0  0  0  0  0  0  0  0  0  0  0
  -17.6650    1.0453  -14.6440 C   0  0  0  0  0  0  0  0  0  0  0  0
  -16.2745    1.1640  -14.6969 C   0  0  0  0  0  0  0  0  0  0  0  0
  -15.6419    2.1667  -15.4514 C   0  0  0  0  0  0  0  0  0  0  0  0
  -15.0731   -6.5439  -14.3087 C   0  0  0  0  0  0  0  0  0  0  0  0
  -13.8360   -6.7773  -13.5700 N   0  0  0  0  0  0  0  0  0  0  0  0
  -14.1026   -7.5547  -12.3510 C   0  0  0  0  0  0  0  0  0  0  0  0
  -12.8015   -7.8773  -11.5900 C   0  0  0  0  0  0  0  0  0  0  0  0
  -11.7818   -8.5957  -12.3800 N   0  0  0  0  0  0  0  0  0  0  0  0
  -12.1528   -9.9906  -12.6017 C   0  0  0  0  0  0  0  0  0  0  0  0
  -11.5674   -7.8775  -13.6532 C   0  0  0  0  0  0  0  0  0  0  0  0
  -12.8612   -7.5028  -14.4178 C   0  0  0  0  0  0  0  0  0  0  0  0
 26 27  1  0  0  0
 27 28  1  0  0  0
 27 32  2  0  0  0
 28 29  2  0  0  0
 29 30  1  0  0  0
 30 31  2  0  0  0
 31 32  1  0  0  0
 32 20  1  0  0  0
 20 21  1  0  0  0
 20 25  1  0  0  0
 21 22  2  0  0  0
 21 23  1  0  0  0
 23 24  1  0  0  0
 23 19  1  0  0  0
 19 14  1  0  0  0
 14 15  2  0  0  0
 14 18  1  0  0  0
 15 16  1  0  0  0
 16 17  2  0  0  0
 17  1  1  0  0  0
 17 18  1  0  0  0
  1  2  1  0  0  0
  1  5  2  0  0  0
  2  3  1  0  0  0
  2 13  1  0  0  0
  3  4  2  0  0  0
  4  5  1  0  0  0
  4 12  1  0  0  0
  5  6  1  0  0  0
  6  7  1  0  0  0
  7  8  1  0  0  0
  7 12  2  0  0  0
  8  9  2  0  0  0
  9 33  1  0  0  0
  9 10  1  0  0  0
 33 34  1  0  0  0
 34 35  1  0  0  0
 34 40  1  0  0  0
 35 36  1  0  0  0
 36 37  1  0  0  0
 37 38  1  0  0  0
 37 39  1  0  0  0
 39 40  1  0  0  0
 10 11  2  0  0  0
 11 12  1  0  0  0
M  END
> <minimizedAffinity>
-8.83906

$$$$
