CHEMBL361642


 28 30  0  0  0  0  0  0  0  0999 V2000
  -29.5231   -7.8176   -4.0973 N   0  0  0  0  0  0  0  0  0  0  0  0
  -29.7758   -8.3754   -3.2881 H   0  0  0  0  0  0  0  0  0  0  0  0
  -29.2368   -9.7670   -7.2754 C   0  0  0  0  0  0  0  0  0  0  0  0
  -27.9247  -10.2215   -7.1973 C   0  0  0  0  0  0  0  0  0  0  0  0
  -27.1281   -9.8513   -6.1056 C   0  0  0  0  0  0  0  0  0  0  0  0
  -27.6496   -9.0479   -5.0810 C   0  0  0  0  0  0  0  0  0  0  0  0
  -28.9854   -8.5912   -5.1561 C   0  0  0  0  0  0  0  0  0  0  0  0
  -29.7426   -8.9267   -6.2906 C   0  0  0  0  0  0  0  0  0  0  0  0
  -30.3073  -10.2454   -8.6146 S   0  0  0  0  0  0  0  0  0  0  0  0
  -31.5061   -9.4355   -8.5051 O   0  0  0  0  0  0  0  0  0  0  0  0
  -30.3832  -11.6962   -8.5923 O   0  0  0  0  0  0  0  0  0  0  0  0
  -28.7291  -10.9127  -10.7553 C   0  0  0  0  0  0  0  0  0  0  0  0
  -29.4387   -9.7413  -10.0970 C   0  0  0  0  0  0  0  0  0  0  0  0
  -26.9658   -8.7010   -3.9380 O   0  0  0  0  0  0  0  0  0  0  0  0
  -25.5564   -8.9133   -3.9437 C   0  0  0  0  0  0  0  0  0  0  0  0
  -30.0605   -6.5922   -4.2331 C   0  0  0  0  0  0  0  0  0  0  0  0
  -31.2430   -6.1502   -3.8605 N   0  0  0  0  0  0  0  0  0  0  0  0
  -31.2361   -4.8294   -4.1704 C   0  0  0  0  0  0  0  0  0  0  0  0
  -30.0292   -4.4865   -4.7292 C   0  0  0  0  0  0  0  0  0  0  0  0
  -29.2638   -5.6259   -4.7887 O   0  0  0  0  0  0  0  0  0  0  0  0
  -29.4630   -3.2426   -5.2126 C   0  0  0  0  0  0  0  0  0  0  0  0
  -29.5635   -2.0847   -4.4222 C   0  0  0  0  0  0  0  0  0  0  0  0
  -29.0293   -0.8721   -4.8519 C   0  0  0  0  0  0  0  0  0  0  0  0
  -28.3848   -0.8006   -6.0849 C   0  0  0  0  0  0  0  0  0  0  0  0
  -28.2711   -1.9436   -6.8790 C   0  0  0  0  0  0  0  0  0  0  0  0
  -28.8097   -3.1608   -6.4472 C   0  0  0  0  0  0  0  0  0  0  0  0
  -27.6037   -1.8682   -8.1405 C   0  0  0  0  0  0  0  0  0  0  0  0
  -27.0610   -1.8067   -9.1659 N   0  0  0  0  0  0  0  0  0  0  0  0
 12 13  1  0  0  0
 13  9  1  0  0  0
  9 10  2  0  0  0
  9 11  2  0  0  0
  9  3  1  0  0  0
  3  4  1  0  0  0
  3  8  2  0  0  0
  4  5  2  0  0  0
  5  6  1  0  0  0
  6 14  1  0  0  0
  6  7  2  0  0  0
 14 15  1  0  0  0
  7  1  1  0  0  0
  7  8  1  0  0  0
  1 16  1  0  0  0
  1  2  1  0  0  0
 16 17  2  0  0  0
 16 20  1  0  0  0
 17 18  1  0  0  0
 18 19  2  0  0  0
 19 21  1  0  0  0
 19 20  1  0  0  0
 21 22  1  0  0  0
 21 26  2  0  0  0
 22 23  2  0  0  0
 23 24  1  0  0  0
 24 25  2  0  0  0
 25 27  1  0  0  0
 25 26  1  0  0  0
 27 28  3  0  0  0
M  END
> <minimizedAffinity>
-7.58922

$$$$
