CHEMBL319789


 20 22  0  0  0  0  0  0  0  0999 V2000
  -27.8173   -2.1115   -9.1888 C   0  0  0  0  0  0  0  0  0  0  0  0
  -27.3564   -1.1129   -8.4691 N   0  0  0  0  0  0  0  0  0  0  0  0
  -27.7273   -1.2455   -7.1532 C   0  0  0  0  0  0  0  0  0  0  0  0
  -28.4974   -2.3493   -6.8462 C   0  0  0  0  0  0  0  0  0  0  0  0
  -28.7096   -3.2761   -8.2801 S   0  0  0  0  0  0  0  0  0  0  0  0
  -29.0754   -2.7373   -5.5546 C   0  0  0  0  0  0  0  0  0  0  0  0
  -30.2080   -3.5695   -5.5175 C   0  0  0  0  0  0  0  0  0  0  0  0
  -30.8063   -3.9179   -4.3046 C   0  0  0  0  0  0  0  0  0  0  0  0
  -30.2781   -3.4412   -3.1088 C   0  0  0  0  0  0  0  0  0  0  0  0
  -29.1529   -2.6214   -3.1241 C   0  0  0  0  0  0  0  0  0  0  0  0
  -28.5560   -2.2712   -4.3383 C   0  0  0  0  0  0  0  0  0  0  0  0
  -27.6435   -2.2722  -10.5157 N   0  0  0  0  0  0  0  0  0  0  0  0
  -28.3139   -2.7994  -11.0585 H   0  0  0  0  0  0  0  0  0  0  0  0
  -22.8209   -0.7999  -13.5235 Cl  0  0  0  0  0  0  0  0  0  0  0  0
  -24.2599   -1.2155  -12.6909 C   0  0  0  0  0  0  0  0  0  0  0  0
  -25.4533   -1.3544  -13.3720 C   0  0  0  0  0  0  0  0  0  0  0  0
  -26.6007   -1.6968  -12.6621 C   0  0  0  0  0  0  0  0  0  0  0  0
  -26.5423   -1.9006  -11.2830 C   0  0  0  0  0  0  0  0  0  0  0  0
  -25.3724   -1.7803  -10.6115 N   0  0  0  0  0  0  0  0  0  0  0  0
  -24.2671   -1.4340  -11.3236 C   0  0  0  0  0  0  0  0  0  0  0  0
 14 15  1  0  0  0
 15 16  1  0  0  0
 15 20  2  0  0  0
 16 17  2  0  0  0
 17 18  1  0  0  0
 18 12  1  0  0  0
 18 19  2  0  0  0
 12  1  1  0  0  0
 12 13  1  0  0  0
  1  2  2  0  0  0
  1  5  1  0  0  0
  2  3  1  0  0  0
  3  4  2  0  0  0
  4  6  1  0  0  0
  4  5  1  0  0  0
  6  7  1  0  0  0
  6 11  2  0  0  0
  7  8  2  0  0  0
  8  9  1  0  0  0
  9 10  2  0  0  0
 10 11  1  0  0  0
 19 20  1  0  0  0
M  END
> <minimizedAffinity>
-8.08077

$$$$
