CHEMBL3622958


 33 37  0  0  0  0  0  0  0  0999 V2000
  -14.9720   -5.7284  -12.5710 C   0  0  0  0  0  0  0  0  0  0  0  0
  -16.2148   -5.7509  -11.9832 C   0  0  0  0  0  0  0  0  0  0  0  0
  -16.6965   -4.5239  -11.6061 C   0  0  0  0  0  0  0  0  0  0  0  0
  -16.0351   -3.3662  -11.8040 N   0  0  0  0  0  0  0  0  0  0  0  0
  -14.8200   -3.4374  -12.3682 C   0  0  0  0  0  0  0  0  0  0  0  0
  -14.2640   -4.5883  -12.7578 N   0  0  0  0  0  0  0  0  0  0  0  0
  -12.2106   -9.7186  -12.4100 C   0  0  0  0  0  0  0  0  0  0  0  0
  -13.0787   -8.6510  -12.9710 C   0  0  0  0  0  0  0  0  0  0  0  0
  -13.4937   -7.6445  -12.1885 N   0  0  0  0  0  0  0  0  0  0  0  0
  -14.3602   -6.9505  -12.9674 N   0  0  0  0  0  0  0  0  0  0  0  0
  -14.5593   -7.5775  -14.1739 C   0  0  0  0  0  0  0  0  0  0  0  0
  -13.6080   -8.5683  -14.2915 C   0  0  0  0  0  0  0  0  0  0  0  0
  -13.3213   -9.4658  -15.4523 C   0  0  0  0  0  0  0  0  0  0  0  0
  -12.1536   -9.0351  -16.2542 N   0  0  0  0  0  0  0  0  0  0  0  0
  -12.1278   -7.6035  -16.6626 C   0  0  0  0  0  0  0  0  0  0  0  0
  -13.0132   -7.9326  -17.8802 C   0  0  0  0  0  0  0  0  0  0  0  0
  -14.4464   -7.7633  -17.7309 O   0  0  0  0  0  0  0  0  0  0  0  0
  -12.4329   -9.3603  -17.6929 C   0  0  0  0  0  0  0  0  0  0  0  0
  -14.5639   -7.2946  -16.8844 H   0  0  0  0  0  0  0  0  0  0  0  0
  -14.1644   -2.2236  -12.5505 N   0  0  0  0  0  0  0  0  0  0  0  0
  -13.2377   -2.2970  -12.1525 H   0  0  0  0  0  0  0  0  0  0  0  0
  -14.3209   -1.2058  -13.5070 C   0  0  0  0  0  0  0  0  0  0  0  0
  -13.3444   -0.8568  -14.4426 C   0  0  0  0  0  0  0  0  0  0  0  0
  -13.5421    0.1620  -15.3846 C   0  0  0  0  0  0  0  0  0  0  0  0
  -14.7639    0.8502  -15.3689 C   0  0  0  0  0  0  0  0  0  0  0  0
  -15.7846    0.5164  -14.4777 C   0  0  0  0  0  0  0  0  0  0  0  0
  -15.5598   -0.5420  -13.5697 C   0  0  0  0  0  0  0  0  0  0  0  0
  -16.8775    1.3967  -14.7235 C   0  0  0  0  0  0  0  0  0  0  0  0
  -18.1785    1.4110  -14.0005 C   0  0  0  0  0  0  0  0  0  0  0  0
  -16.4922    2.2644  -15.7365 C   0  0  0  0  0  0  0  0  0  0  0  0
  -17.2407    3.4066  -16.3329 C   0  0  0  0  0  0  0  0  0  0  0  0
  -15.2245    1.9047  -16.1345 N   0  0  0  0  0  0  0  0  0  0  0  0
  -14.4426    2.5266  -17.1827 C   0  0  0  0  0  0  0  0  0  0  0  0
  7  8  1  0  0  0
  8  9  2  0  0  0
  8 12  1  0  0  0
  9 10  1  0  0  0
 10  1  1  0  0  0
 10 11  1  0  0  0
  1  2  1  0  0  0
  1  6  2  0  0  0
  2  3  2  0  0  0
  3  4  1  0  0  0
  4  5  2  0  0  0
  5 20  1  0  0  0
  5  6  1  0  0  0
 20 22  1  0  0  0
 20 21  1  0  0  0
 22 23  1  0  0  0
 22 27  2  0  0  0
 23 24  2  0  0  0
 24 25  1  0  0  0
 25 26  2  0  0  0
 25 32  1  0  0  0
 26 27  1  0  0  0
 26 28  1  0  0  0
 28 29  1  0  0  0
 28 30  2  0  0  0
 30 31  1  0  0  0
 30 32  1  0  0  0
 32 33  1  0  0  0
 11 12  2  0  0  0
 12 13  1  0  0  0
 13 14  1  0  0  0
 14 15  1  0  0  0
 14 18  1  0  0  0
 15 16  1  0  0  0
 16 17  1  0  0  0
 16 18  1  0  0  0
 17 19  1  0  0  0
M  END
> <minimizedAffinity>
-7.70228

$$$$
