CHEMBL526285


 32 36  0  0  0  0  0  0  0  0999 V2000
  -28.7778   -5.3848   -4.4784 O   0  0  0  0  0  0  0  0  0  0  0  0
  -28.6316   -4.3631   -5.1519 C   0  0  0  0  0  0  0  0  0  0  0  0
  -28.3081   -3.2011   -4.5176 N   0  0  0  0  0  0  0  0  0  0  0  0
  -28.1960   -1.9763   -5.1652 C   0  0  0  0  0  0  0  0  0  0  0  0
  -27.9217   -0.8294   -4.4214 C   0  0  0  0  0  0  0  0  0  0  0  0
  -27.8854    0.4151   -5.0507 C   0  0  0  0  0  0  0  0  0  0  0  0
  -28.1237    0.5034   -6.4181 C   0  0  0  0  0  0  0  0  0  0  0  0
  -28.3739   -0.6483   -7.1599 C   0  0  0  0  0  0  0  0  0  0  0  0
  -28.3921   -1.9151   -6.5508 C   0  0  0  0  0  0  0  0  0  0  0  0
  -28.6426   -3.1714   -7.3235 C   0  0  0  0  0  0  0  0  0  0  0  0
  -28.7771   -4.3508   -6.6593 C   0  0  0  0  0  0  0  0  0  0  0  0
  -28.1969   -3.2628   -3.5148 H   0  0  0  0  0  0  0  0  0  0  0  0
  -29.0635   -5.5951   -7.3255 C   0  0  0  0  0  0  0  0  0  0  0  0
  -30.1537   -6.3460   -7.3793 N   0  0  0  0  0  0  0  0  0  0  0  0
  -29.7789   -7.5349   -7.9633 C   0  0  0  0  0  0  0  0  0  0  0  0
  -30.5080   -8.7133   -8.1523 C   0  0  0  0  0  0  0  0  0  0  0  0
  -29.8676   -9.8190   -8.7379 C   0  0  0  0  0  0  0  0  0  0  0  0
  -28.5372   -9.7359   -9.1528 C   0  0  0  0  0  0  0  0  0  0  0  0
  -27.7996   -8.5575   -8.9901 C   0  0  0  0  0  0  0  0  0  0  0  0
  -28.4572   -7.4887   -8.3765 C   0  0  0  0  0  0  0  0  0  0  0  0
  -28.0454   -6.2369   -8.0129 N   0  0  0  0  0  0  0  0  0  0  0  0
  -27.1127   -5.8604   -8.1360 H   0  0  0  0  0  0  0  0  0  0  0  0
  -28.5536   -2.9545   -8.7090 N   0  0  0  0  0  0  0  0  0  0  0  0
  -29.0707   -2.1066   -8.9301 H   0  0  0  0  0  0  0  0  0  0  0  0
  -27.3200   -3.0313   -9.5009 C   0  0  0  0  0  0  0  0  0  0  0  0
  -27.0651   -1.6646  -10.1826 C   0  0  0  0  0  0  0  0  0  0  0  0
  -28.0160   -1.4358  -11.3707 C   0  0  0  0  0  0  0  0  0  0  0  0
  -27.4777   -1.9811  -12.6881 C   0  0  0  0  0  0  0  0  0  0  0  0
  -26.1856   -1.3737  -12.9950 N   0  0  0  0  0  0  0  0  0  0  0  0
  -25.2018   -1.7892  -12.0007 C   0  0  0  0  0  0  0  0  0  0  0  0
  -25.5898   -1.4098  -10.5731 C   0  0  0  0  0  0  0  0  0  0  0  0
  -26.2753   -0.3571  -12.9756 H   0  0  0  0  0  0  0  0  0  0  0  0
  1  2  2  0  0  0
  2  3  1  0  0  0
  2 11  1  0  0  0
  3  4  1  0  0  0
  3 12  1  0  0  0
  4  5  1  0  0  0
  4  9  2  0  0  0
  5  6  2  0  0  0
  6  7  1  0  0  0
  7  8  2  0  0  0
  8  9  1  0  0  0
  9 10  1  0  0  0
 10 23  1  0  0  0
 10 11  2  0  0  0
 23 25  1  0  0  0
 23 24  1  0  0  0
 25 26  1  0  0  0
 26 27  1  0  0  0
 26 31  1  0  0  0
 27 28  1  0  0  0
 28 29  1  0  0  0
 29 30  1  0  0  0
 29 32  1  0  0  0
 30 31  1  0  0  0
 11 13  1  0  0  0
 13 14  2  0  0  0
 13 21  1  0  0  0
 14 15  1  0  0  0
 15 16  1  0  0  0
 15 20  2  0  0  0
 16 17  2  0  0  0
 17 18  1  0  0  0
 18 19  2  0  0  0
 19 20  1  0  0  0
 20 21  1  0  0  0
 21 22  1  0  0  0
M  END
> <minimizedAffinity>
-9.20110

$$$$
