CHEMBL3917093


 46 49  0  0  0  0  0  0  0  0999 V2000
  -21.9730    0.4571  -13.8690 C   0  0  0  0  0  0  0  0  0  0  0  0
  -22.8844   -0.0566  -14.8092 C   0  0  0  0  0  0  0  0  0  0  0  0
  -24.1087   -0.6095  -14.4084 C   0  0  0  0  0  0  0  0  0  0  0  0
  -24.4292   -0.6712  -13.0512 C   0  0  0  0  0  0  0  0  0  0  0  0
  -23.5401   -0.1491  -12.1099 C   0  0  0  0  0  0  0  0  0  0  0  0
  -22.3498    0.4517  -12.5225 C   0  0  0  0  0  0  0  0  0  0  0  0
  -17.0648    1.1248  -15.0564 C   0  0  0  0  0  0  0  0  0  0  0  0
  -16.4440    2.2097  -15.5731 N   0  0  0  0  0  0  0  0  0  0  0  0
  -17.1851    3.3047  -15.8396 C   0  0  0  0  0  0  0  0  0  0  0  0
  -18.5038    3.4819  -15.6589 N   0  0  0  0  0  0  0  0  0  0  0  0
  -19.0801    2.3885  -15.1288 C   0  0  0  0  0  0  0  0  0  0  0  0
  -18.4413    1.2114  -14.7939 C   0  0  0  0  0  0  0  0  0  0  0  0
  -19.4367    0.3467  -14.2719 C   0  0  0  0  0  0  0  0  0  0  0  0
  -20.6724    0.9874  -14.3152 C   0  0  0  0  0  0  0  0  0  0  0  0
  -20.4205    2.2529  -14.8346 N   0  0  0  0  0  0  0  0  0  0  0  0
  -21.3406    3.3465  -15.0606 C   0  0  0  0  0  0  0  0  0  0  0  0
  -16.3745   -0.0641  -14.8092 N   0  0  0  0  0  0  0  0  0  0  0  0
  -17.0493   -0.8228  -14.8802 H   0  0  0  0  0  0  0  0  0  0  0  0
  -14.1640    0.1412  -13.7019 C   0  0  0  0  0  0  0  0  0  0  0  0
  -15.6604   -0.1554  -13.5318 C   0  0  0  0  0  0  0  0  0  0  0  0
  -15.8422   -1.5793  -13.0087 C   0  0  0  0  0  0  0  0  0  0  0  0
  -16.1070   -2.6379  -13.8901 C   0  0  0  0  0  0  0  0  0  0  0  0
  -16.2735   -3.9390  -13.4064 C   0  0  0  0  0  0  0  0  0  0  0  0
  -16.1770   -4.1981  -12.0403 C   0  0  0  0  0  0  0  0  0  0  0  0
  -15.9144   -3.1585  -11.1523 C   0  0  0  0  0  0  0  0  0  0  0  0
  -15.7464   -1.8601  -11.6330 C   0  0  0  0  0  0  0  0  0  0  0  0
  -25.6759   -1.3066  -12.5456 C   0  0  0  0  0  0  0  0  0  0  0  0
  -26.4541   -1.8245  -13.3394 O   0  0  0  0  0  0  0  0  0  0  0  0
  -25.8779   -1.2913  -11.1872 N   0  0  0  0  0  0  0  0  0  0  0  0
  -25.0919   -1.1166  -10.5782 H   0  0  0  0  0  0  0  0  0  0  0  0
  -26.9994   -2.0279  -10.6107 C   0  0  0  0  0  0  0  0  0  0  0  0
  -27.2532   -1.6828   -9.1346 C   0  0  0  0  0  0  0  0  0  0  0  0
  -27.6735   -2.8664   -8.3631 N   0  0  0  0  0  0  0  0  0  0  0  0
  -26.8897   -3.5120   -8.2844 H   0  0  0  0  0  0  0  0  0  0  0  0
  -28.1053   -2.4715   -7.0183 C   0  0  0  0  0  0  0  0  0  0  0  0
  -29.4506   -3.1264   -6.6983 C   0  0  0  0  0  0  0  0  0  0  0  0
  -29.4763   -3.6495   -5.2622 C   0  0  0  0  0  0  0  0  0  0  0  0
  -30.2215   -4.9814   -5.1617 C   0  0  0  0  0  0  0  0  0  0  0  0
  -29.3183   -6.1368   -5.5908 C   0  0  0  0  0  0  0  0  0  0  0  0
  -29.9285   -6.9453   -6.7328 C   0  0  0  0  0  0  0  0  0  0  0  0
  -28.9694   -7.0712   -7.8972 C   0  0  0  0  0  0  0  0  0  0  0  0
  -28.9146   -8.0348   -8.6563 O   0  0  0  0  0  0  0  0  0  0  0  0
  -28.1384   -5.9896   -8.0459 N   0  0  0  0  0  0  0  0  0  0  0  0
  -27.1830   -6.0759   -9.0824 O   0  0  0  0  0  0  0  0  0  0  0  0
  -28.0429   -5.2275   -7.3849 H   0  0  0  0  0  0  0  0  0  0  0  0
  -27.3954   -6.9458   -9.4879 H   0  0  0  0  0  0  0  0  0  0  0  0
 19 20  1  0  0  0
 20 17  1  0  0  0
 20 21  1  0  0  0
 17  7  1  0  0  0
 17 18  1  0  0  0
  7  8  1  0  0  0
  7 12  2  0  0  0
  8  9  2  0  0  0
  9 10  1  0  0  0
 10 11  2  0  0  0
 11 12  1  0  0  0
 11 15  1  0  0  0
 12 13  1  0  0  0
 13 14  2  0  0  0
 14  1  1  0  0  0
 14 15  1  0  0  0
  1  2  1  0  0  0
  1  6  2  0  0  0
  2  3  2  0  0  0
  3  4  1  0  0  0
  4 27  1  0  0  0
  4  5  2  0  0  0
 27 28  2  0  0  0
 27 29  1  0  0  0
 29 31  1  0  0  0
 29 30  1  0  0  0
 31 32  1  0  0  0
 32 33  1  0  0  0
 33 35  1  0  0  0
 33 34  1  0  0  0
 35 36  1  0  0  0
 36 37  1  0  0  0
 37 38  1  0  0  0
 38 39  1  0  0  0
 39 40  1  0  0  0
 40 41  1  0  0  0
 41 42  2  0  0  0
 41 43  1  0  0  0
 43 44  1  0  0  0
 43 45  1  0  0  0
 44 46  1  0  0  0
  5  6  1  0  0  0
 15 16  1  0  0  0
 21 22  1  0  0  0
 21 26  2  0  0  0
 22 23  2  0  0  0
 23 24  1  0  0  0
 24 25  2  0  0  0
 25 26  1  0  0  0
M  END
> <minimizedAffinity>
-9.58993

$$$$
