CHEMBL4066813


 37 40  0  0  0  0  0  0  0  0999 V2000
  -21.3508    0.8279  -14.2694 C   0  0  0  0  0  0  0  0  0  0  0  0
  -20.2515    0.2319  -14.9007 C   0  0  0  0  0  0  0  0  0  0  0  0
  -19.2204    1.0181  -15.4539 C   0  0  0  0  0  0  0  0  0  0  0  0
  -19.2685    2.4156  -15.4067 C   0  0  0  0  0  0  0  0  0  0  0  0
  -20.3344    3.0010  -14.7455 C   0  0  0  0  0  0  0  0  0  0  0  0
  -21.3678    2.2302  -14.2243 C   0  0  0  0  0  0  0  0  0  0  0  0
  -27.9485   -2.1386  -14.4601 N   0  0  0  0  0  0  0  0  0  0  0  0
  -26.8297   -1.7710  -13.7324 C   0  0  0  0  0  0  0  0  0  0  0  0
  -26.8458   -2.0505  -12.4323 N   0  0  0  0  0  0  0  0  0  0  0  0
  -25.7357   -1.7215  -11.7541 C   0  0  0  0  0  0  0  0  0  0  0  0
  -24.6216   -1.1458  -12.3376 C   0  0  0  0  0  0  0  0  0  0  0  0
  -23.4667   -0.8358  -11.6139 C   0  0  0  0  0  0  0  0  0  0  0  0
  -22.3959   -0.2479  -12.2733 C   0  0  0  0  0  0  0  0  0  0  0  0
  -22.4624    0.0802  -13.6422 C   0  0  0  0  0  0  0  0  0  0  0  0
  -23.6364   -0.2739  -14.3343 C   0  0  0  0  0  0  0  0  0  0  0  0
  -24.7172   -0.8909  -13.7068 C   0  0  0  0  0  0  0  0  0  0  0  0
  -25.8168   -1.2156  -14.4037 N   0  0  0  0  0  0  0  0  0  0  0  0
  -28.4269   -2.8857  -13.9760 H   0  0  0  0  0  0  0  0  0  0  0  0
  -27.6844   -2.3030  -15.4210 H   0  0  0  0  0  0  0  0  0  0  0  0
  -18.2413    3.1454  -16.0503 N   0  0  0  0  0  0  0  0  0  0  0  0
  -18.5390    3.6788  -16.8583 H   0  0  0  0  0  0  0  0  0  0  0  0
  -16.8887    3.2943  -15.7306 C   0  0  0  0  0  0  0  0  0  0  0  0
  -15.8421    4.5443  -16.1471 S   0  0  0  0  0  0  0  0  0  0  0  0
  -16.4435    2.1273  -15.0876 N   0  0  0  0  0  0  0  0  0  0  0  0
  -17.2030    1.6184  -14.6554 H   0  0  0  0  0  0  0  0  0  0  0  0
  -15.3212    1.3672  -15.5056 C   0  0  0  0  0  0  0  0  0  0  0  0
  -15.0332    1.3462  -16.8816 C   0  0  0  0  0  0  0  0  0  0  0  0
  -14.1071    0.4534  -17.4037 C   0  0  0  0  0  0  0  0  0  0  0  0
  -13.8940    0.3174  -19.2760 Br  0  0  0  0  0  0  0  0  0  0  0  0
  -13.3947   -0.3787  -16.5537 C   0  0  0  0  0  0  0  0  0  0  0  0
  -13.5968   -0.2865  -15.1724 C   0  0  0  0  0  0  0  0  0  0  0  0
  -14.5438    0.5966  -14.6256 C   0  0  0  0  0  0  0  0  0  0  0  0
  -14.7409    0.4083  -13.2900 O   0  0  0  0  0  0  0  0  0  0  0  0
  -15.8352   -0.3510  -12.8100 C   0  0  0  0  0  0  0  0  0  0  0  0
  -15.5052   -1.2652  -11.8748 F   0  0  0  0  0  0  0  0  0  0  0  0
  -16.7241    0.4999  -12.2500 F   0  0  0  0  0  0  0  0  0  0  0  0
  -16.4425   -0.9838  -13.8344 F   0  0  0  0  0  0  0  0  0  0  0  0
  7  8  1  0  0  0
  7 18  1  0  0  0
  7 19  1  0  0  0
  8  9  1  0  0  0
  8 17  2  0  0  0
  9 10  2  0  0  0
 10 11  1  0  0  0
 11 12  1  0  0  0
 11 16  2  0  0  0
 12 13  2  0  0  0
 13 14  1  0  0  0
 14  1  1  0  0  0
 14 15  2  0  0  0
  1  2  1  0  0  0
  1  6  2  0  0  0
  2  3  2  0  0  0
  3  4  1  0  0  0
  4 20  1  0  0  0
  4  5  2  0  0  0
 20 22  1  0  0  0
 20 21  1  0  0  0
 22 23  2  0  0  0
 22 24  1  0  0  0
 24 26  1  0  0  0
 24 25  1  0  0  0
 26 27  1  0  0  0
 26 32  2  0  0  0
 27 28  2  0  0  0
 28 29  1  0  0  0
 28 30  1  0  0  0
 30 31  2  0  0  0
 31 32  1  0  0  0
 32 33  1  0  0  0
 33 34  1  0  0  0
 34 35  1  0  0  0
 34 36  1  0  0  0
 34 37  1  0  0  0
  5  6  1  0  0  0
 15 16  1  0  0  0
 16 17  1  0  0  0
M  END
> <minimizedAffinity>
-10.01808

$$$$
