CHEMBL4092519


 42 46  0  0  0  0  0  0  0  0999 V2000
  -28.9469   -8.8270   -6.6285 N   0  0  0  0  0  0  0  0  0  0  0  0
  -28.3713   -9.3940   -7.7417 C   0  0  0  0  0  0  0  0  0  0  0  0
  -27.9486   -8.7765   -8.7115 O   0  0  0  0  0  0  0  0  0  0  0  0
  -28.9768   -9.3848   -5.7857 H   0  0  0  0  0  0  0  0  0  0  0  0
  -29.1989   -4.6669   -6.0003 C   0  0  0  0  0  0  0  0  0  0  0  0
  -30.0556   -5.3034   -6.9062 C   0  0  0  0  0  0  0  0  0  0  0  0
  -29.9357   -6.6679   -7.1885 C   0  0  0  0  0  0  0  0  0  0  0  0
  -29.0681   -7.4472   -6.4329 C   0  0  0  0  0  0  0  0  0  0  0  0
  -28.3165   -6.8725   -5.4181 C   0  0  0  0  0  0  0  0  0  0  0  0
  -28.3442   -5.4888   -5.2438 C   0  0  0  0  0  0  0  0  0  0  0  0
  -27.5711   -3.4924   -8.7600 N   0  0  0  0  0  0  0  0  0  0  0  0
  -27.8426   -2.4001   -8.0296 C   0  0  0  0  0  0  0  0  0  0  0  0
  -27.4655   -1.2102   -8.4903 N   0  0  0  0  0  0  0  0  0  0  0  0
  -27.8654   -0.3674   -7.5387 N   0  0  0  0  0  0  0  0  0  0  0  0
  -28.5174   -0.9607   -6.4940 C   0  0  0  0  0  0  0  0  0  0  0  0
  -29.0522   -0.3844   -5.3376 C   0  0  0  0  0  0  0  0  0  0  0  0
  -29.6799   -1.2300   -4.4351 C   0  0  0  0  0  0  0  0  0  0  0  0
  -29.7399   -2.5995   -4.6810 C   0  0  0  0  0  0  0  0  0  0  0  0
  -29.1665   -3.2030   -5.8345 C   0  0  0  0  0  0  0  0  0  0  0  0
  -28.5360   -2.3235   -6.7803 C   0  0  0  0  0  0  0  0  0  0  0  0
  -26.9591   -3.3523   -9.5550 H   0  0  0  0  0  0  0  0  0  0  0  0
  -27.4177   -4.3844   -8.3018 H   0  0  0  0  0  0  0  0  0  0  0  0
  -27.6588    0.6160   -7.6539 H   0  0  0  0  0  0  0  0  0  0  0  0
  -28.2551  -10.8975   -7.7215 C   0  0  0  0  0  0  0  0  0  0  0  0
  -29.1593  -11.6426   -8.7048 C   0  0  0  0  0  0  0  0  0  0  0  0
  -29.3991  -11.8055   -7.2379 C   0  0  0  0  0  0  0  0  0  0  0  0
  -26.8638  -11.4240   -7.4663 C   0  0  0  0  0  0  0  0  0  0  0  0
  -26.5040  -12.4659   -7.9994 O   0  0  0  0  0  0  0  0  0  0  0  0
  -26.0803  -10.6050   -6.6798 N   0  0  0  0  0  0  0  0  0  0  0  0
  -26.4839   -9.7288   -6.3673 H   0  0  0  0  0  0  0  0  0  0  0  0
  -24.8266  -10.9602   -6.1458 C   0  0  0  0  0  0  0  0  0  0  0  0
  -23.6576  -10.5104   -6.7819 C   0  0  0  0  0  0  0  0  0  0  0  0
  -22.4025  -10.8543   -6.2799 C   0  0  0  0  0  0  0  0  0  0  0  0
  -20.8371  -10.3181   -7.1949 Br  0  0  0  0  0  0  0  0  0  0  0  0
  -22.2923  -11.6042   -5.1160 C   0  0  0  0  0  0  0  0  0  0  0  0
  -23.4499  -12.0573   -4.4832 C   0  0  0  0  0  0  0  0  0  0  0  0
  -24.7211  -11.7884   -5.0155 C   0  0  0  0  0  0  0  0  0  0  0  0
  -25.7370  -12.2342   -4.2188 O   0  0  0  0  0  0  0  0  0  0  0  0
  -26.2060  -11.4338   -3.1510 C   0  0  0  0  0  0  0  0  0  0  0  0
  -25.7417  -11.8020   -1.9389 F   0  0  0  0  0  0  0  0  0  0  0  0
  -25.8417  -10.1526   -3.3675 F   0  0  0  0  0  0  0  0  0  0  0  0
  -27.5587  -11.4920   -3.1183 F   0  0  0  0  0  0  0  0  0  0  0  0
 11 12  1  0  0  0
 11 21  1  0  0  0
 11 22  1  0  0  0
 12 13  2  0  0  0
 12 20  1  0  0  0
 13 14  1  0  0  0
 14 15  1  0  0  0
 14 23  1  0  0  0
 15 16  1  0  0  0
 15 20  2  0  0  0
 16 17  2  0  0  0
 17 18  1  0  0  0
 18 19  2  0  0  0
 19  5  1  0  0  0
 19 20  1  0  0  0
  5  6  1  0  0  0
  5 10  2  0  0  0
  6  7  2  0  0  0
  7  8  1  0  0  0
  8  1  1  0  0  0
  8  9  2  0  0  0
  1  2  1  0  0  0
  1  4  1  0  0  0
  2  3  2  0  0  0
  2 24  1  0  0  0
 24 27  1  0  0  0
 24 25  1  0  0  0
 24 26  1  0  0  0
 27 28  2  0  0  0
 27 29  1  0  0  0
 29 31  1  0  0  0
 29 30  1  0  0  0
 31 32  1  0  0  0
 31 37  2  0  0  0
 32 33  2  0  0  0
 33 34  1  0  0  0
 33 35  1  0  0  0
 35 36  2  0  0  0
 36 37  1  0  0  0
 37 38  1  0  0  0
 38 39  1  0  0  0
 39 40  1  0  0  0
 39 41  1  0  0  0
 39 42  1  0  0  0
 25 26  1  0  0  0
  9 10  1  0  0  0
M  END
> <minimizedAffinity>
-8.84604

$$$$
