CHEMBL3099471


 42 44  0  0  0  0  0  0  0  0999 V2000
  -27.4427  -10.0757   -4.7242 N   0  0  0  0  0  0  0  0  0  0  0  0
  -27.6684   -8.7137   -4.6622 C   0  0  0  0  0  0  0  0  0  0  0  0
  -26.8316   -7.8435   -4.8431 O   0  0  0  0  0  0  0  0  0  0  0  0
  -28.9754   -8.3795   -4.2970 N   0  0  0  0  0  0  0  0  0  0  0  0
  -28.1501  -10.6576   -4.3004 H   0  0  0  0  0  0  0  0  0  0  0  0
  -29.2871   -8.8754   -3.4740 H   0  0  0  0  0  0  0  0  0  0  0  0
  -24.9883  -11.6898   -7.0370 C   0  0  0  0  0  0  0  0  0  0  0  0
  -23.9760  -12.0820   -6.1711 C   0  0  0  0  0  0  0  0  0  0  0  0
  -24.0819  -11.8277   -4.8138 C   0  0  0  0  0  0  0  0  0  0  0  0
  -25.1942  -11.1608   -4.2646 C   0  0  0  0  0  0  0  0  0  0  0  0
  -25.1114  -10.9675   -2.7752 C   0  0  0  0  0  0  0  0  0  0  0  0
  -26.2390  -10.7430   -5.1215 C   0  0  0  0  0  0  0  0  0  0  0  0
  -26.0893  -10.9852   -6.5145 C   0  0  0  0  0  0  0  0  0  0  0  0
  -24.9711  -11.9477   -8.3934 O   0  0  0  0  0  0  0  0  0  0  0  0
  -26.2804  -12.1379   -8.9740 C   0  0  0  0  0  0  0  0  0  0  0  0
  -26.6953  -10.9541   -9.8671 C   0  0  0  0  0  0  0  0  0  0  0  0
  -28.0018  -10.3359   -9.5187 N   0  0  0  0  0  0  0  0  0  0  0  0
  -28.8657   -8.2870   -8.3042 C   0  0  0  0  0  0  0  0  0  0  0  0
  -27.8119   -8.9028   -9.2241 C   0  0  0  0  0  0  0  0  0  0  0  0
  -29.0858  -10.6021  -10.4790 C   0  0  0  0  0  0  0  0  0  0  0  0
  -28.8037  -10.2481  -11.9357 C   0  0  0  0  0  0  0  0  0  0  0  0
  -29.3369   -6.9984   -4.3554 C   0  0  0  0  0  0  0  0  0  0  0  0
  -30.2997   -6.4816   -3.4843 C   0  0  0  0  0  0  0  0  0  0  0  0
  -30.7905   -5.1757   -3.6306 C   0  0  0  0  0  0  0  0  0  0  0  0
  -30.3276   -4.3900   -4.7074 C   0  0  0  0  0  0  0  0  0  0  0  0
  -29.2760   -4.8657   -5.5482 C   0  0  0  0  0  0  0  0  0  0  0  0
  -28.7827   -6.1743   -5.3295 C   0  0  0  0  0  0  0  0  0  0  0  0
  -28.6912   -4.0420   -6.6452 C   0  0  0  0  0  0  0  0  0  0  0  0
  -28.4984   -4.5417   -7.9323 C   0  0  0  0  0  0  0  0  0  0  0  0
  -27.9195   -3.7495   -8.9323 C   0  0  0  0  0  0  0  0  0  0  0  0
  -27.5648   -2.3971   -8.7177 C   0  0  0  0  0  0  0  0  0  0  0  0
  -27.7475   -1.8701   -7.4326 C   0  0  0  0  0  0  0  0  0  0  0  0
  -28.2762   -2.7178   -6.4317 C   0  0  0  0  0  0  0  0  0  0  0  0
  -26.9804   -1.6832   -9.9005 C   0  0  0  0  0  0  0  0  0  0  0  0
  -27.9039   -1.1933  -10.9991 C   0  0  0  0  0  0  0  0  0  0  0  0
  -25.7684   -1.5524  -10.0416 O   0  0  0  0  0  0  0  0  0  0  0  0
  -27.5421   -0.6442   -6.8756 O   0  0  0  0  0  0  0  0  0  0  0  0
  -28.5551    0.1541   -6.3083 C   0  0  0  0  0  0  0  0  0  0  0  0
  -31.7254   -4.6354   -2.7866 O   0  0  0  0  0  0  0  0  0  0  0  0
  -32.5111   -5.5067   -1.9864 C   0  0  0  0  0  0  0  0  0  0  0  0
  -30.8407   -3.1624   -5.0775 O   0  0  0  0  0  0  0  0  0  0  0  0
  -30.5582   -1.9845   -4.3403 C   0  0  0  0  0  0  0  0  0  0  0  0
 18 19  1  0  0  0
 19 17  1  0  0  0
 17 20  1  0  0  0
 17 16  1  0  0  0
 20 21  1  0  0  0
 16 15  1  0  0  0
 15 14  1  0  0  0
 14  7  1  0  0  0
  7  8  1  0  0  0
  7 13  2  0  0  0
  8  9  2  0  0  0
  9 10  1  0  0  0
 10 11  1  0  0  0
 10 12  2  0  0  0
 12  1  1  0  0  0
 12 13  1  0  0  0
  1  2  1  0  0  0
  1  5  1  0  0  0
  2  3  2  0  0  0
  2  4  1  0  0  0
  4 22  1  0  0  0
  4  6  1  0  0  0
 22 23  1  0  0  0
 22 27  2  0  0  0
 23 24  2  0  0  0
 24 39  1  0  0  0
 24 25  1  0  0  0
 39 40  1  0  0  0
 25 41  1  0  0  0
 25 26  2  0  0  0
 41 42  1  0  0  0
 26 28  1  0  0  0
 26 27  1  0  0  0
 28 29  1  0  0  0
 28 33  2  0  0  0
 29 30  2  0  0  0
 30 31  1  0  0  0
 31 34  1  0  0  0
 31 32  2  0  0  0
 34 35  1  0  0  0
 34 36  2  0  0  0
 32 37  1  0  0  0
 32 33  1  0  0  0
 37 38  1  0  0  0
M  END
> <minimizedAffinity>
-6.54752

$$$$
