CHEMBL3690491


 35 38  0  0  0  0  0  0  0  0999 V2000
  -29.3075   -4.6977   -6.9700 C   0  0  0  0  0  0  0  0  0  0  0  0
  -28.2326   -5.3487   -7.7372 C   0  0  0  0  0  0  0  0  0  0  0  0
  -28.3407   -6.6420   -8.0963 C   0  0  0  0  0  0  0  0  0  0  0  0
  -29.4796   -7.3671   -7.7376 N   0  0  0  0  0  0  0  0  0  0  0  0
  -29.8825   -8.6683   -8.0217 C   0  0  0  0  0  0  0  0  0  0  0  0
  -31.0896   -8.7949   -7.3419 C   0  0  0  0  0  0  0  0  0  0  0  0
  -31.4460   -7.6567   -6.6850 N   0  0  0  0  0  0  0  0  0  0  0  0
  -30.4799   -6.8091   -6.9423 C   0  0  0  0  0  0  0  0  0  0  0  0
  -30.3513   -5.4497   -6.5525 C   0  0  0  0  0  0  0  0  0  0  0  0
  -29.2840   -0.6149   -5.8028 C   0  0  0  0  0  0  0  0  0  0  0  0
  -28.3291   -1.0512   -6.7074 C   0  0  0  0  0  0  0  0  0  0  0  0
  -28.3238   -2.3812   -7.1204 C   0  0  0  0  0  0  0  0  0  0  0  0
  -29.2892   -3.2523   -6.6315 C   0  0  0  0  0  0  0  0  0  0  0  0
  -30.2160   -2.8075   -5.7590 N   0  0  0  0  0  0  0  0  0  0  0  0
  -30.2196   -1.4792   -5.3595 N   0  0  0  0  0  0  0  0  0  0  0  0
  -28.0078    1.1114   -4.7218 C   0  0  0  0  0  0  0  0  0  0  0  0
  -29.2365    0.7323   -5.3972 N   0  0  0  0  0  0  0  0  0  0  0  0
  -29.4283    1.3240   -6.2016 H   0  0  0  0  0  0  0  0  0  0  0  0
  -29.2109   -9.6913   -8.8372 C   0  0  0  0  0  0  0  0  0  0  0  0
  -29.5990   -9.8160  -10.1826 C   0  0  0  0  0  0  0  0  0  0  0  0
  -28.9485  -10.6932  -11.0428 C   0  0  0  0  0  0  0  0  0  0  0  0
  -27.8798  -11.4483  -10.5761 C   0  0  0  0  0  0  0  0  0  0  0  0
  -27.4346  -11.3174   -9.2575 C   0  0  0  0  0  0  0  0  0  0  0  0
  -28.1281  -10.4654   -8.3807 C   0  0  0  0  0  0  0  0  0  0  0  0
  -26.2877  -12.0002   -8.7871 N   0  0  0  0  0  0  0  0  0  0  0  0
  -25.3403  -11.4353   -7.9511 C   0  0  0  0  0  0  0  0  0  0  0  0
  -25.3903  -10.3184   -7.4515 O   0  0  0  0  0  0  0  0  0  0  0  0
  -24.2606  -12.2444   -7.7238 N   0  0  0  0  0  0  0  0  0  0  0  0
  -26.2789  -13.0028   -8.8670 H   0  0  0  0  0  0  0  0  0  0  0  0
  -24.3687  -13.2411   -7.8486 H   0  0  0  0  0  0  0  0  0  0  0  0
  -23.2239  -11.7776   -6.7925 C   0  0  0  0  0  0  0  0  0  0  0  0
  -21.7792  -11.8046   -7.3166 C   0  0  0  0  0  0  0  0  0  0  0  0
  -21.6738  -12.4654   -8.4927 F   0  0  0  0  0  0  0  0  0  0  0  0
  -21.3490  -10.5367   -7.5432 F   0  0  0  0  0  0  0  0  0  0  0  0
  -20.9215  -12.3646   -6.4389 F   0  0  0  0  0  0  0  0  0  0  0  0
 16 17  1  0  0  0
 17 10  1  0  0  0
 17 18  1  0  0  0
 10 11  1  0  0  0
 10 15  2  0  0  0
 11 12  2  0  0  0
 12 13  1  0  0  0
 13  1  1  0  0  0
 13 14  2  0  0  0
  1  2  1  0  0  0
  1  9  2  0  0  0
  2  3  2  0  0  0
  3  4  1  0  0  0
  4  5  1  0  0  0
  4  8  1  0  0  0
  5 19  1  0  0  0
  5  6  2  0  0  0
 19 20  1  0  0  0
 19 24  2  0  0  0
 20 21  2  0  0  0
 21 22  1  0  0  0
 22 23  2  0  0  0
 23 25  1  0  0  0
 23 24  1  0  0  0
 25 26  1  0  0  0
 25 29  1  0  0  0
 26 27  2  0  0  0
 26 28  1  0  0  0
 28 31  1  0  0  0
 28 30  1  0  0  0
 31 32  1  0  0  0
 32 33  1  0  0  0
 32 34  1  0  0  0
 32 35  1  0  0  0
  6  7  1  0  0  0
  7  8  2  0  0  0
  8  9  1  0  0  0
 14 15  1  0  0  0
M  END
> <minimizedAffinity>
-8.36559

$$$$
