CHEMBL3671576


 39 42  0  0  0  0  0  0  0  0999 V2000
  -28.0025   -3.5217   -8.0614 C   0  0  0  0  0  0  0  0  0  0  0  0
  -28.5264   -3.2349   -6.7978 C   0  0  0  0  0  0  0  0  0  0  0  0
  -28.5854   -1.9236   -6.2948 C   0  0  0  0  0  0  0  0  0  0  0  0
  -29.0872   -1.5996   -5.0226 C   0  0  0  0  0  0  0  0  0  0  0  0
  -29.1547   -0.3306   -4.5892 N   0  0  0  0  0  0  0  0  0  0  0  0
  -28.6665    0.6008   -5.4153 C   0  0  0  0  0  0  0  0  0  0  0  0
  -28.1588    0.3977   -6.6413 N   0  0  0  0  0  0  0  0  0  0  0  0
  -28.1356   -0.8656   -7.0855 C   0  0  0  0  0  0  0  0  0  0  0  0
  -27.6676   -1.1562   -8.3709 C   0  0  0  0  0  0  0  0  0  0  0  0
  -27.6378   -2.4619   -8.8998 C   0  0  0  0  0  0  0  0  0  0  0  0
  -28.7693   -5.8245   -8.0411 C   0  0  0  0  0  0  0  0  0  0  0  0
  -29.8592   -5.5874   -7.5340 O   0  0  0  0  0  0  0  0  0  0  0  0
  -27.8100   -4.8848   -8.3761 N   0  0  0  0  0  0  0  0  0  0  0  0
  -26.8792   -5.2247   -8.5401 H   0  0  0  0  0  0  0  0  0  0  0  0
  -29.1212   -8.2349   -7.9554 C   0  0  0  0  0  0  0  0  0  0  0  0
  -28.3156   -7.2176   -8.2766 C   0  0  0  0  0  0  0  0  0  0  0  0
  -29.5176   -2.6424   -4.1734 N   0  0  0  0  0  0  0  0  0  0  0  0
  -30.3453   -2.3833   -3.6417 H   0  0  0  0  0  0  0  0  0  0  0  0
  -29.3283   -4.0310   -4.2896 C   0  0  0  0  0  0  0  0  0  0  0  0
  -28.0539   -4.6099   -4.3031 C   0  0  0  0  0  0  0  0  0  0  0  0
  -27.9001   -5.9995   -4.2243 C   0  0  0  0  0  0  0  0  0  0  0  0
  -29.0263   -6.8192   -4.1389 C   0  0  0  0  0  0  0  0  0  0  0  0
  -28.8048   -8.6839   -3.9142 Br  0  0  0  0  0  0  0  0  0  0  0  0
  -30.3019   -6.2765   -4.1772 C   0  0  0  0  0  0  0  0  0  0  0  0
  -30.4362   -4.8894   -4.2435 C   0  0  0  0  0  0  0  0  0  0  0  0
  -31.6745   -4.3648   -4.2398 F   0  0  0  0  0  0  0  0  0  0  0  0
  -27.1251   -2.5413  -10.1744 O   0  0  0  0  0  0  0  0  0  0  0  0
  -26.2977   -1.4483  -10.5853 C   0  0  0  0  0  0  0  0  0  0  0  0
  -25.8496   -1.5913  -12.0421 C   0  0  0  0  0  0  0  0  0  0  0  0
  -24.7786   -0.6538  -12.3764 N   0  0  0  0  0  0  0  0  0  0  0  0
  -23.4606   -1.0499  -12.2824 C   0  0  0  0  0  0  0  0  0  0  0  0
  -23.1491   -2.1976  -11.9788 O   0  0  0  0  0  0  0  0  0  0  0  0
  -24.9979    0.3151  -12.5655 H   0  0  0  0  0  0  0  0  0  0  0  0
  -22.4003    0.0278  -12.5802 C   0  0  0  0  0  0  0  0  0  0  0  0
  -22.5534    0.6329  -13.9267 N   0  0  0  0  0  0  0  0  0  0  0  0
  -21.2718    0.5546  -14.6620 C   0  0  0  0  0  0  0  0  0  0  0  0
  -20.5292    1.8341  -14.3228 C   0  0  0  0  0  0  0  0  0  0  0  0
  -21.6404    2.8589  -14.3191 C   0  0  0  0  0  0  0  0  0  0  0  0
  -22.8751    2.0787  -13.8769 C   0  0  0  0  0  0  0  0  0  0  0  0
 15 16  2  0  0  0
 16 11  1  0  0  0
 11 12  2  0  0  0
 11 13  1  0  0  0
 13  1  1  0  0  0
 13 14  1  0  0  0
  1  2  1  0  0  0
  1 10  2  0  0  0
  2  3  2  0  0  0
  3  4  1  0  0  0
  3  8  1  0  0  0
  4 17  1  0  0  0
  4  5  2  0  0  0
 17 19  1  0  0  0
 17 18  1  0  0  0
 19 20  1  0  0  0
 19 25  2  0  0  0
 20 21  2  0  0  0
 21 22  1  0  0  0
 22 23  1  0  0  0
 22 24  2  0  0  0
 24 25  1  0  0  0
 25 26  1  0  0  0
  5  6  1  0  0  0
  6  7  2  0  0  0
  7  8  1  0  0  0
  8  9  2  0  0  0
  9 10  1  0  0  0
 10 27  1  0  0  0
 27 28  1  0  0  0
 28 29  1  0  0  0
 29 30  1  0  0  0
 30 31  1  0  0  0
 30 33  1  0  0  0
 31 32  2  0  0  0
 31 34  1  0  0  0
 34 35  1  0  0  0
 35 36  1  0  0  0
 35 39  1  0  0  0
 36 37  1  0  0  0
 37 38  1  0  0  0
 38 39  1  0  0  0
M  END
> <minimizedAffinity>
-9.46255

$$$$
