CHEMBL2086751


 40 45  0  0  0  0  0  0  0  0999 V2000
  -27.2355   -2.1336   -9.8586 C   0  0  0  0  0  0  0  0  0  0  0  0
  -26.9643   -0.8388   -9.3812 C   0  0  0  0  0  0  0  0  0  0  0  0
  -27.3084   -0.4593   -8.0889 C   0  0  0  0  0  0  0  0  0  0  0  0
  -27.9046   -1.4159   -7.2783 C   0  0  0  0  0  0  0  0  0  0  0  0
  -28.1500   -2.7344   -7.6739 C   0  0  0  0  0  0  0  0  0  0  0  0
  -27.7888   -3.0975   -8.9721 C   0  0  0  0  0  0  0  0  0  0  0  0
  -28.7996   -3.4205   -6.5003 C   0  0  0  0  0  0  0  0  0  0  0  0
  -29.2081   -4.7093   -6.3071 C   0  0  0  0  0  0  0  0  0  0  0  0
  -28.8726   -2.3452   -5.4274 C   0  0  0  0  0  0  0  0  0  0  0  0
  -29.2507   -2.4501   -4.2696 O   0  0  0  0  0  0  0  0  0  0  0  0
  -28.3302   -1.1996   -5.9816 N   0  0  0  0  0  0  0  0  0  0  0  0
  -28.2332   -0.3341   -5.4693 H   0  0  0  0  0  0  0  0  0  0  0  0
  -29.7808   -5.1813   -5.0497 C   0  0  0  0  0  0  0  0  0  0  0  0
  -29.3808   -5.9785   -4.0565 N   0  0  0  0  0  0  0  0  0  0  0  0
  -30.4230   -6.0053   -3.1111 C   0  0  0  0  0  0  0  0  0  0  0  0
  -30.6362   -6.7315   -1.8998 C   0  0  0  0  0  0  0  0  0  0  0  0
  -31.8860   -6.6203   -1.2459 C   0  0  0  0  0  0  0  0  0  0  0  0
  -32.8683   -5.7573   -1.7517 C   0  0  0  0  0  0  0  0  0  0  0  0
  -32.6406   -4.9680   -2.8749 C   0  0  0  0  0  0  0  0  0  0  0  0
  -31.4250   -5.1369   -3.5238 C   0  0  0  0  0  0  0  0  0  0  0  0
  -30.9422   -4.5560   -4.6627 N   0  0  0  0  0  0  0  0  0  0  0  0
  -31.4033   -3.8231   -5.1735 H   0  0  0  0  0  0  0  0  0  0  0  0
  -32.3390   -7.2700   -0.1369 O   0  0  0  0  0  0  0  0  0  0  0  0
  -33.3887   -6.7204    0.6382 C   0  0  0  0  0  0  0  0  0  0  0  0
  -28.8635   -5.7287   -7.3380 C   0  0  0  0  0  0  0  0  0  0  0  0
  -27.6614   -5.6299   -8.0685 C   0  0  0  0  0  0  0  0  0  0  0  0
  -27.2835   -6.6402   -8.9570 C   0  0  0  0  0  0  0  0  0  0  0  0
  -28.0882   -7.7629   -9.1185 C   0  0  0  0  0  0  0  0  0  0  0  0
  -29.2883   -7.8627   -8.4104 C   0  0  0  0  0  0  0  0  0  0  0  0
  -29.6812   -6.8457   -7.5341 C   0  0  0  0  0  0  0  0  0  0  0  0
  -26.9086   -2.5132  -11.1753 N   0  0  0  0  0  0  0  0  0  0  0  0
  -25.9394   -2.8275  -11.2067 H   0  0  0  0  0  0  0  0  0  0  0  0
  -24.5038   -0.9760  -13.2976 N   0  0  0  0  0  0  0  0  0  0  0  0
  -25.1718   -2.2620  -13.5659 C   0  0  0  0  0  0  0  0  0  0  0  0
  -26.6872   -2.1072  -13.6368 C   0  0  0  0  0  0  0  0  0  0  0  0
  -27.2244   -1.5917  -12.3001 C   0  0  0  0  0  0  0  0  0  0  0  0
  -26.5757   -0.2238  -12.0716 C   0  0  0  0  0  0  0  0  0  0  0  0
  -25.0463   -0.3244  -12.0848 C   0  0  0  0  0  0  0  0  0  0  0  0
  -22.1883   -0.1474  -13.8798 C   0  0  0  0  0  0  0  0  0  0  0  0
  -23.0475   -1.1730  -13.1403 C   0  0  0  0  0  0  0  0  0  0  0  0
 39 40  1  0  0  0
 40 33  1  0  0  0
 33 34  1  0  0  0
 33 38  1  0  0  0
 34 35  1  0  0  0
 35 36  1  0  0  0
 36 31  1  0  0  0
 36 37  1  0  0  0
 31  1  1  0  0  0
 31 32  1  0  0  0
  1  2  1  0  0  0
  1  6  2  0  0  0
  2  3  2  0  0  0
  3  4  1  0  0  0
  4  5  2  0  0  0
  4 11  1  0  0  0
  5  6  1  0  0  0
  5  7  1  0  0  0
  7  8  2  0  0  0
  7  9  1  0  0  0
  8 25  1  0  0  0
  8 13  1  0  0  0
 25 26  1  0  0  0
 25 30  2  0  0  0
 26 27  2  0  0  0
 27 28  1  0  0  0
 28 29  2  0  0  0
 29 30  1  0  0  0
 13 14  2  0  0  0
 13 21  1  0  0  0
 14 15  1  0  0  0
 15 16  1  0  0  0
 15 20  2  0  0  0
 16 17  2  0  0  0
 17 23  1  0  0  0
 17 18  1  0  0  0
 23 24  1  0  0  0
 18 19  2  0  0  0
 19 20  1  0  0  0
 20 21  1  0  0  0
 21 22  1  0  0  0
  9 10  2  0  0  0
  9 11  1  0  0  0
 11 12  1  0  0  0
 37 38  1  0  0  0
M  END
> <minimizedAffinity>
-1.74538

$$$$
