CHEMBL1240544


 27 29  0  0  0  0  0  0  0  0999 V2000
  -14.9112    2.6707  -16.5916 N   0  0  0  0  0  0  0  0  0  0  0  0
  -16.2591    2.6763  -16.5970 N   0  0  0  0  0  0  0  0  0  0  0  0
  -16.6104    1.9840  -15.4982 C   0  0  0  0  0  0  0  0  0  0  0  0
  -15.4548    1.5354  -14.7795 C   0  0  0  0  0  0  0  0  0  0  0  0
  -15.1366    0.7892  -13.6322 C   0  0  0  0  0  0  0  0  0  0  0  0
  -16.0489    0.1486  -12.8037 N   0  0  0  0  0  0  0  0  0  0  0  0
  -13.8389    0.6581  -13.2829 N   0  0  0  0  0  0  0  0  0  0  0  0
  -12.8995    1.2300  -14.0574 C   0  0  0  0  0  0  0  0  0  0  0  0
  -13.0764    1.9234  -15.1912 N   0  0  0  0  0  0  0  0  0  0  0  0
  -14.3803    2.0389  -15.4972 C   0  0  0  0  0  0  0  0  0  0  0  0
  -16.8610   -0.2288  -13.2746 H   0  0  0  0  0  0  0  0  0  0  0  0
  -15.5693   -0.4959  -12.1832 H   0  0  0  0  0  0  0  0  0  0  0  0
  -18.0329    1.7940  -15.1861 C   0  0  0  0  0  0  0  0  0  0  0  0
  -18.6480    0.5417  -15.3333 C   0  0  0  0  0  0  0  0  0  0  0  0
  -20.0121    0.3735  -15.0744 C   0  0  0  0  0  0  0  0  0  0  0  0
  -20.7627    1.4479  -14.6082 C   0  0  0  0  0  0  0  0  0  0  0  0
  -22.4385    1.2297  -14.2721 Cl  0  0  0  0  0  0  0  0  0  0  0  0
  -20.1513    2.6855  -14.4055 C   0  0  0  0  0  0  0  0  0  0  0  0
  -20.8404    3.7584  -13.9093 O   0  0  0  0  0  0  0  0  0  0  0  0
  -18.8005    2.8654  -14.7002 C   0  0  0  0  0  0  0  0  0  0  0  0
  -21.7405    3.4490  -13.6951 H   0  0  0  0  0  0  0  0  0  0  0  0
  -13.7507    2.2948  -18.7583 C   0  0  0  0  0  0  0  0  0  0  0  0
  -14.1499    3.3011  -17.6724 C   0  0  0  0  0  0  0  0  0  0  0  0
  -14.9274    4.5019  -18.2477 C   0  0  0  0  0  0  0  0  0  0  0  0
  -15.0939    5.5996  -17.2850 N   0  0  0  0  0  0  0  0  0  0  0  0
  -15.6769    5.2914  -16.5067 H   0  0  0  0  0  0  0  0  0  0  0  0
  -15.6003    6.3647  -17.7309 H   0  0  0  0  0  0  0  0  0  0  0  0
 22 23  1  0  0  0
 23 24  1  0  0  0
 23  1  1  0  0  0
 24 25  1  0  0  0
 25 26  1  0  0  0
 25 27  1  0  0  0
  1  2  1  0  0  0
  1 10  1  0  0  0
  2  3  2  0  0  0
  3 13  1  0  0  0
  3  4  1  0  0  0
 13 14  1  0  0  0
 13 20  2  0  0  0
 14 15  2  0  0  0
 15 16  1  0  0  0
 16 17  1  0  0  0
 16 18  2  0  0  0
 18 19  1  0  0  0
 18 20  1  0  0  0
 19 21  1  0  0  0
  4  5  1  0  0  0
  4 10  2  0  0  0
  5  6  1  0  0  0
  5  7  2  0  0  0
  6 11  1  0  0  0
  6 12  1  0  0  0
  7  8  1  0  0  0
  8  9  2  0  0  0
  9 10  1  0  0  0
M  END
> <minimizedAffinity>
-7.08352

$$$$
