CHEMBL4449189


 31 34  0  0  0  0  0  0  0  0999 V2000
  -14.7193    1.9898  -15.4153 C   0  0  0  0  0  0  0  0  0  0  0  0
  -14.2328    2.3448  -16.6129 N   0  0  0  0  0  0  0  0  0  0  0  0
  -15.0227    3.1244  -17.3650 C   0  0  0  0  0  0  0  0  0  0  0  0
  -16.2557    3.5717  -16.9565 C   0  0  0  0  0  0  0  0  0  0  0  0
  -16.6694    3.1735  -15.7009 C   0  0  0  0  0  0  0  0  0  0  0  0
  -15.9055    2.3809  -14.9243 N   0  0  0  0  0  0  0  0  0  0  0  0
  -17.8929    3.6895  -15.2106 N   0  0  0  0  0  0  0  0  0  0  0  0
  -18.0832    4.6170  -15.5674 H   0  0  0  0  0  0  0  0  0  0  0  0
  -19.0420    2.9321  -14.9177 C   0  0  0  0  0  0  0  0  0  0  0  0
  -19.0633    1.5476  -15.1091 C   0  0  0  0  0  0  0  0  0  0  0  0
  -20.2108    0.7916  -14.8445 C   0  0  0  0  0  0  0  0  0  0  0  0
  -21.3870    1.3938  -14.3951 C   0  0  0  0  0  0  0  0  0  0  0  0
  -21.3483    2.7818  -14.1822 C   0  0  0  0  0  0  0  0  0  0  0  0
  -20.1952    3.5417  -14.4254 C   0  0  0  0  0  0  0  0  0  0  0  0
  -22.5447    0.6832  -14.1362 N   0  0  0  0  0  0  0  0  0  0  0  0
  -23.7239    1.2944  -13.5016 C   0  0  0  0  0  0  0  0  0  0  0  0
  -23.9175    0.7870  -12.0658 C   0  0  0  0  0  0  0  0  0  0  0  0
  -23.9349   -0.6487  -12.0083 O   0  0  0  0  0  0  0  0  0  0  0  0
  -22.6954   -1.1758  -12.5068 C   0  0  0  0  0  0  0  0  0  0  0  0
  -22.4546   -0.7792  -13.9733 C   0  0  0  0  0  0  0  0  0  0  0  0
  -13.6166    1.0969  -14.3453 S   0  0  0  0  0  0  0  0  0  0  0  0
  -14.4809   -0.4974  -14.2568 C   0  0  0  0  0  0  0  0  0  0  0  0
  -15.6150    0.2602  -12.2433 O   0  0  0  0  0  0  0  0  0  0  0  0
  -15.2787   -0.6691  -12.9756 C   0  0  0  0  0  0  0  0  0  0  0  0
  -15.7117   -2.0511  -12.5922 C   0  0  0  0  0  0  0  0  0  0  0  0
  -16.0343   -2.9489  -13.6237 C   0  0  0  0  0  0  0  0  0  0  0  0
  -16.4156   -4.2621  -13.3322 C   0  0  0  0  0  0  0  0  0  0  0  0
  -16.4714   -4.6704  -12.0099 C   0  0  0  0  0  0  0  0  0  0  0  0
  -16.8263   -5.9334  -11.7228 F   0  0  0  0  0  0  0  0  0  0  0  0
  -16.1663   -3.8003  -10.9718 C   0  0  0  0  0  0  0  0  0  0  0  0
  -15.7853   -2.4834  -11.2598 C   0  0  0  0  0  0  0  0  0  0  0  0
 23 24  2  0  0  0
 24 22  1  0  0  0
 24 25  1  0  0  0
 22 21  1  0  0  0
 21  1  1  0  0  0
  1  2  1  0  0  0
  1  6  2  0  0  0
  2  3  2  0  0  0
  3  4  1  0  0  0
  4  5  2  0  0  0
  5  7  1  0  0  0
  5  6  1  0  0  0
  7  9  1  0  0  0
  7  8  1  0  0  0
  9 10  1  0  0  0
  9 14  2  0  0  0
 10 11  2  0  0  0
 11 12  1  0  0  0
 12 15  1  0  0  0
 12 13  2  0  0  0
 15 16  1  0  0  0
 15 20  1  0  0  0
 16 17  1  0  0  0
 17 18  1  0  0  0
 18 19  1  0  0  0
 19 20  1  0  0  0
 13 14  1  0  0  0
 25 26  1  0  0  0
 25 31  2  0  0  0
 26 27  2  0  0  0
 27 28  1  0  0  0
 28 29  1  0  0  0
 28 30  2  0  0  0
 30 31  1  0  0  0
M  END
> <minimizedAffinity>
-9.17361

$$$$
