CHEMBL345943


 30 33  0  0  0  0  0  0  0  0999 V2000
  -29.3206   12.0902  -11.9324 C   0  0  0  0  0  0  0  0  0  0  0  0
  -28.2952   11.8207  -12.8426 C   0  0  0  0  0  0  0  0  0  0  0  0
  -28.5813   11.3217  -14.1366 C   0  0  0  0  0  0  0  0  0  0  0  0
  -27.6256   11.0776  -15.1365 C   0  0  0  0  0  0  0  0  0  0  0  0
  -27.9654   10.6681  -16.3706 N   0  0  0  0  0  0  0  0  0  0  0  0
  -29.2667   10.4854  -16.6069 C   0  0  0  0  0  0  0  0  0  0  0  0
  -30.2561   10.6787  -15.7333 N   0  0  0  0  0  0  0  0  0  0  0  0
  -29.9026   11.1024  -14.5161 C   0  0  0  0  0  0  0  0  0  0  0  0
  -30.9013   11.3262  -13.5888 C   0  0  0  0  0  0  0  0  0  0  0  0
  -30.6343   11.7536  -12.2790 C   0  0  0  0  0  0  0  0  0  0  0  0
  -27.8917   12.2741  -10.0469 C   0  0  0  0  0  0  0  0  0  0  0  0
  -29.1007   12.6590  -10.7054 O   0  0  0  0  0  0  0  0  0  0  0  0
  -26.2600   11.2774  -14.8394 N   0  0  0  0  0  0  0  0  0  0  0  0
  -25.9886   10.8024  -13.9828 H   0  0  0  0  0  0  0  0  0  0  0  0
  -25.1972   11.4310  -15.7499 C   0  0  0  0  0  0  0  0  0  0  0  0
  -24.4209   12.5960  -15.7912 C   0  0  0  0  0  0  0  0  0  0  0  0
  -23.2717   12.6584  -16.5831 C   0  0  0  0  0  0  0  0  0  0  0  0
  -22.8913   11.5557  -17.3438 C   0  0  0  0  0  0  0  0  0  0  0  0
  -21.4380   11.6151  -18.2613 Cl  0  0  0  0  0  0  0  0  0  0  0  0
  -23.6627   10.3987  -17.3450 C   0  0  0  0  0  0  0  0  0  0  0  0
  -24.7994   10.3464  -16.5451 C   0  0  0  0  0  0  0  0  0  0  0  0
  -25.5255    9.2171  -16.5216 F   0  0  0  0  0  0  0  0  0  0  0  0
  -31.6171   11.8651  -11.3176 O   0  0  0  0  0  0  0  0  0  0  0  0
  -32.9452   12.0025  -11.8438 C   0  0  0  0  0  0  0  0  0  0  0  0
  -33.6460   10.6935  -12.1045 C   0  0  0  0  0  0  0  0  0  0  0  0
  -33.4010    9.5381  -11.3656 C   0  0  0  0  0  0  0  0  0  0  0  0
  -34.0912    8.3835  -11.7032 C   0  0  0  0  0  0  0  0  0  0  0  0
  -35.0018    8.3077  -12.7001 N   0  0  0  0  0  0  0  0  0  0  0  0
  -35.2356    9.4395  -13.3946 C   0  0  0  0  0  0  0  0  0  0  0  0
  -34.5992   10.6396  -13.1323 C   0  0  0  0  0  0  0  0  0  0  0  0
 11 12  1  0  0  0
 12  1  1  0  0  0
  1  2  1  0  0  0
  1 10  2  0  0  0
  2  3  2  0  0  0
  3  4  1  0  0  0
  3  8  1  0  0  0
  4 13  1  0  0  0
  4  5  2  0  0  0
 13 15  1  0  0  0
 13 14  1  0  0  0
 15 16  1  0  0  0
 15 21  2  0  0  0
 16 17  2  0  0  0
 17 18  1  0  0  0
 18 19  1  0  0  0
 18 20  2  0  0  0
 20 21  1  0  0  0
 21 22  1  0  0  0
  5  6  1  0  0  0
  6  7  2  0  0  0
  7  8  1  0  0  0
  8  9  2  0  0  0
  9 10  1  0  0  0
 10 23  1  0  0  0
 23 24  1  0  0  0
 24 25  1  0  0  0
 25 26  1  0  0  0
 25 30  2  0  0  0
 26 27  2  0  0  0
 27 28  1  0  0  0
 28 29  2  0  0  0
 29 30  1  0  0  0
M  END
> <minimizedAffinity>
-5.81123

$$$$
