CHEMBL242555


 35 38  0  0  0  0  0  0  0  0999 V2000
  -27.1586   -2.7047  -10.3652 N   0  0  0  0  0  0  0  0  0  0  0  0
  -27.9675   -3.0166  -10.9080 H   0  0  0  0  0  0  0  0  0  0  0  0
  -28.8943   -5.1136   -6.1951 C   0  0  0  0  0  0  0  0  0  0  0  0
  -28.7252   -3.7346   -5.9183 C   0  0  0  0  0  0  0  0  0  0  0  0
  -28.2534   -2.8057   -6.8458 C   0  0  0  0  0  0  0  0  0  0  0  0
  -28.1039   -1.5238   -6.4940 N   0  0  0  0  0  0  0  0  0  0  0  0
  -27.6515   -0.6886   -7.4369 C   0  0  0  0  0  0  0  0  0  0  0  0
  -27.3539   -1.0119   -8.6992 N   0  0  0  0  0  0  0  0  0  0  0  0
  -27.5013   -2.3023   -9.0507 C   0  0  0  0  0  0  0  0  0  0  0  0
  -27.9423   -3.2657   -8.1246 C   0  0  0  0  0  0  0  0  0  0  0  0
  -28.0769   -4.6393   -8.4044 C   0  0  0  0  0  0  0  0  0  0  0  0
  -28.5763   -5.5727   -7.4784 C   0  0  0  0  0  0  0  0  0  0  0  0
  -28.5672   -6.7981   -8.0702 O   0  0  0  0  0  0  0  0  0  0  0  0
  -29.6328   -7.7202   -8.0075 C   0  0  0  0  0  0  0  0  0  0  0  0
  -29.3294   -5.7785   -5.0730 O   0  0  0  0  0  0  0  0  0  0  0  0
  -30.7136   -6.0420   -4.9792 C   0  0  0  0  0  0  0  0  0  0  0  0
  -31.3281   -5.7650   -3.6160 C   0  0  0  0  0  0  0  0  0  0  0  0
  -31.0325   -3.4779   -3.0327 C   0  0  0  0  0  0  0  0  0  0  0  0
  -31.8340   -4.4278   -3.7069 O   0  0  0  0  0  0  0  0  0  0  0  0
  -26.1896   -2.1383  -11.1847 C   0  0  0  0  0  0  0  0  0  0  0  0
  -24.9000   -1.9470  -10.8928 C   0  0  0  0  0  0  0  0  0  0  0  0
  -23.9306   -1.3135  -11.8002 C   0  0  0  0  0  0  0  0  0  0  0  0
  -22.7680   -1.2047  -11.4466 O   0  0  0  0  0  0  0  0  0  0  0  0
  -24.4333   -0.8245  -13.1189 C   0  0  0  0  0  0  0  0  0  0  0  0
  -25.7015   -1.0808  -13.4642 C   0  0  0  0  0  0  0  0  0  0  0  0
  -26.6567   -1.7494  -12.5584 C   0  0  0  0  0  0  0  0  0  0  0  0
  -27.8080   -1.9621  -12.9138 O   0  0  0  0  0  0  0  0  0  0  0  0
  -23.6299   -0.1345  -14.0168 O   0  0  0  0  0  0  0  0  0  0  0  0
  -23.3074    1.2138  -13.6462 C   0  0  0  0  0  0  0  0  0  0  0  0
  -21.9510    1.5723  -14.2062 C   0  0  0  0  0  0  0  0  0  0  0  0
  -21.5518    2.9150  -14.2893 C   0  0  0  0  0  0  0  0  0  0  0  0
  -20.2868    3.2514  -14.7723 C   0  0  0  0  0  0  0  0  0  0  0  0
  -19.4077    2.2498  -15.1775 C   0  0  0  0  0  0  0  0  0  0  0  0
  -19.7945    0.9122  -15.1046 C   0  0  0  0  0  0  0  0  0  0  0  0
  -21.0601    0.5735  -14.6212 C   0  0  0  0  0  0  0  0  0  0  0  0
 18 19  1  0  0  0
 19 17  1  0  0  0
 17 16  1  0  0  0
 16 15  1  0  0  0
 15  3  1  0  0  0
  3  4  1  0  0  0
  3 12  2  0  0  0
  4  5  2  0  0  0
  5  6  1  0  0  0
  5 10  1  0  0  0
  6  7  2  0  0  0
  7  8  1  0  0  0
  8  9  2  0  0  0
  9  1  1  0  0  0
  9 10  1  0  0  0
  1 20  1  0  0  0
  1  2  1  0  0  0
 20 21  2  0  0  0
 20 26  1  0  0  0
 21 22  1  0  0  0
 22 23  2  0  0  0
 22 24  1  0  0  0
 24 28  1  0  0  0
 24 25  2  0  0  0
 28 29  1  0  0  0
 29 30  1  0  0  0
 30 31  1  0  0  0
 30 35  2  0  0  0
 31 32  2  0  0  0
 32 33  1  0  0  0
 33 34  2  0  0  0
 34 35  1  0  0  0
 25 26  1  0  0  0
 26 27  2  0  0  0
 10 11  2  0  0  0
 11 12  1  0  0  0
 12 13  1  0  0  0
 13 14  1  0  0  0
M  END
> <minimizedAffinity>
-9.40224

$$$$
