CHEMBL3898926


 32 35  0  0  0  0  0  0  0  0999 V2000
  -29.8491   -6.1900   -5.9299 N   0  0  0  0  0  0  0  0  0  0  0  0
  -29.4668   -4.8685   -6.3209 C   0  0  0  0  0  0  0  0  0  0  0  0
  -29.6543   -3.7760   -5.4638 C   0  0  0  0  0  0  0  0  0  0  0  0
  -29.1388   -2.5113   -5.7657 C   0  0  0  0  0  0  0  0  0  0  0  0
  -28.5071   -2.2651   -6.9706 C   0  0  0  0  0  0  0  0  0  0  0  0
  -28.0350   -1.0332   -7.2333 N   0  0  0  0  0  0  0  0  0  0  0  0
  -27.4629   -0.8608   -8.4503 C   0  0  0  0  0  0  0  0  0  0  0  0
  -27.3661   -1.8755   -9.3859 C   0  0  0  0  0  0  0  0  0  0  0  0
  -27.8183   -3.1234   -9.1118 N   0  0  0  0  0  0  0  0  0  0  0  0
  -28.3837   -3.3194   -7.9023 C   0  0  0  0  0  0  0  0  0  0  0  0
  -28.8356   -4.5908   -7.5486 C   0  0  0  0  0  0  0  0  0  0  0  0
  -26.7739   -1.6561  -10.6913 C   0  0  0  0  0  0  0  0  0  0  0  0
  -27.3394   -1.6705  -11.9885 C   0  0  0  0  0  0  0  0  0  0  0  0
  -26.4501   -1.4015  -12.9467 N   0  0  0  0  0  0  0  0  0  0  0  0
  -25.3040   -1.2155  -12.2676 N   0  0  0  0  0  0  0  0  0  0  0  0
  -24.0960   -0.8672  -12.9699 C   0  0  0  0  0  0  0  0  0  0  0  0
  -25.4440   -1.3636  -10.9195 C   0  0  0  0  0  0  0  0  0  0  0  0
  -30.2491   -7.2403   -6.8167 C   0  0  0  0  0  0  0  0  0  0  0  0
  -31.5199   -7.8385   -6.7912 C   0  0  0  0  0  0  0  0  0  0  0  0
  -31.8217   -8.9877   -7.5381 C   0  0  0  0  0  0  0  0  0  0  0  0
  -33.3740   -9.7172   -7.3785 Cl  0  0  0  0  0  0  0  0  0  0  0  0
  -30.8870   -9.5527   -8.3887 C   0  0  0  0  0  0  0  0  0  0  0  0
  -29.6719   -8.9111   -8.5364 C   0  0  0  0  0  0  0  0  0  0  0  0
  -28.4987   -9.5426   -9.6270 Cl  0  0  0  0  0  0  0  0  0  0  0  0
  -29.3763   -7.7632   -7.7915 C   0  0  0  0  0  0  0  0  0  0  0  0
  -30.0594   -6.3630   -4.4590 C   0  0  0  0  0  0  0  0  0  0  0  0
  -29.0755   -7.3011   -3.7149 C   0  0  0  0  0  0  0  0  0  0  0  0
  -29.5011   -8.6989   -3.5754 N   0  0  0  0  0  0  0  0  0  0  0  0
  -29.6074   -8.9027   -2.5784 H   0  0  0  0  0  0  0  0  0  0  0  0
  -29.2337  -10.5273   -5.1823 C   0  0  0  0  0  0  0  0  0  0  0  0
  -28.5221   -9.6287   -4.1710 C   0  0  0  0  0  0  0  0  0  0  0  0
  -27.3643   -8.9014   -4.8654 C   0  0  0  0  0  0  0  0  0  0  0  0
 30 31  1  0  0  0
 31 32  1  0  0  0
 31 28  1  0  0  0
 28 27  1  0  0  0
 28 29  1  0  0  0
 27 26  1  0  0  0
 26  1  1  0  0  0
  1 18  1  0  0  0
  1  2  1  0  0  0
 18 19  1  0  0  0
 18 25  2  0  0  0
 19 20  2  0  0  0
 20 21  1  0  0  0
 20 22  1  0  0  0
 22 23  2  0  0  0
 23 24  1  0  0  0
 23 25  1  0  0  0
  2  3  1  0  0  0
  2 11  2  0  0  0
  3  4  2  0  0  0
  4  5  1  0  0  0
  5  6  1  0  0  0
  5 10  2  0  0  0
  6  7  2  0  0  0
  7  8  1  0  0  0
  8 12  1  0  0  0
  8  9  2  0  0  0
 12 13  1  0  0  0
 12 17  2  0  0  0
 13 14  2  0  0  0
 14 15  1  0  0  0
 15 16  1  0  0  0
 15 17  1  0  0  0
  9 10  1  0  0  0
 10 11  1  0  0  0
M  END
> <minimizedAffinity>
-8.23523

$$$$
