CHEMBL409912


 35 38  0  0  0  0  0  0  0  0999 V2000
  -22.9812   -0.5858  -13.4310 C   0  0  0  0  0  0  0  0  0  0  0  0
  -22.7665   -1.1205  -12.1613 C   0  0  0  0  0  0  0  0  0  0  0  0
  -23.7997   -1.6960  -11.4247 C   0  0  0  0  0  0  0  0  0  0  0  0
  -25.0713   -1.8611  -11.9683 C   0  0  0  0  0  0  0  0  0  0  0  0
  -25.2843   -1.4372  -13.2810 C   0  0  0  0  0  0  0  0  0  0  0  0
  -24.2541   -0.7938  -13.9970 C   0  0  0  0  0  0  0  0  0  0  0  0
  -23.7287    2.7197  -13.0660 N   0  0  0  0  0  0  0  0  0  0  0  0
  -22.5749    2.7117  -13.7590 C   0  0  0  0  0  0  0  0  0  0  0  0
  -21.9718    3.8497  -14.1124 N   0  0  0  0  0  0  0  0  0  0  0  0
  -20.8476    3.4832  -14.8140 O   0  0  0  0  0  0  0  0  0  0  0  0
  -20.7646    2.1308  -14.8649 C   0  0  0  0  0  0  0  0  0  0  0  0
  -19.7390    1.4317  -15.4954 C   0  0  0  0  0  0  0  0  0  0  0  0
  -19.8046    0.0433  -15.4317 C   0  0  0  0  0  0  0  0  0  0  0  0
  -20.8572   -0.5916  -14.7683 C   0  0  0  0  0  0  0  0  0  0  0  0
  -21.9012    0.1309  -14.1356 C   0  0  0  0  0  0  0  0  0  0  0  0
  -21.8386    1.5549  -14.1957 C   0  0  0  0  0  0  0  0  0  0  0  0
  -24.1714    3.6129  -12.8920 H   0  0  0  0  0  0  0  0  0  0  0  0
  -24.3682    1.9339  -13.0651 H   0  0  0  0  0  0  0  0  0  0  0  0
  -26.1428   -2.4479  -11.2525 N   0  0  0  0  0  0  0  0  0  0  0  0
  -26.6033   -2.0156  -10.0238 C   0  0  0  0  0  0  0  0  0  0  0  0
  -26.1918   -1.0386   -9.4095 O   0  0  0  0  0  0  0  0  0  0  0  0
  -27.6491   -2.7845   -9.5446 N   0  0  0  0  0  0  0  0  0  0  0  0
  -26.6689   -3.1666  -11.7215 H   0  0  0  0  0  0  0  0  0  0  0  0
  -27.8635   -3.6712   -9.9771 H   0  0  0  0  0  0  0  0  0  0  0  0
  -28.1539   -2.5761   -8.2436 C   0  0  0  0  0  0  0  0  0  0  0  0
  -27.8907   -1.3449   -7.6127 C   0  0  0  0  0  0  0  0  0  0  0  0
  -28.4695   -1.0346   -6.3857 C   0  0  0  0  0  0  0  0  0  0  0  0
  -29.3416   -1.9387   -5.7916 C   0  0  0  0  0  0  0  0  0  0  0  0
  -29.5894   -3.1690   -6.4031 C   0  0  0  0  0  0  0  0  0  0  0  0
  -28.9627   -3.5167   -7.6112 C   0  0  0  0  0  0  0  0  0  0  0  0
  -29.3847   -4.7143   -8.1133 O   0  0  0  0  0  0  0  0  0  0  0  0
  -28.6301   -5.8830   -7.8491 C   0  0  0  0  0  0  0  0  0  0  0  0
  -28.1975   -5.9971   -6.5723 F   0  0  0  0  0  0  0  0  0  0  0  0
  -29.4016   -6.9613   -8.1139 F   0  0  0  0  0  0  0  0  0  0  0  0
  -27.5576   -5.9250   -8.6701 F   0  0  0  0  0  0  0  0  0  0  0  0
  7  8  1  0  0  0
  7 17  1  0  0  0
  7 18  1  0  0  0
  8  9  2  0  0  0
  8 16  1  0  0  0
  9 10  1  0  0  0
 10 11  1  0  0  0
 11 12  1  0  0  0
 11 16  2  0  0  0
 12 13  2  0  0  0
 13 14  1  0  0  0
 14 15  2  0  0  0
 15  1  1  0  0  0
 15 16  1  0  0  0
  1  2  1  0  0  0
  1  6  2  0  0  0
  2  3  2  0  0  0
  3  4  1  0  0  0
  4 19  1  0  0  0
  4  5  2  0  0  0
 19 20  1  0  0  0
 19 23  1  0  0  0
 20 21  2  0  0  0
 20 22  1  0  0  0
 22 25  1  0  0  0
 22 24  1  0  0  0
 25 26  1  0  0  0
 25 30  2  0  0  0
 26 27  2  0  0  0
 27 28  1  0  0  0
 28 29  2  0  0  0
 29 30  1  0  0  0
 30 31  1  0  0  0
 31 32  1  0  0  0
 32 33  1  0  0  0
 32 34  1  0  0  0
 32 35  1  0  0  0
  5  6  1  0  0  0
M  END
> <minimizedAffinity>
-10.29961

$$$$
