CHEMBL207520


 27 29  0  0  0  0  0  0  0  0999 V2000
  -27.3842   -1.5634  -11.1383 C   0  0  0  0  0  0  0  0  0  0  0  0
  -26.2633   -1.3891  -12.1051 C   0  0  0  0  0  0  0  0  0  0  0  0
  -26.2725   -1.5885  -13.4649 C   0  0  0  0  0  0  0  0  0  0  0  0
  -25.0738   -1.3739  -14.0960 N   0  0  0  0  0  0  0  0  0  0  0  0
  -24.1370   -1.0250  -13.2399 C   0  0  0  0  0  0  0  0  0  0  0  0
  -24.7031   -0.8782  -11.6117 S   0  0  0  0  0  0  0  0  0  0  0  0
  -22.8330   -0.8102  -13.5253 N   0  0  0  0  0  0  0  0  0  0  0  0
  -22.2645   -1.5895  -13.8326 H   0  0  0  0  0  0  0  0  0  0  0  0
  -22.2757    0.3837  -13.9831 C   0  0  0  0  0  0  0  0  0  0  0  0
  -21.0872    0.4550  -14.7059 C   0  0  0  0  0  0  0  0  0  0  0  0
  -20.5487    1.6917  -15.0459 C   0  0  0  0  0  0  0  0  0  0  0  0
  -21.2291    2.8417  -14.6857 C   0  0  0  0  0  0  0  0  0  0  0  0
  -22.4276    2.6975  -14.0108 C   0  0  0  0  0  0  0  0  0  0  0  0
  -22.9599    1.5041  -13.6567 N   0  0  0  0  0  0  0  0  0  0  0  0
  -27.1535   -2.6456  -10.1864 N   0  0  0  0  0  0  0  0  0  0  0  0
  -26.1946   -2.9861  -10.2217 H   0  0  0  0  0  0  0  0  0  0  0  0
  -28.6913   -3.4796   -6.9177 C   0  0  0  0  0  0  0  0  0  0  0  0
  -28.6779   -2.2408   -6.2706 C   0  0  0  0  0  0  0  0  0  0  0  0
  -28.1665   -1.1259   -6.9284 C   0  0  0  0  0  0  0  0  0  0  0  0
  -27.6488   -1.2500   -8.2205 C   0  0  0  0  0  0  0  0  0  0  0  0
  -27.6042   -2.4897   -8.8706 C   0  0  0  0  0  0  0  0  0  0  0  0
  -28.1643   -3.5942   -8.2128 C   0  0  0  0  0  0  0  0  0  0  0  0
  -30.8193   -5.6464   -4.6599 C   0  0  0  0  0  0  0  0  0  0  0  0
  -30.2547   -4.5266   -5.3677 N   0  0  0  0  0  0  0  0  0  0  0  0
  -29.2100   -4.7046   -6.2506 C   0  0  0  0  0  0  0  0  0  0  0  0
  -28.7204   -5.7995   -6.5041 O   0  0  0  0  0  0  0  0  0  0  0  0
  -30.7387   -3.6405   -5.3329 H   0  0  0  0  0  0  0  0  0  0  0  0
 23 24  1  0  0  0
 24 25  1  0  0  0
 24 27  1  0  0  0
 25 26  2  0  0  0
 25 17  1  0  0  0
 17 18  1  0  0  0
 17 22  2  0  0  0
 18 19  2  0  0  0
 19 20  1  0  0  0
 20 21  2  0  0  0
 21 15  1  0  0  0
 21 22  1  0  0  0
 15  1  1  0  0  0
 15 16  1  0  0  0
  1  2  1  0  0  0
  2  3  2  0  0  0
  2  6  1  0  0  0
  3  4  1  0  0  0
  4  5  2  0  0  0
  5  7  1  0  0  0
  5  6  1  0  0  0
  7  9  1  0  0  0
  7  8  1  0  0  0
  9 10  1  0  0  0
  9 14  2  0  0  0
 10 11  2  0  0  0
 11 12  1  0  0  0
 12 13  2  0  0  0
 13 14  1  0  0  0
M  END
> <minimizedAffinity>
-8.74649

$$$$
