CHEMBL375284


 29 32  0  0  0  0  0  0  0  0999 V2000
  -28.3268   -2.3692   -8.1432 C   0  0  0  0  0  0  0  0  0  0  0  0
  -27.9339   -2.2796   -6.8055 C   0  0  0  0  0  0  0  0  0  0  0  0
  -28.1929   -3.3228   -5.9088 C   0  0  0  0  0  0  0  0  0  0  0  0
  -28.8761   -4.4804   -6.3112 C   0  0  0  0  0  0  0  0  0  0  0  0
  -29.3145   -4.5199   -7.6521 C   0  0  0  0  0  0  0  0  0  0  0  0
  -29.0563   -3.4771   -8.5566 C   0  0  0  0  0  0  0  0  0  0  0  0
  -29.2057   -5.5577   -5.3498 C   0  0  0  0  0  0  0  0  0  0  0  0
  -28.4015   -6.7157   -5.2190 C   0  0  0  0  0  0  0  0  0  0  0  0
  -28.5984   -7.6536   -4.2026 C   0  0  0  0  0  0  0  0  0  0  0  0
  -29.5772   -7.4600   -3.2311 C   0  0  0  0  0  0  0  0  0  0  0  0
  -30.4064   -6.3484   -3.3879 C   0  0  0  0  0  0  0  0  0  0  0  0
  -31.4258   -5.8693   -2.6073 N   0  0  0  0  0  0  0  0  0  0  0  0
  -32.1026   -4.8479   -3.1560 N   0  0  0  0  0  0  0  0  0  0  0  0
  -31.4277   -4.6096   -4.2835 C   0  0  0  0  0  0  0  0  0  0  0  0
  -30.2932   -5.4470   -4.4451 C   0  0  0  0  0  0  0  0  0  0  0  0
  -31.7109   -6.2006   -1.6930 H   0  0  0  0  0  0  0  0  0  0  0  0
  -26.7151   -0.7151  -10.9443 N   0  0  0  0  0  0  0  0  0  0  0  0
  -26.9584   -1.7240  -10.0313 C   0  0  0  0  0  0  0  0  0  0  0  0
  -26.4078   -2.8267  -10.0479 O   0  0  0  0  0  0  0  0  0  0  0  0
  -27.9319   -1.3941   -9.0961 N   0  0  0  0  0  0  0  0  0  0  0  0
  -27.0171    0.2120  -10.6899 H   0  0  0  0  0  0  0  0  0  0  0  0
  -28.6594   -0.7867   -9.4451 H   0  0  0  0  0  0  0  0  0  0  0  0
  -22.4273    0.2602  -13.2524 C   0  0  0  0  0  0  0  0  0  0  0  0
  -23.7940   -0.3610  -13.2433 C   0  0  0  0  0  0  0  0  0  0  0  0
  -24.2461   -1.0448  -14.3758 C   0  0  0  0  0  0  0  0  0  0  0  0
  -25.5100   -1.6167  -14.3862 C   0  0  0  0  0  0  0  0  0  0  0  0
  -26.3303   -1.5089  -13.2608 C   0  0  0  0  0  0  0  0  0  0  0  0
  -25.9037   -0.8458  -12.1086 C   0  0  0  0  0  0  0  0  0  0  0  0
  -24.6279   -0.2672  -12.1089 C   0  0  0  0  0  0  0  0  0  0  0  0
 23 24  1  0  0  0
 24 25  1  0  0  0
 24 29  2  0  0  0
 25 26  2  0  0  0
 26 27  1  0  0  0
 27 28  2  0  0  0
 28 17  1  0  0  0
 28 29  1  0  0  0
 17 18  1  0  0  0
 17 21  1  0  0  0
 18 19  2  0  0  0
 18 20  1  0  0  0
 20  1  1  0  0  0
 20 22  1  0  0  0
  1  2  1  0  0  0
  1  6  2  0  0  0
  2  3  2  0  0  0
  3  4  1  0  0  0
  4  7  1  0  0  0
  4  5  2  0  0  0
  7  8  1  0  0  0
  7 15  2  0  0  0
  8  9  2  0  0  0
  9 10  1  0  0  0
 10 11  2  0  0  0
 11 12  1  0  0  0
 11 15  1  0  0  0
 12 13  1  0  0  0
 12 16  1  0  0  0
 13 14  2  0  0  0
 14 15  1  0  0  0
  5  6  1  0  0  0
M  END
> <minimizedAffinity>
-9.45308

$$$$
