CHEMBL402846


 33 36  0  0  0  0  0  0  0  0999 V2000
  -28.4798   -2.5103   -8.0756 C   0  0  0  0  0  0  0  0  0  0  0  0
  -27.8842   -2.5351   -6.8139 C   0  0  0  0  0  0  0  0  0  0  0  0
  -28.1469   -3.5832   -5.9242 C   0  0  0  0  0  0  0  0  0  0  0  0
  -29.0254   -4.6307   -6.2576 C   0  0  0  0  0  0  0  0  0  0  0  0
  -29.7192   -4.5031   -7.4731 C   0  0  0  0  0  0  0  0  0  0  0  0
  -29.4443   -3.4659   -8.3815 C   0  0  0  0  0  0  0  0  0  0  0  0
  -29.1809   -5.7945   -5.3601 C   0  0  0  0  0  0  0  0  0  0  0  0
  -29.5154   -5.6442   -4.0045 C   0  0  0  0  0  0  0  0  0  0  0  0
  -29.6433   -6.6310   -3.0849 N   0  0  0  0  0  0  0  0  0  0  0  0
  -29.4467   -7.9026   -3.4753 C   0  0  0  0  0  0  0  0  0  0  0  0
  -29.1184   -8.1573   -4.7988 C   0  0  0  0  0  0  0  0  0  0  0  0
  -28.9630   -7.1445   -5.7554 C   0  0  0  0  0  0  0  0  0  0  0  0
  -28.5720   -7.8738   -6.9286 C   0  0  0  0  0  0  0  0  0  0  0  0
  -28.2255   -7.3535   -8.1144 N   0  0  0  0  0  0  0  0  0  0  0  0
  -28.5521   -9.1882   -6.7418 N   0  0  0  0  0  0  0  0  0  0  0  0
  -28.8745   -9.3368   -5.4502 N   0  0  0  0  0  0  0  0  0  0  0  0
  -28.9136  -10.6643   -4.8838 C   0  0  0  0  0  0  0  0  0  0  0  0
  -27.7390   -6.4627   -8.1265 H   0  0  0  0  0  0  0  0  0  0  0  0
  -27.8160   -8.0201   -8.7599 H   0  0  0  0  0  0  0  0  0  0  0  0
  -26.8832   -0.9124  -10.9183 N   0  0  0  0  0  0  0  0  0  0  0  0
  -27.1969   -1.9543  -10.0655 C   0  0  0  0  0  0  0  0  0  0  0  0
  -26.8170   -3.1061  -10.1904 O   0  0  0  0  0  0  0  0  0  0  0  0
  -28.0820   -1.5689   -9.0570 N   0  0  0  0  0  0  0  0  0  0  0  0
  -27.3645   -0.0406  -10.7593 H   0  0  0  0  0  0  0  0  0  0  0  0
  -28.7920   -0.9175   -9.3572 H   0  0  0  0  0  0  0  0  0  0  0  0
  -22.5506    0.1877  -13.0345 C   0  0  0  0  0  0  0  0  0  0  0  0
  -23.9226   -0.4173  -13.1260 C   0  0  0  0  0  0  0  0  0  0  0  0
  -24.3621   -0.9630  -14.3350 C   0  0  0  0  0  0  0  0  0  0  0  0
  -25.6172   -1.5547  -14.4120 C   0  0  0  0  0  0  0  0  0  0  0  0
  -26.4457   -1.5910  -13.2936 C   0  0  0  0  0  0  0  0  0  0  0  0
  -27.5764   -2.2928  -13.4286 F   0  0  0  0  0  0  0  0  0  0  0  0
  -26.0671   -0.9983  -12.0809 C   0  0  0  0  0  0  0  0  0  0  0  0
  -24.7773   -0.4403  -12.0042 C   0  0  0  0  0  0  0  0  0  0  0  0
 26 27  1  0  0  0
 27 28  1  0  0  0
 27 33  2  0  0  0
 28 29  2  0  0  0
 29 30  1  0  0  0
 30 31  1  0  0  0
 30 32  2  0  0  0
 32 20  1  0  0  0
 32 33  1  0  0  0
 20 21  1  0  0  0
 20 24  1  0  0  0
 21 22  2  0  0  0
 21 23  1  0  0  0
 23  1  1  0  0  0
 23 25  1  0  0  0
  1  2  1  0  0  0
  1  6  2  0  0  0
  2  3  2  0  0  0
  3  4  1  0  0  0
  4  7  1  0  0  0
  4  5  2  0  0  0
  7  8  1  0  0  0
  7 12  2  0  0  0
  8  9  2  0  0  0
  9 10  1  0  0  0
 10 11  2  0  0  0
 11 12  1  0  0  0
 11 16  1  0  0  0
 12 13  1  0  0  0
 13 14  1  0  0  0
 13 15  2  0  0  0
 14 18  1  0  0  0
 14 19  1  0  0  0
 15 16  1  0  0  0
 16 17  1  0  0  0
  5  6  1  0  0  0
M  END
> <minimizedAffinity>
-9.38200

$$$$
