CHEMBL3747063


 34 37  0  0  0  0  0  0  0  0999 V2000
  -13.4091   -2.2818  -13.0767 C   0  0  0  0  0  0  0  0  0  0  0  0
  -14.8044   -2.3313  -13.1098 C   0  0  0  0  0  0  0  0  0  0  0  0
  -15.5635   -1.2630  -13.6129 C   0  0  0  0  0  0  0  0  0  0  0  0
  -14.8866   -0.1000  -14.0201 C   0  0  0  0  0  0  0  0  0  0  0  0
  -13.4903   -0.0099  -13.9276 C   0  0  0  0  0  0  0  0  0  0  0  0
  -13.1033    1.2603  -14.4162 C   0  0  0  0  0  0  0  0  0  0  0  0
  -14.2329    1.8800  -14.8767 C   0  0  0  0  0  0  0  0  0  0  0  0
  -15.3340    1.0681  -14.6478 N   0  0  0  0  0  0  0  0  0  0  0  0
  -16.6113    1.3775  -15.1509 C   0  0  0  0  0  0  0  0  0  0  0  0
  -16.6820    1.7730  -16.3058 O   0  0  0  0  0  0  0  0  0  0  0  0
  -17.5908    1.3757  -14.1682 N   0  0  0  0  0  0  0  0  0  0  0  0
  -12.7492   -1.1077  -13.4439 C   0  0  0  0  0  0  0  0  0  0  0  0
  -17.2873    1.3048  -13.2028 H   0  0  0  0  0  0  0  0  0  0  0  0
  -18.9016    1.8803  -14.4042 C   0  0  0  0  0  0  0  0  0  0  0  0
  -19.1223    3.1600  -14.9289 C   0  0  0  0  0  0  0  0  0  0  0  0
  -20.4139    3.6684  -15.0781 C   0  0  0  0  0  0  0  0  0  0  0  0
  -21.5101    2.9036  -14.6990 C   0  0  0  0  0  0  0  0  0  0  0  0
  -21.3253    1.6130  -14.1838 C   0  0  0  0  0  0  0  0  0  0  0  0
  -20.0133    1.0969  -14.0662 C   0  0  0  0  0  0  0  0  0  0  0  0
  -22.5175    0.8037  -13.7305 C   0  0  0  0  0  0  0  0  0  0  0  0
  -23.0734    0.0471  -14.7198 F   0  0  0  0  0  0  0  0  0  0  0  0
  -22.2103   -0.0624  -12.7274 F   0  0  0  0  0  0  0  0  0  0  0  0
  -23.5257    1.5867  -13.2550 F   0  0  0  0  0  0  0  0  0  0  0  0
  -12.5914   -3.3119  -12.6615 O   0  0  0  0  0  0  0  0  0  0  0  0
  -13.9927   -6.6210  -12.0667 C   0  0  0  0  0  0  0  0  0  0  0  0
  -13.3591   -5.6095  -12.7621 C   0  0  0  0  0  0  0  0  0  0  0  0
  -13.1352   -4.4363  -12.0765 C   0  0  0  0  0  0  0  0  0  0  0  0
  -13.3887   -4.3040  -10.7615 N   0  0  0  0  0  0  0  0  0  0  0  0
  -13.9433   -5.3653  -10.1625 C   0  0  0  0  0  0  0  0  0  0  0  0
  -14.2912   -6.5169  -10.7546 N   0  0  0  0  0  0  0  0  0  0  0  0
  -14.3619   -7.9045  -12.7818 C   0  0  0  0  0  0  0  0  0  0  0  0
  -12.5778   -9.4465  -12.2470 C   0  0  0  0  0  0  0  0  0  0  0  0
  -13.9876   -9.1222  -12.0471 N   0  0  0  0  0  0  0  0  0  0  0  0
  -14.1449   -8.9568  -11.0535 H   0  0  0  0  0  0  0  0  0  0  0  0
 32 33  1  0  0  0
 33 31  1  0  0  0
 33 34  1  0  0  0
 31 25  1  0  0  0
 25 26  1  0  0  0
 25 30  2  0  0  0
 26 27  2  0  0  0
 27 24  1  0  0  0
 27 28  1  0  0  0
 24  1  1  0  0  0
  1  2  1  0  0  0
  1 12  2  0  0  0
  2  3  2  0  0  0
  3  4  1  0  0  0
  4  5  2  0  0  0
  4  8  1  0  0  0
  5  6  1  0  0  0
  5 12  1  0  0  0
  6  7  2  0  0  0
  7  8  1  0  0  0
  8  9  1  0  0  0
  9 10  2  0  0  0
  9 11  1  0  0  0
 11 14  1  0  0  0
 11 13  1  0  0  0
 14 15  1  0  0  0
 14 19  2  0  0  0
 15 16  2  0  0  0
 16 17  1  0  0  0
 17 18  2  0  0  0
 18 20  1  0  0  0
 18 19  1  0  0  0
 20 21  1  0  0  0
 20 22  1  0  0  0
 20 23  1  0  0  0
 28 29  2  0  0  0
 29 30  1  0  0  0
M  END
> <minimizedAffinity>
-9.26350

$$$$
