CHEMBL1990885


 32 34  0  0  0  0  0  0  0  0999 V2000
  -25.1236   -1.4568  -12.7720 C   0  0  0  0  0  0  0  0  0  0  0  0
  -25.4328   -1.2572  -14.1127 C   0  0  0  0  0  0  0  0  0  0  0  0
  -26.6855   -1.3886  -14.9047 C   0  0  0  0  0  0  0  0  0  0  0  0
  -24.2995   -0.7902  -14.7388 N   0  0  0  0  0  0  0  0  0  0  0  0
  -23.2699   -0.6336  -13.8490 C   0  0  0  0  0  0  0  0  0  0  0  0
  -23.7477   -1.0459  -12.6092 C   0  0  0  0  0  0  0  0  0  0  0  0
  -22.9969   -1.0656  -11.3161 C   0  0  0  0  0  0  0  0  0  0  0  0
  -24.2571   -0.5542  -15.7264 H   0  0  0  0  0  0  0  0  0  0  0  0
  -22.0003   -0.1266  -14.2336 C   0  0  0  0  0  0  0  0  0  0  0  0
  -21.5556    1.1376  -14.3046 C   0  0  0  0  0  0  0  0  0  0  0  0
  -22.2326    2.4549  -14.0088 C   0  0  0  0  0  0  0  0  0  0  0  0
  -23.3687    2.6483  -13.6234 O   0  0  0  0  0  0  0  0  0  0  0  0
  -21.2751    3.4248  -14.2735 N   0  0  0  0  0  0  0  0  0  0  0  0
  -20.0802    2.8611  -14.6996 C   0  0  0  0  0  0  0  0  0  0  0  0
  -18.9237    3.5314  -15.0502 C   0  0  0  0  0  0  0  0  0  0  0  0
  -17.8327    2.7559  -15.4538 C   0  0  0  0  0  0  0  0  0  0  0  0
  -17.9335    1.3592  -15.4922 C   0  0  0  0  0  0  0  0  0  0  0  0
  -16.8734    0.6398  -15.8840 F   0  0  0  0  0  0  0  0  0  0  0  0
  -19.1063    0.6961  -15.1362 C   0  0  0  0  0  0  0  0  0  0  0  0
  -20.1852    1.4676  -14.7381 C   0  0  0  0  0  0  0  0  0  0  0  0
  -21.4586    4.4114  -14.1607 H   0  0  0  0  0  0  0  0  0  0  0  0
  -27.0047   -1.0342  -11.3190 N   0  0  0  0  0  0  0  0  0  0  0  0
  -26.0092   -1.9105  -11.6926 C   0  0  0  0  0  0  0  0  0  0  0  0
  -25.8952   -3.0197  -11.1772 O   0  0  0  0  0  0  0  0  0  0  0  0
  -27.2604   -0.2943  -11.9608 H   0  0  0  0  0  0  0  0  0  0  0  0
  -27.9503   -1.4143  -10.2920 C   0  0  0  0  0  0  0  0  0  0  0  0
  -27.4666   -1.1046   -8.8630 C   0  0  0  0  0  0  0  0  0  0  0  0
  -27.5579   -2.2280   -7.8997 N   0  0  0  0  0  0  0  0  0  0  0  0
  -27.8317   -0.2382   -6.3615 C   0  0  0  0  0  0  0  0  0  0  0  0
  -27.8996   -1.7508   -6.5469 C   0  0  0  0  0  0  0  0  0  0  0  0
  -28.4625   -3.2814   -8.4021 C   0  0  0  0  0  0  0  0  0  0  0  0
  -29.1261   -4.1756   -7.3550 C   0  0  0  0  0  0  0  0  0  0  0  0
 29 30  1  0  0  0
 30 28  1  0  0  0
 28 31  1  0  0  0
 28 27  1  0  0  0
 31 32  1  0  0  0
 27 26  1  0  0  0
 26 22  1  0  0  0
 22 23  1  0  0  0
 22 25  1  0  0  0
 23 24  2  0  0  0
 23  1  1  0  0  0
  1  2  2  0  0  0
  1  6  1  0  0  0
  2  3  1  0  0  0
  2  4  1  0  0  0
  4  5  1  0  0  0
  4  8  1  0  0  0
  5  9  1  0  0  0
  5  6  2  0  0  0
  9 10  2  0  0  0
 10 11  1  0  0  0
 10 20  1  0  0  0
 11 12  2  0  0  0
 11 13  1  0  0  0
 13 14  1  0  0  0
 13 21  1  0  0  0
 14 15  1  0  0  0
 14 20  2  0  0  0
 15 16  2  0  0  0
 16 17  1  0  0  0
 17 18  1  0  0  0
 17 19  2  0  0  0
 19 20  1  0  0  0
  6  7  1  0  0  0
M  END
> <minimizedAffinity>
-8.77709

$$$$
