CHEMBL2386795


 47 51  0  0  0  0  0  0  0  0999 V2000
  -23.1593    0.5815  -13.3836 C   0  0  0  0  0  0  0  0  0  0  0  0
  -21.8650    0.1720  -13.8078 C   0  0  0  0  0  0  0  0  0  0  0  0
  -21.2909    1.2763  -14.3813 C   0  0  0  0  0  0  0  0  0  0  0  0
  -22.2337    2.2599  -14.2867 N   0  0  0  0  0  0  0  0  0  0  0  0
  -23.3694    1.8706  -13.6982 N   0  0  0  0  0  0  0  0  0  0  0  0
  -22.1765    3.2219  -14.5988 H   0  0  0  0  0  0  0  0  0  0  0  0
  -27.4229   -1.9995  -13.5144 C   0  0  0  0  0  0  0  0  0  0  0  0
  -26.2646   -1.5113  -12.6900 C   0  0  0  0  0  0  0  0  0  0  0  0
  -25.2808   -0.7378  -13.3539 C   0  0  0  0  0  0  0  0  0  0  0  0
  -24.1613   -0.2230  -12.6867 C   0  0  0  0  0  0  0  0  0  0  0  0
  -24.0372   -0.4766  -11.3276 C   0  0  0  0  0  0  0  0  0  0  0  0
  -25.0067   -1.2203  -10.6596 C   0  0  0  0  0  0  0  0  0  0  0  0
  -26.1198   -1.7714  -11.3088 C   0  0  0  0  0  0  0  0  0  0  0  0
  -27.0666   -2.5715  -10.6019 N   0  0  0  0  0  0  0  0  0  0  0  0
  -27.4152   -2.3769   -9.2735 C   0  0  0  0  0  0  0  0  0  0  0  0
  -26.9514   -1.4920   -8.5602 O   0  0  0  0  0  0  0  0  0  0  0  0
  -28.3310   -3.2893   -8.7840 N   0  0  0  0  0  0  0  0  0  0  0  0
  -27.4754   -3.3523  -11.0882 H   0  0  0  0  0  0  0  0  0  0  0  0
  -28.2277   -4.2519   -9.0638 H   0  0  0  0  0  0  0  0  0  0  0  0
  -28.7321   -3.1345   -7.4597 C   0  0  0  0  0  0  0  0  0  0  0  0
  -28.7787   -4.1402   -6.4655 C   0  0  0  0  0  0  0  0  0  0  0  0
  -29.4468   -3.5713   -5.4093 C   0  0  0  0  0  0  0  0  0  0  0  0
  -29.6705   -2.2575   -5.7053 O   0  0  0  0  0  0  0  0  0  0  0  0
  -29.1747   -1.9706   -6.9755 N   0  0  0  0  0  0  0  0  0  0  0  0
  -29.9204   -4.1213   -4.0877 C   0  0  0  0  0  0  0  0  0  0  0  0
  -28.8462   -5.0690   -3.5273 C   0  0  0  0  0  0  0  0  0  0  0  0
  -30.1964   -3.0133   -3.0579 C   0  0  0  0  0  0  0  0  0  0  0  0
  -31.2287   -4.9177   -4.2887 C   0  0  0  0  0  0  0  0  0  0  0  0
  -20.0334    1.4177  -14.9529 N   0  0  0  0  0  0  0  0  0  0  0  0
  -19.2805    2.6415  -14.9271 C   0  0  0  0  0  0  0  0  0  0  0  0
  -19.7408    3.6568  -14.4263 O   0  0  0  0  0  0  0  0  0  0  0  0
  -19.6535    0.5960  -15.3953 H   0  0  0  0  0  0  0  0  0  0  0  0
  -17.9198    2.6270  -15.5270 C   0  0  0  0  0  0  0  0  0  0  0  0
  -17.2748    3.7857  -15.9713 C   0  0  0  0  0  0  0  0  0  0  0  0
  -16.0080    3.7036  -16.5507 C   0  0  0  0  0  0  0  0  0  0  0  0
  -15.3513    2.4776  -16.6437 C   0  0  0  0  0  0  0  0  0  0  0  0
  -15.9970    1.3191  -16.2190 C   0  0  0  0  0  0  0  0  0  0  0  0
  -17.2742    1.3887  -15.6629 C   0  0  0  0  0  0  0  0  0  0  0  0
  -14.0976    2.2889  -17.1422 O   0  0  0  0  0  0  0  0  0  0  0  0
  -13.3657    1.1656  -16.6478 C   0  0  0  0  0  0  0  0  0  0  0  0
  -12.1689    1.6859  -15.8470 C   0  0  0  0  0  0  0  0  0  0  0  0
  -11.8022    0.7940  -14.7337 N   0  0  0  0  0  0  0  0  0  0  0  0
  -12.9689    0.1339  -14.1063 C   0  0  0  0  0  0  0  0  0  0  0  0
  -13.8577    1.0901  -13.2958 C   0  0  0  0  0  0  0  0  0  0  0  0
  -13.1013    1.7790  -12.2935 O   0  0  0  0  0  0  0  0  0  0  0  0
  -11.9967    2.4865  -12.8711 C   0  0  0  0  0  0  0  0  0  0  0  0
  -11.0863    1.5427  -13.6749 C   0  0  0  0  0  0  0  0  0  0  0  0
  7  8  1  0  0  0
  8  9  1  0  0  0
  8 13  2  0  0  0
  9 10  2  0  0  0
 10  1  1  0  0  0
 10 11  1  0  0  0
  1  2  1  0  0  0
  1  5  2  0  0  0
  2  3  2  0  0  0
  3 29  1  0  0  0
  3  4  1  0  0  0
 29 30  1  0  0  0
 29 32  1  0  0  0
 30 31  2  0  0  0
 30 33  1  0  0  0
 33 34  1  0  0  0
 33 38  2  0  0  0
 34 35  2  0  0  0
 35 36  1  0  0  0
 36 39  1  0  0  0
 36 37  2  0  0  0
 39 40  1  0  0  0
 40 41  1  0  0  0
 41 42  1  0  0  0
 42 43  1  0  0  0
 42 47  1  0  0  0
 43 44  1  0  0  0
 44 45  1  0  0  0
 45 46  1  0  0  0
 46 47  1  0  0  0
 37 38  1  0  0  0
  4  5  1  0  0  0
  4  6  1  0  0  0
 11 12  2  0  0  0
 12 13  1  0  0  0
 13 14  1  0  0  0
 14 15  1  0  0  0
 14 18  1  0  0  0
 15 16  2  0  0  0
 15 17  1  0  0  0
 17 20  1  0  0  0
 17 19  1  0  0  0
 20 21  1  0  0  0
 20 24  2  0  0  0
 21 22  2  0  0  0
 22 25  1  0  0  0
 22 23  1  0  0  0
 25 26  1  0  0  0
 25 27  1  0  0  0
 25 28  1  0  0  0
 23 24  1  0  0  0
M  END
> <minimizedAffinity>
-11.38016

$$$$
