CHEMBL3633295


 32 35  0  0  0  0  0  0  0  0999 V2000
  -19.8769    1.2109  -15.1107 C   0  0  0  0  0  0  0  0  0  0  0  0
  -20.2076    2.5666  -15.0681 C   0  0  0  0  0  0  0  0  0  0  0  0
  -19.2344    3.5346  -15.2875 C   0  0  0  0  0  0  0  0  0  0  0  0
  -17.9220    3.1491  -15.5628 C   0  0  0  0  0  0  0  0  0  0  0  0
  -17.5381    1.7951  -15.5533 C   0  0  0  0  0  0  0  0  0  0  0  0
  -18.5385    0.8410  -15.2673 C   0  0  0  0  0  0  0  0  0  0  0  0
  -16.1281    1.4002  -15.7712 C   0  0  0  0  0  0  0  0  0  0  0  0
  -15.5548    1.4382  -17.0674 C   0  0  0  0  0  0  0  0  0  0  0  0
  -14.1940    1.2333  -17.2914 C   0  0  0  0  0  0  0  0  0  0  0  0
  -13.3237    1.0293  -16.2261 C   0  0  0  0  0  0  0  0  0  0  0  0
  -13.8906    0.9388  -14.9528 C   0  0  0  0  0  0  0  0  0  0  0  0
  -13.3068    0.7685  -13.7269 N   0  0  0  0  0  0  0  0  0  0  0  0
  -14.1737    0.5758  -12.7264 N   0  0  0  0  0  0  0  0  0  0  0  0
  -15.3607    0.7119  -13.3092 C   0  0  0  0  0  0  0  0  0  0  0  0
  -16.5016    0.5012  -12.6303 N   0  0  0  0  0  0  0  0  0  0  0  0
  -15.2599    1.0451  -14.6991 C   0  0  0  0  0  0  0  0  0  0  0  0
  -12.3166    0.7563  -13.5132 H   0  0  0  0  0  0  0  0  0  0  0  0
  -16.3970    0.0099  -11.7485 H   0  0  0  0  0  0  0  0  0  0  0  0
  -17.3286    0.2083  -13.1428 H   0  0  0  0  0  0  0  0  0  0  0  0
  -22.7819   -0.7761  -14.2063 N   0  0  0  0  0  0  0  0  0  0  0  0
  -21.8888    0.2698  -14.1177 C   0  0  0  0  0  0  0  0  0  0  0  0
  -21.9761    1.1920  -13.3123 O   0  0  0  0  0  0  0  0  0  0  0  0
  -20.8747    0.2019  -15.0671 N   0  0  0  0  0  0  0  0  0  0  0  0
  -22.4791   -1.5864  -14.7263 H   0  0  0  0  0  0  0  0  0  0  0  0
  -21.1590   -0.1841  -15.9571 H   0  0  0  0  0  0  0  0  0  0  0  0
  -27.7019   -1.3175  -11.2738 C   0  0  0  0  0  0  0  0  0  0  0  0
  -26.4220   -1.1727  -12.0349 C   0  0  0  0  0  0  0  0  0  0  0  0
  -25.3064   -0.5975  -11.4299 C   0  0  0  0  0  0  0  0  0  0  0  0
  -24.1093   -0.4562  -12.1352 C   0  0  0  0  0  0  0  0  0  0  0  0
  -23.9818   -0.8969  -13.4564 C   0  0  0  0  0  0  0  0  0  0  0  0
  -25.1029   -1.4669  -14.0699 C   0  0  0  0  0  0  0  0  0  0  0  0
  -26.3101   -1.6038  -13.3684 C   0  0  0  0  0  0  0  0  0  0  0  0
 26 27  1  0  0  0
 27 28  1  0  0  0
 27 32  2  0  0  0
 28 29  2  0  0  0
 29 30  1  0  0  0
 30 20  1  0  0  0
 30 31  2  0  0  0
 20 21  1  0  0  0
 20 24  1  0  0  0
 21 22  2  0  0  0
 21 23  1  0  0  0
 23  1  1  0  0  0
 23 25  1  0  0  0
  1  2  1  0  0  0
  1  6  2  0  0  0
  2  3  2  0  0  0
  3  4  1  0  0  0
  4  5  2  0  0  0
  5  7  1  0  0  0
  5  6  1  0  0  0
  7  8  1  0  0  0
  7 16  2  0  0  0
  8  9  2  0  0  0
  9 10  1  0  0  0
 10 11  2  0  0  0
 11 12  1  0  0  0
 11 16  1  0  0  0
 12 13  1  0  0  0
 12 17  1  0  0  0
 13 14  2  0  0  0
 14 15  1  0  0  0
 14 16  1  0  0  0
 15 18  1  0  0  0
 15 19  1  0  0  0
 31 32  1  0  0  0
M  END
> <minimizedAffinity>
-10.51940

$$$$
