CHEMBL360847


 36 41  0  0  0  0  0  0  0  0999 V2000
  -12.5140   -3.6422   -9.5926 C   0  0  0  0  0  0  0  0  0  0  0  0
  -13.4309   -4.8756   -9.8593 C   0  0  0  0  0  0  0  0  0  0  0  0
  -14.4290   -4.7913  -11.0821 C   0  0  0  0  0  0  0  0  0  0  0  0
  -14.1036   -5.4266  -12.3716 N   0  0  0  0  0  0  0  0  0  0  0  0
  -14.1972   -4.8052  -13.6111 C   0  0  0  0  0  0  0  0  0  0  0  0
  -13.6844   -5.6532  -14.5809 C   0  0  0  0  0  0  0  0  0  0  0  0
  -13.4377   -6.8993  -13.9364 C   0  0  0  0  0  0  0  0  0  0  0  0
  -12.9230   -8.1364  -14.3814 C   0  0  0  0  0  0  0  0  0  0  0  0
  -12.8738   -9.2216  -13.5047 C   0  0  0  0  0  0  0  0  0  0  0  0
  -13.3452   -9.0934  -12.2061 C   0  0  0  0  0  0  0  0  0  0  0  0
  -13.8180   -7.8674  -11.7223 C   0  0  0  0  0  0  0  0  0  0  0  0
  -13.8113   -6.7635  -12.5880 C   0  0  0  0  0  0  0  0  0  0  0  0
  -13.3979   -5.3238  -15.9506 C   0  0  0  0  0  0  0  0  0  0  0  0
  -12.7050   -4.2768  -16.4310 C   0  0  0  0  0  0  0  0  0  0  0  0
  -12.5805   -4.4150  -17.8928 C   0  0  0  0  0  0  0  0  0  0  0  0
  -12.0349   -3.6494  -18.6568 O   0  0  0  0  0  0  0  0  0  0  0  0
  -13.1870   -5.5773  -18.2217 N   0  0  0  0  0  0  0  0  0  0  0  0
  -13.7090   -6.1706  -17.1361 C   0  0  0  0  0  0  0  0  0  0  0  0
  -14.3288   -7.2159  -17.1443 O   0  0  0  0  0  0  0  0  0  0  0  0
  -12.1066   -3.2379  -15.6839 C   0  0  0  0  0  0  0  0  0  0  0  0
  -11.1852   -3.4641  -14.6903 C   0  0  0  0  0  0  0  0  0  0  0  0
  -11.1072   -2.3159  -13.9493 N   0  0  0  0  0  0  0  0  0  0  0  0
  -11.8196   -1.2999  -14.5549 C   0  0  0  0  0  0  0  0  0  0  0  0
  -12.0253    0.0347  -14.1742 C   0  0  0  0  0  0  0  0  0  0  0  0
  -12.8866    0.8122  -14.9530 C   0  0  0  0  0  0  0  0  0  0  0  0
  -13.5333    0.2753  -16.0623 C   0  0  0  0  0  0  0  0  0  0  0  0
  -13.3364   -1.0605  -16.4234 C   0  0  0  0  0  0  0  0  0  0  0  0
  -12.4598   -1.8617  -15.6659 C   0  0  0  0  0  0  0  0  0  0  0  0
  -10.7049   -2.3372  -12.5530 C   0  0  0  0  0  0  0  0  0  0  0  0
  -11.9248   -2.6804  -11.7061 C   0  0  0  0  0  0  0  0  0  0  0  0
  -11.5399   -3.5297  -10.6449 O   0  0  0  0  0  0  0  0  0  0  0  0
  -13.2262   -5.9405  -19.1620 H   0  0  0  0  0  0  0  0  0  0  0  0
  -11.5760   -3.6751   -8.3264 C   0  0  0  0  0  0  0  0  0  0  0  0
  -10.9563   -5.7302   -7.2529 C   0  0  0  0  0  0  0  0  0  0  0  0
  -11.8017   -4.5159   -7.1316 N   0  0  0  0  0  0  0  0  0  0  0  0
  -11.4240   -3.8529   -5.8807 C   0  0  0  0  0  0  0  0  0  0  0  0
 34 35  1  0  0  0
 35 36  1  0  0  0
 35 33  1  0  0  0
 33  1  1  0  0  0
  1  2  1  0  0  0
  1 31  1  0  0  0
  2  3  1  0  0  0
  3  4  1  0  0  0
  4  5  1  0  0  0
  4 12  1  0  0  0
  5  6  2  0  0  0
  6  7  1  0  0  0
  6 13  1  0  0  0
  7  8  1  0  0  0
  7 12  2  0  0  0
  8  9  2  0  0  0
  9 10  1  0  0  0
 10 11  2  0  0  0
 11 12  1  0  0  0
 13 14  2  0  0  0
 13 18  1  0  0  0
 14 15  1  0  0  0
 14 20  1  0  0  0
 15 16  2  0  0  0
 15 17  1  0  0  0
 17 18  1  0  0  0
 17 32  1  0  0  0
 18 19  2  0  0  0
 20 21  2  0  0  0
 20 28  1  0  0  0
 21 22  1  0  0  0
 22 23  1  0  0  0
 22 29  1  0  0  0
 23 24  1  0  0  0
 23 28  2  0  0  0
 24 25  2  0  0  0
 25 26  1  0  0  0
 26 27  2  0  0  0
 27 28  1  0  0  0
 29 30  1  0  0  0
 30 31  1  0  0  0
M  END
> <minimizedAffinity>
-7.29593

$$$$
