CHEMBL247388


 26 29  0  0  0  0  0  0  0  0999 V2000
  -28.0484   -1.7496   -8.0926 C   0  0  0  0  0  0  0  0  0  0  0  0
  -27.6539   -0.6809   -7.2652 C   0  0  0  0  0  0  0  0  0  0  0  0
  -27.6272   -0.7818   -5.8607 C   0  0  0  0  0  0  0  0  0  0  0  0
  -28.0045   -1.9585   -5.2284 C   0  0  0  0  0  0  0  0  0  0  0  0
  -28.4162   -2.9926   -6.0374 C   0  0  0  0  0  0  0  0  0  0  0  0
  -28.4620   -2.9174   -7.4615 C   0  0  0  0  0  0  0  0  0  0  0  0
  -28.9379   -4.2341   -8.1017 C   0  0  0  0  0  0  0  0  0  0  0  0
  -29.1300   -5.0234   -6.8512 C   0  0  0  0  0  0  0  0  0  0  0  0
  -28.8350   -4.3026   -5.6889 C   0  0  0  0  0  0  0  0  0  0  0  0
  -29.0024   -4.9823   -4.5649 N   0  0  0  0  0  0  0  0  0  0  0  0
  -29.4310   -6.1835   -5.0309 N   0  0  0  0  0  0  0  0  0  0  0  0
  -29.5247   -6.2568   -6.4081 C   0  0  0  0  0  0  0  0  0  0  0  0
  -29.6376   -6.9081   -4.3544 H   0  0  0  0  0  0  0  0  0  0  0  0
  -29.9700   -7.4328   -7.1991 C   0  0  0  0  0  0  0  0  0  0  0  0
  -31.2742   -8.0056   -7.1606 C   0  0  0  0  0  0  0  0  0  0  0  0
  -31.3930   -9.0970   -7.9906 C   0  0  0  0  0  0  0  0  0  0  0  0
  -29.9346   -9.4362   -8.8165 S   0  0  0  0  0  0  0  0  0  0  0  0
  -29.1437   -8.1119   -8.0696 C   0  0  0  0  0  0  0  0  0  0  0  0
  -26.8695   -1.5858  -10.2752 C   0  0  0  0  0  0  0  0  0  0  0  0
  -25.7089   -1.5970   -9.8835 O   0  0  0  0  0  0  0  0  0  0  0  0
  -28.0217   -1.6621   -9.5001 N   0  0  0  0  0  0  0  0  0  0  0  0
  -28.8924   -1.7534  -10.0153 H   0  0  0  0  0  0  0  0  0  0  0  0
  -27.1504   -1.5323  -11.7901 C   0  0  0  0  0  0  0  0  0  0  0  0
  -28.2067   -1.9097  -12.2679 O   0  0  0  0  0  0  0  0  0  0  0  0
  -25.7804   -1.6299  -13.6967 C   0  0  0  0  0  0  0  0  0  0  0  0
  -26.0726   -1.0401  -12.4354 O   0  0  0  0  0  0  0  0  0  0  0  0
 25 26  1  0  0  0
 26 23  1  0  0  0
 23 24  2  0  0  0
 23 19  1  0  0  0
 19 20  2  0  0  0
 19 21  1  0  0  0
 21  1  1  0  0  0
 21 22  1  0  0  0
  1  2  1  0  0  0
  1  6  2  0  0  0
  2  3  2  0  0  0
  3  4  1  0  0  0
  4  5  2  0  0  0
  5  6  1  0  0  0
  5  9  1  0  0  0
  6  7  1  0  0  0
  7  8  1  0  0  0
  8  9  1  0  0  0
  8 12  2  0  0  0
  9 10  2  0  0  0
 10 11  1  0  0  0
 11 12  1  0  0  0
 11 13  1  0  0  0
 12 14  1  0  0  0
 14 15  1  0  0  0
 14 18  2  0  0  0
 15 16  2  0  0  0
 16 17  1  0  0  0
 17 18  1  0  0  0
M  END
> <minimizedAffinity>
-8.18552

$$$$
