CHEMBL1989029


 22 24  0  0  0  0  0  0  0  0999 V2000
  -30.3512   -6.2049   -4.9524 C   0  0  0  0  0  0  0  0  0  0  0  0
  -30.0003   -6.6390   -3.7816 N   0  0  0  0  0  0  0  0  0  0  0  0
  -28.9119   -5.8558   -3.4220 N   0  0  0  0  0  0  0  0  0  0  0  0
  -28.5148   -4.9209   -4.3698 C   0  0  0  0  0  0  0  0  0  0  0  0
  -27.5550   -4.1781   -4.3195 O   0  0  0  0  0  0  0  0  0  0  0  0
  -29.5455   -5.0682   -5.4285 C   0  0  0  0  0  0  0  0  0  0  0  0
  -29.7482   -4.3071   -6.4952 C   0  0  0  0  0  0  0  0  0  0  0  0
  -28.4213   -5.9974   -2.5500 H   0  0  0  0  0  0  0  0  0  0  0  0
  -28.9647   -3.1637   -6.8471 C   0  0  0  0  0  0  0  0  0  0  0  0
  -28.0808   -3.1195   -7.9003 C   0  0  0  0  0  0  0  0  0  0  0  0
  -27.5965   -1.8389   -7.9766 N   0  0  0  0  0  0  0  0  0  0  0  0
  -28.1342   -1.0607   -6.9765 C   0  0  0  0  0  0  0  0  0  0  0  0
  -27.9558    0.2991   -6.6931 C   0  0  0  0  0  0  0  0  0  0  0  0
  -28.6469    0.8285   -5.5985 C   0  0  0  0  0  0  0  0  0  0  0  0
  -29.4818    0.0301   -4.8205 C   0  0  0  0  0  0  0  0  0  0  0  0
  -29.6598   -1.3238   -5.1260 C   0  0  0  0  0  0  0  0  0  0  0  0
  -28.9806   -1.8828   -6.2283 C   0  0  0  0  0  0  0  0  0  0  0  0
  -26.9644   -1.4978   -8.6886 H   0  0  0  0  0  0  0  0  0  0  0  0
  -31.2920   -6.7032   -5.7745 O   0  0  0  0  0  0  0  0  0  0  0  0
  -32.3525   -8.3685   -7.1191 C   0  0  0  0  0  0  0  0  0  0  0  0
  -31.0156   -7.9060   -6.5351 C   0  0  0  0  0  0  0  0  0  0  0  0
  -30.0419   -7.6935   -7.7020 C   0  0  0  0  0  0  0  0  0  0  0  0
 20 21  1  0  0  0
 21 22  1  0  0  0
 21 19  1  0  0  0
 19  1  1  0  0  0
  1  2  2  0  0  0
  1  6  1  0  0  0
  2  3  1  0  0  0
  3  4  1  0  0  0
  3  8  1  0  0  0
  4  5  2  0  0  0
  4  6  1  0  0  0
  6  7  2  0  0  0
  7  9  1  0  0  0
  9 10  2  0  0  0
  9 17  1  0  0  0
 10 11  1  0  0  0
 11 12  1  0  0  0
 11 18  1  0  0  0
 12 13  1  0  0  0
 12 17  2  0  0  0
 13 14  2  0  0  0
 14 15  1  0  0  0
 15 16  2  0  0  0
 16 17  1  0  0  0
M  END
> <minimizedAffinity>
-7.89603

$$$$
