CHEMBL2001998


 36 40  0  0  0  0  0  0  0  0999 V2000
  -25.4487   -1.1193  -11.9339 C   0  0  0  0  0  0  0  0  0  0  0  0
  -24.6044   -2.2258  -12.1694 C   0  0  0  0  0  0  0  0  0  0  0  0
  -23.3414   -2.0799  -12.7379 C   0  0  0  0  0  0  0  0  0  0  0  0
  -22.9384   -0.8116  -13.0990 C   0  0  0  0  0  0  0  0  0  0  0  0
  -23.7905    0.3070  -12.8882 C   0  0  0  0  0  0  0  0  0  0  0  0
  -25.0374    0.1732  -12.3050 C   0  0  0  0  0  0  0  0  0  0  0  0
  -23.0445    1.4096  -13.3958 C   0  0  0  0  0  0  0  0  0  0  0  0
  -23.1078    2.7443  -13.5454 N   0  0  0  0  0  0  0  0  0  0  0  0
  -21.9712    3.2396  -14.1063 N   0  0  0  0  0  0  0  0  0  0  0  0
  -21.1812    2.1662  -14.3316 C   0  0  0  0  0  0  0  0  0  0  0  0
  -21.8330    1.0016  -13.8839 C   0  0  0  0  0  0  0  0  0  0  0  0
  -21.5990   -0.4592  -13.7542 C   0  0  0  0  0  0  0  0  0  0  0  0
  -23.8496    3.3881  -13.2957 H   0  0  0  0  0  0  0  0  0  0  0  0
  -19.8523    2.2804  -14.9242 C   0  0  0  0  0  0  0  0  0  0  0  0
  -19.0211    1.1712  -15.0947 C   0  0  0  0  0  0  0  0  0  0  0  0
  -17.7307    1.3292  -15.5969 C   0  0  0  0  0  0  0  0  0  0  0  0
  -17.2982    2.6104  -15.9203 C   0  0  0  0  0  0  0  0  0  0  0  0
  -18.0841    3.7074  -15.7957 N   0  0  0  0  0  0  0  0  0  0  0  0
  -19.3373    3.5177  -15.3105 C   0  0  0  0  0  0  0  0  0  0  0  0
  -15.9512    2.8366  -16.3898 C   0  0  0  0  0  0  0  0  0  0  0  0
  -14.8737    2.9617  -16.7952 N   0  0  0  0  0  0  0  0  0  0  0  0
  -26.6808   -1.2067  -11.3340 O   0  0  0  0  0  0  0  0  0  0  0  0
  -26.7319   -1.8184  -10.0379 C   0  0  0  0  0  0  0  0  0  0  0  0
  -28.1231   -1.6607   -9.4396 C   0  0  0  0  0  0  0  0  0  0  0  0
  -28.0204   -1.2767   -7.9562 C   0  0  0  0  0  0  0  0  0  0  0  0
  -31.9531   -4.9514   -3.1852 C   0  0  0  0  0  0  0  0  0  0  0  0
  -31.2045   -4.3519   -4.2586 N   0  0  0  0  0  0  0  0  0  0  0  0
  -30.3998   -3.2675   -4.0188 C   0  0  0  0  0  0  0  0  0  0  0  0
  -30.3090   -2.7565   -2.9056 O   0  0  0  0  0  0  0  0  0  0  0  0
  -29.7101   -2.8040   -5.1192 N   0  0  0  0  0  0  0  0  0  0  0  0
  -29.8606   -3.2739   -6.5004 C   0  0  0  0  0  0  0  0  0  0  0  0
  -28.4785   -3.5444   -7.1187 C   0  0  0  0  0  0  0  0  0  0  0  0
  -27.5682   -2.3775   -7.0891 N   0  0  0  0  0  0  0  0  0  0  0  0
  -27.4600   -1.9111   -5.6786 C   0  0  0  0  0  0  0  0  0  0  0  0
  -28.8108   -1.6555   -4.9703 C   0  0  0  0  0  0  0  0  0  0  0  0
  -30.8413   -5.0025   -4.9329 H   0  0  0  0  0  0  0  0  0  0  0  0
 26 27  1  0  0  0
 27 28  1  0  0  0
 27 36  1  0  0  0
 28 29  2  0  0  0
 28 30  1  0  0  0
 30 31  1  0  0  0
 30 35  1  0  0  0
 31 32  1  0  0  0
 32 33  1  0  0  0
 33 25  1  0  0  0
 33 34  1  0  0  0
 25 24  1  0  0  0
 24 23  1  0  0  0
 23 22  1  0  0  0
 22  1  1  0  0  0
  1  2  1  0  0  0
  1  6  2  0  0  0
  2  3  2  0  0  0
  3  4  1  0  0  0
  4  5  2  0  0  0
  4 12  1  0  0  0
  5  6  1  0  0  0
  5  7  1  0  0  0
  7  8  1  0  0  0
  7 11  2  0  0  0
  8  9  1  0  0  0
  8 13  1  0  0  0
  9 10  2  0  0  0
 10 14  1  0  0  0
 10 11  1  0  0  0
 14 15  1  0  0  0
 14 19  2  0  0  0
 15 16  2  0  0  0
 16 17  1  0  0  0
 17 20  1  0  0  0
 17 18  2  0  0  0
 20 21  3  0  0  0
 18 19  1  0  0  0
 11 12  1  0  0  0
 34 35  1  0  0  0
M  END
> <minimizedAffinity>
-10.76382

$$$$
