CHEMBL3981613


 38 41  0  0  0  0  0  0  0  0999 V2000
  -23.8308   -0.8938  -13.9843 C   0  0  0  0  0  0  0  0  0  0  0  0
  -25.1581   -1.2103  -14.3503 C   0  0  0  0  0  0  0  0  0  0  0  0
  -26.1375   -1.5324  -13.4244 C   0  0  0  0  0  0  0  0  0  0  0  0
  -27.3831   -1.7807  -13.8469 N   0  0  0  0  0  0  0  0  0  0  0  0
  -28.2924   -2.0604  -12.9052 C   0  0  0  0  0  0  0  0  0  0  0  0
  -28.0694   -2.0965  -11.5925 N   0  0  0  0  0  0  0  0  0  0  0  0
  -26.8124   -1.8332  -11.1821 C   0  0  0  0  0  0  0  0  0  0  0  0
  -25.7817   -1.5689  -12.0811 C   0  0  0  0  0  0  0  0  0  0  0  0
  -24.4402   -1.3495  -11.7082 C   0  0  0  0  0  0  0  0  0  0  0  0
  -23.4640   -1.0065  -12.6413 C   0  0  0  0  0  0  0  0  0  0  0  0
  -26.5335   -1.7968   -9.7871 N   0  0  0  0  0  0  0  0  0  0  0  0
  -26.0522   -0.9281   -9.5689 H   0  0  0  0  0  0  0  0  0  0  0  0
  -27.4479   -2.1912   -8.7978 C   0  0  0  0  0  0  0  0  0  0  0  0
  -27.8650   -1.2729   -7.8283 C   0  0  0  0  0  0  0  0  0  0  0  0
  -28.6904   -1.6692   -6.7784 C   0  0  0  0  0  0  0  0  0  0  0  0
  -29.1181   -2.9944   -6.6966 C   0  0  0  0  0  0  0  0  0  0  0  0
  -30.0850   -3.4375   -5.3370 Cl  0  0  0  0  0  0  0  0  0  0  0  0
  -28.7464   -3.9086   -7.6890 C   0  0  0  0  0  0  0  0  0  0  0  0
  -29.2492   -5.5619   -7.6556 Cl  0  0  0  0  0  0  0  0  0  0  0  0
  -27.9210   -3.5053   -8.7434 C   0  0  0  0  0  0  0  0  0  0  0  0
  -22.2815   -0.7891  -12.0030 O   0  0  0  0  0  0  0  0  0  0  0  0
  -21.9512    0.4469  -11.4060 C   0  0  0  0  0  0  0  0  0  0  0  0
  -22.9123   -0.4718  -14.9016 O   0  0  0  0  0  0  0  0  0  0  0  0
  -21.8215    0.3562  -14.4473 C   0  0  0  0  0  0  0  0  0  0  0  0
  -19.1138    2.0888  -15.2674 N   0  0  0  0  0  0  0  0  0  0  0  0
  -19.4427    3.2932  -14.4750 C   0  0  0  0  0  0  0  0  0  0  0  0
  -20.7451    3.1598  -13.6691 C   0  0  0  0  0  0  0  0  0  0  0  0
  -21.8637    2.8277  -14.4996 O   0  0  0  0  0  0  0  0  0  0  0  0
  -21.6470    1.6410  -15.2921 C   0  0  0  0  0  0  0  0  0  0  0  0
  -20.3061    1.7404  -16.0646 C   0  0  0  0  0  0  0  0  0  0  0  0
  -18.5844    1.0147  -14.4204 C   0  0  0  0  0  0  0  0  0  0  0  0
  -17.1151    1.1825  -14.0157 C   0  0  0  0  0  0  0  0  0  0  0  0
  -16.4028   -0.1657  -13.9746 C   0  0  0  0  0  0  0  0  0  0  0  0
  -15.8278   -0.4611  -12.5939 C   0  0  0  0  0  0  0  0  0  0  0  0
  -15.5040   -1.9500  -12.4681 C   0  0  0  0  0  0  0  0  0  0  0  0
  -15.8205   -2.4568  -11.0638 C   0  0  0  0  0  0  0  0  0  0  0  0
  -16.5638   -4.7180  -11.8338 C   0  0  0  0  0  0  0  0  0  0  0  0
  -15.8346   -3.9555  -11.0111 C   0  0  0  0  0  0  0  0  0  0  0  0
 37 38  2  0  0  0
 38 36  1  0  0  0
 36 35  1  0  0  0
 35 34  1  0  0  0
 34 33  1  0  0  0
 33 32  1  0  0  0
 32 31  1  0  0  0
 31 25  1  0  0  0
 25 26  1  0  0  0
 25 30  1  0  0  0
 26 27  1  0  0  0
 27 28  1  0  0  0
 28 29  1  0  0  0
 29 24  1  0  0  0
 29 30  1  0  0  0
 24 23  1  0  0  0
 23  1  1  0  0  0
  1  2  1  0  0  0
  1 10  2  0  0  0
  2  3  2  0  0  0
  3  4  1  0  0  0
  3  8  1  0  0  0
  4  5  2  0  0  0
  5  6  1  0  0  0
  6  7  2  0  0  0
  7 11  1  0  0  0
  7  8  1  0  0  0
 11 13  1  0  0  0
 11 12  1  0  0  0
 13 14  1  0  0  0
 13 20  2  0  0  0
 14 15  2  0  0  0
 15 16  1  0  0  0
 16 17  1  0  0  0
 16 18  2  0  0  0
 18 19  1  0  0  0
 18 20  1  0  0  0
  8  9  2  0  0  0
  9 10  1  0  0  0
 10 21  1  0  0  0
 21 22  1  0  0  0
M  END
> <minimizedAffinity>
-6.03603

$$$$
