CHEMBL3702657


 34 37  0  0  0  0  0  0  0  0999 V2000
  -12.3986    0.0372  -15.0965 C   0  0  0  0  0  0  0  0  0  0  0  0
  -13.8312    0.5086  -15.1371 C   0  0  0  0  0  0  0  0  0  0  0  0
  -14.1488    1.5905  -15.9908 C   0  0  0  0  0  0  0  0  0  0  0  0
  -15.4593    2.0476  -16.1303 C   0  0  0  0  0  0  0  0  0  0  0  0
  -16.4692    1.4373  -15.3957 C   0  0  0  0  0  0  0  0  0  0  0  0
  -16.1555    0.3750  -14.5295 C   0  0  0  0  0  0  0  0  0  0  0  0
  -14.8509   -0.1237  -14.3894 C   0  0  0  0  0  0  0  0  0  0  0  0
  -14.5816   -1.2409  -13.5883 N   0  0  0  0  0  0  0  0  0  0  0  0
  -13.9553   -2.4158  -14.2278 C   0  0  0  0  0  0  0  0  0  0  0  0
  -13.1716   -3.1823  -13.1640 C   0  0  0  0  0  0  0  0  0  0  0  0
  -13.9607   -3.3589  -11.8930 C   0  0  0  0  0  0  0  0  0  0  0  0
  -13.4470   -4.2171  -10.9823 N   0  0  0  0  0  0  0  0  0  0  0  0
  -14.0966   -4.3286   -9.8058 C   0  0  0  0  0  0  0  0  0  0  0  0
  -15.2218   -3.6517   -9.4915 N   0  0  0  0  0  0  0  0  0  0  0  0
  -15.7007   -2.8130  -10.4301 C   0  0  0  0  0  0  0  0  0  0  0  0
  -15.0989   -2.6038  -11.6529 C   0  0  0  0  0  0  0  0  0  0  0  0
  -15.6574   -1.6452  -12.6655 C   0  0  0  0  0  0  0  0  0  0  0  0
  -13.4837   -5.2114   -8.7476 C   0  0  0  0  0  0  0  0  0  0  0  0
  -12.0253   -4.4667   -7.9563 S   0  0  0  0  0  0  0  0  0  0  0  0
  -11.4107   -4.1512   -9.1075 H   0  0  0  0  0  0  0  0  0  0  0  0
  -17.8840    1.8904  -15.4204 C   0  0  0  0  0  0  0  0  0  0  0  0
  -18.1455    2.8299  -16.1675 O   0  0  0  0  0  0  0  0  0  0  0  0
  -18.7678    1.2682  -14.5511 N   0  0  0  0  0  0  0  0  0  0  0  0
  -18.3796    0.6485  -13.8529 H   0  0  0  0  0  0  0  0  0  0  0  0
  -20.1358    1.6209  -14.4060 C   0  0  0  0  0  0  0  0  0  0  0  0
  -20.5763    2.9462  -14.3604 C   0  0  0  0  0  0  0  0  0  0  0  0
  -21.9211    3.2565  -14.1526 C   0  0  0  0  0  0  0  0  0  0  0  0
  -22.8507    2.2371  -13.9885 C   0  0  0  0  0  0  0  0  0  0  0  0
  -22.4468    0.8971  -14.0517 C   0  0  0  0  0  0  0  0  0  0  0  0
  -21.0862    0.5966  -14.2835 C   0  0  0  0  0  0  0  0  0  0  0  0
  -23.4493   -0.2113  -13.8475 C   0  0  0  0  0  0  0  0  0  0  0  0
  -22.8832   -1.4088  -13.5297 F   0  0  0  0  0  0  0  0  0  0  0  0
  -24.3331    0.0606  -12.8476 F   0  0  0  0  0  0  0  0  0  0  0  0
  -24.2024   -0.4405  -14.9591 F   0  0  0  0  0  0  0  0  0  0  0  0
  1  2  1  0  0  0
  2  3  1  0  0  0
  2  7  2  0  0  0
  3  4  2  0  0  0
  4  5  1  0  0  0
  5 21  1  0  0  0
  5  6  2  0  0  0
 21 22  2  0  0  0
 21 23  1  0  0  0
 23 25  1  0  0  0
 23 24  1  0  0  0
 25 26  1  0  0  0
 25 30  2  0  0  0
 26 27  2  0  0  0
 27 28  1  0  0  0
 28 29  2  0  0  0
 29 31  1  0  0  0
 29 30  1  0  0  0
 31 32  1  0  0  0
 31 33  1  0  0  0
 31 34  1  0  0  0
  6  7  1  0  0  0
  7  8  1  0  0  0
  8  9  1  0  0  0
  8 17  1  0  0  0
  9 10  1  0  0  0
 10 11  1  0  0  0
 11 12  1  0  0  0
 11 16  2  0  0  0
 12 13  2  0  0  0
 13 18  1  0  0  0
 13 14  1  0  0  0
 18 19  1  0  0  0
 19 20  1  0  0  0
 14 15  2  0  0  0
 15 16  1  0  0  0
 16 17  1  0  0  0
M  END
> <minimizedAffinity>
-10.28456

$$$$
