CHEMBL4293467


 29 32  0  0  0  0  0  0  0  0999 V2000
  -11.5978   -4.7278   -8.9680 C   0  0  0  0  0  0  0  0  0  0  0  0
  -11.2939   -3.7429   -9.8264 N   0  0  0  0  0  0  0  0  0  0  0  0
  -11.9632   -3.7433  -11.0028 C   0  0  0  0  0  0  0  0  0  0  0  0
  -12.9173   -4.6808  -11.3476 C   0  0  0  0  0  0  0  0  0  0  0  0
  -13.1204   -5.6817  -10.4071 C   0  0  0  0  0  0  0  0  0  0  0  0
  -12.4990   -5.6902   -9.2076 N   0  0  0  0  0  0  0  0  0  0  0  0
  -13.9218   -6.8070  -10.6572 N   0  0  0  0  0  0  0  0  0  0  0  0
  -13.7976   -7.4652  -11.8287 C   0  0  0  0  0  0  0  0  0  0  0  0
  -13.5864   -8.7783  -11.9415 N   0  0  0  0  0  0  0  0  0  0  0  0
  -13.3512   -8.9504  -13.2564 N   0  0  0  0  0  0  0  0  0  0  0  0
  -13.4073   -7.8009  -13.9901 C   0  0  0  0  0  0  0  0  0  0  0  0
  -13.1370   -7.7633  -15.4449 C   0  0  0  0  0  0  0  0  0  0  0  0
  -13.7503   -6.8264  -13.0877 C   0  0  0  0  0  0  0  0  0  0  0  0
  -14.0715   -5.5125  -13.4144 N   0  0  0  0  0  0  0  0  0  0  0  0
  -13.6985   -4.5523  -12.6202 C   0  0  0  0  0  0  0  0  0  0  0  0
  -13.8601   -7.4123   -9.8450 H   0  0  0  0  0  0  0  0  0  0  0  0
  -13.1492   -9.8875  -13.5880 H   0  0  0  0  0  0  0  0  0  0  0  0
  -14.1994   -3.1803  -13.0167 C   0  0  0  0  0  0  0  0  0  0  0  0
  -13.6437   -2.5927  -14.1738 C   0  0  0  0  0  0  0  0  0  0  0  0
  -13.9375   -1.2760  -14.5311 C   0  0  0  0  0  0  0  0  0  0  0  0
  -14.7622   -0.5091  -13.7225 C   0  0  0  0  0  0  0  0  0  0  0  0
  -15.3210   -1.0739  -12.5785 C   0  0  0  0  0  0  0  0  0  0  0  0
  -15.0737   -2.4194  -12.2135 C   0  0  0  0  0  0  0  0  0  0  0  0
  -15.7817   -2.9035  -10.9664 C   0  0  0  0  0  0  0  0  0  0  0  0
  -16.5779   -3.9959  -11.0873 F   0  0  0  0  0  0  0  0  0  0  0  0
  -14.9259   -3.1379   -9.9322 F   0  0  0  0  0  0  0  0  0  0  0  0
  -16.6354   -1.9363  -10.4968 F   0  0  0  0  0  0  0  0  0  0  0  0
  -11.5013   -3.3786   -6.5594 C   0  0  0  0  0  0  0  0  0  0  0  0
  -10.6965   -4.7425   -7.4377 S   0  0  0  0  0  0  0  0  0  0  0  0
 28 29  1  0  0  0
 29  1  1  0  0  0
  1  2  1  0  0  0
  1  6  2  0  0  0
  2  3  2  0  0  0
  3  4  1  0  0  0
  4  5  2  0  0  0
  4 15  1  0  0  0
  5  6  1  0  0  0
  5  7  1  0  0  0
  7  8  1  0  0  0
  7 16  1  0  0  0
  8  9  2  0  0  0
  8 13  1  0  0  0
  9 10  1  0  0  0
 10 11  1  0  0  0
 10 17  1  0  0  0
 11 12  1  0  0  0
 11 13  2  0  0  0
 13 14  1  0  0  0
 14 15  2  0  0  0
 15 18  1  0  0  0
 18 19  1  0  0  0
 18 23  2  0  0  0
 19 20  2  0  0  0
 20 21  1  0  0  0
 21 22  2  0  0  0
 22 23  1  0  0  0
 23 24  1  0  0  0
 24 25  1  0  0  0
 24 26  1  0  0  0
 24 27  1  0  0  0
M  END
> <minimizedAffinity>
-7.29962

$$$$
