CHEMBL263769


 44 48  0  0  0  0  0  0  0  0999 V2000
  -27.7596  -10.2403   -8.8384 C   0  0  0  0  0  0  0  0  0  0  0  0
  -27.5213  -10.7930   -9.9093 O   0  0  0  0  0  0  0  0  0  0  0  0
  -27.1307  -10.5525   -7.6284 N   0  0  0  0  0  0  0  0  0  0  0  0
  -25.7650  -10.9403   -7.6514 C   0  0  0  0  0  0  0  0  0  0  0  0
  -25.3854  -11.9072   -8.6082 C   0  0  0  0  0  0  0  0  0  0  0  0
  -24.0757  -12.3824   -8.6613 C   0  0  0  0  0  0  0  0  0  0  0  0
  -23.1363  -11.8743   -7.7791 C   0  0  0  0  0  0  0  0  0  0  0  0
  -21.8736  -12.3177   -7.8308 F   0  0  0  0  0  0  0  0  0  0  0  0
  -23.4909  -10.9287   -6.8239 C   0  0  0  0  0  0  0  0  0  0  0  0
  -24.8091  -10.4569   -6.7270 C   0  0  0  0  0  0  0  0  0  0  0  0
  -24.9622   -9.6449   -5.6334 O   0  0  0  0  0  0  0  0  0  0  0  0
  -24.6343  -10.0502   -4.3061 C   0  0  0  0  0  0  0  0  0  0  0  0
  -25.2077   -9.0480   -3.3085 C   0  0  0  0  0  0  0  0  0  0  0  0
  -25.2310  -11.4301   -4.0589 C   0  0  0  0  0  0  0  0  0  0  0  0
  -27.8615  -10.7516   -6.4187 C   0  0  0  0  0  0  0  0  0  0  0  0
  -28.3905  -11.9982   -6.1129 C   0  0  0  0  0  0  0  0  0  0  0  0
  -29.0320  -12.1233   -4.9149 C   0  0  0  0  0  0  0  0  0  0  0  0
  -29.2285  -11.0899   -4.1015 N   0  0  0  0  0  0  0  0  0  0  0  0
  -28.7762   -9.8882   -4.4902 C   0  0  0  0  0  0  0  0  0  0  0  0
  -28.0547   -9.6933   -5.6039 N   0  0  0  0  0  0  0  0  0  0  0  0
  -29.0637   -8.7807   -3.6999 N   0  0  0  0  0  0  0  0  0  0  0  0
  -29.0462   -8.9927   -2.7137 H   0  0  0  0  0  0  0  0  0  0  0  0
  -29.0351   -7.4312   -4.0673 C   0  0  0  0  0  0  0  0  0  0  0  0
  -27.8140   -6.8009   -4.2863 C   0  0  0  0  0  0  0  0  0  0  0  0
  -27.7557   -5.4278   -4.5293 C   0  0  0  0  0  0  0  0  0  0  0  0
  -28.9149   -4.6318   -4.5885 C   0  0  0  0  0  0  0  0  0  0  0  0
  -30.1387   -5.2760   -4.4064 C   0  0  0  0  0  0  0  0  0  0  0  0
  -30.1933   -6.6460   -4.1377 C   0  0  0  0  0  0  0  0  0  0  0  0
  -28.8007   -3.2803   -4.8659 N   0  0  0  0  0  0  0  0  0  0  0  0
  -29.5982   -2.2759   -4.1464 C   0  0  0  0  0  0  0  0  0  0  0  0
  -29.7677   -1.0358   -5.0598 C   0  0  0  0  0  0  0  0  0  0  0  0
  -28.4748   -0.4713   -5.5204 N   0  0  0  0  0  0  0  0  0  0  0  0
  -28.7024    0.6303   -6.4524 C   0  0  0  0  0  0  0  0  0  0  0  0
  -27.6752   -1.5363   -6.1729 C   0  0  0  0  0  0  0  0  0  0  0  0
  -27.4765   -2.7700   -5.2657 C   0  0  0  0  0  0  0  0  0  0  0  0
  -28.5402   -9.0708   -8.7406 O   0  0  0  0  0  0  0  0  0  0  0  0
  -30.7262  -11.3227   -8.6569 C   0  0  0  0  0  0  0  0  0  0  0  0
  -30.8879   -9.8922   -8.2320 C   0  0  0  0  0  0  0  0  0  0  0  0
  -32.1862   -9.5162   -7.8240 C   0  0  0  0  0  0  0  0  0  0  0  0
  -32.4752   -8.2217   -7.4050 C   0  0  0  0  0  0  0  0  0  0  0  0
  -31.4633   -7.2730   -7.3607 C   0  0  0  0  0  0  0  0  0  0  0  0
  -30.1543   -7.6054   -7.7516 C   0  0  0  0  0  0  0  0  0  0  0  0
  -29.0917   -6.5421   -7.6822 C   0  0  0  0  0  0  0  0  0  0  0  0
  -29.8665   -8.9203   -8.1922 C   0  0  0  0  0  0  0  0  0  0  0  0
 37 38  1  0  0  0
 38 39  1  0  0  0
 38 44  2  0  0  0
 39 40  2  0  0  0
 40 41  1  0  0  0
 41 42  2  0  0  0
 42 43  1  0  0  0
 42 44  1  0  0  0
 44 36  1  0  0  0
 36  1  1  0  0  0
  1  2  2  0  0  0
  1  3  1  0  0  0
  3 15  1  0  0  0
  3  4  1  0  0  0
 15 16  1  0  0  0
 15 20  2  0  0  0
 16 17  2  0  0  0
 17 18  1  0  0  0
 18 19  2  0  0  0
 19 21  1  0  0  0
 19 20  1  0  0  0
 21 23  1  0  0  0
 21 22  1  0  0  0
 23 24  1  0  0  0
 23 28  2  0  0  0
 24 25  2  0  0  0
 25 26  1  0  0  0
 26 29  1  0  0  0
 26 27  2  0  0  0
 29 30  1  0  0  0
 29 35  1  0  0  0
 30 31  1  0  0  0
 31 32  1  0  0  0
 32 33  1  0  0  0
 32 34  1  0  0  0
 34 35  1  0  0  0
 27 28  1  0  0  0
  4  5  1  0  0  0
  4 10  2  0  0  0
  5  6  2  0  0  0
  6  7  1  0  0  0
  7  8  1  0  0  0
  7  9  2  0  0  0
  9 10  1  0  0  0
 10 11  1  0  0  0
 11 12  1  0  0  0
 12 13  1  0  0  0
 12 14  1  0  0  0
M  END
> <minimizedAffinity>
-9.05385

$$$$
