CHEMBL272251


 31 34  0  0  0  0  0  0  0  0999 V2000
  -29.6840   -4.2592   -6.0819 C   0  0  0  0  0  0  0  0  0  0  0  0
  -30.1850   -3.6034   -4.9448 C   0  0  0  0  0  0  0  0  0  0  0  0
  -29.9249   -2.2517   -4.7440 C   0  0  0  0  0  0  0  0  0  0  0  0
  -29.1425   -1.5494   -5.6606 C   0  0  0  0  0  0  0  0  0  0  0  0
  -28.6272   -2.1735   -6.8091 C   0  0  0  0  0  0  0  0  0  0  0  0
  -27.8096   -1.4504   -7.7068 C   0  0  0  0  0  0  0  0  0  0  0  0
  -27.2884   -2.0511   -8.8534 C   0  0  0  0  0  0  0  0  0  0  0  0
  -27.6543   -3.3573   -9.1584 C   0  0  0  0  0  0  0  0  0  0  0  0
  -28.4321   -4.0947   -8.2602 C   0  0  0  0  0  0  0  0  0  0  0  0
  -28.9195   -3.5417   -7.0507 C   0  0  0  0  0  0  0  0  0  0  0  0
  -30.8151   -6.2076   -7.0666 N   0  0  0  0  0  0  0  0  0  0  0  0
  -29.8733   -5.7424   -6.1685 C   0  0  0  0  0  0  0  0  0  0  0  0
  -29.2257   -6.5008   -5.4521 O   0  0  0  0  0  0  0  0  0  0  0  0
  -31.1061   -5.6063   -7.8286 H   0  0  0  0  0  0  0  0  0  0  0  0
  -30.9498   -7.6414   -7.2788 C   0  0  0  0  0  0  0  0  0  0  0  0
  -32.3894   -8.1269   -7.1306 C   0  0  0  0  0  0  0  0  0  0  0  0
  -31.3608   -9.7560   -8.4911 C   0  0  0  0  0  0  0  0  0  0  0  0
  -32.5930   -9.2525   -7.9912 O   0  0  0  0  0  0  0  0  0  0  0  0
  -26.4548   -1.2819   -9.6459 O   0  0  0  0  0  0  0  0  0  0  0  0
  -26.5196   -1.4431  -11.0231 C   0  0  0  0  0  0  0  0  0  0  0  0
  -27.6927   -1.8504  -11.6555 C   0  0  0  0  0  0  0  0  0  0  0  0
  -27.7003   -1.9000  -13.0319 C   0  0  0  0  0  0  0  0  0  0  0  0
  -26.6255   -1.6294  -13.7969 N   0  0  0  0  0  0  0  0  0  0  0  0
  -25.4706   -1.3170  -13.1866 C   0  0  0  0  0  0  0  0  0  0  0  0
  -24.3579   -1.0732  -13.9788 C   0  0  0  0  0  0  0  0  0  0  0  0
  -23.1091   -0.7610  -13.4379 C   0  0  0  0  0  0  0  0  0  0  0  0
  -22.9674   -0.6976  -12.0567 C   0  0  0  0  0  0  0  0  0  0  0  0
  -24.0786   -0.9199  -11.2347 C   0  0  0  0  0  0  0  0  0  0  0  0
  -25.3468   -1.2239  -11.7843 C   0  0  0  0  0  0  0  0  0  0  0  0
  -22.1254   -0.5516  -14.3654 O   0  0  0  0  0  0  0  0  0  0  0  0
  -21.4197    0.6809  -14.2985 C   0  0  0  0  0  0  0  0  0  0  0  0
 17 18  1  0  0  0
 18 16  1  0  0  0
 16 15  1  0  0  0
 15 11  1  0  0  0
 11 12  1  0  0  0
 11 14  1  0  0  0
 12 13  2  0  0  0
 12  1  1  0  0  0
  1  2  1  0  0  0
  1 10  2  0  0  0
  2  3  2  0  0  0
  3  4  1  0  0  0
  4  5  2  0  0  0
  5  6  1  0  0  0
  5 10  1  0  0  0
  6  7  2  0  0  0
  7 19  1  0  0  0
  7  8  1  0  0  0
 19 20  1  0  0  0
 20 21  1  0  0  0
 20 29  2  0  0  0
 21 22  2  0  0  0
 22 23  1  0  0  0
 23 24  2  0  0  0
 24 25  1  0  0  0
 24 29  1  0  0  0
 25 26  2  0  0  0
 26 30  1  0  0  0
 26 27  1  0  0  0
 30 31  1  0  0  0
 27 28  2  0  0  0
 28 29  1  0  0  0
  8  9  2  0  0  0
  9 10  1  0  0  0
M  END
> <minimizedAffinity>
-9.31904

$$$$
