CHEMBL3694720


 38 41  0  0  0  0  0  0  0  0999 V2000
  -14.0239   -2.1060  -12.7993 C   0  0  0  0  0  0  0  0  0  0  0  0
  -15.4687   -1.9029  -12.6130 C   0  0  0  0  0  0  0  0  0  0  0  0
  -16.1390   -1.0360  -13.3861 C   0  0  0  0  0  0  0  0  0  0  0  0
  -15.4596   -0.2785  -14.3422 N   0  0  0  0  0  0  0  0  0  0  0  0
  -15.8989    0.7400  -15.1992 C   0  0  0  0  0  0  0  0  0  0  0  0
  -14.7734    1.0297  -15.9557 C   0  0  0  0  0  0  0  0  0  0  0  0
  -13.6772    0.2992  -15.5691 N   0  0  0  0  0  0  0  0  0  0  0  0
  -14.0973   -0.4544  -14.5794 C   0  0  0  0  0  0  0  0  0  0  0  0
  -13.3913   -1.3917  -13.7634 C   0  0  0  0  0  0  0  0  0  0  0  0
  -13.8473   -6.3073  -10.5992 N   0  0  0  0  0  0  0  0  0  0  0  0
  -13.1747   -5.1218  -10.9032 C   0  0  0  0  0  0  0  0  0  0  0  0
  -13.8477   -4.2812  -11.7032 N   0  0  0  0  0  0  0  0  0  0  0  0
  -13.2635   -3.1061  -11.9965 C   0  0  0  0  0  0  0  0  0  0  0  0
  -12.0458   -2.7403  -11.5612 N   0  0  0  0  0  0  0  0  0  0  0  0
  -11.4157   -3.6106  -10.7529 C   0  0  0  0  0  0  0  0  0  0  0  0
  -11.9377   -4.8284  -10.3603 C   0  0  0  0  0  0  0  0  0  0  0  0
  -14.6980   -6.3210  -11.1597 H   0  0  0  0  0  0  0  0  0  0  0  0
  -13.2617   -7.1163  -10.8030 H   0  0  0  0  0  0  0  0  0  0  0  0
  -11.1512   -5.6804   -9.4087 C   0  0  0  0  0  0  0  0  0  0  0  0
  -11.8237   -6.0212   -8.2041 O   0  0  0  0  0  0  0  0  0  0  0  0
  -12.3093   -5.2209   -7.9186 H   0  0  0  0  0  0  0  0  0  0  0  0
  -17.2273    1.3755  -15.2082 C   0  0  0  0  0  0  0  0  0  0  0  0
  -17.3357    2.7586  -15.4013 C   0  0  0  0  0  0  0  0  0  0  0  0
  -18.5652    3.3979  -15.3696 C   0  0  0  0  0  0  0  0  0  0  0  0
  -19.7279    2.6514  -15.2362 C   0  0  0  0  0  0  0  0  0  0  0  0
  -19.6864    1.2588  -15.1475 C   0  0  0  0  0  0  0  0  0  0  0  0
  -18.4241    0.6280  -15.1009 C   0  0  0  0  0  0  0  0  0  0  0  0
  -20.8699    0.4701  -15.1144 N   0  0  0  0  0  0  0  0  0  0  0  0
  -21.7547    0.3908  -14.0563 C   0  0  0  0  0  0  0  0  0  0  0  0
  -21.6825    0.9805  -12.9826 O   0  0  0  0  0  0  0  0  0  0  0  0
  -22.7833   -0.4960  -14.2749 N   0  0  0  0  0  0  0  0  0  0  0  0
  -21.1029   -0.0418  -15.9491 H   0  0  0  0  0  0  0  0  0  0  0  0
  -23.1037   -0.6001  -15.2262 H   0  0  0  0  0  0  0  0  0  0  0  0
  -23.7853   -0.6608  -13.2071 C   0  0  0  0  0  0  0  0  0  0  0  0
  -23.5867   -1.8530  -12.2567 C   0  0  0  0  0  0  0  0  0  0  0  0
  -23.1988   -2.9705  -12.9128 F   0  0  0  0  0  0  0  0  0  0  0  0
  -22.6054   -1.5661  -11.3625 F   0  0  0  0  0  0  0  0  0  0  0  0
  -24.6971   -2.1424  -11.5474 F   0  0  0  0  0  0  0  0  0  0  0  0
 10 11  1  0  0  0
 10 17  1  0  0  0
 10 18  1  0  0  0
 11 12  1  0  0  0
 11 16  2  0  0  0
 12 13  2  0  0  0
 13  1  1  0  0  0
 13 14  1  0  0  0
  1  2  1  0  0  0
  1  9  2  0  0  0
  2  3  2  0  0  0
  3  4  1  0  0  0
  4  5  1  0  0  0
  4  8  1  0  0  0
  5 22  1  0  0  0
  5  6  2  0  0  0
 22 23  1  0  0  0
 22 27  2  0  0  0
 23 24  2  0  0  0
 24 25  1  0  0  0
 25 26  2  0  0  0
 26 28  1  0  0  0
 26 27  1  0  0  0
 28 29  1  0  0  0
 28 32  1  0  0  0
 29 30  2  0  0  0
 29 31  1  0  0  0
 31 34  1  0  0  0
 31 33  1  0  0  0
 34 35  1  0  0  0
 35 36  1  0  0  0
 35 37  1  0  0  0
 35 38  1  0  0  0
  6  7  1  0  0  0
  7  8  2  0  0  0
  8  9  1  0  0  0
 14 15  2  0  0  0
 15 16  1  0  0  0
 16 19  1  0  0  0
 19 20  1  0  0  0
 20 21  1  0  0  0
M  END
> <minimizedAffinity>
-9.46799

$$$$
