CHEMBL4098293


 38 44  0  0  0  0  0  0  0  0999 V2000
  -14.9635    2.4590  -15.7714 N   0  0  0  0  0  0  0  0  0  0  0  0
  -14.4160    1.7036  -15.3789 H   0  0  0  0  0  0  0  0  0  0  0  0
  -12.5023    4.1156  -19.2870 N   0  0  0  0  0  0  0  0  0  0  0  0
  -13.1440    4.0537  -18.1043 C   0  0  0  0  0  0  0  0  0  0  0  0
  -13.7282    2.9798  -17.6327 N   0  0  0  0  0  0  0  0  0  0  0  0
  -14.2280    3.3805  -16.4260 C   0  0  0  0  0  0  0  0  0  0  0  0
  -13.9733    4.6481  -16.1130 N   0  0  0  0  0  0  0  0  0  0  0  0
  -13.3044    5.1104  -17.2037 N   0  0  0  0  0  0  0  0  0  0  0  0
  -12.6322    3.3316  -19.9191 H   0  0  0  0  0  0  0  0  0  0  0  0
  -12.3845    5.0182  -19.7421 H   0  0  0  0  0  0  0  0  0  0  0  0
  -12.9197    6.4774  -17.3773 C   0  0  0  0  0  0  0  0  0  0  0  0
  -13.3768    7.1533  -18.4825 N   0  0  0  0  0  0  0  0  0  0  0  0
  -13.0624    8.4489  -18.6306 C   0  0  0  0  0  0  0  0  0  0  0  0
  -12.3576    9.2027  -17.7934 N   0  0  0  0  0  0  0  0  0  0  0  0
  -11.8847    8.5481  -16.7065 C   0  0  0  0  0  0  0  0  0  0  0  0
  -11.1092    9.1716  -15.6836 C   0  0  0  0  0  0  0  0  0  0  0  0
  -10.6965    8.2800  -14.7248 C   0  0  0  0  0  0  0  0  0  0  0  0
  -11.2825    6.7097  -15.0309 S   0  0  0  0  0  0  0  0  0  0  0  0
  -12.1157    7.1885  -16.4689 C   0  0  0  0  0  0  0  0  0  0  0  0
  -16.3438    2.3309  -15.5325 C   0  0  0  0  0  0  0  0  0  0  0  0
  -16.8693    1.0734  -15.2089 C   0  0  0  0  0  0  0  0  0  0  0  0
  -18.2517    0.8750  -15.0442 C   0  0  0  0  0  0  0  0  0  0  0  0
  -19.1735    1.9227  -15.1809 C   0  0  0  0  0  0  0  0  0  0  0  0
  -18.6353    3.1833  -15.4738 C   0  0  0  0  0  0  0  0  0  0  0  0
  -17.2522    3.3791  -15.6680 C   0  0  0  0  0  0  0  0  0  0  0  0
  -20.5421    1.6748  -14.9872 N   0  0  0  0  0  0  0  0  0  0  0  0
  -21.0386    0.2977  -15.1846 C   0  0  0  0  0  0  0  0  0  0  0  0
  -22.5906    0.2642  -15.1667 C   0  0  0  0  0  0  0  0  0  0  0  0
  -23.2367    0.8490  -13.9589 N   0  0  0  0  0  0  0  0  0  0  0  0
  -22.6852    2.2174  -13.8006 C   0  0  0  0  0  0  0  0  0  0  0  0
  -21.1360    2.3440  -13.8057 C   0  0  0  0  0  0  0  0  0  0  0  0
  -23.0811    0.0048  -12.7639 C   0  0  0  0  0  0  0  0  0  0  0  0
  -22.9214   -1.5092  -13.0880 C   0  0  0  0  0  0  0  0  0  0  0  0
  -23.9487   -2.1927  -12.1674 C   0  0  0  0  0  0  0  0  0  0  0  0
  -25.3573   -1.9337  -12.7279 C   0  0  0  0  0  0  0  0  0  0  0  0
  -25.5909   -0.4562  -12.3871 C   0  0  0  0  0  0  0  0  0  0  0  0
  -24.2604   -0.0293  -11.7414 C   0  0  0  0  0  0  0  0  0  0  0  0
  -23.9212   -1.2910  -10.9370 C   0  0  0  0  0  0  0  0  0  0  0  0
  3  4  1  0  0  0
  3  9  1  0  0  0
  3 10  1  0  0  0
  4  5  2  0  0  0
  4  8  1  0  0  0
  5  6  1  0  0  0
  6  1  1  0  0  0
  6  7  2  0  0  0
  1 20  1  0  0  0
  1  2  1  0  0  0
 20 21  1  0  0  0
 20 25  2  0  0  0
 21 22  2  0  0  0
 22 23  1  0  0  0
 23 26  1  0  0  0
 23 24  2  0  0  0
 26 27  1  0  0  0
 26 31  1  0  0  0
 27 28  1  0  0  0
 28 29  1  0  0  0
 29 32  1  0  0  0
 29 30  1  0  0  0
 32 33  1  0  0  0
 32 37  1  0  0  0
 33 34  1  0  0  0
 34 35  1  0  0  0
 34 38  1  0  0  0
 35 36  1  0  0  0
 36 37  1  0  0  0
 37 38  1  0  0  0
 30 31  1  0  0  0
 24 25  1  0  0  0
  7  8  1  0  0  0
  8 11  1  0  0  0
 11 12  1  0  0  0
 11 19  2  0  0  0
 12 13  2  0  0  0
 13 14  1  0  0  0
 14 15  2  0  0  0
 15 16  1  0  0  0
 15 19  1  0  0  0
 16 17  2  0  0  0
 17 18  1  0  0  0
 18 19  1  0  0  0
M  END
> <minimizedAffinity>
-7.81746

$$$$
