CHEMBL3297897


 21 23  0  0  0  0  0  0  0  0999 V2000
  -29.3865   -4.5486   -4.8787 C   0  0  0  0  0  0  0  0  0  0  0  0
  -30.3510   -4.5154   -3.9232 N   0  0  0  0  0  0  0  0  0  0  0  0
  -31.3166   -5.4530   -3.8908 C   0  0  0  0  0  0  0  0  0  0  0  0
  -32.3115   -5.3459   -2.7749 C   0  0  0  0  0  0  0  0  0  0  0  0
  -31.4482   -6.4812   -4.7395 N   0  0  0  0  0  0  0  0  0  0  0  0
  -30.4927   -6.4849   -5.6744 C   0  0  0  0  0  0  0  0  0  0  0  0
  -30.4048   -7.4444   -6.6401 O   0  0  0  0  0  0  0  0  0  0  0  0
  -29.3139   -7.1579   -7.4032 C   0  0  0  0  0  0  0  0  0  0  0  0
  -29.0103   -8.0979   -8.5006 C   0  0  0  0  0  0  0  0  0  0  0  0
  -28.7026   -6.0090   -6.9489 C   0  0  0  0  0  0  0  0  0  0  0  0
  -29.4536   -5.5769   -5.8245 C   0  0  0  0  0  0  0  0  0  0  0  0
  -28.3765   -3.5732   -4.8784 N   0  0  0  0  0  0  0  0  0  0  0  0
  -27.7937   -3.5925   -4.0518 H   0  0  0  0  0  0  0  0  0  0  0  0
  -28.8018    0.3452   -6.4115 C   0  0  0  0  0  0  0  0  0  0  0  0
  -27.8999   -0.5372   -7.0004 C   0  0  0  0  0  0  0  0  0  0  0  0
  -27.7575   -1.8314   -6.4950 C   0  0  0  0  0  0  0  0  0  0  0  0
  -28.5114   -2.2696   -5.4001 C   0  0  0  0  0  0  0  0  0  0  0  0
  -29.4508   -1.3971   -4.8469 C   0  0  0  0  0  0  0  0  0  0  0  0
  -29.5835   -0.0945   -5.3406 C   0  0  0  0  0  0  0  0  0  0  0  0
  -30.3594    2.0729   -6.8820 C   0  0  0  0  0  0  0  0  0  0  0  0
  -29.0056    1.6451   -6.7844 O   0  0  0  0  0  0  0  0  0  0  0  0
 20 21  1  0  0  0
 21 14  1  0  0  0
 14 15  1  0  0  0
 14 19  2  0  0  0
 15 16  2  0  0  0
 16 17  1  0  0  0
 17 12  1  0  0  0
 17 18  2  0  0  0
 12  1  1  0  0  0
 12 13  1  0  0  0
  1  2  1  0  0  0
  1 11  2  0  0  0
  2  3  2  0  0  0
  3  4  1  0  0  0
  3  5  1  0  0  0
  5  6  2  0  0  0
  6  7  1  0  0  0
  6 11  1  0  0  0
  7  8  1  0  0  0
  8  9  1  0  0  0
  8 10  2  0  0  0
 10 11  1  0  0  0
 18 19  1  0  0  0
M  END
> <minimizedAffinity>
-7.20960

$$$$
