CHEMBL490965


 38 42  0  0  0  0  0  0  0  0999 V2000
  -29.7745   -5.1322   -5.5790 C   0  0  0  0  0  0  0  0  0  0  0  0
  -29.1062   -5.9484   -6.4947 C   0  0  0  0  0  0  0  0  0  0  0  0
  -28.3353   -7.0180   -6.0476 C   0  0  0  0  0  0  0  0  0  0  0  0
  -28.2882   -7.3398   -4.6911 C   0  0  0  0  0  0  0  0  0  0  0  0
  -29.0742   -6.6106   -3.7895 C   0  0  0  0  0  0  0  0  0  0  0  0
  -29.7984   -5.5078   -4.2377 C   0  0  0  0  0  0  0  0  0  0  0  0
  -30.5077   -4.7968   -3.3464 F   0  0  0  0  0  0  0  0  0  0  0  0
  -27.4924   -8.3761   -4.1891 N   0  0  0  0  0  0  0  0  0  0  0  0
  -27.9208   -9.5544   -3.6329 C   0  0  0  0  0  0  0  0  0  0  0  0
  -29.0815   -9.9448   -3.5382 O   0  0  0  0  0  0  0  0  0  0  0  0
  -26.9261  -10.3748   -3.1582 N   0  0  0  0  0  0  0  0  0  0  0  0
  -25.5603  -10.1652   -3.1904 C   0  0  0  0  0  0  0  0  0  0  0  0
  -25.0343   -9.1724   -3.6932 O   0  0  0  0  0  0  0  0  0  0  0  0
  -26.4842   -8.3008   -4.3269 H   0  0  0  0  0  0  0  0  0  0  0  0
  -27.2918  -11.2054   -2.7163 H   0  0  0  0  0  0  0  0  0  0  0  0
  -24.7544  -11.2735   -2.5463 C   0  0  0  0  0  0  0  0  0  0  0  0
  -23.6180  -11.7055   -3.4332 C   0  0  0  0  0  0  0  0  0  0  0  0
  -22.2899  -11.6009   -2.9992 C   0  0  0  0  0  0  0  0  0  0  0  0
  -21.2416  -11.9175   -3.8637 C   0  0  0  0  0  0  0  0  0  0  0  0
  -21.5112  -12.3441   -5.1631 C   0  0  0  0  0  0  0  0  0  0  0  0
  -22.8291  -12.4657   -5.5979 C   0  0  0  0  0  0  0  0  0  0  0  0
  -23.8789  -12.1467   -4.7379 C   0  0  0  0  0  0  0  0  0  0  0  0
  -30.4280   -3.9709   -5.9233 O   0  0  0  0  0  0  0  0  0  0  0  0
  -27.5974   -1.8539   -8.8973 C   0  0  0  0  0  0  0  0  0  0  0  0
  -27.3692   -0.9371   -7.8962 C   0  0  0  0  0  0  0  0  0  0  0  0
  -28.1626   -1.1918   -6.7399 C   0  0  0  0  0  0  0  0  0  0  0  0
  -28.1746   -0.4279   -5.6128 N   0  0  0  0  0  0  0  0  0  0  0  0
  -29.0125   -0.8312   -4.6409 C   0  0  0  0  0  0  0  0  0  0  0  0
  -29.8137   -1.9545   -4.6951 C   0  0  0  0  0  0  0  0  0  0  0  0
  -29.7372   -2.7806   -5.8172 C   0  0  0  0  0  0  0  0  0  0  0  0
  -28.9341   -2.3457   -6.8797 C   0  0  0  0  0  0  0  0  0  0  0  0
  -28.7180   -3.0479   -8.4302 S   0  0  0  0  0  0  0  0  0  0  0  0
  -26.8343   -1.6265  -13.8030 C   0  0  0  0  0  0  0  0  0  0  0  0
  -26.6202   -1.7165  -12.3825 N   0  0  0  0  0  0  0  0  0  0  0  0
  -25.4298   -1.5971  -11.7283 C   0  0  0  0  0  0  0  0  0  0  0  0
  -25.5964   -1.6202  -10.4238 N   0  0  0  0  0  0  0  0  0  0  0  0
  -26.9468   -1.7979  -10.2347 C   0  0  0  0  0  0  0  0  0  0  0  0
  -27.5975   -1.8858  -11.4456 C   0  0  0  0  0  0  0  0  0  0  0  0
 33 34  1  0  0  0
 34 35  1  0  0  0
 34 38  1  0  0  0
 35 36  2  0  0  0
 36 37  1  0  0  0
 37 24  1  0  0  0
 37 38  2  0  0  0
 24 25  2  0  0  0
 24 32  1  0  0  0
 25 26  1  0  0  0
 26 27  1  0  0  0
 26 31  2  0  0  0
 27 28  2  0  0  0
 28 29  1  0  0  0
 29 30  2  0  0  0
 30 23  1  0  0  0
 30 31  1  0  0  0
 23  1  1  0  0  0
  1  2  1  0  0  0
  1  6  2  0  0  0
  2  3  2  0  0  0
  3  4  1  0  0  0
  4  8  1  0  0  0
  4  5  2  0  0  0
  8  9  1  0  0  0
  8 14  1  0  0  0
  9 10  2  0  0  0
  9 11  1  0  0  0
 11 12  1  0  0  0
 11 15  1  0  0  0
 12 13  2  0  0  0
 12 16  1  0  0  0
 16 17  1  0  0  0
 17 18  1  0  0  0
 17 22  2  0  0  0
 18 19  2  0  0  0
 19 20  1  0  0  0
 20 21  2  0  0  0
 21 22  1  0  0  0
  5  6  1  0  0  0
  6  7  1  0  0  0
 31 32  1  0  0  0
M  END
> <minimizedAffinity>
-9.61642

$$$$
