CHEMBL3703195


 37 40  0  0  0  0  0  0  0  0999 V2000
  -28.1284   -8.2524   -5.7578 C   0  0  0  0  0  0  0  0  0  0  0  0
  -27.7185   -9.2555   -4.8721 C   0  0  0  0  0  0  0  0  0  0  0  0
  -27.1850  -10.4614   -5.3390 C   0  0  0  0  0  0  0  0  0  0  0  0
  -27.0607  -10.6877   -6.7067 C   0  0  0  0  0  0  0  0  0  0  0  0
  -27.5641   -9.7277   -7.5918 C   0  0  0  0  0  0  0  0  0  0  0  0
  -27.5231   -9.9156   -8.9193 F   0  0  0  0  0  0  0  0  0  0  0  0
  -28.0844   -8.5177   -7.1290 C   0  0  0  0  0  0  0  0  0  0  0  0
  -29.8701   -6.4940   -5.4117 C   0  0  0  0  0  0  0  0  0  0  0  0
  -30.8384   -7.1356   -5.8251 O   0  0  0  0  0  0  0  0  0  0  0  0
  -28.5719   -6.9741   -5.3322 N   0  0  0  0  0  0  0  0  0  0  0  0
  -27.8878   -6.4089   -4.8231 H   0  0  0  0  0  0  0  0  0  0  0  0
  -31.7563   -5.4330   -2.9083 C   0  0  0  0  0  0  0  0  0  0  0  0
  -30.7890   -4.6860   -3.7819 C   0  0  0  0  0  0  0  0  0  0  0  0
  -30.0843   -5.1372   -4.8486 C   0  0  0  0  0  0  0  0  0  0  0  0
  -29.5080   -3.9150   -5.4561 C   0  0  0  0  0  0  0  0  0  0  0  0
  -28.7914   -3.9346   -6.4507 O   0  0  0  0  0  0  0  0  0  0  0  0
  -29.9097   -2.8281   -4.6841 N   0  0  0  0  0  0  0  0  0  0  0  0
  -30.5314   -3.3201   -3.5333 N   0  0  0  0  0  0  0  0  0  0  0  0
  -31.3834   -2.4524   -2.7284 C   0  0  0  0  0  0  0  0  0  0  0  0
  -29.3812   -1.5410   -4.8708 C   0  0  0  0  0  0  0  0  0  0  0  0
  -30.2182   -0.5900   -5.4706 C   0  0  0  0  0  0  0  0  0  0  0  0
  -29.7716    0.7058   -5.7177 C   0  0  0  0  0  0  0  0  0  0  0  0
  -28.4623    1.0535   -5.4003 C   0  0  0  0  0  0  0  0  0  0  0  0
  -27.6091    0.1047   -4.8310 C   0  0  0  0  0  0  0  0  0  0  0  0
  -28.0688   -1.1899   -4.5502 C   0  0  0  0  0  0  0  0  0  0  0  0
  -26.4847  -11.8887   -7.0583 O   0  0  0  0  0  0  0  0  0  0  0  0
  -25.1668  -11.9373   -7.4474 C   0  0  0  0  0  0  0  0  0  0  0  0
  -24.7333  -12.3883   -8.6924 C   0  0  0  0  0  0  0  0  0  0  0  0
  -23.3749  -12.4635   -8.9316 C   0  0  0  0  0  0  0  0  0  0  0  0
  -22.4354  -12.0532   -8.0528 N   0  0  0  0  0  0  0  0  0  0  0  0
  -22.8927  -11.5486   -6.8726 C   0  0  0  0  0  0  0  0  0  0  0  0
  -24.2369  -11.4682   -6.5304 C   0  0  0  0  0  0  0  0  0  0  0  0
  -21.8560  -11.0699   -5.9051 C   0  0  0  0  0  0  0  0  0  0  0  0
  -20.7906  -10.4112   -6.4593 N   0  0  0  0  0  0  0  0  0  0  0  0
  -21.9401  -11.2486   -4.6976 O   0  0  0  0  0  0  0  0  0  0  0  0
  -20.7474  -10.2921   -7.4679 H   0  0  0  0  0  0  0  0  0  0  0  0
  -20.0510  -10.0744   -5.8691 H   0  0  0  0  0  0  0  0  0  0  0  0
 12 13  1  0  0  0
 13 14  2  0  0  0
 13 18  1  0  0  0
 14  8  1  0  0  0
 14 15  1  0  0  0
  8  9  2  0  0  0
  8 10  1  0  0  0
 10  1  1  0  0  0
 10 11  1  0  0  0
  1  2  1  0  0  0
  1  7  2  0  0  0
  2  3  2  0  0  0
  3  4  1  0  0  0
  4 26  1  0  0  0
  4  5  2  0  0  0
 26 27  1  0  0  0
 27 28  1  0  0  0
 27 32  2  0  0  0
 28 29  2  0  0  0
 29 30  1  0  0  0
 30 31  2  0  0  0
 31 33  1  0  0  0
 31 32  1  0  0  0
 33 34  1  0  0  0
 33 35  2  0  0  0
 34 36  1  0  0  0
 34 37  1  0  0  0
  5  6  1  0  0  0
  5  7  1  0  0  0
 15 16  2  0  0  0
 15 17  1  0  0  0
 17 20  1  0  0  0
 17 18  1  0  0  0
 20 21  1  0  0  0
 20 25  2  0  0  0
 21 22  2  0  0  0
 22 23  1  0  0  0
 23 24  2  0  0  0
 24 25  1  0  0  0
 18 19  1  0  0  0
M  END
> <minimizedAffinity>
-7.96954

$$$$
