CHEMBL1242573


 26 29  0  0  0  0  0  0  0  0999 V2000
  -13.4341    1.3668  -13.9293 N   0  0  0  0  0  0  0  0  0  0  0  0
  -13.5690    0.2056  -13.2548 N   0  0  0  0  0  0  0  0  0  0  0  0
  -14.7812   -0.2553  -13.6120 C   0  0  0  0  0  0  0  0  0  0  0  0
  -15.4388    0.6572  -14.4999 C   0  0  0  0  0  0  0  0  0  0  0  0
  -16.6676    0.7874  -15.1661 C   0  0  0  0  0  0  0  0  0  0  0  0
  -17.7371   -0.0909  -15.0659 N   0  0  0  0  0  0  0  0  0  0  0  0
  -16.8624    1.8556  -15.9663 N   0  0  0  0  0  0  0  0  0  0  0  0
  -15.8809    2.7674  -16.0735 C   0  0  0  0  0  0  0  0  0  0  0  0
  -14.6838    2.7708  -15.4665 N   0  0  0  0  0  0  0  0  0  0  0  0
  -14.5248    1.6799  -14.6932 C   0  0  0  0  0  0  0  0  0  0  0  0
  -17.8594   -0.5212  -14.1580 H   0  0  0  0  0  0  0  0  0  0  0  0
  -18.5759    0.3173  -15.4659 H   0  0  0  0  0  0  0  0  0  0  0  0
  -15.2513   -1.5371  -13.0720 C   0  0  0  0  0  0  0  0  0  0  0  0
  -15.6375   -1.6490  -11.7316 C   0  0  0  0  0  0  0  0  0  0  0  0
  -16.0353   -2.8740  -11.1968 C   0  0  0  0  0  0  0  0  0  0  0  0
  -16.3312   -2.9574   -9.8929 F   0  0  0  0  0  0  0  0  0  0  0  0
  -16.1315   -3.9933  -12.0272 C   0  0  0  0  0  0  0  0  0  0  0  0
  -16.5233   -5.3361  -11.8829 C   0  0  0  0  0  0  0  0  0  0  0  0
  -16.4579   -6.0167  -13.0309 N   0  0  0  0  0  0  0  0  0  0  0  0
  -16.0216   -5.1002  -13.9154 N   0  0  0  0  0  0  0  0  0  0  0  0
  -15.7944   -3.8641  -13.3683 C   0  0  0  0  0  0  0  0  0  0  0  0
  -15.3380   -2.6598  -13.9218 C   0  0  0  0  0  0  0  0  0  0  0  0
  -15.9091   -5.3802  -14.8823 H   0  0  0  0  0  0  0  0  0  0  0  0
  -12.1923    2.7986  -12.3538 C   0  0  0  0  0  0  0  0  0  0  0  0
  -12.2285    2.1693  -13.7486 C   0  0  0  0  0  0  0  0  0  0  0  0
  -10.9632    1.3558  -14.0137 C   0  0  0  0  0  0  0  0  0  0  0  0
 24 25  1  0  0  0
 25 26  1  0  0  0
 25  1  1  0  0  0
  1  2  1  0  0  0
  1 10  1  0  0  0
  2  3  2  0  0  0
  3 13  1  0  0  0
  3  4  1  0  0  0
 13 14  1  0  0  0
 13 22  2  0  0  0
 14 15  2  0  0  0
 15 16  1  0  0  0
 15 17  1  0  0  0
 17 18  1  0  0  0
 17 21  2  0  0  0
 18 19  2  0  0  0
 19 20  1  0  0  0
 20 21  1  0  0  0
 20 23  1  0  0  0
 21 22  1  0  0  0
  4  5  1  0  0  0
  4 10  2  0  0  0
  5  6  1  0  0  0
  5  7  2  0  0  0
  6 11  1  0  0  0
  6 12  1  0  0  0
  7  8  1  0  0  0
  8  9  2  0  0  0
  9 10  1  0  0  0
M  END
> <minimizedAffinity>
-7.16863

$$$$
