CHEMBL427325


 28 31  0  0  0  0  0  0  0  0999 V2000
  -27.1742   -2.1093   -9.4890 C   0  0  0  0  0  0  0  0  0  0  0  0
  -27.9178   -3.2256   -9.1560 C   0  0  0  0  0  0  0  0  0  0  0  0
  -28.4764   -2.9777   -7.8761 C   0  0  0  0  0  0  0  0  0  0  0  0
  -29.3368   -3.6242   -6.9876 C   0  0  0  0  0  0  0  0  0  0  0  0
  -29.6369   -3.0122   -5.8253 N   0  0  0  0  0  0  0  0  0  0  0  0
  -29.1075   -1.8022   -5.5703 C   0  0  0  0  0  0  0  0  0  0  0  0
  -28.2765   -1.0912   -6.3422 N   0  0  0  0  0  0  0  0  0  0  0  0
  -28.0029   -1.7356   -7.4827 C   0  0  0  0  0  0  0  0  0  0  0  0
  -27.2051   -1.2157   -8.4567 O   0  0  0  0  0  0  0  0  0  0  0  0
  -24.9733   -1.1309  -13.0267 C   0  0  0  0  0  0  0  0  0  0  0  0
  -24.3954   -0.9764  -11.7689 C   0  0  0  0  0  0  0  0  0  0  0  0
  -25.1371   -1.2524  -10.6154 C   0  0  0  0  0  0  0  0  0  0  0  0
  -26.4656   -1.6952  -10.6955 C   0  0  0  0  0  0  0  0  0  0  0  0
  -27.0517   -1.7993  -11.9624 C   0  0  0  0  0  0  0  0  0  0  0  0
  -26.3092   -1.5240  -13.1159 C   0  0  0  0  0  0  0  0  0  0  0  0
  -23.2303   -0.0559  -14.2279 C   0  0  0  0  0  0  0  0  0  0  0  0
  -24.3451   -0.9395  -14.2254 O   0  0  0  0  0  0  0  0  0  0  0  0
  -29.8681   -4.8781   -7.3313 N   0  0  0  0  0  0  0  0  0  0  0  0
  -29.3147   -6.0919   -6.9852 C   0  0  0  0  0  0  0  0  0  0  0  0
  -28.3116   -6.2714   -6.3035 O   0  0  0  0  0  0  0  0  0  0  0  0
  -30.7492   -4.8651   -7.8184 H   0  0  0  0  0  0  0  0  0  0  0  0
  -30.0394   -7.3003   -7.4789 C   0  0  0  0  0  0  0  0  0  0  0  0
  -29.4174   -8.3008   -8.2445 C   0  0  0  0  0  0  0  0  0  0  0  0
  -30.1417   -9.4271   -8.6512 C   0  0  0  0  0  0  0  0  0  0  0  0
  -31.4809   -9.5624   -8.2874 C   0  0  0  0  0  0  0  0  0  0  0  0
  -32.0875   -8.5742   -7.5209 C   0  0  0  0  0  0  0  0  0  0  0  0
  -33.3707   -8.7139   -7.1652 F   0  0  0  0  0  0  0  0  0  0  0  0
  -31.3826   -7.4492   -7.1139 C   0  0  0  0  0  0  0  0  0  0  0  0
 16 17  1  0  0  0
 17 10  1  0  0  0
 10 11  1  0  0  0
 10 15  2  0  0  0
 11 12  2  0  0  0
 12 13  1  0  0  0
 13  1  1  0  0  0
 13 14  2  0  0  0
  1  2  2  0  0  0
  1  9  1  0  0  0
  2  3  1  0  0  0
  3  4  1  0  0  0
  3  8  2  0  0  0
  4 18  1  0  0  0
  4  5  2  0  0  0
 18 19  1  0  0  0
 18 21  1  0  0  0
 19 20  2  0  0  0
 19 22  1  0  0  0
 22 23  1  0  0  0
 22 28  2  0  0  0
 23 24  2  0  0  0
 24 25  1  0  0  0
 25 26  2  0  0  0
 26 27  1  0  0  0
 26 28  1  0  0  0
  5  6  1  0  0  0
  6  7  2  0  0  0
  7  8  1  0  0  0
  8  9  1  0  0  0
 14 15  1  0  0  0
M  END
> <minimizedAffinity>
-9.47536

$$$$
