CHEMBL4226907


 33 36  0  0  0  0  0  0  0  0999 V2000
  -12.9759   -1.5364  -13.0387 O   0  0  0  0  0  0  0  0  0  0  0  0
  -14.0624   -1.3371  -13.5807 C   0  0  0  0  0  0  0  0  0  0  0  0
  -14.8508   -2.3522  -14.1053 N   0  0  0  0  0  0  0  0  0  0  0  0
  -14.5898   -0.0565  -13.7089 N   0  0  0  0  0  0  0  0  0  0  0  0
  -13.7794    1.0923  -13.3146 C   0  0  0  0  0  0  0  0  0  0  0  0
  -13.6617    2.0622  -14.4862 C   0  0  0  0  0  0  0  0  0  0  0  0
  -14.9932    2.3131  -15.1495 C   0  0  0  0  0  0  0  0  0  0  0  0
  -15.0465    3.3580  -16.0000 N   0  0  0  0  0  0  0  0  0  0  0  0
  -16.2083    3.5429  -16.6347 C   0  0  0  0  0  0  0  0  0  0  0  0
  -17.3110    2.8028  -16.4841 N   0  0  0  0  0  0  0  0  0  0  0  0
  -17.2408    1.7643  -15.6297 C   0  0  0  0  0  0  0  0  0  0  0  0
  -16.0740    1.4628  -14.9388 C   0  0  0  0  0  0  0  0  0  0  0  0
  -15.9747    0.2747  -14.0278 C   0  0  0  0  0  0  0  0  0  0  0  0
  -15.4470   -2.1340  -14.8912 H   0  0  0  0  0  0  0  0  0  0  0  0
  -14.4237   -3.6474  -14.0037 N   0  0  0  0  0  0  0  0  0  0  0  0
  -14.8988   -4.3273  -13.0072 C   0  0  0  0  0  0  0  0  0  0  0  0
  -14.5244   -5.7479  -12.8136 C   0  0  0  0  0  0  0  0  0  0  0  0
  -14.6987   -6.6367  -13.8883 C   0  0  0  0  0  0  0  0  0  0  0  0
  -14.3433   -7.9792  -13.7587 C   0  0  0  0  0  0  0  0  0  0  0  0
  -13.8176   -8.4329  -12.5563 C   0  0  0  0  0  0  0  0  0  0  0  0
  -13.4701   -9.7198  -12.4337 F   0  0  0  0  0  0  0  0  0  0  0  0
  -13.6455   -7.5732  -11.4786 C   0  0  0  0  0  0  0  0  0  0  0  0
  -14.0009   -6.2252  -11.6030 C   0  0  0  0  0  0  0  0  0  0  0  0
  -13.7613   -5.2144  -10.2227 Cl  0  0  0  0  0  0  0  0  0  0  0  0
  -18.4004    0.9802  -15.4102 N   0  0  0  0  0  0  0  0  0  0  0  0
  -18.1369    0.1454  -14.8918 H   0  0  0  0  0  0  0  0  0  0  0  0
  -19.6520    1.4891  -14.9883 C   0  0  0  0  0  0  0  0  0  0  0  0
  -19.8043    2.8545  -14.7183 C   0  0  0  0  0  0  0  0  0  0  0  0
  -21.0238    3.3580  -14.2518 C   0  0  0  0  0  0  0  0  0  0  0  0
  -22.0940    2.4940  -14.0201 C   0  0  0  0  0  0  0  0  0  0  0  0
  -21.9355    1.1318  -14.2417 C   0  0  0  0  0  0  0  0  0  0  0  0
  -23.3668   -0.0545  -13.8962 Br  0  0  0  0  0  0  0  0  0  0  0  0
  -20.7239    0.6284  -14.7094 C   0  0  0  0  0  0  0  0  0  0  0  0
  1  2  2  0  0  0
  2  3  1  0  0  0
  2  4  1  0  0  0
  3 15  1  0  0  0
  3 14  1  0  0  0
 15 16  2  0  0  0
 16 17  1  0  0  0
 17 18  1  0  0  0
 17 23  2  0  0  0
 18 19  2  0  0  0
 19 20  1  0  0  0
 20 21  1  0  0  0
 20 22  2  0  0  0
 22 23  1  0  0  0
 23 24  1  0  0  0
  4  5  1  0  0  0
  4 13  1  0  0  0
  5  6  1  0  0  0
  6  7  1  0  0  0
  7  8  1  0  0  0
  7 12  2  0  0  0
  8  9  2  0  0  0
  9 10  1  0  0  0
 10 11  2  0  0  0
 11 25  1  0  0  0
 11 12  1  0  0  0
 25 27  1  0  0  0
 25 26  1  0  0  0
 27 28  1  0  0  0
 27 33  2  0  0  0
 28 29  2  0  0  0
 29 30  1  0  0  0
 30 31  2  0  0  0
 31 32  1  0  0  0
 31 33  1  0  0  0
 12 13  1  0  0  0
M  END
> <minimizedAffinity>
-9.60330

$$$$
