CHEMBL3297900


 23 25  0  0  0  0  0  0  0  0999 V2000
  -29.3198   -4.9921   -5.1046 N   0  0  0  0  0  0  0  0  0  0  0  0
  -29.0733   -6.3862   -5.2641 C   0  0  0  0  0  0  0  0  0  0  0  0
  -27.9247   -6.9247   -4.7542 N   0  0  0  0  0  0  0  0  0  0  0  0
  -27.6569   -8.2421   -4.8508 C   0  0  0  0  0  0  0  0  0  0  0  0
  -26.3888   -8.7193   -4.2094 C   0  0  0  0  0  0  0  0  0  0  0  0
  -28.4271   -9.1621   -5.4439 N   0  0  0  0  0  0  0  0  0  0  0  0
  -29.5541   -8.6299   -5.9303 C   0  0  0  0  0  0  0  0  0  0  0  0
  -30.5015   -9.3783   -6.5663 O   0  0  0  0  0  0  0  0  0  0  0  0
  -31.5237   -8.5433   -6.8981 C   0  0  0  0  0  0  0  0  0  0  0  0
  -32.6820   -9.1207   -7.6045 C   0  0  0  0  0  0  0  0  0  0  0  0
  -31.2445   -7.2679   -6.4800 C   0  0  0  0  0  0  0  0  0  0  0  0
  -29.9537   -7.2988   -5.8787 C   0  0  0  0  0  0  0  0  0  0  0  0
  -28.8097   -4.0245   -6.0048 C   0  0  0  0  0  0  0  0  0  0  0  0
  -28.2953   -2.7892   -5.5767 C   0  0  0  0  0  0  0  0  0  0  0  0
  -27.7544   -1.8555   -6.4780 C   0  0  0  0  0  0  0  0  0  0  0  0
  -27.7124   -2.1355   -7.8401 C   0  0  0  0  0  0  0  0  0  0  0  0
  -28.2033   -3.3572   -8.2860 C   0  0  0  0  0  0  0  0  0  0  0  0
  -28.7476   -4.2785   -7.3842 C   0  0  0  0  0  0  0  0  0  0  0  0
  -27.2278   -1.3200   -8.8229 O   0  0  0  0  0  0  0  0  0  0  0  0
  -26.9886   -1.9134  -10.0914 C   0  0  0  0  0  0  0  0  0  0  0  0
  -29.6967   -4.5741   -3.7411 C   0  0  0  0  0  0  0  0  0  0  0  0
  -32.0779   -5.3175   -3.2559 C   0  0  0  0  0  0  0  0  0  0  0  0
  -31.1587   -4.1497   -3.5788 C   0  0  0  0  0  0  0  0  0  0  0  0
 22 23  1  0  0  0
 23 21  1  0  0  0
 21  1  1  0  0  0
  1 13  1  0  0  0
  1  2  1  0  0  0
 13 14  1  0  0  0
 13 18  2  0  0  0
 14 15  2  0  0  0
 15 16  1  0  0  0
 16 19  1  0  0  0
 16 17  2  0  0  0
 19 20  1  0  0  0
 17 18  1  0  0  0
  2  3  1  0  0  0
  2 12  2  0  0  0
  3  4  2  0  0  0
  4  5  1  0  0  0
  4  6  1  0  0  0
  6  7  2  0  0  0
  7  8  1  0  0  0
  7 12  1  0  0  0
  8  9  1  0  0  0
  9 10  1  0  0  0
  9 11  2  0  0  0
 11 12  1  0  0  0
M  END
> <minimizedAffinity>
-7.30585

$$$$
