CHEMBL271381


 33 36  0  0  0  0  0  0  0  0999 V2000
  -23.2879    0.2462  -13.3713 C   0  0  0  0  0  0  0  0  0  0  0  0
  -22.2701   -0.4850  -13.9842 C   0  0  0  0  0  0  0  0  0  0  0  0
  -21.2680    0.1335  -14.7352 C   0  0  0  0  0  0  0  0  0  0  0  0
  -21.1937    1.5233  -14.8314 C   0  0  0  0  0  0  0  0  0  0  0  0
  -22.1398    2.2821  -14.1449 C   0  0  0  0  0  0  0  0  0  0  0  0
  -23.1845    1.6484  -13.4355 C   0  0  0  0  0  0  0  0  0  0  0  0
  -26.4983   -1.7599  -11.2181 C   0  0  0  0  0  0  0  0  0  0  0  0
  -25.4507   -1.1326  -10.5469 C   0  0  0  0  0  0  0  0  0  0  0  0
  -24.4218   -0.4989  -11.2531 C   0  0  0  0  0  0  0  0  0  0  0  0
  -24.3977   -0.4300  -12.6678 C   0  0  0  0  0  0  0  0  0  0  0  0
  -25.4876   -1.0450  -13.3639 C   0  0  0  0  0  0  0  0  0  0  0  0
  -25.9493   -1.2436  -14.7117 C   0  0  0  0  0  0  0  0  0  0  0  0
  -25.3582   -0.8141  -15.8420 N   0  0  0  0  0  0  0  0  0  0  0  0
  -27.0834   -1.9427  -14.7498 N   0  0  0  0  0  0  0  0  0  0  0  0
  -27.4192   -2.1931  -13.4481 O   0  0  0  0  0  0  0  0  0  0  0  0
  -26.4758   -1.6799  -12.6129 C   0  0  0  0  0  0  0  0  0  0  0  0
  -24.7427   -0.0090  -15.8480 H   0  0  0  0  0  0  0  0  0  0  0  0
  -25.8640   -0.9426  -16.7122 H   0  0  0  0  0  0  0  0  0  0  0  0
  -27.5651   -1.7904   -9.0997 C   0  0  0  0  0  0  0  0  0  0  0  0
  -27.4774   -2.3233  -10.4182 O   0  0  0  0  0  0  0  0  0  0  0  0
  -20.1735    2.1848  -15.5592 N   0  0  0  0  0  0  0  0  0  0  0  0
  -18.8170    2.0560  -15.3218 C   0  0  0  0  0  0  0  0  0  0  0  0
  -18.3157    1.2260  -14.5673 O   0  0  0  0  0  0  0  0  0  0  0  0
  -18.0727    3.0090  -16.0055 N   0  0  0  0  0  0  0  0  0  0  0  0
  -20.4372    2.6369  -16.4230 H   0  0  0  0  0  0  0  0  0  0  0  0
  -18.5459    3.8940  -16.1219 H   0  0  0  0  0  0  0  0  0  0  0  0
  -16.6656    3.0637  -15.8424 C   0  0  0  0  0  0  0  0  0  0  0  0
  -15.9739    4.2819  -15.8793 C   0  0  0  0  0  0  0  0  0  0  0  0
  -14.5797    4.3095  -15.8278 C   0  0  0  0  0  0  0  0  0  0  0  0
  -13.8669    3.1162  -15.7448 C   0  0  0  0  0  0  0  0  0  0  0  0
  -14.5573    1.9057  -15.6810 C   0  0  0  0  0  0  0  0  0  0  0  0
  -13.5848    0.2837  -15.6314 Br  0  0  0  0  0  0  0  0  0  0  0  0
  -15.9538    1.8723  -15.6996 C   0  0  0  0  0  0  0  0  0  0  0  0
 19 20  1  0  0  0
 20  7  1  0  0  0
  7  8  1  0  0  0
  7 16  2  0  0  0
  8  9  2  0  0  0
  9 10  1  0  0  0
 10  1  1  0  0  0
 10 11  2  0  0  0
  1  2  1  0  0  0
  1  6  2  0  0  0
  2  3  2  0  0  0
  3  4  1  0  0  0
  4 21  1  0  0  0
  4  5  2  0  0  0
 21 22  1  0  0  0
 21 25  1  0  0  0
 22 23  2  0  0  0
 22 24  1  0  0  0
 24 27  1  0  0  0
 24 26  1  0  0  0
 27 28  1  0  0  0
 27 33  2  0  0  0
 28 29  2  0  0  0
 29 30  1  0  0  0
 30 31  2  0  0  0
 31 32  1  0  0  0
 31 33  1  0  0  0
  5  6  1  0  0  0
 11 12  1  0  0  0
 11 16  1  0  0  0
 12 13  1  0  0  0
 12 14  2  0  0  0
 13 17  1  0  0  0
 13 18  1  0  0  0
 14 15  1  0  0  0
 15 16  1  0  0  0
M  END
> <minimizedAffinity>
-9.15075

$$$$
