CHEMBL3780536


 27 30  0  0  0  0  0  0  0  0999 V2000
  -14.9513   -0.2895  -13.2891 C   0  0  0  0  0  0  0  0  0  0  0  0
  -15.9586    0.2493  -12.5667 N   0  0  0  0  0  0  0  0  0  0  0  0
  -16.8305    1.1288  -13.1444 N   0  0  0  0  0  0  0  0  0  0  0  0
  -16.7370    1.4419  -14.4540 C   0  0  0  0  0  0  0  0  0  0  0  0
  -15.6872    0.9243  -15.2444 C   0  0  0  0  0  0  0  0  0  0  0  0
  -15.5264    1.2443  -16.6148 C   0  0  0  0  0  0  0  0  0  0  0  0
  -14.4477    0.7651  -17.3577 C   0  0  0  0  0  0  0  0  0  0  0  0
  -13.4971   -0.0391  -16.7464 C   0  0  0  0  0  0  0  0  0  0  0  0
  -13.6438   -0.3886  -15.4036 C   0  0  0  0  0  0  0  0  0  0  0  0
  -14.7411    0.0667  -14.6320 C   0  0  0  0  0  0  0  0  0  0  0  0
  -17.7270    2.2685  -15.0508 N   0  0  0  0  0  0  0  0  0  0  0  0
  -17.4709    2.4407  -16.0162 H   0  0  0  0  0  0  0  0  0  0  0  0
  -19.1218    2.1658  -14.8583 C   0  0  0  0  0  0  0  0  0  0  0  0
  -19.7843    0.9371  -14.9842 C   0  0  0  0  0  0  0  0  0  0  0  0
  -21.1486    0.8210  -14.7047 C   0  0  0  0  0  0  0  0  0  0  0  0
  -21.8705    1.9354  -14.2900 C   0  0  0  0  0  0  0  0  0  0  0  0
  -21.2269    3.1632  -14.1491 C   0  0  0  0  0  0  0  0  0  0  0  0
  -19.8583    3.2740  -14.4189 C   0  0  0  0  0  0  0  0  0  0  0  0
  -14.1648   -1.3678  -12.5764 C   0  0  0  0  0  0  0  0  0  0  0  0
  -15.7090   -5.4017  -12.9596 C   0  0  0  0  0  0  0  0  0  0  0  0
  -16.3739   -4.4802  -12.1541 C   0  0  0  0  0  0  0  0  0  0  0  0
  -15.8716   -3.1797  -11.9976 C   0  0  0  0  0  0  0  0  0  0  0  0
  -14.6882   -2.7859  -12.6344 C   0  0  0  0  0  0  0  0  0  0  0  0
  -14.0355   -3.7180  -13.4583 C   0  0  0  0  0  0  0  0  0  0  0  0
  -14.5401   -5.0114  -13.6139 C   0  0  0  0  0  0  0  0  0  0  0  0
  -15.0852   -7.5954  -13.6248 C   0  0  0  0  0  0  0  0  0  0  0  0
  -16.0969   -6.6914  -13.2021 O   0  0  0  0  0  0  0  0  0  0  0  0
 26 27  1  0  0  0
 27 20  1  0  0  0
 20 21  1  0  0  0
 20 25  2  0  0  0
 21 22  2  0  0  0
 22 23  1  0  0  0
 23 19  1  0  0  0
 23 24  2  0  0  0
 19  1  1  0  0  0
  1  2  1  0  0  0
  1 10  2  0  0  0
  2  3  2  0  0  0
  3  4  1  0  0  0
  4 11  1  0  0  0
  4  5  2  0  0  0
 11 13  1  0  0  0
 11 12  1  0  0  0
 13 14  1  0  0  0
 13 18  2  0  0  0
 14 15  2  0  0  0
 15 16  1  0  0  0
 16 17  2  0  0  0
 17 18  1  0  0  0
  5  6  1  0  0  0
  5 10  1  0  0  0
  6  7  2  0  0  0
  7  8  1  0  0  0
  8  9  2  0  0  0
  9 10  1  0  0  0
 24 25  1  0  0  0
M  END
> <minimizedAffinity>
-8.16376

$$$$
