CHEMBL2113186


 39 43  0  0  0  0  0  0  0  0999 V2000
  -23.5674   -0.8353  -13.4105 C   0  0  0  0  0  0  0  0  0  0  0  0
  -24.6830   -1.0492  -14.1146 C   0  0  0  0  0  0  0  0  0  0  0  0
  -25.9467   -1.5043  -13.5157 C   0  0  0  0  0  0  0  0  0  0  0  0
  -26.9304   -1.6826  -14.2262 O   0  0  0  0  0  0  0  0  0  0  0  0
  -25.9732   -1.7418  -12.0502 C   0  0  0  0  0  0  0  0  0  0  0  0
  -24.8601   -1.5327  -11.3285 C   0  0  0  0  0  0  0  0  0  0  0  0
  -23.5843   -1.1451  -11.9433 C   0  0  0  0  0  0  0  0  0  0  0  0
  -22.5562   -1.0736  -11.2735 O   0  0  0  0  0  0  0  0  0  0  0  0
  -22.3704   -0.3507  -13.9140 N   0  0  0  0  0  0  0  0  0  0  0  0
  -21.5756   -0.8014  -13.4545 H   0  0  0  0  0  0  0  0  0  0  0  0
  -18.2506    2.5581  -14.8255 C   0  0  0  0  0  0  0  0  0  0  0  0
  -19.3745    3.3737  -14.5534 C   0  0  0  0  0  0  0  0  0  0  0  0
  -20.6529    2.8846  -14.3076 C   0  0  0  0  0  0  0  0  0  0  0  0
  -21.6713    3.7362  -14.1270 N   0  0  0  0  0  0  0  0  0  0  0  0
  -22.8807    3.1996  -13.9234 C   0  0  0  0  0  0  0  0  0  0  0  0
  -23.1551    1.8960  -13.8504 N   0  0  0  0  0  0  0  0  0  0  0  0
  -22.1247    1.0505  -14.0132 C   0  0  0  0  0  0  0  0  0  0  0  0
  -20.8208    1.5007  -14.2797 C   0  0  0  0  0  0  0  0  0  0  0  0
  -19.7127    0.6677  -14.5474 C   0  0  0  0  0  0  0  0  0  0  0  0
  -18.4269    1.1686  -14.8225 C   0  0  0  0  0  0  0  0  0  0  0  0
  -17.6024    0.1441  -15.1841 O   0  0  0  0  0  0  0  0  0  0  0  0
  -16.3788   -0.1096  -14.5200 C   0  0  0  0  0  0  0  0  0  0  0  0
  -17.1544    3.3378  -15.1045 O   0  0  0  0  0  0  0  0  0  0  0  0
  -16.6513    3.3274  -16.4210 C   0  0  0  0  0  0  0  0  0  0  0  0
  -15.6317    4.4226  -16.7075 C   0  0  0  0  0  0  0  0  0  0  0  0
  -13.5634    4.7290  -15.5748 C   0  0  0  0  0  0  0  0  0  0  0  0
  -14.9698    4.6559  -15.4615 O   0  0  0  0  0  0  0  0  0  0  0  0
  -27.2002   -2.1377  -11.5225 O   0  0  0  0  0  0  0  0  0  0  0  0
  -27.3918   -2.0693  -10.1665 C   0  0  0  0  0  0  0  0  0  0  0  0
  -27.5747   -3.2658   -9.4767 C   0  0  0  0  0  0  0  0  0  0  0  0
  -27.8631   -3.2457   -8.1076 C   0  0  0  0  0  0  0  0  0  0  0  0
  -27.9700   -2.0205   -7.4281 C   0  0  0  0  0  0  0  0  0  0  0  0
  -27.7068   -0.8295   -8.1170 C   0  0  0  0  0  0  0  0  0  0  0  0
  -27.3913   -0.8568   -9.4730 C   0  0  0  0  0  0  0  0  0  0  0  0
  -28.3582   -1.9823   -6.0578 N   0  0  0  0  0  0  0  0  0  0  0  0
  -27.6140   -1.5401   -4.9798 C   0  0  0  0  0  0  0  0  0  0  0  0
  -28.4094   -1.7246   -3.8751 C   0  0  0  0  0  0  0  0  0  0  0  0
  -29.6077   -2.2655   -4.2147 N   0  0  0  0  0  0  0  0  0  0  0  0
  -29.5551   -2.4114   -5.5189 C   0  0  0  0  0  0  0  0  0  0  0  0
 26 27  1  0  0  0
 27 25  1  0  0  0
 25 24  1  0  0  0
 24 23  1  0  0  0
 23 11  1  0  0  0
 11 12  1  0  0  0
 11 20  2  0  0  0
 12 13  2  0  0  0
 13 14  1  0  0  0
 13 18  1  0  0  0
 14 15  2  0  0  0
 15 16  1  0  0  0
 16 17  2  0  0  0
 17  9  1  0  0  0
 17 18  1  0  0  0
  9  1  1  0  0  0
  9 10  1  0  0  0
  1  2  2  0  0  0
  1  7  1  0  0  0
  2  3  1  0  0  0
  3  4  2  0  0  0
  3  5  1  0  0  0
  5 28  1  0  0  0
  5  6  2  0  0  0
 28 29  1  0  0  0
 29 30  1  0  0  0
 29 34  2  0  0  0
 30 31  2  0  0  0
 31 32  1  0  0  0
 32 35  1  0  0  0
 32 33  2  0  0  0
 35 36  1  0  0  0
 35 39  1  0  0  0
 36 37  2  0  0  0
 37 38  1  0  0  0
 38 39  2  0  0  0
 33 34  1  0  0  0
  6  7  1  0  0  0
  7  8  2  0  0  0
 18 19  2  0  0  0
 19 20  1  0  0  0
 20 21  1  0  0  0
 21 22  1  0  0  0
M  END
> <minimizedAffinity>
-8.37563

$$$$
