CHEMBL2016916


 34 38  0  0  0  0  0  0  0  0999 V2000
  -27.6315   -2.2758   -9.2789 C   0  0  0  0  0  0  0  0  0  0  0  0
  -28.0528   -2.2207  -10.5325 N   0  0  0  0  0  0  0  0  0  0  0  0
  -26.9906   -1.7925  -11.2609 C   0  0  0  0  0  0  0  0  0  0  0  0
  -25.8907   -1.5769  -10.4802 C   0  0  0  0  0  0  0  0  0  0  0  0
  -26.3039   -1.8778   -9.2042 N   0  0  0  0  0  0  0  0  0  0  0  0
  -24.5697   -1.0882  -10.9319 C   0  0  0  0  0  0  0  0  0  0  0  0
  -24.5172   -0.9804  -12.4125 N   0  0  0  0  0  0  0  0  0  0  0  0
  -23.3232   -0.4333  -12.9189 C   0  0  0  0  0  0  0  0  0  0  0  0
  -22.3826   -0.1618  -12.1613 O   0  0  0  0  0  0  0  0  0  0  0  0
  -25.7739   -0.8355  -13.1808 C   0  0  0  0  0  0  0  0  0  0  0  0
  -27.0158   -1.5999  -12.7110 C   0  0  0  0  0  0  0  0  0  0  0  0
  -25.7685   -1.8204   -8.3432 H   0  0  0  0  0  0  0  0  0  0  0  0
  -30.7703   -6.2400   -5.8214 C   0  0  0  0  0  0  0  0  0  0  0  0
  -31.0510   -5.3720   -4.7617 C   0  0  0  0  0  0  0  0  0  0  0  0
  -30.5948   -4.0478   -4.7941 C   0  0  0  0  0  0  0  0  0  0  0  0
  -29.8583   -3.5970   -5.8886 C   0  0  0  0  0  0  0  0  0  0  0  0
  -29.3811   -2.2807   -5.9277 N   0  0  0  0  0  0  0  0  0  0  0  0
  -28.6317   -1.7716   -6.9622 C   0  0  0  0  0  0  0  0  0  0  0  0
  -28.2075   -0.6166   -6.9315 O   0  0  0  0  0  0  0  0  0  0  0  0
  -28.3572   -2.6822   -8.1232 C   0  0  0  0  0  0  0  0  0  0  0  0
  -28.8149   -3.9484   -8.0948 C   0  0  0  0  0  0  0  0  0  0  0  0
  -29.5747   -4.4539   -6.9551 C   0  0  0  0  0  0  0  0  0  0  0  0
  -30.0283   -5.7799   -6.9086 C   0  0  0  0  0  0  0  0  0  0  0  0
  -29.5628   -1.6524   -5.1577 H   0  0  0  0  0  0  0  0  0  0  0  0
  -31.6930   -8.0023   -7.1103 C   0  0  0  0  0  0  0  0  0  0  0  0
  -31.1321   -7.5590   -5.8807 O   0  0  0  0  0  0  0  0  0  0  0  0
  -23.1264   -0.2375  -14.4496 C   0  0  0  0  0  0  0  0  0  0  0  0
  -22.2327    0.8683  -14.8268 N   0  0  0  0  0  0  0  0  0  0  0  0
  -22.3772    2.0853  -14.0201 C   0  0  0  0  0  0  0  0  0  0  0  0
  -21.6506    3.2170  -14.7814 C   0  0  0  0  0  0  0  0  0  0  0  0
  -20.1962    3.0165  -14.9198 N   0  0  0  0  0  0  0  0  0  0  0  0
  -19.4984    3.3636  -13.6881 C   0  0  0  0  0  0  0  0  0  0  0  0
  -19.9005    1.6394  -15.3770 C   0  0  0  0  0  0  0  0  0  0  0  0
  -20.8041    0.4936  -14.8253 C   0  0  0  0  0  0  0  0  0  0  0  0
 25 26  1  0  0  0
 26 13  1  0  0  0
 13 14  1  0  0  0
 13 23  2  0  0  0
 14 15  2  0  0  0
 15 16  1  0  0  0
 16 17  1  0  0  0
 16 22  2  0  0  0
 17 18  1  0  0  0
 17 24  1  0  0  0
 18 19  2  0  0  0
 18 20  1  0  0  0
 20  1  1  0  0  0
 20 21  2  0  0  0
  1  2  2  0  0  0
  1  5  1  0  0  0
  2  3  1  0  0  0
  3  4  2  0  0  0
  3 11  1  0  0  0
  4  5  1  0  0  0
  4  6  1  0  0  0
  5 12  1  0  0  0
  6  7  1  0  0  0
  7  8  1  0  0  0
  7 10  1  0  0  0
  8  9  2  0  0  0
  8 27  1  0  0  0
 27 28  1  0  0  0
 28 29  1  0  0  0
 28 34  1  0  0  0
 29 30  1  0  0  0
 30 31  1  0  0  0
 31 32  1  0  0  0
 31 33  1  0  0  0
 33 34  1  0  0  0
 10 11  1  0  0  0
 21 22  1  0  0  0
 22 23  1  0  0  0
M  END
> <minimizedAffinity>
-8.38291

$$$$
