CHEMBL3986163


 34 38  0  0  0  0  0  0  0  0999 V2000
  -18.3457    1.9555  -14.8726 C   0  0  0  0  0  0  0  0  0  0  0  0
  -17.6687    2.6080  -15.8914 C   0  0  0  0  0  0  0  0  0  0  0  0
  -16.3732    2.3585  -16.1924 N   0  0  0  0  0  0  0  0  0  0  0  0
  -15.7661    1.4132  -15.4520 C   0  0  0  0  0  0  0  0  0  0  0  0
  -14.4593    1.0633  -15.7381 C   0  0  0  0  0  0  0  0  0  0  0  0
  -13.8122    0.0512  -15.0241 C   0  0  0  0  0  0  0  0  0  0  0  0
  -14.4555   -0.6494  -13.9937 C   0  0  0  0  0  0  0  0  0  0  0  0
  -15.7626   -0.2389  -13.6820 C   0  0  0  0  0  0  0  0  0  0  0  0
  -16.4350    0.7498  -14.3993 C   0  0  0  0  0  0  0  0  0  0  0  0
  -17.7199    1.0336  -14.1002 N   0  0  0  0  0  0  0  0  0  0  0  0
  -21.8565    1.8702  -14.0143 N   0  0  0  0  0  0  0  0  0  0  0  0
  -20.6568    1.2244  -14.1491 C   0  0  0  0  0  0  0  0  0  0  0  0
  -19.7523    2.1679  -14.5956 C   0  0  0  0  0  0  0  0  0  0  0  0
  -20.5164    3.3538  -14.6825 C   0  0  0  0  0  0  0  0  0  0  0  0
  -21.7915    3.1769  -14.3234 N   0  0  0  0  0  0  0  0  0  0  0  0
  -23.1241    1.2732  -13.6466 C   0  0  0  0  0  0  0  0  0  0  0  0
  -23.0284   -0.2338  -13.4435 C   0  0  0  0  0  0  0  0  0  0  0  0
  -23.3650   -1.7462  -11.6681 C   0  0  0  0  0  0  0  0  0  0  0  0
  -22.7894   -0.5056  -12.0604 O   0  0  0  0  0  0  0  0  0  0  0  0
  -13.8029   -1.7300  -13.3314 N   0  0  0  0  0  0  0  0  0  0  0  0
  -14.4446   -2.8497  -12.7285 C   0  0  0  0  0  0  0  0  0  0  0  0
  -14.3972   -3.0921  -11.3446 C   0  0  0  0  0  0  0  0  0  0  0  0
  -15.0062   -4.2048  -10.7573 C   0  0  0  0  0  0  0  0  0  0  0  0
  -15.6717   -5.1323  -11.5523 C   0  0  0  0  0  0  0  0  0  0  0  0
  -15.7491   -4.9289  -12.9300 C   0  0  0  0  0  0  0  0  0  0  0  0
  -15.1426   -3.7980  -13.5016 C   0  0  0  0  0  0  0  0  0  0  0  0
  -15.0003   -4.4925   -9.4157 O   0  0  0  0  0  0  0  0  0  0  0  0
  -13.7852   -5.0087   -8.8822 C   0  0  0  0  0  0  0  0  0  0  0  0
  -16.3526   -5.7849  -13.8124 O   0  0  0  0  0  0  0  0  0  0  0  0
  -15.5838   -6.9250  -14.1839 C   0  0  0  0  0  0  0  0  0  0  0  0
  -12.3190   -1.6854  -13.3046 C   0  0  0  0  0  0  0  0  0  0  0  0
  -11.6984   -2.8335  -14.0596 C   0  0  0  0  0  0  0  0  0  0  0  0
  -10.7066   -2.5479  -15.1649 C   0  0  0  0  0  0  0  0  0  0  0  0
  -12.0455   -3.1349  -15.4987 C   0  0  0  0  0  0  0  0  0  0  0  0
 18 19  1  0  0  0
 19 17  1  0  0  0
 17 16  1  0  0  0
 16 11  1  0  0  0
 11 12  1  0  0  0
 11 15  1  0  0  0
 12 13  2  0  0  0
 13  1  1  0  0  0
 13 14  1  0  0  0
  1  2  1  0  0  0
  1 10  2  0  0  0
  2  3  2  0  0  0
  3  4  1  0  0  0
  4  5  1  0  0  0
  4  9  2  0  0  0
  5  6  2  0  0  0
  6  7  1  0  0  0
  7 20  1  0  0  0
  7  8  2  0  0  0
 20 31  1  0  0  0
 20 21  1  0  0  0
 31 32  1  0  0  0
 32 33  1  0  0  0
 32 34  1  0  0  0
 33 34  1  0  0  0
 21 22  1  0  0  0
 21 26  2  0  0  0
 22 23  2  0  0  0
 23 27  1  0  0  0
 23 24  1  0  0  0
 27 28  1  0  0  0
 24 25  2  0  0  0
 25 29  1  0  0  0
 25 26  1  0  0  0
 29 30  1  0  0  0
  8  9  1  0  0  0
  9 10  1  0  0  0
 14 15  2  0  0  0
M  END
> <minimizedAffinity>
-7.72382

$$$$
