CHEMBL3924442


 37 42  0  0  0  0  0  0  0  0999 V2000
  -27.5538  -10.6628   -4.8538 C   0  0  0  0  0  0  0  0  0  0  0  0
  -28.6989   -9.9917   -5.2986 C   0  0  0  0  0  0  0  0  0  0  0  0
  -29.2422  -10.2343   -6.5802 C   0  0  0  0  0  0  0  0  0  0  0  0
  -30.3336   -9.5513   -7.1302 C   0  0  0  0  0  0  0  0  0  0  0  0
  -30.7936   -9.8267   -8.3649 N   0  0  0  0  0  0  0  0  0  0  0  0
  -30.1655  -10.7770   -9.0532 C   0  0  0  0  0  0  0  0  0  0  0  0
  -29.1096  -11.4744   -8.6340 N   0  0  0  0  0  0  0  0  0  0  0  0
  -28.6565  -11.1898   -7.4114 C   0  0  0  0  0  0  0  0  0  0  0  0
  -27.5271  -11.8520   -6.9641 C   0  0  0  0  0  0  0  0  0  0  0  0
  -26.9332  -11.5723   -5.7250 C   0  0  0  0  0  0  0  0  0  0  0  0
  -26.1190   -9.3447   -3.4836 C   0  0  0  0  0  0  0  0  0  0  0  0
  -26.9923  -10.4661   -3.6215 O   0  0  0  0  0  0  0  0  0  0  0  0
  -30.9537   -8.5136   -6.3867 N   0  0  0  0  0  0  0  0  0  0  0  0
  -31.9598   -8.5746   -6.4845 H   0  0  0  0  0  0  0  0  0  0  0  0
  -30.4946   -7.1826   -6.3330 C   0  0  0  0  0  0  0  0  0  0  0  0
  -30.7256   -6.4047   -5.2026 C   0  0  0  0  0  0  0  0  0  0  0  0
  -30.3274   -5.0666   -5.1841 C   0  0  0  0  0  0  0  0  0  0  0  0
  -29.6688   -4.4700   -6.2722 C   0  0  0  0  0  0  0  0  0  0  0  0
  -29.3649   -5.2863   -7.3612 C   0  0  0  0  0  0  0  0  0  0  0  0
  -29.7614   -6.6247   -7.3854 C   0  0  0  0  0  0  0  0  0  0  0  0
  -29.3080   -3.1341   -6.1962 N   0  0  0  0  0  0  0  0  0  0  0  0
  -29.5184   -2.3688   -4.9580 C   0  0  0  0  0  0  0  0  0  0  0  0
  -29.5851   -0.8670   -5.3180 C   0  0  0  0  0  0  0  0  0  0  0  0
  -28.3707   -0.3899   -6.0233 N   0  0  0  0  0  0  0  0  0  0  0  0
  -28.5341    1.0075   -6.4154 C   0  0  0  0  0  0  0  0  0  0  0  0
  -28.1277   -1.2338   -7.2185 C   0  0  0  0  0  0  0  0  0  0  0  0
  -28.0621   -2.7418   -6.8864 C   0  0  0  0  0  0  0  0  0  0  0  0
  -25.7400  -12.1472   -5.3323 O   0  0  0  0  0  0  0  0  0  0  0  0
  -24.5714  -11.6969   -6.0403 C   0  0  0  0  0  0  0  0  0  0  0  0
  -24.7968  -10.3669   -6.7663 C   0  0  0  0  0  0  0  0  0  0  0  0
  -23.6933   -9.4897   -6.4937 O   0  0  0  0  0  0  0  0  0  0  0  0
  -22.7025  -10.2366   -5.7897 C   0  0  0  0  0  0  0  0  0  0  0  0
  -21.7398  -10.9399   -6.7269 C   0  0  0  0  0  0  0  0  0  0  0  0
  -20.6350  -10.1843   -6.9372 F   0  0  0  0  0  0  0  0  0  0  0  0
  -21.3945  -12.2002   -5.9641 C   0  0  0  0  0  0  0  0  0  0  0  0
  -22.4611  -12.4655   -5.0310 O   0  0  0  0  0  0  0  0  0  0  0  0
  -23.4080  -11.3823   -5.0987 C   0  0  0  0  0  0  0  0  0  0  0  0
 11 12  1  0  0  0
 12  1  1  0  0  0
  1  2  1  0  0  0
  1 10  2  0  0  0
  2  3  2  0  0  0
  3  4  1  0  0  0
  3  8  1  0  0  0
  4 13  1  0  0  0
  4  5  2  0  0  0
 13 15  1  0  0  0
 13 14  1  0  0  0
 15 16  1  0  0  0
 15 20  2  0  0  0
 16 17  2  0  0  0
 17 18  1  0  0  0
 18 21  1  0  0  0
 18 19  2  0  0  0
 21 22  1  0  0  0
 21 27  1  0  0  0
 22 23  1  0  0  0
 23 24  1  0  0  0
 24 25  1  0  0  0
 24 26  1  0  0  0
 26 27  1  0  0  0
 19 20  1  0  0  0
  5  6  1  0  0  0
  6  7  2  0  0  0
  7  8  1  0  0  0
  8  9  2  0  0  0
  9 10  1  0  0  0
 10 28  1  0  0  0
 29 30  1  0  0  0
 29 37  1  0  0  0
 29 28  1  0  0  0
 30 31  1  0  0  0
 31 32  1  0  0  0
 32 33  1  0  0  0
 32 37  1  0  0  0
 33 34  1  0  0  0
 33 35  1  0  0  0
 35 36  1  0  0  0
 36 37  1  0  0  0
M  END
> <minimizedAffinity>
-8.62560

$$$$
