CHEMBL2113063


 34 41  0  0  0  0  0  0  0  0999 V2000
  -16.1382   -3.4173  -11.5730 C   0  0  0  0  0  0  0  0  0  0  0  0
  -14.8224   -3.9075  -10.8738 C   0  0  0  0  0  0  0  0  0  0  0  0
  -15.2293   -4.1630   -9.5185 O   0  0  0  0  0  0  0  0  0  0  0  0
  -13.2038   -3.5151  -10.8475 C   0  0  0  0  0  0  0  0  0  0  0  0
  -12.2911   -4.9662  -11.1686 C   0  0  0  0  0  0  0  0  0  0  0  0
  -13.4142   -5.6787  -10.8219 O   0  0  0  0  0  0  0  0  0  0  0  0
  -14.4720   -5.0958  -11.7081 C   0  0  0  0  0  0  0  0  0  0  0  0
  -15.3243   -6.3697  -11.6943 C   0  0  0  0  0  0  0  0  0  0  0  0
  -14.0436   -4.4141  -13.0756 N   0  0  0  0  0  0  0  0  0  0  0  0
  -13.9215   -3.0812  -13.7205 C   0  0  0  0  0  0  0  0  0  0  0  0
  -14.1058   -1.7325  -13.2957 C   0  0  0  0  0  0  0  0  0  0  0  0
  -13.6387   -0.6411  -14.0583 C   0  0  0  0  0  0  0  0  0  0  0  0
  -13.0249   -0.8162  -15.2855 C   0  0  0  0  0  0  0  0  0  0  0  0
  -12.9018   -2.0948  -15.8080 C   0  0  0  0  0  0  0  0  0  0  0  0
  -13.3065   -3.2203  -15.0637 C   0  0  0  0  0  0  0  0  0  0  0  0
  -13.1186   -4.5881  -15.2868 C   0  0  0  0  0  0  0  0  0  0  0  0
  -12.4209   -5.2617  -16.3116 C   0  0  0  0  0  0  0  0  0  0  0  0
  -12.1517   -6.5949  -15.9416 C   0  0  0  0  0  0  0  0  0  0  0  0
  -12.0445   -6.7194  -14.5474 C   0  0  0  0  0  0  0  0  0  0  0  0
  -12.1578   -7.8091  -13.7101 C   0  0  0  0  0  0  0  0  0  0  0  0
  -12.6793   -9.1043  -13.8579 C   0  0  0  0  0  0  0  0  0  0  0  0
  -12.3813  -10.0368  -12.8871 C   0  0  0  0  0  0  0  0  0  0  0  0
  -11.5615   -9.6636  -11.8236 C   0  0  0  0  0  0  0  0  0  0  0  0
  -11.2703   -8.3106  -11.5107 C   0  0  0  0  0  0  0  0  0  0  0  0
  -11.7366   -7.3177  -12.3806 C   0  0  0  0  0  0  0  0  0  0  0  0
  -11.9101   -5.8731  -12.2877 N   0  0  0  0  0  0  0  0  0  0  0  0
  -12.2628   -5.7648  -13.5767 C   0  0  0  0  0  0  0  0  0  0  0  0
  -13.2996   -5.0077  -13.9772 C   0  0  0  0  0  0  0  0  0  0  0  0
  -11.6544   -7.2809  -17.0735 C   0  0  0  0  0  0  0  0  0  0  0  0
  -11.2938   -8.4329  -17.2467 O   0  0  0  0  0  0  0  0  0  0  0  0
  -11.5500   -6.3166  -18.0409 N   0  0  0  0  0  0  0  0  0  0  0  0
  -11.8773   -4.9644  -17.6250 C   0  0  0  0  0  0  0  0  0  0  0  0
  -15.8029   -3.4304   -9.2241 H   0  0  0  0  0  0  0  0  0  0  0  0
  -11.0601   -6.5585  -18.8926 H   0  0  0  0  0  0  0  0  0  0  0  0
  1  2  1  0  0  0
  2  3  1  0  0  0
  2  4  1  0  0  0
  2  7  1  0  0  0
  3 33  1  0  0  0
  4  5  1  0  0  0
  5  6  1  0  0  0
  5 26  1  0  0  0
  6  7  1  0  0  0
  7  8  1  0  0  0
  7  9  1  0  0  0
  9 10  1  0  0  0
  9 28  1  0  0  0
 10 11  1  0  0  0
 10 15  2  0  0  0
 11 12  2  0  0  0
 12 13  1  0  0  0
 13 14  2  0  0  0
 14 15  1  0  0  0
 15 16  1  0  0  0
 16 17  1  0  0  0
 16 28  2  0  0  0
 17 18  2  0  0  0
 17 32  1  0  0  0
 18 19  1  0  0  0
 18 29  1  0  0  0
 19 20  1  0  0  0
 19 27  2  0  0  0
 20 21  1  0  0  0
 20 25  2  0  0  0
 21 22  2  0  0  0
 22 23  1  0  0  0
 23 24  2  0  0  0
 24 25  1  0  0  0
 25 26  1  0  0  0
 26 27  1  0  0  0
 27 28  1  0  0  0
 29 30  2  0  0  0
 29 31  1  0  0  0
 31 32  1  0  0  0
 31 34  1  0  0  0
M  END
> <minimizedAffinity>
-8.13185

$$$$
