CHEMBL3109349


 33 37  0  0  0  0  0  0  0  0999 V2000
  -28.4335   -8.5428   -5.2536 C   0  0  0  0  0  0  0  0  0  0  0  0
  -28.7029   -8.8166   -3.9242 C   0  0  0  0  0  0  0  0  0  0  0  0
  -27.9148   -9.7482   -3.2703 C   0  0  0  0  0  0  0  0  0  0  0  0
  -26.8670  -10.3726   -3.9502 C   0  0  0  0  0  0  0  0  0  0  0  0
  -26.0515  -11.2945   -3.2802 C   0  0  0  0  0  0  0  0  0  0  0  0
  -24.9932  -11.9068   -3.9374 C   0  0  0  0  0  0  0  0  0  0  0  0
  -24.7532  -11.6084   -5.2743 C   0  0  0  0  0  0  0  0  0  0  0  0
  -25.5811  -10.7067   -5.9624 C   0  0  0  0  0  0  0  0  0  0  0  0
  -26.6471  -10.0516   -5.3103 C   0  0  0  0  0  0  0  0  0  0  0  0
  -27.4420   -9.1508   -5.9431 N   0  0  0  0  0  0  0  0  0  0  0  0
  -29.2488   -3.4102   -5.9273 C   0  0  0  0  0  0  0  0  0  0  0  0
  -28.3783   -4.0663   -4.9557 C   0  0  0  0  0  0  0  0  0  0  0  0
  -28.3269   -5.3939   -4.9064 C   0  0  0  0  0  0  0  0  0  0  0  0
  -29.0965   -6.1579   -5.7883 N   0  0  0  0  0  0  0  0  0  0  0  0
  -29.1922   -7.5224   -5.9617 C   0  0  0  0  0  0  0  0  0  0  0  0
  -30.1197   -7.6728   -6.9785 C   0  0  0  0  0  0  0  0  0  0  0  0
  -30.5665   -6.4727   -7.4557 N   0  0  0  0  0  0  0  0  0  0  0  0
  -29.9375   -5.5673   -6.7356 C   0  0  0  0  0  0  0  0  0  0  0  0
  -29.9940   -4.1463   -6.7799 C   0  0  0  0  0  0  0  0  0  0  0  0
  -29.3531   -2.0327   -5.9326 O   0  0  0  0  0  0  0  0  0  0  0  0
  -28.1219   -1.3008   -5.9049 C   0  0  0  0  0  0  0  0  0  0  0  0
  -27.8391   -0.7595   -7.2963 C   0  0  0  0  0  0  0  0  0  0  0  0
  -27.8556   -1.9472   -9.3247 C   0  0  0  0  0  0  0  0  0  0  0  0
  -27.1941   -1.7612   -8.0794 O   0  0  0  0  0  0  0  0  0  0  0  0
  -25.3800  -10.3688   -7.2844 O   0  0  0  0  0  0  0  0  0  0  0  0
  -25.8891  -11.2736   -8.2696 C   0  0  0  0  0  0  0  0  0  0  0  0
  -26.9057  -10.5329   -9.1535 C   0  0  0  0  0  0  0  0  0  0  0  0
  -28.2936  -11.2083   -9.0724 C   0  0  0  0  0  0  0  0  0  0  0  0
  -29.2953  -10.5557   -9.9415 N   0  0  0  0  0  0  0  0  0  0  0  0
  -28.7560  -10.4943  -11.3127 C   0  0  0  0  0  0  0  0  0  0  0  0
  -27.3674   -9.8390  -11.3627 C   0  0  0  0  0  0  0  0  0  0  0  0
  -26.4361  -10.5329  -10.5187 O   0  0  0  0  0  0  0  0  0  0  0  0
  -29.4328   -9.6015   -9.6052 H   0  0  0  0  0  0  0  0  0  0  0  0
 23 24  1  0  0  0
 24 22  1  0  0  0
 22 21  1  0  0  0
 21 20  1  0  0  0
 20 11  1  0  0  0
 11 12  1  0  0  0
 11 19  2  0  0  0
 12 13  2  0  0  0
 13 14  1  0  0  0
 14 15  1  0  0  0
 14 18  1  0  0  0
 15  1  1  0  0  0
 15 16  2  0  0  0
  1  2  1  0  0  0
  1 10  2  0  0  0
  2  3  2  0  0  0
  3  4  1  0  0  0
  4  5  1  0  0  0
  4  9  2  0  0  0
  5  6  2  0  0  0
  6  7  1  0  0  0
  7  8  2  0  0  0
  8 25  1  0  0  0
  8  9  1  0  0  0
 25 26  1  0  0  0
 26 27  1  0  0  0
 27 28  1  0  0  0
 27 32  1  0  0  0
 28 29  1  0  0  0
 29 30  1  0  0  0
 29 33  1  0  0  0
 30 31  1  0  0  0
 31 32  1  0  0  0
  9 10  1  0  0  0
 16 17  1  0  0  0
 17 18  2  0  0  0
 18 19  1  0  0  0
M  END
> <minimizedAffinity>
-7.51562

$$$$
