CHEMBL231209


 31 34  0  0  0  0  0  0  0  0999 V2000
  -29.7647   -8.5359   -6.5451 C   0  0  0  0  0  0  0  0  0  0  0  0
  -28.7519   -8.0378   -5.7157 C   0  0  0  0  0  0  0  0  0  0  0  0
  -28.8940   -6.8150   -5.0603 C   0  0  0  0  0  0  0  0  0  0  0  0
  -30.0238   -6.0224   -5.2598 C   0  0  0  0  0  0  0  0  0  0  0  0
  -31.0644   -6.5277   -6.0418 C   0  0  0  0  0  0  0  0  0  0  0  0
  -30.9407   -7.7850   -6.6615 C   0  0  0  0  0  0  0  0  0  0  0  0
  -27.6721   -8.0073   -9.1334 N   0  0  0  0  0  0  0  0  0  0  0  0
  -27.9339   -9.3650   -9.2825 C   0  0  0  0  0  0  0  0  0  0  0  0
  -27.2953   -9.9341  -10.3258 N   0  0  0  0  0  0  0  0  0  0  0  0
  -27.4087  -11.2530  -10.5514 C   0  0  0  0  0  0  0  0  0  0  0  0
  -28.1497  -12.1049   -9.7664 C   0  0  0  0  0  0  0  0  0  0  0  0
  -28.8300  -11.5172   -8.6942 C   0  0  0  0  0  0  0  0  0  0  0  0
  -29.8212  -12.3649   -7.5773 S   0  0  0  0  0  0  0  0  0  0  0  0
  -30.1887  -10.9456   -6.7303 C   0  0  0  0  0  0  0  0  0  0  0  0
  -29.5663   -9.8181   -7.2397 C   0  0  0  0  0  0  0  0  0  0  0  0
  -28.7583  -10.1429   -8.4194 C   0  0  0  0  0  0  0  0  0  0  0  0
  -26.8945   -7.7678   -9.7402 H   0  0  0  0  0  0  0  0  0  0  0  0
  -27.5558   -7.7316   -8.1669 H   0  0  0  0  0  0  0  0  0  0  0  0
  -30.1490   -4.7426   -4.6711 N   0  0  0  0  0  0  0  0  0  0  0  0
  -29.7018   -3.5751   -5.2707 C   0  0  0  0  0  0  0  0  0  0  0  0
  -29.3029   -3.4930   -6.4271 O   0  0  0  0  0  0  0  0  0  0  0  0
  -29.7227   -2.5046   -4.3895 N   0  0  0  0  0  0  0  0  0  0  0  0
  -30.8493   -4.6249   -3.9536 H   0  0  0  0  0  0  0  0  0  0  0  0
  -29.5217   -2.7495   -3.4301 H   0  0  0  0  0  0  0  0  0  0  0  0
  -29.3766   -1.1980   -4.8052 C   0  0  0  0  0  0  0  0  0  0  0  0
  -28.0746   -0.6972   -4.6438 C   0  0  0  0  0  0  0  0  0  0  0  0
  -27.7614    0.6065   -5.0261 C   0  0  0  0  0  0  0  0  0  0  0  0
  -28.7488    1.4232   -5.5675 C   0  0  0  0  0  0  0  0  0  0  0  0
  -30.0338    0.9196   -5.7365 C   0  0  0  0  0  0  0  0  0  0  0  0
  -30.9890    1.7153   -6.2355 F   0  0  0  0  0  0  0  0  0  0  0  0
  -30.3544   -0.3888   -5.3810 C   0  0  0  0  0  0  0  0  0  0  0  0
  7  8  1  0  0  0
  7 17  1  0  0  0
  7 18  1  0  0  0
  8  9  1  0  0  0
  8 16  2  0  0  0
  9 10  2  0  0  0
 10 11  1  0  0  0
 11 12  2  0  0  0
 12 13  1  0  0  0
 12 16  1  0  0  0
 13 14  1  0  0  0
 14 15  2  0  0  0
 15  1  1  0  0  0
 15 16  1  0  0  0
  1  2  1  0  0  0
  1  6  2  0  0  0
  2  3  2  0  0  0
  3  4  1  0  0  0
  4 19  1  0  0  0
  4  5  2  0  0  0
 19 20  1  0  0  0
 19 23  1  0  0  0
 20 21  2  0  0  0
 20 22  1  0  0  0
 22 25  1  0  0  0
 22 24  1  0  0  0
 25 26  1  0  0  0
 25 31  2  0  0  0
 26 27  2  0  0  0
 27 28  1  0  0  0
 28 29  2  0  0  0
 29 30  1  0  0  0
 29 31  1  0  0  0
  5  6  1  0  0  0
M  END
> <minimizedAffinity>
-8.47474

$$$$
