CHEMBL473556


 31 35  0  0  0  0  0  0  0  0999 V2000
  -27.1764   -2.5883  -10.0765 N   0  0  0  0  0  0  0  0  0  0  0  0
  -27.1797   -3.5978  -10.1484 H   0  0  0  0  0  0  0  0  0  0  0  0
  -29.7231   -4.7297   -6.2143 C   0  0  0  0  0  0  0  0  0  0  0  0
  -29.3350   -3.4320   -5.8389 C   0  0  0  0  0  0  0  0  0  0  0  0
  -28.5933   -2.6030   -6.6729 C   0  0  0  0  0  0  0  0  0  0  0  0
  -28.3625   -1.3460   -6.2848 N   0  0  0  0  0  0  0  0  0  0  0  0
  -27.7414   -0.5548   -7.1655 C   0  0  0  0  0  0  0  0  0  0  0  0
  -27.3347   -0.9044   -8.3885 N   0  0  0  0  0  0  0  0  0  0  0  0
  -27.5394   -2.1812   -8.7617 C   0  0  0  0  0  0  0  0  0  0  0  0
  -28.1612   -3.1047   -7.9037 C   0  0  0  0  0  0  0  0  0  0  0  0
  -28.4274   -4.4520   -8.2238 C   0  0  0  0  0  0  0  0  0  0  0  0
  -29.2118   -5.2658   -7.3997 C   0  0  0  0  0  0  0  0  0  0  0  0
  -30.9855   -4.8677   -4.2117 C   0  0  0  0  0  0  0  0  0  0  0  0
  -30.5731   -5.4754   -5.4403 O   0  0  0  0  0  0  0  0  0  0  0  0
  -29.3596   -6.5136   -7.9325 O   0  0  0  0  0  0  0  0  0  0  0  0
  -28.6926   -7.6123   -7.3389 C   0  0  0  0  0  0  0  0  0  0  0  0
  -26.2353   -1.9608  -10.9173 C   0  0  0  0  0  0  0  0  0  0  0  0
  -24.8915   -2.3533  -10.9261 C   0  0  0  0  0  0  0  0  0  0  0  0
  -23.9416   -1.6768  -11.7227 C   0  0  0  0  0  0  0  0  0  0  0  0
  -24.3174   -0.6085  -12.5509 C   0  0  0  0  0  0  0  0  0  0  0  0
  -25.6865   -0.3006  -12.6090 C   0  0  0  0  0  0  0  0  0  0  0  0
  -26.6228   -0.9622  -11.8101 C   0  0  0  0  0  0  0  0  0  0  0  0
  -23.3059    0.1868  -13.2928 C   0  0  0  0  0  0  0  0  0  0  0  0
  -22.2227   -0.2892  -13.8828 N   0  0  0  0  0  0  0  0  0  0  0  0
  -21.4298    0.7586  -14.3807 C   0  0  0  0  0  0  0  0  0  0  0  0
  -20.1888    0.6501  -15.0426 C   0  0  0  0  0  0  0  0  0  0  0  0
  -19.5018    1.8089  -15.4399 C   0  0  0  0  0  0  0  0  0  0  0  0
  -20.0366    3.0699  -15.1977 C   0  0  0  0  0  0  0  0  0  0  0  0
  -21.2704    3.2039  -14.5640 C   0  0  0  0  0  0  0  0  0  0  0  0
  -21.9423    2.0367  -14.1646 C   0  0  0  0  0  0  0  0  0  0  0  0
  -23.4483    1.9080  -13.3715 S   0  0  0  0  0  0  0  0  0  0  0  0
 13 14  1  0  0  0
 14  3  1  0  0  0
  3  4  1  0  0  0
  3 12  2  0  0  0
  4  5  2  0  0  0
  5  6  1  0  0  0
  5 10  1  0  0  0
  6  7  2  0  0  0
  7  8  1  0  0  0
  8  9  2  0  0  0
  9  1  1  0  0  0
  9 10  1  0  0  0
  1 17  1  0  0  0
  1  2  1  0  0  0
 17 18  1  0  0  0
 17 22  2  0  0  0
 18 19  2  0  0  0
 19 20  1  0  0  0
 20 23  1  0  0  0
 20 21  2  0  0  0
 23 24  2  0  0  0
 23 31  1  0  0  0
 24 25  1  0  0  0
 25 26  1  0  0  0
 25 30  2  0  0  0
 26 27  2  0  0  0
 27 28  1  0  0  0
 28 29  2  0  0  0
 29 30  1  0  0  0
 30 31  1  0  0  0
 21 22  1  0  0  0
 10 11  2  0  0  0
 11 12  1  0  0  0
 12 15  1  0  0  0
 15 16  1  0  0  0
M  END
> <minimizedAffinity>
-9.37466

$$$$
