CHEMBL3974206


 33 36  0  0  0  0  0  0  0  0999 V2000
  -29.7497   -6.4421   -5.5559 N   0  0  0  0  0  0  0  0  0  0  0  0
  -29.4269   -5.0782   -5.9184 C   0  0  0  0  0  0  0  0  0  0  0  0
  -29.5857   -4.0161   -4.9949 C   0  0  0  0  0  0  0  0  0  0  0  0
  -29.1993   -2.7107   -5.3174 C   0  0  0  0  0  0  0  0  0  0  0  0
  -28.6450   -2.4385   -6.5685 C   0  0  0  0  0  0  0  0  0  0  0  0
  -28.2472   -1.1821   -6.8984 N   0  0  0  0  0  0  0  0  0  0  0  0
  -27.6982   -0.9130   -8.1137 C   0  0  0  0  0  0  0  0  0  0  0  0
  -27.5394   -1.9509   -9.0504 C   0  0  0  0  0  0  0  0  0  0  0  0
  -27.9361   -3.2050   -8.7120 N   0  0  0  0  0  0  0  0  0  0  0  0
  -28.4807   -3.4763   -7.4993 C   0  0  0  0  0  0  0  0  0  0  0  0
  -28.8618   -4.7770   -7.1794 C   0  0  0  0  0  0  0  0  0  0  0  0
  -26.9595   -1.7208  -10.3860 C   0  0  0  0  0  0  0  0  0  0  0  0
  -27.6551   -1.6127  -11.5782 C   0  0  0  0  0  0  0  0  0  0  0  0
  -26.7789   -1.3960  -12.5772 N   0  0  0  0  0  0  0  0  0  0  0  0
  -25.5624   -1.3657  -12.0550 N   0  0  0  0  0  0  0  0  0  0  0  0
  -25.6323   -1.5579  -10.7258 C   0  0  0  0  0  0  0  0  0  0  0  0
  -24.6913   -1.2095  -12.6049 H   0  0  0  0  0  0  0  0  0  0  0  0
  -29.7463   -8.8766   -8.4805 C   0  0  0  0  0  0  0  0  0  0  0  0
  -31.1069   -9.2260   -8.5041 C   0  0  0  0  0  0  0  0  0  0  0  0
  -31.9860   -8.6744   -7.5836 C   0  0  0  0  0  0  0  0  0  0  0  0
  -33.2910   -9.0079   -7.6135 F   0  0  0  0  0  0  0  0  0  0  0  0
  -31.5355   -7.7688   -6.6316 C   0  0  0  0  0  0  0  0  0  0  0  0
  -30.1774   -7.3939   -6.5640 C   0  0  0  0  0  0  0  0  0  0  0  0
  -29.2903   -7.9593   -7.5123 C   0  0  0  0  0  0  0  0  0  0  0  0
  -29.1501  -10.3566  -10.3211 C   0  0  0  0  0  0  0  0  0  0  0  0
  -28.8557   -9.4019   -9.3637 O   0  0  0  0  0  0  0  0  0  0  0  0
  -29.7238   -6.8011   -4.1303 C   0  0  0  0  0  0  0  0  0  0  0  0
  -28.7595   -7.9839   -3.9539 C   0  0  0  0  0  0  0  0  0  0  0  0
  -29.4182   -9.2713   -3.6896 N   0  0  0  0  0  0  0  0  0  0  0  0
  -30.4186   -9.1821   -3.9931 H   0  0  0  0  0  0  0  0  0  0  0  0
  -28.7927  -10.3440   -4.5035 C   0  0  0  0  0  0  0  0  0  0  0  0
  -28.1017  -11.4026   -3.6218 C   0  0  0  0  0  0  0  0  0  0  0  0
  -29.8428  -11.0389   -5.3774 C   0  0  0  0  0  0  0  0  0  0  0  0
 25 26  1  0  0  0
 26 18  1  0  0  0
 18 19  1  0  0  0
 18 24  2  0  0  0
 19 20  2  0  0  0
 20 21  1  0  0  0
 20 22  1  0  0  0
 22 23  2  0  0  0
 23  1  1  0  0  0
 23 24  1  0  0  0
  1 27  1  0  0  0
  1  2  1  0  0  0
 27 28  1  0  0  0
 28 29  1  0  0  0
 29 31  1  0  0  0
 29 30  1  0  0  0
 31 32  1  0  0  0
 31 33  1  0  0  0
  2  3  1  0  0  0
  2 11  2  0  0  0
  3  4  2  0  0  0
  4  5  1  0  0  0
  5  6  1  0  0  0
  5 10  2  0  0  0
  6  7  2  0  0  0
  7  8  1  0  0  0
  8 12  1  0  0  0
  8  9  2  0  0  0
 12 13  1  0  0  0
 12 16  2  0  0  0
 13 14  2  0  0  0
 14 15  1  0  0  0
 15 16  1  0  0  0
 15 17  1  0  0  0
  9 10  1  0  0  0
 10 11  1  0  0  0
M  END
> <minimizedAffinity>
-8.09387

$$$$
