CHEMBL3954085


 38 43  0  0  0  0  0  0  0  0999 V2000
  -28.9437   -5.8397   -6.5697 C   0  0  0  0  0  0  0  0  0  0  0  0
  -28.4624   -5.8234   -5.2488 C   0  0  0  0  0  0  0  0  0  0  0  0
  -27.8434   -6.9605   -4.6753 C   0  0  0  0  0  0  0  0  0  0  0  0
  -27.9358   -8.1832   -5.3699 C   0  0  0  0  0  0  0  0  0  0  0  0
  -27.5375   -9.5440   -5.2753 C   0  0  0  0  0  0  0  0  0  0  0  0
  -28.4846  -10.3243   -5.8311 N   0  0  0  0  0  0  0  0  0  0  0  0
  -28.9493   -9.5078   -6.7940 N   0  0  0  0  0  0  0  0  0  0  0  0
  -28.6524   -8.1927   -6.5613 C   0  0  0  0  0  0  0  0  0  0  0  0
  -29.0007   -7.0484   -7.2670 C   0  0  0  0  0  0  0  0  0  0  0  0
  -29.5245   -9.8968   -7.5261 H   0  0  0  0  0  0  0  0  0  0  0  0
  -26.1939  -10.2007   -5.1859 C   0  0  0  0  0  0  0  0  0  0  0  0
  -25.6057  -10.6882   -4.1075 N   0  0  0  0  0  0  0  0  0  0  0  0
  -24.2690  -10.8202   -4.4519 C   0  0  0  0  0  0  0  0  0  0  0  0
  -23.1612  -11.2403   -3.6961 C   0  0  0  0  0  0  0  0  0  0  0  0
  -21.9286  -11.4185   -4.3478 C   0  0  0  0  0  0  0  0  0  0  0  0
  -21.7871  -11.1402   -5.7098 C   0  0  0  0  0  0  0  0  0  0  0  0
  -22.8480  -10.6168   -6.4519 C   0  0  0  0  0  0  0  0  0  0  0  0
  -24.0642  -10.4763   -5.7836 C   0  0  0  0  0  0  0  0  0  0  0  0
  -25.2747   -9.9954   -6.1858 N   0  0  0  0  0  0  0  0  0  0  0  0
  -25.4837   -9.4966   -7.0379 H   0  0  0  0  0  0  0  0  0  0  0  0
  -29.5404   -4.6639   -7.2706 C   0  0  0  0  0  0  0  0  0  0  0  0
  -30.6768   -4.7652   -7.7436 O   0  0  0  0  0  0  0  0  0  0  0  0
  -27.4033   -1.9060   -8.7409 C   0  0  0  0  0  0  0  0  0  0  0  0
  -27.6116   -0.8945   -7.7904 C   0  0  0  0  0  0  0  0  0  0  0  0
  -28.3470   -1.1395   -6.6391 C   0  0  0  0  0  0  0  0  0  0  0  0
  -28.9420   -2.3829   -6.4237 C   0  0  0  0  0  0  0  0  0  0  0  0
  -28.8552   -3.3570   -7.4246 C   0  0  0  0  0  0  0  0  0  0  0  0
  -28.0655   -3.1223   -8.5705 C   0  0  0  0  0  0  0  0  0  0  0  0
  -28.1221   -1.3462  -11.5226 O   0  0  0  0  0  0  0  0  0  0  0  0
  -26.9607   -1.4738  -11.1433 C   0  0  0  0  0  0  0  0  0  0  0  0
  -26.5382   -1.7377   -9.8474 N   0  0  0  0  0  0  0  0  0  0  0  0
  -25.5529   -1.6179   -9.6459 H   0  0  0  0  0  0  0  0  0  0  0  0
  -25.9016   -1.2550  -12.1587 C   0  0  0  0  0  0  0  0  0  0  0  0
  -24.7908   -0.4870  -11.7817 C   0  0  0  0  0  0  0  0  0  0  0  0
  -23.7947   -0.1855  -12.7073 C   0  0  0  0  0  0  0  0  0  0  0  0
  -23.9104   -0.6426  -14.0178 C   0  0  0  0  0  0  0  0  0  0  0  0
  -25.0198   -1.4012  -14.4019 C   0  0  0  0  0  0  0  0  0  0  0  0
  -26.0203   -1.7117  -13.4751 C   0  0  0  0  0  0  0  0  0  0  0  0
 29 30  2  0  0  0
 30 31  1  0  0  0
 30 33  1  0  0  0
 31 23  1  0  0  0
 31 32  1  0  0  0
 23 24  1  0  0  0
 23 28  2  0  0  0
 24 25  2  0  0  0
 25 26  1  0  0  0
 26 27  2  0  0  0
 27 21  1  0  0  0
 27 28  1  0  0  0
 21 22  2  0  0  0
 21  1  1  0  0  0
  1  2  1  0  0  0
  1  9  2  0  0  0
  2  3  2  0  0  0
  3  4  1  0  0  0
  4  5  1  0  0  0
  4  8  2  0  0  0
  5 11  1  0  0  0
  5  6  2  0  0  0
 11 12  2  0  0  0
 11 19  1  0  0  0
 12 13  1  0  0  0
 13 14  1  0  0  0
 13 18  2  0  0  0
 14 15  2  0  0  0
 15 16  1  0  0  0
 16 17  2  0  0  0
 17 18  1  0  0  0
 18 19  1  0  0  0
 19 20  1  0  0  0
  6  7  1  0  0  0
  7  8  1  0  0  0
  7 10  1  0  0  0
  8  9  1  0  0  0
 33 34  1  0  0  0
 33 38  2  0  0  0
 34 35  2  0  0  0
 35 36  1  0  0  0
 36 37  2  0  0  0
 37 38  1  0  0  0
M  END
> <minimizedAffinity>
-11.28043

$$$$
