CHEMBL368252


 33 36  0  0  0  0  0  0  0  0999 V2000
  -15.9427    2.3036  -16.1950 C   0  0  0  0  0  0  0  0  0  0  0  0
  -16.8322    3.3575  -16.3665 C   0  0  0  0  0  0  0  0  0  0  0  0
  -18.1010    3.2915  -15.7829 C   0  0  0  0  0  0  0  0  0  0  0  0
  -18.5291    2.1545  -15.0816 C   0  0  0  0  0  0  0  0  0  0  0  0
  -17.6951    1.0318  -15.0864 C   0  0  0  0  0  0  0  0  0  0  0  0
  -16.4046    1.1091  -15.6349 C   0  0  0  0  0  0  0  0  0  0  0  0
  -19.7477    2.1062  -14.3515 N   0  0  0  0  0  0  0  0  0  0  0  0
  -20.6380    1.0471  -14.3877 C   0  0  0  0  0  0  0  0  0  0  0  0
  -20.4867    0.0564  -15.0921 O   0  0  0  0  0  0  0  0  0  0  0  0
  -21.7395    1.2099  -13.5571 N   0  0  0  0  0  0  0  0  0  0  0  0
  -20.0472    2.9566  -13.8996 H   0  0  0  0  0  0  0  0  0  0  0  0
  -22.0596    2.1528  -13.3999 H   0  0  0  0  0  0  0  0  0  0  0  0
  -22.6785    0.1638  -13.3250 C   0  0  0  0  0  0  0  0  0  0  0  0
  -22.6418   -0.6259  -12.1670 C   0  0  0  0  0  0  0  0  0  0  0  0
  -23.5096   -1.7047  -11.9950 C   0  0  0  0  0  0  0  0  0  0  0  0
  -24.4592   -1.9883  -12.9696 C   0  0  0  0  0  0  0  0  0  0  0  0
  -24.5463   -1.1798  -14.1047 C   0  0  0  0  0  0  0  0  0  0  0  0
  -23.6683   -0.0998  -14.2782 C   0  0  0  0  0  0  0  0  0  0  0  0
  -14.6038    2.3607  -16.5041 O   0  0  0  0  0  0  0  0  0  0  0  0
  -12.2313    7.0168  -16.9352 C   0  0  0  0  0  0  0  0  0  0  0  0
  -11.9074    6.3979  -15.7156 C   0  0  0  0  0  0  0  0  0  0  0  0
  -12.4163    5.1602  -15.3366 C   0  0  0  0  0  0  0  0  0  0  0  0
  -11.9482    4.6066  -14.2066 N   0  0  0  0  0  0  0  0  0  0  0  0
  -12.3735    3.3722  -13.8753 C   0  0  0  0  0  0  0  0  0  0  0  0
  -13.2507    2.6335  -14.6397 C   0  0  0  0  0  0  0  0  0  0  0  0
  -13.7429    3.2025  -15.8137 C   0  0  0  0  0  0  0  0  0  0  0  0
  -13.3663    4.5296  -16.1623 C   0  0  0  0  0  0  0  0  0  0  0  0
  -13.8413    5.2682  -17.2697 C   0  0  0  0  0  0  0  0  0  0  0  0
  -13.2401    6.4516  -17.7122 C   0  0  0  0  0  0  0  0  0  0  0  0
  -12.0990    9.3853  -16.7930 C   0  0  0  0  0  0  0  0  0  0  0  0
  -11.6157    8.1647  -17.3577 O   0  0  0  0  0  0  0  0  0  0  0  0
  -13.7635    6.8499  -18.9076 O   0  0  0  0  0  0  0  0  0  0  0  0
  -14.8121    7.7993  -18.9537 C   0  0  0  0  0  0  0  0  0  0  0  0
 30 31  1  0  0  0
 31 20  1  0  0  0
 20 21  1  0  0  0
 20 29  2  0  0  0
 21 22  2  0  0  0
 22 23  1  0  0  0
 22 27  1  0  0  0
 23 24  2  0  0  0
 24 25  1  0  0  0
 25 26  2  0  0  0
 26 19  1  0  0  0
 26 27  1  0  0  0
 19  1  1  0  0  0
  1  2  1  0  0  0
  1  6  2  0  0  0
  2  3  2  0  0  0
  3  4  1  0  0  0
  4  7  1  0  0  0
  4  5  2  0  0  0
  7  8  1  0  0  0
  7 11  1  0  0  0
  8  9  2  0  0  0
  8 10  1  0  0  0
 10 13  1  0  0  0
 10 12  1  0  0  0
 13 14  1  0  0  0
 13 18  2  0  0  0
 14 15  2  0  0  0
 15 16  1  0  0  0
 16 17  2  0  0  0
 17 18  1  0  0  0
  5  6  1  0  0  0
 27 28  2  0  0  0
 28 29  1  0  0  0
 29 32  1  0  0  0
 32 33  1  0  0  0
M  END
> <minimizedAffinity>
-8.53712

$$$$
