CHEMBL4776567


 33 36  0  0  0  0  0  0  0  0999 V2000
  -26.6774   -1.7968  -10.6259 C   0  0  0  0  0  0  0  0  0  0  0  0
  -25.3880   -2.3323  -10.6341 C   0  0  0  0  0  0  0  0  0  0  0  0
  -24.3593   -1.7061  -11.3484 C   0  0  0  0  0  0  0  0  0  0  0  0
  -24.6028   -0.5415  -12.0766 C   0  0  0  0  0  0  0  0  0  0  0  0
  -25.9143   -0.0645  -12.1591 C   0  0  0  0  0  0  0  0  0  0  0  0
  -26.9397   -0.7003  -11.4544 C   0  0  0  0  0  0  0  0  0  0  0  0
  -23.5925    0.2323  -12.6901 N   0  0  0  0  0  0  0  0  0  0  0  0
  -23.2203    0.2009  -14.0249 C   0  0  0  0  0  0  0  0  0  0  0  0
  -23.8151   -0.3854  -14.9219 O   0  0  0  0  0  0  0  0  0  0  0  0
  -23.0212    0.7731  -12.0553 H   0  0  0  0  0  0  0  0  0  0  0  0
  -21.9547    0.9295  -14.3484 C   0  0  0  0  0  0  0  0  0  0  0  0
  -20.8526    0.2105  -14.8340 C   0  0  0  0  0  0  0  0  0  0  0  0
  -19.6722    0.8755  -15.1737 C   0  0  0  0  0  0  0  0  0  0  0  0
  -19.5811    2.2568  -15.0387 C   0  0  0  0  0  0  0  0  0  0  0  0
  -20.6578    2.9747  -14.5277 C   0  0  0  0  0  0  0  0  0  0  0  0
  -21.8552    2.3275  -14.1694 C   0  0  0  0  0  0  0  0  0  0  0  0
  -22.9725    3.1535  -13.5891 C   0  0  0  0  0  0  0  0  0  0  0  0
  -27.6839   -2.3774   -9.8289 N   0  0  0  0  0  0  0  0  0  0  0  0
  -27.7982   -3.3713   -9.9933 H   0  0  0  0  0  0  0  0  0  0  0  0
  -29.9120   -4.8002   -5.9493 C   0  0  0  0  0  0  0  0  0  0  0  0
  -29.4866   -3.5304   -5.5160 C   0  0  0  0  0  0  0  0  0  0  0  0
  -28.8129   -2.6451   -6.3431 C   0  0  0  0  0  0  0  0  0  0  0  0
  -28.5405   -1.4197   -5.8829 N   0  0  0  0  0  0  0  0  0  0  0  0
  -27.9795   -0.5703   -6.7462 C   0  0  0  0  0  0  0  0  0  0  0  0
  -27.6682   -0.8345   -8.0145 N   0  0  0  0  0  0  0  0  0  0  0  0
  -27.9265   -2.0777   -8.4627 C   0  0  0  0  0  0  0  0  0  0  0  0
  -28.4947   -3.0583   -7.6366 C   0  0  0  0  0  0  0  0  0  0  0  0
  -28.8063   -4.3747   -8.0399 C   0  0  0  0  0  0  0  0  0  0  0  0
  -29.5196   -5.2492   -7.2139 C   0  0  0  0  0  0  0  0  0  0  0  0
  -31.1948   -4.9762   -3.9638 C   0  0  0  0  0  0  0  0  0  0  0  0
  -30.6944   -5.5954   -5.1531 O   0  0  0  0  0  0  0  0  0  0  0  0
  -29.7496   -6.4394   -7.8396 O   0  0  0  0  0  0  0  0  0  0  0  0
  -28.6947   -7.3645   -8.0299 C   0  0  0  0  0  0  0  0  0  0  0  0
 30 31  1  0  0  0
 31 20  1  0  0  0
 20 21  1  0  0  0
 20 29  2  0  0  0
 21 22  2  0  0  0
 22 23  1  0  0  0
 22 27  1  0  0  0
 23 24  2  0  0  0
 24 25  1  0  0  0
 25 26  2  0  0  0
 26 18  1  0  0  0
 26 27  1  0  0  0
 18  1  1  0  0  0
 18 19  1  0  0  0
  1  2  1  0  0  0
  1  6  2  0  0  0
  2  3  2  0  0  0
  3  4  1  0  0  0
  4  7  1  0  0  0
  4  5  2  0  0  0
  7  8  1  0  0  0
  7 10  1  0  0  0
  8  9  2  0  0  0
  8 11  1  0  0  0
 11 12  1  0  0  0
 11 16  2  0  0  0
 12 13  2  0  0  0
 13 14  1  0  0  0
 14 15  2  0  0  0
 15 16  1  0  0  0
 16 17  1  0  0  0
  5  6  1  0  0  0
 27 28  2  0  0  0
 28 29  1  0  0  0
 29 32  1  0  0  0
 32 33  1  0  0  0
M  END
> <minimizedAffinity>
-8.99494

$$$$
