CHEMBL4473172


 33 36  0  0  0  0  0  0  0  0999 V2000
  -25.8577   -1.6713  -11.8381 C   0  0  0  0  0  0  0  0  0  0  0  0
  -25.8121   -1.5735  -13.2276 C   0  0  0  0  0  0  0  0  0  0  0  0
  -24.7067   -0.9850  -13.8572 C   0  0  0  0  0  0  0  0  0  0  0  0
  -23.6276   -0.4765  -13.1255 C   0  0  0  0  0  0  0  0  0  0  0  0
  -23.6865   -0.5557  -11.7289 C   0  0  0  0  0  0  0  0  0  0  0  0
  -24.7935   -1.1442  -11.0916 C   0  0  0  0  0  0  0  0  0  0  0  0
  -26.7935   -2.7250   -9.8297 N   0  0  0  0  0  0  0  0  0  0  0  0
  -27.0258   -2.2661  -11.1222 C   0  0  0  0  0  0  0  0  0  0  0  0
  -28.1108   -2.3044  -11.6976 O   0  0  0  0  0  0  0  0  0  0  0  0
  -25.8945   -2.5954   -9.3652 H   0  0  0  0  0  0  0  0  0  0  0  0
  -26.7568   -0.7964   -7.8142 O   0  0  0  0  0  0  0  0  0  0  0  0
  -27.6380   -1.4940   -7.3567 C   0  0  0  0  0  0  0  0  0  0  0  0
  -28.3467   -1.3560   -6.1812 N   0  0  0  0  0  0  0  0  0  0  0  0
  -29.2721   -2.3884   -6.0416 C   0  0  0  0  0  0  0  0  0  0  0  0
  -30.1442   -2.5983   -4.9938 C   0  0  0  0  0  0  0  0  0  0  0  0
  -30.9840   -3.7171   -5.0691 C   0  0  0  0  0  0  0  0  0  0  0  0
  -30.9385   -4.5877   -6.1789 C   0  0  0  0  0  0  0  0  0  0  0  0
  -30.0490   -4.3631   -7.2315 C   0  0  0  0  0  0  0  0  0  0  0  0
  -29.2269   -3.2580   -7.1321 C   0  0  0  0  0  0  0  0  0  0  0  0
  -28.1845   -2.7590   -8.0234 C   0  0  0  0  0  0  0  0  0  0  0  0
  -27.8133   -3.3173   -9.1316 N   0  0  0  0  0  0  0  0  0  0  0  0
  -28.1978   -0.6053   -5.5234 H   0  0  0  0  0  0  0  0  0  0  0  0
  -22.4821    0.1146  -13.7252 N   0  0  0  0  0  0  0  0  0  0  0  0
  -22.2930    1.4731  -13.9369 C   0  0  0  0  0  0  0  0  0  0  0  0
  -23.0702    2.3660  -13.6054 O   0  0  0  0  0  0  0  0  0  0  0  0
  -21.7377   -0.5196  -13.9807 H   0  0  0  0  0  0  0  0  0  0  0  0
  -21.0407    1.9133  -14.6205 C   0  0  0  0  0  0  0  0  0  0  0  0
  -20.7663    3.2403  -14.9714 C   0  0  0  0  0  0  0  0  0  0  0  0
  -19.5084    3.5752  -15.4968 C   0  0  0  0  0  0  0  0  0  0  0  0
  -18.5306    2.5927  -15.6688 C   0  0  0  0  0  0  0  0  0  0  0  0
  -16.9750    3.0208  -16.2652 Cl  0  0  0  0  0  0  0  0  0  0  0  0
  -18.7986    1.2696  -15.3376 C   0  0  0  0  0  0  0  0  0  0  0  0
  -20.0491    0.9340  -14.8175 C   0  0  0  0  0  0  0  0  0  0  0  0
 11 12  2  0  0  0
 12 13  1  0  0  0
 12 20  1  0  0  0
 13 14  1  0  0  0
 13 22  1  0  0  0
 14 15  1  0  0  0
 14 19  2  0  0  0
 15 16  2  0  0  0
 16 17  1  0  0  0
 17 18  2  0  0  0
 18 19  1  0  0  0
 19 20  1  0  0  0
 20 21  2  0  0  0
 21  7  1  0  0  0
  7  8  1  0  0  0
  7 10  1  0  0  0
  8  9  2  0  0  0
  8  1  1  0  0  0
  1  2  1  0  0  0
  1  6  2  0  0  0
  2  3  2  0  0  0
  3  4  1  0  0  0
  4 23  1  0  0  0
  4  5  2  0  0  0
 23 24  1  0  0  0
 23 26  1  0  0  0
 24 25  2  0  0  0
 24 27  1  0  0  0
 27 28  1  0  0  0
 27 33  2  0  0  0
 28 29  2  0  0  0
 29 30  1  0  0  0
 30 31  1  0  0  0
 30 32  2  0  0  0
 32 33  1  0  0  0
  5  6  1  0  0  0
M  END
> <minimizedAffinity>
-9.79804

$$$$
