CHEMBL1914911


 25 28  0  0  0  0  0  0  0  0999 V2000
  -30.3871   -5.7381   -6.4006 C   0  0  0  0  0  0  0  0  0  0  0  0
  -29.6400   -6.8492   -6.2287 C   0  0  0  0  0  0  0  0  0  0  0  0
  -28.3283   -7.0133   -5.4990 C   0  0  0  0  0  0  0  0  0  0  0  0
  -27.8319   -6.3132   -4.6430 O   0  0  0  0  0  0  0  0  0  0  0  0
  -27.8167   -8.2131   -5.9625 N   0  0  0  0  0  0  0  0  0  0  0  0
  -28.7512   -8.9013   -6.7261 C   0  0  0  0  0  0  0  0  0  0  0  0
  -28.6296  -10.1880   -7.2101 C   0  0  0  0  0  0  0  0  0  0  0  0
  -29.7576  -10.7452   -7.8150 C   0  0  0  0  0  0  0  0  0  0  0  0
  -30.9406  -10.0001   -7.9319 C   0  0  0  0  0  0  0  0  0  0  0  0
  -32.0222  -10.5820   -8.4684 F   0  0  0  0  0  0  0  0  0  0  0  0
  -31.0323   -8.6826   -7.4813 C   0  0  0  0  0  0  0  0  0  0  0  0
  -29.9174   -8.1388   -6.8778 C   0  0  0  0  0  0  0  0  0  0  0  0
  -26.9456   -8.5869   -5.6215 H   0  0  0  0  0  0  0  0  0  0  0  0
  -28.3316   -1.2253   -6.2217 C   0  0  0  0  0  0  0  0  0  0  0  0
  -27.7207   -1.2602   -7.4886 C   0  0  0  0  0  0  0  0  0  0  0  0
  -27.9524   -2.3005   -8.3863 C   0  0  0  0  0  0  0  0  0  0  0  0
  -28.7663   -3.3804   -8.0308 C   0  0  0  0  0  0  0  0  0  0  0  0
  -29.3342   -3.4294   -6.7403 C   0  0  0  0  0  0  0  0  0  0  0  0
  -30.0931   -4.3999   -6.0053 C   0  0  0  0  0  0  0  0  0  0  0  0
  -30.3552   -3.8561   -4.7705 C   0  0  0  0  0  0  0  0  0  0  0  0
  -29.8350   -2.5950   -4.7378 N   0  0  0  0  0  0  0  0  0  0  0  0
  -29.1294   -2.3359   -5.8909 C   0  0  0  0  0  0  0  0  0  0  0  0
  -29.8979   -1.9649   -3.9504 H   0  0  0  0  0  0  0  0  0  0  0  0
  -29.2051    0.9537   -5.3373 C   0  0  0  0  0  0  0  0  0  0  0  0
  -28.0815   -0.0716   -5.2870 C   0  0  0  0  0  0  0  0  0  0  0  0
 24 25  1  0  0  0
 25 14  1  0  0  0
 14 15  1  0  0  0
 14 22  2  0  0  0
 15 16  2  0  0  0
 16 17  1  0  0  0
 17 18  2  0  0  0
 18 19  1  0  0  0
 18 22  1  0  0  0
 19  1  1  0  0  0
 19 20  2  0  0  0
  1  2  2  0  0  0
  2  3  1  0  0  0
  2 12  1  0  0  0
  3  4  2  0  0  0
  3  5  1  0  0  0
  5  6  1  0  0  0
  5 13  1  0  0  0
  6  7  1  0  0  0
  6 12  2  0  0  0
  7  8  2  0  0  0
  8  9  1  0  0  0
  9 10  1  0  0  0
  9 11  2  0  0  0
 11 12  1  0  0  0
 20 21  1  0  0  0
 21 22  1  0  0  0
 21 23  1  0  0  0
M  END
> <minimizedAffinity>
-8.70965

$$$$
