CHEMBL3906253


 40 44  0  0  0  0  0  0  0  0999 V2000
  -15.3688    2.0963  -15.8629 N   0  0  0  0  0  0  0  0  0  0  0  0
  -16.7649    2.3047  -15.6420 C   0  0  0  0  0  0  0  0  0  0  0  0
  -17.2498    3.6204  -15.6912 C   0  0  0  0  0  0  0  0  0  0  0  0
  -18.5575    3.9470  -15.3629 C   0  0  0  0  0  0  0  0  0  0  0  0
  -19.4651    2.9870  -14.9885 C   0  0  0  0  0  0  0  0  0  0  0  0
  -20.6657    3.4466  -14.6256 N   0  0  0  0  0  0  0  0  0  0  0  0
  -21.5586    2.5282  -14.2215 C   0  0  0  0  0  0  0  0  0  0  0  0
  -21.2958    1.1677  -14.2068 C   0  0  0  0  0  0  0  0  0  0  0  0
  -20.0724    0.6886  -14.6039 N   0  0  0  0  0  0  0  0  0  0  0  0
  -19.1065    1.6149  -14.9826 C   0  0  0  0  0  0  0  0  0  0  0  0
  -17.7431    1.3142  -15.3343 C   0  0  0  0  0  0  0  0  0  0  0  0
  -22.3602    0.2862  -13.7150 C   0  0  0  0  0  0  0  0  0  0  0  0
  -22.5476   -0.2217  -12.3970 C   0  0  0  0  0  0  0  0  0  0  0  0
  -23.6606   -0.9389  -12.2575 N   0  0  0  0  0  0  0  0  0  0  0  0
  -24.2002   -0.9164  -13.4867 N   0  0  0  0  0  0  0  0  0  0  0  0
  -25.4389   -1.6265  -13.7130 C   0  0  0  0  0  0  0  0  0  0  0  0
  -23.4724   -0.1813  -14.3894 C   0  0  0  0  0  0  0  0  0  0  0  0
  -14.3837    3.1400  -15.9548 C   0  0  0  0  0  0  0  0  0  0  0  0
  -13.4344    3.3621  -14.9378 C   0  0  0  0  0  0  0  0  0  0  0  0
  -12.5139    4.4108  -15.0165 C   0  0  0  0  0  0  0  0  0  0  0  0
  -12.4920    5.2261  -16.1470 C   0  0  0  0  0  0  0  0  0  0  0  0
  -13.3821    5.0071  -17.1939 C   0  0  0  0  0  0  0  0  0  0  0  0
  -14.3282    3.9795  -17.0847 C   0  0  0  0  0  0  0  0  0  0  0  0
  -11.5863    4.7434  -14.0666 O   0  0  0  0  0  0  0  0  0  0  0  0
  -11.0410    6.0554  -14.1132 C   0  0  0  0  0  0  0  0  0  0  0  0
  -13.4228    5.7224  -18.3614 O   0  0  0  0  0  0  0  0  0  0  0  0
  -14.5978    5.5837  -19.1556 C   0  0  0  0  0  0  0  0  0  0  0  0
  -14.8038    0.7526  -16.1590 C   0  0  0  0  0  0  0  0  0  0  0  0
  -15.2380   -0.9750  -13.9678 C   0  0  0  0  0  0  0  0  0  0  0  0
  -15.0375   -0.1773  -14.9795 C   0  0  0  0  0  0  0  0  0  0  0  0
  -15.7866   -4.0647  -12.2484 C   0  0  0  0  0  0  0  0  0  0  0  0
  -16.0052   -3.6511  -10.9463 C   0  0  0  0  0  0  0  0  0  0  0  0
  -15.9159   -2.3006  -10.7267 C   0  0  0  0  0  0  0  0  0  0  0  0
  -15.6461   -1.4120  -11.6950 N   0  0  0  0  0  0  0  0  0  0  0  0
  -15.4559   -1.9192  -12.9220 C   0  0  0  0  0  0  0  0  0  0  0  0
  -15.5121   -3.2128  -13.2680 N   0  0  0  0  0  0  0  0  0  0  0  0
  -15.8535   -5.5295  -12.5207 C   0  0  0  0  0  0  0  0  0  0  0  0
  -16.3237   -5.9910  -13.5485 O   0  0  0  0  0  0  0  0  0  0  0  0
  -14.0535   -6.7657  -11.6981 C   0  0  0  0  0  0  0  0  0  0  0  0
  -15.3708   -6.2588  -11.4816 O   0  0  0  0  0  0  0  0  0  0  0  0
 39 40  1  0  0  0
 40 37  1  0  0  0
 37 38  2  0  0  0
 37 31  1  0  0  0
 31 32  1  0  0  0
 31 36  2  0  0  0
 32 33  2  0  0  0
 33 34  1  0  0  0
 34 35  2  0  0  0
 35 29  1  0  0  0
 35 36  1  0  0  0
 29 30  3  0  0  0
 30 28  1  0  0  0
 28  1  1  0  0  0
  1 18  1  0  0  0
  1  2  1  0  0  0
 18 19  1  0  0  0
 18 23  2  0  0  0
 19 20  2  0  0  0
 20 24  1  0  0  0
 20 21  1  0  0  0
 24 25  1  0  0  0
 21 22  2  0  0  0
 22 26  1  0  0  0
 22 23  1  0  0  0
 26 27  1  0  0  0
  2  3  1  0  0  0
  2 11  2  0  0  0
  3  4  2  0  0  0
  4  5  1  0  0  0
  5  6  1  0  0  0
  5 10  2  0  0  0
  6  7  2  0  0  0
  7  8  1  0  0  0
  8 12  1  0  0  0
  8  9  2  0  0  0
 12 13  1  0  0  0
 12 17  2  0  0  0
 13 14  2  0  0  0
 14 15  1  0  0  0
 15 16  1  0  0  0
 15 17  1  0  0  0
  9 10  1  0  0  0
 10 11  1  0  0  0
M  END
> <minimizedAffinity>
-9.20153

$$$$
