CHEMBL513422


 31 34  0  0  0  0  0  0  0  0999 V2000
  -25.4195   -1.8741  -12.3682 C   0  0  0  0  0  0  0  0  0  0  0  0
  -24.2804   -1.6021  -11.6000 C   0  0  0  0  0  0  0  0  0  0  0  0
  -23.1989   -0.9250  -12.1507 C   0  0  0  0  0  0  0  0  0  0  0  0
  -23.2425   -0.5296  -13.4866 C   0  0  0  0  0  0  0  0  0  0  0  0
  -24.3289   -0.9058  -14.2881 C   0  0  0  0  0  0  0  0  0  0  0  0
  -25.4103   -1.5991  -13.7336 C   0  0  0  0  0  0  0  0  0  0  0  0
  -22.1855    0.3313  -14.0132 C   0  0  0  0  0  0  0  0  0  0  0  0
  -21.0009   -0.2928  -14.6883 C   0  0  0  0  0  0  0  0  0  0  0  0
  -19.9907    0.3257  -15.2166 N   0  0  0  0  0  0  0  0  0  0  0  0
  -20.0347    1.6885  -15.1407 C   0  0  0  0  0  0  0  0  0  0  0  0
  -19.1534    2.6514  -15.5722 C   0  0  0  0  0  0  0  0  0  0  0  0
  -19.7332    3.8706  -15.1962 C   0  0  0  0  0  0  0  0  0  0  0  0
  -20.9001    3.7235  -14.5681 N   0  0  0  0  0  0  0  0  0  0  0  0
  -21.1052    2.3717  -14.5519 N   0  0  0  0  0  0  0  0  0  0  0  0
  -22.2101    1.6807  -13.9881 C   0  0  0  0  0  0  0  0  0  0  0  0
  -23.2370    2.4523  -13.4426 N   0  0  0  0  0  0  0  0  0  0  0  0
  -22.9239    3.4045  -13.2371 H   0  0  0  0  0  0  0  0  0  0  0  0
  -23.7413    2.0076  -12.6820 H   0  0  0  0  0  0  0  0  0  0  0  0
  -26.5871   -2.3953  -11.7741 N   0  0  0  0  0  0  0  0  0  0  0  0
  -26.9315   -3.2943  -12.0927 H   0  0  0  0  0  0  0  0  0  0  0  0
  -27.2966   -1.8018  -10.7411 C   0  0  0  0  0  0  0  0  0  0  0  0
  -28.0208   -0.3249  -11.0112 S   0  0  0  0  0  0  0  0  0  0  0  0
  -27.1807   -2.4812   -9.5448 N   0  0  0  0  0  0  0  0  0  0  0  0
  -26.4059   -3.1340   -9.5395 H   0  0  0  0  0  0  0  0  0  0  0  0
  -28.1818   -0.4816   -5.1749 C   0  0  0  0  0  0  0  0  0  0  0  0
  -28.4312   -1.5553   -6.1931 C   0  0  0  0  0  0  0  0  0  0  0  0
  -29.3246   -2.5956   -5.9305 C   0  0  0  0  0  0  0  0  0  0  0  0
  -29.5526   -3.5845   -6.8870 C   0  0  0  0  0  0  0  0  0  0  0  0
  -28.8882   -3.5511   -8.1153 C   0  0  0  0  0  0  0  0  0  0  0  0
  -27.9909   -2.5258   -8.3957 C   0  0  0  0  0  0  0  0  0  0  0  0
  -27.7655   -1.5318   -7.4272 C   0  0  0  0  0  0  0  0  0  0  0  0
 25 26  1  0  0  0
 26 27  1  0  0  0
 26 31  2  0  0  0
 27 28  2  0  0  0
 28 29  1  0  0  0
 29 30  2  0  0  0
 30 23  1  0  0  0
 30 31  1  0  0  0
 23 21  1  0  0  0
 23 24  1  0  0  0
 21 22  2  0  0  0
 21 19  1  0  0  0
 19  1  1  0  0  0
 19 20  1  0  0  0
  1  2  1  0  0  0
  1  6  2  0  0  0
  2  3  2  0  0  0
  3  4  1  0  0  0
  4  7  1  0  0  0
  4  5  2  0  0  0
  7  8  1  0  0  0
  7 15  2  0  0  0
  8  9  2  0  0  0
  9 10  1  0  0  0
 10 11  2  0  0  0
 10 14  1  0  0  0
 11 12  1  0  0  0
 12 13  2  0  0  0
 13 14  1  0  0  0
 14 15  1  0  0  0
 15 16  1  0  0  0
 16 17  1  0  0  0
 16 18  1  0  0  0
  5  6  1  0  0  0
M  END
> <minimizedAffinity>
-9.46695

$$$$
