CHEMBL2003456


 18 20  0  0  0  0  0  0  0  0999 V2000
  -29.0809   -8.7597   -3.1842 O   0  0  0  0  0  0  0  0  0  0  0  0
  -29.0239   -7.6737   -3.7315 C   0  0  0  0  0  0  0  0  0  0  0  0
  -29.1174   -6.4223   -3.1039 N   0  0  0  0  0  0  0  0  0  0  0  0
  -28.9929   -5.4422   -4.0803 C   0  0  0  0  0  0  0  0  0  0  0  0
  -29.0074   -4.0718   -3.9779 C   0  0  0  0  0  0  0  0  0  0  0  0
  -28.8319   -3.3312   -5.1630 C   0  0  0  0  0  0  0  0  0  0  0  0
  -28.6660   -4.0757   -6.3597 C   0  0  0  0  0  0  0  0  0  0  0  0
  -28.6635   -5.4350   -6.4719 N   0  0  0  0  0  0  0  0  0  0  0  0
  -28.8253   -6.0613   -5.3106 C   0  0  0  0  0  0  0  0  0  0  0  0
  -28.8490   -7.4300   -5.0956 N   0  0  0  0  0  0  0  0  0  0  0  0
  -29.2384   -6.2982   -2.1123 H   0  0  0  0  0  0  0  0  0  0  0  0
  -28.7455   -8.1281   -5.8105 H   0  0  0  0  0  0  0  0  0  0  0  0
  -28.8133   -1.8504   -5.1584 C   0  0  0  0  0  0  0  0  0  0  0  0
  -29.9661   -1.1029   -5.4668 C   0  0  0  0  0  0  0  0  0  0  0  0
  -29.9521    0.2957   -5.4730 C   0  0  0  0  0  0  0  0  0  0  0  0
  -28.7850    0.9824   -5.1577 C   0  0  0  0  0  0  0  0  0  0  0  0
  -27.6328    0.2713   -4.8404 C   0  0  0  0  0  0  0  0  0  0  0  0
  -27.6464   -1.1279   -4.8466 C   0  0  0  0  0  0  0  0  0  0  0  0
  1  2  2  0  0  0
  2  3  1  0  0  0
  2 10  1  0  0  0
  3  4  1  0  0  0
  3 11  1  0  0  0
  4  5  1  0  0  0
  4  9  2  0  0  0
  5  6  2  0  0  0
  6 13  1  0  0  0
  6  7  1  0  0  0
 13 14  1  0  0  0
 13 18  2  0  0  0
 14 15  2  0  0  0
 15 16  1  0  0  0
 16 17  2  0  0  0
 17 18  1  0  0  0
  7  8  2  0  0  0
  8  9  1  0  0  0
  9 10  1  0  0  0
 10 12  1  0  0  0
M  END
> <minimizedAffinity>
-7.41801

$$$$
