CHEMBL1965660


 28 30  0  0  0  0  0  0  0  0999 V2000
  -30.9123   -5.6905   -4.7847 C   0  0  0  0  0  0  0  0  0  0  0  0
  -31.1002   -6.9340   -5.4596 C   0  0  0  0  0  0  0  0  0  0  0  0
  -30.3181   -6.9597   -6.5958 C   0  0  0  0  0  0  0  0  0  0  0  0
  -29.6710   -5.7463   -6.6327 N   0  0  0  0  0  0  0  0  0  0  0  0
  -29.9990   -4.9514   -5.5451 C   0  0  0  0  0  0  0  0  0  0  0  0
  -29.0042   -5.4980   -7.3543 H   0  0  0  0  0  0  0  0  0  0  0  0
  -30.1233   -8.0034   -7.6011 C   0  0  0  0  0  0  0  0  0  0  0  0
  -28.9710   -8.0690   -8.3556 C   0  0  0  0  0  0  0  0  0  0  0  0
  -28.9202   -9.0844   -9.2733 C   0  0  0  0  0  0  0  0  0  0  0  0
  -29.9115   -9.9729   -9.4420 N   0  0  0  0  0  0  0  0  0  0  0  0
  -30.9781   -9.8372   -8.6492 C   0  0  0  0  0  0  0  0  0  0  0  0
  -32.0012  -10.7445   -8.8302 N   0  0  0  0  0  0  0  0  0  0  0  0
  -31.1425   -8.8751   -7.7342 N   0  0  0  0  0  0  0  0  0  0  0  0
  -31.9414  -11.1321   -9.7619 H   0  0  0  0  0  0  0  0  0  0  0  0
  -32.8834  -10.3345   -8.5563 H   0  0  0  0  0  0  0  0  0  0  0  0
  -29.4436   -3.5861   -5.3661 C   0  0  0  0  0  0  0  0  0  0  0  0
  -30.1509   -2.4937   -5.9043 C   0  0  0  0  0  0  0  0  0  0  0  0
  -29.7287   -1.1736   -5.7162 C   0  0  0  0  0  0  0  0  0  0  0  0
  -28.5573   -0.9197   -5.0174 C   0  0  0  0  0  0  0  0  0  0  0  0
  -28.0363    0.7017   -4.7809 Cl  0  0  0  0  0  0  0  0  0  0  0  0
  -27.8059   -1.9741   -4.5110 C   0  0  0  0  0  0  0  0  0  0  0  0
  -28.2451   -3.2969   -4.6784 C   0  0  0  0  0  0  0  0  0  0  0  0
  -27.2370   -4.5218   -3.9783 Cl  0  0  0  0  0  0  0  0  0  0  0  0
  -31.3995   -6.2182   -2.5085 N   0  0  0  0  0  0  0  0  0  0  0  0
  -31.5412   -5.3117   -3.5211 C   0  0  0  0  0  0  0  0  0  0  0  0
  -32.1770   -4.2781   -3.3351 O   0  0  0  0  0  0  0  0  0  0  0  0
  -31.8918   -6.0279   -1.6477 H   0  0  0  0  0  0  0  0  0  0  0  0
  -30.9967   -7.1328   -2.6487 H   0  0  0  0  0  0  0  0  0  0  0  0
 24 25  1  0  0  0
 24 27  1  0  0  0
 24 28  1  0  0  0
 25 26  2  0  0  0
 25  1  1  0  0  0
  1  2  1  0  0  0
  1  5  2  0  0  0
  2  3  2  0  0  0
  3  7  1  0  0  0
  3  4  1  0  0  0
  7  8  1  0  0  0
  7 13  2  0  0  0
  8  9  2  0  0  0
  9 10  1  0  0  0
 10 11  2  0  0  0
 11 12  1  0  0  0
 11 13  1  0  0  0
 12 14  1  0  0  0
 12 15  1  0  0  0
  4  5  1  0  0  0
  4  6  1  0  0  0
  5 16  1  0  0  0
 16 17  1  0  0  0
 16 22  2  0  0  0
 17 18  2  0  0  0
 18 19  1  0  0  0
 19 20  1  0  0  0
 19 21  2  0  0  0
 21 22  1  0  0  0
 22 23  1  0  0  0
M  END
> <minimizedAffinity>
-8.65790

$$$$
