CHEMBL3671551


 35 37  0  0  0  0  0  0  0  0999 V2000
  -28.6612   -5.0264   -5.4052 C   0  0  0  0  0  0  0  0  0  0  0  0
  -28.3576   -6.3295   -5.0212 C   0  0  0  0  0  0  0  0  0  0  0  0
  -28.7450   -7.4108   -5.8347 C   0  0  0  0  0  0  0  0  0  0  0  0
  -28.6735   -8.7529   -5.4371 C   0  0  0  0  0  0  0  0  0  0  0  0
  -29.0867   -9.7494   -6.2409 N   0  0  0  0  0  0  0  0  0  0  0  0
  -29.5958   -9.4069   -7.4251 C   0  0  0  0  0  0  0  0  0  0  0  0
  -29.7553   -8.1610   -7.8796 N   0  0  0  0  0  0  0  0  0  0  0  0
  -29.3459   -7.1717   -7.0809 C   0  0  0  0  0  0  0  0  0  0  0  0
  -29.5713   -5.8562   -7.4734 C   0  0  0  0  0  0  0  0  0  0  0  0
  -29.2342   -4.7729   -6.6569 C   0  0  0  0  0  0  0  0  0  0  0  0
  -29.6729   -3.6664   -3.6450 C   0  0  0  0  0  0  0  0  0  0  0  0
  -29.5082   -3.0314   -2.6054 O   0  0  0  0  0  0  0  0  0  0  0  0
  -28.5958   -4.0318   -4.4193 N   0  0  0  0  0  0  0  0  0  0  0  0
  -27.7489   -3.9933   -3.8600 H   0  0  0  0  0  0  0  0  0  0  0  0
  -31.6889   -4.9973   -3.3103 C   0  0  0  0  0  0  0  0  0  0  0  0
  -31.0184   -4.1355   -4.0856 C   0  0  0  0  0  0  0  0  0  0  0  0
  -28.2538   -9.0757   -4.1193 N   0  0  0  0  0  0  0  0  0  0  0  0
  -28.4341   -8.3071   -3.4784 H   0  0  0  0  0  0  0  0  0  0  0  0
  -27.0368   -9.7350   -3.8301 C   0  0  0  0  0  0  0  0  0  0  0  0
  -25.8079   -9.0853   -4.0137 C   0  0  0  0  0  0  0  0  0  0  0  0
  -24.6189   -9.6721   -3.5827 C   0  0  0  0  0  0  0  0  0  0  0  0
  -24.6508  -10.9331   -2.9915 C   0  0  0  0  0  0  0  0  0  0  0  0
  -23.0574  -11.6721   -2.2949 Br  0  0  0  0  0  0  0  0  0  0  0  0
  -25.8487  -11.6357   -2.8808 C   0  0  0  0  0  0  0  0  0  0  0  0
  -27.0283  -11.0336   -3.3093 C   0  0  0  0  0  0  0  0  0  0  0  0
  -28.1877  -11.6974   -3.1746 F   0  0  0  0  0  0  0  0  0  0  0  0
  -29.5917   -3.5324   -7.1314 O   0  0  0  0  0  0  0  0  0  0  0  0
  -28.9286   -3.1691   -8.3515 C   0  0  0  0  0  0  0  0  0  0  0  0
  -27.7019   -2.2689   -8.0968 C   0  0  0  0  0  0  0  0  0  0  0  0
  -27.1552   -1.7266   -9.4204 C   0  0  0  0  0  0  0  0  0  0  0  0
  -28.0486   -1.1424   -7.2202 N   0  0  0  0  0  0  0  0  0  0  0  0
  -27.6206   -1.0554   -5.9151 C   0  0  0  0  0  0  0  0  0  0  0  0
  -28.1916    0.1082   -5.1474 C   0  0  0  0  0  0  0  0  0  0  0  0
  -26.8777   -1.8764   -5.3877 O   0  0  0  0  0  0  0  0  0  0  0  0
  -28.6240   -0.3997   -7.5974 H   0  0  0  0  0  0  0  0  0  0  0  0
 15 16  2  0  0  0
 16 11  1  0  0  0
 11 12  2  0  0  0
 11 13  1  0  0  0
 13  1  1  0  0  0
 13 14  1  0  0  0
  1  2  1  0  0  0
  1 10  2  0  0  0
  2  3  2  0  0  0
  3  4  1  0  0  0
  3  8  1  0  0  0
  4 17  1  0  0  0
  4  5  2  0  0  0
 17 19  1  0  0  0
 17 18  1  0  0  0
 19 20  1  0  0  0
 19 25  2  0  0  0
 20 21  2  0  0  0
 21 22  1  0  0  0
 22 23  1  0  0  0
 22 24  2  0  0  0
 24 25  1  0  0  0
 25 26  1  0  0  0
  5  6  1  0  0  0
  6  7  2  0  0  0
  7  8  1  0  0  0
  8  9  2  0  0  0
  9 10  1  0  0  0
 10 27  1  0  0  0
 27 28  1  0  0  0
 28 29  1  0  0  0
 29 30  1  0  0  0
 29 31  1  0  0  0
 31 32  1  0  0  0
 31 35  1  0  0  0
 32 33  1  0  0  0
 32 34  2  0  0  0
M  END
> <minimizedAffinity>
-8.28763

$$$$
