CHEMBL3930088


 38 41  0  0  0  0  0  0  0  0999 V2000
  -26.3986  -10.4866   -6.2995 N   0  0  0  0  0  0  0  0  0  0  0  0
  -29.1168   -5.4784   -4.2468 C   0  0  0  0  0  0  0  0  0  0  0  0
  -29.8934   -6.1036   -3.2876 C   0  0  0  0  0  0  0  0  0  0  0  0
  -29.8982   -7.4500   -3.1127 N   0  0  0  0  0  0  0  0  0  0  0  0
  -29.0804   -8.1617   -3.9163 C   0  0  0  0  0  0  0  0  0  0  0  0
  -28.9817   -9.5348   -3.7827 C   0  0  0  0  0  0  0  0  0  0  0  0
  -28.0989  -10.2837   -4.5695 C   0  0  0  0  0  0  0  0  0  0  0  0
  -27.2954   -9.6815   -5.5549 C   0  0  0  0  0  0  0  0  0  0  0  0
  -27.4521   -8.3017   -5.7166 C   0  0  0  0  0  0  0  0  0  0  0  0
  -28.2946   -7.5355   -4.9079 C   0  0  0  0  0  0  0  0  0  0  0  0
  -28.3292   -6.2019   -5.0779 N   0  0  0  0  0  0  0  0  0  0  0  0
  -29.4262   -3.2836   -5.4697 C   0  0  0  0  0  0  0  0  0  0  0  0
  -29.0297   -4.0313   -4.3671 C   0  0  0  0  0  0  0  0  0  0  0  0
  -28.5117   -3.0756   -3.4665 C   0  0  0  0  0  0  0  0  0  0  0  0
  -28.5294   -1.8377   -3.9600 N   0  0  0  0  0  0  0  0  0  0  0  0
  -29.0344   -1.9914   -5.1981 N   0  0  0  0  0  0  0  0  0  0  0  0
  -29.0654   -0.8560   -6.0884 C   0  0  0  0  0  0  0  0  0  0  0  0
  -29.1966   -4.0589   -7.8535 C   0  0  0  0  0  0  0  0  0  0  0  0
  -30.1407   -3.6770   -6.7256 C   0  0  0  0  0  0  0  0  0  0  0  0
  -25.0199  -10.6673   -5.9144 C   0  0  0  0  0  0  0  0  0  0  0  0
  -23.9930  -10.7572   -6.8770 C   0  0  0  0  0  0  0  0  0  0  0  0
  -22.6593  -10.9567   -6.5027 C   0  0  0  0  0  0  0  0  0  0  0  0
  -22.3241  -11.0445   -5.1497 C   0  0  0  0  0  0  0  0  0  0  0  0
  -23.3090  -10.9316   -4.1744 C   0  0  0  0  0  0  0  0  0  0  0  0
  -24.6442  -10.7703   -4.5633 C   0  0  0  0  0  0  0  0  0  0  0  0
  -21.5900  -11.0713   -7.3509 O   0  0  0  0  0  0  0  0  0  0  0  0
  -20.7098   -9.9584   -7.4400 C   0  0  0  0  0  0  0  0  0  0  0  0
  -23.1072  -10.9523   -2.8207 O   0  0  0  0  0  0  0  0  0  0  0  0
  -22.0284  -11.7458   -2.3393 C   0  0  0  0  0  0  0  0  0  0  0  0
  -26.8974  -11.6632   -7.0792 C   0  0  0  0  0  0  0  0  0  0  0  0
  -27.7009  -11.3752   -8.3748 C   0  0  0  0  0  0  0  0  0  0  0  0
  -29.1453  -11.1522   -8.2647 N   0  0  0  0  0  0  0  0  0  0  0  0
  -29.4348  -11.2592   -7.2895 H   0  0  0  0  0  0  0  0  0  0  0  0
  -29.5671   -9.8253   -8.7634 C   0  0  0  0  0  0  0  0  0  0  0  0
  -30.5535   -9.0279   -7.8768 C   0  0  0  0  0  0  0  0  0  0  0  0
  -30.6255   -9.5048   -6.6149 F   0  0  0  0  0  0  0  0  0  0  0  0
  -30.1777   -7.7292   -7.7964 F   0  0  0  0  0  0  0  0  0  0  0  0
  -31.8023   -9.0545   -8.3981 F   0  0  0  0  0  0  0  0  0  0  0  0
 18 19  1  0  0  0
 19 12  1  0  0  0
 12 13  2  0  0  0
 12 16  1  0  0  0
 13  2  1  0  0  0
 13 14  1  0  0  0
  2  3  1  0  0  0
  2 11  2  0  0  0
  3  4  2  0  0  0
  4  5  1  0  0  0
  5  6  1  0  0  0
  5 10  2  0  0  0
  6  7  2  0  0  0
  7  8  1  0  0  0
  8  1  1  0  0  0
  8  9  2  0  0  0
  1 30  1  0  0  0
  1 20  1  0  0  0
 30 31  1  0  0  0
 31 32  1  0  0  0
 32 34  1  0  0  0
 32 33  1  0  0  0
 34 35  1  0  0  0
 35 36  1  0  0  0
 35 37  1  0  0  0
 35 38  1  0  0  0
 20 21  1  0  0  0
 20 25  2  0  0  0
 21 22  2  0  0  0
 22 26  1  0  0  0
 22 23  1  0  0  0
 26 27  1  0  0  0
 23 24  2  0  0  0
 24 28  1  0  0  0
 24 25  1  0  0  0
 28 29  1  0  0  0
  9 10  1  0  0  0
 10 11  1  0  0  0
 14 15  2  0  0  0
 15 16  1  0  0  0
 16 17  1  0  0  0
M  END
> <minimizedAffinity>
-7.20091

$$$$
