CHEMBL3676372


 37 39  0  0  0  0  0  0  0  0999 V2000
  -28.3550   -6.1950   -7.7806 C   0  0  0  0  0  0  0  0  0  0  0  0
  -28.8485   -6.9532   -6.7132 C   0  0  0  0  0  0  0  0  0  0  0  0
  -29.5093   -6.3416   -5.6294 C   0  0  0  0  0  0  0  0  0  0  0  0
  -29.9555   -7.0118   -4.4862 C   0  0  0  0  0  0  0  0  0  0  0  0
  -30.5659   -6.3615   -3.4734 N   0  0  0  0  0  0  0  0  0  0  0  0
  -30.7197   -5.0426   -3.6109 C   0  0  0  0  0  0  0  0  0  0  0  0
  -30.3539   -4.3189   -4.6664 N   0  0  0  0  0  0  0  0  0  0  0  0
  -29.7520   -4.9710   -5.6617 C   0  0  0  0  0  0  0  0  0  0  0  0
  -29.3314   -4.2464   -6.7631 C   0  0  0  0  0  0  0  0  0  0  0  0
  -28.5972   -4.8166   -7.8175 C   0  0  0  0  0  0  0  0  0  0  0  0
  -27.8790   -8.1406   -9.1504 C   0  0  0  0  0  0  0  0  0  0  0  0
  -28.7895   -8.8256   -8.6918 O   0  0  0  0  0  0  0  0  0  0  0  0
  -27.5768   -6.8456   -8.7616 N   0  0  0  0  0  0  0  0  0  0  0  0
  -26.6644   -6.4572   -8.9616 H   0  0  0  0  0  0  0  0  0  0  0  0
  -27.2096   -9.8975  -10.6981 C   0  0  0  0  0  0  0  0  0  0  0  0
  -26.9541   -8.6906  -10.1722 C   0  0  0  0  0  0  0  0  0  0  0  0
  -29.7539   -8.4172   -4.3724 N   0  0  0  0  0  0  0  0  0  0  0  0
  -30.5065   -8.9068   -4.8681 H   0  0  0  0  0  0  0  0  0  0  0  0
  -28.4890   -9.0204   -4.5427 C   0  0  0  0  0  0  0  0  0  0  0  0
  -27.4229   -8.6386   -3.7148 C   0  0  0  0  0  0  0  0  0  0  0  0
  -26.1282   -9.0884   -3.9601 C   0  0  0  0  0  0  0  0  0  0  0  0
  -25.8860   -9.9407   -5.0368 C   0  0  0  0  0  0  0  0  0  0  0  0
  -24.0806  -10.4181   -5.3772 Br  0  0  0  0  0  0  0  0  0  0  0  0
  -26.9522  -10.3784   -5.8323 C   0  0  0  0  0  0  0  0  0  0  0  0
  -26.7328  -11.4526   -7.1693 Cl  0  0  0  0  0  0  0  0  0  0  0  0
  -28.2525   -9.9237   -5.5780 C   0  0  0  0  0  0  0  0  0  0  0  0
  -28.0217   -4.0628   -8.8249 O   0  0  0  0  0  0  0  0  0  0  0  0
  -27.7805   -2.6920   -8.4467 C   0  0  0  0  0  0  0  0  0  0  0  0
  -27.9622   -1.7169   -9.6058 C   0  0  0  0  0  0  0  0  0  0  0  0
  -26.7699   -1.6615  -10.4394 N   0  0  0  0  0  0  0  0  0  0  0  0
  -26.8081   -1.7256  -11.8137 C   0  0  0  0  0  0  0  0  0  0  0  0
  -27.8578   -1.8151  -12.4441 O   0  0  0  0  0  0  0  0  0  0  0  0
  -25.8546   -1.4909  -10.0307 H   0  0  0  0  0  0  0  0  0  0  0  0
  -25.4435   -1.6079  -12.5179 C   0  0  0  0  0  0  0  0  0  0  0  0
  -24.3944   -1.0043  -11.6508 N   0  0  0  0  0  0  0  0  0  0  0  0
  -23.1604   -1.8037  -11.6833 C   0  0  0  0  0  0  0  0  0  0  0  0
  -24.0835    0.3456  -12.1470 C   0  0  0  0  0  0  0  0  0  0  0  0
 15 16  2  0  0  0
 16 11  1  0  0  0
 11 12  2  0  0  0
 11 13  1  0  0  0
 13  1  1  0  0  0
 13 14  1  0  0  0
  1  2  1  0  0  0
  1 10  2  0  0  0
  2  3  2  0  0  0
  3  4  1  0  0  0
  3  8  1  0  0  0
  4 17  1  0  0  0
  4  5  2  0  0  0
 17 19  1  0  0  0
 17 18  1  0  0  0
 19 20  1  0  0  0
 19 26  2  0  0  0
 20 21  2  0  0  0
 21 22  1  0  0  0
 22 23  1  0  0  0
 22 24  2  0  0  0
 24 25  1  0  0  0
 24 26  1  0  0  0
  5  6  1  0  0  0
  6  7  2  0  0  0
  7  8  1  0  0  0
  8  9  2  0  0  0
  9 10  1  0  0  0
 10 27  1  0  0  0
 27 28  1  0  0  0
 28 29  1  0  0  0
 29 30  1  0  0  0
 30 31  1  0  0  0
 30 33  1  0  0  0
 31 32  2  0  0  0
 31 34  1  0  0  0
 34 35  1  0  0  0
 35 36  1  0  0  0
 35 37  1  0  0  0
M  END
> <minimizedAffinity>
-7.69836

$$$$
