CHEMBL2071209


 31 33  0  0  0  0  0  0  0  0999 V2000
  -27.5452   -2.5841   -8.8651 C   0  0  0  0  0  0  0  0  0  0  0  0
  -27.2540   -1.4072   -8.3064 N   0  0  0  0  0  0  0  0  0  0  0  0
  -27.8608   -1.1347   -7.1362 C   0  0  0  0  0  0  0  0  0  0  0  0
  -28.7280   -1.9913   -6.4871 C   0  0  0  0  0  0  0  0  0  0  0  0
  -28.9236   -3.2103   -7.0962 C   0  0  0  0  0  0  0  0  0  0  0  0
  -28.3397   -3.4853   -8.2800 N   0  0  0  0  0  0  0  0  0  0  0  0
  -29.3384   -1.5959   -5.1957 C   0  0  0  0  0  0  0  0  0  0  0  0
  -30.0038   -0.4033   -5.2735 F   0  0  0  0  0  0  0  0  0  0  0  0
  -30.2622   -2.4871   -4.7453 F   0  0  0  0  0  0  0  0  0  0  0  0
  -28.4362   -1.4313   -4.1915 F   0  0  0  0  0  0  0  0  0  0  0  0
  -27.0318   -2.8052  -10.1447 N   0  0  0  0  0  0  0  0  0  0  0  0
  -26.8388   -3.7954  -10.2237 H   0  0  0  0  0  0  0  0  0  0  0  0
  -23.6572    0.0359  -12.1433 C   0  0  0  0  0  0  0  0  0  0  0  0
  -24.8931   -0.6494  -11.8578 N   0  0  0  0  0  0  0  0  0  0  0  0
  -25.0709   -1.6940  -10.9967 C   0  0  0  0  0  0  0  0  0  0  0  0
  -26.4244   -1.9150  -10.9570 C   0  0  0  0  0  0  0  0  0  0  0  0
  -26.9709   -0.9942  -11.8770 C   0  0  0  0  0  0  0  0  0  0  0  0
  -26.0308   -0.2220  -12.4356 N   0  0  0  0  0  0  0  0  0  0  0  0
  -29.7185   -4.2247   -6.5112 N   0  0  0  0  0  0  0  0  0  0  0  0
  -30.6752   -4.2154   -6.8917 H   0  0  0  0  0  0  0  0  0  0  0  0
  -29.2713   -5.5730   -6.3282 C   0  0  0  0  0  0  0  0  0  0  0  0
  -29.5766   -6.5212   -7.3273 C   0  0  0  0  0  0  0  0  0  0  0  0
  -29.2150   -7.8607   -7.2051 C   0  0  0  0  0  0  0  0  0  0  0  0
  -28.5035   -8.2808   -6.0920 C   0  0  0  0  0  0  0  0  0  0  0  0
  -28.1395   -7.3571   -5.1099 C   0  0  0  0  0  0  0  0  0  0  0  0
  -28.5117   -6.0004   -5.2109 C   0  0  0  0  0  0  0  0  0  0  0  0
  -28.1342   -5.0257   -4.1413 C   0  0  0  0  0  0  0  0  0  0  0  0
  -28.9125   -4.9255   -3.0179 N   0  0  0  0  0  0  0  0  0  0  0  0
  -27.1391   -4.3107   -4.2559 O   0  0  0  0  0  0  0  0  0  0  0  0
  -29.7763   -5.4171   -2.8538 H   0  0  0  0  0  0  0  0  0  0  0  0
  -28.6384   -4.2353   -2.3314 H   0  0  0  0  0  0  0  0  0  0  0  0
 13 14  1  0  0  0
 14 15  1  0  0  0
 14 18  1  0  0  0
 15 16  2  0  0  0
 16 11  1  0  0  0
 16 17  1  0  0  0
 11  1  1  0  0  0
 11 12  1  0  0  0
  1  2  1  0  0  0
  1  6  2  0  0  0
  2  3  2  0  0  0
  3  4  1  0  0  0
  4  7  1  0  0  0
  4  5  2  0  0  0
  7  8  1  0  0  0
  7  9  1  0  0  0
  7 10  1  0  0  0
  5 19  1  0  0  0
  5  6  1  0  0  0
 19 21  1  0  0  0
 19 20  1  0  0  0
 21 22  1  0  0  0
 21 26  2  0  0  0
 22 23  2  0  0  0
 23 24  1  0  0  0
 24 25  2  0  0  0
 25 26  1  0  0  0
 26 27  1  0  0  0
 27 28  1  0  0  0
 27 29  2  0  0  0
 28 30  1  0  0  0
 28 31  1  0  0  0
 17 18  2  0  0  0
M  END
> <minimizedAffinity>
-8.74984

$$$$
