CHEMBL1762525


 36 40  0  0  0  0  0  0  0  0999 V2000
  -15.6298    0.0299  -12.8587 N   0  0  0  0  0  0  0  0  0  0  0  0
  -15.9560    0.1779  -11.9194 H   0  0  0  0  0  0  0  0  0  0  0  0
  -14.6200   -3.3892  -12.7639 C   0  0  0  0  0  0  0  0  0  0  0  0
  -13.2568   -3.2909  -12.9818 C   0  0  0  0  0  0  0  0  0  0  0  0
  -12.7515   -2.0405  -13.1827 C   0  0  0  0  0  0  0  0  0  0  0  0
  -13.5146   -0.9418  -13.1921 N   0  0  0  0  0  0  0  0  0  0  0  0
  -14.8293   -1.1019  -12.9721 C   0  0  0  0  0  0  0  0  0  0  0  0
  -15.4130   -2.2942  -12.7779 N   0  0  0  0  0  0  0  0  0  0  0  0
  -15.1925   -4.6665  -12.4992 N   0  0  0  0  0  0  0  0  0  0  0  0
  -16.4608   -4.5324  -11.7824 C   0  0  0  0  0  0  0  0  0  0  0  0
  -14.3016   -7.2304  -15.0954 C   0  0  0  0  0  0  0  0  0  0  0  0
  -13.8743   -8.2839  -14.2790 C   0  0  0  0  0  0  0  0  0  0  0  0
  -13.9529   -8.1544  -12.8964 C   0  0  0  0  0  0  0  0  0  0  0  0
  -14.4253   -6.9648  -12.3347 C   0  0  0  0  0  0  0  0  0  0  0  0
  -14.8255   -5.8665  -13.1272 C   0  0  0  0  0  0  0  0  0  0  0  0
  -14.7864   -6.0497  -14.5161 C   0  0  0  0  0  0  0  0  0  0  0  0
  -13.7101   -6.0956  -17.0991 C   0  0  0  0  0  0  0  0  0  0  0  0
  -14.2680   -7.2404  -16.4641 O   0  0  0  0  0  0  0  0  0  0  0  0
  -16.1644    0.8212  -13.8798 C   0  0  0  0  0  0  0  0  0  0  0  0
  -17.5410    0.9355  -14.0832 C   0  0  0  0  0  0  0  0  0  0  0  0
  -18.0882    1.6873  -15.1246 C   0  0  0  0  0  0  0  0  0  0  0  0
  -17.1937    2.3178  -15.9911 C   0  0  0  0  0  0  0  0  0  0  0  0
  -15.8070    2.2718  -15.8148 C   0  0  0  0  0  0  0  0  0  0  0  0
  -15.3131    1.4848  -14.7641 C   0  0  0  0  0  0  0  0  0  0  0  0
  -19.4455    1.8547  -15.2730 N   0  0  0  0  0  0  0  0  0  0  0  0
  -20.0570    3.1843  -15.3402 C   0  0  0  0  0  0  0  0  0  0  0  0
  -21.0788    3.3521  -14.2120 C   0  0  0  0  0  0  0  0  0  0  0  0
  -22.0439    2.2849  -14.2110 O   0  0  0  0  0  0  0  0  0  0  0  0
  -21.3823    1.0211  -14.0216 C   0  0  0  0  0  0  0  0  0  0  0  0
  -20.3759    0.7289  -15.1470 C   0  0  0  0  0  0  0  0  0  0  0  0
  -14.9736    2.9981  -16.6359 N   0  0  0  0  0  0  0  0  0  0  0  0
  -15.2545    4.3872  -16.9999 C   0  0  0  0  0  0  0  0  0  0  0  0
  -15.3285    4.5261  -18.5236 C   0  0  0  0  0  0  0  0  0  0  0  0
  -14.1392    4.0219  -19.1555 O   0  0  0  0  0  0  0  0  0  0  0  0
  -13.9593    2.6305  -18.8451 C   0  0  0  0  0  0  0  0  0  0  0  0
  -13.8285    2.3916  -17.3291 C   0  0  0  0  0  0  0  0  0  0  0  0
 17 18  1  0  0  0
 18 11  1  0  0  0
 11 12  1  0  0  0
 11 16  2  0  0  0
 12 13  2  0  0  0
 13 14  1  0  0  0
 14 15  2  0  0  0
 15  9  1  0  0  0
 15 16  1  0  0  0
  9 10  1  0  0  0
  9  3  1  0  0  0
  3  4  1  0  0  0
  3  8  2  0  0  0
  4  5  2  0  0  0
  5  6  1  0  0  0
  6  7  2  0  0  0
  7  1  1  0  0  0
  7  8  1  0  0  0
  1 19  1  0  0  0
  1  2  1  0  0  0
 19 20  1  0  0  0
 19 24  2  0  0  0
 20 21  2  0  0  0
 21 25  1  0  0  0
 21 22  1  0  0  0
 25 26  1  0  0  0
 25 30  1  0  0  0
 26 27  1  0  0  0
 27 28  1  0  0  0
 28 29  1  0  0  0
 29 30  1  0  0  0
 22 23  2  0  0  0
 23 31  1  0  0  0
 23 24  1  0  0  0
 31 32  1  0  0  0
 31 36  1  0  0  0
 32 33  1  0  0  0
 33 34  1  0  0  0
 34 35  1  0  0  0
 35 36  1  0  0  0
M  END
> <minimizedAffinity>
-8.46620

$$$$
