CHEMBL4079917


 34 39  0  0  0  0  0  0  0  0999 V2000
  -14.0604   -1.4529  -13.6033 C   0  0  0  0  0  0  0  0  0  0  0  0
  -15.4510   -1.5468  -13.6570 C   0  0  0  0  0  0  0  0  0  0  0  0
  -16.2280   -0.4867  -14.1066 C   0  0  0  0  0  0  0  0  0  0  0  0
  -15.5693    0.6723  -14.5380 C   0  0  0  0  0  0  0  0  0  0  0  0
  -14.1772    0.7575  -14.5932 C   0  0  0  0  0  0  0  0  0  0  0  0
  -13.8589    2.0035  -15.1967 C   0  0  0  0  0  0  0  0  0  0  0  0
  -15.0475    2.6209  -15.5220 C   0  0  0  0  0  0  0  0  0  0  0  0
  -16.0977    1.8519  -15.0527 N   0  0  0  0  0  0  0  0  0  0  0  0
  -17.4678    2.1256  -15.2271 C   0  0  0  0  0  0  0  0  0  0  0  0
  -17.8571    2.4896  -16.3310 O   0  0  0  0  0  0  0  0  0  0  0  0
  -18.1762    2.0153  -14.0483 N   0  0  0  0  0  0  0  0  0  0  0  0
  -13.4052   -0.3255  -14.1142 C   0  0  0  0  0  0  0  0  0  0  0  0
  -17.6928    2.2953  -13.2009 H   0  0  0  0  0  0  0  0  0  0  0  0
  -19.5279    2.3367  -14.0759 C   0  0  0  0  0  0  0  0  0  0  0  0
  -20.6045    1.4352  -13.9072 C   0  0  0  0  0  0  0  0  0  0  0  0
  -21.7340    2.1878  -14.1276 C   0  0  0  0  0  0  0  0  0  0  0  0
  -21.3546    3.4797  -14.3509 O   0  0  0  0  0  0  0  0  0  0  0  0
  -19.9675    3.5824  -14.2471 N   0  0  0  0  0  0  0  0  0  0  0  0
  -23.1573    1.6504  -14.1329 C   0  0  0  0  0  0  0  0  0  0  0  0
  -23.6627    0.9415  -12.8876 C   0  0  0  0  0  0  0  0  0  0  0  0
  -23.3963    0.1533  -14.1226 C   0  0  0  0  0  0  0  0  0  0  0  0
  -13.2591   -2.4620  -13.1120 O   0  0  0  0  0  0  0  0  0  0  0  0
  -13.9133   -6.3565  -16.5563 C   0  0  0  0  0  0  0  0  0  0  0  0
  -14.0130   -6.2664  -15.0366 C   0  0  0  0  0  0  0  0  0  0  0  0
  -13.8701   -4.8024  -14.5813 C   0  0  0  0  0  0  0  0  0  0  0  0
  -14.1937   -4.6356  -13.1286 C   0  0  0  0  0  0  0  0  0  0  0  0
  -14.9068   -5.5963  -12.4266 C   0  0  0  0  0  0  0  0  0  0  0  0
  -15.2288   -5.4568  -11.1214 N   0  0  0  0  0  0  0  0  0  0  0  0
  -14.8207   -4.3293  -10.5248 C   0  0  0  0  0  0  0  0  0  0  0  0
  -14.1473   -3.3343  -11.1069 N   0  0  0  0  0  0  0  0  0  0  0  0
  -13.8815   -3.4961  -12.4185 C   0  0  0  0  0  0  0  0  0  0  0  0
  -15.3197   -6.8851  -13.1103 C   0  0  0  0  0  0  0  0  0  0  0  0
  -15.2966   -6.8290  -14.5849 N   0  0  0  0  0  0  0  0  0  0  0  0
  -16.0598   -6.2262  -14.8935 H   0  0  0  0  0  0  0  0  0  0  0  0
 23 24  1  0  0  0
 24 25  1  0  0  0
 24 33  1  0  0  0
 25 26  1  0  0  0
 26 27  1  0  0  0
 26 31  2  0  0  0
 27 28  2  0  0  0
 27 32  1  0  0  0
 28 29  1  0  0  0
 29 30  2  0  0  0
 30 31  1  0  0  0
 31 22  1  0  0  0
 22  1  1  0  0  0
  1  2  1  0  0  0
  1 12  2  0  0  0
  2  3  2  0  0  0
  3  4  1  0  0  0
  4  5  2  0  0  0
  4  8  1  0  0  0
  5  6  1  0  0  0
  5 12  1  0  0  0
  6  7  2  0  0  0
  7  8  1  0  0  0
  8  9  1  0  0  0
  9 10  2  0  0  0
  9 11  1  0  0  0
 11 14  1  0  0  0
 11 13  1  0  0  0
 14 15  1  0  0  0
 14 18  2  0  0  0
 15 16  2  0  0  0
 16 19  1  0  0  0
 16 17  1  0  0  0
 19 20  1  0  0  0
 19 21  1  0  0  0
 20 21  1  0  0  0
 17 18  1  0  0  0
 32 33  1  0  0  0
 33 34  1  0  0  0
M  END
> <minimizedAffinity>
-9.15993

$$$$
