CHEMBL599248


 22 25  0  0  0  0  0  0  0  0999 V2000
  -28.2722   -2.8576   -6.6217 C   0  0  0  0  0  0  0  0  0  0  0  0
  -28.6433   -3.3839   -7.8369 C   0  0  0  0  0  0  0  0  0  0  0  0
  -29.0342   -4.7360   -7.9317 C   0  0  0  0  0  0  0  0  0  0  0  0
  -29.1254   -5.5481   -6.7968 C   0  0  0  0  0  0  0  0  0  0  0  0
  -28.7929   -4.9829   -5.5605 C   0  0  0  0  0  0  0  0  0  0  0  0
  -28.2891   -3.6666   -5.4823 C   0  0  0  0  0  0  0  0  0  0  0  0
  -29.0369   -5.6255   -4.3345 N   0  0  0  0  0  0  0  0  0  0  0  0
  -30.1336   -6.3696   -4.0407 C   0  0  0  0  0  0  0  0  0  0  0  0
  -30.2081   -6.8835   -2.9448 O   0  0  0  0  0  0  0  0  0  0  0  0
  -31.2665   -6.4661   -5.0196 C   0  0  0  0  0  0  0  0  0  0  0  0
  -30.8135   -7.2032   -6.2257 C   0  0  0  0  0  0  0  0  0  0  0  0
  -31.5840   -8.4052   -6.7000 C   0  0  0  0  0  0  0  0  0  0  0  0
  -31.3454   -9.0777   -7.7843 N   0  0  0  0  0  0  0  0  0  0  0  0
  -30.1551   -8.7938   -8.3893 C   0  0  0  0  0  0  0  0  0  0  0  0
  -29.5269   -9.3079   -9.4997 C   0  0  0  0  0  0  0  0  0  0  0  0
  -28.1755   -9.0840   -9.2080 C   0  0  0  0  0  0  0  0  0  0  0  0
  -28.0009   -8.0942   -8.3274 N   0  0  0  0  0  0  0  0  0  0  0  0
  -29.2701   -7.8292   -7.8816 N   0  0  0  0  0  0  0  0  0  0  0  0
  -29.7157   -6.9024   -6.9344 C   0  0  0  0  0  0  0  0  0  0  0  0
  -28.4734   -5.3686   -3.5276 H   0  0  0  0  0  0  0  0  0  0  0  0
  -27.3845   -1.2822   -5.0695 C   0  0  0  0  0  0  0  0  0  0  0  0
  -27.9074   -1.5614   -6.3653 O   0  0  0  0  0  0  0  0  0  0  0  0
 21 22  1  0  0  0
 22  1  1  0  0  0
  1  2  1  0  0  0
  1  6  2  0  0  0
  2  3  2  0  0  0
  3  4  1  0  0  0
  4  5  2  0  0  0
  4 19  1  0  0  0
  5  6  1  0  0  0
  5  7  1  0  0  0
  7  8  1  0  0  0
  7 20  1  0  0  0
  8  9  2  0  0  0
  8 10  1  0  0  0
 10 11  1  0  0  0
 11 12  1  0  0  0
 11 19  2  0  0  0
 12 13  2  0  0  0
 13 14  1  0  0  0
 14 15  2  0  0  0
 14 18  1  0  0  0
 15 16  1  0  0  0
 16 17  2  0  0  0
 17 18  1  0  0  0
 18 19  1  0  0  0
M  END
> <minimizedAffinity>
-7.41946

$$$$
