CHEMBL2113174


 34 37  0  0  0  0  0  0  0  0999 V2000
  -12.1639   -4.1030  -12.7958 C   0  0  0  0  0  0  0  0  0  0  0  0
  -11.5960   -2.8665  -12.4028 C   0  0  0  0  0  0  0  0  0  0  0  0
  -11.8955   -1.6462  -13.0027 C   0  0  0  0  0  0  0  0  0  0  0  0
  -11.2558   -0.5388  -12.6109 N   0  0  0  0  0  0  0  0  0  0  0  0
  -11.5627    0.5981  -13.2514 C   0  0  0  0  0  0  0  0  0  0  0  0
  -12.4699    0.7293  -14.2223 N   0  0  0  0  0  0  0  0  0  0  0  0
  -13.1210   -0.3880  -14.5952 C   0  0  0  0  0  0  0  0  0  0  0  0
  -12.8470   -1.6390  -14.0171 C   0  0  0  0  0  0  0  0  0  0  0  0
  -13.4295   -2.8596  -14.4186 C   0  0  0  0  0  0  0  0  0  0  0  0
  -13.1067   -4.0969  -13.8295 C   0  0  0  0  0  0  0  0  0  0  0  0
  -14.1137   -0.2902  -15.6120 N   0  0  0  0  0  0  0  0  0  0  0  0
  -14.3979   -1.2342  -15.8928 H   0  0  0  0  0  0  0  0  0  0  0  0
  -15.2268    0.5301  -15.4680 C   0  0  0  0  0  0  0  0  0  0  0  0
  -15.4811    1.6279  -16.1895 C   0  0  0  0  0  0  0  0  0  0  0  0
  -16.6470    2.4933  -15.9560 C   0  0  0  0  0  0  0  0  0  0  0  0
  -16.8147    3.4923  -16.6461 O   0  0  0  0  0  0  0  0  0  0  0  0
  -17.5837    2.1119  -14.8648 C   0  0  0  0  0  0  0  0  0  0  0  0
  -17.3380    1.0137  -14.1338 C   0  0  0  0  0  0  0  0  0  0  0  0
  -16.2095    0.1157  -14.4220 C   0  0  0  0  0  0  0  0  0  0  0  0
  -16.0742   -0.9433  -13.8151 O   0  0  0  0  0  0  0  0  0  0  0  0
  -18.6468    2.9883  -14.6481 O   0  0  0  0  0  0  0  0  0  0  0  0
  -19.9158    2.4756  -14.4977 C   0  0  0  0  0  0  0  0  0  0  0  0
  -20.9216    3.3683  -14.1331 C   0  0  0  0  0  0  0  0  0  0  0  0
  -22.2130    2.8918  -13.9260 C   0  0  0  0  0  0  0  0  0  0  0  0
  -22.4975    1.5381  -14.0788 C   0  0  0  0  0  0  0  0  0  0  0  0
  -21.5024    0.6561  -14.4888 C   0  0  0  0  0  0  0  0  0  0  0  0
  -20.2120    1.1294  -14.7275 C   0  0  0  0  0  0  0  0  0  0  0  0
  -13.7206   -5.1018  -14.5172 O   0  0  0  0  0  0  0  0  0  0  0  0
  -14.9906   -5.6069  -14.1529 C   0  0  0  0  0  0  0  0  0  0  0  0
  -11.6085   -5.1284  -12.0701 O   0  0  0  0  0  0  0  0  0  0  0  0
  -12.4812   -6.0355  -11.4309 C   0  0  0  0  0  0  0  0  0  0  0  0
  -13.1929   -5.4576  -10.2147 C   0  0  0  0  0  0  0  0  0  0  0  0
  -15.1410   -4.1318  -10.5493 C   0  0  0  0  0  0  0  0  0  0  0  0
  -14.5792   -5.4298  -10.5713 O   0  0  0  0  0  0  0  0  0  0  0  0
 33 34  1  0  0  0
 34 32  1  0  0  0
 32 31  1  0  0  0
 31 30  1  0  0  0
 30  1  1  0  0  0
  1  2  1  0  0  0
  1 10  2  0  0  0
  2  3  2  0  0  0
  3  4  1  0  0  0
  3  8  1  0  0  0
  4  5  2  0  0  0
  5  6  1  0  0  0
  6  7  2  0  0  0
  7 11  1  0  0  0
  7  8  1  0  0  0
 11 13  1  0  0  0
 11 12  1  0  0  0
 13 14  2  0  0  0
 13 19  1  0  0  0
 14 15  1  0  0  0
 15 16  2  0  0  0
 15 17  1  0  0  0
 17 21  1  0  0  0
 17 18  2  0  0  0
 21 22  1  0  0  0
 22 23  1  0  0  0
 22 27  2  0  0  0
 23 24  2  0  0  0
 24 25  1  0  0  0
 25 26  2  0  0  0
 26 27  1  0  0  0
 18 19  1  0  0  0
 19 20  2  0  0  0
  8  9  2  0  0  0
  9 10  1  0  0  0
 10 28  1  0  0  0
 28 29  1  0  0  0
M  END
> <minimizedAffinity>
-7.22009

$$$$
