CHEMBL1242113


 24 26  0  0  0  0  0  0  0  0999 V2000
  -30.4593   -7.4971   -7.1188 N   0  0  0  0  0  0  0  0  0  0  0  0
  -30.4540   -6.1941   -7.4653 N   0  0  0  0  0  0  0  0  0  0  0  0
  -29.5053   -5.6484   -6.6775 C   0  0  0  0  0  0  0  0  0  0  0  0
  -28.9327   -6.6212   -5.7952 C   0  0  0  0  0  0  0  0  0  0  0  0
  -28.0026   -6.6899   -4.7433 C   0  0  0  0  0  0  0  0  0  0  0  0
  -27.3625   -5.6251   -4.1528 N   0  0  0  0  0  0  0  0  0  0  0  0
  -27.7053   -7.8984   -4.2255 N   0  0  0  0  0  0  0  0  0  0  0  0
  -28.3522   -8.9815   -4.6942 C   0  0  0  0  0  0  0  0  0  0  0  0
  -29.2990   -9.0321   -5.6441 N   0  0  0  0  0  0  0  0  0  0  0  0
  -29.5386   -7.8138   -6.1588 C   0  0  0  0  0  0  0  0  0  0  0  0
  -27.5568   -4.6681   -4.3688 H   0  0  0  0  0  0  0  0  0  0  0  0
  -26.6116   -5.8475   -3.5109 H   0  0  0  0  0  0  0  0  0  0  0  0
  -29.2111   -4.2183   -6.7685 C   0  0  0  0  0  0  0  0  0  0  0  0
  -29.6582   -3.3313   -5.7784 C   0  0  0  0  0  0  0  0  0  0  0  0
  -29.2627   -1.9882   -5.7921 C   0  0  0  0  0  0  0  0  0  0  0  0
  -28.3896   -1.5270   -6.7770 C   0  0  0  0  0  0  0  0  0  0  0  0
  -27.9817   -2.4094   -7.7766 C   0  0  0  0  0  0  0  0  0  0  0  0
  -27.0878   -2.0195   -8.7357 O   0  0  0  0  0  0  0  0  0  0  0  0
  -28.4405   -3.7159   -7.8174 C   0  0  0  0  0  0  0  0  0  0  0  0
  -26.8782   -1.0887   -8.5260 H   0  0  0  0  0  0  0  0  0  0  0  0
  -27.8781   -0.2615   -6.8833 O   0  0  0  0  0  0  0  0  0  0  0  0
  -28.7626    0.7964   -6.5389 C   0  0  0  0  0  0  0  0  0  0  0  0
  -32.7853   -8.3023   -7.0840 C   0  0  0  0  0  0  0  0  0  0  0  0
  -31.4147   -8.3968   -7.7337 C   0  0  0  0  0  0  0  0  0  0  0  0
 23 24  1  0  0  0
 24  1  1  0  0  0
  1  2  1  0  0  0
  1 10  1  0  0  0
  2  3  2  0  0  0
  3 13  1  0  0  0
  3  4  1  0  0  0
 13 14  1  0  0  0
 13 19  2  0  0  0
 14 15  2  0  0  0
 15 16  1  0  0  0
 16 21  1  0  0  0
 16 17  2  0  0  0
 21 22  1  0  0  0
 17 18  1  0  0  0
 17 19  1  0  0  0
 18 20  1  0  0  0
  4  5  1  0  0  0
  4 10  2  0  0  0
  5  6  1  0  0  0
  5  7  2  0  0  0
  6 11  1  0  0  0
  6 12  1  0  0  0
  7  8  1  0  0  0
  8  9  2  0  0  0
  9 10  1  0  0  0
M  END
> <minimizedAffinity>
-7.51693

$$$$
