CHEMBL2071206


 32 35  0  0  0  0  0  0  0  0999 V2000
  -28.1192   -2.8382   -6.4105 C   0  0  0  0  0  0  0  0  0  0  0  0
  -27.7915   -3.2043   -7.6658 N   0  0  0  0  0  0  0  0  0  0  0  0
  -27.5719   -2.2485   -8.5826 C   0  0  0  0  0  0  0  0  0  0  0  0
  -27.6266   -0.9415   -8.3057 N   0  0  0  0  0  0  0  0  0  0  0  0
  -27.9376   -0.6037   -7.0447 C   0  0  0  0  0  0  0  0  0  0  0  0
  -28.1924   -1.5156   -6.0410 C   0  0  0  0  0  0  0  0  0  0  0  0
  -28.6274   -1.0079   -4.7145 C   0  0  0  0  0  0  0  0  0  0  0  0
  -28.1299   -1.6569   -3.6291 F   0  0  0  0  0  0  0  0  0  0  0  0
  -28.2809    0.3012   -4.5377 F   0  0  0  0  0  0  0  0  0  0  0  0
  -29.9850   -1.0376   -4.5734 F   0  0  0  0  0  0  0  0  0  0  0  0
  -28.4674   -3.8309   -5.4993 N   0  0  0  0  0  0  0  0  0  0  0  0
  -27.8641   -4.6625   -5.5661 H   0  0  0  0  0  0  0  0  0  0  0  0
  -30.2636   -5.6438   -5.6901 C   0  0  0  0  0  0  0  0  0  0  0  0
  -30.6968   -6.2459   -4.3238 C   0  0  0  0  0  0  0  0  0  0  0  0
  -31.9761   -5.5564   -3.8945 C   0  0  0  0  0  0  0  0  0  0  0  0
  -31.6601   -4.3004   -3.5511 C   0  0  0  0  0  0  0  0  0  0  0  0
  -30.1692   -4.1525   -3.7586 C   0  0  0  0  0  0  0  0  0  0  0  0
  -29.7276   -5.5651   -3.3578 C   0  0  0  0  0  0  0  0  0  0  0  0
  -29.8774   -4.1593   -5.2951 C   0  0  0  0  0  0  0  0  0  0  0  0
  -28.6073   -7.7054   -8.4342 C   0  0  0  0  0  0  0  0  0  0  0  0
  -29.5152   -6.8870   -7.6702 N   0  0  0  0  0  0  0  0  0  0  0  0
  -29.1842   -6.4539   -6.4049 C   0  0  0  0  0  0  0  0  0  0  0  0
  -28.0611   -6.6297   -5.9344 O   0  0  0  0  0  0  0  0  0  0  0  0
  -30.3342   -6.5192   -8.1340 H   0  0  0  0  0  0  0  0  0  0  0  0
  -27.3476   -2.7042   -9.8841 N   0  0  0  0  0  0  0  0  0  0  0  0
  -27.9961   -3.4630  -10.0515 H   0  0  0  0  0  0  0  0  0  0  0  0
  -26.7564   -2.0655  -10.9137 C   0  0  0  0  0  0  0  0  0  0  0  0
  -27.2226   -1.7931  -12.2168 C   0  0  0  0  0  0  0  0  0  0  0  0
  -26.2990   -1.1780  -12.9666 N   0  0  0  0  0  0  0  0  0  0  0  0
  -25.2499   -1.0576  -12.1333 N   0  0  0  0  0  0  0  0  0  0  0  0
  -24.0301   -0.4387  -12.5906 C   0  0  0  0  0  0  0  0  0  0  0  0
  -25.4780   -1.5655  -10.8861 C   0  0  0  0  0  0  0  0  0  0  0  0
 20 21  1  0  0  0
 21 22  1  0  0  0
 21 24  1  0  0  0
 22 23  2  0  0  0
 22 13  1  0  0  0
 13 14  1  0  0  0
 13 19  1  0  0  0
 14 15  1  0  0  0
 14 18  1  0  0  0
 15 16  2  0  0  0
 16 17  1  0  0  0
 17 18  1  0  0  0
 17 19  1  0  0  0
 19 11  1  0  0  0
 11  1  1  0  0  0
 11 12  1  0  0  0
  1  2  1  0  0  0
  1  6  2  0  0  0
  2  3  2  0  0  0
  3 25  1  0  0  0
  3  4  1  0  0  0
 25 27  1  0  0  0
 25 26  1  0  0  0
 27 28  1  0  0  0
 27 32  2  0  0  0
 28 29  2  0  0  0
 29 30  1  0  0  0
 30 31  1  0  0  0
 30 32  1  0  0  0
  4  5  2  0  0  0
  5  6  1  0  0  0
  6  7  1  0  0  0
  7  8  1  0  0  0
  7  9  1  0  0  0
  7 10  1  0  0  0
M  END
> <minimizedAffinity>
-9.02437

$$$$
