CHEMBL400402


 36 40  0  0  0  0  0  0  0  0999 V2000
  -18.4097    1.4157  -15.0180 C   0  0  0  0  0  0  0  0  0  0  0  0
  -16.9429    1.7466  -15.0890 C   0  0  0  0  0  0  0  0  0  0  0  0
  -16.5026    2.7636  -15.9599 C   0  0  0  0  0  0  0  0  0  0  0  0
  -15.1541    3.1538  -16.0368 C   0  0  0  0  0  0  0  0  0  0  0  0
  -14.2732    2.4810  -15.1876 C   0  0  0  0  0  0  0  0  0  0  0  0
  -14.6803    1.4315  -14.3747 C   0  0  0  0  0  0  0  0  0  0  0  0
  -13.7700    0.7825  -13.6537 N   0  0  0  0  0  0  0  0  0  0  0  0
  -14.1636   -0.2562  -12.8823 N   0  0  0  0  0  0  0  0  0  0  0  0
  -15.4613   -0.6239  -12.8389 C   0  0  0  0  0  0  0  0  0  0  0  0
  -16.4213    0.0241  -13.5125 N   0  0  0  0  0  0  0  0  0  0  0  0
  -16.0263    1.0438  -14.3036 C   0  0  0  0  0  0  0  0  0  0  0  0
  -14.7142    4.2380  -16.9575 C   0  0  0  0  0  0  0  0  0  0  0  0
  -15.4302    4.4300  -18.1629 C   0  0  0  0  0  0  0  0  0  0  0  0
  -15.0352    5.3782  -19.1055 C   0  0  0  0  0  0  0  0  0  0  0  0
  -15.6955    5.5206  -20.2888 O   0  0  0  0  0  0  0  0  0  0  0  0
  -13.9481    6.2004  -18.8718 C   0  0  0  0  0  0  0  0  0  0  0  0
  -13.2408    6.0670  -17.6823 C   0  0  0  0  0  0  0  0  0  0  0  0
  -13.6019    5.0890  -16.7416 C   0  0  0  0  0  0  0  0  0  0  0  0
  -12.5496    4.9698  -15.3688 Cl  0  0  0  0  0  0  0  0  0  0  0  0
  -16.4231    4.8783  -20.3286 H   0  0  0  0  0  0  0  0  0  0  0  0
  -15.8394   -1.7088  -12.0509 N   0  0  0  0  0  0  0  0  0  0  0  0
  -16.4823   -1.4382  -11.3257 H   0  0  0  0  0  0  0  0  0  0  0  0
  -15.8800   -3.0523  -12.4518 C   0  0  0  0  0  0  0  0  0  0  0  0
  -16.3497   -4.0233  -11.5635 C   0  0  0  0  0  0  0  0  0  0  0  0
  -16.3225   -5.3794  -11.9093 C   0  0  0  0  0  0  0  0  0  0  0  0
  -15.8630   -5.7741  -13.1669 C   0  0  0  0  0  0  0  0  0  0  0  0
  -15.3906   -4.8176  -14.0561 C   0  0  0  0  0  0  0  0  0  0  0  0
  -15.4037   -3.4707  -13.7030 C   0  0  0  0  0  0  0  0  0  0  0  0
  -15.8175   -7.0557  -13.6360 O   0  0  0  0  0  0  0  0  0  0  0  0
  -14.6099   -7.4103  -14.3085 C   0  0  0  0  0  0  0  0  0  0  0  0
  -13.8632   -8.4361  -13.4472 C   0  0  0  0  0  0  0  0  0  0  0  0
  -12.4873   -8.0241  -13.1126 N   0  0  0  0  0  0  0  0  0  0  0  0
  -12.2121   -8.0421  -11.6680 C   0  0  0  0  0  0  0  0  0  0  0  0
  -12.6962   -6.6983  -11.1693 C   0  0  0  0  0  0  0  0  0  0  0  0
  -12.2620   -5.7647  -12.2808 C   0  0  0  0  0  0  0  0  0  0  0  0
  -12.2464   -6.6307  -13.5381 C   0  0  0  0  0  0  0  0  0  0  0  0
  1  2  1  0  0  0
  2  3  1  0  0  0
  2 11  2  0  0  0
  3  4  2  0  0  0
  4 12  1  0  0  0
  4  5  1  0  0  0
 12 13  1  0  0  0
 12 18  2  0  0  0
 13 14  2  0  0  0
 14 15  1  0  0  0
 14 16  1  0  0  0
 15 20  1  0  0  0
 16 17  2  0  0  0
 17 18  1  0  0  0
 18 19  1  0  0  0
  5  6  2  0  0  0
  6  7  1  0  0  0
  6 11  1  0  0  0
  7  8  2  0  0  0
  8  9  1  0  0  0
  9 21  1  0  0  0
  9 10  2  0  0  0
 21 23  1  0  0  0
 21 22  1  0  0  0
 23 24  1  0  0  0
 23 28  2  0  0  0
 24 25  2  0  0  0
 25 26  1  0  0  0
 26 29  1  0  0  0
 26 27  2  0  0  0
 29 30  1  0  0  0
 30 31  1  0  0  0
 31 32  1  0  0  0
 32 33  1  0  0  0
 32 36  1  0  0  0
 33 34  1  0  0  0
 34 35  1  0  0  0
 35 36  1  0  0  0
 27 28  1  0  0  0
 10 11  1  0  0  0
M  END
> <minimizedAffinity>
-8.37960

$$$$
