CHEMBL3690446


 32 35  0  0  0  0  0  0  0  0999 V2000
  -28.9074   11.4789  -14.7453 C   0  0  0  0  0  0  0  0  0  0  0  0
  -29.4598   10.7230  -15.7789 C   0  0  0  0  0  0  0  0  0  0  0  0
  -28.6382   10.0015  -16.6393 C   0  0  0  0  0  0  0  0  0  0  0  0
  -27.2546   10.0523  -16.4936 C   0  0  0  0  0  0  0  0  0  0  0  0
  -26.6645   10.8893  -15.5403 C   0  0  0  0  0  0  0  0  0  0  0  0
  -27.5070   11.5654  -14.6406 C   0  0  0  0  0  0  0  0  0  0  0  0
  -25.2071   11.0776  -15.4823 C   0  0  0  0  0  0  0  0  0  0  0  0
  -24.3804   11.2637  -14.3835 C   0  0  0  0  0  0  0  0  0  0  0  0
  -23.0735   11.4591  -14.7401 N   0  0  0  0  0  0  0  0  0  0  0  0
  -23.0631   11.4043  -16.0531 C   0  0  0  0  0  0  0  0  0  0  0  0
  -21.9869   11.5577  -16.9777 C   0  0  0  0  0  0  0  0  0  0  0  0
  -22.2067   11.4597  -18.3090 C   0  0  0  0  0  0  0  0  0  0  0  0
  -23.5549   11.2090  -18.8102 C   0  0  0  0  0  0  0  0  0  0  0  0
  -24.5757   11.1015  -17.9470 C   0  0  0  0  0  0  0  0  0  0  0  0
  -24.3380   11.1781  -16.5729 N   0  0  0  0  0  0  0  0  0  0  0  0
  -21.0728   11.6524  -19.2261 C   0  0  0  0  0  0  0  0  0  0  0  0
  -21.2552   12.2804  -20.4575 C   0  0  0  0  0  0  0  0  0  0  0  0
  -20.1481   12.4618  -21.2684 C   0  0  0  0  0  0  0  0  0  0  0  0
  -18.8992   12.0704  -20.9322 N   0  0  0  0  0  0  0  0  0  0  0  0
  -18.7493   11.4726  -19.7306 C   0  0  0  0  0  0  0  0  0  0  0  0
  -19.7925   11.2446  -18.8515 C   0  0  0  0  0  0  0  0  0  0  0  0
  -29.8618   10.6079  -12.0613 O   0  0  0  0  0  0  0  0  0  0  0  0
  -30.0906   11.7036  -12.5546 C   0  0  0  0  0  0  0  0  0  0  0  0
  -30.8142   12.6589  -11.8701 N   0  0  0  0  0  0  0  0  0  0  0  0
  -29.6857   12.1671  -13.7863 N   0  0  0  0  0  0  0  0  0  0  0  0
  -31.3295   13.3120  -12.4430 H   0  0  0  0  0  0  0  0  0  0  0  0
  -29.9063   13.1293  -13.9961 H   0  0  0  0  0  0  0  0  0  0  0  0
  -31.4461   12.2853  -10.5981 C   0  0  0  0  0  0  0  0  0  0  0  0
  -32.8476   11.6723  -10.7255 C   0  0  0  0  0  0  0  0  0  0  0  0
  -32.7954   10.3511  -11.0170 F   0  0  0  0  0  0  0  0  0  0  0  0
  -33.5829   11.8276   -9.6063 F   0  0  0  0  0  0  0  0  0  0  0  0
  -33.5215   12.2675  -11.7412 F   0  0  0  0  0  0  0  0  0  0  0  0
 22 23  2  0  0  0
 23 24  1  0  0  0
 23 25  1  0  0  0
 24 28  1  0  0  0
 24 26  1  0  0  0
 28 29  1  0  0  0
 29 30  1  0  0  0
 29 31  1  0  0  0
 29 32  1  0  0  0
 25  1  1  0  0  0
 25 27  1  0  0  0
  1  2  1  0  0  0
  1  6  2  0  0  0
  2  3  2  0  0  0
  3  4  1  0  0  0
  4  5  2  0  0  0
  5  7  1  0  0  0
  5  6  1  0  0  0
  7  8  2  0  0  0
  7 15  1  0  0  0
  8  9  1  0  0  0
  9 10  2  0  0  0
 10 11  1  0  0  0
 10 15  1  0  0  0
 11 12  2  0  0  0
 12 16  1  0  0  0
 12 13  1  0  0  0
 16 17  1  0  0  0
 16 21  2  0  0  0
 17 18  2  0  0  0
 18 19  1  0  0  0
 19 20  2  0  0  0
 20 21  1  0  0  0
 13 14  2  0  0  0
 14 15  1  0  0  0
M  END
> <minimizedAffinity>
-6.32701

$$$$
