CHEMBL376077


 32 35  0  0  0  0  0  0  0  0999 V2000
  -15.3592   -2.6573  -12.1885 C   0  0  0  0  0  0  0  0  0  0  0  0
  -13.9845   -2.9091  -12.2493 C   0  0  0  0  0  0  0  0  0  0  0  0
  -13.4957   -4.2135  -12.4066 C   0  0  0  0  0  0  0  0  0  0  0  0
  -14.3634   -5.3136  -12.4775 C   0  0  0  0  0  0  0  0  0  0  0  0
  -15.7353   -5.0411  -12.2990 C   0  0  0  0  0  0  0  0  0  0  0  0
  -16.2341   -3.7356  -12.1657 C   0  0  0  0  0  0  0  0  0  0  0  0
  -13.8606   -6.6950  -12.6756 C   0  0  0  0  0  0  0  0  0  0  0  0
  -13.5524   -7.5357  -11.5762 C   0  0  0  0  0  0  0  0  0  0  0  0
  -13.2110   -8.8812  -11.7311 C   0  0  0  0  0  0  0  0  0  0  0  0
  -13.2069   -9.4745  -12.9893 C   0  0  0  0  0  0  0  0  0  0  0  0
  -13.4616   -8.6407  -14.0796 C   0  0  0  0  0  0  0  0  0  0  0  0
  -13.5445   -8.9235  -15.4162 N   0  0  0  0  0  0  0  0  0  0  0  0
  -13.6491   -7.8453  -16.2008 N   0  0  0  0  0  0  0  0  0  0  0  0
  -13.7200   -6.8366  -15.3377 C   0  0  0  0  0  0  0  0  0  0  0  0
  -13.7347   -5.5597  -15.7546 N   0  0  0  0  0  0  0  0  0  0  0  0
  -13.7153   -7.2715  -13.9723 C   0  0  0  0  0  0  0  0  0  0  0  0
  -13.5118   -9.8351  -15.8567 H   0  0  0  0  0  0  0  0  0  0  0  0
  -13.4616   -5.4141  -16.7200 H   0  0  0  0  0  0  0  0  0  0  0  0
  -13.3764   -4.8419  -15.1318 H   0  0  0  0  0  0  0  0  0  0  0  0
  -16.3130    0.6754  -13.3090 N   0  0  0  0  0  0  0  0  0  0  0  0
  -15.7543   -0.5930  -13.3908 C   0  0  0  0  0  0  0  0  0  0  0  0
  -15.2430   -1.0641  -14.4006 O   0  0  0  0  0  0  0  0  0  0  0  0
  -15.8792   -1.3328  -12.2214 N   0  0  0  0  0  0  0  0  0  0  0  0
  -16.7595    0.9343  -12.4435 H   0  0  0  0  0  0  0  0  0  0  0  0
  -16.7334   -1.1781  -11.7076 H   0  0  0  0  0  0  0  0  0  0  0  0
  -18.9379    1.4813  -14.4427 C   0  0  0  0  0  0  0  0  0  0  0  0
  -17.6147    1.9781  -14.9506 C   0  0  0  0  0  0  0  0  0  0  0  0
  -17.6293    2.8669  -16.0488 C   0  0  0  0  0  0  0  0  0  0  0  0
  -16.4540    3.3779  -16.5971 C   0  0  0  0  0  0  0  0  0  0  0  0
  -15.2377    3.0295  -16.0343 C   0  0  0  0  0  0  0  0  0  0  0  0
  -15.2072    2.1679  -14.9375 C   0  0  0  0  0  0  0  0  0  0  0  0
  -16.3742    1.6061  -14.3913 C   0  0  0  0  0  0  0  0  0  0  0  0
 26 27  1  0  0  0
 27 28  1  0  0  0
 27 32  2  0  0  0
 28 29  2  0  0  0
 29 30  1  0  0  0
 30 31  2  0  0  0
 31 32  1  0  0  0
 32 20  1  0  0  0
 20 21  1  0  0  0
 20 24  1  0  0  0
 21 22  2  0  0  0
 21 23  1  0  0  0
 23  1  1  0  0  0
 23 25  1  0  0  0
  1  2  1  0  0  0
  1  6  2  0  0  0
  2  3  2  0  0  0
  3  4  1  0  0  0
  4  7  1  0  0  0
  4  5  2  0  0  0
  7  8  1  0  0  0
  7 16  2  0  0  0
  8  9  2  0  0  0
  9 10  1  0  0  0
 10 11  2  0  0  0
 11 12  1  0  0  0
 11 16  1  0  0  0
 12 13  1  0  0  0
 12 17  1  0  0  0
 13 14  2  0  0  0
 14 15  1  0  0  0
 14 16  1  0  0  0
 15 18  1  0  0  0
 15 19  1  0  0  0
  5  6  1  0  0  0
M  END
> <minimizedAffinity>
-8.25222

$$$$
