CHEMBL4637057


 46 50  0  0  0  0  0  0  0  0999 V2000
  -10.9024   -3.0037  -11.9476 N   0  0  0  0  0  0  0  0  0  0  0  0
   -9.9104   -2.8176  -11.7438 H   0  0  0  0  0  0  0  0  0  0  0  0
  -13.1362   -5.2247   -9.9897 C   0  0  0  0  0  0  0  0  0  0  0  0
  -13.2169   -4.5450   -8.8160 N   0  0  0  0  0  0  0  0  0  0  0  0
  -12.5579   -3.3631   -8.6765 C   0  0  0  0  0  0  0  0  0  0  0  0
  -11.7855   -2.8757   -9.6883 N   0  0  0  0  0  0  0  0  0  0  0  0
  -11.6938   -3.5491  -10.8623 C   0  0  0  0  0  0  0  0  0  0  0  0
  -12.4108   -4.6981  -10.9892 N   0  0  0  0  0  0  0  0  0  0  0  0
  -13.8292   -6.4649  -10.1786 N   0  0  0  0  0  0  0  0  0  0  0  0
  -14.4113   -6.8271   -9.4095 H   0  0  0  0  0  0  0  0  0  0  0  0
  -14.7640   -6.6143  -12.4986 C   0  0  0  0  0  0  0  0  0  0  0  0
  -14.7913   -7.2987  -13.7271 C   0  0  0  0  0  0  0  0  0  0  0  0
  -13.9841   -8.4143  -13.9477 C   0  0  0  0  0  0  0  0  0  0  0  0
  -13.1347   -8.8663  -12.9455 C   0  0  0  0  0  0  0  0  0  0  0  0
  -13.1036   -8.2194  -11.7150 C   0  0  0  0  0  0  0  0  0  0  0  0
  -13.9211   -7.0961  -11.4557 C   0  0  0  0  0  0  0  0  0  0  0  0
  -15.8907   -5.2025  -12.3598 S   0  0  0  0  0  0  0  0  0  0  0  0
  -16.9538   -5.2691  -11.2533 O   0  0  0  0  0  0  0  0  0  0  0  0
  -16.7779   -5.1171  -13.6114 O   0  0  0  0  0  0  0  0  0  0  0  0
  -15.1750   -3.5757  -12.2682 N   0  0  0  0  0  0  0  0  0  0  0  0
  -15.3785   -3.1874  -11.3189 H   0  0  0  0  0  0  0  0  0  0  0  0
  -15.4416   -1.2483  -13.0318 C   0  0  0  0  0  0  0  0  0  0  0  0
  -15.7719   -2.7150  -13.2871 C   0  0  0  0  0  0  0  0  0  0  0  0
  -11.4660   -2.3662  -13.1092 C   0  0  0  0  0  0  0  0  0  0  0  0
  -11.9160   -3.1058  -14.2031 C   0  0  0  0  0  0  0  0  0  0  0  0
  -12.2589   -2.4519  -15.4000 C   0  0  0  0  0  0  0  0  0  0  0  0
  -12.1495   -1.0408  -15.5409 C   0  0  0  0  0  0  0  0  0  0  0  0
  -11.7834   -0.2866  -14.3878 C   0  0  0  0  0  0  0  0  0  0  0  0
  -11.4925   -0.9953  -13.2222 C   0  0  0  0  0  0  0  0  0  0  0  0
  -12.3406   -0.4351  -16.8422 N   0  0  0  0  0  0  0  0  0  0  0  0
  -13.6731   -0.2624  -17.4180 C   0  0  0  0  0  0  0  0  0  0  0  0
  -13.6245   -0.5282  -18.9248 C   0  0  0  0  0  0  0  0  0  0  0  0
  -12.5926    0.3456  -19.5212 N   0  0  0  0  0  0  0  0  0  0  0  0
  -12.6011    0.2880  -20.9838 C   0  0  0  0  0  0  0  0  0  0  0  0
  -11.2654    0.0032  -18.9706 C   0  0  0  0  0  0  0  0  0  0  0  0
  -11.2695    0.3173  -17.4757 C   0  0  0  0  0  0  0  0  0  0  0  0
  -11.6961    1.0863  -14.3521 O   0  0  0  0  0  0  0  0  0  0  0  0
  -12.7437    1.8725  -13.8505 C   0  0  0  0  0  0  0  0  0  0  0  0
  -13.1378    3.0513  -14.7000 C   0  0  0  0  0  0  0  0  0  0  0  0
  -14.3225    2.7870  -15.5360 N   0  0  0  0  0  0  0  0  0  0  0  0
  -15.2913    1.8405  -14.9292 C   0  0  0  0  0  0  0  0  0  0  0  0
  -16.4404    1.5927  -15.9109 C   0  0  0  0  0  0  0  0  0  0  0  0
  -17.1134    2.8478  -16.2971 N   0  0  0  0  0  0  0  0  0  0  0  0
  -17.9806    3.3721  -15.2287 C   0  0  0  0  0  0  0  0  0  0  0  0
  -16.1388    3.8441  -16.7893 C   0  0  0  0  0  0  0  0  0  0  0  0
  -14.9980    4.0678  -15.7964 C   0  0  0  0  0  0  0  0  0  0  0  0
 22 23  1  0  0  0
 23 20  1  0  0  0
 20 17  1  0  0  0
 20 21  1  0  0  0
 17 18  2  0  0  0
 17 19  2  0  0  0
 17 11  1  0  0  0
 11 12  1  0  0  0
 11 16  2  0  0  0
 12 13  2  0  0  0
 13 14  1  0  0  0
 14 15  2  0  0  0
 15 16  1  0  0  0
 16  9  1  0  0  0
  9  3  1  0  0  0
  9 10  1  0  0  0
  3  4  1  0  0  0
  3  8  2  0  0  0
  4  5  2  0  0  0
  5  6  1  0  0  0
  6  7  2  0  0  0
  7  1  1  0  0  0
  7  8  1  0  0  0
  1 24  1  0  0  0
  1  2  1  0  0  0
 24 25  1  0  0  0
 24 29  2  0  0  0
 25 26  2  0  0  0
 26 27  1  0  0  0
 27 30  1  0  0  0
 27 28  2  0  0  0
 30 31  1  0  0  0
 30 36  1  0  0  0
 31 32  1  0  0  0
 32 33  1  0  0  0
 33 34  1  0  0  0
 33 35  1  0  0  0
 35 36  1  0  0  0
 28 37  1  0  0  0
 28 29  1  0  0  0
 37 38  1  0  0  0
 38 39  1  0  0  0
 39 40  1  0  0  0
 40 41  1  0  0  0
 40 46  1  0  0  0
 41 42  1  0  0  0
 42 43  1  0  0  0
 43 44  1  0  0  0
 43 45  1  0  0  0
 45 46  1  0  0  0
M  END
> <minimizedAffinity>
-7.29404

$$$$
