CHEMBL200818


 35 38  0  0  0  0  0  0  0  0999 V2000
  -30.2918  -11.2825   -8.9880 N   0  0  0  0  0  0  0  0  0  0  0  0
  -30.7709  -12.1662   -9.1967 H   0  0  0  0  0  0  0  0  0  0  0  0
  -31.1807  -10.4277   -8.2872 C   0  0  0  0  0  0  0  0  0  0  0  0
  -32.3459  -10.9384   -7.8351 N   0  0  0  0  0  0  0  0  0  0  0  0
  -33.1403  -10.1112   -7.1586 C   0  0  0  0  0  0  0  0  0  0  0  0
  -32.8873   -8.8298   -6.8921 N   0  0  0  0  0  0  0  0  0  0  0  0
  -31.7098   -8.3529   -7.3273 C   0  0  0  0  0  0  0  0  0  0  0  0
  -31.3591   -7.0583   -6.9938 C   0  0  0  0  0  0  0  0  0  0  0  0
  -30.0821   -6.4814   -7.2540 C   0  0  0  0  0  0  0  0  0  0  0  0
  -29.2010   -7.2162   -8.0554 C   0  0  0  0  0  0  0  0  0  0  0  0
  -29.5826   -8.5145   -8.4342 C   0  0  0  0  0  0  0  0  0  0  0  0
  -30.8018   -9.1008   -8.0388 C   0  0  0  0  0  0  0  0  0  0  0  0
  -27.9640   -6.9870   -8.5649 O   0  0  0  0  0  0  0  0  0  0  0  0
  -27.1819   -7.9218   -9.2645 C   0  0  0  0  0  0  0  0  0  0  0  0
  -29.7294   -5.2738   -6.6507 O   0  0  0  0  0  0  0  0  0  0  0  0
  -28.8647   -5.4923   -5.5091 C   0  0  0  0  0  0  0  0  0  0  0  0
  -29.4794   -5.6036   -4.1187 C   0  0  0  0  0  0  0  0  0  0  0  0
  -30.2014   -4.3699   -3.9491 O   0  0  0  0  0  0  0  0  0  0  0  0
  -31.5645   -4.5295   -3.6046 C   0  0  0  0  0  0  0  0  0  0  0  0
  -26.4515  -11.9085   -7.1669 C   0  0  0  0  0  0  0  0  0  0  0  0
  -27.5989  -12.1901   -6.5290 C   0  0  0  0  0  0  0  0  0  0  0  0
  -28.9260  -12.0991   -7.1508 C   0  0  0  0  0  0  0  0  0  0  0  0
  -29.9341  -12.4506   -6.5481 O   0  0  0  0  0  0  0  0  0  0  0  0
  -29.0207  -11.5344   -8.5230 C   0  0  0  0  0  0  0  0  0  0  0  0
  -27.8845  -11.2950   -9.1926 C   0  0  0  0  0  0  0  0  0  0  0  0
  -26.5482  -11.5234   -8.6300 C   0  0  0  0  0  0  0  0  0  0  0  0
  -25.5736  -11.4059   -9.3620 O   0  0  0  0  0  0  0  0  0  0  0  0
  -22.5947  -10.9435   -5.5914 N   0  0  0  0  0  0  0  0  0  0  0  0
  -23.8798  -10.6808   -4.8833 C   0  0  0  0  0  0  0  0  0  0  0  0
  -24.9639  -11.7625   -5.1072 C   0  0  0  0  0  0  0  0  0  0  0  0
  -25.1948  -11.9997   -6.5520 N   0  0  0  0  0  0  0  0  0  0  0  0
  -23.9517  -12.2389   -7.3130 C   0  0  0  0  0  0  0  0  0  0  0  0
  -22.9175  -11.1286   -7.0245 C   0  0  0  0  0  0  0  0  0  0  0  0
  -21.4311  -11.8669   -3.5626 C   0  0  0  0  0  0  0  0  0  0  0  0
  -21.9070  -12.0994   -4.9934 C   0  0  0  0  0  0  0  0  0  0  0  0
 34 35  1  0  0  0
 35 28  1  0  0  0
 28 29  1  0  0  0
 28 33  1  0  0  0
 29 30  1  0  0  0
 30 31  1  0  0  0
 31 20  1  0  0  0
 31 32  1  0  0  0
 20 21  2  0  0  0
 20 26  1  0  0  0
 21 22  1  0  0  0
 22 23  2  0  0  0
 22 24  1  0  0  0
 24  1  1  0  0  0
 24 25  2  0  0  0
  1  3  1  0  0  0
  1  2  1  0  0  0
  3  4  1  0  0  0
  3 12  2  0  0  0
  4  5  2  0  0  0
  5  6  1  0  0  0
  6  7  2  0  0  0
  7  8  1  0  0  0
  7 12  1  0  0  0
  8  9  2  0  0  0
  9 15  1  0  0  0
  9 10  1  0  0  0
 15 16  1  0  0  0
 16 17  1  0  0  0
 17 18  1  0  0  0
 18 19  1  0  0  0
 10 13  1  0  0  0
 10 11  2  0  0  0
 13 14  1  0  0  0
 11 12  1  0  0  0
 25 26  1  0  0  0
 26 27  2  0  0  0
 32 33  1  0  0  0
M  END
> <minimizedAffinity>
-6.63663

$$$$
