CHEMBL2205426


 34 37  0  0  0  0  0  0  0  0999 V2000
  -15.6392    1.4693  -15.4589 C   0  0  0  0  0  0  0  0  0  0  0  0
  -14.6745    2.4052  -15.7616 C   0  0  0  0  0  0  0  0  0  0  0  0
  -15.1016    3.6895  -15.9480 C   0  0  0  0  0  0  0  0  0  0  0  0
  -16.3844    4.0437  -15.8469 N   0  0  0  0  0  0  0  0  0  0  0  0
  -17.2766    3.0772  -15.5753 C   0  0  0  0  0  0  0  0  0  0  0  0
  -16.9479    1.7845  -15.4196 N   0  0  0  0  0  0  0  0  0  0  0  0
  -15.3225    0.1319  -15.1766 N   0  0  0  0  0  0  0  0  0  0  0  0
  -15.4016   -0.3944  -16.0463 H   0  0  0  0  0  0  0  0  0  0  0  0
  -14.7433   -1.6911  -13.5602 C   0  0  0  0  0  0  0  0  0  0  0  0
  -15.2841   -0.5190  -14.0297 C   0  0  0  0  0  0  0  0  0  0  0  0
  -15.8733   -0.2071  -12.7016 C   0  0  0  0  0  0  0  0  0  0  0  0
  -16.4675    0.6771  -12.1322 O   0  0  0  0  0  0  0  0  0  0  0  0
  -15.3958   -1.5250  -12.2386 C   0  0  0  0  0  0  0  0  0  0  0  0
  -15.4580   -2.1048  -11.1828 O   0  0  0  0  0  0  0  0  0  0  0  0
  -13.9758   -2.6979  -13.9592 N   0  0  0  0  0  0  0  0  0  0  0  0
  -13.4346   -2.5075  -14.8110 H   0  0  0  0  0  0  0  0  0  0  0  0
  -13.9884   -4.7384  -15.3476 C   0  0  0  0  0  0  0  0  0  0  0  0
  -14.4786   -4.0941  -14.0390 C   0  0  0  0  0  0  0  0  0  0  0  0
  -16.0066   -4.1624  -13.9509 C   0  0  0  0  0  0  0  0  0  0  0  0
  -13.8865   -4.8760  -12.8522 C   0  0  0  0  0  0  0  0  0  0  0  0
  -18.6189    3.4273  -15.4396 N   0  0  0  0  0  0  0  0  0  0  0  0
  -18.8581    4.2218  -16.0120 H   0  0  0  0  0  0  0  0  0  0  0  0
  -19.6782    2.5783  -15.0835 C   0  0  0  0  0  0  0  0  0  0  0  0
  -20.7677    3.0877  -14.3782 C   0  0  0  0  0  0  0  0  0  0  0  0
  -21.7700    2.2331  -13.8941 C   0  0  0  0  0  0  0  0  0  0  0  0
  -21.7361    0.8454  -14.1234 C   0  0  0  0  0  0  0  0  0  0  0  0
  -20.6668    0.3571  -14.8883 C   0  0  0  0  0  0  0  0  0  0  0  0
  -19.6534    1.2046  -15.3446 C   0  0  0  0  0  0  0  0  0  0  0  0
  -22.7561   -0.0683  -13.5583 C   0  0  0  0  0  0  0  0  0  0  0  0
  -23.8672   -0.4843  -14.3027 C   0  0  0  0  0  0  0  0  0  0  0  0
  -24.8111   -1.3158  -13.7163 C   0  0  0  0  0  0  0  0  0  0  0  0
  -24.7276   -1.7756  -12.4527 N   0  0  0  0  0  0  0  0  0  0  0  0
  -23.6532   -1.3809  -11.7429 C   0  0  0  0  0  0  0  0  0  0  0  0
  -22.6662   -0.5429  -12.2400 C   0  0  0  0  0  0  0  0  0  0  0  0
 17 18  1  0  0  0
 18 19  1  0  0  0
 18 20  1  0  0  0
 18 15  1  0  0  0
 15  9  1  0  0  0
 15 16  1  0  0  0
  9 10  2  0  0  0
  9 13  1  0  0  0
 10  7  1  0  0  0
 10 11  1  0  0  0
  7  1  1  0  0  0
  7  8  1  0  0  0
  1  2  1  0  0  0
  1  6  2  0  0  0
  2  3  2  0  0  0
  3  4  1  0  0  0
  4  5  2  0  0  0
  5 21  1  0  0  0
  5  6  1  0  0  0
 21 23  1  0  0  0
 21 22  1  0  0  0
 23 24  1  0  0  0
 23 28  2  0  0  0
 24 25  2  0  0  0
 25 26  1  0  0  0
 26 29  1  0  0  0
 26 27  2  0  0  0
 29 30  1  0  0  0
 29 34  2  0  0  0
 30 31  2  0  0  0
 31 32  1  0  0  0
 32 33  2  0  0  0
 33 34  1  0  0  0
 27 28  1  0  0  0
 11 12  2  0  0  0
 11 13  1  0  0  0
 13 14  2  0  0  0
M  END
> <minimizedAffinity>
-9.83553

$$$$
