CHEMBL3706839


 34 37  0  0  0  0  0  0  0  0999 V2000
  -28.5835   -1.8586   -4.9075 C   0  0  0  0  0  0  0  0  0  0  0  0
  -29.5396   -2.3030   -3.9611 C   0  0  0  0  0  0  0  0  0  0  0  0
  -30.2329   -3.5098   -4.0637 C   0  0  0  0  0  0  0  0  0  0  0  0
  -31.1781   -3.8225   -3.1623 N   0  0  0  0  0  0  0  0  0  0  0  0
  -31.8270   -4.9822   -3.3461 C   0  0  0  0  0  0  0  0  0  0  0  0
  -31.5917   -5.8718   -4.3133 N   0  0  0  0  0  0  0  0  0  0  0  0
  -30.6164   -5.5606   -5.1841 C   0  0  0  0  0  0  0  0  0  0  0  0
  -29.9168   -4.3472   -5.1290 C   0  0  0  0  0  0  0  0  0  0  0  0
  -28.9634   -3.9252   -6.0853 C   0  0  0  0  0  0  0  0  0  0  0  0
  -28.2953   -2.6896   -5.9967 C   0  0  0  0  0  0  0  0  0  0  0  0
  -30.2852   -6.4918   -6.2093 N   0  0  0  0  0  0  0  0  0  0  0  0
  -30.1960   -6.0008   -7.1033 H   0  0  0  0  0  0  0  0  0  0  0  0
  -29.2895   -7.4513   -6.0797 C   0  0  0  0  0  0  0  0  0  0  0  0
  -28.5684   -7.6759   -4.9777 C   0  0  0  0  0  0  0  0  0  0  0  0
  -27.5232   -8.7028   -4.8847 C   0  0  0  0  0  0  0  0  0  0  0  0
  -26.9258   -8.8104   -3.8193 O   0  0  0  0  0  0  0  0  0  0  0  0
  -27.2402   -9.5602   -6.0938 C   0  0  0  0  0  0  0  0  0  0  0  0
  -27.9858   -9.3358   -7.1903 C   0  0  0  0  0  0  0  0  0  0  0  0
  -29.0538   -8.3206   -7.2654 C   0  0  0  0  0  0  0  0  0  0  0  0
  -29.7370   -8.1855   -8.2824 O   0  0  0  0  0  0  0  0  0  0  0  0
  -26.2473  -10.5414   -6.0217 N   0  0  0  0  0  0  0  0  0  0  0  0
  -24.9689  -10.4454   -6.6749 C   0  0  0  0  0  0  0  0  0  0  0  0
  -24.1726  -11.5926   -6.0978 C   0  0  0  0  0  0  0  0  0  0  0  0
  -23.2034  -11.1313   -5.0161 C   0  0  0  0  0  0  0  0  0  0  0  0
  -25.1522  -12.4659   -5.5336 O   0  0  0  0  0  0  0  0  0  0  0  0
  -26.3436  -11.7961   -5.4318 C   0  0  0  0  0  0  0  0  0  0  0  0
  -27.3157  -12.2972   -4.8906 O   0  0  0  0  0  0  0  0  0  0  0  0
  -27.5669   -2.4652   -7.1296 O   0  0  0  0  0  0  0  0  0  0  0  0
  -28.0801   -2.7925   -8.4093 C   0  0  0  0  0  0  0  0  0  0  0  0
  -28.1360   -0.6016   -4.5837 O   0  0  0  0  0  0  0  0  0  0  0  0
  -28.9240    0.5009   -4.9822 C   0  0  0  0  0  0  0  0  0  0  0  0
  -28.5631    1.0465   -6.3561 C   0  0  0  0  0  0  0  0  0  0  0  0
  -30.8803    1.4430   -5.9995 C   0  0  0  0  0  0  0  0  0  0  0  0
  -29.7814    1.5864   -6.8791 O   0  0  0  0  0  0  0  0  0  0  0  0
 33 34  1  0  0  0
 34 32  1  0  0  0
 32 31  1  0  0  0
 31 30  1  0  0  0
 30  1  1  0  0  0
  1  2  1  0  0  0
  1 10  2  0  0  0
  2  3  2  0  0  0
  3  4  1  0  0  0
  3  8  1  0  0  0
  4  5  2  0  0  0
  5  6  1  0  0  0
  6  7  2  0  0  0
  7 11  1  0  0  0
  7  8  1  0  0  0
 11 13  1  0  0  0
 11 12  1  0  0  0
 13 14  2  0  0  0
 13 19  1  0  0  0
 14 15  1  0  0  0
 15 16  2  0  0  0
 15 17  1  0  0  0
 17 21  1  0  0  0
 17 18  2  0  0  0
 21 22  1  0  0  0
 21 26  1  0  0  0
 22 23  1  0  0  0
 23 24  1  0  0  0
 23 25  1  0  0  0
 25 26  1  0  0  0
 26 27  2  0  0  0
 18 19  1  0  0  0
 19 20  2  0  0  0
  8  9  2  0  0  0
  9 10  1  0  0  0
 10 28  1  0  0  0
 28 29  1  0  0  0
M  END
> <minimizedAffinity>
-7.93107

$$$$
