CHEMBL3904441


 42 47  0  0  0  0  0  0  0  0999 V2000
  -29.0045   -8.6117   -5.3451 C   0  0  0  0  0  0  0  0  0  0  0  0
  -29.0705   -7.7614   -4.2510 C   0  0  0  0  0  0  0  0  0  0  0  0
  -29.2020   -6.4470   -4.2782 C   0  0  0  0  0  0  0  0  0  0  0  0
  -29.1145   -5.7752   -5.4105 C   0  0  0  0  0  0  0  0  0  0  0  0
  -29.2608   -4.4758   -5.2138 N   0  0  0  0  0  0  0  0  0  0  0  0
  -29.0213   -3.6034   -6.1471 C   0  0  0  0  0  0  0  0  0  0  0  0
  -28.5371   -3.9930   -7.3725 C   0  0  0  0  0  0  0  0  0  0  0  0
  -28.5145   -5.4020   -7.6776 N   0  0  0  0  0  0  0  0  0  0  0  0
  -28.8193   -6.3520   -6.6494 C   0  0  0  0  0  0  0  0  0  0  0  0
  -28.8410   -7.8767   -6.6466 C   0  0  0  0  0  0  0  0  0  0  0  0
  -28.0662   -2.7319   -8.1292 C   0  0  0  0  0  0  0  0  0  0  0  0
  -27.8936   -1.3944   -7.8034 C   0  0  0  0  0  0  0  0  0  0  0  0
  -27.4017   -0.7172   -8.8767 N   0  0  0  0  0  0  0  0  0  0  0  0
  -27.2851   -1.5447   -9.9084 N   0  0  0  0  0  0  0  0  0  0  0  0
  -27.6767   -2.7613   -9.5091 C   0  0  0  0  0  0  0  0  0  0  0  0
  -26.8617   -1.1916  -11.3006 C   0  0  0  0  0  0  0  0  0  0  0  0
  -25.3480   -0.9548  -11.3518 C   0  0  0  0  0  0  0  0  0  0  0  0
  -24.5107   -1.9637  -12.0712 N   0  0  0  0  0  0  0  0  0  0  0  0
  -23.0783   -1.7062  -11.7859 C   0  0  0  0  0  0  0  0  0  0  0  0
  -22.6089   -0.3558  -12.3949 C   0  0  0  0  0  0  0  0  0  0  0  0
  -22.8356   -0.3309  -13.8475 N   0  0  0  0  0  0  0  0  0  0  0  0
  -24.2322   -0.6537  -14.1942 C   0  0  0  0  0  0  0  0  0  0  0  0
  -24.6752   -1.9803  -13.5443 C   0  0  0  0  0  0  0  0  0  0  0  0
  -22.1997   -1.0280  -14.2984 H   0  0  0  0  0  0  0  0  0  0  0  0
  -29.0934  -10.0853   -4.9775 N   0  0  0  0  0  0  0  0  0  0  0  0
  -29.1342  -12.1037   -8.2535 C   0  0  0  0  0  0  0  0  0  0  0  0
  -30.4957  -12.3944   -8.3520 C   0  0  0  0  0  0  0  0  0  0  0  0
  -31.3600  -12.1278   -7.2689 C   0  0  0  0  0  0  0  0  0  0  0  0
  -30.8674  -11.4482   -6.1284 C   0  0  0  0  0  0  0  0  0  0  0  0
  -29.5087  -11.0684   -6.0205 C   0  0  0  0  0  0  0  0  0  0  0  0
  -28.6408  -11.5561   -7.0522 C   0  0  0  0  0  0  0  0  0  0  0  0
  -27.2936  -11.3329   -9.7310 C   0  0  0  0  0  0  0  0  0  0  0  0
  -28.2675  -12.2314   -9.3069 O   0  0  0  0  0  0  0  0  0  0  0  0
  -32.6807  -12.4654   -7.3115 O   0  0  0  0  0  0  0  0  0  0  0  0
  -33.6494  -12.0520   -6.4191 C   0  0  0  0  0  0  0  0  0  0  0  0
  -28.7929  -10.6474   -3.6538 C   0  0  0  0  0  0  0  0  0  0  0  0
  -27.3777  -11.0924   -3.4724 C   0  0  0  0  0  0  0  0  0  0  0  0
  -26.9392  -12.3744   -3.2001 C   0  0  0  0  0  0  0  0  0  0  0  0
  -25.5485  -12.4651   -3.0860 C   0  0  0  0  0  0  0  0  0  0  0  0
  -24.9031  -11.2538   -3.2780 C   0  0  0  0  0  0  0  0  0  0  0  0
  -23.1729  -10.9933   -3.1833 Cl  0  0  0  0  0  0  0  0  0  0  0  0
  -26.0461  -10.0665   -3.6045 S   0  0  0  0  0  0  0  0  0  0  0  0
 32 33  1  0  0  0
 33 26  1  0  0  0
 26 27  1  0  0  0
 26 31  2  0  0  0
 27 28  2  0  0  0
 28 34  1  0  0  0
 28 29  1  0  0  0
 34 35  1  0  0  0
 29 30  2  0  0  0
 30 25  1  0  0  0
 30 31  1  0  0  0
 25 36  1  0  0  0
 25  1  1  0  0  0
 36 37  1  0  0  0
 37 38  2  0  0  0
 37 42  1  0  0  0
 38 39  1  0  0  0
 39 40  2  0  0  0
 40 41  1  0  0  0
 40 42  1  0  0  0
  1  2  1  0  0  0
  1 10  2  0  0  0
  2  3  2  0  0  0
  3  4  1  0  0  0
  4  5  1  0  0  0
  4  9  2  0  0  0
  5  6  2  0  0  0
  6  7  1  0  0  0
  7 11  1  0  0  0
  7  8  2  0  0  0
 11 12  1  0  0  0
 11 15  2  0  0  0
 12 13  2  0  0  0
 13 14  1  0  0  0
 14 16  1  0  0  0
 14 15  1  0  0  0
 16 17  1  0  0  0
 17 18  1  0  0  0
 18 19  1  0  0  0
 18 23  1  0  0  0
 19 20  1  0  0  0
 20 21  1  0  0  0
 21 22  1  0  0  0
 21 24  1  0  0  0
 22 23  1  0  0  0
  8  9  1  0  0  0
  9 10  1  0  0  0
M  END
> <minimizedAffinity>
-7.79316

$$$$
