CHEMBL1940844


 22 24  0  0  0  0  0  0  0  0999 V2000
  -28.0627    0.7603   -4.8268 C   0  0  0  0  0  0  0  0  0  0  0  0
  -28.1576   -0.5386   -5.5704 C   0  0  0  0  0  0  0  0  0  0  0  0
  -28.1368   -0.5776   -6.9641 C   0  0  0  0  0  0  0  0  0  0  0  0
  -28.2288   -1.8007   -7.6383 C   0  0  0  0  0  0  0  0  0  0  0  0
  -28.3456   -3.0054   -6.9558 C   0  0  0  0  0  0  0  0  0  0  0  0
  -28.4379   -4.1547   -7.6413 N   0  0  0  0  0  0  0  0  0  0  0  0
  -28.5650   -5.3082   -6.9383 C   0  0  0  0  0  0  0  0  0  0  0  0
  -28.6697   -6.6788   -7.9812 Cl  0  0  0  0  0  0  0  0  0  0  0  0
  -28.5905   -5.4085   -5.5429 C   0  0  0  0  0  0  0  0  0  0  0  0
  -28.4948   -4.1878   -4.8592 C   0  0  0  0  0  0  0  0  0  0  0  0
  -28.3693   -2.9710   -5.5510 C   0  0  0  0  0  0  0  0  0  0  0  0
  -28.2722   -1.7435   -4.8683 C   0  0  0  0  0  0  0  0  0  0  0  0
  -28.7673   -6.6868   -4.8160 C   0  0  0  0  0  0  0  0  0  0  0  0
  -27.7881   -7.5797   -4.5930 C   0  0  0  0  0  0  0  0  0  0  0  0
  -28.0297   -8.8726   -3.8784 C   0  0  0  0  0  0  0  0  0  0  0  0
  -29.1698   -9.1332   -3.4765 O   0  0  0  0  0  0  0  0  0  0  0  0
  -26.8806   -9.7410   -3.6736 C   0  0  0  0  0  0  0  0  0  0  0  0
  -25.3015   -9.0596   -3.7782 S   0  0  0  0  0  0  0  0  0  0  0  0
  -24.5551  -10.5533   -3.4124 C   0  0  0  0  0  0  0  0  0  0  0  0
  -25.4771  -11.5549   -3.2244 C   0  0  0  0  0  0  0  0  0  0  0  0
  -26.8161  -11.0922   -3.3877 C   0  0  0  0  0  0  0  0  0  0  0  0
  -28.1265  -12.1865   -3.2027 Cl  0  0  0  0  0  0  0  0  0  0  0  0
  1  2  1  0  0  0
  2  3  1  0  0  0
  2 12  2  0  0  0
  3  4  2  0  0  0
  4  5  1  0  0  0
  5  6  1  0  0  0
  5 11  2  0  0  0
  6  7  2  0  0  0
  7  8  1  0  0  0
  7  9  1  0  0  0
  9 13  1  0  0  0
  9 10  2  0  0  0
 13 14  2  0  0  0
 14 15  1  0  0  0
 15 16  2  0  0  0
 15 17  1  0  0  0
 17 18  1  0  0  0
 17 21  2  0  0  0
 18 19  1  0  0  0
 19 20  2  0  0  0
 20 21  1  0  0  0
 21 22  1  0  0  0
 10 11  1  0  0  0
 11 12  1  0  0  0
M  END
> <minimizedAffinity>
-7.49690

$$$$
