CHEMBL3903973


 33 36  0  0  0  0  0  0  0  0999 V2000
  -29.8600   -5.9397   -5.6121 N   0  0  0  0  0  0  0  0  0  0  0  0
  -29.2197   -4.7240   -5.9751 C   0  0  0  0  0  0  0  0  0  0  0  0
  -29.1983   -3.6216   -5.1116 C   0  0  0  0  0  0  0  0  0  0  0  0
  -28.7937   -2.3654   -5.5544 C   0  0  0  0  0  0  0  0  0  0  0  0
  -28.3406   -2.1879   -6.8442 C   0  0  0  0  0  0  0  0  0  0  0  0
  -28.0035   -0.9437   -7.2234 N   0  0  0  0  0  0  0  0  0  0  0  0
  -27.5472   -0.8291   -8.4931 C   0  0  0  0  0  0  0  0  0  0  0  0
  -27.4154   -1.9061   -9.3560 C   0  0  0  0  0  0  0  0  0  0  0  0
  -27.7815   -3.1563   -8.9777 N   0  0  0  0  0  0  0  0  0  0  0  0
  -28.2503   -3.2982   -7.7176 C   0  0  0  0  0  0  0  0  0  0  0  0
  -28.6915   -4.5421   -7.2659 C   0  0  0  0  0  0  0  0  0  0  0  0
  -26.8565   -1.7324  -10.6816 C   0  0  0  0  0  0  0  0  0  0  0  0
  -27.4933   -1.6277  -11.9390 C   0  0  0  0  0  0  0  0  0  0  0  0
  -26.6384   -1.4485  -12.9423 N   0  0  0  0  0  0  0  0  0  0  0  0
  -25.4372   -1.4263  -12.3341 N   0  0  0  0  0  0  0  0  0  0  0  0
  -24.2440   -1.2136  -13.1113 C   0  0  0  0  0  0  0  0  0  0  0  0
  -25.5142   -1.5977  -10.9820 C   0  0  0  0  0  0  0  0  0  0  0  0
  -28.2737   -9.2668   -6.5063 C   0  0  0  0  0  0  0  0  0  0  0  0
  -29.2190   -9.7915   -7.3794 C   0  0  0  0  0  0  0  0  0  0  0  0
  -30.3594   -9.0580   -7.7004 C   0  0  0  0  0  0  0  0  0  0  0  0
  -30.5501   -7.7847   -7.1391 C   0  0  0  0  0  0  0  0  0  0  0  0
  -31.5924   -7.0424   -7.5527 F   0  0  0  0  0  0  0  0  0  0  0  0
  -29.6521   -7.2263   -6.2020 C   0  0  0  0  0  0  0  0  0  0  0  0
  -28.5130   -8.0172   -5.9022 C   0  0  0  0  0  0  0  0  0  0  0  0
  -27.6208   -7.5740   -5.0014 F   0  0  0  0  0  0  0  0  0  0  0  0
  -26.2556  -10.2592   -7.2660 C   0  0  0  0  0  0  0  0  0  0  0  0
  -27.1132   -9.9244   -6.1752 O   0  0  0  0  0  0  0  0  0  0  0  0
  -31.1791   -9.7106   -8.5842 O   0  0  0  0  0  0  0  0  0  0  0  0
  -31.3865  -11.1017   -8.3747 C   0  0  0  0  0  0  0  0  0  0  0  0
  -30.9040   -5.7880   -4.5565 C   0  0  0  0  0  0  0  0  0  0  0  0
  -30.5859   -6.5366   -3.2469 C   0  0  0  0  0  0  0  0  0  0  0  0
  -29.2568   -6.2205   -2.8265 O   0  0  0  0  0  0  0  0  0  0  0  0
  -28.8186   -7.0545   -2.5846 H   0  0  0  0  0  0  0  0  0  0  0  0
 26 27  1  0  0  0
 27 18  1  0  0  0
 18 19  1  0  0  0
 18 24  2  0  0  0
 19 20  2  0  0  0
 20 28  1  0  0  0
 20 21  1  0  0  0
 28 29  1  0  0  0
 21 22  1  0  0  0
 21 23  2  0  0  0
 23  1  1  0  0  0
 23 24  1  0  0  0
  1 30  1  0  0  0
  1  2  1  0  0  0
 30 31  1  0  0  0
 31 32  1  0  0  0
 32 33  1  0  0  0
  2  3  1  0  0  0
  2 11  2  0  0  0
  3  4  2  0  0  0
  4  5  1  0  0  0
  5  6  1  0  0  0
  5 10  2  0  0  0
  6  7  2  0  0  0
  7  8  1  0  0  0
  8 12  1  0  0  0
  8  9  2  0  0  0
 12 13  1  0  0  0
 12 17  2  0  0  0
 13 14  2  0  0  0
 14 15  1  0  0  0
 15 16  1  0  0  0
 15 17  1  0  0  0
  9 10  1  0  0  0
 10 11  1  0  0  0
 24 25  1  0  0  0
M  END
> <minimizedAffinity>
-8.33770

$$$$
