CHEMBL3961315


 35 39  0  0  0  0  0  0  0  0999 V2000
  -29.3190   -5.4779   -5.7723 C   0  0  0  0  0  0  0  0  0  0  0  0
  -30.2366   -5.2556   -6.8112 C   0  0  0  0  0  0  0  0  0  0  0  0
  -29.9976   -4.2962   -7.8164 C   0  0  0  0  0  0  0  0  0  0  0  0
  -28.9294   -3.4058   -7.6251 C   0  0  0  0  0  0  0  0  0  0  0  0
  -28.2859   -2.2972   -8.2737 C   0  0  0  0  0  0  0  0  0  0  0  0
  -28.0725   -1.3927   -7.2924 N   0  0  0  0  0  0  0  0  0  0  0  0
  -27.7451   -2.2111   -6.2679 N   0  0  0  0  0  0  0  0  0  0  0  0
  -28.2609   -3.4646   -6.4055 C   0  0  0  0  0  0  0  0  0  0  0  0
  -28.2882   -4.5636   -5.5517 C   0  0  0  0  0  0  0  0  0  0  0  0
  -27.2882   -1.8039   -5.4577 H   0  0  0  0  0  0  0  0  0  0  0  0
  -27.1670   -2.3464   -9.2146 C   0  0  0  0  0  0  0  0  0  0  0  0
  -26.6945   -1.2589   -9.8571 C   0  0  0  0  0  0  0  0  0  0  0  0
  -26.4807   -1.2460  -11.3258 C   0  0  0  0  0  0  0  0  0  0  0  0
  -25.1982   -1.0143  -11.8627 C   0  0  0  0  0  0  0  0  0  0  0  0
  -24.9262   -1.2411  -13.2165 C   0  0  0  0  0  0  0  0  0  0  0  0
  -25.9334   -1.7059  -14.0555 C   0  0  0  0  0  0  0  0  0  0  0  0
  -27.2089   -1.9342  -13.5432 C   0  0  0  0  0  0  0  0  0  0  0  0
  -27.4802   -1.7112  -12.1854 C   0  0  0  0  0  0  0  0  0  0  0  0
  -29.3992   -6.4811   -4.8252 O   0  0  0  0  0  0  0  0  0  0  0  0
  -27.5018   -9.6010   -4.8865 C   0  0  0  0  0  0  0  0  0  0  0  0
  -28.3855  -10.4274   -5.5854 C   0  0  0  0  0  0  0  0  0  0  0  0
  -29.5493   -9.9171   -6.1540 C   0  0  0  0  0  0  0  0  0  0  0  0
  -29.8656   -8.5758   -5.9949 C   0  0  0  0  0  0  0  0  0  0  0  0
  -29.0875   -7.7816   -5.1499 C   0  0  0  0  0  0  0  0  0  0  0  0
  -27.8833   -8.2791   -4.6318 C   0  0  0  0  0  0  0  0  0  0  0  0
  -25.1274  -10.2246   -6.4901 O   0  0  0  0  0  0  0  0  0  0  0  0
  -25.1596  -10.3280   -5.2616 C   0  0  0  0  0  0  0  0  0  0  0  0
  -26.2380  -10.0513   -4.4369 N   0  0  0  0  0  0  0  0  0  0  0  0
  -26.0582   -9.9967   -3.4418 H   0  0  0  0  0  0  0  0  0  0  0  0
  -23.9027  -10.7231   -4.5869 C   0  0  0  0  0  0  0  0  0  0  0  0
  -22.8175  -11.0851   -5.3926 C   0  0  0  0  0  0  0  0  0  0  0  0
  -21.6312  -11.5239   -4.8118 C   0  0  0  0  0  0  0  0  0  0  0  0
  -21.5334  -11.6111   -3.4238 C   0  0  0  0  0  0  0  0  0  0  0  0
  -22.6183  -11.2617   -2.6163 C   0  0  0  0  0  0  0  0  0  0  0  0
  -23.8092  -10.8167   -3.1931 C   0  0  0  0  0  0  0  0  0  0  0  0
 26 27  2  0  0  0
 27 28  1  0  0  0
 27 30  1  0  0  0
 28 20  1  0  0  0
 28 29  1  0  0  0
 20 21  1  0  0  0
 20 25  2  0  0  0
 21 22  2  0  0  0
 22 23  1  0  0  0
 23 24  2  0  0  0
 24 19  1  0  0  0
 24 25  1  0  0  0
 19  1  1  0  0  0
  1  2  1  0  0  0
  1  9  2  0  0  0
  2  3  2  0  0  0
  3  4  1  0  0  0
  4  5  1  0  0  0
  4  8  2  0  0  0
  5 11  1  0  0  0
  5  6  2  0  0  0
 11 12  2  0  0  0
 12 13  1  0  0  0
 13 14  1  0  0  0
 13 18  2  0  0  0
 14 15  2  0  0  0
 15 16  1  0  0  0
 16 17  2  0  0  0
 17 18  1  0  0  0
  6  7  1  0  0  0
  7  8  1  0  0  0
  7 10  1  0  0  0
  8  9  1  0  0  0
 30 31  1  0  0  0
 30 35  2  0  0  0
 31 32  2  0  0  0
 32 33  1  0  0  0
 33 34  2  0  0  0
 34 35  1  0  0  0
M  END
> <minimizedAffinity>
-9.74467

$$$$
