CHEMBL1688215


 22 24  0  0  0  0  0  0  0  0999 V2000
  -30.2149   -5.8671   -6.6618 C   0  0  0  0  0  0  0  0  0  0  0  0
  -29.8567   -4.7155   -7.3915 C   0  0  0  0  0  0  0  0  0  0  0  0
  -29.6392   -3.4719   -6.7763 C   0  0  0  0  0  0  0  0  0  0  0  0
  -29.7919   -3.3682   -5.3845 C   0  0  0  0  0  0  0  0  0  0  0  0
  -29.6438   -2.3518   -4.4042 C   0  0  0  0  0  0  0  0  0  0  0  0
  -29.2461   -1.0986   -4.6622 N   0  0  0  0  0  0  0  0  0  0  0  0
  -29.9396   -2.7834   -3.1816 N   0  0  0  0  0  0  0  0  0  0  0  0
  -30.2593   -4.0759   -3.3689 N   0  0  0  0  0  0  0  0  0  0  0  0
  -30.1780   -4.4945   -4.6701 C   0  0  0  0  0  0  0  0  0  0  0  0
  -30.4002   -5.7437   -5.2691 C   0  0  0  0  0  0  0  0  0  0  0  0
  -29.2571   -0.7185   -5.5994 H   0  0  0  0  0  0  0  0  0  0  0  0
  -29.3474   -0.4162   -3.9217 H   0  0  0  0  0  0  0  0  0  0  0  0
  -30.5218   -4.6262   -2.5597 H   0  0  0  0  0  0  0  0  0  0  0  0
  -32.9947   -9.5610   -7.6770 N   0  0  0  0  0  0  0  0  0  0  0  0
  -31.7630   -8.9544   -7.7937 C   0  0  0  0  0  0  0  0  0  0  0  0
  -30.8413   -9.5879   -8.5218 N   0  0  0  0  0  0  0  0  0  0  0  0
  -29.6590   -8.9681   -8.6564 C   0  0  0  0  0  0  0  0  0  0  0  0
  -29.3738   -7.7532   -8.0856 C   0  0  0  0  0  0  0  0  0  0  0  0
  -30.3804   -7.1782   -7.3317 C   0  0  0  0  0  0  0  0  0  0  0  0
  -31.5751   -7.7911   -7.1621 N   0  0  0  0  0  0  0  0  0  0  0  0
  -32.9125  -10.5532   -7.8512 H   0  0  0  0  0  0  0  0  0  0  0  0
  -33.4642   -9.2626   -6.8368 H   0  0  0  0  0  0  0  0  0  0  0  0
 14 15  1  0  0  0
 14 21  1  0  0  0
 14 22  1  0  0  0
 15 16  1  0  0  0
 15 20  2  0  0  0
 16 17  2  0  0  0
 17 18  1  0  0  0
 18 19  2  0  0  0
 19  1  1  0  0  0
 19 20  1  0  0  0
  1  2  1  0  0  0
  1 10  2  0  0  0
  2  3  2  0  0  0
  3  4  1  0  0  0
  4  5  1  0  0  0
  4  9  2  0  0  0
  5  6  1  0  0  0
  5  7  2  0  0  0
  6 11  1  0  0  0
  6 12  1  0  0  0
  7  8  1  0  0  0
  8  9  1  0  0  0
  8 13  1  0  0  0
  9 10  1  0  0  0
M  END
> <minimizedAffinity>
-7.37658

$$$$
