CHEMBL258396


 38 42  0  0  0  0  0  0  0  0999 V2000
  -14.8687   -1.7410  -13.5923 C   0  0  0  0  0  0  0  0  0  0  0  0
  -15.3724   -0.5069  -13.1830 C   0  0  0  0  0  0  0  0  0  0  0  0
  -14.6588    0.6543  -13.4643 C   0  0  0  0  0  0  0  0  0  0  0  0
  -13.5008    0.6100  -14.2524 C   0  0  0  0  0  0  0  0  0  0  0  0
  -13.0522   -0.6160  -14.7384 C   0  0  0  0  0  0  0  0  0  0  0  0
  -13.7402   -1.7813  -14.4083 C   0  0  0  0  0  0  0  0  0  0  0  0
  -13.2745   -2.9566  -14.8568 F   0  0  0  0  0  0  0  0  0  0  0  0
  -12.8494    1.8373  -14.4512 N   0  0  0  0  0  0  0  0  0  0  0  0
  -12.0939    2.0207  -13.7878 H   0  0  0  0  0  0  0  0  0  0  0  0
  -13.0938    2.8889  -15.3010 C   0  0  0  0  0  0  0  0  0  0  0  0
  -12.0332    3.6986  -16.3041 S   0  0  0  0  0  0  0  0  0  0  0  0
  -14.4283    3.2625  -15.3789 N   0  0  0  0  0  0  0  0  0  0  0  0
  -15.3274    3.0008  -16.4034 C   0  0  0  0  0  0  0  0  0  0  0  0
  -15.0808    2.2419  -17.3416 O   0  0  0  0  0  0  0  0  0  0  0  0
  -14.7296    3.8553  -14.6162 H   0  0  0  0  0  0  0  0  0  0  0  0
  -16.6365    3.7514  -16.3030 C   0  0  0  0  0  0  0  0  0  0  0  0
  -17.7674    2.9311  -15.7416 C   0  0  0  0  0  0  0  0  0  0  0  0
  -19.0305    3.5064  -15.5454 C   0  0  0  0  0  0  0  0  0  0  0  0
  -20.0968    2.7308  -15.0874 C   0  0  0  0  0  0  0  0  0  0  0  0
  -19.9127    1.3753  -14.8223 C   0  0  0  0  0  0  0  0  0  0  0  0
  -18.6621    0.7927  -15.0142 C   0  0  0  0  0  0  0  0  0  0  0  0
  -17.5951    1.5647  -15.4750 C   0  0  0  0  0  0  0  0  0  0  0  0
  -15.4242   -2.9436  -13.2280 O   0  0  0  0  0  0  0  0  0  0  0  0
  -13.5760   -6.9003  -11.7788 C   0  0  0  0  0  0  0  0  0  0  0  0
  -13.8627   -6.4620  -10.4937 C   0  0  0  0  0  0  0  0  0  0  0  0
  -14.4558   -5.1661  -10.4748 C   0  0  0  0  0  0  0  0  0  0  0  0
  -14.8121   -4.4763   -9.3531 N   0  0  0  0  0  0  0  0  0  0  0  0
  -15.3132   -3.2433   -9.5607 C   0  0  0  0  0  0  0  0  0  0  0  0
  -15.4998   -2.6556  -10.7976 C   0  0  0  0  0  0  0  0  0  0  0  0
  -15.2168   -3.3976  -11.9427 C   0  0  0  0  0  0  0  0  0  0  0  0
  -14.6489   -4.6628  -11.7554 C   0  0  0  0  0  0  0  0  0  0  0  0
  -14.1340   -5.7813  -12.9386 S   0  0  0  0  0  0  0  0  0  0  0  0
  -10.7791   -8.0792  -10.8719 C   0  0  0  0  0  0  0  0  0  0  0  0
  -11.7375   -8.6231  -11.7994 N   0  0  0  0  0  0  0  0  0  0  0  0
  -11.4847   -9.8060  -12.3972 N   0  0  0  0  0  0  0  0  0  0  0  0
  -12.6119  -10.0078  -13.0721 C   0  0  0  0  0  0  0  0  0  0  0  0
  -13.5626   -9.0399  -12.9312 N   0  0  0  0  0  0  0  0  0  0  0  0
  -12.9787   -8.1473  -12.1535 C   0  0  0  0  0  0  0  0  0  0  0  0
 33 34  1  0  0  0
 34 35  1  0  0  0
 34 38  1  0  0  0
 35 36  2  0  0  0
 36 37  1  0  0  0
 37 38  2  0  0  0
 38 24  1  0  0  0
 24 25  2  0  0  0
 24 32  1  0  0  0
 25 26  1  0  0  0
 26 27  1  0  0  0
 26 31  2  0  0  0
 27 28  2  0  0  0
 28 29  1  0  0  0
 29 30  2  0  0  0
 30 23  1  0  0  0
 30 31  1  0  0  0
 23  1  1  0  0  0
  1  2  1  0  0  0
  1  6  2  0  0  0
  2  3  2  0  0  0
  3  4  1  0  0  0
  4  8  1  0  0  0
  4  5  2  0  0  0
  8 10  1  0  0  0
  8  9  1  0  0  0
 10 11  2  0  0  0
 10 12  1  0  0  0
 12 13  1  0  0  0
 12 15  1  0  0  0
 13 14  2  0  0  0
 13 16  1  0  0  0
 16 17  1  0  0  0
 17 18  1  0  0  0
 17 22  2  0  0  0
 18 19  2  0  0  0
 19 20  1  0  0  0
 20 21  2  0  0  0
 21 22  1  0  0  0
  5  6  1  0  0  0
  6  7  1  0  0  0
 31 32  1  0  0  0
M  END
> <minimizedAffinity>
-8.86344

$$$$
