CHEMBL3660302


 37 40  0  0  0  0  0  0  0  0999 V2000
  -17.5759    2.0479  -15.4379 C   0  0  0  0  0  0  0  0  0  0  0  0
  -18.1843    3.2479  -15.0857 C   0  0  0  0  0  0  0  0  0  0  0  0
  -19.5197    3.2584  -14.6681 C   0  0  0  0  0  0  0  0  0  0  0  0
  -20.2562    2.0738  -14.6003 C   0  0  0  0  0  0  0  0  0  0  0  0
  -19.6554    0.8796  -15.0112 C   0  0  0  0  0  0  0  0  0  0  0  0
  -18.3310    0.8707  -15.4571 C   0  0  0  0  0  0  0  0  0  0  0  0
  -21.5825    2.0084  -14.1050 N   0  0  0  0  0  0  0  0  0  0  0  0
  -22.3039    0.8579  -13.8489 C   0  0  0  0  0  0  0  0  0  0  0  0
  -21.8582   -0.2829  -13.9036 O   0  0  0  0  0  0  0  0  0  0  0  0
  -23.6279    1.1439  -13.5437 N   0  0  0  0  0  0  0  0  0  0  0  0
  -22.0127    2.8738  -13.8135 H   0  0  0  0  0  0  0  0  0  0  0  0
  -24.0321    1.8944  -14.0902 H   0  0  0  0  0  0  0  0  0  0  0  0
  -24.5234    0.0901  -13.2310 C   0  0  0  0  0  0  0  0  0  0  0  0
  -24.9446   -0.1462  -11.9175 C   0  0  0  0  0  0  0  0  0  0  0  0
  -25.7690   -1.2394  -11.6180 C   0  0  0  0  0  0  0  0  0  0  0  0
  -26.2273   -1.4869  -10.2107 C   0  0  0  0  0  0  0  0  0  0  0  0
  -26.1574   -2.1047  -12.6497 C   0  0  0  0  0  0  0  0  0  0  0  0
  -25.7569   -1.8605  -13.9653 C   0  0  0  0  0  0  0  0  0  0  0  0
  -24.9649   -0.7525  -14.2498 C   0  0  0  0  0  0  0  0  0  0  0  0
  -24.5672   -0.5352  -15.5136 F   0  0  0  0  0  0  0  0  0  0  0  0
  -16.2408    2.1135  -15.7750 O   0  0  0  0  0  0  0  0  0  0  0  0
  -14.5002   -0.3370  -13.6486 C   0  0  0  0  0  0  0  0  0  0  0  0
  -15.5322    0.2425  -14.3737 C   0  0  0  0  0  0  0  0  0  0  0  0
  -15.3236    1.4899  -14.9576 C   0  0  0  0  0  0  0  0  0  0  0  0
  -14.1482    2.1788  -14.6983 C   0  0  0  0  0  0  0  0  0  0  0  0
  -13.1886    1.5468  -13.9292 C   0  0  0  0  0  0  0  0  0  0  0  0
  -13.3271    0.3018  -13.4198 N   0  0  0  0  0  0  0  0  0  0  0  0
  -15.2281   -3.5397  -11.9176 C   0  0  0  0  0  0  0  0  0  0  0  0
  -15.4614   -2.1842  -12.0728 C   0  0  0  0  0  0  0  0  0  0  0  0
  -14.6385   -1.6938  -13.1279 C   0  0  0  0  0  0  0  0  0  0  0  0
  -13.9584   -2.7918  -13.6193 C   0  0  0  0  0  0  0  0  0  0  0  0
  -14.3092   -3.8910  -12.8806 N   0  0  0  0  0  0  0  0  0  0  0  0
  -13.9477   -4.8287  -13.0090 H   0  0  0  0  0  0  0  0  0  0  0  0
  -15.7747   -4.4795  -10.9706 C   0  0  0  0  0  0  0  0  0  0  0  0
  -16.5648   -5.3694  -11.2533 O   0  0  0  0  0  0  0  0  0  0  0  0
  -14.0020   -4.7717   -9.4639 C   0  0  0  0  0  0  0  0  0  0  0  0
  -15.2935   -4.2235   -9.7233 O   0  0  0  0  0  0  0  0  0  0  0  0
 36 37  1  0  0  0
 37 34  1  0  0  0
 34 35  2  0  0  0
 34 28  1  0  0  0
 28 29  2  0  0  0
 28 32  1  0  0  0
 29 30  1  0  0  0
 30 22  1  0  0  0
 30 31  2  0  0  0
 22 23  1  0  0  0
 22 27  2  0  0  0
 23 24  2  0  0  0
 24 21  1  0  0  0
 24 25  1  0  0  0
 21  1  1  0  0  0
  1  2  1  0  0  0
  1  6  2  0  0  0
  2  3  2  0  0  0
  3  4  1  0  0  0
  4  7  1  0  0  0
  4  5  2  0  0  0
  7  8  1  0  0  0
  7 11  1  0  0  0
  8  9  2  0  0  0
  8 10  1  0  0  0
 10 13  1  0  0  0
 10 12  1  0  0  0
 13 14  1  0  0  0
 13 19  2  0  0  0
 14 15  2  0  0  0
 15 16  1  0  0  0
 15 17  1  0  0  0
 17 18  2  0  0  0
 18 19  1  0  0  0
 19 20  1  0  0  0
  5  6  1  0  0  0
 25 26  2  0  0  0
 26 27  1  0  0  0
 31 32  1  0  0  0
 32 33  1  0  0  0
M  END
> <minimizedAffinity>
-9.71399

$$$$
