CHEMBL516645


 30 34  0  0  0  0  0  0  0  0999 V2000
  -28.4166    0.9878   -5.4983 C   0  0  0  0  0  0  0  0  0  0  0  0
  -28.5555    0.7525   -6.8565 C   0  0  0  0  0  0  0  0  0  0  0  0
  -28.5153   -0.5561   -7.3332 C   0  0  0  0  0  0  0  0  0  0  0  0
  -28.2996   -1.6465   -6.4687 C   0  0  0  0  0  0  0  0  0  0  0  0
  -28.0657   -1.4090   -5.0906 C   0  0  0  0  0  0  0  0  0  0  0  0
  -28.1879   -0.0820   -4.6271 C   0  0  0  0  0  0  0  0  0  0  0  0
  -28.3473   -2.9754   -7.0672 C   0  0  0  0  0  0  0  0  0  0  0  0
  -29.1272   -4.0423   -6.6962 C   0  0  0  0  0  0  0  0  0  0  0  0
  -28.8494   -5.0280   -7.6102 N   0  0  0  0  0  0  0  0  0  0  0  0
  -27.8700   -4.6045   -8.4457 N   0  0  0  0  0  0  0  0  0  0  0  0
  -27.5626   -3.3547   -8.1258 N   0  0  0  0  0  0  0  0  0  0  0  0
  -29.4404   -6.3123   -7.7283 C   0  0  0  0  0  0  0  0  0  0  0  0
  -28.7074   -7.3847   -8.2619 C   0  0  0  0  0  0  0  0  0  0  0  0
  -29.2883   -8.6461   -8.4368 C   0  0  0  0  0  0  0  0  0  0  0  0
  -30.6187   -8.7931   -8.0411 C   0  0  0  0  0  0  0  0  0  0  0  0
  -31.4762   -9.8595   -8.1100 N   0  0  0  0  0  0  0  0  0  0  0  0
  -32.6817   -9.6314   -7.5601 N   0  0  0  0  0  0  0  0  0  0  0  0
  -32.6036   -8.3591   -7.1607 C   0  0  0  0  0  0  0  0  0  0  0  0
  -31.3558   -7.7686   -7.4602 C   0  0  0  0  0  0  0  0  0  0  0  0
  -30.7696   -6.4997   -7.3021 C   0  0  0  0  0  0  0  0  0  0  0  0
  -31.2999  -10.7678   -8.5235 H   0  0  0  0  0  0  0  0  0  0  0  0
  -27.8217   -2.4662   -4.1856 N   0  0  0  0  0  0  0  0  0  0  0  0
  -27.6804   -3.3310   -4.7083 H   0  0  0  0  0  0  0  0  0  0  0  0
  -28.7840   -2.6536   -3.0998 C   0  0  0  0  0  0  0  0  0  0  0  0
  -29.6031   -3.9054   -3.2985 C   0  0  0  0  0  0  0  0  0  0  0  0
  -30.9938   -3.8407   -3.4466 C   0  0  0  0  0  0  0  0  0  0  0  0
  -31.6915   -5.0032   -3.7313 C   0  0  0  0  0  0  0  0  0  0  0  0
  -31.1081   -6.2104   -3.8825 N   0  0  0  0  0  0  0  0  0  0  0  0
  -29.7664   -6.2551   -3.7464 C   0  0  0  0  0  0  0  0  0  0  0  0
  -28.9820   -5.1487   -3.4573 C   0  0  0  0  0  0  0  0  0  0  0  0
  1  2  1  0  0  0
  1  6  2  0  0  0
  2  3  2  0  0  0
  3  4  1  0  0  0
  4  7  1  0  0  0
  4  5  2  0  0  0
  7  8  2  0  0  0
  7 11  1  0  0  0
  8  9  1  0  0  0
  9 12  1  0  0  0
  9 10  1  0  0  0
 12 13  1  0  0  0
 12 20  2  0  0  0
 13 14  2  0  0  0
 14 15  1  0  0  0
 15 16  1  0  0  0
 15 19  2  0  0  0
 16 17  1  0  0  0
 16 21  1  0  0  0
 17 18  2  0  0  0
 18 19  1  0  0  0
 19 20  1  0  0  0
 10 11  2  0  0  0
  5 22  1  0  0  0
  5  6  1  0  0  0
 22 24  1  0  0  0
 22 23  1  0  0  0
 24 25  1  0  0  0
 25 26  1  0  0  0
 25 30  2  0  0  0
 26 27  2  0  0  0
 27 28  1  0  0  0
 28 29  2  0  0  0
 29 30  1  0  0  0
M  END
> <minimizedAffinity>
-8.81062

$$$$
