CHEMBL3690445


 36 40  0  0  0  0  0  0  0  0999 V2000
  -22.7596    1.4404  -13.8687 C   0  0  0  0  0  0  0  0  0  0  0  0
  -23.0169    2.7790  -13.6137 C   0  0  0  0  0  0  0  0  0  0  0  0
  -21.9270    3.5742  -13.8568 N   0  0  0  0  0  0  0  0  0  0  0  0
  -20.9902    2.7526  -14.2739 C   0  0  0  0  0  0  0  0  0  0  0  0
  -19.6536    3.0185  -14.6990 C   0  0  0  0  0  0  0  0  0  0  0  0
  -18.8552    2.0279  -15.1693 C   0  0  0  0  0  0  0  0  0  0  0  0
  -19.3747    0.6542  -15.1861 C   0  0  0  0  0  0  0  0  0  0  0  0
  -20.6341    0.4017  -14.8060 C   0  0  0  0  0  0  0  0  0  0  0  0
  -21.4445    1.4372  -14.3353 N   0  0  0  0  0  0  0  0  0  0  0  0
  -25.0247   -1.2443  -12.4204 C   0  0  0  0  0  0  0  0  0  0  0  0
  -25.5241   -1.8093  -13.5937 C   0  0  0  0  0  0  0  0  0  0  0  0
  -25.0391   -1.4033  -14.8333 C   0  0  0  0  0  0  0  0  0  0  0  0
  -24.0751   -0.4047  -14.9150 C   0  0  0  0  0  0  0  0  0  0  0  0
  -23.6417    0.2706  -13.7662 C   0  0  0  0  0  0  0  0  0  0  0  0
  -24.0897   -0.1970  -12.5164 C   0  0  0  0  0  0  0  0  0  0  0  0
  -27.7107   -1.2822  -11.1352 O   0  0  0  0  0  0  0  0  0  0  0  0
  -26.6820   -1.6700  -10.5996 C   0  0  0  0  0  0  0  0  0  0  0  0
  -26.6978   -2.1959   -9.3239 N   0  0  0  0  0  0  0  0  0  0  0  0
  -25.4104   -1.6755  -11.1314 N   0  0  0  0  0  0  0  0  0  0  0  0
  -25.8474   -2.0810   -8.7920 H   0  0  0  0  0  0  0  0  0  0  0  0
  -24.6903   -2.0979  -10.5655 H   0  0  0  0  0  0  0  0  0  0  0  0
  -27.9477   -2.1401   -8.5554 C   0  0  0  0  0  0  0  0  0  0  0  0
  -28.4540   -3.4952   -8.0408 C   0  0  0  0  0  0  0  0  0  0  0  0
  -28.3719   -3.5843   -6.6922 F   0  0  0  0  0  0  0  0  0  0  0  0
  -29.7289   -3.7422   -8.4023 F   0  0  0  0  0  0  0  0  0  0  0  0
  -27.6876   -4.4956   -8.5431 F   0  0  0  0  0  0  0  0  0  0  0  0
  -17.5005    2.3380  -15.6960 C   0  0  0  0  0  0  0  0  0  0  0  0
  -17.1100    3.6183  -16.0572 C   0  0  0  0  0  0  0  0  0  0  0  0
  -15.8758    3.8043  -16.6783 C   0  0  0  0  0  0  0  0  0  0  0  0
  -15.0530    2.7155  -16.9367 C   0  0  0  0  0  0  0  0  0  0  0  0
  -15.4425    1.4883  -16.5377 N   0  0  0  0  0  0  0  0  0  0  0  0
  -16.6768    1.2936  -15.9302 N   0  0  0  0  0  0  0  0  0  0  0  0
  -13.8365    2.9274  -17.6273 N   0  0  0  0  0  0  0  0  0  0  0  0
  -13.5986    2.5649  -18.9951 C   0  0  0  0  0  0  0  0  0  0  0  0
  -13.0807    3.9737  -19.2555 C   0  0  0  0  0  0  0  0  0  0  0  0
  -13.2400    4.2294  -17.7637 C   0  0  0  0  0  0  0  0  0  0  0  0
 16 17  2  0  0  0
 17 18  1  0  0  0
 17 19  1  0  0  0
 18 22  1  0  0  0
 18 20  1  0  0  0
 22 23  1  0  0  0
 23 24  1  0  0  0
 23 25  1  0  0  0
 23 26  1  0  0  0
 19 10  1  0  0  0
 19 21  1  0  0  0
 10 11  1  0  0  0
 10 15  2  0  0  0
 11 12  2  0  0  0
 12 13  1  0  0  0
 13 14  2  0  0  0
 14  1  1  0  0  0
 14 15  1  0  0  0
  1  2  2  0  0  0
  1  9  1  0  0  0
  2  3  1  0  0  0
  3  4  2  0  0  0
  4  5  1  0  0  0
  4  9  1  0  0  0
  5  6  2  0  0  0
  6 27  1  0  0  0
  6  7  1  0  0  0
 27 28  1  0  0  0
 27 32  2  0  0  0
 28 29  2  0  0  0
 29 30  1  0  0  0
 30 33  1  0  0  0
 30 31  2  0  0  0
 33 34  1  0  0  0
 33 36  1  0  0  0
 34 35  1  0  0  0
 35 36  1  0  0  0
 31 32  1  0  0  0
  7  8  2  0  0  0
  8  9  1  0  0  0
M  END
> <minimizedAffinity>
-10.64176

$$$$
