CHEMBL1688250


 31 34  0  0  0  0  0  0  0  0999 V2000
  -28.0838   -2.5078   -8.3115 C   0  0  0  0  0  0  0  0  0  0  0  0
  -27.1560   -1.5856   -8.1323 N   0  0  0  0  0  0  0  0  0  0  0  0
  -26.6725   -1.2047   -9.3649 N   0  0  0  0  0  0  0  0  0  0  0  0
  -27.3232   -1.8811  -10.2910 C   0  0  0  0  0  0  0  0  0  0  0  0
  -28.2484   -2.6715   -9.6619 N   0  0  0  0  0  0  0  0  0  0  0  0
  -28.8790   -3.2959  -10.1424 H   0  0  0  0  0  0  0  0  0  0  0  0
  -30.2186   -4.7201   -5.3393 C   0  0  0  0  0  0  0  0  0  0  0  0
  -29.7255   -5.3706   -6.4694 C   0  0  0  0  0  0  0  0  0  0  0  0
  -29.0156   -4.6337   -7.4291 C   0  0  0  0  0  0  0  0  0  0  0  0
  -28.8010   -3.2552   -7.2746 C   0  0  0  0  0  0  0  0  0  0  0  0
  -29.3189   -2.6241   -6.1327 C   0  0  0  0  0  0  0  0  0  0  0  0
  -30.0274   -3.3476   -5.1692 C   0  0  0  0  0  0  0  0  0  0  0  0
  -29.9903   -6.6377   -3.3215 C   0  0  0  0  0  0  0  0  0  0  0  0
  -31.1812   -5.6161   -4.1418 S   0  0  0  0  0  0  0  0  0  0  0  0
  -32.0958   -6.4770   -4.8665 O   0  0  0  0  0  0  0  0  0  0  0  0
  -31.6786   -4.6479   -3.1778 O   0  0  0  0  0  0  0  0  0  0  0  0
  -27.0636   -1.9177  -11.7287 C   0  0  0  0  0  0  0  0  0  0  0  0
  -28.1550   -2.0876  -12.5929 C   0  0  0  0  0  0  0  0  0  0  0  0
  -27.9784   -2.0031  -13.9671 C   0  0  0  0  0  0  0  0  0  0  0  0
  -26.7042   -1.7613  -14.4381 C   0  0  0  0  0  0  0  0  0  0  0  0
  -25.6234   -1.6022  -13.6413 N   0  0  0  0  0  0  0  0  0  0  0  0
  -25.7962   -1.6777  -12.3007 C   0  0  0  0  0  0  0  0  0  0  0  0
  -24.6646   -1.5069  -11.4627 N   0  0  0  0  0  0  0  0  0  0  0  0
  -24.7758   -2.1578  -10.6794 H   0  0  0  0  0  0  0  0  0  0  0  0
  -23.3816   -1.7775  -12.1371 C   0  0  0  0  0  0  0  0  0  0  0  0
  -22.7071   -0.4569  -12.5487 C   0  0  0  0  0  0  0  0  0  0  0  0
  -23.7131    0.6993  -12.4299 C   0  0  0  0  0  0  0  0  0  0  0  0
  -23.1210    1.9379  -12.8470 O   0  0  0  0  0  0  0  0  0  0  0  0
  -22.6579    1.8274  -14.1996 C   0  0  0  0  0  0  0  0  0  0  0  0
  -21.6351    0.6982  -14.3098 C   0  0  0  0  0  0  0  0  0  0  0  0
  -22.2182   -0.5536  -13.9060 O   0  0  0  0  0  0  0  0  0  0  0  0
 13 14  1  0  0  0
 14 15  2  0  0  0
 14 16  2  0  0  0
 14  7  1  0  0  0
  7  8  1  0  0  0
  7 12  2  0  0  0
  8  9  2  0  0  0
  9 10  1  0  0  0
 10  1  1  0  0  0
 10 11  2  0  0  0
  1  2  2  0  0  0
  1  5  1  0  0  0
  2  3  1  0  0  0
  3  4  2  0  0  0
  4 17  1  0  0  0
  4  5  1  0  0  0
 17 18  1  0  0  0
 17 22  2  0  0  0
 18 19  2  0  0  0
 19 20  1  0  0  0
 20 21  2  0  0  0
 21 22  1  0  0  0
 22 23  1  0  0  0
 23 25  1  0  0  0
 23 24  1  0  0  0
 25 26  1  0  0  0
 26 27  1  0  0  0
 26 31  1  0  0  0
 27 28  1  0  0  0
 28 29  1  0  0  0
 29 30  1  0  0  0
 30 31  1  0  0  0
  5  6  1  0  0  0
 11 12  1  0  0  0
M  END
> <minimizedAffinity>
-8.95088

$$$$
