CHEMBL2386793


 46 50  0  0  0  0  0  0  0  0999 V2000
  -21.4211    1.3875  -13.9913 C   0  0  0  0  0  0  0  0  0  0  0  0
  -20.2152    0.7539  -14.3931 C   0  0  0  0  0  0  0  0  0  0  0  0
  -19.4270    1.7292  -14.9430 C   0  0  0  0  0  0  0  0  0  0  0  0
  -20.1696    2.8755  -14.8421 N   0  0  0  0  0  0  0  0  0  0  0  0
  -21.3764    2.6988  -14.2812 N   0  0  0  0  0  0  0  0  0  0  0  0
  -19.9229    3.8116  -15.1376 H   0  0  0  0  0  0  0  0  0  0  0  0
  -24.6697   -0.5203  -11.9739 C   0  0  0  0  0  0  0  0  0  0  0  0
  -23.4685   -1.1849  -12.1756 C   0  0  0  0  0  0  0  0  0  0  0  0
  -22.4257   -0.5599  -12.8462 C   0  0  0  0  0  0  0  0  0  0  0  0
  -22.5618    0.7452  -13.3405 C   0  0  0  0  0  0  0  0  0  0  0  0
  -23.7948    1.3933  -13.1846 C   0  0  0  0  0  0  0  0  0  0  0  0
  -24.8480    0.7570  -12.5131 C   0  0  0  0  0  0  0  0  0  0  0  0
  -27.7646   -2.1167  -10.8313 N   0  0  0  0  0  0  0  0  0  0  0  0
  -26.8457   -1.6879  -11.7431 C   0  0  0  0  0  0  0  0  0  0  0  0
  -27.0993   -1.8863  -12.9313 O   0  0  0  0  0  0  0  0  0  0  0  0
  -25.7171   -1.0938  -11.2435 N   0  0  0  0  0  0  0  0  0  0  0  0
  -28.5672   -2.5700  -11.2414 H   0  0  0  0  0  0  0  0  0  0  0  0
  -25.5883   -1.1790  -10.2398 H   0  0  0  0  0  0  0  0  0  0  0  0
  -28.0238   -1.1510   -7.4494 C   0  0  0  0  0  0  0  0  0  0  0  0
  -28.2756   -0.8820   -8.7726 C   0  0  0  0  0  0  0  0  0  0  0  0
  -27.7241   -1.9741   -9.4666 C   0  0  0  0  0  0  0  0  0  0  0  0
  -27.1707   -2.8483   -8.6180 N   0  0  0  0  0  0  0  0  0  0  0  0
  -27.3519   -2.3285   -7.3574 O   0  0  0  0  0  0  0  0  0  0  0  0
  -29.6481   -1.0400   -5.5997 C   0  0  0  0  0  0  0  0  0  0  0  0
  -28.3560   -0.4336   -6.1751 C   0  0  0  0  0  0  0  0  0  0  0  0
  -28.5722    1.0599   -6.4782 C   0  0  0  0  0  0  0  0  0  0  0  0
  -27.2328   -0.5675   -5.1314 C   0  0  0  0  0  0  0  0  0  0  0  0
  -18.1627    1.6051  -15.4975 N   0  0  0  0  0  0  0  0  0  0  0  0
  -17.3148    2.7321  -15.7751 C   0  0  0  0  0  0  0  0  0  0  0  0
  -17.7037    3.8837  -15.6624 O   0  0  0  0  0  0  0  0  0  0  0  0
  -17.8376    0.6757  -15.7330 H   0  0  0  0  0  0  0  0  0  0  0  0
  -15.9396    2.4356  -16.2309 C   0  0  0  0  0  0  0  0  0  0  0  0
  -14.9809    3.4539  -16.1768 C   0  0  0  0  0  0  0  0  0  0  0  0
  -13.6552    3.1833  -16.5153 C   0  0  0  0  0  0  0  0  0  0  0  0
  -13.2774    1.8853  -16.8719 C   0  0  0  0  0  0  0  0  0  0  0  0
  -14.2466    0.8866  -16.9764 C   0  0  0  0  0  0  0  0  0  0  0  0
  -15.5757    1.1488  -16.6439 C   0  0  0  0  0  0  0  0  0  0  0  0
  -11.9971    1.4697  -17.1191 O   0  0  0  0  0  0  0  0  0  0  0  0
  -11.2435    1.1414  -15.9492 C   0  0  0  0  0  0  0  0  0  0  0  0
  -11.6887   -0.2270  -15.4072 C   0  0  0  0  0  0  0  0  0  0  0  0
  -11.6358   -0.2908  -13.9352 N   0  0  0  0  0  0  0  0  0  0  0  0
  -12.6142   -1.2365  -13.3504 C   0  0  0  0  0  0  0  0  0  0  0  0
  -14.0648   -0.7548  -13.4741 C   0  0  0  0  0  0  0  0  0  0  0  0
  -14.2340    0.5034  -12.8092 O   0  0  0  0  0  0  0  0  0  0  0  0
  -13.3455    1.4925  -13.3461 C   0  0  0  0  0  0  0  0  0  0  0  0
  -11.8748    1.0333  -13.3159 C   0  0  0  0  0  0  0  0  0  0  0  0
 24 25  1  0  0  0
 25 26  1  0  0  0
 25 27  1  0  0  0
 25 19  1  0  0  0
 19 20  2  0  0  0
 19 23  1  0  0  0
 20 21  1  0  0  0
 21 13  1  0  0  0
 21 22  2  0  0  0
 13 14  1  0  0  0
 13 17  1  0  0  0
 14 15  2  0  0  0
 14 16  1  0  0  0
 16  7  1  0  0  0
 16 18  1  0  0  0
  7  8  1  0  0  0
  7 12  2  0  0  0
  8  9  2  0  0  0
  9 10  1  0  0  0
 10  1  1  0  0  0
 10 11  2  0  0  0
  1  2  1  0  0  0
  1  5  2  0  0  0
  2  3  2  0  0  0
  3 28  1  0  0  0
  3  4  1  0  0  0
 28 29  1  0  0  0
 28 31  1  0  0  0
 29 30  2  0  0  0
 29 32  1  0  0  0
 32 33  1  0  0  0
 32 37  2  0  0  0
 33 34  2  0  0  0
 34 35  1  0  0  0
 35 38  1  0  0  0
 35 36  2  0  0  0
 38 39  1  0  0  0
 39 40  1  0  0  0
 40 41  1  0  0  0
 41 42  1  0  0  0
 41 46  1  0  0  0
 42 43  1  0  0  0
 43 44  1  0  0  0
 44 45  1  0  0  0
 45 46  1  0  0  0
 36 37  1  0  0  0
  4  5  1  0  0  0
  4  6  1  0  0  0
 11 12  1  0  0  0
 22 23  1  0  0  0
M  END
> <minimizedAffinity>
-9.82375

$$$$
