CHEMBL358038


 33 38  0  0  0  0  0  0  0  0999 V2000
  -24.4084  -10.8702   -5.7331 C   0  0  0  0  0  0  0  0  0  0  0  0
  -25.1163  -11.2368   -4.5932 C   0  0  0  0  0  0  0  0  0  0  0  0
  -26.5149  -11.2034   -4.5808 C   0  0  0  0  0  0  0  0  0  0  0  0
  -27.1767  -10.7355   -5.7221 C   0  0  0  0  0  0  0  0  0  0  0  0
  -26.4631  -10.3970   -6.8908 C   0  0  0  0  0  0  0  0  0  0  0  0
  -25.0736  -10.5135   -6.9057 C   0  0  0  0  0  0  0  0  0  0  0  0
  -27.4709  -10.0858   -7.7690 C   0  0  0  0  0  0  0  0  0  0  0  0
  -27.4546  -10.2656   -9.1793 C   0  0  0  0  0  0  0  0  0  0  0  0
  -28.7428  -10.6038   -9.7832 C   0  0  0  0  0  0  0  0  0  0  0  0
  -29.8741  -10.6448   -8.9594 C   0  0  0  0  0  0  0  0  0  0  0  0
  -29.7240   -9.6283   -8.0141 C   0  0  0  0  0  0  0  0  0  0  0  0
  -28.6766   -9.8530   -7.1752 C   0  0  0  0  0  0  0  0  0  0  0  0
  -28.5524  -10.6169   -6.0027 N   0  0  0  0  0  0  0  0  0  0  0  0
  -30.9367   -8.8067   -7.9678 C   0  0  0  0  0  0  0  0  0  0  0  0
  -31.8994   -9.9565   -7.9978 C   0  0  0  0  0  0  0  0  0  0  0  0
  -32.8202  -10.0736   -6.9541 C   0  0  0  0  0  0  0  0  0  0  0  0
  -33.1275  -11.3454   -6.5159 C   0  0  0  0  0  0  0  0  0  0  0  0
  -32.5802  -12.4574   -7.1812 C   0  0  0  0  0  0  0  0  0  0  0  0
  -31.6763  -12.3217   -8.2803 C   0  0  0  0  0  0  0  0  0  0  0  0
  -31.2751  -11.0457   -8.7131 C   0  0  0  0  0  0  0  0  0  0  0  0
  -28.6118  -10.2941  -11.1922 C   0  0  0  0  0  0  0  0  0  0  0  0
  -29.4145  -10.2364  -12.1161 O   0  0  0  0  0  0  0  0  0  0  0  0
  -27.2896   -9.8191  -11.3329 N   0  0  0  0  0  0  0  0  0  0  0  0
  -26.4634   -9.8015  -10.1339 C   0  0  0  0  0  0  0  0  0  0  0  0
  -27.0945   -9.1963  -12.1067 H   0  0  0  0  0  0  0  0  0  0  0  0
  -22.9149  -10.7384   -5.6650 C   0  0  0  0  0  0  0  0  0  0  0  0
  -21.2030  -10.2542   -7.2126 C   0  0  0  0  0  0  0  0  0  0  0  0
  -22.4320  -10.9250   -6.9973 O   0  0  0  0  0  0  0  0  0  0  0  0
  -29.5464  -11.6360   -5.6046 C   0  0  0  0  0  0  0  0  0  0  0  0
  -30.3634  -11.4275   -4.3373 C   0  0  0  0  0  0  0  0  0  0  0  0
  -29.8470  -12.2313   -3.1491 C   0  0  0  0  0  0  0  0  0  0  0  0
  -30.7728  -12.1216   -2.0699 O   0  0  0  0  0  0  0  0  0  0  0  0
  -30.7976  -11.1826   -1.7908 H   0  0  0  0  0  0  0  0  0  0  0  0
 27 28  1  0  0  0
 28 26  1  0  0  0
 26  1  1  0  0  0
  1  2  1  0  0  0
  1  6  2  0  0  0
  2  3  2  0  0  0
  3  4  1  0  0  0
  4  5  2  0  0  0
  4 13  1  0  0  0
  5  6  1  0  0  0
  5  7  1  0  0  0
  7  8  1  0  0  0
  7 12  2  0  0  0
  8  9  2  0  0  0
  8 24  1  0  0  0
  9 10  1  0  0  0
  9 21  1  0  0  0
 10 11  2  0  0  0
 10 20  1  0  0  0
 11 12  1  0  0  0
 11 14  1  0  0  0
 12 13  1  0  0  0
 13 29  1  0  0  0
 29 30  1  0  0  0
 30 31  1  0  0  0
 31 32  1  0  0  0
 32 33  1  0  0  0
 14 15  1  0  0  0
 15 16  1  0  0  0
 15 20  2  0  0  0
 16 17  2  0  0  0
 17 18  1  0  0  0
 18 19  2  0  0  0
 19 20  1  0  0  0
 21 22  2  0  0  0
 21 23  1  0  0  0
 23 24  1  0  0  0
 23 25  1  0  0  0
M  END
> <minimizedAffinity>
-6.96234

$$$$
