CHEMBL3690443


 38 41  0  0  0  0  0  0  0  0999 V2000
  -18.9128    1.9980  -15.1773 C   0  0  0  0  0  0  0  0  0  0  0  0
  -19.4809    0.6466  -15.2741 C   0  0  0  0  0  0  0  0  0  0  0  0
  -20.7549    0.4186  -14.9155 C   0  0  0  0  0  0  0  0  0  0  0  0
  -21.5322    1.4580  -14.3938 N   0  0  0  0  0  0  0  0  0  0  0  0
  -22.8411    1.4873  -13.9055 C   0  0  0  0  0  0  0  0  0  0  0  0
  -23.0513    2.8279  -13.6149 C   0  0  0  0  0  0  0  0  0  0  0  0
  -21.9407    3.5931  -13.8405 N   0  0  0  0  0  0  0  0  0  0  0  0
  -21.0318    2.7518  -14.2760 C   0  0  0  0  0  0  0  0  0  0  0  0
  -19.6807    2.9872  -14.6612 C   0  0  0  0  0  0  0  0  0  0  0  0
  -15.0275    2.6607  -16.7545 C   0  0  0  0  0  0  0  0  0  0  0  0
  -15.8167    3.7622  -16.4646 C   0  0  0  0  0  0  0  0  0  0  0  0
  -17.0946    3.5806  -15.9376 C   0  0  0  0  0  0  0  0  0  0  0  0
  -17.5388    2.2966  -15.6564 C   0  0  0  0  0  0  0  0  0  0  0  0
  -16.7419    1.2396  -15.9134 N   0  0  0  0  0  0  0  0  0  0  0  0
  -15.4849    1.4274  -16.4588 N   0  0  0  0  0  0  0  0  0  0  0  0
  -13.7379    2.8701  -17.2695 N   0  0  0  0  0  0  0  0  0  0  0  0
  -13.2581    3.6070  -16.7518 H   0  0  0  0  0  0  0  0  0  0  0  0
  -13.7031    3.2157  -18.6985 C   0  0  0  0  0  0  0  0  0  0  0  0
  -12.8184    4.4540  -18.9189 C   0  0  0  0  0  0  0  0  0  0  0  0
  -14.6966    5.8314  -19.3370 C   0  0  0  0  0  0  0  0  0  0  0  0
  -13.5581    5.6172  -18.5135 O   0  0  0  0  0  0  0  0  0  0  0  0
  -23.7438    0.3410  -13.7010 C   0  0  0  0  0  0  0  0  0  0  0  0
  -24.1208   -0.4632  -14.7825 C   0  0  0  0  0  0  0  0  0  0  0  0
  -24.9824   -1.5385  -14.6109 C   0  0  0  0  0  0  0  0  0  0  0  0
  -25.4182   -1.8818  -13.3371 C   0  0  0  0  0  0  0  0  0  0  0  0
  -24.9966   -1.1673  -12.2153 C   0  0  0  0  0  0  0  0  0  0  0  0
  -24.1852   -0.0316  -12.4101 C   0  0  0  0  0  0  0  0  0  0  0  0
  -25.3455   -1.5554  -10.8931 N   0  0  0  0  0  0  0  0  0  0  0  0
  -26.6278   -1.6728  -10.3917 C   0  0  0  0  0  0  0  0  0  0  0  0
  -27.6765   -1.4694  -10.9946 O   0  0  0  0  0  0  0  0  0  0  0  0
  -26.6559   -2.0201   -9.0621 N   0  0  0  0  0  0  0  0  0  0  0  0
  -24.5875   -1.8041  -10.2761 H   0  0  0  0  0  0  0  0  0  0  0  0
  -25.9074   -2.6097   -8.7302 H   0  0  0  0  0  0  0  0  0  0  0  0
  -27.9721   -2.1856   -8.4262 C   0  0  0  0  0  0  0  0  0  0  0  0
  -28.1216   -1.6197   -7.0042 C   0  0  0  0  0  0  0  0  0  0  0  0
  -28.0606   -0.2685   -6.9832 F   0  0  0  0  0  0  0  0  0  0  0  0
  -29.3353   -1.9622   -6.5008 F   0  0  0  0  0  0  0  0  0  0  0  0
  -27.1893   -2.0991   -6.1553 F   0  0  0  0  0  0  0  0  0  0  0  0
 20 21  1  0  0  0
 21 19  1  0  0  0
 19 18  1  0  0  0
 18 16  1  0  0  0
 16 10  1  0  0  0
 16 17  1  0  0  0
 10 11  1  0  0  0
 10 15  2  0  0  0
 11 12  2  0  0  0
 12 13  1  0  0  0
 13  1  1  0  0  0
 13 14  2  0  0  0
  1  2  1  0  0  0
  1  9  2  0  0  0
  2  3  2  0  0  0
  3  4  1  0  0  0
  4  5  1  0  0  0
  4  8  1  0  0  0
  5 22  1  0  0  0
  5  6  2  0  0  0
 22 23  1  0  0  0
 22 27  2  0  0  0
 23 24  2  0  0  0
 24 25  1  0  0  0
 25 26  2  0  0  0
 26 28  1  0  0  0
 26 27  1  0  0  0
 28 29  1  0  0  0
 28 32  1  0  0  0
 29 30  2  0  0  0
 29 31  1  0  0  0
 31 34  1  0  0  0
 31 33  1  0  0  0
 34 35  1  0  0  0
 35 36  1  0  0  0
 35 37  1  0  0  0
 35 38  1  0  0  0
  6  7  1  0  0  0
  7  8  2  0  0  0
  8  9  1  0  0  0
 14 15  1  0  0  0
M  END
> <minimizedAffinity>
-9.33785

$$$$
