CHEMBL3648072


 29 30  0  0  0  0  0  0  0  0999 V2000
  -29.5962   -8.4027   -7.2652 C   0  0  0  0  0  0  0  0  0  0  0  0
  -28.7750   -7.3889   -6.9100 N   0  0  0  0  0  0  0  0  0  0  0  0
  -29.3125   -6.3149   -6.3095 C   0  0  0  0  0  0  0  0  0  0  0  0
  -30.6266   -6.1849   -6.0658 N   0  0  0  0  0  0  0  0  0  0  0  0
  -31.4177   -7.2226   -6.3788 C   0  0  0  0  0  0  0  0  0  0  0  0
  -30.9510   -8.3748   -6.9585 C   0  0  0  0  0  0  0  0  0  0  0  0
  -32.1500   -9.7797   -7.3497 Br  0  0  0  0  0  0  0  0  0  0  0  0
  -29.0832   -9.4761   -7.9976 N   0  0  0  0  0  0  0  0  0  0  0  0
  -28.3415   -9.9712   -7.5047 H   0  0  0  0  0  0  0  0  0  0  0  0
  -29.4524  -10.6325  -10.0542 C   0  0  0  0  0  0  0  0  0  0  0  0
  -28.8628   -9.3489   -9.4418 C   0  0  0  0  0  0  0  0  0  0  0  0
  -27.3442   -9.1683   -9.7743 C   0  0  0  0  0  0  0  0  0  0  0  0
  -26.4674  -10.0488   -8.8693 C   0  0  0  0  0  0  0  0  0  0  0  0
  -27.0314   -9.5212  -11.2338 C   0  0  0  0  0  0  0  0  0  0  0  0
  -26.9557   -7.7955   -9.5944 O   0  0  0  0  0  0  0  0  0  0  0  0
  -26.9640   -7.5967   -8.6425 H   0  0  0  0  0  0  0  0  0  0  0  0
  -28.4436   -5.3151   -5.8767 N   0  0  0  0  0  0  0  0  0  0  0  0
  -27.6051   -5.6839   -5.4586 H   0  0  0  0  0  0  0  0  0  0  0  0
  -28.6212   -3.9280   -5.9356 C   0  0  0  0  0  0  0  0  0  0  0  0
  -28.2659   -3.2092   -7.0860 C   0  0  0  0  0  0  0  0  0  0  0  0
  -28.3262   -1.8088   -7.1012 C   0  0  0  0  0  0  0  0  0  0  0  0
  -28.7598   -1.1221   -5.9659 C   0  0  0  0  0  0  0  0  0  0  0  0
  -29.1354   -1.8204   -4.8187 C   0  0  0  0  0  0  0  0  0  0  0  0
  -29.0506   -3.2102   -4.8101 C   0  0  0  0  0  0  0  0  0  0  0  0
  -28.7779    0.6591   -5.9381 S   0  0  0  0  0  0  0  0  0  0  0  0
  -30.4688    1.0482   -5.5590 C   0  0  0  0  0  0  0  0  0  0  0  0
  -27.9062    1.0721   -4.7350 N   0  0  0  0  0  0  0  0  0  0  0  0
  -28.5644    1.1079   -7.3031 O   0  0  0  0  0  0  0  0  0  0  0  0
  -28.3572    0.9350   -3.8323 H   0  0  0  0  0  0  0  0  0  0  0  0
 10 11  1  0  0  0
 11  8  1  0  0  0
 11 12  1  0  0  0
  8  1  1  0  0  0
  8  9  1  0  0  0
  1  2  1  0  0  0
  1  6  2  0  0  0
  2  3  2  0  0  0
  3 17  1  0  0  0
  3  4  1  0  0  0
 17 19  1  0  0  0
 17 18  1  0  0  0
 19 20  1  0  0  0
 19 24  2  0  0  0
 20 21  2  0  0  0
 21 22  1  0  0  0
 22 25  1  0  0  0
 22 23  2  0  0  0
 25 26  1  0  0  0
 25 27  2  0  0  0
 25 28  2  0  0  0
 27 29  1  0  0  0
 23 24  1  0  0  0
  4  5  2  0  0  0
  5  6  1  0  0  0
  6  7  1  0  0  0
 12 13  1  0  0  0
 12 14  1  0  0  0
 12 15  1  0  0  0
 15 16  1  0  0  0
M  END
> <minimizedAffinity>
-7.17118

$$$$
