CHEMBL188901


 29 31  0  0  0  0  0  0  0  0999 V2000
  -29.8205   -6.1913   -4.9524 C   0  0  0  0  0  0  0  0  0  0  0  0
  -31.1067   -6.0003   -4.4518 C   0  0  0  0  0  0  0  0  0  0  0  0
  -31.4999   -4.8679   -3.8201 N   0  0  0  0  0  0  0  0  0  0  0  0
  -30.5451   -3.9158   -3.7091 C   0  0  0  0  0  0  0  0  0  0  0  0
  -29.2298   -4.0831   -4.1434 C   0  0  0  0  0  0  0  0  0  0  0  0
  -28.8736   -5.2304   -4.7697 N   0  0  0  0  0  0  0  0  0  0  0  0
  -28.8927   -8.5314   -7.8061 C   0  0  0  0  0  0  0  0  0  0  0  0
  -28.6284   -9.6648   -7.0359 C   0  0  0  0  0  0  0  0  0  0  0  0
  -28.6769   -9.7190   -5.6865 N   0  0  0  0  0  0  0  0  0  0  0  0
  -29.0537   -8.5858   -5.0556 C   0  0  0  0  0  0  0  0  0  0  0  0
  -29.1230   -8.6665   -3.7167 F   0  0  0  0  0  0  0  0  0  0  0  0
  -29.3872   -7.3888   -5.6876 C   0  0  0  0  0  0  0  0  0  0  0  0
  -29.3181   -7.4027   -7.0959 C   0  0  0  0  0  0  0  0  0  0  0  0
  -28.8599   -8.6011   -9.2073 N   0  0  0  0  0  0  0  0  0  0  0  0
  -29.2260   -7.7476   -9.6275 H   0  0  0  0  0  0  0  0  0  0  0  0
  -29.4379   -9.7936   -9.8340 C   0  0  0  0  0  0  0  0  0  0  0  0
  -28.5889  -10.2072  -11.0360 C   0  0  0  0  0  0  0  0  0  0  0  0
  -26.6596   -8.8168  -11.4064 O   0  0  0  0  0  0  0  0  0  0  0  0
  -27.1063  -10.0031  -10.7618 C   0  0  0  0  0  0  0  0  0  0  0  0
  -25.7250   -8.6910  -11.1634 H   0  0  0  0  0  0  0  0  0  0  0  0
  -28.2985   -3.0262   -4.0145 N   0  0  0  0  0  0  0  0  0  0  0  0
  -27.3716   -3.3812   -3.7987 H   0  0  0  0  0  0  0  0  0  0  0  0
  -28.1673   -1.9445   -4.9216 C   0  0  0  0  0  0  0  0  0  0  0  0
  -28.3808   -0.6138   -4.5315 C   0  0  0  0  0  0  0  0  0  0  0  0
  -28.3324    0.4243   -5.4632 C   0  0  0  0  0  0  0  0  0  0  0  0
  -28.0801    0.1421   -6.8031 C   0  0  0  0  0  0  0  0  0  0  0  0
  -27.8872   -1.1794   -7.2039 C   0  0  0  0  0  0  0  0  0  0  0  0
  -27.5893   -1.5271   -8.8628 Cl  0  0  0  0  0  0  0  0  0  0  0  0
  -27.9430   -2.2199   -6.2755 C   0  0  0  0  0  0  0  0  0  0  0  0
 18 19  1  0  0  0
 18 20  1  0  0  0
 19 17  1  0  0  0
 17 16  1  0  0  0
 16 14  1  0  0  0
 14  7  1  0  0  0
 14 15  1  0  0  0
  7  8  1  0  0  0
  7 13  2  0  0  0
  8  9  2  0  0  0
  9 10  1  0  0  0
 10 11  1  0  0  0
 10 12  2  0  0  0
 12  1  1  0  0  0
 12 13  1  0  0  0
  1  2  1  0  0  0
  1  6  2  0  0  0
  2  3  2  0  0  0
  3  4  1  0  0  0
  4  5  2  0  0  0
  5 21  1  0  0  0
  5  6  1  0  0  0
 21 23  1  0  0  0
 21 22  1  0  0  0
 23 24  1  0  0  0
 23 29  2  0  0  0
 24 25  2  0  0  0
 25 26  1  0  0  0
 26 27  2  0  0  0
 27 28  1  0  0  0
 27 29  1  0  0  0
M  END
> <minimizedAffinity>
-8.13365

$$$$
