CHEMBL98995


 21 23  0  0  0  0  0  0  0  0999 V2000
  -28.6942   -5.9725   -6.8198 C   0  0  0  0  0  0  0  0  0  0  0  0
  -28.4294   -6.0069   -5.5302 N   0  0  0  0  0  0  0  0  0  0  0  0
  -28.3679   -4.7311   -5.0139 C   0  0  0  0  0  0  0  0  0  0  0  0
  -28.5980   -3.6935   -5.9016 C   0  0  0  0  0  0  0  0  0  0  0  0
  -28.8710   -4.3770   -7.4582 S   0  0  0  0  0  0  0  0  0  0  0  0
  -28.6292   -2.2427   -5.6545 C   0  0  0  0  0  0  0  0  0  0  0  0
  -27.4462   -1.5561   -5.3272 C   0  0  0  0  0  0  0  0  0  0  0  0
  -27.4586   -0.1857   -5.0465 C   0  0  0  0  0  0  0  0  0  0  0  0
  -28.6556    0.5245   -5.0919 C   0  0  0  0  0  0  0  0  0  0  0  0
  -29.8368   -0.1343   -5.4177 C   0  0  0  0  0  0  0  0  0  0  0  0
  -29.8234   -1.5054   -5.6940 C   0  0  0  0  0  0  0  0  0  0  0  0
  -28.9125   -7.0432   -7.6154 N   0  0  0  0  0  0  0  0  0  0  0  0
  -28.1281   -7.6219   -7.8783 H   0  0  0  0  0  0  0  0  0  0  0  0
  -30.1630   -8.9802   -8.3779 C   0  0  0  0  0  0  0  0  0  0  0  0
  -31.3540   -9.7102   -8.3923 C   0  0  0  0  0  0  0  0  0  0  0  0
  -32.4556   -9.2430   -7.6842 C   0  0  0  0  0  0  0  0  0  0  0  0
  -32.3225   -8.0657   -6.9751 C   0  0  0  0  0  0  0  0  0  0  0  0
  -31.1857   -7.3438   -6.9295 N   0  0  0  0  0  0  0  0  0  0  0  0
  -30.1127   -7.7857   -7.6281 C   0  0  0  0  0  0  0  0  0  0  0  0
  -29.2086  -10.2193  -10.1611 C   0  0  0  0  0  0  0  0  0  0  0  0
  -29.0185   -9.3645   -9.0366 O   0  0  0  0  0  0  0  0  0  0  0  0
 20 21  1  0  0  0
 21 14  1  0  0  0
 14 15  1  0  0  0
 14 19  2  0  0  0
 15 16  2  0  0  0
 16 17  1  0  0  0
 17 18  2  0  0  0
 18 19  1  0  0  0
 19 12  1  0  0  0
 12  1  1  0  0  0
 12 13  1  0  0  0
  1  2  2  0  0  0
  1  5  1  0  0  0
  2  3  1  0  0  0
  3  4  2  0  0  0
  4  6  1  0  0  0
  4  5  1  0  0  0
  6  7  1  0  0  0
  6 11  2  0  0  0
  7  8  2  0  0  0
  8  9  1  0  0  0
  9 10  2  0  0  0
 10 11  1  0  0  0
M  END
> <minimizedAffinity>
-7.19343

$$$$
