CHEMBL3986631


 39 43  0  0  0  0  0  0  0  0999 V2000
  -28.1386   -3.1414   -7.8811 N   0  0  0  0  0  0  0  0  0  0  0  0
  -28.4411   -4.5825   -8.0160 C   0  0  0  0  0  0  0  0  0  0  0  0
  -29.6304   -4.9974   -7.4935 C   0  0  0  0  0  0  0  0  0  0  0  0
  -29.8987   -6.3266   -7.5122 C   0  0  0  0  0  0  0  0  0  0  0  0
  -29.0516   -7.3039   -7.8940 C   0  0  0  0  0  0  0  0  0  0  0  0
  -29.2327   -8.1292   -6.9630 N   0  0  0  0  0  0  0  0  0  0  0  0
  -30.0810   -9.0546   -7.3479 C   0  0  0  0  0  0  0  0  0  0  0  0
  -29.6864  -10.1020   -8.0884 C   0  0  0  0  0  0  0  0  0  0  0  0
  -28.5575   -9.1823   -8.7844 N   0  0  0  0  0  0  0  0  0  0  0  0
  -28.0741   -7.4982   -8.6977 C   0  0  0  0  0  0  0  0  0  0  0  0
  -27.6183   -5.7652   -8.5927 C   0  0  0  0  0  0  0  0  0  0  0  0
  -30.9282  -11.0381   -7.1196 C   0  0  0  0  0  0  0  0  0  0  0  0
  -31.1239  -11.5924   -5.6806 C   0  0  0  0  0  0  0  0  0  0  0  0
  -32.3253  -12.1649   -5.3595 N   0  0  0  0  0  0  0  0  0  0  0  0
  -33.0740  -12.0586   -6.4662 N   0  0  0  0  0  0  0  0  0  0  0  0
  -34.5186  -12.4655   -6.4483 C   0  0  0  0  0  0  0  0  0  0  0  0
  -32.2657  -11.4609   -7.5127 C   0  0  0  0  0  0  0  0  0  0  0  0
  -28.5822   -0.3403   -5.3337 C   0  0  0  0  0  0  0  0  0  0  0  0
  -28.6166   -1.0383   -4.1839 C   0  0  0  0  0  0  0  0  0  0  0  0
  -28.4711   -2.4158   -4.2083 C   0  0  0  0  0  0  0  0  0  0  0  0
  -28.2609   -3.0981   -5.4130 C   0  0  0  0  0  0  0  0  0  0  0  0
  -28.2586   -2.4400   -6.6309 C   0  0  0  0  0  0  0  0  0  0  0  0
  -28.2795   -1.0533   -6.4772 C   0  0  0  0  0  0  0  0  0  0  0  0
  -30.3892    1.1648   -5.6968 C   0  0  0  0  0  0  0  0  0  0  0  0
  -29.0010    0.9513   -5.3826 O   0  0  0  0  0  0  0  0  0  0  0  0
  -28.5916   -3.1771   -3.0833 O   0  0  0  0  0  0  0  0  0  0  0  0
  -28.5484   -4.5814   -3.3293 C   0  0  0  0  0  0  0  0  0  0  0  0
  -28.3345   -2.2975   -9.1722 C   0  0  0  0  0  0  0  0  0  0  0  0
  -27.2335   -2.2261  -10.2906 C   0  0  0  0  0  0  0  0  0  0  0  0
  -26.2915   -2.0307  -11.0540 C   0  0  0  0  0  0  0  0  0  0  0  0
  -25.1027   -1.6218  -11.8595 C   0  0  0  0  0  0  0  0  0  0  0  0
  -23.7593   -1.5870  -11.4917 C   0  0  0  0  0  0  0  0  0  0  0  0
  -22.7036   -0.9710  -12.1623 N   0  0  0  0  0  0  0  0  0  0  0  0
  -22.9893   -0.5494  -13.3853 C   0  0  0  0  0  0  0  0  0  0  0  0
  -22.0361    0.0882  -14.1531 N   0  0  0  0  0  0  0  0  0  0  0  0
  -24.2581   -0.8648  -13.8636 C   0  0  0  0  0  0  0  0  0  0  0  0
  -25.3382   -1.3189  -13.1311 N   0  0  0  0  0  0  0  0  0  0  0  0
  -21.1581    0.3680  -13.7353 H   0  0  0  0  0  0  0  0  0  0  0  0
  -22.2488    0.4122  -15.0846 H   0  0  0  0  0  0  0  0  0  0  0  0
 24 25  1  0  0  0
 25 18  1  0  0  0
 18 19  1  0  0  0
 18 23  2  0  0  0
 19 20  2  0  0  0
 20 26  1  0  0  0
 20 21  1  0  0  0
 26 27  1  0  0  0
 21 22  2  0  0  0
 22  1  1  0  0  0
 22 23  1  0  0  0
  1 28  1  0  0  0
  1  2  1  0  0  0
 28 29  1  0  0  0
 29 30  3  0  0  0
 30 31  1  0  0  0
 31 32  1  0  0  0
 31 37  2  0  0  0
 32 33  2  0  0  0
 33 34  1  0  0  0
 34 35  1  0  0  0
 34 36  2  0  0  0
 35 38  1  0  0  0
 35 39  1  0  0  0
 36 37  1  0  0  0
  2  3  1  0  0  0
  2 11  2  0  0  0
  3  4  2  0  0  0
  4  5  1  0  0  0
  5  6  1  0  0  0
  5 10  2  0  0  0
  6  7  2  0  0  0
  7  8  1  0  0  0
  8 12  1  0  0  0
  8  9  2  0  0  0
 12 13  1  0  0  0
 12 17  2  0  0  0
 13 14  2  0  0  0
 14 15  1  0  0  0
 15 16  1  0  0  0
 15 17  1  0  0  0
  9 10  1  0  0  0
 10 11  1  0  0  0
M  END
> <minimizedAffinity>
-9.07795

$$$$
