CHEMBL469883


 31 33  0  0  0  0  0  0  0  0999 V2000
  -15.1501   -6.3812  -11.8737 C   0  0  0  0  0  0  0  0  0  0  0  0
  -15.2639   -4.9076  -12.1524 C   0  0  0  0  0  0  0  0  0  0  0  0
  -15.8934   -4.5194  -13.3528 C   0  0  0  0  0  0  0  0  0  0  0  0
  -16.0857   -3.1722  -13.6664 C   0  0  0  0  0  0  0  0  0  0  0  0
  -15.6319   -2.1776  -12.7995 C   0  0  0  0  0  0  0  0  0  0  0  0
  -15.0081   -2.5434  -11.6042 C   0  0  0  0  0  0  0  0  0  0  0  0
  -14.8144   -3.9010  -11.2751 C   0  0  0  0  0  0  0  0  0  0  0  0
  -15.8809   -0.7520  -13.1520 C   0  0  0  0  0  0  0  0  0  0  0  0
  -15.4485    0.1084  -12.3946 O   0  0  0  0  0  0  0  0  0  0  0  0
  -16.6530   -0.5442  -14.2844 N   0  0  0  0  0  0  0  0  0  0  0  0
  -17.1022   -1.3524  -14.6952 H   0  0  0  0  0  0  0  0  0  0  0  0
  -17.0355    0.7101  -14.8078 C   0  0  0  0  0  0  0  0  0  0  0  0
  -16.1381    1.6020  -15.3986 C   0  0  0  0  0  0  0  0  0  0  0  0
  -16.5698    2.8490  -15.8538 C   0  0  0  0  0  0  0  0  0  0  0  0
  -17.9042    3.2237  -15.7144 C   0  0  0  0  0  0  0  0  0  0  0  0
  -18.8269    2.3408  -15.1392 C   0  0  0  0  0  0  0  0  0  0  0  0
  -18.3853    1.0729  -14.7131 C   0  0  0  0  0  0  0  0  0  0  0  0
  -20.2676    2.7417  -14.9471 C   0  0  0  0  0  0  0  0  0  0  0  0
  -21.1387    1.6951  -14.9883 F   0  0  0  0  0  0  0  0  0  0  0  0
  -20.4833    3.3617  -13.7544 F   0  0  0  0  0  0  0  0  0  0  0  0
  -20.6925    3.6156  -15.9027 F   0  0  0  0  0  0  0  0  0  0  0  0
  -14.2017   -4.1320   -9.9322 C   0  0  0  0  0  0  0  0  0  0  0  0
  -14.9708   -4.3284   -8.9957 O   0  0  0  0  0  0  0  0  0  0  0  0
  -12.8292   -4.0084   -9.8370 N   0  0  0  0  0  0  0  0  0  0  0  0
  -12.3311   -3.6852  -10.6553 H   0  0  0  0  0  0  0  0  0  0  0  0
  -12.0668   -4.1223   -8.6483 C   0  0  0  0  0  0  0  0  0  0  0  0
  -11.4124   -5.2854   -8.2390 C   0  0  0  0  0  0  0  0  0  0  0  0
  -10.7241   -5.3094   -7.0266 C   0  0  0  0  0  0  0  0  0  0  0  0
  -10.6981   -4.1587   -6.2578 C   0  0  0  0  0  0  0  0  0  0  0  0
  -11.2888   -3.0042   -6.6261 N   0  0  0  0  0  0  0  0  0  0  0  0
  -11.9496   -3.0146   -7.8101 C   0  0  0  0  0  0  0  0  0  0  0  0
  1  2  1  0  0  0
  2  3  1  0  0  0
  2  7  2  0  0  0
  3  4  2  0  0  0
  4  5  1  0  0  0
  5  8  1  0  0  0
  5  6  2  0  0  0
  8  9  2  0  0  0
  8 10  1  0  0  0
 10 12  1  0  0  0
 10 11  1  0  0  0
 12 13  1  0  0  0
 12 17  2  0  0  0
 13 14  2  0  0  0
 14 15  1  0  0  0
 15 16  2  0  0  0
 16 18  1  0  0  0
 16 17  1  0  0  0
 18 19  1  0  0  0
 18 20  1  0  0  0
 18 21  1  0  0  0
  6  7  1  0  0  0
  7 22  1  0  0  0
 22 23  2  0  0  0
 22 24  1  0  0  0
 24 26  1  0  0  0
 24 25  1  0  0  0
 26 27  1  0  0  0
 26 31  2  0  0  0
 27 28  2  0  0  0
 28 29  1  0  0  0
 29 30  2  0  0  0
 30 31  1  0  0  0
M  END
> <minimizedAffinity>
-10.22609

$$$$
