CHEMBL244095


 40 43  0  0  0  0  0  0  0  0999 V2000
  -23.6385   -1.2497  -13.5415 C   0  0  0  0  0  0  0  0  0  0  0  0
  -23.5434   -1.3658  -12.1573 C   0  0  0  0  0  0  0  0  0  0  0  0
  -24.6885   -1.6098  -11.3899 C   0  0  0  0  0  0  0  0  0  0  0  0
  -25.9434   -1.7480  -11.9887 C   0  0  0  0  0  0  0  0  0  0  0  0
  -26.0421   -1.5658  -13.3746 C   0  0  0  0  0  0  0  0  0  0  0  0
  -24.8979   -1.2956  -14.1420 C   0  0  0  0  0  0  0  0  0  0  0  0
  -27.1184   -2.0838  -11.2730 N   0  0  0  0  0  0  0  0  0  0  0  0
  -27.2622   -2.0808   -9.8974 C   0  0  0  0  0  0  0  0  0  0  0  0
  -26.4189   -1.6841   -9.1003 O   0  0  0  0  0  0  0  0  0  0  0  0
  -28.4636   -2.6548   -9.4967 N   0  0  0  0  0  0  0  0  0  0  0  0
  -27.9587   -2.2386  -11.8102 H   0  0  0  0  0  0  0  0  0  0  0  0
  -28.7811   -3.4148  -10.0804 H   0  0  0  0  0  0  0  0  0  0  0  0
  -28.7854   -2.7450   -8.1190 C   0  0  0  0  0  0  0  0  0  0  0  0
  -29.7501   -3.6639   -7.7060 C   0  0  0  0  0  0  0  0  0  0  0  0
  -30.0224   -3.8210   -6.3450 C   0  0  0  0  0  0  0  0  0  0  0  0
  -29.3671   -3.0291   -5.3977 C   0  0  0  0  0  0  0  0  0  0  0  0
  -28.4181   -2.0861   -5.8019 C   0  0  0  0  0  0  0  0  0  0  0  0
  -28.1389   -1.9455   -7.1663 C   0  0  0  0  0  0  0  0  0  0  0  0
  -27.6265   -0.9878   -4.6434 S   0  0  0  0  0  0  0  0  0  0  0  0
  -28.3773    0.5951   -5.0517 C   0  0  0  0  0  0  0  0  0  0  0  0
  -28.0437    1.0677   -6.2746 F   0  0  0  0  0  0  0  0  0  0  0  0
  -29.7295    0.5149   -5.0069 F   0  0  0  0  0  0  0  0  0  0  0  0
  -28.0088    1.5394   -4.1496 F   0  0  0  0  0  0  0  0  0  0  0  0
  -22.4509   -1.0673  -14.2181 O   0  0  0  0  0  0  0  0  0  0  0  0
  -18.8378    3.3945  -15.2031 C   0  0  0  0  0  0  0  0  0  0  0  0
  -19.8746    3.7890  -14.5144 N   0  0  0  0  0  0  0  0  0  0  0  0
  -20.7047    2.7016  -14.4555 C   0  0  0  0  0  0  0  0  0  0  0  0
  -22.0137    2.6095  -13.9691 C   0  0  0  0  0  0  0  0  0  0  0  0
  -22.6339    1.3573  -13.9572 C   0  0  0  0  0  0  0  0  0  0  0  0
  -21.9321    0.2070  -14.3392 C   0  0  0  0  0  0  0  0  0  0  0  0
  -20.6578    0.2973  -14.9218 C   0  0  0  0  0  0  0  0  0  0  0  0
  -20.0848    1.5727  -14.9815 C   0  0  0  0  0  0  0  0  0  0  0  0
  -18.9141    2.0599  -15.5129 N   0  0  0  0  0  0  0  0  0  0  0  0
  -18.2172    1.5402  -16.0281 H   0  0  0  0  0  0  0  0  0  0  0  0
  -16.5951    3.7296  -15.8822 C   0  0  0  0  0  0  0  0  0  0  0  0
  -16.1710    2.6088  -15.6379 O   0  0  0  0  0  0  0  0  0  0  0  0
  -17.8173    4.2324  -15.5482 N   0  0  0  0  0  0  0  0  0  0  0  0
  -18.0858    5.0465  -16.0815 H   0  0  0  0  0  0  0  0  0  0  0  0
  -15.3347    4.1842  -17.8194 C   0  0  0  0  0  0  0  0  0  0  0  0
  -15.9494    4.6667  -16.6245 O   0  0  0  0  0  0  0  0  0  0  0  0
 39 40  1  0  0  0
 40 35  1  0  0  0
 35 36  2  0  0  0
 35 37  1  0  0  0
 37 25  1  0  0  0
 37 38  1  0  0  0
 25 26  2  0  0  0
 25 33  1  0  0  0
 26 27  1  0  0  0
 27 28  1  0  0  0
 27 32  2  0  0  0
 28 29  2  0  0  0
 29 30  1  0  0  0
 30 24  1  0  0  0
 30 31  2  0  0  0
 24  1  1  0  0  0
  1  2  1  0  0  0
  1  6  2  0  0  0
  2  3  2  0  0  0
  3  4  1  0  0  0
  4  7  1  0  0  0
  4  5  2  0  0  0
  7  8  1  0  0  0
  7 11  1  0  0  0
  8  9  2  0  0  0
  8 10  1  0  0  0
 10 13  1  0  0  0
 10 12  1  0  0  0
 13 14  1  0  0  0
 13 18  2  0  0  0
 14 15  2  0  0  0
 15 16  1  0  0  0
 16 17  2  0  0  0
 17 19  1  0  0  0
 17 18  1  0  0  0
 19 20  1  0  0  0
 20 21  1  0  0  0
 20 22  1  0  0  0
 20 23  1  0  0  0
  5  6  1  0  0  0
 31 32  1  0  0  0
 32 33  1  0  0  0
 33 34  1  0  0  0
M  END
> <minimizedAffinity>
-11.86832

$$$$
