CHEMBL410663


 35 38  0  0  0  0  0  0  0  0999 V2000
  -13.0966   -3.4365  -11.0851 C   0  0  0  0  0  0  0  0  0  0  0  0
  -14.4895   -3.4539  -11.1708 C   0  0  0  0  0  0  0  0  0  0  0  0
  -15.1811   -2.7101  -12.1278 C   0  0  0  0  0  0  0  0  0  0  0  0
  -14.5132   -2.0301  -13.1433 C   0  0  0  0  0  0  0  0  0  0  0  0
  -13.1175   -2.0787  -13.1452 C   0  0  0  0  0  0  0  0  0  0  0  0
  -12.4232   -2.7542  -12.1170 C   0  0  0  0  0  0  0  0  0  0  0  0
  -12.1216   -6.4721  -12.3473 N   0  0  0  0  0  0  0  0  0  0  0  0
  -11.6733   -6.4702  -11.0799 C   0  0  0  0  0  0  0  0  0  0  0  0
  -10.9906   -7.5062  -10.5905 N   0  0  0  0  0  0  0  0  0  0  0  0
  -10.6968   -7.1867   -9.2847 O   0  0  0  0  0  0  0  0  0  0  0  0
  -11.1864   -5.9568   -8.9976 C   0  0  0  0  0  0  0  0  0  0  0  0
  -11.0456   -5.3343   -7.7573 C   0  0  0  0  0  0  0  0  0  0  0  0
  -11.5855   -4.0610   -7.6412 C   0  0  0  0  0  0  0  0  0  0  0  0
  -12.2396   -3.4657   -8.7168 C   0  0  0  0  0  0  0  0  0  0  0  0
  -12.3993   -4.1099   -9.9786 C   0  0  0  0  0  0  0  0  0  0  0  0
  -11.8293   -5.4182  -10.1047 C   0  0  0  0  0  0  0  0  0  0  0  0
  -11.9961   -7.3168  -12.8974 H   0  0  0  0  0  0  0  0  0  0  0  0
  -12.8875   -5.8906  -12.6603 H   0  0  0  0  0  0  0  0  0  0  0  0
  -15.2001   -1.3427  -14.1758 N   0  0  0  0  0  0  0  0  0  0  0  0
  -16.1015   -0.3087  -13.9871 C   0  0  0  0  0  0  0  0  0  0  0  0
  -16.3454    0.2340  -12.9088 O   0  0  0  0  0  0  0  0  0  0  0  0
  -16.7593    0.0512  -15.1545 N   0  0  0  0  0  0  0  0  0  0  0  0
  -14.9487   -1.5706  -15.1280 H   0  0  0  0  0  0  0  0  0  0  0  0
  -16.9386   -0.7225  -15.7801 H   0  0  0  0  0  0  0  0  0  0  0  0
  -17.7428    1.0701  -15.1163 C   0  0  0  0  0  0  0  0  0  0  0  0
  -17.4098    2.3465  -15.5709 C   0  0  0  0  0  0  0  0  0  0  0  0
  -18.3841    3.3454  -15.6071 C   0  0  0  0  0  0  0  0  0  0  0  0
  -19.6768    3.0806  -15.1590 C   0  0  0  0  0  0  0  0  0  0  0  0
  -20.5744    4.0726  -15.1966 F   0  0  0  0  0  0  0  0  0  0  0  0
  -20.0323    1.8209  -14.6869 C   0  0  0  0  0  0  0  0  0  0  0  0
  -19.0504    0.8139  -14.6708 C   0  0  0  0  0  0  0  0  0  0  0  0
  -21.4287    1.5314  -14.2204 C   0  0  0  0  0  0  0  0  0  0  0  0
  -22.1690    2.6274  -13.9010 F   0  0  0  0  0  0  0  0  0  0  0  0
  -22.1596    0.8553  -15.1510 F   0  0  0  0  0  0  0  0  0  0  0  0
  -21.4418    0.7466  -13.1046 F   0  0  0  0  0  0  0  0  0  0  0  0
  7  8  1  0  0  0
  7 17  1  0  0  0
  7 18  1  0  0  0
  8  9  2  0  0  0
  8 16  1  0  0  0
  9 10  1  0  0  0
 10 11  1  0  0  0
 11 12  1  0  0  0
 11 16  2  0  0  0
 12 13  2  0  0  0
 13 14  1  0  0  0
 14 15  2  0  0  0
 15  1  1  0  0  0
 15 16  1  0  0  0
  1  2  1  0  0  0
  1  6  2  0  0  0
  2  3  2  0  0  0
  3  4  1  0  0  0
  4 19  1  0  0  0
  4  5  2  0  0  0
 19 20  1  0  0  0
 19 23  1  0  0  0
 20 21  2  0  0  0
 20 22  1  0  0  0
 22 25  1  0  0  0
 22 24  1  0  0  0
 25 26  1  0  0  0
 25 31  2  0  0  0
 26 27  2  0  0  0
 27 28  1  0  0  0
 28 29  1  0  0  0
 28 30  2  0  0  0
 30 32  1  0  0  0
 30 31  1  0  0  0
 32 33  1  0  0  0
 32 34  1  0  0  0
 32 35  1  0  0  0
  5  6  1  0  0  0
M  END
> <minimizedAffinity>
-9.45319

$$$$
