CHEMBL3690534


 40 43  0  0  0  0  0  0  0  0999 V2000
  -23.2532    0.0424  -14.0535 C   0  0  0  0  0  0  0  0  0  0  0  0
  -21.9814   -0.6368  -14.3020 C   0  0  0  0  0  0  0  0  0  0  0  0
  -20.8545    0.0827  -14.4362 C   0  0  0  0  0  0  0  0  0  0  0  0
  -20.9049    1.4811  -14.3792 N   0  0  0  0  0  0  0  0  0  0  0  0
  -19.9103    2.4515  -14.5468 C   0  0  0  0  0  0  0  0  0  0  0  0
  -20.5711    3.6412  -14.2768 C   0  0  0  0  0  0  0  0  0  0  0  0
  -21.9046    3.4565  -14.0268 N   0  0  0  0  0  0  0  0  0  0  0  0
  -22.0981    2.1609  -14.1226 C   0  0  0  0  0  0  0  0  0  0  0  0
  -23.2905    1.3909  -13.9700 C   0  0  0  0  0  0  0  0  0  0  0  0
  -25.9312   -1.6950  -12.2936 C   0  0  0  0  0  0  0  0  0  0  0  0
  -24.7426   -1.0953  -12.5299 N   0  0  0  0  0  0  0  0  0  0  0  0
  -24.4945   -0.7087  -13.7954 C   0  0  0  0  0  0  0  0  0  0  0  0
  -25.3327   -0.8571  -14.8383 N   0  0  0  0  0  0  0  0  0  0  0  0
  -26.4905   -1.4909  -14.5706 C   0  0  0  0  0  0  0  0  0  0  0  0
  -26.8293   -1.9472  -13.3217 C   0  0  0  0  0  0  0  0  0  0  0  0
  -28.0122   -2.5382  -13.1023 F   0  0  0  0  0  0  0  0  0  0  0  0
  -26.2728   -2.1005  -10.9787 N   0  0  0  0  0  0  0  0  0  0  0  0
  -26.5150   -3.0945  -11.0191 H   0  0  0  0  0  0  0  0  0  0  0  0
  -27.4217   -1.3729  -10.4234 C   0  0  0  0  0  0  0  0  0  0  0  0
  -27.3677   -3.3660   -8.9097 N   0  0  0  0  0  0  0  0  0  0  0  0
  -27.8790   -1.9961   -9.0831 C   0  0  0  0  0  0  0  0  0  0  0  0
  -27.7335   -3.7431   -8.0350 H   0  0  0  0  0  0  0  0  0  0  0  0
  -26.3545   -3.3319   -8.7968 H   0  0  0  0  0  0  0  0  0  0  0  0
  -18.5146    2.2363  -14.9756 C   0  0  0  0  0  0  0  0  0  0  0  0
  -17.8040    3.2660  -15.6044 C   0  0  0  0  0  0  0  0  0  0  0  0
  -16.4958    3.0808  -16.0332 C   0  0  0  0  0  0  0  0  0  0  0  0
  -15.8399    1.8849  -15.7661 C   0  0  0  0  0  0  0  0  0  0  0  0
  -16.4720    0.8598  -15.0608 C   0  0  0  0  0  0  0  0  0  0  0  0
  -17.8244    1.0321  -14.6967 C   0  0  0  0  0  0  0  0  0  0  0  0
  -15.7939   -0.3325  -14.6896 N   0  0  0  0  0  0  0  0  0  0  0  0
  -15.4714   -0.7117  -13.4029 C   0  0  0  0  0  0  0  0  0  0  0  0
  -15.7121   -0.1019  -12.3668 O   0  0  0  0  0  0  0  0  0  0  0  0
  -14.7623   -1.8930  -13.3512 N   0  0  0  0  0  0  0  0  0  0  0  0
  -15.5586   -0.9752  -15.4307 H   0  0  0  0  0  0  0  0  0  0  0  0
  -14.9710   -2.5807  -14.0607 H   0  0  0  0  0  0  0  0  0  0  0  0
  -14.3629   -2.4032  -12.0286 C   0  0  0  0  0  0  0  0  0  0  0  0
  -15.4336   -3.1765  -11.2411 C   0  0  0  0  0  0  0  0  0  0  0  0
  -16.0159   -2.4123  -10.2888 F   0  0  0  0  0  0  0  0  0  0  0  0
  -16.4244   -3.5731  -12.0813 F   0  0  0  0  0  0  0  0  0  0  0  0
  -14.9439   -4.2868  -10.6527 F   0  0  0  0  0  0  0  0  0  0  0  0
 20 21  1  0  0  0
 20 22  1  0  0  0
 20 23  1  0  0  0
 21 19  1  0  0  0
 19 17  1  0  0  0
 17 10  1  0  0  0
 17 18  1  0  0  0
 10 11  1  0  0  0
 10 15  2  0  0  0
 11 12  2  0  0  0
 12  1  1  0  0  0
 12 13  1  0  0  0
  1  2  1  0  0  0
  1  9  2  0  0  0
  2  3  2  0  0  0
  3  4  1  0  0  0
  4  5  1  0  0  0
  4  8  1  0  0  0
  5 24  1  0  0  0
  5  6  2  0  0  0
 24 25  1  0  0  0
 24 29  2  0  0  0
 25 26  2  0  0  0
 26 27  1  0  0  0
 27 28  2  0  0  0
 28 30  1  0  0  0
 28 29  1  0  0  0
 30 31  1  0  0  0
 30 34  1  0  0  0
 31 32  2  0  0  0
 31 33  1  0  0  0
 33 36  1  0  0  0
 33 35  1  0  0  0
 36 37  1  0  0  0
 37 38  1  0  0  0
 37 39  1  0  0  0
 37 40  1  0  0  0
  6  7  1  0  0  0
  7  8  2  0  0  0
  8  9  1  0  0  0
 13 14  2  0  0  0
 14 15  1  0  0  0
 15 16  1  0  0  0
M  END
> <minimizedAffinity>
-9.90553

$$$$
