CHEMBL2349003


 31 34  0  0  0  0  0  0  0  0999 V2000
  -26.8218   -2.0108  -11.3992 C   0  0  0  0  0  0  0  0  0  0  0  0
  -27.3107   -1.9778  -12.8050 C   0  0  0  0  0  0  0  0  0  0  0  0
  -26.4380   -1.5871  -13.7416 C   0  0  0  0  0  0  0  0  0  0  0  0
  -25.1472   -1.1687  -13.3438 C   0  0  0  0  0  0  0  0  0  0  0  0
  -24.1253   -0.7341  -14.0450 N   0  0  0  0  0  0  0  0  0  0  0  0
  -23.1675   -0.4032  -13.1314 C   0  0  0  0  0  0  0  0  0  0  0  0
  -23.5952   -0.6735  -11.8518 C   0  0  0  0  0  0  0  0  0  0  0  0
  -24.8656   -1.1666  -11.9908 N   0  0  0  0  0  0  0  0  0  0  0  0
  -25.6636   -1.5997  -10.9737 N   0  0  0  0  0  0  0  0  0  0  0  0
  -21.9509    0.1462  -13.4643 N   0  0  0  0  0  0  0  0  0  0  0  0
  -21.7851    1.4599  -13.8488 C   0  0  0  0  0  0  0  0  0  0  0  0
  -22.6550    2.3083  -13.9851 O   0  0  0  0  0  0  0  0  0  0  0  0
  -21.1480   -0.4548  -13.3896 H   0  0  0  0  0  0  0  0  0  0  0  0
  -20.3787    1.8881  -14.1262 C   0  0  0  0  0  0  0  0  0  0  0  0
  -20.0371    2.5403  -15.4456 C   0  0  0  0  0  0  0  0  0  0  0  0
  -19.4153    1.2243  -15.0790 C   0  0  0  0  0  0  0  0  0  0  0  0
  -27.7864   -2.5809  -10.5663 O   0  0  0  0  0  0  0  0  0  0  0  0
  -28.2287   -2.8759   -6.8771 C   0  0  0  0  0  0  0  0  0  0  0  0
  -27.8538   -1.5836   -6.4888 C   0  0  0  0  0  0  0  0  0  0  0  0
  -27.5306   -0.6082   -7.4279 C   0  0  0  0  0  0  0  0  0  0  0  0
  -27.5486   -0.9204   -8.7810 C   0  0  0  0  0  0  0  0  0  0  0  0
  -27.8564   -2.2216   -9.1886 C   0  0  0  0  0  0  0  0  0  0  0  0
  -28.1630   -3.2155   -8.2406 C   0  0  0  0  0  0  0  0  0  0  0  0
  -30.0317   -3.9366   -5.5297 C   0  0  0  0  0  0  0  0  0  0  0  0
  -30.9505   -3.2584   -5.9917 O   0  0  0  0  0  0  0  0  0  0  0  0
  -28.6987   -3.8240   -5.9227 N   0  0  0  0  0  0  0  0  0  0  0  0
  -28.0657   -4.5726   -5.6748 H   0  0  0  0  0  0  0  0  0  0  0  0
  -29.0800   -5.2229   -3.6067 C   0  0  0  0  0  0  0  0  0  0  0  0
  -30.3500   -5.0017   -4.4610 C   0  0  0  0  0  0  0  0  0  0  0  0
  -30.7210   -6.3274   -5.1325 C   0  0  0  0  0  0  0  0  0  0  0  0
  -31.4754   -4.5363   -3.5310 C   0  0  0  0  0  0  0  0  0  0  0  0
 28 29  1  0  0  0
 29 30  1  0  0  0
 29 31  1  0  0  0
 29 24  1  0  0  0
 24 25  2  0  0  0
 24 26  1  0  0  0
 26 18  1  0  0  0
 26 27  1  0  0  0
 18 19  1  0  0  0
 18 23  2  0  0  0
 19 20  2  0  0  0
 20 21  1  0  0  0
 21 22  2  0  0  0
 22 17  1  0  0  0
 22 23  1  0  0  0
 17  1  1  0  0  0
  1  2  1  0  0  0
  1  9  2  0  0  0
  2  3  2  0  0  0
  3  4  1  0  0  0
  4  5  2  0  0  0
  4  8  1  0  0  0
  5  6  1  0  0  0
  6 10  1  0  0  0
  6  7  2  0  0  0
 10 11  1  0  0  0
 10 13  1  0  0  0
 11 12  2  0  0  0
 11 14  1  0  0  0
 14 15  1  0  0  0
 14 16  1  0  0  0
 15 16  1  0  0  0
  7  8  1  0  0  0
  8  9  1  0  0  0
M  END
> <minimizedAffinity>
-9.24337

$$$$
