CHEMBL223361


 36 39  0  0  0  0  0  0  0  0999 V2000
  -22.7798   -0.5139  -13.5629 C   0  0  0  0  0  0  0  0  0  0  0  0
  -22.6673   -0.9937  -12.2568 C   0  0  0  0  0  0  0  0  0  0  0  0
  -23.7589   -1.5403  -11.5794 C   0  0  0  0  0  0  0  0  0  0  0  0
  -24.9913   -1.7102  -12.2123 C   0  0  0  0  0  0  0  0  0  0  0  0
  -25.1040   -1.3318  -13.5497 C   0  0  0  0  0  0  0  0  0  0  0  0
  -24.0145   -0.7280  -14.2081 C   0  0  0  0  0  0  0  0  0  0  0  0
  -23.4045    2.8115  -13.2660 N   0  0  0  0  0  0  0  0  0  0  0  0
  -22.2335    2.7533  -13.9149 C   0  0  0  0  0  0  0  0  0  0  0  0
  -21.6078    3.8786  -14.2477 N   0  0  0  0  0  0  0  0  0  0  0  0
  -20.5074    3.4587  -14.8724 N   0  0  0  0  0  0  0  0  0  0  0  0
  -20.3863    2.0987  -14.9554 C   0  0  0  0  0  0  0  0  0  0  0  0
  -19.3770    1.3250  -15.5334 C   0  0  0  0  0  0  0  0  0  0  0  0
  -19.5073   -0.0560  -15.4480 C   0  0  0  0  0  0  0  0  0  0  0  0
  -20.6068   -0.6286  -14.8109 C   0  0  0  0  0  0  0  0  0  0  0  0
  -21.6422    0.1485  -14.2331 C   0  0  0  0  0  0  0  0  0  0  0  0
  -21.5145    1.5726  -14.3164 C   0  0  0  0  0  0  0  0  0  0  0  0
  -23.8210    3.7300  -13.1639 H   0  0  0  0  0  0  0  0  0  0  0  0
  -24.0799    2.0597  -13.3254 H   0  0  0  0  0  0  0  0  0  0  0  0
  -19.8631    4.1567  -15.2237 H   0  0  0  0  0  0  0  0  0  0  0  0
  -26.1129   -2.2765  -11.5625 N   0  0  0  0  0  0  0  0  0  0  0  0
  -26.5438   -1.9449  -10.2972 C   0  0  0  0  0  0  0  0  0  0  0  0
  -26.1012   -1.0064   -9.6331 O   0  0  0  0  0  0  0  0  0  0  0  0
  -27.5137   -2.8051   -9.8110 N   0  0  0  0  0  0  0  0  0  0  0  0
  -26.7510   -2.8274  -12.1215 H   0  0  0  0  0  0  0  0  0  0  0  0
  -27.3805   -3.7699  -10.0879 H   0  0  0  0  0  0  0  0  0  0  0  0
  -27.9895   -2.6239   -8.4852 C   0  0  0  0  0  0  0  0  0  0  0  0
  -28.0686   -1.3509   -7.9058 C   0  0  0  0  0  0  0  0  0  0  0  0
  -28.3885   -1.1966   -6.5484 C   0  0  0  0  0  0  0  0  0  0  0  0
  -28.6387   -2.3444   -5.7779 C   0  0  0  0  0  0  0  0  0  0  0  0
  -28.6047   -3.6138   -6.3629 C   0  0  0  0  0  0  0  0  0  0  0  0
  -28.3022   -3.7432   -7.7152 C   0  0  0  0  0  0  0  0  0  0  0  0
  -28.2291   -4.9678   -8.2588 F   0  0  0  0  0  0  0  0  0  0  0  0
  -28.4349    0.1751   -5.9183 C   0  0  0  0  0  0  0  0  0  0  0  0
  -27.4790    0.3807   -4.9706 F   0  0  0  0  0  0  0  0  0  0  0  0
  -28.2620    1.1660   -6.8376 F   0  0  0  0  0  0  0  0  0  0  0  0
  -29.6268    0.4331   -5.3135 F   0  0  0  0  0  0  0  0  0  0  0  0
  7  8  1  0  0  0
  7 17  1  0  0  0
  7 18  1  0  0  0
  8  9  2  0  0  0
  8 16  1  0  0  0
  9 10  1  0  0  0
 10 11  1  0  0  0
 10 19  1  0  0  0
 11 12  1  0  0  0
 11 16  2  0  0  0
 12 13  2  0  0  0
 13 14  1  0  0  0
 14 15  2  0  0  0
 15  1  1  0  0  0
 15 16  1  0  0  0
  1  2  1  0  0  0
  1  6  2  0  0  0
  2  3  2  0  0  0
  3  4  1  0  0  0
  4 20  1  0  0  0
  4  5  2  0  0  0
 20 21  1  0  0  0
 20 24  1  0  0  0
 21 22  2  0  0  0
 21 23  1  0  0  0
 23 26  1  0  0  0
 23 25  1  0  0  0
 26 27  1  0  0  0
 26 31  2  0  0  0
 27 28  2  0  0  0
 28 33  1  0  0  0
 28 29  1  0  0  0
 33 34  1  0  0  0
 33 35  1  0  0  0
 33 36  1  0  0  0
 29 30  2  0  0  0
 30 31  1  0  0  0
 31 32  1  0  0  0
  5  6  1  0  0  0
M  END
> <minimizedAffinity>
-11.02641

$$$$
