CHEMBL391692


 42 46  0  0  0  0  0  0  0  0999 V2000
  -22.7470   -0.4938  -13.6762 C   0  0  0  0  0  0  0  0  0  0  0  0
  -22.6778   -1.0725  -12.4089 C   0  0  0  0  0  0  0  0  0  0  0  0
  -23.8203   -1.5880  -11.7974 C   0  0  0  0  0  0  0  0  0  0  0  0
  -25.0719   -1.5078  -12.4123 C   0  0  0  0  0  0  0  0  0  0  0  0
  -25.1428   -0.9609  -13.6944 C   0  0  0  0  0  0  0  0  0  0  0  0
  -23.9843   -0.4846  -14.3298 C   0  0  0  0  0  0  0  0  0  0  0  0
  -22.9547    2.9677  -13.5750 N   0  0  0  0  0  0  0  0  0  0  0  0
  -21.7187    2.7438  -14.1681 C   0  0  0  0  0  0  0  0  0  0  0  0
  -21.0163    3.8537  -14.4663 N   0  0  0  0  0  0  0  0  0  0  0  0
  -19.7742    3.7426  -14.9931 C   0  0  0  0  0  0  0  0  0  0  0  0
  -19.0973    2.5612  -15.2924 C   0  0  0  0  0  0  0  0  0  0  0  0
  -19.8731    1.4397  -14.9804 C   0  0  0  0  0  0  0  0  0  0  0  0
  -19.4858    0.1422  -15.1539 O   0  0  0  0  0  0  0  0  0  0  0  0
  -20.4903   -0.6450  -14.7131 C   0  0  0  0  0  0  0  0  0  0  0  0
  -21.5563    0.1088  -14.2573 C   0  0  0  0  0  0  0  0  0  0  0  0
  -21.1591    1.4794  -14.4326 C   0  0  0  0  0  0  0  0  0  0  0  0
  -23.0111    3.9423  -13.2983 H   0  0  0  0  0  0  0  0  0  0  0  0
  -23.1692    2.3041  -12.8406 H   0  0  0  0  0  0  0  0  0  0  0  0
  -17.7324    2.5260  -15.8424 C   0  0  0  0  0  0  0  0  0  0  0  0
  -16.9803    1.3333  -15.8210 C   0  0  0  0  0  0  0  0  0  0  0  0
  -15.7078    1.2536  -16.3948 C   0  0  0  0  0  0  0  0  0  0  0  0
  -15.1459    2.3759  -16.9926 C   0  0  0  0  0  0  0  0  0  0  0  0
  -15.8583    3.5707  -17.0079 C   0  0  0  0  0  0  0  0  0  0  0  0
  -15.1594    4.9657  -17.7353 Cl  0  0  0  0  0  0  0  0  0  0  0  0
  -17.1364    3.6475  -16.4458 C   0  0  0  0  0  0  0  0  0  0  0  0
  -26.2650   -1.9580  -11.7975 N   0  0  0  0  0  0  0  0  0  0  0  0
  -26.5732   -1.7952  -10.4624 C   0  0  0  0  0  0  0  0  0  0  0  0
  -25.8828   -1.1885   -9.6499 O   0  0  0  0  0  0  0  0  0  0  0  0
  -27.7556   -2.4294  -10.1009 N   0  0  0  0  0  0  0  0  0  0  0  0
  -26.9996   -2.3029  -12.3985 H   0  0  0  0  0  0  0  0  0  0  0  0
  -27.8814   -3.3369  -10.5332 H   0  0  0  0  0  0  0  0  0  0  0  0
  -28.1290   -2.3659   -8.7318 C   0  0  0  0  0  0  0  0  0  0  0  0
  -28.3005   -1.1310   -8.0902 C   0  0  0  0  0  0  0  0  0  0  0  0
  -28.4336   -1.0553   -6.6992 C   0  0  0  0  0  0  0  0  0  0  0  0
  -28.4205   -2.2468   -5.9550 C   0  0  0  0  0  0  0  0  0  0  0  0
  -28.3180   -3.4851   -6.5981 C   0  0  0  0  0  0  0  0  0  0  0  0
  -28.1950   -3.5389   -7.9828 C   0  0  0  0  0  0  0  0  0  0  0  0
  -28.0347   -4.7257   -8.5870 F   0  0  0  0  0  0  0  0  0  0  0  0
  -28.5327    0.2841   -6.0092 C   0  0  0  0  0  0  0  0  0  0  0  0
  -28.4561    1.3493   -6.8552 F   0  0  0  0  0  0  0  0  0  0  0  0
  -29.7111    0.4292   -5.3403 F   0  0  0  0  0  0  0  0  0  0  0  0
  -27.5530    0.4711   -5.0813 F   0  0  0  0  0  0  0  0  0  0  0  0
  7  8  1  0  0  0
  7 17  1  0  0  0
  7 18  1  0  0  0
  8  9  1  0  0  0
  8 16  2  0  0  0
  9 10  2  0  0  0
 10 11  1  0  0  0
 11 19  1  0  0  0
 11 12  2  0  0  0
 19 20  1  0  0  0
 19 25  2  0  0  0
 20 21  2  0  0  0
 21 22  1  0  0  0
 22 23  2  0  0  0
 23 24  1  0  0  0
 23 25  1  0  0  0
 12 13  1  0  0  0
 12 16  1  0  0  0
 13 14  1  0  0  0
 14 15  2  0  0  0
 15  1  1  0  0  0
 15 16  1  0  0  0
  1  2  1  0  0  0
  1  6  2  0  0  0
  2  3  2  0  0  0
  3  4  1  0  0  0
  4 26  1  0  0  0
  4  5  2  0  0  0
 26 27  1  0  0  0
 26 30  1  0  0  0
 27 28  2  0  0  0
 27 29  1  0  0  0
 29 32  1  0  0  0
 29 31  1  0  0  0
 32 33  1  0  0  0
 32 37  2  0  0  0
 33 34  2  0  0  0
 34 39  1  0  0  0
 34 35  1  0  0  0
 39 40  1  0  0  0
 39 41  1  0  0  0
 39 42  1  0  0  0
 35 36  2  0  0  0
 36 37  1  0  0  0
 37 38  1  0  0  0
  5  6  1  0  0  0
M  END
> <minimizedAffinity>
-12.26891

$$$$
