CHEMBL3125889


 40 44  0  0  0  0  0  0  0  0999 V2000
  -14.8532   -0.7529  -12.9885 C   0  0  0  0  0  0  0  0  0  0  0  0
  -13.6794   -0.3624  -13.6329 C   0  0  0  0  0  0  0  0  0  0  0  0
  -13.6852    0.7450  -14.4772 C   0  0  0  0  0  0  0  0  0  0  0  0
  -14.8653    1.4614  -14.6819 C   0  0  0  0  0  0  0  0  0  0  0  0
  -16.0531    1.0726  -14.0590 C   0  0  0  0  0  0  0  0  0  0  0  0
  -16.0435   -0.0482  -13.2216 C   0  0  0  0  0  0  0  0  0  0  0  0
  -17.2655    1.7777  -14.2088 N   0  0  0  0  0  0  0  0  0  0  0  0
  -17.6785    2.4261  -15.3640 C   0  0  0  0  0  0  0  0  0  0  0  0
  -17.1024    2.3934  -16.4488 O   0  0  0  0  0  0  0  0  0  0  0  0
  -17.9140    1.7447  -13.4328 H   0  0  0  0  0  0  0  0  0  0  0  0
  -18.9514    3.2388  -15.1949 C   0  0  0  0  0  0  0  0  0  0  0  0
  -20.1300    2.3481  -14.8914 C   0  0  0  0  0  0  0  0  0  0  0  0
  -21.2725    2.8771  -14.2724 C   0  0  0  0  0  0  0  0  0  0  0  0
  -22.3322    2.0456  -13.9084 C   0  0  0  0  0  0  0  0  0  0  0  0
  -22.2733    0.6700  -14.1668 C   0  0  0  0  0  0  0  0  0  0  0  0
  -21.1391    0.1477  -14.8084 C   0  0  0  0  0  0  0  0  0  0  0  0
  -20.0800    0.9798  -15.1740 C   0  0  0  0  0  0  0  0  0  0  0  0
  -23.3979   -0.2498  -13.7639 C   0  0  0  0  0  0  0  0  0  0  0  0
  -22.9807   -1.4767  -13.3446 F   0  0  0  0  0  0  0  0  0  0  0  0
  -24.1445    0.2591  -12.7447 F   0  0  0  0  0  0  0  0  0  0  0  0
  -24.2698   -0.4813  -14.7848 F   0  0  0  0  0  0  0  0  0  0  0  0
  -14.7501   -1.8730  -12.1896 O   0  0  0  0  0  0  0  0  0  0  0  0
  -13.8833   -3.9715  -12.9048 C   0  0  0  0  0  0  0  0  0  0  0  0
  -14.9845   -3.1234  -12.7251 C   0  0  0  0  0  0  0  0  0  0  0  0
  -16.2762   -3.5671  -13.0253 C   0  0  0  0  0  0  0  0  0  0  0  0
  -16.4756   -4.8109  -13.6264 C   0  0  0  0  0  0  0  0  0  0  0  0
  -15.3804   -5.6612  -13.8624 C   0  0  0  0  0  0  0  0  0  0  0  0
  -15.4531   -6.9014  -14.4691 N   0  0  0  0  0  0  0  0  0  0  0  0
  -14.2671   -7.4394  -14.4993 C   0  0  0  0  0  0  0  0  0  0  0  0
  -12.9987   -6.5387  -13.8075 S   0  0  0  0  0  0  0  0  0  0  0  0
  -14.0999   -5.2479  -13.4694 C   0  0  0  0  0  0  0  0  0  0  0  0
  -13.8570   -8.6266  -15.0251 N   0  0  0  0  0  0  0  0  0  0  0  0
  -13.3124   -8.7569  -16.2781 C   0  0  0  0  0  0  0  0  0  0  0  0
  -13.1184   -7.8993  -17.1236 O   0  0  0  0  0  0  0  0  0  0  0  0
  -13.9065   -9.4333  -14.4235 H   0  0  0  0  0  0  0  0  0  0  0  0
  -12.8531  -10.1744  -16.5116 C   0  0  0  0  0  0  0  0  0  0  0  0
  -13.7554  -10.5589  -17.7777 C   0  0  0  0  0  0  0  0  0  0  0  0
  -12.5463  -11.2762  -17.5170 C   0  0  0  0  0  0  0  0  0  0  0  0
  -11.4746   -3.2662  -12.2588 N   0  0  0  0  0  0  0  0  0  0  0  0
  -12.5449   -3.5922  -12.5527 C   0  0  0  0  0  0  0  0  0  0  0  0
 39 40  3  0  0  0
 40 23  1  0  0  0
 23 24  1  0  0  0
 23 31  2  0  0  0
 24 22  1  0  0  0
 24 25  2  0  0  0
 22  1  1  0  0  0
  1  2  1  0  0  0
  1  6  2  0  0  0
  2  3  2  0  0  0
  3  4  1  0  0  0
  4  5  2  0  0  0
  5  7  1  0  0  0
  5  6  1  0  0  0
  7  8  1  0  0  0
  7 10  1  0  0  0
  8  9  2  0  0  0
  8 11  1  0  0  0
 11 12  1  0  0  0
 12 13  1  0  0  0
 12 17  2  0  0  0
 13 14  2  0  0  0
 14 15  1  0  0  0
 15 18  1  0  0  0
 15 16  2  0  0  0
 18 19  1  0  0  0
 18 20  1  0  0  0
 18 21  1  0  0  0
 16 17  1  0  0  0
 25 26  1  0  0  0
 26 27  2  0  0  0
 27 28  1  0  0  0
 27 31  1  0  0  0
 28 29  2  0  0  0
 29 32  1  0  0  0
 29 30  1  0  0  0
 32 33  1  0  0  0
 32 35  1  0  0  0
 33 34  2  0  0  0
 33 36  1  0  0  0
 36 37  1  0  0  0
 36 38  1  0  0  0
 37 38  1  0  0  0
 30 31  1  0  0  0
M  END
> <minimizedAffinity>
-9.87130

$$$$
