CHEMBL258453


 39 43  0  0  0  0  0  0  0  0999 V2000
  -13.2795   -0.4082  -16.3334 C   0  0  0  0  0  0  0  0  0  0  0  0
  -12.8986   -1.1020  -15.1215 C   0  0  0  0  0  0  0  0  0  0  0  0
  -12.5170   -2.5329  -15.0647 C   0  0  0  0  0  0  0  0  0  0  0  0
  -12.2874   -3.2455  -16.2448 C   0  0  0  0  0  0  0  0  0  0  0  0
  -12.3900   -2.4003  -17.3589 C   0  0  0  0  0  0  0  0  0  0  0  0
  -12.8665   -1.0775  -17.4410 C   0  0  0  0  0  0  0  0  0  0  0  0
  -12.9471   -0.5374  -18.6610 F   0  0  0  0  0  0  0  0  0  0  0  0
  -11.9448   -4.7074  -16.3547 N   0  0  0  0  0  0  0  0  0  0  0  0
  -10.9859   -4.9407  -16.0994 H   0  0  0  0  0  0  0  0  0  0  0  0
  -12.8933   -5.7739  -16.5762 C   0  0  0  0  0  0  0  0  0  0  0  0
  -12.5707   -7.1659  -17.4823 S   0  0  0  0  0  0  0  0  0  0  0  0
  -14.1795   -5.6602  -15.9723 N   0  0  0  0  0  0  0  0  0  0  0  0
  -14.3695   -5.8530  -14.5735 C   0  0  0  0  0  0  0  0  0  0  0  0
  -13.4673   -6.1266  -13.7773 O   0  0  0  0  0  0  0  0  0  0  0  0
  -14.9947   -5.4586  -16.5379 H   0  0  0  0  0  0  0  0  0  0  0  0
  -15.7320   -5.7278  -13.9300 C   0  0  0  0  0  0  0  0  0  0  0  0
  -15.7787   -4.4887  -13.0117 C   0  0  0  0  0  0  0  0  0  0  0  0
  -15.5869   -3.1914  -13.5118 C   0  0  0  0  0  0  0  0  0  0  0  0
  -15.6983   -2.0779  -12.6680 C   0  0  0  0  0  0  0  0  0  0  0  0
  -15.8680   -2.2549  -11.2965 C   0  0  0  0  0  0  0  0  0  0  0  0
  -16.0438   -3.5364  -10.7864 C   0  0  0  0  0  0  0  0  0  0  0  0
  -16.1360   -4.6226  -11.6579 C   0  0  0  0  0  0  0  0  0  0  0  0
  -14.5177    0.3328  -16.4536 O   0  0  0  0  0  0  0  0  0  0  0  0
  -18.3792    2.4157  -14.8843 C   0  0  0  0  0  0  0  0  0  0  0  0
  -17.8541    3.5064  -15.4986 C   0  0  0  0  0  0  0  0  0  0  0  0
  -16.5863    3.1556  -15.9207 C   0  0  0  0  0  0  0  0  0  0  0  0
  -16.0197    3.7619  -16.9656 N   0  0  0  0  0  0  0  0  0  0  0  0
  -14.7946    4.1739  -16.7538 C   0  0  0  0  0  0  0  0  0  0  0  0
  -14.1795    2.9668  -16.5846 C   0  0  0  0  0  0  0  0  0  0  0  0
  -14.7858    1.6708  -15.9780 C   0  0  0  0  0  0  0  0  0  0  0  0
  -16.0580    1.9495  -15.4741 C   0  0  0  0  0  0  0  0  0  0  0  0
  -17.3176    1.0970  -14.6903 S   0  0  0  0  0  0  0  0  0  0  0  0
  -21.7863    1.7038  -14.2388 N   0  0  0  0  0  0  0  0  0  0  0  0
  -21.7511    3.0690  -14.2509 C   0  0  0  0  0  0  0  0  0  0  0  0
  -20.5295    3.5219  -14.3726 N   0  0  0  0  0  0  0  0  0  0  0  0
  -19.7923    2.4043  -14.5670 C   0  0  0  0  0  0  0  0  0  0  0  0
  -20.5293    1.2503  -14.4592 C   0  0  0  0  0  0  0  0  0  0  0  0
  -22.5226   -0.0937  -12.8232 C   0  0  0  0  0  0  0  0  0  0  0  0
  -22.9351    0.9039  -13.8884 C   0  0  0  0  0  0  0  0  0  0  0  0
 38 39  1  0  0  0
 39 33  1  0  0  0
 33 34  1  0  0  0
 33 37  1  0  0  0
 34 35  2  0  0  0
 35 36  1  0  0  0
 36 24  1  0  0  0
 36 37  2  0  0  0
 24 25  2  0  0  0
 24 32  1  0  0  0
 25 26  1  0  0  0
 26 27  1  0  0  0
 26 31  2  0  0  0
 27 28  2  0  0  0
 28 29  1  0  0  0
 29 30  2  0  0  0
 30 23  1  0  0  0
 30 31  1  0  0  0
 23  1  1  0  0  0
  1  2  1  0  0  0
  1  6  2  0  0  0
  2  3  2  0  0  0
  3  4  1  0  0  0
  4  8  1  0  0  0
  4  5  2  0  0  0
  8 10  1  0  0  0
  8  9  1  0  0  0
 10 11  2  0  0  0
 10 12  1  0  0  0
 12 13  1  0  0  0
 12 15  1  0  0  0
 13 14  2  0  0  0
 13 16  1  0  0  0
 16 17  1  0  0  0
 17 18  1  0  0  0
 17 22  2  0  0  0
 18 19  2  0  0  0
 19 20  1  0  0  0
 20 21  2  0  0  0
 21 22  1  0  0  0
  5  6  1  0  0  0
  6  7  1  0  0  0
 31 32  1  0  0  0
M  END
> <minimizedAffinity>
-8.29964

$$$$
