CHEMBL347999


 30 35  0  0  0  0  0  0  0  0999 V2000
  -14.2449   -1.2347  -13.9143 O   0  0  0  0  0  0  0  0  0  0  0  0
  -14.0067   -2.1521  -14.6930 C   0  0  0  0  0  0  0  0  0  0  0  0
  -13.5127   -1.9277  -15.9674 N   0  0  0  0  0  0  0  0  0  0  0  0
  -13.2478   -3.1066  -16.7677 C   0  0  0  0  0  0  0  0  0  0  0  0
  -13.5924   -4.1374  -15.7903 C   0  0  0  0  0  0  0  0  0  0  0  0
  -14.0700   -3.5841  -14.5890 C   0  0  0  0  0  0  0  0  0  0  0  0
  -14.3442   -4.3705  -13.4913 C   0  0  0  0  0  0  0  0  0  0  0  0
  -13.7918   -5.6607  -13.4435 C   0  0  0  0  0  0  0  0  0  0  0  0
  -13.5673   -6.2805  -14.6509 C   0  0  0  0  0  0  0  0  0  0  0  0
  -13.4698   -5.5482  -15.8057 C   0  0  0  0  0  0  0  0  0  0  0  0
  -13.2242   -6.2669  -16.9571 C   0  0  0  0  0  0  0  0  0  0  0  0
  -13.0244   -5.9917  -18.3280 C   0  0  0  0  0  0  0  0  0  0  0  0
  -12.8790   -7.0412  -19.2432 C   0  0  0  0  0  0  0  0  0  0  0  0
  -12.9323   -8.3467  -18.7924 C   0  0  0  0  0  0  0  0  0  0  0  0
  -13.1171   -8.6548  -17.4325 C   0  0  0  0  0  0  0  0  0  0  0  0
  -13.2614   -7.5981  -16.5067 C   0  0  0  0  0  0  0  0  0  0  0  0
  -13.4888   -7.5914  -15.1029 N   0  0  0  0  0  0  0  0  0  0  0  0
  -13.3522   -5.9349  -12.0188 C   0  0  0  0  0  0  0  0  0  0  0  0
  -14.0155   -4.7818  -11.2595 C   0  0  0  0  0  0  0  0  0  0  0  0
  -14.0426   -4.4598   -9.9138 C   0  0  0  0  0  0  0  0  0  0  0  0
  -14.8789   -3.4074   -9.5000 C   0  0  0  0  0  0  0  0  0  0  0  0
  -15.6864   -2.7123  -10.4139 C   0  0  0  0  0  0  0  0  0  0  0  0
  -15.5817   -2.9832  -11.7718 C   0  0  0  0  0  0  0  0  0  0  0  0
  -14.6873   -3.9610  -12.1753 C   0  0  0  0  0  0  0  0  0  0  0  0
  -13.2525   -0.9881  -16.2310 H   0  0  0  0  0  0  0  0  0  0  0  0
  -13.7910   -8.7989  -14.3433 C   0  0  0  0  0  0  0  0  0  0  0  0
  -12.6122   -9.4925  -13.6475 C   0  0  0  0  0  0  0  0  0  0  0  0
  -12.6433   -9.4551  -12.1254 C   0  0  0  0  0  0  0  0  0  0  0  0
  -13.9843   -9.4373  -11.6584 O   0  0  0  0  0  0  0  0  0  0  0  0
  -14.2556   -8.5050  -11.5922 H   0  0  0  0  0  0  0  0  0  0  0  0
  1  2  2  0  0  0
  2  3  1  0  0  0
  2  6  1  0  0  0
  3  4  1  0  0  0
  3 25  1  0  0  0
  4  5  1  0  0  0
  5  6  1  0  0  0
  5 10  2  0  0  0
  6  7  2  0  0  0
  7  8  1  0  0  0
  7 24  1  0  0  0
  8  9  2  0  0  0
  8 18  1  0  0  0
  9 10  1  0  0  0
  9 17  1  0  0  0
 10 11  1  0  0  0
 11 12  1  0  0  0
 11 16  2  0  0  0
 12 13  2  0  0  0
 13 14  1  0  0  0
 14 15  2  0  0  0
 15 16  1  0  0  0
 16 17  1  0  0  0
 17 26  1  0  0  0
 26 27  1  0  0  0
 27 28  1  0  0  0
 28 29  1  0  0  0
 29 30  1  0  0  0
 18 19  1  0  0  0
 19 20  1  0  0  0
 19 24  2  0  0  0
 20 21  2  0  0  0
 21 22  1  0  0  0
 22 23  2  0  0  0
 23 24  1  0  0  0
M  END
> <minimizedAffinity>
-6.91130

$$$$
