CHEMBL477563


 33 36  0  0  0  0  0  0  0  0999 V2000
  -28.5019   -2.4952   -6.2182 C   0  0  0  0  0  0  0  0  0  0  0  0
  -28.4399   -1.1252   -6.0768 C   0  0  0  0  0  0  0  0  0  0  0  0
  -27.9447   -0.4115   -7.1462 C   0  0  0  0  0  0  0  0  0  0  0  0
  -27.5586   -0.9666   -8.3082 N   0  0  0  0  0  0  0  0  0  0  0  0
  -27.6548   -2.2981   -8.3836 C   0  0  0  0  0  0  0  0  0  0  0  0
  -28.1054   -3.0519   -7.3737 N   0  0  0  0  0  0  0  0  0  0  0  0
  -28.9246   -3.3542   -5.1758 N   0  0  0  0  0  0  0  0  0  0  0  0
  -29.4453   -2.7007   -3.9761 C   0  0  0  0  0  0  0  0  0  0  0  0
  -27.4470  -10.5658   -4.8304 C   0  0  0  0  0  0  0  0  0  0  0  0
  -27.9753   -9.1876   -5.0037 C   0  0  0  0  0  0  0  0  0  0  0  0
  -27.4069   -8.0825   -4.5647 N   0  0  0  0  0  0  0  0  0  0  0  0
  -28.2274   -7.0493   -4.9626 C   0  0  0  0  0  0  0  0  0  0  0  0
  -28.0813   -5.6627   -4.7717 C   0  0  0  0  0  0  0  0  0  0  0  0
  -29.0392   -4.7652   -5.2840 C   0  0  0  0  0  0  0  0  0  0  0  0
  -30.1497   -5.3205   -5.9515 C   0  0  0  0  0  0  0  0  0  0  0  0
  -30.3238   -6.6987   -6.1528 C   0  0  0  0  0  0  0  0  0  0  0  0
  -29.3315   -7.5396   -5.6514 C   0  0  0  0  0  0  0  0  0  0  0  0
  -29.1479   -8.9022   -5.6698 N   0  0  0  0  0  0  0  0  0  0  0  0
  -30.0144   -9.8767   -6.2885 C   0  0  0  0  0  0  0  0  0  0  0  0
  -27.1890   -2.8990   -9.5619 N   0  0  0  0  0  0  0  0  0  0  0  0
  -27.5672   -3.8339   -9.6140 H   0  0  0  0  0  0  0  0  0  0  0  0
  -26.8802   -2.2591  -10.7765 C   0  0  0  0  0  0  0  0  0  0  0  0
  -27.7504   -2.2775  -11.8783 C   0  0  0  0  0  0  0  0  0  0  0  0
  -27.3691   -1.7951  -13.1304 C   0  0  0  0  0  0  0  0  0  0  0  0
  -26.1104   -1.2380  -13.2970 C   0  0  0  0  0  0  0  0  0  0  0  0
  -25.2600   -1.1392  -12.1933 C   0  0  0  0  0  0  0  0  0  0  0  0
  -25.6371   -1.6364  -10.9371 C   0  0  0  0  0  0  0  0  0  0  0  0
  -23.6351   -0.4705  -12.4241 S   0  0  0  0  0  0  0  0  0  0  0  0
  -23.4443   -0.6490  -14.0683 N   0  0  0  0  0  0  0  0  0  0  0  0
  -23.6815    0.9471  -12.1581 O   0  0  0  0  0  0  0  0  0  0  0  0
  -22.6900   -1.3563  -11.7849 O   0  0  0  0  0  0  0  0  0  0  0  0
  -23.8315    0.0950  -14.6405 H   0  0  0  0  0  0  0  0  0  0  0  0
  -23.3859   -1.5990  -14.4218 H   0  0  0  0  0  0  0  0  0  0  0  0
  9 10  1  0  0  0
 10 11  2  0  0  0
 10 18  1  0  0  0
 11 12  1  0  0  0
 12 13  1  0  0  0
 12 17  2  0  0  0
 13 14  2  0  0  0
 14  7  1  0  0  0
 14 15  1  0  0  0
  7  8  1  0  0  0
  7  1  1  0  0  0
  1  2  1  0  0  0
  1  6  2  0  0  0
  2  3  2  0  0  0
  3  4  1  0  0  0
  4  5  2  0  0  0
  5 20  1  0  0  0
  5  6  1  0  0  0
 20 22  1  0  0  0
 20 21  1  0  0  0
 22 23  1  0  0  0
 22 27  2  0  0  0
 23 24  2  0  0  0
 24 25  1  0  0  0
 25 26  2  0  0  0
 26 28  1  0  0  0
 26 27  1  0  0  0
 28 29  1  0  0  0
 28 30  2  0  0  0
 28 31  2  0  0  0
 29 32  1  0  0  0
 29 33  1  0  0  0
 15 16  2  0  0  0
 16 17  1  0  0  0
 17 18  1  0  0  0
 18 19  1  0  0  0
M  END
> <minimizedAffinity>
-8.93249

$$$$
