CHEMBL191189


 33 36  0  0  0  0  0  0  0  0999 V2000
  -14.5026    1.1927  -14.8115 C   0  0  0  0  0  0  0  0  0  0  0  0
  -15.0235    0.7067  -13.6157 C   0  0  0  0  0  0  0  0  0  0  0  0
  -14.8204   -0.5989  -13.2515 C   0  0  0  0  0  0  0  0  0  0  0  0
  -15.3612   -1.0944  -12.1391 N   0  0  0  0  0  0  0  0  0  0  0  0
  -15.1965   -2.3936  -11.8873 C   0  0  0  0  0  0  0  0  0  0  0  0
  -15.8880   -2.7509  -10.7181 N   0  0  0  0  0  0  0  0  0  0  0  0
  -14.4577   -3.2884  -12.6381 C   0  0  0  0  0  0  0  0  0  0  0  0
  -13.8529   -2.7292  -13.7621 C   0  0  0  0  0  0  0  0  0  0  0  0
  -14.0485   -1.3969  -14.0982 C   0  0  0  0  0  0  0  0  0  0  0  0
  -13.5059   -0.8321  -15.2418 C   0  0  0  0  0  0  0  0  0  0  0  0
  -13.7349    0.4335  -15.6124 N   0  0  0  0  0  0  0  0  0  0  0  0
  -16.3332   -2.0359  -10.2442 H   0  0  0  0  0  0  0  0  0  0  0  0
  -16.2871   -3.6795  -10.7101 H   0  0  0  0  0  0  0  0  0  0  0  0
  -14.2833   -4.7394  -12.3589 C   0  0  0  0  0  0  0  0  0  0  0  0
  -15.2858   -5.6962  -12.7158 C   0  0  0  0  0  0  0  0  0  0  0  0
  -16.8529   -5.3145  -13.3947 Cl  0  0  0  0  0  0  0  0  0  0  0  0
  -15.0803   -7.0674  -12.5435 C   0  0  0  0  0  0  0  0  0  0  0  0
  -13.8885   -7.5383  -12.0146 C   0  0  0  0  0  0  0  0  0  0  0  0
  -12.9110   -6.6450  -11.6389 C   0  0  0  0  0  0  0  0  0  0  0  0
  -13.0973   -5.2776  -11.7829 C   0  0  0  0  0  0  0  0  0  0  0  0
  -11.6720   -4.4308  -11.2681 Cl  0  0  0  0  0  0  0  0  0  0  0  0
  -14.7871    2.4821  -15.2281 N   0  0  0  0  0  0  0  0  0  0  0  0
  -14.9717    3.1762  -14.5183 H   0  0  0  0  0  0  0  0  0  0  0  0
  -15.4380    2.6053  -16.5269 C   0  0  0  0  0  0  0  0  0  0  0  0
  -16.5328    3.6653  -16.4562 C   0  0  0  0  0  0  0  0  0  0  0  0
  -17.8975    3.0491  -16.1157 C   0  0  0  0  0  0  0  0  0  0  0  0
  -22.1382    1.3170  -14.4451 C   0  0  0  0  0  0  0  0  0  0  0  0
  -20.7376    1.5756  -14.1372 N   0  0  0  0  0  0  0  0  0  0  0  0
  -19.8416    0.8285  -15.0346 C   0  0  0  0  0  0  0  0  0  0  0  0
  -18.3649    1.0962  -14.6705 C   0  0  0  0  0  0  0  0  0  0  0  0
  -17.9658    2.5188  -14.7446 N   0  0  0  0  0  0  0  0  0  0  0  0
  -18.9192    3.2995  -13.9189 C   0  0  0  0  0  0  0  0  0  0  0  0
  -20.4203    3.0147  -14.1958 C   0  0  0  0  0  0  0  0  0  0  0  0
 27 28  1  0  0  0
 28 29  1  0  0  0
 28 33  1  0  0  0
 29 30  1  0  0  0
 30 31  1  0  0  0
 31 26  1  0  0  0
 31 32  1  0  0  0
 26 25  1  0  0  0
 25 24  1  0  0  0
 24 22  1  0  0  0
 22  1  1  0  0  0
 22 23  1  0  0  0
  1  2  1  0  0  0
  1 11  2  0  0  0
  2  3  2  0  0  0
  3  4  1  0  0  0
  3  9  1  0  0  0
  4  5  2  0  0  0
  5  6  1  0  0  0
  5  7  1  0  0  0
  6 12  1  0  0  0
  6 13  1  0  0  0
  7 14  1  0  0  0
  7  8  2  0  0  0
 14 15  1  0  0  0
 14 20  2  0  0  0
 15 16  1  0  0  0
 15 17  2  0  0  0
 17 18  1  0  0  0
 18 19  2  0  0  0
 19 20  1  0  0  0
 20 21  1  0  0  0
  8  9  1  0  0  0
  9 10  2  0  0  0
 10 11  1  0  0  0
 32 33  1  0  0  0
M  END
> <minimizedAffinity>
-7.28482

$$$$
