CHEMBL347537


 35 39  0  0  0  0  0  0  0  0999 V2000
  -15.0526    0.1183  -12.5262 O   0  0  0  0  0  0  0  0  0  0  0  0
  -14.9971   -0.2975  -13.6838 C   0  0  0  0  0  0  0  0  0  0  0  0
  -14.9126   -1.6384  -14.0494 N   0  0  0  0  0  0  0  0  0  0  0  0
  -14.6654   -1.8214  -15.0190 H   0  0  0  0  0  0  0  0  0  0  0  0
  -14.9424   -2.7110  -13.1130 C   0  0  0  0  0  0  0  0  0  0  0  0
  -16.1152   -2.9997  -12.4048 C   0  0  0  0  0  0  0  0  0  0  0  0
  -16.1275   -3.9218  -11.3771 C   0  0  0  0  0  0  0  0  0  0  0  0
  -14.9838   -4.6553  -11.1185 C   0  0  0  0  0  0  0  0  0  0  0  0
  -13.7967   -4.5116  -11.8790 C   0  0  0  0  0  0  0  0  0  0  0  0
  -13.7915   -3.4928  -12.8632 C   0  0  0  0  0  0  0  0  0  0  0  0
  -12.6906   -5.4770  -11.5741 C   0  0  0  0  0  0  0  0  0  0  0  0
  -11.6414   -5.0181  -10.7513 C   0  0  0  0  0  0  0  0  0  0  0  0
  -10.7501   -5.7801  -10.0824 N   0  0  0  0  0  0  0  0  0  0  0  0
  -10.8360   -7.1000  -10.2996 C   0  0  0  0  0  0  0  0  0  0  0  0
  -11.6984   -7.6873  -11.2196 C   0  0  0  0  0  0  0  0  0  0  0  0
  -11.5904   -9.0631  -11.4774 C   0  0  0  0  0  0  0  0  0  0  0  0
  -12.4132   -9.6735  -12.4131 C   0  0  0  0  0  0  0  0  0  0  0  0
  -13.3942   -8.9241  -13.0470 C   0  0  0  0  0  0  0  0  0  0  0  0
  -13.5401   -7.5588  -12.7579 C   0  0  0  0  0  0  0  0  0  0  0  0
  -12.6674   -6.8762  -11.8743 C   0  0  0  0  0  0  0  0  0  0  0  0
  -14.9775    0.7528  -14.7408 C   0  0  0  0  0  0  0  0  0  0  0  0
  -13.7531    0.8445  -15.4440 C   0  0  0  0  0  0  0  0  0  0  0  0
  -13.6070    1.6692  -16.5489 C   0  0  0  0  0  0  0  0  0  0  0  0
  -14.6992    2.3948  -16.9922 C   0  0  0  0  0  0  0  0  0  0  0  0
  -15.9055    2.3344  -16.2885 C   0  0  0  0  0  0  0  0  0  0  0  0
  -16.0662    1.5638  -15.1132 C   0  0  0  0  0  0  0  0  0  0  0  0
  -17.3183    1.4890  -14.4380 N   0  0  0  0  0  0  0  0  0  0  0  0
  -17.7935    0.6403  -14.7590 H   0  0  0  0  0  0  0  0  0  0  0  0
  -18.1978    2.6499  -14.6533 C   0  0  0  0  0  0  0  0  0  0  0  0
  -19.6485    2.2767  -14.5543 C   0  0  0  0  0  0  0  0  0  0  0  0
  -20.0711    0.9523  -14.6884 C   0  0  0  0  0  0  0  0  0  0  0  0
  -21.4230    0.6648  -14.4999 C   0  0  0  0  0  0  0  0  0  0  0  0
  -22.3491    1.5903  -14.1824 N   0  0  0  0  0  0  0  0  0  0  0  0
  -21.9208    2.8609  -14.0567 C   0  0  0  0  0  0  0  0  0  0  0  0
  -20.6050    3.2464  -14.2306 C   0  0  0  0  0  0  0  0  0  0  0  0
  1  2  2  0  0  0
  2  3  1  0  0  0
  2 21  1  0  0  0
  3  5  1  0  0  0
  3  4  1  0  0  0
  5  6  1  0  0  0
  5 10  2  0  0  0
  6  7  2  0  0  0
  7  8  1  0  0  0
  8  9  2  0  0  0
  9 11  1  0  0  0
  9 10  1  0  0  0
 11 12  1  0  0  0
 11 20  2  0  0  0
 12 13  2  0  0  0
 13 14  1  0  0  0
 14 15  2  0  0  0
 15 16  1  0  0  0
 15 20  1  0  0  0
 16 17  2  0  0  0
 17 18  1  0  0  0
 18 19  2  0  0  0
 19 20  1  0  0  0
 21 22  1  0  0  0
 21 26  2  0  0  0
 22 23  2  0  0  0
 23 24  1  0  0  0
 24 25  2  0  0  0
 25 26  1  0  0  0
 26 27  1  0  0  0
 27 29  1  0  0  0
 27 28  1  0  0  0
 29 30  1  0  0  0
 30 31  1  0  0  0
 30 35  2  0  0  0
 31 32  2  0  0  0
 32 33  1  0  0  0
 33 34  2  0  0  0
 34 35  1  0  0  0
M  END
> <minimizedAffinity>
-9.29251

$$$$
