CHEMBL319065


 20 22  0  0  0  0  0  0  0  0999 V2000
  -29.3086   -4.3844   -5.5493 C   0  0  0  0  0  0  0  0  0  0  0  0
  -28.8007   -4.4093   -6.7623 N   0  0  0  0  0  0  0  0  0  0  0  0
  -29.2376   -5.4968   -7.4678 C   0  0  0  0  0  0  0  0  0  0  0  0
  -30.0683   -6.3592   -6.7858 C   0  0  0  0  0  0  0  0  0  0  0  0
  -30.2785   -5.7663   -5.1838 S   0  0  0  0  0  0  0  0  0  0  0  0
  -30.6844   -7.5935   -7.2776 C   0  0  0  0  0  0  0  0  0  0  0  0
  -29.9416   -8.4510   -8.1081 C   0  0  0  0  0  0  0  0  0  0  0  0
  -30.5099   -9.6098   -8.6382 C   0  0  0  0  0  0  0  0  0  0  0  0
  -31.8311   -9.9290   -8.3443 C   0  0  0  0  0  0  0  0  0  0  0  0
  -32.5836   -9.0897   -7.5248 C   0  0  0  0  0  0  0  0  0  0  0  0
  -32.0154   -7.9267   -6.9963 C   0  0  0  0  0  0  0  0  0  0  0  0
  -29.1433   -3.3893   -4.6492 N   0  0  0  0  0  0  0  0  0  0  0  0
  -29.6436   -3.4285   -3.7716 H   0  0  0  0  0  0  0  0  0  0  0  0
  -30.6137    1.1961   -5.7429 C   0  0  0  0  0  0  0  0  0  0  0  0
  -29.5073    0.2213   -5.4853 C   0  0  0  0  0  0  0  0  0  0  0  0
  -28.1791    0.5964   -5.3654 C   0  0  0  0  0  0  0  0  0  0  0  0
  -27.2471   -0.3905   -5.0801 C   0  0  0  0  0  0  0  0  0  0  0  0
  -27.5503   -1.6957   -4.8750 N   0  0  0  0  0  0  0  0  0  0  0  0
  -28.8488   -2.0569   -4.9646 C   0  0  0  0  0  0  0  0  0  0  0  0
  -29.8252   -1.1264   -5.3171 C   0  0  0  0  0  0  0  0  0  0  0  0
 14 15  1  0  0  0
 15 16  1  0  0  0
 15 20  2  0  0  0
 16 17  2  0  0  0
 17 18  1  0  0  0
 18 19  2  0  0  0
 19 12  1  0  0  0
 19 20  1  0  0  0
 12  1  1  0  0  0
 12 13  1  0  0  0
  1  2  2  0  0  0
  1  5  1  0  0  0
  2  3  1  0  0  0
  3  4  2  0  0  0
  4  6  1  0  0  0
  4  5  1  0  0  0
  6  7  1  0  0  0
  6 11  2  0  0  0
  7  8  2  0  0  0
  8  9  1  0  0  0
  9 10  2  0  0  0
 10 11  1  0  0  0
M  END
> <minimizedAffinity>
-7.72997

$$$$
