CHEMBL198022


 15 16  0  0  0  0  0  0  0  0999 V2000
  -31.0254    1.5288   -5.8358 C   0  0  0  0  0  0  0  0  0  0  0  0
  -29.7034    0.8748   -5.9215 C   0  0  0  0  0  0  0  0  0  0  0  0
  -28.6962    1.4629   -6.6169 N   0  0  0  0  0  0  0  0  0  0  0  0
  -27.6495    0.6029   -6.4883 N   0  0  0  0  0  0  0  0  0  0  0  0
  -27.9778   -0.4715   -5.7489 C   0  0  0  0  0  0  0  0  0  0  0  0
  -27.2422   -1.8458   -5.2105 S   0  0  0  0  0  0  0  0  0  0  0  0
  -28.7374   -2.3189   -4.4082 C   0  0  0  0  0  0  0  0  0  0  0  0
  -29.7515   -1.3667   -4.6023 C   0  0  0  0  0  0  0  0  0  0  0  0
  -29.2501   -0.3270   -5.3831 C   0  0  0  0  0  0  0  0  0  0  0  0
  -26.7651    0.8309   -6.9329 H   0  0  0  0  0  0  0  0  0  0  0  0
  -28.7974   -3.5656   -3.6619 C   0  0  0  0  0  0  0  0  0  0  0  0
  -29.9562   -3.8055   -2.9732 N   0  0  0  0  0  0  0  0  0  0  0  0
  -27.8888   -4.3917   -3.6168 O   0  0  0  0  0  0  0  0  0  0  0  0
  -30.7243   -3.1476   -2.9886 H   0  0  0  0  0  0  0  0  0  0  0  0
  -30.0386   -4.6595   -2.4431 H   0  0  0  0  0  0  0  0  0  0  0  0
  1  2  1  0  0  0
  2  3  2  0  0  0
  2  9  1  0  0  0
  3  4  1  0  0  0
  4  5  1  0  0  0
  4 10  1  0  0  0
  5  6  1  0  0  0
  5  9  2  0  0  0
  6  7  1  0  0  0
  7 11  1  0  0  0
  7  8  2  0  0  0
 11 12  1  0  0  0
 11 13  2  0  0  0
 12 14  1  0  0  0
 12 15  1  0  0  0
  8  9  1  0  0  0
M  END
> <minimizedAffinity>
-5.81598

$$$$
