CHEMBL231254


 28 31  0  0  0  0  0  0  0  0999 V2000
  -18.9643    1.9167  -15.0858 C   0  0  0  0  0  0  0  0  0  0  0  0
  -19.2612    0.6087  -15.4855 C   0  0  0  0  0  0  0  0  0  0  0  0
  -20.5063    0.0379  -15.2227 C   0  0  0  0  0  0  0  0  0  0  0  0
  -21.4752    0.7331  -14.5057 C   0  0  0  0  0  0  0  0  0  0  0  0
  -21.1915    2.0422  -14.1002 C   0  0  0  0  0  0  0  0  0  0  0  0
  -19.9659    2.6402  -14.4313 C   0  0  0  0  0  0  0  0  0  0  0  0
  -16.6632   -0.4194  -14.3063 N   0  0  0  0  0  0  0  0  0  0  0  0
  -15.8512    0.6287  -14.7253 C   0  0  0  0  0  0  0  0  0  0  0  0
  -14.5300    0.3495  -14.6681 N   0  0  0  0  0  0  0  0  0  0  0  0
  -13.6309    1.2514  -15.0886 C   0  0  0  0  0  0  0  0  0  0  0  0
  -13.9544    2.4838  -15.5958 C   0  0  0  0  0  0  0  0  0  0  0  0
  -15.3201    2.7893  -15.6428 C   0  0  0  0  0  0  0  0  0  0  0  0
  -15.9782    4.2604  -16.2316 S   0  0  0  0  0  0  0  0  0  0  0  0
  -17.5597    3.7578  -15.9005 C   0  0  0  0  0  0  0  0  0  0  0  0
  -17.6369    2.4813  -15.3683 C   0  0  0  0  0  0  0  0  0  0  0  0
  -16.3061    1.8896  -15.2056 C   0  0  0  0  0  0  0  0  0  0  0  0
  -16.0956   -1.2562  -14.2240 H   0  0  0  0  0  0  0  0  0  0  0  0
  -17.4991   -0.5228  -14.8670 H   0  0  0  0  0  0  0  0  0  0  0  0
  -22.7284    0.1833  -14.1634 N   0  0  0  0  0  0  0  0  0  0  0  0
  -23.0797   -0.3301  -12.9246 C   0  0  0  0  0  0  0  0  0  0  0  0
  -22.3571   -0.3943  -11.9306 O   0  0  0  0  0  0  0  0  0  0  0  0
  -23.4361    0.2115  -14.8846 H   0  0  0  0  0  0  0  0  0  0  0  0
  -24.4668   -0.8334  -12.7768 C   0  0  0  0  0  0  0  0  0  0  0  0
  -25.1847   -0.7503  -11.5782 C   0  0  0  0  0  0  0  0  0  0  0  0
  -26.5044   -1.2053  -11.5318 C   0  0  0  0  0  0  0  0  0  0  0  0
  -27.1103   -1.7333  -12.6739 C   0  0  0  0  0  0  0  0  0  0  0  0
  -26.4020   -1.8078  -13.8711 C   0  0  0  0  0  0  0  0  0  0  0  0
  -25.0856   -1.3590  -13.9208 C   0  0  0  0  0  0  0  0  0  0  0  0
  7  8  1  0  0  0
  7 17  1  0  0  0
  7 18  1  0  0  0
  8  9  1  0  0  0
  8 16  2  0  0  0
  9 10  2  0  0  0
 10 11  1  0  0  0
 11 12  2  0  0  0
 12 13  1  0  0  0
 12 16  1  0  0  0
 13 14  1  0  0  0
 14 15  2  0  0  0
 15  1  1  0  0  0
 15 16  1  0  0  0
  1  2  1  0  0  0
  1  6  2  0  0  0
  2  3  2  0  0  0
  3  4  1  0  0  0
  4 19  1  0  0  0
  4  5  2  0  0  0
 19 20  1  0  0  0
 19 22  1  0  0  0
 20 21  2  0  0  0
 20 23  1  0  0  0
 23 24  1  0  0  0
 23 28  2  0  0  0
 24 25  2  0  0  0
 25 26  1  0  0  0
 26 27  2  0  0  0
 27 28  1  0  0  0
  5  6  1  0  0  0
M  END
> <minimizedAffinity>
-10.00840

$$$$
