CHEMBL474543


 28 32  0  0  0  0  0  0  0  0999 V2000
  -19.6686    1.8921  -15.0530 C   0  0  0  0  0  0  0  0  0  0  0  0
  -19.8722    0.5120  -15.1837 C   0  0  0  0  0  0  0  0  0  0  0  0
  -21.0448   -0.1050  -14.7188 C   0  0  0  0  0  0  0  0  0  0  0  0
  -22.0571    0.6372  -14.0958 C   0  0  0  0  0  0  0  0  0  0  0  0
  -21.8229    2.0167  -13.9290 C   0  0  0  0  0  0  0  0  0  0  0  0
  -20.6520    2.6352  -14.4000 C   0  0  0  0  0  0  0  0  0  0  0  0
  -23.3224   -0.0276  -13.6795 C   0  0  0  0  0  0  0  0  0  0  0  0
  -24.1852   -0.6158  -14.4907 N   0  0  0  0  0  0  0  0  0  0  0  0
  -25.3074   -1.0557  -13.7883 C   0  0  0  0  0  0  0  0  0  0  0  0
  -26.4436   -1.7056  -14.3200 C   0  0  0  0  0  0  0  0  0  0  0  0
  -27.5147   -2.0511  -13.4788 C   0  0  0  0  0  0  0  0  0  0  0  0
  -27.4616   -1.7659  -12.1182 C   0  0  0  0  0  0  0  0  0  0  0  0
  -26.3409   -1.1448  -11.5650 C   0  0  0  0  0  0  0  0  0  0  0  0
  -25.2795   -0.7998  -12.4191 C   0  0  0  0  0  0  0  0  0  0  0  0
  -23.8023   -0.0330  -12.0208 S   0  0  0  0  0  0  0  0  0  0  0  0
  -18.5373    2.5270  -15.6151 N   0  0  0  0  0  0  0  0  0  0  0  0
  -18.6771    2.8284  -16.5740 H   0  0  0  0  0  0  0  0  0  0  0  0
  -12.6198    5.1264  -17.8755 Cl  0  0  0  0  0  0  0  0  0  0  0  0
  -13.9579    4.3265  -17.1439 C   0  0  0  0  0  0  0  0  0  0  0  0
  -15.2517    4.7137  -17.4579 C   0  0  0  0  0  0  0  0  0  0  0  0
  -16.3300    4.0455  -16.8718 C   0  0  0  0  0  0  0  0  0  0  0  0
  -16.1216    2.9730  -15.9706 C   0  0  0  0  0  0  0  0  0  0  0  0
  -17.1662    2.2347  -15.3487 C   0  0  0  0  0  0  0  0  0  0  0  0
  -16.8206    1.2153  -14.4577 C   0  0  0  0  0  0  0  0  0  0  0  0
  -15.4882    0.9660  -14.2051 C   0  0  0  0  0  0  0  0  0  0  0  0
  -14.4790    1.6401  -14.7845 N   0  0  0  0  0  0  0  0  0  0  0  0
  -14.7875    2.6156  -15.6491 C   0  0  0  0  0  0  0  0  0  0  0  0
  -13.7333    3.2921  -16.2416 C   0  0  0  0  0  0  0  0  0  0  0  0
 18 19  1  0  0  0
 19 20  1  0  0  0
 19 28  2  0  0  0
 20 21  2  0  0  0
 21 22  1  0  0  0
 22 23  1  0  0  0
 22 27  2  0  0  0
 23 16  1  0  0  0
 23 24  2  0  0  0
 16  1  1  0  0  0
 16 17  1  0  0  0
  1  2  1  0  0  0
  1  6  2  0  0  0
  2  3  2  0  0  0
  3  4  1  0  0  0
  4  7  1  0  0  0
  4  5  2  0  0  0
  7  8  2  0  0  0
  7 15  1  0  0  0
  8  9  1  0  0  0
  9 10  1  0  0  0
  9 14  2  0  0  0
 10 11  2  0  0  0
 11 12  1  0  0  0
 12 13  2  0  0  0
 13 14  1  0  0  0
 14 15  1  0  0  0
  5  6  1  0  0  0
 24 25  1  0  0  0
 25 26  2  0  0  0
 26 27  1  0  0  0
 27 28  1  0  0  0
M  END
> <minimizedAffinity>
-9.90262

$$$$
