CHEMBL2036343


 21 23  0  0  0  0  0  0  0  0999 V2000
  -31.4520   -4.8576   -3.3272 O   0  0  0  0  0  0  0  0  0  0  0  0
  -30.6742   -4.9538   -4.2670 C   0  0  0  0  0  0  0  0  0  0  0  0
  -30.1784   -3.7627   -5.0258 C   0  0  0  0  0  0  0  0  0  0  0  0
  -29.9464   -2.6664   -4.2796 C   0  0  0  0  0  0  0  0  0  0  0  0
  -29.9761   -3.8835   -6.5021 C   0  0  0  0  0  0  0  0  0  0  0  0
  -28.8952   -5.2810   -6.8929 S   0  0  0  0  0  0  0  0  0  0  0  0
  -29.9165   -6.5519   -6.1087 C   0  0  0  0  0  0  0  0  0  0  0  0
  -30.0524   -6.2518   -4.6519 C   0  0  0  0  0  0  0  0  0  0  0  0
  -29.6075   -7.0117   -3.6333 C   0  0  0  0  0  0  0  0  0  0  0  0
  -29.3812   -1.4201   -4.7872 C   0  0  0  0  0  0  0  0  0  0  0  0
  -30.2120   -0.4026   -5.2449 C   0  0  0  0  0  0  0  0  0  0  0  0
  -29.6280    0.7458   -5.7725 C   0  0  0  0  0  0  0  0  0  0  0  0
  -28.2425    0.8415   -5.8194 C   0  0  0  0  0  0  0  0  0  0  0  0
  -27.4959   -0.2150   -5.3228 C   0  0  0  0  0  0  0  0  0  0  0  0
  -28.0341   -1.3418   -4.8042 N   0  0  0  0  0  0  0  0  0  0  0  0
  -28.7636   -8.1827   -3.8529 C   0  0  0  0  0  0  0  0  0  0  0  0
  -27.5272   -8.0213   -4.4729 C   0  0  0  0  0  0  0  0  0  0  0  0
  -26.7901   -9.1545   -4.7914 C   0  0  0  0  0  0  0  0  0  0  0  0
  -27.3027  -10.4062   -4.4749 C   0  0  0  0  0  0  0  0  0  0  0  0
  -28.5392  -10.4693   -3.8488 C   0  0  0  0  0  0  0  0  0  0  0  0
  -29.2870   -9.3858   -3.5393 N   0  0  0  0  0  0  0  0  0  0  0  0
  1  2  2  0  0  0
  2  3  1  0  0  0
  2  8  1  0  0  0
  3  4  2  0  0  0
  3  5  1  0  0  0
  4 10  1  0  0  0
 10 11  1  0  0  0
 10 15  2  0  0  0
 11 12  2  0  0  0
 12 13  1  0  0  0
 13 14  2  0  0  0
 14 15  1  0  0  0
  5  6  1  0  0  0
  6  7  1  0  0  0
  7  8  1  0  0  0
  8  9  2  0  0  0
  9 16  1  0  0  0
 16 17  1  0  0  0
 16 21  2  0  0  0
 17 18  2  0  0  0
 18 19  1  0  0  0
 19 20  2  0  0  0
 20 21  1  0  0  0
M  END
> <minimizedAffinity>
-7.73402

$$$$
