CHEMBL3924346


 40 43  0  0  0  0  0  0  0  0999 V2000
  -26.7555   -1.8334  -11.2149 C   0  0  0  0  0  0  0  0  0  0  0  0
  -27.8626   -2.4173  -11.7338 N   0  0  0  0  0  0  0  0  0  0  0  0
  -28.0277   -2.4242  -13.0729 C   0  0  0  0  0  0  0  0  0  0  0  0
  -27.2093   -1.9276  -14.0159 N   0  0  0  0  0  0  0  0  0  0  0  0
  -26.1203   -1.3743  -13.4643 C   0  0  0  0  0  0  0  0  0  0  0  0
  -25.1148   -0.7674  -14.1665 N   0  0  0  0  0  0  0  0  0  0  0  0
  -24.1591   -0.2671  -13.3071 C   0  0  0  0  0  0  0  0  0  0  0  0
  -24.5860   -0.5967  -12.0254 C   0  0  0  0  0  0  0  0  0  0  0  0
  -25.8211   -1.2919  -12.1159 C   0  0  0  0  0  0  0  0  0  0  0  0
  -25.1241   -0.6638  -15.1694 H   0  0  0  0  0  0  0  0  0  0  0  0
  -22.9926    0.5075  -13.7381 C   0  0  0  0  0  0  0  0  0  0  0  0
  -21.8976   -0.1666  -14.2845 C   0  0  0  0  0  0  0  0  0  0  0  0
  -20.7676    0.5255  -14.7257 C   0  0  0  0  0  0  0  0  0  0  0  0
  -20.6964    1.9138  -14.6343 C   0  0  0  0  0  0  0  0  0  0  0  0
  -21.7843    2.5986  -14.0780 C   0  0  0  0  0  0  0  0  0  0  0  0
  -22.9244    1.9018  -13.6345 C   0  0  0  0  0  0  0  0  0  0  0  0
  -19.5754    2.6594  -15.0664 N   0  0  0  0  0  0  0  0  0  0  0  0
  -18.2946    2.1705  -15.2625 C   0  0  0  0  0  0  0  0  0  0  0  0
  -17.9228    1.0095  -15.1163 O   0  0  0  0  0  0  0  0  0  0  0  0
  -19.7435    3.6314  -15.2958 H   0  0  0  0  0  0  0  0  0  0  0  0
  -17.2786    3.2351  -15.6251 C   0  0  0  0  0  0  0  0  0  0  0  0
  -16.0665    2.6445  -16.3449 C   0  0  0  0  0  0  0  0  0  0  0  0
  -14.7820    2.7155  -15.5084 C   0  0  0  0  0  0  0  0  0  0  0  0
  -14.2704    1.3264  -15.1374 C   0  0  0  0  0  0  0  0  0  0  0  0
  -14.4769    1.0191  -13.6706 C   0  0  0  0  0  0  0  0  0  0  0  0
  -13.7011    1.3943  -12.7934 O   0  0  0  0  0  0  0  0  0  0  0  0
  -15.6173    0.3168  -13.3803 N   0  0  0  0  0  0  0  0  0  0  0  0
  -15.8499    0.0154  -12.0214 O   0  0  0  0  0  0  0  0  0  0  0  0
  -16.2959   -0.0196  -14.0540 H   0  0  0  0  0  0  0  0  0  0  0  0
  -15.0632    0.4084  -11.5835 H   0  0  0  0  0  0  0  0  0  0  0  0
  -26.5625   -1.7588   -9.8226 N   0  0  0  0  0  0  0  0  0  0  0  0
  -26.1930   -2.6652   -9.5404 H   0  0  0  0  0  0  0  0  0  0  0  0
  -27.6982   -0.1355   -8.3391 C   0  0  0  0  0  0  0  0  0  0  0  0
  -27.7932   -1.4879   -9.0571 C   0  0  0  0  0  0  0  0  0  0  0  0
  -28.0437   -2.5776   -8.0149 C   0  0  0  0  0  0  0  0  0  0  0  0
  -28.4306   -3.8602   -8.4493 C   0  0  0  0  0  0  0  0  0  0  0  0
  -28.7518   -4.8655   -7.5349 C   0  0  0  0  0  0  0  0  0  0  0  0
  -28.6869   -4.6095   -6.1686 C   0  0  0  0  0  0  0  0  0  0  0  0
  -28.3025   -3.3479   -5.7183 C   0  0  0  0  0  0  0  0  0  0  0  0
  -27.9890   -2.3354   -6.6336 C   0  0  0  0  0  0  0  0  0  0  0  0
 33 34  1  0  0  0
 34 31  1  0  0  0
 34 35  1  0  0  0
 31  1  1  0  0  0
 31 32  1  0  0  0
  1  2  1  0  0  0
  1  9  2  0  0  0
  2  3  2  0  0  0
  3  4  1  0  0  0
  4  5  2  0  0  0
  5  6  1  0  0  0
  5  9  1  0  0  0
  6  7  1  0  0  0
  6 10  1  0  0  0
  7 11  1  0  0  0
  7  8  2  0  0  0
 11 12  1  0  0  0
 11 16  2  0  0  0
 12 13  2  0  0  0
 13 14  1  0  0  0
 14 17  1  0  0  0
 14 15  2  0  0  0
 17 18  1  0  0  0
 17 20  1  0  0  0
 18 19  2  0  0  0
 18 21  1  0  0  0
 21 22  1  0  0  0
 22 23  1  0  0  0
 23 24  1  0  0  0
 24 25  1  0  0  0
 25 26  2  0  0  0
 25 27  1  0  0  0
 27 28  1  0  0  0
 27 29  1  0  0  0
 28 30  1  0  0  0
 15 16  1  0  0  0
  8  9  1  0  0  0
 35 36  1  0  0  0
 35 40  2  0  0  0
 36 37  2  0  0  0
 37 38  1  0  0  0
 38 39  2  0  0  0
 39 40  1  0  0  0
M  END
> <minimizedAffinity>
-8.63801

$$$$
