CHEMBL191377


 33 36  0  0  0  0  0  0  0  0999 V2000
  -29.9005   -4.0749   -5.5330 C   0  0  0  0  0  0  0  0  0  0  0  0
  -30.7251   -3.6577   -4.5739 N   0  0  0  0  0  0  0  0  0  0  0  0
  -31.4003   -4.6360   -3.9806 C   0  0  0  0  0  0  0  0  0  0  0  0
  -31.3060   -5.9384   -4.2487 N   0  0  0  0  0  0  0  0  0  0  0  0
  -30.4013   -6.2490   -5.1698 C   0  0  0  0  0  0  0  0  0  0  0  0
  -29.6955   -5.3496   -5.8448 N   0  0  0  0  0  0  0  0  0  0  0  0
  -27.9161   -2.4173   -8.3091 C   0  0  0  0  0  0  0  0  0  0  0  0
  -27.7223   -1.1931   -7.6697 C   0  0  0  0  0  0  0  0  0  0  0  0
  -28.1516   -0.8806   -6.4225 N   0  0  0  0  0  0  0  0  0  0  0  0
  -28.8527   -1.8350   -5.7758 C   0  0  0  0  0  0  0  0  0  0  0  0
  -29.1507   -3.0894   -6.3020 C   0  0  0  0  0  0  0  0  0  0  0  0
  -28.6726   -3.3544   -7.6024 C   0  0  0  0  0  0  0  0  0  0  0  0
  -27.5181   -2.6906   -9.6324 N   0  0  0  0  0  0  0  0  0  0  0  0
  -26.6089   -3.1471   -9.6550 H   0  0  0  0  0  0  0  0  0  0  0  0
  -27.5902   -1.5632  -10.5692 C   0  0  0  0  0  0  0  0  0  0  0  0
  -26.8628   -1.9117  -11.8662 C   0  0  0  0  0  0  0  0  0  0  0  0
  -24.8270   -1.7484  -10.5890 O   0  0  0  0  0  0  0  0  0  0  0  0
  -25.4208   -1.4223  -11.8377 C   0  0  0  0  0  0  0  0  0  0  0  0
  -23.9051   -1.4375  -10.6163 H   0  0  0  0  0  0  0  0  0  0  0  0
  -30.2034   -7.5934   -5.4684 N   0  0  0  0  0  0  0  0  0  0  0  0
  -31.0483   -8.1394   -5.4322 H   0  0  0  0  0  0  0  0  0  0  0  0
  -28.9851   -8.2789   -5.5313 C   0  0  0  0  0  0  0  0  0  0  0  0
  -28.6874   -9.1781   -6.5624 C   0  0  0  0  0  0  0  0  0  0  0  0
  -27.5025   -9.9236   -6.5605 C   0  0  0  0  0  0  0  0  0  0  0  0
  -26.5866   -9.8303   -5.5101 C   0  0  0  0  0  0  0  0  0  0  0  0
  -26.8932   -8.9198   -4.4862 C   0  0  0  0  0  0  0  0  0  0  0  0
  -28.0626   -8.1483   -4.4970 C   0  0  0  0  0  0  0  0  0  0  0  0
  -25.4354  -10.5865   -5.4620 N   0  0  0  0  0  0  0  0  0  0  0  0
  -24.9556  -11.2582   -4.2464 C   0  0  0  0  0  0  0  0  0  0  0  0
  -23.5742  -10.7269   -3.8371 C   0  0  0  0  0  0  0  0  0  0  0  0
  -22.6349  -10.7972   -4.9235 O   0  0  0  0  0  0  0  0  0  0  0  0
  -23.1056  -10.0124   -6.0313 C   0  0  0  0  0  0  0  0  0  0  0  0
  -24.4562  -10.5258   -6.5593 C   0  0  0  0  0  0  0  0  0  0  0  0
 17 18  1  0  0  0
 17 19  1  0  0  0
 18 16  1  0  0  0
 16 15  1  0  0  0
 15 13  1  0  0  0
 13  7  1  0  0  0
 13 14  1  0  0  0
  7  8  1  0  0  0
  7 12  2  0  0  0
  8  9  2  0  0  0
  9 10  1  0  0  0
 10 11  2  0  0  0
 11  1  1  0  0  0
 11 12  1  0  0  0
  1  2  1  0  0  0
  1  6  2  0  0  0
  2  3  2  0  0  0
  3  4  1  0  0  0
  4  5  2  0  0  0
  5 20  1  0  0  0
  5  6  1  0  0  0
 20 22  1  0  0  0
 20 21  1  0  0  0
 22 23  1  0  0  0
 22 27  2  0  0  0
 23 24  2  0  0  0
 24 25  1  0  0  0
 25 28  1  0  0  0
 25 26  2  0  0  0
 28 29  1  0  0  0
 28 33  1  0  0  0
 29 30  1  0  0  0
 30 31  1  0  0  0
 31 32  1  0  0  0
 32 33  1  0  0  0
 26 27  1  0  0  0
M  END
> <minimizedAffinity>
-8.29021

$$$$
