CHEMBL4107173


 48 52  0  0  0  0  0  0  0  0999 V2000
  -12.1593   -1.2854  -14.3931 C   0  0  0  0  0  0  0  0  0  0  0  0
  -12.0470   -1.7625  -15.6830 C   0  0  0  0  0  0  0  0  0  0  0  0
  -12.7789   -0.9889  -16.6258 C   0  0  0  0  0  0  0  0  0  0  0  0
  -12.8480   -1.2480  -17.9582 N   0  0  0  0  0  0  0  0  0  0  0  0
  -13.6099   -0.4063  -18.6790 C   0  0  0  0  0  0  0  0  0  0  0  0
  -14.2833    0.6857  -18.1733 C   0  0  0  0  0  0  0  0  0  0  0  0
  -14.1429    0.9942  -16.8201 C   0  0  0  0  0  0  0  0  0  0  0  0
  -13.4136    0.0972  -16.0289 C   0  0  0  0  0  0  0  0  0  0  0  0
  -13.1353    0.1199  -14.3356 S   0  0  0  0  0  0  0  0  0  0  0  0
  -11.3861   -3.2224  -13.2198 N   0  0  0  0  0  0  0  0  0  0  0  0
  -11.5538   -1.8553  -13.2013 C   0  0  0  0  0  0  0  0  0  0  0  0
  -11.2077   -1.1779  -12.2362 O   0  0  0  0  0  0  0  0  0  0  0  0
  -11.7234   -3.7331  -14.0267 H   0  0  0  0  0  0  0  0  0  0  0  0
  -10.7891   -3.9313  -12.1146 C   0  0  0  0  0  0  0  0  0  0  0  0
  -11.7169   -5.0224  -11.5969 C   0  0  0  0  0  0  0  0  0  0  0  0
  -12.9387   -4.4016  -10.9129 C   0  0  0  0  0  0  0  0  0  0  0  0
  -15.1466   -5.2717  -11.5211 C   0  0  0  0  0  0  0  0  0  0  0  0
  -16.4777   -4.5188  -11.4671 C   0  0  0  0  0  0  0  0  0  0  0  0
  -16.0822   -3.1285  -11.0276 C   0  0  0  0  0  0  0  0  0  0  0  0
  -15.9359   -3.0734   -9.6099 O   0  0  0  0  0  0  0  0  0  0  0  0
  -14.7491   -2.9190  -11.7312 C   0  0  0  0  0  0  0  0  0  0  0  0
  -14.0965   -4.2420  -11.8025 N   0  0  0  0  0  0  0  0  0  0  0  0
  -15.1844   -3.6333   -9.3554 H   0  0  0  0  0  0  0  0  0  0  0  0
  -15.1579   -6.3773  -12.5853 C   0  0  0  0  0  0  0  0  0  0  0  0
  -15.8207   -6.3572  -13.6096 O   0  0  0  0  0  0  0  0  0  0  0  0
  -13.5078   -7.9250  -13.1985 C   0  0  0  0  0  0  0  0  0  0  0  0
  -14.3857   -7.4339  -12.1852 O   0  0  0  0  0  0  0  0  0  0  0  0
  -14.7104    2.1049  -16.2362 O   0  0  0  0  0  0  0  0  0  0  0  0
  -16.0047    2.0168  -15.7796 C   0  0  0  0  0  0  0  0  0  0  0  0
  -16.9065    2.9095  -16.3387 C   0  0  0  0  0  0  0  0  0  0  0  0
  -18.2250    2.9366  -15.8835 C   0  0  0  0  0  0  0  0  0  0  0  0
  -18.6684    2.0700  -14.8741 C   0  0  0  0  0  0  0  0  0  0  0  0
  -17.7637    1.1462  -14.3487 C   0  0  0  0  0  0  0  0  0  0  0  0
  -16.4503    1.0965  -14.8270 C   0  0  0  0  0  0  0  0  0  0  0  0
  -19.9894    2.0731  -14.3623 N   0  0  0  0  0  0  0  0  0  0  0  0
  -20.8127    0.9703  -14.3061 C   0  0  0  0  0  0  0  0  0  0  0  0
  -20.4953   -0.1557  -14.6790 O   0  0  0  0  0  0  0  0  0  0  0  0
  -22.0701    1.2499  -13.7914 N   0  0  0  0  0  0  0  0  0  0  0  0
  -20.3102    2.9090  -13.8961 H   0  0  0  0  0  0  0  0  0  0  0  0
  -22.4763    2.1022  -14.1592 H   0  0  0  0  0  0  0  0  0  0  0  0
  -22.9727    0.1502  -13.7238 C   0  0  0  0  0  0  0  0  0  0  0  0
  -23.9227   -0.0474  -14.7356 C   0  0  0  0  0  0  0  0  0  0  0  0
  -24.9723   -0.9565  -14.5614 C   0  0  0  0  0  0  0  0  0  0  0  0
  -26.0327   -1.0988  -15.6132 C   0  0  0  0  0  0  0  0  0  0  0  0
  -25.0548   -1.6743  -13.3614 C   0  0  0  0  0  0  0  0  0  0  0  0
  -24.0713   -1.5269  -12.3771 C   0  0  0  0  0  0  0  0  0  0  0  0
  -23.0239   -0.6320  -12.5736 C   0  0  0  0  0  0  0  0  0  0  0  0
  -22.1211   -0.4467  -11.5978 F   0  0  0  0  0  0  0  0  0  0  0  0
 26 27  1  0  0  0
 27 24  1  0  0  0
 24 25  2  0  0  0
 17 18  1  0  0  0
 17 22  1  0  0  0
 17 24  1  0  0  0
 18 19  1  0  0  0
 19 20  1  0  0  0
 19 21  1  0  0  0
 20 23  1  0  0  0
 21 22  1  0  0  0
 22 16  1  0  0  0
 16 15  1  0  0  0
 15 14  1  0  0  0
 14 10  1  0  0  0
 10 11  1  0  0  0
 10 13  1  0  0  0
 11 12  2  0  0  0
 11  1  1  0  0  0
  1  2  2  0  0  0
  1  9  1  0  0  0
  2  3  1  0  0  0
  3  4  1  0  0  0
  3  8  2  0  0  0
  4  5  2  0  0  0
  5  6  1  0  0  0
  6  7  2  0  0  0
  7 28  1  0  0  0
  7  8  1  0  0  0
 28 29  1  0  0  0
 29 30  1  0  0  0
 29 34  2  0  0  0
 30 31  2  0  0  0
 31 32  1  0  0  0
 32 35  1  0  0  0
 32 33  2  0  0  0
 35 36  1  0  0  0
 35 39  1  0  0  0
 36 37  2  0  0  0
 36 38  1  0  0  0
 38 41  1  0  0  0
 38 40  1  0  0  0
 41 42  1  0  0  0
 41 47  2  0  0  0
 42 43  2  0  0  0
 43 44  1  0  0  0
 43 45  1  0  0  0
 45 46  2  0  0  0
 46 47  1  0  0  0
 47 48  1  0  0  0
 33 34  1  0  0  0
  8  9  1  0  0  0
M  END
> <minimizedAffinity>
-9.21150

$$$$
