CHEMBL3983918


 38 41  0  0  0  0  0  0  0  0999 V2000
  -15.6381    2.1575  -15.2627 N   0  0  0  0  0  0  0  0  0  0  0  0
  -15.2332    1.1327  -14.3009 C   0  0  0  0  0  0  0  0  0  0  0  0
  -14.1137    0.4425  -14.7299 C   0  0  0  0  0  0  0  0  0  0  0  0
  -14.0650   -0.9151  -14.5129 C   0  0  0  0  0  0  0  0  0  0  0  0
  -14.9006   -1.5658  -13.6644 C   0  0  0  0  0  0  0  0  0  0  0  0
  -14.8746   -2.8589  -13.9667 N   0  0  0  0  0  0  0  0  0  0  0  0
  -15.1752   -3.7101  -13.0013 C   0  0  0  0  0  0  0  0  0  0  0  0
  -15.3516   -3.3080  -11.7012 C   0  0  0  0  0  0  0  0  0  0  0  0
  -15.6841   -1.9480  -11.4934 N   0  0  0  0  0  0  0  0  0  0  0  0
  -15.5528   -0.9659  -12.6190 C   0  0  0  0  0  0  0  0  0  0  0  0
  -15.8764    0.4954  -13.1543 C   0  0  0  0  0  0  0  0  0  0  0  0
  -14.7985   -4.3856  -10.7932 C   0  0  0  0  0  0  0  0  0  0  0  0
  -14.3430   -4.1213   -9.4330 C   0  0  0  0  0  0  0  0  0  0  0  0
  -13.6267   -5.0920   -8.8762 N   0  0  0  0  0  0  0  0  0  0  0  0
  -13.6229   -6.0336   -9.8218 N   0  0  0  0  0  0  0  0  0  0  0  0
  -14.3135   -5.6731  -10.9722 C   0  0  0  0  0  0  0  0  0  0  0  0
  -13.0859   -6.8755   -9.6157 H   0  0  0  0  0  0  0  0  0  0  0  0
  -14.2334    4.5799  -17.8160 C   0  0  0  0  0  0  0  0  0  0  0  0
  -13.2383    5.2283  -17.0956 C   0  0  0  0  0  0  0  0  0  0  0  0
  -13.1182    4.9638  -15.7586 C   0  0  0  0  0  0  0  0  0  0  0  0
  -13.8557    3.8912  -15.2284 C   0  0  0  0  0  0  0  0  0  0  0  0
  -14.8882    3.1963  -15.9027 C   0  0  0  0  0  0  0  0  0  0  0  0
  -15.0873    3.6145  -17.2230 C   0  0  0  0  0  0  0  0  0  0  0  0
  -14.0514    6.1978  -19.4788 C   0  0  0  0  0  0  0  0  0  0  0  0
  -14.1968    4.8206  -19.1643 O   0  0  0  0  0  0  0  0  0  0  0  0
  -12.2528    5.5840  -14.9027 O   0  0  0  0  0  0  0  0  0  0  0  0
  -12.0419    6.9822  -15.1089 C   0  0  0  0  0  0  0  0  0  0  0  0
  -17.0161    1.7972  -15.8962 C   0  0  0  0  0  0  0  0  0  0  0  0
  -18.3015    2.7057  -15.7912 C   0  0  0  0  0  0  0  0  0  0  0  0
  -19.0653    2.8621  -14.4783 C   0  0  0  0  0  0  0  0  0  0  0  0
  -19.9567    1.7184  -14.2320 N   0  0  0  0  0  0  0  0  0  0  0  0
  -21.3382    1.8480  -14.1014 C   0  0  0  0  0  0  0  0  0  0  0  0
  -21.8805    2.9534  -14.1800 O   0  0  0  0  0  0  0  0  0  0  0  0
  -19.5649    0.7781  -14.2395 H   0  0  0  0  0  0  0  0  0  0  0  0
  -22.1296    0.5336  -13.8488 C   0  0  0  0  0  0  0  0  0  0  0  0
  -22.1211    0.1707  -12.5320 F   0  0  0  0  0  0  0  0  0  0  0  0
  -23.4405    0.6349  -14.2056 F   0  0  0  0  0  0  0  0  0  0  0  0
  -21.6208   -0.5252  -14.5383 F   0  0  0  0  0  0  0  0  0  0  0  0
 24 25  1  0  0  0
 25 18  1  0  0  0
 18 19  1  0  0  0
 18 23  2  0  0  0
 19 20  2  0  0  0
 20 26  1  0  0  0
 20 21  1  0  0  0
 26 27  1  0  0  0
 21 22  2  0  0  0
 22  1  1  0  0  0
 22 23  1  0  0  0
  1 28  1  0  0  0
  1  2  1  0  0  0
 28 29  1  0  0  0
 29 30  1  0  0  0
 30 31  1  0  0  0
 31 32  1  0  0  0
 31 34  1  0  0  0
 32 33  2  0  0  0
 32 35  1  0  0  0
 35 36  1  0  0  0
 35 37  1  0  0  0
 35 38  1  0  0  0
  2  3  1  0  0  0
  2 11  2  0  0  0
  3  4  2  0  0  0
  4  5  1  0  0  0
  5  6  1  0  0  0
  5 10  2  0  0  0
  6  7  2  0  0  0
  7  8  1  0  0  0
  8 12  1  0  0  0
  8  9  2  0  0  0
 12 13  1  0  0  0
 12 16  2  0  0  0
 13 14  2  0  0  0
 14 15  1  0  0  0
 15 16  1  0  0  0
 15 17  1  0  0  0
  9 10  1  0  0  0
 10 11  1  0  0  0
M  END
> <minimizedAffinity>
-8.36435

$$$$
