CHEMBL2031906


 43 48  0  0  0  0  0  0  0  0999 V2000
  -26.4928   -2.0157   -9.9132 N   0  0  0  0  0  0  0  0  0  0  0  0
  -27.7317   -1.5634   -9.4398 C   0  0  0  0  0  0  0  0  0  0  0  0
  -28.5222   -0.8716  -10.0693 O   0  0  0  0  0  0  0  0  0  0  0  0
  -25.9978   -2.6311   -9.2643 H   0  0  0  0  0  0  0  0  0  0  0  0
  -23.9366   -0.9920  -13.2197 C   0  0  0  0  0  0  0  0  0  0  0  0
  -25.2827   -1.3027  -13.4609 C   0  0  0  0  0  0  0  0  0  0  0  0
  -26.1728   -1.6400  -12.3925 C   0  0  0  0  0  0  0  0  0  0  0  0
  -25.7172   -1.7407  -11.0781 C   0  0  0  0  0  0  0  0  0  0  0  0
  -24.3441   -1.5178  -10.8643 C   0  0  0  0  0  0  0  0  0  0  0  0
  -23.4819   -1.1450  -11.9114 C   0  0  0  0  0  0  0  0  0  0  0  0
  -22.1982   -0.8853  -11.6117 F   0  0  0  0  0  0  0  0  0  0  0  0
  -23.0000   -0.5522  -14.1418 O   0  0  0  0  0  0  0  0  0  0  0  0
  -18.5508    1.8648  -15.1013 C   0  0  0  0  0  0  0  0  0  0  0  0
  -18.9568    0.5602  -15.3425 C   0  0  0  0  0  0  0  0  0  0  0  0
  -20.2797    0.2081  -15.1237 C   0  0  0  0  0  0  0  0  0  0  0  0
  -21.1956    1.1031  -14.5517 C   0  0  0  0  0  0  0  0  0  0  0  0
  -22.4900    0.7375  -14.1433 C   0  0  0  0  0  0  0  0  0  0  0  0
  -23.3884    1.7367  -13.7727 C   0  0  0  0  0  0  0  0  0  0  0  0
  -22.9311    3.0412  -13.6975 C   0  0  0  0  0  0  0  0  0  0  0  0
  -21.6532    3.3936  -13.9453 N   0  0  0  0  0  0  0  0  0  0  0  0
  -20.7990    2.4525  -14.3683 C   0  0  0  0  0  0  0  0  0  0  0  0
  -19.4765    2.8007  -14.6294 C   0  0  0  0  0  0  0  0  0  0  0  0
  -17.1926    3.6395  -15.8023 C   0  0  0  0  0  0  0  0  0  0  0  0
  -17.2714    2.3128  -15.2861 O   0  0  0  0  0  0  0  0  0  0  0  0
  -28.0272   -2.0050   -8.0032 C   0  0  0  0  0  0  0  0  0  0  0  0
  -27.7747   -1.5083   -6.7520 C   0  0  0  0  0  0  0  0  0  0  0  0
  -28.3718   -2.3335   -5.7574 N   0  0  0  0  0  0  0  0  0  0  0  0
  -28.2165   -2.3543   -4.3108 C   0  0  0  0  0  0  0  0  0  0  0  0
  -29.1053   -3.3558   -6.3918 N   0  0  0  0  0  0  0  0  0  0  0  0
  -28.7748   -3.2861   -7.7371 C   0  0  0  0  0  0  0  0  0  0  0  0
  -29.0489   -4.0957   -8.6168 O   0  0  0  0  0  0  0  0  0  0  0  0
  -29.4185   -4.5819   -5.7479 C   0  0  0  0  0  0  0  0  0  0  0  0
  -30.6295   -4.7508   -5.0640 C   0  0  0  0  0  0  0  0  0  0  0  0
  -30.8890   -5.9259   -4.3489 C   0  0  0  0  0  0  0  0  0  0  0  0
  -29.9283   -6.9330   -4.2861 C   0  0  0  0  0  0  0  0  0  0  0  0
  -28.7099   -6.7690   -4.9433 C   0  0  0  0  0  0  0  0  0  0  0  0
  -28.4581   -5.6014   -5.6794 C   0  0  0  0  0  0  0  0  0  0  0  0
  -27.1790   -0.1309   -6.3806 C   0  0  0  0  0  0  0  0  0  0  0  0
  -28.0591    1.0538   -6.2724 N   0  0  0  0  0  0  0  0  0  0  0  0
  -28.4896    1.2975   -4.8727 C   0  0  0  0  0  0  0  0  0  0  0  0
  -29.8807    0.7103   -4.6820 C   0  0  0  0  0  0  0  0  0  0  0  0
  -30.4537    0.5947   -6.0760 C   0  0  0  0  0  0  0  0  0  0  0  0
  -29.3139    0.9361   -7.0313 C   0  0  0  0  0  0  0  0  0  0  0  0
 23 24  1  0  0  0
 24 13  1  0  0  0
 13 14  1  0  0  0
 13 22  2  0  0  0
 14 15  2  0  0  0
 15 16  1  0  0  0
 16 17  1  0  0  0
 16 21  2  0  0  0
 17 12  1  0  0  0
 17 18  2  0  0  0
 12  5  1  0  0  0
  5  6  1  0  0  0
  5 10  2  0  0  0
  6  7  2  0  0  0
  7  8  1  0  0  0
  8  1  1  0  0  0
  8  9  2  0  0  0
  1  2  1  0  0  0
  1  4  1  0  0  0
  2  3  2  0  0  0
  2 25  1  0  0  0
 25 26  2  0  0  0
 25 30  1  0  0  0
 26 38  1  0  0  0
 26 27  1  0  0  0
 38 39  1  0  0  0
 39 40  1  0  0  0
 39 43  1  0  0  0
 40 41  1  0  0  0
 41 42  1  0  0  0
 42 43  1  0  0  0
 27 28  1  0  0  0
 27 29  1  0  0  0
 29 32  1  0  0  0
 29 30  1  0  0  0
 32 33  1  0  0  0
 32 37  2  0  0  0
 33 34  2  0  0  0
 34 35  1  0  0  0
 35 36  2  0  0  0
 36 37  1  0  0  0
 30 31  2  0  0  0
  9 10  1  0  0  0
 10 11  1  0  0  0
 18 19  1  0  0  0
 19 20  2  0  0  0
 20 21  1  0  0  0
 21 22  1  0  0  0
M  END
> <minimizedAffinity>
-10.60619

$$$$
