CHEMBL3921787


 40 44  0  0  0  0  0  0  0  0999 V2000
  -16.7927    1.9583  -15.2595 N   0  0  0  0  0  0  0  0  0  0  0  0
  -18.2330    1.8350  -15.3486 C   0  0  0  0  0  0  0  0  0  0  0  0
  -18.8675    3.0371  -15.6578 C   0  0  0  0  0  0  0  0  0  0  0  0
  -20.1603    3.2536  -15.2289 C   0  0  0  0  0  0  0  0  0  0  0  0
  -20.9248    2.2683  -14.6622 C   0  0  0  0  0  0  0  0  0  0  0  0
  -22.0636    2.7277  -14.1350 N   0  0  0  0  0  0  0  0  0  0  0  0
  -22.9815    1.8205  -13.7928 C   0  0  0  0  0  0  0  0  0  0  0  0
  -22.8227    0.4785  -14.0596 C   0  0  0  0  0  0  0  0  0  0  0  0
  -21.5734   -0.0114  -14.4268 N   0  0  0  0  0  0  0  0  0  0  0  0
  -20.5239    0.9176  -14.6839 C   0  0  0  0  0  0  0  0  0  0  0  0
  -19.0821    0.7542  -14.9560 C   0  0  0  0  0  0  0  0  0  0  0  0
  -24.0977   -0.2591  -14.2058 C   0  0  0  0  0  0  0  0  0  0  0  0
  -24.7795   -0.8232  -15.3117 C   0  0  0  0  0  0  0  0  0  0  0  0
  -25.8057   -1.6207  -14.9631 N   0  0  0  0  0  0  0  0  0  0  0  0
  -25.7952   -1.6011  -13.6149 N   0  0  0  0  0  0  0  0  0  0  0  0
  -24.7166   -0.8982  -13.1292 C   0  0  0  0  0  0  0  0  0  0  0  0
  -26.9257   -2.1142  -12.8286 C   0  0  0  0  0  0  0  0  0  0  0  0
  -27.1521   -1.2287  -11.6002 C   0  0  0  0  0  0  0  0  0  0  0  0
  -28.2544   -2.2913  -13.5790 C   0  0  0  0  0  0  0  0  0  0  0  0
  -14.3521    0.8219  -17.9130 C   0  0  0  0  0  0  0  0  0  0  0  0
  -13.8686    2.0359  -18.3619 C   0  0  0  0  0  0  0  0  0  0  0  0
  -14.2206    3.2115  -17.6929 C   0  0  0  0  0  0  0  0  0  0  0  0
  -15.1424    3.1831  -16.6277 C   0  0  0  0  0  0  0  0  0  0  0  0
  -15.7358    1.9905  -16.2158 C   0  0  0  0  0  0  0  0  0  0  0  0
  -15.2069    0.8067  -16.8064 C   0  0  0  0  0  0  0  0  0  0  0  0
  -12.7869   -0.5177  -19.0890 C   0  0  0  0  0  0  0  0  0  0  0  0
  -14.0722   -0.3960  -18.4781 O   0  0  0  0  0  0  0  0  0  0  0  0
  -13.7403    4.4551  -18.0177 O   0  0  0  0  0  0  0  0  0  0  0  0
  -14.7083    5.4017  -18.4606 C   0  0  0  0  0  0  0  0  0  0  0  0
  -16.3623    1.6609  -13.8580 C   0  0  0  0  0  0  0  0  0  0  0  0
  -16.0304    0.2400  -13.7003 C   0  0  0  0  0  0  0  0  0  0  0  0
  -15.7109   -0.9046  -13.5507 C   0  0  0  0  0  0  0  0  0  0  0  0
  -15.2675   -2.2458  -13.3533 C   0  0  0  0  0  0  0  0  0  0  0  0
  -16.2168   -3.1631  -13.6600 N   0  0  0  0  0  0  0  0  0  0  0  0
  -15.8496   -4.4495  -13.6350 C   0  0  0  0  0  0  0  0  0  0  0  0
  -14.5642   -4.8816  -13.3304 C   0  0  0  0  0  0  0  0  0  0  0  0
  -13.6111   -3.9210  -12.9993 C   0  0  0  0  0  0  0  0  0  0  0  0
  -13.9616   -2.5706  -12.9759 C   0  0  0  0  0  0  0  0  0  0  0  0
  -12.9430   -1.7182  -12.6468 O   0  0  0  0  0  0  0  0  0  0  0  0
  -11.9797   -1.4921  -13.6730 C   0  0  0  0  0  0  0  0  0  0  0  0
 26 27  1  0  0  0
 27 20  1  0  0  0
 20 21  1  0  0  0
 20 25  2  0  0  0
 21 22  2  0  0  0
 22 28  1  0  0  0
 22 23  1  0  0  0
 28 29  1  0  0  0
 23 24  2  0  0  0
 24  1  1  0  0  0
 24 25  1  0  0  0
  1 30  1  0  0  0
  1  2  1  0  0  0
 30 31  1  0  0  0
 31 32  3  0  0  0
 32 33  1  0  0  0
 33 34  1  0  0  0
 33 38  2  0  0  0
 34 35  2  0  0  0
 35 36  1  0  0  0
 36 37  2  0  0  0
 37 38  1  0  0  0
 38 39  1  0  0  0
 39 40  1  0  0  0
  2  3  1  0  0  0
  2 11  2  0  0  0
  3  4  2  0  0  0
  4  5  1  0  0  0
  5  6  1  0  0  0
  5 10  2  0  0  0
  6  7  2  0  0  0
  7  8  1  0  0  0
  8 12  1  0  0  0
  8  9  2  0  0  0
 12 13  1  0  0  0
 12 16  2  0  0  0
 13 14  2  0  0  0
 14 15  1  0  0  0
 15 17  1  0  0  0
 15 16  1  0  0  0
 17 18  1  0  0  0
 17 19  1  0  0  0
  9 10  1  0  0  0
 10 11  1  0  0  0
M  END
> <minimizedAffinity>
-9.15604

$$$$
