CHEMBL3975903


 37 42  0  0  0  0  0  0  0  0999 V2000
  -27.9074   -2.1960   -8.4259 N   0  0  0  0  0  0  0  0  0  0  0  0
  -27.3824   -1.6271   -9.6650 C   0  0  0  0  0  0  0  0  0  0  0  0
  -28.2080   -1.8153  -10.7662 C   0  0  0  0  0  0  0  0  0  0  0  0
  -27.6817   -1.8404  -12.0447 C   0  0  0  0  0  0  0  0  0  0  0  0
  -26.3807   -1.5253  -12.3081 C   0  0  0  0  0  0  0  0  0  0  0  0
  -26.0289   -1.8019  -13.5632 N   0  0  0  0  0  0  0  0  0  0  0  0
  -24.8472   -1.3451  -13.9770 C   0  0  0  0  0  0  0  0  0  0  0  0
  -24.0532   -0.5515  -13.1763 C   0  0  0  0  0  0  0  0  0  0  0  0
  -24.3521   -0.3733  -11.8290 N   0  0  0  0  0  0  0  0  0  0  0  0
  -25.5548   -0.9418  -11.3167 C   0  0  0  0  0  0  0  0  0  0  0  0
  -26.0835   -1.0832   -9.9486 C   0  0  0  0  0  0  0  0  0  0  0  0
  -23.0030    0.1790  -13.8960 C   0  0  0  0  0  0  0  0  0  0  0  0
  -21.7709   -0.2983  -14.4248 C   0  0  0  0  0  0  0  0  0  0  0  0
  -20.9212    0.6841  -14.7563 N   0  0  0  0  0  0  0  0  0  0  0  0
  -21.5913    1.8004  -14.4271 N   0  0  0  0  0  0  0  0  0  0  0  0
  -21.1248    3.0952  -14.8695 C   0  0  0  0  0  0  0  0  0  0  0  0
  -22.7555    1.5391  -13.7538 C   0  0  0  0  0  0  0  0  0  0  0  0
  -28.8756    0.2680   -5.7512 C   0  0  0  0  0  0  0  0  0  0  0  0
  -28.5767   -0.4492   -4.5939 C   0  0  0  0  0  0  0  0  0  0  0  0
  -28.0191   -1.7209   -4.6904 C   0  0  0  0  0  0  0  0  0  0  0  0
  -27.7544   -2.2749   -5.9542 C   0  0  0  0  0  0  0  0  0  0  0  0
  -28.0296   -1.5891   -7.1485 C   0  0  0  0  0  0  0  0  0  0  0  0
  -28.5860   -0.2971   -7.0149 C   0  0  0  0  0  0  0  0  0  0  0  0
  -30.8489    1.5682   -6.1425 C   0  0  0  0  0  0  0  0  0  0  0  0
  -29.4728    1.5070   -5.7550 O   0  0  0  0  0  0  0  0  0  0  0  0
  -27.7100   -2.5289   -3.6261 O   0  0  0  0  0  0  0  0  0  0  0  0
  -28.7683   -2.8462   -2.7269 C   0  0  0  0  0  0  0  0  0  0  0  0
  -27.6628   -3.7026   -8.4551 C   0  0  0  0  0  0  0  0  0  0  0  0
  -28.7632   -4.6730   -8.0254 C   0  0  0  0  0  0  0  0  0  0  0  0
  -28.7599   -6.1888   -8.0096 C   0  0  0  0  0  0  0  0  0  0  0  0
  -28.4920   -5.4655   -6.7215 C   0  0  0  0  0  0  0  0  0  0  0  0
  -29.4664   -5.3774   -5.5556 C   0  0  0  0  0  0  0  0  0  0  0  0
  -30.4845   -4.4197   -5.4933 C   0  0  0  0  0  0  0  0  0  0  0  0
  -31.4405   -4.4593   -4.4654 C   0  0  0  0  0  0  0  0  0  0  0  0
  -31.3760   -5.4677   -3.5208 C   0  0  0  0  0  0  0  0  0  0  0  0
  -30.3512   -6.3890   -3.6427 C   0  0  0  0  0  0  0  0  0  0  0  0
  -29.4101   -6.3626   -4.6179 N   0  0  0  0  0  0  0  0  0  0  0  0
 24 25  1  0  0  0
 25 18  1  0  0  0
 18 19  1  0  0  0
 18 23  2  0  0  0
 19 20  2  0  0  0
 20 26  1  0  0  0
 20 21  1  0  0  0
 26 27  1  0  0  0
 21 22  2  0  0  0
 22  1  1  0  0  0
 22 23  1  0  0  0
  1 28  1  0  0  0
  1  2  1  0  0  0
 29 30  1  0  0  0
 29 31  1  0  0  0
 29 28  1  0  0  0
 30 31  1  0  0  0
 31 32  1  0  0  0
 32 33  1  0  0  0
 32 37  2  0  0  0
 33 34  2  0  0  0
 34 35  1  0  0  0
 35 36  2  0  0  0
 36 37  1  0  0  0
  2  3  1  0  0  0
  2 11  2  0  0  0
  3  4  2  0  0  0
  4  5  1  0  0  0
  5  6  1  0  0  0
  5 10  2  0  0  0
  6  7  2  0  0  0
  7  8  1  0  0  0
  8 12  1  0  0  0
  8  9  2  0  0  0
 12 13  1  0  0  0
 12 17  2  0  0  0
 13 14  2  0  0  0
 14 15  1  0  0  0
 15 16  1  0  0  0
 15 17  1  0  0  0
  9 10  1  0  0  0
 10 11  1  0  0  0
M  END
> <minimizedAffinity>
-9.49276

$$$$
