CHEMBL3915341


 39 42  0  0  0  0  0  0  0  0999 V2000
  -31.7464   -7.2661   -5.8556 C   0  0  0  0  0  0  0  0  0  0  0  0
  -30.5195   -7.2206   -6.7237 C   0  0  0  0  0  0  0  0  0  0  0  0
  -30.3129   -8.3222   -7.5849 C   0  0  0  0  0  0  0  0  0  0  0  0
  -29.3022   -8.3214   -8.5496 C   0  0  0  0  0  0  0  0  0  0  0  0
  -28.4129   -7.2572   -8.5855 C   0  0  0  0  0  0  0  0  0  0  0  0
  -28.5683   -6.1879   -7.6974 C   0  0  0  0  0  0  0  0  0  0  0  0
  -29.6129   -6.1418   -6.7563 C   0  0  0  0  0  0  0  0  0  0  0  0
  -29.7443   -5.0506   -5.8492 N   0  0  0  0  0  0  0  0  0  0  0  0
  -29.4607   -3.7224   -6.1429 C   0  0  0  0  0  0  0  0  0  0  0  0
  -29.1098   -3.3020   -7.2396 O   0  0  0  0  0  0  0  0  0  0  0  0
  -29.5489   -2.8936   -5.0330 N   0  0  0  0  0  0  0  0  0  0  0  0
  -29.9917   -5.2688   -4.8959 H   0  0  0  0  0  0  0  0  0  0  0  0
  -29.2835   -3.3175   -4.1533 H   0  0  0  0  0  0  0  0  0  0  0  0
  -29.2272   -1.5086   -5.1434 C   0  0  0  0  0  0  0  0  0  0  0  0
  -30.2041   -0.5181   -5.3132 C   0  0  0  0  0  0  0  0  0  0  0  0
  -29.8523    0.8268   -5.5127 C   0  0  0  0  0  0  0  0  0  0  0  0
  -28.5058    1.1885   -5.4863 C   0  0  0  0  0  0  0  0  0  0  0  0
  -27.5223    0.2075   -5.3112 C   0  0  0  0  0  0  0  0  0  0  0  0
  -27.8880   -1.1243   -5.1276 C   0  0  0  0  0  0  0  0  0  0  0  0
  -26.9306   -2.0552   -4.9952 F   0  0  0  0  0  0  0  0  0  0  0  0
  -30.9130    1.6620   -5.6932 O   0  0  0  0  0  0  0  0  0  0  0  0
  -31.3901    1.9515   -6.9995 C   0  0  0  0  0  0  0  0  0  0  0  0
  -30.5509    1.5761   -7.9871 F   0  0  0  0  0  0  0  0  0  0  0  0
  -32.5596    1.2978   -7.1841 F   0  0  0  0  0  0  0  0  0  0  0  0
  -31.6297    3.2763   -7.1094 F   0  0  0  0  0  0  0  0  0  0  0  0
  -29.1088   -9.3297   -9.4698 O   0  0  0  0  0  0  0  0  0  0  0  0
  -28.2180  -10.3414   -9.1703 C   0  0  0  0  0  0  0  0  0  0  0  0
  -28.0619  -11.4783   -9.9632 C   0  0  0  0  0  0  0  0  0  0  0  0
  -27.2254  -12.4660   -9.5024 C   0  0  0  0  0  0  0  0  0  0  0  0
  -26.5036  -12.3559   -8.3748 N   0  0  0  0  0  0  0  0  0  0  0  0
  -26.5814  -11.2239   -7.6556 C   0  0  0  0  0  0  0  0  0  0  0  0
  -27.4355  -10.1851   -8.0249 C   0  0  0  0  0  0  0  0  0  0  0  0
  -25.7914  -11.0836   -6.5004 N   0  0  0  0  0  0  0  0  0  0  0  0
  -26.2288  -11.4046   -5.2315 C   0  0  0  0  0  0  0  0  0  0  0  0
  -27.3349  -11.8267   -4.9059 O   0  0  0  0  0  0  0  0  0  0  0  0
  -24.8630  -10.7144   -6.6153 H   0  0  0  0  0  0  0  0  0  0  0  0
  -25.2596  -11.1977   -4.1121 C   0  0  0  0  0  0  0  0  0  0  0  0
  -25.2501   -9.8749   -3.3814 C   0  0  0  0  0  0  0  0  0  0  0  0
  -24.0257  -10.3374   -4.1177 C   0  0  0  0  0  0  0  0  0  0  0  0
  1  2  1  0  0  0
  2  3  1  0  0  0
  2  7  2  0  0  0
  3  4  2  0  0  0
  4 26  1  0  0  0
  4  5  1  0  0  0
 26 27  1  0  0  0
 27 28  1  0  0  0
 27 32  2  0  0  0
 28 29  2  0  0  0
 29 30  1  0  0  0
 30 31  2  0  0  0
 31 33  1  0  0  0
 31 32  1  0  0  0
 33 34  1  0  0  0
 33 36  1  0  0  0
 34 35  2  0  0  0
 34 37  1  0  0  0
 37 38  1  0  0  0
 37 39  1  0  0  0
 38 39  1  0  0  0
  5  6  2  0  0  0
  6  7  1  0  0  0
  7  8  1  0  0  0
  8  9  1  0  0  0
  8 12  1  0  0  0
  9 10  2  0  0  0
  9 11  1  0  0  0
 11 14  1  0  0  0
 11 13  1  0  0  0
 14 15  1  0  0  0
 14 19  2  0  0  0
 15 16  2  0  0  0
 16 21  1  0  0  0
 16 17  1  0  0  0
 21 22  1  0  0  0
 22 23  1  0  0  0
 22 24  1  0  0  0
 22 25  1  0  0  0
 17 18  2  0  0  0
 18 19  1  0  0  0
 19 20  1  0  0  0
M  END
> <minimizedAffinity>
-7.82680

$$$$
