CHEMBL3953937


 31 34  0  0  0  0  0  0  0  0999 V2000
  -13.5233   -3.4319  -14.7231 C   0  0  0  0  0  0  0  0  0  0  0  0
  -13.7197   -2.1696  -15.2982 C   0  0  0  0  0  0  0  0  0  0  0  0
  -13.2657   -0.9896  -14.6601 C   0  0  0  0  0  0  0  0  0  0  0  0
  -13.6275    0.3204  -15.0118 C   0  0  0  0  0  0  0  0  0  0  0  0
  -13.1591    1.3926  -14.3433 N   0  0  0  0  0  0  0  0  0  0  0  0
  -12.3423    1.1609  -13.3159 C   0  0  0  0  0  0  0  0  0  0  0  0
  -11.9673   -0.0383  -12.8735 N   0  0  0  0  0  0  0  0  0  0  0  0
  -12.4537   -1.0926  -13.5333 C   0  0  0  0  0  0  0  0  0  0  0  0
  -12.1765   -2.3508  -13.0300 C   0  0  0  0  0  0  0  0  0  0  0  0
  -12.7689   -3.5195  -13.5431 C   0  0  0  0  0  0  0  0  0  0  0  0
  -13.4686   -5.1127  -16.4168 C   0  0  0  0  0  0  0  0  0  0  0  0
  -14.0673   -4.5813  -15.2309 O   0  0  0  0  0  0  0  0  0  0  0  0
  -14.5898    0.5351  -16.0325 N   0  0  0  0  0  0  0  0  0  0  0  0
  -14.1360    0.6116  -16.9396 H   0  0  0  0  0  0  0  0  0  0  0  0
  -15.6813    1.4296  -15.9100 C   0  0  0  0  0  0  0  0  0  0  0  0
  -15.6108    2.7363  -16.4183 C   0  0  0  0  0  0  0  0  0  0  0  0
  -16.7184    3.5843  -16.3729 C   0  0  0  0  0  0  0  0  0  0  0  0
  -17.9090    3.1399  -15.8008 C   0  0  0  0  0  0  0  0  0  0  0  0
  -17.9777    1.8604  -15.2470 C   0  0  0  0  0  0  0  0  0  0  0  0
  -19.4527    1.3288  -14.5365 Cl  0  0  0  0  0  0  0  0  0  0  0  0
  -16.8664    1.0190  -15.2902 C   0  0  0  0  0  0  0  0  0  0  0  0
  -16.9255   -0.2173  -14.7644 F   0  0  0  0  0  0  0  0  0  0  0  0
  -12.6594   -4.7460  -12.8891 O   0  0  0  0  0  0  0  0  0  0  0  0
  -12.7992   -4.6265  -11.4626 C   0  0  0  0  0  0  0  0  0  0  0  0
  -13.8962   -5.4914  -10.8188 C   0  0  0  0  0  0  0  0  0  0  0  0
  -15.0419   -5.8613  -11.7689 C   0  0  0  0  0  0  0  0  0  0  0  0
  -15.7283   -4.6482  -12.2492 N   0  0  0  0  0  0  0  0  0  0  0  0
  -16.7935   -5.0002  -13.1837 C   0  0  0  0  0  0  0  0  0  0  0  0
  -16.2554   -3.8932  -11.0970 C   0  0  0  0  0  0  0  0  0  0  0  0
  -15.2034   -3.6495   -9.9885 C   0  0  0  0  0  0  0  0  0  0  0  0
  -14.4497   -4.8284   -9.6507 O   0  0  0  0  0  0  0  0  0  0  0  0
 11 12  1  0  0  0
 12  1  1  0  0  0
  1  2  1  0  0  0
  1 10  2  0  0  0
  2  3  2  0  0  0
  3  4  1  0  0  0
  3  8  1  0  0  0
  4 13  1  0  0  0
  4  5  2  0  0  0
 13 15  1  0  0  0
 13 14  1  0  0  0
 15 16  1  0  0  0
 15 21  2  0  0  0
 16 17  2  0  0  0
 17 18  1  0  0  0
 18 19  2  0  0  0
 19 20  1  0  0  0
 19 21  1  0  0  0
 21 22  1  0  0  0
  5  6  1  0  0  0
  6  7  2  0  0  0
  7  8  1  0  0  0
  8  9  2  0  0  0
  9 10  1  0  0  0
 10 23  1  0  0  0
 23 24  1  0  0  0
 24 25  1  0  0  0
 25 26  1  0  0  0
 25 31  1  0  0  0
 26 27  1  0  0  0
 27 28  1  0  0  0
 27 29  1  0  0  0
 29 30  1  0  0  0
 30 31  1  0  0  0
M  END
> <minimizedAffinity>
-6.99360

$$$$
