CHEMBL2018759


 31 33  0  0  0  0  0  0  0  0999 V2000
  -30.2141   -7.4969   -5.5022 N   0  0  0  0  0  0  0  0  0  0  0  0
  -29.3703   -7.9599   -5.1853 H   0  0  0  0  0  0  0  0  0  0  0  0
  -28.5697  -10.3365   -9.3771 C   0  0  0  0  0  0  0  0  0  0  0  0
  -29.9773  -10.3477   -9.3779 C   0  0  0  0  0  0  0  0  0  0  0  0
  -30.7315   -9.6889   -8.4163 C   0  0  0  0  0  0  0  0  0  0  0  0
  -32.0608   -9.6751   -8.5298 N   0  0  0  0  0  0  0  0  0  0  0  0
  -32.7322   -8.9797   -7.6064 C   0  0  0  0  0  0  0  0  0  0  0  0
  -32.1919   -8.2892   -6.5972 N   0  0  0  0  0  0  0  0  0  0  0  0
  -30.8496   -8.3023   -6.4926 C   0  0  0  0  0  0  0  0  0  0  0  0
  -30.0544   -9.0367   -7.3841 C   0  0  0  0  0  0  0  0  0  0  0  0
  -28.6525   -9.1423   -7.2951 C   0  0  0  0  0  0  0  0  0  0  0  0
  -27.8995   -9.7728   -8.2872 C   0  0  0  0  0  0  0  0  0  0  0  0
  -27.3646   -9.9482  -11.3803 C   0  0  0  0  0  0  0  0  0  0  0  0
  -27.8531  -10.8800  -10.4107 O   0  0  0  0  0  0  0  0  0  0  0  0
  -26.5646   -9.7006   -8.0145 O   0  0  0  0  0  0  0  0  0  0  0  0
  -25.9093  -10.7970   -7.4048 C   0  0  0  0  0  0  0  0  0  0  0  0
  -30.0535   -6.1011   -5.6151 C   0  0  0  0  0  0  0  0  0  0  0  0
  -30.1940   -5.4753   -6.8481 C   0  0  0  0  0  0  0  0  0  0  0  0
  -29.9518   -4.1099   -6.9804 C   0  0  0  0  0  0  0  0  0  0  0  0
  -29.5335   -3.3278   -5.8944 C   0  0  0  0  0  0  0  0  0  0  0  0
  -29.4325   -3.9389   -4.6285 C   0  0  0  0  0  0  0  0  0  0  0  0
  -28.9977   -3.2218   -3.3799 C   0  0  0  0  0  0  0  0  0  0  0  0
  -29.7268   -5.3169   -4.5038 C   0  0  0  0  0  0  0  0  0  0  0  0
  -29.2179   -1.9622   -6.0852 N   0  0  0  0  0  0  0  0  0  0  0  0
  -28.1840   -1.4883   -6.8634 C   0  0  0  0  0  0  0  0  0  0  0  0
  -27.3503   -2.1567   -7.4570 O   0  0  0  0  0  0  0  0  0  0  0  0
  -29.6950   -1.2611   -5.5394 H   0  0  0  0  0  0  0  0  0  0  0  0
  -28.1767   -0.1243   -6.8649 O   0  0  0  0  0  0  0  0  0  0  0  0
  -29.0131    0.4549   -5.8387 C   0  0  0  0  0  0  0  0  0  0  0  0
  -28.1528    1.0814   -4.7430 C   0  0  0  0  0  0  0  0  0  0  0  0
  -29.9140    1.5062   -6.4740 C   0  0  0  0  0  0  0  0  0  0  0  0
 13 14  1  0  0  0
 14  3  1  0  0  0
  3  4  1  0  0  0
  3 12  2  0  0  0
  4  5  2  0  0  0
  5  6  1  0  0  0
  5 10  1  0  0  0
  6  7  2  0  0  0
  7  8  1  0  0  0
  8  9  2  0  0  0
  9  1  1  0  0  0
  9 10  1  0  0  0
  1 17  1  0  0  0
  1  2  1  0  0  0
 17 18  1  0  0  0
 17 23  2  0  0  0
 18 19  2  0  0  0
 19 20  1  0  0  0
 20 24  1  0  0  0
 20 21  2  0  0  0
 24 25  1  0  0  0
 24 27  1  0  0  0
 25 26  2  0  0  0
 25 28  1  0  0  0
 28 29  1  0  0  0
 29 30  1  0  0  0
 29 31  1  0  0  0
 21 22  1  0  0  0
 21 23  1  0  0  0
 10 11  2  0  0  0
 11 12  1  0  0  0
 12 15  1  0  0  0
 15 16  1  0  0  0
M  END
> <minimizedAffinity>
-8.16525

$$$$
