CHEMBL3969061


 31 34  0  0  0  0  0  0  0  0999 V2000
  -28.5158   -8.0864   -5.1478 C   0  0  0  0  0  0  0  0  0  0  0  0
  -29.0512   -8.0387   -3.8559 C   0  0  0  0  0  0  0  0  0  0  0  0
  -29.6047   -6.8813   -3.3884 C   0  0  0  0  0  0  0  0  0  0  0  0
  -29.4964   -5.7155   -4.0874 C   0  0  0  0  0  0  0  0  0  0  0  0
  -30.2320   -4.6996   -3.5794 N   0  0  0  0  0  0  0  0  0  0  0  0
  -30.0515   -3.4827   -4.1202 C   0  0  0  0  0  0  0  0  0  0  0  0
  -29.0845   -3.2406   -5.0707 C   0  0  0  0  0  0  0  0  0  0  0  0
  -28.4027   -4.2683   -5.6691 N   0  0  0  0  0  0  0  0  0  0  0  0
  -28.6509   -5.5770   -5.2100 C   0  0  0  0  0  0  0  0  0  0  0  0
  -28.2152   -6.8413   -5.7676 C   0  0  0  0  0  0  0  0  0  0  0  0
  -28.7272   -1.8420   -5.2702 C   0  0  0  0  0  0  0  0  0  0  0  0
  -27.6628   -1.0944   -4.6993 C   0  0  0  0  0  0  0  0  0  0  0  0
  -27.7698    0.2223   -4.9215 N   0  0  0  0  0  0  0  0  0  0  0  0
  -28.9044    0.3237   -5.6332 N   0  0  0  0  0  0  0  0  0  0  0  0
  -29.2026    1.5299   -6.3689 C   0  0  0  0  0  0  0  0  0  0  0  0
  -29.6006   -0.8536   -5.6986 C   0  0  0  0  0  0  0  0  0  0  0  0
  -28.5502   -9.3976   -5.7621 N   0  0  0  0  0  0  0  0  0  0  0  0
  -31.4994   -9.8667   -8.0331 C   0  0  0  0  0  0  0  0  0  0  0  0
  -30.9079  -10.4900   -9.1325 C   0  0  0  0  0  0  0  0  0  0  0  0
  -29.5472  -10.7729   -9.1174 C   0  0  0  0  0  0  0  0  0  0  0  0
  -28.7835  -10.4459   -7.9890 C   0  0  0  0  0  0  0  0  0  0  0  0
  -29.3355   -9.8229   -6.8585 C   0  0  0  0  0  0  0  0  0  0  0  0
  -30.7127   -9.5260   -6.9136 C   0  0  0  0  0  0  0  0  0  0  0  0
  -33.1300   -8.3975   -7.1254 C   0  0  0  0  0  0  0  0  0  0  0  0
  -32.8209   -9.4942   -7.9874 O   0  0  0  0  0  0  0  0  0  0  0  0
  -28.8373  -11.3425  -10.1411 O   0  0  0  0  0  0  0  0  0  0  0  0
  -28.7150  -10.5890  -11.3420 C   0  0  0  0  0  0  0  0  0  0  0  0
  -28.2332  -10.4240   -4.6946 C   0  0  0  0  0  0  0  0  0  0  0  0
  -26.7788  -10.9633   -4.6554 C   0  0  0  0  0  0  0  0  0  0  0  0
  -25.8573  -10.3503   -5.7162 C   0  0  0  0  0  0  0  0  0  0  0  0
  -26.1672  -10.6517   -3.2752 C   0  0  0  0  0  0  0  0  0  0  0  0
 24 25  1  0  0  0
 25 18  1  0  0  0
 18 19  1  0  0  0
 18 23  2  0  0  0
 19 20  2  0  0  0
 20 26  1  0  0  0
 20 21  1  0  0  0
 26 27  1  0  0  0
 21 22  2  0  0  0
 22 17  1  0  0  0
 22 23  1  0  0  0
 17 28  1  0  0  0
 17  1  1  0  0  0
 28 29  1  0  0  0
 29 30  1  0  0  0
 29 31  1  0  0  0
  1  2  1  0  0  0
  1 10  2  0  0  0
  2  3  2  0  0  0
  3  4  1  0  0  0
  4  5  1  0  0  0
  4  9  2  0  0  0
  5  6  2  0  0  0
  6  7  1  0  0  0
  7 11  1  0  0  0
  7  8  2  0  0  0
 11 12  1  0  0  0
 11 16  2  0  0  0
 12 13  2  0  0  0
 13 14  1  0  0  0
 14 15  1  0  0  0
 14 16  1  0  0  0
  8  9  1  0  0  0
  9 10  1  0  0  0
M  END
> <minimizedAffinity>
-7.43477

$$$$
