CHEMBL2071197


 30 33  0  0  0  0  0  0  0  0999 V2000
  -13.9140   -0.6300  -13.4193 C   0  0  0  0  0  0  0  0  0  0  0  0
  -13.9029    0.3290  -14.3971 C   0  0  0  0  0  0  0  0  0  0  0  0
  -14.9958    0.7101  -15.0578 N   0  0  0  0  0  0  0  0  0  0  0  0
  -16.1618    0.1569  -14.6987 C   0  0  0  0  0  0  0  0  0  0  0  0
  -16.3044   -0.7017  -13.6715 N   0  0  0  0  0  0  0  0  0  0  0  0
  -15.1755   -1.1206  -13.0531 C   0  0  0  0  0  0  0  0  0  0  0  0
  -11.9114   -1.8787  -13.4993 C   0  0  0  0  0  0  0  0  0  0  0  0
  -12.7790   -1.0218  -12.7715 O   0  0  0  0  0  0  0  0  0  0  0  0
  -17.2799    0.5045  -15.4623 N   0  0  0  0  0  0  0  0  0  0  0  0
  -17.2807    0.0353  -16.3548 H   0  0  0  0  0  0  0  0  0  0  0  0
  -18.2483    1.3555  -15.0567 C   0  0  0  0  0  0  0  0  0  0  0  0
  -18.0959    2.6945  -14.6249 C   0  0  0  0  0  0  0  0  0  0  0  0
  -19.2610    3.2655  -14.3120 N   0  0  0  0  0  0  0  0  0  0  0  0
  -20.1535    2.2842  -14.5352 N   0  0  0  0  0  0  0  0  0  0  0  0
  -21.5517    2.5332  -14.2861 C   0  0  0  0  0  0  0  0  0  0  0  0
  -19.5981    1.1219  -15.0006 C   0  0  0  0  0  0  0  0  0  0  0  0
  -15.3523   -2.1073  -12.0686 N   0  0  0  0  0  0  0  0  0  0  0  0
  -14.9878   -1.8024  -11.1633 H   0  0  0  0  0  0  0  0  0  0  0  0
  -15.1034   -3.4935  -12.4392 C   0  0  0  0  0  0  0  0  0  0  0  0
  -14.5163   -4.4763  -11.3926 C   0  0  0  0  0  0  0  0  0  0  0  0
  -15.3343   -5.7637  -11.6958 C   0  0  0  0  0  0  0  0  0  0  0  0
  -15.1828   -6.1640  -13.1554 C   0  0  0  0  0  0  0  0  0  0  0  0
  -15.8775   -5.2839  -13.8961 C   0  0  0  0  0  0  0  0  0  0  0  0
  -16.3914   -4.2346  -12.9339 C   0  0  0  0  0  0  0  0  0  0  0  0
  -16.7484   -5.1775  -11.7817 C   0  0  0  0  0  0  0  0  0  0  0  0
  -14.6344   -4.0857   -9.9310 C   0  0  0  0  0  0  0  0  0  0  0  0
  -13.8659   -4.8313   -9.0810 N   0  0  0  0  0  0  0  0  0  0  0  0
  -15.3317   -3.1800   -9.4919 O   0  0  0  0  0  0  0  0  0  0  0  0
  -13.0732   -5.3640   -9.4121 H   0  0  0  0  0  0  0  0  0  0  0  0
  -13.8578   -4.5339   -8.1132 H   0  0  0  0  0  0  0  0  0  0  0  0
  7  8  1  0  0  0
  8  1  1  0  0  0
  1  2  1  0  0  0
  1  6  2  0  0  0
  2  3  2  0  0  0
  3  4  1  0  0  0
  4  9  1  0  0  0
  4  5  2  0  0  0
  9 11  1  0  0  0
  9 10  1  0  0  0
 11 12  1  0  0  0
 11 16  2  0  0  0
 12 13  2  0  0  0
 13 14  1  0  0  0
 14 15  1  0  0  0
 14 16  1  0  0  0
  5  6  1  0  0  0
  6 17  1  0  0  0
 17 18  1  0  0  0
 19 20  1  0  0  0
 19 24  1  0  0  0
 19 17  1  0  0  0
 20 26  1  0  0  0
 20 21  1  0  0  0
 26 27  1  0  0  0
 26 28  2  0  0  0
 27 29  1  0  0  0
 27 30  1  0  0  0
 21 22  1  0  0  0
 21 25  1  0  0  0
 22 23  2  0  0  0
 23 24  1  0  0  0
 24 25  1  0  0  0
M  END
> <minimizedAffinity>
-7.12209

$$$$
