CHEMBL1082404


 45 49  0  0  0  0  0  0  0  0999 V2000
  -20.2484   11.2337  -19.4755 C   0  0  0  0  0  0  0  0  0  0  0  0
  -20.4151   10.8816  -18.0319 C   0  0  0  0  0  0  0  0  0  0  0  0
  -21.4633   11.0993  -17.2933 N   0  0  0  0  0  0  0  0  0  0  0  0
  -22.5196   11.7143  -17.9097 C   0  0  0  0  0  0  0  0  0  0  0  0
  -23.7726   12.1162  -17.4639 C   0  0  0  0  0  0  0  0  0  0  0  0
  -24.3914   12.6590  -18.6149 C   0  0  0  0  0  0  0  0  0  0  0  0
  -23.6212   12.6412  -19.6945 N   0  0  0  0  0  0  0  0  0  0  0  0
  -22.4542   12.0941  -19.2528 N   0  0  0  0  0  0  0  0  0  0  0  0
  -21.2923   11.8663  -20.0497 C   0  0  0  0  0  0  0  0  0  0  0  0
  -21.3373   12.3145  -21.3735 N   0  0  0  0  0  0  0  0  0  0  0  0
  -22.3006   12.4672  -21.6808 H   0  0  0  0  0  0  0  0  0  0  0  0
  -20.7731   11.7723  -22.0169 H   0  0  0  0  0  0  0  0  0  0  0  0
  -16.5410   10.1422  -21.3135 C   0  0  0  0  0  0  0  0  0  0  0  0
  -16.5998   11.2010  -20.4046 C   0  0  0  0  0  0  0  0  0  0  0  0
  -17.8171   11.5865  -19.8374 C   0  0  0  0  0  0  0  0  0  0  0  0
  -18.9929   10.9136  -20.1706 C   0  0  0  0  0  0  0  0  0  0  0  0
  -18.9527    9.9068  -21.1415 C   0  0  0  0  0  0  0  0  0  0  0  0
  -17.7336    9.5335  -21.7193 C   0  0  0  0  0  0  0  0  0  0  0  0
  -14.8117    8.3963  -21.6930 C   0  0  0  0  0  0  0  0  0  0  0  0
  -15.3243    7.4265  -21.1560 O   0  0  0  0  0  0  0  0  0  0  0  0
  -15.3364    9.6508  -21.8453 N   0  0  0  0  0  0  0  0  0  0  0  0
  -14.7614   10.2724  -22.3963 H   0  0  0  0  0  0  0  0  0  0  0  0
  -13.5408    8.4024  -22.1787 O   0  0  0  0  0  0  0  0  0  0  0  0
  -12.6148    9.1030  -21.3391 C   0  0  0  0  0  0  0  0  0  0  0  0
  -12.0289    8.1090  -19.0792 C   0  0  0  0  0  0  0  0  0  0  0  0
  -12.9543    9.0515  -19.8461 C   0  0  0  0  0  0  0  0  0  0  0  0
  -12.8499   10.4691  -19.2746 C   0  0  0  0  0  0  0  0  0  0  0  0
  -24.3340   11.9970  -16.1244 C   0  0  0  0  0  0  0  0  0  0  0  0
  -23.4706   11.9997  -15.0193 C   0  0  0  0  0  0  0  0  0  0  0  0
  -23.9727   11.9581  -13.7268 C   0  0  0  0  0  0  0  0  0  0  0  0
  -25.3510   11.9090  -13.5177 C   0  0  0  0  0  0  0  0  0  0  0  0
  -26.2527   11.8771  -14.5895 C   0  0  0  0  0  0  0  0  0  0  0  0
  -25.7164   11.9250  -15.8903 C   0  0  0  0  0  0  0  0  0  0  0  0
  -27.6170   11.7395  -14.3947 N   0  0  0  0  0  0  0  0  0  0  0  0
  -28.2403   12.0847  -13.1098 C   0  0  0  0  0  0  0  0  0  0  0  0
  -29.4378   11.1527  -12.8479 C   0  0  0  0  0  0  0  0  0  0  0  0
  -30.3587   11.1114  -13.9938 N   0  0  0  0  0  0  0  0  0  0  0  0
  -31.7315   11.2586  -13.9282 C   0  0  0  0  0  0  0  0  0  0  0  0
  -32.4482   11.1680  -14.9289 O   0  0  0  0  0  0  0  0  0  0  0  0
  -29.7118   10.8091  -15.2782 C   0  0  0  0  0  0  0  0  0  0  0  0
  -28.5394   11.7718  -15.5447 C   0  0  0  0  0  0  0  0  0  0  0  0
  -32.3671   11.5917  -12.5720 C   0  0  0  0  0  0  0  0  0  0  0  0
  -32.5557   10.3878  -11.7475 N   0  0  0  0  0  0  0  0  0  0  0  0
  -33.0618    9.6934  -12.2979 H   0  0  0  0  0  0  0  0  0  0  0  0
  -33.1569   10.6218  -10.9591 H   0  0  0  0  0  0  0  0  0  0  0  0
 25 26  1  0  0  0
 26 27  1  0  0  0
 26 24  1  0  0  0
 24 23  1  0  0  0
 23 19  1  0  0  0
 19 20  2  0  0  0
 19 21  1  0  0  0
 21 13  1  0  0  0
 21 22  1  0  0  0
 13 14  1  0  0  0
 13 18  2  0  0  0
 14 15  2  0  0  0
 15 16  1  0  0  0
 16  1  1  0  0  0
 16 17  2  0  0  0
  1  2  1  0  0  0
  1  9  2  0  0  0
  2  3  2  0  0  0
  3  4  1  0  0  0
  4  5  2  0  0  0
  4  8  1  0  0  0
  5 28  1  0  0  0
  5  6  1  0  0  0
 28 29  1  0  0  0
 28 33  2  0  0  0
 29 30  2  0  0  0
 30 31  1  0  0  0
 31 32  2  0  0  0
 32 34  1  0  0  0
 32 33  1  0  0  0
 34 35  1  0  0  0
 34 41  1  0  0  0
 35 36  1  0  0  0
 36 37  1  0  0  0
 37 38  1  0  0  0
 37 40  1  0  0  0
 38 39  2  0  0  0
 38 42  1  0  0  0
 42 43  1  0  0  0
 43 44  1  0  0  0
 43 45  1  0  0  0
 40 41  1  0  0  0
  6  7  2  0  0  0
  7  8  1  0  0  0
  8  9  1  0  0  0
  9 10  1  0  0  0
 10 11  1  0  0  0
 10 12  1  0  0  0
 17 18  1  0  0  0
M  END
> <minimizedAffinity>
-5.77461

$$$$
