CHEMBL469025


 34 38  0  0  0  0  0  0  0  0999 V2000
  -28.8671   -2.3490   -6.8364 C   0  0  0  0  0  0  0  0  0  0  0  0
  -29.3925   -1.7668   -5.6586 C   0  0  0  0  0  0  0  0  0  0  0  0
  -28.9257   -0.5452   -5.1851 C   0  0  0  0  0  0  0  0  0  0  0  0
  -27.9147    0.1040   -5.8731 C   0  0  0  0  0  0  0  0  0  0  0  0
  -27.4271   -0.4440   -7.0656 C   0  0  0  0  0  0  0  0  0  0  0  0
  -27.9209   -1.6491   -7.6136 C   0  0  0  0  0  0  0  0  0  0  0  0
  -29.4102   -3.7102   -7.1174 C   0  0  0  0  0  0  0  0  0  0  0  0
  -29.9066   -3.9189   -8.2269 O   0  0  0  0  0  0  0  0  0  0  0  0
  -28.8168   -6.5782   -5.1166 N   0  0  0  0  0  0  0  0  0  0  0  0
  -28.5447   -5.8389   -6.2170 N   0  0  0  0  0  0  0  0  0  0  0  0
  -29.3301   -4.7606   -6.1034 C   0  0  0  0  0  0  0  0  0  0  0  0
  -30.1349   -4.8369   -4.9261 C   0  0  0  0  0  0  0  0  0  0  0  0
  -31.0785   -4.0007   -4.3105 C   0  0  0  0  0  0  0  0  0  0  0  0
  -31.8483   -4.4984   -3.2568 C   0  0  0  0  0  0  0  0  0  0  0  0
  -31.7102   -5.8233   -2.8509 C   0  0  0  0  0  0  0  0  0  0  0  0
  -30.7422   -6.6617   -3.4220 C   0  0  0  0  0  0  0  0  0  0  0  0
  -29.9270   -6.1262   -4.4315 C   0  0  0  0  0  0  0  0  0  0  0  0
  -27.6821   -7.3031   -4.5789 C   0  0  0  0  0  0  0  0  0  0  0  0
  -27.8159   -8.7925   -4.3247 C   0  0  0  0  0  0  0  0  0  0  0  0
  -25.4860   -8.9442   -4.0416 C   0  0  0  0  0  0  0  0  0  0  0  0
  -26.7586   -9.2577   -3.4900 O   0  0  0  0  0  0  0  0  0  0  0  0
  -27.3881   -2.0018   -8.8527 N   0  0  0  0  0  0  0  0  0  0  0  0
  -26.3790   -2.0709   -8.8733 H   0  0  0  0  0  0  0  0  0  0  0  0
  -27.9402   -1.6525  -10.1431 C   0  0  0  0  0  0  0  0  0  0  0  0
  -26.8791   -1.5914  -11.2090 C   0  0  0  0  0  0  0  0  0  0  0  0
  -27.2053   -1.8028  -12.5558 C   0  0  0  0  0  0  0  0  0  0  0  0
  -26.2412   -1.6544  -13.5608 C   0  0  0  0  0  0  0  0  0  0  0  0
  -24.9344   -1.2889  -13.1949 C   0  0  0  0  0  0  0  0  0  0  0  0
  -23.7245   -1.0152  -13.8683 C   0  0  0  0  0  0  0  0  0  0  0  0
  -22.7293   -0.6902  -13.0384 N   0  0  0  0  0  0  0  0  0  0  0  0
  -23.3040   -0.7611  -11.8244 N   0  0  0  0  0  0  0  0  0  0  0  0
  -24.6275   -1.1106  -11.8527 C   0  0  0  0  0  0  0  0  0  0  0  0
  -25.5634   -1.2650  -10.8319 C   0  0  0  0  0  0  0  0  0  0  0  0
  -22.7414   -0.5456  -11.0088 H   0  0  0  0  0  0  0  0  0  0  0  0
 20 21  1  0  0  0
 21 19  1  0  0  0
 19 18  1  0  0  0
 18  9  1  0  0  0
  9 10  1  0  0  0
  9 17  1  0  0  0
 10 11  2  0  0  0
 11  7  1  0  0  0
 11 12  1  0  0  0
  7  8  2  0  0  0
  7  1  1  0  0  0
  1  2  1  0  0  0
  1  6  2  0  0  0
  2  3  2  0  0  0
  3  4  1  0  0  0
  4  5  2  0  0  0
  5  6  1  0  0  0
  6 22  1  0  0  0
 22 24  1  0  0  0
 22 23  1  0  0  0
 24 25  1  0  0  0
 25 26  1  0  0  0
 25 33  2  0  0  0
 26 27  2  0  0  0
 27 28  1  0  0  0
 28 29  1  0  0  0
 28 32  2  0  0  0
 29 30  2  0  0  0
 30 31  1  0  0  0
 31 32  1  0  0  0
 31 34  1  0  0  0
 32 33  1  0  0  0
 12 13  1  0  0  0
 12 17  2  0  0  0
 13 14  2  0  0  0
 14 15  1  0  0  0
 15 16  2  0  0  0
 16 17  1  0  0  0
M  END
> <minimizedAffinity>
-9.49639

$$$$
