CHEMBL2018746


 30 32  0  0  0  0  0  0  0  0999 V2000
  -17.3596    3.0697  -15.3290 N   0  0  0  0  0  0  0  0  0  0  0  0
  -17.2554    3.9332  -14.8101 H   0  0  0  0  0  0  0  0  0  0  0  0
  -16.1102    2.4205  -15.4793 C   0  0  0  0  0  0  0  0  0  0  0  0
  -15.7962    1.4451  -14.6041 N   0  0  0  0  0  0  0  0  0  0  0  0
  -14.6516    0.8002  -14.8077 C   0  0  0  0  0  0  0  0  0  0  0  0
  -13.7941    1.0171  -15.8136 N   0  0  0  0  0  0  0  0  0  0  0  0
  -14.1175    1.9784  -16.6925 C   0  0  0  0  0  0  0  0  0  0  0  0
  -13.3270    2.1715  -17.8302 C   0  0  0  0  0  0  0  0  0  0  0  0
  -13.6227    3.1320  -18.8255 C   0  0  0  0  0  0  0  0  0  0  0  0
  -14.7207    3.9676  -18.6518 C   0  0  0  0  0  0  0  0  0  0  0  0
  -15.5201    3.7672  -17.5076 C   0  0  0  0  0  0  0  0  0  0  0  0
  -15.2611    2.7587  -16.5487 C   0  0  0  0  0  0  0  0  0  0  0  0
  -12.9231    2.9313  -19.9896 O   0  0  0  0  0  0  0  0  0  0  0  0
  -12.4145    1.6290  -20.2418 C   0  0  0  0  0  0  0  0  0  0  0  0
  -15.2676    4.9559  -19.4049 O   0  0  0  0  0  0  0  0  0  0  0  0
  -14.7129    6.2452  -19.5023 C   0  0  0  0  0  0  0  0  0  0  0  0
  -21.0882    1.1444  -14.7321 C   0  0  0  0  0  0  0  0  0  0  0  0
  -19.9590    0.4133  -15.1189 C   0  0  0  0  0  0  0  0  0  0  0  0
  -18.7320    1.0553  -15.3360 C   0  0  0  0  0  0  0  0  0  0  0  0
  -18.6137    2.4371  -15.1837 C   0  0  0  0  0  0  0  0  0  0  0  0
  -19.7438    3.1485  -14.7616 C   0  0  0  0  0  0  0  0  0  0  0  0
  -20.9832    2.5257  -14.5348 C   0  0  0  0  0  0  0  0  0  0  0  0
  -22.1247    3.3451  -13.9980 C   0  0  0  0  0  0  0  0  0  0  0  0
  -22.7181   -0.0604  -13.3520 C   0  0  0  0  0  0  0  0  0  0  0  0
  -22.0698   -0.0426  -12.3108 O   0  0  0  0  0  0  0  0  0  0  0  0
  -22.3334    0.5102  -14.5518 N   0  0  0  0  0  0  0  0  0  0  0  0
  -23.0783    0.7722  -15.1835 H   0  0  0  0  0  0  0  0  0  0  0  0
  -24.0680   -0.7442  -13.4207 C   0  0  0  0  0  0  0  0  0  0  0  0
  -26.2447   -0.9101  -12.1357 C   0  0  0  0  0  0  0  0  0  0  0  0
  -24.7268   -0.8188  -12.0468 C   0  0  0  0  0  0  0  0  0  0  0  0
 29 30  1  0  0  0
 30 28  1  0  0  0
 28 24  1  0  0  0
 24 25  2  0  0  0
 24 26  1  0  0  0
 26 17  1  0  0  0
 26 27  1  0  0  0
 17 18  1  0  0  0
 17 22  2  0  0  0
 18 19  2  0  0  0
 19 20  1  0  0  0
 20  1  1  0  0  0
 20 21  2  0  0  0
  1  3  1  0  0  0
  1  2  1  0  0  0
  3  4  1  0  0  0
  3 12  2  0  0  0
  4  5  2  0  0  0
  5  6  1  0  0  0
  6  7  2  0  0  0
  7  8  1  0  0  0
  7 12  1  0  0  0
  8  9  2  0  0  0
  9 13  1  0  0  0
  9 10  1  0  0  0
 13 14  1  0  0  0
 10 15  1  0  0  0
 10 11  2  0  0  0
 15 16  1  0  0  0
 11 12  1  0  0  0
 21 22  1  0  0  0
 22 23  1  0  0  0
M  END
> <minimizedAffinity>
-7.65703

$$$$
