CHEMBL1082438


 34 40  0  0  0  0  0  0  0  0999 V2000
  -13.3312   -8.9251  -14.4094 N   0  0  0  0  0  0  0  0  0  0  0  0
  -13.1417   -9.3315  -15.7431 C   0  0  0  0  0  0  0  0  0  0  0  0
  -12.7856  -10.5541  -16.3285 C   0  0  0  0  0  0  0  0  0  0  0  0
  -12.8482  -10.6609  -17.7297 C   0  0  0  0  0  0  0  0  0  0  0  0
  -13.2449   -9.5815  -18.5327 C   0  0  0  0  0  0  0  0  0  0  0  0
  -13.3520   -8.3146  -17.9601 C   0  0  0  0  0  0  0  0  0  0  0  0
  -13.3619   -8.2037  -16.5559 C   0  0  0  0  0  0  0  0  0  0  0  0
  -13.5379   -7.2031  -15.6429 C   0  0  0  0  0  0  0  0  0  0  0  0
  -13.5844   -5.8334  -15.9522 C   0  0  0  0  0  0  0  0  0  0  0  0
  -13.4784   -4.9693  -14.8464 C   0  0  0  0  0  0  0  0  0  0  0  0
  -13.4803   -5.4326  -13.5125 C   0  0  0  0  0  0  0  0  0  0  0  0
  -14.1951   -6.6779  -13.3895 C   0  0  0  0  0  0  0  0  0  0  0  0
  -13.7387   -7.6049  -14.3492 C   0  0  0  0  0  0  0  0  0  0  0  0
  -15.7558   -6.2865  -13.3441 C   0  0  0  0  0  0  0  0  0  0  0  0
  -16.1579   -4.9978  -12.5273 C   0  0  0  0  0  0  0  0  0  0  0  0
  -14.9563   -4.3055  -11.9936 C   0  0  0  0  0  0  0  0  0  0  0  0
  -13.6738   -4.5038  -12.4403 C   0  0  0  0  0  0  0  0  0  0  0  0
  -12.8521   -3.8456  -11.5220 C   0  0  0  0  0  0  0  0  0  0  0  0
  -13.5694   -3.1375  -10.6404 N   0  0  0  0  0  0  0  0  0  0  0  0
  -14.8520   -3.3640  -11.0109 N   0  0  0  0  0  0  0  0  0  0  0  0
  -15.9103   -2.6127  -10.3832 C   0  0  0  0  0  0  0  0  0  0  0  0
  -13.5991   -3.6137  -15.3444 C   0  0  0  0  0  0  0  0  0  0  0  0
  -13.6611   -2.5209  -14.8151 O   0  0  0  0  0  0  0  0  0  0  0  0
  -13.7603   -3.7775  -16.7230 N   0  0  0  0  0  0  0  0  0  0  0  0
  -13.7627   -5.1369  -17.2211 C   0  0  0  0  0  0  0  0  0  0  0  0
  -14.0171   -2.9762  -17.2816 H   0  0  0  0  0  0  0  0  0  0  0  0
  -13.6943   -9.7938  -19.9679 C   0  0  0  0  0  0  0  0  0  0  0  0
  -14.4752  -11.0842  -20.1876 C   0  0  0  0  0  0  0  0  0  0  0  0
  -13.6159  -12.1990  -20.7479 C   0  0  0  0  0  0  0  0  0  0  0  0
  -12.9902  -11.6957  -22.0314 C   0  0  0  0  0  0  0  0  0  0  0  0
  -12.0988  -10.5026  -21.7498 C   0  0  0  0  0  0  0  0  0  0  0  0
  -12.6137   -9.5148  -20.8701 O   0  0  0  0  0  0  0  0  0  0  0  0
  -11.7966   -9.1551  -12.4283 C   0  0  0  0  0  0  0  0  0  0  0  0
  -12.9090   -9.7521  -13.2679 C   0  0  0  0  0  0  0  0  0  0  0  0
 33 34  1  0  0  0
 34  1  1  0  0  0
  1  2  1  0  0  0
  1 13  1  0  0  0
  2  3  1  0  0  0
  2  7  2  0  0  0
  3  4  2  0  0  0
  4  5  1  0  0  0
  5 27  1  0  0  0
  5  6  2  0  0  0
 27 28  1  0  0  0
 27 32  1  0  0  0
 28 29  1  0  0  0
 29 30  1  0  0  0
 30 31  1  0  0  0
 31 32  1  0  0  0
  6  7  1  0  0  0
  7  8  1  0  0  0
  8  9  1  0  0  0
  8 13  2  0  0  0
  9 10  2  0  0  0
  9 25  1  0  0  0
 10 11  1  0  0  0
 10 22  1  0  0  0
 11 12  2  0  0  0
 11 17  1  0  0  0
 12 13  1  0  0  0
 12 14  1  0  0  0
 14 15  1  0  0  0
 15 16  1  0  0  0
 16 17  2  0  0  0
 16 20  1  0  0  0
 17 18  1  0  0  0
 18 19  2  0  0  0
 19 20  1  0  0  0
 20 21  1  0  0  0
 22 23  2  0  0  0
 22 24  1  0  0  0
 24 25  1  0  0  0
 24 26  1  0  0  0
M  END
> <minimizedAffinity>
-7.75864

$$$$
