CHEMBL3644555


 34 37  0  0  0  0  0  0  0  0999 V2000
  -28.7002   -4.7191   -6.9857 C   0  0  0  0  0  0  0  0  0  0  0  0
  -29.0850   -3.9187   -5.8959 C   0  0  0  0  0  0  0  0  0  0  0  0
  -29.0458   -2.5250   -5.9498 C   0  0  0  0  0  0  0  0  0  0  0  0
  -28.6239   -1.8942   -7.1105 C   0  0  0  0  0  0  0  0  0  0  0  0
  -28.2390   -2.6515   -8.2216 C   0  0  0  0  0  0  0  0  0  0  0  0
  -28.2669   -4.0516   -8.1501 C   0  0  0  0  0  0  0  0  0  0  0  0
  -31.0354   -9.4485   -8.0590 C   0  0  0  0  0  0  0  0  0  0  0  0
  -30.6076  -10.1745   -9.1651 C   0  0  0  0  0  0  0  0  0  0  0  0
  -29.4508   -9.9361   -9.8301 N   0  0  0  0  0  0  0  0  0  0  0  0
  -28.6968   -8.9072   -9.3865 C   0  0  0  0  0  0  0  0  0  0  0  0
  -29.0259   -8.1112   -8.2909 C   0  0  0  0  0  0  0  0  0  0  0  0
  -30.2120   -8.4099   -7.5874 C   0  0  0  0  0  0  0  0  0  0  0  0
  -30.5937   -7.5818   -6.3784 C   0  0  0  0  0  0  0  0  0  0  0  0
  -29.4133   -6.7973   -5.8145 C   0  0  0  0  0  0  0  0  0  0  0  0
  -28.7437   -6.0982   -6.9062 N   0  0  0  0  0  0  0  0  0  0  0  0
  -28.1078   -6.9730   -7.8990 C   0  0  0  0  0  0  0  0  0  0  0  0
  -32.3505   -9.7386   -7.4461 C   0  0  0  0  0  0  0  0  0  0  0  0
  -33.3788   -9.1500   -7.7275 O   0  0  0  0  0  0  0  0  0  0  0  0
  -33.3083  -11.6481   -6.5299 C   0  0  0  0  0  0  0  0  0  0  0  0
  -32.2316  -10.7065   -6.5040 O   0  0  0  0  0  0  0  0  0  0  0  0
  -27.7585   -1.9038   -9.4130 C   0  0  0  0  0  0  0  0  0  0  0  0
  -28.3131   -0.8341   -9.6516 O   0  0  0  0  0  0  0  0  0  0  0  0
  -26.7995   -2.5122  -10.2045 N   0  0  0  0  0  0  0  0  0  0  0  0
  -26.5646   -3.4777   -9.9956 H   0  0  0  0  0  0  0  0  0  0  0  0
  -26.3407   -2.0046  -11.4502 C   0  0  0  0  0  0  0  0  0  0  0  0
  -27.0827   -2.1218  -12.6293 C   0  0  0  0  0  0  0  0  0  0  0  0
  -26.5584   -1.7204  -13.8572 C   0  0  0  0  0  0  0  0  0  0  0  0
  -25.2743   -1.1938  -13.9263 C   0  0  0  0  0  0  0  0  0  0  0  0
  -24.5141   -1.0376  -12.7589 C   0  0  0  0  0  0  0  0  0  0  0  0
  -25.0720   -1.4119  -11.5167 C   0  0  0  0  0  0  0  0  0  0  0  0
  -23.0951   -0.5315  -12.8415 C   0  0  0  0  0  0  0  0  0  0  0  0
  -22.3675   -0.7578  -11.7106 F   0  0  0  0  0  0  0  0  0  0  0  0
  -22.3901   -1.0986  -13.8581 F   0  0  0  0  0  0  0  0  0  0  0  0
  -23.0379    0.8138  -13.0517 F   0  0  0  0  0  0  0  0  0  0  0  0
 19 20  1  0  0  0
 20 17  1  0  0  0
 17 18  2  0  0  0
 17  7  1  0  0  0
  7  8  1  0  0  0
  7 12  2  0  0  0
  8  9  2  0  0  0
  9 10  1  0  0  0
 10 11  2  0  0  0
 11 12  1  0  0  0
 11 16  1  0  0  0
 12 13  1  0  0  0
 13 14  1  0  0  0
 14 15  1  0  0  0
 15  1  1  0  0  0
 15 16  1  0  0  0
  1  2  1  0  0  0
  1  6  2  0  0  0
  2  3  2  0  0  0
  3  4  1  0  0  0
  4  5  2  0  0  0
  5 21  1  0  0  0
  5  6  1  0  0  0
 21 22  2  0  0  0
 21 23  1  0  0  0
 23 25  1  0  0  0
 23 24  1  0  0  0
 25 26  1  0  0  0
 25 30  2  0  0  0
 26 27  2  0  0  0
 27 28  1  0  0  0
 28 29  2  0  0  0
 29 31  1  0  0  0
 29 30  1  0  0  0
 31 32  1  0  0  0
 31 33  1  0  0  0
 31 34  1  0  0  0
M  END
> <minimizedAffinity>
-10.58012

$$$$
