CHEMBL4062884


 40 44  0  0  0  0  0  0  0  0999 V2000
  -23.1731   -0.2543  -14.0759 N   0  0  0  0  0  0  0  0  0  0  0  0
  -23.5022   -0.7949  -12.8328 C   0  0  0  0  0  0  0  0  0  0  0  0
  -22.7001   -1.1055  -11.9543 O   0  0  0  0  0  0  0  0  0  0  0  0
  -23.8577   -0.3104  -14.8189 H   0  0  0  0  0  0  0  0  0  0  0  0
  -19.2734    1.1225  -15.1737 C   0  0  0  0  0  0  0  0  0  0  0  0
  -19.6812   -0.2083  -15.3715 C   0  0  0  0  0  0  0  0  0  0  0  0
  -20.9524   -0.6581  -15.0298 C   0  0  0  0  0  0  0  0  0  0  0  0
  -21.8703    0.1904  -14.4263 C   0  0  0  0  0  0  0  0  0  0  0  0
  -21.4656    1.5042  -14.1509 C   0  0  0  0  0  0  0  0  0  0  0  0
  -20.1836    2.0023  -14.5489 C   0  0  0  0  0  0  0  0  0  0  0  0
  -19.8926    3.4641  -14.2603 C   0  0  0  0  0  0  0  0  0  0  0  0
  -18.8907    3.7175  -13.3787 F   0  0  0  0  0  0  0  0  0  0  0  0
  -19.5758    4.1618  -15.3884 F   0  0  0  0  0  0  0  0  0  0  0  0
  -20.9888    4.0964  -13.7441 F   0  0  0  0  0  0  0  0  0  0  0  0
  -17.8695    1.4781  -15.6523 C   0  0  0  0  0  0  0  0  0  0  0  0
  -13.7262   -0.8753  -15.1890 C   0  0  0  0  0  0  0  0  0  0  0  0
  -14.5004    0.2340  -14.6365 N   0  0  0  0  0  0  0  0  0  0  0  0
  -14.7530    1.2558  -15.6645 C   0  0  0  0  0  0  0  0  0  0  0  0
  -15.6281    2.4098  -15.1197 C   0  0  0  0  0  0  0  0  0  0  0  0
  -16.9552    1.9879  -14.6113 N   0  0  0  0  0  0  0  0  0  0  0  0
  -16.6942    0.9355  -13.5891 C   0  0  0  0  0  0  0  0  0  0  0  0
  -15.7738   -0.2316  -14.0542 C   0  0  0  0  0  0  0  0  0  0  0  0
  -24.9235   -1.0888  -12.5449 C   0  0  0  0  0  0  0  0  0  0  0  0
  -25.7390   -1.4844  -13.6079 C   0  0  0  0  0  0  0  0  0  0  0  0
  -27.0275   -1.8841  -13.4711 N   0  0  0  0  0  0  0  0  0  0  0  0
  -27.5091   -1.9290  -12.2089 C   0  0  0  0  0  0  0  0  0  0  0  0
  -26.7673   -1.5792  -11.0807 C   0  0  0  0  0  0  0  0  0  0  0  0
  -25.4530   -1.1404  -11.2538 C   0  0  0  0  0  0  0  0  0  0  0  0
  -27.3453   -1.7337   -9.7768 C   0  0  0  0  0  0  0  0  0  0  0  0
  -27.7313   -1.7290   -8.6469 C   0  0  0  0  0  0  0  0  0  0  0  0
  -28.0721   -1.5673   -7.2585 C   0  0  0  0  0  0  0  0  0  0  0  0
  -27.6297   -0.4481   -6.5645 C   0  0  0  0  0  0  0  0  0  0  0  0
  -28.0593   -0.1050   -5.3299 N   0  0  0  0  0  0  0  0  0  0  0  0
  -28.8968   -0.9754   -4.7231 C   0  0  0  0  0  0  0  0  0  0  0  0
  -29.2628   -2.2158   -5.2490 C   0  0  0  0  0  0  0  0  0  0  0  0
  -29.9579   -3.1722   -4.4872 C   0  0  0  0  0  0  0  0  0  0  0  0
  -30.3040   -4.4038   -5.0408 C   0  0  0  0  0  0  0  0  0  0  0  0
  -30.0330   -4.6597   -6.3797 C   0  0  0  0  0  0  0  0  0  0  0  0
  -29.3454   -3.7158   -7.1445 C   0  0  0  0  0  0  0  0  0  0  0  0
  -28.8904   -2.5007   -6.5798 C   0  0  0  0  0  0  0  0  0  0  0  0
 16 17  1  0  0  0
 17 18  1  0  0  0
 17 22  1  0  0  0
 18 19  1  0  0  0
 19 20  1  0  0  0
 20 15  1  0  0  0
 20 21  1  0  0  0
 15  5  1  0  0  0
  5  6  1  0  0  0
  5 10  2  0  0  0
  6  7  2  0  0  0
  7  8  1  0  0  0
  8  1  1  0  0  0
  8  9  2  0  0  0
  1  2  1  0  0  0
  1  4  1  0  0  0
  2  3  2  0  0  0
  2 23  1  0  0  0
 23 24  1  0  0  0
 23 28  2  0  0  0
 24 25  2  0  0  0
 25 26  1  0  0  0
 26 27  2  0  0  0
 27 29  1  0  0  0
 27 28  1  0  0  0
 29 30  3  0  0  0
 30 31  1  0  0  0
 31 32  1  0  0  0
 31 40  2  0  0  0
 32 33  2  0  0  0
 33 34  1  0  0  0
 34 35  2  0  0  0
 35 36  1  0  0  0
 35 40  1  0  0  0
 36 37  2  0  0  0
 37 38  1  0  0  0
 38 39  2  0  0  0
 39 40  1  0  0  0
  9 10  1  0  0  0
 10 11  1  0  0  0
 11 12  1  0  0  0
 11 13  1  0  0  0
 11 14  1  0  0  0
 21 22  1  0  0  0
M  END
> <minimizedAffinity>
-10.98704

$$$$
