CHEMBL3694679


 40 43  0  0  0  0  0  0  0  0999 V2000
  -27.6673   -2.1239   -8.8332 C   0  0  0  0  0  0  0  0  0  0  0  0
  -28.3261   -3.4218   -8.6083 C   0  0  0  0  0  0  0  0  0  0  0  0
  -28.9573   -3.6742   -7.4497 C   0  0  0  0  0  0  0  0  0  0  0  0
  -28.9523   -2.7197   -6.4284 N   0  0  0  0  0  0  0  0  0  0  0  0
  -29.4618   -2.7497   -5.1256 C   0  0  0  0  0  0  0  0  0  0  0  0
  -29.2114   -1.4738   -4.6504 C   0  0  0  0  0  0  0  0  0  0  0  0
  -28.5299   -0.6984   -5.5534 N   0  0  0  0  0  0  0  0  0  0  0  0
  -28.3520   -1.4733   -6.6033 C   0  0  0  0  0  0  0  0  0  0  0  0
  -27.6944   -1.2058   -7.8387 C   0  0  0  0  0  0  0  0  0  0  0  0
  -25.8088   -1.4951  -12.5314 C   0  0  0  0  0  0  0  0  0  0  0  0
  -25.1617   -1.2979  -11.3310 C   0  0  0  0  0  0  0  0  0  0  0  0
  -25.7579   -1.4211  -10.1304 N   0  0  0  0  0  0  0  0  0  0  0  0
  -27.0559   -1.7735  -10.1458 C   0  0  0  0  0  0  0  0  0  0  0  0
  -27.7829   -1.9430  -11.2703 N   0  0  0  0  0  0  0  0  0  0  0  0
  -27.1545   -1.7978  -12.4531 C   0  0  0  0  0  0  0  0  0  0  0  0
  -27.9429   -2.0791  -13.5672 N   0  0  0  0  0  0  0  0  0  0  0  0
  -28.9086   -2.1915  -13.2684 H   0  0  0  0  0  0  0  0  0  0  0  0
  -27.8330   -1.3939  -14.3102 H   0  0  0  0  0  0  0  0  0  0  0  0
  -25.0152   -1.3360  -13.7507 C   0  0  0  0  0  0  0  0  0  0  0  0
  -25.4496   -1.6170  -14.8563 O   0  0  0  0  0  0  0  0  0  0  0  0
  -23.7253   -1.0504  -13.4416 O   0  0  0  0  0  0  0  0  0  0  0  0
  -21.9375    0.5286  -13.4818 C   0  0  0  0  0  0  0  0  0  0  0  0
  -23.1433   -0.0047  -14.2347 C   0  0  0  0  0  0  0  0  0  0  0  0
  -30.0440   -3.9037   -4.4138 C   0  0  0  0  0  0  0  0  0  0  0  0
  -31.4274   -3.9836   -4.2148 C   0  0  0  0  0  0  0  0  0  0  0  0
  -31.9988   -5.0706   -3.5654 C   0  0  0  0  0  0  0  0  0  0  0  0
  -31.2063   -6.1389   -3.1678 C   0  0  0  0  0  0  0  0  0  0  0  0
  -29.8322   -6.1474   -3.4155 C   0  0  0  0  0  0  0  0  0  0  0  0
  -29.2530   -5.0053   -4.0106 C   0  0  0  0  0  0  0  0  0  0  0  0
  -29.0172   -7.2712   -3.1094 N   0  0  0  0  0  0  0  0  0  0  0  0
  -28.2039   -7.9492   -3.9966 C   0  0  0  0  0  0  0  0  0  0  0  0
  -28.0375   -7.7047   -5.1842 O   0  0  0  0  0  0  0  0  0  0  0  0
  -27.5699   -9.0314   -3.4231 N   0  0  0  0  0  0  0  0  0  0  0  0
  -29.0024   -7.5751   -2.1483 H   0  0  0  0  0  0  0  0  0  0  0  0
  -27.3260   -8.9517   -2.4464 H   0  0  0  0  0  0  0  0  0  0  0  0
  -26.6737   -9.8338   -4.2718 C   0  0  0  0  0  0  0  0  0  0  0  0
  -25.1723   -9.5206   -4.1695 C   0  0  0  0  0  0  0  0  0  0  0  0
  -24.5086  -10.4382   -3.4302 F   0  0  0  0  0  0  0  0  0  0  0  0
  -24.6149   -9.5417   -5.4078 F   0  0  0  0  0  0  0  0  0  0  0  0
  -24.9315   -8.3004   -3.6469 F   0  0  0  0  0  0  0  0  0  0  0  0
 22 23  1  0  0  0
 23 21  1  0  0  0
 21 19  1  0  0  0
 19 20  2  0  0  0
 19 10  1  0  0  0
 10 11  1  0  0  0
 10 15  2  0  0  0
 11 12  2  0  0  0
 12 13  1  0  0  0
 13  1  1  0  0  0
 13 14  2  0  0  0
  1  2  1  0  0  0
  1  9  2  0  0  0
  2  3  2  0  0  0
  3  4  1  0  0  0
  4  5  1  0  0  0
  4  8  1  0  0  0
  5 24  1  0  0  0
  5  6  2  0  0  0
 24 25  1  0  0  0
 24 29  2  0  0  0
 25 26  2  0  0  0
 26 27  1  0  0  0
 27 28  2  0  0  0
 28 30  1  0  0  0
 28 29  1  0  0  0
 30 31  1  0  0  0
 30 34  1  0  0  0
 31 32  2  0  0  0
 31 33  1  0  0  0
 33 36  1  0  0  0
 33 35  1  0  0  0
 36 37  1  0  0  0
 37 38  1  0  0  0
 37 39  1  0  0  0
 37 40  1  0  0  0
  6  7  1  0  0  0
  7  8  2  0  0  0
  8  9  1  0  0  0
 14 15  1  0  0  0
 15 16  1  0  0  0
 16 17  1  0  0  0
 16 18  1  0  0  0
M  END
> <minimizedAffinity>
-10.55906

$$$$
