CHEMBL3976053


 37 40  0  0  0  0  0  0  0  0999 V2000
  -22.3384    0.7747  -13.6144 C   0  0  0  0  0  0  0  0  0  0  0  0
  -22.8178    2.0763  -13.7360 C   0  0  0  0  0  0  0  0  0  0  0  0
  -21.9784    3.0778  -14.2262 C   0  0  0  0  0  0  0  0  0  0  0  0
  -20.6654    2.8027  -14.5972 C   0  0  0  0  0  0  0  0  0  0  0  0
  -19.8775    3.7824  -15.0681 N   0  0  0  0  0  0  0  0  0  0  0  0
  -18.6121    3.4169  -15.3999 C   0  0  0  0  0  0  0  0  0  0  0  0
  -18.0938    2.1190  -15.2771 C   0  0  0  0  0  0  0  0  0  0  0  0
  -18.9145    1.1534  -14.8169 N   0  0  0  0  0  0  0  0  0  0  0  0
  -20.1760    1.4858  -14.4772 C   0  0  0  0  0  0  0  0  0  0  0  0
  -21.0173    0.4970  -13.9919 C   0  0  0  0  0  0  0  0  0  0  0  0
  -24.9843   -1.5159  -12.8265 N   0  0  0  0  0  0  0  0  0  0  0  0
  -24.4783   -0.5129  -13.5967 C   0  0  0  0  0  0  0  0  0  0  0  0
  -23.1939   -0.2938  -13.1487 C   0  0  0  0  0  0  0  0  0  0  0  0
  -22.9903   -1.2856  -12.1658 C   0  0  0  0  0  0  0  0  0  0  0  0
  -24.0805   -2.0309  -11.9600 N   0  0  0  0  0  0  0  0  0  0  0  0
  -26.3513   -2.0039  -12.8316 C   0  0  0  0  0  0  0  0  0  0  0  0
  -27.4017   -2.3919   -9.1938 C   0  0  0  0  0  0  0  0  0  0  0  0
  -26.7553   -2.5171  -10.4679 N   0  0  0  0  0  0  0  0  0  0  0  0
  -27.0858   -1.7194  -11.5376 C   0  0  0  0  0  0  0  0  0  0  0  0
  -27.8725   -0.7787  -11.4483 O   0  0  0  0  0  0  0  0  0  0  0  0
  -26.1149   -3.2963  -10.6338 H   0  0  0  0  0  0  0  0  0  0  0  0
  -16.7443    1.8615  -15.5841 N   0  0  0  0  0  0  0  0  0  0  0  0
  -15.8440    2.8598  -16.0846 C   0  0  0  0  0  0  0  0  0  0  0  0
  -16.0135    3.4099  -17.3718 C   0  0  0  0  0  0  0  0  0  0  0  0
  -15.1533    4.3976  -17.8590 C   0  0  0  0  0  0  0  0  0  0  0  0
  -14.1034    4.8534  -17.0614 C   0  0  0  0  0  0  0  0  0  0  0  0
  -13.9182    4.3426  -15.7803 C   0  0  0  0  0  0  0  0  0  0  0  0
  -14.7778    3.3446  -15.3083 C   0  0  0  0  0  0  0  0  0  0  0  0
  -15.2377    5.0112  -19.0800 O   0  0  0  0  0  0  0  0  0  0  0  0
  -14.2281    5.9594  -19.4004 C   0  0  0  0  0  0  0  0  0  0  0  0
  -12.9553    4.7376  -14.8915 O   0  0  0  0  0  0  0  0  0  0  0  0
  -11.9179    5.5689  -15.3990 C   0  0  0  0  0  0  0  0  0  0  0  0
  -16.0135    0.7135  -14.9634 C   0  0  0  0  0  0  0  0  0  0  0  0
  -16.0254    0.5647  -13.4297 C   0  0  0  0  0  0  0  0  0  0  0  0
  -14.6893    0.7128  -12.8247 N   0  0  0  0  0  0  0  0  0  0  0  0
  -14.1164   -0.1001  -13.0467 H   0  0  0  0  0  0  0  0  0  0  0  0
  -14.7971    0.7095  -11.8097 H   0  0  0  0  0  0  0  0  0  0  0  0
 17 18  1  0  0  0
 18 19  1  0  0  0
 18 21  1  0  0  0
 19 20  2  0  0  0
 19 16  1  0  0  0
 16 11  1  0  0  0
 11 12  1  0  0  0
 11 15  1  0  0  0
 12 13  2  0  0  0
 13  1  1  0  0  0
 13 14  1  0  0  0
  1  2  1  0  0  0
  1 10  2  0  0  0
  2  3  2  0  0  0
  3  4  1  0  0  0
  4  5  1  0  0  0
  4  9  2  0  0  0
  5  6  2  0  0  0
  6  7  1  0  0  0
  7 22  1  0  0  0
  7  8  2  0  0  0
 22 33  1  0  0  0
 22 23  1  0  0  0
 33 34  1  0  0  0
 34 35  1  0  0  0
 35 36  1  0  0  0
 35 37  1  0  0  0
 23 24  1  0  0  0
 23 28  2  0  0  0
 24 25  2  0  0  0
 25 29  1  0  0  0
 25 26  1  0  0  0
 29 30  1  0  0  0
 26 27  2  0  0  0
 27 31  1  0  0  0
 27 28  1  0  0  0
 31 32  1  0  0  0
  8  9  1  0  0  0
  9 10  1  0  0  0
 14 15  2  0  0  0
M  END
> <minimizedAffinity>
-9.20378

$$$$
