CHEMBL525065


 26 29  0  0  0  0  0  0  0  0999 V2000
  -28.7373   -3.7612   -7.0804 C   0  0  0  0  0  0  0  0  0  0  0  0
  -29.1752   -3.0797   -5.9524 C   0  0  0  0  0  0  0  0  0  0  0  0
  -29.9016   -3.9112   -5.1259 N   0  0  0  0  0  0  0  0  0  0  0  0
  -29.9503   -5.0699   -5.7432 C   0  0  0  0  0  0  0  0  0  0  0  0
  -30.5771   -6.2944   -5.3747 C   0  0  0  0  0  0  0  0  0  0  0  0
  -30.4769   -7.3694   -6.1799 C   0  0  0  0  0  0  0  0  0  0  0  0
  -29.7412   -7.3107   -7.4322 C   0  0  0  0  0  0  0  0  0  0  0  0
  -29.1518   -6.1572   -7.7894 C   0  0  0  0  0  0  0  0  0  0  0  0
  -29.2539   -5.0416   -6.9494 N   0  0  0  0  0  0  0  0  0  0  0  0
  -28.9054   -1.6910   -5.6002 C   0  0  0  0  0  0  0  0  0  0  0  0
  -27.6498   -1.2590   -5.1517 C   0  0  0  0  0  0  0  0  0  0  0  0
  -27.4354    0.0788   -4.8077 C   0  0  0  0  0  0  0  0  0  0  0  0
  -28.4704    1.0036   -4.9203 C   0  0  0  0  0  0  0  0  0  0  0  0
  -29.7179    0.5944   -5.3854 C   0  0  0  0  0  0  0  0  0  0  0  0
  -29.9319   -0.7437   -5.7271 C   0  0  0  0  0  0  0  0  0  0  0  0
  -28.0788   -2.1918   -8.7700 C   0  0  0  0  0  0  0  0  0  0  0  0
  -27.9681   -3.4101   -8.2167 C   0  0  0  0  0  0  0  0  0  0  0  0
  -23.9897   -1.7453  -11.0954 N   0  0  0  0  0  0  0  0  0  0  0  0
  -25.3608   -1.6045  -11.0948 C   0  0  0  0  0  0  0  0  0  0  0  0
  -25.9317   -1.1201  -12.1992 N   0  0  0  0  0  0  0  0  0  0  0  0
  -27.2706   -1.0012  -12.1753 C   0  0  0  0  0  0  0  0  0  0  0  0
  -28.0434   -1.3355  -11.0899 C   0  0  0  0  0  0  0  0  0  0  0  0
  -27.3556   -1.7986   -9.9900 C   0  0  0  0  0  0  0  0  0  0  0  0
  -26.0132   -1.9247   -9.9771 N   0  0  0  0  0  0  0  0  0  0  0  0
  -23.5810   -1.1222  -11.7769 H   0  0  0  0  0  0  0  0  0  0  0  0
  -23.6377   -1.7033  -10.1501 H   0  0  0  0  0  0  0  0  0  0  0  0
 18 19  1  0  0  0
 18 25  1  0  0  0
 18 26  1  0  0  0
 19 20  1  0  0  0
 19 24  2  0  0  0
 20 21  2  0  0  0
 21 22  1  0  0  0
 22 23  2  0  0  0
 23 16  1  0  0  0
 23 24  1  0  0  0
 16 17  2  0  0  0
 17  1  1  0  0  0
  1  2  2  0  0  0
  1  9  1  0  0  0
  2 10  1  0  0  0
  2  3  1  0  0  0
 10 11  1  0  0  0
 10 15  2  0  0  0
 11 12  2  0  0  0
 12 13  1  0  0  0
 13 14  2  0  0  0
 14 15  1  0  0  0
  3  4  2  0  0  0
  4  5  1  0  0  0
  4  9  1  0  0  0
  5  6  2  0  0  0
  6  7  1  0  0  0
  7  8  2  0  0  0
  8  9  1  0  0  0
M  END
> <minimizedAffinity>
-9.24027

$$$$
