CHEMBL3354187


 34 38  0  0  0  0  0  0  0  0999 V2000
  -29.6032   -7.0182   -6.1458 C   0  0  0  0  0  0  0  0  0  0  0  0
  -29.8164   -5.9572   -5.2705 C   0  0  0  0  0  0  0  0  0  0  0  0
  -29.4730   -4.6694   -5.6733 C   0  0  0  0  0  0  0  0  0  0  0  0
  -28.8898   -4.4909   -6.9287 C   0  0  0  0  0  0  0  0  0  0  0  0
  -28.6924   -5.6107   -7.7587 C   0  0  0  0  0  0  0  0  0  0  0  0
  -29.0766   -6.8495   -7.3701 N   0  0  0  0  0  0  0  0  0  0  0  0
  -28.6174   -3.1131   -7.0629 C   0  0  0  0  0  0  0  0  0  0  0  0
  -29.0319   -2.4571   -5.9192 C   0  0  0  0  0  0  0  0  0  0  0  0
  -29.5905   -3.4169   -5.0724 N   0  0  0  0  0  0  0  0  0  0  0  0
  -28.8748   -0.9792   -5.7200 C   0  0  0  0  0  0  0  0  0  0  0  0
  -29.8124    0.0726   -5.6542 C   0  0  0  0  0  0  0  0  0  0  0  0
  -29.2477    1.2695   -5.4685 N   0  0  0  0  0  0  0  0  0  0  0  0
  -27.9402    0.9871   -5.4038 N   0  0  0  0  0  0  0  0  0  0  0  0
  -27.6664   -0.3432   -5.5382 C   0  0  0  0  0  0  0  0  0  0  0  0
  -27.2876    1.7521   -5.2666 H   0  0  0  0  0  0  0  0  0  0  0  0
  -30.2340   -3.1153   -3.7874 C   0  0  0  0  0  0  0  0  0  0  0  0
  -31.3633   -4.0398   -3.3223 C   0  0  0  0  0  0  0  0  0  0  0  0
  -29.2151   -2.9365   -2.6608 C   0  0  0  0  0  0  0  0  0  0  0  0
  -30.0137   -8.3128   -5.7846 N   0  0  0  0  0  0  0  0  0  0  0  0
  -31.0107   -8.3886   -5.9266 H   0  0  0  0  0  0  0  0  0  0  0  0
  -27.4466  -10.8555   -5.9389 C   0  0  0  0  0  0  0  0  0  0  0  0
  -28.0180  -11.8087   -6.6879 N   0  0  0  0  0  0  0  0  0  0  0  0
  -29.2619  -11.5861   -7.1402 C   0  0  0  0  0  0  0  0  0  0  0  0
  -29.9634  -10.4349   -6.8934 C   0  0  0  0  0  0  0  0  0  0  0  0
  -29.3285   -9.5057   -6.1053 C   0  0  0  0  0  0  0  0  0  0  0  0
  -28.0898   -9.7235   -5.6221 N   0  0  0  0  0  0  0  0  0  0  0  0
  -23.5986  -10.1786   -4.5392 C   0  0  0  0  0  0  0  0  0  0  0  0
  -24.8501  -10.1590   -3.6543 C   0  0  0  0  0  0  0  0  0  0  0  0
  -25.8480  -11.2286   -4.0954 C   0  0  0  0  0  0  0  0  0  0  0  0
  -26.1557  -11.0347   -5.5056 N   0  0  0  0  0  0  0  0  0  0  0  0
  -25.0421  -11.0708   -6.4395 C   0  0  0  0  0  0  0  0  0  0  0  0
  -23.9892  -10.0450   -6.0167 C   0  0  0  0  0  0  0  0  0  0  0  0
  -22.1003  -11.3393   -3.0691 C   0  0  0  0  0  0  0  0  0  0  0  0
  -22.8923  -11.3902   -4.2438 O   0  0  0  0  0  0  0  0  0  0  0  0
 33 34  1  0  0  0
 34 27  1  0  0  0
 27 28  1  0  0  0
 27 32  1  0  0  0
 28 29  1  0  0  0
 29 30  1  0  0  0
 30 21  1  0  0  0
 30 31  1  0  0  0
 21 22  1  0  0  0
 21 26  2  0  0  0
 22 23  2  0  0  0
 23 24  1  0  0  0
 24 25  2  0  0  0
 25 19  1  0  0  0
 25 26  1  0  0  0
 19  1  1  0  0  0
 19 20  1  0  0  0
  1  2  1  0  0  0
  1  6  2  0  0  0
  2  3  2  0  0  0
  3  4  1  0  0  0
  3  9  1  0  0  0
  4  5  2  0  0  0
  4  7  1  0  0  0
  5  6  1  0  0  0
  7  8  2  0  0  0
  8 10  1  0  0  0
  8  9  1  0  0  0
 10 11  1  0  0  0
 10 14  2  0  0  0
 11 12  2  0  0  0
 12 13  1  0  0  0
 13 14  1  0  0  0
 13 15  1  0  0  0
  9 16  1  0  0  0
 16 17  1  0  0  0
 16 18  1  0  0  0
 31 32  1  0  0  0
M  END
> <minimizedAffinity>
-8.54040

$$$$
