CHEMBL2177142


 30 33  0  0  0  0  0  0  0  0999 V2000
  -30.8745   -8.5663   -7.1264 C   0  0  0  0  0  0  0  0  0  0  0  0
  -30.0163   -9.5801   -7.3102 C   0  0  0  0  0  0  0  0  0  0  0  0
  -30.7890  -10.7008   -7.8921 C   0  0  0  0  0  0  0  0  0  0  0  0
  -30.3533  -11.7847   -8.2283 O   0  0  0  0  0  0  0  0  0  0  0  0
  -32.0704  -10.2883   -7.9997 N   0  0  0  0  0  0  0  0  0  0  0  0
  -32.2065   -9.0176   -7.5688 C   0  0  0  0  0  0  0  0  0  0  0  0
  -33.2297   -8.3615   -7.5487 O   0  0  0  0  0  0  0  0  0  0  0  0
  -32.8189  -10.8480   -8.3724 H   0  0  0  0  0  0  0  0  0  0  0  0
  -28.6313   -9.6445   -7.0185 C   0  0  0  0  0  0  0  0  0  0  0  0
  -27.6501   -9.6286   -7.9857 C   0  0  0  0  0  0  0  0  0  0  0  0
  -26.4378   -9.6922   -7.3512 N   0  0  0  0  0  0  0  0  0  0  0  0
  -26.6180   -9.7626   -5.9889 C   0  0  0  0  0  0  0  0  0  0  0  0
  -25.6814   -9.8370   -4.9599 C   0  0  0  0  0  0  0  0  0  0  0  0
  -26.2162   -9.9020   -3.6839 C   0  0  0  0  0  0  0  0  0  0  0  0
  -27.5373   -9.8978   -3.3967 N   0  0  0  0  0  0  0  0  0  0  0  0
  -28.4304   -9.8172   -4.4163 C   0  0  0  0  0  0  0  0  0  0  0  0
  -27.9952   -9.7426   -5.7472 C   0  0  0  0  0  0  0  0  0  0  0  0
  -25.5374   -9.6856   -7.8118 H   0  0  0  0  0  0  0  0  0  0  0  0
  -30.5121   -5.6752   -4.7603 C   0  0  0  0  0  0  0  0  0  0  0  0
  -30.7491   -6.9549   -5.2754 C   0  0  0  0  0  0  0  0  0  0  0  0
  -30.5607   -7.2334   -6.6322 C   0  0  0  0  0  0  0  0  0  0  0  0
  -30.1430   -6.2221   -7.4967 C   0  0  0  0  0  0  0  0  0  0  0  0
  -29.9293   -4.9293   -7.0079 C   0  0  0  0  0  0  0  0  0  0  0  0
  -30.0821   -4.6542   -5.6309 C   0  0  0  0  0  0  0  0  0  0  0  0
  -32.1094   -5.0539   -3.1003 C   0  0  0  0  0  0  0  0  0  0  0  0
  -30.7637   -5.3581   -3.4503 O   0  0  0  0  0  0  0  0  0  0  0  0
  -29.5205   -3.8920   -7.8142 O   0  0  0  0  0  0  0  0  0  0  0  0
  -28.1599   -3.9410   -8.2317 C   0  0  0  0  0  0  0  0  0  0  0  0
  -29.8583   -3.3453   -5.2668 O   0  0  0  0  0  0  0  0  0  0  0  0
  -28.6200   -3.0666   -4.6247 C   0  0  0  0  0  0  0  0  0  0  0  0
 25 26  1  0  0  0
 26 19  1  0  0  0
 19 20  1  0  0  0
 19 24  2  0  0  0
 20 21  2  0  0  0
 21  1  1  0  0  0
 21 22  1  0  0  0
  1  2  2  0  0  0
  1  6  1  0  0  0
  2  9  1  0  0  0
  2  3  1  0  0  0
  9 10  2  0  0  0
  9 17  1  0  0  0
 10 11  1  0  0  0
 11 12  1  0  0  0
 11 18  1  0  0  0
 12 13  1  0  0  0
 12 17  2  0  0  0
 13 14  2  0  0  0
 14 15  1  0  0  0
 15 16  2  0  0  0
 16 17  1  0  0  0
  3  4  2  0  0  0
  3  5  1  0  0  0
  5  6  1  0  0  0
  5  8  1  0  0  0
  6  7  2  0  0  0
 22 23  2  0  0  0
 23 27  1  0  0  0
 23 24  1  0  0  0
 27 28  1  0  0  0
 24 29  1  0  0  0
 29 30  1  0  0  0
M  END
> <minimizedAffinity>
-7.26293

$$$$
