CHEMBL4438194


 38 42  0  0  0  0  0  0  0  0999 V2000
  -28.5370   -9.4371   -6.1996 N   0  0  0  0  0  0  0  0  0  0  0  0
  -28.4778   -9.9213   -5.3053 H   0  0  0  0  0  0  0  0  0  0  0  0
  -22.5944  -12.3773   -6.8729 C   0  0  0  0  0  0  0  0  0  0  0  0
  -23.9480  -11.7110   -6.9326 C   0  0  0  0  0  0  0  0  0  0  0  0
  -24.5398  -11.5725   -8.1292 C   0  0  0  0  0  0  0  0  0  0  0  0
  -25.8957  -11.0551   -8.2389 C   0  0  0  0  0  0  0  0  0  0  0  0
  -26.5051  -10.9752   -9.4893 C   0  0  0  0  0  0  0  0  0  0  0  0
  -27.7892  -10.4856   -9.5505 C   0  0  0  0  0  0  0  0  0  0  0  0
  -28.4571  -10.0381   -8.4733 N   0  0  0  0  0  0  0  0  0  0  0  0
  -27.8648  -10.0847   -7.2491 C   0  0  0  0  0  0  0  0  0  0  0  0
  -26.5884  -10.6413   -7.0954 C   0  0  0  0  0  0  0  0  0  0  0  0
  -25.9346  -10.8117   -5.7734 C   0  0  0  0  0  0  0  0  0  0  0  0
  -26.5738  -10.4824   -4.7719 O   0  0  0  0  0  0  0  0  0  0  0  0
  -24.6161  -11.3477   -5.7515 N   0  0  0  0  0  0  0  0  0  0  0  0
  -24.0262  -11.5199   -4.4561 C   0  0  0  0  0  0  0  0  0  0  0  0
  -22.7720  -10.9584   -4.1830 C   0  0  0  0  0  0  0  0  0  0  0  0
  -22.1690  -11.1420   -2.9378 C   0  0  0  0  0  0  0  0  0  0  0  0
  -22.8081  -11.9016   -1.9603 C   0  0  0  0  0  0  0  0  0  0  0  0
  -24.0572  -12.4645   -2.2208 C   0  0  0  0  0  0  0  0  0  0  0  0
  -24.6690  -12.2692   -3.4625 C   0  0  0  0  0  0  0  0  0  0  0  0
  -28.9469   -8.0878   -6.1564 C   0  0  0  0  0  0  0  0  0  0  0  0
  -30.0244   -7.6225   -6.9266 C   0  0  0  0  0  0  0  0  0  0  0  0
  -30.4476   -6.2954   -6.8704 C   0  0  0  0  0  0  0  0  0  0  0  0
  -29.7586   -5.3836   -6.0728 C   0  0  0  0  0  0  0  0  0  0  0  0
  -28.7477   -5.8528   -5.2360 C   0  0  0  0  0  0  0  0  0  0  0  0
  -28.1316   -5.0131   -4.3896 F   0  0  0  0  0  0  0  0  0  0  0  0
  -28.3411   -7.1921   -5.2722 C   0  0  0  0  0  0  0  0  0  0  0  0
  -30.0325   -4.0317   -6.0673 O   0  0  0  0  0  0  0  0  0  0  0  0
  -29.1721   -3.1861   -6.7447 C   0  0  0  0  0  0  0  0  0  0  0  0
  -28.6640   -3.4965   -8.0095 C   0  0  0  0  0  0  0  0  0  0  0  0
  -27.8904   -2.5539   -8.6548 C   0  0  0  0  0  0  0  0  0  0  0  0
  -27.5424   -1.3708   -8.1095 N   0  0  0  0  0  0  0  0  0  0  0  0
  -27.9648   -1.1137   -6.8538 C   0  0  0  0  0  0  0  0  0  0  0  0
  -27.5763    0.1319   -6.3569 N   0  0  0  0  0  0  0  0  0  0  0  0
  -28.7808   -1.9933   -6.1308 C   0  0  0  0  0  0  0  0  0  0  0  0
  -29.2737   -1.6190   -4.5153 Cl  0  0  0  0  0  0  0  0  0  0  0  0
  -26.9335    0.5444   -7.0272 H   0  0  0  0  0  0  0  0  0  0  0  0
  -27.1884    0.0603   -5.4229 H   0  0  0  0  0  0  0  0  0  0  0  0
  3  4  1  0  0  0
  4  5  2  0  0  0
  4 14  1  0  0  0
  5  6  1  0  0  0
  6  7  1  0  0  0
  6 11  2  0  0  0
  7  8  2  0  0  0
  8  9  1  0  0  0
  9 10  2  0  0  0
 10  1  1  0  0  0
 10 11  1  0  0  0
  1 21  1  0  0  0
  1  2  1  0  0  0
 21 22  1  0  0  0
 21 27  2  0  0  0
 22 23  2  0  0  0
 23 24  1  0  0  0
 24 28  1  0  0  0
 24 25  2  0  0  0
 28 29  1  0  0  0
 29 30  1  0  0  0
 29 35  2  0  0  0
 30 31  2  0  0  0
 31 32  1  0  0  0
 32 33  2  0  0  0
 33 34  1  0  0  0
 33 35  1  0  0  0
 34 37  1  0  0  0
 34 38  1  0  0  0
 35 36  1  0  0  0
 25 26  1  0  0  0
 25 27  1  0  0  0
 11 12  1  0  0  0
 12 13  2  0  0  0
 12 14  1  0  0  0
 14 15  1  0  0  0
 15 16  1  0  0  0
 15 20  2  0  0  0
 16 17  2  0  0  0
 17 18  1  0  0  0
 18 19  2  0  0  0
 19 20  1  0  0  0
M  END
> <minimizedAffinity>
-9.59058

$$$$
