CHEMBL272878


 36 40  0  0  0  0  0  0  0  0999 V2000
  -27.5900  -11.1985   -4.1874 C   0  0  0  0  0  0  0  0  0  0  0  0
  -27.4390  -10.0112   -3.4803 C   0  0  0  0  0  0  0  0  0  0  0  0
  -28.1214   -8.8528   -3.8813 C   0  0  0  0  0  0  0  0  0  0  0  0
  -28.9495   -8.8392   -5.0146 C   0  0  0  0  0  0  0  0  0  0  0  0
  -29.1088  -10.0585   -5.7032 C   0  0  0  0  0  0  0  0  0  0  0  0
  -28.4224  -11.2165   -5.3077 C   0  0  0  0  0  0  0  0  0  0  0  0
  -29.9216  -10.2261   -6.8004 O   0  0  0  0  0  0  0  0  0  0  0  0
  -30.2110   -8.9966   -7.4618 C   0  0  0  0  0  0  0  0  0  0  0  0
  -30.6769   -7.9364   -6.4793 C   0  0  0  0  0  0  0  0  0  0  0  0
  -29.6180   -7.6460   -5.4998 N   0  0  0  0  0  0  0  0  0  0  0  0
  -29.1756   -6.3601   -5.1547 C   0  0  0  0  0  0  0  0  0  0  0  0
  -28.2050   -6.1674   -4.4288 O   0  0  0  0  0  0  0  0  0  0  0  0
  -29.8785   -5.3025   -5.7132 N   0  0  0  0  0  0  0  0  0  0  0  0
  -30.8233   -5.4812   -6.0089 H   0  0  0  0  0  0  0  0  0  0  0  0
  -29.5317   -3.9286   -5.6047 C   0  0  0  0  0  0  0  0  0  0  0  0
  -29.8860   -3.1210   -4.5164 C   0  0  0  0  0  0  0  0  0  0  0  0
  -29.6089   -1.7513   -4.5110 C   0  0  0  0  0  0  0  0  0  0  0  0
  -28.9401   -1.1743   -5.5842 C   0  0  0  0  0  0  0  0  0  0  0  0
  -28.5256   -1.9800   -6.6412 C   0  0  0  0  0  0  0  0  0  0  0  0
  -27.6755   -1.2724   -7.9610 Cl  0  0  0  0  0  0  0  0  0  0  0  0
  -28.8072   -3.3504   -6.6532 C   0  0  0  0  0  0  0  0  0  0  0  0
  -26.8509  -12.2769   -3.7412 O   0  0  0  0  0  0  0  0  0  0  0  0
  -22.3463  -11.4588   -5.9439 C   0  0  0  0  0  0  0  0  0  0  0  0
  -22.1855  -11.4747   -4.5476 C   0  0  0  0  0  0  0  0  0  0  0  0
  -23.2442  -11.6534   -3.6723 C   0  0  0  0  0  0  0  0  0  0  0  0
  -22.9649  -11.7402   -2.3614 N   0  0  0  0  0  0  0  0  0  0  0  0
  -23.9827  -11.9518   -1.5064 C   0  0  0  0  0  0  0  0  0  0  0  0
  -25.2930  -12.0987   -1.9010 C   0  0  0  0  0  0  0  0  0  0  0  0
  -25.5710  -12.0569   -3.2654 C   0  0  0  0  0  0  0  0  0  0  0  0
  -24.5427  -11.7702   -4.1903 C   0  0  0  0  0  0  0  0  0  0  0  0
  -24.7261  -11.6148   -5.5859 C   0  0  0  0  0  0  0  0  0  0  0  0
  -23.6418  -11.4675   -6.4697 C   0  0  0  0  0  0  0  0  0  0  0  0
  -20.9032  -10.1166   -7.2564 C   0  0  0  0  0  0  0  0  0  0  0  0
  -21.2565  -11.4193   -6.7769 O   0  0  0  0  0  0  0  0  0  0  0  0
  -24.0526  -11.3728   -7.7706 O   0  0  0  0  0  0  0  0  0  0  0  0
  -25.4350  -11.4218   -8.0857 C   0  0  0  0  0  0  0  0  0  0  0  0
 33 34  1  0  0  0
 34 23  1  0  0  0
 23 24  1  0  0  0
 23 32  2  0  0  0
 24 25  2  0  0  0
 25 26  1  0  0  0
 25 30  1  0  0  0
 26 27  2  0  0  0
 27 28  1  0  0  0
 28 29  2  0  0  0
 29 22  1  0  0  0
 29 30  1  0  0  0
 22  1  1  0  0  0
  1  2  1  0  0  0
  1  6  2  0  0  0
  2  3  2  0  0  0
  3  4  1  0  0  0
  4  5  2  0  0  0
  4 10  1  0  0  0
  5  6  1  0  0  0
  5  7  1  0  0  0
  7  8  1  0  0  0
  8  9  1  0  0  0
  9 10  1  0  0  0
 10 11  1  0  0  0
 11 12  2  0  0  0
 11 13  1  0  0  0
 13 15  1  0  0  0
 13 14  1  0  0  0
 15 16  1  0  0  0
 15 21  2  0  0  0
 16 17  2  0  0  0
 17 18  1  0  0  0
 18 19  2  0  0  0
 19 20  1  0  0  0
 19 21  1  0  0  0
 30 31  2  0  0  0
 31 32  1  0  0  0
 32 35  1  0  0  0
 35 36  1  0  0  0
M  END
> <minimizedAffinity>
-8.88554

$$$$
