CHEMBL566003


 40 44  0  0  0  0  0  0  0  0999 V2000
  -27.0139  -10.3270   -4.2976 C   0  0  0  0  0  0  0  0  0  0  0  0
  -28.3792  -10.5687   -4.1452 C   0  0  0  0  0  0  0  0  0  0  0  0
  -29.2544   -9.5121   -3.8949 C   0  0  0  0  0  0  0  0  0  0  0  0
  -28.8035   -8.1885   -3.8647 C   0  0  0  0  0  0  0  0  0  0  0  0
  -27.4636   -7.9338   -4.1690 C   0  0  0  0  0  0  0  0  0  0  0  0
  -26.5781   -9.0033   -4.3649 C   0  0  0  0  0  0  0  0  0  0  0  0
  -25.2819   -8.7331   -4.5891 F   0  0  0  0  0  0  0  0  0  0  0  0
  -29.6686   -7.1142   -3.5466 N   0  0  0  0  0  0  0  0  0  0  0  0
  -30.3728   -6.3611   -4.4753 C   0  0  0  0  0  0  0  0  0  0  0  0
  -30.3818   -6.5677   -5.6903 O   0  0  0  0  0  0  0  0  0  0  0  0
  -29.8679   -6.9630   -2.5536 H   0  0  0  0  0  0  0  0  0  0  0  0
  -31.1694   -5.1938   -3.9526 C   0  0  0  0  0  0  0  0  0  0  0  0
  -30.4384   -3.8891   -3.9144 C   0  0  0  0  0  0  0  0  0  0  0  0
  -30.5187   -3.1758   -2.9111 O   0  0  0  0  0  0  0  0  0  0  0  0
  -29.8033   -3.5412   -5.0932 N   0  0  0  0  0  0  0  0  0  0  0  0
  -30.1877   -3.9293   -5.9469 H   0  0  0  0  0  0  0  0  0  0  0  0
  -29.1802   -2.2804   -5.2017 C   0  0  0  0  0  0  0  0  0  0  0  0
  -27.8110   -2.1367   -4.9597 C   0  0  0  0  0  0  0  0  0  0  0  0
  -27.2396   -0.8681   -4.9128 C   0  0  0  0  0  0  0  0  0  0  0  0
  -28.0405    0.2579   -5.0941 C   0  0  0  0  0  0  0  0  0  0  0  0
  -29.3987    0.1116   -5.3826 C   0  0  0  0  0  0  0  0  0  0  0  0
  -29.9657   -1.1606   -5.4726 C   0  0  0  0  0  0  0  0  0  0  0  0
  -26.0765  -11.3335   -4.4006 O   0  0  0  0  0  0  0  0  0  0  0  0
  -27.4146  -11.2935   -8.8748 C   0  0  0  0  0  0  0  0  0  0  0  0
  -26.0791  -11.4998   -9.1561 C   0  0  0  0  0  0  0  0  0  0  0  0
  -25.2660  -11.5561   -7.9923 C   0  0  0  0  0  0  0  0  0  0  0  0
  -23.9242  -11.7734   -8.0050 N   0  0  0  0  0  0  0  0  0  0  0  0
  -23.3204  -11.7680   -6.8069 C   0  0  0  0  0  0  0  0  0  0  0  0
  -23.9599  -11.5778   -5.5984 C   0  0  0  0  0  0  0  0  0  0  0  0
  -25.3515  -11.4381   -5.5777 C   0  0  0  0  0  0  0  0  0  0  0  0
  -26.0027  -11.3772   -6.8219 C   0  0  0  0  0  0  0  0  0  0  0  0
  -27.6632  -11.1133   -7.1866 S   0  0  0  0  0  0  0  0  0  0  0  0
  -28.5615  -11.2094   -9.7691 C   0  0  0  0  0  0  0  0  0  0  0  0
  -28.4777  -11.2787  -10.9950 O   0  0  0  0  0  0  0  0  0  0  0  0
  -32.4968   -9.0473   -7.6210 C   0  0  0  0  0  0  0  0  0  0  0  0
  -31.5872  -10.0236   -8.1681 N   0  0  0  0  0  0  0  0  0  0  0  0
  -31.7364  -11.3739   -8.1086 C   0  0  0  0  0  0  0  0  0  0  0  0
  -30.7139  -11.9889   -8.6608 N   0  0  0  0  0  0  0  0  0  0  0  0
  -29.8632  -10.9884   -9.1139 C   0  0  0  0  0  0  0  0  0  0  0  0
  -30.4134   -9.7558   -8.8140 C   0  0  0  0  0  0  0  0  0  0  0  0
 35 36  1  0  0  0
 36 37  1  0  0  0
 36 40  1  0  0  0
 37 38  2  0  0  0
 38 39  1  0  0  0
 39 33  1  0  0  0
 39 40  2  0  0  0
 33 34  2  0  0  0
 33 24  1  0  0  0
 24 25  2  0  0  0
 24 32  1  0  0  0
 25 26  1  0  0  0
 26 27  1  0  0  0
 26 31  2  0  0  0
 27 28  2  0  0  0
 28 29  1  0  0  0
 29 30  2  0  0  0
 30 23  1  0  0  0
 30 31  1  0  0  0
 23  1  1  0  0  0
  1  2  1  0  0  0
  1  6  2  0  0  0
  2  3  2  0  0  0
  3  4  1  0  0  0
  4  8  1  0  0  0
  4  5  2  0  0  0
  8  9  1  0  0  0
  8 11  1  0  0  0
  9 10  2  0  0  0
  9 12  1  0  0  0
 12 13  1  0  0  0
 13 14  2  0  0  0
 13 15  1  0  0  0
 15 17  1  0  0  0
 15 16  1  0  0  0
 17 18  1  0  0  0
 17 22  2  0  0  0
 18 19  2  0  0  0
 19 20  1  0  0  0
 20 21  2  0  0  0
 21 22  1  0  0  0
  5  6  1  0  0  0
  6  7  1  0  0  0
 31 32  1  0  0  0
M  END
> <minimizedAffinity>
-8.74021

$$$$
