CHEMBL98633


 21 23  0  0  0  0  0  0  0  0999 V2000
  -29.1023   -5.5159   -3.8524 C   0  0  0  0  0  0  0  0  0  0  0  0
  -30.3600   -5.1893   -3.9830 N   0  0  0  0  0  0  0  0  0  0  0  0
  -30.4571   -3.8493   -4.2807 C   0  0  0  0  0  0  0  0  0  0  0  0
  -29.2586   -3.1654   -4.4085 C   0  0  0  0  0  0  0  0  0  0  0  0
  -27.9684   -4.2579   -4.0647 S   0  0  0  0  0  0  0  0  0  0  0  0
  -29.0471   -1.7516   -4.7260 C   0  0  0  0  0  0  0  0  0  0  0  0
  -30.1203   -0.9950   -5.2252 C   0  0  0  0  0  0  0  0  0  0  0  0
  -29.9480    0.3395   -5.5919 C   0  0  0  0  0  0  0  0  0  0  0  0
  -28.6981    0.9402   -5.4674 C   0  0  0  0  0  0  0  0  0  0  0  0
  -27.6210    0.2024   -4.9756 C   0  0  0  0  0  0  0  0  0  0  0  0
  -27.7948   -1.1328   -4.6063 C   0  0  0  0  0  0  0  0  0  0  0  0
  -28.3616   -7.4306   -5.7905 O   0  0  0  0  0  0  0  0  0  0  0  0
  -28.2351   -7.6168   -4.5831 C   0  0  0  0  0  0  0  0  0  0  0  0
  -28.5678   -6.7452   -3.5693 N   0  0  0  0  0  0  0  0  0  0  0  0
  -28.2558   -6.9079   -2.6250 H   0  0  0  0  0  0  0  0  0  0  0  0
  -27.5641   -8.8710   -4.1502 C   0  0  0  0  0  0  0  0  0  0  0  0
  -26.1604   -8.8864   -4.1019 C   0  0  0  0  0  0  0  0  0  0  0  0
  -25.4854  -10.0368   -3.7003 C   0  0  0  0  0  0  0  0  0  0  0  0
  -26.2034  -11.1809   -3.3595 C   0  0  0  0  0  0  0  0  0  0  0  0
  -27.6015  -11.1782   -3.4294 C   0  0  0  0  0  0  0  0  0  0  0  0
  -28.2821  -10.0254   -3.8237 C   0  0  0  0  0  0  0  0  0  0  0  0
 12 13  2  0  0  0
 13 14  1  0  0  0
 13 16  1  0  0  0
 14  1  1  0  0  0
 14 15  1  0  0  0
  1  2  2  0  0  0
  1  5  1  0  0  0
  2  3  1  0  0  0
  3  4  2  0  0  0
  4  6  1  0  0  0
  4  5  1  0  0  0
  6  7  1  0  0  0
  6 11  2  0  0  0
  7  8  2  0  0  0
  8  9  1  0  0  0
  9 10  2  0  0  0
 10 11  1  0  0  0
 16 17  1  0  0  0
 16 21  2  0  0  0
 17 18  2  0  0  0
 18 19  1  0  0  0
 19 20  2  0  0  0
 20 21  1  0  0  0
M  END
> <minimizedAffinity>
-7.51397

$$$$
