CHEMBL1093100


 28 31  0  0  0  0  0  0  0  0999 V2000
  -29.8765   -5.5758   -5.9996 C   0  0  0  0  0  0  0  0  0  0  0  0
  -30.5853   -6.4820   -5.1871 C   0  0  0  0  0  0  0  0  0  0  0  0
  -31.2027   -6.0670   -4.0151 C   0  0  0  0  0  0  0  0  0  0  0  0
  -31.1326   -4.7359   -3.6152 C   0  0  0  0  0  0  0  0  0  0  0  0
  -30.4265   -3.8388   -4.4275 C   0  0  0  0  0  0  0  0  0  0  0  0
  -30.2061   -2.4987   -4.2281 N   0  0  0  0  0  0  0  0  0  0  0  0
  -29.4410   -1.9888   -5.2294 C   0  0  0  0  0  0  0  0  0  0  0  0
  -29.0223   -0.7173   -5.2615 N   0  0  0  0  0  0  0  0  0  0  0  0
  -28.2628   -0.4583   -6.3251 C   0  0  0  0  0  0  0  0  0  0  0  0
  -27.7242    0.8111   -6.4228 N   0  0  0  0  0  0  0  0  0  0  0  0
  -27.9933   -1.3027   -7.3260 N   0  0  0  0  0  0  0  0  0  0  0  0
  -28.4629   -2.5697   -7.2807 C   0  0  0  0  0  0  0  0  0  0  0  0
  -28.1681   -3.3525   -8.3831 N   0  0  0  0  0  0  0  0  0  0  0  0
  -29.1953   -2.9893   -6.1571 C   0  0  0  0  0  0  0  0  0  0  0  0
  -29.7964   -4.2016   -5.6323 C   0  0  0  0  0  0  0  0  0  0  0  0
  -30.5309   -1.9572   -3.4414 H   0  0  0  0  0  0  0  0  0  0  0  0
  -28.2975    1.4696   -5.9164 H   0  0  0  0  0  0  0  0  0  0  0  0
  -27.5228    1.0141   -7.3919 H   0  0  0  0  0  0  0  0  0  0  0  0
  -27.3728   -2.9907   -8.8942 H   0  0  0  0  0  0  0  0  0  0  0  0
  -28.1906   -4.3506   -8.2199 H   0  0  0  0  0  0  0  0  0  0  0  0
  -29.1090   -6.2103   -7.4654 S   0  0  0  0  0  0  0  0  0  0  0  0
  -31.6250  -11.6845   -8.4806 C   0  0  0  0  0  0  0  0  0  0  0  0
  -31.0502  -10.3166   -8.2618 C   0  0  0  0  0  0  0  0  0  0  0  0
  -31.8500   -9.2621   -7.8119 C   0  0  0  0  0  0  0  0  0  0  0  0
  -31.2989   -7.9960   -7.5816 C   0  0  0  0  0  0  0  0  0  0  0  0
  -29.9375   -7.7616   -7.7931 C   0  0  0  0  0  0  0  0  0  0  0  0
  -29.1440   -8.8166   -8.2644 C   0  0  0  0  0  0  0  0  0  0  0  0
  -29.6931  -10.0812   -8.4969 C   0  0  0  0  0  0  0  0  0  0  0  0
 22 23  1  0  0  0
 23 24  1  0  0  0
 23 28  2  0  0  0
 24 25  2  0  0  0
 25 26  1  0  0  0
 26 21  1  0  0  0
 26 27  2  0  0  0
 21  1  1  0  0  0
  1  2  1  0  0  0
  1 15  2  0  0  0
  2  3  2  0  0  0
  3  4  1  0  0  0
  4  5  2  0  0  0
  5  6  1  0  0  0
  5 15  1  0  0  0
  6  7  1  0  0  0
  6 16  1  0  0  0
  7  8  1  0  0  0
  7 14  2  0  0  0
  8  9  2  0  0  0
  9 10  1  0  0  0
  9 11  1  0  0  0
 10 17  1  0  0  0
 10 18  1  0  0  0
 11 12  2  0  0  0
 12 13  1  0  0  0
 12 14  1  0  0  0
 13 19  1  0  0  0
 13 20  1  0  0  0
 14 15  1  0  0  0
 27 28  1  0  0  0
M  END
> <minimizedAffinity>
-8.87940

$$$$
