CHEMBL380735


 28 31  0  0  0  0  0  0  0  0999 V2000
  -31.0790   -9.3725   -8.5205 C   0  0  0  0  0  0  0  0  0  0  0  0
  -30.5641   -8.2540   -7.8965 C   0  0  0  0  0  0  0  0  0  0  0  0
  -31.2994   -7.6211   -6.9176 C   0  0  0  0  0  0  0  0  0  0  0  0
  -32.5691   -7.9941   -6.7026 N   0  0  0  0  0  0  0  0  0  0  0  0
  -33.0342   -9.0240   -7.4273 C   0  0  0  0  0  0  0  0  0  0  0  0
  -32.3468   -9.7539   -8.3180 N   0  0  0  0  0  0  0  0  0  0  0  0
  -30.7315   -6.6174   -6.1553 N   0  0  0  0  0  0  0  0  0  0  0  0
  -29.4944   -5.9366   -6.5743 C   0  0  0  0  0  0  0  0  0  0  0  0
  -28.3913   -6.0328   -5.4915 C   0  0  0  0  0  0  0  0  0  0  0  0
  -28.8145   -5.6501   -4.1222 N   0  0  0  0  0  0  0  0  0  0  0  0
  -29.9905   -6.4912   -3.7850 C   0  0  0  0  0  0  0  0  0  0  0  0
  -31.1733   -6.4046   -4.7747 C   0  0  0  0  0  0  0  0  0  0  0  0
  -29.0965   -4.1980   -4.0654 C   0  0  0  0  0  0  0  0  0  0  0  0
  -27.8584   -3.2906   -4.2731 C   0  0  0  0  0  0  0  0  0  0  0  0
  -27.9408   -2.4635   -5.4948 N   0  0  0  0  0  0  0  0  0  0  0  0
  -27.3089   -1.1437   -5.3641 C   0  0  0  0  0  0  0  0  0  0  0  0
  -28.3727   -0.2440   -4.7691 C   0  0  0  0  0  0  0  0  0  0  0  0
  -29.6629   -0.7665   -5.3702 C   0  0  0  0  0  0  0  0  0  0  0  0
  -29.3463   -2.1817   -5.8421 C   0  0  0  0  0  0  0  0  0  0  0  0
  -30.2986  -10.1905   -9.3525 N   0  0  0  0  0  0  0  0  0  0  0  0
  -30.8334  -11.0122   -9.6054 H   0  0  0  0  0  0  0  0  0  0  0  0
  -26.6992  -10.7152   -8.3962 C   0  0  0  0  0  0  0  0  0  0  0  0
  -26.7733  -10.0189   -9.5768 C   0  0  0  0  0  0  0  0  0  0  0  0
  -28.0482   -9.8162  -10.0482 N   0  0  0  0  0  0  0  0  0  0  0  0
  -28.9498  -10.3145   -9.2295 C   0  0  0  0  0  0  0  0  0  0  0  0
  -28.2707  -11.1504   -7.8745 S   0  0  0  0  0  0  0  0  0  0  0  0
  -24.4997  -11.2655   -7.1647 N   0  0  0  0  0  0  0  0  0  0  0  0
  -25.4955  -11.0203   -7.7060 C   0  0  0  0  0  0  0  0  0  0  0  0
 27 28  3  0  0  0
 28 22  1  0  0  0
 22 23  2  0  0  0
 22 26  1  0  0  0
 23 24  1  0  0  0
 24 25  2  0  0  0
 25 20  1  0  0  0
 25 26  1  0  0  0
 20  1  1  0  0  0
 20 21  1  0  0  0
  1  2  1  0  0  0
  1  6  2  0  0  0
  2  3  2  0  0  0
  3  7  1  0  0  0
  3  4  1  0  0  0
  7  8  1  0  0  0
  7 12  1  0  0  0
  8  9  1  0  0  0
  9 10  1  0  0  0
 10 13  1  0  0  0
 10 11  1  0  0  0
 13 14  1  0  0  0
 14 15  1  0  0  0
 15 16  1  0  0  0
 15 19  1  0  0  0
 16 17  1  0  0  0
 17 18  1  0  0  0
 18 19  1  0  0  0
 11 12  1  0  0  0
  4  5  2  0  0  0
  5  6  1  0  0  0
M  END
> <minimizedAffinity>
-7.25068

$$$$
