CHEMBL3891979


 33 36  0  0  0  0  0  0  0  0999 V2000
  -15.3391   -1.1732  -13.6001 C   0  0  0  0  0  0  0  0  0  0  0  0
  -15.7258   -0.9401  -12.2643 C   0  0  0  0  0  0  0  0  0  0  0  0
  -15.8875   -1.9961  -11.3404 C   0  0  0  0  0  0  0  0  0  0  0  0
  -15.8384   -3.3087  -11.8369 C   0  0  0  0  0  0  0  0  0  0  0  0
  -16.0515   -4.6594  -11.3868 C   0  0  0  0  0  0  0  0  0  0  0  0
  -16.9021   -5.1789  -12.2978 N   0  0  0  0  0  0  0  0  0  0  0  0
  -16.3736   -4.6706  -13.4304 N   0  0  0  0  0  0  0  0  0  0  0  0
  -15.7724   -3.4642  -13.2225 C   0  0  0  0  0  0  0  0  0  0  0  0
  -15.3225   -2.4804  -14.0976 C   0  0  0  0  0  0  0  0  0  0  0  0
  -16.6159   -5.1005  -14.3143 H   0  0  0  0  0  0  0  0  0  0  0  0
  -15.0924   -0.0762  -14.5898 C   0  0  0  0  0  0  0  0  0  0  0  0
  -13.9699    0.0784  -15.0567 O   0  0  0  0  0  0  0  0  0  0  0  0
  -18.5452    1.3521  -15.1312 C   0  0  0  0  0  0  0  0  0  0  0  0
  -18.2126    2.5821  -15.7012 C   0  0  0  0  0  0  0  0  0  0  0  0
  -16.8994    2.9054  -16.0270 C   0  0  0  0  0  0  0  0  0  0  0  0
  -15.8856    1.9993  -15.7426 C   0  0  0  0  0  0  0  0  0  0  0  0
  -16.1770    0.8269  -15.0450 C   0  0  0  0  0  0  0  0  0  0  0  0
  -17.5136    0.4823  -14.7624 C   0  0  0  0  0  0  0  0  0  0  0  0
  -20.8465    1.7504  -14.3260 C   0  0  0  0  0  0  0  0  0  0  0  0
  -20.7024    2.9100  -13.9478 O   0  0  0  0  0  0  0  0  0  0  0  0
  -19.8923    0.9490  -14.9180 N   0  0  0  0  0  0  0  0  0  0  0  0
  -20.1817    0.0759  -15.3355 H   0  0  0  0  0  0  0  0  0  0  0  0
  -23.4802   -0.9422  -13.5015 C   0  0  0  0  0  0  0  0  0  0  0  0
  -22.2375   -0.1285  -13.6716 C   0  0  0  0  0  0  0  0  0  0  0  0
  -22.1851    1.1007  -14.2043 C   0  0  0  0  0  0  0  0  0  0  0  0
  -15.0498   -5.6362  -10.9862 C   0  0  0  0  0  0  0  0  0  0  0  0
  -13.7868   -5.6844  -11.4562 C   0  0  0  0  0  0  0  0  0  0  0  0
  -13.1354   -6.9625  -11.8308 C   0  0  0  0  0  0  0  0  0  0  0  0
  -13.8526   -7.9484  -12.4973 C   0  0  0  0  0  0  0  0  0  0  0  0
  -13.3123   -9.2344  -12.6144 C   0  0  0  0  0  0  0  0  0  0  0  0
  -12.0683   -9.5026  -12.0557 C   0  0  0  0  0  0  0  0  0  0  0  0
  -11.4083   -8.4638  -11.4224 C   0  0  0  0  0  0  0  0  0  0  0  0
  -11.9087   -7.2146  -11.2998 N   0  0  0  0  0  0  0  0  0  0  0  0
 23 24  1  0  0  0
 24 25  2  0  0  0
 25 19  1  0  0  0
 19 20  2  0  0  0
 19 21  1  0  0  0
 21 13  1  0  0  0
 21 22  1  0  0  0
 13 14  1  0  0  0
 13 18  2  0  0  0
 14 15  2  0  0  0
 15 16  1  0  0  0
 16 17  2  0  0  0
 17 11  1  0  0  0
 17 18  1  0  0  0
 11 12  2  0  0  0
 11  1  1  0  0  0
  1  2  1  0  0  0
  1  9  2  0  0  0
  2  3  2  0  0  0
  3  4  1  0  0  0
  4  5  1  0  0  0
  4  8  2  0  0  0
  5 26  1  0  0  0
  5  6  2  0  0  0
 26 27  2  0  0  0
 27 28  1  0  0  0
 28 29  1  0  0  0
 28 33  2  0  0  0
 29 30  2  0  0  0
 30 31  1  0  0  0
 31 32  2  0  0  0
 32 33  1  0  0  0
  6  7  1  0  0  0
  7  8  1  0  0  0
  7 10  1  0  0  0
  8  9  1  0  0  0
M  END
> <minimizedAffinity>
-9.98349

$$$$
