CHEMBL393862


 30 34  0  0  0  0  0  0  0  0999 V2000
  -30.2803   -7.3022   -5.7747 C   0  0  0  0  0  0  0  0  0  0  0  0
  -31.5224   -7.2745   -6.4360 C   0  0  0  0  0  0  0  0  0  0  0  0
  -31.9763   -8.3465   -7.2245 C   0  0  0  0  0  0  0  0  0  0  0  0
  -31.1379   -9.4168   -7.5038 C   0  0  0  0  0  0  0  0  0  0  0  0
  -29.8669   -9.3663   -6.9749 C   0  0  0  0  0  0  0  0  0  0  0  0
  -29.4126   -8.3354   -6.1073 C   0  0  0  0  0  0  0  0  0  0  0  0
  -27.9447   -8.5140   -5.6805 C   0  0  0  0  0  0  0  0  0  0  0  0
  -27.6658   -9.7639   -6.4430 C   0  0  0  0  0  0  0  0  0  0  0  0
  -28.7657  -10.2399   -7.1645 C   0  0  0  0  0  0  0  0  0  0  0  0
  -28.5248  -11.3250   -7.8839 N   0  0  0  0  0  0  0  0  0  0  0  0
  -27.2113  -11.5430   -7.6151 N   0  0  0  0  0  0  0  0  0  0  0  0
  -26.6478  -10.6276   -6.7477 C   0  0  0  0  0  0  0  0  0  0  0  0
  -26.7592  -12.3290   -8.0665 H   0  0  0  0  0  0  0  0  0  0  0  0
  -29.2601   -2.2619   -5.8370 C   0  0  0  0  0  0  0  0  0  0  0  0
  -29.5428   -2.7545   -4.4161 C   0  0  0  0  0  0  0  0  0  0  0  0
  -28.9002   -4.1125   -4.1237 C   0  0  0  0  0  0  0  0  0  0  0  0
  -29.2712   -5.0874   -5.1482 N   0  0  0  0  0  0  0  0  0  0  0  0
  -29.8905   -6.2804   -4.7566 C   0  0  0  0  0  0  0  0  0  0  0  0
  -30.1885   -6.5083   -3.5805 O   0  0  0  0  0  0  0  0  0  0  0  0
  -28.9381   -4.6749   -6.5142 C   0  0  0  0  0  0  0  0  0  0  0  0
  -29.5670   -3.3435   -6.8708 C   0  0  0  0  0  0  0  0  0  0  0  0
  -27.0933   -1.4545   -5.0491 O   0  0  0  0  0  0  0  0  0  0  0  0
  -27.8307   -1.7720   -5.9778 C   0  0  0  0  0  0  0  0  0  0  0  0
  -27.4245   -1.7033   -7.2626 O   0  0  0  0  0  0  0  0  0  0  0  0
  -28.0912   -1.9964   -7.9114 H   0  0  0  0  0  0  0  0  0  0  0  0
  -25.2378  -10.5988   -6.2845 C   0  0  0  0  0  0  0  0  0  0  0  0
  -24.7895  -10.0628   -5.0414 C   0  0  0  0  0  0  0  0  0  0  0  0
  -23.4262  -10.1834   -4.8824 C   0  0  0  0  0  0  0  0  0  0  0  0
  -22.6855  -10.9262   -6.2315 S   0  0  0  0  0  0  0  0  0  0  0  0
  -24.1917  -11.0999   -7.0294 C   0  0  0  0  0  0  0  0  0  0  0  0
 22 23  2  0  0  0
 23 24  1  0  0  0
 23 14  1  0  0  0
 24 25  1  0  0  0
 14 15  1  0  0  0
 14 21  1  0  0  0
 15 16  1  0  0  0
 16 17  1  0  0  0
 17 18  1  0  0  0
 17 20  1  0  0  0
 18 19  2  0  0  0
 18  1  1  0  0  0
  1  2  1  0  0  0
  1  6  2  0  0  0
  2  3  2  0  0  0
  3  4  1  0  0  0
  4  5  2  0  0  0
  5  6  1  0  0  0
  5  9  1  0  0  0
  6  7  1  0  0  0
  7  8  1  0  0  0
  8  9  1  0  0  0
  8 12  2  0  0  0
  9 10  2  0  0  0
 10 11  1  0  0  0
 11 12  1  0  0  0
 11 13  1  0  0  0
 12 26  1  0  0  0
 26 27  1  0  0  0
 26 30  2  0  0  0
 27 28  2  0  0  0
 28 29  1  0  0  0
 29 30  1  0  0  0
 20 21  1  0  0  0
M  END
> <minimizedAffinity>
-8.44196

$$$$
