CHEMBL3671569


 39 42  0  0  0  0  0  0  0  0999 V2000
  -17.9282    1.0162  -15.3094 C   0  0  0  0  0  0  0  0  0  0  0  0
  -19.2265    0.5507  -15.0907 C   0  0  0  0  0  0  0  0  0  0  0  0
  -20.2639    1.4556  -14.7731 C   0  0  0  0  0  0  0  0  0  0  0  0
  -21.5602    1.0797  -14.3875 C   0  0  0  0  0  0  0  0  0  0  0  0
  -22.4972    1.9971  -14.0803 N   0  0  0  0  0  0  0  0  0  0  0  0
  -22.1381    3.2775  -14.1289 C   0  0  0  0  0  0  0  0  0  0  0  0
  -20.9234    3.7399  -14.4350 N   0  0  0  0  0  0  0  0  0  0  0  0
  -19.9947    2.8313  -14.7447 C   0  0  0  0  0  0  0  0  0  0  0  0
  -18.7038    3.2721  -15.0216 C   0  0  0  0  0  0  0  0  0  0  0  0
  -17.6640    2.3888  -15.3270 C   0  0  0  0  0  0  0  0  0  0  0  0
  -16.1956   -0.3050  -14.2056 C   0  0  0  0  0  0  0  0  0  0  0  0
  -15.5557   -1.3545  -14.1916 O   0  0  0  0  0  0  0  0  0  0  0  0
  -16.8848    0.0710  -15.3337 N   0  0  0  0  0  0  0  0  0  0  0  0
  -17.0256   -0.7407  -15.9255 H   0  0  0  0  0  0  0  0  0  0  0  0
  -16.3304    0.0177  -11.7931 C   0  0  0  0  0  0  0  0  0  0  0  0
  -16.3033    0.5710  -13.0121 C   0  0  0  0  0  0  0  0  0  0  0  0
  -21.8905   -0.2934  -14.2360 N   0  0  0  0  0  0  0  0  0  0  0  0
  -21.8169   -0.7830  -15.1246 H   0  0  0  0  0  0  0  0  0  0  0  0
  -22.9850   -0.7566  -13.4674 C   0  0  0  0  0  0  0  0  0  0  0  0
  -22.8345   -1.0606  -12.1065 C   0  0  0  0  0  0  0  0  0  0  0  0
  -23.9348   -1.4158  -11.3247 C   0  0  0  0  0  0  0  0  0  0  0  0
  -25.1967   -1.4934  -11.9096 C   0  0  0  0  0  0  0  0  0  0  0  0
  -26.6984   -1.8873  -10.8309 Br  0  0  0  0  0  0  0  0  0  0  0  0
  -25.3612   -1.2630  -13.2727 C   0  0  0  0  0  0  0  0  0  0  0  0
  -24.2539   -0.9082  -14.0396 C   0  0  0  0  0  0  0  0  0  0  0  0
  -24.4184   -0.6672  -15.3499 F   0  0  0  0  0  0  0  0  0  0  0  0
  -16.4503    2.9892  -15.5582 O   0  0  0  0  0  0  0  0  0  0  0  0
  -16.5129    4.3647  -15.9607 C   0  0  0  0  0  0  0  0  0  0  0  0
  -15.2208    4.7745  -16.6752 C   0  0  0  0  0  0  0  0  0  0  0  0
  -14.1285    4.9830  -15.7371 N   0  0  0  0  0  0  0  0  0  0  0  0
  -13.1318    4.0458  -15.5845 C   0  0  0  0  0  0  0  0  0  0  0  0
  -13.0655    3.0418  -16.2923 O   0  0  0  0  0  0  0  0  0  0  0  0
  -14.1751    5.7604  -15.0961 H   0  0  0  0  0  0  0  0  0  0  0  0
  -12.1797    4.2912  -14.5212 C   0  0  0  0  0  0  0  0  0  0  0  0
  -11.6278    3.4799  -13.5426 C   0  0  0  0  0  0  0  0  0  0  0  0
  -10.7141    4.2599  -12.7858 C   0  0  0  0  0  0  0  0  0  0  0  0
  -10.7307    5.5312  -13.3080 C   0  0  0  0  0  0  0  0  0  0  0  0
  -11.6161    5.5416  -14.3506 N   0  0  0  0  0  0  0  0  0  0  0  0
  -11.8400    6.3355  -14.9351 H   0  0  0  0  0  0  0  0  0  0  0  0
 15 16  2  0  0  0
 16 11  1  0  0  0
 11 12  2  0  0  0
 11 13  1  0  0  0
 13  1  1  0  0  0
 13 14  1  0  0  0
  1  2  1  0  0  0
  1 10  2  0  0  0
  2  3  2  0  0  0
  3  4  1  0  0  0
  3  8  1  0  0  0
  4 17  1  0  0  0
  4  5  2  0  0  0
 17 19  1  0  0  0
 17 18  1  0  0  0
 19 20  1  0  0  0
 19 25  2  0  0  0
 20 21  2  0  0  0
 21 22  1  0  0  0
 22 23  1  0  0  0
 22 24  2  0  0  0
 24 25  1  0  0  0
 25 26  1  0  0  0
  5  6  1  0  0  0
  6  7  2  0  0  0
  7  8  1  0  0  0
  8  9  2  0  0  0
  9 10  1  0  0  0
 10 27  1  0  0  0
 27 28  1  0  0  0
 28 29  1  0  0  0
 29 30  1  0  0  0
 30 31  1  0  0  0
 30 33  1  0  0  0
 31 32  2  0  0  0
 31 34  1  0  0  0
 34 35  2  0  0  0
 34 38  1  0  0  0
 35 36  1  0  0  0
 36 37  2  0  0  0
 37 38  1  0  0  0
 38 39  1  0  0  0
M  END
> <minimizedAffinity>
-9.10421

$$$$
