CHEMBL2002202


 18 20  0  0  0  0  0  0  0  0999 V2000
  -25.6354   -1.1540  -15.8690 O   0  0  0  0  0  0  0  0  0  0  0  0
  -25.3550   -1.2432  -14.6923 C   0  0  0  0  0  0  0  0  0  0  0  0
  -26.0825   -1.8712  -13.7040 N   0  0  0  0  0  0  0  0  0  0  0  0
  -25.4640   -1.7843  -12.4033 C   0  0  0  0  0  0  0  0  0  0  0  0
  -24.2293   -0.9988  -12.6860 C   0  0  0  0  0  0  0  0  0  0  0  0
  -23.2325   -0.5749  -11.8347 C   0  0  0  0  0  0  0  0  0  0  0  0
  -22.1746    0.1706  -12.3778 C   0  0  0  0  0  0  0  0  0  0  0  0
  -22.0876    0.4837  -13.7634 C   0  0  0  0  0  0  0  0  0  0  0  0
  -23.1204    0.0268  -14.6025 C   0  0  0  0  0  0  0  0  0  0  0  0
  -24.1616   -0.6900  -14.0414 C   0  0  0  0  0  0  0  0  0  0  0  0
  -26.9598   -2.3264  -13.9119 H   0  0  0  0  0  0  0  0  0  0  0  0
  -20.9500    1.2692  -14.3037 C   0  0  0  0  0  0  0  0  0  0  0  0
  -19.8248    0.6409  -14.8703 C   0  0  0  0  0  0  0  0  0  0  0  0
  -18.7456    1.3790  -15.3699 C   0  0  0  0  0  0  0  0  0  0  0  0
  -18.7794    2.7681  -15.3246 C   0  0  0  0  0  0  0  0  0  0  0  0
  -17.4572    3.6783  -15.9418 Cl  0  0  0  0  0  0  0  0  0  0  0  0
  -19.8792    3.4224  -14.7818 C   0  0  0  0  0  0  0  0  0  0  0  0
  -20.9490    2.6777  -14.2719 C   0  0  0  0  0  0  0  0  0  0  0  0
  1  2  2  0  0  0
  2  3  1  0  0  0
  2 10  1  0  0  0
  3  4  1  0  0  0
  3 11  1  0  0  0
  4  5  1  0  0  0
  5  6  1  0  0  0
  5 10  2  0  0  0
  6  7  2  0  0  0
  7  8  1  0  0  0
  8 12  1  0  0  0
  8  9  2  0  0  0
 12 13  1  0  0  0
 12 18  2  0  0  0
 13 14  2  0  0  0
 14 15  1  0  0  0
 15 16  1  0  0  0
 15 17  2  0  0  0
 17 18  1  0  0  0
  9 10  1  0  0  0
M  END
> <minimizedAffinity>
-9.44994

$$$$
