CHEMBL2018885


 36 39  0  0  0  0  0  0  0  0999 V2000
  -27.4522   -1.7092  -10.4239 C   0  0  0  0  0  0  0  0  0  0  0  0
  -26.1394   -1.6484   -9.9871 C   0  0  0  0  0  0  0  0  0  0  0  0
  -25.1055   -1.5456  -10.9108 C   0  0  0  0  0  0  0  0  0  0  0  0
  -25.3393   -1.5218  -12.2931 C   0  0  0  0  0  0  0  0  0  0  0  0
  -26.6697   -1.6751  -12.7469 C   0  0  0  0  0  0  0  0  0  0  0  0
  -27.0652   -1.7290  -14.1995 C   0  0  0  0  0  0  0  0  0  0  0  0
  -27.7139   -1.7864  -11.7932 C   0  0  0  0  0  0  0  0  0  0  0  0
  -24.2582   -1.3320  -13.2024 N   0  0  0  0  0  0  0  0  0  0  0  0
  -23.4604   -0.1961  -13.2633 C   0  0  0  0  0  0  0  0  0  0  0  0
  -23.5600    0.7876  -12.5370 O   0  0  0  0  0  0  0  0  0  0  0  0
  -22.5429   -0.2409  -14.3066 N   0  0  0  0  0  0  0  0  0  0  0  0
  -24.1054   -2.0437  -13.8977 H   0  0  0  0  0  0  0  0  0  0  0  0
  -22.8741   -0.7152  -15.1333 H   0  0  0  0  0  0  0  0  0  0  0  0
  -21.6619    0.8557  -14.5161 C   0  0  0  0  0  0  0  0  0  0  0  0
  -22.1451    2.1497  -14.2842 C   0  0  0  0  0  0  0  0  0  0  0  0
  -21.2806    3.2434  -14.3885 C   0  0  0  0  0  0  0  0  0  0  0  0
  -19.9557    3.0487  -14.7703 C   0  0  0  0  0  0  0  0  0  0  0  0
  -19.1509    4.1172  -14.8681 F   0  0  0  0  0  0  0  0  0  0  0  0
  -19.4813    1.7691  -15.0433 C   0  0  0  0  0  0  0  0  0  0  0  0
  -17.8497    1.5315  -15.5468 Cl  0  0  0  0  0  0  0  0  0  0  0  0
  -20.3306    0.6705  -14.9093 C   0  0  0  0  0  0  0  0  0  0  0  0
  -28.5063   -1.7397   -9.5394 O   0  0  0  0  0  0  0  0  0  0  0  0
  -29.0135   -5.0401   -5.7529 C   0  0  0  0  0  0  0  0  0  0  0  0
  -28.4303   -3.8579   -5.2647 C   0  0  0  0  0  0  0  0  0  0  0  0
  -28.1526   -2.7777   -6.0799 C   0  0  0  0  0  0  0  0  0  0  0  0
  -27.7130   -1.6535   -5.5065 N   0  0  0  0  0  0  0  0  0  0  0  0
  -27.5605   -0.5917   -6.3028 C   0  0  0  0  0  0  0  0  0  0  0  0
  -27.8129   -0.5517   -7.6087 N   0  0  0  0  0  0  0  0  0  0  0  0
  -28.1932   -1.7199   -8.1746 C   0  0  0  0  0  0  0  0  0  0  0  0
  -28.3854   -2.8985   -7.4481 C   0  0  0  0  0  0  0  0  0  0  0  0
  -28.8030   -4.1400   -7.9759 C   0  0  0  0  0  0  0  0  0  0  0  0
  -29.1368   -5.2103   -7.1354 C   0  0  0  0  0  0  0  0  0  0  0  0
  -30.7923   -5.8655   -4.4331 C   0  0  0  0  0  0  0  0  0  0  0  0
  -29.4418   -6.0144   -4.8888 O   0  0  0  0  0  0  0  0  0  0  0  0
  -29.5792   -6.2901   -7.8456 O   0  0  0  0  0  0  0  0  0  0  0  0
  -28.7208   -7.4011   -8.0395 C   0  0  0  0  0  0  0  0  0  0  0  0
 33 34  1  0  0  0
 34 23  1  0  0  0
 23 24  1  0  0  0
 23 32  2  0  0  0
 24 25  2  0  0  0
 25 26  1  0  0  0
 25 30  1  0  0  0
 26 27  2  0  0  0
 27 28  1  0  0  0
 28 29  2  0  0  0
 29 22  1  0  0  0
 29 30  1  0  0  0
 22  1  1  0  0  0
  1  2  1  0  0  0
  1  7  2  0  0  0
  2  3  2  0  0  0
  3  4  1  0  0  0
  4  8  1  0  0  0
  4  5  2  0  0  0
  8  9  1  0  0  0
  8 12  1  0  0  0
  9 10  2  0  0  0
  9 11  1  0  0  0
 11 14  1  0  0  0
 11 13  1  0  0  0
 14 15  1  0  0  0
 14 21  2  0  0  0
 15 16  2  0  0  0
 16 17  1  0  0  0
 17 18  1  0  0  0
 17 19  2  0  0  0
 19 20  1  0  0  0
 19 21  1  0  0  0
  5  6  1  0  0  0
  5  7  1  0  0  0
 30 31  2  0  0  0
 31 32  1  0  0  0
 32 35  1  0  0  0
 35 36  1  0  0  0
M  END
> <minimizedAffinity>
-10.69003

$$$$
