CHEMBL604992


 41 46  0  0  0  0  0  0  0  0999 V2000
  -29.4428   -8.8993   -7.5656 C   0  0  0  0  0  0  0  0  0  0  0  0
  -29.1539   -8.9689   -6.2059 C   0  0  0  0  0  0  0  0  0  0  0  0
  -29.4510  -10.1177   -5.4459 C   0  0  0  0  0  0  0  0  0  0  0  0
  -29.2911  -10.1870   -4.0488 C   0  0  0  0  0  0  0  0  0  0  0  0
  -29.6043  -11.3026   -3.3703 N   0  0  0  0  0  0  0  0  0  0  0  0
  -30.0678  -12.3351   -4.0875 C   0  0  0  0  0  0  0  0  0  0  0  0
  -30.2721  -12.3616   -5.4104 N   0  0  0  0  0  0  0  0  0  0  0  0
  -29.9753  -11.2495   -6.0845 C   0  0  0  0  0  0  0  0  0  0  0  0
  -30.1720  -11.2063   -7.4612 C   0  0  0  0  0  0  0  0  0  0  0  0
  -29.8804  -10.0630   -8.2178 C   0  0  0  0  0  0  0  0  0  0  0  0
  -29.7172   -6.5173   -7.6629 C   0  0  0  0  0  0  0  0  0  0  0  0
  -29.3240   -7.7393   -8.2808 O   0  0  0  0  0  0  0  0  0  0  0  0
  -28.8082   -9.0408   -3.3427 N   0  0  0  0  0  0  0  0  0  0  0  0
  -28.9967   -9.1485   -2.3533 H   0  0  0  0  0  0  0  0  0  0  0  0
  -28.8739   -7.6923   -3.7577 C   0  0  0  0  0  0  0  0  0  0  0  0
  -27.7836   -7.0727   -4.3865 C   0  0  0  0  0  0  0  0  0  0  0  0
  -27.8219   -5.7080   -4.7497 C   0  0  0  0  0  0  0  0  0  0  0  0
  -28.9691   -4.9319   -4.5290 C   0  0  0  0  0  0  0  0  0  0  0  0
  -30.0870   -5.5994   -3.9950 C   0  0  0  0  0  0  0  0  0  0  0  0
  -30.0411   -6.9467   -3.6198 C   0  0  0  0  0  0  0  0  0  0  0  0
  -28.9809   -3.4647   -4.7933 C   0  0  0  0  0  0  0  0  0  0  0  0
  -29.9934   -2.6319   -4.6079 N   0  0  0  0  0  0  0  0  0  0  0  0
  -29.6800   -1.3595   -5.1059 C   0  0  0  0  0  0  0  0  0  0  0  0
  -30.5135   -0.2143   -5.1254 C   0  0  0  0  0  0  0  0  0  0  0  0
  -30.0618    0.9745   -5.7281 C   0  0  0  0  0  0  0  0  0  0  0  0
  -28.7953    1.0324   -6.2948 C   0  0  0  0  0  0  0  0  0  0  0  0
  -28.3936    2.1601   -6.8904 F   0  0  0  0  0  0  0  0  0  0  0  0
  -27.9412   -0.0575   -6.2614 C   0  0  0  0  0  0  0  0  0  0  0  0
  -28.4051   -1.2392   -5.6605 C   0  0  0  0  0  0  0  0  0  0  0  0
  -27.5792   -2.7196   -5.4853 S   0  0  0  0  0  0  0  0  0  0  0  0
  -30.0547  -10.2241   -9.5757 O   0  0  0  0  0  0  0  0  0  0  0  0
  -28.8350  -10.2350  -10.3180 C   0  0  0  0  0  0  0  0  0  0  0  0
  -28.0352  -11.5089  -10.0759 C   0  0  0  0  0  0  0  0  0  0  0  0
  -26.5768  -11.1003   -9.8174 C   0  0  0  0  0  0  0  0  0  0  0  0
  -26.0708  -11.4533   -8.4917 N   0  0  0  0  0  0  0  0  0  0  0  0
  -24.6865  -11.9535   -8.5175 C   0  0  0  0  0  0  0  0  0  0  0  0
  -24.2174  -12.3373   -7.0969 C   0  0  0  0  0  0  0  0  0  0  0  0
  -24.2887  -11.2482   -6.1024 N   0  0  0  0  0  0  0  0  0  0  0  0
  -23.2263  -10.2681   -6.3072 C   0  0  0  0  0  0  0  0  0  0  0  0
  -25.6274  -10.6252   -6.1606 C   0  0  0  0  0  0  0  0  0  0  0  0
  -26.1398  -10.2867   -7.5826 C   0  0  0  0  0  0  0  0  0  0  0  0
 11 12  1  0  0  0
 12  1  1  0  0  0
  1  2  1  0  0  0
  1 10  2  0  0  0
  2  3  2  0  0  0
  3  4  1  0  0  0
  3  8  1  0  0  0
  4 13  1  0  0  0
  4  5  2  0  0  0
 13 15  1  0  0  0
 13 14  1  0  0  0
 15 16  1  0  0  0
 15 20  2  0  0  0
 16 17  2  0  0  0
 17 18  1  0  0  0
 18 21  1  0  0  0
 18 19  2  0  0  0
 21 22  2  0  0  0
 21 30  1  0  0  0
 22 23  1  0  0  0
 23 24  1  0  0  0
 23 29  2  0  0  0
 24 25  2  0  0  0
 25 26  1  0  0  0
 26 27  1  0  0  0
 26 28  2  0  0  0
 28 29  1  0  0  0
 29 30  1  0  0  0
 19 20  1  0  0  0
  5  6  1  0  0  0
  6  7  2  0  0  0
  7  8  1  0  0  0
  8  9  2  0  0  0
  9 10  1  0  0  0
 10 31  1  0  0  0
 31 32  1  0  0  0
 32 33  1  0  0  0
 33 34  1  0  0  0
 34 35  1  0  0  0
 35 36  1  0  0  0
 35 41  1  0  0  0
 36 37  1  0  0  0
 37 38  1  0  0  0
 38 39  1  0  0  0
 38 40  1  0  0  0
 40 41  1  0  0  0
M  END
> <minimizedAffinity>
-7.88263

$$$$
