CHEMBL3921228


 36 39  0  0  0  0  0  0  0  0999 V2000
  -28.1465   -2.1226  -10.2602 C   0  0  0  0  0  0  0  0  0  0  0  0
  -28.2578   -2.1659  -11.6645 C   0  0  0  0  0  0  0  0  0  0  0  0
  -27.2191   -1.8431  -12.5192 C   0  0  0  0  0  0  0  0  0  0  0  0
  -27.3699   -2.0607  -13.8285 N   0  0  0  0  0  0  0  0  0  0  0  0
  -26.3124   -1.7935  -14.5992 C   0  0  0  0  0  0  0  0  0  0  0  0
  -25.1409   -1.3191  -14.1751 N   0  0  0  0  0  0  0  0  0  0  0  0
  -25.0124   -1.1024  -12.8511 C   0  0  0  0  0  0  0  0  0  0  0  0
  -26.0528   -1.3485  -11.9576 C   0  0  0  0  0  0  0  0  0  0  0  0
  -25.9815   -1.1338  -10.5693 C   0  0  0  0  0  0  0  0  0  0  0  0
  -27.0015   -1.5395   -9.7055 C   0  0  0  0  0  0  0  0  0  0  0  0
  -23.7761   -0.6356  -12.3415 N   0  0  0  0  0  0  0  0  0  0  0  0
  -23.2466   -1.4110  -11.9552 H   0  0  0  0  0  0  0  0  0  0  0  0
  -22.9730    0.3063  -13.0171 C   0  0  0  0  0  0  0  0  0  0  0  0
  -23.3549    1.6523  -13.0492 C   0  0  0  0  0  0  0  0  0  0  0  0
  -22.6521    2.5748  -13.8224 C   0  0  0  0  0  0  0  0  0  0  0  0
  -21.5434    2.1570  -14.5509 C   0  0  0  0  0  0  0  0  0  0  0  0
  -20.7547    3.3291  -15.5451 Cl  0  0  0  0  0  0  0  0  0  0  0  0
  -21.1226    0.8244  -14.4868 C   0  0  0  0  0  0  0  0  0  0  0  0
  -19.7534    0.2386  -15.3655 Cl  0  0  0  0  0  0  0  0  0  0  0  0
  -21.8346   -0.0978  -13.7164 C   0  0  0  0  0  0  0  0  0  0  0  0
  -26.6223   -1.2979   -8.4211 O   0  0  0  0  0  0  0  0  0  0  0  0
  -27.4022   -0.5489   -7.5166 C   0  0  0  0  0  0  0  0  0  0  0  0
  -29.0876   -2.7073   -9.4526 O   0  0  0  0  0  0  0  0  0  0  0  0
  -28.6431   -3.6461   -8.4421 C   0  0  0  0  0  0  0  0  0  0  0  0
  -29.4839   -4.1860   -5.2630 N   0  0  0  0  0  0  0  0  0  0  0  0
  -29.0919   -5.6136   -5.2350 C   0  0  0  0  0  0  0  0  0  0  0  0
  -28.5111   -6.1416   -6.5592 C   0  0  0  0  0  0  0  0  0  0  0  0
  -29.3726   -5.9035   -7.6735 O   0  0  0  0  0  0  0  0  0  0  0  0
  -29.7620   -4.5249   -7.8040 C   0  0  0  0  0  0  0  0  0  0  0  0
  -30.3189   -3.9762   -6.4602 C   0  0  0  0  0  0  0  0  0  0  0  0
  -28.3250   -3.2946   -5.1474 C   0  0  0  0  0  0  0  0  0  0  0  0
  -28.4545   -2.1165   -4.1245 C   0  0  0  0  0  0  0  0  0  0  0  0
  -28.8197    0.4149   -4.7017 C   0  0  0  0  0  0  0  0  0  0  0  0
  -29.3387   -1.0124   -4.7542 C   0  0  0  0  0  0  0  0  0  0  0  0
  -28.9513   -2.7412   -2.7997 C   0  0  0  0  0  0  0  0  0  0  0  0
  -30.4461   -2.7106   -2.5337 C   0  0  0  0  0  0  0  0  0  0  0  0
 33 34  1  0  0  0
 34 32  1  0  0  0
 32 35  1  0  0  0
 32 31  1  0  0  0
 35 36  1  0  0  0
 31 25  1  0  0  0
 25 26  1  0  0  0
 25 30  1  0  0  0
 26 27  1  0  0  0
 27 28  1  0  0  0
 28 29  1  0  0  0
 29 24  1  0  0  0
 29 30  1  0  0  0
 24 23  1  0  0  0
 23  1  1  0  0  0
  1  2  1  0  0  0
  1 10  2  0  0  0
  2  3  2  0  0  0
  3  4  1  0  0  0
  3  8  1  0  0  0
  4  5  2  0  0  0
  5  6  1  0  0  0
  6  7  2  0  0  0
  7 11  1  0  0  0
  7  8  1  0  0  0
 11 13  1  0  0  0
 11 12  1  0  0  0
 13 14  1  0  0  0
 13 20  2  0  0  0
 14 15  2  0  0  0
 15 16  1  0  0  0
 16 17  1  0  0  0
 16 18  2  0  0  0
 18 19  1  0  0  0
 18 20  1  0  0  0
  8  9  2  0  0  0
  9 10  1  0  0  0
 10 21  1  0  0  0
 21 22  1  0  0  0
M  END
> <minimizedAffinity>
-7.18057

$$$$
