CHEMBL2063319


 41 45  0  0  0  0  0  0  0  0999 V2000
  -15.1824    1.1475  -15.5130 C   0  0  0  0  0  0  0  0  0  0  0  0
  -14.4139    1.8984  -16.3718 C   0  0  0  0  0  0  0  0  0  0  0  0
  -15.1005    3.1284  -16.5407 C   0  0  0  0  0  0  0  0  0  0  0  0
  -16.2344    3.1310  -15.8187 N   0  0  0  0  0  0  0  0  0  0  0  0
  -16.2642    1.9330  -15.2255 N   0  0  0  0  0  0  0  0  0  0  0  0
  -17.0512    1.7310  -14.6201 H   0  0  0  0  0  0  0  0  0  0  0  0
  -14.7337    4.2585  -17.3955 C   0  0  0  0  0  0  0  0  0  0  0  0
  -15.4681    4.4936  -18.5593 C   0  0  0  0  0  0  0  0  0  0  0  0
  -15.1284    5.5314  -19.4256 C   0  0  0  0  0  0  0  0  0  0  0  0
  -14.0476    6.3721  -19.1577 C   0  0  0  0  0  0  0  0  0  0  0  0
  -13.3159    6.1559  -17.9829 C   0  0  0  0  0  0  0  0  0  0  0  0
  -13.6532    5.1060  -17.1076 C   0  0  0  0  0  0  0  0  0  0  0  0
  -13.6384    7.4000  -20.0364 N   0  0  0  0  0  0  0  0  0  0  0  0
  -13.7460    8.7534  -19.8121 C   0  0  0  0  0  0  0  0  0  0  0  0
  -14.0855    9.3028  -18.7752 O   0  0  0  0  0  0  0  0  0  0  0  0
  -13.3300    7.1519  -20.9650 H   0  0  0  0  0  0  0  0  0  0  0  0
  -13.4985    9.4259  -20.9665 O   0  0  0  0  0  0  0  0  0  0  0  0
  -14.3700    9.0532  -22.0435 C   0  0  0  0  0  0  0  0  0  0  0  0
  -15.8323    9.2777  -21.7514 C   0  0  0  0  0  0  0  0  0  0  0  0
  -16.3071   10.5627  -21.4587 C   0  0  0  0  0  0  0  0  0  0  0  0
  -17.6724   10.8003  -21.3112 C   0  0  0  0  0  0  0  0  0  0  0  0
  -18.5819    9.7513  -21.4420 C   0  0  0  0  0  0  0  0  0  0  0  0
  -18.1211    8.4608  -21.7007 C   0  0  0  0  0  0  0  0  0  0  0  0
  -16.7520    8.2218  -21.8483 C   0  0  0  0  0  0  0  0  0  0  0  0
  -15.1162   -0.4776  -13.6459 C   0  0  0  0  0  0  0  0  0  0  0  0
  -15.4496    0.3575  -12.8209 O   0  0  0  0  0  0  0  0  0  0  0  0
  -14.9637   -0.1373  -15.0331 N   0  0  0  0  0  0  0  0  0  0  0  0
  -14.6796   -0.8446  -15.6951 H   0  0  0  0  0  0  0  0  0  0  0  0
  -14.2029   -4.5396  -12.5491 C   0  0  0  0  0  0  0  0  0  0  0  0
  -15.2780   -3.8590  -11.9523 C   0  0  0  0  0  0  0  0  0  0  0  0
  -15.6055   -2.5419  -12.2868 C   0  0  0  0  0  0  0  0  0  0  0  0
  -14.8467   -1.8738  -13.2454 C   0  0  0  0  0  0  0  0  0  0  0  0
  -13.7633   -2.5240  -13.8451 C   0  0  0  0  0  0  0  0  0  0  0  0
  -13.4546   -3.8430  -13.5025 C   0  0  0  0  0  0  0  0  0  0  0  0
  -12.5280   -9.8390  -12.1771 C   0  0  0  0  0  0  0  0  0  0  0  0
  -13.3042   -8.6538  -11.8202 N   0  0  0  0  0  0  0  0  0  0  0  0
  -12.4090   -7.5596  -11.3767 C   0  0  0  0  0  0  0  0  0  0  0  0
  -13.1737   -6.2527  -11.0505 C   0  0  0  0  0  0  0  0  0  0  0  0
  -13.9633   -5.8578  -12.2286 N   0  0  0  0  0  0  0  0  0  0  0  0
  -14.9029   -6.9075  -12.6666 C   0  0  0  0  0  0  0  0  0  0  0  0
  -14.1119   -8.1981  -12.9746 C   0  0  0  0  0  0  0  0  0  0  0  0
 35 36  1  0  0  0
 36 37  1  0  0  0
 36 41  1  0  0  0
 37 38  1  0  0  0
 38 39  1  0  0  0
 39 29  1  0  0  0
 39 40  1  0  0  0
 29 30  1  0  0  0
 29 34  2  0  0  0
 30 31  2  0  0  0
 31 32  1  0  0  0
 32 25  1  0  0  0
 32 33  2  0  0  0
 25 26  2  0  0  0
 25 27  1  0  0  0
 27  1  1  0  0  0
 27 28  1  0  0  0
  1  2  2  0  0  0
  1  5  1  0  0  0
  2  3  1  0  0  0
  3  7  1  0  0  0
  3  4  2  0  0  0
  7  8  1  0  0  0
  7 12  2  0  0  0
  8  9  2  0  0  0
  9 10  1  0  0  0
 10 13  1  0  0  0
 10 11  2  0  0  0
 13 14  1  0  0  0
 13 16  1  0  0  0
 14 15  2  0  0  0
 14 17  1  0  0  0
 17 18  1  0  0  0
 18 19  1  0  0  0
 19 20  1  0  0  0
 19 24  2  0  0  0
 20 21  2  0  0  0
 21 22  1  0  0  0
 22 23  2  0  0  0
 23 24  1  0  0  0
 11 12  1  0  0  0
  4  5  1  0  0  0
  5  6  1  0  0  0
 33 34  1  0  0  0
 40 41  1  0  0  0
M  END
> <minimizedAffinity>
-7.26173

$$$$
