CHEMBL2016904


 37 42  0  0  0  0  0  0  0  0999 V2000
  -17.3458    2.9848  -16.5160 O   0  0  0  0  0  0  0  0  0  0  0  0
  -17.5445    2.3203  -15.5007 C   0  0  0  0  0  0  0  0  0  0  0  0
  -16.4993    1.7115  -14.7593 N   0  0  0  0  0  0  0  0  0  0  0  0
  -15.1420    1.8660  -15.3548 C   0  0  0  0  0  0  0  0  0  0  0  0
  -13.9234    1.3357  -14.5494 C   0  0  0  0  0  0  0  0  0  0  0  0
  -14.3099    0.1934  -13.6953 C   0  0  0  0  0  0  0  0  0  0  0  0
  -13.5027   -0.8228  -13.2438 N   0  0  0  0  0  0  0  0  0  0  0  0
  -14.3486   -1.7453  -12.7803 C   0  0  0  0  0  0  0  0  0  0  0  0
  -15.5750   -1.1476  -12.5481 N   0  0  0  0  0  0  0  0  0  0  0  0
  -15.6168   -0.0924  -13.4183 C   0  0  0  0  0  0  0  0  0  0  0  0
  -16.8137    0.4726  -14.0359 C   0  0  0  0  0  0  0  0  0  0  0  0
  -16.3834   -1.6291  -12.1766 H   0  0  0  0  0  0  0  0  0  0  0  0
  -14.3483   -3.1875  -12.9457 C   0  0  0  0  0  0  0  0  0  0  0  0
  -14.7649   -3.8526  -11.8428 C   0  0  0  0  0  0  0  0  0  0  0  0
  -13.6645   -3.9673  -10.8427 C   0  0  0  0  0  0  0  0  0  0  0  0
  -13.9018   -3.6681   -9.5004 C   0  0  0  0  0  0  0  0  0  0  0  0
  -12.8243   -3.4219   -8.6499 C   0  0  0  0  0  0  0  0  0  0  0  0
  -11.5124   -3.5404   -9.1186 C   0  0  0  0  0  0  0  0  0  0  0  0
  -11.2634   -3.9246  -10.4383 C   0  0  0  0  0  0  0  0  0  0  0  0
  -12.3417   -4.0924  -11.3018 C   0  0  0  0  0  0  0  0  0  0  0  0
  -12.1284   -4.2071  -12.6837 N   0  0  0  0  0  0  0  0  0  0  0  0
  -13.0918   -3.7727  -13.5676 C   0  0  0  0  0  0  0  0  0  0  0  0
  -12.8644   -3.6645  -14.7718 O   0  0  0  0  0  0  0  0  0  0  0  0
  -11.2084   -4.3829  -13.0600 H   0  0  0  0  0  0  0  0  0  0  0  0
  -18.9580    2.1186  -15.0608 C   0  0  0  0  0  0  0  0  0  0  0  0
  -19.5631    0.8629  -15.2026 C   0  0  0  0  0  0  0  0  0  0  0  0
  -20.8830    0.6691  -14.7626 C   0  0  0  0  0  0  0  0  0  0  0  0
  -21.6089    1.7230  -14.1905 C   0  0  0  0  0  0  0  0  0  0  0  0
  -20.9976    2.9811  -14.0821 C   0  0  0  0  0  0  0  0  0  0  0  0
  -19.6978    3.1853  -14.5456 C   0  0  0  0  0  0  0  0  0  0  0  0
  -23.0658    1.5703  -13.8019 C   0  0  0  0  0  0  0  0  0  0  0  0
  -23.4780    0.2336  -13.3192 N   0  0  0  0  0  0  0  0  0  0  0  0
  -24.2186    0.3326  -12.0485 C   0  0  0  0  0  0  0  0  0  0  0  0
  -24.8080   -1.0091  -11.5997 C   0  0  0  0  0  0  0  0  0  0  0  0
  -25.6933   -1.6109  -12.6816 C   0  0  0  0  0  0  0  0  0  0  0  0
  -24.8967   -1.7386  -13.9704 C   0  0  0  0  0  0  0  0  0  0  0  0
  -24.3011   -0.3916  -14.3762 C   0  0  0  0  0  0  0  0  0  0  0  0
  1  2  2  0  0  0
  2 25  1  0  0  0
  2  3  1  0  0  0
 25 26  1  0  0  0
 25 30  2  0  0  0
 26 27  2  0  0  0
 27 28  1  0  0  0
 28 31  1  0  0  0
 28 29  2  0  0  0
 31 32  1  0  0  0
 32 33  1  0  0  0
 32 37  1  0  0  0
 33 34  1  0  0  0
 34 35  1  0  0  0
 35 36  1  0  0  0
 36 37  1  0  0  0
 29 30  1  0  0  0
  3  4  1  0  0  0
  3 11  1  0  0  0
  4  5  1  0  0  0
  5  6  1  0  0  0
  6  7  1  0  0  0
  6 10  2  0  0  0
  7  8  2  0  0  0
  8 13  1  0  0  0
  8  9  1  0  0  0
 13 14  2  0  0  0
 13 22  1  0  0  0
 14 15  1  0  0  0
 15 16  1  0  0  0
 15 20  2  0  0  0
 16 17  2  0  0  0
 17 18  1  0  0  0
 18 19  2  0  0  0
 19 20  1  0  0  0
 20 21  1  0  0  0
 21 22  1  0  0  0
 21 24  1  0  0  0
 22 23  2  0  0  0
  9 10  1  0  0  0
  9 12  1  0  0  0
 10 11  1  0  0  0
M  END
> <minimizedAffinity>
-11.09775

$$$$
