CHEMBL372765


 32 35  0  0  0  0  0  0  0  0999 V2000
  -14.1902   -3.4120  -12.1464 C   0  0  0  0  0  0  0  0  0  0  0  0
  -13.7827   -2.6739  -13.2557 C   0  0  0  0  0  0  0  0  0  0  0  0
  -14.3523   -1.4344  -13.5586 C   0  0  0  0  0  0  0  0  0  0  0  0
  -15.4421   -0.9483  -12.8409 C   0  0  0  0  0  0  0  0  0  0  0  0
  -15.9358   -1.7236  -11.7939 C   0  0  0  0  0  0  0  0  0  0  0  0
  -15.2857   -2.9141  -11.4228 C   0  0  0  0  0  0  0  0  0  0  0  0
  -11.6569   -3.4949  -10.2481 C   0  0  0  0  0  0  0  0  0  0  0  0
  -12.3597   -4.6300  -10.9306 C   0  0  0  0  0  0  0  0  0  0  0  0
  -11.7451   -6.1984  -10.6313 S   0  0  0  0  0  0  0  0  0  0  0  0
  -12.9381   -6.9355  -11.5746 C   0  0  0  0  0  0  0  0  0  0  0  0
  -12.9481   -8.2754  -11.6707 N   0  0  0  0  0  0  0  0  0  0  0  0
  -13.9349   -8.7247  -12.4376 C   0  0  0  0  0  0  0  0  0  0  0  0
  -14.8399   -7.9942  -13.0942 N   0  0  0  0  0  0  0  0  0  0  0  0
  -14.7931   -6.6511  -12.9931 C   0  0  0  0  0  0  0  0  0  0  0  0
  -15.7587   -6.0020  -13.7476 N   0  0  0  0  0  0  0  0  0  0  0  0
  -13.8090   -6.0362  -12.1758 C   0  0  0  0  0  0  0  0  0  0  0  0
  -13.4689   -4.6511  -11.7812 C   0  0  0  0  0  0  0  0  0  0  0  0
  -16.2178   -6.6496  -14.3784 H   0  0  0  0  0  0  0  0  0  0  0  0
  -15.4773   -5.1189  -14.1515 H   0  0  0  0  0  0  0  0  0  0  0  0
  -16.0728    0.2801  -13.1239 N   0  0  0  0  0  0  0  0  0  0  0  0
  -16.8755    0.5264  -14.2298 C   0  0  0  0  0  0  0  0  0  0  0  0
  -17.1061   -0.2578  -15.1400 O   0  0  0  0  0  0  0  0  0  0  0  0
  -17.3814    1.8012  -14.2381 N   0  0  0  0  0  0  0  0  0  0  0  0
  -15.8461    1.0689  -12.5485 H   0  0  0  0  0  0  0  0  0  0  0  0
  -17.3953    2.3339  -13.3824 H   0  0  0  0  0  0  0  0  0  0  0  0
  -18.3185    2.1758  -15.2762 C   0  0  0  0  0  0  0  0  0  0  0  0
  -19.7536    2.0751  -14.8175 C   0  0  0  0  0  0  0  0  0  0  0  0
  -20.4612    3.2223  -14.4337 C   0  0  0  0  0  0  0  0  0  0  0  0
  -21.7961    3.1263  -14.0388 C   0  0  0  0  0  0  0  0  0  0  0  0
  -22.4376    1.8903  -14.0128 C   0  0  0  0  0  0  0  0  0  0  0  0
  -21.7404    0.7417  -14.3736 C   0  0  0  0  0  0  0  0  0  0  0  0
  -20.4051    0.8291  -14.7699 C   0  0  0  0  0  0  0  0  0  0  0  0
  7  8  1  0  0  0
  8  9  1  0  0  0
  8 17  2  0  0  0
  9 10  1  0  0  0
 10 11  1  0  0  0
 10 16  2  0  0  0
 11 12  2  0  0  0
 12 13  1  0  0  0
 13 14  2  0  0  0
 14 15  1  0  0  0
 14 16  1  0  0  0
 15 18  1  0  0  0
 15 19  1  0  0  0
 16 17  1  0  0  0
 17  1  1  0  0  0
  1  2  1  0  0  0
  1  6  2  0  0  0
  2  3  2  0  0  0
  3  4  1  0  0  0
  4 20  1  0  0  0
  4  5  2  0  0  0
 20 21  1  0  0  0
 20 24  1  0  0  0
 21 22  2  0  0  0
 21 23  1  0  0  0
 23 26  1  0  0  0
 23 25  1  0  0  0
 26 27  1  0  0  0
 27 28  1  0  0  0
 27 32  2  0  0  0
 28 29  2  0  0  0
 29 30  1  0  0  0
 30 31  2  0  0  0
 31 32  1  0  0  0
  5  6  1  0  0  0
M  END
> <minimizedAffinity>
-8.94077

$$$$
