CHEMBL517021


 34 38  0  0  0  0  0  0  0  0999 V2000
  -26.2031   -9.5754   -5.1342 C   0  0  0  0  0  0  0  0  0  0  0  0
  -25.0679   -9.5041   -4.2939 C   0  0  0  0  0  0  0  0  0  0  0  0
  -23.8802  -10.1527   -4.6116 C   0  0  0  0  0  0  0  0  0  0  0  0
  -23.7969  -10.8671   -5.7932 C   0  0  0  0  0  0  0  0  0  0  0  0
  -24.9103  -10.9574   -6.6343 C   0  0  0  0  0  0  0  0  0  0  0  0
  -26.1512  -10.3686   -6.3115 C   0  0  0  0  0  0  0  0  0  0  0  0
  -28.8045   -7.3069   -4.0514 N   0  0  0  0  0  0  0  0  0  0  0  0
  -27.5557   -7.4690   -4.6125 C   0  0  0  0  0  0  0  0  0  0  0  0
  -27.3677   -8.8318   -4.6685 C   0  0  0  0  0  0  0  0  0  0  0  0
  -28.4528   -9.4471   -4.0981 N   0  0  0  0  0  0  0  0  0  0  0  0
  -29.3041   -8.5148   -3.7020 N   0  0  0  0  0  0  0  0  0  0  0  0
  -29.7582   -3.6949   -4.0210 C   0  0  0  0  0  0  0  0  0  0  0  0
  -31.1218   -3.7985   -3.7110 C   0  0  0  0  0  0  0  0  0  0  0  0
  -31.7011   -5.0462   -3.4800 C   0  0  0  0  0  0  0  0  0  0  0  0
  -30.9285   -6.2047   -3.5755 C   0  0  0  0  0  0  0  0  0  0  0  0
  -29.5615   -6.1197   -3.8821 C   0  0  0  0  0  0  0  0  0  0  0  0
  -28.9756   -4.8629   -4.0800 C   0  0  0  0  0  0  0  0  0  0  0  0
  -30.0055   -1.3250   -4.3590 F   0  0  0  0  0  0  0  0  0  0  0  0
  -29.1240   -2.3609   -4.3314 C   0  0  0  0  0  0  0  0  0  0  0  0
  -28.5063   -2.3604   -5.5460 F   0  0  0  0  0  0  0  0  0  0  0  0
  -28.1655   -2.0199   -3.4276 F   0  0  0  0  0  0  0  0  0  0  0  0
  -27.2555  -10.5161   -7.1625 N   0  0  0  0  0  0  0  0  0  0  0  0
  -27.3384  -11.4320   -7.5874 H   0  0  0  0  0  0  0  0  0  0  0  0
  -27.7492   -9.4420   -8.0263 C   0  0  0  0  0  0  0  0  0  0  0  0
  -29.1206   -8.8751   -7.6881 C   0  0  0  0  0  0  0  0  0  0  0  0
  -30.2194   -9.6993   -7.4149 C   0  0  0  0  0  0  0  0  0  0  0  0
  -31.4430   -9.1193   -7.1396 C   0  0  0  0  0  0  0  0  0  0  0  0
  -31.6520   -7.7873   -7.1126 N   0  0  0  0  0  0  0  0  0  0  0  0
  -30.6150   -6.9794   -7.3599 C   0  0  0  0  0  0  0  0  0  0  0  0
  -30.8402   -5.6099   -7.3538 C   0  0  0  0  0  0  0  0  0  0  0  0
  -29.8242   -4.6877   -7.6054 C   0  0  0  0  0  0  0  0  0  0  0  0
  -28.5359   -5.1399   -7.8427 C   0  0  0  0  0  0  0  0  0  0  0  0
  -28.2807   -6.5146   -7.8489 C   0  0  0  0  0  0  0  0  0  0  0  0
  -29.3092   -7.4618   -7.6359 C   0  0  0  0  0  0  0  0  0  0  0  0
 18 19  1  0  0  0
 19 20  1  0  0  0
 19 21  1  0  0  0
 19 12  1  0  0  0
 12 13  1  0  0  0
 12 17  2  0  0  0
 13 14  2  0  0  0
 14 15  1  0  0  0
 15 16  2  0  0  0
 16  7  1  0  0  0
 16 17  1  0  0  0
  7  8  1  0  0  0
  7 11  1  0  0  0
  8  9  2  0  0  0
  9  1  1  0  0  0
  9 10  1  0  0  0
  1  2  1  0  0  0
  1  6  2  0  0  0
  2  3  2  0  0  0
  3  4  1  0  0  0
  4  5  2  0  0  0
  5  6  1  0  0  0
  6 22  1  0  0  0
 22 24  1  0  0  0
 22 23  1  0  0  0
 24 25  1  0  0  0
 25 26  1  0  0  0
 25 34  2  0  0  0
 26 27  2  0  0  0
 27 28  1  0  0  0
 28 29  2  0  0  0
 29 30  1  0  0  0
 29 34  1  0  0  0
 30 31  2  0  0  0
 31 32  1  0  0  0
 32 33  2  0  0  0
 33 34  1  0  0  0
 10 11  2  0  0  0
M  END
> <minimizedAffinity>
-8.73292

$$$$
