CHEMBL4448435


 32 34  0  0  0  0  0  0  0  0999 V2000
  -28.3513   -3.4750   -6.3678 C   0  0  0  0  0  0  0  0  0  0  0  0
  -27.8722   -2.4652   -5.5607 C   0  0  0  0  0  0  0  0  0  0  0  0
  -27.5033   -1.2996   -6.1909 C   0  0  0  0  0  0  0  0  0  0  0  0
  -27.6036   -1.1076   -7.5153 N   0  0  0  0  0  0  0  0  0  0  0  0
  -28.1270   -2.1202   -8.2147 C   0  0  0  0  0  0  0  0  0  0  0  0
  -28.4991   -3.2945   -7.6909 N   0  0  0  0  0  0  0  0  0  0  0  0
  -28.6770   -4.7183   -5.7910 N   0  0  0  0  0  0  0  0  0  0  0  0
  -28.1871   -4.9259   -4.9305 H   0  0  0  0  0  0  0  0  0  0  0  0
  -30.6056   -8.0479   -7.5506 C   0  0  0  0  0  0  0  0  0  0  0  0
  -29.3975   -7.5913   -8.0773 C   0  0  0  0  0  0  0  0  0  0  0  0
  -28.7523   -6.4973   -7.4992 C   0  0  0  0  0  0  0  0  0  0  0  0
  -29.2821   -5.8444   -6.3794 C   0  0  0  0  0  0  0  0  0  0  0  0
  -30.5064   -6.2996   -5.8710 C   0  0  0  0  0  0  0  0  0  0  0  0
  -31.1597   -7.3969   -6.4419 C   0  0  0  0  0  0  0  0  0  0  0  0
  -31.2983   -9.1520   -8.2604 C   0  0  0  0  0  0  0  0  0  0  0  0
  -32.5052   -9.3276   -8.2191 O   0  0  0  0  0  0  0  0  0  0  0  0
  -30.3828   -9.9760   -8.8226 O   0  0  0  0  0  0  0  0  0  0  0  0
  -29.9476  -11.7280   -7.2688 C   0  0  0  0  0  0  0  0  0  0  0  0
  -30.5987  -11.3730   -8.5934 C   0  0  0  0  0  0  0  0  0  0  0  0
  -28.2659   -1.9280   -9.9743 S   0  0  0  0  0  0  0  0  0  0  0  0
  -26.5007   -1.7149  -10.3846 C   0  0  0  0  0  0  0  0  0  0  0  0
  -26.2711   -1.6883  -11.8877 C   0  0  0  0  0  0  0  0  0  0  0  0
  -27.0321   -2.2398  -12.6845 O   0  0  0  0  0  0  0  0  0  0  0  0
  -25.1161   -0.9174  -12.4498 C   0  0  0  0  0  0  0  0  0  0  0  0
  -24.4196    0.0641  -11.7305 C   0  0  0  0  0  0  0  0  0  0  0  0
  -23.3467    0.7461  -12.3225 C   0  0  0  0  0  0  0  0  0  0  0  0
  -22.9732    0.4519  -13.6419 C   0  0  0  0  0  0  0  0  0  0  0  0
  -23.6696   -0.5131  -14.3748 C   0  0  0  0  0  0  0  0  0  0  0  0
  -24.7348   -1.1912  -13.7758 C   0  0  0  0  0  0  0  0  0  0  0  0
  -21.8438    1.1594  -14.2593 N   0  0  0  0  0  0  0  0  0  0  0  0
  -20.9455    0.4745  -14.7683 O   0  0  0  0  0  0  0  0  0  0  0  0
  -21.8590    2.3991  -14.2418 O   0  0  0  0  0  0  0  0  0  0  0  0
 18 19  1  0  0  0
 19 17  1  0  0  0
 17 15  1  0  0  0
 15 16  2  0  0  0
 15  9  1  0  0  0
  9 10  1  0  0  0
  9 14  2  0  0  0
 10 11  2  0  0  0
 11 12  1  0  0  0
 12  7  1  0  0  0
 12 13  2  0  0  0
  7  1  1  0  0  0
  7  8  1  0  0  0
  1  2  1  0  0  0
  1  6  2  0  0  0
  2  3  2  0  0  0
  3  4  1  0  0  0
  4  5  2  0  0  0
  5 20  1  0  0  0
  5  6  1  0  0  0
 20 21  1  0  0  0
 21 22  1  0  0  0
 22 23  2  0  0  0
 22 24  1  0  0  0
 24 25  1  0  0  0
 24 29  2  0  0  0
 25 26  2  0  0  0
 26 27  1  0  0  0
 27 30  1  0  0  0
 27 28  2  0  0  0
 30 31  2  0  0  0
 30 32  1  0  0  0
 28 29  1  0  0  0
 13 14  1  0  0  0
M  CHG 1  30   1
M  CHG 1  32  -1
M  END
> <minimizedAffinity>
-8.23743

$$$$
