CHEMBL3967011


 36 40  0  0  0  0  0  0  0  0999 V2000
  -27.3615  -10.0347   -5.0709 N   0  0  0  0  0  0  0  0  0  0  0  0
  -28.0074   -8.7316   -5.2201 C   0  0  0  0  0  0  0  0  0  0  0  0
  -28.8593   -8.6831   -6.3183 C   0  0  0  0  0  0  0  0  0  0  0  0
  -29.1279   -7.4693   -6.9289 C   0  0  0  0  0  0  0  0  0  0  0  0
  -28.7179   -6.2817   -6.4204 C   0  0  0  0  0  0  0  0  0  0  0  0
  -28.9585   -5.3163   -7.3006 N   0  0  0  0  0  0  0  0  0  0  0  0
  -28.7826   -4.0605   -6.9097 C   0  0  0  0  0  0  0  0  0  0  0  0
  -28.4443   -3.7146   -5.6326 C   0  0  0  0  0  0  0  0  0  0  0  0
  -28.0795   -4.7304   -4.7244 N   0  0  0  0  0  0  0  0  0  0  0  0
  -28.1547   -6.1144   -5.1459 C   0  0  0  0  0  0  0  0  0  0  0  0
  -27.7399   -7.4658   -4.5777 C   0  0  0  0  0  0  0  0  0  0  0  0
  -28.6198   -2.2612   -5.3841 C   0  0  0  0  0  0  0  0  0  0  0  0
  -29.7331   -1.5865   -4.7714 C   0  0  0  0  0  0  0  0  0  0  0  0
  -29.8756   -0.3028   -5.1509 N   0  0  0  0  0  0  0  0  0  0  0  0
  -28.8954   -0.1261   -6.0504 N   0  0  0  0  0  0  0  0  0  0  0  0
  -28.7070    1.1626   -6.6893 C   0  0  0  0  0  0  0  0  0  0  0  0
  -28.1998   -1.2855   -6.2985 C   0  0  0  0  0  0  0  0  0  0  0  0
  -23.6194  -10.1511   -5.4789 C   0  0  0  0  0  0  0  0  0  0  0  0
  -23.2282  -10.7180   -4.2623 C   0  0  0  0  0  0  0  0  0  0  0  0
  -24.1927  -11.0937   -3.3328 C   0  0  0  0  0  0  0  0  0  0  0  0
  -25.5564  -10.9198   -3.6349 C   0  0  0  0  0  0  0  0  0  0  0  0
  -25.9998  -10.3756   -4.8554 C   0  0  0  0  0  0  0  0  0  0  0  0
  -24.9962  -10.0109   -5.7729 C   0  0  0  0  0  0  0  0  0  0  0  0
  -21.7050  -10.5572   -6.8558 C   0  0  0  0  0  0  0  0  0  0  0  0
  -22.7447   -9.6767   -6.4253 O   0  0  0  0  0  0  0  0  0  0  0  0
  -23.9413  -11.6061   -2.0871 O   0  0  0  0  0  0  0  0  0  0  0  0
  -22.6199  -12.0673   -1.8304 C   0  0  0  0  0  0  0  0  0  0  0  0
  -28.2613  -11.1406   -5.6018 C   0  0  0  0  0  0  0  0  0  0  0  0
  -27.6563  -12.3630   -6.3501 C   0  0  0  0  0  0  0  0  0  0  0  0
  -27.2600  -12.2375   -7.8414 C   0  0  0  0  0  0  0  0  0  0  0  0
  -28.0569  -11.1487   -8.4604 N   0  0  0  0  0  0  0  0  0  0  0  0
  -29.2227  -11.6410   -9.2440 C   0  0  0  0  0  0  0  0  0  0  0  0
  -28.8672  -10.6242  -10.3668 C   0  0  0  0  0  0  0  0  0  0  0  0
  -28.9736  -11.0626  -11.6276 F   0  0  0  0  0  0  0  0  0  0  0  0
  -29.5008   -9.4220  -10.3050 F   0  0  0  0  0  0  0  0  0  0  0  0
  -27.4472  -10.6760   -9.7347 C   0  0  0  0  0  0  0  0  0  0  0  0
 24 25  1  0  0  0
 25 18  1  0  0  0
 18 19  1  0  0  0
 18 23  2  0  0  0
 19 20  2  0  0  0
 20 26  1  0  0  0
 20 21  1  0  0  0
 26 27  1  0  0  0
 21 22  2  0  0  0
 22  1  1  0  0  0
 22 23  1  0  0  0
  1 28  1  0  0  0
  1  2  1  0  0  0
 28 29  1  0  0  0
 29 30  1  0  0  0
 30 31  1  0  0  0
 31 32  1  0  0  0
 31 36  1  0  0  0
 32 33  1  0  0  0
 33 34  1  0  0  0
 33 35  1  0  0  0
 33 36  1  0  0  0
  2  3  1  0  0  0
  2 11  2  0  0  0
  3  4  2  0  0  0
  4  5  1  0  0  0
  5  6  1  0  0  0
  5 10  2  0  0  0
  6  7  2  0  0  0
  7  8  1  0  0  0
  8 12  1  0  0  0
  8  9  2  0  0  0
 12 13  1  0  0  0
 12 17  2  0  0  0
 13 14  2  0  0  0
 14 15  1  0  0  0
 15 16  1  0  0  0
 15 17  1  0  0  0
  9 10  1  0  0  0
 10 11  1  0  0  0
M  END
> <minimizedAffinity>
-7.79819

$$$$
