CHEMBL3934064


 38 40  0  0  0  0  0  0  0  0999 V2000
  -28.1015   -1.7390   -7.2681 C   0  0  0  0  0  0  0  0  0  0  0  0
  -28.4515   -3.0021   -6.7781 C   0  0  0  0  0  0  0  0  0  0  0  0
  -28.9901   -3.1177   -5.4940 C   0  0  0  0  0  0  0  0  0  0  0  0
  -29.1884   -1.9513   -4.7677 C   0  0  0  0  0  0  0  0  0  0  0  0
  -28.8591   -0.7139   -5.2171 N   0  0  0  0  0  0  0  0  0  0  0  0
  -28.3089   -0.6198   -6.4461 C   0  0  0  0  0  0  0  0  0  0  0  0
  -27.8574    0.6519   -6.7880 N   0  0  0  0  0  0  0  0  0  0  0  0
  -28.2063    1.3100   -6.0963 H   0  0  0  0  0  0  0  0  0  0  0  0
  -28.0596    0.9149   -7.7418 H   0  0  0  0  0  0  0  0  0  0  0  0
  -27.0978   -1.5605   -9.7061 C   0  0  0  0  0  0  0  0  0  0  0  0
  -27.5444   -1.6222   -8.5850 C   0  0  0  0  0  0  0  0  0  0  0  0
  -25.2621   -0.5984  -12.8286 C   0  0  0  0  0  0  0  0  0  0  0  0
  -25.9941   -1.3239  -13.7715 C   0  0  0  0  0  0  0  0  0  0  0  0
  -27.0497   -2.1492  -13.3788 C   0  0  0  0  0  0  0  0  0  0  0  0
  -27.3971   -2.2427  -12.0331 C   0  0  0  0  0  0  0  0  0  0  0  0
  -26.6628   -1.5417  -11.0721 C   0  0  0  0  0  0  0  0  0  0  0  0
  -25.5659   -0.7587  -11.4683 C   0  0  0  0  0  0  0  0  0  0  0  0
  -22.9777    0.0052  -13.6660 C   0  0  0  0  0  0  0  0  0  0  0  0
  -22.5579   -1.1354  -13.8400 O   0  0  0  0  0  0  0  0  0  0  0  0
  -24.2498    0.3204  -13.1959 N   0  0  0  0  0  0  0  0  0  0  0  0
  -24.4996    1.3017  -13.2565 H   0  0  0  0  0  0  0  0  0  0  0  0
  -20.1042    0.2087  -15.2326 C   0  0  0  0  0  0  0  0  0  0  0  0
  -20.9441    1.2911  -14.6520 C   0  0  0  0  0  0  0  0  0  0  0  0
  -20.6468    2.6827  -14.6689 C   0  0  0  0  0  0  0  0  0  0  0  0
  -21.6849    3.3137  -14.0327 C   0  0  0  0  0  0  0  0  0  0  0  0
  -22.6142    2.4137  -13.6273 O   0  0  0  0  0  0  0  0  0  0  0  0
  -22.1661    1.1700  -13.9953 C   0  0  0  0  0  0  0  0  0  0  0  0
  -29.3288   -4.4314   -4.8838 C   0  0  0  0  0  0  0  0  0  0  0  0
  -28.7299   -4.7355   -3.8556 O   0  0  0  0  0  0  0  0  0  0  0  0
  -30.2052   -5.3217   -5.5323 N   0  0  0  0  0  0  0  0  0  0  0  0
  -29.6871   -6.6544   -6.1135 S   0  0  0  0  0  0  0  0  0  0  0  0
  -28.6799   -6.2878   -7.5411 C   0  0  0  0  0  0  0  0  0  0  0  0
  -28.9831   -7.6517   -5.3306 O   0  0  0  0  0  0  0  0  0  0  0  0
  -31.0877   -7.4843   -6.8572 C   0  0  0  0  0  0  0  0  0  0  0  0
  -30.6560   -8.6221   -7.7801 C   0  0  0  0  0  0  0  0  0  0  0  0
  -31.6013   -9.8115   -7.6908 C   0  0  0  0  0  0  0  0  0  0  0  0
  -32.4801   -9.8312   -8.8073 O   0  0  0  0  0  0  0  0  0  0  0  0
  -33.0148   -9.0184   -8.7758 H   0  0  0  0  0  0  0  0  0  0  0  0
 22 23  1  0  0  0
 23 24  1  0  0  0
 23 27  2  0  0  0
 24 25  2  0  0  0
 25 26  1  0  0  0
 26 27  1  0  0  0
 27 18  1  0  0  0
 18 19  2  0  0  0
 18 20  1  0  0  0
 20 12  1  0  0  0
 20 21  1  0  0  0
 12 13  1  0  0  0
 12 17  2  0  0  0
 13 14  2  0  0  0
 14 15  1  0  0  0
 15 16  2  0  0  0
 16 10  1  0  0  0
 16 17  1  0  0  0
 10 11  3  0  0  0
 11  1  1  0  0  0
  1  2  1  0  0  0
  1  6  2  0  0  0
  2  3  2  0  0  0
  3 28  1  0  0  0
  3  4  1  0  0  0
 28 29  2  0  0  0
 28 30  1  0  0  0
 30 31  2  0  0  0
 31 32  1  0  0  0
 31 33  2  0  0  0
 31 34  1  0  0  0
 34 35  1  0  0  0
 35 36  1  0  0  0
 36 37  1  0  0  0
 37 38  1  0  0  0
  4  5  2  0  0  0
  5  6  1  0  0  0
  6  7  1  0  0  0
  7  8  1  0  0  0
  7  9  1  0  0  0
M  END
> <minimizedAffinity>
-10.05127

$$$$
