CHEMBL2018776


 38 40  0  0  0  0  0  0  0  0999 V2000
  -17.1475    1.6942  -15.1574 C   0  0  0  0  0  0  0  0  0  0  0  0
  -16.7145    0.7498  -14.2217 C   0  0  0  0  0  0  0  0  0  0  0  0
  -15.3617    0.4214  -14.0682 C   0  0  0  0  0  0  0  0  0  0  0  0
  -14.9204   -0.6791  -13.3168 C   0  0  0  0  0  0  0  0  0  0  0  0
  -13.6210   -0.9172  -13.1169 N   0  0  0  0  0  0  0  0  0  0  0  0
  -12.7706   -0.0759  -13.7060 C   0  0  0  0  0  0  0  0  0  0  0  0
  -13.0882    0.9627  -14.5007 N   0  0  0  0  0  0  0  0  0  0  0  0
  -14.3908    1.2068  -14.6839 C   0  0  0  0  0  0  0  0  0  0  0  0
  -14.8230    2.2550  -15.5151 C   0  0  0  0  0  0  0  0  0  0  0  0
  -16.1847    2.5180  -15.7592 C   0  0  0  0  0  0  0  0  0  0  0  0
  -15.8818   -1.6096  -12.8346 N   0  0  0  0  0  0  0  0  0  0  0  0
  -16.8122   -1.2018  -12.8497 H   0  0  0  0  0  0  0  0  0  0  0  0
  -15.8815   -3.0141  -12.9253 C   0  0  0  0  0  0  0  0  0  0  0  0
  -16.3071   -3.7726  -11.8283 C   0  0  0  0  0  0  0  0  0  0  0  0
  -16.1134   -5.1581  -11.7869 C   0  0  0  0  0  0  0  0  0  0  0  0
  -15.4604   -5.8205  -12.8292 C   0  0  0  0  0  0  0  0  0  0  0  0
  -15.0892   -5.0732  -13.9563 C   0  0  0  0  0  0  0  0  0  0  0  0
  -14.2892   -5.8151  -15.3003 Cl  0  0  0  0  0  0  0  0  0  0  0  0
  -15.2858   -3.6924  -13.9960 C   0  0  0  0  0  0  0  0  0  0  0  0
  -15.1337   -7.1947  -12.7620 N   0  0  0  0  0  0  0  0  0  0  0  0
  -14.0627   -7.7450  -12.1135 C   0  0  0  0  0  0  0  0  0  0  0  0
  -13.2204   -7.1589  -11.4490 O   0  0  0  0  0  0  0  0  0  0  0  0
  -15.6351   -7.8243  -13.3778 H   0  0  0  0  0  0  0  0  0  0  0  0
  -14.0275   -9.0858  -12.3489 O   0  0  0  0  0  0  0  0  0  0  0  0
  -12.6979   -9.6125  -12.3358 C   0  0  0  0  0  0  0  0  0  0  0  0
  -18.4685    1.7659  -15.5443 O   0  0  0  0  0  0  0  0  0  0  0  0
  -19.3427    2.3989  -14.6031 C   0  0  0  0  0  0  0  0  0  0  0  0
  -20.8193    2.1548  -14.8814 C   0  0  0  0  0  0  0  0  0  0  0  0
  -22.2967    0.3623  -13.8283 C   0  0  0  0  0  0  0  0  0  0  0  0
  -21.0835    0.6550  -14.6845 C   0  0  0  0  0  0  0  0  0  0  0  0
  -16.4519    3.5813  -16.6081 O   0  0  0  0  0  0  0  0  0  0  0  0
  -15.2609    4.0617  -17.2564 C   0  0  0  0  0  0  0  0  0  0  0  0
  -15.4384    4.4110  -18.7572 C   0  0  0  0  0  0  0  0  0  0  0  0
  -14.1384    4.7388  -19.4093 N   0  0  0  0  0  0  0  0  0  0  0  0
  -13.6548    6.0961  -19.1100 C   0  0  0  0  0  0  0  0  0  0  0  0
  -14.7012    7.2030  -19.1686 C   0  0  0  0  0  0  0  0  0  0  0  0
  -13.1272    3.6902  -19.1979 C   0  0  0  0  0  0  0  0  0  0  0  0
  -11.8234    4.2074  -18.5801 C   0  0  0  0  0  0  0  0  0  0  0  0
 29 30  1  0  0  0
 30 28  1  0  0  0
 28 27  1  0  0  0
 27 26  1  0  0  0
 26  1  1  0  0  0
  1  2  1  0  0  0
  1 10  2  0  0  0
  2  3  2  0  0  0
  3  4  1  0  0  0
  3  8  1  0  0  0
  4 11  1  0  0  0
  4  5  2  0  0  0
 11 13  1  0  0  0
 11 12  1  0  0  0
 13 14  1  0  0  0
 13 19  2  0  0  0
 14 15  2  0  0  0
 15 16  1  0  0  0
 16 20  1  0  0  0
 16 17  2  0  0  0
 20 21  1  0  0  0
 20 23  1  0  0  0
 21 22  2  0  0  0
 21 24  1  0  0  0
 24 25  1  0  0  0
 17 18  1  0  0  0
 17 19  1  0  0  0
  5  6  1  0  0  0
  6  7  2  0  0  0
  7  8  1  0  0  0
  8  9  2  0  0  0
  9 10  1  0  0  0
 10 31  1  0  0  0
 31 32  1  0  0  0
 32 33  1  0  0  0
 33 34  1  0  0  0
 34 35  1  0  0  0
 34 37  1  0  0  0
 35 36  1  0  0  0
 37 38  1  0  0  0
M  END
> <minimizedAffinity>
-7.43787

$$$$
