CHEMBL4225828


 35 37  0  0  0  0  0  0  0  0999 V2000
  -29.3129   -4.4645   -5.2011 C   0  0  0  0  0  0  0  0  0  0  0  0
  -28.7372   -3.5390   -4.3301 C   0  0  0  0  0  0  0  0  0  0  0  0
  -28.0600   -2.4279   -4.8363 C   0  0  0  0  0  0  0  0  0  0  0  0
  -27.9234   -2.2477   -6.2155 C   0  0  0  0  0  0  0  0  0  0  0  0
  -28.4342   -3.1950   -7.0972 C   0  0  0  0  0  0  0  0  0  0  0  0
  -29.1477   -4.2917   -6.5810 C   0  0  0  0  0  0  0  0  0  0  0  0
  -28.3760   -3.0859   -8.4989 N   0  0  0  0  0  0  0  0  0  0  0  0
  -28.8200   -3.8490   -8.9965 H   0  0  0  0  0  0  0  0  0  0  0  0
  -27.8497   -2.1380   -9.3550 C   0  0  0  0  0  0  0  0  0  0  0  0
  -28.1811   -0.5060   -9.4174 S   0  0  0  0  0  0  0  0  0  0  0  0
  -26.8330   -2.6411  -10.1578 N   0  0  0  0  0  0  0  0  0  0  0  0
  -26.2957   -3.4072   -9.7648 H   0  0  0  0  0  0  0  0  0  0  0  0
  -26.4400   -2.1121  -11.4057 C   0  0  0  0  0  0  0  0  0  0  0  0
  -27.2998   -2.1509  -12.5043 C   0  0  0  0  0  0  0  0  0  0  0  0
  -26.8556   -1.7740  -13.7650 C   0  0  0  0  0  0  0  0  0  0  0  0
  -25.5521   -1.3086  -13.9395 C   0  0  0  0  0  0  0  0  0  0  0  0
  -25.0784   -0.9840  -15.5642 Cl  0  0  0  0  0  0  0  0  0  0  0  0
  -24.7047   -1.1526  -12.8339 C   0  0  0  0  0  0  0  0  0  0  0  0
  -25.1738   -1.5499  -11.5554 C   0  0  0  0  0  0  0  0  0  0  0  0
  -23.3081   -0.5942  -12.9159 C   0  0  0  0  0  0  0  0  0  0  0  0
  -22.5584   -0.6576  -11.7865 F   0  0  0  0  0  0  0  0  0  0  0  0
  -22.5737   -1.2273  -13.8758 F   0  0  0  0  0  0  0  0  0  0  0  0
  -23.3130    0.7222  -13.2758 F   0  0  0  0  0  0  0  0  0  0  0  0
  -30.1837   -5.8873   -4.5662 S   0  0  0  0  0  0  0  0  0  0  0  0
  -30.0393   -8.8544   -8.0175 C   0  0  0  0  0  0  0  0  0  0  0  0
  -31.2716   -8.3525   -7.5949 C   0  0  0  0  0  0  0  0  0  0  0  0
  -31.3112   -7.4369   -6.5376 C   0  0  0  0  0  0  0  0  0  0  0  0
  -30.1191   -7.0405   -5.9309 C   0  0  0  0  0  0  0  0  0  0  0  0
  -28.9192   -7.5351   -6.3088 N   0  0  0  0  0  0  0  0  0  0  0  0
  -28.9068   -8.4304   -7.3318 C   0  0  0  0  0  0  0  0  0  0  0  0
  -28.8310  -10.3109  -11.2851 C   0  0  0  0  0  0  0  0  0  0  0  0
  -29.1116   -9.4070  -10.1964 N   0  0  0  0  0  0  0  0  0  0  0  0
  -29.8849   -9.8200   -9.1320 C   0  0  0  0  0  0  0  0  0  0  0  0
  -30.3989  -10.9313   -9.0510 O   0  0  0  0  0  0  0  0  0  0  0  0
  -28.5683   -8.5596  -10.1284 H   0  0  0  0  0  0  0  0  0  0  0  0
 31 32  1  0  0  0
 32 33  1  0  0  0
 32 35  1  0  0  0
 33 34  2  0  0  0
 33 25  1  0  0  0
 25 26  1  0  0  0
 25 30  2  0  0  0
 26 27  2  0  0  0
 27 28  1  0  0  0
 28 24  1  0  0  0
 28 29  2  0  0  0
 24  1  1  0  0  0
  1  2  1  0  0  0
  1  6  2  0  0  0
  2  3  2  0  0  0
  3  4  1  0  0  0
  4  5  2  0  0  0
  5  7  1  0  0  0
  5  6  1  0  0  0
  7  9  1  0  0  0
  7  8  1  0  0  0
  9 10  2  0  0  0
  9 11  1  0  0  0
 11 13  1  0  0  0
 11 12  1  0  0  0
 13 14  1  0  0  0
 13 19  2  0  0  0
 14 15  2  0  0  0
 15 16  1  0  0  0
 16 17  1  0  0  0
 16 18  2  0  0  0
 18 20  1  0  0  0
 18 19  1  0  0  0
 20 21  1  0  0  0
 20 22  1  0  0  0
 20 23  1  0  0  0
 29 30  1  0  0  0
M  END
> <minimizedAffinity>
-9.51596

$$$$
