CHEMBL3985840


 37 41  0  0  0  0  0  0  0  0999 V2000
  -27.3966   -2.1256   -8.6725 C   0  0  0  0  0  0  0  0  0  0  0  0
  -27.6242   -0.8997   -8.0596 C   0  0  0  0  0  0  0  0  0  0  0  0
  -28.3063   -0.7425   -6.8922 C   0  0  0  0  0  0  0  0  0  0  0  0
  -28.2060    0.5007   -6.4473 N   0  0  0  0  0  0  0  0  0  0  0  0
  -28.7857    0.7702   -5.2948 C   0  0  0  0  0  0  0  0  0  0  0  0
  -29.4489   -0.1074   -4.5571 N   0  0  0  0  0  0  0  0  0  0  0  0
  -29.5075   -1.3783   -5.0114 C   0  0  0  0  0  0  0  0  0  0  0  0
  -28.9238   -1.8123   -6.2654 C   0  0  0  0  0  0  0  0  0  0  0  0
  -28.8037   -3.1028   -6.9668 C   0  0  0  0  0  0  0  0  0  0  0  0
  -28.0094   -3.2629   -8.1476 C   0  0  0  0  0  0  0  0  0  0  0  0
  -29.7819   -2.3434   -4.0013 N   0  0  0  0  0  0  0  0  0  0  0  0
  -30.8042   -2.2161   -3.9868 H   0  0  0  0  0  0  0  0  0  0  0  0
  -29.7251   -3.7793   -4.0206 C   0  0  0  0  0  0  0  0  0  0  0  0
  -30.9413   -4.3915   -4.3666 C   0  0  0  0  0  0  0  0  0  0  0  0
  -31.0294   -5.7518   -4.6598 C   0  0  0  0  0  0  0  0  0  0  0  0
  -29.8861   -6.5435   -4.6255 C   0  0  0  0  0  0  0  0  0  0  0  0
  -30.0585   -8.2064   -5.0667 Cl  0  0  0  0  0  0  0  0  0  0  0  0
  -28.6593   -5.9641   -4.2769 C   0  0  0  0  0  0  0  0  0  0  0  0
  -27.1951   -6.8917   -4.2863 Cl  0  0  0  0  0  0  0  0  0  0  0  0
  -28.5792   -4.5863   -3.9705 C   0  0  0  0  0  0  0  0  0  0  0  0
  -27.9146   -4.5285   -8.6800 O   0  0  0  0  0  0  0  0  0  0  0  0
  -28.4621   -5.6132   -7.9089 C   0  0  0  0  0  0  0  0  0  0  0  0
  -26.5777   -2.1620   -9.7718 O   0  0  0  0  0  0  0  0  0  0  0  0
  -27.1694   -1.5314  -10.9220 C   0  0  0  0  0  0  0  0  0  0  0  0
  -24.6270   -0.4275  -13.0149 C   0  0  0  0  0  0  0  0  0  0  0  0
  -25.1938   -0.3950  -11.8351 N   0  0  0  0  0  0  0  0  0  0  0  0
  -26.2003   -1.2989  -11.9943 C   0  0  0  0  0  0  0  0  0  0  0  0
  -26.2961   -1.8607  -13.2053 N   0  0  0  0  0  0  0  0  0  0  0  0
  -25.2334   -1.2785  -13.8944 O   0  0  0  0  0  0  0  0  0  0  0  0
  -21.2376    1.6706  -14.4355 C   0  0  0  0  0  0  0  0  0  0  0  0
  -21.2723    0.2738  -14.4771 C   0  0  0  0  0  0  0  0  0  0  0  0
  -22.3827   -0.3985  -13.9831 C   0  0  0  0  0  0  0  0  0  0  0  0
  -23.4788    0.3127  -13.4720 C   0  0  0  0  0  0  0  0  0  0  0  0
  -23.4483    1.7058  -13.4356 C   0  0  0  0  0  0  0  0  0  0  0  0
  -22.3303    2.3828  -13.9148 C   0  0  0  0  0  0  0  0  0  0  0  0
  -18.9944    1.7861  -15.1515 C   0  0  0  0  0  0  0  0  0  0  0  0
  -20.2211    2.4589  -14.9104 O   0  0  0  0  0  0  0  0  0  0  0  0
 36 37  1  0  0  0
 37 30  1  0  0  0
 30 31  1  0  0  0
 30 35  2  0  0  0
 31 32  2  0  0  0
 32 33  1  0  0  0
 33 25  1  0  0  0
 33 34  2  0  0  0
 25 26  2  0  0  0
 25 29  1  0  0  0
 26 27  1  0  0  0
 27 24  1  0  0  0
 27 28  2  0  0  0
 24 23  1  0  0  0
 23  1  1  0  0  0
  1  2  1  0  0  0
  1 10  2  0  0  0
  2  3  2  0  0  0
  3  4  1  0  0  0
  3  8  1  0  0  0
  4  5  2  0  0  0
  5  6  1  0  0  0
  6  7  2  0  0  0
  7 11  1  0  0  0
  7  8  1  0  0  0
 11 13  1  0  0  0
 11 12  1  0  0  0
 13 14  1  0  0  0
 13 20  2  0  0  0
 14 15  2  0  0  0
 15 16  1  0  0  0
 16 17  1  0  0  0
 16 18  2  0  0  0
 18 19  1  0  0  0
 18 20  1  0  0  0
  8  9  2  0  0  0
  9 10  1  0  0  0
 10 21  1  0  0  0
 21 22  1  0  0  0
 28 29  1  0  0  0
 34 35  1  0  0  0
M  END
> <minimizedAffinity>
-9.91717

$$$$
