CHEMBL1940853


 22 24  0  0  0  0  0  0  0  0999 V2000
  -13.5548   -6.1898  -11.0819 C   0  0  0  0  0  0  0  0  0  0  0  0
  -14.2629   -4.9627  -11.5702 C   0  0  0  0  0  0  0  0  0  0  0  0
  -15.6549   -4.8655  -11.5664 C   0  0  0  0  0  0  0  0  0  0  0  0
  -16.2763   -3.6957  -12.0106 C   0  0  0  0  0  0  0  0  0  0  0  0
  -15.5065   -2.6249  -12.5056 C   0  0  0  0  0  0  0  0  0  0  0  0
  -16.0803   -1.4455  -13.0191 C   0  0  0  0  0  0  0  0  0  0  0  0
  -15.2854   -0.4359  -13.5898 C   0  0  0  0  0  0  0  0  0  0  0  0
  -13.9076   -0.6673  -13.5383 C   0  0  0  0  0  0  0  0  0  0  0  0
  -12.7042    0.4023  -14.1525 Cl  0  0  0  0  0  0  0  0  0  0  0  0
  -13.3204   -1.7663  -13.0115 N   0  0  0  0  0  0  0  0  0  0  0  0
  -14.1056   -2.7286  -12.5213 C   0  0  0  0  0  0  0  0  0  0  0  0
  -13.5092   -3.8780  -12.0341 C   0  0  0  0  0  0  0  0  0  0  0  0
  -15.9944    0.7537  -14.1261 C   0  0  0  0  0  0  0  0  0  0  0  0
  -16.8945    0.7793  -15.1258 C   0  0  0  0  0  0  0  0  0  0  0  0
  -17.5588    2.0549  -15.5795 C   0  0  0  0  0  0  0  0  0  0  0  0
  -16.9152    2.8307  -16.2717 O   0  0  0  0  0  0  0  0  0  0  0  0
  -18.9382    2.2932  -15.1437 C   0  0  0  0  0  0  0  0  0  0  0  0
  -19.6797    3.4594  -15.0308 C   0  0  0  0  0  0  0  0  0  0  0  0
  -21.0182    3.2302  -14.5931 C   0  0  0  0  0  0  0  0  0  0  0  0
  -21.2796    1.8919  -14.4030 C   0  0  0  0  0  0  0  0  0  0  0  0
  -22.5568    1.2444  -13.9939 C   0  0  0  0  0  0  0  0  0  0  0  0
  -19.9002    0.9328  -14.7093 S   0  0  0  0  0  0  0  0  0  0  0  0
  1  2  1  0  0  0
  2  3  1  0  0  0
  2 12  2  0  0  0
  3  4  2  0  0  0
  4  5  1  0  0  0
  5  6  1  0  0  0
  5 11  2  0  0  0
  6  7  2  0  0  0
  7 13  1  0  0  0
  7  8  1  0  0  0
 13 14  2  0  0  0
 14 15  1  0  0  0
 15 16  2  0  0  0
 15 17  1  0  0  0
 17 18  2  0  0  0
 17 22  1  0  0  0
 18 19  1  0  0  0
 19 20  2  0  0  0
 20 21  1  0  0  0
 20 22  1  0  0  0
  8  9  1  0  0  0
  8 10  2  0  0  0
 10 11  1  0  0  0
 11 12  1  0  0  0
M  END
> <minimizedAffinity>
-7.74580

$$$$
