CHEMBL380898


 30 34  0  0  0  0  0  0  0  0999 V2000
  -12.9538   -8.4171  -16.8426 C   0  0  0  0  0  0  0  0  0  0  0  0
  -12.9100   -8.4048  -15.4390 C   0  0  0  0  0  0  0  0  0  0  0  0
  -13.3723   -7.3075  -14.7217 C   0  0  0  0  0  0  0  0  0  0  0  0
  -13.5065   -7.3385  -13.3271 C   0  0  0  0  0  0  0  0  0  0  0  0
  -13.9944   -6.2676  -12.5325 C   0  0  0  0  0  0  0  0  0  0  0  0
  -14.3323   -5.0926  -13.2439 C   0  0  0  0  0  0  0  0  0  0  0  0
  -14.8210   -3.9071  -12.6881 C   0  0  0  0  0  0  0  0  0  0  0  0
  -15.1510   -3.3749  -11.4264 C   0  0  0  0  0  0  0  0  0  0  0  0
  -15.6258   -2.0586  -11.3288 C   0  0  0  0  0  0  0  0  0  0  0  0
  -15.7741   -1.2656  -12.4620 C   0  0  0  0  0  0  0  0  0  0  0  0
  -15.4628   -1.7643  -13.7261 C   0  0  0  0  0  0  0  0  0  0  0  0
  -14.9958   -3.0814  -13.8109 C   0  0  0  0  0  0  0  0  0  0  0  0
  -14.6423   -3.8027  -14.9356 N   0  0  0  0  0  0  0  0  0  0  0  0
  -14.2135   -5.0701  -14.6071 C   0  0  0  0  0  0  0  0  0  0  0  0
  -13.7679   -6.1468  -15.4099 C   0  0  0  0  0  0  0  0  0  0  0  0
  -13.7190   -6.1064  -16.8344 C   0  0  0  0  0  0  0  0  0  0  0  0
  -13.3443   -7.2636  -17.5591 C   0  0  0  0  0  0  0  0  0  0  0  0
  -14.0484   -6.6712  -11.1636 C   0  0  0  0  0  0  0  0  0  0  0  0
  -14.4068   -6.1388  -10.1227 O   0  0  0  0  0  0  0  0  0  0  0  0
  -13.5785   -7.9556  -11.2042 N   0  0  0  0  0  0  0  0  0  0  0  0
  -13.2458   -8.4455  -12.4346 C   0  0  0  0  0  0  0  0  0  0  0  0
  -12.8474   -9.5902  -12.6104 O   0  0  0  0  0  0  0  0  0  0  0  0
  -14.6933   -3.4634  -15.8864 H   0  0  0  0  0  0  0  0  0  0  0  0
  -13.5274   -8.5265  -10.3771 H   0  0  0  0  0  0  0  0  0  0  0  0
  -13.4921  -10.6638  -17.3899 C   0  0  0  0  0  0  0  0  0  0  0  0
  -12.5980   -9.5561  -17.5236 O   0  0  0  0  0  0  0  0  0  0  0  0
  -14.1822   -4.9353  -17.4035 O   0  0  0  0  0  0  0  0  0  0  0  0
  -13.2116   -4.0430  -17.9415 C   0  0  0  0  0  0  0  0  0  0  0  0
  -13.4427   -7.1570  -18.9215 O   0  0  0  0  0  0  0  0  0  0  0  0
  -12.2785   -7.0574  -19.7241 C   0  0  0  0  0  0  0  0  0  0  0  0
 25 26  1  0  0  0
 26  1  1  0  0  0
  1  2  1  0  0  0
  1 17  2  0  0  0
  2  3  2  0  0  0
  3  4  1  0  0  0
  3 15  1  0  0  0
  4  5  2  0  0  0
  4 21  1  0  0  0
  5  6  1  0  0  0
  5 18  1  0  0  0
  6  7  1  0  0  0
  6 14  2  0  0  0
  7  8  1  0  0  0
  7 12  2  0  0  0
  8  9  2  0  0  0
  9 10  1  0  0  0
 10 11  2  0  0  0
 11 12  1  0  0  0
 12 13  1  0  0  0
 13 14  1  0  0  0
 13 23  1  0  0  0
 14 15  1  0  0  0
 15 16  2  0  0  0
 16 27  1  0  0  0
 16 17  1  0  0  0
 27 28  1  0  0  0
 17 29  1  0  0  0
 29 30  1  0  0  0
 18 19  2  0  0  0
 18 20  1  0  0  0
 20 21  1  0  0  0
 20 24  1  0  0  0
 21 22  2  0  0  0
M  END
> <minimizedAffinity>
-7.14165

$$$$
