CHEMBL250853


 25 28  0  0  0  0  0  0  0  0999 V2000
  -29.7915   -8.6702   -6.1469 C   0  0  0  0  0  0  0  0  0  0  0  0
  -29.2748   -9.3302   -5.1343 N   0  0  0  0  0  0  0  0  0  0  0  0
  -28.3967   -8.4715   -4.5122 N   0  0  0  0  0  0  0  0  0  0  0  0
  -28.2837   -7.2181   -5.0932 C   0  0  0  0  0  0  0  0  0  0  0  0
  -27.5448   -6.3125   -4.7651 O   0  0  0  0  0  0  0  0  0  0  0  0
  -29.2833   -7.2742   -6.1802 C   0  0  0  0  0  0  0  0  0  0  0  0
  -29.7060   -6.2614   -6.9425 C   0  0  0  0  0  0  0  0  0  0  0  0
  -27.8479   -8.7691   -3.7149 H   0  0  0  0  0  0  0  0  0  0  0  0
  -29.1947   -4.9378   -6.9609 C   0  0  0  0  0  0  0  0  0  0  0  0
  -28.4372   -4.4593   -8.0036 C   0  0  0  0  0  0  0  0  0  0  0  0
  -28.2251   -3.1277   -7.7782 N   0  0  0  0  0  0  0  0  0  0  0  0
  -27.4993   -2.2543   -8.6734 C   0  0  0  0  0  0  0  0  0  0  0  0
  -28.8417   -2.7341   -6.6072 C   0  0  0  0  0  0  0  0  0  0  0  0
  -28.9327   -1.4678   -6.0061 C   0  0  0  0  0  0  0  0  0  0  0  0
  -29.6334   -1.3534   -4.8046 C   0  0  0  0  0  0  0  0  0  0  0  0
  -30.2092   -2.4683   -4.2038 C   0  0  0  0  0  0  0  0  0  0  0  0
  -30.1149   -3.7292   -4.8080 C   0  0  0  0  0  0  0  0  0  0  0  0
  -30.9113   -5.1990   -3.9105 Br  0  0  0  0  0  0  0  0  0  0  0  0
  -29.4368   -3.8741   -6.0418 C   0  0  0  0  0  0  0  0  0  0  0  0
  -32.8509   -7.9273   -6.7983 C   0  0  0  0  0  0  0  0  0  0  0  0
  -32.0202   -9.0222   -7.3586 C   0  0  0  0  0  0  0  0  0  0  0  0
  -32.6093   -9.8753   -8.2868 N   0  0  0  0  0  0  0  0  0  0  0  0
  -31.7813  -10.8259   -8.6793 N   0  0  0  0  0  0  0  0  0  0  0  0
  -30.2989  -10.7350   -7.9298 S   0  0  0  0  0  0  0  0  0  0  0  0
  -30.6906   -9.3057   -7.0675 C   0  0  0  0  0  0  0  0  0  0  0  0
 20 21  1  0  0  0
 21 22  1  0  0  0
 21 25  2  0  0  0
 22 23  2  0  0  0
 23 24  1  0  0  0
 24 25  1  0  0  0
 25  1  1  0  0  0
  1  2  2  0  0  0
  1  6  1  0  0  0
  2  3  1  0  0  0
  3  4  1  0  0  0
  3  8  1  0  0  0
  4  5  2  0  0  0
  4  6  1  0  0  0
  6  7  2  0  0  0
  7  9  1  0  0  0
  9 10  2  0  0  0
  9 19  1  0  0  0
 10 11  1  0  0  0
 11 12  1  0  0  0
 11 13  1  0  0  0
 13 14  1  0  0  0
 13 19  2  0  0  0
 14 15  2  0  0  0
 15 16  1  0  0  0
 16 17  2  0  0  0
 17 18  1  0  0  0
 17 19  1  0  0  0
M  END
> <minimizedAffinity>
-8.41985

$$$$
