CHEMBL3648079


 39 40  0  0  0  0  0  0  0  0999 V2000
  -28.1060   -2.5919   -7.3072 C   0  0  0  0  0  0  0  0  0  0  0  0
  -28.1349   -2.6799   -5.8986 C   0  0  0  0  0  0  0  0  0  0  0  0
  -28.4897   -3.8458   -5.2158 C   0  0  0  0  0  0  0  0  0  0  0  0
  -28.8550   -4.9589   -5.9474 C   0  0  0  0  0  0  0  0  0  0  0  0
  -28.9111   -4.8858   -7.3474 C   0  0  0  0  0  0  0  0  0  0  0  0
  -28.5246   -3.7129   -8.0222 C   0  0  0  0  0  0  0  0  0  0  0  0
  -29.2842   -6.4554   -5.1656 S   0  0  0  0  0  0  0  0  0  0  0  0
  -28.6438   -6.5034   -3.8667 O   0  0  0  0  0  0  0  0  0  0  0  0
  -28.8640   -7.7539   -6.1477 N   0  0  0  0  0  0  0  0  0  0  0  0
  -29.1585   -9.3684   -5.6984 S   0  0  0  0  0  0  0  0  0  0  0  0
  -29.0796   -9.4727   -4.2569 O   0  0  0  0  0  0  0  0  0  0  0  0
  -30.3125   -9.8856   -6.4326 O   0  0  0  0  0  0  0  0  0  0  0  0
  -27.7157  -10.1957   -6.3667 C   0  0  0  0  0  0  0  0  0  0  0  0
  -27.0471  -11.0974   -5.3323 C   0  0  0  0  0  0  0  0  0  0  0  0
  -25.3465  -10.5331   -4.6973 Si  0  0  0  0  0  0  0  0  0  0  0  0
  -24.6935  -11.7989   -3.4802 C   0  0  0  0  0  0  0  0  0  0  0  0
  -24.1810  -10.3958   -6.1651 C   0  0  0  0  0  0  0  0  0  0  0  0
  -25.4631   -8.8632   -3.8571 C   0  0  0  0  0  0  0  0  0  0  0  0
  -31.0518   -6.5658   -5.0372 C   0  0  0  0  0  0  0  0  0  0  0  0
  -31.5873   -5.7660   -3.8866 C   0  0  0  0  0  0  0  0  0  0  0  0
  -31.7292   -4.5545   -3.8871 O   0  0  0  0  0  0  0  0  0  0  0  0
  -27.5283   -1.4917   -7.9658 N   0  0  0  0  0  0  0  0  0  0  0  0
  -27.3842   -0.6216   -7.4688 H   0  0  0  0  0  0  0  0  0  0  0  0
  -25.9314   -1.6460  -11.1990 C   0  0  0  0  0  0  0  0  0  0  0  0
  -26.0655   -1.5818   -9.8527 N   0  0  0  0  0  0  0  0  0  0  0  0
  -27.2953   -1.3823   -9.3424 C   0  0  0  0  0  0  0  0  0  0  0  0
  -28.3490   -1.0676  -10.1109 N   0  0  0  0  0  0  0  0  0  0  0  0
  -28.2308   -1.1987  -11.4280 C   0  0  0  0  0  0  0  0  0  0  0  0
  -27.0569   -1.5679  -12.0296 C   0  0  0  0  0  0  0  0  0  0  0  0
  -27.1625   -2.0150  -13.8590 Br  0  0  0  0  0  0  0  0  0  0  0  0
  -24.6495   -1.9437  -11.7171 N   0  0  0  0  0  0  0  0  0  0  0  0
  -24.2258   -2.5657  -11.0229 H   0  0  0  0  0  0  0  0  0  0  0  0
  -24.4571    0.5301  -11.7583 C   0  0  0  0  0  0  0  0  0  0  0  0
  -23.7064   -0.8015  -11.9916 C   0  0  0  0  0  0  0  0  0  0  0  0
  -23.1371   -0.8403  -13.4651 C   0  0  0  0  0  0  0  0  0  0  0  0
  -24.2214   -0.5551  -14.5254 C   0  0  0  0  0  0  0  0  0  0  0  0
  -22.0009    0.1662  -13.6750 C   0  0  0  0  0  0  0  0  0  0  0  0
  -22.5796   -2.1340  -13.7427 O   0  0  0  0  0  0  0  0  0  0  0  0
  -23.3080   -2.7776  -13.8159 H   0  0  0  0  0  0  0  0  0  0  0  0
 33 34  1  0  0  0
 34 31  1  0  0  0
 34 35  1  0  0  0
 31 24  1  0  0  0
 31 32  1  0  0  0
 24 25  1  0  0  0
 24 29  2  0  0  0
 25 26  2  0  0  0
 26 22  1  0  0  0
 26 27  1  0  0  0
 22  1  1  0  0  0
 22 23  1  0  0  0
  1  2  1  0  0  0
  1  6  2  0  0  0
  2  3  2  0  0  0
  3  4  1  0  0  0
  4  7  1  0  0  0
  4  5  2  0  0  0
  7  8  2  0  0  0
  7 19  1  0  0  0
  7  9  2  0  0  0
 19 20  1  0  0  0
 20 21  2  0  0  0
  9 10  1  0  0  0
 10 11  2  0  0  0
 10 12  2  0  0  0
 10 13  1  0  0  0
 13 14  1  0  0  0
 14 15  1  0  0  0
 15 16  1  0  0  0
 15 17  1  0  0  0
 15 18  1  0  0  0
  5  6  1  0  0  0
 27 28  2  0  0  0
 28 29  1  0  0  0
 29 30  1  0  0  0
 35 36  1  0  0  0
 35 37  1  0  0  0
 35 38  1  0  0  0
 38 39  1  0  0  0
M  END
> <minimizedAffinity>
-7.93431

$$$$
