CHEMBL3644022


 33 35  0  0  0  0  0  0  0  0999 V2000
  -29.3983   -3.7346   -5.8974 C   0  0  0  0  0  0  0  0  0  0  0  0
  -29.7769   -4.8230   -6.6112 N   0  0  0  0  0  0  0  0  0  0  0  0
  -29.9501   -5.9648   -5.9238 C   0  0  0  0  0  0  0  0  0  0  0  0
  -29.6367   -6.0879   -4.6256 N   0  0  0  0  0  0  0  0  0  0  0  0
  -29.2815   -4.9884   -3.9560 C   0  0  0  0  0  0  0  0  0  0  0  0
  -29.2061   -3.7492   -4.5354 C   0  0  0  0  0  0  0  0  0  0  0  0
  -28.9923   -2.5737   -3.6604 C   0  0  0  0  0  0  0  0  0  0  0  0
  -27.8807   -1.8335   -3.9109 F   0  0  0  0  0  0  0  0  0  0  0  0
  -30.0381   -1.6985   -3.7516 F   0  0  0  0  0  0  0  0  0  0  0  0
  -28.9277   -2.9131   -2.3417 F   0  0  0  0  0  0  0  0  0  0  0  0
  -30.5340   -7.0650   -6.5563 N   0  0  0  0  0  0  0  0  0  0  0  0
  -31.2455   -7.5097   -5.9980 H   0  0  0  0  0  0  0  0  0  0  0  0
  -29.9466   -7.8396   -7.5830 C   0  0  0  0  0  0  0  0  0  0  0  0
  -30.6135   -8.9373   -8.1585 C   0  0  0  0  0  0  0  0  0  0  0  0
  -29.9743   -9.8029   -9.0503 C   0  0  0  0  0  0  0  0  0  0  0  0
  -28.6432   -9.5736   -9.3881 C   0  0  0  0  0  0  0  0  0  0  0  0
  -27.9685   -8.4644   -8.8648 C   0  0  0  0  0  0  0  0  0  0  0  0
  -28.6275   -7.5920   -7.9824 C   0  0  0  0  0  0  0  0  0  0  0  0
  -27.7456  -10.8315  -10.2769 S   0  0  0  0  0  0  0  0  0  0  0  0
  -28.7300  -11.6156  -11.0005 O   0  0  0  0  0  0  0  0  0  0  0  0
  -26.6815  -10.1567  -11.0038 O   0  0  0  0  0  0  0  0  0  0  0  0
  -26.9808  -11.8735   -9.0562 C   0  0  0  0  0  0  0  0  0  0  0  0
  -27.8359  -11.9581   -7.7896 C   0  0  0  0  0  0  0  0  0  0  0  0
  -26.8723  -12.2687   -6.6501 C   0  0  0  0  0  0  0  0  0  0  0  0
  -25.4669  -12.0421   -7.1960 C   0  0  0  0  0  0  0  0  0  0  0  0
  -25.6405  -11.3647   -8.5492 C   0  0  0  0  0  0  0  0  0  0  0  0
  -29.2837   -2.5151   -6.5353 O   0  0  0  0  0  0  0  0  0  0  0  0
  -28.0242   -2.2131   -7.1651 C   0  0  0  0  0  0  0  0  0  0  0  0
  -27.7805   -0.7034   -7.0839 C   0  0  0  0  0  0  0  0  0  0  0  0
  -27.3282   -1.7299   -9.5824 C   0  0  0  0  0  0  0  0  0  0  0  0
  -28.1073   -2.6484   -8.6505 C   0  0  0  0  0  0  0  0  0  0  0  0
  -27.6116   -3.9794   -8.8270 O   0  0  0  0  0  0  0  0  0  0  0  0
  -26.7046   -3.9963   -8.4696 H   0  0  0  0  0  0  0  0  0  0  0  0
 30 31  1  0  0  0
 31 32  1  0  0  0
 31 28  1  0  0  0
 32 33  1  0  0  0
 28 29  1  0  0  0
 28 27  1  0  0  0
 27  1  1  0  0  0
  1  2  1  0  0  0
  1  6  2  0  0  0
  2  3  2  0  0  0
  3 11  1  0  0  0
  3  4  1  0  0  0
 11 13  1  0  0  0
 11 12  1  0  0  0
 13 14  1  0  0  0
 13 18  2  0  0  0
 14 15  2  0  0  0
 15 16  1  0  0  0
 16 19  1  0  0  0
 16 17  2  0  0  0
 19 20  2  0  0  0
 19 21  2  0  0  0
 19 22  1  0  0  0
 22 23  1  0  0  0
 22 26  1  0  0  0
 23 24  1  0  0  0
 24 25  1  0  0  0
 25 26  1  0  0  0
 17 18  1  0  0  0
  4  5  2  0  0  0
  5  6  1  0  0  0
  6  7  1  0  0  0
  7  8  1  0  0  0
  7  9  1  0  0  0
  7 10  1  0  0  0
M  END
> <minimizedAffinity>
-8.22878

$$$$
