CHEMBL427226


 38 42  0  0  0  0  0  0  0  0999 V2000
  -19.8411    1.7104  -14.4939 C   0  0  0  0  0  0  0  0  0  0  0  0
  -18.6947    1.0303  -14.0137 C   0  0  0  0  0  0  0  0  0  0  0  0
  -17.3892    1.2871  -14.4786 C   0  0  0  0  0  0  0  0  0  0  0  0
  -17.1906    2.3038  -15.4004 C   0  0  0  0  0  0  0  0  0  0  0  0
  -18.2945    3.0164  -15.8765 C   0  0  0  0  0  0  0  0  0  0  0  0
  -19.6152    2.7232  -15.4603 C   0  0  0  0  0  0  0  0  0  0  0  0
  -20.7193    3.5239  -16.1068 C   0  0  0  0  0  0  0  0  0  0  0  0
  -25.1819   -1.1937  -12.2772 C   0  0  0  0  0  0  0  0  0  0  0  0
  -24.2778   -2.1625  -12.4592 N   0  0  0  0  0  0  0  0  0  0  0  0
  -23.0712   -1.7795  -12.9219 C   0  0  0  0  0  0  0  0  0  0  0  0
  -22.7360   -0.4690  -13.2268 C   0  0  0  0  0  0  0  0  0  0  0  0
  -21.4815   -0.0589  -13.7371 C   0  0  0  0  0  0  0  0  0  0  0  0
  -21.1834    1.2972  -13.9806 C   0  0  0  0  0  0  0  0  0  0  0  0
  -22.2030    2.2095  -13.6750 C   0  0  0  0  0  0  0  0  0  0  0  0
  -23.4639    1.7886  -13.2236 C   0  0  0  0  0  0  0  0  0  0  0  0
  -23.7447    0.4543  -12.9871 C   0  0  0  0  0  0  0  0  0  0  0  0
  -24.9530    0.1018  -12.5319 N   0  0  0  0  0  0  0  0  0  0  0  0
  -27.3493   -1.9661  -12.8687 C   0  0  0  0  0  0  0  0  0  0  0  0
  -26.4272   -1.6014  -11.8180 N   0  0  0  0  0  0  0  0  0  0  0  0
  -26.2532   -2.3060  -11.1119 H   0  0  0  0  0  0  0  0  0  0  0  0
  -16.2841    0.4661  -13.9020 C   0  0  0  0  0  0  0  0  0  0  0  0
  -15.4132    1.0786  -13.2886 O   0  0  0  0  0  0  0  0  0  0  0  0
  -16.3215   -0.9162  -14.0835 N   0  0  0  0  0  0  0  0  0  0  0  0
  -17.0296   -1.3029  -14.6892 H   0  0  0  0  0  0  0  0  0  0  0  0
  -15.4161   -1.8406  -13.4925 C   0  0  0  0  0  0  0  0  0  0  0  0
  -14.3301   -2.3830  -14.1784 C   0  0  0  0  0  0  0  0  0  0  0  0
  -13.4634   -3.3007  -13.5615 C   0  0  0  0  0  0  0  0  0  0  0  0
  -13.6520   -3.7012  -12.2399 C   0  0  0  0  0  0  0  0  0  0  0  0
  -14.7310   -3.1564  -11.5408 C   0  0  0  0  0  0  0  0  0  0  0  0
  -15.5967   -2.2247  -12.1619 C   0  0  0  0  0  0  0  0  0  0  0  0
  -12.7300   -4.6132  -11.7898 O   0  0  0  0  0  0  0  0  0  0  0  0
  -13.0257   -5.4020  -10.6288 C   0  0  0  0  0  0  0  0  0  0  0  0
  -11.7715   -6.0929  -10.0995 C   0  0  0  0  0  0  0  0  0  0  0  0
  -11.2666   -7.1869  -11.0410 C   0  0  0  0  0  0  0  0  0  0  0  0
  -12.2811   -8.1939  -11.3763 N   0  0  0  0  0  0  0  0  0  0  0  0
  -11.7476   -9.0966  -12.4096 C   0  0  0  0  0  0  0  0  0  0  0  0
  -13.5453   -7.6115  -11.8403 C   0  0  0  0  0  0  0  0  0  0  0  0
  -14.0732   -6.4671  -10.9713 C   0  0  0  0  0  0  0  0  0  0  0  0
 18 19  1  0  0  0
 19  8  1  0  0  0
 19 20  1  0  0  0
  8  9  1  0  0  0
  8 17  2  0  0  0
  9 10  2  0  0  0
 10 11  1  0  0  0
 11 12  1  0  0  0
 11 16  2  0  0  0
 12 13  2  0  0  0
 13  1  1  0  0  0
 13 14  1  0  0  0
  1  2  1  0  0  0
  1  6  2  0  0  0
  2  3  2  0  0  0
  3 21  1  0  0  0
  3  4  1  0  0  0
 21 22  2  0  0  0
 21 23  1  0  0  0
 23 25  1  0  0  0
 23 24  1  0  0  0
 25 26  1  0  0  0
 25 30  2  0  0  0
 26 27  2  0  0  0
 27 28  1  0  0  0
 28 31  1  0  0  0
 28 29  2  0  0  0
 31 32  1  0  0  0
 32 33  1  0  0  0
 32 38  1  0  0  0
 33 34  1  0  0  0
 34 35  1  0  0  0
 35 36  1  0  0  0
 35 37  1  0  0  0
 37 38  1  0  0  0
 29 30  1  0  0  0
  4  5  2  0  0  0
  5  6  1  0  0  0
  6  7  1  0  0  0
 14 15  2  0  0  0
 15 16  1  0  0  0
 16 17  1  0  0  0
M  END
> <minimizedAffinity>
-9.70283

$$$$
