CHEMBL185569


 30 33  0  0  0  0  0  0  0  0999 V2000
  -26.1418   -1.2110  -12.2306 C   0  0  0  0  0  0  0  0  0  0  0  0
  -25.7563   -1.6435  -13.5017 C   0  0  0  0  0  0  0  0  0  0  0  0
  -24.5683   -1.1858  -14.0817 C   0  0  0  0  0  0  0  0  0  0  0  0
  -23.7414   -0.2575  -13.4251 C   0  0  0  0  0  0  0  0  0  0  0  0
  -24.1940    0.2118  -12.1769 C   0  0  0  0  0  0  0  0  0  0  0  0
  -25.3736   -0.2559  -11.5801 C   0  0  0  0  0  0  0  0  0  0  0  0
  -22.4697    0.2084  -14.0352 C   0  0  0  0  0  0  0  0  0  0  0  0
  -21.5311   -0.7221  -14.5481 C   0  0  0  0  0  0  0  0  0  0  0  0
  -20.3153   -0.3330  -15.1513 C   0  0  0  0  0  0  0  0  0  0  0  0
  -19.9893    1.0110  -15.2712 C   0  0  0  0  0  0  0  0  0  0  0  0
  -20.8915    1.9197  -14.7589 C   0  0  0  0  0  0  0  0  0  0  0  0
  -22.1020    1.5527  -14.1467 C   0  0  0  0  0  0  0  0  0  0  0  0
  -22.7917    2.7991  -13.6838 C   0  0  0  0  0  0  0  0  0  0  0  0
  -21.8919    3.8500  -14.0812 N   0  0  0  0  0  0  0  0  0  0  0  0
  -20.7838    3.3819  -14.7461 C   0  0  0  0  0  0  0  0  0  0  0  0
  -19.8975    4.0431  -15.2452 O   0  0  0  0  0  0  0  0  0  0  0  0
  -22.0792    4.8403  -14.0091 H   0  0  0  0  0  0  0  0  0  0  0  0
  -28.3176   -2.5560   -9.6688 N   0  0  0  0  0  0  0  0  0  0  0  0
  -27.1725   -1.9950  -10.1999 C   0  0  0  0  0  0  0  0  0  0  0  0
  -26.1757   -1.6778   -9.5515 O   0  0  0  0  0  0  0  0  0  0  0  0
  -27.2588   -1.7787  -11.5677 N   0  0  0  0  0  0  0  0  0  0  0  0
  -28.9986   -2.9163  -10.3237 H   0  0  0  0  0  0  0  0  0  0  0  0
  -28.1676   -1.4699  -11.8812 H   0  0  0  0  0  0  0  0  0  0  0  0
  -27.5936   -1.2163   -4.9524 C   0  0  0  0  0  0  0  0  0  0  0  0
  -28.1809   -2.1488   -5.9702 C   0  0  0  0  0  0  0  0  0  0  0  0
  -28.9396   -3.2470   -5.5416 C   0  0  0  0  0  0  0  0  0  0  0  0
  -29.4889   -4.1175   -6.4700 C   0  0  0  0  0  0  0  0  0  0  0  0
  -29.2875   -3.9014   -7.8321 C   0  0  0  0  0  0  0  0  0  0  0  0
  -28.5416   -2.8098   -8.2923 C   0  0  0  0  0  0  0  0  0  0  0  0
  -27.9870   -1.9382   -7.3473 C   0  0  0  0  0  0  0  0  0  0  0  0
 24 25  1  0  0  0
 25 26  1  0  0  0
 25 30  2  0  0  0
 26 27  2  0  0  0
 27 28  1  0  0  0
 28 29  2  0  0  0
 29 18  1  0  0  0
 29 30  1  0  0  0
 18 19  1  0  0  0
 18 22  1  0  0  0
 19 20  2  0  0  0
 19 21  1  0  0  0
 21  1  1  0  0  0
 21 23  1  0  0  0
  1  2  1  0  0  0
  1  6  2  0  0  0
  2  3  2  0  0  0
  3  4  1  0  0  0
  4  7  1  0  0  0
  4  5  2  0  0  0
  7  8  1  0  0  0
  7 12  2  0  0  0
  8  9  2  0  0  0
  9 10  1  0  0  0
 10 11  2  0  0  0
 11 12  1  0  0  0
 11 15  1  0  0  0
 12 13  1  0  0  0
 13 14  1  0  0  0
 14 15  1  0  0  0
 14 17  1  0  0  0
 15 16  2  0  0  0
  5  6  1  0  0  0
M  END
> <minimizedAffinity>
-10.93304

$$$$
