CHEMBL241682


 47 51  0  0  0  0  0  0  0  0999 V2000
  -12.7192    1.4498  -17.6424 N   0  0  0  0  0  0  0  0  0  0  0  0
  -13.1469    2.7490  -17.8790 C   0  0  0  0  0  0  0  0  0  0  0  0
  -12.5232    3.3870  -18.8897 N   0  0  0  0  0  0  0  0  0  0  0  0
  -12.8972    4.6435  -19.2301 C   0  0  0  0  0  0  0  0  0  0  0  0
  -13.9035    5.4006  -18.6303 C   0  0  0  0  0  0  0  0  0  0  0  0
  -14.5101    4.7013  -17.5841 C   0  0  0  0  0  0  0  0  0  0  0  0
  -15.5225    5.1857  -16.8078 O   0  0  0  0  0  0  0  0  0  0  0  0
  -15.8598    4.2170  -15.9347 C   0  0  0  0  0  0  0  0  0  0  0  0
  -15.0660    3.1008  -16.0911 C   0  0  0  0  0  0  0  0  0  0  0  0
  -14.1738    3.4082  -17.1773 C   0  0  0  0  0  0  0  0  0  0  0  0
  -12.1343    1.1544  -18.4177 H   0  0  0  0  0  0  0  0  0  0  0  0
  -13.4770    0.8169  -17.4180 H   0  0  0  0  0  0  0  0  0  0  0  0
  -14.2564    6.7725  -19.0204 C   0  0  0  0  0  0  0  0  0  0  0  0
  -13.6677    7.9053  -18.4237 C   0  0  0  0  0  0  0  0  0  0  0  0
  -13.9665    9.2068  -18.8467 C   0  0  0  0  0  0  0  0  0  0  0  0
  -14.8872    9.4108  -19.8653 C   0  0  0  0  0  0  0  0  0  0  0  0
  -15.4987    8.3039  -20.4485 C   0  0  0  0  0  0  0  0  0  0  0  0
  -15.1927    7.0021  -20.0388 C   0  0  0  0  0  0  0  0  0  0  0  0
  -16.6235    8.5335  -21.7856 S   0  0  0  0  0  0  0  0  0  0  0  0
  -16.3413    7.1099  -22.6208 N   0  0  0  0  0  0  0  0  0  0  0  0
  -17.9770    8.4613  -21.2864 O   0  0  0  0  0  0  0  0  0  0  0  0
  -16.1579    9.6108  -22.6257 O   0  0  0  0  0  0  0  0  0  0  0  0
  -17.1713    6.5206  -22.6517 H   0  0  0  0  0  0  0  0  0  0  0  0
  -15.8748    7.2783  -23.5092 H   0  0  0  0  0  0  0  0  0  0  0  0
  -15.2558    1.8897  -15.3091 C   0  0  0  0  0  0  0  0  0  0  0  0
  -14.2034    1.3938  -14.5466 C   0  0  0  0  0  0  0  0  0  0  0  0
  -14.3760    0.2708  -13.7364 C   0  0  0  0  0  0  0  0  0  0  0  0
  -15.6141   -0.3691  -13.6358 C   0  0  0  0  0  0  0  0  0  0  0  0
  -16.6647    0.1040  -14.4244 C   0  0  0  0  0  0  0  0  0  0  0  0
  -16.4762    1.2080  -15.2725 C   0  0  0  0  0  0  0  0  0  0  0  0
  -15.8493   -1.4674  -12.7745 N   0  0  0  0  0  0  0  0  0  0  0  0
  -15.3472   -2.7370  -12.9691 C   0  0  0  0  0  0  0  0  0  0  0  0
  -14.5866   -3.0599  -13.8756 O   0  0  0  0  0  0  0  0  0  0  0  0
  -15.8163   -3.6555  -12.0384 N   0  0  0  0  0  0  0  0  0  0  0  0
  -16.2976   -1.2816  -11.8891 H   0  0  0  0  0  0  0  0  0  0  0  0
  -16.7987   -3.5457  -11.8157 H   0  0  0  0  0  0  0  0  0  0  0  0
  -15.3853   -5.0009  -12.1946 C   0  0  0  0  0  0  0  0  0  0  0  0
  -14.1308   -5.4078  -11.7181 C   0  0  0  0  0  0  0  0  0  0  0  0
  -13.5958   -6.6523  -12.0751 C   0  0  0  0  0  0  0  0  0  0  0  0
  -14.3543   -7.4974  -12.9024 C   0  0  0  0  0  0  0  0  0  0  0  0
  -15.6346   -7.1208  -13.3247 C   0  0  0  0  0  0  0  0  0  0  0  0
  -16.1510   -5.8841  -12.9512 C   0  0  0  0  0  0  0  0  0  0  0  0
  -17.3524   -5.5028  -13.4101 F   0  0  0  0  0  0  0  0  0  0  0  0
  -12.2133   -7.0527  -11.6199 C   0  0  0  0  0  0  0  0  0  0  0  0
  -11.2925   -7.0959  -12.6229 F   0  0  0  0  0  0  0  0  0  0  0  0
  -11.7096   -6.1896  -10.6937 F   0  0  0  0  0  0  0  0  0  0  0  0
  -12.1899   -8.2817  -11.0352 F   0  0  0  0  0  0  0  0  0  0  0  0
  1  2  1  0  0  0
  1 11  1  0  0  0
  1 12  1  0  0  0
  2  3  1  0  0  0
  2 10  2  0  0  0
  3  4  2  0  0  0
  4  5  1  0  0  0
  5 13  1  0  0  0
  5  6  2  0  0  0
 13 14  1  0  0  0
 13 18  2  0  0  0
 14 15  2  0  0  0
 15 16  1  0  0  0
 16 17  2  0  0  0
 17 19  1  0  0  0
 17 18  1  0  0  0
 19 20  1  0  0  0
 19 21  2  0  0  0
 19 22  2  0  0  0
 20 23  1  0  0  0
 20 24  1  0  0  0
  6  7  1  0  0  0
  6 10  1  0  0  0
  7  8  1  0  0  0
  8  9  2  0  0  0
  9 25  1  0  0  0
  9 10  1  0  0  0
 25 26  1  0  0  0
 25 30  2  0  0  0
 26 27  2  0  0  0
 27 28  1  0  0  0
 28 31  1  0  0  0
 28 29  2  0  0  0
 31 32  1  0  0  0
 31 35  1  0  0  0
 32 33  2  0  0  0
 32 34  1  0  0  0
 34 37  1  0  0  0
 34 36  1  0  0  0
 37 38  1  0  0  0
 37 42  2  0  0  0
 38 39  2  0  0  0
 39 44  1  0  0  0
 39 40  1  0  0  0
 44 45  1  0  0  0
 44 46  1  0  0  0
 44 47  1  0  0  0
 40 41  2  0  0  0
 41 42  1  0  0  0
 42 43  1  0  0  0
 29 30  1  0  0  0
M  END
> <minimizedAffinity>
-8.44616

$$$$
