CHEMBL2011304


 27 30  0  0  0  0  0  0  0  0999 V2000
  -28.7426   -6.8370   -5.3520 C   0  0  0  0  0  0  0  0  0  0  0  0
  -28.3662   -5.5454   -5.0472 C   0  0  0  0  0  0  0  0  0  0  0  0
  -29.0319   -4.6954   -5.9104 N   0  0  0  0  0  0  0  0  0  0  0  0
  -29.8513   -5.3936   -6.7256 N   0  0  0  0  0  0  0  0  0  0  0  0
  -29.7377   -6.6805   -6.3667 C   0  0  0  0  0  0  0  0  0  0  0  0
  -28.9311   -3.2742   -5.9971 C   0  0  0  0  0  0  0  0  0  0  0  0
  -28.2881   -2.6420   -7.0841 C   0  0  0  0  0  0  0  0  0  0  0  0
  -27.7086   -3.4511   -8.5046 Cl  0  0  0  0  0  0  0  0  0  0  0  0
  -28.1786   -1.2448   -7.1388 C   0  0  0  0  0  0  0  0  0  0  0  0
  -28.7264   -0.4598   -6.1352 C   0  0  0  0  0  0  0  0  0  0  0  0
  -28.5950    1.2525   -6.2192 Cl  0  0  0  0  0  0  0  0  0  0  0  0
  -29.3820   -1.0544   -5.0673 C   0  0  0  0  0  0  0  0  0  0  0  0
  -29.4821   -2.4520   -4.9859 C   0  0  0  0  0  0  0  0  0  0  0  0
  -30.1960   -3.0260   -3.5120 Cl  0  0  0  0  0  0  0  0  0  0  0  0
  -26.6844  -11.5142   -3.0785 F   0  0  0  0  0  0  0  0  0  0  0  0
  -27.1782  -10.3678   -3.5634 C   0  0  0  0  0  0  0  0  0  0  0  0
  -28.5527  -10.1767   -3.6057 C   0  0  0  0  0  0  0  0  0  0  0  0
  -29.0717   -9.0048   -4.1642 C   0  0  0  0  0  0  0  0  0  0  0  0
  -28.2146   -8.0140   -4.6692 C   0  0  0  0  0  0  0  0  0  0  0  0
  -26.8282   -8.1999   -4.5409 C   0  0  0  0  0  0  0  0  0  0  0  0
  -26.3097   -9.3880   -4.0215 C   0  0  0  0  0  0  0  0  0  0  0  0
  -30.5872   -7.6937   -7.0017 C   0  0  0  0  0  0  0  0  0  0  0  0
  -31.9558   -7.7430   -6.7275 C   0  0  0  0  0  0  0  0  0  0  0  0
  -32.7303   -8.6783   -7.3955 C   0  0  0  0  0  0  0  0  0  0  0  0
  -32.2427   -9.5444   -8.3090 N   0  0  0  0  0  0  0  0  0  0  0  0
  -30.9148   -9.5020   -8.5353 C   0  0  0  0  0  0  0  0  0  0  0  0
  -30.0550   -8.6254   -7.8966 C   0  0  0  0  0  0  0  0  0  0  0  0
 15 16  1  0  0  0
 16 17  1  0  0  0
 16 21  2  0  0  0
 17 18  2  0  0  0
 18 19  1  0  0  0
 19  1  1  0  0  0
 19 20  2  0  0  0
  1  2  2  0  0  0
  1  5  1  0  0  0
  2  3  1  0  0  0
  3  6  1  0  0  0
  3  4  1  0  0  0
  6  7  1  0  0  0
  6 13  2  0  0  0
  7  8  1  0  0  0
  7  9  2  0  0  0
  9 10  1  0  0  0
 10 11  1  0  0  0
 10 12  2  0  0  0
 12 13  1  0  0  0
 13 14  1  0  0  0
  4  5  2  0  0  0
  5 22  1  0  0  0
 22 23  1  0  0  0
 22 27  2  0  0  0
 23 24  2  0  0  0
 24 25  1  0  0  0
 25 26  2  0  0  0
 26 27  1  0  0  0
 20 21  1  0  0  0
M  END
> <minimizedAffinity>
-9.26942

$$$$
