CHEMBL3746226


 34 38  0  0  0  0  0  0  0  0999 V2000
  -26.2127   -9.6629   -5.8537 N   0  0  0  0  0  0  0  0  0  0  0  0
  -27.2874  -10.4980   -5.6555 C   0  0  0  0  0  0  0  0  0  0  0  0
  -27.3270  -11.6823   -5.3643 O   0  0  0  0  0  0  0  0  0  0  0  0
  -28.5028   -9.8509   -5.9638 N   0  0  0  0  0  0  0  0  0  0  0  0
  -29.5173  -10.4684   -6.6773 C   0  0  0  0  0  0  0  0  0  0  0  0
  -30.5339   -9.5717   -6.8896 C   0  0  0  0  0  0  0  0  0  0  0  0
  -30.1528   -8.3434   -6.2899 C   0  0  0  0  0  0  0  0  0  0  0  0
  -30.7573   -7.0682   -6.2201 C   0  0  0  0  0  0  0  0  0  0  0  0
  -30.1114   -6.0209   -5.5448 C   0  0  0  0  0  0  0  0  0  0  0  0
  -28.9206   -6.2698   -4.8683 C   0  0  0  0  0  0  0  0  0  0  0  0
  -28.3227   -7.5372   -4.8875 C   0  0  0  0  0  0  0  0  0  0  0  0
  -28.9116   -8.5455   -5.6722 C   0  0  0  0  0  0  0  0  0  0  0  0
  -26.3480   -8.7144   -6.1748 H   0  0  0  0  0  0  0  0  0  0  0  0
  -22.9588  -10.9877   -6.3775 C   0  0  0  0  0  0  0  0  0  0  0  0
  -24.2210  -10.7243   -6.8610 C   0  0  0  0  0  0  0  0  0  0  0  0
  -24.9054  -10.1107   -5.7869 C   0  0  0  0  0  0  0  0  0  0  0  0
  -24.1128  -10.0334   -4.7164 N   0  0  0  0  0  0  0  0  0  0  0  0
  -22.9022  -10.5764   -5.0824 O   0  0  0  0  0  0  0  0  0  0  0  0
  -21.0145  -12.4622   -5.9437 C   0  0  0  0  0  0  0  0  0  0  0  0
  -21.6985  -11.5485   -6.9757 C   0  0  0  0  0  0  0  0  0  0  0  0
  -20.7344  -10.4060   -7.3439 C   0  0  0  0  0  0  0  0  0  0  0  0
  -22.0008  -12.3607   -8.2492 C   0  0  0  0  0  0  0  0  0  0  0  0
  -30.6772   -4.7690   -5.7014 O   0  0  0  0  0  0  0  0  0  0  0  0
  -29.9675   -3.6351   -5.3268 C   0  0  0  0  0  0  0  0  0  0  0  0
  -30.1803   -3.1326   -4.0991 N   0  0  0  0  0  0  0  0  0  0  0  0
  -29.5301   -1.9998   -3.8362 C   0  0  0  0  0  0  0  0  0  0  0  0
  -28.7302   -1.3248   -4.6751 N   0  0  0  0  0  0  0  0  0  0  0  0
  -28.5549   -1.8458   -5.9200 C   0  0  0  0  0  0  0  0  0  0  0  0
  -29.1660   -3.0266   -6.2790 C   0  0  0  0  0  0  0  0  0  0  0  0
  -28.9726   -3.6223   -7.6320 C   0  0  0  0  0  0  0  0  0  0  0  0
  -28.0558   -2.8827   -8.6047 C   0  0  0  0  0  0  0  0  0  0  0  0
  -27.4863   -1.6013   -8.2413 N   0  0  0  0  0  0  0  0  0  0  0  0
  -27.6854   -1.0808   -6.8854 C   0  0  0  0  0  0  0  0  0  0  0  0
  -27.7313   -0.8909   -8.9297 H   0  0  0  0  0  0  0  0  0  0  0  0
 19 20  1  0  0  0
 20 21  1  0  0  0
 20 22  1  0  0  0
 20 14  1  0  0  0
 14 15  2  0  0  0
 14 18  1  0  0  0
 15 16  1  0  0  0
 16  1  1  0  0  0
 16 17  2  0  0  0
  1  2  1  0  0  0
  1 13  1  0  0  0
  2  3  2  0  0  0
  2  4  1  0  0  0
  4  5  1  0  0  0
  4 12  1  0  0  0
  5  6  2  0  0  0
  6  7  1  0  0  0
  7  8  1  0  0  0
  7 12  2  0  0  0
  8  9  2  0  0  0
  9 23  1  0  0  0
  9 10  1  0  0  0
 23 24  1  0  0  0
 24 25  1  0  0  0
 24 29  2  0  0  0
 25 26  2  0  0  0
 26 27  1  0  0  0
 27 28  2  0  0  0
 28 29  1  0  0  0
 28 33  1  0  0  0
 29 30  1  0  0  0
 30 31  1  0  0  0
 31 32  1  0  0  0
 32 33  1  0  0  0
 32 34  1  0  0  0
 10 11  2  0  0  0
 11 12  1  0  0  0
 17 18  1  0  0  0
M  END
> <minimizedAffinity>
-9.81851

$$$$
