CHEMBL3676343


 38 40  0  0  0  0  0  0  0  0999 V2000
  -29.1796   -8.6371   -5.2548 C   0  0  0  0  0  0  0  0  0  0  0  0
  -28.5532   -9.7888   -5.7375 C   0  0  0  0  0  0  0  0  0  0  0  0
  -27.1933  -10.0305   -5.4631 C   0  0  0  0  0  0  0  0  0  0  0  0
  -26.4647  -11.1270   -5.9609 C   0  0  0  0  0  0  0  0  0  0  0  0
  -25.1717  -11.3191   -5.6524 N   0  0  0  0  0  0  0  0  0  0  0  0
  -24.6039  -10.4162   -4.8503 C   0  0  0  0  0  0  0  0  0  0  0  0
  -25.1905   -9.3224   -4.3489 N   0  0  0  0  0  0  0  0  0  0  0  0
  -26.4779   -9.1375   -4.6525 C   0  0  0  0  0  0  0  0  0  0  0  0
  -27.1359   -8.0197   -4.1469 C   0  0  0  0  0  0  0  0  0  0  0  0
  -28.4865   -7.7625   -4.4110 C   0  0  0  0  0  0  0  0  0  0  0  0
  -30.6868   -7.7564   -6.9679 C   0  0  0  0  0  0  0  0  0  0  0  0
  -31.7907   -7.8332   -7.4991 O   0  0  0  0  0  0  0  0  0  0  0  0
  -30.4650   -8.3299   -5.7370 N   0  0  0  0  0  0  0  0  0  0  0  0
  -31.1795   -9.0313   -5.5708 H   0  0  0  0  0  0  0  0  0  0  0  0
  -28.7999   -7.7821   -8.5157 C   0  0  0  0  0  0  0  0  0  0  0  0
  -29.5320   -7.0942   -7.6312 C   0  0  0  0  0  0  0  0  0  0  0  0
  -27.0901  -12.0331   -6.8615 N   0  0  0  0  0  0  0  0  0  0  0  0
  -27.8595  -12.4941   -6.3788 H   0  0  0  0  0  0  0  0  0  0  0  0
  -27.4703  -11.6563   -8.1751 C   0  0  0  0  0  0  0  0  0  0  0  0
  -26.5292  -11.2165   -9.1178 C   0  0  0  0  0  0  0  0  0  0  0  0
  -25.2189  -11.2360   -8.8238 F   0  0  0  0  0  0  0  0  0  0  0  0
  -26.9119  -10.7698  -10.3781 C   0  0  0  0  0  0  0  0  0  0  0  0
  -28.2594  -10.7758  -10.7212 C   0  0  0  0  0  0  0  0  0  0  0  0
  -28.7932  -10.1018  -12.4033 Br  0  0  0  0  0  0  0  0  0  0  0  0
  -29.2172  -11.2589   -9.8317 C   0  0  0  0  0  0  0  0  0  0  0  0
  -28.8112  -11.6993   -8.5730 C   0  0  0  0  0  0  0  0  0  0  0  0
  -29.7397  -12.1496   -7.7141 F   0  0  0  0  0  0  0  0  0  0  0  0
  -28.9784   -6.6196   -3.8292 O   0  0  0  0  0  0  0  0  0  0  0  0
  -28.2803   -5.4109   -4.1600 C   0  0  0  0  0  0  0  0  0  0  0  0
  -29.1520   -4.5071   -5.0394 C   0  0  0  0  0  0  0  0  0  0  0  0
  -28.6383   -3.1468   -5.0977 N   0  0  0  0  0  0  0  0  0  0  0  0
  -29.1403   -2.1578   -4.2778 C   0  0  0  0  0  0  0  0  0  0  0  0
  -29.8883   -2.3835   -3.3297 O   0  0  0  0  0  0  0  0  0  0  0  0
  -28.1819   -2.8148   -5.9460 H   0  0  0  0  0  0  0  0  0  0  0  0
  -28.6697   -0.7365   -4.6264 C   0  0  0  0  0  0  0  0  0  0  0  0
  -29.2927   -0.2321   -5.8804 N   0  0  0  0  0  0  0  0  0  0  0  0
  -30.1931    0.8976   -5.6085 C   0  0  0  0  0  0  0  0  0  0  0  0
  -28.2295    0.2269   -6.7867 C   0  0  0  0  0  0  0  0  0  0  0  0
 15 16  2  0  0  0
 16 11  1  0  0  0
 11 12  2  0  0  0
 11 13  1  0  0  0
 13  1  1  0  0  0
 13 14  1  0  0  0
  1  2  1  0  0  0
  1 10  2  0  0  0
  2  3  2  0  0  0
  3  4  1  0  0  0
  3  8  1  0  0  0
  4 17  1  0  0  0
  4  5  2  0  0  0
 17 19  1  0  0  0
 17 18  1  0  0  0
 19 20  1  0  0  0
 19 26  2  0  0  0
 20 21  1  0  0  0
 20 22  2  0  0  0
 22 23  1  0  0  0
 23 24  1  0  0  0
 23 25  2  0  0  0
 25 26  1  0  0  0
 26 27  1  0  0  0
  5  6  1  0  0  0
  6  7  2  0  0  0
  7  8  1  0  0  0
  8  9  2  0  0  0
  9 10  1  0  0  0
 10 28  1  0  0  0
 28 29  1  0  0  0
 29 30  1  0  0  0
 30 31  1  0  0  0
 31 32  1  0  0  0
 31 34  1  0  0  0
 32 33  2  0  0  0
 32 35  1  0  0  0
 35 36  1  0  0  0
 36 37  1  0  0  0
 36 38  1  0  0  0
M  END
> <minimizedAffinity>
-7.25092

$$$$
