CHEMBL52513


 34 37  0  0  0  0  0  0  0  0999 V2000
  -28.7143   -0.9283   -6.4807 C   0  0  0  0  0  0  0  0  0  0  0  0
  -27.9272   -0.6910   -7.6280 C   0  0  0  0  0  0  0  0  0  0  0  0
  -27.5376   -1.7513   -8.4400 C   0  0  0  0  0  0  0  0  0  0  0  0
  -27.9595   -3.0172   -8.0781 C   0  0  0  0  0  0  0  0  0  0  0  0
  -28.7554   -3.2811   -6.9516 C   0  0  0  0  0  0  0  0  0  0  0  0
  -29.1491   -2.2272   -6.1386 C   0  0  0  0  0  0  0  0  0  0  0  0
  -28.9761   -4.7483   -6.9581 C   0  0  0  0  0  0  0  0  0  0  0  0
  -29.7308   -5.4755   -6.1140 C   0  0  0  0  0  0  0  0  0  0  0  0
  -28.2076   -5.2953   -8.1443 C   0  0  0  0  0  0  0  0  0  0  0  0
  -28.0459   -6.4457   -8.5003 O   0  0  0  0  0  0  0  0  0  0  0  0
  -27.6607   -4.1860   -8.7606 N   0  0  0  0  0  0  0  0  0  0  0  0
  -27.0944   -4.2627   -9.5917 H   0  0  0  0  0  0  0  0  0  0  0  0
  -29.9399   -6.8761   -6.2729 C   0  0  0  0  0  0  0  0  0  0  0  0
  -30.8057   -7.3115   -7.2489 N   0  0  0  0  0  0  0  0  0  0  0  0
  -30.9066   -8.6784   -7.1960 C   0  0  0  0  0  0  0  0  0  0  0  0
  -30.0969   -9.1419   -6.1789 C   0  0  0  0  0  0  0  0  0  0  0  0
  -29.4506   -7.9953   -5.6019 C   0  0  0  0  0  0  0  0  0  0  0  0
  -30.0672  -10.5960   -5.8028 C   0  0  0  0  0  0  0  0  0  0  0  0
  -30.7439  -11.4891   -6.8649 C   0  0  0  0  0  0  0  0  0  0  0  0
  -32.0424  -10.8706   -7.4055 C   0  0  0  0  0  0  0  0  0  0  0  0
  -31.7826   -9.5072   -8.0712 C   0  0  0  0  0  0  0  0  0  0  0  0
  -31.3300   -6.7164   -7.8722 H   0  0  0  0  0  0  0  0  0  0  0  0
  -28.4921   -7.9585   -4.4480 C   0  0  0  0  0  0  0  0  0  0  0  0
  -27.1544   -8.6436   -4.7118 C   0  0  0  0  0  0  0  0  0  0  0  0
  -26.8307   -9.7952   -3.7499 C   0  0  0  0  0  0  0  0  0  0  0  0
  -25.6105  -10.5248   -4.1580 N   0  0  0  0  0  0  0  0  0  0  0  0
  -25.1710  -10.1540   -5.5063 C   0  0  0  0  0  0  0  0  0  0  0  0
  -24.5286  -10.2708   -3.2045 C   0  0  0  0  0  0  0  0  0  0  0  0
  -29.2694    0.4928   -5.5588 S   0  0  0  0  0  0  0  0  0  0  0  0
  -28.1159    1.0470   -4.8802 O   0  0  0  0  0  0  0  0  0  0  0  0
  -30.4719    0.1369   -4.8449 O   0  0  0  0  0  0  0  0  0  0  0  0
  -31.0766    2.0225   -6.8479 C   0  0  0  0  0  0  0  0  0  0  0  0
  -29.6767    1.6088   -6.7566 N   0  0  0  0  0  0  0  0  0  0  0  0
  -28.9809    2.3540   -6.7938 H   0  0  0  0  0  0  0  0  0  0  0  0
 32 33  1  0  0  0
 33 29  1  0  0  0
 33 34  1  0  0  0
 29 30  2  0  0  0
 29 31  2  0  0  0
 29  1  1  0  0  0
  1  2  1  0  0  0
  1  6  2  0  0  0
  2  3  2  0  0  0
  3  4  1  0  0  0
  4  5  2  0  0  0
  4 11  1  0  0  0
  5  6  1  0  0  0
  5  7  1  0  0  0
  7  8  2  0  0  0
  7  9  1  0  0  0
  8 13  1  0  0  0
 13 14  1  0  0  0
 13 17  2  0  0  0
 14 15  1  0  0  0
 14 22  1  0  0  0
 15 16  2  0  0  0
 15 21  1  0  0  0
 16 17  1  0  0  0
 16 18  1  0  0  0
 17 23  1  0  0  0
 23 24  1  0  0  0
 24 25  1  0  0  0
 25 26  1  0  0  0
 26 27  1  0  0  0
 26 28  1  0  0  0
 18 19  1  0  0  0
 19 20  1  0  0  0
 20 21  1  0  0  0
  9 10  2  0  0  0
  9 11  1  0  0  0
 11 12  1  0  0  0
M  END
> <minimizedAffinity>
-7.69851

$$$$
