CHEMBL3904736


 35 38  0  0  0  0  0  0  0  0999 V2000
  -16.4907    1.3771  -15.5206 N   0  0  0  0  0  0  0  0  0  0  0  0
  -22.2970    1.2401  -13.8343 C   0  0  0  0  0  0  0  0  0  0  0  0
  -22.5670    2.5839  -14.0392 C   0  0  0  0  0  0  0  0  0  0  0  0
  -21.6282    3.4706  -14.4681 N   0  0  0  0  0  0  0  0  0  0  0  0
  -20.3925    2.9742  -14.6952 C   0  0  0  0  0  0  0  0  0  0  0  0
  -19.3660    3.7725  -15.1788 C   0  0  0  0  0  0  0  0  0  0  0  0
  -18.0975    3.2379  -15.4727 C   0  0  0  0  0  0  0  0  0  0  0  0
  -17.7815    1.8892  -15.2335 C   0  0  0  0  0  0  0  0  0  0  0  0
  -18.8145    1.1452  -14.6528 C   0  0  0  0  0  0  0  0  0  0  0  0
  -20.1051    1.6212  -14.4466 C   0  0  0  0  0  0  0  0  0  0  0  0
  -21.0459    0.7591  -14.0167 N   0  0  0  0  0  0  0  0  0  0  0  0
  -25.5077   -1.4202  -11.1482 C   0  0  0  0  0  0  0  0  0  0  0  0
  -24.7298   -0.8887  -12.2403 N   0  0  0  0  0  0  0  0  0  0  0  0
  -23.8680    0.1651  -12.2014 C   0  0  0  0  0  0  0  0  0  0  0  0
  -23.3153    0.2734  -13.4650 C   0  0  0  0  0  0  0  0  0  0  0  0
  -23.9336   -0.7711  -14.1881 C   0  0  0  0  0  0  0  0  0  0  0  0
  -24.7988   -1.4738  -13.4494 N   0  0  0  0  0  0  0  0  0  0  0  0
  -15.6290    1.9224  -16.5337 C   0  0  0  0  0  0  0  0  0  0  0  0
  -14.7948    1.0713  -17.2843 C   0  0  0  0  0  0  0  0  0  0  0  0
  -13.9140    1.5751  -18.2460 C   0  0  0  0  0  0  0  0  0  0  0  0
  -12.8863    0.4971  -19.1081 Cl  0  0  0  0  0  0  0  0  0  0  0  0
  -13.8484    2.9397  -18.5075 C   0  0  0  0  0  0  0  0  0  0  0  0
  -14.6794    3.7936  -17.7941 C   0  0  0  0  0  0  0  0  0  0  0  0
  -14.6269    5.4845  -18.1058 Cl  0  0  0  0  0  0  0  0  0  0  0  0
  -15.5531    3.2985  -16.8181 C   0  0  0  0  0  0  0  0  0  0  0  0
  -15.8892    0.1771  -14.8276 C   0  0  0  0  0  0  0  0  0  0  0  0
  -15.2918    0.3751  -13.4422 C   0  0  0  0  0  0  0  0  0  0  0  0
  -15.8920   -0.4522  -12.3043 C   0  0  0  0  0  0  0  0  0  0  0  0
  -14.9182   -1.5212  -12.0942 N   0  0  0  0  0  0  0  0  0  0  0  0
  -14.5166   -1.4730  -11.1547 H   0  0  0  0  0  0  0  0  0  0  0  0
  -15.3926   -2.8844  -12.3659 C   0  0  0  0  0  0  0  0  0  0  0  0
  -15.8967   -3.6502  -11.1143 C   0  0  0  0  0  0  0  0  0  0  0  0
  -14.9547   -4.4802  -10.6085 F   0  0  0  0  0  0  0  0  0  0  0  0
  -16.2321   -2.7854  -10.1277 F   0  0  0  0  0  0  0  0  0  0  0  0
  -16.9890   -4.3946  -11.3957 F   0  0  0  0  0  0  0  0  0  0  0  0
 12 13  1  0  0  0
 13 14  1  0  0  0
 13 17  1  0  0  0
 14 15  2  0  0  0
 15  2  1  0  0  0
 15 16  1  0  0  0
  2  3  1  0  0  0
  2 11  2  0  0  0
  3  4  2  0  0  0
  4  5  1  0  0  0
  5  6  1  0  0  0
  5 10  2  0  0  0
  6  7  2  0  0  0
  7  8  1  0  0  0
  8  1  1  0  0  0
  8  9  2  0  0  0
  1 26  1  0  0  0
  1 18  1  0  0  0
 26 27  1  0  0  0
 27 28  1  0  0  0
 28 29  1  0  0  0
 29 31  1  0  0  0
 29 30  1  0  0  0
 31 32  1  0  0  0
 32 33  1  0  0  0
 32 34  1  0  0  0
 32 35  1  0  0  0
 18 19  1  0  0  0
 18 25  2  0  0  0
 19 20  2  0  0  0
 20 21  1  0  0  0
 20 22  1  0  0  0
 22 23  2  0  0  0
 23 24  1  0  0  0
 23 25  1  0  0  0
  9 10  1  0  0  0
 10 11  1  0  0  0
 16 17  2  0  0  0
M  END
> <minimizedAffinity>
-9.13294

$$$$
