CHEMBL394693


 36 39  0  0  0  0  0  0  0  0999 V2000
  -29.2006   -4.2380   -6.8242 C   0  0  0  0  0  0  0  0  0  0  0  0
  -28.4747   -4.0915   -8.0206 C   0  0  0  0  0  0  0  0  0  0  0  0
  -27.9426   -2.8677   -8.4127 C   0  0  0  0  0  0  0  0  0  0  0  0
  -28.0645   -1.7851   -7.5426 C   0  0  0  0  0  0  0  0  0  0  0  0
  -28.6665   -1.9509   -6.2842 C   0  0  0  0  0  0  0  0  0  0  0  0
  -29.2413   -3.1785   -5.9094 C   0  0  0  0  0  0  0  0  0  0  0  0
  -29.8268   -3.3260   -4.5303 C   0  0  0  0  0  0  0  0  0  0  0  0
  -27.3193   -2.6670   -9.6688 N   0  0  0  0  0  0  0  0  0  0  0  0
  -27.5647   -1.6182  -10.5419 C   0  0  0  0  0  0  0  0  0  0  0  0
  -28.4057   -0.7344  -10.4112 O   0  0  0  0  0  0  0  0  0  0  0  0
  -26.6986   -3.4018   -9.9794 H   0  0  0  0  0  0  0  0  0  0  0  0
  -26.7742   -1.6232  -11.8014 C   0  0  0  0  0  0  0  0  0  0  0  0
  -27.4656   -1.8409  -12.9993 C   0  0  0  0  0  0  0  0  0  0  0  0
  -26.7758   -1.8951  -14.2063 C   0  0  0  0  0  0  0  0  0  0  0  0
  -25.3957   -1.6932  -14.2268 C   0  0  0  0  0  0  0  0  0  0  0  0
  -24.6910   -1.4068  -13.0459 C   0  0  0  0  0  0  0  0  0  0  0  0
  -25.3928   -1.3874  -11.8264 C   0  0  0  0  0  0  0  0  0  0  0  0
  -23.2077   -1.0841  -13.1236 C   0  0  0  0  0  0  0  0  0  0  0  0
  -22.9256   -0.0133  -14.1816 C   0  0  0  0  0  0  0  0  0  0  0  0
  -22.6366   -0.6719  -11.7663 C   0  0  0  0  0  0  0  0  0  0  0  0
  -29.8833   -5.4231   -6.5532 O   0  0  0  0  0  0  0  0  0  0  0  0
  -29.5908   -7.7541   -5.9007 C   0  0  0  0  0  0  0  0  0  0  0  0
  -28.8462   -8.6274   -5.0742 C   0  0  0  0  0  0  0  0  0  0  0  0
  -27.7628   -8.1835   -4.3189 C   0  0  0  0  0  0  0  0  0  0  0  0
  -27.3887   -6.8663   -4.4448 C   0  0  0  0  0  0  0  0  0  0  0  0
  -28.0208   -5.9983   -5.2523 N   0  0  0  0  0  0  0  0  0  0  0  0
  -29.1445   -6.4217   -5.9045 C   0  0  0  0  0  0  0  0  0  0  0  0
  -31.4839   -9.9032   -8.1584 C   0  0  0  0  0  0  0  0  0  0  0  0
  -32.7388   -9.4541   -8.1273 N   0  0  0  0  0  0  0  0  0  0  0  0
  -32.9907   -8.4254   -7.3000 C   0  0  0  0  0  0  0  0  0  0  0  0
  -32.0367   -7.8128   -6.5268 C   0  0  0  0  0  0  0  0  0  0  0  0
  -30.7479   -8.2950   -6.6445 C   0  0  0  0  0  0  0  0  0  0  0  0
  -30.4770   -9.3546   -7.4594 N   0  0  0  0  0  0  0  0  0  0  0  0
  -31.7924  -12.2699   -8.5101 C   0  0  0  0  0  0  0  0  0  0  0  0
  -31.2859  -11.0035   -8.9767 N   0  0  0  0  0  0  0  0  0  0  0  0
  -30.3133  -10.9790   -9.2600 H   0  0  0  0  0  0  0  0  0  0  0  0
 34 35  1  0  0  0
 35 28  1  0  0  0
 35 36  1  0  0  0
 28 29  1  0  0  0
 28 33  2  0  0  0
 29 30  2  0  0  0
 30 31  1  0  0  0
 31 32  2  0  0  0
 32 22  1  0  0  0
 32 33  1  0  0  0
 22 23  1  0  0  0
 22 27  2  0  0  0
 23 24  2  0  0  0
 24 25  1  0  0  0
 25 26  2  0  0  0
 26 27  1  0  0  0
 27 21  1  0  0  0
 21  1  1  0  0  0
  1  2  1  0  0  0
  1  6  2  0  0  0
  2  3  2  0  0  0
  3  8  1  0  0  0
  3  4  1  0  0  0
  8  9  1  0  0  0
  8 11  1  0  0  0
  9 10  2  0  0  0
  9 12  1  0  0  0
 12 13  1  0  0  0
 12 17  2  0  0  0
 13 14  2  0  0  0
 14 15  1  0  0  0
 15 16  2  0  0  0
 16 18  1  0  0  0
 16 17  1  0  0  0
 18 19  1  0  0  0
 18 20  1  0  0  0
  4  5  2  0  0  0
  5  6  1  0  0  0
  6  7  1  0  0  0
M  END
> <minimizedAffinity>
-10.97129

$$$$
