CHEMBL1271560


 23 25  0  0  0  0  0  0  0  0999 V2000
  -28.2946   -0.6408  -10.1363 O   0  0  0  0  0  0  0  0  0  0  0  0
  -27.7074   -1.6898   -9.8853 C   0  0  0  0  0  0  0  0  0  0  0  0
  -26.8966   -2.4017  -10.7466 N   0  0  0  0  0  0  0  0  0  0  0  0
  -26.6360   -3.3597  -10.5225 H   0  0  0  0  0  0  0  0  0  0  0  0
  -26.5853   -2.0341  -12.0869 C   0  0  0  0  0  0  0  0  0  0  0  0
  -27.5339   -2.0987  -13.1168 C   0  0  0  0  0  0  0  0  0  0  0  0
  -27.1831   -1.7920  -14.4272 C   0  0  0  0  0  0  0  0  0  0  0  0
  -25.8799   -1.4130  -14.7180 C   0  0  0  0  0  0  0  0  0  0  0  0
  -24.9265   -1.3166  -13.6936 C   0  0  0  0  0  0  0  0  0  0  0  0
  -23.6097   -0.9394  -13.9818 C   0  0  0  0  0  0  0  0  0  0  0  0
  -22.6773   -0.8479  -12.9588 C   0  0  0  0  0  0  0  0  0  0  0  0
  -23.0973   -1.1359  -11.6742 C   0  0  0  0  0  0  0  0  0  0  0  0
  -24.3573   -1.5150  -11.3530 N   0  0  0  0  0  0  0  0  0  0  0  0
  -25.2703   -1.6103  -12.3520 C   0  0  0  0  0  0  0  0  0  0  0  0
  -27.9408   -2.2807   -8.5446 C   0  0  0  0  0  0  0  0  0  0  0  0
  -28.4425   -3.5925   -8.4900 C   0  0  0  0  0  0  0  0  0  0  0  0
  -28.7615   -4.1838   -7.2686 C   0  0  0  0  0  0  0  0  0  0  0  0
  -28.5921   -3.4635   -6.0882 C   0  0  0  0  0  0  0  0  0  0  0  0
  -28.0989   -2.1501   -6.1422 C   0  0  0  0  0  0  0  0  0  0  0  0
  -27.7676   -1.5484   -7.3672 C   0  0  0  0  0  0  0  0  0  0  0  0
  -27.9460   -1.3897   -4.8952 N   0  0  0  0  0  0  0  0  0  0  0  0
  -28.2974   -1.9352   -3.8396 O   0  0  0  0  0  0  0  0  0  0  0  0
  -27.4703   -0.2488   -4.9732 O   0  0  0  0  0  0  0  0  0  0  0  0
  1  2  2  0  0  0
  2  3  1  0  0  0
  2 15  1  0  0  0
  3  5  1  0  0  0
  3  4  1  0  0  0
  5  6  1  0  0  0
  5 14  2  0  0  0
  6  7  2  0  0  0
  7  8  1  0  0  0
  8  9  2  0  0  0
  9 10  1  0  0  0
  9 14  1  0  0  0
 10 11  2  0  0  0
 11 12  1  0  0  0
 12 13  2  0  0  0
 13 14  1  0  0  0
 15 16  1  0  0  0
 15 20  2  0  0  0
 16 17  2  0  0  0
 17 18  1  0  0  0
 18 19  2  0  0  0
 19 21  1  0  0  0
 19 20  1  0  0  0
 21 22  2  0  0  0
 21 23  1  0  0  0
M  CHG 1  21   1
M  CHG 1  23  -1
M  END
> <minimizedAffinity>
-9.12599

$$$$
