CHEMBL3959787


 38 42  0  0  0  0  0  0  0  0999 V2000
  -28.6525   -9.7849   -5.5151 N   0  0  0  0  0  0  0  0  0  0  0  0
  -28.6674   -8.3773   -5.1726 C   0  0  0  0  0  0  0  0  0  0  0  0
  -29.1181   -8.1212   -3.8889 C   0  0  0  0  0  0  0  0  0  0  0  0
  -29.6888   -6.9060   -3.5908 C   0  0  0  0  0  0  0  0  0  0  0  0
  -29.6803   -5.8654   -4.4842 C   0  0  0  0  0  0  0  0  0  0  0  0
  -30.4567   -4.8516   -4.1112 N   0  0  0  0  0  0  0  0  0  0  0  0
  -30.3494   -3.7270   -4.8205 C   0  0  0  0  0  0  0  0  0  0  0  0
  -29.4106   -3.5753   -5.8205 C   0  0  0  0  0  0  0  0  0  0  0  0
  -28.6995   -4.6628   -6.2913 N   0  0  0  0  0  0  0  0  0  0  0  0
  -28.8907   -5.9007   -5.6564 C   0  0  0  0  0  0  0  0  0  0  0  0
  -28.4398   -7.2443   -6.0178 C   0  0  0  0  0  0  0  0  0  0  0  0
  -29.1155   -2.1880   -6.1848 C   0  0  0  0  0  0  0  0  0  0  0  0
  -28.0158   -1.6735   -6.9292 C   0  0  0  0  0  0  0  0  0  0  0  0
  -27.8653   -0.3486   -6.7993 N   0  0  0  0  0  0  0  0  0  0  0  0
  -28.8505   -0.0028   -5.9544 N   0  0  0  0  0  0  0  0  0  0  0  0
  -29.1554    1.3891   -5.7126 C   0  0  0  0  0  0  0  0  0  0  0  0
  -29.5208   -1.0829   -5.4473 C   0  0  0  0  0  0  0  0  0  0  0  0
  -31.4216  -11.3850   -7.4764 C   0  0  0  0  0  0  0  0  0  0  0  0
  -30.8243  -11.6334   -8.7008 C   0  0  0  0  0  0  0  0  0  0  0  0
  -29.4590  -11.3919   -8.8575 C   0  0  0  0  0  0  0  0  0  0  0  0
  -28.7170  -10.8086   -7.7988 C   0  0  0  0  0  0  0  0  0  0  0  0
  -29.3186  -10.4764   -6.5731 C   0  0  0  0  0  0  0  0  0  0  0  0
  -30.6484  -10.9111   -6.4173 C   0  0  0  0  0  0  0  0  0  0  0  0
  -33.1564  -12.1650   -6.1035 C   0  0  0  0  0  0  0  0  0  0  0  0
  -32.7650  -11.6398   -7.3744 O   0  0  0  0  0  0  0  0  0  0  0  0
  -28.7484  -11.6785   -9.9985 O   0  0  0  0  0  0  0  0  0  0  0  0
  -28.7908  -10.7075  -11.0457 C   0  0  0  0  0  0  0  0  0  0  0  0
  -28.3921  -10.6240   -4.2144 C   0  0  0  0  0  0  0  0  0  0  0  0
  -26.8795  -10.7734   -4.1960 C   0  0  0  0  0  0  0  0  0  0  0  0
  -25.5821  -10.9015   -4.1802 C   0  0  0  0  0  0  0  0  0  0  0  0
  -24.1703  -11.0783   -4.0474 C   0  0  0  0  0  0  0  0  0  0  0  0
  -23.3739  -11.2865   -5.1491 C   0  0  0  0  0  0  0  0  0  0  0  0
  -22.0428  -11.4919   -4.8793 C   0  0  0  0  0  0  0  0  0  0  0  0
  -21.5292  -11.4788   -3.6387 N   0  0  0  0  0  0  0  0  0  0  0  0
  -22.4018  -11.2588   -2.6469 C   0  0  0  0  0  0  0  0  0  0  0  0
  -23.7156  -11.0567   -2.7834 N   0  0  0  0  0  0  0  0  0  0  0  0
  -21.2121  -11.6846   -5.9664 O   0  0  0  0  0  0  0  0  0  0  0  0
  -21.3639  -10.6811   -6.9707 C   0  0  0  0  0  0  0  0  0  0  0  0
 24 25  1  0  0  0
 25 18  1  0  0  0
 18 19  1  0  0  0
 18 23  2  0  0  0
 19 20  2  0  0  0
 20 26  1  0  0  0
 20 21  1  0  0  0
 26 27  1  0  0  0
 21 22  2  0  0  0
 22  1  1  0  0  0
 22 23  1  0  0  0
  1 28  1  0  0  0
  1  2  1  0  0  0
 28 29  1  0  0  0
 29 30  3  0  0  0
 30 31  1  0  0  0
 31 32  1  0  0  0
 31 36  2  0  0  0
 32 33  2  0  0  0
 33 37  1  0  0  0
 33 34  1  0  0  0
 37 38  1  0  0  0
 34 35  2  0  0  0
 35 36  1  0  0  0
  2  3  1  0  0  0
  2 11  2  0  0  0
  3  4  2  0  0  0
  4  5  1  0  0  0
  5  6  1  0  0  0
  5 10  2  0  0  0
  6  7  2  0  0  0
  7  8  1  0  0  0
  8 12  1  0  0  0
  8  9  2  0  0  0
 12 13  1  0  0  0
 12 17  2  0  0  0
 13 14  2  0  0  0
 14 15  1  0  0  0
 15 16  1  0  0  0
 15 17  1  0  0  0
  9 10  1  0  0  0
 10 11  1  0  0  0
M  END
> <minimizedAffinity>
-8.40200

$$$$
