CHEMBL3397927


 32 34  0  0  0  0  0  0  0  0999 V2000
  -27.2178   -1.9719  -10.5587 N   0  0  0  0  0  0  0  0  0  0  0  0
  -25.9179   -1.6556  -10.9101 C   0  0  0  0  0  0  0  0  0  0  0  0
  -24.9791   -1.5080  -10.1305 O   0  0  0  0  0  0  0  0  0  0  0  0
  -27.8877   -2.1527  -11.2947 H   0  0  0  0  0  0  0  0  0  0  0  0
  -28.5343   -2.2787   -6.5346 C   0  0  0  0  0  0  0  0  0  0  0  0
  -28.6018   -3.3831   -7.3782 C   0  0  0  0  0  0  0  0  0  0  0  0
  -28.1842   -3.2865   -8.7052 C   0  0  0  0  0  0  0  0  0  0  0  0
  -27.6999   -2.0909   -9.2289 C   0  0  0  0  0  0  0  0  0  0  0  0
  -27.6701   -0.9674   -8.3949 C   0  0  0  0  0  0  0  0  0  0  0  0
  -28.0925   -1.0633   -7.0574 C   0  0  0  0  0  0  0  0  0  0  0  0
  -28.8950   -2.2917   -5.2116 O   0  0  0  0  0  0  0  0  0  0  0  0
  -28.0933   -3.1537   -4.3833 C   0  0  0  0  0  0  0  0  0  0  0  0
  -28.9923   -3.9336   -3.4129 C   0  0  0  0  0  0  0  0  0  0  0  0
  -29.2234   -5.3545   -3.7655 N   0  0  0  0  0  0  0  0  0  0  0  0
  -31.6574   -4.6793   -3.5698 C   0  0  0  0  0  0  0  0  0  0  0  0
  -30.5946   -5.5092   -4.2854 C   0  0  0  0  0  0  0  0  0  0  0  0
  -28.1896   -5.9354   -4.6398 C   0  0  0  0  0  0  0  0  0  0  0  0
  -28.6922   -6.7657   -5.8166 C   0  0  0  0  0  0  0  0  0  0  0  0
  -25.6021   -1.4691  -12.3547 C   0  0  0  0  0  0  0  0  0  0  0  0
  -26.4516   -1.8399  -13.3940 C   0  0  0  0  0  0  0  0  0  0  0  0
  -26.0977   -1.5212  -14.7064 C   0  0  0  0  0  0  0  0  0  0  0  0
  -24.9171   -0.8144  -14.9749 C   0  0  0  0  0  0  0  0  0  0  0  0
  -24.0557   -0.4023  -13.9449 C   0  0  0  0  0  0  0  0  0  0  0  0
  -24.4131   -0.7687  -12.6401 C   0  0  0  0  0  0  0  0  0  0  0  0
  -22.8559    0.4281  -14.1981 C   0  0  0  0  0  0  0  0  0  0  0  0
  -21.6453   -0.1303  -14.6553 C   0  0  0  0  0  0  0  0  0  0  0  0
  -20.5097    0.6590  -14.8717 C   0  0  0  0  0  0  0  0  0  0  0  0
  -20.5636    2.0326  -14.6577 C   0  0  0  0  0  0  0  0  0  0  0  0
  -21.7491    2.5984  -14.2090 C   0  0  0  0  0  0  0  0  0  0  0  0
  -21.8628    3.9420  -14.0049 O   0  0  0  0  0  0  0  0  0  0  0  0
  -22.8716    1.8123  -13.9593 C   0  0  0  0  0  0  0  0  0  0  0  0
  -21.0803    4.3750  -14.3840 H   0  0  0  0  0  0  0  0  0  0  0  0
 15 16  1  0  0  0
 16 14  1  0  0  0
 14 17  1  0  0  0
 14 13  1  0  0  0
 17 18  1  0  0  0
 13 12  1  0  0  0
 12 11  1  0  0  0
 11  5  1  0  0  0
  5  6  1  0  0  0
  5 10  2  0  0  0
  6  7  2  0  0  0
  7  8  1  0  0  0
  8  1  1  0  0  0
  8  9  2  0  0  0
  1  2  1  0  0  0
  1  4  1  0  0  0
  2  3  2  0  0  0
  2 19  1  0  0  0
 19 20  1  0  0  0
 19 24  2  0  0  0
 20 21  2  0  0  0
 21 22  1  0  0  0
 22 23  2  0  0  0
 23 25  1  0  0  0
 23 24  1  0  0  0
 25 26  1  0  0  0
 25 31  2  0  0  0
 26 27  2  0  0  0
 27 28  1  0  0  0
 28 29  2  0  0  0
 29 30  1  0  0  0
 29 31  1  0  0  0
 30 32  1  0  0  0
  9 10  1  0  0  0
M  END
> <minimizedAffinity>
-9.82019

$$$$
