CHEMBL4441465


 29 32  0  0  0  0  0  0  0  0999 V2000
  -25.7745   -2.3783  -12.3052 C   0  0  0  0  0  0  0  0  0  0  0  0
  -22.6265    0.2538  -13.7626 C   0  0  0  0  0  0  0  0  0  0  0  0
  -22.6686   -0.1656  -12.4205 C   0  0  0  0  0  0  0  0  0  0  0  0
  -23.6805   -1.0074  -11.9456 C   0  0  0  0  0  0  0  0  0  0  0  0
  -24.6949   -1.4517  -12.7997 C   0  0  0  0  0  0  0  0  0  0  0  0
  -24.6804   -1.0276  -14.1321 C   0  0  0  0  0  0  0  0  0  0  0  0
  -23.6557   -0.1996  -14.6055 C   0  0  0  0  0  0  0  0  0  0  0  0
  -19.5666    2.9150  -15.0128 C   0  0  0  0  0  0  0  0  0  0  0  0
  -19.3788    1.5649  -15.2420 C   0  0  0  0  0  0  0  0  0  0  0  0
  -20.3874    0.6820  -14.8532 C   0  0  0  0  0  0  0  0  0  0  0  0
  -21.5629    1.1568  -14.2510 C   0  0  0  0  0  0  0  0  0  0  0  0
  -21.6483    2.5453  -14.1131 C   0  0  0  0  0  0  0  0  0  0  0  0
  -20.6893    3.4303  -14.4775 N   0  0  0  0  0  0  0  0  0  0  0  0
  -17.4795    3.0547  -16.0199 C   0  0  0  0  0  0  0  0  0  0  0  0
  -18.5296    3.7559  -15.3589 O   0  0  0  0  0  0  0  0  0  0  0  0
  -26.5510   -1.8048  -11.2220 N   0  0  0  0  0  0  0  0  0  0  0  0
  -26.3858   -2.0094   -9.8807 C   0  0  0  0  0  0  0  0  0  0  0  0
  -27.5122   -1.4551   -9.3188 C   0  0  0  0  0  0  0  0  0  0  0  0
  -28.2970   -0.9313  -10.3138 N   0  0  0  0  0  0  0  0  0  0  0  0
  -27.6967   -1.1442  -11.4772 N   0  0  0  0  0  0  0  0  0  0  0  0
  -27.8669   -1.4644   -7.9141 C   0  0  0  0  0  0  0  0  0  0  0  0
  -28.4134   -2.6044   -7.3116 C   0  0  0  0  0  0  0  0  0  0  0  0
  -28.7904   -2.5782   -5.9686 C   0  0  0  0  0  0  0  0  0  0  0  0
  -28.6078   -1.4184   -5.2158 C   0  0  0  0  0  0  0  0  0  0  0  0
  -28.0071   -0.2899   -5.7784 C   0  0  0  0  0  0  0  0  0  0  0  0
  -27.9497    0.9078   -5.0533 N   0  0  0  0  0  0  0  0  0  0  0  0
  -27.6856   -0.3094   -7.1389 C   0  0  0  0  0  0  0  0  0  0  0  0
  -27.8780    0.7732   -4.0493 H   0  0  0  0  0  0  0  0  0  0  0  0
  -27.2526    1.5594   -5.4021 H   0  0  0  0  0  0  0  0  0  0  0  0
 14 15  1  0  0  0
 15  8  1  0  0  0
  8  9  1  0  0  0
  8 13  2  0  0  0
  9 10  2  0  0  0
 10 11  1  0  0  0
 11  2  1  0  0  0
 11 12  2  0  0  0
  2  3  1  0  0  0
  2  7  2  0  0  0
  3  4  2  0  0  0
  4  5  1  0  0  0
  5  1  1  0  0  0
  5  6  2  0  0  0
  1 16  1  0  0  0
 16 17  1  0  0  0
 16 20  1  0  0  0
 17 18  2  0  0  0
 18 21  1  0  0  0
 18 19  1  0  0  0
 21 22  1  0  0  0
 21 27  2  0  0  0
 22 23  2  0  0  0
 23 24  1  0  0  0
 24 25  2  0  0  0
 25 26  1  0  0  0
 25 27  1  0  0  0
 26 28  1  0  0  0
 26 29  1  0  0  0
 19 20  2  0  0  0
  6  7  1  0  0  0
 12 13  1  0  0  0
M  END
> <minimizedAffinity>
-10.14512

$$$$
