CHEMBL3288526


 32 36  0  0  0  0  0  0  0  0999 V2000
  -29.2265   -8.2397   -7.2890 C   0  0  0  0  0  0  0  0  0  0  0  0
  -30.6143   -8.2994   -7.1575 C   0  0  0  0  0  0  0  0  0  0  0  0
  -31.3119   -7.3374   -6.4140 C   0  0  0  0  0  0  0  0  0  0  0  0
  -30.6172   -6.4242   -5.6092 C   0  0  0  0  0  0  0  0  0  0  0  0
  -31.2588   -5.6126   -4.6793 C   0  0  0  0  0  0  0  0  0  0  0  0
  -31.1625   -6.1943   -3.4301 C   0  0  0  0  0  0  0  0  0  0  0  0
  -29.8746   -6.5936   -3.0556 C   0  0  0  0  0  0  0  0  0  0  0  0
  -28.8731   -6.6956   -4.0299 C   0  0  0  0  0  0  0  0  0  0  0  0
  -29.2900   -6.7525   -5.3678 C   0  0  0  0  0  0  0  0  0  0  0  0
  -28.5509   -7.4373   -6.3525 C   0  0  0  0  0  0  0  0  0  0  0  0
  -26.4462   -9.7459   -5.7855 N   0  0  0  0  0  0  0  0  0  0  0  0
  -26.3810  -10.1941   -7.0986 C   0  0  0  0  0  0  0  0  0  0  0  0
  -25.3252  -10.9957   -7.3347 N   0  0  0  0  0  0  0  0  0  0  0  0
  -25.1736  -11.5271   -8.5501 C   0  0  0  0  0  0  0  0  0  0  0  0
  -25.9680  -11.3554   -9.5997 N   0  0  0  0  0  0  0  0  0  0  0  0
  -26.9998  -10.5346   -9.3434 C   0  0  0  0  0  0  0  0  0  0  0  0
  -28.1073  -10.2028  -10.5833 S   0  0  0  0  0  0  0  0  0  0  0  0
  -29.0067   -9.1724   -9.5753 C   0  0  0  0  0  0  0  0  0  0  0  0
  -28.5137   -9.0757   -8.2817 C   0  0  0  0  0  0  0  0  0  0  0  0
  -27.2977   -9.8984   -8.1390 C   0  0  0  0  0  0  0  0  0  0  0  0
  -25.7571  -10.2403   -5.2276 H   0  0  0  0  0  0  0  0  0  0  0  0
  -27.3803   -9.7487   -5.3986 H   0  0  0  0  0  0  0  0  0  0  0  0
  -30.8283   -4.1379   -4.4846 C   0  0  0  0  0  0  0  0  0  0  0  0
  -31.0081   -3.6461   -3.3688 O   0  0  0  0  0  0  0  0  0  0  0  0
  -30.2037   -3.4662   -5.5354 N   0  0  0  0  0  0  0  0  0  0  0  0
  -30.2597   -3.8736   -6.4573 H   0  0  0  0  0  0  0  0  0  0  0  0
  -29.4086   -2.2734   -5.4513 C   0  0  0  0  0  0  0  0  0  0  0  0
  -29.9328   -0.9737   -5.5094 C   0  0  0  0  0  0  0  0  0  0  0  0
  -29.1117    0.1557   -5.3421 C   0  0  0  0  0  0  0  0  0  0  0  0
  -27.7412    0.0021   -5.1260 C   0  0  0  0  0  0  0  0  0  0  0  0
  -27.2055   -1.2802   -5.0674 C   0  0  0  0  0  0  0  0  0  0  0  0
  -28.0355   -2.4079   -5.2230 C   0  0  0  0  0  0  0  0  0  0  0  0
 11 12  1  0  0  0
 11 21  1  0  0  0
 11 22  1  0  0  0
 12 13  1  0  0  0
 12 20  2  0  0  0
 13 14  2  0  0  0
 14 15  1  0  0  0
 15 16  2  0  0  0
 16 17  1  0  0  0
 16 20  1  0  0  0
 17 18  1  0  0  0
 18 19  2  0  0  0
 19  1  1  0  0  0
 19 20  1  0  0  0
  1  2  1  0  0  0
  1 10  2  0  0  0
  2  3  2  0  0  0
  3  4  1  0  0  0
  4  5  1  0  0  0
  4  9  2  0  0  0
  5 23  1  0  0  0
  5  6  2  0  0  0
 23 24  2  0  0  0
 23 25  1  0  0  0
 25 27  1  0  0  0
 25 26  1  0  0  0
 27 28  1  0  0  0
 27 32  2  0  0  0
 28 29  2  0  0  0
 29 30  1  0  0  0
 30 31  2  0  0  0
 31 32  1  0  0  0
  6  7  1  0  0  0
  7  8  2  0  0  0
  8  9  1  0  0  0
  9 10  1  0  0  0
M  END
> <minimizedAffinity>
-9.36540

$$$$
