CHEMBL3929966


 41 45  0  0  0  0  0  0  0  0999 V2000
  -13.1237   -0.2703  -16.9527 C   0  0  0  0  0  0  0  0  0  0  0  0
  -14.3337    0.3659  -16.6248 C   0  0  0  0  0  0  0  0  0  0  0  0
  -14.8384    0.3371  -15.3080 C   0  0  0  0  0  0  0  0  0  0  0  0
  -16.0481    0.8910  -14.8747 C   0  0  0  0  0  0  0  0  0  0  0  0
  -16.4179    0.8844  -13.5776 N   0  0  0  0  0  0  0  0  0  0  0  0
  -15.5792    0.3086  -12.7112 C   0  0  0  0  0  0  0  0  0  0  0  0
  -14.4253   -0.2720  -13.0140 N   0  0  0  0  0  0  0  0  0  0  0  0
  -14.0779   -0.2524  -14.3005 C   0  0  0  0  0  0  0  0  0  0  0  0
  -12.8916   -0.8656  -14.6393 C   0  0  0  0  0  0  0  0  0  0  0  0
  -12.4216   -0.9586  -15.9592 C   0  0  0  0  0  0  0  0  0  0  0  0
  -13.6635   -0.3642  -19.2660 C   0  0  0  0  0  0  0  0  0  0  0  0
  -12.7522   -0.0222  -18.2412 O   0  0  0  0  0  0  0  0  0  0  0  0
  -16.9374    1.4747  -15.8217 N   0  0  0  0  0  0  0  0  0  0  0  0
  -16.8706    0.9706  -16.7005 H   0  0  0  0  0  0  0  0  0  0  0  0
  -18.2522    1.8521  -15.4847 C   0  0  0  0  0  0  0  0  0  0  0  0
  -18.5925    3.2136  -15.4084 C   0  0  0  0  0  0  0  0  0  0  0  0
  -19.8436    3.6197  -14.9718 C   0  0  0  0  0  0  0  0  0  0  0  0
  -20.7970    2.6646  -14.6093 C   0  0  0  0  0  0  0  0  0  0  0  0
  -22.3142    3.2339  -14.0172 Cl  0  0  0  0  0  0  0  0  0  0  0  0
  -20.4896    1.3028  -14.7201 C   0  0  0  0  0  0  0  0  0  0  0  0
  -21.6241    0.0677  -14.2954 Cl  0  0  0  0  0  0  0  0  0  0  0  0
  -19.2251    0.8969  -15.1649 C   0  0  0  0  0  0  0  0  0  0  0  0
  -11.2888   -1.6957  -16.2498 O   0  0  0  0  0  0  0  0  0  0  0  0
  -11.2712   -2.9935  -15.6103 C   0  0  0  0  0  0  0  0  0  0  0  0
  -12.5739   -3.7760  -15.7594 C   0  0  0  0  0  0  0  0  0  0  0  0
  -12.7797   -4.6566  -14.5284 C   0  0  0  0  0  0  0  0  0  0  0  0
  -13.9245   -5.5522  -14.6953 N   0  0  0  0  0  0  0  0  0  0  0  0
  -15.0144   -5.6954  -13.8384 C   0  0  0  0  0  0  0  0  0  0  0  0
  -15.9348   -6.4734  -14.0895 O   0  0  0  0  0  0  0  0  0  0  0  0
  -13.8688   -6.3258  -15.9429 C   0  0  0  0  0  0  0  0  0  0  0  0
  -13.6459   -5.3905  -17.1381 C   0  0  0  0  0  0  0  0  0  0  0  0
  -12.4736   -4.5784  -16.9544 O   0  0  0  0  0  0  0  0  0  0  0  0
  -15.1400   -4.8740  -12.6138 C   0  0  0  0  0  0  0  0  0  0  0  0
  -15.8014   -3.6452  -12.5797 C   0  0  0  0  0  0  0  0  0  0  0  0
  -16.3092   -3.0971  -13.6934 F   0  0  0  0  0  0  0  0  0  0  0  0
  -15.9891   -2.9539  -11.3799 C   0  0  0  0  0  0  0  0  0  0  0  0
  -15.4521   -3.4523  -10.1991 C   0  0  0  0  0  0  0  0  0  0  0  0
  -14.6961   -4.6170  -10.2443 C   0  0  0  0  0  0  0  0  0  0  0  0
  -14.1171   -5.0562   -9.1193 F   0  0  0  0  0  0  0  0  0  0  0  0
  -14.5419   -5.3272  -11.4350 C   0  0  0  0  0  0  0  0  0  0  0  0
  -13.8271   -6.4618  -11.4102 F   0  0  0  0  0  0  0  0  0  0  0  0
 11 12  1  0  0  0
 12  1  1  0  0  0
  1  2  1  0  0  0
  1 10  2  0  0  0
  2  3  2  0  0  0
  3  4  1  0  0  0
  3  8  1  0  0  0
  4 13  1  0  0  0
  4  5  2  0  0  0
 13 15  1  0  0  0
 13 14  1  0  0  0
 15 16  1  0  0  0
 15 22  2  0  0  0
 16 17  2  0  0  0
 17 18  1  0  0  0
 18 19  1  0  0  0
 18 20  2  0  0  0
 20 21  1  0  0  0
 20 22  1  0  0  0
  5  6  1  0  0  0
  6  7  2  0  0  0
  7  8  1  0  0  0
  8  9  2  0  0  0
  9 10  1  0  0  0
 10 23  1  0  0  0
 23 24  1  0  0  0
 24 25  1  0  0  0
 25 26  1  0  0  0
 25 32  1  0  0  0
 26 27  1  0  0  0
 27 28  1  0  0  0
 27 30  1  0  0  0
 28 29  2  0  0  0
 28 33  1  0  0  0
 33 34  1  0  0  0
 33 40  2  0  0  0
 34 35  1  0  0  0
 34 36  2  0  0  0
 36 37  1  0  0  0
 37 38  2  0  0  0
 38 39  1  0  0  0
 38 40  1  0  0  0
 40 41  1  0  0  0
 30 31  1  0  0  0
 31 32  1  0  0  0
M  END
> <minimizedAffinity>
-9.42022

$$$$
