CHEMBL1083022


 42 46  0  0  0  0  0  0  0  0999 V2000
  -21.3290    0.8092  -14.1233 C   0  0  0  0  0  0  0  0  0  0  0  0
  -20.1375    0.0744  -14.6468 C   0  0  0  0  0  0  0  0  0  0  0  0
  -19.0796    0.5958  -15.1867 N   0  0  0  0  0  0  0  0  0  0  0  0
  -19.0619    1.9637  -15.2676 C   0  0  0  0  0  0  0  0  0  0  0  0
  -18.1049    2.8572  -15.7193 C   0  0  0  0  0  0  0  0  0  0  0  0
  -18.6876    4.1271  -15.5112 C   0  0  0  0  0  0  0  0  0  0  0  0
  -19.9142    4.0726  -14.9981 N   0  0  0  0  0  0  0  0  0  0  0  0
  -20.1528    2.7383  -14.8509 N   0  0  0  0  0  0  0  0  0  0  0  0
  -21.3177    2.1484  -14.2907 C   0  0  0  0  0  0  0  0  0  0  0  0
  -22.3585    3.0080  -13.9309 N   0  0  0  0  0  0  0  0  0  0  0  0
  -22.0279    3.9666  -13.8023 H   0  0  0  0  0  0  0  0  0  0  0  0
  -22.9535    2.6656  -13.1805 H   0  0  0  0  0  0  0  0  0  0  0  0
  -24.4529   -1.2513  -13.7002 C   0  0  0  0  0  0  0  0  0  0  0  0
  -23.3921   -0.5471  -14.2851 C   0  0  0  0  0  0  0  0  0  0  0  0
  -22.4284    0.0843  -13.4979 C   0  0  0  0  0  0  0  0  0  0  0  0
  -22.5359    0.0349  -12.1094 C   0  0  0  0  0  0  0  0  0  0  0  0
  -23.5922   -0.6560  -11.5156 C   0  0  0  0  0  0  0  0  0  0  0  0
  -24.5500   -1.3224  -12.2916 C   0  0  0  0  0  0  0  0  0  0  0  0
  -25.5781   -2.1025  -11.7030 N   0  0  0  0  0  0  0  0  0  0  0  0
  -26.8480   -1.6838  -11.3804 C   0  0  0  0  0  0  0  0  0  0  0  0
  -27.3886   -0.6326  -11.6942 O   0  0  0  0  0  0  0  0  0  0  0  0
  -25.2897   -2.9863  -11.2997 H   0  0  0  0  0  0  0  0  0  0  0  0
  -27.4182   -2.5703  -10.5144 O   0  0  0  0  0  0  0  0  0  0  0  0
  -27.9563   -1.9480   -9.3339 C   0  0  0  0  0  0  0  0  0  0  0  0
  -27.9392   -2.8092   -8.0620 C   0  0  0  0  0  0  0  0  0  0  0  0
  -27.9515   -1.9644   -6.7895 C   0  0  0  0  0  0  0  0  0  0  0  0
  -29.1634   -3.7346   -8.0779 C   0  0  0  0  0  0  0  0  0  0  0  0
  -26.3288   -1.0889  -15.1620 C   0  0  0  0  0  0  0  0  0  0  0  0
  -25.4087   -1.9149  -14.4397 O   0  0  0  0  0  0  0  0  0  0  0  0
  -16.7919    2.5252  -16.2567 C   0  0  0  0  0  0  0  0  0  0  0  0
  -16.2030    1.2989  -15.9397 C   0  0  0  0  0  0  0  0  0  0  0  0
  -14.9732    0.9490  -16.4844 C   0  0  0  0  0  0  0  0  0  0  0  0
  -14.3281    1.8174  -17.3689 C   0  0  0  0  0  0  0  0  0  0  0  0
  -14.8862    3.0519  -17.7300 C   0  0  0  0  0  0  0  0  0  0  0  0
  -16.1148    3.3897  -17.1363 C   0  0  0  0  0  0  0  0  0  0  0  0
  -14.2911    3.8404  -18.6961 N   0  0  0  0  0  0  0  0  0  0  0  0
  -13.1091    3.3885  -19.4452 C   0  0  0  0  0  0  0  0  0  0  0  0
  -12.1467    4.5819  -19.6535 C   0  0  0  0  0  0  0  0  0  0  0  0
  -12.7973    5.7299  -20.3255 N   0  0  0  0  0  0  0  0  0  0  0  0
  -11.8563    6.8361  -20.4741 C   0  0  0  0  0  0  0  0  0  0  0  0
  -13.9778    6.1447  -19.5306 C   0  0  0  0  0  0  0  0  0  0  0  0
  -14.9819    4.9872  -19.3075 C   0  0  0  0  0  0  0  0  0  0  0  0
 28 29  1  0  0  0
 29 13  1  0  0  0
 13 14  1  0  0  0
 13 18  2  0  0  0
 14 15  2  0  0  0
 15  1  1  0  0  0
 15 16  1  0  0  0
  1  2  1  0  0  0
  1  9  2  0  0  0
  2  3  2  0  0  0
  3  4  1  0  0  0
  4  5  2  0  0  0
  4  8  1  0  0  0
  5 30  1  0  0  0
  5  6  1  0  0  0
 30 31  1  0  0  0
 30 35  2  0  0  0
 31 32  2  0  0  0
 32 33  1  0  0  0
 33 34  2  0  0  0
 34 36  1  0  0  0
 34 35  1  0  0  0
 36 37  1  0  0  0
 36 42  1  0  0  0
 37 38  1  0  0  0
 38 39  1  0  0  0
 39 40  1  0  0  0
 39 41  1  0  0  0
 41 42  1  0  0  0
  6  7  2  0  0  0
  7  8  1  0  0  0
  8  9  1  0  0  0
  9 10  1  0  0  0
 10 11  1  0  0  0
 10 12  1  0  0  0
 16 17  2  0  0  0
 17 18  1  0  0  0
 18 19  1  0  0  0
 19 20  1  0  0  0
 19 22  1  0  0  0
 20 21  2  0  0  0
 20 23  1  0  0  0
 23 24  1  0  0  0
 24 25  1  0  0  0
 25 26  1  0  0  0
 25 27  1  0  0  0
M  END
> <minimizedAffinity>
-9.18970

$$$$
