CHEMBL3909258


 38 42  0  0  0  0  0  0  0  0999 V2000
  -19.3512    1.9439  -14.7429 C   0  0  0  0  0  0  0  0  0  0  0  0
  -18.5511    0.7995  -14.8231 C   0  0  0  0  0  0  0  0  0  0  0  0
  -17.1927    0.8911  -15.1466 C   0  0  0  0  0  0  0  0  0  0  0  0
  -16.6205    2.1298  -15.4199 C   0  0  0  0  0  0  0  0  0  0  0  0
  -17.4513    3.2517  -15.4708 C   0  0  0  0  0  0  0  0  0  0  0  0
  -16.9701    4.4512  -15.8270 F   0  0  0  0  0  0  0  0  0  0  0  0
  -18.7997    3.1709  -15.1169 C   0  0  0  0  0  0  0  0  0  0  0  0
  -21.2853   -0.1975  -14.9410 O   0  0  0  0  0  0  0  0  0  0  0  0
  -21.5581    0.8585  -14.3902 C   0  0  0  0  0  0  0  0  0  0  0  0
  -20.6865    1.9314  -14.2758 N   0  0  0  0  0  0  0  0  0  0  0  0
  -22.7762    1.1294  -13.7840 N   0  0  0  0  0  0  0  0  0  0  0  0
  -20.9358    2.6315  -13.5930 H   0  0  0  0  0  0  0  0  0  0  0  0
  -23.0246    2.1017  -13.6834 H   0  0  0  0  0  0  0  0  0  0  0  0
  -23.8186    0.1887  -13.6078 C   0  0  0  0  0  0  0  0  0  0  0  0
  -24.3873   -0.5223  -14.6694 C   0  0  0  0  0  0  0  0  0  0  0  0
  -25.4457   -1.4176  -14.4815 C   0  0  0  0  0  0  0  0  0  0  0  0
  -25.9191   -1.5845  -13.1795 C   0  0  0  0  0  0  0  0  0  0  0  0
  -26.9517   -2.3660  -12.7042 N   0  0  0  0  0  0  0  0  0  0  0  0
  -27.0708   -2.2160  -11.3474 C   0  0  0  0  0  0  0  0  0  0  0  0
  -26.0952   -1.3368  -10.9589 C   0  0  0  0  0  0  0  0  0  0  0  0
  -25.8906   -0.9387   -9.7359 F   0  0  0  0  0  0  0  0  0  0  0  0
  -25.3588   -0.9184  -12.0888 C   0  0  0  0  0  0  0  0  0  0  0  0
  -24.2813   -0.0331  -12.3028 C   0  0  0  0  0  0  0  0  0  0  0  0
  -27.5376   -2.9522  -13.2832 H   0  0  0  0  0  0  0  0  0  0  0  0
  -15.2710    2.1225  -15.6866 O   0  0  0  0  0  0  0  0  0  0  0  0
  -14.3952    1.4751  -14.8412 C   0  0  0  0  0  0  0  0  0  0  0  0
  -13.2661    2.0518  -14.2711 C   0  0  0  0  0  0  0  0  0  0  0  0
  -12.4541    1.2461  -13.5038 C   0  0  0  0  0  0  0  0  0  0  0  0
  -12.7343   -0.0387  -13.2239 N   0  0  0  0  0  0  0  0  0  0  0  0
  -13.8633   -0.5767  -13.7106 C   0  0  0  0  0  0  0  0  0  0  0  0
  -14.7229    0.1524  -14.5251 C   0  0  0  0  0  0  0  0  0  0  0  0
  -14.1903   -1.9055  -13.4013 N   0  0  0  0  0  0  0  0  0  0  0  0
  -15.0658   -2.2691  -12.3966 C   0  0  0  0  0  0  0  0  0  0  0  0
  -15.6765   -1.5295  -11.6380 O   0  0  0  0  0  0  0  0  0  0  0  0
  -13.7403   -2.6308  -13.9344 H   0  0  0  0  0  0  0  0  0  0  0  0
  -15.2771   -3.7347  -12.1960 C   0  0  0  0  0  0  0  0  0  0  0  0
  -16.3308   -4.4452  -13.0143 C   0  0  0  0  0  0  0  0  0  0  0  0
  -16.4399   -4.4073  -11.5167 C   0  0  0  0  0  0  0  0  0  0  0  0
  8  9  2  0  0  0
  9 10  1  0  0  0
  9 11  1  0  0  0
 10  1  1  0  0  0
 10 12  1  0  0  0
  1  2  1  0  0  0
  1  7  2  0  0  0
  2  3  2  0  0  0
  3  4  1  0  0  0
  4 25  1  0  0  0
  4  5  2  0  0  0
 25 26  1  0  0  0
 26 27  1  0  0  0
 26 31  2  0  0  0
 27 28  2  0  0  0
 28 29  1  0  0  0
 29 30  2  0  0  0
 30 32  1  0  0  0
 30 31  1  0  0  0
 32 33  1  0  0  0
 32 35  1  0  0  0
 33 34  2  0  0  0
 33 36  1  0  0  0
 36 37  1  0  0  0
 36 38  1  0  0  0
 37 38  1  0  0  0
  5  6  1  0  0  0
  5  7  1  0  0  0
 11 14  1  0  0  0
 11 13  1  0  0  0
 14 15  1  0  0  0
 14 23  2  0  0  0
 15 16  2  0  0  0
 16 17  1  0  0  0
 17 18  1  0  0  0
 17 22  2  0  0  0
 18 19  1  0  0  0
 18 24  1  0  0  0
 19 20  2  0  0  0
 20 21  1  0  0  0
 20 22  1  0  0  0
 22 23  1  0  0  0
M  END
> <minimizedAffinity>
-10.33306

$$$$
