CHEMBL74850


 25 28  0  0  0  0  0  0  0  0999 V2000
  -27.5167   -2.3182   -8.3571 C   0  0  0  0  0  0  0  0  0  0  0  0
  -27.6563   -3.6065   -8.7399 N   0  0  0  0  0  0  0  0  0  0  0  0
  -28.5888   -4.3876   -8.1458 N   0  0  0  0  0  0  0  0  0  0  0  0
  -29.3236   -3.9076   -7.1132 C   0  0  0  0  0  0  0  0  0  0  0  0
  -29.1250   -2.6070   -6.5963 C   0  0  0  0  0  0  0  0  0  0  0  0
  -29.7747   -2.0914   -5.4462 C   0  0  0  0  0  0  0  0  0  0  0  0
  -29.5811   -0.7743   -5.0267 C   0  0  0  0  0  0  0  0  0  0  0  0
  -28.7627    0.0727   -5.7598 C   0  0  0  0  0  0  0  0  0  0  0  0
  -28.0838   -0.4175   -6.8730 C   0  0  0  0  0  0  0  0  0  0  0  0
  -28.2273   -1.7663   -7.2836 C   0  0  0  0  0  0  0  0  0  0  0  0
  -26.5838   -1.5131   -9.0099 O   0  0  0  0  0  0  0  0  0  0  0  0
  -26.2738   -1.5963  -14.8819 Cl  0  0  0  0  0  0  0  0  0  0  0  0
  -26.3820   -1.5548  -13.1651 C   0  0  0  0  0  0  0  0  0  0  0  0
  -27.6320   -1.6006  -12.5523 C   0  0  0  0  0  0  0  0  0  0  0  0
  -27.7217   -1.5723  -11.1596 C   0  0  0  0  0  0  0  0  0  0  0  0
  -26.5588   -1.5435  -10.3848 C   0  0  0  0  0  0  0  0  0  0  0  0
  -25.3101   -1.4652  -11.0030 C   0  0  0  0  0  0  0  0  0  0  0  0
  -25.2172   -1.4773  -12.3982 C   0  0  0  0  0  0  0  0  0  0  0  0
  -30.4561   -4.8136   -6.6820 C   0  0  0  0  0  0  0  0  0  0  0  0
  -30.1066   -5.6380   -5.4583 C   0  0  0  0  0  0  0  0  0  0  0  0
  -28.9734   -6.4630   -5.4511 C   0  0  0  0  0  0  0  0  0  0  0  0
  -28.7304   -7.2592   -4.3423 C   0  0  0  0  0  0  0  0  0  0  0  0
  -29.5185   -7.2789   -3.2474 N   0  0  0  0  0  0  0  0  0  0  0  0
  -30.5908   -6.4599   -3.2608 C   0  0  0  0  0  0  0  0  0  0  0  0
  -30.9196   -5.6292   -4.3226 C   0  0  0  0  0  0  0  0  0  0  0  0
 12 13  1  0  0  0
 13 14  1  0  0  0
 13 18  2  0  0  0
 14 15  2  0  0  0
 15 16  1  0  0  0
 16 11  1  0  0  0
 16 17  2  0  0  0
 11  1  1  0  0  0
  1  2  1  0  0  0
  1 10  2  0  0  0
  2  3  2  0  0  0
  3  4  1  0  0  0
  4 19  1  0  0  0
  4  5  2  0  0  0
 19 20  1  0  0  0
 20 21  1  0  0  0
 20 25  2  0  0  0
 21 22  2  0  0  0
 22 23  1  0  0  0
 23 24  2  0  0  0
 24 25  1  0  0  0
  5  6  1  0  0  0
  5 10  1  0  0  0
  6  7  2  0  0  0
  7  8  1  0  0  0
  8  9  2  0  0  0
  9 10  1  0  0  0
 17 18  1  0  0  0
M  END
> <minimizedAffinity>
-9.09599

$$$$
