CHEMBL3109345


 32 36  0  0  0  0  0  0  0  0999 V2000
  -15.3218   -1.1506  -13.5942 C   0  0  0  0  0  0  0  0  0  0  0  0
  -14.0530   -0.9697  -14.1181 C   0  0  0  0  0  0  0  0  0  0  0  0
  -13.8262    0.1336  -14.9199 C   0  0  0  0  0  0  0  0  0  0  0  0
  -14.8616    1.0407  -15.1504 C   0  0  0  0  0  0  0  0  0  0  0  0
  -14.5889    2.1736  -15.9225 C   0  0  0  0  0  0  0  0  0  0  0  0
  -15.5654    3.1323  -16.1127 C   0  0  0  0  0  0  0  0  0  0  0  0
  -16.8305    2.9385  -15.5720 C   0  0  0  0  0  0  0  0  0  0  0  0
  -17.1503    1.7654  -14.8600 C   0  0  0  0  0  0  0  0  0  0  0  0
  -16.1495    0.8015  -14.5956 C   0  0  0  0  0  0  0  0  0  0  0  0
  -16.3565   -0.3085  -13.8335 N   0  0  0  0  0  0  0  0  0  0  0  0
  -15.3416   -6.3659  -12.9261 C   0  0  0  0  0  0  0  0  0  0  0  0
  -15.0710   -5.6316  -14.1562 C   0  0  0  0  0  0  0  0  0  0  0  0
  -15.1338   -4.2878  -14.1561 C   0  0  0  0  0  0  0  0  0  0  0  0
  -15.4646   -3.6117  -12.9782 N   0  0  0  0  0  0  0  0  0  0  0  0
  -15.5718   -2.2617  -12.6891 C   0  0  0  0  0  0  0  0  0  0  0  0
  -15.9225   -2.2237  -11.3469 C   0  0  0  0  0  0  0  0  0  0  0  0
  -16.0051   -3.4672  -10.7964 N   0  0  0  0  0  0  0  0  0  0  0  0
  -15.7262   -4.2850  -11.7853 C   0  0  0  0  0  0  0  0  0  0  0  0
  -15.6508   -5.7015  -11.7912 C   0  0  0  0  0  0  0  0  0  0  0  0
  -15.2453   -7.7330  -13.0712 O   0  0  0  0  0  0  0  0  0  0  0  0
  -13.9691   -8.2914  -12.7512 C   0  0  0  0  0  0  0  0  0  0  0  0
  -13.2853   -8.8013  -14.0093 C   0  0  0  0  0  0  0  0  0  0  0  0
  -12.1372   -9.8384  -12.2304 C   0  0  0  0  0  0  0  0  0  0  0  0
  -12.3668   -9.8268  -13.6306 O   0  0  0  0  0  0  0  0  0  0  0  0
  -18.4286    1.5463  -14.3669 O   0  0  0  0  0  0  0  0  0  0  0  0
  -19.5137    1.6087  -15.3213 C   0  0  0  0  0  0  0  0  0  0  0  0
  -20.1610    3.0032  -15.3527 C   0  0  0  0  0  0  0  0  0  0  0  0
  -21.1414    3.2484  -14.2079 C   0  0  0  0  0  0  0  0  0  0  0  0
  -22.1342    2.1061  -14.0270 C   0  0  0  0  0  0  0  0  0  0  0  0
  -21.4647    0.8182  -13.8872 N   0  0  0  0  0  0  0  0  0  0  0  0
  -20.5794    0.5297  -15.0206 C   0  0  0  0  0  0  0  0  0  0  0  0
  -22.1644    0.0804  -13.8120 H   0  0  0  0  0  0  0  0  0  0  0  0
 23 24  1  0  0  0
 24 22  1  0  0  0
 22 21  1  0  0  0
 21 20  1  0  0  0
 20 11  1  0  0  0
 11 12  1  0  0  0
 11 19  2  0  0  0
 12 13  2  0  0  0
 13 14  1  0  0  0
 14 15  1  0  0  0
 14 18  1  0  0  0
 15  1  1  0  0  0
 15 16  2  0  0  0
  1  2  1  0  0  0
  1 10  2  0  0  0
  2  3  2  0  0  0
  3  4  1  0  0  0
  4  5  1  0  0  0
  4  9  2  0  0  0
  5  6  2  0  0  0
  6  7  1  0  0  0
  7  8  2  0  0  0
  8 25  1  0  0  0
  8  9  1  0  0  0
 25 26  1  0  0  0
 26 27  1  0  0  0
 26 31  1  0  0  0
 27 28  1  0  0  0
 28 29  1  0  0  0
 29 30  1  0  0  0
 30 31  1  0  0  0
 30 32  1  0  0  0
  9 10  1  0  0  0
 16 17  1  0  0  0
 17 18  2  0  0  0
 18 19  1  0  0  0
M  END
> <minimizedAffinity>
-8.39480

$$$$
