CHEMBL453057


 37 41  0  0  0  0  0  0  0  0999 V2000
  -20.4166    1.9433  -15.1660 C   0  0  0  0  0  0  0  0  0  0  0  0
  -20.5191    0.5477  -15.1016 C   0  0  0  0  0  0  0  0  0  0  0  0
  -21.5659   -0.0640  -14.3980 C   0  0  0  0  0  0  0  0  0  0  0  0
  -22.5375    0.7137  -13.7613 C   0  0  0  0  0  0  0  0  0  0  0  0
  -22.4060    2.1104  -13.7871 C   0  0  0  0  0  0  0  0  0  0  0  0
  -21.3382    2.7225  -14.4659 C   0  0  0  0  0  0  0  0  0  0  0  0
  -23.6933    0.0794  -13.1032 C   0  0  0  0  0  0  0  0  0  0  0  0
  -23.8108    0.1079  -11.6083 C   0  0  0  0  0  0  0  0  0  0  0  0
  -24.7480   -0.4220  -10.8827 N   0  0  0  0  0  0  0  0  0  0  0  0
  -25.7416   -1.0728  -11.5609 C   0  0  0  0  0  0  0  0  0  0  0  0
  -26.8717   -1.7496  -11.1221 C   0  0  0  0  0  0  0  0  0  0  0  0
  -27.5481   -2.2489  -12.2629 C   0  0  0  0  0  0  0  0  0  0  0  0
  -26.8380   -1.8504  -13.3705 C   0  0  0  0  0  0  0  0  0  0  0  0
  -25.7288   -1.1368  -12.9582 N   0  0  0  0  0  0  0  0  0  0  0  0
  -24.7011   -0.5545  -13.7483 C   0  0  0  0  0  0  0  0  0  0  0  0
  -24.7810   -0.6730  -15.1361 N   0  0  0  0  0  0  0  0  0  0  0  0
  -25.2396   -1.5221  -15.4531 H   0  0  0  0  0  0  0  0  0  0  0  0
  -23.8940   -0.5159  -15.6092 H   0  0  0  0  0  0  0  0  0  0  0  0
  -27.3494   -1.9589   -9.7579 C   0  0  0  0  0  0  0  0  0  0  0  0
  -27.7577   -3.1750   -9.1739 C   0  0  0  0  0  0  0  0  0  0  0  0
  -28.1445   -3.0272   -7.8990 N   0  0  0  0  0  0  0  0  0  0  0  0
  -27.9769   -1.7126   -7.6715 N   0  0  0  0  0  0  0  0  0  0  0  0
  -28.3014   -1.1478   -6.3846 C   0  0  0  0  0  0  0  0  0  0  0  0
  -27.4997   -1.0286   -8.7530 C   0  0  0  0  0  0  0  0  0  0  0  0
  -17.2481    3.2229  -16.4419 N   0  0  0  0  0  0  0  0  0  0  0  0
  -18.1228    2.6266  -15.5294 C   0  0  0  0  0  0  0  0  0  0  0  0
  -17.7897    2.1522  -14.4487 O   0  0  0  0  0  0  0  0  0  0  0  0
  -19.4384    2.5736  -15.9866 N   0  0  0  0  0  0  0  0  0  0  0  0
  -17.6663    3.7172  -17.2200 H   0  0  0  0  0  0  0  0  0  0  0  0
  -19.5167    2.4083  -16.9800 H   0  0  0  0  0  0  0  0  0  0  0  0
  -12.7727    1.0250  -16.5631 C   0  0  0  0  0  0  0  0  0  0  0  0
  -13.6339    2.2340  -16.3428 C   0  0  0  0  0  0  0  0  0  0  0  0
  -13.0305    3.4437  -15.9887 C   0  0  0  0  0  0  0  0  0  0  0  0
  -13.8066    4.5730  -15.7816 C   0  0  0  0  0  0  0  0  0  0  0  0
  -15.1940    4.5019  -15.9285 C   0  0  0  0  0  0  0  0  0  0  0  0
  -15.8346    3.3198  -16.2864 C   0  0  0  0  0  0  0  0  0  0  0  0
  -15.0403    2.1781  -16.4920 C   0  0  0  0  0  0  0  0  0  0  0  0
 31 32  1  0  0  0
 32 33  1  0  0  0
 32 37  2  0  0  0
 33 34  2  0  0  0
 34 35  1  0  0  0
 35 36  2  0  0  0
 36 25  1  0  0  0
 36 37  1  0  0  0
 25 26  1  0  0  0
 25 29  1  0  0  0
 26 27  2  0  0  0
 26 28  1  0  0  0
 28  1  1  0  0  0
 28 30  1  0  0  0
  1  2  1  0  0  0
  1  6  2  0  0  0
  2  3  2  0  0  0
  3  4  1  0  0  0
  4  7  1  0  0  0
  4  5  2  0  0  0
  7  8  1  0  0  0
  7 15  2  0  0  0
  8  9  2  0  0  0
  9 10  1  0  0  0
 10 11  2  0  0  0
 10 14  1  0  0  0
 11 19  1  0  0  0
 11 12  1  0  0  0
 19 20  1  0  0  0
 19 24  2  0  0  0
 20 21  2  0  0  0
 21 22  1  0  0  0
 22 23  1  0  0  0
 22 24  1  0  0  0
 12 13  2  0  0  0
 13 14  1  0  0  0
 14 15  1  0  0  0
 15 16  1  0  0  0
 16 17  1  0  0  0
 16 18  1  0  0  0
  5  6  1  0  0  0
M  END
> <minimizedAffinity>
-9.42220

$$$$
