CHEMBL3746941


 34 39  0  0  0  0  0  0  0  0999 V2000
  -22.2558    0.1271  -12.9877 N   0  0  0  0  0  0  0  0  0  0  0  0
  -22.4663    1.1400  -13.8972 C   0  0  0  0  0  0  0  0  0  0  0  0
  -23.4891    1.5607  -14.4057 O   0  0  0  0  0  0  0  0  0  0  0  0
  -21.2846    1.8745  -14.1140 N   0  0  0  0  0  0  0  0  0  0  0  0
  -21.2198    3.2508  -13.9867 C   0  0  0  0  0  0  0  0  0  0  0  0
  -19.9445    3.6723  -14.2411 C   0  0  0  0  0  0  0  0  0  0  0  0
  -19.1956    2.5381  -14.6422 C   0  0  0  0  0  0  0  0  0  0  0  0
  -17.8677    2.3762  -15.0823 C   0  0  0  0  0  0  0  0  0  0  0  0
  -17.4192    1.1171  -15.4790 C   0  0  0  0  0  0  0  0  0  0  0  0
  -18.3145    0.0417  -15.5154 C   0  0  0  0  0  0  0  0  0  0  0  0
  -19.6280    0.1653  -15.0390 C   0  0  0  0  0  0  0  0  0  0  0  0
  -20.0468    1.4257  -14.5809 C   0  0  0  0  0  0  0  0  0  0  0  0
  -21.4016    0.1077  -12.4493 H   0  0  0  0  0  0  0  0  0  0  0  0
  -25.3176   -1.5001  -12.1616 C   0  0  0  0  0  0  0  0  0  0  0  0
  -24.6601   -0.4816  -12.8199 C   0  0  0  0  0  0  0  0  0  0  0  0
  -23.2808   -0.7079  -12.5851 C   0  0  0  0  0  0  0  0  0  0  0  0
  -23.0989   -1.8226  -11.8772 N   0  0  0  0  0  0  0  0  0  0  0  0
  -24.3305   -2.2933  -11.6529 N   0  0  0  0  0  0  0  0  0  0  0  0
  -24.4227   -3.1404  -11.1031 H   0  0  0  0  0  0  0  0  0  0  0  0
  -27.6227   -2.2642  -13.1221 C   0  0  0  0  0  0  0  0  0  0  0  0
  -26.8288   -1.7056  -11.9642 C   0  0  0  0  0  0  0  0  0  0  0  0
  -27.2387   -2.1265  -10.5564 C   0  0  0  0  0  0  0  0  0  0  0  0
  -27.5689   -0.7555  -11.0341 C   0  0  0  0  0  0  0  0  0  0  0  0
  -16.0879    1.0624  -15.8578 O   0  0  0  0  0  0  0  0  0  0  0  0
  -15.1624    0.8893  -14.8450 C   0  0  0  0  0  0  0  0  0  0  0  0
  -15.1398   -0.2834  -14.1797 N   0  0  0  0  0  0  0  0  0  0  0  0
  -14.0055   -0.5480  -13.4970 C   0  0  0  0  0  0  0  0  0  0  0  0
  -12.9136    0.2336  -13.4379 N   0  0  0  0  0  0  0  0  0  0  0  0
  -13.0513    1.4079  -14.0620 C   0  0  0  0  0  0  0  0  0  0  0  0
  -14.1830    1.8250  -14.7182 C   0  0  0  0  0  0  0  0  0  0  0  0
  -13.9443    3.1351  -15.3598 C   0  0  0  0  0  0  0  0  0  0  0  0
  -12.4815    3.1361  -15.6019 N   0  0  0  0  0  0  0  0  0  0  0  0
  -11.9313    2.3477  -14.4519 C   0  0  0  0  0  0  0  0  0  0  0  0
  -12.3426    2.5572  -16.4347 H   0  0  0  0  0  0  0  0  0  0  0  0
 20 21  1  0  0  0
 21 14  1  0  0  0
 21 22  1  0  0  0
 21 23  1  0  0  0
 14 15  2  0  0  0
 14 18  1  0  0  0
 15 16  1  0  0  0
 16  1  1  0  0  0
 16 17  2  0  0  0
  1  2  1  0  0  0
  1 13  1  0  0  0
  2  3  2  0  0  0
  2  4  1  0  0  0
  4  5  1  0  0  0
  4 12  1  0  0  0
  5  6  2  0  0  0
  6  7  1  0  0  0
  7  8  1  0  0  0
  7 12  2  0  0  0
  8  9  2  0  0  0
  9 24  1  0  0  0
  9 10  1  0  0  0
 24 25  1  0  0  0
 25 26  1  0  0  0
 25 30  2  0  0  0
 26 27  2  0  0  0
 27 28  1  0  0  0
 28 29  2  0  0  0
 29 30  1  0  0  0
 29 33  1  0  0  0
 30 31  1  0  0  0
 31 32  1  0  0  0
 32 33  1  0  0  0
 32 34  1  0  0  0
 10 11  2  0  0  0
 11 12  1  0  0  0
 17 18  1  0  0  0
 18 19  1  0  0  0
 22 23  1  0  0  0
M  END
> <minimizedAffinity>
-9.04885

$$$$
