CHEMBL3676350


 41 44  0  0  0  0  0  0  0  0999 V2000
  -13.8240   -1.1212  -14.4965 C   0  0  0  0  0  0  0  0  0  0  0  0
  -14.5367    0.0322  -14.8168 C   0  0  0  0  0  0  0  0  0  0  0  0
  -14.3015    0.7334  -16.0120 C   0  0  0  0  0  0  0  0  0  0  0  0
  -14.9486    1.9277  -16.3477 C   0  0  0  0  0  0  0  0  0  0  0  0
  -14.6755    2.5670  -17.5007 N   0  0  0  0  0  0  0  0  0  0  0  0
  -13.7610    2.0192  -18.3030 C   0  0  0  0  0  0  0  0  0  0  0  0
  -13.0918    0.8835  -18.0733 N   0  0  0  0  0  0  0  0  0  0  0  0
  -13.3644    0.2488  -16.9268 C   0  0  0  0  0  0  0  0  0  0  0  0
  -12.7048   -0.9385  -16.6295 C   0  0  0  0  0  0  0  0  0  0  0  0
  -12.9409   -1.6567  -15.4467 C   0  0  0  0  0  0  0  0  0  0  0  0
  -15.0165   -2.5665  -12.9370 C   0  0  0  0  0  0  0  0  0  0  0  0
  -15.7877   -3.0483  -13.7590 O   0  0  0  0  0  0  0  0  0  0  0  0
  -14.0199   -1.6464  -13.2032 N   0  0  0  0  0  0  0  0  0  0  0  0
  -13.5157   -1.2482  -12.4299 H   0  0  0  0  0  0  0  0  0  0  0  0
  -16.1232   -3.6545  -11.0533 C   0  0  0  0  0  0  0  0  0  0  0  0
  -15.1078   -2.9011  -11.4934 C   0  0  0  0  0  0  0  0  0  0  0  0
  -15.9295    2.4656  -15.4590 N   0  0  0  0  0  0  0  0  0  0  0  0
  -15.8295    3.4754  -15.4190 H   0  0  0  0  0  0  0  0  0  0  0  0
  -17.2665    2.0472  -15.3439 C   0  0  0  0  0  0  0  0  0  0  0  0
  -17.5948    0.7018  -15.1847 C   0  0  0  0  0  0  0  0  0  0  0  0
  -18.9138    0.2776  -15.1171 C   0  0  0  0  0  0  0  0  0  0  0  0
  -19.9587    1.1971  -15.1117 C   0  0  0  0  0  0  0  0  0  0  0  0
  -19.6444    2.5669  -15.1951 C   0  0  0  0  0  0  0  0  0  0  0  0
  -20.8766    3.7736  -15.1722 Cl  0  0  0  0  0  0  0  0  0  0  0  0
  -18.3087    2.9869  -15.2954 C   0  0  0  0  0  0  0  0  0  0  0  0
  -21.2797    0.8393  -15.0180 O   0  0  0  0  0  0  0  0  0  0  0  0
  -21.8510    1.0053  -13.7159 C   0  0  0  0  0  0  0  0  0  0  0  0
  -22.7723   -0.1127  -13.3438 C   0  0  0  0  0  0  0  0  0  0  0  0
  -23.8155   -0.5445  -14.1653 C   0  0  0  0  0  0  0  0  0  0  0  0
  -24.6887   -1.5232  -13.7030 C   0  0  0  0  0  0  0  0  0  0  0  0
  -24.4951   -2.0312  -12.4295 C   0  0  0  0  0  0  0  0  0  0  0  0
  -23.5025   -1.6345  -11.6027 N   0  0  0  0  0  0  0  0  0  0  0  0
  -22.6661   -0.6903  -12.0776 C   0  0  0  0  0  0  0  0  0  0  0  0
  -12.1619   -2.7791  -15.3333 O   0  0  0  0  0  0  0  0  0  0  0  0
  -12.7088   -3.9528  -15.9217 C   0  0  0  0  0  0  0  0  0  0  0  0
  -12.6759   -5.1398  -14.9623 C   0  0  0  0  0  0  0  0  0  0  0  0
  -14.0203   -5.5864  -14.6186 N   0  0  0  0  0  0  0  0  0  0  0  0
  -14.2951   -6.1816  -13.4059 C   0  0  0  0  0  0  0  0  0  0  0  0
  -15.7121   -6.6506  -13.2385 C   0  0  0  0  0  0  0  0  0  0  0  0
  -13.4538   -6.3669  -12.5311 O   0  0  0  0  0  0  0  0  0  0  0  0
  -14.7863   -5.3225  -15.2254 H   0  0  0  0  0  0  0  0  0  0  0  0
 15 16  2  0  0  0
 16 11  1  0  0  0
 11 12  2  0  0  0
 11 13  1  0  0  0
 13  1  1  0  0  0
 13 14  1  0  0  0
  1  2  1  0  0  0
  1 10  2  0  0  0
  2  3  2  0  0  0
  3  4  1  0  0  0
  3  8  1  0  0  0
  4 17  1  0  0  0
  4  5  2  0  0  0
 17 19  1  0  0  0
 17 18  1  0  0  0
 19 20  1  0  0  0
 19 25  2  0  0  0
 20 21  2  0  0  0
 21 22  1  0  0  0
 22 26  1  0  0  0
 22 23  2  0  0  0
 26 27  1  0  0  0
 27 28  1  0  0  0
 28 29  1  0  0  0
 28 33  2  0  0  0
 29 30  2  0  0  0
 30 31  1  0  0  0
 31 32  2  0  0  0
 32 33  1  0  0  0
 23 24  1  0  0  0
 23 25  1  0  0  0
  5  6  1  0  0  0
  6  7  2  0  0  0
  7  8  1  0  0  0
  8  9  2  0  0  0
  9 10  1  0  0  0
 10 34  1  0  0  0
 34 35  1  0  0  0
 35 36  1  0  0  0
 36 37  1  0  0  0
 37 38  1  0  0  0
 37 41  1  0  0  0
 38 39  1  0  0  0
 38 40  2  0  0  0
M  END
> <minimizedAffinity>
-8.14931

$$$$
