CHEMBL215191


 30 33  0  0  0  0  0  0  0  0999 V2000
  -13.6585   -5.6509  -11.5129 C   0  0  0  0  0  0  0  0  0  0  0  0
  -14.1510   -5.1277  -12.7194 C   0  0  0  0  0  0  0  0  0  0  0  0
  -13.6301   -3.9459  -13.2634 C   0  0  0  0  0  0  0  0  0  0  0  0
  -12.6588   -3.2329  -12.5617 C   0  0  0  0  0  0  0  0  0  0  0  0
  -12.2057   -3.7288  -11.3362 C   0  0  0  0  0  0  0  0  0  0  0  0
  -12.6952   -4.9274  -10.7963 C   0  0  0  0  0  0  0  0  0  0  0  0
  -12.1876   -2.0021  -13.0358 N   0  0  0  0  0  0  0  0  0  0  0  0
  -12.9812   -0.9227  -13.4561 C   0  0  0  0  0  0  0  0  0  0  0  0
  -12.4359    0.2684  -13.1326 N   0  0  0  0  0  0  0  0  0  0  0  0
  -13.1784    1.3482  -13.3728 C   0  0  0  0  0  0  0  0  0  0  0  0
  -14.3943    1.3667  -13.9164 N   0  0  0  0  0  0  0  0  0  0  0  0
  -14.9127    0.1761  -14.2680 C   0  0  0  0  0  0  0  0  0  0  0  0
  -14.2315   -1.0420  -14.0804 C   0  0  0  0  0  0  0  0  0  0  0  0
  -14.8942   -2.2402  -14.4673 N   0  0  0  0  0  0  0  0  0  0  0  0
  -14.0723   -3.4375  -14.6048 C   0  0  0  0  0  0  0  0  0  0  0  0
  -11.4113   -1.6088  -12.5138 H   0  0  0  0  0  0  0  0  0  0  0  0
  -15.6606   -2.3891  -13.8078 H   0  0  0  0  0  0  0  0  0  0  0  0
  -13.7250   -8.0125  -11.7094 C   0  0  0  0  0  0  0  0  0  0  0  0
  -14.1313   -6.8343  -11.0142 O   0  0  0  0  0  0  0  0  0  0  0  0
  -12.1101   -5.2188   -9.5933 O   0  0  0  0  0  0  0  0  0  0  0  0
  -12.6760   -4.6988   -8.4021 C   0  0  0  0  0  0  0  0  0  0  0  0
  -16.2490    0.1293  -14.7341 N   0  0  0  0  0  0  0  0  0  0  0  0
  -16.3965   -0.7915  -15.1490 H   0  0  0  0  0  0  0  0  0  0  0  0
  -16.6007    1.2034  -15.6538 C   0  0  0  0  0  0  0  0  0  0  0  0
  -18.0265    1.6356  -15.4050 C   0  0  0  0  0  0  0  0  0  0  0  0
  -18.3538    3.0007  -15.4378 C   0  0  0  0  0  0  0  0  0  0  0  0
  -19.6659    3.4238  -15.2280 C   0  0  0  0  0  0  0  0  0  0  0  0
  -20.6673    2.4858  -14.9873 C   0  0  0  0  0  0  0  0  0  0  0  0
  -20.3587    1.1257  -14.9680 C   0  0  0  0  0  0  0  0  0  0  0  0
  -19.0446    0.7004  -15.1782 C   0  0  0  0  0  0  0  0  0  0  0  0
 18 19  1  0  0  0
 19  1  1  0  0  0
  1  2  1  0  0  0
  1  6  2  0  0  0
  2  3  2  0  0  0
  3  4  1  0  0  0
  3 15  1  0  0  0
  4  5  2  0  0  0
  4  7  1  0  0  0
  5  6  1  0  0  0
  6 20  1  0  0  0
 20 21  1  0  0  0
  7  8  1  0  0  0
  7 16  1  0  0  0
  8  9  1  0  0  0
  8 13  2  0  0  0
  9 10  2  0  0  0
 10 11  1  0  0  0
 11 12  2  0  0  0
 12 22  1  0  0  0
 12 13  1  0  0  0
 22 24  1  0  0  0
 22 23  1  0  0  0
 24 25  1  0  0  0
 25 26  1  0  0  0
 25 30  2  0  0  0
 26 27  2  0  0  0
 27 28  1  0  0  0
 28 29  2  0  0  0
 29 30  1  0  0  0
 13 14  1  0  0  0
 14 15  1  0  0  0
 14 17  1  0  0  0
M  END
> <minimizedAffinity>
-7.81729

$$$$
