CHEMBL4441199


 29 32  0  0  0  0  0  0  0  0999 V2000
  -28.0820   -7.1892   -5.3038 C   0  0  0  0  0  0  0  0  0  0  0  0
  -28.8357   -7.1467   -6.4844 C   0  0  0  0  0  0  0  0  0  0  0  0
  -29.3891   -5.9599   -6.9618 C   0  0  0  0  0  0  0  0  0  0  0  0
  -29.0805   -4.8219   -6.2369 C   0  0  0  0  0  0  0  0  0  0  0  0
  -29.4410   -3.5564   -6.5608 O   0  0  0  0  0  0  0  0  0  0  0  0
  -28.8329   -2.7725   -5.6126 C   0  0  0  0  0  0  0  0  0  0  0  0
  -28.2026   -3.4580   -4.6707 N   0  0  0  0  0  0  0  0  0  0  0  0
  -28.3250   -4.7838   -5.0780 C   0  0  0  0  0  0  0  0  0  0  0  0
  -27.8240   -6.0062   -4.5683 C   0  0  0  0  0  0  0  0  0  0  0  0
  -28.9930   -1.3395   -5.8487 C   0  0  0  0  0  0  0  0  0  0  0  0
  -29.9239   -0.5651   -5.1455 C   0  0  0  0  0  0  0  0  0  0  0  0
  -30.0814    0.7980   -5.4371 C   0  0  0  0  0  0  0  0  0  0  0  0
  -29.2997    1.4081   -6.4210 C   0  0  0  0  0  0  0  0  0  0  0  0
  -28.3622    0.6549   -7.1185 C   0  0  0  0  0  0  0  0  0  0  0  0
  -28.2177   -0.6999   -6.8307 C   0  0  0  0  0  0  0  0  0  0  0  0
  -27.2979   -1.3874   -7.5270 F   0  0  0  0  0  0  0  0  0  0  0  0
  -28.0357   -9.2398   -3.9007 C   0  0  0  0  0  0  0  0  0  0  0  0
  -28.9148   -8.8904   -3.1195 O   0  0  0  0  0  0  0  0  0  0  0  0
  -27.5710   -8.4652   -4.9576 N   0  0  0  0  0  0  0  0  0  0  0  0
  -27.1647   -8.9983   -5.7157 H   0  0  0  0  0  0  0  0  0  0  0  0
  -27.3547  -10.5949   -3.7995 C   0  0  0  0  0  0  0  0  0  0  0  0
  -23.1066  -11.0499   -4.6333 C   0  0  0  0  0  0  0  0  0  0  0  0
  -23.5423  -10.5782   -3.3996 C   0  0  0  0  0  0  0  0  0  0  0  0
  -24.9130  -10.3847   -3.1597 C   0  0  0  0  0  0  0  0  0  0  0  0
  -25.8792  -10.6561   -4.1456 C   0  0  0  0  0  0  0  0  0  0  0  0
  -25.4272  -11.1206   -5.3885 C   0  0  0  0  0  0  0  0  0  0  0  0
  -24.0561  -11.3123   -5.6256 C   0  0  0  0  0  0  0  0  0  0  0  0
  -21.4907  -11.2697   -6.3736 C   0  0  0  0  0  0  0  0  0  0  0  0
  -21.8086  -11.3075   -4.9863 O   0  0  0  0  0  0  0  0  0  0  0  0
 28 29  1  0  0  0
 29 22  1  0  0  0
 22 23  1  0  0  0
 22 27  2  0  0  0
 23 24  2  0  0  0
 24 25  1  0  0  0
 25 21  1  0  0  0
 25 26  2  0  0  0
 21 17  1  0  0  0
 17 18  2  0  0  0
 17 19  1  0  0  0
 19  1  1  0  0  0
 19 20  1  0  0  0
  1  2  1  0  0  0
  1  9  2  0  0  0
  2  3  2  0  0  0
  3  4  1  0  0  0
  4  5  1  0  0  0
  4  8  2  0  0  0
  5  6  1  0  0  0
  6 10  1  0  0  0
  6  7  2  0  0  0
 10 11  1  0  0  0
 10 15  2  0  0  0
 11 12  2  0  0  0
 12 13  1  0  0  0
 13 14  2  0  0  0
 14 15  1  0  0  0
 15 16  1  0  0  0
  7  8  1  0  0  0
  8  9  1  0  0  0
 26 27  1  0  0  0
M  END
> <minimizedAffinity>
-8.53815

$$$$
