CHEMBL188421


 40 43  0  0  0  0  0  0  0  0999 V2000
  -28.3260   -2.3326   -3.8214 C   0  0  0  0  0  0  0  0  0  0  0  0
  -28.9727   -3.0719   -4.9063 N   0  0  0  0  0  0  0  0  0  0  0  0
  -28.6184   -2.7165   -6.2174 C   0  0  0  0  0  0  0  0  0  0  0  0
  -28.8673   -3.5356   -7.3194 C   0  0  0  0  0  0  0  0  0  0  0  0
  -28.5638   -3.1058   -8.6199 C   0  0  0  0  0  0  0  0  0  0  0  0
  -27.9776   -1.8505   -8.8664 C   0  0  0  0  0  0  0  0  0  0  0  0
  -27.6945   -1.0603   -7.7532 C   0  0  0  0  0  0  0  0  0  0  0  0
  -28.0133   -1.4807   -6.4580 C   0  0  0  0  0  0  0  0  0  0  0  0
  -27.8346   -1.4537  -10.2078 N   0  0  0  0  0  0  0  0  0  0  0  0
  -28.5711   -0.8272  -10.5097 H   0  0  0  0  0  0  0  0  0  0  0  0
  -27.0768   -1.9326  -11.2418 C   0  0  0  0  0  0  0  0  0  0  0  0
  -27.4600   -2.3635  -12.3948 N   0  0  0  0  0  0  0  0  0  0  0  0
  -28.4602   -2.3234  -12.5002 H   0  0  0  0  0  0  0  0  0  0  0  0
  -25.7417   -1.9728  -10.8869 N   0  0  0  0  0  0  0  0  0  0  0  0
  -25.4538   -2.8990  -10.5973 H   0  0  0  0  0  0  0  0  0  0  0  0
  -24.7611   -1.3518  -11.7032 C   0  0  0  0  0  0  0  0  0  0  0  0
  -23.8125   -2.1341  -12.3784 C   0  0  0  0  0  0  0  0  0  0  0  0
  -22.7848   -1.5480  -13.1117 C   0  0  0  0  0  0  0  0  0  0  0  0
  -22.7065   -0.1629  -13.2024 C   0  0  0  0  0  0  0  0  0  0  0  0
  -23.6659    0.6307  -12.5719 C   0  0  0  0  0  0  0  0  0  0  0  0
  -24.6957    0.0404  -11.8301 C   0  0  0  0  0  0  0  0  0  0  0  0
  -29.5475   -4.3010   -4.5012 C   0  0  0  0  0  0  0  0  0  0  0  0
  -30.9213   -4.4556   -4.3986 C   0  0  0  0  0  0  0  0  0  0  0  0
  -31.3888   -5.6836   -4.0132 C   0  0  0  0  0  0  0  0  0  0  0  0
  -30.5941   -6.7243   -3.7222 N   0  0  0  0  0  0  0  0  0  0  0  0
  -29.2779   -6.5054   -3.8233 C   0  0  0  0  0  0  0  0  0  0  0  0
  -28.7379   -5.3371   -4.2127 N   0  0  0  0  0  0  0  0  0  0  0  0
  -28.4396   -7.5690   -3.4874 N   0  0  0  0  0  0  0  0  0  0  0  0
  -27.8243   -7.2579   -2.7445 H   0  0  0  0  0  0  0  0  0  0  0  0
  -27.8255   -8.4524   -4.3997 C   0  0  0  0  0  0  0  0  0  0  0  0
  -26.4879   -8.7941   -4.2223 C   0  0  0  0  0  0  0  0  0  0  0  0
  -25.8679   -9.6892   -5.0923 C   0  0  0  0  0  0  0  0  0  0  0  0
  -26.5753  -10.2315   -6.1689 C   0  0  0  0  0  0  0  0  0  0  0  0
  -27.9046   -9.8622   -6.4001 C   0  0  0  0  0  0  0  0  0  0  0  0
  -28.5117   -8.9627   -5.5110 C   0  0  0  0  0  0  0  0  0  0  0  0
  -28.6645  -10.3717   -7.5961 C   0  0  0  0  0  0  0  0  0  0  0  0
  -28.9325   -9.1044   -8.8284 S   0  0  0  0  0  0  0  0  0  0  0  0
  -29.2117   -9.9855  -10.3403 C   0  0  0  0  0  0  0  0  0  0  0  0
  -30.1849   -8.4458   -8.4962 O   0  0  0  0  0  0  0  0  0  0  0  0
  -27.7236   -8.3168   -8.9856 O   0  0  0  0  0  0  0  0  0  0  0  0
  1  2  1  0  0  0
  2  3  1  0  0  0
  2 22  1  0  0  0
  3  4  1  0  0  0
  3  8  2  0  0  0
  4  5  2  0  0  0
  5  6  1  0  0  0
  6  9  1  0  0  0
  6  7  2  0  0  0
  9 11  1  0  0  0
  9 10  1  0  0  0
 11 12  2  0  0  0
 11 14  1  0  0  0
 12 13  1  0  0  0
 14 16  1  0  0  0
 14 15  1  0  0  0
 16 17  1  0  0  0
 16 21  2  0  0  0
 17 18  2  0  0  0
 18 19  1  0  0  0
 19 20  2  0  0  0
 20 21  1  0  0  0
  7  8  1  0  0  0
 22 23  1  0  0  0
 22 27  2  0  0  0
 23 24  2  0  0  0
 24 25  1  0  0  0
 25 26  2  0  0  0
 26 28  1  0  0  0
 26 27  1  0  0  0
 28 30  1  0  0  0
 28 29  1  0  0  0
 30 31  1  0  0  0
 30 35  2  0  0  0
 31 32  2  0  0  0
 32 33  1  0  0  0
 33 34  2  0  0  0
 34 36  1  0  0  0
 34 35  1  0  0  0
 36 37  1  0  0  0
 37 38  1  0  0  0
 37 39  2  0  0  0
 37 40  2  0  0  0
M  END
> <minimizedAffinity>
-9.87371

$$$$
