CHEMBL3893008


 35 38  0  0  0  0  0  0  0  0999 V2000
  -18.3358    1.8775  -15.5567 C   0  0  0  0  0  0  0  0  0  0  0  0
  -18.9802    3.1057  -15.6944 C   0  0  0  0  0  0  0  0  0  0  0  0
  -20.2238    3.3103  -15.1299 C   0  0  0  0  0  0  0  0  0  0  0  0
  -20.9463    2.2833  -14.5882 C   0  0  0  0  0  0  0  0  0  0  0  0
  -22.0470    2.6631  -13.9249 N   0  0  0  0  0  0  0  0  0  0  0  0
  -22.9159    1.6977  -13.5946 C   0  0  0  0  0  0  0  0  0  0  0  0
  -22.7483    0.3910  -14.0134 C   0  0  0  0  0  0  0  0  0  0  0  0
  -21.5390   -0.0315  -14.5323 N   0  0  0  0  0  0  0  0  0  0  0  0
  -20.5542    0.9376  -14.7820 C   0  0  0  0  0  0  0  0  0  0  0  0
  -19.1650    0.7678  -15.2038 C   0  0  0  0  0  0  0  0  0  0  0  0
  -23.9984   -0.3428  -14.2333 C   0  0  0  0  0  0  0  0  0  0  0  0
  -24.7087   -0.8006  -15.3658 C   0  0  0  0  0  0  0  0  0  0  0  0
  -25.7816   -1.5519  -15.0520 N   0  0  0  0  0  0  0  0  0  0  0  0
  -25.7678   -1.5888  -13.7040 N   0  0  0  0  0  0  0  0  0  0  0  0
  -24.6602   -0.9723  -13.1852 C   0  0  0  0  0  0  0  0  0  0  0  0
  -26.9270   -2.0051  -12.9295 C   0  0  0  0  0  0  0  0  0  0  0  0
  -26.9301   -1.6894  -11.4362 C   0  0  0  0  0  0  0  0  0  0  0  0
  -26.7334   -2.8582  -10.6465 O   0  0  0  0  0  0  0  0  0  0  0  0
  -27.6172   -3.2187  -10.4551 H   0  0  0  0  0  0  0  0  0  0  0  0
  -16.8856    1.9434  -15.6040 N   0  0  0  0  0  0  0  0  0  0  0  0
  -15.4239   -0.3695  -13.0376 C   0  0  0  0  0  0  0  0  0  0  0  0
  -14.2900   -0.8480  -13.6978 C   0  0  0  0  0  0  0  0  0  0  0  0
  -13.9706   -0.3506  -14.9579 C   0  0  0  0  0  0  0  0  0  0  0  0
  -14.7829    0.6300  -15.5496 C   0  0  0  0  0  0  0  0  0  0  0  0
  -15.9336    1.1330  -14.9256 C   0  0  0  0  0  0  0  0  0  0  0  0
  -16.2216    0.6264  -13.6367 C   0  0  0  0  0  0  0  0  0  0  0  0
  -15.6996   -2.2362  -11.5565 C   0  0  0  0  0  0  0  0  0  0  0  0
  -15.8633   -0.8406  -11.8202 O   0  0  0  0  0  0  0  0  0  0  0  0
  -12.9205   -0.7625  -15.7359 O   0  0  0  0  0  0  0  0  0  0  0  0
  -12.2027    0.2401  -16.4469 C   0  0  0  0  0  0  0  0  0  0  0  0
  -16.5165    3.4087  -15.7272 C   0  0  0  0  0  0  0  0  0  0  0  0
  -15.7285    3.8573  -16.9667 C   0  0  0  0  0  0  0  0  0  0  0  0
  -14.4285    4.6309  -16.7303 C   0  0  0  0  0  0  0  0  0  0  0  0
  -14.3168    5.0578  -15.3818 O   0  0  0  0  0  0  0  0  0  0  0  0
  -14.8007    5.8934  -15.2921 H   0  0  0  0  0  0  0  0  0  0  0  0
 27 28  1  0  0  0
 28 21  1  0  0  0
 21 22  1  0  0  0
 21 26  2  0  0  0
 22 23  2  0  0  0
 23 29  1  0  0  0
 23 24  1  0  0  0
 29 30  1  0  0  0
 24 25  2  0  0  0
 25 20  1  0  0  0
 25 26  1  0  0  0
 20 31  1  0  0  0
 20  1  1  0  0  0
 31 32  1  0  0  0
 32 33  1  0  0  0
 33 34  1  0  0  0
 34 35  1  0  0  0
  1  2  1  0  0  0
  1 10  2  0  0  0
  2  3  2  0  0  0
  3  4  1  0  0  0
  4  5  1  0  0  0
  4  9  2  0  0  0
  5  6  2  0  0  0
  6  7  1  0  0  0
  7 11  1  0  0  0
  7  8  2  0  0  0
 11 12  1  0  0  0
 11 15  2  0  0  0
 12 13  2  0  0  0
 13 14  1  0  0  0
 14 16  1  0  0  0
 14 15  1  0  0  0
 16 17  1  0  0  0
 17 18  1  0  0  0
 18 19  1  0  0  0
  8  9  1  0  0  0
  9 10  1  0  0  0
M  END
> <minimizedAffinity>
-8.81512

$$$$
