CHEMBL190991


 42 45  0  0  0  0  0  0  0  0999 V2000
  -15.7252    2.3200  -16.0972 C   0  0  0  0  0  0  0  0  0  0  0  0
  -16.6980    1.3608  -15.7472 C   0  0  0  0  0  0  0  0  0  0  0  0
  -18.0122    1.7167  -15.4335 C   0  0  0  0  0  0  0  0  0  0  0  0
  -18.9791    0.7628  -15.1599 C   0  0  0  0  0  0  0  0  0  0  0  0
  -20.2649    1.0557  -14.8869 N   0  0  0  0  0  0  0  0  0  0  0  0
  -20.6144    2.3494  -14.9038 C   0  0  0  0  0  0  0  0  0  0  0  0
  -19.6774    3.3637  -15.1310 C   0  0  0  0  0  0  0  0  0  0  0  0
  -18.3360    3.0675  -15.4050 C   0  0  0  0  0  0  0  0  0  0  0  0
  -17.4021    4.0345  -15.6393 N   0  0  0  0  0  0  0  0  0  0  0  0
  -16.1447    3.6653  -16.0348 C   0  0  0  0  0  0  0  0  0  0  0  0
  -12.1598    1.1121  -15.5706 C   0  0  0  0  0  0  0  0  0  0  0  0
  -11.8775    0.5438  -16.8109 C   0  0  0  0  0  0  0  0  0  0  0  0
  -12.8109    0.6188  -17.8379 C   0  0  0  0  0  0  0  0  0  0  0  0
  -14.0099    1.2951  -17.6248 C   0  0  0  0  0  0  0  0  0  0  0  0
  -14.3563    1.8260  -16.3660 C   0  0  0  0  0  0  0  0  0  0  0  0
  -13.3937    1.7253  -15.3507 C   0  0  0  0  0  0  0  0  0  0  0  0
  -11.8329    1.7318  -13.3163 C   0  0  0  0  0  0  0  0  0  0  0  0
  -11.3447    1.0668  -14.4719 O   0  0  0  0  0  0  0  0  0  0  0  0
  -12.6585    0.0574  -19.0764 O   0  0  0  0  0  0  0  0  0  0  0  0
  -13.3230    0.7369  -20.1390 C   0  0  0  0  0  0  0  0  0  0  0  0
  -15.2317    4.7381  -16.2868 N   0  0  0  0  0  0  0  0  0  0  0  0
  -14.9631    5.0749  -17.6053 C   0  0  0  0  0  0  0  0  0  0  0  0
  -15.4256    4.4753  -18.5732 O   0  0  0  0  0  0  0  0  0  0  0  0
  -14.1318    6.1834  -17.7256 N   0  0  0  0  0  0  0  0  0  0  0  0
  -15.5131    5.5703  -15.7874 H   0  0  0  0  0  0  0  0  0  0  0  0
  -13.4795    6.3104  -16.9581 H   0  0  0  0  0  0  0  0  0  0  0  0
  -13.7761    6.8162  -19.0292 C   0  0  0  0  0  0  0  0  0  0  0  0
  -13.0612    8.1568  -18.7815 C   0  0  0  0  0  0  0  0  0  0  0  0
  -12.8184    5.9152  -19.8471 C   0  0  0  0  0  0  0  0  0  0  0  0
  -15.0090    7.0702  -19.9155 C   0  0  0  0  0  0  0  0  0  0  0  0
  -21.9197    2.6875  -14.6003 N   0  0  0  0  0  0  0  0  0  0  0  0
  -22.4504    3.1859  -15.3003 H   0  0  0  0  0  0  0  0  0  0  0  0
  -22.6240    2.0856  -13.4849 C   0  0  0  0  0  0  0  0  0  0  0  0
  -23.2108    0.7507  -13.9427 C   0  0  0  0  0  0  0  0  0  0  0  0
  -22.7798   -0.3661  -12.9961 C   0  0  0  0  0  0  0  0  0  0  0  0
  -23.5127   -1.5570  -13.2688 O   0  0  0  0  0  0  0  0  0  0  0  0
  -24.7799   -1.5907  -12.7437 C   0  0  0  0  0  0  0  0  0  0  0  0
  -25.1118   -1.4343  -11.3941 C   0  0  0  0  0  0  0  0  0  0  0  0
  -26.4471   -1.4555  -10.9866 C   0  0  0  0  0  0  0  0  0  0  0  0
  -27.4599   -1.6344  -11.9250 C   0  0  0  0  0  0  0  0  0  0  0  0
  -27.1348   -1.8048  -13.2703 C   0  0  0  0  0  0  0  0  0  0  0  0
  -25.8015   -1.7870  -13.6749 C   0  0  0  0  0  0  0  0  0  0  0  0
 17 18  1  0  0  0
 18 11  1  0  0  0
 11 12  1  0  0  0
 11 16  2  0  0  0
 12 13  2  0  0  0
 13 19  1  0  0  0
 13 14  1  0  0  0
 19 20  1  0  0  0
 14 15  2  0  0  0
 15  1  1  0  0  0
 15 16  1  0  0  0
  1  2  1  0  0  0
  1 10  2  0  0  0
  2  3  2  0  0  0
  3  4  1  0  0  0
  3  8  1  0  0  0
  4  5  2  0  0  0
  5  6  1  0  0  0
  6 31  1  0  0  0
  6  7  2  0  0  0
 31 33  1  0  0  0
 31 32  1  0  0  0
 33 34  1  0  0  0
 34 35  1  0  0  0
 35 36  1  0  0  0
 36 37  1  0  0  0
 37 38  1  0  0  0
 37 42  2  0  0  0
 38 39  2  0  0  0
 39 40  1  0  0  0
 40 41  2  0  0  0
 41 42  1  0  0  0
  7  8  1  0  0  0
  8  9  2  0  0  0
  9 10  1  0  0  0
 10 21  1  0  0  0
 21 22  1  0  0  0
 21 25  1  0  0  0
 22 23  2  0  0  0
 22 24  1  0  0  0
 24 27  1  0  0  0
 24 26  1  0  0  0
 27 28  1  0  0  0
 27 29  1  0  0  0
 27 30  1  0  0  0
M  END
> <minimizedAffinity>
-8.61825

$$$$
