CHEMBL411725


 30 33  0  0  0  0  0  0  0  0999 V2000
  -22.7790   -0.4874  -13.5307 C   0  0  0  0  0  0  0  0  0  0  0  0
  -22.6431   -0.9629  -12.2247 C   0  0  0  0  0  0  0  0  0  0  0  0
  -23.7120   -1.5432  -11.5404 C   0  0  0  0  0  0  0  0  0  0  0  0
  -24.9399   -1.7533  -12.1655 C   0  0  0  0  0  0  0  0  0  0  0  0
  -25.0673   -1.3861  -13.5054 C   0  0  0  0  0  0  0  0  0  0  0  0
  -24.0061   -0.7462  -14.1719 C   0  0  0  0  0  0  0  0  0  0  0  0
  -23.4851    2.8243  -13.1768 N   0  0  0  0  0  0  0  0  0  0  0  0
  -22.3147    2.8057  -13.8416 C   0  0  0  0  0  0  0  0  0  0  0  0
  -21.6912    3.9388  -14.1738 N   0  0  0  0  0  0  0  0  0  0  0  0
  -20.5485    3.5592  -14.8456 O   0  0  0  0  0  0  0  0  0  0  0  0
  -20.4827    2.2079  -14.8971 C   0  0  0  0  0  0  0  0  0  0  0  0
  -19.4493    1.4961  -15.5035 C   0  0  0  0  0  0  0  0  0  0  0  0
  -19.5336    0.1081  -15.4421 C   0  0  0  0  0  0  0  0  0  0  0  0
  -20.6151   -0.5124  -14.8114 C   0  0  0  0  0  0  0  0  0  0  0  0
  -21.6703    0.2169  -14.2038 C   0  0  0  0  0  0  0  0  0  0  0  0
  -21.5861    1.6455  -14.2668 C   0  0  0  0  0  0  0  0  0  0  0  0
  -23.9299    3.7257  -13.0321 H   0  0  0  0  0  0  0  0  0  0  0  0
  -24.1400    2.0523  -13.2244 H   0  0  0  0  0  0  0  0  0  0  0  0
  -26.0330   -2.3682  -11.5094 N   0  0  0  0  0  0  0  0  0  0  0  0
  -26.5639   -1.9528  -10.2975 C   0  0  0  0  0  0  0  0  0  0  0  0
  -26.2836   -0.8993   -9.7404 O   0  0  0  0  0  0  0  0  0  0  0  0
  -27.4186   -2.9068   -9.7567 N   0  0  0  0  0  0  0  0  0  0  0  0
  -26.5856   -3.0266  -12.0378 H   0  0  0  0  0  0  0  0  0  0  0  0
  -27.1834   -3.8586   -9.9959 H   0  0  0  0  0  0  0  0  0  0  0  0
  -27.9923   -2.7072   -8.4775 C   0  0  0  0  0  0  0  0  0  0  0  0
  -27.7821   -1.5277   -7.7544 C   0  0  0  0  0  0  0  0  0  0  0  0
  -28.2661   -1.3992   -6.4523 C   0  0  0  0  0  0  0  0  0  0  0  0
  -28.9631   -2.4521   -5.8659 C   0  0  0  0  0  0  0  0  0  0  0  0
  -29.2038   -3.6181   -6.5929 C   0  0  0  0  0  0  0  0  0  0  0  0
  -28.7413   -3.7383   -7.9070 C   0  0  0  0  0  0  0  0  0  0  0  0
  7  8  1  0  0  0
  7 17  1  0  0  0
  7 18  1  0  0  0
  8  9  2  0  0  0
  8 16  1  0  0  0
  9 10  1  0  0  0
 10 11  1  0  0  0
 11 12  1  0  0  0
 11 16  2  0  0  0
 12 13  2  0  0  0
 13 14  1  0  0  0
 14 15  2  0  0  0
 15  1  1  0  0  0
 15 16  1  0  0  0
  1  2  1  0  0  0
  1  6  2  0  0  0
  2  3  2  0  0  0
  3  4  1  0  0  0
  4 19  1  0  0  0
  4  5  2  0  0  0
 19 20  1  0  0  0
 19 23  1  0  0  0
 20 21  2  0  0  0
 20 22  1  0  0  0
 22 25  1  0  0  0
 22 24  1  0  0  0
 25 26  1  0  0  0
 25 30  2  0  0  0
 26 27  2  0  0  0
 27 28  1  0  0  0
 28 29  2  0  0  0
 29 30  1  0  0  0
  5  6  1  0  0  0
M  END
> <minimizedAffinity>
-10.11520

$$$$
