CHEMBL1242748


 26 29  0  0  0  0  0  0  0  0999 V2000
  -16.3308    0.1843  -12.8448 N   0  0  0  0  0  0  0  0  0  0  0  0
  -15.3736    0.9072  -13.5063 C   0  0  0  0  0  0  0  0  0  0  0  0
  -14.1334    0.8323  -12.9800 N   0  0  0  0  0  0  0  0  0  0  0  0
  -13.1226    1.4466  -13.6108 C   0  0  0  0  0  0  0  0  0  0  0  0
  -13.1745    2.1652  -14.7425 N   0  0  0  0  0  0  0  0  0  0  0  0
  -14.4270    2.2663  -15.2161 C   0  0  0  0  0  0  0  0  0  0  0  0
  -15.5614    1.6943  -14.6587 C   0  0  0  0  0  0  0  0  0  0  0  0
  -16.6353    2.1399  -15.4986 C   0  0  0  0  0  0  0  0  0  0  0  0
  -16.1755    2.8503  -16.5407 N   0  0  0  0  0  0  0  0  0  0  0  0
  -14.8415    2.9531  -16.3262 N   0  0  0  0  0  0  0  0  0  0  0  0
  -16.0741   -0.1482  -11.9242 H   0  0  0  0  0  0  0  0  0  0  0  0
  -17.2915    0.1080  -13.1368 H   0  0  0  0  0  0  0  0  0  0  0  0
  -18.0731    1.9041  -15.3421 C   0  0  0  0  0  0  0  0  0  0  0  0
  -18.6012    0.6077  -15.4032 C   0  0  0  0  0  0  0  0  0  0  0  0
  -19.9544    0.3828  -15.1248 C   0  0  0  0  0  0  0  0  0  0  0  0
  -20.7612    1.4479  -14.7621 C   0  0  0  0  0  0  0  0  0  0  0  0
  -22.0460    1.2350  -14.4293 F   0  0  0  0  0  0  0  0  0  0  0  0
  -20.2590    2.7386  -14.7419 C   0  0  0  0  0  0  0  0  0  0  0  0
  -21.0145    3.8077  -14.3439 O   0  0  0  0  0  0  0  0  0  0  0  0
  -18.9408    2.9764  -15.1001 C   0  0  0  0  0  0  0  0  0  0  0  0
  -21.8945    3.4604  -14.1039 H   0  0  0  0  0  0  0  0  0  0  0  0
  -14.0858    3.7674  -17.2528 C   0  0  0  0  0  0  0  0  0  0  0  0
  -14.9363    4.2623  -18.4114 C   0  0  0  0  0  0  0  0  0  0  0  0
  -14.1030    5.3812  -18.9898 C   0  0  0  0  0  0  0  0  0  0  0  0
  -13.2978    5.9079  -17.9290 O   0  0  0  0  0  0  0  0  0  0  0  0
  -13.4659    5.0693  -16.7681 C   0  0  0  0  0  0  0  0  0  0  0  0
  1  2  1  0  0  0
  1 11  1  0  0  0
  1 12  1  0  0  0
  2  3  1  0  0  0
  2  7  2  0  0  0
  3  4  2  0  0  0
  4  5  1  0  0  0
  5  6  2  0  0  0
  6  7  1  0  0  0
  6 10  1  0  0  0
  7  8  1  0  0  0
  8 13  1  0  0  0
  8  9  2  0  0  0
 13 14  1  0  0  0
 13 20  2  0  0  0
 14 15  2  0  0  0
 15 16  1  0  0  0
 16 17  1  0  0  0
 16 18  2  0  0  0
 18 19  1  0  0  0
 18 20  1  0  0  0
 19 21  1  0  0  0
  9 10  1  0  0  0
 22 23  1  0  0  0
 22 26  1  0  0  0
 22 10  1  0  0  0
 23 24  1  0  0  0
 24 25  1  0  0  0
 25 26  1  0  0  0
M  END
> <minimizedAffinity>
-7.73257

$$$$
