CHEMBL1290071


 26 30  0  0  0  0  0  0  0  0999 V2000
  -28.0409   -2.5862   -9.4517 N   0  0  0  0  0  0  0  0  0  0  0  0
  -28.5289   -2.9253  -10.2683 H   0  0  0  0  0  0  0  0  0  0  0  0
  -28.2771   -3.3187   -8.2988 C   0  0  0  0  0  0  0  0  0  0  0  0
  -28.3287   -4.7234   -8.2737 C   0  0  0  0  0  0  0  0  0  0  0  0
  -28.5077   -5.3996   -7.0723 C   0  0  0  0  0  0  0  0  0  0  0  0
  -28.6583   -4.8298   -5.8630 N   0  0  0  0  0  0  0  0  0  0  0  0
  -28.5922   -3.4879   -5.9084 C   0  0  0  0  0  0  0  0  0  0  0  0
  -28.7072   -2.7188   -4.7914 O   0  0  0  0  0  0  0  0  0  0  0  0
  -28.5787   -1.4259   -5.1800 C   0  0  0  0  0  0  0  0  0  0  0  0
  -28.6392   -0.3237   -4.3272 C   0  0  0  0  0  0  0  0  0  0  0  0
  -28.4826    0.9356   -4.9146 C   0  0  0  0  0  0  0  0  0  0  0  0
  -28.2761    1.0695   -6.2870 C   0  0  0  0  0  0  0  0  0  0  0  0
  -28.2237   -0.0571   -7.1176 C   0  0  0  0  0  0  0  0  0  0  0  0
  -28.3833   -1.3398   -6.5539 C   0  0  0  0  0  0  0  0  0  0  0  0
  -28.4020   -2.6874   -7.0362 C   0  0  0  0  0  0  0  0  0  0  0  0
  -26.7805   -1.9497   -9.7850 C   0  0  0  0  0  0  0  0  0  0  0  0
  -22.9973   -0.9771  -13.3637 C   0  0  0  0  0  0  0  0  0  0  0  0
  -22.9593   -1.1551  -11.9875 C   0  0  0  0  0  0  0  0  0  0  0  0
  -24.1302   -1.4715  -11.2876 C   0  0  0  0  0  0  0  0  0  0  0  0
  -25.3779   -1.6153  -11.9455 C   0  0  0  0  0  0  0  0  0  0  0  0
  -26.6199   -1.8805  -11.2904 C   0  0  0  0  0  0  0  0  0  0  0  0
  -27.7824   -2.0795  -12.0602 C   0  0  0  0  0  0  0  0  0  0  0  0
  -27.7546   -1.9771  -13.4443 C   0  0  0  0  0  0  0  0  0  0  0  0
  -26.5635   -1.6635  -14.0864 C   0  0  0  0  0  0  0  0  0  0  0  0
  -25.3790   -1.4771  -13.3602 C   0  0  0  0  0  0  0  0  0  0  0  0
  -24.1982   -1.1500  -14.0456 C   0  0  0  0  0  0  0  0  0  0  0  0
 17 18  1  0  0  0
 17 26  2  0  0  0
 18 19  2  0  0  0
 19 20  1  0  0  0
 20 21  1  0  0  0
 20 25  2  0  0  0
 21 16  1  0  0  0
 21 22  2  0  0  0
 16  1  1  0  0  0
  1  3  1  0  0  0
  1  2  1  0  0  0
  3  4  1  0  0  0
  3 15  2  0  0  0
  4  5  2  0  0  0
  5  6  1  0  0  0
  6  7  2  0  0  0
  7  8  1  0  0  0
  7 15  1  0  0  0
  8  9  1  0  0  0
  9 10  1  0  0  0
  9 14  2  0  0  0
 10 11  2  0  0  0
 11 12  1  0  0  0
 12 13  2  0  0  0
 13 14  1  0  0  0
 14 15  1  0  0  0
 22 23  1  0  0  0
 23 24  2  0  0  0
 24 25  1  0  0  0
 25 26  1  0  0  0
M  END
> <minimizedAffinity>
-10.57635

$$$$
