CHEMBL3925024


 39 44  0  0  0  0  0  0  0  0999 V2000
  -27.4733   -9.1817   -5.2747 C   0  0  0  0  0  0  0  0  0  0  0  0
  -28.3800  -10.0753   -5.8556 C   0  0  0  0  0  0  0  0  0  0  0  0
  -29.6860   -9.6851   -6.1670 C   0  0  0  0  0  0  0  0  0  0  0  0
  -30.1142   -8.3922   -5.8982 C   0  0  0  0  0  0  0  0  0  0  0  0
  -29.2286   -7.4761   -5.3251 C   0  0  0  0  0  0  0  0  0  0  0  0
  -27.9206   -7.8776   -4.9882 C   0  0  0  0  0  0  0  0  0  0  0  0
  -26.4857  -11.1094   -3.2629 O   0  0  0  0  0  0  0  0  0  0  0  0
  -25.7323  -10.4502   -3.9721 C   0  0  0  0  0  0  0  0  0  0  0  0
  -26.1278   -9.5454   -4.9635 N   0  0  0  0  0  0  0  0  0  0  0  0
  -25.4190   -9.1924   -5.5741 H   0  0  0  0  0  0  0  0  0  0  0  0
  -24.2735  -10.7241   -3.8322 C   0  0  0  0  0  0  0  0  0  0  0  0
  -23.7776  -11.0984   -2.5615 C   0  0  0  0  0  0  0  0  0  0  0  0
  -22.4409  -11.4473   -2.3678 C   0  0  0  0  0  0  0  0  0  0  0  0
  -21.5724  -11.5477   -3.4527 C   0  0  0  0  0  0  0  0  0  0  0  0
  -22.0613  -11.1297   -4.6931 C   0  0  0  0  0  0  0  0  0  0  0  0
  -21.4834  -11.1575   -5.9414 N   0  0  0  0  0  0  0  0  0  0  0  0
  -22.0642  -10.1849   -6.7073 C   0  0  0  0  0  0  0  0  0  0  0  0
  -23.3008   -9.9411   -6.1500 C   0  0  0  0  0  0  0  0  0  0  0  0
  -23.3455  -10.5955   -4.8833 C   0  0  0  0  0  0  0  0  0  0  0  0
  -20.7013  -11.7422   -6.2112 H   0  0  0  0  0  0  0  0  0  0  0  0
  -29.6259   -6.1839   -5.0156 O   0  0  0  0  0  0  0  0  0  0  0  0
  -29.3592   -5.1883   -5.9381 C   0  0  0  0  0  0  0  0  0  0  0  0
  -30.1911   -5.0683   -7.0592 C   0  0  0  0  0  0  0  0  0  0  0  0
  -29.9240   -4.1277   -8.0749 C   0  0  0  0  0  0  0  0  0  0  0  0
  -28.8766   -3.1823   -7.8621 C   0  0  0  0  0  0  0  0  0  0  0  0
  -28.1428   -2.1658   -8.5556 C   0  0  0  0  0  0  0  0  0  0  0  0
  -27.8789   -1.2057   -7.6286 N   0  0  0  0  0  0  0  0  0  0  0  0
  -27.6626   -1.9650   -6.5398 N   0  0  0  0  0  0  0  0  0  0  0  0
  -28.2601   -3.1982   -6.6183 C   0  0  0  0  0  0  0  0  0  0  0  0
  -28.3578   -4.2460   -5.6942 C   0  0  0  0  0  0  0  0  0  0  0  0
  -27.1773   -1.5603   -5.7558 H   0  0  0  0  0  0  0  0  0  0  0  0
  -27.0265   -2.3183   -9.4917 C   0  0  0  0  0  0  0  0  0  0  0  0
  -26.4279   -1.2549  -10.0917 C   0  0  0  0  0  0  0  0  0  0  0  0
  -26.2214   -1.1772  -11.5533 C   0  0  0  0  0  0  0  0  0  0  0  0
  -24.9627   -0.8529  -12.0800 C   0  0  0  0  0  0  0  0  0  0  0  0
  -24.6604   -1.0456  -13.4390 C   0  0  0  0  0  0  0  0  0  0  0  0
  -25.6271   -1.5684  -14.2911 C   0  0  0  0  0  0  0  0  0  0  0  0
  -26.9005   -1.8630  -13.7889 C   0  0  0  0  0  0  0  0  0  0  0  0
  -27.1938   -1.6811  -12.4348 C   0  0  0  0  0  0  0  0  0  0  0  0
  7  8  2  0  0  0
  8  9  1  0  0  0
  8 11  1  0  0  0
  9  1  1  0  0  0
  9 10  1  0  0  0
  1  2  1  0  0  0
  1  6  2  0  0  0
  2  3  2  0  0  0
  3  4  1  0  0  0
  4  5  2  0  0  0
  5 21  1  0  0  0
  5  6  1  0  0  0
 21 22  1  0  0  0
 22 23  1  0  0  0
 22 30  2  0  0  0
 23 24  2  0  0  0
 24 25  1  0  0  0
 25 26  1  0  0  0
 25 29  2  0  0  0
 26 32  1  0  0  0
 26 27  2  0  0  0
 32 33  2  0  0  0
 33 34  1  0  0  0
 34 35  1  0  0  0
 34 39  2  0  0  0
 35 36  2  0  0  0
 36 37  1  0  0  0
 37 38  2  0  0  0
 38 39  1  0  0  0
 27 28  1  0  0  0
 28 29  1  0  0  0
 28 31  1  0  0  0
 29 30  1  0  0  0
 11 12  1  0  0  0
 11 19  2  0  0  0
 12 13  2  0  0  0
 13 14  1  0  0  0
 14 15  2  0  0  0
 15 16  1  0  0  0
 15 19  1  0  0  0
 16 17  1  0  0  0
 16 20  1  0  0  0
 17 18  2  0  0  0
 18 19  1  0  0  0
M  END
> <minimizedAffinity>
-10.81774

$$$$
