CHEMBL3656069


 43 46  0  0  0  0  0  0  0  0999 V2000
  -16.4789    3.3464  -16.2145 C   0  0  0  0  0  0  0  0  0  0  0  0
  -15.6468    4.4301  -16.4613 C   0  0  0  0  0  0  0  0  0  0  0  0
  -14.3499    4.3729  -15.9875 C   0  0  0  0  0  0  0  0  0  0  0  0
  -13.8276    3.3011  -15.3568 N   0  0  0  0  0  0  0  0  0  0  0  0
  -14.6342    2.2265  -15.1892 C   0  0  0  0  0  0  0  0  0  0  0  0
  -15.9650    2.2091  -15.5940 C   0  0  0  0  0  0  0  0  0  0  0  0
  -13.9828    1.0877  -14.5497 C   0  0  0  0  0  0  0  0  0  0  0  0
  -14.4212   -0.1871  -14.2236 C   0  0  0  0  0  0  0  0  0  0  0  0
  -13.3486   -0.9059  -13.6025 C   0  0  0  0  0  0  0  0  0  0  0  0
  -12.2790   -0.0275  -13.5816 C   0  0  0  0  0  0  0  0  0  0  0  0
  -12.6663    1.1551  -14.1493 N   0  0  0  0  0  0  0  0  0  0  0  0
  -12.0923    1.9804  -14.2749 H   0  0  0  0  0  0  0  0  0  0  0  0
  -13.2982   -2.2701  -13.0736 C   0  0  0  0  0  0  0  0  0  0  0  0
  -12.6379   -2.5772  -12.0840 O   0  0  0  0  0  0  0  0  0  0  0  0
  -14.0556   -3.1954  -13.7602 N   0  0  0  0  0  0  0  0  0  0  0  0
  -14.6055   -2.8995  -14.5526 H   0  0  0  0  0  0  0  0  0  0  0  0
  -14.0949   -4.5898  -13.3690 C   0  0  0  0  0  0  0  0  0  0  0  0
  -15.5150   -5.0751  -13.1405 C   0  0  0  0  0  0  0  0  0  0  0  0
  -15.7194   -5.3213  -11.6740 C   0  0  0  0  0  0  0  0  0  0  0  0
  -14.8559   -5.7734  -10.9364 O   0  0  0  0  0  0  0  0  0  0  0  0
  -16.9371   -4.9480  -11.2254 O   0  0  0  0  0  0  0  0  0  0  0  0
  -17.5198   -4.5736  -11.9142 H   0  0  0  0  0  0  0  0  0  0  0  0
  -17.8058    3.2773  -16.5975 O   0  0  0  0  0  0  0  0  0  0  0  0
  -20.5641    1.4718  -14.0171 C   0  0  0  0  0  0  0  0  0  0  0  0
  -19.5695    0.7283  -14.6619 C   0  0  0  0  0  0  0  0  0  0  0  0
  -18.6615    1.3598  -15.5213 C   0  0  0  0  0  0  0  0  0  0  0  0
  -18.7361    2.7390  -15.7336 C   0  0  0  0  0  0  0  0  0  0  0  0
  -19.6819    3.4928  -15.0368 C   0  0  0  0  0  0  0  0  0  0  0  0
  -20.6159    2.8496  -14.2292 C   0  0  0  0  0  0  0  0  0  0  0  0
  -21.5484    3.5831  -13.6023 F   0  0  0  0  0  0  0  0  0  0  0  0
  -23.5266   -0.0782  -12.5888 N   0  0  0  0  0  0  0  0  0  0  0  0
  -22.7574    0.5135  -13.5813 C   0  0  0  0  0  0  0  0  0  0  0  0
  -23.1049    0.6779  -14.7451 O   0  0  0  0  0  0  0  0  0  0  0  0
  -21.4990    0.8816  -13.1244 N   0  0  0  0  0  0  0  0  0  0  0  0
  -23.2197    0.0510  -11.6349 H   0  0  0  0  0  0  0  0  0  0  0  0
  -21.0967    0.2425  -12.4499 H   0  0  0  0  0  0  0  0  0  0  0  0
  -27.9408   -1.4216  -10.7365 C   0  0  0  0  0  0  0  0  0  0  0  0
  -26.9557   -1.3696  -11.8685 C   0  0  0  0  0  0  0  0  0  0  0  0
  -27.2931   -1.9456  -13.0984 C   0  0  0  0  0  0  0  0  0  0  0  0
  -26.3955   -1.9083  -14.1564 C   0  0  0  0  0  0  0  0  0  0  0  0
  -25.1531   -1.2956  -13.9956 C   0  0  0  0  0  0  0  0  0  0  0  0
  -24.7871   -0.7032  -12.7845 C   0  0  0  0  0  0  0  0  0  0  0  0
  -25.6989   -0.7480  -11.7175 C   0  0  0  0  0  0  0  0  0  0  0  0
 37 38  1  0  0  0
 38 39  1  0  0  0
 38 43  2  0  0  0
 39 40  2  0  0  0
 40 41  1  0  0  0
 41 42  2  0  0  0
 42 31  1  0  0  0
 42 43  1  0  0  0
 31 32  1  0  0  0
 31 35  1  0  0  0
 32 33  2  0  0  0
 32 34  1  0  0  0
 34 24  1  0  0  0
 34 36  1  0  0  0
 24 25  1  0  0  0
 24 29  2  0  0  0
 25 26  2  0  0  0
 26 27  1  0  0  0
 27 23  1  0  0  0
 27 28  2  0  0  0
 23  1  1  0  0  0
  1  2  1  0  0  0
  1  6  2  0  0  0
  2  3  2  0  0  0
  3  4  1  0  0  0
  4  5  2  0  0  0
  5  7  1  0  0  0
  5  6  1  0  0  0
  7  8  2  0  0  0
  7 11  1  0  0  0
  8  9  1  0  0  0
  9 13  1  0  0  0
  9 10  2  0  0  0
 13 14  2  0  0  0
 13 15  1  0  0  0
 15 17  1  0  0  0
 15 16  1  0  0  0
 17 18  1  0  0  0
 18 19  1  0  0  0
 19 20  2  0  0  0
 19 21  1  0  0  0
 21 22  1  0  0  0
 10 11  1  0  0  0
 11 12  1  0  0  0
 28 29  1  0  0  0
 29 30  1  0  0  0
M  END
> <minimizedAffinity>
-9.83337

$$$$
