CHEMBL356658


 34 37  0  0  0  0  0  0  0  0999 V2000
  -30.8374   -7.8701   -6.5323 C   0  0  0  0  0  0  0  0  0  0  0  0
  -30.0036   -8.9283   -6.9031 C   0  0  0  0  0  0  0  0  0  0  0  0
  -28.7485   -9.1444   -6.2821 C   0  0  0  0  0  0  0  0  0  0  0  0
  -27.8335  -10.1475   -6.6342 C   0  0  0  0  0  0  0  0  0  0  0  0
  -26.6671  -10.3081   -5.9775 N   0  0  0  0  0  0  0  0  0  0  0  0
  -26.3962   -9.4523   -4.9944 C   0  0  0  0  0  0  0  0  0  0  0  0
  -27.1688   -8.4351   -4.6116 N   0  0  0  0  0  0  0  0  0  0  0  0
  -28.3328   -8.2853   -5.2609 C   0  0  0  0  0  0  0  0  0  0  0  0
  -29.1707   -7.2411   -4.9011 C   0  0  0  0  0  0  0  0  0  0  0  0
  -30.4277   -7.0277   -5.4955 C   0  0  0  0  0  0  0  0  0  0  0  0
  -32.6173   -9.0966   -7.5572 C   0  0  0  0  0  0  0  0  0  0  0  0
  -32.0152   -7.8489   -7.2263 O   0  0  0  0  0  0  0  0  0  0  0  0
  -28.0963  -10.9852   -7.7482 N   0  0  0  0  0  0  0  0  0  0  0  0
  -27.6743  -11.9024   -7.6263 H   0  0  0  0  0  0  0  0  0  0  0  0
  -28.0452  -10.5421   -9.0889 C   0  0  0  0  0  0  0  0  0  0  0  0
  -26.8927   -9.9273   -9.6010 C   0  0  0  0  0  0  0  0  0  0  0  0
  -26.8040   -9.5841  -10.9512 C   0  0  0  0  0  0  0  0  0  0  0  0
  -27.8804   -9.8377  -11.7967 C   0  0  0  0  0  0  0  0  0  0  0  0
  -27.7399   -9.4787  -13.4727 Cl  0  0  0  0  0  0  0  0  0  0  0  0
  -29.0563  -10.3927  -11.3005 C   0  0  0  0  0  0  0  0  0  0  0  0
  -29.1292  -10.7325   -9.9521 C   0  0  0  0  0  0  0  0  0  0  0  0
  -30.2591  -11.2827   -9.4800 F   0  0  0  0  0  0  0  0  0  0  0  0
  -31.1052   -5.9825   -4.9331 O   0  0  0  0  0  0  0  0  0  0  0  0
  -30.4041   -5.1855   -3.9818 C   0  0  0  0  0  0  0  0  0  0  0  0
  -31.3093   -4.1543   -3.3492 C   0  0  0  0  0  0  0  0  0  0  0  0
  -30.5711   -2.9833   -3.0046 O   0  0  0  0  0  0  0  0  0  0  0  0
  -29.1867   -3.2390   -3.2245 C   0  0  0  0  0  0  0  0  0  0  0  0
  -28.5612   -2.1090   -4.0381 C   0  0  0  0  0  0  0  0  0  0  0  0
  -29.4539   -1.6333   -5.1117 N   0  0  0  0  0  0  0  0  0  0  0  0
  -29.2916   -2.4569   -6.3300 C   0  0  0  0  0  0  0  0  0  0  0  0
  -27.9800   -2.1914   -7.0949 C   0  0  0  0  0  0  0  0  0  0  0  0
  -27.7915   -0.7988   -7.3844 O   0  0  0  0  0  0  0  0  0  0  0  0
  -27.8647   -0.0089   -6.1921 C   0  0  0  0  0  0  0  0  0  0  0  0
  -29.2146   -0.2222   -5.4945 C   0  0  0  0  0  0  0  0  0  0  0  0
 11 12  1  0  0  0
 12  1  1  0  0  0
  1  2  1  0  0  0
  1 10  2  0  0  0
  2  3  2  0  0  0
  3  4  1  0  0  0
  3  8  1  0  0  0
  4 13  1  0  0  0
  4  5  2  0  0  0
 13 15  1  0  0  0
 13 14  1  0  0  0
 15 16  1  0  0  0
 15 21  2  0  0  0
 16 17  2  0  0  0
 17 18  1  0  0  0
 18 19  1  0  0  0
 18 20  2  0  0  0
 20 21  1  0  0  0
 21 22  1  0  0  0
  5  6  1  0  0  0
  6  7  2  0  0  0
  7  8  1  0  0  0
  8  9  2  0  0  0
  9 10  1  0  0  0
 10 23  1  0  0  0
 23 24  1  0  0  0
 24 25  1  0  0  0
 25 26  1  0  0  0
 26 27  1  0  0  0
 27 28  1  0  0  0
 28 29  1  0  0  0
 29 30  1  0  0  0
 29 34  1  0  0  0
 30 31  1  0  0  0
 31 32  1  0  0  0
 32 33  1  0  0  0
 33 34  1  0  0  0
M  END
> <minimizedAffinity>
-7.71417

$$$$
