CHEMBL3039525


 49 54  0  0  0  0  0  0  0  0999 V2000
  -20.7789    2.2183  -14.3856 C   0  0  0  0  0  0  0  0  0  0  0  0
  -20.7037    0.8393  -14.5779 C   0  0  0  0  0  0  0  0  0  0  0  0
  -21.8292    0.0381  -14.3959 C   0  0  0  0  0  0  0  0  0  0  0  0
  -23.0419    0.5694  -13.9557 C   0  0  0  0  0  0  0  0  0  0  0  0
  -23.0635    1.9300  -13.6222 C   0  0  0  0  0  0  0  0  0  0  0  0
  -24.1858    2.4776  -13.1213 F   0  0  0  0  0  0  0  0  0  0  0  0
  -21.9480    2.7556  -13.8423 C   0  0  0  0  0  0  0  0  0  0  0  0
  -24.2256   -0.2185  -13.8598 N   0  0  0  0  0  0  0  0  0  0  0  0
  -24.8471   -0.4985  -12.6560 C   0  0  0  0  0  0  0  0  0  0  0  0
  -24.4446   -0.1814  -11.5320 O   0  0  0  0  0  0  0  0  0  0  0  0
  -24.5066   -0.7397  -14.6794 H   0  0  0  0  0  0  0  0  0  0  0  0
  -26.0981   -1.3215  -12.6780 C   0  0  0  0  0  0  0  0  0  0  0  0
  -26.2081   -2.6911  -13.3513 C   0  0  0  0  0  0  0  0  0  0  0  0
  -26.6595   -1.4802  -14.0938 C   0  0  0  0  0  0  0  0  0  0  0  0
  -26.9114   -1.2270  -11.4325 C   0  0  0  0  0  0  0  0  0  0  0  0
  -27.6976   -0.2897  -11.3712 O   0  0  0  0  0  0  0  0  0  0  0  0
  -26.6953   -2.1852  -10.4533 N   0  0  0  0  0  0  0  0  0  0  0  0
  -25.9141   -2.8210  -10.5743 H   0  0  0  0  0  0  0  0  0  0  0  0
  -27.3834   -2.2139   -9.2185 C   0  0  0  0  0  0  0  0  0  0  0  0
  -27.4049   -1.1163   -8.3475 C   0  0  0  0  0  0  0  0  0  0  0  0
  -27.9603   -1.2135   -7.0742 C   0  0  0  0  0  0  0  0  0  0  0  0
  -28.5315   -2.4090   -6.6734 C   0  0  0  0  0  0  0  0  0  0  0  0
  -29.0194   -2.5214   -5.4323 F   0  0  0  0  0  0  0  0  0  0  0  0
  -28.6010   -3.4895   -7.5440 C   0  0  0  0  0  0  0  0  0  0  0  0
  -28.0424   -3.3926   -8.8250 C   0  0  0  0  0  0  0  0  0  0  0  0
  -19.7413    3.0852  -14.6752 O   0  0  0  0  0  0  0  0  0  0  0  0
  -16.8080    0.8474  -14.9221 C   0  0  0  0  0  0  0  0  0  0  0  0
  -18.1305    1.2343  -14.7236 C   0  0  0  0  0  0  0  0  0  0  0  0
  -18.4905    2.5633  -14.9588 C   0  0  0  0  0  0  0  0  0  0  0  0
  -17.5598    3.4169  -15.5353 C   0  0  0  0  0  0  0  0  0  0  0  0
  -16.2741    2.9354  -15.7295 C   0  0  0  0  0  0  0  0  0  0  0  0
  -15.8623    1.6958  -15.3722 N   0  0  0  0  0  0  0  0  0  0  0  0
  -13.9096   -4.6124  -12.6351 C   0  0  0  0  0  0  0  0  0  0  0  0
  -13.5735   -3.2580  -11.9788 C   0  0  0  0  0  0  0  0  0  0  0  0
  -14.7698   -2.3246  -11.8894 C   0  0  0  0  0  0  0  0  0  0  0  0
  -15.3122   -2.0291  -13.2118 N   0  0  0  0  0  0  0  0  0  0  0  0
  -15.7684   -0.7277  -13.4100 C   0  0  0  0  0  0  0  0  0  0  0  0
  -15.6245    0.1361  -12.5439 O   0  0  0  0  0  0  0  0  0  0  0  0
  -16.3655   -0.4548  -14.6172 N   0  0  0  0  0  0  0  0  0  0  0  0
  -15.6741   -3.2146  -13.9901 C   0  0  0  0  0  0  0  0  0  0  0  0
  -14.5721   -4.2904  -14.0077 C   0  0  0  0  0  0  0  0  0  0  0  0
  -16.9697   -1.1633  -14.9975 H   0  0  0  0  0  0  0  0  0  0  0  0
  -12.8680   -9.3903  -12.8227 C   0  0  0  0  0  0  0  0  0  0  0  0
  -13.7937   -8.4373  -12.2057 N   0  0  0  0  0  0  0  0  0  0  0  0
  -13.0603   -7.4627  -11.3826 C   0  0  0  0  0  0  0  0  0  0  0  0
  -13.9789   -6.3520  -10.8175 C   0  0  0  0  0  0  0  0  0  0  0  0
  -14.7241   -5.5599  -11.8275 N   0  0  0  0  0  0  0  0  0  0  0  0
  -15.4439   -6.5541  -12.6785 C   0  0  0  0  0  0  0  0  0  0  0  0
  -14.6012   -7.7461  -13.2259 C   0  0  0  0  0  0  0  0  0  0  0  0
 43 44  1  0  0  0
 44 45  1  0  0  0
 44 49  1  0  0  0
 45 46  1  0  0  0
 46 47  1  0  0  0
 47 33  1  0  0  0
 47 48  1  0  0  0
 33 34  1  0  0  0
 33 41  1  0  0  0
 34 35  1  0  0  0
 35 36  1  0  0  0
 36 37  1  0  0  0
 36 40  1  0  0  0
 37 38  2  0  0  0
 37 39  1  0  0  0
 39 27  1  0  0  0
 39 42  1  0  0  0
 27 28  1  0  0  0
 27 32  2  0  0  0
 28 29  2  0  0  0
 29 26  1  0  0  0
 29 30  1  0  0  0
 26  1  1  0  0  0
  1  2  1  0  0  0
  1  7  2  0  0  0
  2  3  2  0  0  0
  3  4  1  0  0  0
  4  8  1  0  0  0
  4  5  2  0  0  0
  8  9  1  0  0  0
  8 11  1  0  0  0
  9 10  2  0  0  0
  9 12  1  0  0  0
 12 15  1  0  0  0
 12 13  1  0  0  0
 12 14  1  0  0  0
 15 16  2  0  0  0
 15 17  1  0  0  0
 17 19  1  0  0  0
 17 18  1  0  0  0
 19 20  1  0  0  0
 19 25  2  0  0  0
 20 21  2  0  0  0
 21 22  1  0  0  0
 22 23  1  0  0  0
 22 24  2  0  0  0
 24 25  1  0  0  0
 13 14  1  0  0  0
  5  6  1  0  0  0
  5  7  1  0  0  0
 30 31  2  0  0  0
 31 32  1  0  0  0
 40 41  1  0  0  0
 48 49  1  0  0  0
M  END
> <minimizedAffinity>
-11.00784

$$$$
