CHEMBL3931154


 40 44  0  0  0  0  0  0  0  0999 V2000
  -13.9847   -2.1256  -13.7837 N   0  0  0  0  0  0  0  0  0  0  0  0
  -14.2732   -0.7210  -14.0105 C   0  0  0  0  0  0  0  0  0  0  0  0
  -15.2786   -0.1807  -13.2005 C   0  0  0  0  0  0  0  0  0  0  0  0
  -16.0539    0.8430  -13.6740 C   0  0  0  0  0  0  0  0  0  0  0  0
  -15.7920    1.4755  -14.8617 C   0  0  0  0  0  0  0  0  0  0  0  0
  -16.7530    2.2906  -15.2782 N   0  0  0  0  0  0  0  0  0  0  0  0
  -16.4773    3.0745  -16.3311 C   0  0  0  0  0  0  0  0  0  0  0  0
  -15.2179    3.0982  -16.9097 C   0  0  0  0  0  0  0  0  0  0  0  0
  -14.2650    2.1568  -16.5733 N   0  0  0  0  0  0  0  0  0  0  0  0
  -14.5736    1.2501  -15.5557 C   0  0  0  0  0  0  0  0  0  0  0  0
  -13.8615    0.0671  -15.1241 C   0  0  0  0  0  0  0  0  0  0  0  0
  -14.9242    4.2785  -17.7167 C   0  0  0  0  0  0  0  0  0  0  0  0
  -15.2266    4.5214  -19.0819 C   0  0  0  0  0  0  0  0  0  0  0  0
  -14.5717    5.5753  -19.5838 N   0  0  0  0  0  0  0  0  0  0  0  0
  -13.8368    6.0094  -18.5466 N   0  0  0  0  0  0  0  0  0  0  0  0
  -13.1602    7.2850  -18.6113 C   0  0  0  0  0  0  0  0  0  0  0  0
  -13.8973    5.1733  -17.4638 C   0  0  0  0  0  0  0  0  0  0  0  0
  -13.2331   -3.7974  -10.4628 C   0  0  0  0  0  0  0  0  0  0  0  0
  -14.4314   -4.4514  -10.2255 C   0  0  0  0  0  0  0  0  0  0  0  0
  -15.4462   -4.3920  -11.1807 C   0  0  0  0  0  0  0  0  0  0  0  0
  -15.2671   -3.6514  -12.3602 C   0  0  0  0  0  0  0  0  0  0  0  0
  -14.1077   -2.9138  -12.6100 C   0  0  0  0  0  0  0  0  0  0  0  0
  -13.0700   -3.0730  -11.6581 C   0  0  0  0  0  0  0  0  0  0  0  0
  -12.3200   -4.4349   -8.3531 C   0  0  0  0  0  0  0  0  0  0  0  0
  -12.1524   -3.7917   -9.6151 O   0  0  0  0  0  0  0  0  0  0  0  0
  -16.6618   -5.0140  -11.0792 O   0  0  0  0  0  0  0  0  0  0  0  0
  -17.1525   -5.6438  -12.2563 C   0  0  0  0  0  0  0  0  0  0  0  0
  -13.0081   -2.6018  -14.8460 C   0  0  0  0  0  0  0  0  0  0  0  0
  -13.6260   -3.7888  -15.6191 C   0  0  0  0  0  0  0  0  0  0  0  0
  -12.8929   -5.0689  -15.7746 N   0  0  0  0  0  0  0  0  0  0  0  0
  -12.0507   -5.3683  -14.6073 C   0  0  0  0  0  0  0  0  0  0  0  0
  -11.5140   -6.8069  -14.5963 C   0  0  0  0  0  0  0  0  0  0  0  0
  -12.5919   -7.8941  -14.7830 C   0  0  0  0  0  0  0  0  0  0  0  0
  -13.4174   -7.5181  -16.0196 C   0  0  0  0  0  0  0  0  0  0  0  0
  -13.9371   -6.0927  -15.9833 C   0  0  0  0  0  0  0  0  0  0  0  0
  -13.3843   -8.3094  -13.4948 C   0  0  0  0  0  0  0  0  0  0  0  0
  -12.8777   -9.5092  -12.6895 C   0  0  0  0  0  0  0  0  0  0  0  0
  -13.5409   -7.1229  -12.5299 C   0  0  0  0  0  0  0  0  0  0  0  0
  -14.7252   -8.6326  -13.9087 O   0  0  0  0  0  0  0  0  0  0  0  0
  -14.7093   -9.4978  -14.3505 H   0  0  0  0  0  0  0  0  0  0  0  0
 24 25  1  0  0  0
 25 18  1  0  0  0
 18 19  1  0  0  0
 18 23  2  0  0  0
 19 20  2  0  0  0
 20 26  1  0  0  0
 20 21  1  0  0  0
 26 27  1  0  0  0
 21 22  2  0  0  0
 22  1  1  0  0  0
 22 23  1  0  0  0
  1 28  1  0  0  0
  1  2  1  0  0  0
 28 29  1  0  0  0
 29 30  1  0  0  0
 30 31  1  0  0  0
 30 35  1  0  0  0
 31 32  1  0  0  0
 32 33  1  0  0  0
 33 36  1  0  0  0
 33 34  1  0  0  0
 36 37  1  0  0  0
 36 38  1  0  0  0
 36 39  1  0  0  0
 39 40  1  0  0  0
 34 35  1  0  0  0
  2  3  1  0  0  0
  2 11  2  0  0  0
  3  4  2  0  0  0
  4  5  1  0  0  0
  5  6  1  0  0  0
  5 10  2  0  0  0
  6  7  2  0  0  0
  7  8  1  0  0  0
  8 12  1  0  0  0
  8  9  2  0  0  0
 12 13  1  0  0  0
 12 17  2  0  0  0
 13 14  2  0  0  0
 14 15  1  0  0  0
 15 16  1  0  0  0
 15 17  1  0  0  0
  9 10  1  0  0  0
 10 11  1  0  0  0
M  END
> <minimizedAffinity>
-7.62394

$$$$
