CHEMBL1290031


 30 34  0  0  0  0  0  0  0  0999 V2000
  -29.2074   -5.0477   -5.1114 C   0  0  0  0  0  0  0  0  0  0  0  0
  -29.5339   -5.7792   -3.9694 C   0  0  0  0  0  0  0  0  0  0  0  0
  -29.3780   -7.1644   -3.9352 C   0  0  0  0  0  0  0  0  0  0  0  0
  -28.9533   -7.8534   -5.0695 C   0  0  0  0  0  0  0  0  0  0  0  0
  -28.6129   -7.1365   -6.2181 C   0  0  0  0  0  0  0  0  0  0  0  0
  -28.7510   -5.7388   -6.2425 C   0  0  0  0  0  0  0  0  0  0  0  0
  -27.1255   -3.0261   -4.6555 O   0  0  0  0  0  0  0  0  0  0  0  0
  -28.2933   -2.7444   -4.9095 C   0  0  0  0  0  0  0  0  0  0  0  0
  -29.3207   -3.6380   -5.1702 N   0  0  0  0  0  0  0  0  0  0  0  0
  -30.1801   -3.2665   -5.5523 H   0  0  0  0  0  0  0  0  0  0  0  0
  -28.6296   -1.3023   -5.0031 C   0  0  0  0  0  0  0  0  0  0  0  0
  -29.9315   -0.9650   -5.4002 C   0  0  0  0  0  0  0  0  0  0  0  0
  -30.2931    0.3676   -5.5646 C   0  0  0  0  0  0  0  0  0  0  0  0
  -29.3481    1.3697   -5.3427 C   0  0  0  0  0  0  0  0  0  0  0  0
  -28.0454    1.0384   -4.9588 C   0  0  0  0  0  0  0  0  0  0  0  0
  -27.6800   -0.2974   -4.7870 C   0  0  0  0  0  0  0  0  0  0  0  0
  -28.8144   -9.2260   -5.0859 O   0  0  0  0  0  0  0  0  0  0  0  0
  -27.5394   -9.7250   -5.3588 C   0  0  0  0  0  0  0  0  0  0  0  0
  -26.5987   -9.6883   -4.3829 N   0  0  0  0  0  0  0  0  0  0  0  0
  -25.3693  -10.1283   -4.6636 C   0  0  0  0  0  0  0  0  0  0  0  0
  -24.9512  -10.6706   -5.8048 N   0  0  0  0  0  0  0  0  0  0  0  0
  -25.9227  -10.7449   -6.7298 C   0  0  0  0  0  0  0  0  0  0  0  0
  -25.6008  -11.4551   -8.2424 S   0  0  0  0  0  0  0  0  0  0  0  0
  -27.1827  -11.1595   -8.7796 C   0  0  0  0  0  0  0  0  0  0  0  0
  -27.9596  -10.5073   -7.8367 C   0  0  0  0  0  0  0  0  0  0  0  0
  -27.2317  -10.2928   -6.6061 C   0  0  0  0  0  0  0  0  0  0  0  0
  -29.3689  -10.0876   -8.1479 C   0  0  0  0  0  0  0  0  0  0  0  0
  -29.9345  -10.8332   -9.3701 C   0  0  0  0  0  0  0  0  0  0  0  0
  -28.9300  -10.8775  -10.5304 C   0  0  0  0  0  0  0  0  0  0  0  0
  -27.6419  -11.6077  -10.1322 C   0  0  0  0  0  0  0  0  0  0  0  0
  7  8  2  0  0  0
  8  9  1  0  0  0
  8 11  1  0  0  0
  9  1  1  0  0  0
  9 10  1  0  0  0
  1  2  1  0  0  0
  1  6  2  0  0  0
  2  3  2  0  0  0
  3  4  1  0  0  0
  4 17  1  0  0  0
  4  5  2  0  0  0
 17 18  1  0  0  0
 18 19  1  0  0  0
 18 26  2  0  0  0
 19 20  2  0  0  0
 20 21  1  0  0  0
 21 22  2  0  0  0
 22 23  1  0  0  0
 22 26  1  0  0  0
 23 24  1  0  0  0
 24 25  2  0  0  0
 24 30  1  0  0  0
 25 26  1  0  0  0
 25 27  1  0  0  0
 27 28  1  0  0  0
 28 29  1  0  0  0
 29 30  1  0  0  0
  5  6  1  0  0  0
 11 12  1  0  0  0
 11 16  2  0  0  0
 12 13  2  0  0  0
 13 14  1  0  0  0
 14 15  2  0  0  0
 15 16  1  0  0  0
M  END
> <minimizedAffinity>
-8.67234

$$$$
