CHEMBL1076195


 46 50  0  0  0  0  0  0  0  0999 V2000
  -13.6390    0.3296  -15.9227 N   0  0  0  0  0  0  0  0  0  0  0  0
  -14.7576    1.1534  -16.1003 C   0  0  0  0  0  0  0  0  0  0  0  0
  -15.1331    1.1459  -17.3680 N   0  0  0  0  0  0  0  0  0  0  0  0
  -14.1847    0.4306  -18.0519 C   0  0  0  0  0  0  0  0  0  0  0  0
  -14.0481    0.2109  -19.4272 C   0  0  0  0  0  0  0  0  0  0  0  0
  -12.9259   -0.4755  -19.9129 C   0  0  0  0  0  0  0  0  0  0  0  0
  -11.9580   -0.9593  -19.0333 C   0  0  0  0  0  0  0  0  0  0  0  0
  -12.0862   -0.7664  -17.6652 C   0  0  0  0  0  0  0  0  0  0  0  0
  -13.2273   -0.0801  -17.1880 C   0  0  0  0  0  0  0  0  0  0  0  0
  -12.3614   -1.6189  -13.1083 C   0  0  0  0  0  0  0  0  0  0  0  0
  -13.1063   -1.2633  -14.2053 C   0  0  0  0  0  0  0  0  0  0  0  0
  -12.9477    0.0117  -14.7208 C   0  0  0  0  0  0  0  0  0  0  0  0
  -12.1258    0.9205  -14.1628 N   0  0  0  0  0  0  0  0  0  0  0  0
  -11.3867    0.4501  -13.1422 C   0  0  0  0  0  0  0  0  0  0  0  0
  -11.4667   -0.7714  -12.5863 N   0  0  0  0  0  0  0  0  0  0  0  0
  -12.4958   -2.9343  -12.6317 N   0  0  0  0  0  0  0  0  0  0  0  0
  -13.4739   -3.1877  -12.5269 H   0  0  0  0  0  0  0  0  0  0  0  0
  -11.7640   -3.1837  -11.3930 C   0  0  0  0  0  0  0  0  0  0  0  0
  -12.1770   -4.5452  -10.8328 C   0  0  0  0  0  0  0  0  0  0  0  0
  -13.4517   -4.4753   -9.9838 C   0  0  0  0  0  0  0  0  0  0  0  0
  -14.6486   -5.2274  -10.5990 C   0  0  0  0  0  0  0  0  0  0  0  0
  -15.8501   -4.3850  -10.7677 N   0  0  0  0  0  0  0  0  0  0  0  0
  -15.7329   -1.9641  -11.5483 C   0  0  0  0  0  0  0  0  0  0  0  0
  -15.5529   -2.9835  -10.4322 C   0  0  0  0  0  0  0  0  0  0  0  0
  -16.4710   -4.5801  -12.0901 C   0  0  0  0  0  0  0  0  0  0  0  0
  -16.3391   -5.9627  -12.7254 C   0  0  0  0  0  0  0  0  0  0  0  0
  -15.3914    1.7861  -15.0700 N   0  0  0  0  0  0  0  0  0  0  0  0
  -14.8466    2.4827  -14.5600 H   0  0  0  0  0  0  0  0  0  0  0  0
  -16.7661    2.1800  -15.0853 C   0  0  0  0  0  0  0  0  0  0  0  0
  -17.7814    1.3110  -14.6379 C   0  0  0  0  0  0  0  0  0  0  0  0
  -19.1419    1.6534  -14.8125 C   0  0  0  0  0  0  0  0  0  0  0  0
  -19.4728    2.8958  -15.3704 C   0  0  0  0  0  0  0  0  0  0  0  0
  -18.4847    3.7815  -15.7492 C   0  0  0  0  0  0  0  0  0  0  0  0
  -17.1336    3.4444  -15.6330 C   0  0  0  0  0  0  0  0  0  0  0  0
  -16.1251    4.4469  -16.1150 C   0  0  0  0  0  0  0  0  0  0  0  0
  -20.2942    0.7168  -14.6530 C   0  0  0  0  0  0  0  0  0  0  0  0
  -20.3189   -0.2363  -15.4241 O   0  0  0  0  0  0  0  0  0  0  0  0
  -21.2630    0.9875  -13.7047 N   0  0  0  0  0  0  0  0  0  0  0  0
  -21.2601    1.8922  -13.2462 H   0  0  0  0  0  0  0  0  0  0  0  0
  -22.3622    0.1248  -13.4347 C   0  0  0  0  0  0  0  0  0  0  0  0
  -22.5488   -0.5157  -12.1984 C   0  0  0  0  0  0  0  0  0  0  0  0
  -23.6718   -1.3109  -11.9560 C   0  0  0  0  0  0  0  0  0  0  0  0
  -24.6115   -1.5066  -12.9599 C   0  0  0  0  0  0  0  0  0  0  0  0
  -24.4358   -0.9053  -14.2092 C   0  0  0  0  0  0  0  0  0  0  0  0
  -25.4093   -1.1597  -15.3198 C   0  0  0  0  0  0  0  0  0  0  0  0
  -23.3159   -0.0808  -14.4320 C   0  0  0  0  0  0  0  0  0  0  0  0
 23 24  1  0  0  0
 24 22  1  0  0  0
 22 25  1  0  0  0
 22 21  1  0  0  0
 25 26  1  0  0  0
 21 20  1  0  0  0
 20 19  1  0  0  0
 19 18  1  0  0  0
 18 16  1  0  0  0
 16 10  1  0  0  0
 16 17  1  0  0  0
 10 11  1  0  0  0
 10 15  2  0  0  0
 11 12  2  0  0  0
 12  1  1  0  0  0
 12 13  1  0  0  0
  1  2  1  0  0  0
  1  9  1  0  0  0
  2 27  1  0  0  0
  2  3  2  0  0  0
 27 29  1  0  0  0
 27 28  1  0  0  0
 29 30  1  0  0  0
 29 34  2  0  0  0
 30 31  2  0  0  0
 31 36  1  0  0  0
 31 32  1  0  0  0
 36 37  2  0  0  0
 36 38  1  0  0  0
 38 40  1  0  0  0
 38 39  1  0  0  0
 40 41  1  0  0  0
 40 46  2  0  0  0
 41 42  2  0  0  0
 42 43  1  0  0  0
 43 44  2  0  0  0
 44 45  1  0  0  0
 44 46  1  0  0  0
 32 33  2  0  0  0
 33 34  1  0  0  0
 34 35  1  0  0  0
  3  4  1  0  0  0
  4  5  1  0  0  0
  4  9  2  0  0  0
  5  6  2  0  0  0
  6  7  1  0  0  0
  7  8  2  0  0  0
  8  9  1  0  0  0
 13 14  2  0  0  0
 14 15  1  0  0  0
M  END
> <minimizedAffinity>
-9.18780

$$$$
