CHEMBL3690422


 33 36  0  0  0  0  0  0  0  0999 V2000
  -27.0291   -1.6122  -10.6428 C   0  0  0  0  0  0  0  0  0  0  0  0
  -28.0226   -1.8394  -11.6054 C   0  0  0  0  0  0  0  0  0  0  0  0
  -27.6973   -1.9266  -12.9553 C   0  0  0  0  0  0  0  0  0  0  0  0
  -26.3795   -1.7458  -13.3684 C   0  0  0  0  0  0  0  0  0  0  0  0
  -25.3677   -1.4913  -12.4459 C   0  0  0  0  0  0  0  0  0  0  0  0
  -25.6956   -1.4785  -11.0785 C   0  0  0  0  0  0  0  0  0  0  0  0
  -28.7995   -4.2608   -6.4057 C   0  0  0  0  0  0  0  0  0  0  0  0
  -28.4588   -4.7823   -7.7369 C   0  0  0  0  0  0  0  0  0  0  0  0
  -27.9807   -3.9629   -8.6860 C   0  0  0  0  0  0  0  0  0  0  0  0
  -27.8375   -2.6027   -8.4178 N   0  0  0  0  0  0  0  0  0  0  0  0
  -27.4225   -1.5503   -9.2274 C   0  0  0  0  0  0  0  0  0  0  0  0
  -27.4146   -0.4597   -8.3670 C   0  0  0  0  0  0  0  0  0  0  0  0
  -27.8478   -0.7804   -7.1113 N   0  0  0  0  0  0  0  0  0  0  0  0
  -28.1144   -2.0647   -7.1617 C   0  0  0  0  0  0  0  0  0  0  0  0
  -28.6075   -2.9429   -6.1532 C   0  0  0  0  0  0  0  0  0  0  0  0
  -32.1714   -5.1850   -3.0349 C   0  0  0  0  0  0  0  0  0  0  0  0
  -30.9156   -5.6086   -3.7336 C   0  0  0  0  0  0  0  0  0  0  0  0
  -30.2770   -6.7855   -3.4071 C   0  0  0  0  0  0  0  0  0  0  0  0
  -29.1365   -7.0753   -4.1190 C   0  0  0  0  0  0  0  0  0  0  0  0
  -28.6441   -6.2790   -5.0836 N   0  0  0  0  0  0  0  0  0  0  0  0
  -29.3295   -5.1482   -5.3345 C   0  0  0  0  0  0  0  0  0  0  0  0
  -30.4549   -4.7800   -4.6932 N   0  0  0  0  0  0  0  0  0  0  0  0
  -24.0232   -1.2364  -12.8225 N   0  0  0  0  0  0  0  0  0  0  0  0
  -23.4517    0.0035  -12.9917 C   0  0  0  0  0  0  0  0  0  0  0  0
  -23.9917    1.0942  -12.8408 O   0  0  0  0  0  0  0  0  0  0  0  0
  -22.1463   -0.0626  -13.4251 N   0  0  0  0  0  0  0  0  0  0  0  0
  -23.4258   -2.0376  -12.9550 H   0  0  0  0  0  0  0  0  0  0  0  0
  -21.5957   -0.8482  -13.1108 H   0  0  0  0  0  0  0  0  0  0  0  0
  -21.4371    1.2034  -13.6654 C   0  0  0  0  0  0  0  0  0  0  0  0
  -20.3192    1.1734  -14.7199 C   0  0  0  0  0  0  0  0  0  0  0  0
  -20.4919    2.1146  -15.6758 F   0  0  0  0  0  0  0  0  0  0  0  0
  -19.1255    1.4346  -14.1275 F   0  0  0  0  0  0  0  0  0  0  0  0
  -20.2087   -0.0282  -15.3232 F   0  0  0  0  0  0  0  0  0  0  0  0
 16 17  1  0  0  0
 17 18  1  0  0  0
 17 22  2  0  0  0
 18 19  2  0  0  0
 19 20  1  0  0  0
 20 21  2  0  0  0
 21  7  1  0  0  0
 21 22  1  0  0  0
  7  8  1  0  0  0
  7 15  2  0  0  0
  8  9  2  0  0  0
  9 10  1  0  0  0
 10 11  1  0  0  0
 10 14  1  0  0  0
 11  1  1  0  0  0
 11 12  2  0  0  0
  1  2  1  0  0  0
  1  6  2  0  0  0
  2  3  2  0  0  0
  3  4  1  0  0  0
  4  5  2  0  0  0
  5 23  1  0  0  0
  5  6  1  0  0  0
 23 24  1  0  0  0
 23 27  1  0  0  0
 24 25  2  0  0  0
 24 26  1  0  0  0
 26 29  1  0  0  0
 26 28  1  0  0  0
 29 30  1  0  0  0
 30 31  1  0  0  0
 30 32  1  0  0  0
 30 33  1  0  0  0
 12 13  1  0  0  0
 13 14  2  0  0  0
 14 15  1  0  0  0
M  END
> <minimizedAffinity>
-9.63804

$$$$
