CHEMBL213100


 43 47  0  0  0  0  0  0  0  0999 V2000
  -28.7420  -10.7770   -6.9065 N   0  0  0  0  0  0  0  0  0  0  0  0
  -28.0874   -9.9930   -7.8610 C   0  0  0  0  0  0  0  0  0  0  0  0
  -26.8620   -9.9290   -7.9653 O   0  0  0  0  0  0  0  0  0  0  0  0
  -32.7647  -12.0363   -7.4348 C   0  0  0  0  0  0  0  0  0  0  0  0
  -32.3915  -11.3286   -6.2927 C   0  0  0  0  0  0  0  0  0  0  0  0
  -31.0620  -10.9363   -6.1103 C   0  0  0  0  0  0  0  0  0  0  0  0
  -30.0792  -11.2343   -7.0681 C   0  0  0  0  0  0  0  0  0  0  0  0
  -30.4463  -12.0027   -8.1872 C   0  0  0  0  0  0  0  0  0  0  0  0
  -31.7856  -12.3694   -8.3773 C   0  0  0  0  0  0  0  0  0  0  0  0
  -34.9886  -12.4419   -6.6821 C   0  0  0  0  0  0  0  0  0  0  0  0
  -34.0275  -12.4639   -7.7345 O   0  0  0  0  0  0  0  0  0  0  0  0
  -29.5609  -12.4658   -9.1314 O   0  0  0  0  0  0  0  0  0  0  0  0
  -29.5225  -11.6650  -10.3170 C   0  0  0  0  0  0  0  0  0  0  0  0
  -28.2214  -10.8047   -5.5948 C   0  0  0  0  0  0  0  0  0  0  0  0
  -27.7788  -12.0113   -5.0901 C   0  0  0  0  0  0  0  0  0  0  0  0
  -27.2171  -11.9727   -3.8497 C   0  0  0  0  0  0  0  0  0  0  0  0
  -27.1279  -10.8413   -3.1375 N   0  0  0  0  0  0  0  0  0  0  0  0
  -27.6181   -9.7194   -3.6732 C   0  0  0  0  0  0  0  0  0  0  0  0
  -28.1816   -9.6566   -4.8858 N   0  0  0  0  0  0  0  0  0  0  0  0
  -27.6136   -8.5542   -2.9083 N   0  0  0  0  0  0  0  0  0  0  0  0
  -27.5989   -8.7190   -1.9158 H   0  0  0  0  0  0  0  0  0  0  0  0
  -27.9218   -7.2636   -3.3518 C   0  0  0  0  0  0  0  0  0  0  0  0
  -26.9423   -6.4272   -3.8937 C   0  0  0  0  0  0  0  0  0  0  0  0
  -27.2237   -5.1037   -4.2129 C   0  0  0  0  0  0  0  0  0  0  0  0
  -28.4885   -4.5478   -3.9873 C   0  0  0  0  0  0  0  0  0  0  0  0
  -29.4781   -5.3996   -3.4790 C   0  0  0  0  0  0  0  0  0  0  0  0
  -29.2006   -6.7393   -3.1653 C   0  0  0  0  0  0  0  0  0  0  0  0
  -28.7078   -3.2254   -4.3184 N   0  0  0  0  0  0  0  0  0  0  0  0
  -30.0448   -2.6262   -4.2722 C   0  0  0  0  0  0  0  0  0  0  0  0
  -30.1001   -1.4662   -5.2969 C   0  0  0  0  0  0  0  0  0  0  0  0
  -29.0481   -0.4443   -5.0730 N   0  0  0  0  0  0  0  0  0  0  0  0
  -29.1035    0.5809   -6.1116 C   0  0  0  0  0  0  0  0  0  0  0  0
  -27.7188   -1.1009   -5.0718 C   0  0  0  0  0  0  0  0  0  0  0  0
  -27.6276   -2.2555   -4.0497 C   0  0  0  0  0  0  0  0  0  0  0  0
  -28.9682   -9.2437   -8.6462 O   0  0  0  0  0  0  0  0  0  0  0  0
  -29.2771   -7.8644   -8.4422 C   0  0  0  0  0  0  0  0  0  0  0  0
  -28.3164   -6.8351   -8.5155 C   0  0  0  0  0  0  0  0  0  0  0  0
  -26.9274   -6.9292   -9.0777 C   0  0  0  0  0  0  0  0  0  0  0  0
  -28.6536   -5.5740   -7.9826 C   0  0  0  0  0  0  0  0  0  0  0  0
  -29.9028   -5.3271   -7.4221 C   0  0  0  0  0  0  0  0  0  0  0  0
  -30.8623   -6.3319   -7.4123 C   0  0  0  0  0  0  0  0  0  0  0  0
  -30.5648   -7.6093   -7.9155 C   0  0  0  0  0  0  0  0  0  0  0  0
  -31.6434   -8.6555   -7.9097 C   0  0  0  0  0  0  0  0  0  0  0  0
 10 11  1  0  0  0
 11  4  1  0  0  0
  4  5  1  0  0  0
  4  9  2  0  0  0
  5  6  2  0  0  0
  6  7  1  0  0  0
  7  1  1  0  0  0
  7  8  2  0  0  0
  1  2  1  0  0  0
  1 14  1  0  0  0
  2  3  2  0  0  0
  2 35  1  0  0  0
 35 36  1  0  0  0
 36 37  1  0  0  0
 36 42  2  0  0  0
 37 38  1  0  0  0
 37 39  2  0  0  0
 39 40  1  0  0  0
 40 41  2  0  0  0
 41 42  1  0  0  0
 42 43  1  0  0  0
 14 15  1  0  0  0
 14 19  2  0  0  0
 15 16  2  0  0  0
 16 17  1  0  0  0
 17 18  2  0  0  0
 18 20  1  0  0  0
 18 19  1  0  0  0
 20 22  1  0  0  0
 20 21  1  0  0  0
 22 23  1  0  0  0
 22 27  2  0  0  0
 23 24  2  0  0  0
 24 25  1  0  0  0
 25 28  1  0  0  0
 25 26  2  0  0  0
 28 29  1  0  0  0
 28 34  1  0  0  0
 29 30  1  0  0  0
 30 31  1  0  0  0
 31 32  1  0  0  0
 31 33  1  0  0  0
 33 34  1  0  0  0
 26 27  1  0  0  0
  8 12  1  0  0  0
  8  9  1  0  0  0
 12 13  1  0  0  0
M  END
> <minimizedAffinity>
-3.83748

$$$$
