CHEMBL205325


 31 34  0  0  0  0  0  0  0  0999 V2000
  -28.3665   -2.5248   -8.2913 C   0  0  0  0  0  0  0  0  0  0  0  0
  -27.5415   -2.0088   -7.4049 N   0  0  0  0  0  0  0  0  0  0  0  0
  -27.8877   -2.5376   -6.1821 N   0  0  0  0  0  0  0  0  0  0  0  0
  -28.9157   -3.3337   -6.3878 C   0  0  0  0  0  0  0  0  0  0  0  0
  -29.2637   -3.3832   -7.7170 O   0  0  0  0  0  0  0  0  0  0  0  0
  -29.6850   -4.1639   -5.4648 C   0  0  0  0  0  0  0  0  0  0  0  0
  -30.5739   -3.5503   -4.5598 C   0  0  0  0  0  0  0  0  0  0  0  0
  -31.3826   -4.3081   -3.7175 C   0  0  0  0  0  0  0  0  0  0  0  0
  -31.2818   -5.6790   -3.7895 C   0  0  0  0  0  0  0  0  0  0  0  0
  -30.4303   -6.3147   -4.6182 N   0  0  0  0  0  0  0  0  0  0  0  0
  -29.6338   -5.5684   -5.4448 C   0  0  0  0  0  0  0  0  0  0  0  0
  -28.7671   -6.4200   -6.3462 C   0  0  0  0  0  0  0  0  0  0  0  0
  -29.3298   -6.8208   -7.7182 C   0  0  0  0  0  0  0  0  0  0  0  0
  -30.3389   -7.9403   -7.7840 C   0  0  0  0  0  0  0  0  0  0  0  0
  -31.6428   -7.8124   -7.3058 C   0  0  0  0  0  0  0  0  0  0  0  0
  -32.5181   -8.8790   -7.4669 C   0  0  0  0  0  0  0  0  0  0  0  0
  -32.1941  -10.0439   -8.0704 N   0  0  0  0  0  0  0  0  0  0  0  0
  -30.9297  -10.1430   -8.5379 C   0  0  0  0  0  0  0  0  0  0  0  0
  -29.9868   -9.1345   -8.4250 C   0  0  0  0  0  0  0  0  0  0  0  0
  -28.3484   -2.3502   -9.6255 N   0  0  0  0  0  0  0  0  0  0  0  0
  -29.1209   -2.7861  -10.1152 H   0  0  0  0  0  0  0  0  0  0  0  0
  -25.2735   -1.1561  -12.3408 C   0  0  0  0  0  0  0  0  0  0  0  0
  -25.0267   -1.2260  -10.9614 C   0  0  0  0  0  0  0  0  0  0  0  0
  -26.0247   -1.6077  -10.0512 C   0  0  0  0  0  0  0  0  0  0  0  0
  -27.3038   -1.9568  -10.4800 C   0  0  0  0  0  0  0  0  0  0  0  0
  -27.5702   -1.8439  -11.8526 C   0  0  0  0  0  0  0  0  0  0  0  0
  -26.5770   -1.4591  -12.7650 C   0  0  0  0  0  0  0  0  0  0  0  0
  -23.6236    0.6416  -13.1724 C   0  0  0  0  0  0  0  0  0  0  0  0
  -24.1813   -0.7880  -13.3601 C   0  0  0  0  0  0  0  0  0  0  0  0
  -24.7366   -0.8764  -14.7973 C   0  0  0  0  0  0  0  0  0  0  0  0
  -22.9924   -1.7642  -13.2221 C   0  0  0  0  0  0  0  0  0  0  0  0
 28 29  1  0  0  0
 29 30  1  0  0  0
 29 31  1  0  0  0
 29 22  1  0  0  0
 22 23  1  0  0  0
 22 27  2  0  0  0
 23 24  2  0  0  0
 24 25  1  0  0  0
 25 20  1  0  0  0
 25 26  2  0  0  0
 20  1  1  0  0  0
 20 21  1  0  0  0
  1  2  2  0  0  0
  1  5  1  0  0  0
  2  3  1  0  0  0
  3  4  2  0  0  0
  4  6  1  0  0  0
  4  5  1  0  0  0
  6  7  1  0  0  0
  6 11  2  0  0  0
  7  8  2  0  0  0
  8  9  1  0  0  0
  9 10  2  0  0  0
 10 11  1  0  0  0
 11 12  1  0  0  0
 12 13  1  0  0  0
 13 14  1  0  0  0
 14 15  1  0  0  0
 14 19  2  0  0  0
 15 16  2  0  0  0
 16 17  1  0  0  0
 17 18  2  0  0  0
 18 19  1  0  0  0
 26 27  1  0  0  0
M  END
> <minimizedAffinity>
-9.86874

$$$$
