CHEMBL3940839


 40 44  0  0  0  0  0  0  0  0999 V2000
  -27.3665   -1.5821   -8.6862 C   0  0  0  0  0  0  0  0  0  0  0  0
  -26.5486   -1.0129   -9.6690 C   0  0  0  0  0  0  0  0  0  0  0  0
  -26.7147   -1.3213  -11.0407 C   0  0  0  0  0  0  0  0  0  0  0  0
  -25.9290   -0.8369  -12.0910 C   0  0  0  0  0  0  0  0  0  0  0  0
  -26.1913   -1.1369  -13.3814 N   0  0  0  0  0  0  0  0  0  0  0  0
  -27.2348   -1.9285  -13.6253 C   0  0  0  0  0  0  0  0  0  0  0  0
  -28.0341   -2.4591  -12.7031 N   0  0  0  0  0  0  0  0  0  0  0  0
  -27.7627   -2.1467  -11.4349 C   0  0  0  0  0  0  0  0  0  0  0  0
  -28.5799   -2.6744  -10.4620 C   0  0  0  0  0  0  0  0  0  0  0  0
  -28.3832   -2.4533   -9.0853 C   0  0  0  0  0  0  0  0  0  0  0  0
  -27.8607   -0.0772   -6.8877 C   0  0  0  0  0  0  0  0  0  0  0  0
  -27.0736   -1.1232   -7.4350 O   0  0  0  0  0  0  0  0  0  0  0  0
  -24.8278    0.0122  -11.8044 N   0  0  0  0  0  0  0  0  0  0  0  0
  -24.5247   -0.1206  -10.8457 H   0  0  0  0  0  0  0  0  0  0  0  0
  -23.7801    0.2355  -12.7183 C   0  0  0  0  0  0  0  0  0  0  0  0
  -23.0511   -0.8535  -13.2181 C   0  0  0  0  0  0  0  0  0  0  0  0
  -21.9293   -0.6599  -14.0183 C   0  0  0  0  0  0  0  0  0  0  0  0
  -21.5259    0.6346  -14.3396 C   0  0  0  0  0  0  0  0  0  0  0  0
  -20.0861    0.8112  -15.2766 Cl  0  0  0  0  0  0  0  0  0  0  0  0
  -22.2712    1.7294  -13.8855 C   0  0  0  0  0  0  0  0  0  0  0  0
  -21.8306    3.3602  -14.2540 Cl  0  0  0  0  0  0  0  0  0  0  0  0
  -23.4016    1.5293  -13.0835 C   0  0  0  0  0  0  0  0  0  0  0  0
  -29.1930   -3.0592   -8.1514 O   0  0  0  0  0  0  0  0  0  0  0  0
  -28.5098   -3.3594   -6.9247 C   0  0  0  0  0  0  0  0  0  0  0  0
  -28.6651   -4.8096   -6.5063 C   0  0  0  0  0  0  0  0  0  0  0  0
  -30.1448   -5.1932   -6.5324 C   0  0  0  0  0  0  0  0  0  0  0  0
  -30.3411   -6.5204   -5.9647 N   0  0  0  0  0  0  0  0  0  0  0  0
  -29.7081   -6.7184   -4.6591 C   0  0  0  0  0  0  0  0  0  0  0  0
  -28.2500   -6.2414   -4.6709 C   0  0  0  0  0  0  0  0  0  0  0  0
  -28.1340   -4.9030   -5.1640 O   0  0  0  0  0  0  0  0  0  0  0  0
  -30.7538   -7.5719   -6.7506 C   0  0  0  0  0  0  0  0  0  0  0  0
  -32.0081   -7.7975   -6.9590 N   0  0  0  0  0  0  0  0  0  0  0  0
  -29.6768   -8.3311   -7.1554 N   0  0  0  0  0  0  0  0  0  0  0  0
  -28.9985   -8.0708   -8.4239 C   0  0  0  0  0  0  0  0  0  0  0  0
  -29.0996   -9.2972   -9.3228 C   0  0  0  0  0  0  0  0  0  0  0  0
  -28.6209  -10.5581   -8.6025 C   0  0  0  0  0  0  0  0  0  0  0  0
  -29.2770  -10.7212   -7.2295 C   0  0  0  0  0  0  0  0  0  0  0  0
  -29.1551   -9.4501   -6.3876 C   0  0  0  0  0  0  0  0  0  0  0  0
  -32.3548   -8.9030   -7.6376 C   0  0  0  0  0  0  0  0  0  0  0  0
  -32.6584   -9.8546   -8.2178 N   0  0  0  0  0  0  0  0  0  0  0  0
 11 12  1  0  0  0
 12  1  1  0  0  0
  1  2  1  0  0  0
  1 10  2  0  0  0
  2  3  2  0  0  0
  3  4  1  0  0  0
  3  8  1  0  0  0
  4 13  1  0  0  0
  4  5  2  0  0  0
 13 15  1  0  0  0
 13 14  1  0  0  0
 15 16  1  0  0  0
 15 22  2  0  0  0
 16 17  2  0  0  0
 17 18  1  0  0  0
 18 19  1  0  0  0
 18 20  2  0  0  0
 20 21  1  0  0  0
 20 22  1  0  0  0
  5  6  1  0  0  0
  6  7  2  0  0  0
  7  8  1  0  0  0
  8  9  2  0  0  0
  9 10  1  0  0  0
 10 23  1  0  0  0
 23 24  1  0  0  0
 24 25  1  0  0  0
 25 26  1  0  0  0
 25 30  1  0  0  0
 26 27  1  0  0  0
 27 31  1  0  0  0
 27 28  1  0  0  0
 31 32  2  0  0  0
 31 33  1  0  0  0
 32 39  1  0  0  0
 39 40  3  0  0  0
 33 34  1  0  0  0
 33 38  1  0  0  0
 34 35  1  0  0  0
 35 36  1  0  0  0
 36 37  1  0  0  0
 37 38  1  0  0  0
 28 29  1  0  0  0
 29 30  1  0  0  0
M  END
> <minimizedAffinity>
-7.71377

$$$$
