CHEMBL450024


 34 36  0  0  0  0  0  0  0  0999 V2000
  -25.9936   -1.4446  -11.9834 C   0  0  0  0  0  0  0  0  0  0  0  0
  -24.7056   -0.8827  -11.9291 C   0  0  0  0  0  0  0  0  0  0  0  0
  -24.0085   -0.6303  -13.1150 C   0  0  0  0  0  0  0  0  0  0  0  0
  -24.5826   -0.9808  -14.3447 C   0  0  0  0  0  0  0  0  0  0  0  0
  -25.8514   -1.5487  -14.4016 C   0  0  0  0  0  0  0  0  0  0  0  0
  -26.5798   -1.7712  -13.2263 C   0  0  0  0  0  0  0  0  0  0  0  0
  -27.9830   -2.3046  -13.3421 C   0  0  0  0  0  0  0  0  0  0  0  0
  -22.7263    0.1220  -13.1707 C   0  0  0  0  0  0  0  0  0  0  0  0
  -22.0676    0.1576  -12.1349 O   0  0  0  0  0  0  0  0  0  0  0  0
  -22.4052    0.7694  -14.3546 N   0  0  0  0  0  0  0  0  0  0  0  0
  -23.1314    0.8602  -15.0529 H   0  0  0  0  0  0  0  0  0  0  0  0
  -21.2344    1.5509  -14.5373 C   0  0  0  0  0  0  0  0  0  0  0  0
  -21.2708    2.9379  -14.7176 C   0  0  0  0  0  0  0  0  0  0  0  0
  -20.1097    3.6636  -14.9852 C   0  0  0  0  0  0  0  0  0  0  0  0
  -18.8880    3.0082  -15.0775 C   0  0  0  0  0  0  0  0  0  0  0  0
  -18.8152    1.6227  -14.8760 C   0  0  0  0  0  0  0  0  0  0  0  0
  -19.9926    0.9057  -14.5719 C   0  0  0  0  0  0  0  0  0  0  0  0
  -17.5010    0.8983  -15.0284 C   0  0  0  0  0  0  0  0  0  0  0  0
  -17.6218   -0.4591  -15.0365 F   0  0  0  0  0  0  0  0  0  0  0  0
  -16.8542    1.2231  -16.1810 F   0  0  0  0  0  0  0  0  0  0  0  0
  -16.6327    1.1863  -14.0188 F   0  0  0  0  0  0  0  0  0  0  0  0
  -27.3122   -1.8427   -9.7314 C   0  0  0  0  0  0  0  0  0  0  0  0
  -26.7223   -1.6354  -10.7580 C   0  0  0  0  0  0  0  0  0  0  0  0
  -29.1691   -2.6944   -6.0837 C   0  0  0  0  0  0  0  0  0  0  0  0
  -29.3276   -3.5983   -7.1289 C   0  0  0  0  0  0  0  0  0  0  0  0
  -28.7235   -3.3108   -8.3547 C   0  0  0  0  0  0  0  0  0  0  0  0
  -27.9825   -2.1392   -8.4995 C   0  0  0  0  0  0  0  0  0  0  0  0
  -27.8945   -1.2880   -7.4024 C   0  0  0  0  0  0  0  0  0  0  0  0
  -28.4694   -1.5283   -6.1945 N   0  0  0  0  0  0  0  0  0  0  0  0
  -31.4328   -4.3685   -3.5496 C   0  0  0  0  0  0  0  0  0  0  0  0
  -30.7213   -3.9955   -4.7424 N   0  0  0  0  0  0  0  0  0  0  0  0
  -29.7607   -3.0063   -4.7391 C   0  0  0  0  0  0  0  0  0  0  0  0
  -29.4073   -2.4038   -3.7311 O   0  0  0  0  0  0  0  0  0  0  0  0
  -30.9443   -4.4175   -5.6398 H   0  0  0  0  0  0  0  0  0  0  0  0
 30 31  1  0  0  0
 31 32  1  0  0  0
 31 34  1  0  0  0
 32 33  2  0  0  0
 32 24  1  0  0  0
 24 25  1  0  0  0
 24 29  2  0  0  0
 25 26  2  0  0  0
 26 27  1  0  0  0
 27 22  1  0  0  0
 27 28  2  0  0  0
 22 23  3  0  0  0
 23  1  1  0  0  0
  1  2  1  0  0  0
  1  6  2  0  0  0
  2  3  2  0  0  0
  3  8  1  0  0  0
  3  4  1  0  0  0
  8  9  2  0  0  0
  8 10  1  0  0  0
 10 12  1  0  0  0
 10 11  1  0  0  0
 12 13  1  0  0  0
 12 17  2  0  0  0
 13 14  2  0  0  0
 14 15  1  0  0  0
 15 16  2  0  0  0
 16 18  1  0  0  0
 16 17  1  0  0  0
 18 19  1  0  0  0
 18 20  1  0  0  0
 18 21  1  0  0  0
  4  5  2  0  0  0
  5  6  1  0  0  0
  6  7  1  0  0  0
 28 29  1  0  0  0
M  END
> <minimizedAffinity>
-12.37032

$$$$
