CHEMBL3694719


 41 45  0  0  0  0  0  0  0  0999 V2000
  -26.2088   -1.3531  -10.6999 C   0  0  0  0  0  0  0  0  0  0  0  0
  -25.2636   -0.2568  -10.4921 C   0  0  0  0  0  0  0  0  0  0  0  0
  -24.5200    0.1824  -11.5181 C   0  0  0  0  0  0  0  0  0  0  0  0
  -24.6389   -0.4267  -12.7703 N   0  0  0  0  0  0  0  0  0  0  0  0
  -23.9396   -0.2227  -13.9522 C   0  0  0  0  0  0  0  0  0  0  0  0
  -24.5838   -1.0495  -14.8635 C   0  0  0  0  0  0  0  0  0  0  0  0
  -25.5730   -1.7947  -14.2856 N   0  0  0  0  0  0  0  0  0  0  0  0
  -25.5752   -1.4296  -13.0222 C   0  0  0  0  0  0  0  0  0  0  0  0
  -26.3609   -1.8970  -11.9278 C   0  0  0  0  0  0  0  0  0  0  0  0
  -28.3946   -2.9782   -7.4561 C   0  0  0  0  0  0  0  0  0  0  0  0
  -27.9842   -3.8042   -8.5064 C   0  0  0  0  0  0  0  0  0  0  0  0
  -27.2707   -3.2816   -9.5773 C   0  0  0  0  0  0  0  0  0  0  0  0
  -26.9804   -1.9236   -9.5937 C   0  0  0  0  0  0  0  0  0  0  0  0
  -27.4040   -1.1651   -8.5070 C   0  0  0  0  0  0  0  0  0  0  0  0
  -28.0861   -1.6641   -7.4445 N   0  0  0  0  0  0  0  0  0  0  0  0
  -29.7685   -5.2431   -3.2029 N   0  0  0  0  0  0  0  0  0  0  0  0
  -30.5977   -4.6206   -4.2409 C   0  0  0  0  0  0  0  0  0  0  0  0
  -30.4304   -5.3548   -5.5851 C   0  0  0  0  0  0  0  0  0  0  0  0
  -29.1066   -5.0209   -6.2893 C   0  0  0  0  0  0  0  0  0  0  0  0
  -29.0503   -3.5662   -6.3875 N   0  0  0  0  0  0  0  0  0  0  0  0
  -28.9386   -2.9009   -5.0889 C   0  0  0  0  0  0  0  0  0  0  0  0
  -30.2628   -3.1258   -4.3636 C   0  0  0  0  0  0  0  0  0  0  0  0
  -30.0597   -6.2122   -3.0734 H   0  0  0  0  0  0  0  0  0  0  0  0
  -29.9355   -4.7801   -2.3093 H   0  0  0  0  0  0  0  0  0  0  0  0
  -22.7905    0.6667  -14.1656 C   0  0  0  0  0  0  0  0  0  0  0  0
  -22.9601    2.0453  -13.9874 C   0  0  0  0  0  0  0  0  0  0  0  0
  -21.9190    2.9277  -14.2567 C   0  0  0  0  0  0  0  0  0  0  0  0
  -20.6800    2.4427  -14.6698 C   0  0  0  0  0  0  0  0  0  0  0  0
  -20.4594    1.0729  -14.8159 C   0  0  0  0  0  0  0  0  0  0  0  0
  -21.5360    0.1961  -14.6026 C   0  0  0  0  0  0  0  0  0  0  0  0
  -19.2029    0.5234  -15.1758 N   0  0  0  0  0  0  0  0  0  0  0  0
  -17.9894    0.8230  -14.6031 C   0  0  0  0  0  0  0  0  0  0  0  0
  -17.7812    1.6053  -13.6879 O   0  0  0  0  0  0  0  0  0  0  0  0
  -16.9358    0.1768  -15.2038 N   0  0  0  0  0  0  0  0  0  0  0  0
  -19.1962   -0.1586  -15.9190 H   0  0  0  0  0  0  0  0  0  0  0  0
  -17.1199   -0.7469  -15.5688 H   0  0  0  0  0  0  0  0  0  0  0  0
  -15.5854    0.4260  -14.6763 C   0  0  0  0  0  0  0  0  0  0  0  0
  -15.1189   -0.4948  -13.5373 C   0  0  0  0  0  0  0  0  0  0  0  0
  -15.5453   -0.0632  -12.3278 F   0  0  0  0  0  0  0  0  0  0  0  0
  -15.6378   -1.7375  -13.7116 F   0  0  0  0  0  0  0  0  0  0  0  0
  -13.7775   -0.6259  -13.4920 F   0  0  0  0  0  0  0  0  0  0  0  0
 16 17  1  0  0  0
 16 23  1  0  0  0
 16 24  1  0  0  0
 17 18  1  0  0  0
 17 22  1  0  0  0
 18 19  1  0  0  0
 19 20  1  0  0  0
 20 10  1  0  0  0
 20 21  1  0  0  0
 10 11  1  0  0  0
 10 15  2  0  0  0
 11 12  2  0  0  0
 12 13  1  0  0  0
 13  1  1  0  0  0
 13 14  2  0  0  0
  1  2  1  0  0  0
  1  9  2  0  0  0
  2  3  2  0  0  0
  3  4  1  0  0  0
  4  5  1  0  0  0
  4  8  1  0  0  0
  5 25  1  0  0  0
  5  6  2  0  0  0
 25 26  1  0  0  0
 25 30  2  0  0  0
 26 27  2  0  0  0
 27 28  1  0  0  0
 28 29  2  0  0  0
 29 31  1  0  0  0
 29 30  1  0  0  0
 31 32  1  0  0  0
 31 35  1  0  0  0
 32 33  2  0  0  0
 32 34  1  0  0  0
 34 37  1  0  0  0
 34 36  1  0  0  0
 37 38  1  0  0  0
 38 39  1  0  0  0
 38 40  1  0  0  0
 38 41  1  0  0  0
  6  7  1  0  0  0
  7  8  2  0  0  0
  8  9  1  0  0  0
 14 15  1  0  0  0
 21 22  1  0  0  0
M  END
> <minimizedAffinity>
-9.38544

$$$$
