CHEMBL3896514


 33 36  0  0  0  0  0  0  0  0999 V2000
  -27.9398   -9.6213   -4.9077 N   0  0  0  0  0  0  0  0  0  0  0  0
  -28.2658   -8.1934   -4.7066 C   0  0  0  0  0  0  0  0  0  0  0  0
  -29.0858   -7.9916   -3.6034 C   0  0  0  0  0  0  0  0  0  0  0  0
  -29.8696   -6.8515   -3.4936 C   0  0  0  0  0  0  0  0  0  0  0  0
  -29.7670   -5.8127   -4.3716 C   0  0  0  0  0  0  0  0  0  0  0  0
  -30.6742   -4.8414   -4.2048 N   0  0  0  0  0  0  0  0  0  0  0  0
  -30.4928   -3.7210   -4.9141 C   0  0  0  0  0  0  0  0  0  0  0  0
  -29.3913   -3.5348   -5.7192 C   0  0  0  0  0  0  0  0  0  0  0  0
  -28.5205   -4.5782   -5.9934 N   0  0  0  0  0  0  0  0  0  0  0  0
  -28.7415   -5.7928   -5.3491 C   0  0  0  0  0  0  0  0  0  0  0  0
  -28.0490   -7.0551   -5.5408 C   0  0  0  0  0  0  0  0  0  0  0  0
  -29.1068   -2.1630   -6.1152 C   0  0  0  0  0  0  0  0  0  0  0  0
  -27.9977   -1.6330   -6.8181 C   0  0  0  0  0  0  0  0  0  0  0  0
  -27.9643   -0.2960   -6.8085 N   0  0  0  0  0  0  0  0  0  0  0  0
  -29.0577    0.0379   -6.1025 N   0  0  0  0  0  0  0  0  0  0  0  0
  -29.5545    1.3942   -6.1136 C   0  0  0  0  0  0  0  0  0  0  0  0
  -29.6718   -1.0415   -5.5288 C   0  0  0  0  0  0  0  0  0  0  0  0
  -24.2343  -10.2357   -4.8346 C   0  0  0  0  0  0  0  0  0  0  0  0
  -24.0933  -10.9850   -3.6704 C   0  0  0  0  0  0  0  0  0  0  0  0
  -25.2219  -11.3237   -2.9205 C   0  0  0  0  0  0  0  0  0  0  0  0
  -26.4976  -10.9142   -3.3360 C   0  0  0  0  0  0  0  0  0  0  0  0
  -26.6722  -10.2132   -4.5251 C   0  0  0  0  0  0  0  0  0  0  0  0
  -25.5190   -9.8725   -5.2621 C   0  0  0  0  0  0  0  0  0  0  0  0
  -22.3658  -10.7724   -6.2235 C   0  0  0  0  0  0  0  0  0  0  0  0
  -23.1947   -9.7836   -5.6111 O   0  0  0  0  0  0  0  0  0  0  0  0
  -25.2093  -12.0279   -1.7452 O   0  0  0  0  0  0  0  0  0  0  0  0
  -23.9358  -12.3426   -1.1980 C   0  0  0  0  0  0  0  0  0  0  0  0
  -28.5961  -10.2626   -6.3964 S   0  0  0  0  0  0  0  0  0  0  0  0
  -28.1100   -9.5181   -7.5364 O   0  0  0  0  0  0  0  0  0  0  0  0
  -28.4541  -11.7183   -6.3749 O   0  0  0  0  0  0  0  0  0  0  0  0
  -30.2795   -9.9115   -6.3263 N   0  0  0  0  0  0  0  0  0  0  0  0
  -30.7655   -8.9046   -7.2979 C   0  0  0  0  0  0  0  0  0  0  0  0
  -31.1098  -11.1442   -6.4497 C   0  0  0  0  0  0  0  0  0  0  0  0
 24 25  1  0  0  0
 25 18  1  0  0  0
 18 19  1  0  0  0
 18 23  2  0  0  0
 19 20  2  0  0  0
 20 26  1  0  0  0
 20 21  1  0  0  0
 26 27  1  0  0  0
 21 22  2  0  0  0
 22  1  1  0  0  0
 22 23  1  0  0  0
  1  2  1  0  0  0
  1 28  1  0  0  0
  2  3  1  0  0  0
  2 11  2  0  0  0
  3  4  2  0  0  0
  4  5  1  0  0  0
  5  6  1  0  0  0
  5 10  2  0  0  0
  6  7  2  0  0  0
  7  8  1  0  0  0
  8 12  1  0  0  0
  8  9  2  0  0  0
 12 13  1  0  0  0
 12 17  2  0  0  0
 13 14  2  0  0  0
 14 15  1  0  0  0
 15 16  1  0  0  0
 15 17  1  0  0  0
  9 10  1  0  0  0
 10 11  1  0  0  0
 28 29  2  0  0  0
 28 30  2  0  0  0
 28 31  1  0  0  0
 31 32  1  0  0  0
 31 33  1  0  0  0
M  END
> <minimizedAffinity>
-7.54283

$$$$
