CHEMBL394692


 36 39  0  0  0  0  0  0  0  0999 V2000
  -27.5588  -10.4587   -6.0985 C   0  0  0  0  0  0  0  0  0  0  0  0
  -28.2566   -9.2342   -6.0361 C   0  0  0  0  0  0  0  0  0  0  0  0
  -27.8003   -8.2099   -5.2076 C   0  0  0  0  0  0  0  0  0  0  0  0
  -26.7238   -8.4523   -4.3431 C   0  0  0  0  0  0  0  0  0  0  0  0
  -26.0839   -9.6928   -4.3410 C   0  0  0  0  0  0  0  0  0  0  0  0
  -26.4774  -10.7012   -5.2339 C   0  0  0  0  0  0  0  0  0  0  0  0
  -25.6961  -11.9837   -5.2624 C   0  0  0  0  0  0  0  0  0  0  0  0
  -28.3039   -6.8049   -5.3024 C   0  0  0  0  0  0  0  0  0  0  0  0
  -28.8478   -6.4794   -6.3568 O   0  0  0  0  0  0  0  0  0  0  0  0
  -28.0987   -5.9718   -4.2180 N   0  0  0  0  0  0  0  0  0  0  0  0
  -27.4232   -6.2638   -3.5184 H   0  0  0  0  0  0  0  0  0  0  0  0
  -28.5923   -4.6487   -4.1050 C   0  0  0  0  0  0  0  0  0  0  0  0
  -29.8180   -4.3482   -3.5021 C   0  0  0  0  0  0  0  0  0  0  0  0
  -30.2885   -3.0362   -3.4618 C   0  0  0  0  0  0  0  0  0  0  0  0
  -29.5488   -2.0079   -4.0381 C   0  0  0  0  0  0  0  0  0  0  0  0
  -28.3135   -2.2771   -4.6458 C   0  0  0  0  0  0  0  0  0  0  0  0
  -27.8272   -3.5998   -4.6332 C   0  0  0  0  0  0  0  0  0  0  0  0
  -27.5536   -1.1919   -5.3926 C   0  0  0  0  0  0  0  0  0  0  0  0
  -27.7633   -1.3294   -6.9055 C   0  0  0  0  0  0  0  0  0  0  0  0
  -27.9199    0.2207   -4.9320 C   0  0  0  0  0  0  0  0  0  0  0  0
  -27.9229  -11.4515   -6.9997 O   0  0  0  0  0  0  0  0  0  0  0  0
  -29.1685  -10.9897   -9.0180 C   0  0  0  0  0  0  0  0  0  0  0  0
  -29.0917  -10.5480  -10.3571 C   0  0  0  0  0  0  0  0  0  0  0  0
  -27.8719  -10.2582  -10.9624 C   0  0  0  0  0  0  0  0  0  0  0  0
  -26.7258  -10.4568  -10.2266 C   0  0  0  0  0  0  0  0  0  0  0  0
  -26.7336  -10.9123   -8.9606 N   0  0  0  0  0  0  0  0  0  0  0  0
  -27.9380  -11.1258   -8.3586 C   0  0  0  0  0  0  0  0  0  0  0  0
  -32.3129  -10.1764   -7.4017 C   0  0  0  0  0  0  0  0  0  0  0  0
  -32.9577  -11.3356   -7.2396 N   0  0  0  0  0  0  0  0  0  0  0  0
  -32.3374  -12.4426   -7.6817 C   0  0  0  0  0  0  0  0  0  0  0  0
  -31.0974  -12.4405   -8.2758 C   0  0  0  0  0  0  0  0  0  0  0  0
  -30.4961  -11.2065   -8.4099 C   0  0  0  0  0  0  0  0  0  0  0  0
  -31.1181  -10.0733   -7.9967 N   0  0  0  0  0  0  0  0  0  0  0  0
  -32.1347   -7.8577   -6.8128 C   0  0  0  0  0  0  0  0  0  0  0  0
  -32.9298   -9.0621   -6.8590 N   0  0  0  0  0  0  0  0  0  0  0  0
  -33.8323   -8.9778   -7.3134 H   0  0  0  0  0  0  0  0  0  0  0  0
 34 35  1  0  0  0
 35 28  1  0  0  0
 35 36  1  0  0  0
 28 29  1  0  0  0
 28 33  2  0  0  0
 29 30  2  0  0  0
 30 31  1  0  0  0
 31 32  2  0  0  0
 32 22  1  0  0  0
 32 33  1  0  0  0
 22 23  1  0  0  0
 22 27  2  0  0  0
 23 24  2  0  0  0
 24 25  1  0  0  0
 25 26  2  0  0  0
 26 27  1  0  0  0
 27 21  1  0  0  0
 21  1  1  0  0  0
  1  2  1  0  0  0
  1  6  2  0  0  0
  2  3  2  0  0  0
  3  8  1  0  0  0
  3  4  1  0  0  0
  8  9  2  0  0  0
  8 10  1  0  0  0
 10 12  1  0  0  0
 10 11  1  0  0  0
 12 13  1  0  0  0
 12 17  2  0  0  0
 13 14  2  0  0  0
 14 15  1  0  0  0
 15 16  2  0  0  0
 16 18  1  0  0  0
 16 17  1  0  0  0
 18 19  1  0  0  0
 18 20  1  0  0  0
  4  5  2  0  0  0
  5  6  1  0  0  0
  6  7  1  0  0  0
M  END
> <minimizedAffinity>
-8.96469

$$$$
