CHEMBL273103


 20 22  0  0  0  0  0  0  0  0999 V2000
  -27.4778   -1.7872   -9.0743 C   0  0  0  0  0  0  0  0  0  0  0  0
  -27.7573   -0.5769   -8.4600 O   0  0  0  0  0  0  0  0  0  0  0  0
  -28.3085   -0.5986   -7.2016 C   0  0  0  0  0  0  0  0  0  0  0  0
  -28.6029    0.6289   -6.6081 C   0  0  0  0  0  0  0  0  0  0  0  0
  -29.1700    0.6683   -5.3303 C   0  0  0  0  0  0  0  0  0  0  0  0
  -29.4405   -0.5173   -4.6439 C   0  0  0  0  0  0  0  0  0  0  0  0
  -29.1456   -1.7461   -5.2336 C   0  0  0  0  0  0  0  0  0  0  0  0
  -28.5812   -1.7782   -6.5126 C   0  0  0  0  0  0  0  0  0  0  0  0
  -28.2678   -3.0577   -7.1585 C   0  0  0  0  0  0  0  0  0  0  0  0
  -28.4647   -4.1454   -6.6270 O   0  0  0  0  0  0  0  0  0  0  0  0
  -27.6918   -2.9944   -8.5214 C   0  0  0  0  0  0  0  0  0  0  0  0
  -27.4102   -4.1954   -9.1459 O   0  0  0  0  0  0  0  0  0  0  0  0
  -27.6677   -4.8832   -8.4963 H   0  0  0  0  0  0  0  0  0  0  0  0
  -25.2348   -1.5464  -14.4005 C   0  0  0  0  0  0  0  0  0  0  0  0
  -25.8292   -1.5540  -13.0229 C   0  0  0  0  0  0  0  0  0  0  0  0
  -27.2100   -1.6854  -12.8365 C   0  0  0  0  0  0  0  0  0  0  0  0
  -27.7501   -1.7355  -11.5476 C   0  0  0  0  0  0  0  0  0  0  0  0
  -26.9164   -1.6572  -10.4259 C   0  0  0  0  0  0  0  0  0  0  0  0
  -25.5378   -1.5024  -10.6107 C   0  0  0  0  0  0  0  0  0  0  0  0
  -24.9986   -1.4519  -11.9002 C   0  0  0  0  0  0  0  0  0  0  0  0
 14 15  1  0  0  0
 15 16  1  0  0  0
 15 20  2  0  0  0
 16 17  2  0  0  0
 17 18  1  0  0  0
 18  1  1  0  0  0
 18 19  2  0  0  0
  1  2  1  0  0  0
  1 11  2  0  0  0
  2  3  1  0  0  0
  3  4  1  0  0  0
  3  8  2  0  0  0
  4  5  2  0  0  0
  5  6  1  0  0  0
  6  7  2  0  0  0
  7  8  1  0  0  0
  8  9  1  0  0  0
  9 10  2  0  0  0
  9 11  1  0  0  0
 11 12  1  0  0  0
 12 13  1  0  0  0
 19 20  1  0  0  0
M  END
> <minimizedAffinity>
-8.64622

$$$$
