CHEMBL4177112


 42 47  0  0  0  0  0  0  0  0999 V2000
  -14.2488    4.6981  -17.7470 C   0  0  0  0  0  0  0  0  0  0  0  0
  -15.6096    4.4045  -17.4947 C   0  0  0  0  0  0  0  0  0  0  0  0
  -15.9852    3.4893  -16.4899 C   0  0  0  0  0  0  0  0  0  0  0  0
  -14.9895    2.8530  -15.7707 C   0  0  0  0  0  0  0  0  0  0  0  0
  -13.6525    3.2251  -16.0035 C   0  0  0  0  0  0  0  0  0  0  0  0
  -13.2516    4.1278  -16.9621 C   0  0  0  0  0  0  0  0  0  0  0  0
  -12.7731    2.4546  -15.2659 N   0  0  0  0  0  0  0  0  0  0  0  0
  -13.4463    1.3748  -14.7170 C   0  0  0  0  0  0  0  0  0  0  0  0
  -12.9446    0.3034  -14.5086 O   0  0  0  0  0  0  0  0  0  0  0  0
  -14.9229    1.7637  -14.7701 C   0  0  0  0  0  0  0  0  0  0  0  0
  -15.8442    1.1279  -14.0046 C   0  0  0  0  0  0  0  0  0  0  0  0
  -11.7757    2.4275  -15.4032 H   0  0  0  0  0  0  0  0  0  0  0  0
  -17.2862    1.1757  -14.3784 C   0  0  0  0  0  0  0  0  0  0  0  0
  -18.0542    2.2983  -14.0126 C   0  0  0  0  0  0  0  0  0  0  0  0
  -19.4057    2.3981  -14.3582 C   0  0  0  0  0  0  0  0  0  0  0  0
  -20.0067    1.3888  -15.1056 C   0  0  0  0  0  0  0  0  0  0  0  0
  -19.2579    0.2840  -15.5013 C   0  0  0  0  0  0  0  0  0  0  0  0
  -17.9091    0.1714  -15.1339 C   0  0  0  0  0  0  0  0  0  0  0  0
  -13.7968    5.5639  -18.8560 C   0  0  0  0  0  0  0  0  0  0  0  0
  -13.5223    5.1411  -19.9705 O   0  0  0  0  0  0  0  0  0  0  0  0
  -14.7907    7.6596  -18.9633 C   0  0  0  0  0  0  0  0  0  0  0  0
  -13.7330    6.8527  -18.4513 O   0  0  0  0  0  0  0  0  0  0  0  0
  -15.5762    0.3073  -12.9046 N   0  0  0  0  0  0  0  0  0  0  0  0
  -15.4723    0.7824  -12.0184 H   0  0  0  0  0  0  0  0  0  0  0  0
  -15.5834   -1.1037  -12.8258 C   0  0  0  0  0  0  0  0  0  0  0  0
  -15.9467   -1.7313  -11.6188 C   0  0  0  0  0  0  0  0  0  0  0  0
  -15.7296   -3.0950  -11.3897 C   0  0  0  0  0  0  0  0  0  0  0  0
  -15.1865   -3.8325  -12.4463 C   0  0  0  0  0  0  0  0  0  0  0  0
  -14.9356   -3.2811  -13.6962 C   0  0  0  0  0  0  0  0  0  0  0  0
  -15.1593   -1.9071  -13.9042 C   0  0  0  0  0  0  0  0  0  0  0  0
  -14.4371   -4.2305  -14.5559 N   0  0  0  0  0  0  0  0  0  0  0  0
  -14.3737   -5.3537  -13.8598 C   0  0  0  0  0  0  0  0  0  0  0  0
  -14.7708   -5.1390  -12.5572 N   0  0  0  0  0  0  0  0  0  0  0  0
  -14.8400   -6.1043  -11.4849 C   0  0  0  0  0  0  0  0  0  0  0  0
  -14.0598   -6.7131  -14.4257 C   0  0  0  0  0  0  0  0  0  0  0  0
  -13.3431   -6.6043  -15.7055 N   0  0  0  0  0  0  0  0  0  0  0  0
  -11.9773   -7.1602  -15.6216 C   0  0  0  0  0  0  0  0  0  0  0  0
  -11.2239   -6.9520  -16.9516 C   0  0  0  0  0  0  0  0  0  0  0  0
  -11.8998   -7.5261  -18.1324 N   0  0  0  0  0  0  0  0  0  0  0  0
  -11.7970   -8.9838  -18.1331 C   0  0  0  0  0  0  0  0  0  0  0  0
  -13.3115   -7.0854  -18.1493 C   0  0  0  0  0  0  0  0  0  0  0  0
  -14.0703   -7.2522  -16.8077 C   0  0  0  0  0  0  0  0  0  0  0  0
 21 22  1  0  0  0
 22 19  1  0  0  0
 19 20  2  0  0  0
 19  1  1  0  0  0
  1  2  1  0  0  0
  1  6  2  0  0  0
  2  3  2  0  0  0
  3  4  1  0  0  0
  4  5  2  0  0  0
  4 10  1  0  0  0
  5  6  1  0  0  0
  5  7  1  0  0  0
  7  8  1  0  0  0
  7 12  1  0  0  0
  8  9  2  0  0  0
  8 10  1  0  0  0
 10 11  2  0  0  0
 11 23  1  0  0  0
 11 13  1  0  0  0
 23 25  1  0  0  0
 23 24  1  0  0  0
 25 26  1  0  0  0
 25 30  2  0  0  0
 26 27  2  0  0  0
 27 28  1  0  0  0
 28 29  2  0  0  0
 28 33  1  0  0  0
 29 30  1  0  0  0
 29 31  1  0  0  0
 31 32  2  0  0  0
 32 35  1  0  0  0
 32 33  1  0  0  0
 35 36  1  0  0  0
 36 37  1  0  0  0
 36 42  1  0  0  0
 37 38  1  0  0  0
 38 39  1  0  0  0
 39 40  1  0  0  0
 39 41  1  0  0  0
 41 42  1  0  0  0
 33 34  1  0  0  0
 13 14  1  0  0  0
 13 18  2  0  0  0
 14 15  2  0  0  0
 15 16  1  0  0  0
 16 17  2  0  0  0
 17 18  1  0  0  0
M  END
> <minimizedAffinity>
-8.03263

$$$$
