CHEMBL4286011


 30 33  0  0  0  0  0  0  0  0999 V2000
  -28.3251   -8.5964   -7.3743 C   0  0  0  0  0  0  0  0  0  0  0  0
  -27.9457   -9.4486   -6.4651 N   0  0  0  0  0  0  0  0  0  0  0  0
  -28.0521   -9.1107   -5.1179 C   0  0  0  0  0  0  0  0  0  0  0  0
  -29.0550   -8.3646   -4.4549 C   0  0  0  0  0  0  0  0  0  0  0  0
  -28.8955   -8.4041   -3.1317 N   0  0  0  0  0  0  0  0  0  0  0  0
  -27.7718   -9.1288   -2.9676 N   0  0  0  0  0  0  0  0  0  0  0  0
  -27.2165   -9.5712   -4.1361 C   0  0  0  0  0  0  0  0  0  0  0  0
  -25.9736  -10.3674   -4.1931 C   0  0  0  0  0  0  0  0  0  0  0  0
  -29.9851   -7.6188   -5.0896 N   0  0  0  0  0  0  0  0  0  0  0  0
  -29.5892   -6.7764   -6.1389 C   0  0  0  0  0  0  0  0  0  0  0  0
  -30.0101   -5.5015   -6.0243 N   0  0  0  0  0  0  0  0  0  0  0  0
  -29.5086   -4.5845   -6.8540 C   0  0  0  0  0  0  0  0  0  0  0  0
  -28.6541   -4.8762   -7.8394 N   0  0  0  0  0  0  0  0  0  0  0  0
  -28.2938   -6.1721   -7.9719 C   0  0  0  0  0  0  0  0  0  0  0  0
  -28.7463   -7.1847   -7.1534 C   0  0  0  0  0  0  0  0  0  0  0  0
  -27.4366   -9.2763   -2.0213 H   0  0  0  0  0  0  0  0  0  0  0  0
  -30.5476   -7.0542   -4.4578 H   0  0  0  0  0  0  0  0  0  0  0  0
  -28.5754  -10.3599  -12.9181 C   0  0  0  0  0  0  0  0  0  0  0  0
  -28.4828   -9.9481  -11.4781 C   0  0  0  0  0  0  0  0  0  0  0  0
  -27.2666   -9.5298  -10.9276 C   0  0  0  0  0  0  0  0  0  0  0  0
  -27.1971   -9.1109   -9.5931 C   0  0  0  0  0  0  0  0  0  0  0  0
  -28.3430   -9.1277   -8.7874 C   0  0  0  0  0  0  0  0  0  0  0  0
  -29.5584   -9.5540   -9.3381 C   0  0  0  0  0  0  0  0  0  0  0  0
  -29.6263   -9.9651  -10.6728 C   0  0  0  0  0  0  0  0  0  0  0  0
  -29.8188   -3.2510   -6.6969 N   0  0  0  0  0  0  0  0  0  0  0  0
  -30.7693   -3.2085   -6.3459 H   0  0  0  0  0  0  0  0  0  0  0  0
  -28.8714   -2.3016   -6.1035 C   0  0  0  0  0  0  0  0  0  0  0  0
  -28.0081   -1.6116   -7.1721 C   0  0  0  0  0  0  0  0  0  0  0  0
  -29.7129   -1.2101   -5.4094 C   0  0  0  0  0  0  0  0  0  0  0  0
  -27.9931   -2.9747   -5.0383 C   0  0  0  0  0  0  0  0  0  0  0  0
 18 19  1  0  0  0
 19 20  1  0  0  0
 19 24  2  0  0  0
 20 21  2  0  0  0
 21 22  1  0  0  0
 22  1  1  0  0  0
 22 23  2  0  0  0
  1  2  2  0  0  0
  1 15  1  0  0  0
  2  3  1  0  0  0
  3  4  1  0  0  0
  3  7  2  0  0  0
  4  5  2  0  0  0
  4  9  1  0  0  0
  5  6  1  0  0  0
  6  7  1  0  0  0
  6 16  1  0  0  0
  7  8  1  0  0  0
  9 10  1  0  0  0
  9 17  1  0  0  0
 10 11  1  0  0  0
 10 15  2  0  0  0
 11 12  2  0  0  0
 12 25  1  0  0  0
 12 13  1  0  0  0
 25 27  1  0  0  0
 25 26  1  0  0  0
 27 28  1  0  0  0
 27 29  1  0  0  0
 27 30  1  0  0  0
 13 14  2  0  0  0
 14 15  1  0  0  0
 23 24  1  0  0  0
M  END
> <minimizedAffinity>
-8.39522

$$$$
