CHEMBL3979996


 34 39  0  0  0  0  0  0  0  0999 V2000
  -28.7176   -9.4659   -6.2300 N   0  0  0  0  0  0  0  0  0  0  0  0
  -28.6597   -8.1608   -5.6209 C   0  0  0  0  0  0  0  0  0  0  0  0
  -29.0362   -8.1223   -4.2843 C   0  0  0  0  0  0  0  0  0  0  0  0
  -29.5895   -6.9796   -3.7585 C   0  0  0  0  0  0  0  0  0  0  0  0
  -29.5948   -5.8069   -4.4653 C   0  0  0  0  0  0  0  0  0  0  0  0
  -30.3519   -4.8428   -3.9360 N   0  0  0  0  0  0  0  0  0  0  0  0
  -30.2042   -3.6222   -4.4570 C   0  0  0  0  0  0  0  0  0  0  0  0
  -29.2421   -3.3514   -5.4064 C   0  0  0  0  0  0  0  0  0  0  0  0
  -28.5858   -4.3647   -6.0686 N   0  0  0  0  0  0  0  0  0  0  0  0
  -28.8268   -5.6650   -5.6408 C   0  0  0  0  0  0  0  0  0  0  0  0
  -28.4351   -6.9077   -6.2536 C   0  0  0  0  0  0  0  0  0  0  0  0
  -28.8061   -1.9641   -5.4806 C   0  0  0  0  0  0  0  0  0  0  0  0
  -27.6651   -1.3532   -4.8968 C   0  0  0  0  0  0  0  0  0  0  0  0
  -27.6985   -0.0163   -4.9655 N   0  0  0  0  0  0  0  0  0  0  0  0
  -28.8614    0.2324   -5.5904 N   0  0  0  0  0  0  0  0  0  0  0  0
  -29.1286    1.5367   -6.1485 C   0  0  0  0  0  0  0  0  0  0  0  0
  -29.6321   -0.8860   -5.7531 C   0  0  0  0  0  0  0  0  0  0  0  0
  -27.1788  -10.9691   -9.3469 C   0  0  0  0  0  0  0  0  0  0  0  0
  -25.9500  -11.3885   -8.8582 C   0  0  0  0  0  0  0  0  0  0  0  0
  -25.6311  -11.1951   -7.4898 C   0  0  0  0  0  0  0  0  0  0  0  0
  -26.5956  -10.6227   -6.6468 C   0  0  0  0  0  0  0  0  0  0  0  0
  -27.7990  -10.0861   -7.1210 C   0  0  0  0  0  0  0  0  0  0  0  0
  -28.0626  -10.2771   -8.4958 C   0  0  0  0  0  0  0  0  0  0  0  0
  -24.2969  -11.6492   -6.9566 C   0  0  0  0  0  0  0  0  0  0  0  0
  -23.7474  -10.6836   -6.0440 O   0  0  0  0  0  0  0  0  0  0  0  0
  -22.4724  -10.3262   -6.5696 C   0  0  0  0  0  0  0  0  0  0  0  0
  -22.1147  -11.4522   -7.4992 C   0  0  0  0  0  0  0  0  0  0  0  0
  -23.3669  -11.8661   -8.0293 O   0  0  0  0  0  0  0  0  0  0  0  0
  -28.7931  -10.4839  -11.0223 C   0  0  0  0  0  0  0  0  0  0  0  0
  -27.5875  -11.1553  -10.6438 O   0  0  0  0  0  0  0  0  0  0  0  0
  -30.1612   -9.8517   -6.3793 C   0  0  0  0  0  0  0  0  0  0  0  0
  -31.0646   -9.0701   -7.3170 C   0  0  0  0  0  0  0  0  0  0  0  0
  -31.9615   -7.9149   -6.9070 C   0  0  0  0  0  0  0  0  0  0  0  0
  -32.5664   -9.1832   -7.4328 C   0  0  0  0  0  0  0  0  0  0  0  0
 29 30  1  0  0  0
 30 18  1  0  0  0
 18 19  1  0  0  0
 18 23  2  0  0  0
 19 20  2  0  0  0
 20 24  1  0  0  0
 20 21  1  0  0  0
 24 25  1  0  0  0
 24 28  1  0  0  0
 25 26  1  0  0  0
 26 27  1  0  0  0
 27 28  1  0  0  0
 21 22  2  0  0  0
 22  1  1  0  0  0
 22 23  1  0  0  0
  1 31  1  0  0  0
  1  2  1  0  0  0
 31 32  1  0  0  0
 32 33  1  0  0  0
 32 34  1  0  0  0
 33 34  1  0  0  0
  2  3  1  0  0  0
  2 11  2  0  0  0
  3  4  2  0  0  0
  4  5  1  0  0  0
  5  6  1  0  0  0
  5 10  2  0  0  0
  6  7  2  0  0  0
  7  8  1  0  0  0
  8 12  1  0  0  0
  8  9  2  0  0  0
 12 13  1  0  0  0
 12 17  2  0  0  0
 13 14  2  0  0  0
 14 15  1  0  0  0
 15 16  1  0  0  0
 15 17  1  0  0  0
  9 10  1  0  0  0
 10 11  1  0  0  0
M  END
> <minimizedAffinity>
-8.31666

$$$$
