CHEMBL240607


 27 29  0  0  0  0  0  0  0  0999 V2000
  -28.2920   -9.3732   -9.3249 C   0  0  0  0  0  0  0  0  0  0  0  0
  -28.9201   -8.9231   -8.0619 C   0  0  0  0  0  0  0  0  0  0  0  0
  -30.0427   -8.1988   -8.1182 N   0  0  0  0  0  0  0  0  0  0  0  0
  -30.4415   -8.0257   -6.8107 O   0  0  0  0  0  0  0  0  0  0  0  0
  -29.5584   -8.6302   -5.9689 C   0  0  0  0  0  0  0  0  0  0  0  0
  -28.5441   -9.1971   -6.7170 C   0  0  0  0  0  0  0  0  0  0  0  0
  -27.4408   -9.9673   -6.1788 C   0  0  0  0  0  0  0  0  0  0  0  0
  -27.5026  -11.1912   -6.1006 O   0  0  0  0  0  0  0  0  0  0  0  0
  -26.3824   -9.2073   -5.6815 N   0  0  0  0  0  0  0  0  0  0  0  0
  -26.6224   -8.2682   -5.3837 H   0  0  0  0  0  0  0  0  0  0  0  0
  -25.2747   -9.8209   -5.0548 C   0  0  0  0  0  0  0  0  0  0  0  0
  -25.2458  -10.0361   -3.6729 C   0  0  0  0  0  0  0  0  0  0  0  0
  -24.1114  -10.5836   -3.0660 C   0  0  0  0  0  0  0  0  0  0  0  0
  -22.9868  -10.8922   -3.8338 C   0  0  0  0  0  0  0  0  0  0  0  0
  -21.5921  -11.4977   -3.0141 Cl  0  0  0  0  0  0  0  0  0  0  0  0
  -23.0203  -10.6942   -5.2191 C   0  0  0  0  0  0  0  0  0  0  0  0
  -21.6498  -11.0022   -6.2275 Cl  0  0  0  0  0  0  0  0  0  0  0  0
  -24.1774  -10.1945   -5.8330 C   0  0  0  0  0  0  0  0  0  0  0  0
  -29.7833   -8.5527   -4.6354 N   0  0  0  0  0  0  0  0  0  0  0  0
  -30.6991   -8.8174   -4.2764 H   0  0  0  0  0  0  0  0  0  0  0  0
  -29.0630   -7.6004   -3.8054 C   0  0  0  0  0  0  0  0  0  0  0  0
  -29.6710   -6.2127   -3.7794 C   0  0  0  0  0  0  0  0  0  0  0  0
  -31.0453   -5.9591   -3.7435 C   0  0  0  0  0  0  0  0  0  0  0  0
  -31.4844   -4.6407   -3.6982 C   0  0  0  0  0  0  0  0  0  0  0  0
  -30.6617   -3.5697   -3.6805 N   0  0  0  0  0  0  0  0  0  0  0  0
  -29.3402   -3.8276   -3.7152 C   0  0  0  0  0  0  0  0  0  0  0  0
  -28.8045   -5.1060   -3.7565 C   0  0  0  0  0  0  0  0  0  0  0  0
  1  2  1  0  0  0
  2  3  2  0  0  0
  2  6  1  0  0  0
  3  4  1  0  0  0
  4  5  1  0  0  0
  5 19  1  0  0  0
  5  6  2  0  0  0
 19 21  1  0  0  0
 19 20  1  0  0  0
 21 22  1  0  0  0
 22 23  1  0  0  0
 22 27  2  0  0  0
 23 24  2  0  0  0
 24 25  1  0  0  0
 25 26  2  0  0  0
 26 27  1  0  0  0
  6  7  1  0  0  0
  7  8  2  0  0  0
  7  9  1  0  0  0
  9 11  1  0  0  0
  9 10  1  0  0  0
 11 12  1  0  0  0
 11 18  2  0  0  0
 12 13  2  0  0  0
 13 14  1  0  0  0
 14 15  1  0  0  0
 14 16  2  0  0  0
 16 17  1  0  0  0
 16 18  1  0  0  0
M  END
> <minimizedAffinity>
-7.40134

$$$$
