CHEMBL187033


 38 41  0  0  0  0  0  0  0  0999 V2000
  -13.8427   -5.4208  -10.1836 C   0  0  0  0  0  0  0  0  0  0  0  0
  -14.1644   -5.5468  -11.6110 N   0  0  0  0  0  0  0  0  0  0  0  0
  -14.5735   -4.3722  -12.2701 C   0  0  0  0  0  0  0  0  0  0  0  0
  -13.7780   -3.2226  -12.2919 C   0  0  0  0  0  0  0  0  0  0  0  0
  -14.2038   -2.0569  -12.9306 C   0  0  0  0  0  0  0  0  0  0  0  0
  -15.4385   -2.0089  -13.5694 C   0  0  0  0  0  0  0  0  0  0  0  0
  -16.2368   -3.1551  -13.5824 C   0  0  0  0  0  0  0  0  0  0  0  0
  -15.8113   -4.3191  -12.9308 C   0  0  0  0  0  0  0  0  0  0  0  0
  -15.9214   -0.8621  -14.2160 N   0  0  0  0  0  0  0  0  0  0  0  0
  -16.2830    0.3302  -13.6410 C   0  0  0  0  0  0  0  0  0  0  0  0
  -16.3417    0.6052  -12.4508 O   0  0  0  0  0  0  0  0  0  0  0  0
  -15.9380   -0.8540  -15.2263 H   0  0  0  0  0  0  0  0  0  0  0  0
  -16.5231    1.2424  -14.6544 O   0  0  0  0  0  0  0  0  0  0  0  0
  -17.8775    1.5734  -14.7933 C   0  0  0  0  0  0  0  0  0  0  0  0
  -18.8342    0.5956  -15.0871 C   0  0  0  0  0  0  0  0  0  0  0  0
  -20.1855    0.9268  -15.0683 C   0  0  0  0  0  0  0  0  0  0  0  0
  -20.5762    2.2249  -14.7415 C   0  0  0  0  0  0  0  0  0  0  0  0
  -19.6161    3.1974  -14.4500 C   0  0  0  0  0  0  0  0  0  0  0  0
  -18.2591    2.8733  -14.4727 C   0  0  0  0  0  0  0  0  0  0  0  0
  -13.5741   -6.6904  -12.2062 C   0  0  0  0  0  0  0  0  0  0  0  0
  -13.6144   -7.9254  -11.5884 C   0  0  0  0  0  0  0  0  0  0  0  0
  -13.0349   -8.9775  -12.2541 C   0  0  0  0  0  0  0  0  0  0  0  0
  -12.4302   -8.8611  -13.4463 N   0  0  0  0  0  0  0  0  0  0  0  0
  -12.4094   -7.6352  -13.9790 C   0  0  0  0  0  0  0  0  0  0  0  0
  -12.9730   -6.5607  -13.4005 N   0  0  0  0  0  0  0  0  0  0  0  0
  -11.7466   -7.4869  -15.1980 N   0  0  0  0  0  0  0  0  0  0  0  0
  -11.0420   -6.7663  -15.0964 H   0  0  0  0  0  0  0  0  0  0  0  0
  -12.3483   -7.5201  -16.4704 C   0  0  0  0  0  0  0  0  0  0  0  0
  -13.1394   -8.6129  -16.8336 C   0  0  0  0  0  0  0  0  0  0  0  0
  -13.7784   -8.6395  -18.0714 C   0  0  0  0  0  0  0  0  0  0  0  0
  -13.6182   -7.5823  -18.9753 C   0  0  0  0  0  0  0  0  0  0  0  0
  -12.7942   -6.4984  -18.6562 C   0  0  0  0  0  0  0  0  0  0  0  0
  -12.1564   -6.4923  -17.4075 C   0  0  0  0  0  0  0  0  0  0  0  0
  -12.5592   -5.3753  -19.6310 C   0  0  0  0  0  0  0  0  0  0  0  0
  -13.7034   -4.0198  -19.3990 S   0  0  0  0  0  0  0  0  0  0  0  0
  -13.1900   -2.7866  -20.5613 C   0  0  0  0  0  0  0  0  0  0  0  0
  -15.0092   -4.4840  -19.8375 O   0  0  0  0  0  0  0  0  0  0  0  0
  -13.5433   -3.4728  -18.0641 O   0  0  0  0  0  0  0  0  0  0  0  0
  1  2  1  0  0  0
  2  3  1  0  0  0
  2 20  1  0  0  0
  3  4  1  0  0  0
  3  8  2  0  0  0
  4  5  2  0  0  0
  5  6  1  0  0  0
  6  9  1  0  0  0
  6  7  2  0  0  0
  9 10  1  0  0  0
  9 12  1  0  0  0
 10 11  2  0  0  0
 10 13  1  0  0  0
 13 14  1  0  0  0
 14 15  1  0  0  0
 14 19  2  0  0  0
 15 16  2  0  0  0
 16 17  1  0  0  0
 17 18  2  0  0  0
 18 19  1  0  0  0
  7  8  1  0  0  0
 20 21  1  0  0  0
 20 25  2  0  0  0
 21 22  2  0  0  0
 22 23  1  0  0  0
 23 24  2  0  0  0
 24 26  1  0  0  0
 24 25  1  0  0  0
 26 28  1  0  0  0
 26 27  1  0  0  0
 28 29  1  0  0  0
 28 33  2  0  0  0
 29 30  2  0  0  0
 30 31  1  0  0  0
 31 32  2  0  0  0
 32 34  1  0  0  0
 32 33  1  0  0  0
 34 35  1  0  0  0
 35 36  1  0  0  0
 35 37  2  0  0  0
 35 38  2  0  0  0
M  END
> <minimizedAffinity>
-8.37226

$$$$
