CHEMBL243891


 35 38  0  0  0  0  0  0  0  0999 V2000
  -17.2799    1.6465  -15.1950 C   0  0  0  0  0  0  0  0  0  0  0  0
  -16.2098    1.2529  -15.9815 C   0  0  0  0  0  0  0  0  0  0  0  0
  -15.2023    0.4566  -15.4467 C   0  0  0  0  0  0  0  0  0  0  0  0
  -15.1875    0.0770  -14.0994 C   0  0  0  0  0  0  0  0  0  0  0  0
  -16.2098    0.5720  -13.2800 C   0  0  0  0  0  0  0  0  0  0  0  0
  -17.2528    1.3502  -13.8278 C   0  0  0  0  0  0  0  0  0  0  0  0
  -14.1858   -0.7834  -13.5554 N   0  0  0  0  0  0  0  0  0  0  0  0
  -14.4358   -2.0775  -13.1189 C   0  0  0  0  0  0  0  0  0  0  0  0
  -15.5444   -2.5990  -13.1410 O   0  0  0  0  0  0  0  0  0  0  0  0
  -13.3217   -2.7450  -12.6323 N   0  0  0  0  0  0  0  0  0  0  0  0
  -13.2630   -0.4104  -13.4447 H   0  0  0  0  0  0  0  0  0  0  0  0
  -12.5722   -2.1850  -12.2557 H   0  0  0  0  0  0  0  0  0  0  0  0
  -13.3824   -4.1112  -12.2198 C   0  0  0  0  0  0  0  0  0  0  0  0
  -13.2372   -5.1798  -13.1218 C   0  0  0  0  0  0  0  0  0  0  0  0
  -13.4303   -6.4999  -12.7242 C   0  0  0  0  0  0  0  0  0  0  0  0
  -13.7202   -6.7856  -11.3996 C   0  0  0  0  0  0  0  0  0  0  0  0
  -13.7943   -5.7433  -10.4729 C   0  0  0  0  0  0  0  0  0  0  0  0
  -13.6231   -4.4108  -10.8770 C   0  0  0  0  0  0  0  0  0  0  0  0
  -18.3476    2.3573  -15.7036 O   0  0  0  0  0  0  0  0  0  0  0  0
  -23.2956   -0.0537  -13.8953 C   0  0  0  0  0  0  0  0  0  0  0  0
  -22.0841   -0.4472  -14.2139 N   0  0  0  0  0  0  0  0  0  0  0  0
  -21.3740    0.7172  -14.4497 C   0  0  0  0  0  0  0  0  0  0  0  0
  -20.0844    0.9077  -14.9745 C   0  0  0  0  0  0  0  0  0  0  0  0
  -19.5979    2.2186  -15.1114 C   0  0  0  0  0  0  0  0  0  0  0  0
  -20.3908    3.3084  -14.7157 C   0  0  0  0  0  0  0  0  0  0  0  0
  -21.6636    3.1338  -14.1636 C   0  0  0  0  0  0  0  0  0  0  0  0
  -22.1367    1.8244  -14.0994 C   0  0  0  0  0  0  0  0  0  0  0  0
  -23.3583    1.3077  -13.7595 N   0  0  0  0  0  0  0  0  0  0  0  0
  -24.1840    1.8295  -13.5036 H   0  0  0  0  0  0  0  0  0  0  0  0
  -25.1352   -0.7646  -12.5992 C   0  0  0  0  0  0  0  0  0  0  0  0
  -24.8173   -0.2024  -11.5607 O   0  0  0  0  0  0  0  0  0  0  0  0
  -24.3790   -0.8789  -13.7350 N   0  0  0  0  0  0  0  0  0  0  0  0
  -24.9019   -1.1019  -14.5705 H   0  0  0  0  0  0  0  0  0  0  0  0
  -27.1863   -1.4529  -11.6720 C   0  0  0  0  0  0  0  0  0  0  0  0
  -26.3576   -1.3215  -12.8323 O   0  0  0  0  0  0  0  0  0  0  0  0
 34 35  1  0  0  0
 35 30  1  0  0  0
 30 31  2  0  0  0
 30 32  1  0  0  0
 32 20  1  0  0  0
 32 33  1  0  0  0
 20 21  2  0  0  0
 20 28  1  0  0  0
 21 22  1  0  0  0
 22 23  1  0  0  0
 22 27  2  0  0  0
 23 24  2  0  0  0
 24 19  1  0  0  0
 24 25  1  0  0  0
 19  1  1  0  0  0
  1  2  1  0  0  0
  1  6  2  0  0  0
  2  3  2  0  0  0
  3  4  1  0  0  0
  4  7  1  0  0  0
  4  5  2  0  0  0
  7  8  1  0  0  0
  7 11  1  0  0  0
  8  9  2  0  0  0
  8 10  1  0  0  0
 10 13  1  0  0  0
 10 12  1  0  0  0
 13 14  1  0  0  0
 13 18  2  0  0  0
 14 15  2  0  0  0
 15 16  1  0  0  0
 16 17  2  0  0  0
 17 18  1  0  0  0
  5  6  1  0  0  0
 25 26  2  0  0  0
 26 27  1  0  0  0
 27 28  1  0  0  0
 28 29  1  0  0  0
M  END
> <minimizedAffinity>
-9.32274

$$$$
