CHEMBL3128239


 40 44  0  0  0  0  0  0  0  0999 V2000
  -15.4044    4.6425  -16.5875 C   0  0  0  0  0  0  0  0  0  0  0  0
  -15.4348    4.5148  -17.9764 C   0  0  0  0  0  0  0  0  0  0  0  0
  -14.2434    4.5453  -18.7036 C   0  0  0  0  0  0  0  0  0  0  0  0
  -13.0181    4.6712  -18.0479 C   0  0  0  0  0  0  0  0  0  0  0  0
  -12.9653    4.7859  -16.6512 C   0  0  0  0  0  0  0  0  0  0  0  0
  -14.1695    4.7603  -15.9305 C   0  0  0  0  0  0  0  0  0  0  0  0
  -18.6302    3.8029  -15.1479 N   0  0  0  0  0  0  0  0  0  0  0  0
  -17.4905    3.5930  -15.9094 C   0  0  0  0  0  0  0  0  0  0  0  0
  -17.2192    2.5552  -16.5072 O   0  0  0  0  0  0  0  0  0  0  0  0
  -16.6329    4.6838  -15.8810 N   0  0  0  0  0  0  0  0  0  0  0  0
  -18.8351    4.7566  -14.8878 H   0  0  0  0  0  0  0  0  0  0  0  0
  -16.6244    5.1791  -15.0016 H   0  0  0  0  0  0  0  0  0  0  0  0
  -21.5396    0.8224  -14.3180 C   0  0  0  0  0  0  0  0  0  0  0  0
  -21.7993    2.1542  -14.0196 C   0  0  0  0  0  0  0  0  0  0  0  0
  -20.8426    3.1362  -14.2853 C   0  0  0  0  0  0  0  0  0  0  0  0
  -19.6049    2.8240  -14.8440 C   0  0  0  0  0  0  0  0  0  0  0  0
  -19.3402    1.4808  -15.1387 C   0  0  0  0  0  0  0  0  0  0  0  0
  -20.3030    0.4880  -14.8759 C   0  0  0  0  0  0  0  0  0  0  0  0
  -22.8732   -0.3776  -12.7697 C   0  0  0  0  0  0  0  0  0  0  0  0
  -22.4108   -0.2128  -14.1093 O   0  0  0  0  0  0  0  0  0  0  0  0
  -11.6395    4.9397  -15.9335 C   0  0  0  0  0  0  0  0  0  0  0  0
  -11.1275    3.6274  -15.5733 N   0  0  0  0  0  0  0  0  0  0  0  0
  -10.1188    3.5563  -15.5913 H   0  0  0  0  0  0  0  0  0  0  0  0
  -11.7116    3.0271  -14.4586 C   0  0  0  0  0  0  0  0  0  0  0  0
  -11.4158    3.4660  -13.2097 N   0  0  0  0  0  0  0  0  0  0  0  0
  -12.0194    2.8894  -12.1510 C   0  0  0  0  0  0  0  0  0  0  0  0
  -12.9022    1.8785  -12.1500 N   0  0  0  0  0  0  0  0  0  0  0  0
  -13.1818    1.4659  -13.3980 C   0  0  0  0  0  0  0  0  0  0  0  0
  -12.6410    1.9789  -14.5661 C   0  0  0  0  0  0  0  0  0  0  0  0
  -13.2439    1.2203  -15.5884 C   0  0  0  0  0  0  0  0  0  0  0  0
  -14.0906    0.2951  -15.1252 N   0  0  0  0  0  0  0  0  0  0  0  0
  -14.0529    0.4727  -13.7788 N   0  0  0  0  0  0  0  0  0  0  0  0
  -14.8468   -0.4139  -12.9408 C   0  0  0  0  0  0  0  0  0  0  0  0
  -15.8246   -1.3247  -13.6851 C   0  0  0  0  0  0  0  0  0  0  0  0
  -16.0086   -2.6699  -13.0176 C   0  0  0  0  0  0  0  0  0  0  0  0
  -15.8739   -2.7990  -11.6279 C   0  0  0  0  0  0  0  0  0  0  0  0
  -16.0953   -4.0281  -11.0040 C   0  0  0  0  0  0  0  0  0  0  0  0
  -16.4458   -5.1421  -11.7639 C   0  0  0  0  0  0  0  0  0  0  0  0
  -16.5639   -5.0297  -13.1480 C   0  0  0  0  0  0  0  0  0  0  0  0
  -16.3429   -3.8006  -13.7737 C   0  0  0  0  0  0  0  0  0  0  0  0
 19 20  1  0  0  0
 20 13  1  0  0  0
 13 14  1  0  0  0
 13 18  2  0  0  0
 14 15  2  0  0  0
 15 16  1  0  0  0
 16  7  1  0  0  0
 16 17  2  0  0  0
  7  8  1  0  0  0
  7 11  1  0  0  0
  8  9  2  0  0  0
  8 10  1  0  0  0
 10  1  1  0  0  0
 10 12  1  0  0  0
  1  2  1  0  0  0
  1  6  2  0  0  0
  2  3  2  0  0  0
  3  4  1  0  0  0
  4  5  2  0  0  0
  5 21  1  0  0  0
  5  6  1  0  0  0
 21 22  1  0  0  0
 22 24  1  0  0  0
 22 23  1  0  0  0
 24 25  1  0  0  0
 24 29  2  0  0  0
 25 26  2  0  0  0
 26 27  1  0  0  0
 27 28  2  0  0  0
 28 29  1  0  0  0
 28 32  1  0  0  0
 29 30  1  0  0  0
 30 31  2  0  0  0
 31 32  1  0  0  0
 32 33  1  0  0  0
 33 34  1  0  0  0
 34 35  1  0  0  0
 35 36  1  0  0  0
 35 40  2  0  0  0
 36 37  2  0  0  0
 37 38  1  0  0  0
 38 39  2  0  0  0
 39 40  1  0  0  0
 17 18  1  0  0  0
M  END
> <minimizedAffinity>
-10.03164

$$$$
