CHEMBL3358977


 32 35  0  0  0  0  0  0  0  0999 V2000
  -30.0631   -5.1193   -4.3144 C   0  0  0  0  0  0  0  0  0  0  0  0
  -29.2277   -4.1921   -4.6875 N   0  0  0  0  0  0  0  0  0  0  0  0
  -29.4331   -2.9362   -4.1812 C   0  0  0  0  0  0  0  0  0  0  0  0
  -30.3502   -2.6293   -3.2488 C   0  0  0  0  0  0  0  0  0  0  0  0
  -31.1905   -3.5921   -2.7642 N   0  0  0  0  0  0  0  0  0  0  0  0
  -31.1620   -4.8727   -3.2560 C   0  0  0  0  0  0  0  0  0  0  0  0
  -31.9442   -5.7369   -2.8868 O   0  0  0  0  0  0  0  0  0  0  0  0
  -31.9305   -3.3550   -2.1104 H   0  0  0  0  0  0  0  0  0  0  0  0
  -28.7657   -1.8956   -4.8787 C   0  0  0  0  0  0  0  0  0  0  0  0
  -28.7771   -0.5484   -4.5790 C   0  0  0  0  0  0  0  0  0  0  0  0
  -28.0219    0.0503   -5.5508 N   0  0  0  0  0  0  0  0  0  0  0  0
  -27.9655   -0.7825   -6.6504 C   0  0  0  0  0  0  0  0  0  0  0  0
  -27.7709   -0.5346   -8.0114 C   0  0  0  0  0  0  0  0  0  0  0  0
  -27.6848   -1.6541   -8.8517 C   0  0  0  0  0  0  0  0  0  0  0  0
  -27.6696   -2.9398   -8.3203 C   0  0  0  0  0  0  0  0  0  0  0  0
  -27.5229   -4.0422   -9.1156 O   0  0  0  0  0  0  0  0  0  0  0  0
  -27.8713   -3.1706   -6.9665 C   0  0  0  0  0  0  0  0  0  0  0  0
  -28.1486   -2.0629   -6.1492 C   0  0  0  0  0  0  0  0  0  0  0  0
  -27.6271    0.9799   -5.5006 H   0  0  0  0  0  0  0  0  0  0  0  0
  -27.4047   -3.7479  -10.0356 H   0  0  0  0  0  0  0  0  0  0  0  0
  -28.7848   -8.5667   -5.2241 C   0  0  0  0  0  0  0  0  0  0  0  0
  -28.9227   -7.3209   -4.5910 C   0  0  0  0  0  0  0  0  0  0  0  0
  -29.9595   -6.4600   -4.9489 C   0  0  0  0  0  0  0  0  0  0  0  0
  -30.8377   -6.8042   -5.9744 C   0  0  0  0  0  0  0  0  0  0  0  0
  -30.7066   -8.0262   -6.6273 C   0  0  0  0  0  0  0  0  0  0  0  0
  -29.7057   -8.9386   -6.2215 C   0  0  0  0  0  0  0  0  0  0  0  0
  -27.6755   -9.9281   -3.5974 C   0  0  0  0  0  0  0  0  0  0  0  0
  -27.7745   -9.4498   -4.9337 O   0  0  0  0  0  0  0  0  0  0  0  0
  -31.5484   -8.4052   -7.6530 O   0  0  0  0  0  0  0  0  0  0  0  0
  -32.8831   -8.6907   -7.2781 C   0  0  0  0  0  0  0  0  0  0  0  0
  -29.6760  -10.1217   -6.9329 O   0  0  0  0  0  0  0  0  0  0  0  0
  -30.2636  -11.2452   -6.2818 C   0  0  0  0  0  0  0  0  0  0  0  0
 27 28  1  0  0  0
 28 21  1  0  0  0
 21 22  1  0  0  0
 21 26  2  0  0  0
 22 23  2  0  0  0
 23  1  1  0  0  0
 23 24  1  0  0  0
  1  2  2  0  0  0
  1  6  1  0  0  0
  2  3  1  0  0  0
  3  9  1  0  0  0
  3  4  2  0  0  0
  9 10  2  0  0  0
  9 18  1  0  0  0
 10 11  1  0  0  0
 11 12  1  0  0  0
 11 19  1  0  0  0
 12 13  1  0  0  0
 12 18  2  0  0  0
 13 14  2  0  0  0
 14 15  1  0  0  0
 15 16  1  0  0  0
 15 17  2  0  0  0
 16 20  1  0  0  0
 17 18  1  0  0  0
  4  5  1  0  0  0
  5  6  1  0  0  0
  5  8  1  0  0  0
  6  7  2  0  0  0
 24 25  2  0  0  0
 25 29  1  0  0  0
 25 26  1  0  0  0
 29 30  1  0  0  0
 26 31  1  0  0  0
 31 32  1  0  0  0
M  END
> <minimizedAffinity>
-7.97043

$$$$
