CHEMBL439068


 33 36  0  0  0  0  0  0  0  0999 V2000
  -30.1645   -6.8488   -5.4666 C   0  0  0  0  0  0  0  0  0  0  0  0
  -29.2107   -7.7964   -5.0945 C   0  0  0  0  0  0  0  0  0  0  0  0
  -28.9368   -8.8880   -5.9230 C   0  0  0  0  0  0  0  0  0  0  0  0
  -29.6142   -9.0685   -7.1404 C   0  0  0  0  0  0  0  0  0  0  0  0
  -30.6787   -8.1910   -7.4095 C   0  0  0  0  0  0  0  0  0  0  0  0
  -30.9469   -7.0816   -6.5939 C   0  0  0  0  0  0  0  0  0  0  0  0
  -29.1857  -10.1247   -8.0723 C   0  0  0  0  0  0  0  0  0  0  0  0
  -29.6949  -11.3795   -7.8461 N   0  0  0  0  0  0  0  0  0  0  0  0
  -29.3240  -12.4177   -8.6247 C   0  0  0  0  0  0  0  0  0  0  0  0
  -28.4415  -12.3324   -9.6835 C   0  0  0  0  0  0  0  0  0  0  0  0
  -27.9148  -11.0627   -9.8967 C   0  0  0  0  0  0  0  0  0  0  0  0
  -27.0206  -10.6127  -10.8277 N   0  0  0  0  0  0  0  0  0  0  0  0
  -26.7044   -9.3203  -10.7052 N   0  0  0  0  0  0  0  0  0  0  0  0
  -27.4122   -8.9174   -9.6538 C   0  0  0  0  0  0  0  0  0  0  0  0
  -27.2850   -7.6619   -9.1934 N   0  0  0  0  0  0  0  0  0  0  0  0
  -28.2402   -9.9514   -9.1133 C   0  0  0  0  0  0  0  0  0  0  0  0
  -26.5757  -11.1444  -11.5669 H   0  0  0  0  0  0  0  0  0  0  0  0
  -26.5239   -7.1342   -9.6087 H   0  0  0  0  0  0  0  0  0  0  0  0
  -27.3602   -7.4999   -8.1942 H   0  0  0  0  0  0  0  0  0  0  0  0
  -29.8467   -3.3858   -4.4362 N   0  0  0  0  0  0  0  0  0  0  0  0
  -29.5806   -4.5132   -5.1929 C   0  0  0  0  0  0  0  0  0  0  0  0
  -28.8211   -4.5439   -6.1534 O   0  0  0  0  0  0  0  0  0  0  0  0
  -30.3038   -5.6221   -4.7679 N   0  0  0  0  0  0  0  0  0  0  0  0
  -30.2945   -3.5371   -3.5442 H   0  0  0  0  0  0  0  0  0  0  0  0
  -31.2252   -5.4096   -4.4154 H   0  0  0  0  0  0  0  0  0  0  0  0
  -30.5421    1.3077   -5.9843 C   0  0  0  0  0  0  0  0  0  0  0  0
  -29.6482    0.2306   -5.4506 C   0  0  0  0  0  0  0  0  0  0  0  0
  -30.1656   -1.0403   -5.1739 C   0  0  0  0  0  0  0  0  0  0  0  0
  -29.3549   -2.0833   -4.7078 C   0  0  0  0  0  0  0  0  0  0  0  0
  -27.9979   -1.8250   -4.4780 C   0  0  0  0  0  0  0  0  0  0  0  0
  -27.4718   -0.5538   -4.7354 C   0  0  0  0  0  0  0  0  0  0  0  0
  -28.2962    0.4585   -5.2219 C   0  0  0  0  0  0  0  0  0  0  0  0
  -27.7700    1.6659   -5.4675 F   0  0  0  0  0  0  0  0  0  0  0  0
 26 27  1  0  0  0
 27 28  1  0  0  0
 27 32  2  0  0  0
 28 29  2  0  0  0
 29 20  1  0  0  0
 29 30  1  0  0  0
 20 21  1  0  0  0
 20 24  1  0  0  0
 21 22  2  0  0  0
 21 23  1  0  0  0
 23  1  1  0  0  0
 23 25  1  0  0  0
  1  2  1  0  0  0
  1  6  2  0  0  0
  2  3  2  0  0  0
  3  4  1  0  0  0
  4  7  1  0  0  0
  4  5  2  0  0  0
  7  8  1  0  0  0
  7 16  2  0  0  0
  8  9  2  0  0  0
  9 10  1  0  0  0
 10 11  2  0  0  0
 11 12  1  0  0  0
 11 16  1  0  0  0
 12 13  1  0  0  0
 12 17  1  0  0  0
 13 14  2  0  0  0
 14 15  1  0  0  0
 14 16  1  0  0  0
 15 18  1  0  0  0
 15 19  1  0  0  0
  5  6  1  0  0  0
 30 31  2  0  0  0
 31 32  1  0  0  0
 32 33  1  0  0  0
M  END
> <minimizedAffinity>
-9.61264

$$$$
