CHEMBL187279


 26 28  0  0  0  0  0  0  0  0999 V2000
  -30.3926   -8.7584   -8.1809 C   0  0  0  0  0  0  0  0  0  0  0  0
  -31.5197   -8.4023   -7.4640 C   0  0  0  0  0  0  0  0  0  0  0  0
  -32.8256   -9.0778   -7.2461 C   0  0  0  0  0  0  0  0  0  0  0  0
  -31.2867   -7.1769   -6.9002 N   0  0  0  0  0  0  0  0  0  0  0  0
  -30.0298   -6.7140   -7.2062 C   0  0  0  0  0  0  0  0  0  0  0  0
  -29.4363   -7.6918   -8.0049 C   0  0  0  0  0  0  0  0  0  0  0  0
  -28.0646   -7.6707   -8.5905 C   0  0  0  0  0  0  0  0  0  0  0  0
  -31.9744   -6.6870   -6.3376 H   0  0  0  0  0  0  0  0  0  0  0  0
  -29.5540   -5.4626   -6.7085 C   0  0  0  0  0  0  0  0  0  0  0  0
  -28.6981   -5.2401   -5.6987 C   0  0  0  0  0  0  0  0  0  0  0  0
  -27.9818   -6.1401   -4.7563 C   0  0  0  0  0  0  0  0  0  0  0  0
  -27.9430   -7.3555   -4.7457 O   0  0  0  0  0  0  0  0  0  0  0  0
  -27.3445   -5.2737   -3.8901 N   0  0  0  0  0  0  0  0  0  0  0  0
  -27.4936   -3.9402   -4.1807 N   0  0  0  0  0  0  0  0  0  0  0  0
  -28.2585   -3.9014   -5.2377 C   0  0  0  0  0  0  0  0  0  0  0  0
  -26.7525   -5.5740   -3.1257 H   0  0  0  0  0  0  0  0  0  0  0  0
  -28.6059   -2.6285   -5.8833 C   0  0  0  0  0  0  0  0  0  0  0  0
  -28.4532   -1.3199   -5.1440 C   0  0  0  0  0  0  0  0  0  0  0  0
  -29.8254   -1.8697   -5.3893 C   0  0  0  0  0  0  0  0  0  0  0  0
  -30.2032  -10.0217   -8.9833 C   0  0  0  0  0  0  0  0  0  0  0  0
  -29.6717  -11.1855   -8.1229 C   0  0  0  0  0  0  0  0  0  0  0  0
  -28.3220  -11.6864   -8.4737 N   0  0  0  0  0  0  0  0  0  0  0  0
  -26.8574  -10.6606  -10.2690 C   0  0  0  0  0  0  0  0  0  0  0  0
  -28.0986  -11.4745   -9.9180 C   0  0  0  0  0  0  0  0  0  0  0  0
  -27.2557  -11.1472   -7.6184 C   0  0  0  0  0  0  0  0  0  0  0  0
  -27.6909  -10.6324   -6.2502 C   0  0  0  0  0  0  0  0  0  0  0  0
 23 24  1  0  0  0
 24 22  1  0  0  0
 22 25  1  0  0  0
 22 21  1  0  0  0
 25 26  1  0  0  0
 21 20  1  0  0  0
 20  1  1  0  0  0
  1  2  2  0  0  0
  1  6  1  0  0  0
  2  3  1  0  0  0
  2  4  1  0  0  0
  4  5  1  0  0  0
  4  8  1  0  0  0
  5  9  1  0  0  0
  5  6  2  0  0  0
  9 10  2  0  0  0
 10 11  1  0  0  0
 10 15  1  0  0  0
 11 12  2  0  0  0
 11 13  1  0  0  0
 13 14  1  0  0  0
 13 16  1  0  0  0
 14 15  2  0  0  0
 15 17  1  0  0  0
 17 18  1  0  0  0
 17 19  1  0  0  0
 18 19  1  0  0  0
  6  7  1  0  0  0
M  END
> <minimizedAffinity>
-6.71451

$$$$
