CHEMBL460702


 39 42  0  0  0  0  0  0  0  0999 V2000
  -29.1598   -4.4205   -6.4106 C   0  0  0  0  0  0  0  0  0  0  0  0
  -30.1301   -4.4896   -5.6627 O   0  0  0  0  0  0  0  0  0  0  0  0
  -28.3644   -5.4927   -6.7704 N   0  0  0  0  0  0  0  0  0  0  0  0
  -27.6011   -5.3052   -7.4143 H   0  0  0  0  0  0  0  0  0  0  0  0
  -28.8238   -1.9721   -6.2343 C   0  0  0  0  0  0  0  0  0  0  0  0
  -28.2666   -0.7265   -6.7160 C   0  0  0  0  0  0  0  0  0  0  0  0
  -27.7215   -0.6502   -7.9331 C   0  0  0  0  0  0  0  0  0  0  0  0
  -27.6586   -1.7513   -8.7695 N   0  0  0  0  0  0  0  0  0  0  0  0
  -28.1894   -2.9942   -8.3749 C   0  0  0  0  0  0  0  0  0  0  0  0
  -28.2876   -3.9701   -9.1238 O   0  0  0  0  0  0  0  0  0  0  0  0
  -28.7390   -3.0937   -6.9825 C   0  0  0  0  0  0  0  0  0  0  0  0
  -27.0951   -1.6366  -10.0783 C   0  0  0  0  0  0  0  0  0  0  0  0
  -27.9309   -1.5909  -11.2044 C   0  0  0  0  0  0  0  0  0  0  0  0
  -27.3760   -1.5577  -12.4873 C   0  0  0  0  0  0  0  0  0  0  0  0
  -25.9975   -1.5324  -12.6385 C   0  0  0  0  0  0  0  0  0  0  0  0
  -25.4716   -1.5103  -13.8689 F   0  0  0  0  0  0  0  0  0  0  0  0
  -25.1538   -1.5286  -11.5362 C   0  0  0  0  0  0  0  0  0  0  0  0
  -25.7026   -1.5910  -10.2542 C   0  0  0  0  0  0  0  0  0  0  0  0
  -29.3980   -1.9816   -4.9780 O   0  0  0  0  0  0  0  0  0  0  0  0
  -29.0724   -2.8034   -2.7520 C   0  0  0  0  0  0  0  0  0  0  0  0
  -28.5445   -1.8874   -3.8381 C   0  0  0  0  0  0  0  0  0  0  0  0
  -28.3748   -6.7819   -6.1909 C   0  0  0  0  0  0  0  0  0  0  0  0
  -27.9461   -7.0348   -4.8847 C   0  0  0  0  0  0  0  0  0  0  0  0
  -27.8486   -8.3418   -4.4053 C   0  0  0  0  0  0  0  0  0  0  0  0
  -28.1176   -9.4183   -5.2501 C   0  0  0  0  0  0  0  0  0  0  0  0
  -28.6499   -9.1673   -6.5123 C   0  0  0  0  0  0  0  0  0  0  0  0
  -29.0173  -10.1849   -7.3048 F   0  0  0  0  0  0  0  0  0  0  0  0
  -28.7680   -7.8610   -6.9909 C   0  0  0  0  0  0  0  0  0  0  0  0
  -27.8575  -10.7258   -4.9017 O   0  0  0  0  0  0  0  0  0  0  0  0
  -26.5815  -11.0416   -4.4636 C   0  0  0  0  0  0  0  0  0  0  0  0
  -26.2283  -11.0382   -3.1106 C   0  0  0  0  0  0  0  0  0  0  0  0
  -24.9657  -11.4764   -2.7609 C   0  0  0  0  0  0  0  0  0  0  0  0
  -24.0274  -11.8457   -3.6560 N   0  0  0  0  0  0  0  0  0  0  0  0
  -24.3459  -11.7641   -4.9647 C   0  0  0  0  0  0  0  0  0  0  0  0
  -23.3360  -12.1801   -5.8341 N   0  0  0  0  0  0  0  0  0  0  0  0
  -25.6112  -11.3653   -5.4157 C   0  0  0  0  0  0  0  0  0  0  0  0
  -25.9536  -11.2576   -7.1085 Cl  0  0  0  0  0  0  0  0  0  0  0  0
  -22.4968  -12.3381   -5.2842 H   0  0  0  0  0  0  0  0  0  0  0  0
  -23.1991  -11.5255   -6.5957 H   0  0  0  0  0  0  0  0  0  0  0  0
 20 21  1  0  0  0
 21 19  1  0  0  0
 19  5  1  0  0  0
  5  6  1  0  0  0
  5 11  2  0  0  0
  6  7  2  0  0  0
  7  8  1  0  0  0
  8 12  1  0  0  0
  8  9  1  0  0  0
 12 13  1  0  0  0
 12 18  2  0  0  0
 13 14  2  0  0  0
 14 15  1  0  0  0
 15 16  1  0  0  0
 15 17  2  0  0  0
 17 18  1  0  0  0
  9 10  2  0  0  0
  9 11  1  0  0  0
 11  1  1  0  0  0
  1  2  2  0  0  0
  1  3  1  0  0  0
  3 22  1  0  0  0
  3  4  1  0  0  0
 22 23  1  0  0  0
 22 28  2  0  0  0
 23 24  2  0  0  0
 24 25  1  0  0  0
 25 29  1  0  0  0
 25 26  2  0  0  0
 29 30  1  0  0  0
 30 31  1  0  0  0
 30 36  2  0  0  0
 31 32  2  0  0  0
 32 33  1  0  0  0
 33 34  2  0  0  0
 34 35  1  0  0  0
 34 36  1  0  0  0
 35 38  1  0  0  0
 35 39  1  0  0  0
 36 37  1  0  0  0
 26 27  1  0  0  0
 26 28  1  0  0  0
M  END
> <minimizedAffinity>
-7.69394

$$$$
