CHEMBL3775190


 26 28  0  0  0  0  0  0  0  0999 V2000
  -18.3181    2.3629  -14.9471 C   0  0  0  0  0  0  0  0  0  0  0  0
  -19.4051    3.2440  -14.7874 C   0  0  0  0  0  0  0  0  0  0  0  0
  -20.6934    2.8022  -14.5347 C   0  0  0  0  0  0  0  0  0  0  0  0
  -21.6452    3.7031  -14.2746 N   0  0  0  0  0  0  0  0  0  0  0  0
  -22.8352    3.2251  -13.9061 C   0  0  0  0  0  0  0  0  0  0  0  0
  -23.1523    1.9366  -13.7693 N   0  0  0  0  0  0  0  0  0  0  0  0
  -22.1919    1.0336  -14.0614 C   0  0  0  0  0  0  0  0  0  0  0  0
  -20.9208    1.4245  -14.4932 C   0  0  0  0  0  0  0  0  0  0  0  0
  -19.8691    0.5337  -14.8018 C   0  0  0  0  0  0  0  0  0  0  0  0
  -18.5654    0.9891  -15.0162 C   0  0  0  0  0  0  0  0  0  0  0  0
  -16.8611    3.9758  -15.8875 C   0  0  0  0  0  0  0  0  0  0  0  0
  -17.0349    2.8347  -15.0415 O   0  0  0  0  0  0  0  0  0  0  0  0
  -22.4598   -0.3346  -13.8078 N   0  0  0  0  0  0  0  0  0  0  0  0
  -22.0337   -0.9328  -14.5120 H   0  0  0  0  0  0  0  0  0  0  0  0
  -23.7005   -0.8253  -13.3333 C   0  0  0  0  0  0  0  0  0  0  0  0
  -23.8651   -1.0780  -11.9598 C   0  0  0  0  0  0  0  0  0  0  0  0
  -25.1042   -1.4458  -11.4470 C   0  0  0  0  0  0  0  0  0  0  0  0
  -25.2489   -1.6400  -10.1015 O   0  0  0  0  0  0  0  0  0  0  0  0
  -26.1939   -1.6094  -12.3027 C   0  0  0  0  0  0  0  0  0  0  0  0
  -27.7603   -1.9907  -11.7012 Cl  0  0  0  0  0  0  0  0  0  0  0  0
  -26.0276   -1.4417  -13.6828 C   0  0  0  0  0  0  0  0  0  0  0  0
  -24.7845   -1.0644  -14.1931 C   0  0  0  0  0  0  0  0  0  0  0  0
  -24.6110   -0.8685  -15.9023 Cl  0  0  0  0  0  0  0  0  0  0  0  0
  -24.4079   -1.4257   -9.6580 H   0  0  0  0  0  0  0  0  0  0  0  0
  -17.7069   -0.0492  -15.2322 O   0  0  0  0  0  0  0  0  0  0  0  0
  -16.6709   -0.3124  -14.3038 C   0  0  0  0  0  0  0  0  0  0  0  0
 11 12  1  0  0  0
 12  1  1  0  0  0
  1  2  1  0  0  0
  1 10  2  0  0  0
  2  3  2  0  0  0
  3  4  1  0  0  0
  3  8  1  0  0  0
  4  5  2  0  0  0
  5  6  1  0  0  0
  6  7  2  0  0  0
  7 13  1  0  0  0
  7  8  1  0  0  0
 13 15  1  0  0  0
 13 14  1  0  0  0
 15 16  1  0  0  0
 15 22  2  0  0  0
 16 17  2  0  0  0
 17 18  1  0  0  0
 17 19  1  0  0  0
 18 24  1  0  0  0
 19 20  1  0  0  0
 19 21  2  0  0  0
 21 22  1  0  0  0
 22 23  1  0  0  0
  8  9  2  0  0  0
  9 10  1  0  0  0
 10 25  1  0  0  0
 25 26  1  0  0  0
M  END
> <minimizedAffinity>
-8.12288

$$$$
