CHEMBL203796


 30 33  0  0  0  0  0  0  0  0999 V2000
  -28.0093   -2.1139   -9.1544 C   0  0  0  0  0  0  0  0  0  0  0  0
  -27.2623   -1.4393   -8.3150 N   0  0  0  0  0  0  0  0  0  0  0  0
  -27.5019   -1.9745   -7.0602 N   0  0  0  0  0  0  0  0  0  0  0  0
  -28.4396   -2.8898   -7.2197 C   0  0  0  0  0  0  0  0  0  0  0  0
  -28.8023   -3.0306   -8.5273 O   0  0  0  0  0  0  0  0  0  0  0  0
  -29.0507   -3.6051   -6.1521 C   0  0  0  0  0  0  0  0  0  0  0  0
  -29.4286   -4.9209   -6.0625 C   0  0  0  0  0  0  0  0  0  0  0  0
  -30.0549   -5.1842   -4.8776 N   0  0  0  0  0  0  0  0  0  0  0  0
  -30.0416   -4.0415   -4.2259 C   0  0  0  0  0  0  0  0  0  0  0  0
  -29.4444   -3.0550   -4.9550 N   0  0  0  0  0  0  0  0  0  0  0  0
  -29.2584   -1.6914   -4.5224 C   0  0  0  0  0  0  0  0  0  0  0  0
  -29.2456   -5.8813   -6.9909 N   0  0  0  0  0  0  0  0  0  0  0  0
  -29.4847   -5.7179   -7.9619 H   0  0  0  0  0  0  0  0  0  0  0  0
  -29.1579   -7.2781   -6.6144 C   0  0  0  0  0  0  0  0  0  0  0  0
  -30.3290   -8.0420   -7.1717 C   0  0  0  0  0  0  0  0  0  0  0  0
  -30.1236   -9.0641   -8.1039 C   0  0  0  0  0  0  0  0  0  0  0  0
  -31.2208   -9.7604   -8.5815 C   0  0  0  0  0  0  0  0  0  0  0  0
  -32.4921   -9.5150   -8.1970 N   0  0  0  0  0  0  0  0  0  0  0  0
  -32.6690   -8.5279   -7.2934 C   0  0  0  0  0  0  0  0  0  0  0  0
  -31.6360   -7.7750   -6.7564 C   0  0  0  0  0  0  0  0  0  0  0  0
  -28.1895   -1.9419  -10.4745 N   0  0  0  0  0  0  0  0  0  0  0  0
  -29.1004   -2.1954  -10.8334 H   0  0  0  0  0  0  0  0  0  0  0  0
  -24.8046   -1.5178  -11.9451 C   0  0  0  0  0  0  0  0  0  0  0  0
  -25.0865   -1.5699  -13.3096 C   0  0  0  0  0  0  0  0  0  0  0  0
  -26.3998   -1.7213  -13.7436 C   0  0  0  0  0  0  0  0  0  0  0  0
  -27.4373   -1.8288  -12.8160 C   0  0  0  0  0  0  0  0  0  0  0  0
  -27.1793   -1.7815  -11.4387 C   0  0  0  0  0  0  0  0  0  0  0  0
  -25.8498   -1.6225  -11.0219 C   0  0  0  0  0  0  0  0  0  0  0  0
  -22.6266   -0.5869  -12.1152 C   0  0  0  0  0  0  0  0  0  0  0  0
  -23.5577   -1.3840  -11.3926 O   0  0  0  0  0  0  0  0  0  0  0  0
 29 30  1  0  0  0
 30 23  1  0  0  0
 23 24  1  0  0  0
 23 28  2  0  0  0
 24 25  2  0  0  0
 25 26  1  0  0  0
 26 27  2  0  0  0
 27 21  1  0  0  0
 27 28  1  0  0  0
 21  1  1  0  0  0
 21 22  1  0  0  0
  1  2  2  0  0  0
  1  5  1  0  0  0
  2  3  1  0  0  0
  3  4  2  0  0  0
  4  6  1  0  0  0
  4  5  1  0  0  0
  6  7  2  0  0  0
  6 10  1  0  0  0
  7 12  1  0  0  0
  7  8  1  0  0  0
 12 14  1  0  0  0
 12 13  1  0  0  0
 14 15  1  0  0  0
 15 16  1  0  0  0
 15 20  2  0  0  0
 16 17  2  0  0  0
 17 18  1  0  0  0
 18 19  2  0  0  0
 19 20  1  0  0  0
  8  9  2  0  0  0
  9 10  1  0  0  0
 10 11  1  0  0  0
M  END
> <minimizedAffinity>
-9.24573

$$$$
