CHEMBL376722


 28 30  0  0  0  0  0  0  0  0999 V2000
  -20.3222    2.2608  -15.1302 C   0  0  0  0  0  0  0  0  0  0  0  0
  -21.1387    3.2586  -14.5838 C   0  0  0  0  0  0  0  0  0  0  0  0
  -22.3024    2.9039  -13.9294 C   0  0  0  0  0  0  0  0  0  0  0  0
  -22.7132    1.6342  -13.7653 N   0  0  0  0  0  0  0  0  0  0  0  0
  -21.9414    0.6483  -14.2706 C   0  0  0  0  0  0  0  0  0  0  0  0
  -20.7446    0.9164  -14.9842 C   0  0  0  0  0  0  0  0  0  0  0  0
  -19.9318   -0.2338  -15.5215 C   0  0  0  0  0  0  0  0  0  0  0  0
  -22.2992   -0.6887  -14.0010 N   0  0  0  0  0  0  0  0  0  0  0  0
  -21.4788   -1.2530  -13.8223 H   0  0  0  0  0  0  0  0  0  0  0  0
  -23.4167   -1.1119  -13.3657 C   0  0  0  0  0  0  0  0  0  0  0  0
  -24.5964   -1.1057  -13.9562 N   0  0  0  0  0  0  0  0  0  0  0  0
  -25.6022   -1.3543  -13.0397 C   0  0  0  0  0  0  0  0  0  0  0  0
  -25.1863   -1.5337  -11.7435 C   0  0  0  0  0  0  0  0  0  0  0  0
  -23.4782   -1.4998  -11.6782 S   0  0  0  0  0  0  0  0  0  0  0  0
  -26.0346   -1.6882  -10.6088 C   0  0  0  0  0  0  0  0  0  0  0  0
  -26.7071   -1.7838   -9.6697 N   0  0  0  0  0  0  0  0  0  0  0  0
  -18.9925    2.6908  -15.7422 C   0  0  0  0  0  0  0  0  0  0  0  0
  -12.8905   -1.1878  -15.7676 C   0  0  0  0  0  0  0  0  0  0  0  0
  -14.1157   -0.4745  -15.4977 N   0  0  0  0  0  0  0  0  0  0  0  0
  -14.3885    0.7118  -16.1322 C   0  0  0  0  0  0  0  0  0  0  0  0
  -13.6058    1.2051  -16.9402 O   0  0  0  0  0  0  0  0  0  0  0  0
  -15.5809    1.3186  -15.7688 N   0  0  0  0  0  0  0  0  0  0  0  0
  -15.9859    2.5315  -16.4855 C   0  0  0  0  0  0  0  0  0  0  0  0
  -16.7143    3.5350  -15.5609 C   0  0  0  0  0  0  0  0  0  0  0  0
  -17.8768    2.9704  -14.8163 N   0  0  0  0  0  0  0  0  0  0  0  0
  -17.3714    1.8002  -14.0680 C   0  0  0  0  0  0  0  0  0  0  0  0
  -16.6092    0.7409  -14.8962 C   0  0  0  0  0  0  0  0  0  0  0  0
  -14.9060   -1.0439  -15.2523 H   0  0  0  0  0  0  0  0  0  0  0  0
 18 19  1  0  0  0
 19 20  1  0  0  0
 19 28  1  0  0  0
 20 21  2  0  0  0
 20 22  1  0  0  0
 22 23  1  0  0  0
 22 27  1  0  0  0
 23 24  1  0  0  0
 24 25  1  0  0  0
 25 17  1  0  0  0
 25 26  1  0  0  0
 17  1  1  0  0  0
  1  2  1  0  0  0
  1  6  2  0  0  0
  2  3  2  0  0  0
  3  4  1  0  0  0
  4  5  2  0  0  0
  5  8  1  0  0  0
  5  6  1  0  0  0
  8 10  1  0  0  0
  8  9  1  0  0  0
 10 11  2  0  0  0
 10 14  1  0  0  0
 11 12  1  0  0  0
 12 13  2  0  0  0
 13 15  1  0  0  0
 13 14  1  0  0  0
 15 16  3  0  0  0
  6  7  1  0  0  0
 26 27  1  0  0  0
M  END
> <minimizedAffinity>
-7.88614

$$$$
