CHEMBL3957643


 37 41  0  0  0  0  0  0  0  0999 V2000
  -28.2641   -2.9309   -8.3459 N   0  0  0  0  0  0  0  0  0  0  0  0
  -27.4119   -2.1139   -9.2822 C   0  0  0  0  0  0  0  0  0  0  0  0
  -28.1300   -1.9523  -10.4413 C   0  0  0  0  0  0  0  0  0  0  0  0
  -27.5724   -1.6617  -11.5843 C   0  0  0  0  0  0  0  0  0  0  0  0
  -26.3007   -1.2916  -11.6647 C   0  0  0  0  0  0  0  0  0  0  0  0
  -25.9005   -1.3413  -12.8936 N   0  0  0  0  0  0  0  0  0  0  0  0
  -24.7460   -0.8987  -13.2849 C   0  0  0  0  0  0  0  0  0  0  0  0
  -23.9576   -0.1180  -12.4533 C   0  0  0  0  0  0  0  0  0  0  0  0
  -24.2241   -0.2965  -11.0358 N   0  0  0  0  0  0  0  0  0  0  0  0
  -25.4464   -0.9861  -10.6062 C   0  0  0  0  0  0  0  0  0  0  0  0
  -26.0124   -1.4798   -9.2807 C   0  0  0  0  0  0  0  0  0  0  0  0
  -23.0406    0.7023  -13.5105 C   0  0  0  0  0  0  0  0  0  0  0  0
  -22.0397   -0.0927  -14.1590 C   0  0  0  0  0  0  0  0  0  0  0  0
  -21.2003    0.6231  -14.8826 N   0  0  0  0  0  0  0  0  0  0  0  0
  -21.5944    1.8699  -14.8494 N   0  0  0  0  0  0  0  0  0  0  0  0
  -20.7309    2.8467  -15.5390 C   0  0  0  0  0  0  0  0  0  0  0  0
  -22.7616    1.9827  -14.0991 C   0  0  0  0  0  0  0  0  0  0  0  0
  -29.4781   -0.2897   -5.6998 C   0  0  0  0  0  0  0  0  0  0  0  0
  -29.2325   -0.9377   -4.5227 C   0  0  0  0  0  0  0  0  0  0  0  0
  -28.7462   -2.2378   -4.4925 C   0  0  0  0  0  0  0  0  0  0  0  0
  -28.4365   -2.9047   -5.7166 C   0  0  0  0  0  0  0  0  0  0  0  0
  -28.6711   -2.2969   -7.0121 C   0  0  0  0  0  0  0  0  0  0  0  0
  -29.2585   -0.9640   -6.9286 C   0  0  0  0  0  0  0  0  0  0  0  0
  -30.8645    1.7083   -6.2458 C   0  0  0  0  0  0  0  0  0  0  0  0
  -29.9176    0.9920   -5.5489 O   0  0  0  0  0  0  0  0  0  0  0  0
  -28.5743   -2.8543   -3.2874 O   0  0  0  0  0  0  0  0  0  0  0  0
  -28.4998   -4.2386   -3.1203 C   0  0  0  0  0  0  0  0  0  0  0  0
  -28.2871   -4.4088   -8.3840 C   0  0  0  0  0  0  0  0  0  0  0  0
  -29.6329   -5.0215   -7.9998 C   0  0  0  0  0  0  0  0  0  0  0  0
  -29.6342   -5.7555   -6.7040 N   0  0  0  0  0  0  0  0  0  0  0  0
  -28.5403   -6.7392   -6.4409 C   0  0  0  0  0  0  0  0  0  0  0  0
  -28.6580   -8.0886   -7.2082 C   0  0  0  0  0  0  0  0  0  0  0  0
  -28.3162   -8.0409   -8.7125 C   0  0  0  0  0  0  0  0  0  0  0  0
  -30.0510   -8.6879   -6.9605 C   0  0  0  0  0  0  0  0  0  0  0  0
  -31.1504   -7.6654   -7.3132 C   0  0  0  0  0  0  0  0  0  0  0  0
  -32.5359   -8.2617   -7.0776 C   0  0  0  0  0  0  0  0  0  0  0  0
  -30.9528   -6.3843   -6.4626 C   0  0  0  0  0  0  0  0  0  0  0  0
 24 25  1  0  0  0
 25 18  1  0  0  0
 18 19  1  0  0  0
 18 23  2  0  0  0
 19 20  2  0  0  0
 20 26  1  0  0  0
 20 21  1  0  0  0
 26 27  1  0  0  0
 21 22  2  0  0  0
 22  1  1  0  0  0
 22 23  1  0  0  0
  1 28  1  0  0  0
  1  2  1  0  0  0
 28 29  1  0  0  0
 29 30  1  0  0  0
 30 31  1  0  0  0
 30 37  1  0  0  0
 31 32  1  0  0  0
 32 34  1  0  0  0
 32 33  1  0  0  0
 34 35  1  0  0  0
 35 36  1  0  0  0
 35 37  1  0  0  0
  2  3  1  0  0  0
  2 11  2  0  0  0
  3  4  2  0  0  0
  4  5  1  0  0  0
  5  6  1  0  0  0
  5 10  2  0  0  0
  6  7  2  0  0  0
  7  8  1  0  0  0
  8 12  1  0  0  0
  8  9  2  0  0  0
 12 13  1  0  0  0
 12 17  2  0  0  0
 13 14  2  0  0  0
 14 15  1  0  0  0
 15 16  1  0  0  0
 15 17  1  0  0  0
  9 10  1  0  0  0
 10 11  1  0  0  0
M  END
> <minimizedAffinity>
-6.67518

$$$$
