CHEMBL1979318


 23 25  0  0  0  0  0  0  0  0999 V2000
  -26.2445  -11.0909   -6.0065 C   0  0  0  0  0  0  0  0  0  0  0  0
  -26.6926   -9.8086   -5.4080 C   0  0  0  0  0  0  0  0  0  0  0  0
  -25.8619   -9.1029   -4.6217 N   0  0  0  0  0  0  0  0  0  0  0  0
  -26.5790   -8.0183   -4.2652 N   0  0  0  0  0  0  0  0  0  0  0  0
  -27.8239   -8.0139   -4.8035 C   0  0  0  0  0  0  0  0  0  0  0  0
  -27.9380   -9.1543   -5.5570 C   0  0  0  0  0  0  0  0  0  0  0  0
  -29.2134   -9.4446   -6.2782 C   0  0  0  0  0  0  0  0  0  0  0  0
  -30.1625   -8.2535   -6.1478 C   0  0  0  0  0  0  0  0  0  0  0  0
  -29.9210   -7.1769   -5.3538 C   0  0  0  0  0  0  0  0  0  0  0  0
  -30.7691   -6.1088   -5.1797 N   0  0  0  0  0  0  0  0  0  0  0  0
  -28.7247   -7.0527   -4.6231 O   0  0  0  0  0  0  0  0  0  0  0  0
  -26.1504   -7.3233   -3.6647 H   0  0  0  0  0  0  0  0  0  0  0  0
  -31.4519   -5.9468   -5.9154 H   0  0  0  0  0  0  0  0  0  0  0  0
  -30.2848   -5.2663   -4.8815 H   0  0  0  0  0  0  0  0  0  0  0  0
  -28.8330   -9.7734   -7.7161 C   0  0  0  0  0  0  0  0  0  0  0  0
  -28.0641   -8.8446   -8.4564 C   0  0  0  0  0  0  0  0  0  0  0  0
  -27.6730   -9.1027   -9.7694 C   0  0  0  0  0  0  0  0  0  0  0  0
  -28.0484  -10.2903  -10.3839 C   0  0  0  0  0  0  0  0  0  0  0  0
  -28.8223  -11.2159   -9.6882 C   0  0  0  0  0  0  0  0  0  0  0  0
  -29.2193  -10.9634   -8.3668 C   0  0  0  0  0  0  0  0  0  0  0  0
  -30.3947  -12.4660   -7.4760 I   0  0  0  0  0  0  0  0  0  0  0  0
  -31.4217   -8.2966   -6.9980 C   0  0  0  0  0  0  0  0  0  0  0  0
  -32.4664   -8.3322   -7.7032 N   0  0  0  0  0  0  0  0  0  0  0  0
  1  2  1  0  0  0
  2  3  2  0  0  0
  2  6  1  0  0  0
  3  4  1  0  0  0
  4  5  1  0  0  0
  4 12  1  0  0  0
  5  6  2  0  0  0
  5 11  1  0  0  0
  6  7  1  0  0  0
  7 15  1  0  0  0
  7  8  1  0  0  0
 15 16  1  0  0  0
 15 20  2  0  0  0
 16 17  2  0  0  0
 17 18  1  0  0  0
 18 19  2  0  0  0
 19 20  1  0  0  0
 20 21  1  0  0  0
  8 22  1  0  0  0
  8  9  2  0  0  0
 22 23  3  0  0  0
  9 10  1  0  0  0
  9 11  1  0  0  0
 10 13  1  0  0  0
 10 14  1  0  0  0
M  END
> <minimizedAffinity>
-5.74301

$$$$
