CHEMBL236419


 28 30  0  0  0  0  0  0  0  0999 V2000
  -28.9080   -8.8340   -3.3575 O   0  0  0  0  0  0  0  0  0  0  0  0
  -28.0523   -8.2495   -4.0089 C   0  0  0  0  0  0  0  0  0  0  0  0
  -28.1078   -6.8938   -4.3238 N   0  0  0  0  0  0  0  0  0  0  0  0
  -27.2977   -6.4927   -4.7742 H   0  0  0  0  0  0  0  0  0  0  0  0
  -29.1712   -5.9979   -4.0392 C   0  0  0  0  0  0  0  0  0  0  0  0
  -30.4883   -6.4138   -3.8414 C   0  0  0  0  0  0  0  0  0  0  0  0
  -31.5029   -5.4913   -3.5881 C   0  0  0  0  0  0  0  0  0  0  0  0
  -31.2167   -4.1320   -3.5186 C   0  0  0  0  0  0  0  0  0  0  0  0
  -29.9081   -3.6879   -3.6930 C   0  0  0  0  0  0  0  0  0  0  0  0
  -28.8935   -4.6223   -3.9718 C   0  0  0  0  0  0  0  0  0  0  0  0
  -29.5194   -2.3762   -3.6690 O   0  0  0  0  0  0  0  0  0  0  0  0
  -29.3353   -1.7319   -4.9287 C   0  0  0  0  0  0  0  0  0  0  0  0
  -29.9234   -2.4466   -5.9216 F   0  0  0  0  0  0  0  0  0  0  0  0
  -29.9063   -0.4998   -4.9032 F   0  0  0  0  0  0  0  0  0  0  0  0
  -27.6099   -1.5806   -5.2761 Cl  0  0  0  0  0  0  0  0  0  0  0  0
  -26.8851   -8.9539   -4.5102 C   0  0  0  0  0  0  0  0  0  0  0  0
  -25.5743   -8.9308   -4.0547 C   0  0  0  0  0  0  0  0  0  0  0  0
  -24.8458   -9.7354   -4.9408 C   0  0  0  0  0  0  0  0  0  0  0  0
  -25.6142  -10.2536   -5.8925 N   0  0  0  0  0  0  0  0  0  0  0  0
  -26.8506   -9.7634   -5.6358 N   0  0  0  0  0  0  0  0  0  0  0  0
  -27.9056  -10.0959   -6.5924 C   0  0  0  0  0  0  0  0  0  0  0  0
  -27.9433   -9.1395   -7.7927 C   0  0  0  0  0  0  0  0  0  0  0  0
  -28.7508   -7.8625   -7.6666 C   0  0  0  0  0  0  0  0  0  0  0  0
  -28.2334   -6.5739   -7.8201 C   0  0  0  0  0  0  0  0  0  0  0  0
  -29.0959   -5.4874   -7.7056 C   0  0  0  0  0  0  0  0  0  0  0  0
  -30.4174   -5.5899   -7.4503 N   0  0  0  0  0  0  0  0  0  0  0  0
  -30.9024   -6.8384   -7.3039 C   0  0  0  0  0  0  0  0  0  0  0  0
  -30.1238   -7.9828   -7.4013 C   0  0  0  0  0  0  0  0  0  0  0  0
  1  2  2  0  0  0
  2  3  1  0  0  0
  2 16  1  0  0  0
  3  5  1  0  0  0
  3  4  1  0  0  0
  5  6  1  0  0  0
  5 10  2  0  0  0
  6  7  2  0  0  0
  7  8  1  0  0  0
  8  9  2  0  0  0
  9 11  1  0  0  0
  9 10  1  0  0  0
 11 12  1  0  0  0
 12 13  1  0  0  0
 12 14  1  0  0  0
 12 15  1  0  0  0
 16 17  2  0  0  0
 16 20  1  0  0  0
 17 18  1  0  0  0
 18 19  2  0  0  0
 19 20  1  0  0  0
 20 21  1  0  0  0
 21 22  1  0  0  0
 22 23  1  0  0  0
 23 24  1  0  0  0
 23 28  2  0  0  0
 24 25  2  0  0  0
 25 26  1  0  0  0
 26 27  2  0  0  0
 27 28  1  0  0  0
M  END
> <minimizedAffinity>
-7.65675

$$$$
