CHEMBL1974310


 21 23  0  0  0  0  0  0  0  0999 V2000
  -15.6655   -0.3918  -14.0262 C   0  0  0  0  0  0  0  0  0  0  0  0
  -16.8915    0.1895  -14.2736 C   0  0  0  0  0  0  0  0  0  0  0  0
  -16.8252    1.4529  -14.9703 C   0  0  0  0  0  0  0  0  0  0  0  0
  -17.8272    2.4016  -15.3349 C   0  0  0  0  0  0  0  0  0  0  0  0
  -17.3679    3.5008  -16.0705 C   0  0  0  0  0  0  0  0  0  0  0  0
  -16.0930    3.7215  -16.4543 N   0  0  0  0  0  0  0  0  0  0  0  0
  -15.1502    2.8313  -16.0915 C   0  0  0  0  0  0  0  0  0  0  0  0
  -15.4981    1.7083  -15.3407 C   0  0  0  0  0  0  0  0  0  0  0  0
  -14.4158    0.5014  -14.7582 S   0  0  0  0  0  0  0  0  0  0  0  0
  -19.2522    2.2330  -14.9760 C   0  0  0  0  0  0  0  0  0  0  0  0
  -20.0506    3.3139  -14.5526 C   0  0  0  0  0  0  0  0  0  0  0  0
  -21.3738    3.1310  -14.1381 C   0  0  0  0  0  0  0  0  0  0  0  0
  -21.9401    1.8679  -14.1985 C   0  0  0  0  0  0  0  0  0  0  0  0
  -23.2058    1.6894  -13.7997 F   0  0  0  0  0  0  0  0  0  0  0  0
  -21.2102    0.7888  -14.6723 C   0  0  0  0  0  0  0  0  0  0  0  0
  -19.8747    0.9692  -15.0500 C   0  0  0  0  0  0  0  0  0  0  0  0
  -15.8978   -2.7731  -13.7753 N   0  0  0  0  0  0  0  0  0  0  0  0
  -15.4254   -1.6015  -13.2551 C   0  0  0  0  0  0  0  0  0  0  0  0
  -14.8112   -1.6234  -12.1905 O   0  0  0  0  0  0  0  0  0  0  0  0
  -15.7004   -3.6275  -13.2738 H   0  0  0  0  0  0  0  0  0  0  0  0
  -16.3682   -2.8114  -14.6675 H   0  0  0  0  0  0  0  0  0  0  0  0
 17 18  1  0  0  0
 17 20  1  0  0  0
 17 21  1  0  0  0
 18 19  2  0  0  0
 18  1  1  0  0  0
  1  2  2  0  0  0
  1  9  1  0  0  0
  2  3  1  0  0  0
  3  4  1  0  0  0
  3  8  2  0  0  0
  4 10  1  0  0  0
  4  5  2  0  0  0
 10 11  1  0  0  0
 10 16  2  0  0  0
 11 12  2  0  0  0
 12 13  1  0  0  0
 13 14  1  0  0  0
 13 15  2  0  0  0
 15 16  1  0  0  0
  5  6  1  0  0  0
  6  7  2  0  0  0
  7  8  1  0  0  0
  8  9  1  0  0  0
M  END
> <minimizedAffinity>
-8.17407

$$$$
