CHEMBL366241


 33 36  0  0  0  0  0  0  0  0999 V2000
  -29.6235   -8.4965   -6.9101 C   0  0  0  0  0  0  0  0  0  0  0  0
  -30.5180   -7.5397   -7.3799 C   0  0  0  0  0  0  0  0  0  0  0  0
  -30.6390   -6.2869   -6.7754 C   0  0  0  0  0  0  0  0  0  0  0  0
  -29.9706   -5.9853   -5.5911 C   0  0  0  0  0  0  0  0  0  0  0  0
  -29.1305   -6.9621   -5.0522 C   0  0  0  0  0  0  0  0  0  0  0  0
  -28.9275   -8.1862   -5.7266 C   0  0  0  0  0  0  0  0  0  0  0  0
  -30.2257  -10.8885   -7.4019 C   0  0  0  0  0  0  0  0  0  0  0  0
  -29.7466  -12.2158   -8.3756 S   0  0  0  0  0  0  0  0  0  0  0  0
  -28.6865  -11.2740   -9.2920 C   0  0  0  0  0  0  0  0  0  0  0  0
  -28.0850  -11.8272  -10.3570 N   0  0  0  0  0  0  0  0  0  0  0  0
  -27.2773  -10.9803  -10.9849 C   0  0  0  0  0  0  0  0  0  0  0  0
  -26.9949   -9.7240  -10.6239 N   0  0  0  0  0  0  0  0  0  0  0  0
  -27.5918   -9.2094   -9.5327 C   0  0  0  0  0  0  0  0  0  0  0  0
  -27.1921   -7.9145   -9.2366 N   0  0  0  0  0  0  0  0  0  0  0  0
  -28.5370   -9.9827   -8.8123 C   0  0  0  0  0  0  0  0  0  0  0  0
  -29.4408   -9.7566   -7.6606 C   0  0  0  0  0  0  0  0  0  0  0  0
  -26.3880   -7.6519   -9.7942 H   0  0  0  0  0  0  0  0  0  0  0  0
  -27.1403   -7.6893   -8.2522 H   0  0  0  0  0  0  0  0  0  0  0  0
  -32.7229  -10.6039   -6.8534 C   0  0  0  0  0  0  0  0  0  0  0  0
  -31.3493  -11.0905   -6.4032 C   0  0  0  0  0  0  0  0  0  0  0  0
  -30.1066   -4.7406   -4.9297 N   0  0  0  0  0  0  0  0  0  0  0  0
  -29.7017   -3.5123   -5.4329 C   0  0  0  0  0  0  0  0  0  0  0  0
  -29.2172   -3.3256   -6.5422 O   0  0  0  0  0  0  0  0  0  0  0  0
  -29.8598   -2.4921   -4.5033 N   0  0  0  0  0  0  0  0  0  0  0  0
  -30.6240   -4.7296   -4.0633 H   0  0  0  0  0  0  0  0  0  0  0  0
  -29.6898   -2.7687   -3.5488 H   0  0  0  0  0  0  0  0  0  0  0  0
  -29.4898   -1.1673   -4.8427 C   0  0  0  0  0  0  0  0  0  0  0  0
  -28.2052   -0.7263   -4.5246 C   0  0  0  0  0  0  0  0  0  0  0  0
  -27.7877    0.5426   -4.9302 C   0  0  0  0  0  0  0  0  0  0  0  0
  -28.6665    1.3947   -5.6023 C   0  0  0  0  0  0  0  0  0  0  0  0
  -29.9731    0.9827   -5.8845 C   0  0  0  0  0  0  0  0  0  0  0  0
  -30.9432    1.8965   -6.5738 C   0  0  0  0  0  0  0  0  0  0  0  0
  -30.3706   -0.3082   -5.5123 C   0  0  0  0  0  0  0  0  0  0  0  0
 19 20  1  0  0  0
 20  7  1  0  0  0
  7  8  1  0  0  0
  7 16  2  0  0  0
  8  9  1  0  0  0
  9 10  1  0  0  0
  9 15  2  0  0  0
 10 11  2  0  0  0
 11 12  1  0  0  0
 12 13  2  0  0  0
 13 14  1  0  0  0
 13 15  1  0  0  0
 14 17  1  0  0  0
 14 18  1  0  0  0
 15 16  1  0  0  0
 16  1  1  0  0  0
  1  2  1  0  0  0
  1  6  2  0  0  0
  2  3  2  0  0  0
  3  4  1  0  0  0
  4 21  1  0  0  0
  4  5  2  0  0  0
 21 22  1  0  0  0
 21 25  1  0  0  0
 22 23  2  0  0  0
 22 24  1  0  0  0
 24 27  1  0  0  0
 24 26  1  0  0  0
 27 28  1  0  0  0
 27 33  2  0  0  0
 28 29  2  0  0  0
 29 30  1  0  0  0
 30 31  2  0  0  0
 31 32  1  0  0  0
 31 33  1  0  0  0
  5  6  1  0  0  0
M  END
> <minimizedAffinity>
-8.73856

$$$$
