CHEMBL3948737


 33 36  0  0  0  0  0  0  0  0999 V2000
  -28.6431   -2.9885   -4.3112 O   0  0  0  0  0  0  0  0  0  0  0  0
  -29.2640   -7.1452   -6.0913 C   0  0  0  0  0  0  0  0  0  0  0  0
  -30.4843   -7.1541   -5.4314 C   0  0  0  0  0  0  0  0  0  0  0  0
  -30.7661   -5.9286   -4.7589 C   0  0  0  0  0  0  0  0  0  0  0  0
  -31.8442   -5.6824   -3.9662 N   0  0  0  0  0  0  0  0  0  0  0  0
  -31.8311   -4.5038   -3.3123 C   0  0  0  0  0  0  0  0  0  0  0  0
  -30.8131   -3.5707   -3.3654 C   0  0  0  0  0  0  0  0  0  0  0  0
  -29.7475   -3.7993   -4.2317 C   0  0  0  0  0  0  0  0  0  0  0  0
  -29.7504   -4.9997   -4.9535 C   0  0  0  0  0  0  0  0  0  0  0  0
  -28.6554   -5.5479   -6.1525 S   0  0  0  0  0  0  0  0  0  0  0  0
  -27.7482   -9.1511   -6.1041 N   0  0  0  0  0  0  0  0  0  0  0  0
  -28.6502   -8.2840   -6.7781 C   0  0  0  0  0  0  0  0  0  0  0  0
  -28.9864   -8.5393   -7.9377 O   0  0  0  0  0  0  0  0  0  0  0  0
  -25.7347  -10.5624   -6.5983 C   0  0  0  0  0  0  0  0  0  0  0  0
  -27.1974  -10.2623   -6.8908 C   0  0  0  0  0  0  0  0  0  0  0  0
  -27.2295   -8.8948   -4.7536 C   0  0  0  0  0  0  0  0  0  0  0  0
  -27.9207   -9.5546   -3.5723 C   0  0  0  0  0  0  0  0  0  0  0  0
  -28.6202   -1.9396   -5.1964 C   0  0  0  0  0  0  0  0  0  0  0  0
  -29.2902   -0.7952   -4.7690 C   0  0  0  0  0  0  0  0  0  0  0  0
  -29.3004    0.3421   -5.5671 C   0  0  0  0  0  0  0  0  0  0  0  0
  -28.6267    0.3318   -6.7872 C   0  0  0  0  0  0  0  0  0  0  0  0
  -27.9232   -0.8011   -7.2149 C   0  0  0  0  0  0  0  0  0  0  0  0
  -27.9205   -1.9388   -6.4072 C   0  0  0  0  0  0  0  0  0  0  0  0
  -27.2235   -0.8586   -8.4336 N   0  0  0  0  0  0  0  0  0  0  0  0
  -27.4706   -1.7483   -9.4645 C   0  0  0  0  0  0  0  0  0  0  0  0
  -28.4095   -2.5401   -9.4689 O   0  0  0  0  0  0  0  0  0  0  0  0
  -26.5174   -0.1526   -8.6246 H   0  0  0  0  0  0  0  0  0  0  0  0
  -26.5460   -1.6721  -10.5744 C   0  0  0  0  0  0  0  0  0  0  0  0
  -25.1984   -1.5235  -10.3560 O   0  0  0  0  0  0  0  0  0  0  0  0
  -24.6027   -1.5136  -11.5758 C   0  0  0  0  0  0  0  0  0  0  0  0
  -25.5388   -1.6504  -12.5766 C   0  0  0  0  0  0  0  0  0  0  0  0
  -26.7979   -1.7442  -11.9342 C   0  0  0  0  0  0  0  0  0  0  0  0
  -28.1383   -1.9031  -12.5617 C   0  0  0  0  0  0  0  0  0  0  0  0
 14 15  1  0  0  0
 15 11  1  0  0  0
 11 16  1  0  0  0
 11 12  1  0  0  0
 16 17  1  0  0  0
 12 13  2  0  0  0
 12  2  1  0  0  0
  2  3  2  0  0  0
  2 10  1  0  0  0
  3  4  1  0  0  0
  4  5  1  0  0  0
  4  9  2  0  0  0
  5  6  2  0  0  0
  6  7  1  0  0  0
  7  8  2  0  0  0
  8  1  1  0  0  0
  8  9  1  0  0  0
  1 18  1  0  0  0
 18 19  1  0  0  0
 18 23  2  0  0  0
 19 20  2  0  0  0
 20 21  1  0  0  0
 21 22  2  0  0  0
 22 24  1  0  0  0
 22 23  1  0  0  0
 24 25  1  0  0  0
 24 27  1  0  0  0
 25 26  2  0  0  0
 25 28  1  0  0  0
 28 29  1  0  0  0
 28 32  2  0  0  0
 29 30  1  0  0  0
 30 31  2  0  0  0
 31 32  1  0  0  0
 32 33  1  0  0  0
  9 10  1  0  0  0
M  END
> <minimizedAffinity>
-9.10529

$$$$
