CHEMBL1993941


 39 43  0  0  0  0  0  0  0  0999 V2000
  -26.2706   -1.2867  -12.3877 C   0  0  0  0  0  0  0  0  0  0  0  0
  -26.6771   -1.6251  -13.6694 C   0  0  0  0  0  0  0  0  0  0  0  0
  -25.9742   -1.3849  -14.7842 N   0  0  0  0  0  0  0  0  0  0  0  0
  -24.7865   -0.7587  -14.7065 C   0  0  0  0  0  0  0  0  0  0  0  0
  -24.1598   -0.6432  -15.9377 N   0  0  0  0  0  0  0  0  0  0  0  0
  -24.2814   -0.2990  -13.4516 C   0  0  0  0  0  0  0  0  0  0  0  0
  -23.0692    0.4644  -13.0889 C   0  0  0  0  0  0  0  0  0  0  0  0
  -22.9809    0.6700  -11.7296 C   0  0  0  0  0  0  0  0  0  0  0  0
  -24.2374   -0.0534  -10.8666 S   0  0  0  0  0  0  0  0  0  0  0  0
  -25.0433   -0.6009  -12.2995 C   0  0  0  0  0  0  0  0  0  0  0  0
  -24.6495   -1.1984  -16.6306 H   0  0  0  0  0  0  0  0  0  0  0  0
  -23.1557   -0.7460  -15.9189 H   0  0  0  0  0  0  0  0  0  0  0  0
  -22.0280    1.0182  -13.9622 C   0  0  0  0  0  0  0  0  0  0  0  0
  -21.1066    0.1693  -14.5630 C   0  0  0  0  0  0  0  0  0  0  0  0
  -20.0062    0.6778  -15.2406 C   0  0  0  0  0  0  0  0  0  0  0  0
  -19.8837    2.0435  -15.4901 C   0  0  0  0  0  0  0  0  0  0  0  0
  -20.8496    2.9076  -14.9753 C   0  0  0  0  0  0  0  0  0  0  0  0
  -21.9061    2.3982  -14.2020 C   0  0  0  0  0  0  0  0  0  0  0  0
  -18.8161    2.5651  -16.2520 N   0  0  0  0  0  0  0  0  0  0  0  0
  -17.5085    2.5963  -15.8026 C   0  0  0  0  0  0  0  0  0  0  0  0
  -17.1121    2.0875  -14.7594 O   0  0  0  0  0  0  0  0  0  0  0  0
  -16.6785    3.2942  -16.6615 N   0  0  0  0  0  0  0  0  0  0  0  0
  -18.9472    2.6466  -17.2499 H   0  0  0  0  0  0  0  0  0  0  0  0
  -17.1066    4.0987  -17.0971 H   0  0  0  0  0  0  0  0  0  0  0  0
  -15.2889    3.3580  -16.4109 C   0  0  0  0  0  0  0  0  0  0  0  0
  -14.4500    2.2637  -16.6720 C   0  0  0  0  0  0  0  0  0  0  0  0
  -13.0869    2.3257  -16.3816 C   0  0  0  0  0  0  0  0  0  0  0  0
  -12.5580    3.4830  -15.8205 C   0  0  0  0  0  0  0  0  0  0  0  0
  -13.3958    4.5655  -15.5661 C   0  0  0  0  0  0  0  0  0  0  0  0
  -12.8892    5.6655  -14.9937 F   0  0  0  0  0  0  0  0  0  0  0  0
  -14.7525    4.5245  -15.8736 C   0  0  0  0  0  0  0  0  0  0  0  0
  -27.7227   -2.7220   -9.4217 N   0  0  0  0  0  0  0  0  0  0  0  0
  -26.7360   -2.6659  -10.3603 C   0  0  0  0  0  0  0  0  0  0  0  0
  -27.0749   -1.6560  -11.2332 C   0  0  0  0  0  0  0  0  0  0  0  0
  -28.3023   -1.1714  -10.7222 C   0  0  0  0  0  0  0  0  0  0  0  0
  -28.6877   -1.8113   -9.6065 N   0  0  0  0  0  0  0  0  0  0  0  0
  -27.7913   -3.6427   -8.3031 C   0  0  0  0  0  0  0  0  0  0  0  0
  -29.3442   -3.2957   -6.3128 C   0  0  0  0  0  0  0  0  0  0  0  0
  -29.1963   -3.8275   -7.7316 C   0  0  0  0  0  0  0  0  0  0  0  0
 38 39  1  0  0  0
 39 37  1  0  0  0
 37 32  1  0  0  0
 32 33  1  0  0  0
 32 36  1  0  0  0
 33 34  2  0  0  0
 34  1  1  0  0  0
 34 35  1  0  0  0
  1  2  1  0  0  0
  1 10  2  0  0  0
  2  3  2  0  0  0
  3  4  1  0  0  0
  4  5  1  0  0  0
  4  6  2  0  0  0
  5 11  1  0  0  0
  5 12  1  0  0  0
  6  7  1  0  0  0
  6 10  1  0  0  0
  7 13  1  0  0  0
  7  8  2  0  0  0
 13 14  1  0  0  0
 13 18  2  0  0  0
 14 15  2  0  0  0
 15 16  1  0  0  0
 16 19  1  0  0  0
 16 17  2  0  0  0
 19 20  1  0  0  0
 19 23  1  0  0  0
 20 21  2  0  0  0
 20 22  1  0  0  0
 22 25  1  0  0  0
 22 24  1  0  0  0
 25 26  1  0  0  0
 25 31  2  0  0  0
 26 27  2  0  0  0
 27 28  1  0  0  0
 28 29  2  0  0  0
 29 30  1  0  0  0
 29 31  1  0  0  0
 17 18  1  0  0  0
  8  9  1  0  0  0
  9 10  1  0  0  0
 35 36  2  0  0  0
M  END
> <minimizedAffinity>
-6.69248

$$$$
