CHEMBL2430253


 36 41  0  0  0  0  0  0  0  0999 V2000
  -28.9867  -10.4738   -4.0144 C   0  0  0  0  0  0  0  0  0  0  0  0
  -28.6195   -9.5905   -5.1607 C   0  0  0  0  0  0  0  0  0  0  0  0
  -28.8337   -8.2500   -4.9323 N   0  0  0  0  0  0  0  0  0  0  0  0
  -28.5432   -7.5018   -6.0204 C   0  0  0  0  0  0  0  0  0  0  0  0
  -28.1142   -8.3745   -6.9965 C   0  0  0  0  0  0  0  0  0  0  0  0
  -28.1042   -9.7234   -6.4600 C   0  0  0  0  0  0  0  0  0  0  0  0
  -27.6984   -7.9402   -8.3588 C   0  0  0  0  0  0  0  0  0  0  0  0
  -27.7911   -6.4379   -8.6130 C   0  0  0  0  0  0  0  0  0  0  0  0
  -28.2761   -5.5110   -7.4873 C   0  0  0  0  0  0  0  0  0  0  0  0
  -28.6569   -6.0836   -6.1301 C   0  0  0  0  0  0  0  0  0  0  0  0
  -29.0666   -5.2416   -5.1332 C   0  0  0  0  0  0  0  0  0  0  0  0
  -29.4874   -5.5578   -3.6949 C   0  0  0  0  0  0  0  0  0  0  0  0
  -29.5528   -6.6343   -3.1289 O   0  0  0  0  0  0  0  0  0  0  0  0
  -29.8011   -4.3436   -3.1113 N   0  0  0  0  0  0  0  0  0  0  0  0
  -29.6375   -3.2950   -3.9933 C   0  0  0  0  0  0  0  0  0  0  0  0
  -29.8828   -1.9579   -3.7198 C   0  0  0  0  0  0  0  0  0  0  0  0
  -29.6706   -1.0358   -4.7443 C   0  0  0  0  0  0  0  0  0  0  0  0
  -29.2264   -1.4752   -5.9876 C   0  0  0  0  0  0  0  0  0  0  0  0
  -29.0281   -0.5863   -6.9711 F   0  0  0  0  0  0  0  0  0  0  0  0
  -28.9866   -2.8221   -6.2460 C   0  0  0  0  0  0  0  0  0  0  0  0
  -29.1942   -3.7562   -5.2386 C   0  0  0  0  0  0  0  0  0  0  0  0
  -29.1790   -7.8917   -4.0494 H   0  0  0  0  0  0  0  0  0  0  0  0
  -30.1134   -4.2784   -2.1548 H   0  0  0  0  0  0  0  0  0  0  0  0
  -27.6331  -10.8740   -7.2803 C   0  0  0  0  0  0  0  0  0  0  0  0
  -26.6528  -11.5247   -6.9091 O   0  0  0  0  0  0  0  0  0  0  0  0
  -28.3438  -11.3064   -8.3936 N   0  0  0  0  0  0  0  0  0  0  0  0
  -27.9265  -12.4658   -9.1651 C   0  0  0  0  0  0  0  0  0  0  0  0
  -28.1506  -12.0159  -10.5949 C   0  0  0  0  0  0  0  0  0  0  0  0
  -29.4509  -11.2354  -10.4849 C   0  0  0  0  0  0  0  0  0  0  0  0
  -29.4150  -10.6073   -9.0849 C   0  0  0  0  0  0  0  0  0  0  0  0
  -30.7625  -10.6596   -8.3079 C   0  0  0  0  0  0  0  0  0  0  0  0
  -31.2324  -11.9867   -7.8608 N   0  0  0  0  0  0  0  0  0  0  0  0
  -32.7061  -12.0521   -7.8612 C   0  0  0  0  0  0  0  0  0  0  0  0
  -33.1034  -11.5354   -6.4921 C   0  0  0  0  0  0  0  0  0  0  0  0
  -32.0238  -12.0968   -5.5874 C   0  0  0  0  0  0  0  0  0  0  0  0
  -30.8411  -12.3739   -6.5049 C   0  0  0  0  0  0  0  0  0  0  0  0
  1  2  1  0  0  0
  2  3  1  0  0  0
  2  6  2  0  0  0
  3  4  1  0  0  0
  3 22  1  0  0  0
  4  5  2  0  0  0
  4 10  1  0  0  0
  5  6  1  0  0  0
  5  7  1  0  0  0
  6 24  1  0  0  0
 24 25  2  0  0  0
 24 26  1  0  0  0
 26 27  1  0  0  0
 26 30  1  0  0  0
 27 28  1  0  0  0
 28 29  1  0  0  0
 29 30  1  0  0  0
 30 31  1  0  0  0
 31 32  1  0  0  0
 32 33  1  0  0  0
 32 36  1  0  0  0
 33 34  1  0  0  0
 34 35  1  0  0  0
 35 36  1  0  0  0
  7  8  1  0  0  0
  8  9  1  0  0  0
  9 10  1  0  0  0
 10 11  2  0  0  0
 11 12  1  0  0  0
 11 21  1  0  0  0
 12 13  2  0  0  0
 12 14  1  0  0  0
 14 15  1  0  0  0
 14 23  1  0  0  0
 15 16  1  0  0  0
 15 21  2  0  0  0
 16 17  2  0  0  0
 17 18  1  0  0  0
 18 19  1  0  0  0
 18 20  2  0  0  0
 20 21  1  0  0  0
M  END
> <minimizedAffinity>
-7.36030

$$$$
