CHEMBL4459121


 40 44  0  0  0  0  0  0  0  0999 V2000
  -28.9273   -4.9260   -4.8823 N   0  0  0  0  0  0  0  0  0  0  0  0
  -28.3801   -4.6487   -4.0679 H   0  0  0  0  0  0  0  0  0  0  0  0
  -29.2594   -3.7156   -5.5033 C   0  0  0  0  0  0  0  0  0  0  0  0
  -30.2835   -3.1909   -4.7524 N   0  0  0  0  0  0  0  0  0  0  0  0
  -30.3764   -1.8633   -4.5887 C   0  0  0  0  0  0  0  0  0  0  0  0
  -29.4236   -1.0165   -5.0611 C   0  0  0  0  0  0  0  0  0  0  0  0
  -28.4508   -1.5557   -5.9004 C   0  0  0  0  0  0  0  0  0  0  0  0
  -27.4931   -0.6650   -6.4252 N   0  0  0  0  0  0  0  0  0  0  0  0
  -27.4939   -0.6640   -7.7939 C   0  0  0  0  0  0  0  0  0  0  0  0
  -27.7096   -1.7207   -8.5960 C   0  0  0  0  0  0  0  0  0  0  0  0
  -28.0234   -3.0439   -7.8277 C   0  0  0  0  0  0  0  0  0  0  0  0
  -27.9779   -4.1330   -8.4017 O   0  0  0  0  0  0  0  0  0  0  0  0
  -28.4786   -2.8882   -6.3299 C   0  0  0  0  0  0  0  0  0  0  0  0
  -26.5828   -1.0748   -6.1664 H   0  0  0  0  0  0  0  0  0  0  0  0
  -27.3601   -1.3969  -10.0177 C   0  0  0  0  0  0  0  0  0  0  0  0
  -28.3049   -1.4684  -11.0458 C   0  0  0  0  0  0  0  0  0  0  0  0
  -27.8972   -1.6571  -12.3857 C   0  0  0  0  0  0  0  0  0  0  0  0
  -26.5364   -1.7773  -12.7098 C   0  0  0  0  0  0  0  0  0  0  0  0
  -26.1720   -2.0718  -13.9587 F   0  0  0  0  0  0  0  0  0  0  0  0
  -25.5798   -1.6367  -11.7253 C   0  0  0  0  0  0  0  0  0  0  0  0
  -25.9865   -1.3978  -10.4017 C   0  0  0  0  0  0  0  0  0  0  0  0
  -28.5396   -9.0010   -5.9809 C   0  0  0  0  0  0  0  0  0  0  0  0
  -29.5630   -8.2220   -6.5220 C   0  0  0  0  0  0  0  0  0  0  0  0
  -29.6974   -6.8729   -6.1264 C   0  0  0  0  0  0  0  0  0  0  0  0
  -28.8173   -6.2843   -5.1818 C   0  0  0  0  0  0  0  0  0  0  0  0
  -27.8375   -7.0872   -4.6335 C   0  0  0  0  0  0  0  0  0  0  0  0
  -27.6748   -8.4041   -5.0602 C   0  0  0  0  0  0  0  0  0  0  0  0
  -26.6234   -9.0766   -4.5599 F   0  0  0  0  0  0  0  0  0  0  0  0
  -28.4413  -10.2928   -6.4511 O   0  0  0  0  0  0  0  0  0  0  0  0
  -27.2170  -10.6316   -9.8929 C   0  0  0  0  0  0  0  0  0  0  0  0
  -28.0493  -10.2553   -8.8507 C   0  0  0  0  0  0  0  0  0  0  0  0
  -27.6478  -10.5366   -7.5500 C   0  0  0  0  0  0  0  0  0  0  0  0
  -26.3765  -11.0507   -7.3265 C   0  0  0  0  0  0  0  0  0  0  0  0
  -25.6105  -11.3793   -8.4322 C   0  0  0  0  0  0  0  0  0  0  0  0
  -26.0268  -11.2354   -9.7105 N   0  0  0  0  0  0  0  0  0  0  0  0
  -27.6431   -9.3788  -13.3826 C   0  0  0  0  0  0  0  0  0  0  0  0
  -27.0870   -9.4060  -11.9876 C   0  0  0  0  0  0  0  0  0  0  0  0
  -26.2721   -8.5666  -11.6145 O   0  0  0  0  0  0  0  0  0  0  0  0
  -27.5891  -10.4352  -11.2234 N   0  0  0  0  0  0  0  0  0  0  0  0
  -27.8947  -11.2798  -11.6854 H   0  0  0  0  0  0  0  0  0  0  0  0
 36 37  1  0  0  0
 37 38  2  0  0  0
 37 39  1  0  0  0
 39 30  1  0  0  0
 39 40  1  0  0  0
 30 31  1  0  0  0
 30 35  2  0  0  0
 31 32  2  0  0  0
 32 29  1  0  0  0
 32 33  1  0  0  0
 29 22  1  0  0  0
 22 23  1  0  0  0
 22 27  2  0  0  0
 23 24  2  0  0  0
 24 25  1  0  0  0
 25  1  1  0  0  0
 25 26  2  0  0  0
  1  3  1  0  0  0
  1  2  1  0  0  0
  3  4  1  0  0  0
  3 13  2  0  0  0
  4  5  2  0  0  0
  5  6  1  0  0  0
  6  7  2  0  0  0
  7  8  1  0  0  0
  7 13  1  0  0  0
  8  9  1  0  0  0
  8 14  1  0  0  0
  9 10  2  0  0  0
 10 15  1  0  0  0
 10 11  1  0  0  0
 15 16  1  0  0  0
 15 21  2  0  0  0
 16 17  2  0  0  0
 17 18  1  0  0  0
 18 19  1  0  0  0
 18 20  2  0  0  0
 20 21  1  0  0  0
 11 12  2  0  0  0
 11 13  1  0  0  0
 26 27  1  0  0  0
 27 28  1  0  0  0
 33 34  2  0  0  0
 34 35  1  0  0  0
M  END
> <minimizedAffinity>
-9.37687

$$$$
