CHEMBL3977445


 41 44  0  0  0  0  0  0  0  0999 V2000
  -12.0875   -5.2658  -10.9940 C   0  0  0  0  0  0  0  0  0  0  0  0
  -13.5177   -4.8840  -11.2174 C   0  0  0  0  0  0  0  0  0  0  0  0
  -13.8133   -3.5297  -11.4243 C   0  0  0  0  0  0  0  0  0  0  0  0
  -15.1228   -3.0749  -11.5740 C   0  0  0  0  0  0  0  0  0  0  0  0
  -16.1101   -4.0443  -11.5758 C   0  0  0  0  0  0  0  0  0  0  0  0
  -15.8784   -5.3617  -11.3619 N   0  0  0  0  0  0  0  0  0  0  0  0
  -14.5911   -5.7670  -11.1884 C   0  0  0  0  0  0  0  0  0  0  0  0
  -15.4564   -1.7032  -11.6810 N   0  0  0  0  0  0  0  0  0  0  0  0
  -15.9269   -1.1166  -12.8415 C   0  0  0  0  0  0  0  0  0  0  0  0
  -16.1417   -1.7190  -13.8903 O   0  0  0  0  0  0  0  0  0  0  0  0
  -16.0893    0.2553  -12.7363 N   0  0  0  0  0  0  0  0  0  0  0  0
  -15.2208   -1.0967  -10.9068 H   0  0  0  0  0  0  0  0  0  0  0  0
  -15.3932    0.7257  -12.1763 H   0  0  0  0  0  0  0  0  0  0  0  0
  -16.5953    0.9690  -13.8520 C   0  0  0  0  0  0  0  0  0  0  0  0
  -15.7280    1.5266  -14.8023 C   0  0  0  0  0  0  0  0  0  0  0  0
  -16.2338    2.2258  -15.8957 C   0  0  0  0  0  0  0  0  0  0  0  0
  -17.6028    2.4698  -15.9778 C   0  0  0  0  0  0  0  0  0  0  0  0
  -18.4847    1.9261  -15.0314 C   0  0  0  0  0  0  0  0  0  0  0  0
  -17.9718    1.1355  -13.9883 C   0  0  0  0  0  0  0  0  0  0  0  0
  -19.9660    2.1787  -15.1251 C   0  0  0  0  0  0  0  0  0  0  0  0
  -20.5568    2.4466  -13.9285 F   0  0  0  0  0  0  0  0  0  0  0  0
  -20.2535    3.2390  -15.9301 F   0  0  0  0  0  0  0  0  0  0  0  0
  -20.6435    1.1201  -15.6492 F   0  0  0  0  0  0  0  0  0  0  0  0
  -15.4924    2.7010  -16.9420 O   0  0  0  0  0  0  0  0  0  0  0  0
  -15.3365    4.1263  -17.0445 C   0  0  0  0  0  0  0  0  0  0  0  0
  -14.1426    4.6370  -16.2318 C   0  0  0  0  0  0  0  0  0  0  0  0
  -15.0920    4.4368  -18.5215 C   0  0  0  0  0  0  0  0  0  0  0  0
  -14.3456   -7.1267  -10.9707 O   0  0  0  0  0  0  0  0  0  0  0  0
  -13.8394   -7.8520  -12.0381 C   0  0  0  0  0  0  0  0  0  0  0  0
  -12.9764   -8.9334  -11.8385 C   0  0  0  0  0  0  0  0  0  0  0  0
  -12.4544   -9.5526  -12.9463 C   0  0  0  0  0  0  0  0  0  0  0  0
  -12.7935   -9.2233  -14.2006 N   0  0  0  0  0  0  0  0  0  0  0  0
  -13.6812   -8.2341  -14.4038 C   0  0  0  0  0  0  0  0  0  0  0  0
  -14.2362   -7.5206  -13.3405 C   0  0  0  0  0  0  0  0  0  0  0  0
  -14.0511   -7.9272  -15.7301 N   0  0  0  0  0  0  0  0  0  0  0  0
  -13.1591   -7.4222  -16.6667 C   0  0  0  0  0  0  0  0  0  0  0  0
  -11.9782   -7.1531  -16.4918 O   0  0  0  0  0  0  0  0  0  0  0  0
  -15.0063   -8.0860  -16.0005 H   0  0  0  0  0  0  0  0  0  0  0  0
  -13.7346   -7.1963  -18.0382 C   0  0  0  0  0  0  0  0  0  0  0  0
  -12.8752   -6.5368  -19.0956 C   0  0  0  0  0  0  0  0  0  0  0  0
  -14.0190   -5.7788  -18.4886 C   0  0  0  0  0  0  0  0  0  0  0  0
  1  2  1  0  0  0
  2  3  1  0  0  0
  2  7  2  0  0  0
  3  4  2  0  0  0
  4  8  1  0  0  0
  4  5  1  0  0  0
  8  9  1  0  0  0
  8 12  1  0  0  0
  9 10  2  0  0  0
  9 11  1  0  0  0
 11 14  1  0  0  0
 11 13  1  0  0  0
 14 15  1  0  0  0
 14 19  2  0  0  0
 15 16  2  0  0  0
 16 24  1  0  0  0
 16 17  1  0  0  0
 24 25  1  0  0  0
 25 26  1  0  0  0
 25 27  1  0  0  0
 17 18  2  0  0  0
 18 20  1  0  0  0
 18 19  1  0  0  0
 20 21  1  0  0  0
 20 22  1  0  0  0
 20 23  1  0  0  0
  5  6  2  0  0  0
  6  7  1  0  0  0
  7 28  1  0  0  0
 28 29  1  0  0  0
 29 30  1  0  0  0
 29 34  2  0  0  0
 30 31  2  0  0  0
 31 32  1  0  0  0
 32 33  2  0  0  0
 33 35  1  0  0  0
 33 34  1  0  0  0
 35 36  1  0  0  0
 35 38  1  0  0  0
 36 37  2  0  0  0
 36 39  1  0  0  0
 39 40  1  0  0  0
 39 41  1  0  0  0
 40 41  1  0  0  0
M  END
> <minimizedAffinity>
-8.95880

$$$$
