CHEMBL1076533


 37 41  0  0  0  0  0  0  0  0999 V2000
  -16.9004   -0.0750  -14.8541 N   0  0  0  0  0  0  0  0  0  0  0  0
  -16.3275   -0.2192  -15.6836 H   0  0  0  0  0  0  0  0  0  0  0  0
  -16.1760   -0.0124  -13.6786 C   0  0  0  0  0  0  0  0  0  0  0  0
  -15.6037    1.0984  -13.2396 N   0  0  0  0  0  0  0  0  0  0  0  0
  -14.2789    0.7999  -13.4014 C   0  0  0  0  0  0  0  0  0  0  0  0
  -13.1915    1.6533  -13.6048 C   0  0  0  0  0  0  0  0  0  0  0  0
  -11.9562    1.0795  -13.9280 C   0  0  0  0  0  0  0  0  0  0  0  0
  -11.7951   -0.3118  -13.9755 C   0  0  0  0  0  0  0  0  0  0  0  0
  -12.8556   -1.1773  -13.7027 C   0  0  0  0  0  0  0  0  0  0  0  0
  -14.0941   -0.5808  -13.4624 C   0  0  0  0  0  0  0  0  0  0  0  0
  -15.3769   -1.0691  -13.2351 N   0  0  0  0  0  0  0  0  0  0  0  0
  -15.6993   -2.3050  -12.6041 C   0  0  0  0  0  0  0  0  0  0  0  0
  -16.1803   -3.3923  -13.3132 C   0  0  0  0  0  0  0  0  0  0  0  0
  -16.5314   -4.4990  -12.5563 C   0  0  0  0  0  0  0  0  0  0  0  0
  -16.9595   -5.6831  -13.1550 N   0  0  0  0  0  0  0  0  0  0  0  0
  -16.4489   -4.5415  -11.2220 N   0  0  0  0  0  0  0  0  0  0  0  0
  -15.9971   -3.4378  -10.6266 C   0  0  0  0  0  0  0  0  0  0  0  0
  -15.5996   -2.3270  -11.2534 N   0  0  0  0  0  0  0  0  0  0  0  0
  -17.7481   -5.5461  -13.7718 H   0  0  0  0  0  0  0  0  0  0  0  0
  -17.1850   -6.3343  -12.4011 H   0  0  0  0  0  0  0  0  0  0  0  0
  -16.1445    2.5260  -16.1990 C   0  0  0  0  0  0  0  0  0  0  0  0
  -17.5251    2.2068  -15.6955 C   0  0  0  0  0  0  0  0  0  0  0  0
  -18.5076    3.2137  -15.8045 C   0  0  0  0  0  0  0  0  0  0  0  0
  -19.8035    3.0110  -15.3315 C   0  0  0  0  0  0  0  0  0  0  0  0
  -20.1465    1.7909  -14.7503 C   0  0  0  0  0  0  0  0  0  0  0  0
  -19.1930    0.7706  -14.6725 C   0  0  0  0  0  0  0  0  0  0  0  0
  -17.8669    0.9632  -15.1099 C   0  0  0  0  0  0  0  0  0  0  0  0
  -21.5328    1.6066  -14.2380 C   0  0  0  0  0  0  0  0  0  0  0  0
  -22.2332    2.6026  -14.1097 O   0  0  0  0  0  0  0  0  0  0  0  0
  -21.8713    0.3074  -13.8996 N   0  0  0  0  0  0  0  0  0  0  0  0
  -21.1213   -0.3757  -13.8802 H   0  0  0  0  0  0  0  0  0  0  0  0
  -23.1261   -0.1385  -13.4307 C   0  0  0  0  0  0  0  0  0  0  0  0
  -23.5951    0.0935  -12.1348 C   0  0  0  0  0  0  0  0  0  0  0  0
  -24.8409   -0.3958  -11.7302 C   0  0  0  0  0  0  0  0  0  0  0  0
  -25.6319   -1.1184  -12.6186 C   0  0  0  0  0  0  0  0  0  0  0  0
  -25.1845   -1.3385  -13.9184 C   0  0  0  0  0  0  0  0  0  0  0  0
  -23.9416   -0.8427  -14.3260 C   0  0  0  0  0  0  0  0  0  0  0  0
 21 22  1  0  0  0
 22 23  1  0  0  0
 22 27  2  0  0  0
 23 24  2  0  0  0
 24 25  1  0  0  0
 25 28  1  0  0  0
 25 26  2  0  0  0
 28 29  2  0  0  0
 28 30  1  0  0  0
 30 32  1  0  0  0
 30 31  1  0  0  0
 32 33  1  0  0  0
 32 37  2  0  0  0
 33 34  2  0  0  0
 34 35  1  0  0  0
 35 36  2  0  0  0
 36 37  1  0  0  0
 26 27  1  0  0  0
 27  1  1  0  0  0
  1  3  1  0  0  0
  1  2  1  0  0  0
  3  4  2  0  0  0
  3 11  1  0  0  0
  4  5  1  0  0  0
  5  6  1  0  0  0
  5 10  2  0  0  0
  6  7  2  0  0  0
  7  8  1  0  0  0
  8  9  2  0  0  0
  9 10  1  0  0  0
 10 11  1  0  0  0
 11 12  1  0  0  0
 12 13  1  0  0  0
 12 18  2  0  0  0
 13 14  2  0  0  0
 14 15  1  0  0  0
 14 16  1  0  0  0
 15 19  1  0  0  0
 15 20  1  0  0  0
 16 17  2  0  0  0
 17 18  1  0  0  0
M  END
> <minimizedAffinity>
-12.09023

$$$$
