CHEMBL221193


 41 44  0  0  0  0  0  0  0  0999 V2000
  -27.5103   -8.8821   -7.0767 N   0  0  0  0  0  0  0  0  0  0  0  0
  -28.5342   -9.1640   -6.1784 C   0  0  0  0  0  0  0  0  0  0  0  0
  -29.1864  -10.2062   -6.1675 O   0  0  0  0  0  0  0  0  0  0  0  0
  -27.2625   -7.9137   -7.2411 H   0  0  0  0  0  0  0  0  0  0  0  0
  -28.8949   -8.1211   -5.1856 C   0  0  0  0  0  0  0  0  0  0  0  0
  -28.8976   -6.7783   -5.6038 C   0  0  0  0  0  0  0  0  0  0  0  0
  -29.2045   -5.7541   -4.7019 C   0  0  0  0  0  0  0  0  0  0  0  0
  -29.4971   -6.0666   -3.3730 C   0  0  0  0  0  0  0  0  0  0  0  0
  -29.4839   -7.3969   -2.9493 C   0  0  0  0  0  0  0  0  0  0  0  0
  -29.1876   -8.4126   -3.8559 C   0  0  0  0  0  0  0  0  0  0  0  0
  -29.1661   -9.6734   -3.4034 F   0  0  0  0  0  0  0  0  0  0  0  0
  -29.1937   -4.3838   -5.1280 C   0  0  0  0  0  0  0  0  0  0  0  0
  -29.1908   -3.2327   -5.4651 C   0  0  0  0  0  0  0  0  0  0  0  0
  -29.1506   -1.8563   -5.8208 C   0  0  0  0  0  0  0  0  0  0  0  0
  -29.9292   -0.8949   -5.2131 C   0  0  0  0  0  0  0  0  0  0  0  0
  -29.8902    0.4122   -5.5381 N   0  0  0  0  0  0  0  0  0  0  0  0
  -29.0495    0.7656   -6.5189 C   0  0  0  0  0  0  0  0  0  0  0  0
  -28.9917    2.0934   -6.8715 N   0  0  0  0  0  0  0  0  0  0  0  0
  -28.2290   -0.0784   -7.1541 N   0  0  0  0  0  0  0  0  0  0  0  0
  -28.3038   -1.3756   -6.7952 C   0  0  0  0  0  0  0  0  0  0  0  0
  -29.2925    2.6698   -6.0996 H   0  0  0  0  0  0  0  0  0  0  0  0
  -28.0952    2.2978   -7.2878 H   0  0  0  0  0  0  0  0  0  0  0  0
  -26.2830  -10.8519   -7.9514 C   0  0  0  0  0  0  0  0  0  0  0  0
  -26.0716  -11.6550   -9.0965 C   0  0  0  0  0  0  0  0  0  0  0  0
  -26.7657  -11.4746  -10.3025 C   0  0  0  0  0  0  0  0  0  0  0  0
  -27.7158  -10.4642  -10.4214 C   0  0  0  0  0  0  0  0  0  0  0  0
  -27.9158   -9.6221   -9.3248 C   0  0  0  0  0  0  0  0  0  0  0  0
  -27.2046   -9.7908   -8.1181 C   0  0  0  0  0  0  0  0  0  0  0  0
  -24.0603  -10.6569   -4.2982 C   0  0  0  0  0  0  0  0  0  0  0  0
  -25.5821  -10.9304   -4.3599 C   0  0  0  0  0  0  0  0  0  0  0  0
  -26.0367  -11.7178   -5.5888 C   0  0  0  0  0  0  0  0  0  0  0  0
  -25.5258  -11.1034   -6.8122 N   0  0  0  0  0  0  0  0  0  0  0  0
  -24.0660  -10.9462   -6.8347 C   0  0  0  0  0  0  0  0  0  0  0  0
  -23.6450  -10.0586   -5.6651 C   0  0  0  0  0  0  0  0  0  0  0  0
  -21.8073  -11.4539   -3.7628 C   0  0  0  0  0  0  0  0  0  0  0  0
  -23.2290  -11.8270   -3.8814 N   0  0  0  0  0  0  0  0  0  0  0  0
  -23.6488  -12.3608   -2.5752 C   0  0  0  0  0  0  0  0  0  0  0  0
  -28.5255  -10.2677  -11.6753 C   0  0  0  0  0  0  0  0  0  0  0  0
  -27.8358   -9.6531  -12.6790 F   0  0  0  0  0  0  0  0  0  0  0  0
  -28.9633  -11.4470  -12.1997 F   0  0  0  0  0  0  0  0  0  0  0  0
  -29.6407   -9.5122  -11.4765 F   0  0  0  0  0  0  0  0  0  0  0  0
 35 36  1  0  0  0
 36 37  1  0  0  0
 36 29  1  0  0  0
 29 30  1  0  0  0
 29 34  1  0  0  0
 30 31  1  0  0  0
 31 32  1  0  0  0
 32 23  1  0  0  0
 32 33  1  0  0  0
 23 24  1  0  0  0
 23 28  2  0  0  0
 24 25  2  0  0  0
 25 26  1  0  0  0
 26 38  1  0  0  0
 26 27  2  0  0  0
 38 39  1  0  0  0
 38 40  1  0  0  0
 38 41  1  0  0  0
 27 28  1  0  0  0
 28  1  1  0  0  0
  1  2  1  0  0  0
  1  4  1  0  0  0
  2  3  2  0  0  0
  2  5  1  0  0  0
  5  6  1  0  0  0
  5 10  2  0  0  0
  6  7  2  0  0  0
  7 12  1  0  0  0
  7  8  1  0  0  0
 12 13  3  0  0  0
 13 14  1  0  0  0
 14 15  1  0  0  0
 14 20  2  0  0  0
 15 16  2  0  0  0
 16 17  1  0  0  0
 17 18  1  0  0  0
 17 19  2  0  0  0
 18 21  1  0  0  0
 18 22  1  0  0  0
 19 20  1  0  0  0
  8  9  2  0  0  0
  9 10  1  0  0  0
 10 11  1  0  0  0
 33 34  1  0  0  0
M  END
> <minimizedAffinity>
-8.09577

$$$$
