CHEMBL3980816


 26 29  0  0  0  0  0  0  0  0999 V2000
  -23.2848   -0.5877  -13.4814 C   0  0  0  0  0  0  0  0  0  0  0  0
  -23.4621   -0.2152  -12.1466 C   0  0  0  0  0  0  0  0  0  0  0  0
  -24.6665   -0.4782  -11.4763 C   0  0  0  0  0  0  0  0  0  0  0  0
  -25.7343   -1.0545  -12.1929 C   0  0  0  0  0  0  0  0  0  0  0  0
  -27.0655   -1.4850  -11.8982 C   0  0  0  0  0  0  0  0  0  0  0  0
  -27.6785   -1.9422  -13.0012 N   0  0  0  0  0  0  0  0  0  0  0  0
  -26.7614   -1.8109  -13.9699 N   0  0  0  0  0  0  0  0  0  0  0  0
  -25.5586   -1.3206  -13.5430 C   0  0  0  0  0  0  0  0  0  0  0  0
  -24.3542   -1.1026  -14.2242 C   0  0  0  0  0  0  0  0  0  0  0  0
  -27.0201   -2.0843  -14.9109 H   0  0  0  0  0  0  0  0  0  0  0  0
  -27.6804   -1.4468  -10.5993 C   0  0  0  0  0  0  0  0  0  0  0  0
  -27.3732   -2.2929   -9.5993 C   0  0  0  0  0  0  0  0  0  0  0  0
  -27.9732   -2.3232   -8.2563 C   0  0  0  0  0  0  0  0  0  0  0  0
  -27.8666   -1.2641   -7.3461 C   0  0  0  0  0  0  0  0  0  0  0  0
  -28.5326   -1.3117   -6.1167 C   0  0  0  0  0  0  0  0  0  0  0  0
  -29.3168   -2.4149   -5.7856 C   0  0  0  0  0  0  0  0  0  0  0  0
  -29.4311   -3.4751   -6.6800 C   0  0  0  0  0  0  0  0  0  0  0  0
  -28.7654   -3.4275   -7.9074 C   0  0  0  0  0  0  0  0  0  0  0  0
  -22.0985   -0.4375  -14.1689 O   0  0  0  0  0  0  0  0  0  0  0  0
  -17.8403    2.1576  -15.6273 Br  0  0  0  0  0  0  0  0  0  0  0  0
  -19.6350    2.0968  -15.0354 C   0  0  0  0  0  0  0  0  0  0  0  0
  -20.3373    3.2862  -14.8453 C   0  0  0  0  0  0  0  0  0  0  0  0
  -21.6451    3.2446  -14.3653 C   0  0  0  0  0  0  0  0  0  0  0  0
  -22.2461    2.0163  -14.0862 C   0  0  0  0  0  0  0  0  0  0  0  0
  -21.5676    0.8216  -14.3538 C   0  0  0  0  0  0  0  0  0  0  0  0
  -20.2432    0.8651  -14.7947 C   0  0  0  0  0  0  0  0  0  0  0  0
 20 21  1  0  0  0
 21 22  1  0  0  0
 21 26  2  0  0  0
 22 23  2  0  0  0
 23 24  1  0  0  0
 24 25  2  0  0  0
 25 19  1  0  0  0
 25 26  1  0  0  0
 19  1  1  0  0  0
  1  2  1  0  0  0
  1  9  2  0  0  0
  2  3  2  0  0  0
  3  4  1  0  0  0
  4  5  1  0  0  0
  4  8  2  0  0  0
  5 11  1  0  0  0
  5  6  2  0  0  0
 11 12  2  0  0  0
 12 13  1  0  0  0
 13 14  1  0  0  0
 13 18  2  0  0  0
 14 15  2  0  0  0
 15 16  1  0  0  0
 16 17  2  0  0  0
 17 18  1  0  0  0
  6  7  1  0  0  0
  7  8  1  0  0  0
  7 10  1  0  0  0
  8  9  1  0  0  0
M  END
> <minimizedAffinity>
-11.38945

$$$$
