CHEMBL3966071


 35 38  0  0  0  0  0  0  0  0999 V2000
  -28.1399   -2.1311   -8.5825 N   0  0  0  0  0  0  0  0  0  0  0  0
  -28.7657   -3.3523   -8.1013 C   0  0  0  0  0  0  0  0  0  0  0  0
  -29.8353   -3.1261   -7.2259 C   0  0  0  0  0  0  0  0  0  0  0  0
  -30.1392   -4.0497   -6.2430 C   0  0  0  0  0  0  0  0  0  0  0  0
  -29.5682   -5.2913   -6.2114 C   0  0  0  0  0  0  0  0  0  0  0  0
  -29.8349   -5.9786   -5.1015 N   0  0  0  0  0  0  0  0  0  0  0  0
  -29.5508   -7.2867   -5.1274 C   0  0  0  0  0  0  0  0  0  0  0  0
  -29.1354   -7.9150   -6.2820 C   0  0  0  0  0  0  0  0  0  0  0  0
  -28.6731   -7.1755   -7.3586 N   0  0  0  0  0  0  0  0  0  0  0  0
  -28.8235   -5.7719   -7.3178 C   0  0  0  0  0  0  0  0  0  0  0  0
  -28.3391   -4.7125   -8.2182 C   0  0  0  0  0  0  0  0  0  0  0  0
  -29.5539   -9.3235   -6.3895 C   0  0  0  0  0  0  0  0  0  0  0  0
  -29.1131  -10.4977   -5.7340 C   0  0  0  0  0  0  0  0  0  0  0  0
  -29.8803  -11.5655   -5.9944 N   0  0  0  0  0  0  0  0  0  0  0  0
  -30.8227  -11.0892   -6.8257 N   0  0  0  0  0  0  0  0  0  0  0  0
  -31.7215  -12.0008   -7.5033 C   0  0  0  0  0  0  0  0  0  0  0  0
  -30.7817   -9.7217   -6.9423 C   0  0  0  0  0  0  0  0  0  0  0  0
  -31.8981   -8.9438   -7.5437 C   0  0  0  0  0  0  0  0  0  0  0  0
  -25.4324   -1.5831  -11.1396 C   0  0  0  0  0  0  0  0  0  0  0  0
  -26.1476   -1.6940  -12.3325 C   0  0  0  0  0  0  0  0  0  0  0  0
  -27.5237   -1.8974  -12.2962 C   0  0  0  0  0  0  0  0  0  0  0  0
  -28.1861   -1.9795  -11.0595 C   0  0  0  0  0  0  0  0  0  0  0  0
  -27.5126   -1.8618   -9.8307 C   0  0  0  0  0  0  0  0  0  0  0  0
  -26.1195   -1.6441   -9.9034 C   0  0  0  0  0  0  0  0  0  0  0  0
  -23.2906   -2.0020  -12.1426 C   0  0  0  0  0  0  0  0  0  0  0  0
  -24.0647   -1.4546  -11.0706 O   0  0  0  0  0  0  0  0  0  0  0  0
  -28.3308   -2.0679  -13.3917 O   0  0  0  0  0  0  0  0  0  0  0  0
  -27.7777   -1.7560  -14.6664 C   0  0  0  0  0  0  0  0  0  0  0  0
  -27.5659   -1.4035   -7.3708 C   0  0  0  0  0  0  0  0  0  0  0  0
  -27.9459    0.0893   -7.1245 C   0  0  0  0  0  0  0  0  0  0  0  0
  -27.9461    0.6880   -5.7787 N   0  0  0  0  0  0  0  0  0  0  0  0
  -27.5756    1.6368   -5.8308 H   0  0  0  0  0  0  0  0  0  0  0  0
  -29.1828    0.6648   -4.9881 C   0  0  0  0  0  0  0  0  0  0  0  0
  -30.4403    1.1633   -5.7104 C   0  0  0  0  0  0  0  0  0  0  0  0
  -29.4417   -0.7873   -4.5478 C   0  0  0  0  0  0  0  0  0  0  0  0
 25 26  1  0  0  0
 26 19  1  0  0  0
 19 20  1  0  0  0
 19 24  2  0  0  0
 20 21  2  0  0  0
 21 27  1  0  0  0
 21 22  1  0  0  0
 27 28  1  0  0  0
 22 23  2  0  0  0
 23  1  1  0  0  0
 23 24  1  0  0  0
  1 29  1  0  0  0
  1  2  1  0  0  0
 29 30  1  0  0  0
 30 31  1  0  0  0
 31 33  1  0  0  0
 31 32  1  0  0  0
 33 34  1  0  0  0
 33 35  1  0  0  0
  2  3  1  0  0  0
  2 11  2  0  0  0
  3  4  2  0  0  0
  4  5  1  0  0  0
  5  6  1  0  0  0
  5 10  2  0  0  0
  6  7  2  0  0  0
  7  8  1  0  0  0
  8 12  1  0  0  0
  8  9  2  0  0  0
 12 13  1  0  0  0
 12 17  2  0  0  0
 13 14  2  0  0  0
 14 15  1  0  0  0
 15 16  1  0  0  0
 15 17  1  0  0  0
 17 18  1  0  0  0
  9 10  1  0  0  0
 10 11  1  0  0  0
M  END
> <minimizedAffinity>
-7.50473

$$$$
