CHEMBL4283873


 26 28  0  0  0  0  0  0  0  0999 V2000
  -34.9700    5.5568  -10.2771 C   0  0  0  0  0  0  0  0  0  0  0  0
  -35.3911    4.2264  -10.2478 C   0  0  0  0  0  0  0  0  0  0  0  0
  -34.5810    3.2415   -9.6800 C   0  0  0  0  0  0  0  0  0  0  0  0
  -33.3007    3.5539   -9.2127 C   0  0  0  0  0  0  0  0  0  0  0  0
  -32.8506    4.8770   -9.3219 C   0  0  0  0  0  0  0  0  0  0  0  0
  -33.6790    5.8727   -9.8538 C   0  0  0  0  0  0  0  0  0  0  0  0
  -32.4500    2.5641   -8.5355 C   0  0  0  0  0  0  0  0  0  0  0  0
  -31.6432    2.8298   -7.4946 C   0  0  0  0  0  0  0  0  0  0  0  0
  -30.7588    1.8368   -6.8645 C   0  0  0  0  0  0  0  0  0  0  0  0
  -29.4256    1.6712   -7.2474 C   0  0  0  0  0  0  0  0  0  0  0  0
  -28.6453    0.7509   -6.5665 C   0  0  0  0  0  0  0  0  0  0  0  0
  -29.0932    0.0004   -5.5393 N   0  0  0  0  0  0  0  0  0  0  0  0
  -30.3789    0.1844   -5.1746 C   0  0  0  0  0  0  0  0  0  0  0  0
  -31.2378    1.0797   -5.7936 C   0  0  0  0  0  0  0  0  0  0  0  0
  -35.7389    6.6032  -10.7383 O   0  0  0  0  0  0  0  0  0  0  0  0
  -33.6741    9.2214  -12.3046 C   0  0  0  0  0  0  0  0  0  0  0  0
  -34.0714    8.2985  -11.3469 C   0  0  0  0  0  0  0  0  0  0  0  0
  -35.2002    7.5247  -11.6110 C   0  0  0  0  0  0  0  0  0  0  0  0
  -35.8213    7.6318  -12.8504 C   0  0  0  0  0  0  0  0  0  0  0  0
  -35.3318    8.5565  -13.7570 C   0  0  0  0  0  0  0  0  0  0  0  0
  -34.2837    9.3748  -13.5131 N   0  0  0  0  0  0  0  0  0  0  0  0
  -30.3600   10.9841  -12.8044 C   0  0  0  0  0  0  0  0  0  0  0  0
  -31.5418   10.1823  -12.9728 N   0  0  0  0  0  0  0  0  0  0  0  0
  -32.5213   10.1313  -12.0059 C   0  0  0  0  0  0  0  0  0  0  0  0
  -32.4812   10.7874  -10.9677 O   0  0  0  0  0  0  0  0  0  0  0  0
  -31.7014    9.6472  -13.8224 H   0  0  0  0  0  0  0  0  0  0  0  0
 22 23  1  0  0  0
 23 24  1  0  0  0
 23 26  1  0  0  0
 24 25  2  0  0  0
 24 16  1  0  0  0
 16 17  1  0  0  0
 16 21  2  0  0  0
 17 18  2  0  0  0
 18 15  1  0  0  0
 18 19  1  0  0  0
 15  1  1  0  0  0
  1  2  1  0  0  0
  1  6  2  0  0  0
  2  3  2  0  0  0
  3  4  1  0  0  0
  4  7  1  0  0  0
  4  5  2  0  0  0
  7  8  2  0  0  0
  8  9  1  0  0  0
  9 10  1  0  0  0
  9 14  2  0  0  0
 10 11  2  0  0  0
 11 12  1  0  0  0
 12 13  2  0  0  0
 13 14  1  0  0  0
  5  6  1  0  0  0
 19 20  2  0  0  0
 20 21  1  0  0  0
M  END
> <minimizedAffinity>
-5.31369

$$$$
