CHEMBL3896052


 34 37  0  0  0  0  0  0  0  0999 V2000
  -12.9307   -2.7482  -12.7866 C   0  0  0  0  0  0  0  0  0  0  0  0
  -12.0217   -1.7333  -13.1579 C   0  0  0  0  0  0  0  0  0  0  0  0
  -12.3618   -0.5736  -13.7416 C   0  0  0  0  0  0  0  0  0  0  0  0
  -13.6483   -0.2333  -13.9422 C   0  0  0  0  0  0  0  0  0  0  0  0
  -13.8084    0.9351  -14.5579 N   0  0  0  0  0  0  0  0  0  0  0  0
  -14.9989    1.4422  -14.8187 C   0  0  0  0  0  0  0  0  0  0  0  0
  -16.1627    0.7778  -14.4383 C   0  0  0  0  0  0  0  0  0  0  0  0
  -16.0192   -0.4778  -13.7691 N   0  0  0  0  0  0  0  0  0  0  0  0
  -14.7450   -1.0325  -13.5373 C   0  0  0  0  0  0  0  0  0  0  0  0
  -14.3739   -2.3503  -12.9211 C   0  0  0  0  0  0  0  0  0  0  0  0
  -17.4171    1.5972  -14.8281 C   0  0  0  0  0  0  0  0  0  0  0  0
  -17.5920    2.8735  -15.3517 C   0  0  0  0  0  0  0  0  0  0  0  0
  -18.9268    3.1308  -15.4924 N   0  0  0  0  0  0  0  0  0  0  0  0
  -19.6233    2.0774  -15.0874 N   0  0  0  0  0  0  0  0  0  0  0  0
  -18.7530    1.1287  -14.6943 C   0  0  0  0  0  0  0  0  0  0  0  0
  -21.1136    2.0317  -14.9805 C   0  0  0  0  0  0  0  0  0  0  0  0
  -21.6991    0.7970  -14.2463 C   0  0  0  0  0  0  0  0  0  0  0  0
  -21.6310    3.2966  -14.2724 C   0  0  0  0  0  0  0  0  0  0  0  0
  -12.2708   -4.0417  -12.3770 N   0  0  0  0  0  0  0  0  0  0  0  0
  -12.2817   -5.3699  -13.0204 C   0  0  0  0  0  0  0  0  0  0  0  0
  -12.9020   -5.5224  -14.3033 C   0  0  0  0  0  0  0  0  0  0  0  0
  -13.1026   -6.7345  -14.9478 C   0  0  0  0  0  0  0  0  0  0  0  0
  -12.5606   -7.8709  -14.3937 C   0  0  0  0  0  0  0  0  0  0  0  0
  -11.8167   -7.7913  -13.1987 C   0  0  0  0  0  0  0  0  0  0  0  0
  -11.6973   -6.5475  -12.5020 C   0  0  0  0  0  0  0  0  0  0  0  0
  -13.8473   -6.8340  -16.0948 O   0  0  0  0  0  0  0  0  0  0  0  0
  -13.6358   -7.7486  -17.1255 C   0  0  0  0  0  0  0  0  0  0  0  0
  -11.1876   -8.8973  -12.7176 O   0  0  0  0  0  0  0  0  0  0  0  0
  -11.8253   -9.9892  -12.1530 C   0  0  0  0  0  0  0  0  0  0  0  0
  -11.4492   -3.9922  -11.1030 C   0  0  0  0  0  0  0  0  0  0  0  0
  -12.2202   -3.8130   -9.7658 C   0  0  0  0  0  0  0  0  0  0  0  0
  -11.5041   -3.0078   -7.6508 C   0  0  0  0  0  0  0  0  0  0  0  0
  -11.7542   -2.6318   -9.0418 N   0  0  0  0  0  0  0  0  0  0  0  0
  -10.8470   -2.3350   -9.4683 H   0  0  0  0  0  0  0  0  0  0  0  0
 32 33  1  0  0  0
 33 31  1  0  0  0
 33 34  1  0  0  0
 31 30  1  0  0  0
 30 19  1  0  0  0
 19 20  1  0  0  0
 19  1  1  0  0  0
 20 21  1  0  0  0
 20 25  2  0  0  0
 21 22  2  0  0  0
 22 26  1  0  0  0
 22 23  1  0  0  0
 26 27  1  0  0  0
 23 24  2  0  0  0
 24 28  1  0  0  0
 24 25  1  0  0  0
 28 29  1  0  0  0
  1  2  1  0  0  0
  1 10  2  0  0  0
  2  3  2  0  0  0
  3  4  1  0  0  0
  4  5  1  0  0  0
  4  9  2  0  0  0
  5  6  2  0  0  0
  6  7  1  0  0  0
  7 11  1  0  0  0
  7  8  2  0  0  0
 11 12  1  0  0  0
 11 15  2  0  0  0
 12 13  2  0  0  0
 13 14  1  0  0  0
 14 16  1  0  0  0
 14 15  1  0  0  0
 16 17  1  0  0  0
 16 18  1  0  0  0
  8  9  1  0  0  0
  9 10  1  0  0  0
M  END
> <minimizedAffinity>
-7.13865

$$$$
