CHEMBL3702659


 33 36  0  0  0  0  0  0  0  0999 V2000
  -29.2958   -4.9630   -4.5550 C   0  0  0  0  0  0  0  0  0  0  0  0
  -28.8973   -4.2222   -5.8076 C   0  0  0  0  0  0  0  0  0  0  0  0
  -28.4335   -2.8942   -5.6727 C   0  0  0  0  0  0  0  0  0  0  0  0
  -27.9821   -2.1644   -6.7756 C   0  0  0  0  0  0  0  0  0  0  0  0
  -28.0119   -2.7554   -8.0340 C   0  0  0  0  0  0  0  0  0  0  0  0
  -28.4953   -4.0692   -8.1763 C   0  0  0  0  0  0  0  0  0  0  0  0
  -28.9299   -4.8354   -7.0820 C   0  0  0  0  0  0  0  0  0  0  0  0
  -29.3162   -6.1730   -7.2335 N   0  0  0  0  0  0  0  0  0  0  0  0
  -28.4269   -7.0712   -7.9946 C   0  0  0  0  0  0  0  0  0  0  0  0
  -28.6296   -8.4957   -7.4796 C   0  0  0  0  0  0  0  0  0  0  0  0
  -30.0873   -8.8459   -7.3277 C   0  0  0  0  0  0  0  0  0  0  0  0
  -30.3700  -10.1496   -7.1047 N   0  0  0  0  0  0  0  0  0  0  0  0
  -31.6617  -10.4718   -6.8914 C   0  0  0  0  0  0  0  0  0  0  0  0
  -32.6778   -9.5827   -6.8995 N   0  0  0  0  0  0  0  0  0  0  0  0
  -32.3504   -8.2966   -7.1315 C   0  0  0  0  0  0  0  0  0  0  0  0
  -31.0594   -7.8563   -7.3315 C   0  0  0  0  0  0  0  0  0  0  0  0
  -30.7319   -6.4088   -7.5718 C   0  0  0  0  0  0  0  0  0  0  0  0
  -31.9788  -11.9084   -6.5538 C   0  0  0  0  0  0  0  0  0  0  0  0
  -33.7632  -12.2350   -6.4242 S   0  0  0  0  0  0  0  0  0  0  0  0
  -34.0121  -11.2187   -5.5831 H   0  0  0  0  0  0  0  0  0  0  0  0
  -27.6299   -2.0353   -9.2769 C   0  0  0  0  0  0  0  0  0  0  0  0
  -28.0275   -0.8784   -9.3760 O   0  0  0  0  0  0  0  0  0  0  0  0
  -26.9210   -2.7448  -10.2395 N   0  0  0  0  0  0  0  0  0  0  0  0
  -26.8261   -3.7412  -10.1152 H   0  0  0  0  0  0  0  0  0  0  0  0
  -26.5216   -2.2174  -11.5014 C   0  0  0  0  0  0  0  0  0  0  0  0
  -27.4022   -2.1134  -12.5813 C   0  0  0  0  0  0  0  0  0  0  0  0
  -26.9683   -1.6490  -13.8209 C   0  0  0  0  0  0  0  0  0  0  0  0
  -25.6418   -1.2727  -14.0002 C   0  0  0  0  0  0  0  0  0  0  0  0
  -24.7329   -1.3422  -12.9346 C   0  0  0  0  0  0  0  0  0  0  0  0
  -25.1936   -1.7922  -11.6762 C   0  0  0  0  0  0  0  0  0  0  0  0
  -23.2674   -0.9943  -13.1548 C   0  0  0  0  0  0  0  0  0  0  0  0
  -23.1058   -0.0036  -14.3156 C   0  0  0  0  0  0  0  0  0  0  0  0
  -22.6058   -0.4340  -11.8910 C   0  0  0  0  0  0  0  0  0  0  0  0
  1  2  1  0  0  0
  2  3  1  0  0  0
  2  7  2  0  0  0
  3  4  2  0  0  0
  4  5  1  0  0  0
  5 21  1  0  0  0
  5  6  2  0  0  0
 21 22  2  0  0  0
 21 23  1  0  0  0
 23 25  1  0  0  0
 23 24  1  0  0  0
 25 26  1  0  0  0
 25 30  2  0  0  0
 26 27  2  0  0  0
 27 28  1  0  0  0
 28 29  2  0  0  0
 29 31  1  0  0  0
 29 30  1  0  0  0
 31 32  1  0  0  0
 31 33  1  0  0  0
  6  7  1  0  0  0
  7  8  1  0  0  0
  8  9  1  0  0  0
  8 17  1  0  0  0
  9 10  1  0  0  0
 10 11  1  0  0  0
 11 12  1  0  0  0
 11 16  2  0  0  0
 12 13  2  0  0  0
 13 18  1  0  0  0
 13 14  1  0  0  0
 18 19  1  0  0  0
 19 20  1  0  0  0
 14 15  2  0  0  0
 15 16  1  0  0  0
 16 17  1  0  0  0
M  END
> <minimizedAffinity>
-10.19502

$$$$
