CHEMBL4764463


 49 55  0  0  0  0  0  0  0  0999 V2000
  -27.7960   -1.9587   -9.1082 C   0  0  0  0  0  0  0  0  0  0  0  0
  -27.6546   -3.3325   -9.2983 C   0  0  0  0  0  0  0  0  0  0  0  0
  -27.9673   -4.2257   -8.2697 C   0  0  0  0  0  0  0  0  0  0  0  0
  -28.3411   -3.7706   -7.0041 C   0  0  0  0  0  0  0  0  0  0  0  0
  -28.4611   -2.3924   -6.8007 C   0  0  0  0  0  0  0  0  0  0  0  0
  -28.1939   -1.5057   -7.8471 C   0  0  0  0  0  0  0  0  0  0  0  0
  -28.3405   -0.1909   -7.6225 F   0  0  0  0  0  0  0  0  0  0  0  0
  -28.5624   -4.6375   -5.9122 N   0  0  0  0  0  0  0  0  0  0  0  0
  -29.5805   -5.5745   -5.8108 C   0  0  0  0  0  0  0  0  0  0  0  0
  -30.5111   -5.7411   -6.5856 O   0  0  0  0  0  0  0  0  0  0  0  0
  -27.8684   -4.6308   -5.1740 H   0  0  0  0  0  0  0  0  0  0  0  0
  -29.4869   -6.4589   -4.6179 C   0  0  0  0  0  0  0  0  0  0  0  0
  -30.5698   -6.4423   -3.5507 C   0  0  0  0  0  0  0  0  0  0  0  0
  -29.2553   -5.8108   -3.2553 C   0  0  0  0  0  0  0  0  0  0  0  0
  -28.7162   -7.7424   -4.9099 C   0  0  0  0  0  0  0  0  0  0  0  0
  -29.2092   -8.8185   -5.4892 N   0  0  0  0  0  0  0  0  0  0  0  0
  -28.1843   -9.7451   -5.5435 N   0  0  0  0  0  0  0  0  0  0  0  0
  -27.1339   -9.1657   -4.9931 C   0  0  0  0  0  0  0  0  0  0  0  0
  -27.3942   -7.8921   -4.5858 O   0  0  0  0  0  0  0  0  0  0  0  0
  -25.7721   -9.6536   -4.7894 C   0  0  0  0  0  0  0  0  0  0  0  0
  -25.2478   -9.7562   -3.4910 C   0  0  0  0  0  0  0  0  0  0  0  0
  -23.9618  -10.2632   -3.2825 C   0  0  0  0  0  0  0  0  0  0  0  0
  -23.1957  -10.6641   -4.3703 C   0  0  0  0  0  0  0  0  0  0  0  0
  -21.9699  -11.1637   -4.1684 F   0  0  0  0  0  0  0  0  0  0  0  0
  -23.6846  -10.5570   -5.6655 C   0  0  0  0  0  0  0  0  0  0  0  0
  -24.9687  -10.0492   -5.8749 C   0  0  0  0  0  0  0  0  0  0  0  0
  -27.6087   -0.9974  -10.0843 O   0  0  0  0  0  0  0  0  0  0  0  0
  -24.0897   -0.2843  -12.4968 C   0  0  0  0  0  0  0  0  0  0  0  0
  -25.1331   -0.6722  -11.6659 C   0  0  0  0  0  0  0  0  0  0  0  0
  -26.3245   -1.2134  -12.1815 C   0  0  0  0  0  0  0  0  0  0  0  0
  -27.4952   -1.3790  -11.4099 C   0  0  0  0  0  0  0  0  0  0  0  0
  -28.6182   -1.9763  -11.9665 C   0  0  0  0  0  0  0  0  0  0  0  0
  -28.5600   -2.3335  -13.2983 C   0  0  0  0  0  0  0  0  0  0  0  0
  -27.4845   -2.1223  -14.0882 N   0  0  0  0  0  0  0  0  0  0  0  0
  -26.3900   -1.5604  -13.5443 C   0  0  0  0  0  0  0  0  0  0  0  0
  -25.2862   -1.2976  -14.3441 C   0  0  0  0  0  0  0  0  0  0  0  0
  -24.1385   -0.6551  -13.8527 C   0  0  0  0  0  0  0  0  0  0  0  0
  -21.9518   -0.2698  -11.3860 C   0  0  0  0  0  0  0  0  0  0  0  0
  -23.0279    0.4245  -12.0092 O   0  0  0  0  0  0  0  0  0  0  0  0
  -23.1664   -0.4667  -14.8141 O   0  0  0  0  0  0  0  0  0  0  0  0
  -22.4985    0.7844  -14.7518 C   0  0  0  0  0  0  0  0  0  0  0  0
  -20.9876    0.6559  -14.8560 C   0  0  0  0  0  0  0  0  0  0  0  0
  -20.4012    1.8278  -14.0579 C   0  0  0  0  0  0  0  0  0  0  0  0
  -18.9998    2.1559  -14.3392 N   0  0  0  0  0  0  0  0  0  0  0  0
  -18.2349    0.9625  -14.7148 C   0  0  0  0  0  0  0  0  0  0  0  0
  -16.7947    1.2987  -15.0955 C   0  0  0  0  0  0  0  0  0  0  0  0
  -16.7489    2.3374  -16.2066 C   0  0  0  0  0  0  0  0  0  0  0  0
  -17.5477    3.5665  -15.7974 C   0  0  0  0  0  0  0  0  0  0  0  0
  -18.9697    3.1793  -15.4048 C   0  0  0  0  0  0  0  0  0  0  0  0
 38 39  1  0  0  0
 39 28  1  0  0  0
 28 29  1  0  0  0
 28 37  2  0  0  0
 29 30  2  0  0  0
 30 31  1  0  0  0
 30 35  1  0  0  0
 31 27  1  0  0  0
 31 32  2  0  0  0
 27  1  1  0  0  0
  1  2  1  0  0  0
  1  6  2  0  0  0
  2  3  2  0  0  0
  3  4  1  0  0  0
  4  8  1  0  0  0
  4  5  2  0  0  0
  8  9  1  0  0  0
  8 11  1  0  0  0
  9 10  2  0  0  0
  9 12  1  0  0  0
 12 15  1  0  0  0
 12 13  1  0  0  0
 12 14  1  0  0  0
 15 16  2  0  0  0
 15 19  1  0  0  0
 16 17  1  0  0  0
 17 18  2  0  0  0
 18 20  1  0  0  0
 18 19  1  0  0  0
 20 21  1  0  0  0
 20 26  2  0  0  0
 21 22  2  0  0  0
 22 23  1  0  0  0
 23 24  1  0  0  0
 23 25  2  0  0  0
 25 26  1  0  0  0
 13 14  1  0  0  0
  5  6  1  0  0  0
  6  7  1  0  0  0
 32 33  1  0  0  0
 33 34  2  0  0  0
 34 35  1  0  0  0
 35 36  2  0  0  0
 36 37  1  0  0  0
 37 40  1  0  0  0
 40 41  1  0  0  0
 41 42  1  0  0  0
 42 43  1  0  0  0
 43 44  1  0  0  0
 44 45  1  0  0  0
 44 49  1  0  0  0
 45 46  1  0  0  0
 46 47  1  0  0  0
 47 48  1  0  0  0
 48 49  1  0  0  0
M  END
> <minimizedAffinity>
-8.07061

$$$$
