CHEMBL4059790


 44 50  0  0  0  0  0  0  0  0999 V2000
  -14.1049   -3.0458  -11.7123 N   0  0  0  0  0  0  0  0  0  0  0  0
  -14.3082   -2.5784  -12.9714 N   0  0  0  0  0  0  0  0  0  0  0  0
  -15.4726   -1.9559  -12.8649 C   0  0  0  0  0  0  0  0  0  0  0  0
  -16.0532   -2.0365  -11.6337 N   0  0  0  0  0  0  0  0  0  0  0  0
  -15.1946   -2.7130  -10.9190 C   0  0  0  0  0  0  0  0  0  0  0  0
  -15.3165   -2.9878   -9.6041 N   0  0  0  0  0  0  0  0  0  0  0  0
  -16.2421   -2.8628   -9.2051 H   0  0  0  0  0  0  0  0  0  0  0  0
  -14.8007   -3.7829   -9.2248 H   0  0  0  0  0  0  0  0  0  0  0  0
  -13.0523   -8.0633  -11.7413 C   0  0  0  0  0  0  0  0  0  0  0  0
  -12.0179   -7.3484  -11.1061 C   0  0  0  0  0  0  0  0  0  0  0  0
  -12.0023   -5.9635  -11.0103 C   0  0  0  0  0  0  0  0  0  0  0  0
  -11.0001   -5.3685  -10.3404 N   0  0  0  0  0  0  0  0  0  0  0  0
  -11.0097   -4.0380  -10.2582 C   0  0  0  0  0  0  0  0  0  0  0  0
  -11.9424   -3.2282  -10.7715 N   0  0  0  0  0  0  0  0  0  0  0  0
  -12.9822   -3.8533  -11.3852 C   0  0  0  0  0  0  0  0  0  0  0  0
  -13.0405   -5.2446  -11.5972 C   0  0  0  0  0  0  0  0  0  0  0  0
  -14.0100   -5.9644  -12.3551 C   0  0  0  0  0  0  0  0  0  0  0  0
  -14.0354   -7.3561  -12.4215 C   0  0  0  0  0  0  0  0  0  0  0  0
  -11.9930  -10.0786  -12.3729 C   0  0  0  0  0  0  0  0  0  0  0  0
  -13.0882   -9.4303  -11.7237 O   0  0  0  0  0  0  0  0  0  0  0  0
  -15.0970   -7.8027  -13.1583 O   0  0  0  0  0  0  0  0  0  0  0  0
  -15.5250   -7.0714  -14.2926 C   0  0  0  0  0  0  0  0  0  0  0  0
  -16.0732   -1.3278  -13.8875 N   0  0  0  0  0  0  0  0  0  0  0  0
  -16.8557   -1.8134  -14.3103 H   0  0  0  0  0  0  0  0  0  0  0  0
  -15.7038   -0.1406  -14.5309 C   0  0  0  0  0  0  0  0  0  0  0  0
  -14.3951    0.0297  -14.9607 C   0  0  0  0  0  0  0  0  0  0  0  0
  -14.0299    1.1694  -15.6861 C   0  0  0  0  0  0  0  0  0  0  0  0
  -14.9479    2.1819  -16.0480 C   0  0  0  0  0  0  0  0  0  0  0  0
  -16.2812    1.9632  -15.6358 C   0  0  0  0  0  0  0  0  0  0  0  0
  -17.6405    2.9518  -16.0840 Cl  0  0  0  0  0  0  0  0  0  0  0  0
  -16.6316    0.8411  -14.8763 C   0  0  0  0  0  0  0  0  0  0  0  0
  -14.4597    3.3145  -16.6934 N   0  0  0  0  0  0  0  0  0  0  0  0
  -14.6642    3.4967  -18.1430 C   0  0  0  0  0  0  0  0  0  0  0  0
  -13.4719    4.2799  -18.7447 C   0  0  0  0  0  0  0  0  0  0  0  0
  -13.2048    5.5968  -18.1080 N   0  0  0  0  0  0  0  0  0  0  0  0
  -13.0044    5.3404  -16.6633 C   0  0  0  0  0  0  0  0  0  0  0  0
  -14.1296    4.5486  -15.9609 C   0  0  0  0  0  0  0  0  0  0  0  0
  -14.2810    6.5616  -18.3744 C   0  0  0  0  0  0  0  0  0  0  0  0
  -14.8921    6.4041  -19.7926 C   0  0  0  0  0  0  0  0  0  0  0  0
  -14.8209    7.8266  -20.3701 C   0  0  0  0  0  0  0  0  0  0  0  0
  -13.3507    8.1492  -20.6927 C   0  0  0  0  0  0  0  0  0  0  0  0
  -12.7363    8.3821  -19.3076 C   0  0  0  0  0  0  0  0  0  0  0  0
  -13.9025    8.0714  -18.3575 C   0  0  0  0  0  0  0  0  0  0  0  0
  -15.0766    8.6808  -19.1315 C   0  0  0  0  0  0  0  0  0  0  0  0
 19 20  1  0  0  0
 20  9  1  0  0  0
  9 10  1  0  0  0
  9 18  2  0  0  0
 10 11  2  0  0  0
 11 12  1  0  0  0
 11 16  1  0  0  0
 12 13  2  0  0  0
 13 14  1  0  0  0
 14 15  2  0  0  0
 15  1  1  0  0  0
 15 16  1  0  0  0
  1  2  1  0  0  0
  1  5  1  0  0  0
  2  3  2  0  0  0
  3 23  1  0  0  0
  3  4  1  0  0  0
 23 25  1  0  0  0
 23 24  1  0  0  0
 25 26  1  0  0  0
 25 31  2  0  0  0
 26 27  2  0  0  0
 27 28  1  0  0  0
 28 32  1  0  0  0
 28 29  2  0  0  0
 32 33  1  0  0  0
 32 37  1  0  0  0
 33 34  1  0  0  0
 34 35  1  0  0  0
 35 38  1  0  0  0
 35 36  1  0  0  0
 38 39  1  0  0  0
 38 43  1  0  0  0
 39 40  1  0  0  0
 40 41  1  0  0  0
 40 44  1  0  0  0
 41 42  1  0  0  0
 42 43  1  0  0  0
 43 44  1  0  0  0
 36 37  1  0  0  0
 29 30  1  0  0  0
 29 31  1  0  0  0
  4  5  2  0  0  0
  5  6  1  0  0  0
  6  7  1  0  0  0
  6  8  1  0  0  0
 16 17  2  0  0  0
 17 18  1  0  0  0
 18 21  1  0  0  0
 21 22  1  0  0  0
M  END
> <minimizedAffinity>
-8.53699

$$$$
