CHEMBL3354191


 31 34  0  0  0  0  0  0  0  0999 V2000
  -17.5210    0.4796  -15.3171 N   0  0  0  0  0  0  0  0  0  0  0  0
  -17.2732    0.7403  -16.2618 H   0  0  0  0  0  0  0  0  0  0  0  0
  -18.7246    1.1072  -14.9671 C   0  0  0  0  0  0  0  0  0  0  0  0
  -19.8930    0.3747  -14.7762 C   0  0  0  0  0  0  0  0  0  0  0  0
  -21.0230    1.0811  -14.3759 C   0  0  0  0  0  0  0  0  0  0  0  0
  -21.0084    2.4644  -14.2566 C   0  0  0  0  0  0  0  0  0  0  0  0
  -19.8211    3.1445  -14.5422 C   0  0  0  0  0  0  0  0  0  0  0  0
  -18.6931    2.4556  -14.8783 N   0  0  0  0  0  0  0  0  0  0  0  0
  -22.3213    2.7964  -13.8458 C   0  0  0  0  0  0  0  0  0  0  0  0
  -22.7663    4.0420  -13.6135 N   0  0  0  0  0  0  0  0  0  0  0  0
  -23.0973    1.7260  -13.7053 N   0  0  0  0  0  0  0  0  0  0  0  0
  -22.2830    0.6911  -14.0001 N   0  0  0  0  0  0  0  0  0  0  0  0
  -22.3057    4.8494  -14.0027 H   0  0  0  0  0  0  0  0  0  0  0  0
  -23.7698    4.1445  -13.5129 H   0  0  0  0  0  0  0  0  0  0  0  0
  -22.7632   -0.6805  -13.8441 C   0  0  0  0  0  0  0  0  0  0  0  0
  -22.7685   -1.1138  -12.3788 C   0  0  0  0  0  0  0  0  0  0  0  0
  -24.1349   -0.8803  -14.4873 C   0  0  0  0  0  0  0  0  0  0  0  0
  -15.1975   -1.4103  -13.2960 C   0  0  0  0  0  0  0  0  0  0  0  0
  -14.2283   -0.5251  -13.0379 N   0  0  0  0  0  0  0  0  0  0  0  0
  -14.3803    0.7175  -13.5291 C   0  0  0  0  0  0  0  0  0  0  0  0
  -15.4748    1.1187  -14.2527 C   0  0  0  0  0  0  0  0  0  0  0  0
  -16.4307    0.1604  -14.4885 C   0  0  0  0  0  0  0  0  0  0  0  0
  -16.2813   -1.0870  -14.0125 N   0  0  0  0  0  0  0  0  0  0  0  0
  -16.4236   -5.0978  -12.0367 C   0  0  0  0  0  0  0  0  0  0  0  0
  -16.4625   -4.5979  -13.4824 C   0  0  0  0  0  0  0  0  0  0  0  0
  -15.1831   -3.8180  -13.7736 C   0  0  0  0  0  0  0  0  0  0  0  0
  -15.0772   -2.7012  -12.8440 N   0  0  0  0  0  0  0  0  0  0  0  0
  -15.1072   -3.0046  -11.4203 C   0  0  0  0  0  0  0  0  0  0  0  0
  -16.3133   -3.8913  -11.0936 C   0  0  0  0  0  0  0  0  0  0  0  0
  -15.2876   -7.0224  -12.9413 C   0  0  0  0  0  0  0  0  0  0  0  0
  -15.3110   -5.9982  -11.9654 O   0  0  0  0  0  0  0  0  0  0  0  0
 30 31  1  0  0  0
 31 24  1  0  0  0
 24 25  1  0  0  0
 24 29  1  0  0  0
 25 26  1  0  0  0
 26 27  1  0  0  0
 27 18  1  0  0  0
 27 28  1  0  0  0
 18 19  1  0  0  0
 18 23  2  0  0  0
 19 20  2  0  0  0
 20 21  1  0  0  0
 21 22  2  0  0  0
 22  1  1  0  0  0
 22 23  1  0  0  0
  1  3  1  0  0  0
  1  2  1  0  0  0
  3  4  1  0  0  0
  3  8  2  0  0  0
  4  5  2  0  0  0
  5  6  1  0  0  0
  5 12  1  0  0  0
  6  7  2  0  0  0
  6  9  1  0  0  0
  7  8  1  0  0  0
  9 10  1  0  0  0
  9 11  2  0  0  0
 10 13  1  0  0  0
 10 14  1  0  0  0
 11 12  1  0  0  0
 12 15  1  0  0  0
 15 16  1  0  0  0
 15 17  1  0  0  0
 28 29  1  0  0  0
M  END
> <minimizedAffinity>
-8.11778

$$$$
