CHEMBL265431


 32 36  0  0  0  0  0  0  0  0999 V2000
  -29.5514   -7.6102   -4.6544 C   0  0  0  0  0  0  0  0  0  0  0  0
  -28.7939   -8.3418   -3.7753 C   0  0  0  0  0  0  0  0  0  0  0  0
  -28.5465   -9.5515   -4.3445 N   0  0  0  0  0  0  0  0  0  0  0  0
  -27.8458  -10.5166   -3.7349 N   0  0  0  0  0  0  0  0  0  0  0  0
  -27.6686  -11.5726   -4.4573 C   0  0  0  0  0  0  0  0  0  0  0  0
  -28.0997  -11.7506   -5.7367 N   0  0  0  0  0  0  0  0  0  0  0  0
  -28.8031  -10.8327   -6.3389 C   0  0  0  0  0  0  0  0  0  0  0  0
  -29.0907   -9.6157   -5.6041 C   0  0  0  0  0  0  0  0  0  0  0  0
  -29.7626   -8.4063   -5.8472 C   0  0  0  0  0  0  0  0  0  0  0  0
  -30.0139   -4.1003   -4.0357 C   0  0  0  0  0  0  0  0  0  0  0  0
  -31.2519   -4.5135   -3.8687 N   0  0  0  0  0  0  0  0  0  0  0  0
  -31.2416   -5.8701   -4.0781 N   0  0  0  0  0  0  0  0  0  0  0  0
  -29.9974   -6.2148   -4.3473 C   0  0  0  0  0  0  0  0  0  0  0  0
  -29.1561   -5.1259   -4.3253 O   0  0  0  0  0  0  0  0  0  0  0  0
  -29.6074   -1.9737   -5.6763 C   0  0  0  0  0  0  0  0  0  0  0  0
  -29.5096   -2.4417   -3.9319 S   0  0  0  0  0  0  0  0  0  0  0  0
  -30.4955   -7.8554   -7.0636 C   0  0  0  0  0  0  0  0  0  0  0  0
  -32.0093   -8.0406   -6.9309 C   0  0  0  0  0  0  0  0  0  0  0  0
  -30.1617   -6.4450   -7.5246 C   0  0  0  0  0  0  0  0  0  0  0  0
  -29.2561  -11.0848   -7.6175 N   0  0  0  0  0  0  0  0  0  0  0  0
  -29.4654  -12.0654   -7.7540 H   0  0  0  0  0  0  0  0  0  0  0  0
  -28.6708  -10.5128   -8.7753 C   0  0  0  0  0  0  0  0  0  0  0  0
  -27.4900   -9.7578   -8.7294 C   0  0  0  0  0  0  0  0  0  0  0  0
  -26.8448   -9.1878   -9.7817 N   0  0  0  0  0  0  0  0  0  0  0  0
  -27.4540   -9.4434  -10.9520 C   0  0  0  0  0  0  0  0  0  0  0  0
  -26.9769   -9.0561  -12.1744 N   0  0  0  0  0  0  0  0  0  0  0  0
  -27.7860   -9.5504  -13.1716 C   0  0  0  0  0  0  0  0  0  0  0  0
  -27.4526   -9.4085  -14.6091 C   0  0  0  0  0  0  0  0  0  0  0  0
  -28.8561  -10.1776  -12.5579 C   0  0  0  0  0  0  0  0  0  0  0  0
  -28.6337  -10.1464  -11.1557 C   0  0  0  0  0  0  0  0  0  0  0  0
  -29.2857  -10.6684  -10.0243 C   0  0  0  0  0  0  0  0  0  0  0  0
  -26.1200   -8.5368  -12.2953 H   0  0  0  0  0  0  0  0  0  0  0  0
 15 16  1  0  0  0
 16 10  1  0  0  0
 10 11  2  0  0  0
 10 14  1  0  0  0
 11 12  1  0  0  0
 12 13  2  0  0  0
 13  1  1  0  0  0
 13 14  1  0  0  0
  1  2  2  0  0  0
  1  9  1  0  0  0
  2  3  1  0  0  0
  3  4  1  0  0  0
  3  8  1  0  0  0
  4  5  2  0  0  0
  5  6  1  0  0  0
  6  7  2  0  0  0
  7 20  1  0  0  0
  7  8  1  0  0  0
 20 22  1  0  0  0
 20 21  1  0  0  0
 22 23  1  0  0  0
 22 31  2  0  0  0
 23 24  2  0  0  0
 24 25  1  0  0  0
 25 26  1  0  0  0
 25 30  2  0  0  0
 26 27  1  0  0  0
 26 32  1  0  0  0
 27 28  1  0  0  0
 27 29  2  0  0  0
 29 30  1  0  0  0
 30 31  1  0  0  0
  8  9  2  0  0  0
  9 17  1  0  0  0
 17 18  1  0  0  0
 17 19  1  0  0  0
M  END
> <minimizedAffinity>
-8.10708

$$$$
