CHEMBL397549


 30 33  0  0  0  0  0  0  0  0999 V2000
  -28.2106   -2.5356   -7.3231 C   0  0  0  0  0  0  0  0  0  0  0  0
  -28.1212   -1.4375   -6.5024 C   0  0  0  0  0  0  0  0  0  0  0  0
  -28.6982   -1.8094   -5.3222 N   0  0  0  0  0  0  0  0  0  0  0  0
  -29.1453   -3.0806   -5.3101 N   0  0  0  0  0  0  0  0  0  0  0  0
  -28.8327   -3.5359   -6.5347 C   0  0  0  0  0  0  0  0  0  0  0  0
  -28.8339   -1.2433   -4.4905 H   0  0  0  0  0  0  0  0  0  0  0  0
  -29.1320   -4.9346   -6.9576 C   0  0  0  0  0  0  0  0  0  0  0  0
  -30.2640   -5.5694   -6.7325 N   0  0  0  0  0  0  0  0  0  0  0  0
  -30.1240   -6.7896   -7.3340 C   0  0  0  0  0  0  0  0  0  0  0  0
  -31.0431   -7.8398   -7.4334 C   0  0  0  0  0  0  0  0  0  0  0  0
  -30.6584   -9.0130   -8.0972 C   0  0  0  0  0  0  0  0  0  0  0  0
  -29.3775   -9.1429   -8.6449 C   0  0  0  0  0  0  0  0  0  0  0  0
  -28.4531   -8.0884   -8.5628 C   0  0  0  0  0  0  0  0  0  0  0  0
  -28.8648   -6.9255   -7.9064 C   0  0  0  0  0  0  0  0  0  0  0  0
  -28.2555   -5.7220   -7.6608 N   0  0  0  0  0  0  0  0  0  0  0  0
  -27.3309   -5.4287   -7.9423 H   0  0  0  0  0  0  0  0  0  0  0  0
  -28.9038  -10.2553   -9.2920 O   0  0  0  0  0  0  0  0  0  0  0  0
  -28.9379  -10.2320  -10.7144 C   0  0  0  0  0  0  0  0  0  0  0  0
  -27.3496   -1.5421   -9.3964 C   0  0  0  0  0  0  0  0  0  0  0  0
  -27.8405   -2.5783   -8.6965 C   0  0  0  0  0  0  0  0  0  0  0  0
  -25.2531   -1.5289  -12.5690 C   0  0  0  0  0  0  0  0  0  0  0  0
  -26.2791   -1.7310  -13.4822 C   0  0  0  0  0  0  0  0  0  0  0  0
  -27.5801   -1.8725  -13.1328 N   0  0  0  0  0  0  0  0  0  0  0  0
  -27.8635   -1.8095  -11.8082 C   0  0  0  0  0  0  0  0  0  0  0  0
  -26.9163   -1.6274  -10.8010 C   0  0  0  0  0  0  0  0  0  0  0  0
  -25.5843   -1.4712  -11.2083 C   0  0  0  0  0  0  0  0  0  0  0  0
  -23.8767   -1.3769  -13.0895 C   0  0  0  0  0  0  0  0  0  0  0  0
  -22.9560   -2.1221  -12.7915 O   0  0  0  0  0  0  0  0  0  0  0  0
  -22.5315    0.3575  -13.8956 C   0  0  0  0  0  0  0  0  0  0  0  0
  -23.7969   -0.3053  -13.9149 O   0  0  0  0  0  0  0  0  0  0  0  0
 29 30  1  0  0  0
 30 27  1  0  0  0
 27 28  2  0  0  0
 27 21  1  0  0  0
 21 22  1  0  0  0
 21 26  2  0  0  0
 22 23  2  0  0  0
 23 24  1  0  0  0
 24 25  2  0  0  0
 25 19  1  0  0  0
 25 26  1  0  0  0
 19 20  2  0  0  0
 20  1  1  0  0  0
  1  2  2  0  0  0
  1  5  1  0  0  0
  2  3  1  0  0  0
  3  4  1  0  0  0
  3  6  1  0  0  0
  4  5  2  0  0  0
  5  7  1  0  0  0
  7  8  2  0  0  0
  7 15  1  0  0  0
  8  9  1  0  0  0
  9 10  1  0  0  0
  9 14  2  0  0  0
 10 11  2  0  0  0
 11 12  1  0  0  0
 12 17  1  0  0  0
 12 13  2  0  0  0
 17 18  1  0  0  0
 13 14  1  0  0  0
 14 15  1  0  0  0
 15 16  1  0  0  0
M  END
> <minimizedAffinity>
-8.96101

$$$$
