CHEMBL1972840


 32 36  0  0  0  0  0  0  0  0999 V2000
  -24.9245   11.2070  -15.2782 C   0  0  0  0  0  0  0  0  0  0  0  0
  -25.0811    9.3788  -16.9622 N   0  0  0  0  0  0  0  0  0  0  0  0
  -24.6320   10.7679  -16.7374 C   0  0  0  0  0  0  0  0  0  0  0  0
  -26.0854    9.3367  -16.7797 H   0  0  0  0  0  0  0  0  0  0  0  0
  -24.6491    8.7568  -16.2820 H   0  0  0  0  0  0  0  0  0  0  0  0
  -23.1281   10.9671  -17.0184 C   0  0  0  0  0  0  0  0  0  0  0  0
  -22.7750   11.6425  -18.3112 C   0  0  0  0  0  0  0  0  0  0  0  0
  -23.6731   12.2636  -19.1603 C   0  0  0  0  0  0  0  0  0  0  0  0
  -23.0073   12.6518  -20.2888 N   0  0  0  0  0  0  0  0  0  0  0  0
  -21.6882   12.2733  -20.2163 C   0  0  0  0  0  0  0  0  0  0  0  0
  -20.6669   12.3983  -21.1657 C   0  0  0  0  0  0  0  0  0  0  0  0
  -19.3957   11.9408  -20.8144 C   0  0  0  0  0  0  0  0  0  0  0  0
  -19.1553   11.3989  -19.5544 C   0  0  0  0  0  0  0  0  0  0  0  0
  -20.1933   11.2668  -18.6204 C   0  0  0  0  0  0  0  0  0  0  0  0
  -21.4952   11.6943  -18.9600 C   0  0  0  0  0  0  0  0  0  0  0  0
  -23.4256   13.1234  -21.0774 H   0  0  0  0  0  0  0  0  0  0  0  0
  -25.8718   12.2841  -15.2886 O   0  0  0  0  0  0  0  0  0  0  0  0
  -26.8038   12.2770  -14.2887 C   0  0  0  0  0  0  0  0  0  0  0  0
  -26.3567   12.6539  -13.0288 C   0  0  0  0  0  0  0  0  0  0  0  0
  -27.1245   12.6568  -11.9192 N   0  0  0  0  0  0  0  0  0  0  0  0
  -28.3991   12.2218  -12.0699 C   0  0  0  0  0  0  0  0  0  0  0  0
  -28.9594   11.7913  -13.2757 C   0  0  0  0  0  0  0  0  0  0  0  0
  -28.1269   11.8409  -14.4049 C   0  0  0  0  0  0  0  0  0  0  0  0
  -30.3289   11.2346  -13.3452 C   0  0  0  0  0  0  0  0  0  0  0  0
  -30.9729   10.3766  -12.4698 C   0  0  0  0  0  0  0  0  0  0  0  0
  -32.3565   10.1420  -12.7983 C   0  0  0  0  0  0  0  0  0  0  0  0
  -33.3477    9.3947  -12.1412 C   0  0  0  0  0  0  0  0  0  0  0  0
  -34.6185    9.3466  -12.6117 N   0  0  0  0  0  0  0  0  0  0  0  0
  -34.9268   10.0268  -13.7326 C   0  0  0  0  0  0  0  0  0  0  0  0
  -34.0220   10.7753  -14.4601 C   0  0  0  0  0  0  0  0  0  0  0  0
  -32.7146   10.8163  -13.9617 C   0  0  0  0  0  0  0  0  0  0  0  0
  -31.3769   11.6504  -14.6380 S   0  0  0  0  0  0  0  0  0  0  0  0
  2  3  1  0  0  0
  2  4  1  0  0  0
  2  5  1  0  0  0
  3  1  1  0  0  0
  3  6  1  0  0  0
  1 17  1  0  0  0
 17 18  1  0  0  0
 18 19  1  0  0  0
 18 23  2  0  0  0
 19 20  2  0  0  0
 20 21  1  0  0  0
 21 22  2  0  0  0
 22 24  1  0  0  0
 22 23  1  0  0  0
 24 25  2  0  0  0
 24 32  1  0  0  0
 25 26  1  0  0  0
 26 27  1  0  0  0
 26 31  2  0  0  0
 27 28  2  0  0  0
 28 29  1  0  0  0
 29 30  2  0  0  0
 30 31  1  0  0  0
 31 32  1  0  0  0
  6  7  1  0  0  0
  7  8  2  0  0  0
  7 15  1  0  0  0
  8  9  1  0  0  0
  9 10  1  0  0  0
  9 16  1  0  0  0
 10 11  1  0  0  0
 10 15  2  0  0  0
 11 12  2  0  0  0
 12 13  1  0  0  0
 13 14  2  0  0  0
 14 15  1  0  0  0
M  END
> <minimizedAffinity>
-6.43023

$$$$
