CHEMBL3915607


 38 42  0  0  0  0  0  0  0  0999 V2000
  -29.8088   -6.2761   -5.6839 C   0  0  0  0  0  0  0  0  0  0  0  0
  -30.6335   -5.9038   -4.8467 O   0  0  0  0  0  0  0  0  0  0  0  0
  -29.1371   -5.2063   -6.4974 C   0  0  0  0  0  0  0  0  0  0  0  0
  -28.5344   -5.4272   -7.7369 C   0  0  0  0  0  0  0  0  0  0  0  0
  -28.0082   -4.3506   -8.4947 C   0  0  0  0  0  0  0  0  0  0  0  0
  -28.0602   -3.0244   -8.0010 C   0  0  0  0  0  0  0  0  0  0  0  0
  -27.6180   -1.7080   -8.3875 C   0  0  0  0  0  0  0  0  0  0  0  0
  -28.0199   -0.7884   -7.4943 N   0  0  0  0  0  0  0  0  0  0  0  0
  -28.6737   -1.4876   -6.5596 N   0  0  0  0  0  0  0  0  0  0  0  0
  -28.7010   -2.8360   -6.7802 C   0  0  0  0  0  0  0  0  0  0  0  0
  -29.2452   -3.8840   -6.0190 C   0  0  0  0  0  0  0  0  0  0  0  0
  -29.0731   -0.9820   -5.7763 H   0  0  0  0  0  0  0  0  0  0  0  0
  -26.8171   -1.2856   -9.5059 C   0  0  0  0  0  0  0  0  0  0  0  0
  -26.7859   -1.7971  -10.7467 C   0  0  0  0  0  0  0  0  0  0  0  0
  -25.9231   -1.3595  -11.8524 C   0  0  0  0  0  0  0  0  0  0  0  0
  -24.8068   -0.5417  -11.6894 C   0  0  0  0  0  0  0  0  0  0  0  0
  -24.0158   -0.2496  -12.8015 C   0  0  0  0  0  0  0  0  0  0  0  0
  -24.3556   -0.7826  -14.0374 C   0  0  0  0  0  0  0  0  0  0  0  0
  -25.4737   -1.5947  -14.1113 C   0  0  0  0  0  0  0  0  0  0  0  0
  -26.2532   -1.9014  -13.0510 N   0  0  0  0  0  0  0  0  0  0  0  0
  -27.9261   -9.5837   -5.4929 C   0  0  0  0  0  0  0  0  0  0  0  0
  -28.8764  -10.4627   -6.0136 C   0  0  0  0  0  0  0  0  0  0  0  0
  -30.1381   -9.9960   -6.4327 C   0  0  0  0  0  0  0  0  0  0  0  0
  -30.4911   -8.6454   -6.3159 C   0  0  0  0  0  0  0  0  0  0  0  0
  -29.5722   -7.7480   -5.7761 C   0  0  0  0  0  0  0  0  0  0  0  0
  -28.2896   -8.2268   -5.3986 C   0  0  0  0  0  0  0  0  0  0  0  0
  -25.5046  -10.2684   -5.8443 C   0  0  0  0  0  0  0  0  0  0  0  0
  -25.5521  -10.2308   -7.0733 O   0  0  0  0  0  0  0  0  0  0  0  0
  -26.6117   -9.9506   -5.0588 N   0  0  0  0  0  0  0  0  0  0  0  0
  -26.5041   -9.9884   -4.0616 H   0  0  0  0  0  0  0  0  0  0  0  0
  -22.9835  -11.0032   -5.6623 N   0  0  0  0  0  0  0  0  0  0  0  0
  -22.1260  -11.3925   -4.6920 N   0  0  0  0  0  0  0  0  0  0  0  0
  -22.7729  -11.1838   -3.5491 C   0  0  0  0  0  0  0  0  0  0  0  0
  -22.0896  -11.4116   -2.2492 C   0  0  0  0  0  0  0  0  0  0  0  0
  -24.0862  -10.7479   -3.8019 C   0  0  0  0  0  0  0  0  0  0  0  0
  -24.2424  -10.6674   -5.1901 C   0  0  0  0  0  0  0  0  0  0  0  0
  -21.1130  -10.2836   -7.2045 C   0  0  0  0  0  0  0  0  0  0  0  0
  -22.4610  -10.9847   -7.0181 C   0  0  0  0  0  0  0  0  0  0  0  0
 37 38  1  0  0  0
 38 31  1  0  0  0
 31 32  1  0  0  0
 31 36  1  0  0  0
 32 33  2  0  0  0
 33 34  1  0  0  0
 33 35  1  0  0  0
 35 36  2  0  0  0
 36 27  1  0  0  0
 27 28  2  0  0  0
 27 29  1  0  0  0
 29 21  1  0  0  0
 29 30  1  0  0  0
 21 22  1  0  0  0
 21 26  2  0  0  0
 22 23  2  0  0  0
 23 24  1  0  0  0
 24 25  2  0  0  0
 25  1  1  0  0  0
 25 26  1  0  0  0
  1  2  2  0  0  0
  1  3  1  0  0  0
  3  4  1  0  0  0
  3 11  2  0  0  0
  4  5  2  0  0  0
  5  6  1  0  0  0
  6  7  1  0  0  0
  6 10  2  0  0  0
  7 13  1  0  0  0
  7  8  2  0  0  0
 13 14  2  0  0  0
 14 15  1  0  0  0
 15 16  1  0  0  0
 15 20  2  0  0  0
 16 17  2  0  0  0
 17 18  1  0  0  0
 18 19  2  0  0  0
 19 20  1  0  0  0
  8  9  1  0  0  0
  9 10  1  0  0  0
  9 12  1  0  0  0
 10 11  1  0  0  0
M  END
> <minimizedAffinity>
-9.57397

$$$$
