CHEMBL4208852


 31 35  0  0  0  0  0  0  0  0999 V2000
  -27.0677   -1.5236  -14.1518 C   0  0  0  0  0  0  0  0  0  0  0  0
  -28.1798   -2.0510  -13.6077 N   0  0  0  0  0  0  0  0  0  0  0  0
  -28.2526   -2.2113  -12.2738 C   0  0  0  0  0  0  0  0  0  0  0  0
  -27.1713   -1.8528  -11.4833 C   0  0  0  0  0  0  0  0  0  0  0  0
  -26.8094   -1.8917  -10.1088 C   0  0  0  0  0  0  0  0  0  0  0  0
  -25.6022   -1.3401   -9.9148 N   0  0  0  0  0  0  0  0  0  0  0  0
  -25.1840   -1.0059  -11.1617 N   0  0  0  0  0  0  0  0  0  0  0  0
  -26.0926   -1.2996  -12.1422 C   0  0  0  0  0  0  0  0  0  0  0  0
  -25.9824   -1.1060  -13.4702 N   0  0  0  0  0  0  0  0  0  0  0  0
  -27.5945   -2.4467   -9.0142 C   0  0  0  0  0  0  0  0  0  0  0  0
  -28.0097   -1.6358   -7.9619 C   0  0  0  0  0  0  0  0  0  0  0  0
  -28.6665   -2.2020   -6.8824 C   0  0  0  0  0  0  0  0  0  0  0  0
  -28.9478   -3.5669   -6.8687 C   0  0  0  0  0  0  0  0  0  0  0  0
  -28.6240   -4.3551   -7.9098 N   0  0  0  0  0  0  0  0  0  0  0  0
  -27.9516   -3.7864   -8.9521 C   0  0  0  0  0  0  0  0  0  0  0  0
  -29.6388   -4.0561   -5.7744 N   0  0  0  0  0  0  0  0  0  0  0  0
  -29.6933   -5.5016   -5.5616 C   0  0  0  0  0  0  0  0  0  0  0  0
  -30.9448   -5.7848   -4.6858 C   0  0  0  0  0  0  0  0  0  0  0  0
  -30.9448   -5.0392   -3.3983 N   0  0  0  0  0  0  0  0  0  0  0  0
  -32.2051   -5.2460   -2.6884 C   0  0  0  0  0  0  0  0  0  0  0  0
  -30.7352   -3.5926   -3.6469 C   0  0  0  0  0  0  0  0  0  0  0  0
  -29.4921   -3.3090   -4.5177 C   0  0  0  0  0  0  0  0  0  0  0  0
  -25.7070   -0.9820  -16.0299 C   0  0  0  0  0  0  0  0  0  0  0  0
  -27.0129   -1.3746  -15.5322 N   0  0  0  0  0  0  0  0  0  0  0  0
  -27.4048   -2.2115  -15.9330 H   0  0  0  0  0  0  0  0  0  0  0  0
  -23.8479   -0.4722  -11.3383 C   0  0  0  0  0  0  0  0  0  0  0  0
  -23.5751    0.0872  -12.7375 C   0  0  0  0  0  0  0  0  0  0  0  0
  -22.2883   -0.4941  -13.3298 C   0  0  0  0  0  0  0  0  0  0  0  0
  -21.7785    0.5394  -14.3297 C   0  0  0  0  0  0  0  0  0  0  0  0
  -22.5615    1.8217  -14.0713 C   0  0  0  0  0  0  0  0  0  0  0  0
  -23.3241    1.5943  -12.7739 C   0  0  0  0  0  0  0  0  0  0  0  0
 23 24  1  0  0  0
 24  1  1  0  0  0
 24 25  1  0  0  0
  1  2  1  0  0  0
  1  9  2  0  0  0
  2  3  2  0  0  0
  3  4  1  0  0  0
  4  5  1  0  0  0
  4  8  2  0  0  0
  5 10  1  0  0  0
  5  6  2  0  0  0
 10 11  1  0  0  0
 10 15  2  0  0  0
 11 12  2  0  0  0
 12 13  1  0  0  0
 13 16  1  0  0  0
 13 14  2  0  0  0
 16 17  1  0  0  0
 16 22  1  0  0  0
 17 18  1  0  0  0
 18 19  1  0  0  0
 19 20  1  0  0  0
 19 21  1  0  0  0
 21 22  1  0  0  0
 14 15  1  0  0  0
  6  7  1  0  0  0
  7 26  1  0  0  0
  7  8  1  0  0  0
 26 27  1  0  0  0
 27 28  1  0  0  0
 27 31  1  0  0  0
 28 29  1  0  0  0
 29 30  1  0  0  0
 30 31  1  0  0  0
  8  9  1  0  0  0
M  END
> <minimizedAffinity>
-6.89668

$$$$
