CHEMBL1083386


 36 42  0  0  0  0  0  0  0  0999 V2000
  -28.2957   -4.8591   -7.9014 N   0  0  0  0  0  0  0  0  0  0  0  0
  -28.4956   -6.2281   -7.6508 C   0  0  0  0  0  0  0  0  0  0  0  0
  -28.3139   -7.3621   -8.4729 C   0  0  0  0  0  0  0  0  0  0  0  0
  -28.6259   -8.6286   -7.9398 C   0  0  0  0  0  0  0  0  0  0  0  0
  -29.1306   -8.7853   -6.6427 C   0  0  0  0  0  0  0  0  0  0  0  0
  -29.3422   -7.6374   -5.8654 C   0  0  0  0  0  0  0  0  0  0  0  0
  -29.0139   -6.3666   -6.3628 C   0  0  0  0  0  0  0  0  0  0  0  0
  -29.0875   -5.0678   -5.9253 C   0  0  0  0  0  0  0  0  0  0  0  0
  -29.7610   -4.6308   -4.7778 C   0  0  0  0  0  0  0  0  0  0  0  0
  -30.0035   -3.2433   -4.7209 C   0  0  0  0  0  0  0  0  0  0  0  0
  -29.4918   -2.3414   -5.6853 C   0  0  0  0  0  0  0  0  0  0  0  0
  -28.2835   -2.8208   -6.2678 C   0  0  0  0  0  0  0  0  0  0  0  0
  -28.4545   -4.1479   -6.7176 C   0  0  0  0  0  0  0  0  0  0  0  0
  -27.0902   -2.4686   -5.2586 C   0  0  0  0  0  0  0  0  0  0  0  0
  -27.2495   -1.1694   -4.3669 C   0  0  0  0  0  0  0  0  0  0  0  0
  -28.4387   -0.3889   -4.7916 C   0  0  0  0  0  0  0  0  0  0  0  0
  -29.5266   -0.9319   -5.4290 C   0  0  0  0  0  0  0  0  0  0  0  0
  -30.2632    0.1598   -5.8959 C   0  0  0  0  0  0  0  0  0  0  0  0
  -29.7941    1.3129   -5.4017 N   0  0  0  0  0  0  0  0  0  0  0  0
  -28.7485    0.9290   -4.6295 N   0  0  0  0  0  0  0  0  0  0  0  0
  -28.1708    1.8717   -3.7058 C   0  0  0  0  0  0  0  0  0  0  0  0
  -30.6634   -2.9689   -3.4709 C   0  0  0  0  0  0  0  0  0  0  0  0
  -31.0274   -1.9432   -2.9143 O   0  0  0  0  0  0  0  0  0  0  0  0
  -30.7764   -4.2186   -2.8636 N   0  0  0  0  0  0  0  0  0  0  0  0
  -30.2703   -5.3513   -3.6163 C   0  0  0  0  0  0  0  0  0  0  0  0
  -31.1004   -4.2789   -1.9111 H   0  0  0  0  0  0  0  0  0  0  0  0
  -29.4008  -10.1289   -5.9746 C   0  0  0  0  0  0  0  0  0  0  0  0
  -29.2579  -10.2321   -4.4581 C   0  0  0  0  0  0  0  0  0  0  0  0
  -27.7980  -10.2418   -4.0220 C   0  0  0  0  0  0  0  0  0  0  0  0
  -26.9986  -11.2713   -4.8089 C   0  0  0  0  0  0  0  0  0  0  0  0
  -27.2666  -11.1865   -6.3051 C   0  0  0  0  0  0  0  0  0  0  0  0
  -28.6618  -11.1926   -6.6028 O   0  0  0  0  0  0  0  0  0  0  0  0
  -28.0577   -4.2806   -9.2166 C   0  0  0  0  0  0  0  0  0  0  0  0
  -28.2895   -2.7561   -9.3293 C   0  0  0  0  0  0  0  0  0  0  0  0
  -27.2495   -1.5134  -11.2743 C   0  0  0  0  0  0  0  0  0  0  0  0
  -27.0759   -1.9657   -9.8269 C   0  0  0  0  0  0  0  0  0  0  0  0
 35 36  1  0  0  0
 36 34  1  0  0  0
 34 33  1  0  0  0
 33  1  1  0  0  0
  1  2  1  0  0  0
  1 13  1  0  0  0
  2  3  1  0  0  0
  2  7  2  0  0  0
  3  4  2  0  0  0
  4  5  1  0  0  0
  5 27  1  0  0  0
  5  6  2  0  0  0
 27 28  1  0  0  0
 27 32  1  0  0  0
 28 29  1  0  0  0
 29 30  1  0  0  0
 30 31  1  0  0  0
 31 32  1  0  0  0
  6  7  1  0  0  0
  7  8  1  0  0  0
  8  9  1  0  0  0
  8 13  2  0  0  0
  9 10  2  0  0  0
  9 25  1  0  0  0
 10 11  1  0  0  0
 10 22  1  0  0  0
 11 12  2  0  0  0
 11 17  1  0  0  0
 12 13  1  0  0  0
 12 14  1  0  0  0
 14 15  1  0  0  0
 15 16  1  0  0  0
 16 17  2  0  0  0
 16 20  1  0  0  0
 17 18  1  0  0  0
 18 19  2  0  0  0
 19 20  1  0  0  0
 20 21  1  0  0  0
 22 23  2  0  0  0
 22 24  1  0  0  0
 24 25  1  0  0  0
 24 26  1  0  0  0
M  END
> <minimizedAffinity>
-5.03206

$$$$
