CHEMBL224918


 34 39  0  0  0  0  0  0  0  0999 V2000
  -14.1310   -4.1625   -9.6596 C   0  0  0  0  0  0  0  0  0  0  0  0
  -14.4291   -5.3355   -9.0511 N   0  0  0  0  0  0  0  0  0  0  0  0
  -13.3588   -6.0890   -9.4334 N   0  0  0  0  0  0  0  0  0  0  0  0
  -12.3393   -5.2883   -9.8931 C   0  0  0  0  0  0  0  0  0  0  0  0
  -12.7073   -4.0275   -9.4206 C   0  0  0  0  0  0  0  0  0  0  0  0
  -11.6126   -3.0767   -9.7546 C   0  0  0  0  0  0  0  0  0  0  0  0
  -11.3289   -3.6559  -11.1303 C   0  0  0  0  0  0  0  0  0  0  0  0
  -11.2048   -2.8130  -12.2180 C   0  0  0  0  0  0  0  0  0  0  0  0
  -11.7558   -3.2557  -13.4151 C   0  0  0  0  0  0  0  0  0  0  0  0
  -12.1273   -4.6181  -13.5606 C   0  0  0  0  0  0  0  0  0  0  0  0
  -12.0997   -5.5189  -12.4672 C   0  0  0  0  0  0  0  0  0  0  0  0
  -11.7445   -5.0181  -11.2230 C   0  0  0  0  0  0  0  0  0  0  0  0
  -13.3126   -7.0325   -9.0557 H   0  0  0  0  0  0  0  0  0  0  0  0
  -15.6303   -2.4516  -12.6943 C   0  0  0  0  0  0  0  0  0  0  0  0
  -14.9375   -2.5827  -11.5147 C   0  0  0  0  0  0  0  0  0  0  0  0
  -14.8772   -3.9320  -10.9771 C   0  0  0  0  0  0  0  0  0  0  0  0
  -15.6341   -4.7826  -11.7524 C   0  0  0  0  0  0  0  0  0  0  0  0
  -16.3140   -3.9634  -13.1291 S   0  0  0  0  0  0  0  0  0  0  0  0
  -16.1445   -0.0881  -13.9905 C   0  0  0  0  0  0  0  0  0  0  0  0
  -15.8043   -1.2031  -13.4065 C   0  0  0  0  0  0  0  0  0  0  0  0
  -16.5412    1.2117  -14.6713 C   0  0  0  0  0  0  0  0  0  0  0  0
  -17.6363    0.9988  -15.5534 O   0  0  0  0  0  0  0  0  0  0  0  0
  -18.8328    1.5376  -15.1531 C   0  0  0  0  0  0  0  0  0  0  0  0
  -19.0519    2.8655  -14.7757 C   0  0  0  0  0  0  0  0  0  0  0  0
  -20.3258    3.2885  -14.3840 C   0  0  0  0  0  0  0  0  0  0  0  0
  -21.3888    2.3888  -14.3688 C   0  0  0  0  0  0  0  0  0  0  0  0
  -21.1770    1.0633  -14.7431 C   0  0  0  0  0  0  0  0  0  0  0  0
  -19.9034    0.6411  -15.1334 C   0  0  0  0  0  0  0  0  0  0  0  0
  -12.1982   -2.1834  -14.3863 C   0  0  0  0  0  0  0  0  0  0  0  0
  -11.7589   -0.8643  -14.0181 N   0  0  0  0  0  0  0  0  0  0  0  0
  -10.7057   -0.1758  -14.5375 C   0  0  0  0  0  0  0  0  0  0  0  0
  -10.6965    1.0406  -14.0451 N   0  0  0  0  0  0  0  0  0  0  0  0
  -11.7844    1.0500  -13.2229 C   0  0  0  0  0  0  0  0  0  0  0  0
  -12.4824   -0.0978  -13.1734 N   0  0  0  0  0  0  0  0  0  0  0  0
 19 20  3  0  0  0
 19 21  1  0  0  0
 20 14  1  0  0  0
 14 15  2  0  0  0
 14 18  1  0  0  0
 15 16  1  0  0  0
 16  1  1  0  0  0
 16 17  2  0  0  0
  1  2  2  0  0  0
  1  5  1  0  0  0
  2  3  1  0  0  0
  3  4  1  0  0  0
  3 13  1  0  0  0
  4  5  2  0  0  0
  4 12  1  0  0  0
  5  6  1  0  0  0
  6  7  1  0  0  0
  7  8  1  0  0  0
  7 12  2  0  0  0
  8  9  2  0  0  0
  9 29  1  0  0  0
  9 10  1  0  0  0
 29 30  1  0  0  0
 30 31  1  0  0  0
 30 34  1  0  0  0
 31 32  2  0  0  0
 32 33  1  0  0  0
 33 34  2  0  0  0
 10 11  2  0  0  0
 11 12  1  0  0  0
 17 18  1  0  0  0
 21 22  1  0  0  0
 22 23  1  0  0  0
 23 24  1  0  0  0
 23 28  2  0  0  0
 24 25  2  0  0  0
 25 26  1  0  0  0
 26 27  2  0  0  0
 27 28  1  0  0  0
M  END
> <minimizedAffinity>
-8.07364

$$$$
