CHEMBL331465


 30 34  0  0  0  0  0  0  0  0999 V2000
  -22.1027    1.4249  -13.9431 C   0  0  0  0  0  0  0  0  0  0  0  0
  -22.5091    2.7757  -13.8924 C   0  0  0  0  0  0  0  0  0  0  0  0
  -21.5789    3.6263  -14.3239 N   0  0  0  0  0  0  0  0  0  0  0  0
  -20.5344    2.8330  -14.6580 N   0  0  0  0  0  0  0  0  0  0  0  0
  -19.2959    3.2398  -15.1363 C   0  0  0  0  0  0  0  0  0  0  0  0
  -18.3483    2.3339  -15.4253 C   0  0  0  0  0  0  0  0  0  0  0  0
  -18.7453    0.9143  -15.1935 C   0  0  0  0  0  0  0  0  0  0  0  0
  -19.8912    0.5012  -14.7412 N   0  0  0  0  0  0  0  0  0  0  0  0
  -20.8181    1.4738  -14.4598 C   0  0  0  0  0  0  0  0  0  0  0  0
  -24.2377   -2.0401  -12.6666 C   0  0  0  0  0  0  0  0  0  0  0  0
  -23.2349   -1.5094  -11.8595 C   0  0  0  0  0  0  0  0  0  0  0  0
  -22.5175   -0.3870  -12.2812 C   0  0  0  0  0  0  0  0  0  0  0  0
  -22.8011    0.2242  -13.5098 C   0  0  0  0  0  0  0  0  0  0  0  0
  -23.7979   -0.3357  -14.3232 C   0  0  0  0  0  0  0  0  0  0  0  0
  -24.5142   -1.4591  -13.9015 C   0  0  0  0  0  0  0  0  0  0  0  0
  -17.0357    2.7095  -15.9329 C   0  0  0  0  0  0  0  0  0  0  0  0
  -16.0687    1.7297  -16.1800 C   0  0  0  0  0  0  0  0  0  0  0  0
  -14.8004    2.0941  -16.6387 C   0  0  0  0  0  0  0  0  0  0  0  0
  -14.4978    3.4376  -16.8695 C   0  0  0  0  0  0  0  0  0  0  0  0
  -15.4562    4.4162  -16.6046 C   0  0  0  0  0  0  0  0  0  0  0  0
  -16.7231    4.0567  -16.1432 C   0  0  0  0  0  0  0  0  0  0  0  0
  -13.2970    3.9034  -17.3333 O   0  0  0  0  0  0  0  0  0  0  0  0
  -12.5581    4.7022  -16.4009 C   0  0  0  0  0  0  0  0  0  0  0  0
  -12.6818    4.0659  -15.0074 C   0  0  0  0  0  0  0  0  0  0  0  0
  -11.4583    3.3835  -14.5336 N   0  0  0  0  0  0  0  0  0  0  0  0
  -11.5295    1.9279  -14.8147 C   0  0  0  0  0  0  0  0  0  0  0  0
  -12.5123    1.1606  -13.9070 C   0  0  0  0  0  0  0  0  0  0  0  0
  -12.2593    1.3955  -12.5143 O   0  0  0  0  0  0  0  0  0  0  0  0
  -12.2568    2.7969  -12.2175 C   0  0  0  0  0  0  0  0  0  0  0  0
  -11.2195    3.5307  -13.0793 C   0  0  0  0  0  0  0  0  0  0  0  0
 10 11  1  0  0  0
 10 15  2  0  0  0
 11 12  2  0  0  0
 12 13  1  0  0  0
 13  1  1  0  0  0
 13 14  2  0  0  0
  1  2  1  0  0  0
  1  9  2  0  0  0
  2  3  2  0  0  0
  3  4  1  0  0  0
  4  5  1  0  0  0
  4  9  1  0  0  0
  5  6  2  0  0  0
  6 16  1  0  0  0
  6  7  1  0  0  0
 16 17  1  0  0  0
 16 21  2  0  0  0
 17 18  2  0  0  0
 18 19  1  0  0  0
 19 22  1  0  0  0
 19 20  2  0  0  0
 22 23  1  0  0  0
 23 24  1  0  0  0
 24 25  1  0  0  0
 25 26  1  0  0  0
 25 30  1  0  0  0
 26 27  1  0  0  0
 27 28  1  0  0  0
 28 29  1  0  0  0
 29 30  1  0  0  0
 20 21  1  0  0  0
  7  8  2  0  0  0
  8  9  1  0  0  0
 14 15  1  0  0  0
M  END
> <minimizedAffinity>
-9.90897

$$$$
