CHEMBL3915158


 34 39  0  0  0  0  0  0  0  0999 V2000
  -17.0491    1.7446  -15.6934 N   0  0  0  0  0  0  0  0  0  0  0  0
  -18.5201    1.7527  -15.4703 C   0  0  0  0  0  0  0  0  0  0  0  0
  -19.1036    3.0387  -15.4899 C   0  0  0  0  0  0  0  0  0  0  0  0
  -20.3554    3.3094  -15.0218 C   0  0  0  0  0  0  0  0  0  0  0  0
  -21.1501    2.3171  -14.5727 C   0  0  0  0  0  0  0  0  0  0  0  0
  -22.3194    2.6795  -14.0041 N   0  0  0  0  0  0  0  0  0  0  0  0
  -23.2089    1.7888  -13.5483 C   0  0  0  0  0  0  0  0  0  0  0  0
  -22.9666    0.4372  -13.7485 C   0  0  0  0  0  0  0  0  0  0  0  0
  -21.7480    0.0275  -14.2925 N   0  0  0  0  0  0  0  0  0  0  0  0
  -20.7787    0.9601  -14.6650 C   0  0  0  0  0  0  0  0  0  0  0  0
  -19.4282    0.6568  -15.1055 C   0  0  0  0  0  0  0  0  0  0  0  0
  -24.1564   -0.4173  -13.4695 C   0  0  0  0  0  0  0  0  0  0  0  0
  -24.8539   -1.2006  -14.3783 C   0  0  0  0  0  0  0  0  0  0  0  0
  -25.9639   -1.6924  -13.7840 N   0  0  0  0  0  0  0  0  0  0  0  0
  -25.9979   -1.2360  -12.5411 N   0  0  0  0  0  0  0  0  0  0  0  0
  -27.0304   -1.5823  -11.5685 C   0  0  0  0  0  0  0  0  0  0  0  0
  -24.9380   -0.4301  -12.3221 C   0  0  0  0  0  0  0  0  0  0  0  0
  -13.6662    0.0428  -14.9651 C   0  0  0  0  0  0  0  0  0  0  0  0
  -13.9557   -0.5673  -13.7628 C   0  0  0  0  0  0  0  0  0  0  0  0
  -15.2394   -0.5237  -13.2320 C   0  0  0  0  0  0  0  0  0  0  0  0
  -16.2630    0.2012  -13.8851 C   0  0  0  0  0  0  0  0  0  0  0  0
  -16.0152    0.9141  -15.0600 C   0  0  0  0  0  0  0  0  0  0  0  0
  -14.6814    0.7824  -15.6114 C   0  0  0  0  0  0  0  0  0  0  0  0
  -11.9283    0.2607  -16.6979 C   0  0  0  0  0  0  0  0  0  0  0  0
  -12.4065   -0.1246  -15.4600 O   0  0  0  0  0  0  0  0  0  0  0  0
  -15.4462   -1.1971  -12.0730 O   0  0  0  0  0  0  0  0  0  0  0  0
  -14.9211   -2.4176  -11.7374 C   0  0  0  0  0  0  0  0  0  0  0  0
  -15.9424   -3.3774  -11.0896 C   0  0  0  0  0  0  0  0  0  0  0  0
  -15.2643   -4.7531  -11.0812 C   0  0  0  0  0  0  0  0  0  0  0  0
  -16.6366   -4.6085  -11.6882 C   0  0  0  0  0  0  0  0  0  0  0  0
  -16.5822    2.8119  -16.6264 C   0  0  0  0  0  0  0  0  0  0  0  0
  -15.9361    4.0339  -15.9178 C   0  0  0  0  0  0  0  0  0  0  0  0
  -15.2002    4.7736  -17.0539 C   0  0  0  0  0  0  0  0  0  0  0  0
  -14.4455    4.4055  -15.8099 C   0  0  0  0  0  0  0  0  0  0  0  0
 24 25  1  0  0  0
 25 18  1  0  0  0
 18 19  1  0  0  0
 18 23  2  0  0  0
 19 20  2  0  0  0
 20 26  1  0  0  0
 20 21  1  0  0  0
 26 27  1  0  0  0
 27 28  1  0  0  0
 28 29  1  0  0  0
 28 30  1  0  0  0
 29 30  1  0  0  0
 21 22  2  0  0  0
 22  1  1  0  0  0
 22 23  1  0  0  0
  1 31  1  0  0  0
  1  2  1  0  0  0
 31 32  1  0  0  0
 32 33  1  0  0  0
 32 34  1  0  0  0
 33 34  1  0  0  0
  2  3  1  0  0  0
  2 11  2  0  0  0
  3  4  2  0  0  0
  4  5  1  0  0  0
  5  6  1  0  0  0
  5 10  2  0  0  0
  6  7  2  0  0  0
  7  8  1  0  0  0
  8 12  1  0  0  0
  8  9  2  0  0  0
 12 13  1  0  0  0
 12 17  2  0  0  0
 13 14  2  0  0  0
 14 15  1  0  0  0
 15 16  1  0  0  0
 15 17  1  0  0  0
  9 10  1  0  0  0
 10 11  1  0  0  0
M  END
> <minimizedAffinity>
-9.35351

$$$$
