CHEMBL206627


 26 30  0  0  0  0  0  0  0  0999 V2000
  -31.5142   -4.8839   -3.5605 C   0  0  0  0  0  0  0  0  0  0  0  0
  -30.8206   -5.3402   -4.7443 N   0  0  0  0  0  0  0  0  0  0  0  0
  -30.8257   -6.6250   -5.2068 C   0  0  0  0  0  0  0  0  0  0  0  0
  -30.2000   -6.6608   -6.4326 C   0  0  0  0  0  0  0  0  0  0  0  0
  -29.6252   -5.3509   -6.6363 C   0  0  0  0  0  0  0  0  0  0  0  0
  -28.7920   -4.7604   -7.6231 C   0  0  0  0  0  0  0  0  0  0  0  0
  -28.4755   -3.4146   -7.4766 C   0  0  0  0  0  0  0  0  0  0  0  0
  -28.9441   -2.6565   -6.4346 C   0  0  0  0  0  0  0  0  0  0  0  0
  -29.7496   -3.1755   -5.4472 C   0  0  0  0  0  0  0  0  0  0  0  0
  -30.0638   -4.5399   -5.5675 C   0  0  0  0  0  0  0  0  0  0  0  0
  -28.5261   -1.3627   -6.4869 O   0  0  0  0  0  0  0  0  0  0  0  0
  -27.7305   -1.3875   -7.6859 C   0  0  0  0  0  0  0  0  0  0  0  0
  -27.6888   -2.6850   -8.3191 O   0  0  0  0  0  0  0  0  0  0  0  0
  -30.0977   -7.8235   -7.2779 C   0  0  0  0  0  0  0  0  0  0  0  0
  -31.0618   -8.6969   -7.6330 C   0  0  0  0  0  0  0  0  0  0  0  0
  -32.5120   -8.6870   -7.2872 C   0  0  0  0  0  0  0  0  0  0  0  0
  -33.1991   -7.8334   -6.7650 O   0  0  0  0  0  0  0  0  0  0  0  0
  -32.9685   -9.9030   -7.7557 N   0  0  0  0  0  0  0  0  0  0  0  0
  -32.0617  -10.6229   -8.4755 N   0  0  0  0  0  0  0  0  0  0  0  0
  -30.9319   -9.9457   -8.4556 C   0  0  0  0  0  0  0  0  0  0  0  0
  -33.9384  -10.1919   -7.7034 H   0  0  0  0  0  0  0  0  0  0  0  0
  -29.7725  -10.3992   -9.1899 C   0  0  0  0  0  0  0  0  0  0  0  0
  -29.3010   -9.8326  -10.2822 N   0  0  0  0  0  0  0  0  0  0  0  0
  -28.2146  -10.5550  -10.7465 C   0  0  0  0  0  0  0  0  0  0  0  0
  -27.8665  -11.6628  -10.0084 C   0  0  0  0  0  0  0  0  0  0  0  0
  -28.9271  -11.8164   -8.6771 S   0  0  0  0  0  0  0  0  0  0  0  0
  1  2  1  0  0  0
  2  3  1  0  0  0
  2 10  1  0  0  0
  3  4  2  0  0  0
  4 14  1  0  0  0
  4  5  1  0  0  0
 14 15  2  0  0  0
 15 16  1  0  0  0
 15 20  1  0  0  0
 16 17  2  0  0  0
 16 18  1  0  0  0
 18 19  1  0  0  0
 18 21  1  0  0  0
 19 20  2  0  0  0
 20 22  1  0  0  0
 22 23  2  0  0  0
 22 26  1  0  0  0
 23 24  1  0  0  0
 24 25  2  0  0  0
 25 26  1  0  0  0
  5  6  1  0  0  0
  5 10  2  0  0  0
  6  7  2  0  0  0
  7  8  1  0  0  0
  7 13  1  0  0  0
  8  9  2  0  0  0
  8 11  1  0  0  0
  9 10  1  0  0  0
 11 12  1  0  0  0
 12 13  1  0  0  0
M  END
> <minimizedAffinity>
-9.09660

$$$$
