CHEMBL247797


 37 39  0  0  0  0  0  0  0  0999 V2000
  -15.9957    2.1248  -15.4813 C   0  0  0  0  0  0  0  0  0  0  0  0
  -14.9689    1.4777  -14.8028 C   0  0  0  0  0  0  0  0  0  0  0  0
  -13.7881    2.1193  -15.2413 C   0  0  0  0  0  0  0  0  0  0  0  0
  -14.0179    3.0877  -16.1217 N   0  0  0  0  0  0  0  0  0  0  0  0
  -15.3600    3.1327  -16.2023 N   0  0  0  0  0  0  0  0  0  0  0  0
  -15.9256    4.2685  -16.8946 C   0  0  0  0  0  0  0  0  0  0  0  0
  -14.9760    0.3916  -13.8378 C   0  0  0  0  0  0  0  0  0  0  0  0
  -14.9856    0.6620  -12.6392 O   0  0  0  0  0  0  0  0  0  0  0  0
  -14.8781   -0.8831  -14.3675 N   0  0  0  0  0  0  0  0  0  0  0  0
  -14.6843   -0.9367  -15.3599 H   0  0  0  0  0  0  0  0  0  0  0  0
  -14.7656   -2.0785  -13.6104 C   0  0  0  0  0  0  0  0  0  0  0  0
  -13.5580   -2.5313  -13.0660 C   0  0  0  0  0  0  0  0  0  0  0  0
  -13.4807   -3.7532  -12.3848 C   0  0  0  0  0  0  0  0  0  0  0  0
  -14.6183   -4.5397  -12.2133 C   0  0  0  0  0  0  0  0  0  0  0  0
  -15.8344   -4.0844  -12.7398 C   0  0  0  0  0  0  0  0  0  0  0  0
  -15.9098   -2.8580  -13.4181 C   0  0  0  0  0  0  0  0  0  0  0  0
  -14.5451   -6.1442  -11.4467 S   0  0  0  0  0  0  0  0  0  0  0  0
  -14.6310   -7.2446  -12.8689 C   0  0  0  0  0  0  0  0  0  0  0  0
  -15.8418   -7.2730  -13.4719 F   0  0  0  0  0  0  0  0  0  0  0  0
  -13.7276   -6.8745  -13.8098 F   0  0  0  0  0  0  0  0  0  0  0  0
  -14.3320   -8.5180  -12.5124 F   0  0  0  0  0  0  0  0  0  0  0  0
  -17.3415    1.9109  -15.4332 N   0  0  0  0  0  0  0  0  0  0  0  0
  -17.7589    1.0979  -15.8879 H   0  0  0  0  0  0  0  0  0  0  0  0
  -18.2687    2.7646  -14.7187 C   0  0  0  0  0  0  0  0  0  0  0  0
  -22.1313    1.1067  -14.3004 C   0  0  0  0  0  0  0  0  0  0  0  0
  -21.1431    0.3128  -14.8695 C   0  0  0  0  0  0  0  0  0  0  0  0
  -19.8876    0.8658  -15.0888 C   0  0  0  0  0  0  0  0  0  0  0  0
  -19.6489    2.1838  -14.7021 C   0  0  0  0  0  0  0  0  0  0  0  0
  -20.7278    2.9202  -14.2233 C   0  0  0  0  0  0  0  0  0  0  0  0
  -21.9726    2.4217  -14.0517 N   0  0  0  0  0  0  0  0  0  0  0  0
  -25.0100   -1.2773  -11.2533 C   0  0  0  0  0  0  0  0  0  0  0  0
  -24.7306   -0.5567  -12.4710 N   0  0  0  0  0  0  0  0  0  0  0  0
  -23.4388   -0.1530  -12.7227 C   0  0  0  0  0  0  0  0  0  0  0  0
  -22.5116   -0.3831  -11.9552 O   0  0  0  0  0  0  0  0  0  0  0  0
  -23.3546    0.5612  -13.8972 N   0  0  0  0  0  0  0  0  0  0  0  0
  -25.2683   -0.7955  -13.2923 H   0  0  0  0  0  0  0  0  0  0  0  0
  -24.1204    1.2046  -14.0341 H   0  0  0  0  0  0  0  0  0  0  0  0
 31 32  1  0  0  0
 32 33  1  0  0  0
 32 36  1  0  0  0
 33 34  2  0  0  0
 33 35  1  0  0  0
 35 25  1  0  0  0
 35 37  1  0  0  0
 25 26  1  0  0  0
 25 30  2  0  0  0
 26 27  2  0  0  0
 27 28  1  0  0  0
 28 24  1  0  0  0
 28 29  2  0  0  0
 24 22  1  0  0  0
 22  1  1  0  0  0
 22 23  1  0  0  0
  1  2  2  0  0  0
  1  5  1  0  0  0
  2  7  1  0  0  0
  2  3  1  0  0  0
  7  8  2  0  0  0
  7  9  1  0  0  0
  9 11  1  0  0  0
  9 10  1  0  0  0
 11 12  1  0  0  0
 11 16  2  0  0  0
 12 13  2  0  0  0
 13 14  1  0  0  0
 14 17  1  0  0  0
 14 15  2  0  0  0
 17 18  1  0  0  0
 18 19  1  0  0  0
 18 20  1  0  0  0
 18 21  1  0  0  0
 15 16  1  0  0  0
  3  4  2  0  0  0
  4  5  1  0  0  0
  5  6  1  0  0  0
 29 30  1  0  0  0
M  END
> <minimizedAffinity>
-8.97357

$$$$
