CHEMBL3660273


 40 43  0  0  0  0  0  0  0  0999 V2000
  -22.6172   -0.7932  -14.3724 O   0  0  0  0  0  0  0  0  0  0  0  0
  -20.4076    2.1287  -14.5586 C   0  0  0  0  0  0  0  0  0  0  0  0
  -20.7853    0.7963  -14.5655 C   0  0  0  0  0  0  0  0  0  0  0  0
  -22.1065    0.4813  -14.2719 C   0  0  0  0  0  0  0  0  0  0  0  0
  -22.9666    1.4806  -13.8398 C   0  0  0  0  0  0  0  0  0  0  0  0
  -22.4826    2.7780  -13.8029 C   0  0  0  0  0  0  0  0  0  0  0  0
  -21.2280    3.1317  -14.1738 N   0  0  0  0  0  0  0  0  0  0  0  0
  -16.9580    2.6489  -15.8543 C   0  0  0  0  0  0  0  0  0  0  0  0
  -17.4355    3.9328  -15.6394 C   0  0  0  0  0  0  0  0  0  0  0  0
  -18.7184    3.8520  -15.1736 N   0  0  0  0  0  0  0  0  0  0  0  0
  -19.0977    2.5353  -15.0492 C   0  0  0  0  0  0  0  0  0  0  0  0
  -18.0222    1.7721  -15.4935 C   0  0  0  0  0  0  0  0  0  0  0  0
  -19.3232    4.6252  -14.9244 H   0  0  0  0  0  0  0  0  0  0  0  0
  -15.6207    2.2591  -16.2802 C   0  0  0  0  0  0  0  0  0  0  0  0
  -15.3521    1.1529  -16.7323 O   0  0  0  0  0  0  0  0  0  0  0  0
  -14.6945    3.2154  -15.9917 O   0  0  0  0  0  0  0  0  0  0  0  0
  -13.5853    2.7155  -15.2466 C   0  0  0  0  0  0  0  0  0  0  0  0
  -12.7900    3.8126  -14.5595 C   0  0  0  0  0  0  0  0  0  0  0  0
  -12.3307    6.0323  -15.2347 C   0  0  0  0  0  0  0  0  0  0  0  0
  -13.3355    5.0631  -14.9842 O   0  0  0  0  0  0  0  0  0  0  0  0
  -23.7048   -1.1316  -13.5947 C   0  0  0  0  0  0  0  0  0  0  0  0
  -23.4563   -1.3362  -12.2437 C   0  0  0  0  0  0  0  0  0  0  0  0
  -24.4943   -1.7259  -11.3935 C   0  0  0  0  0  0  0  0  0  0  0  0
  -25.7975   -1.9180  -11.8703 C   0  0  0  0  0  0  0  0  0  0  0  0
  -26.0496   -1.6625  -13.2220 C   0  0  0  0  0  0  0  0  0  0  0  0
  -25.0152   -1.2448  -14.0715 C   0  0  0  0  0  0  0  0  0  0  0  0
  -26.8659   -2.3768  -11.0588 N   0  0  0  0  0  0  0  0  0  0  0  0
  -27.0681   -2.0424   -9.7337 C   0  0  0  0  0  0  0  0  0  0  0  0
  -26.3942   -1.2343   -9.1021 O   0  0  0  0  0  0  0  0  0  0  0  0
  -28.1213   -2.7429   -9.1578 N   0  0  0  0  0  0  0  0  0  0  0  0
  -27.5888   -2.9223  -11.5076 H   0  0  0  0  0  0  0  0  0  0  0  0
  -28.1741   -3.7168   -9.4309 H   0  0  0  0  0  0  0  0  0  0  0  0
  -28.4345   -2.4909   -7.7931 C   0  0  0  0  0  0  0  0  0  0  0  0
  -28.2422   -1.2232   -7.2281 C   0  0  0  0  0  0  0  0  0  0  0  0
  -28.4586   -1.0064   -5.8600 C   0  0  0  0  0  0  0  0  0  0  0  0
  -28.2440    0.3526   -5.2597 C   0  0  0  0  0  0  0  0  0  0  0  0
  -28.8623   -2.0798   -5.0554 C   0  0  0  0  0  0  0  0  0  0  0  0
  -29.0733   -3.3420   -5.6167 C   0  0  0  0  0  0  0  0  0  0  0  0
  -28.8808   -3.5335   -6.9826 C   0  0  0  0  0  0  0  0  0  0  0  0
  -29.0537   -4.7577   -7.5047 F   0  0  0  0  0  0  0  0  0  0  0  0
 19 20  1  0  0  0
 20 18  1  0  0  0
 18 17  1  0  0  0
 17 16  1  0  0  0
 16 14  1  0  0  0
 14 15  2  0  0  0
 14  8  1  0  0  0
  8  9  2  0  0  0
  8 12  1  0  0  0
  9 10  1  0  0  0
 10 11  1  0  0  0
 10 13  1  0  0  0
 11  2  1  0  0  0
 11 12  2  0  0  0
  2  3  1  0  0  0
  2  7  2  0  0  0
  3  4  2  0  0  0
  4  1  1  0  0  0
  4  5  1  0  0  0
  1 21  1  0  0  0
 21 22  1  0  0  0
 21 26  2  0  0  0
 22 23  2  0  0  0
 23 24  1  0  0  0
 24 27  1  0  0  0
 24 25  2  0  0  0
 27 28  1  0  0  0
 27 31  1  0  0  0
 28 29  2  0  0  0
 28 30  1  0  0  0
 30 33  1  0  0  0
 30 32  1  0  0  0
 33 34  1  0  0  0
 33 39  2  0  0  0
 34 35  2  0  0  0
 35 36  1  0  0  0
 35 37  1  0  0  0
 37 38  2  0  0  0
 38 39  1  0  0  0
 39 40  1  0  0  0
 25 26  1  0  0  0
  5  6  2  0  0  0
  6  7  1  0  0  0
M  END
> <minimizedAffinity>
-10.58874

$$$$
