CHEMBL2088092


 28 30  0  0  0  0  0  0  0  0999 V2000
  -29.2382   -3.0593   -5.8205 C   0  0  0  0  0  0  0  0  0  0  0  0
  -28.7153   -2.6261   -6.9848 N   0  0  0  0  0  0  0  0  0  0  0  0
  -28.0235   -1.4864   -7.0141 C   0  0  0  0  0  0  0  0  0  0  0  0
  -27.8429   -0.6981   -5.9528 N   0  0  0  0  0  0  0  0  0  0  0  0
  -28.3794   -1.1323   -4.7933 C   0  0  0  0  0  0  0  0  0  0  0  0
  -29.0881   -2.3072   -4.6670 C   0  0  0  0  0  0  0  0  0  0  0  0
  -29.7501   -2.8417   -2.9824 Br  0  0  0  0  0  0  0  0  0  0  0  0
  -29.8863   -4.3099   -5.7838 N   0  0  0  0  0  0  0  0  0  0  0  0
  -30.6677   -4.3433   -5.1405 H   0  0  0  0  0  0  0  0  0  0  0  0
  -29.3707   -8.4693   -8.4554 C   0  0  0  0  0  0  0  0  0  0  0  0
  -29.2826   -7.3499   -7.4961 C   0  0  0  0  0  0  0  0  0  0  0  0
  -30.0685   -6.2325   -7.3270 C   0  0  0  0  0  0  0  0  0  0  0  0
  -29.4846   -5.5060   -6.2631 C   0  0  0  0  0  0  0  0  0  0  0  0
  -28.4230   -6.1536   -5.7724 N   0  0  0  0  0  0  0  0  0  0  0  0
  -28.3080   -7.2438   -6.5492 N   0  0  0  0  0  0  0  0  0  0  0  0
  -27.5296   -7.8729   -6.3794 H   0  0  0  0  0  0  0  0  0  0  0  0
  -27.4443   -1.2057   -8.2309 N   0  0  0  0  0  0  0  0  0  0  0  0
  -26.4407   -1.2462   -8.0975 H   0  0  0  0  0  0  0  0  0  0  0  0
  -27.9304   -1.9510   -9.3728 C   0  0  0  0  0  0  0  0  0  0  0  0
  -27.1053   -1.6780  -10.5783 C   0  0  0  0  0  0  0  0  0  0  0  0
  -25.7666   -1.4386  -10.7618 C   0  0  0  0  0  0  0  0  0  0  0  0
  -25.6103   -1.3484  -12.1691 C   0  0  0  0  0  0  0  0  0  0  0  0
  -26.7898   -1.5005  -12.7851 N   0  0  0  0  0  0  0  0  0  0  0  0
  -27.7236   -1.7112  -11.7855 O   0  0  0  0  0  0  0  0  0  0  0  0
  -24.3184   -1.1274  -12.9330 C   0  0  0  0  0  0  0  0  0  0  0  0
  -24.6014   -1.1214  -14.4499 C   0  0  0  0  0  0  0  0  0  0  0  0
  -23.6445    0.2139  -12.5698 C   0  0  0  0  0  0  0  0  0  0  0  0
  -23.3241   -2.2614  -12.6174 C   0  0  0  0  0  0  0  0  0  0  0  0
 10 11  1  0  0  0
 11 12  2  0  0  0
 11 15  1  0  0  0
 12 13  1  0  0  0
 13  8  1  0  0  0
 13 14  2  0  0  0
  8  1  1  0  0  0
  8  9  1  0  0  0
  1  2  1  0  0  0
  1  6  2  0  0  0
  2  3  2  0  0  0
  3 17  1  0  0  0
  3  4  1  0  0  0
 17 19  1  0  0  0
 17 18  1  0  0  0
 19 20  1  0  0  0
 20 21  2  0  0  0
 20 24  1  0  0  0
 21 22  1  0  0  0
 22 25  1  0  0  0
 22 23  2  0  0  0
 25 26  1  0  0  0
 25 27  1  0  0  0
 25 28  1  0  0  0
 23 24  1  0  0  0
  4  5  2  0  0  0
  5  6  1  0  0  0
  6  7  1  0  0  0
 14 15  1  0  0  0
 15 16  1  0  0  0
M  END
> <minimizedAffinity>
-8.67524

$$$$
