CHEMBL2001485


 43 47  0  0  0  0  0  0  0  0999 V2000
  -21.9491    0.2497  -14.2649 C   0  0  0  0  0  0  0  0  0  0  0  0
  -21.1391   -0.7773  -14.7086 C   0  0  0  0  0  0  0  0  0  0  0  0
  -19.6153   -0.2657  -15.2167 S   0  0  0  0  0  0  0  0  0  0  0  0
  -19.9878    1.4019  -14.9622 C   0  0  0  0  0  0  0  0  0  0  0  0
  -19.1531    2.5163  -15.2177 C   0  0  0  0  0  0  0  0  0  0  0  0
  -19.6864    3.7461  -14.8810 C   0  0  0  0  0  0  0  0  0  0  0  0
  -20.8928    3.9383  -14.3341 N   0  0  0  0  0  0  0  0  0  0  0  0
  -21.6901    2.8846  -14.0810 C   0  0  0  0  0  0  0  0  0  0  0  0
  -22.8880    3.2487  -13.4796 N   0  0  0  0  0  0  0  0  0  0  0  0
  -21.2823    1.5560  -14.4029 C   0  0  0  0  0  0  0  0  0  0  0  0
  -22.8276    4.2236  -13.2060 H   0  0  0  0  0  0  0  0  0  0  0  0
  -23.1711    2.6181  -12.7393 H   0  0  0  0  0  0  0  0  0  0  0  0
  -25.6898   -0.9756  -12.5410 C   0  0  0  0  0  0  0  0  0  0  0  0
  -25.3203   -1.4009  -13.8180 C   0  0  0  0  0  0  0  0  0  0  0  0
  -24.1155   -0.9818  -14.3855 C   0  0  0  0  0  0  0  0  0  0  0  0
  -23.2725   -0.0886  -13.7077 C   0  0  0  0  0  0  0  0  0  0  0  0
  -23.7230    0.4316  -12.4878 C   0  0  0  0  0  0  0  0  0  0  0  0
  -24.9036   -0.0317  -11.8864 C   0  0  0  0  0  0  0  0  0  0  0  0
  -27.8920   -2.3329  -10.0004 N   0  0  0  0  0  0  0  0  0  0  0  0
  -26.7377   -1.7933  -10.5170 C   0  0  0  0  0  0  0  0  0  0  0  0
  -25.7388   -1.5041   -9.8655 O   0  0  0  0  0  0  0  0  0  0  0  0
  -26.8157   -1.5358  -11.8832 N   0  0  0  0  0  0  0  0  0  0  0  0
  -28.5787   -2.6759  -10.6631 H   0  0  0  0  0  0  0  0  0  0  0  0
  -27.7229   -1.2369  -12.2084 H   0  0  0  0  0  0  0  0  0  0  0  0
  -28.8600   -3.3741   -4.4293 C   0  0  0  0  0  0  0  0  0  0  0  0
  -28.5888   -3.0959   -5.8798 C   0  0  0  0  0  0  0  0  0  0  0  0
  -28.7762   -4.1062   -6.8174 C   0  0  0  0  0  0  0  0  0  0  0  0
  -28.5356   -3.8631   -8.1681 C   0  0  0  0  0  0  0  0  0  0  0  0
  -28.1204   -2.6093   -8.6271 C   0  0  0  0  0  0  0  0  0  0  0  0
  -27.9268   -1.5952   -7.6821 C   0  0  0  0  0  0  0  0  0  0  0  0
  -28.1612   -1.8413   -6.3171 C   0  0  0  0  0  0  0  0  0  0  0  0
  -17.8298    2.4076  -15.7946 C   0  0  0  0  0  0  0  0  0  0  0  0
  -17.0232    3.3229  -16.5083 C   0  0  0  0  0  0  0  0  0  0  0  0
  -15.8228    2.8246  -16.8146 N   0  0  0  0  0  0  0  0  0  0  0  0
  -15.8380    1.5927  -16.2673 N   0  0  0  0  0  0  0  0  0  0  0  0
  -17.0271    1.2936  -15.6602 C   0  0  0  0  0  0  0  0  0  0  0  0
  -14.6215    0.7844  -16.3091 C   0  0  0  0  0  0  0  0  0  0  0  0
  -14.1762    0.6542  -17.7712 C   0  0  0  0  0  0  0  0  0  0  0  0
  -13.4959    1.3521  -15.4402 C   0  0  0  0  0  0  0  0  0  0  0  0
  -12.6112    2.0446  -15.9601 O   0  0  0  0  0  0  0  0  0  0  0  0
  -13.4484    1.0543  -14.0802 N   0  0  0  0  0  0  0  0  0  0  0  0
  -14.4274    0.2736  -13.3330 C   0  0  0  0  0  0  0  0  0  0  0  0
  -12.3105    1.5240  -13.3008 C   0  0  0  0  0  0  0  0  0  0  0  0
 25 26  1  0  0  0
 26 27  1  0  0  0
 26 31  2  0  0  0
 27 28  2  0  0  0
 28 29  1  0  0  0
 29 19  1  0  0  0
 29 30  2  0  0  0
 19 20  1  0  0  0
 19 23  1  0  0  0
 20 21  2  0  0  0
 20 22  1  0  0  0
 22 13  1  0  0  0
 22 24  1  0  0  0
 13 14  1  0  0  0
 13 18  2  0  0  0
 14 15  2  0  0  0
 15 16  1  0  0  0
 16  1  1  0  0  0
 16 17  2  0  0  0
  1  2  2  0  0  0
  1 10  1  0  0  0
  2  3  1  0  0  0
  3  4  1  0  0  0
  4  5  1  0  0  0
  4 10  2  0  0  0
  5 32  1  0  0  0
  5  6  2  0  0  0
 32 33  1  0  0  0
 32 36  2  0  0  0
 33 34  2  0  0  0
 34 35  1  0  0  0
 35 37  1  0  0  0
 35 36  1  0  0  0
 37 38  1  0  0  0
 37 39  1  0  0  0
 39 40  2  0  0  0
 39 41  1  0  0  0
 41 42  1  0  0  0
 41 43  1  0  0  0
  6  7  1  0  0  0
  7  8  2  0  0  0
  8  9  1  0  0  0
  8 10  1  0  0  0
  9 11  1  0  0  0
  9 12  1  0  0  0
 17 18  1  0  0  0
 30 31  1  0  0  0
M  END
> <minimizedAffinity>
-10.53467

$$$$
