CHEMBL1076470


 49 53  0  0  0  0  0  0  0  0999 V2000
  -28.1635   -9.0967   -7.5364 N   0  0  0  0  0  0  0  0  0  0  0  0
  -27.2457   -9.5874   -6.5978 C   0  0  0  0  0  0  0  0  0  0  0  0
  -26.8336  -10.7882   -6.9421 N   0  0  0  0  0  0  0  0  0  0  0  0
  -27.4510  -11.0982   -8.1129 C   0  0  0  0  0  0  0  0  0  0  0  0
  -27.2844  -12.2352   -8.9174 C   0  0  0  0  0  0  0  0  0  0  0  0
  -28.0156  -12.3364  -10.1038 C   0  0  0  0  0  0  0  0  0  0  0  0
  -28.9065  -11.3306  -10.4725 C   0  0  0  0  0  0  0  0  0  0  0  0
  -29.0852  -10.1922   -9.6773 C   0  0  0  0  0  0  0  0  0  0  0  0
  -28.3342  -10.0964   -8.4930 C   0  0  0  0  0  0  0  0  0  0  0  0
  -28.7183   -5.4881   -8.0005 C   0  0  0  0  0  0  0  0  0  0  0  0
  -28.0771   -6.7123   -8.0409 C   0  0  0  0  0  0  0  0  0  0  0  0
  -28.7811   -7.8106   -7.5807 C   0  0  0  0  0  0  0  0  0  0  0  0
  -30.0686   -7.7202   -7.1855 N   0  0  0  0  0  0  0  0  0  0  0  0
  -30.6113   -6.5012   -7.2184 C   0  0  0  0  0  0  0  0  0  0  0  0
  -29.9898   -5.3784   -7.5892 N   0  0  0  0  0  0  0  0  0  0  0  0
  -28.0403   -4.3573   -8.4938 N   0  0  0  0  0  0  0  0  0  0  0  0
  -27.1219   -4.2799   -8.0682 H   0  0  0  0  0  0  0  0  0  0  0  0
  -28.8029   -3.1139   -8.3474 C   0  0  0  0  0  0  0  0  0  0  0  0
  -27.8899   -1.9060   -8.5590 C   0  0  0  0  0  0  0  0  0  0  0  0
  -27.0216   -1.9847   -9.8198 C   0  0  0  0  0  0  0  0  0  0  0  0
  -27.5643   -1.2231  -11.0417 C   0  0  0  0  0  0  0  0  0  0  0  0
  -26.5680   -0.9399  -12.0939 N   0  0  0  0  0  0  0  0  0  0  0  0
  -24.3216    0.2028  -11.9369 C   0  0  0  0  0  0  0  0  0  0  0  0
  -25.1931   -0.9951  -11.5690 C   0  0  0  0  0  0  0  0  0  0  0  0
  -26.7884   -1.7870  -13.2822 C   0  0  0  0  0  0  0  0  0  0  0  0
  -28.1992   -2.3347  -13.4935 C   0  0  0  0  0  0  0  0  0  0  0  0
  -26.9087   -8.9108   -5.4585 N   0  0  0  0  0  0  0  0  0  0  0  0
  -25.9248   -8.7297   -5.3037 H   0  0  0  0  0  0  0  0  0  0  0  0
  -27.7632   -8.0295   -4.7416 C   0  0  0  0  0  0  0  0  0  0  0  0
  -27.6853   -6.6340   -4.9221 C   0  0  0  0  0  0  0  0  0  0  0  0
  -28.4872   -5.7351   -4.2198 C   0  0  0  0  0  0  0  0  0  0  0  0
  -29.4512   -6.2439   -3.3515 C   0  0  0  0  0  0  0  0  0  0  0  0
  -29.5988   -7.6241   -3.1953 C   0  0  0  0  0  0  0  0  0  0  0  0
  -28.7694   -8.5271   -3.8857 C   0  0  0  0  0  0  0  0  0  0  0  0
  -28.9816  -10.0005   -3.6677 C   0  0  0  0  0  0  0  0  0  0  0  0
  -28.3555   -4.3316   -4.3123 N   0  0  0  0  0  0  0  0  0  0  0  0
  -29.3398   -3.4247   -4.6729 C   0  0  0  0  0  0  0  0  0  0  0  0
  -30.5306   -3.6508   -4.8357 O   0  0  0  0  0  0  0  0  0  0  0  0
  -27.4428   -3.9641   -4.0847 H   0  0  0  0  0  0  0  0  0  0  0  0
  -28.8883   -2.0135   -4.8380 C   0  0  0  0  0  0  0  0  0  0  0  0
  -27.5625   -1.6100   -4.6379 C   0  0  0  0  0  0  0  0  0  0  0  0
  -27.2024   -0.2739   -4.8228 C   0  0  0  0  0  0  0  0  0  0  0  0
  -28.1593    0.6652   -5.2147 C   0  0  0  0  0  0  0  0  0  0  0  0
  -29.4874    0.2765   -5.4371 C   0  0  0  0  0  0  0  0  0  0  0  0
  -29.8390   -1.0693   -5.2546 C   0  0  0  0  0  0  0  0  0  0  0  0
  -30.5425    1.2678   -5.8606 C   0  0  0  0  0  0  0  0  0  0  0  0
  -31.6714    0.6825   -6.3492 F   0  0  0  0  0  0  0  0  0  0  0  0
  -30.9503    2.0701   -4.8396 F   0  0  0  0  0  0  0  0  0  0  0  0
  -30.1026    2.1022   -6.8430 F   0  0  0  0  0  0  0  0  0  0  0  0
 23 24  1  0  0  0
 24 22  1  0  0  0
 22 25  1  0  0  0
 22 21  1  0  0  0
 25 26  1  0  0  0
 21 20  1  0  0  0
 20 19  1  0  0  0
 19 18  1  0  0  0
 18 16  1  0  0  0
 16 10  1  0  0  0
 16 17  1  0  0  0
 10 11  1  0  0  0
 10 15  2  0  0  0
 11 12  2  0  0  0
 12  1  1  0  0  0
 12 13  1  0  0  0
  1  2  1  0  0  0
  1  9  1  0  0  0
  2 27  1  0  0  0
  2  3  2  0  0  0
 27 29  1  0  0  0
 27 28  1  0  0  0
 29 30  1  0  0  0
 29 34  2  0  0  0
 30 31  2  0  0  0
 31 36  1  0  0  0
 31 32  1  0  0  0
 36 37  1  0  0  0
 36 39  1  0  0  0
 37 38  2  0  0  0
 37 40  1  0  0  0
 40 41  1  0  0  0
 40 45  2  0  0  0
 41 42  2  0  0  0
 42 43  1  0  0  0
 43 44  2  0  0  0
 44 46  1  0  0  0
 44 45  1  0  0  0
 46 47  1  0  0  0
 46 48  1  0  0  0
 46 49  1  0  0  0
 32 33  2  0  0  0
 33 34  1  0  0  0
 34 35  1  0  0  0
  3  4  1  0  0  0
  4  5  1  0  0  0
  4  9  2  0  0  0
  5  6  2  0  0  0
  6  7  1  0  0  0
  7  8  2  0  0  0
  8  9  1  0  0  0
 13 14  2  0  0  0
 14 15  1  0  0  0
M  END
> <minimizedAffinity>
-9.99756

$$$$
