CHEMBL4165836


 32 35  0  0  0  0  0  0  0  0999 V2000
  -16.3032    1.0966  -14.2750 C   0  0  0  0  0  0  0  0  0  0  0  0
  -16.2282    1.4736  -15.5347 N   0  0  0  0  0  0  0  0  0  0  0  0
  -17.5016    1.8725  -15.8385 C   0  0  0  0  0  0  0  0  0  0  0  0
  -18.3310    1.6961  -14.7540 C   0  0  0  0  0  0  0  0  0  0  0  0
  -17.5501    1.2169  -13.7292 O   0  0  0  0  0  0  0  0  0  0  0  0
  -19.7485    1.8998  -14.4873 C   0  0  0  0  0  0  0  0  0  0  0  0
  -20.3513    3.1457  -14.7106 C   0  0  0  0  0  0  0  0  0  0  0  0
  -21.7101    3.3375  -14.4614 C   0  0  0  0  0  0  0  0  0  0  0  0
  -22.4893    2.2786  -13.9997 C   0  0  0  0  0  0  0  0  0  0  0  0
  -21.9219    1.0175  -13.7802 C   0  0  0  0  0  0  0  0  0  0  0  0
  -20.5472    0.8440  -14.0084 C   0  0  0  0  0  0  0  0  0  0  0  0
  -22.7786   -0.0956  -13.3900 C   0  0  0  0  0  0  0  0  0  0  0  0
  -22.7524   -0.8544  -12.1846 C   0  0  0  0  0  0  0  0  0  0  0  0
  -23.7625   -1.7868  -12.2470 C   0  0  0  0  0  0  0  0  0  0  0  0
  -24.3955   -1.6362  -13.4508 N   0  0  0  0  0  0  0  0  0  0  0  0
  -23.8090   -0.6116  -14.1527 C   0  0  0  0  0  0  0  0  0  0  0  0
  -25.1807   -2.1896  -13.7689 H   0  0  0  0  0  0  0  0  0  0  0  0
  -15.3406    0.6220  -13.4675 N   0  0  0  0  0  0  0  0  0  0  0  0
  -15.0971    1.1355  -12.6306 H   0  0  0  0  0  0  0  0  0  0  0  0
  -15.1396   -2.9719  -12.5345 C   0  0  0  0  0  0  0  0  0  0  0  0
  -14.1387   -3.4286  -13.3895 C   0  0  0  0  0  0  0  0  0  0  0  0
  -13.5203   -2.5338  -14.2680 C   0  0  0  0  0  0  0  0  0  0  0  0
  -13.8968   -1.1832  -14.2914 C   0  0  0  0  0  0  0  0  0  0  0  0
  -14.9302   -0.7287  -13.4424 C   0  0  0  0  0  0  0  0  0  0  0  0
  -15.5403   -1.6379  -12.5632 C   0  0  0  0  0  0  0  0  0  0  0  0
  -15.8132   -4.0538  -11.2966 S   0  0  0  0  0  0  0  0  0  0  0  0
  -16.7254   -4.9617  -11.9675 O   0  0  0  0  0  0  0  0  0  0  0  0
  -16.2753   -3.2157  -10.2073 O   0  0  0  0  0  0  0  0  0  0  0  0
  -14.3978   -6.3772  -11.3422 C   0  0  0  0  0  0  0  0  0  0  0  0
  -14.4114   -4.9903  -10.7251 C   0  0  0  0  0  0  0  0  0  0  0  0
  -13.3003   -0.2332  -15.0859 O   0  0  0  0  0  0  0  0  0  0  0  0
  -13.2450   -0.5163  -16.4807 C   0  0  0  0  0  0  0  0  0  0  0  0
 29 30  1  0  0  0
 30 26  1  0  0  0
 26 27  2  0  0  0
 26 28  2  0  0  0
 26 20  1  0  0  0
 20 21  1  0  0  0
 20 25  2  0  0  0
 21 22  2  0  0  0
 22 23  1  0  0  0
 23 31  1  0  0  0
 23 24  2  0  0  0
 31 32  1  0  0  0
 24 18  1  0  0  0
 24 25  1  0  0  0
 18  1  1  0  0  0
 18 19  1  0  0  0
  1  2  2  0  0  0
  1  5  1  0  0  0
  2  3  1  0  0  0
  3  4  2  0  0  0
  4  6  1  0  0  0
  4  5  1  0  0  0
  6  7  1  0  0  0
  6 11  2  0  0  0
  7  8  2  0  0  0
  8  9  1  0  0  0
  9 10  2  0  0  0
 10 12  1  0  0  0
 10 11  1  0  0  0
 12 13  1  0  0  0
 12 16  2  0  0  0
 13 14  2  0  0  0
 14 15  1  0  0  0
 15 16  1  0  0  0
 15 17  1  0  0  0
M  END
> <minimizedAffinity>
-9.24863

$$$$
