CHEMBL3941740


 46 50  0  0  0  0  0  0  0  0999 V2000
  -30.4500   -3.8225   -4.8035 O   0  0  0  0  0  0  0  0  0  0  0  0
  -30.1038   -4.7692   -5.5071 C   0  0  0  0  0  0  0  0  0  0  0  0
  -29.2225   -4.6873   -6.5608 N   0  0  0  0  0  0  0  0  0  0  0  0
  -30.7439   -5.9735   -5.3450 N   0  0  0  0  0  0  0  0  0  0  0  0
  -29.4526   -5.3347   -7.3010 H   0  0  0  0  0  0  0  0  0  0  0  0
  -31.5917   -5.8604   -4.7998 H   0  0  0  0  0  0  0  0  0  0  0  0
  -30.4507   -7.2627   -5.8232 C   0  0  0  0  0  0  0  0  0  0  0  0
  -29.5085   -8.1030   -5.2248 C   0  0  0  0  0  0  0  0  0  0  0  0
  -29.2250   -9.3576   -5.7741 C   0  0  0  0  0  0  0  0  0  0  0  0
  -29.8590   -9.7716   -6.9490 C   0  0  0  0  0  0  0  0  0  0  0  0
  -30.8643   -8.9736   -7.4904 C   0  0  0  0  0  0  0  0  0  0  0  0
  -31.5394   -9.3774   -8.5758 F   0  0  0  0  0  0  0  0  0  0  0  0
  -31.1719   -7.7312   -6.9267 C   0  0  0  0  0  0  0  0  0  0  0  0
  -29.5626  -10.9610   -7.5844 O   0  0  0  0  0  0  0  0  0  0  0  0
  -28.4989  -10.9926   -8.4677 C   0  0  0  0  0  0  0  0  0  0  0  0
  -28.6052  -10.6192   -9.8048 C   0  0  0  0  0  0  0  0  0  0  0  0
  -27.4566  -10.6226  -10.5622 C   0  0  0  0  0  0  0  0  0  0  0  0
  -26.2632  -11.0180  -10.0897 N   0  0  0  0  0  0  0  0  0  0  0  0
  -26.1750  -11.4498   -8.8209 C   0  0  0  0  0  0  0  0  0  0  0  0
  -27.2758  -11.4577   -7.9740 C   0  0  0  0  0  0  0  0  0  0  0  0
  -24.9409  -11.9099   -8.3355 N   0  0  0  0  0  0  0  0  0  0  0  0
  -24.2226  -11.2778   -7.3424 C   0  0  0  0  0  0  0  0  0  0  0  0
  -24.5285  -10.2756   -6.7105 O   0  0  0  0  0  0  0  0  0  0  0  0
  -24.5562  -12.7421   -8.7521 H   0  0  0  0  0  0  0  0  0  0  0  0
  -22.9038  -11.9274   -7.0458 C   0  0  0  0  0  0  0  0  0  0  0  0
  -21.6131  -11.2048   -7.3771 C   0  0  0  0  0  0  0  0  0  0  0  0
  -22.0377  -12.3863   -8.1983 C   0  0  0  0  0  0  0  0  0  0  0  0
  -28.6727   -3.4590   -6.9896 C   0  0  0  0  0  0  0  0  0  0  0  0
  -27.9551   -3.4513   -8.1923 C   0  0  0  0  0  0  0  0  0  0  0  0
  -27.5272   -2.2528   -8.7784 C   0  0  0  0  0  0  0  0  0  0  0  0
  -27.6727   -1.0774   -8.0340 C   0  0  0  0  0  0  0  0  0  0  0  0
  -28.3212   -1.0729   -6.7821 C   0  0  0  0  0  0  0  0  0  0  0  0
  -28.8529   -2.2714   -6.2827 C   0  0  0  0  0  0  0  0  0  0  0  0
  -28.4609    0.2021   -5.9877 C   0  0  0  0  0  0  0  0  0  0  0  0
  -29.6691    0.3251   -5.3662 F   0  0  0  0  0  0  0  0  0  0  0  0
  -27.5275    0.3197   -5.0047 F   0  0  0  0  0  0  0  0  0  0  0  0
  -28.3330    1.3166   -6.7616 F   0  0  0  0  0  0  0  0  0  0  0  0
  -26.9503   -2.3228  -10.0560 N   0  0  0  0  0  0  0  0  0  0  0  0
  -26.2040   -3.0175  -10.0504 H   0  0  0  0  0  0  0  0  0  0  0  0
  -26.5731   -1.0940  -10.7810 C   0  0  0  0  0  0  0  0  0  0  0  0
  -27.3641   -0.9292  -12.0839 C   0  0  0  0  0  0  0  0  0  0  0  0
  -26.9186   -1.9054  -13.1718 C   0  0  0  0  0  0  0  0  0  0  0  0
  -25.4879   -1.8273  -13.4631 N   0  0  0  0  0  0  0  0  0  0  0  0
  -24.6716   -1.9879  -12.2630 C   0  0  0  0  0  0  0  0  0  0  0  0
  -25.0722   -1.0778  -11.1020 C   0  0  0  0  0  0  0  0  0  0  0  0
  -25.2716   -0.9476  -13.9282 H   0  0  0  0  0  0  0  0  0  0  0  0
  1  2  2  0  0  0
  2  3  1  0  0  0
  2  4  1  0  0  0
  3 28  1  0  0  0
  3  5  1  0  0  0
 28 29  1  0  0  0
 28 33  2  0  0  0
 29 30  2  0  0  0
 30 38  1  0  0  0
 30 31  1  0  0  0
 38 40  1  0  0  0
 38 39  1  0  0  0
 40 41  1  0  0  0
 40 45  1  0  0  0
 41 42  1  0  0  0
 42 43  1  0  0  0
 43 44  1  0  0  0
 43 46  1  0  0  0
 44 45  1  0  0  0
 31 32  2  0  0  0
 32 34  1  0  0  0
 32 33  1  0  0  0
 34 35  1  0  0  0
 34 36  1  0  0  0
 34 37  1  0  0  0
  4  7  1  0  0  0
  4  6  1  0  0  0
  7  8  1  0  0  0
  7 13  2  0  0  0
  8  9  2  0  0  0
  9 10  1  0  0  0
 10 14  1  0  0  0
 10 11  2  0  0  0
 14 15  1  0  0  0
 15 16  1  0  0  0
 15 20  2  0  0  0
 16 17  2  0  0  0
 17 18  1  0  0  0
 18 19  2  0  0  0
 19 21  1  0  0  0
 19 20  1  0  0  0
 21 22  1  0  0  0
 21 24  1  0  0  0
 22 23  2  0  0  0
 22 25  1  0  0  0
 25 26  1  0  0  0
 25 27  1  0  0  0
 26 27  1  0  0  0
 11 12  1  0  0  0
 11 13  1  0  0  0
M  END
> <minimizedAffinity>
-10.39412

$$$$
