CHEMBL4515673


 41 44  0  0  0  0  0  0  0  0999 V2000
  -28.0838   -3.1684   -8.0793 C   0  0  0  0  0  0  0  0  0  0  0  0
  -28.0940   -3.0245   -6.6917 C   0  0  0  0  0  0  0  0  0  0  0  0
  -28.0676   -1.7553   -6.0855 C   0  0  0  0  0  0  0  0  0  0  0  0
  -28.1592   -1.5503   -4.6996 C   0  0  0  0  0  0  0  0  0  0  0  0
  -28.1883   -0.3182   -4.1655 N   0  0  0  0  0  0  0  0  0  0  0  0
  -28.1016    0.7053   -5.0218 C   0  0  0  0  0  0  0  0  0  0  0  0
  -27.9884    0.6228   -6.3546 N   0  0  0  0  0  0  0  0  0  0  0  0
  -27.9868   -0.6071   -6.8816 C   0  0  0  0  0  0  0  0  0  0  0  0
  -27.9107   -0.7660   -8.2648 C   0  0  0  0  0  0  0  0  0  0  0  0
  -27.9601   -2.0261   -8.8887 C   0  0  0  0  0  0  0  0  0  0  0  0
  -28.5077   -5.4840   -7.7683 C   0  0  0  0  0  0  0  0  0  0  0  0
  -28.1536   -4.4127   -8.6405 O   0  0  0  0  0  0  0  0  0  0  0  0
  -28.2259   -2.6747   -3.8275 N   0  0  0  0  0  0  0  0  0  0  0  0
  -27.9299   -2.3883   -2.8953 H   0  0  0  0  0  0  0  0  0  0  0  0
  -29.3260   -3.5672   -3.7644 C   0  0  0  0  0  0  0  0  0  0  0  0
  -30.6160   -3.0653   -3.5256 C   0  0  0  0  0  0  0  0  0  0  0  0
  -31.7045   -3.9252   -3.3935 C   0  0  0  0  0  0  0  0  0  0  0  0
  -31.5111   -5.2937   -3.5218 C   0  0  0  0  0  0  0  0  0  0  0  0
  -32.5513   -6.1209   -3.3577 F   0  0  0  0  0  0  0  0  0  0  0  0
  -30.2592   -5.8189   -3.8160 C   0  0  0  0  0  0  0  0  0  0  0  0
  -29.1717   -4.9542   -3.9486 C   0  0  0  0  0  0  0  0  0  0  0  0
  -27.6215   -5.6279   -4.3141 Cl  0  0  0  0  0  0  0  0  0  0  0  0
  -27.9012   -1.9622  -10.2688 O   0  0  0  0  0  0  0  0  0  0  0  0
  -26.6457   -1.5887  -10.8346 C   0  0  0  0  0  0  0  0  0  0  0  0
  -26.6130   -1.6747  -12.3589 C   0  0  0  0  0  0  0  0  0  0  0  0
  -25.2289   -1.6988  -12.7340 O   0  0  0  0  0  0  0  0  0  0  0  0
  -24.3438   -1.7054  -11.6202 C   0  0  0  0  0  0  0  0  0  0  0  0
  -22.9200   -1.4484  -12.1258 C   0  0  0  0  0  0  0  0  0  0  0  0
  -22.6750   -0.0473  -12.4210 N   0  0  0  0  0  0  0  0  0  0  0  0
  -22.8309    0.4537  -13.6972 C   0  0  0  0  0  0  0  0  0  0  0  0
  -23.1157   -0.2458  -14.6616 O   0  0  0  0  0  0  0  0  0  0  0  0
  -22.6125    0.5889  -11.6346 H   0  0  0  0  0  0  0  0  0  0  0  0
  -22.6043    1.9415  -13.8316 C   0  0  0  0  0  0  0  0  0  0  0  0
  -21.2840    2.2026  -14.3575 N   0  0  0  0  0  0  0  0  0  0  0  0
  -20.9118    3.1812  -15.2297 C   0  0  0  0  0  0  0  0  0  0  0  0
  -19.6277    3.0794  -15.4915 N   0  0  0  0  0  0  0  0  0  0  0  0
  -19.2513    2.0006  -14.7252 C   0  0  0  0  0  0  0  0  0  0  0  0
  -20.2414    1.4107  -14.0286 N   0  0  0  0  0  0  0  0  0  0  0  0
  -17.8786    1.5180  -14.6556 N   0  0  0  0  0  0  0  0  0  0  0  0
  -17.3914    1.3557  -13.5258 O   0  0  0  0  0  0  0  0  0  0  0  0
  -17.2854    1.2982  -15.7245 O   0  0  0  0  0  0  0  0  0  0  0  0
 11 12  1  0  0  0
 12  1  1  0  0  0
  1  2  1  0  0  0
  1 10  2  0  0  0
  2  3  2  0  0  0
  3  4  1  0  0  0
  3  8  1  0  0  0
  4 13  1  0  0  0
  4  5  2  0  0  0
 13 15  1  0  0  0
 13 14  1  0  0  0
 15 16  1  0  0  0
 15 21  2  0  0  0
 16 17  2  0  0  0
 17 18  1  0  0  0
 18 19  1  0  0  0
 18 20  2  0  0  0
 20 21  1  0  0  0
 21 22  1  0  0  0
  5  6  1  0  0  0
  6  7  2  0  0  0
  7  8  1  0  0  0
  8  9  2  0  0  0
  9 10  1  0  0  0
 10 23  1  0  0  0
 23 24  1  0  0  0
 24 25  1  0  0  0
 25 26  1  0  0  0
 26 27  1  0  0  0
 27 28  1  0  0  0
 28 29  1  0  0  0
 29 30  1  0  0  0
 29 32  1  0  0  0
 30 31  2  0  0  0
 30 33  1  0  0  0
 33 34  1  0  0  0
 34 35  1  0  0  0
 34 38  1  0  0  0
 35 36  2  0  0  0
 36 37  1  0  0  0
 37 39  1  0  0  0
 37 38  2  0  0  0
 39 40  2  0  0  0
 39 41  1  0  0  0
M  CHG 1  39   1
M  CHG 1  41  -1
M  END
> <minimizedAffinity>
-8.59447

$$$$
