CHEMBL3986500


 44 48  0  0  0  0  0  0  0  0999 V2000
  -28.1968   -2.3735   -9.6355 N   0  0  0  0  0  0  0  0  0  0  0  0
  -26.9879   -1.9513  -10.1749 C   0  0  0  0  0  0  0  0  0  0  0  0
  -26.0662   -1.4954   -9.5028 O   0  0  0  0  0  0  0  0  0  0  0  0
  -26.9544   -2.0330  -11.5665 N   0  0  0  0  0  0  0  0  0  0  0  0
  -28.9874   -2.4266  -10.2584 H   0  0  0  0  0  0  0  0  0  0  0  0
  -27.8415   -1.9218  -12.0333 H   0  0  0  0  0  0  0  0  0  0  0  0
  -25.8010   -1.6138  -12.2811 C   0  0  0  0  0  0  0  0  0  0  0  0
  -25.8152   -1.5132  -13.6765 C   0  0  0  0  0  0  0  0  0  0  0  0
  -24.6511   -1.2011  -14.3898 C   0  0  0  0  0  0  0  0  0  0  0  0
  -23.4593   -0.9264  -13.7139 C   0  0  0  0  0  0  0  0  0  0  0  0
  -23.4535   -1.0265  -12.3196 C   0  0  0  0  0  0  0  0  0  0  0  0
  -22.3097   -0.8483  -11.6394 F   0  0  0  0  0  0  0  0  0  0  0  0
  -24.6139   -1.3383  -11.5982 C   0  0  0  0  0  0  0  0  0  0  0  0
  -22.2713   -0.6298  -14.3507 O   0  0  0  0  0  0  0  0  0  0  0  0
  -21.8290    0.6823  -14.4133 C   0  0  0  0  0  0  0  0  0  0  0  0
  -22.5570    1.7505  -13.8990 C   0  0  0  0  0  0  0  0  0  0  0  0
  -22.0492    3.0198  -14.0696 C   0  0  0  0  0  0  0  0  0  0  0  0
  -20.8631    3.2766  -14.6440 N   0  0  0  0  0  0  0  0  0  0  0  0
  -20.1119    2.2378  -15.0789 C   0  0  0  0  0  0  0  0  0  0  0  0
  -20.5645    0.9271  -14.9783 C   0  0  0  0  0  0  0  0  0  0  0  0
  -18.8450    2.5175  -15.6313 N   0  0  0  0  0  0  0  0  0  0  0  0
  -17.6423    2.1779  -15.0112 C   0  0  0  0  0  0  0  0  0  0  0  0
  -17.5056    1.6365  -13.9221 O   0  0  0  0  0  0  0  0  0  0  0  0
  -18.8136    3.0017  -16.5113 H   0  0  0  0  0  0  0  0  0  0  0  0
  -16.3821    2.4976  -15.7395 C   0  0  0  0  0  0  0  0  0  0  0  0
  -15.6092    1.4057  -16.4339 C   0  0  0  0  0  0  0  0  0  0  0  0
  -14.9754    2.1826  -15.3154 C   0  0  0  0  0  0  0  0  0  0  0  0
  -29.0008   -3.2888   -6.0958 C   0  0  0  0  0  0  0  0  0  0  0  0
  -28.7590   -3.3950   -7.4702 C   0  0  0  0  0  0  0  0  0  0  0  0
  -28.4674   -2.2677   -8.2468 C   0  0  0  0  0  0  0  0  0  0  0  0
  -28.4612   -1.0091   -7.6408 C   0  0  0  0  0  0  0  0  0  0  0  0
  -28.7035   -0.8842   -6.2584 C   0  0  0  0  0  0  0  0  0  0  0  0
  -28.9608   -2.0369   -5.4910 C   0  0  0  0  0  0  0  0  0  0  0  0
  -28.7332    0.4638   -5.5803 C   0  0  0  0  0  0  0  0  0  0  0  0
  -29.9528    0.7947   -5.0732 F   0  0  0  0  0  0  0  0  0  0  0  0
  -27.8656    0.5259   -4.5317 F   0  0  0  0  0  0  0  0  0  0  0  0
  -28.3832    1.4827   -6.4130 F   0  0  0  0  0  0  0  0  0  0  0  0
  -29.3276   -4.4605   -5.4730 O   0  0  0  0  0  0  0  0  0  0  0  0
  -28.6281   -8.6230   -3.7836 C   0  0  0  0  0  0  0  0  0  0  0  0
  -29.1719   -7.5128   -4.5445 N   0  0  0  0  0  0  0  0  0  0  0  0
  -29.8077   -7.9192   -5.7916 C   0  0  0  0  0  0  0  0  0  0  0  0
  -30.0542   -6.5792   -6.4686 C   0  0  0  0  0  0  0  0  0  0  0  0
  -28.8747   -5.6957   -6.0417 C   0  0  0  0  0  0  0  0  0  0  0  0
  -28.1674   -6.5201   -4.9462 C   0  0  0  0  0  0  0  0  0  0  0  0
 39 40  1  0  0  0
 40 41  1  0  0  0
 40 44  1  0  0  0
 41 42  1  0  0  0
 42 43  1  0  0  0
 43 38  1  0  0  0
 43 44  1  0  0  0
 38 28  1  0  0  0
 28 29  1  0  0  0
 28 33  2  0  0  0
 29 30  2  0  0  0
 30  1  1  0  0  0
 30 31  1  0  0  0
  1  2  1  0  0  0
  1  5  1  0  0  0
  2  3  2  0  0  0
  2  4  1  0  0  0
  4  7  1  0  0  0
  4  6  1  0  0  0
  7  8  1  0  0  0
  7 13  2  0  0  0
  8  9  2  0  0  0
  9 10  1  0  0  0
 10 14  1  0  0  0
 10 11  2  0  0  0
 14 15  1  0  0  0
 15 16  1  0  0  0
 15 20  2  0  0  0
 16 17  2  0  0  0
 17 18  1  0  0  0
 18 19  2  0  0  0
 19 21  1  0  0  0
 19 20  1  0  0  0
 21 22  1  0  0  0
 21 24  1  0  0  0
 22 23  2  0  0  0
 22 25  1  0  0  0
 25 26  1  0  0  0
 25 27  1  0  0  0
 26 27  1  0  0  0
 11 12  1  0  0  0
 11 13  1  0  0  0
 31 32  2  0  0  0
 32 34  1  0  0  0
 32 33  1  0  0  0
 34 35  1  0  0  0
 34 36  1  0  0  0
 34 37  1  0  0  0
M  END
> <minimizedAffinity>
-12.43108

$$$$
