CHEMBL3937949


 22 24  0  0  0  0  0  0  0  0999 V2000
  -21.7676   -0.2280  -14.1981 N   0  0  0  0  0  0  0  0  0  0  0  0
  -21.3359   -0.8468  -14.8704 H   0  0  0  0  0  0  0  0  0  0  0  0
  -21.3834    1.1203  -14.4088 C   0  0  0  0  0  0  0  0  0  0  0  0
  -22.2554    2.1202  -14.1492 N   0  0  0  0  0  0  0  0  0  0  0  0
  -21.8784    3.4266  -14.1497 N   0  0  0  0  0  0  0  0  0  0  0  0
  -20.6099    3.7292  -14.4571 C   0  0  0  0  0  0  0  0  0  0  0  0
  -19.6736    2.7751  -14.8211 C   0  0  0  0  0  0  0  0  0  0  0  0
  -18.3742    3.1506  -15.1983 C   0  0  0  0  0  0  0  0  0  0  0  0
  -17.4317    2.1875  -15.5493 C   0  0  0  0  0  0  0  0  0  0  0  0
  -17.7678    0.8405  -15.4918 C   0  0  0  0  0  0  0  0  0  0  0  0
  -19.0562    0.4561  -15.1075 C   0  0  0  0  0  0  0  0  0  0  0  0
  -20.0513    1.4159  -14.7890 C   0  0  0  0  0  0  0  0  0  0  0  0
  -25.3470   -1.5073  -12.3219 C   0  0  0  0  0  0  0  0  0  0  0  0
  -25.3418   -1.2671  -13.6926 C   0  0  0  0  0  0  0  0  0  0  0  0
  -24.1635   -0.8637  -14.3233 C   0  0  0  0  0  0  0  0  0  0  0  0
  -22.9546   -0.7396  -13.6240 C   0  0  0  0  0  0  0  0  0  0  0  0
  -22.9811   -0.9849  -12.2404 C   0  0  0  0  0  0  0  0  0  0  0  0
  -24.1629   -1.3697  -11.5912 C   0  0  0  0  0  0  0  0  0  0  0  0
  -27.7110   -1.5210  -12.0617 O   0  0  0  0  0  0  0  0  0  0  0  0
  -26.6223   -1.9256  -11.6954 C   0  0  0  0  0  0  0  0  0  0  0  0
  -26.4487   -2.7568  -10.6447 O   0  0  0  0  0  0  0  0  0  0  0  0
  -25.5263   -2.8318  -10.3399 H   0  0  0  0  0  0  0  0  0  0  0  0
 19 20  2  0  0  0
 20 21  1  0  0  0
 20 13  1  0  0  0
 21 22  1  0  0  0
 13 14  1  0  0  0
 13 18  2  0  0  0
 14 15  2  0  0  0
 15 16  1  0  0  0
 16  1  1  0  0  0
 16 17  2  0  0  0
  1  3  1  0  0  0
  1  2  1  0  0  0
  3  4  1  0  0  0
  3 12  2  0  0  0
  4  5  2  0  0  0
  5  6  1  0  0  0
  6  7  2  0  0  0
  7  8  1  0  0  0
  7 12  1  0  0  0
  8  9  2  0  0  0
  9 10  1  0  0  0
 10 11  2  0  0  0
 11 12  1  0  0  0
 17 18  1  0  0  0
M  END
> <minimizedAffinity>
-9.57551

$$$$
