CHEMBL3985195


 33 36  0  0  0  0  0  0  0  0999 V2000
  -28.9147   -5.7381   -5.3936 C   0  0  0  0  0  0  0  0  0  0  0  0
  -28.0117   -6.7819   -5.4213 C   0  0  0  0  0  0  0  0  0  0  0  0
  -28.5986   -8.0687   -5.1985 C   0  0  0  0  0  0  0  0  0  0  0  0
  -29.9723   -7.9692   -5.1735 C   0  0  0  0  0  0  0  0  0  0  0  0
  -30.5156   -6.3490   -5.2980 S   0  0  0  0  0  0  0  0  0  0  0  0
  -27.9357   -5.1134   -8.2320 N   0  0  0  0  0  0  0  0  0  0  0  0
  -28.6049   -3.9549   -7.9827 C   0  0  0  0  0  0  0  0  0  0  0  0
  -29.1395   -3.2612   -8.8354 O   0  0  0  0  0  0  0  0  0  0  0  0
  -28.5421   -3.5411   -6.6311 N   0  0  0  0  0  0  0  0  0  0  0  0
  -28.6377   -4.3184   -5.4630 C   0  0  0  0  0  0  0  0  0  0  0  0
  -28.4969   -3.4615   -4.3843 C   0  0  0  0  0  0  0  0  0  0  0  0
  -28.2962   -2.1473   -4.8634 C   0  0  0  0  0  0  0  0  0  0  0  0
  -28.0776   -0.9089   -4.2259 C   0  0  0  0  0  0  0  0  0  0  0  0
  -27.8688    0.2372   -4.9984 C   0  0  0  0  0  0  0  0  0  0  0  0
  -27.8902    0.1641   -6.3859 C   0  0  0  0  0  0  0  0  0  0  0  0
  -28.1324   -1.0497   -7.0352 C   0  0  0  0  0  0  0  0  0  0  0  0
  -28.3419   -2.2042   -6.2541 C   0  0  0  0  0  0  0  0  0  0  0  0
  -27.9760   -5.4826   -9.1730 H   0  0  0  0  0  0  0  0  0  0  0  0
  -27.4065   -5.6170   -7.5365 H   0  0  0  0  0  0  0  0  0  0  0  0
  -27.9338   -9.2872   -5.0329 N   0  0  0  0  0  0  0  0  0  0  0  0
  -26.6349   -9.3750   -4.5683 C   0  0  0  0  0  0  0  0  0  0  0  0
  -25.9683   -8.4042   -4.2313 O   0  0  0  0  0  0  0  0  0  0  0  0
  -26.1590  -10.6794   -4.5405 N   0  0  0  0  0  0  0  0  0  0  0  0
  -28.4828  -10.1288   -5.1212 H   0  0  0  0  0  0  0  0  0  0  0  0
  -26.6793  -11.3648   -5.0676 H   0  0  0  0  0  0  0  0  0  0  0  0
  -24.8337  -11.0258   -4.1702 C   0  0  0  0  0  0  0  0  0  0  0  0
  -24.4579  -11.2926   -2.8454 C   0  0  0  0  0  0  0  0  0  0  0  0
  -23.1201  -11.4766   -2.4974 C   0  0  0  0  0  0  0  0  0  0  0  0
  -22.1482  -11.4294   -3.4848 C   0  0  0  0  0  0  0  0  0  0  0  0
  -20.8622  -11.5619   -3.1275 F   0  0  0  0  0  0  0  0  0  0  0  0
  -22.5103  -11.2418   -4.8181 C   0  0  0  0  0  0  0  0  0  0  0  0
  -21.3025  -11.2059   -6.0459 Cl  0  0  0  0  0  0  0  0  0  0  0  0
  -23.8510  -11.0528   -5.1657 C   0  0  0  0  0  0  0  0  0  0  0  0
  6  7  1  0  0  0
  6 18  1  0  0  0
  6 19  1  0  0  0
  7  8  2  0  0  0
  7  9  1  0  0  0
  9 10  1  0  0  0
  9 17  1  0  0  0
 10  1  1  0  0  0
 10 11  2  0  0  0
  1  2  2  0  0  0
  1  5  1  0  0  0
  2  3  1  0  0  0
  3 20  1  0  0  0
  3  4  2  0  0  0
 20 21  1  0  0  0
 20 24  1  0  0  0
 21 22  2  0  0  0
 21 23  1  0  0  0
 23 26  1  0  0  0
 23 25  1  0  0  0
 26 27  1  0  0  0
 26 33  2  0  0  0
 27 28  2  0  0  0
 28 29  1  0  0  0
 29 30  1  0  0  0
 29 31  2  0  0  0
 31 32  1  0  0  0
 31 33  1  0  0  0
  4  5  1  0  0  0
 11 12  1  0  0  0
 12 13  1  0  0  0
 12 17  2  0  0  0
 13 14  2  0  0  0
 14 15  1  0  0  0
 15 16  2  0  0  0
 16 17  1  0  0  0
M  END
> <minimizedAffinity>
-9.07567

$$$$
