CHEMBL1945499


 35 38  0  0  0  0  0  0  0  0999 V2000
  -28.4441   -7.3861   -4.5290 C   0  0  0  0  0  0  0  0  0  0  0  0
  -28.4816   -8.3854   -3.6395 N   0  0  0  0  0  0  0  0  0  0  0  0
  -28.3855   -9.6400   -4.0961 C   0  0  0  0  0  0  0  0  0  0  0  0
  -28.3112   -9.9216   -5.4331 C   0  0  0  0  0  0  0  0  0  0  0  0
  -28.6584   -8.8940   -6.2791 C   0  0  0  0  0  0  0  0  0  0  0  0
  -28.6534   -7.6084   -5.8584 N   0  0  0  0  0  0  0  0  0  0  0  0
  -28.7244   -9.2091   -7.7280 C   0  0  0  0  0  0  0  0  0  0  0  0
  -29.9288   -9.5226   -8.3800 C   0  0  0  0  0  0  0  0  0  0  0  0
  -29.9227   -9.9133   -9.7265 C   0  0  0  0  0  0  0  0  0  0  0  0
  -28.7343   -9.8825  -10.4584 C   0  0  0  0  0  0  0  0  0  0  0  0
  -28.7254  -10.3299  -12.1161 Cl  0  0  0  0  0  0  0  0  0  0  0  0
  -27.5297   -9.6016   -9.8201 C   0  0  0  0  0  0  0  0  0  0  0  0
  -27.5377   -9.4272   -8.4378 C   0  0  0  0  0  0  0  0  0  0  0  0
  -26.3438   -9.7654   -7.7499 N   0  0  0  0  0  0  0  0  0  0  0  0
  -26.3094  -10.6726   -6.7122 C   0  0  0  0  0  0  0  0  0  0  0  0
  -24.8272  -11.3517   -6.3232 S   0  0  0  0  0  0  0  0  0  0  0  0
  -27.6041  -11.1220   -5.9795 C   0  0  0  0  0  0  0  0  0  0  0  0
  -25.4765   -9.7078   -8.2742 H   0  0  0  0  0  0  0  0  0  0  0  0
  -27.9541   -6.1184   -4.1496 N   0  0  0  0  0  0  0  0  0  0  0  0
  -27.3967   -6.2828   -3.3249 H   0  0  0  0  0  0  0  0  0  0  0  0
  -30.0196   -4.6915   -4.0836 C   0  0  0  0  0  0  0  0  0  0  0  0
  -30.5644   -3.3874   -4.2356 C   0  0  0  0  0  0  0  0  0  0  0  0
  -29.7724   -2.2636   -4.4291 C   0  0  0  0  0  0  0  0  0  0  0  0
  -28.3928   -2.3979   -4.4709 C   0  0  0  0  0  0  0  0  0  0  0  0
  -27.8367   -3.6848   -4.3435 C   0  0  0  0  0  0  0  0  0  0  0  0
  -28.6147   -4.8610   -4.2056 C   0  0  0  0  0  0  0  0  0  0  0  0
  -32.1320   -5.2750   -2.8093 C   0  0  0  0  0  0  0  0  0  0  0  0
  -31.0825   -5.7539   -3.8140 C   0  0  0  0  0  0  0  0  0  0  0  0
  -31.6831   -6.4434   -5.0355 C   0  0  0  0  0  0  0  0  0  0  0  0
  -27.5290   -1.1745   -4.6596 C   0  0  0  0  0  0  0  0  0  0  0  0
  -27.5015   -0.6422   -6.0956 C   0  0  0  0  0  0  0  0  0  0  0  0
  -28.3841   -1.4546   -7.0574 C   0  0  0  0  0  0  0  0  0  0  0  0
  -27.6092   -2.3626   -7.9282 N   0  0  0  0  0  0  0  0  0  0  0  0
  -28.2549   -3.6717   -8.0452 C   0  0  0  0  0  0  0  0  0  0  0  0
  -27.4809   -1.7702   -9.2640 C   0  0  0  0  0  0  0  0  0  0  0  0
 27 28  1  0  0  0
 28 29  1  0  0  0
 28 21  1  0  0  0
 21 22  1  0  0  0
 21 26  2  0  0  0
 22 23  2  0  0  0
 23 24  1  0  0  0
 24 30  1  0  0  0
 24 25  2  0  0  0
 30 31  1  0  0  0
 31 32  1  0  0  0
 32 33  1  0  0  0
 33 34  1  0  0  0
 33 35  1  0  0  0
 25 26  1  0  0  0
 26 19  1  0  0  0
 19  1  1  0  0  0
 19 20  1  0  0  0
  1  2  1  0  0  0
  1  6  2  0  0  0
  2  3  2  0  0  0
  3  4  1  0  0  0
  4  5  2  0  0  0
  4 17  1  0  0  0
  5  6  1  0  0  0
  5  7  1  0  0  0
  7  8  1  0  0  0
  7 13  2  0  0  0
  8  9  2  0  0  0
  9 10  1  0  0  0
 10 11  1  0  0  0
 10 12  2  0  0  0
 12 13  1  0  0  0
 13 14  1  0  0  0
 14 15  1  0  0  0
 14 18  1  0  0  0
 15 16  2  0  0  0
 15 17  1  0  0  0
M  END
> <minimizedAffinity>
-9.03708

$$$$
