CHEMBL4069008


 30 33  0  0  0  0  0  0  0  0999 V2000
  -13.5328   -3.5271  -10.9135 C   0  0  0  0  0  0  0  0  0  0  0  0
  -14.9214   -3.4783  -10.8108 C   0  0  0  0  0  0  0  0  0  0  0  0
  -15.7101   -2.8635  -11.7829 C   0  0  0  0  0  0  0  0  0  0  0  0
  -15.1489   -2.3547  -12.9526 C   0  0  0  0  0  0  0  0  0  0  0  0
  -13.7722   -2.4950  -13.1336 C   0  0  0  0  0  0  0  0  0  0  0  0
  -12.9740   -3.0583  -12.1183 C   0  0  0  0  0  0  0  0  0  0  0  0
  -12.3878   -6.6535  -12.2344 C   0  0  0  0  0  0  0  0  0  0  0  0
  -11.8387   -6.4254  -10.8694 C   0  0  0  0  0  0  0  0  0  0  0  0
  -11.0168   -7.3704  -10.3851 N   0  0  0  0  0  0  0  0  0  0  0  0
  -10.6985   -6.9257   -9.1659 N   0  0  0  0  0  0  0  0  0  0  0  0
  -11.2701   -5.7333   -8.8391 C   0  0  0  0  0  0  0  0  0  0  0  0
  -11.0933   -5.0981   -7.6671 N   0  0  0  0  0  0  0  0  0  0  0  0
  -11.7641   -3.9343   -7.5996 C   0  0  0  0  0  0  0  0  0  0  0  0
  -12.5596   -3.4047   -8.6055 C   0  0  0  0  0  0  0  0  0  0  0  0
  -12.7218   -4.0971   -9.8240 C   0  0  0  0  0  0  0  0  0  0  0  0
  -12.0323   -5.3409   -9.9375 C   0  0  0  0  0  0  0  0  0  0  0  0
  -10.0820   -7.4790   -8.5855 H   0  0  0  0  0  0  0  0  0  0  0  0
  -15.9226   -1.7543  -13.9730 N   0  0  0  0  0  0  0  0  0  0  0  0
  -16.3926   -0.4501  -13.9319 C   0  0  0  0  0  0  0  0  0  0  0  0
  -16.0739    0.3843  -13.0916 O   0  0  0  0  0  0  0  0  0  0  0  0
  -17.3269   -0.1948  -14.9306 N   0  0  0  0  0  0  0  0  0  0  0  0
  -15.9701   -2.2336  -14.8553 H   0  0  0  0  0  0  0  0  0  0  0  0
  -17.8988   -0.9914  -15.1721 H   0  0  0  0  0  0  0  0  0  0  0  0
  -17.9584    1.0739  -14.9833 C   0  0  0  0  0  0  0  0  0  0  0  0
  -19.3221    1.2222  -14.6869 C   0  0  0  0  0  0  0  0  0  0  0  0
  -19.9644    2.4469  -14.8777 C   0  0  0  0  0  0  0  0  0  0  0  0
  -19.2426    3.5311  -15.3663 C   0  0  0  0  0  0  0  0  0  0  0  0
  -17.8819    3.3882  -15.6210 C   0  0  0  0  0  0  0  0  0  0  0  0
  -17.1960    4.4274  -16.1157 F   0  0  0  0  0  0  0  0  0  0  0  0
  -17.2244    2.1786  -15.4096 C   0  0  0  0  0  0  0  0  0  0  0  0
  7  8  1  0  0  0
  8  9  2  0  0  0
  8 16  1  0  0  0
  9 10  1  0  0  0
 10 11  1  0  0  0
 10 17  1  0  0  0
 11 12  1  0  0  0
 11 16  2  0  0  0
 12 13  2  0  0  0
 13 14  1  0  0  0
 14 15  2  0  0  0
 15  1  1  0  0  0
 15 16  1  0  0  0
  1  2  1  0  0  0
  1  6  2  0  0  0
  2  3  2  0  0  0
  3  4  1  0  0  0
  4 18  1  0  0  0
  4  5  2  0  0  0
 18 19  1  0  0  0
 18 22  1  0  0  0
 19 20  2  0  0  0
 19 21  1  0  0  0
 21 24  1  0  0  0
 21 23  1  0  0  0
 24 25  1  0  0  0
 24 30  2  0  0  0
 25 26  2  0  0  0
 26 27  1  0  0  0
 27 28  2  0  0  0
 28 29  1  0  0  0
 28 30  1  0  0  0
  5  6  1  0  0  0
M  END
> <minimizedAffinity>
-9.01924

$$$$
