CHEMBL524708


 30 33  0  0  0  0  0  0  0  0999 V2000
  -28.4413   -7.0915   -5.9433 C   0  0  0  0  0  0  0  0  0  0  0  0
  -28.5221   -8.4161   -5.7511 C   0  0  0  0  0  0  0  0  0  0  0  0
  -27.4162   -9.2405   -6.0749 C   0  0  0  0  0  0  0  0  0  0  0  0
  -26.9955   -9.9293   -7.2158 C   0  0  0  0  0  0  0  0  0  0  0  0
  -25.7725  -10.5551   -7.0086 N   0  0  0  0  0  0  0  0  0  0  0  0
  -25.4967  -10.2734   -5.7673 C   0  0  0  0  0  0  0  0  0  0  0  0
  -24.1841  -10.6542   -4.6950 S   0  0  0  0  0  0  0  0  0  0  0  0
  -24.9713   -9.6767   -3.4444 C   0  0  0  0  0  0  0  0  0  0  0  0
  -26.1315   -9.1353   -3.8541 C   0  0  0  0  0  0  0  0  0  0  0  0
  -26.4222   -9.4794   -5.1584 N   0  0  0  0  0  0  0  0  0  0  0  0
  -27.6971  -10.0150   -8.4895 C   0  0  0  0  0  0  0  0  0  0  0  0
  -26.9690   -9.9750   -9.6870 C   0  0  0  0  0  0  0  0  0  0  0  0
  -27.6172  -10.1084  -10.9199 C   0  0  0  0  0  0  0  0  0  0  0  0
  -28.9999  -10.2833  -10.9707 C   0  0  0  0  0  0  0  0  0  0  0  0
  -29.7353  -10.3183   -9.7930 C   0  0  0  0  0  0  0  0  0  0  0  0
  -29.0851  -10.1909   -8.5636 C   0  0  0  0  0  0  0  0  0  0  0  0
  -29.8938   -3.8495   -5.3958 C   0  0  0  0  0  0  0  0  0  0  0  0
  -30.9622   -4.0339   -4.6086 N   0  0  0  0  0  0  0  0  0  0  0  0
  -31.2607   -5.3122   -4.3031 C   0  0  0  0  0  0  0  0  0  0  0  0
  -30.5228   -6.3930   -4.7280 C   0  0  0  0  0  0  0  0  0  0  0  0
  -29.4224   -6.0955   -5.4999 C   0  0  0  0  0  0  0  0  0  0  0  0
  -29.0967   -4.8348   -5.8196 N   0  0  0  0  0  0  0  0  0  0  0  0
  -29.0282   -1.6128   -4.9558 C   0  0  0  0  0  0  0  0  0  0  0  0
  -28.5878   -1.8589   -3.8318 O   0  0  0  0  0  0  0  0  0  0  0  0
  -29.6511   -2.5319   -5.7643 N   0  0  0  0  0  0  0  0  0  0  0  0
  -29.8063   -2.3518   -6.7422 H   0  0  0  0  0  0  0  0  0  0  0  0
  -28.2418   -0.3106   -6.9420 C   0  0  0  0  0  0  0  0  0  0  0  0
  -28.8839   -0.1957   -5.5457 C   0  0  0  0  0  0  0  0  0  0  0  0
  -27.9696    0.6538   -4.6517 C   0  0  0  0  0  0  0  0  0  0  0  0
  -30.2514    0.4876   -5.6969 C   0  0  0  0  0  0  0  0  0  0  0  0
 27 28  1  0  0  0
 28 29  1  0  0  0
 28 30  1  0  0  0
 28 23  1  0  0  0
 23 24  2  0  0  0
 23 25  1  0  0  0
 25 17  1  0  0  0
 25 26  1  0  0  0
 17 18  1  0  0  0
 17 22  2  0  0  0
 18 19  2  0  0  0
 19 20  1  0  0  0
 20 21  2  0  0  0
 21  1  1  0  0  0
 21 22  1  0  0  0
  1  2  2  0  0  0
  2  3  1  0  0  0
  3  4  2  0  0  0
  3 10  1  0  0  0
  4 11  1  0  0  0
  4  5  1  0  0  0
 11 12  1  0  0  0
 11 16  2  0  0  0
 12 13  2  0  0  0
 13 14  1  0  0  0
 14 15  2  0  0  0
 15 16  1  0  0  0
  5  6  2  0  0  0
  6  7  1  0  0  0
  6 10  1  0  0  0
  7  8  1  0  0  0
  8  9  2  0  0  0
  9 10  1  0  0  0
M  END
> <minimizedAffinity>
-8.59674

$$$$
