CHEMBL508643


 37 41  0  0  0  0  0  0  0  0999 V2000
  -12.4711   -4.1555  -13.4137 C   0  0  0  0  0  0  0  0  0  0  0  0
  -12.1762   -3.4962  -14.6099 C   0  0  0  0  0  0  0  0  0  0  0  0
  -12.8679   -2.3276  -14.9917 C   0  0  0  0  0  0  0  0  0  0  0  0
  -13.8705   -1.8147  -14.1403 C   0  0  0  0  0  0  0  0  0  0  0  0
  -14.7475   -0.6862  -14.1191 C   0  0  0  0  0  0  0  0  0  0  0  0
  -15.4759   -0.6628  -12.9973 N   0  0  0  0  0  0  0  0  0  0  0  0
  -15.1829   -1.8150  -12.3839 N   0  0  0  0  0  0  0  0  0  0  0  0
  -15.9456   -2.2050  -11.2224 C   0  0  0  0  0  0  0  0  0  0  0  0
  -14.1638   -2.5143  -12.9699 C   0  0  0  0  0  0  0  0  0  0  0  0
  -13.5041   -3.6917  -12.5898 C   0  0  0  0  0  0  0  0  0  0  0  0
  -14.8668    0.2866  -15.0913 N   0  0  0  0  0  0  0  0  0  0  0  0
  -16.0034    0.9705  -15.4572 C   0  0  0  0  0  0  0  0  0  0  0  0
  -15.9527    1.7162  -16.4314 O   0  0  0  0  0  0  0  0  0  0  0  0
  -17.0919    0.8093  -14.6262 N   0  0  0  0  0  0  0  0  0  0  0  0
  -14.0548    0.5061  -15.6501 H   0  0  0  0  0  0  0  0  0  0  0  0
  -16.9020    0.2045  -13.8279 H   0  0  0  0  0  0  0  0  0  0  0  0
  -18.3515    1.4140  -14.6885 C   0  0  0  0  0  0  0  0  0  0  0  0
  -18.5772    2.7550  -14.3820 C   0  0  0  0  0  0  0  0  0  0  0  0
  -19.8701    3.2849  -14.4376 C   0  0  0  0  0  0  0  0  0  0  0  0
  -20.9479    2.4764  -14.7954 C   0  0  0  0  0  0  0  0  0  0  0  0
  -20.7304    1.1418  -15.1282 C   0  0  0  0  0  0  0  0  0  0  0  0
  -19.4351    0.6181  -15.0928 C   0  0  0  0  0  0  0  0  0  0  0  0
  -11.7395   -5.3000  -13.1306 O   0  0  0  0  0  0  0  0  0  0  0  0
  -12.8511   -8.9324  -16.5367 C   0  0  0  0  0  0  0  0  0  0  0  0
  -13.3444   -9.3062  -15.2770 C   0  0  0  0  0  0  0  0  0  0  0  0
  -13.1887   -8.5197  -14.1468 C   0  0  0  0  0  0  0  0  0  0  0  0
  -13.7935   -8.9241  -13.0185 N   0  0  0  0  0  0  0  0  0  0  0  0
  -13.6862   -8.1496  -11.9223 C   0  0  0  0  0  0  0  0  0  0  0  0
  -12.9969   -6.9576  -11.8942 C   0  0  0  0  0  0  0  0  0  0  0  0
  -12.4019   -6.5177  -13.0762 C   0  0  0  0  0  0  0  0  0  0  0  0
  -12.4504   -7.3276  -14.2380 C   0  0  0  0  0  0  0  0  0  0  0  0
  -11.8332   -7.0183  -15.4729 C   0  0  0  0  0  0  0  0  0  0  0  0
  -12.0335   -7.8008  -16.6256 C   0  0  0  0  0  0  0  0  0  0  0  0
  -13.6904  -10.9693  -17.4128 C   0  0  0  0  0  0  0  0  0  0  0  0
  -13.1469   -9.6665  -17.6578 O   0  0  0  0  0  0  0  0  0  0  0  0
  -11.3760   -7.2909  -17.7114 O   0  0  0  0  0  0  0  0  0  0  0  0
  -12.0633   -6.4489  -18.6237 C   0  0  0  0  0  0  0  0  0  0  0  0
 34 35  1  0  0  0
 35 24  1  0  0  0
 24 25  1  0  0  0
 24 33  2  0  0  0
 25 26  2  0  0  0
 26 27  1  0  0  0
 26 31  1  0  0  0
 27 28  2  0  0  0
 28 29  1  0  0  0
 29 30  2  0  0  0
 30 23  1  0  0  0
 30 31  1  0  0  0
 23  1  1  0  0  0
  1  2  1  0  0  0
  1 10  2  0  0  0
  2  3  2  0  0  0
  3  4  1  0  0  0
  4  5  1  0  0  0
  4  9  2  0  0  0
  5 11  1  0  0  0
  5  6  2  0  0  0
 11 12  1  0  0  0
 11 15  1  0  0  0
 12 13  2  0  0  0
 12 14  1  0  0  0
 14 17  1  0  0  0
 14 16  1  0  0  0
 17 18  1  0  0  0
 17 22  2  0  0  0
 18 19  2  0  0  0
 19 20  1  0  0  0
 20 21  2  0  0  0
 21 22  1  0  0  0
  6  7  1  0  0  0
  7  8  1  0  0  0
  7  9  1  0  0  0
  9 10  1  0  0  0
 31 32  2  0  0  0
 32 33  1  0  0  0
 33 36  1  0  0  0
 36 37  1  0  0  0
M  END
> <minimizedAffinity>
-7.94925

$$$$
