CHEMBL1081831


 34 37  0  0  0  0  0  0  0  0999 V2000
  -30.5568   -7.7240   -5.3204 N   0  0  0  0  0  0  0  0  0  0  0  0
  -30.8298   -8.1665   -4.4453 H   0  0  0  0  0  0  0  0  0  0  0  0
  -29.6449   -8.3438   -6.1005 C   0  0  0  0  0  0  0  0  0  0  0  0
  -29.8298   -8.6480   -7.3636 N   0  0  0  0  0  0  0  0  0  0  0  0
  -28.7341   -9.3262   -7.8553 C   0  0  0  0  0  0  0  0  0  0  0  0
  -27.6874   -9.5289   -6.9732 C   0  0  0  0  0  0  0  0  0  0  0  0
  -28.1099   -8.7997   -5.4708 S   0  0  0  0  0  0  0  0  0  0  0  0
  -26.4086  -10.2305   -7.1810 C   0  0  0  0  0  0  0  0  0  0  0  0
  -26.2079  -10.9975   -8.3592 C   0  0  0  0  0  0  0  0  0  0  0  0
  -25.0325  -11.7306   -8.5731 C   0  0  0  0  0  0  0  0  0  0  0  0
  -24.0710  -11.6796   -7.5921 C   0  0  0  0  0  0  0  0  0  0  0  0
  -24.2337  -10.9317   -6.4327 C   0  0  0  0  0  0  0  0  0  0  0  0
  -25.3901  -10.2030   -6.2101 C   0  0  0  0  0  0  0  0  0  0  0  0
  -23.0221  -11.0917   -5.5608 C   0  0  0  0  0  0  0  0  0  0  0  0
  -22.1507  -12.0364   -6.3962 C   0  0  0  0  0  0  0  0  0  0  0  0
  -21.0488  -12.4653   -6.0975 O   0  0  0  0  0  0  0  0  0  0  0  0
  -22.8455  -12.3238   -7.5653 N   0  0  0  0  0  0  0  0  0  0  0  0
  -22.4798  -12.9344   -8.2803 H   0  0  0  0  0  0  0  0  0  0  0  0
  -30.5133   -6.2709   -5.2383 C   0  0  0  0  0  0  0  0  0  0  0  0
  -30.1744   -6.9721   -2.8720 N   0  0  0  0  0  0  0  0  0  0  0  0
  -30.1226   -5.8208   -3.8047 C   0  0  0  0  0  0  0  0  0  0  0  0
  -29.8694   -6.6539   -1.9489 H   0  0  0  0  0  0  0  0  0  0  0  0
  -29.4902   -7.6713   -3.1576 H   0  0  0  0  0  0  0  0  0  0  0  0
  -28.7264   -5.1510   -3.8513 C   0  0  0  0  0  0  0  0  0  0  0  0
  -28.7156   -3.6879   -4.2379 C   0  0  0  0  0  0  0  0  0  0  0  0
  -29.8968   -2.9364   -4.1685 C   0  0  0  0  0  0  0  0  0  0  0  0
  -29.9039   -1.5829   -4.5156 C   0  0  0  0  0  0  0  0  0  0  0  0
  -28.7276   -0.9491   -4.9370 C   0  0  0  0  0  0  0  0  0  0  0  0
  -27.5412   -1.6959   -4.9868 C   0  0  0  0  0  0  0  0  0  0  0  0
  -27.5341   -3.0503   -4.6365 C   0  0  0  0  0  0  0  0  0  0  0  0
  -28.7229    0.5057   -5.3350 C   0  0  0  0  0  0  0  0  0  0  0  0
  -29.9700    1.0498   -5.4256 F   0  0  0  0  0  0  0  0  0  0  0  0
  -28.0381    1.2887   -4.4582 F   0  0  0  0  0  0  0  0  0  0  0  0
  -28.1429    0.7101   -6.5514 F   0  0  0  0  0  0  0  0  0  0  0  0
 20 22  1  0  0  0
 20 23  1  0  0  0
 21 24  1  0  0  0
 21 19  1  0  0  0
 21 20  1  0  0  0
 19  1  1  0  0  0
  1  3  1  0  0  0
  1  2  1  0  0  0
  3  4  2  0  0  0
  3  7  1  0  0  0
  4  5  1  0  0  0
  5  6  2  0  0  0
  6  8  1  0  0  0
  6  7  1  0  0  0
  8  9  1  0  0  0
  8 13  2  0  0  0
  9 10  2  0  0  0
 10 11  1  0  0  0
 11 12  2  0  0  0
 11 17  1  0  0  0
 12 13  1  0  0  0
 12 14  1  0  0  0
 14 15  1  0  0  0
 15 16  2  0  0  0
 15 17  1  0  0  0
 17 18  1  0  0  0
 24 25  1  0  0  0
 25 26  1  0  0  0
 25 30  2  0  0  0
 26 27  2  0  0  0
 27 28  1  0  0  0
 28 31  1  0  0  0
 28 29  2  0  0  0
 31 32  1  0  0  0
 31 33  1  0  0  0
 31 34  1  0  0  0
 29 30  1  0  0  0
M  END
> <minimizedAffinity>
-8.69060

$$$$
