CHEMBL3920464


 42 45  0  0  0  0  0  0  0  0999 V2000
  -28.0861   -2.5532   -9.2472 N   0  0  0  0  0  0  0  0  0  0  0  0
  -27.0030   -1.9834   -9.9040 C   0  0  0  0  0  0  0  0  0  0  0  0
  -26.2029   -1.2099   -9.3875 O   0  0  0  0  0  0  0  0  0  0  0  0
  -26.9118   -2.3306  -11.2469 N   0  0  0  0  0  0  0  0  0  0  0  0
  -28.7208   -3.1215   -9.7886 H   0  0  0  0  0  0  0  0  0  0  0  0
  -27.7960   -2.4047  -11.7288 H   0  0  0  0  0  0  0  0  0  0  0  0
  -25.8145   -1.8180  -11.9945 C   0  0  0  0  0  0  0  0  0  0  0  0
  -25.9304   -1.6075  -13.3769 C   0  0  0  0  0  0  0  0  0  0  0  0
  -24.8180   -1.2654  -14.1492 C   0  0  0  0  0  0  0  0  0  0  0  0
  -23.5817   -1.0554  -13.5373 C   0  0  0  0  0  0  0  0  0  0  0  0
  -23.4760   -1.2564  -12.1566 C   0  0  0  0  0  0  0  0  0  0  0  0
  -22.2837   -1.1385  -11.5528 F   0  0  0  0  0  0  0  0  0  0  0  0
  -24.5837   -1.6120  -11.3770 C   0  0  0  0  0  0  0  0  0  0  0  0
  -22.4344   -0.7242  -14.2327 O   0  0  0  0  0  0  0  0  0  0  0  0
  -22.0388    0.5993  -14.3036 C   0  0  0  0  0  0  0  0  0  0  0  0
  -22.7900    1.6502  -13.7887 C   0  0  0  0  0  0  0  0  0  0  0  0
  -22.3128    2.9285  -13.9660 C   0  0  0  0  0  0  0  0  0  0  0  0
  -21.1352    3.2030  -14.5510 N   0  0  0  0  0  0  0  0  0  0  0  0
  -20.3682    2.1846  -14.9849 C   0  0  0  0  0  0  0  0  0  0  0  0
  -20.7904    0.8642  -14.8813 C   0  0  0  0  0  0  0  0  0  0  0  0
  -19.1133    2.4741  -15.5472 N   0  0  0  0  0  0  0  0  0  0  0  0
  -17.9060    2.1291  -14.9616 C   0  0  0  0  0  0  0  0  0  0  0  0
  -17.7253    1.5806  -13.8836 O   0  0  0  0  0  0  0  0  0  0  0  0
  -19.1004    2.9626  -16.4299 H   0  0  0  0  0  0  0  0  0  0  0  0
  -16.7075    2.5313  -15.7663 C   0  0  0  0  0  0  0  0  0  0  0  0
  -15.8457    1.4622  -16.4093 C   0  0  0  0  0  0  0  0  0  0  0  0
  -15.3232    2.2316  -15.2324 C   0  0  0  0  0  0  0  0  0  0  0  0
  -28.9318   -3.1090   -5.6125 C   0  0  0  0  0  0  0  0  0  0  0  0
  -28.7207   -3.3238   -6.9806 C   0  0  0  0  0  0  0  0  0  0  0  0
  -28.4156   -2.2985   -7.8871 C   0  0  0  0  0  0  0  0  0  0  0  0
  -28.4309   -0.9871   -7.4129 C   0  0  0  0  0  0  0  0  0  0  0  0
  -28.6736   -0.7293   -6.0457 C   0  0  0  0  0  0  0  0  0  0  0  0
  -28.8661   -1.8033   -5.1517 C   0  0  0  0  0  0  0  0  0  0  0  0
  -28.7717    0.6773   -5.5099 C   0  0  0  0  0  0  0  0  0  0  0  0
  -30.0232    1.0147   -5.0903 F   0  0  0  0  0  0  0  0  0  0  0  0
  -27.9560    0.8773   -4.4364 F   0  0  0  0  0  0  0  0  0  0  0  0
  -28.4176    1.6196   -6.4268 F   0  0  0  0  0  0  0  0  0  0  0  0
  -29.1484   -4.2112   -4.8146 N   0  0  0  0  0  0  0  0  0  0  0  0
  -28.4831   -4.3405   -4.0571 H   0  0  0  0  0  0  0  0  0  0  0  0
  -29.9117   -6.4227   -4.2285 C   0  0  0  0  0  0  0  0  0  0  0  0
  -30.3325   -5.0572   -4.7829 C   0  0  0  0  0  0  0  0  0  0  0  0
  -31.4278   -4.4695   -3.8923 C   0  0  0  0  0  0  0  0  0  0  0  0
 40 41  1  0  0  0
 41 42  1  0  0  0
 41 38  1  0  0  0
 38 28  1  0  0  0
 38 39  1  0  0  0
 28 29  1  0  0  0
 28 33  2  0  0  0
 29 30  2  0  0  0
 30  1  1  0  0  0
 30 31  1  0  0  0
  1  2  1  0  0  0
  1  5  1  0  0  0
  2  3  2  0  0  0
  2  4  1  0  0  0
  4  7  1  0  0  0
  4  6  1  0  0  0
  7  8  1  0  0  0
  7 13  2  0  0  0
  8  9  2  0  0  0
  9 10  1  0  0  0
 10 14  1  0  0  0
 10 11  2  0  0  0
 14 15  1  0  0  0
 15 16  1  0  0  0
 15 20  2  0  0  0
 16 17  2  0  0  0
 17 18  1  0  0  0
 18 19  2  0  0  0
 19 21  1  0  0  0
 19 20  1  0  0  0
 21 22  1  0  0  0
 21 24  1  0  0  0
 22 23  2  0  0  0
 22 25  1  0  0  0
 25 26  1  0  0  0
 25 27  1  0  0  0
 26 27  1  0  0  0
 11 12  1  0  0  0
 11 13  1  0  0  0
 31 32  2  0  0  0
 32 34  1  0  0  0
 32 33  1  0  0  0
 34 35  1  0  0  0
 34 36  1  0  0  0
 34 37  1  0  0  0
M  END
> <minimizedAffinity>
-12.07846

$$$$
