CHEMBL3912630


 34 38  0  0  0  0  0  0  0  0999 V2000
  -28.3951   -5.9055   -5.0601 C   0  0  0  0  0  0  0  0  0  0  0  0
  -27.8211   -4.9097   -4.2796 C   0  0  0  0  0  0  0  0  0  0  0  0
  -27.7595   -3.6140   -4.7435 C   0  0  0  0  0  0  0  0  0  0  0  0
  -28.0916   -3.2883   -6.0393 C   0  0  0  0  0  0  0  0  0  0  0  0
  -28.1868   -1.9789   -6.2667 N   0  0  0  0  0  0  0  0  0  0  0  0
  -28.2816   -1.5976   -7.5436 C   0  0  0  0  0  0  0  0  0  0  0  0
  -28.1690   -2.5059   -8.5748 C   0  0  0  0  0  0  0  0  0  0  0  0
  -28.2530   -3.8660   -8.3359 N   0  0  0  0  0  0  0  0  0  0  0  0
  -28.2918   -4.2959   -7.0055 C   0  0  0  0  0  0  0  0  0  0  0  0
  -28.5259   -5.6167   -6.4533 C   0  0  0  0  0  0  0  0  0  0  0  0
  -27.5653   -1.9541   -9.7995 C   0  0  0  0  0  0  0  0  0  0  0  0
  -28.0357   -1.2239  -10.9157 C   0  0  0  0  0  0  0  0  0  0  0  0
  -27.0542   -0.8545  -11.7604 N   0  0  0  0  0  0  0  0  0  0  0  0
  -25.9319   -1.3311  -11.1845 N   0  0  0  0  0  0  0  0  0  0  0  0
  -26.1833   -1.8638   -9.9456 C   0  0  0  0  0  0  0  0  0  0  0  0
  -24.7086   -1.5616  -11.9468 C   0  0  0  0  0  0  0  0  0  0  0  0
  -24.1608   -0.4387  -12.8509 C   0  0  0  0  0  0  0  0  0  0  0  0
  -22.6823   -0.1436  -12.5992 C   0  0  0  0  0  0  0  0  0  0  0  0
  -24.3334   -0.8282  -14.3305 C   0  0  0  0  0  0  0  0  0  0  0  0
  -28.9652   -7.0010   -4.3004 N   0  0  0  0  0  0  0  0  0  0  0  0
  -30.0115  -10.1260   -6.1672 C   0  0  0  0  0  0  0  0  0  0  0  0
  -29.5660  -11.1203   -5.3120 C   0  0  0  0  0  0  0  0  0  0  0  0
  -28.8740  -10.7619   -4.1569 C   0  0  0  0  0  0  0  0  0  0  0  0
  -28.7220   -9.4101   -3.7972 C   0  0  0  0  0  0  0  0  0  0  0  0
  -29.1095   -8.3732   -4.6575 C   0  0  0  0  0  0  0  0  0  0  0  0
  -29.7340   -8.7814   -5.8625 C   0  0  0  0  0  0  0  0  0  0  0  0
  -31.6174   -9.3319   -7.7232 C   0  0  0  0  0  0  0  0  0  0  0  0
  -30.6946  -10.3512   -7.3364 O   0  0  0  0  0  0  0  0  0  0  0  0
  -28.3216  -11.6927   -3.3114 O   0  0  0  0  0  0  0  0  0  0  0  0
  -27.0418  -12.1619   -3.7480 C   0  0  0  0  0  0  0  0  0  0  0  0
  -30.0090   -6.4190   -3.3775 C   0  0  0  0  0  0  0  0  0  0  0  0
  -31.2735   -5.7506   -3.8952 C   0  0  0  0  0  0  0  0  0  0  0  0
  -31.4517   -4.2435   -3.9418 C   0  0  0  0  0  0  0  0  0  0  0  0
  -32.4031   -5.0808   -3.1390 C   0  0  0  0  0  0  0  0  0  0  0  0
 27 28  1  0  0  0
 28 21  1  0  0  0
 21 22  1  0  0  0
 21 26  2  0  0  0
 22 23  2  0  0  0
 23 29  1  0  0  0
 23 24  1  0  0  0
 29 30  1  0  0  0
 24 25  2  0  0  0
 25 20  1  0  0  0
 25 26  1  0  0  0
 20 31  1  0  0  0
 20  1  1  0  0  0
 31 32  1  0  0  0
 32 33  1  0  0  0
 32 34  1  0  0  0
 33 34  1  0  0  0
  1  2  1  0  0  0
  1 10  2  0  0  0
  2  3  2  0  0  0
  3  4  1  0  0  0
  4  5  1  0  0  0
  4  9  2  0  0  0
  5  6  2  0  0  0
  6  7  1  0  0  0
  7 11  1  0  0  0
  7  8  2  0  0  0
 11 12  1  0  0  0
 11 15  2  0  0  0
 12 13  2  0  0  0
 13 14  1  0  0  0
 14 16  1  0  0  0
 14 15  1  0  0  0
 16 17  1  0  0  0
 17 18  1  0  0  0
 17 19  1  0  0  0
  8  9  1  0  0  0
  9 10  1  0  0  0
M  END
> <minimizedAffinity>
-8.02071

$$$$
