CHEMBL3813969


 31 34  0  0  0  0  0  0  0  0999 V2000
  -15.2586    0.4658  -12.5066 O   0  0  0  0  0  0  0  0  0  0  0  0
  -15.3305    0.1856  -13.7049 C   0  0  0  0  0  0  0  0  0  0  0  0
  -15.1880   -1.0796  -14.2441 N   0  0  0  0  0  0  0  0  0  0  0  0
  -15.2087   -1.1328  -15.2607 H   0  0  0  0  0  0  0  0  0  0  0  0
  -14.9992   -2.2758  -13.5095 C   0  0  0  0  0  0  0  0  0  0  0  0
  -16.0368   -2.9360  -12.8427 C   0  0  0  0  0  0  0  0  0  0  0  0
  -15.8041   -4.0899  -12.0921 C   0  0  0  0  0  0  0  0  0  0  0  0
  -14.5199   -4.6282  -11.9975 C   0  0  0  0  0  0  0  0  0  0  0  0
  -13.4805   -4.0001  -12.6992 C   0  0  0  0  0  0  0  0  0  0  0  0
  -13.7178   -2.8307  -13.4426 C   0  0  0  0  0  0  0  0  0  0  0  0
  -14.2777   -5.8432  -11.1386 C   0  0  0  0  0  0  0  0  0  0  0  0
  -14.0856   -7.0586  -11.9085 N   0  0  0  0  0  0  0  0  0  0  0  0
  -14.8549   -7.5403  -12.9247 C   0  0  0  0  0  0  0  0  0  0  0  0
  -14.4549   -8.7496  -13.2462 N   0  0  0  0  0  0  0  0  0  0  0  0
  -13.4285   -8.9732  -12.3764 C   0  0  0  0  0  0  0  0  0  0  0  0
  -13.1692   -7.9743  -11.5291 N   0  0  0  0  0  0  0  0  0  0  0  0
  -15.6090    1.3156  -14.6335 C   0  0  0  0  0  0  0  0  0  0  0  0
  -14.4659    1.8182  -15.2966 C   0  0  0  0  0  0  0  0  0  0  0  0
  -14.5633    2.8163  -16.2581 C   0  0  0  0  0  0  0  0  0  0  0  0
  -15.8145    3.2956  -16.6039 C   0  0  0  0  0  0  0  0  0  0  0  0
  -16.9533    2.8127  -15.9498 C   0  0  0  0  0  0  0  0  0  0  0  0
  -16.8788    1.8673  -14.9007 C   0  0  0  0  0  0  0  0  0  0  0  0
  -18.0529    1.4156  -14.2251 N   0  0  0  0  0  0  0  0  0  0  0  0
  -17.7718    0.6468  -13.6088 H   0  0  0  0  0  0  0  0  0  0  0  0
  -19.1310    0.9635  -15.1206 C   0  0  0  0  0  0  0  0  0  0  0  0
  -20.5035    1.4358  -14.7120 C   0  0  0  0  0  0  0  0  0  0  0  0
  -21.4453    0.4720  -14.3164 C   0  0  0  0  0  0  0  0  0  0  0  0
  -22.6905    0.8815  -13.8714 C   0  0  0  0  0  0  0  0  0  0  0  0
  -23.0559    2.1748  -13.7825 N   0  0  0  0  0  0  0  0  0  0  0  0
  -22.1352    3.0919  -14.1507 C   0  0  0  0  0  0  0  0  0  0  0  0
  -20.8617    2.7802  -14.6099 C   0  0  0  0  0  0  0  0  0  0  0  0
  1  2  2  0  0  0
  2  3  1  0  0  0
  2 17  1  0  0  0
  3  5  1  0  0  0
  3  4  1  0  0  0
  5  6  1  0  0  0
  5 10  2  0  0  0
  6  7  2  0  0  0
  7  8  1  0  0  0
  8 11  1  0  0  0
  8  9  2  0  0  0
 11 12  1  0  0  0
 12 13  1  0  0  0
 12 16  1  0  0  0
 13 14  2  0  0  0
 14 15  1  0  0  0
 15 16  2  0  0  0
  9 10  1  0  0  0
 17 18  1  0  0  0
 17 22  2  0  0  0
 18 19  2  0  0  0
 19 20  1  0  0  0
 20 21  2  0  0  0
 21 22  1  0  0  0
 22 23  1  0  0  0
 23 25  1  0  0  0
 23 24  1  0  0  0
 25 26  1  0  0  0
 26 27  1  0  0  0
 26 31  2  0  0  0
 27 28  2  0  0  0
 28 29  1  0  0  0
 29 30  2  0  0  0
 30 31  1  0  0  0
M  END
> <minimizedAffinity>
-8.77526

$$$$
