CHEMBL374330


 32 35  0  0  0  0  0  0  0  0999 V2000
  -21.7181    1.3509  -14.4126 C   0  0  0  0  0  0  0  0  0  0  0  0
  -21.6798   -0.0419  -14.3172 C   0  0  0  0  0  0  0  0  0  0  0  0
  -22.6865   -0.7403  -13.6433 C   0  0  0  0  0  0  0  0  0  0  0  0
  -23.7437   -0.0656  -13.0154 C   0  0  0  0  0  0  0  0  0  0  0  0
  -23.6872    1.3429  -13.0217 C   0  0  0  0  0  0  0  0  0  0  0  0
  -22.6977    2.0490  -13.7186 C   0  0  0  0  0  0  0  0  0  0  0  0
  -24.8409   -0.7975  -12.3431 C   0  0  0  0  0  0  0  0  0  0  0  0
  -24.8483   -0.9907  -10.9393 C   0  0  0  0  0  0  0  0  0  0  0  0
  -25.9269   -1.5697  -10.2685 C   0  0  0  0  0  0  0  0  0  0  0  0
  -27.0776   -1.9395  -10.9576 C   0  0  0  0  0  0  0  0  0  0  0  0
  -27.0585   -1.7901  -12.3455 C   0  0  0  0  0  0  0  0  0  0  0  0
  -28.0248   -2.0380  -13.2825 N   0  0  0  0  0  0  0  0  0  0  0  0
  -27.6067   -1.9257  -14.5481 N   0  0  0  0  0  0  0  0  0  0  0  0
  -26.3492   -1.5126  -14.4260 C   0  0  0  0  0  0  0  0  0  0  0  0
  -25.5512   -1.3766  -15.4987 N   0  0  0  0  0  0  0  0  0  0  0  0
  -25.9639   -1.3021  -13.0619 C   0  0  0  0  0  0  0  0  0  0  0  0
  -28.9862   -2.3110  -13.1185 H   0  0  0  0  0  0  0  0  0  0  0  0
  -25.8884   -1.8089  -16.3515 H   0  0  0  0  0  0  0  0  0  0  0  0
  -24.5488   -1.4765  -15.3749 H   0  0  0  0  0  0  0  0  0  0  0  0
  -18.7385    2.7893  -15.8885 N   0  0  0  0  0  0  0  0  0  0  0  0
  -19.4666    2.0736  -14.9571 C   0  0  0  0  0  0  0  0  0  0  0  0
  -18.9857    1.4805  -13.9923 O   0  0  0  0  0  0  0  0  0  0  0  0
  -20.8247    2.0602  -15.2503 N   0  0  0  0  0  0  0  0  0  0  0  0
  -19.2546    3.4271  -16.4741 H   0  0  0  0  0  0  0  0  0  0  0  0
  -21.0401    2.0614  -16.2372 H   0  0  0  0  0  0  0  0  0  0  0  0
  -13.0148    3.2104  -16.0667 C   0  0  0  0  0  0  0  0  0  0  0  0
  -14.5090    3.0985  -16.0338 C   0  0  0  0  0  0  0  0  0  0  0  0
  -15.1162    1.8441  -16.0383 C   0  0  0  0  0  0  0  0  0  0  0  0
  -16.5060    1.7285  -15.9992 C   0  0  0  0  0  0  0  0  0  0  0  0
  -17.3242    2.8597  -15.9385 C   0  0  0  0  0  0  0  0  0  0  0  0
  -16.7177    4.1217  -15.9472 C   0  0  0  0  0  0  0  0  0  0  0  0
  -15.3242    4.2380  -15.9940 C   0  0  0  0  0  0  0  0  0  0  0  0
 26 27  1  0  0  0
 27 28  1  0  0  0
 27 32  2  0  0  0
 28 29  2  0  0  0
 29 30  1  0  0  0
 30 20  1  0  0  0
 30 31  2  0  0  0
 20 21  1  0  0  0
 20 24  1  0  0  0
 21 22  2  0  0  0
 21 23  1  0  0  0
 23  1  1  0  0  0
 23 25  1  0  0  0
  1  2  1  0  0  0
  1  6  2  0  0  0
  2  3  2  0  0  0
  3  4  1  0  0  0
  4  7  1  0  0  0
  4  5  2  0  0  0
  7  8  1  0  0  0
  7 16  2  0  0  0
  8  9  2  0  0  0
  9 10  1  0  0  0
 10 11  2  0  0  0
 11 12  1  0  0  0
 11 16  1  0  0  0
 12 13  1  0  0  0
 12 17  1  0  0  0
 13 14  2  0  0  0
 14 15  1  0  0  0
 14 16  1  0  0  0
 15 18  1  0  0  0
 15 19  1  0  0  0
  5  6  1  0  0  0
 31 32  1  0  0  0
M  END
> <minimizedAffinity>
-9.66616

$$$$
