CHEMBL412102


 38 41  0  0  0  0  0  0  0  0999 V2000
  -17.1708    1.8881  -15.3399 C   0  0  0  0  0  0  0  0  0  0  0  0
  -18.1009    2.9205  -15.4066 C   0  0  0  0  0  0  0  0  0  0  0  0
  -19.4660    2.6418  -15.3644 C   0  0  0  0  0  0  0  0  0  0  0  0
  -19.9385    1.3327  -15.2550 C   0  0  0  0  0  0  0  0  0  0  0  0
  -19.0028    0.2954  -15.1469 C   0  0  0  0  0  0  0  0  0  0  0  0
  -17.6229    0.5718  -15.1857 C   0  0  0  0  0  0  0  0  0  0  0  0
  -13.0165   -0.1205  -13.8307 N   0  0  0  0  0  0  0  0  0  0  0  0
  -12.6012    1.1835  -14.1498 C   0  0  0  0  0  0  0  0  0  0  0  0
  -11.2772    1.3987  -14.1322 N   0  0  0  0  0  0  0  0  0  0  0  0
  -10.8890    2.6284  -14.4924 C   0  0  0  0  0  0  0  0  0  0  0  0
  -11.6845    3.6393  -14.8680 N   0  0  0  0  0  0  0  0  0  0  0  0
  -13.0073    3.3858  -14.8888 C   0  0  0  0  0  0  0  0  0  0  0  0
  -13.5447    2.1426  -14.5305 C   0  0  0  0  0  0  0  0  0  0  0  0
  -14.9313    1.8263  -14.4544 N   0  0  0  0  0  0  0  0  0  0  0  0
  -15.7127    2.1956  -15.4219 C   0  0  0  0  0  0  0  0  0  0  0  0
  -15.1993    2.9235  -16.6536 C   0  0  0  0  0  0  0  0  0  0  0  0
  -14.8006    4.3449  -16.2916 C   0  0  0  0  0  0  0  0  0  0  0  0
  -13.7785    4.4842  -15.2599 N   0  0  0  0  0  0  0  0  0  0  0  0
  -12.2346   -0.6181  -13.4203 H   0  0  0  0  0  0  0  0  0  0  0  0
  -13.8501   -0.0734  -13.2523 H   0  0  0  0  0  0  0  0  0  0  0  0
  -13.1177    5.2334  -15.4594 H   0  0  0  0  0  0  0  0  0  0  0  0
  -21.3215    1.0206  -15.2264 N   0  0  0  0  0  0  0  0  0  0  0  0
  -21.9993    0.4785  -14.1444 C   0  0  0  0  0  0  0  0  0  0  0  0
  -21.5243    0.2849  -13.0319 O   0  0  0  0  0  0  0  0  0  0  0  0
  -23.3005    0.1187  -14.4703 N   0  0  0  0  0  0  0  0  0  0  0  0
  -21.8824    1.3425  -16.0014 H   0  0  0  0  0  0  0  0  0  0  0  0
  -23.4132   -0.2084  -15.4190 H   0  0  0  0  0  0  0  0  0  0  0  0
  -24.1362   -0.4808  -13.4969 C   0  0  0  0  0  0  0  0  0  0  0  0
  -23.6769   -0.5814  -12.1897 C   0  0  0  0  0  0  0  0  0  0  0  0
  -24.5220   -1.0806  -11.1954 C   0  0  0  0  0  0  0  0  0  0  0  0
  -25.8100   -1.5406  -11.5071 C   0  0  0  0  0  0  0  0  0  0  0  0
  -26.7490   -2.1367  -10.1884 Cl  0  0  0  0  0  0  0  0  0  0  0  0
  -26.2734   -1.4987  -12.8248 C   0  0  0  0  0  0  0  0  0  0  0  0
  -25.4214   -0.9460  -13.8102 C   0  0  0  0  0  0  0  0  0  0  0  0
  -27.6215   -1.9976  -13.2784 C   0  0  0  0  0  0  0  0  0  0  0  0
  -27.7983   -3.3452  -13.2808 F   0  0  0  0  0  0  0  0  0  0  0  0
  -28.6403   -1.4993  -12.5218 F   0  0  0  0  0  0  0  0  0  0  0  0
  -27.8954   -1.6044  -14.5579 F   0  0  0  0  0  0  0  0  0  0  0  0
  7  8  1  0  0  0
  7 19  1  0  0  0
  7 20  1  0  0  0
  8  9  1  0  0  0
  8 13  2  0  0  0
  9 10  2  0  0  0
 10 11  1  0  0  0
 11 12  2  0  0  0
 12 13  1  0  0  0
 12 18  1  0  0  0
 13 14  1  0  0  0
 14 15  2  0  0  0
 15  1  1  0  0  0
 15 16  1  0  0  0
  1  2  1  0  0  0
  1  6  2  0  0  0
  2  3  2  0  0  0
  3  4  1  0  0  0
  4 22  1  0  0  0
  4  5  2  0  0  0
 22 23  1  0  0  0
 22 26  1  0  0  0
 23 24  2  0  0  0
 23 25  1  0  0  0
 25 28  1  0  0  0
 25 27  1  0  0  0
 28 29  1  0  0  0
 28 34  2  0  0  0
 29 30  2  0  0  0
 30 31  1  0  0  0
 31 32  1  0  0  0
 31 33  2  0  0  0
 33 35  1  0  0  0
 33 34  1  0  0  0
 35 36  1  0  0  0
 35 37  1  0  0  0
 35 38  1  0  0  0
  5  6  1  0  0  0
 16 17  1  0  0  0
 17 18  1  0  0  0
 18 21  1  0  0  0
M  END
> <minimizedAffinity>
-9.58221

$$$$
