CHEMBL3633761


 33 35  0  0  0  0  0  0  0  0999 V2000
  -17.5277    2.4384  -15.1292 C   0  0  0  0  0  0  0  0  0  0  0  0
  -18.5928    3.3110  -14.8641 C   0  0  0  0  0  0  0  0  0  0  0  0
  -19.8719    2.8601  -14.5982 C   0  0  0  0  0  0  0  0  0  0  0  0
  -20.8280    3.7781  -14.4423 N   0  0  0  0  0  0  0  0  0  0  0  0
  -22.0663    3.3224  -14.2524 C   0  0  0  0  0  0  0  0  0  0  0  0
  -22.4209    2.0408  -14.1810 N   0  0  0  0  0  0  0  0  0  0  0  0
  -21.4437    1.1209  -14.3128 C   0  0  0  0  0  0  0  0  0  0  0  0
  -20.1046    1.4825  -14.5433 C   0  0  0  0  0  0  0  0  0  0  0  0
  -19.0190    0.5885  -14.7430 C   0  0  0  0  0  0  0  0  0  0  0  0
  -17.7272    1.0586  -15.0055 C   0  0  0  0  0  0  0  0  0  0  0  0
  -16.3518    3.8800  -16.5853 C   0  0  0  0  0  0  0  0  0  0  0  0
  -16.3068    2.9123  -15.5343 O   0  0  0  0  0  0  0  0  0  0  0  0
  -21.7974   -0.2531  -14.2190 N   0  0  0  0  0  0  0  0  0  0  0  0
  -20.9589   -0.8026  -14.0641 H   0  0  0  0  0  0  0  0  0  0  0  0
  -22.9066   -0.7276  -13.4812 C   0  0  0  0  0  0  0  0  0  0  0  0
  -22.7745   -1.0506  -12.1209 C   0  0  0  0  0  0  0  0  0  0  0  0
  -23.8412   -1.5826  -11.3976 C   0  0  0  0  0  0  0  0  0  0  0  0
  -25.0636   -1.7936  -12.0286 C   0  0  0  0  0  0  0  0  0  0  0  0
  -25.2134   -1.4502  -13.3713 C   0  0  0  0  0  0  0  0  0  0  0  0
  -26.7253   -1.7172  -14.1510 Cl  0  0  0  0  0  0  0  0  0  0  0  0
  -24.1492   -0.9094  -14.0963 C   0  0  0  0  0  0  0  0  0  0  0  0
  -16.7948    0.0693  -15.2031 O   0  0  0  0  0  0  0  0  0  0  0  0
  -15.6238    0.1503  -14.3839 C   0  0  0  0  0  0  0  0  0  0  0  0
  -15.9041   -0.5097  -13.0289 C   0  0  0  0  0  0  0  0  0  0  0  0
  -15.0537   -1.7722  -12.8583 C   0  0  0  0  0  0  0  0  0  0  0  0
  -15.8726   -2.9838  -12.4110 C   0  0  0  0  0  0  0  0  0  0  0  0
  -16.3241   -3.8173  -13.6144 C   0  0  0  0  0  0  0  0  0  0  0  0
  -16.4986   -5.2804  -13.2643 C   0  0  0  0  0  0  0  0  0  0  0  0
  -17.0794   -5.6948  -12.2664 O   0  0  0  0  0  0  0  0  0  0  0  0
  -15.9272   -6.1369  -14.1822 N   0  0  0  0  0  0  0  0  0  0  0  0
  -16.1645   -7.5130  -13.9524 O   0  0  0  0  0  0  0  0  0  0  0  0
  -15.7304   -5.8655  -15.1347 H   0  0  0  0  0  0  0  0  0  0  0  0
  -16.6761   -7.5005  -13.1119 H   0  0  0  0  0  0  0  0  0  0  0  0
 11 12  1  0  0  0
 12  1  1  0  0  0
  1  2  1  0  0  0
  1 10  2  0  0  0
  2  3  2  0  0  0
  3  4  1  0  0  0
  3  8  1  0  0  0
  4  5  2  0  0  0
  5  6  1  0  0  0
  6  7  2  0  0  0
  7 13  1  0  0  0
  7  8  1  0  0  0
 13 15  1  0  0  0
 13 14  1  0  0  0
 15 16  1  0  0  0
 15 21  2  0  0  0
 16 17  2  0  0  0
 17 18  1  0  0  0
 18 19  2  0  0  0
 19 20  1  0  0  0
 19 21  1  0  0  0
  8  9  2  0  0  0
  9 10  1  0  0  0
 10 22  1  0  0  0
 22 23  1  0  0  0
 23 24  1  0  0  0
 24 25  1  0  0  0
 25 26  1  0  0  0
 26 27  1  0  0  0
 27 28  1  0  0  0
 28 29  2  0  0  0
 28 30  1  0  0  0
 30 31  1  0  0  0
 30 32  1  0  0  0
 31 33  1  0  0  0
M  END
> <minimizedAffinity>
-8.99763

$$$$
