CHEMBL3633760


 32 34  0  0  0  0  0  0  0  0999 V2000
  -27.7173   -1.9273   -5.4476 C   0  0  0  0  0  0  0  0  0  0  0  0
  -27.9084   -2.8600   -4.4226 C   0  0  0  0  0  0  0  0  0  0  0  0
  -28.4699   -4.1094   -4.6487 C   0  0  0  0  0  0  0  0  0  0  0  0
  -28.6318   -4.9190   -3.5990 N   0  0  0  0  0  0  0  0  0  0  0  0
  -29.1725   -6.1144   -3.8437 C   0  0  0  0  0  0  0  0  0  0  0  0
  -29.5378   -6.5773   -5.0379 N   0  0  0  0  0  0  0  0  0  0  0  0
  -29.3553   -5.7629   -6.0953 C   0  0  0  0  0  0  0  0  0  0  0  0
  -28.8364   -4.4652   -5.9501 C   0  0  0  0  0  0  0  0  0  0  0  0
  -28.6549   -3.5331   -6.9978 C   0  0  0  0  0  0  0  0  0  0  0  0
  -28.0637   -2.2911   -6.7559 C   0  0  0  0  0  0  0  0  0  0  0  0
  -28.0932    0.4075   -4.9514 C   0  0  0  0  0  0  0  0  0  0  0  0
  -27.2187   -0.6721   -5.2527 O   0  0  0  0  0  0  0  0  0  0  0  0
  -29.6728   -6.2537   -7.3933 N   0  0  0  0  0  0  0  0  0  0  0  0
  -28.8363   -6.2193   -7.9670 H   0  0  0  0  0  0  0  0  0  0  0  0
  -30.4238   -7.4305   -7.6216 C   0  0  0  0  0  0  0  0  0  0  0  0
  -31.7410   -7.5380   -7.1516 C   0  0  0  0  0  0  0  0  0  0  0  0
  -32.4662   -8.7198   -7.3050 C   0  0  0  0  0  0  0  0  0  0  0  0
  -31.8813   -9.8117   -7.9403 C   0  0  0  0  0  0  0  0  0  0  0  0
  -30.5829   -9.7054   -8.4345 C   0  0  0  0  0  0  0  0  0  0  0  0
  -29.8561  -11.0585   -9.2135 Cl  0  0  0  0  0  0  0  0  0  0  0  0
  -29.8555   -8.5215   -8.2883 C   0  0  0  0  0  0  0  0  0  0  0  0
  -27.9416   -1.4997   -7.8690 O   0  0  0  0  0  0  0  0  0  0  0  0
  -27.4154   -2.1617   -9.0232 C   0  0  0  0  0  0  0  0  0  0  0  0
  -27.9411   -1.4669  -10.2837 C   0  0  0  0  0  0  0  0  0  0  0  0
  -27.1526   -1.8954  -11.5242 C   0  0  0  0  0  0  0  0  0  0  0  0
  -26.4098   -0.7342  -12.1795 C   0  0  0  0  0  0  0  0  0  0  0  0
  -24.9309   -0.7729  -11.8483 C   0  0  0  0  0  0  0  0  0  0  0  0
  -24.1911    0.2081  -11.8333 O   0  0  0  0  0  0  0  0  0  0  0  0
  -24.4621   -2.0319  -11.5573 N   0  0  0  0  0  0  0  0  0  0  0  0
  -23.1104   -2.0954  -11.1442 O   0  0  0  0  0  0  0  0  0  0  0  0
  -25.0589   -2.8042  -11.2838 H   0  0  0  0  0  0  0  0  0  0  0  0
  -22.8206   -1.1595  -11.2338 H   0  0  0  0  0  0  0  0  0  0  0  0
 11 12  1  0  0  0
 12  1  1  0  0  0
  1  2  1  0  0  0
  1 10  2  0  0  0
  2  3  2  0  0  0
  3  4  1  0  0  0
  3  8  1  0  0  0
  4  5  2  0  0  0
  5  6  1  0  0  0
  6  7  2  0  0  0
  7 13  1  0  0  0
  7  8  1  0  0  0
 13 15  1  0  0  0
 13 14  1  0  0  0
 15 16  1  0  0  0
 15 21  2  0  0  0
 16 17  2  0  0  0
 17 18  1  0  0  0
 18 19  2  0  0  0
 19 20  1  0  0  0
 19 21  1  0  0  0
  8  9  2  0  0  0
  9 10  1  0  0  0
 10 22  1  0  0  0
 22 23  1  0  0  0
 23 24  1  0  0  0
 24 25  1  0  0  0
 25 26  1  0  0  0
 26 27  1  0  0  0
 27 28  2  0  0  0
 27 29  1  0  0  0
 29 30  1  0  0  0
 29 31  1  0  0  0
 30 32  1  0  0  0
M  END
> <minimizedAffinity>
-8.70172

$$$$
