CHEMBL223971


 32 36  0  0  0  0  0  0  0  0999 V2000
  -29.2345   -7.4953   -4.7618 C   0  0  0  0  0  0  0  0  0  0  0  0
  -28.3587   -6.5154   -4.4777 N   0  0  0  0  0  0  0  0  0  0  0  0
  -28.4008   -5.7773   -5.6203 N   0  0  0  0  0  0  0  0  0  0  0  0
  -29.3899   -6.2178   -6.4844 C   0  0  0  0  0  0  0  0  0  0  0  0
  -30.2593   -6.8195   -5.5483 C   0  0  0  0  0  0  0  0  0  0  0  0
  -31.4999   -7.2394   -6.2719 C   0  0  0  0  0  0  0  0  0  0  0  0
  -30.7440   -7.8221   -7.4444 C   0  0  0  0  0  0  0  0  0  0  0  0
  -31.0325   -9.0816   -7.9338 C   0  0  0  0  0  0  0  0  0  0  0  0
  -30.0357   -9.7314   -8.6340 C   0  0  0  0  0  0  0  0  0  0  0  0
  -28.7987   -9.0983   -8.9128 C   0  0  0  0  0  0  0  0  0  0  0  0
  -28.5253   -7.7788   -8.4386 C   0  0  0  0  0  0  0  0  0  0  0  0
  -29.4933   -7.1527   -7.6558 C   0  0  0  0  0  0  0  0  0  0  0  0
  -28.1222   -4.8157   -5.4980 H   0  0  0  0  0  0  0  0  0  0  0  0
  -26.7829  -10.1866   -5.8509 C   0  0  0  0  0  0  0  0  0  0  0  0
  -27.2337   -8.9072   -5.5656 C   0  0  0  0  0  0  0  0  0  0  0  0
  -28.6060   -8.8455   -5.0726 C   0  0  0  0  0  0  0  0  0  0  0  0
  -29.1495  -10.1071   -5.0423 C   0  0  0  0  0  0  0  0  0  0  0  0
  -28.0412  -11.3161   -5.5857 S   0  0  0  0  0  0  0  0  0  0  0  0
  -24.3426  -10.8394   -6.5855 C   0  0  0  0  0  0  0  0  0  0  0  0
  -25.4623  -10.5374   -6.2934 C   0  0  0  0  0  0  0  0  0  0  0  0
  -22.9418  -11.2660   -6.8523 C   0  0  0  0  0  0  0  0  0  0  0  0
  -22.0879  -10.7846   -5.8188 O   0  0  0  0  0  0  0  0  0  0  0  0
  -21.6918  -11.8669   -4.9628 C   0  0  0  0  0  0  0  0  0  0  0  0
  -21.8457  -11.4944   -3.4933 C   0  0  0  0  0  0  0  0  0  0  0  0
  -23.8591  -11.5602   -2.2542 C   0  0  0  0  0  0  0  0  0  0  0  0
  -23.1440  -10.9257   -3.3059 O   0  0  0  0  0  0  0  0  0  0  0  0
  -27.7611   -9.9596   -9.6101 C   0  0  0  0  0  0  0  0  0  0  0  0
  -27.7553   -9.8295  -11.0592 N   0  0  0  0  0  0  0  0  0  0  0  0
  -28.7022  -10.2013  -11.9665 C   0  0  0  0  0  0  0  0  0  0  0  0
  -28.3527   -9.7947  -13.1627 N   0  0  0  0  0  0  0  0  0  0  0  0
  -27.1566   -9.1790  -12.9432 C   0  0  0  0  0  0  0  0  0  0  0  0
  -26.7432   -9.1768  -11.6712 N   0  0  0  0  0  0  0  0  0  0  0  0
 25 26  1  0  0  0
 26 24  1  0  0  0
 24 23  1  0  0  0
 23 22  1  0  0  0
 22 21  1  0  0  0
 21 19  1  0  0  0
 19 20  3  0  0  0
 20 14  1  0  0  0
 14 15  2  0  0  0
 14 18  1  0  0  0
 15 16  1  0  0  0
 16  1  1  0  0  0
 16 17  2  0  0  0
  1  2  2  0  0  0
  1  5  1  0  0  0
  2  3  1  0  0  0
  3  4  1  0  0  0
  3 13  1  0  0  0
  4  5  2  0  0  0
  4 12  1  0  0  0
  5  6  1  0  0  0
  6  7  1  0  0  0
  7  8  1  0  0  0
  7 12  2  0  0  0
  8  9  2  0  0  0
  9 10  1  0  0  0
 10 27  1  0  0  0
 10 11  2  0  0  0
 27 28  1  0  0  0
 28 29  1  0  0  0
 28 32  1  0  0  0
 29 30  2  0  0  0
 30 31  1  0  0  0
 31 32  2  0  0  0
 11 12  1  0  0  0
 17 18  1  0  0  0
M  END
> <minimizedAffinity>
-6.91676

$$$$
