CHEMBL500435


 33 37  0  0  0  0  0  0  0  0999 V2000
  -29.0945   -8.3870   -3.1177 O   0  0  0  0  0  0  0  0  0  0  0  0
  -28.1683   -8.6450   -3.8631 C   0  0  0  0  0  0  0  0  0  0  0  0
  -26.8558   -8.7858   -3.4524 N   0  0  0  0  0  0  0  0  0  0  0  0
  -26.0710   -9.3412   -4.4507 C   0  0  0  0  0  0  0  0  0  0  0  0
  -24.7429   -9.6966   -4.3194 C   0  0  0  0  0  0  0  0  0  0  0  0
  -24.1328  -10.2993   -5.4162 C   0  0  0  0  0  0  0  0  0  0  0  0
  -24.8564  -10.5158   -6.6018 C   0  0  0  0  0  0  0  0  0  0  0  0
  -26.2025  -10.1336   -6.7126 C   0  0  0  0  0  0  0  0  0  0  0  0
  -26.8171   -9.5479   -5.6196 C   0  0  0  0  0  0  0  0  0  0  0  0
  -28.1723   -9.0320   -5.3352 C   0  0  0  0  0  0  0  0  0  0  0  0
  -29.2784   -8.8987   -6.1047 C   0  0  0  0  0  0  0  0  0  0  0  0
  -26.5787   -8.6290   -2.4969 H   0  0  0  0  0  0  0  0  0  0  0  0
  -29.3595   -9.5146   -7.4451 C   0  0  0  0  0  0  0  0  0  0  0  0
  -28.9941   -8.7641   -8.5673 C   0  0  0  0  0  0  0  0  0  0  0  0
  -29.0204   -9.3460   -9.8418 C   0  0  0  0  0  0  0  0  0  0  0  0
  -29.4128  -10.6758   -9.9909 C   0  0  0  0  0  0  0  0  0  0  0  0
  -29.7777  -11.4295   -8.8758 C   0  0  0  0  0  0  0  0  0  0  0  0
  -29.7448  -10.8538   -7.6042 C   0  0  0  0  0  0  0  0  0  0  0  0
  -30.4385   -8.2331   -5.7379 N   0  0  0  0  0  0  0  0  0  0  0  0
  -31.3170   -8.7199   -5.8685 H   0  0  0  0  0  0  0  0  0  0  0  0
  -30.5349   -6.8400   -5.5404 C   0  0  0  0  0  0  0  0  0  0  0  0
  -29.7058   -5.9359   -6.2187 C   0  0  0  0  0  0  0  0  0  0  0  0
  -29.6421   -4.5932   -5.8432 C   0  0  0  0  0  0  0  0  0  0  0  0
  -30.3918   -4.1306   -4.7583 C   0  0  0  0  0  0  0  0  0  0  0  0
  -31.2847   -5.0114   -4.1296 C   0  0  0  0  0  0  0  0  0  0  0  0
  -31.3670   -6.3496   -4.5299 C   0  0  0  0  0  0  0  0  0  0  0  0
  -30.1311   -2.7576   -4.1812 C   0  0  0  0  0  0  0  0  0  0  0  0
  -29.3583   -1.8411   -5.0473 N   0  0  0  0  0  0  0  0  0  0  0  0
  -30.1100   -0.5936   -5.2640 C   0  0  0  0  0  0  0  0  0  0  0  0
  -29.2935    0.4706   -5.9992 C   0  0  0  0  0  0  0  0  0  0  0  0
  -27.9927    0.7601   -5.2647 C   0  0  0  0  0  0  0  0  0  0  0  0
  -27.2088   -0.5334   -5.1032 C   0  0  0  0  0  0  0  0  0  0  0  0
  -28.0508   -1.6013   -4.4062 C   0  0  0  0  0  0  0  0  0  0  0  0
  1  2  2  0  0  0
  2  3  1  0  0  0
  2 10  1  0  0  0
  3  4  1  0  0  0
  3 12  1  0  0  0
  4  5  1  0  0  0
  4  9  2  0  0  0
  5  6  2  0  0  0
  6  7  1  0  0  0
  7  8  2  0  0  0
  8  9  1  0  0  0
  9 10  1  0  0  0
 10 11  2  0  0  0
 11 19  1  0  0  0
 11 13  1  0  0  0
 19 21  1  0  0  0
 19 20  1  0  0  0
 21 22  1  0  0  0
 21 26  2  0  0  0
 22 23  2  0  0  0
 23 24  1  0  0  0
 24 27  1  0  0  0
 24 25  2  0  0  0
 27 28  1  0  0  0
 28 29  1  0  0  0
 28 33  1  0  0  0
 29 30  1  0  0  0
 30 31  1  0  0  0
 31 32  1  0  0  0
 32 33  1  0  0  0
 25 26  1  0  0  0
 13 14  1  0  0  0
 13 18  2  0  0  0
 14 15  2  0  0  0
 15 16  1  0  0  0
 16 17  2  0  0  0
 17 18  1  0  0  0
M  END
> <minimizedAffinity>
-9.20255

$$$$
