CHEMBL516639


 37 41  0  0  0  0  0  0  0  0999 V2000
  -14.6814   -0.6889  -13.3814 C   0  0  0  0  0  0  0  0  0  0  0  0
  -15.9202   -0.2622  -12.8969 C   0  0  0  0  0  0  0  0  0  0  0  0
  -16.6730    0.7139  -13.5778 C   0  0  0  0  0  0  0  0  0  0  0  0
  -16.1587    1.2839  -14.7627 C   0  0  0  0  0  0  0  0  0  0  0  0
  -16.5888    2.2589  -15.7271 C   0  0  0  0  0  0  0  0  0  0  0  0
  -15.6724    2.4046  -16.6888 N   0  0  0  0  0  0  0  0  0  0  0  0
  -14.6748    1.5835  -16.3446 N   0  0  0  0  0  0  0  0  0  0  0  0
  -13.4620    1.5920  -17.1266 C   0  0  0  0  0  0  0  0  0  0  0  0
  -14.9126    0.8498  -15.2134 C   0  0  0  0  0  0  0  0  0  0  0  0
  -14.1456   -0.1207  -14.5450 C   0  0  0  0  0  0  0  0  0  0  0  0
  -17.7605    2.9477  -15.6334 N   0  0  0  0  0  0  0  0  0  0  0  0
  -17.7538    3.9253  -15.8941 H   0  0  0  0  0  0  0  0  0  0  0  0
  -19.0266    2.5146  -15.1618 C   0  0  0  0  0  0  0  0  0  0  0  0
  -19.8945    3.3582  -14.4557 C   0  0  0  0  0  0  0  0  0  0  0  0
  -21.1313    2.9140  -13.9808 C   0  0  0  0  0  0  0  0  0  0  0  0
  -21.5341    1.5910  -14.1924 C   0  0  0  0  0  0  0  0  0  0  0  0
  -20.6702    0.7329  -14.8885 C   0  0  0  0  0  0  0  0  0  0  0  0
  -19.4297    1.1878  -15.3606 C   0  0  0  0  0  0  0  0  0  0  0  0
  -22.8697    1.1030  -13.6888 C   0  0  0  0  0  0  0  0  0  0  0  0
  -22.7833    0.3241  -12.5732 F   0  0  0  0  0  0  0  0  0  0  0  0
  -23.7075    2.1259  -13.3614 F   0  0  0  0  0  0  0  0  0  0  0  0
  -23.5364    0.3551  -14.6115 F   0  0  0  0  0  0  0  0  0  0  0  0
  -14.0074   -1.6310  -12.6182 O   0  0  0  0  0  0  0  0  0  0  0  0
  -14.3788   -5.9810  -15.2653 C   0  0  0  0  0  0  0  0  0  0  0  0
  -15.0453   -6.1191  -14.0400 C   0  0  0  0  0  0  0  0  0  0  0  0
  -15.1136   -5.0976  -13.1026 C   0  0  0  0  0  0  0  0  0  0  0  0
  -15.8516   -5.3172  -12.0064 N   0  0  0  0  0  0  0  0  0  0  0  0
  -15.9410   -4.3322  -11.0945 C   0  0  0  0  0  0  0  0  0  0  0  0
  -15.3321   -3.1040  -11.2319 C   0  0  0  0  0  0  0  0  0  0  0  0
  -14.6048   -2.8624  -12.3964 C   0  0  0  0  0  0  0  0  0  0  0  0
  -14.4380   -3.8948  -13.3570 C   0  0  0  0  0  0  0  0  0  0  0  0
  -13.6665   -3.7936  -14.5381 C   0  0  0  0  0  0  0  0  0  0  0  0
  -13.6366   -4.8202  -15.5011 C   0  0  0  0  0  0  0  0  0  0  0  0
  -13.3512   -7.9146  -16.2016 C   0  0  0  0  0  0  0  0  0  0  0  0
  -14.4314   -6.9747  -16.2145 O   0  0  0  0  0  0  0  0  0  0  0  0
  -12.8645   -4.4874  -16.5802 O   0  0  0  0  0  0  0  0  0  0  0  0
  -13.4696   -4.0270  -17.7787 C   0  0  0  0  0  0  0  0  0  0  0  0
 34 35  1  0  0  0
 35 24  1  0  0  0
 24 25  1  0  0  0
 24 33  2  0  0  0
 25 26  2  0  0  0
 26 27  1  0  0  0
 26 31  1  0  0  0
 27 28  2  0  0  0
 28 29  1  0  0  0
 29 30  2  0  0  0
 30 23  1  0  0  0
 30 31  1  0  0  0
 23  1  1  0  0  0
  1  2  1  0  0  0
  1 10  2  0  0  0
  2  3  2  0  0  0
  3  4  1  0  0  0
  4  5  1  0  0  0
  4  9  2  0  0  0
  5 11  1  0  0  0
  5  6  2  0  0  0
 11 13  1  0  0  0
 11 12  1  0  0  0
 13 14  1  0  0  0
 13 18  2  0  0  0
 14 15  2  0  0  0
 15 16  1  0  0  0
 16 19  1  0  0  0
 16 17  2  0  0  0
 19 20  1  0  0  0
 19 21  1  0  0  0
 19 22  1  0  0  0
 17 18  1  0  0  0
  6  7  1  0  0  0
  7  8  1  0  0  0
  7  9  1  0  0  0
  9 10  1  0  0  0
 31 32  2  0  0  0
 32 33  1  0  0  0
 33 36  1  0  0  0
 36 37  1  0  0  0
M  END
> <minimizedAffinity>
-9.84642

$$$$
