CHEMBL3905711


 38 41  0  0  0  0  0  0  0  0999 V2000
  -10.6966   -0.3550  -13.4039 C   0  0  0  0  0  0  0  0  0  0  0  0
  -12.0622   -0.9576  -13.2855 C   0  0  0  0  0  0  0  0  0  0  0  0
  -13.0514   -0.5065  -14.1707 C   0  0  0  0  0  0  0  0  0  0  0  0
  -14.3616   -0.9704  -14.1167 C   0  0  0  0  0  0  0  0  0  0  0  0
  -14.6253   -1.9412  -13.1635 C   0  0  0  0  0  0  0  0  0  0  0  0
  -13.7127   -2.3913  -12.2678 N   0  0  0  0  0  0  0  0  0  0  0  0
  -12.4432   -1.9066  -12.3422 C   0  0  0  0  0  0  0  0  0  0  0  0
  -15.3942   -0.4738  -14.9537 N   0  0  0  0  0  0  0  0  0  0  0  0
  -16.4317    0.3213  -14.5099 C   0  0  0  0  0  0  0  0  0  0  0  0
  -16.5609    0.7360  -13.3604 O   0  0  0  0  0  0  0  0  0  0  0  0
  -17.3772    0.5812  -15.4851 N   0  0  0  0  0  0  0  0  0  0  0  0
  -15.4266   -0.8012  -15.9091 H   0  0  0  0  0  0  0  0  0  0  0  0
  -17.5758   -0.1987  -16.1004 H   0  0  0  0  0  0  0  0  0  0  0  0
  -18.5042    1.3806  -15.1574 C   0  0  0  0  0  0  0  0  0  0  0  0
  -19.6977    0.8094  -14.6915 C   0  0  0  0  0  0  0  0  0  0  0  0
  -20.8161    1.6110  -14.4081 C   0  0  0  0  0  0  0  0  0  0  0  0
  -20.7270    2.9971  -14.6201 C   0  0  0  0  0  0  0  0  0  0  0  0
  -19.5416    3.5685  -15.0908 C   0  0  0  0  0  0  0  0  0  0  0  0
  -18.4359    2.7602  -15.3371 C   0  0  0  0  0  0  0  0  0  0  0  0
  -17.3109    3.3122  -15.8172 F   0  0  0  0  0  0  0  0  0  0  0  0
  -22.0919    1.0039  -13.8731 C   0  0  0  0  0  0  0  0  0  0  0  0
  -22.6515    0.0776  -14.6991 F   0  0  0  0  0  0  0  0  0  0  0  0
  -21.8926    0.3672  -12.6847 F   0  0  0  0  0  0  0  0  0  0  0  0
  -23.0588    1.9330  -13.6388 F   0  0  0  0  0  0  0  0  0  0  0  0
  -11.4951   -2.3887  -11.4329 O   0  0  0  0  0  0  0  0  0  0  0  0
  -11.8955   -3.4149  -10.5898 C   0  0  0  0  0  0  0  0  0  0  0  0
  -12.2378   -3.1730   -9.2620 C   0  0  0  0  0  0  0  0  0  0  0  0
  -12.5385   -4.2510   -8.4645 C   0  0  0  0  0  0  0  0  0  0  0  0
  -12.6004   -5.5090   -8.9173 N   0  0  0  0  0  0  0  0  0  0  0  0
  -12.3524   -5.7507  -10.2228 C   0  0  0  0  0  0  0  0  0  0  0  0
  -11.9932   -4.7204  -11.0966 C   0  0  0  0  0  0  0  0  0  0  0  0
  -12.4555   -7.0743  -10.6885 N   0  0  0  0  0  0  0  0  0  0  0  0
  -13.4545   -7.5043  -11.5492 C   0  0  0  0  0  0  0  0  0  0  0  0
  -14.3751   -6.8402  -12.0103 O   0  0  0  0  0  0  0  0  0  0  0  0
  -11.7622   -7.7392  -10.3777 H   0  0  0  0  0  0  0  0  0  0  0  0
  -13.3805   -8.9540  -11.9412 C   0  0  0  0  0  0  0  0  0  0  0  0
  -12.0299   -9.5631  -12.2690 C   0  0  0  0  0  0  0  0  0  0  0  0
  -13.0191   -9.3181  -13.3689 C   0  0  0  0  0  0  0  0  0  0  0  0
  1  2  1  0  0  0
  2  3  1  0  0  0
  2  7  2  0  0  0
  3  4  2  0  0  0
  4  8  1  0  0  0
  4  5  1  0  0  0
  8  9  1  0  0  0
  8 12  1  0  0  0
  9 10  2  0  0  0
  9 11  1  0  0  0
 11 14  1  0  0  0
 11 13  1  0  0  0
 14 15  1  0  0  0
 14 19  2  0  0  0
 15 16  2  0  0  0
 16 21  1  0  0  0
 16 17  1  0  0  0
 21 22  1  0  0  0
 21 23  1  0  0  0
 21 24  1  0  0  0
 17 18  2  0  0  0
 18 19  1  0  0  0
 19 20  1  0  0  0
  5  6  2  0  0  0
  6  7  1  0  0  0
  7 25  1  0  0  0
 25 26  1  0  0  0
 26 27  1  0  0  0
 26 31  2  0  0  0
 27 28  2  0  0  0
 28 29  1  0  0  0
 29 30  2  0  0  0
 30 32  1  0  0  0
 30 31  1  0  0  0
 32 33  1  0  0  0
 32 35  1  0  0  0
 33 34  2  0  0  0
 33 36  1  0  0  0
 36 37  1  0  0  0
 36 38  1  0  0  0
 37 38  1  0  0  0
M  END
> <minimizedAffinity>
-9.76610

$$$$
