CHEMBL184170


 34 37  0  0  0  0  0  0  0  0999 V2000
  -15.7519    0.4742  -12.9809 O   0  0  0  0  0  0  0  0  0  0  0  0
  -16.0975   -0.3593  -13.8067 C   0  0  0  0  0  0  0  0  0  0  0  0
  -15.5745   -1.6402  -13.8826 N   0  0  0  0  0  0  0  0  0  0  0  0
  -17.0414   -0.1271  -14.7942 N   0  0  0  0  0  0  0  0  0  0  0  0
  -15.7086   -2.1354  -14.7484 H   0  0  0  0  0  0  0  0  0  0  0  0
  -17.3477   -0.9087  -15.3521 H   0  0  0  0  0  0  0  0  0  0  0  0
  -17.7073    1.0979  -15.0326 C   0  0  0  0  0  0  0  0  0  0  0  0
  -19.0394    1.3558  -14.6696 C   0  0  0  0  0  0  0  0  0  0  0  0
  -19.6442    2.5950  -14.9376 C   0  0  0  0  0  0  0  0  0  0  0  0
  -18.8939    3.5957  -15.5700 C   0  0  0  0  0  0  0  0  0  0  0  0
  -17.5640    3.3567  -15.9302 C   0  0  0  0  0  0  0  0  0  0  0  0
  -16.9827    2.1222  -15.6682 C   0  0  0  0  0  0  0  0  0  0  0  0
  -15.7088    1.9026  -16.0159 F   0  0  0  0  0  0  0  0  0  0  0  0
  -21.0830    2.8415  -14.5472 C   0  0  0  0  0  0  0  0  0  0  0  0
  -21.7922    1.7068  -14.2959 F   0  0  0  0  0  0  0  0  0  0  0  0
  -21.1882    3.6030  -13.4235 F   0  0  0  0  0  0  0  0  0  0  0  0
  -21.7731    3.5053  -15.5152 F   0  0  0  0  0  0  0  0  0  0  0  0
  -14.5962   -2.1571  -13.0063 C   0  0  0  0  0  0  0  0  0  0  0  0
  -13.2228   -1.9604  -13.1777 C   0  0  0  0  0  0  0  0  0  0  0  0
  -12.2901   -2.5783  -12.3384 C   0  0  0  0  0  0  0  0  0  0  0  0
  -12.7053   -3.4366  -11.3176 C   0  0  0  0  0  0  0  0  0  0  0  0
  -14.0922   -3.5702  -11.1070 C   0  0  0  0  0  0  0  0  0  0  0  0
  -15.0269   -2.9258  -11.9265 C   0  0  0  0  0  0  0  0  0  0  0  0
  -11.7677   -4.3242  -10.6031 C   0  0  0  0  0  0  0  0  0  0  0  0
  -11.6168   -4.2513   -9.1999 C   0  0  0  0  0  0  0  0  0  0  0  0
  -11.0538   -5.3037   -8.4502 C   0  0  0  0  0  0  0  0  0  0  0  0
  -10.6991   -6.4928   -9.0764 C   0  0  0  0  0  0  0  0  0  0  0  0
  -10.8197   -6.5325  -10.4512 C   0  0  0  0  0  0  0  0  0  0  0  0
  -11.2328   -5.4476  -11.2247 C   0  0  0  0  0  0  0  0  0  0  0  0
  -11.1829   -5.8649  -12.6550 C   0  0  0  0  0  0  0  0  0  0  0  0
  -11.3173   -7.2935  -12.5684 N   0  0  0  0  0  0  0  0  0  0  0  0
  -10.9931   -7.7283  -11.2915 C   0  0  0  0  0  0  0  0  0  0  0  0
  -11.0636   -8.8636  -10.8776 O   0  0  0  0  0  0  0  0  0  0  0  0
  -12.1503   -7.7343  -12.9387 H   0  0  0  0  0  0  0  0  0  0  0  0
  1  2  2  0  0  0
  2  3  1  0  0  0
  2  4  1  0  0  0
  3 18  1  0  0  0
  3  5  1  0  0  0
 18 19  1  0  0  0
 18 23  2  0  0  0
 19 20  2  0  0  0
 20 21  1  0  0  0
 21 24  1  0  0  0
 21 22  2  0  0  0
 24 25  1  0  0  0
 24 29  2  0  0  0
 25 26  2  0  0  0
 26 27  1  0  0  0
 27 28  2  0  0  0
 28 29  1  0  0  0
 28 32  1  0  0  0
 29 30  1  0  0  0
 30 31  1  0  0  0
 31 32  1  0  0  0
 31 34  1  0  0  0
 32 33  2  0  0  0
 22 23  1  0  0  0
  4  7  1  0  0  0
  4  6  1  0  0  0
  7  8  1  0  0  0
  7 12  2  0  0  0
  8  9  2  0  0  0
  9 14  1  0  0  0
  9 10  1  0  0  0
 14 15  1  0  0  0
 14 16  1  0  0  0
 14 17  1  0  0  0
 10 11  2  0  0  0
 11 12  1  0  0  0
 12 13  1  0  0  0
M  END
> <minimizedAffinity>
-9.12871

$$$$
