CHEMBL3947664


 36 39  0  0  0  0  0  0  0  0999 V2000
  -27.9320   -2.2833   -8.5277 N   0  0  0  0  0  0  0  0  0  0  0  0
  -27.4240   -1.6809   -9.7482 C   0  0  0  0  0  0  0  0  0  0  0  0
  -28.2698   -1.8290  -10.8415 C   0  0  0  0  0  0  0  0  0  0  0  0
  -27.7561   -1.8264  -12.1306 C   0  0  0  0  0  0  0  0  0  0  0  0
  -26.4530   -1.5199  -12.3855 C   0  0  0  0  0  0  0  0  0  0  0  0
  -26.0917   -1.7497  -13.6491 N   0  0  0  0  0  0  0  0  0  0  0  0
  -24.8953   -1.3052  -14.0320 C   0  0  0  0  0  0  0  0  0  0  0  0
  -24.0910   -0.5519  -13.1968 C   0  0  0  0  0  0  0  0  0  0  0  0
  -24.4004   -0.4148  -11.8516 N   0  0  0  0  0  0  0  0  0  0  0  0
  -25.6055   -0.9860  -11.3833 C   0  0  0  0  0  0  0  0  0  0  0  0
  -26.1243   -1.1452  -10.0177 C   0  0  0  0  0  0  0  0  0  0  0  0
  -23.0221    0.1830  -13.8698 C   0  0  0  0  0  0  0  0  0  0  0  0
  -21.7789   -0.2905  -14.3781 C   0  0  0  0  0  0  0  0  0  0  0  0
  -20.9183    0.6942  -14.6730 N   0  0  0  0  0  0  0  0  0  0  0  0
  -21.5931    1.8072  -14.3416 N   0  0  0  0  0  0  0  0  0  0  0  0
  -21.1201    3.1067  -14.7620 C   0  0  0  0  0  0  0  0  0  0  0  0
  -22.7725    1.5398  -13.6990 C   0  0  0  0  0  0  0  0  0  0  0  0
  -28.6563   -0.0278   -5.5961 C   0  0  0  0  0  0  0  0  0  0  0  0
  -28.3465   -0.8697   -4.5275 C   0  0  0  0  0  0  0  0  0  0  0  0
  -27.8543   -2.1471   -4.7725 C   0  0  0  0  0  0  0  0  0  0  0  0
  -27.6697   -2.5814   -6.0917 C   0  0  0  0  0  0  0  0  0  0  0  0
  -27.9564   -1.7706   -7.2021 C   0  0  0  0  0  0  0  0  0  0  0  0
  -28.4389   -0.4728   -6.9228 C   0  0  0  0  0  0  0  0  0  0  0  0
  -30.5670    1.3967   -5.8516 C   0  0  0  0  0  0  0  0  0  0  0  0
  -29.2040    1.2263   -5.4491 O   0  0  0  0  0  0  0  0  0  0  0  0
  -27.5456   -3.0798   -3.8183 O   0  0  0  0  0  0  0  0  0  0  0  0
  -28.5294   -4.0692   -3.5398 C   0  0  0  0  0  0  0  0  0  0  0  0
  -27.8740   -3.8115   -8.6531 C   0  0  0  0  0  0  0  0  0  0  0  0
  -29.0341   -4.6013   -7.9984 C   0  0  0  0  0  0  0  0  0  0  0  0
  -28.6054   -6.0246   -7.6130 C   0  0  0  0  0  0  0  0  0  0  0  0
  -28.5643   -6.4214   -6.4531 O   0  0  0  0  0  0  0  0  0  0  0  0
  -28.2783   -6.8408   -8.6976 N   0  0  0  0  0  0  0  0  0  0  0  0
  -28.2197   -6.4148   -9.6101 H   0  0  0  0  0  0  0  0  0  0  0  0
  -27.8797   -8.2532   -8.5647 C   0  0  0  0  0  0  0  0  0  0  0  0
  -29.1126   -9.1571   -8.4438 C   0  0  0  0  0  0  0  0  0  0  0  0
  -27.0357   -8.7295   -9.7503 C   0  0  0  0  0  0  0  0  0  0  0  0
 24 25  1  0  0  0
 25 18  1  0  0  0
 18 19  1  0  0  0
 18 23  2  0  0  0
 19 20  2  0  0  0
 20 26  1  0  0  0
 20 21  1  0  0  0
 26 27  1  0  0  0
 21 22  2  0  0  0
 22  1  1  0  0  0
 22 23  1  0  0  0
  1 28  1  0  0  0
  1  2  1  0  0  0
 28 29  1  0  0  0
 29 30  1  0  0  0
 30 31  2  0  0  0
 30 32  1  0  0  0
 32 34  1  0  0  0
 32 33  1  0  0  0
 34 35  1  0  0  0
 34 36  1  0  0  0
  2  3  1  0  0  0
  2 11  2  0  0  0
  3  4  2  0  0  0
  4  5  1  0  0  0
  5  6  1  0  0  0
  5 10  2  0  0  0
  6  7  2  0  0  0
  7  8  1  0  0  0
  8 12  1  0  0  0
  8  9  2  0  0  0
 12 13  1  0  0  0
 12 17  2  0  0  0
 13 14  2  0  0  0
 14 15  1  0  0  0
 15 16  1  0  0  0
 15 17  1  0  0  0
  9 10  1  0  0  0
 10 11  1  0  0  0
M  END
> <minimizedAffinity>
-8.61621

$$$$
