CHEMBL1945501


 33 36  0  0  0  0  0  0  0  0999 V2000
  -27.9938   -1.8231   -8.6014 C   0  0  0  0  0  0  0  0  0  0  0  0
  -27.5617   -1.0525   -7.5930 N   0  0  0  0  0  0  0  0  0  0  0  0
  -27.6145   -1.5777   -6.3546 C   0  0  0  0  0  0  0  0  0  0  0  0
  -28.0755   -2.8451   -6.0805 C   0  0  0  0  0  0  0  0  0  0  0  0
  -28.4752   -3.5840   -7.1730 C   0  0  0  0  0  0  0  0  0  0  0  0
  -28.4204   -3.0802   -8.4246 N   0  0  0  0  0  0  0  0  0  0  0  0
  -28.9976   -4.9604   -7.0564 C   0  0  0  0  0  0  0  0  0  0  0  0
  -28.5785   -5.9348   -7.9878 C   0  0  0  0  0  0  0  0  0  0  0  0
  -29.0517   -7.2487   -7.9358 C   0  0  0  0  0  0  0  0  0  0  0  0
  -30.0030   -7.5972   -6.9867 C   0  0  0  0  0  0  0  0  0  0  0  0
  -30.5609   -9.2208   -6.8837 Cl  0  0  0  0  0  0  0  0  0  0  0  0
  -30.4743   -6.6497   -6.0837 C   0  0  0  0  0  0  0  0  0  0  0  0
  -29.9349   -5.3547   -6.0733 C   0  0  0  0  0  0  0  0  0  0  0  0
  -30.3698   -4.5333   -5.0110 N   0  0  0  0  0  0  0  0  0  0  0  0
  -29.6125   -3.6362   -4.3076 C   0  0  0  0  0  0  0  0  0  0  0  0
  -30.2746   -2.9216   -2.9447 S   0  0  0  0  0  0  0  0  0  0  0  0
  -28.1689   -3.3951   -4.6984 C   0  0  0  0  0  0  0  0  0  0  0  0
  -31.2482   -4.7734   -4.5592 H   0  0  0  0  0  0  0  0  0  0  0  0
  -28.0248   -1.2076   -9.8568 N   0  0  0  0  0  0  0  0  0  0  0  0
  -28.9794   -0.9172  -10.0323 H   0  0  0  0  0  0  0  0  0  0  0  0
  -25.0192   -1.6110  -12.0188 C   0  0  0  0  0  0  0  0  0  0  0  0
  -25.8467   -1.4403  -10.8940 C   0  0  0  0  0  0  0  0  0  0  0  0
  -27.2487   -1.4606  -11.0024 C   0  0  0  0  0  0  0  0  0  0  0  0
  -27.7986   -1.7561  -12.2562 C   0  0  0  0  0  0  0  0  0  0  0  0
  -26.9901   -1.9412  -13.3786 C   0  0  0  0  0  0  0  0  0  0  0  0
  -25.6136   -1.8525  -13.2555 C   0  0  0  0  0  0  0  0  0  0  0  0
  -24.8554   -1.9977  -14.3509 F   0  0  0  0  0  0  0  0  0  0  0  0
  -23.5221   -1.4844  -11.9104 C   0  0  0  0  0  0  0  0  0  0  0  0
  -23.0068   -0.1044  -12.3377 C   0  0  0  0  0  0  0  0  0  0  0  0
  -22.3300   -0.0749  -13.7184 C   0  0  0  0  0  0  0  0  0  0  0  0
  -20.4669    0.7920  -15.0227 C   0  0  0  0  0  0  0  0  0  0  0  0
  -21.3660    1.0264  -13.8913 N   0  0  0  0  0  0  0  0  0  0  0  0
  -22.0754    2.2948  -14.0718 C   0  0  0  0  0  0  0  0  0  0  0  0
 31 32  1  0  0  0
 32 33  1  0  0  0
 32 30  1  0  0  0
 30 29  1  0  0  0
 29 28  1  0  0  0
 28 21  1  0  0  0
 21 22  1  0  0  0
 21 26  2  0  0  0
 22 23  2  0  0  0
 23 19  1  0  0  0
 23 24  1  0  0  0
 19  1  1  0  0  0
 19 20  1  0  0  0
  1  2  1  0  0  0
  1  6  2  0  0  0
  2  3  2  0  0  0
  3  4  1  0  0  0
  4  5  2  0  0  0
  4 17  1  0  0  0
  5  6  1  0  0  0
  5  7  1  0  0  0
  7  8  1  0  0  0
  7 13  2  0  0  0
  8  9  2  0  0  0
  9 10  1  0  0  0
 10 11  1  0  0  0
 10 12  2  0  0  0
 12 13  1  0  0  0
 13 14  1  0  0  0
 14 15  1  0  0  0
 14 18  1  0  0  0
 15 16  2  0  0  0
 15 17  1  0  0  0
 24 25  2  0  0  0
 25 26  1  0  0  0
 26 27  1  0  0  0
M  END
> <minimizedAffinity>
-10.51679

$$$$
