CHEMBL255281


 35 40  0  0  0  0  0  0  0  0999 V2000
  -29.6294   -3.5430   -5.5468 C   0  0  0  0  0  0  0  0  0  0  0  0
  -28.2696   -3.4876   -5.8158 C   0  0  0  0  0  0  0  0  0  0  0  0
  -27.6725   -4.4768   -6.5617 C   0  0  0  0  0  0  0  0  0  0  0  0
  -28.5275   -5.4537   -7.0559 C   0  0  0  0  0  0  0  0  0  0  0  0
  -28.1849   -6.3534   -8.0016 N   0  0  0  0  0  0  0  0  0  0  0  0
  -29.1662   -7.3126   -8.1752 C   0  0  0  0  0  0  0  0  0  0  0  0
  -28.8972   -8.5894   -8.7276 C   0  0  0  0  0  0  0  0  0  0  0  0
  -29.5754   -9.7930   -8.3074 C   0  0  0  0  0  0  0  0  0  0  0  0
  -30.7962   -9.3674   -7.5140 C   0  0  0  0  0  0  0  0  0  0  0  0
  -31.0669   -7.9524   -7.0477 C   0  0  0  0  0  0  0  0  0  0  0  0
  -30.1083   -6.9544   -7.3058 C   0  0  0  0  0  0  0  0  0  0  0  0
  -29.8768   -5.6916   -6.6961 C   0  0  0  0  0  0  0  0  0  0  0  0
  -30.4214   -4.6897   -5.8846 C   0  0  0  0  0  0  0  0  0  0  0  0
  -32.3970   -7.7152   -6.4931 C   0  0  0  0  0  0  0  0  0  0  0  0
  -32.9411   -9.0395   -6.6800 N   0  0  0  0  0  0  0  0  0  0  0  0
  -32.1219  -10.0029   -7.3242 C   0  0  0  0  0  0  0  0  0  0  0  0
  -32.6105  -11.0669   -7.6872 O   0  0  0  0  0  0  0  0  0  0  0  0
  -28.3892  -11.0040   -8.0696 C   0  0  0  0  0  0  0  0  0  0  0  0
  -27.7972  -11.8733   -9.0877 C   0  0  0  0  0  0  0  0  0  0  0  0
  -26.4234  -12.1628   -8.7467 N   0  0  0  0  0  0  0  0  0  0  0  0
  -25.2092  -12.4660   -9.5138 C   0  0  0  0  0  0  0  0  0  0  0  0
  -26.1843  -11.6628   -7.5258 N   0  0  0  0  0  0  0  0  0  0  0  0
  -27.0091  -10.6187   -7.5852 C   0  0  0  0  0  0  0  0  0  0  0  0
  -26.3279   -9.3606   -8.1106 C   0  0  0  0  0  0  0  0  0  0  0  0
  -27.3896   -8.6767   -8.9682 C   0  0  0  0  0  0  0  0  0  0  0  0
  -27.2233   -6.4902   -8.2611 H   0  0  0  0  0  0  0  0  0  0  0  0
  -33.9439   -9.1921   -6.5992 H   0  0  0  0  0  0  0  0  0  0  0  0
  -30.8837   -2.3395   -3.6246 C   0  0  0  0  0  0  0  0  0  0  0  0
  -30.2600   -2.3101   -5.0055 C   0  0  0  0  0  0  0  0  0  0  0  0
  -30.1895   -1.2281   -5.7656 N   0  0  0  0  0  0  0  0  0  0  0  0
  -30.7404   -0.0965   -5.1880 O   0  0  0  0  0  0  0  0  0  0  0  0
  -30.0618    1.0512   -5.7333 C   0  0  0  0  0  0  0  0  0  0  0  0
  -31.0829    2.0451   -6.3011 C   0  0  0  0  0  0  0  0  0  0  0  0
  -29.3118    1.6943   -4.5620 C   0  0  0  0  0  0  0  0  0  0  0  0
  -29.0481    0.6190   -6.8019 C   0  0  0  0  0  0  0  0  0  0  0  0
 28 29  1  0  0  0
 29 30  2  0  0  0
 29  1  1  0  0  0
 30 31  1  0  0  0
 31 32  1  0  0  0
 32 33  1  0  0  0
 32 34  1  0  0  0
 32 35  1  0  0  0
  1  2  1  0  0  0
  1 13  2  0  0  0
  2  3  2  0  0  0
  3  4  1  0  0  0
  4  5  1  0  0  0
  4 12  2  0  0  0
  5  6  1  0  0  0
  5 26  1  0  0  0
  6  7  1  0  0  0
  6 11  2  0  0  0
  7  8  2  0  0  0
  7 25  1  0  0  0
  8  9  1  0  0  0
  8 18  1  0  0  0
  9 10  2  0  0  0
  9 16  1  0  0  0
 10 11  1  0  0  0
 10 14  1  0  0  0
 11 12  1  0  0  0
 12 13  1  0  0  0
 14 15  1  0  0  0
 15 16  1  0  0  0
 15 27  1  0  0  0
 16 17  2  0  0  0
 18 19  2  0  0  0
 18 23  1  0  0  0
 19 20  1  0  0  0
 20 21  1  0  0  0
 20 22  1  0  0  0
 22 23  2  0  0  0
 23 24  1  0  0  0
 24 25  1  0  0  0
M  END
> <minimizedAffinity>
-4.41352

$$$$
