CHEMBL317438


 28 32  0  0  0  0  0  0  0  0999 V2000
  -29.3455    0.0454   -4.9699 C   0  0  0  0  0  0  0  0  0  0  0  0
  -28.5426    0.7677   -5.8426 C   0  0  0  0  0  0  0  0  0  0  0  0
  -27.9589    0.1566   -6.9581 C   0  0  0  0  0  0  0  0  0  0  0  0
  -28.1879   -1.2155   -7.1661 C   0  0  0  0  0  0  0  0  0  0  0  0
  -28.9819   -1.9690   -6.2891 C   0  0  0  0  0  0  0  0  0  0  0  0
  -29.5813   -1.3129   -5.1902 C   0  0  0  0  0  0  0  0  0  0  0  0
  -29.0012   -3.3178   -6.7725 C   0  0  0  0  0  0  0  0  0  0  0  0
  -28.2002   -3.3498   -7.8959 C   0  0  0  0  0  0  0  0  0  0  0  0
  -27.7611   -2.0744   -8.1563 N   0  0  0  0  0  0  0  0  0  0  0  0
  -29.7057   -4.4876   -6.2688 C   0  0  0  0  0  0  0  0  0  0  0  0
  -30.3158   -4.4971   -5.0185 C   0  0  0  0  0  0  0  0  0  0  0  0
  -31.0547   -5.5243   -4.5345 N   0  0  0  0  0  0  0  0  0  0  0  0
  -31.1685   -6.6124   -5.3324 C   0  0  0  0  0  0  0  0  0  0  0  0
  -30.5682   -6.7386   -6.5823 C   0  0  0  0  0  0  0  0  0  0  0  0
  -29.8335   -5.6436   -7.0485 C   0  0  0  0  0  0  0  0  0  0  0  0
  -30.7165   -7.9551   -7.3748 C   0  0  0  0  0  0  0  0  0  0  0  0
  -31.8629   -8.8156   -7.4385 C   0  0  0  0  0  0  0  0  0  0  0  0
  -31.6739   -9.8940   -8.2729 C   0  0  0  0  0  0  0  0  0  0  0  0
  -30.1227   -9.8867   -8.9889 S   0  0  0  0  0  0  0  0  0  0  0  0
  -29.6979   -8.4403   -8.1757 C   0  0  0  0  0  0  0  0  0  0  0  0
  -26.9143   -1.7456   -9.2999 C   0  0  0  0  0  0  0  0  0  0  0  0
  -27.7220   -1.5168  -10.5936 C   0  0  0  0  0  0  0  0  0  0  0  0
  -26.9083   -1.1519  -11.7750 N   0  0  0  0  0  0  0  0  0  0  0  0
  -25.4628   -1.2532  -11.5143 C   0  0  0  0  0  0  0  0  0  0  0  0
  -24.6557   -0.7927  -12.7284 C   0  0  0  0  0  0  0  0  0  0  0  0
  -25.0116   -1.5971  -13.9708 C   0  0  0  0  0  0  0  0  0  0  0  0
  -26.5203   -1.6071  -14.1876 C   0  0  0  0  0  0  0  0  0  0  0  0
  -27.2718   -2.0141  -12.9180 C   0  0  0  0  0  0  0  0  0  0  0  0
  1  2  1  0  0  0
  1  6  2  0  0  0
  2  3  2  0  0  0
  3  4  1  0  0  0
  4  5  2  0  0  0
  4  9  1  0  0  0
  5  6  1  0  0  0
  5  7  1  0  0  0
  7 10  1  0  0  0
  7  8  2  0  0  0
 10 11  1  0  0  0
 10 15  2  0  0  0
 11 12  2  0  0  0
 12 13  1  0  0  0
 13 14  2  0  0  0
 14 16  1  0  0  0
 14 15  1  0  0  0
 16 17  1  0  0  0
 16 20  2  0  0  0
 17 18  2  0  0  0
 18 19  1  0  0  0
 19 20  1  0  0  0
  8  9  1  0  0  0
  9 21  1  0  0  0
 21 22  1  0  0  0
 22 23  1  0  0  0
 23 24  1  0  0  0
 23 28  1  0  0  0
 24 25  1  0  0  0
 25 26  1  0  0  0
 26 27  1  0  0  0
 27 28  1  0  0  0
M  END
> <minimizedAffinity>
-9.86483

$$$$
