CHEMBL4800500


 35 37  0  0  0  0  0  0  0  0999 V2000
  -25.8304   -1.4419  -12.5064 C   0  0  0  0  0  0  0  0  0  0  0  0
  -26.0236   -1.5247  -13.8843 C   0  0  0  0  0  0  0  0  0  0  0  0
  -27.2313   -1.7407  -14.7280 C   0  0  0  0  0  0  0  0  0  0  0  0
  -24.8174   -1.2504  -14.4968 N   0  0  0  0  0  0  0  0  0  0  0  0
  -23.8567   -0.9512  -13.5668 C   0  0  0  0  0  0  0  0  0  0  0  0
  -24.4394   -1.0773  -12.3166 C   0  0  0  0  0  0  0  0  0  0  0  0
  -23.7790   -0.8260  -11.0040 C   0  0  0  0  0  0  0  0  0  0  0  0
  -24.6855   -1.1903  -15.4967 H   0  0  0  0  0  0  0  0  0  0  0  0
  -22.5616   -0.5728  -14.0129 C   0  0  0  0  0  0  0  0  0  0  0  0
  -22.1726    0.7110  -14.1177 C   0  0  0  0  0  0  0  0  0  0  0  0
  -23.0327    1.9290  -13.8577 C   0  0  0  0  0  0  0  0  0  0  0  0
  -24.2256    2.0003  -13.6400 O   0  0  0  0  0  0  0  0  0  0  0  0
  -22.1712    3.0083  -13.9732 N   0  0  0  0  0  0  0  0  0  0  0  0
  -20.8943    2.6064  -14.3332 C   0  0  0  0  0  0  0  0  0  0  0  0
  -19.8198    3.4417  -14.5655 C   0  0  0  0  0  0  0  0  0  0  0  0
  -18.6201    2.8537  -14.9617 C   0  0  0  0  0  0  0  0  0  0  0  0
  -18.5181    1.4537  -15.1251 C   0  0  0  0  0  0  0  0  0  0  0  0
  -19.6327    0.6248  -14.8583 C   0  0  0  0  0  0  0  0  0  0  0  0
  -20.8252    1.2143  -14.4608 C   0  0  0  0  0  0  0  0  0  0  0  0
  -22.4860    3.9597  -13.8537 H   0  0  0  0  0  0  0  0  0  0  0  0
  -17.2019    0.8630  -15.5932 C   0  0  0  0  0  0  0  0  0  0  0  0
  -16.2421    0.5355  -14.4504 C   0  0  0  0  0  0  0  0  0  0  0  0
  -16.2663   -0.8530  -14.1409 O   0  0  0  0  0  0  0  0  0  0  0  0
  -17.1296   -1.0350  -13.7284 H   0  0  0  0  0  0  0  0  0  0  0  0
  -26.5574   -2.4722  -10.4277 N   0  0  0  0  0  0  0  0  0  0  0  0
  -26.8337   -1.5676  -11.4349 C   0  0  0  0  0  0  0  0  0  0  0  0
  -27.8568   -0.8857  -11.4171 O   0  0  0  0  0  0  0  0  0  0  0  0
  -25.6024   -2.7789  -10.2982 H   0  0  0  0  0  0  0  0  0  0  0  0
  -27.5019   -2.6606   -9.3432 C   0  0  0  0  0  0  0  0  0  0  0  0
  -27.4882   -1.5366   -8.2854 C   0  0  0  0  0  0  0  0  0  0  0  0
  -27.5617   -1.9767   -6.8714 N   0  0  0  0  0  0  0  0  0  0  0  0
  -28.2917    0.4317   -6.6414 C   0  0  0  0  0  0  0  0  0  0  0  0
  -27.7812   -0.8361   -5.9632 C   0  0  0  0  0  0  0  0  0  0  0  0
  -28.5495   -3.0627   -6.7041 C   0  0  0  0  0  0  0  0  0  0  0  0
  -29.8046   -2.7407   -5.8920 C   0  0  0  0  0  0  0  0  0  0  0  0
 32 33  1  0  0  0
 33 31  1  0  0  0
 31 34  1  0  0  0
 31 30  1  0  0  0
 34 35  1  0  0  0
 30 29  1  0  0  0
 29 25  1  0  0  0
 25 26  1  0  0  0
 25 28  1  0  0  0
 26 27  2  0  0  0
 26  1  1  0  0  0
  1  2  2  0  0  0
  1  6  1  0  0  0
  2  3  1  0  0  0
  2  4  1  0  0  0
  4  5  1  0  0  0
  4  8  1  0  0  0
  5  9  1  0  0  0
  5  6  2  0  0  0
  9 10  2  0  0  0
 10 11  1  0  0  0
 10 19  1  0  0  0
 11 12  2  0  0  0
 11 13  1  0  0  0
 13 14  1  0  0  0
 13 20  1  0  0  0
 14 15  1  0  0  0
 14 19  2  0  0  0
 15 16  2  0  0  0
 16 17  1  0  0  0
 17 21  1  0  0  0
 17 18  2  0  0  0
 21 22  1  0  0  0
 22 23  1  0  0  0
 23 24  1  0  0  0
 18 19  1  0  0  0
  6  7  1  0  0  0
M  END
> <minimizedAffinity>
-9.06475

$$$$
