CHEMBL398610


 27 30  0  0  0  0  0  0  0  0999 V2000
  -29.4294   -5.7255   -7.3129 C   0  0  0  0  0  0  0  0  0  0  0  0
  -29.2092   -6.6353   -6.3530 C   0  0  0  0  0  0  0  0  0  0  0  0
  -28.2871   -6.5880   -5.1930 C   0  0  0  0  0  0  0  0  0  0  0  0
  -27.6323   -5.6712   -4.7448 O   0  0  0  0  0  0  0  0  0  0  0  0
  -28.3119   -7.8984   -4.7247 N   0  0  0  0  0  0  0  0  0  0  0  0
  -29.2081   -8.7307   -5.3555 N   0  0  0  0  0  0  0  0  0  0  0  0
  -29.7903   -8.0122   -6.2895 C   0  0  0  0  0  0  0  0  0  0  0  0
  -27.7871   -8.2162   -3.9210 H   0  0  0  0  0  0  0  0  0  0  0  0
  -29.9968   -3.2593   -5.1463 C   0  0  0  0  0  0  0  0  0  0  0  0
  -29.9221   -2.0758   -4.3859 C   0  0  0  0  0  0  0  0  0  0  0  0
  -29.2536   -0.9535   -4.8580 C   0  0  0  0  0  0  0  0  0  0  0  0
  -28.5979   -0.9856   -6.0844 C   0  0  0  0  0  0  0  0  0  0  0  0
  -28.6149   -2.1835   -6.8164 C   0  0  0  0  0  0  0  0  0  0  0  0
  -29.2934   -3.3308   -6.3800 C   0  0  0  0  0  0  0  0  0  0  0  0
  -29.0718   -4.3432   -7.3817 C   0  0  0  0  0  0  0  0  0  0  0  0
  -28.2793   -3.7901   -8.3628 C   0  0  0  0  0  0  0  0  0  0  0  0
  -28.0244   -2.4915   -8.0225 N   0  0  0  0  0  0  0  0  0  0  0  0
  -27.2147   -1.5790   -8.7983 C   0  0  0  0  0  0  0  0  0  0  0  0
  -30.7408   -4.3451   -4.7356 O   0  0  0  0  0  0  0  0  0  0  0  0
  -32.1370   -5.4312   -3.1115 C   0  0  0  0  0  0  0  0  0  0  0  0
  -31.3682   -4.1729   -3.4591 C   0  0  0  0  0  0  0  0  0  0  0  0
  -30.9117   -8.5252   -7.0279 C   0  0  0  0  0  0  0  0  0  0  0  0
  -32.5372   -8.1715   -6.5997 S   0  0  0  0  0  0  0  0  0  0  0  0
  -33.1817   -9.1153   -7.8059 N   0  0  0  0  0  0  0  0  0  0  0  0
  -32.2600   -9.7619   -8.4934 N   0  0  0  0  0  0  0  0  0  0  0  0
  -30.9737   -9.4703   -8.0471 C   0  0  0  0  0  0  0  0  0  0  0  0
  -29.8507  -10.1949   -8.6937 C   0  0  0  0  0  0  0  0  0  0  0  0
 20 21  1  0  0  0
 21 19  1  0  0  0
 19  9  1  0  0  0
  9 10  1  0  0  0
  9 14  2  0  0  0
 10 11  2  0  0  0
 11 12  1  0  0  0
 12 13  2  0  0  0
 13 14  1  0  0  0
 13 17  1  0  0  0
 14 15  1  0  0  0
 15  1  1  0  0  0
 15 16  2  0  0  0
  1  2  2  0  0  0
  2  3  1  0  0  0
  2  7  1  0  0  0
  3  4  2  0  0  0
  3  5  1  0  0  0
  5  6  1  0  0  0
  5  8  1  0  0  0
  6  7  2  0  0  0
  7 22  1  0  0  0
 22 23  1  0  0  0
 22 26  2  0  0  0
 23 24  1  0  0  0
 24 25  2  0  0  0
 25 26  1  0  0  0
 26 27  1  0  0  0
 16 17  1  0  0  0
 17 18  1  0  0  0
M  END
> <minimizedAffinity>
-8.68110

$$$$
