CHEMBL197635


 38 41  0  0  0  0  0  0  0  0999 V2000
  -30.2814   -6.3505   -5.1507 C   0  0  0  0  0  0  0  0  0  0  0  0
  -29.2834   -7.2511   -4.7782 C   0  0  0  0  0  0  0  0  0  0  0  0
  -29.0135   -8.3758   -5.5576 C   0  0  0  0  0  0  0  0  0  0  0  0
  -29.8078   -8.7070   -6.6613 C   0  0  0  0  0  0  0  0  0  0  0  0
  -30.8974   -7.8658   -6.9390 C   0  0  0  0  0  0  0  0  0  0  0  0
  -31.1165   -6.6794   -6.2142 C   0  0  0  0  0  0  0  0  0  0  0  0
  -29.4908   -9.8801   -7.5085 C   0  0  0  0  0  0  0  0  0  0  0  0
  -30.0692  -11.1378   -7.2800 C   0  0  0  0  0  0  0  0  0  0  0  0
  -29.4902  -12.3157   -8.3867 S   0  0  0  0  0  0  0  0  0  0  0  0
  -28.4979  -11.2063   -9.1821 C   0  0  0  0  0  0  0  0  0  0  0  0
  -27.7589  -11.6310  -10.2205 N   0  0  0  0  0  0  0  0  0  0  0  0
  -27.0307  -10.6603  -10.7597 C   0  0  0  0  0  0  0  0  0  0  0  0
  -26.9734   -9.3846  -10.3650 N   0  0  0  0  0  0  0  0  0  0  0  0
  -27.7118   -8.9964   -9.3067 C   0  0  0  0  0  0  0  0  0  0  0  0
  -27.5391   -7.6620   -8.9562 N   0  0  0  0  0  0  0  0  0  0  0  0
  -28.5546   -9.9260   -8.6495 C   0  0  0  0  0  0  0  0  0  0  0  0
  -26.7413   -7.2877   -9.4599 H   0  0  0  0  0  0  0  0  0  0  0  0
  -27.5173   -7.5092   -7.9552 H   0  0  0  0  0  0  0  0  0  0  0  0
  -31.0546  -11.6446   -6.2452 C   0  0  0  0  0  0  0  0  0  0  0  0
  -32.1940  -12.4654   -6.8360 C   0  0  0  0  0  0  0  0  0  0  0  0
  -33.5233  -11.7835   -6.6145 C   0  0  0  0  0  0  0  0  0  0  0  0
  -33.4344  -10.5556   -6.0318 N   0  0  0  0  0  0  0  0  0  0  0  0
  -34.6143  -12.2608   -6.9124 O   0  0  0  0  0  0  0  0  0  0  0  0
  -32.5627  -10.1648   -5.7033 H   0  0  0  0  0  0  0  0  0  0  0  0
  -34.2972  -10.0690   -5.8252 H   0  0  0  0  0  0  0  0  0  0  0  0
  -29.8763   -2.8360   -4.3236 N   0  0  0  0  0  0  0  0  0  0  0  0
  -29.6807   -4.0052   -5.0365 C   0  0  0  0  0  0  0  0  0  0  0  0
  -28.9902   -4.0968   -6.0453 O   0  0  0  0  0  0  0  0  0  0  0  0
  -30.3898   -5.0854   -4.5163 N   0  0  0  0  0  0  0  0  0  0  0  0
  -30.2968   -2.9236   -3.4062 H   0  0  0  0  0  0  0  0  0  0  0  0
  -31.2846   -4.8546   -4.1098 H   0  0  0  0  0  0  0  0  0  0  0  0
  -30.7267    1.6184   -6.3325 C   0  0  0  0  0  0  0  0  0  0  0  0
  -29.7987    0.6333   -5.6843 C   0  0  0  0  0  0  0  0  0  0  0  0
  -28.4649    0.9888   -5.4597 C   0  0  0  0  0  0  0  0  0  0  0  0
  -27.5946    0.0876   -4.8600 C   0  0  0  0  0  0  0  0  0  0  0  0
  -28.0495   -1.1728   -4.4839 C   0  0  0  0  0  0  0  0  0  0  0  0
  -29.3789   -1.5600   -4.6870 C   0  0  0  0  0  0  0  0  0  0  0  0
  -30.2496   -0.6422   -5.2929 C   0  0  0  0  0  0  0  0  0  0  0  0
 32 33  1  0  0  0
 33 34  1  0  0  0
 33 38  2  0  0  0
 34 35  2  0  0  0
 35 36  1  0  0  0
 36 37  2  0  0  0
 37 26  1  0  0  0
 37 38  1  0  0  0
 26 27  1  0  0  0
 26 30  1  0  0  0
 27 28  2  0  0  0
 27 29  1  0  0  0
 29  1  1  0  0  0
 29 31  1  0  0  0
  1  2  1  0  0  0
  1  6  2  0  0  0
  2  3  2  0  0  0
  3  4  1  0  0  0
  4  7  1  0  0  0
  4  5  2  0  0  0
  7  8  2  0  0  0
  7 16  1  0  0  0
  8 19  1  0  0  0
  8  9  1  0  0  0
 19 20  1  0  0  0
 20 21  1  0  0  0
 21 22  1  0  0  0
 21 23  2  0  0  0
 22 24  1  0  0  0
 22 25  1  0  0  0
  9 10  1  0  0  0
 10 11  1  0  0  0
 10 16  2  0  0  0
 11 12  2  0  0  0
 12 13  1  0  0  0
 13 14  2  0  0  0
 14 15  1  0  0  0
 14 16  1  0  0  0
 15 17  1  0  0  0
 15 18  1  0  0  0
  5  6  1  0  0  0
M  END
> <minimizedAffinity>
-9.38000

$$$$
