CHEMBL212084


 24 28  0  0  0  0  0  0  0  0999 V2000
  -28.7936   -2.1198   -4.5560 C   0  0  0  0  0  0  0  0  0  0  0  0
  -29.6842   -2.4979   -3.5178 C   0  0  0  0  0  0  0  0  0  0  0  0
  -30.3562   -3.7359   -3.5277 C   0  0  0  0  0  0  0  0  0  0  0  0
  -30.1135   -4.6061   -4.5819 C   0  0  0  0  0  0  0  0  0  0  0  0
  -29.1696   -4.2297   -5.5645 C   0  0  0  0  0  0  0  0  0  0  0  0
  -28.5335   -3.0150   -5.5970 C   0  0  0  0  0  0  0  0  0  0  0  0
  -29.1076   -5.3157   -6.4592 C   0  0  0  0  0  0  0  0  0  0  0  0
  -28.3672   -5.7127   -7.5020 N   0  0  0  0  0  0  0  0  0  0  0  0
  -28.8316   -6.8685   -8.0110 N   0  0  0  0  0  0  0  0  0  0  0  0
  -29.8653   -7.2053   -7.2049 C   0  0  0  0  0  0  0  0  0  0  0  0
  -30.0019   -6.2977   -6.1403 C   0  0  0  0  0  0  0  0  0  0  0  0
  -30.7481   -5.9960   -4.8722 C   0  0  0  0  0  0  0  0  0  0  0  0
  -27.5476   -5.2822   -7.9161 H   0  0  0  0  0  0  0  0  0  0  0  0
  -30.6947   -8.3706   -7.5247 C   0  0  0  0  0  0  0  0  0  0  0  0
  -32.1019   -8.3645   -7.2590 C   0  0  0  0  0  0  0  0  0  0  0  0
  -32.7035   -9.5619   -7.5716 C   0  0  0  0  0  0  0  0  0  0  0  0
  -31.5741  -10.7050   -8.1571 S   0  0  0  0  0  0  0  0  0  0  0  0
  -30.2746   -9.5935   -7.9991 C   0  0  0  0  0  0  0  0  0  0  0  0
  -28.0739   -0.7939   -4.5521 C   0  0  0  0  0  0  0  0  0  0  0  0
  -30.2978    1.4573   -6.2590 C   0  0  0  0  0  0  0  0  0  0  0  0
  -30.0989    0.5371   -5.2560 C   0  0  0  0  0  0  0  0  0  0  0  0
  -28.7826    0.1776   -5.3656 N   0  0  0  0  0  0  0  0  0  0  0  0
  -28.2422    0.9001   -6.3891 C   0  0  0  0  0  0  0  0  0  0  0  0
  -29.1360    1.6849   -6.9485 N   0  0  0  0  0  0  0  0  0  0  0  0
 20 21  2  0  0  0
 20 24  1  0  0  0
 21 22  1  0  0  0
 22 19  1  0  0  0
 22 23  1  0  0  0
 19  1  1  0  0  0
  1  2  1  0  0  0
  1  6  2  0  0  0
  2  3  2  0  0  0
  3  4  1  0  0  0
  4  5  2  0  0  0
  4 12  1  0  0  0
  5  6  1  0  0  0
  5  7  1  0  0  0
  7  8  1  0  0  0
  7 11  2  0  0  0
  8  9  1  0  0  0
  8 13  1  0  0  0
  9 10  2  0  0  0
 10 14  1  0  0  0
 10 11  1  0  0  0
 14 15  1  0  0  0
 14 18  2  0  0  0
 15 16  2  0  0  0
 16 17  1  0  0  0
 17 18  1  0  0  0
 11 12  1  0  0  0
 23 24  2  0  0  0
M  END
> <minimizedAffinity>
-8.17151

$$$$
