CHEMBL394436


 26 28  0  0  0  0  0  0  0  0999 V2000
  -27.4950   -2.4674   -9.3261 C   0  0  0  0  0  0  0  0  0  0  0  0
  -27.8732   -2.0343   -7.9963 N   0  0  0  0  0  0  0  0  0  0  0  0
  -27.3326   -0.9014   -7.5107 N   0  0  0  0  0  0  0  0  0  0  0  0
  -27.9217   -0.7608   -6.3264 C   0  0  0  0  0  0  0  0  0  0  0  0
  -28.8346   -1.8034   -6.0456 C   0  0  0  0  0  0  0  0  0  0  0  0
  -28.8017   -2.6260   -7.1579 C   0  0  0  0  0  0  0  0  0  0  0  0
  -29.4726   -3.8557   -7.5193 C   0  0  0  0  0  0  0  0  0  0  0  0
  -30.5970   -3.8202   -8.0145 O   0  0  0  0  0  0  0  0  0  0  0  0
  -28.8055   -5.0289   -7.2178 N   0  0  0  0  0  0  0  0  0  0  0  0
  -27.9685   -4.9395   -6.6452 H   0  0  0  0  0  0  0  0  0  0  0  0
  -29.2718   -6.3353   -7.5095 C   0  0  0  0  0  0  0  0  0  0  0  0
  -28.4775   -7.2952   -8.1519 C   0  0  0  0  0  0  0  0  0  0  0  0
  -28.9878   -8.5508   -8.4873 C   0  0  0  0  0  0  0  0  0  0  0  0
  -30.3007   -8.8709   -8.1664 C   0  0  0  0  0  0  0  0  0  0  0  0
  -31.0824   -7.9435   -7.4792 C   0  0  0  0  0  0  0  0  0  0  0  0
  -32.7017   -8.3550   -7.0634 Cl  0  0  0  0  0  0  0  0  0  0  0  0
  -30.5735   -6.6845   -7.1388 C   0  0  0  0  0  0  0  0  0  0  0  0
  -29.5560   -1.8886   -4.8969 N   0  0  0  0  0  0  0  0  0  0  0  0
  -30.0034   -1.0218   -4.5969 H   0  0  0  0  0  0  0  0  0  0  0  0
  -29.0780   -2.6111   -3.7202 C   0  0  0  0  0  0  0  0  0  0  0  0
  -29.6362   -4.0154   -3.6976 C   0  0  0  0  0  0  0  0  0  0  0  0
  -31.0214   -4.2089   -3.7417 C   0  0  0  0  0  0  0  0  0  0  0  0
  -31.5200   -5.5020   -3.7031 C   0  0  0  0  0  0  0  0  0  0  0  0
  -30.7432   -6.6032   -3.6462 N   0  0  0  0  0  0  0  0  0  0  0  0
  -29.4097   -6.4048   -3.6355 C   0  0  0  0  0  0  0  0  0  0  0  0
  -28.8172   -5.1511   -3.6645 C   0  0  0  0  0  0  0  0  0  0  0  0
  1  2  1  0  0  0
  2  3  1  0  0  0
  2  6  1  0  0  0
  3  4  2  0  0  0
  4  5  1  0  0  0
  5 18  1  0  0  0
  5  6  2  0  0  0
 18 20  1  0  0  0
 18 19  1  0  0  0
 20 21  1  0  0  0
 21 22  1  0  0  0
 21 26  2  0  0  0
 22 23  2  0  0  0
 23 24  1  0  0  0
 24 25  2  0  0  0
 25 26  1  0  0  0
  6  7  1  0  0  0
  7  8  2  0  0  0
  7  9  1  0  0  0
  9 11  1  0  0  0
  9 10  1  0  0  0
 11 12  1  0  0  0
 11 17  2  0  0  0
 12 13  2  0  0  0
 13 14  1  0  0  0
 14 15  2  0  0  0
 15 16  1  0  0  0
 15 17  1  0  0  0
M  END
> <minimizedAffinity>
-7.60879

$$$$
