CHEMBL191705


 29 31  0  0  0  0  0  0  0  0999 V2000
  -30.4162   -6.0402   -6.1606 N   0  0  0  0  0  0  0  0  0  0  0  0
  -31.3877   -6.1235   -6.4387 H   0  0  0  0  0  0  0  0  0  0  0  0
  -28.9267   -2.7564   -5.2010 C   0  0  0  0  0  0  0  0  0  0  0  0
  -29.5960   -2.4891   -4.0096 C   0  0  0  0  0  0  0  0  0  0  0  0
  -30.5328   -3.4040   -3.5217 C   0  0  0  0  0  0  0  0  0  0  0  0
  -30.8027   -4.5909   -4.2173 C   0  0  0  0  0  0  0  0  0  0  0  0
  -30.1287   -4.8613   -5.4290 C   0  0  0  0  0  0  0  0  0  0  0  0
  -29.1961   -3.9230   -5.9122 C   0  0  0  0  0  0  0  0  0  0  0  0
  -27.8118   -1.5574   -5.8865 S   0  0  0  0  0  0  0  0  0  0  0  0
  -27.4416   -2.0329   -7.2087 O   0  0  0  0  0  0  0  0  0  0  0  0
  -26.7932   -1.3099   -4.8812 O   0  0  0  0  0  0  0  0  0  0  0  0
  -28.4801    0.9230   -4.9830 C   0  0  0  0  0  0  0  0  0  0  0  0
  -28.7764   -0.0734   -6.0917 C   0  0  0  0  0  0  0  0  0  0  0  0
  -31.7131   -5.5395   -3.8108 O   0  0  0  0  0  0  0  0  0  0  0  0
  -32.3815   -5.2889   -2.5765 C   0  0  0  0  0  0  0  0  0  0  0  0
  -29.6514   -7.1460   -6.1312 C   0  0  0  0  0  0  0  0  0  0  0  0
  -28.8940   -7.5940   -5.1519 N   0  0  0  0  0  0  0  0  0  0  0  0
  -28.2351   -8.6576   -5.6961 C   0  0  0  0  0  0  0  0  0  0  0  0
  -28.5790   -8.8101   -7.0204 C   0  0  0  0  0  0  0  0  0  0  0  0
  -29.5526   -7.8733   -7.2903 O   0  0  0  0  0  0  0  0  0  0  0  0
  -28.1032   -9.6637   -8.1037 C   0  0  0  0  0  0  0  0  0  0  0  0
  -27.9503  -11.0461   -7.9373 C   0  0  0  0  0  0  0  0  0  0  0  0
  -27.5206  -11.8506   -8.9967 C   0  0  0  0  0  0  0  0  0  0  0  0
  -27.2580  -11.2849  -10.2442 C   0  0  0  0  0  0  0  0  0  0  0  0
  -27.4369   -9.9136  -10.4452 C   0  0  0  0  0  0  0  0  0  0  0  0
  -27.8358   -9.1068   -9.3709 C   0  0  0  0  0  0  0  0  0  0  0  0
  -27.1892   -9.3716  -11.8124 C   0  0  0  0  0  0  0  0  0  0  0  0
  -28.1153   -9.7262  -12.9487 C   0  0  0  0  0  0  0  0  0  0  0  0
  -26.1917   -8.6789  -12.0104 O   0  0  0  0  0  0  0  0  0  0  0  0
 12 13  1  0  0  0
 13  9  1  0  0  0
  9 10  2  0  0  0
  9 11  2  0  0  0
  9  3  1  0  0  0
  3  4  1  0  0  0
  3  8  2  0  0  0
  4  5  2  0  0  0
  5  6  1  0  0  0
  6 14  1  0  0  0
  6  7  2  0  0  0
 14 15  1  0  0  0
  7  1  1  0  0  0
  7  8  1  0  0  0
  1 16  1  0  0  0
  1  2  1  0  0  0
 16 17  2  0  0  0
 16 20  1  0  0  0
 17 18  1  0  0  0
 18 19  2  0  0  0
 19 21  1  0  0  0
 19 20  1  0  0  0
 21 22  1  0  0  0
 21 26  2  0  0  0
 22 23  2  0  0  0
 23 24  1  0  0  0
 24 25  2  0  0  0
 25 27  1  0  0  0
 25 26  1  0  0  0
 27 28  1  0  0  0
 27 29  2  0  0  0
M  END
> <minimizedAffinity>
-8.20538

$$$$
