CHEMBL44915


 30 33  0  0  0  0  0  0  0  0999 V2000
  -15.4857   -1.2468  -13.5401 C   0  0  0  0  0  0  0  0  0  0  0  0
  -15.6948   -0.7236  -12.3208 N   0  0  0  0  0  0  0  0  0  0  0  0
  -15.8649   -1.5664  -11.2935 C   0  0  0  0  0  0  0  0  0  0  0  0
  -15.8603   -2.9264  -11.4315 C   0  0  0  0  0  0  0  0  0  0  0  0
  -15.5758   -3.3863  -12.7000 C   0  0  0  0  0  0  0  0  0  0  0  0
  -15.3714   -2.5581  -13.7500 N   0  0  0  0  0  0  0  0  0  0  0  0
  -15.4275   -4.7865  -12.9096 N   0  0  0  0  0  0  0  0  0  0  0  0
  -16.2564   -5.5730  -13.6879 C   0  0  0  0  0  0  0  0  0  0  0  0
  -15.6666   -6.8102  -13.7238 C   0  0  0  0  0  0  0  0  0  0  0  0
  -14.5540   -6.8372  -12.9370 N   0  0  0  0  0  0  0  0  0  0  0  0
  -14.4405   -5.6306  -12.3929 C   0  0  0  0  0  0  0  0  0  0  0  0
  -13.4565   -5.2998  -11.3407 C   0  0  0  0  0  0  0  0  0  0  0  0
  -12.1905   -4.8222  -11.7045 C   0  0  0  0  0  0  0  0  0  0  0  0
  -11.2530   -4.4663  -10.7285 C   0  0  0  0  0  0  0  0  0  0  0  0
  -11.5729   -4.5701   -9.3762 C   0  0  0  0  0  0  0  0  0  0  0  0
  -12.8062   -5.0838   -8.9979 C   0  0  0  0  0  0  0  0  0  0  0  0
  -13.7192   -5.4841   -9.9729 C   0  0  0  0  0  0  0  0  0  0  0  0
  -15.3954   -0.3962  -14.6403 N   0  0  0  0  0  0  0  0  0  0  0  0
  -14.4467   -0.3259  -14.9700 H   0  0  0  0  0  0  0  0  0  0  0  0
  -16.1496    4.1881  -16.3164 C   0  0  0  0  0  0  0  0  0  0  0  0
  -16.7004    2.8881  -15.8014 C   0  0  0  0  0  0  0  0  0  0  0  0
  -15.8406    1.8584  -15.4413 C   0  0  0  0  0  0  0  0  0  0  0  0
  -16.2990    0.6183  -14.9742 C   0  0  0  0  0  0  0  0  0  0  0  0
  -17.6790    0.4462  -14.8190 C   0  0  0  0  0  0  0  0  0  0  0  0
  -18.5746    1.4765  -15.1631 C   0  0  0  0  0  0  0  0  0  0  0  0
  -18.0763    2.6932  -15.6587 C   0  0  0  0  0  0  0  0  0  0  0  0
  -20.0641    1.3010  -15.0072 C   0  0  0  0  0  0  0  0  0  0  0  0
  -20.4839    1.3081  -13.7113 F   0  0  0  0  0  0  0  0  0  0  0  0
  -20.7744    2.2802  -15.6328 F   0  0  0  0  0  0  0  0  0  0  0  0
  -20.5077    0.1259  -15.5354 F   0  0  0  0  0  0  0  0  0  0  0  0
 20 21  1  0  0  0
 21 22  1  0  0  0
 21 26  2  0  0  0
 22 23  2  0  0  0
 23 18  1  0  0  0
 23 24  1  0  0  0
 18  1  1  0  0  0
 18 19  1  0  0  0
  1  2  1  0  0  0
  1  6  2  0  0  0
  2  3  2  0  0  0
  3  4  1  0  0  0
  4  5  2  0  0  0
  5  7  1  0  0  0
  5  6  1  0  0  0
  7  8  1  0  0  0
  7 11  1  0  0  0
  8  9  2  0  0  0
  9 10  1  0  0  0
 10 11  2  0  0  0
 11 12  1  0  0  0
 12 13  1  0  0  0
 12 17  2  0  0  0
 13 14  2  0  0  0
 14 15  1  0  0  0
 15 16  2  0  0  0
 16 17  1  0  0  0
 24 25  2  0  0  0
 25 27  1  0  0  0
 25 26  1  0  0  0
 27 28  1  0  0  0
 27 29  1  0  0  0
 27 30  1  0  0  0
M  END
> <minimizedAffinity>
-8.78283

$$$$
