CHEMBL395334


 39 43  0  0  0  0  0  0  0  0999 V2000
  -29.6418   -4.8813   -5.1144 C   0  0  0  0  0  0  0  0  0  0  0  0
  -30.5487   -5.8015   -5.6488 C   0  0  0  0  0  0  0  0  0  0  0  0
  -30.2815   -7.1806   -5.6436 C   0  0  0  0  0  0  0  0  0  0  0  0
  -29.0684   -7.5859   -5.0731 C   0  0  0  0  0  0  0  0  0  0  0  0
  -28.1302   -6.6736   -4.6145 C   0  0  0  0  0  0  0  0  0  0  0  0
  -28.3887   -5.3029   -4.6633 C   0  0  0  0  0  0  0  0  0  0  0  0
  -27.0196   -7.3034   -4.1552 N   0  0  0  0  0  0  0  0  0  0  0  0
  -27.2154   -8.5926   -4.3171 C   0  0  0  0  0  0  0  0  0  0  0  0
  -28.4882   -8.8126   -4.8131 N   0  0  0  0  0  0  0  0  0  0  0  0
  -29.1325  -10.0800   -5.0506 C   0  0  0  0  0  0  0  0  0  0  0  0
  -26.3343   -9.5914   -4.0611 N   0  0  0  0  0  0  0  0  0  0  0  0
  -26.2182   -9.9501   -3.1235 H   0  0  0  0  0  0  0  0  0  0  0  0
  -25.4218  -10.1469   -4.9918 C   0  0  0  0  0  0  0  0  0  0  0  0
  -24.0757  -10.2767   -4.6390 C   0  0  0  0  0  0  0  0  0  0  0  0
  -23.1377  -10.7711   -5.5545 C   0  0  0  0  0  0  0  0  0  0  0  0
  -23.5268  -11.1545   -6.8386 C   0  0  0  0  0  0  0  0  0  0  0  0
  -22.2969  -11.6985   -7.9204 Cl  0  0  0  0  0  0  0  0  0  0  0  0
  -24.8761  -11.1013   -7.2020 C   0  0  0  0  0  0  0  0  0  0  0  0
  -25.7988  -10.5850   -6.2743 C   0  0  0  0  0  0  0  0  0  0  0  0
  -25.4082  -11.6348   -8.5205 C   0  0  0  0  0  0  0  0  0  0  0  0
  -26.7738  -11.1777   -8.7942 N   0  0  0  0  0  0  0  0  0  0  0  0
  -26.8322   -9.8789   -9.4841 C   0  0  0  0  0  0  0  0  0  0  0  0
  -28.2965   -9.4115   -9.6405 C   0  0  0  0  0  0  0  0  0  0  0  0
  -29.1779  -10.3646  -10.3449 N   0  0  0  0  0  0  0  0  0  0  0  0
  -28.9016  -10.3833  -11.7778 C   0  0  0  0  0  0  0  0  0  0  0  0
  -29.0210  -11.7048   -9.7389 C   0  0  0  0  0  0  0  0  0  0  0  0
  -27.5584  -12.1760   -9.5345 C   0  0  0  0  0  0  0  0  0  0  0  0
  -30.0341   -3.5573   -5.0855 O   0  0  0  0  0  0  0  0  0  0  0  0
  -28.1047   -1.8872   -7.7345 C   0  0  0  0  0  0  0  0  0  0  0  0
  -28.7593   -2.9155   -7.0749 C   0  0  0  0  0  0  0  0  0  0  0  0
  -29.3095   -2.6433   -5.8244 C   0  0  0  0  0  0  0  0  0  0  0  0
  -29.1089   -1.3951   -5.2442 C   0  0  0  0  0  0  0  0  0  0  0  0
  -28.4134   -0.4400   -5.9675 C   0  0  0  0  0  0  0  0  0  0  0  0
  -27.9125   -0.6449   -7.2061 N   0  0  0  0  0  0  0  0  0  0  0  0
  -27.5923   -1.2711  -11.4306 C   0  0  0  0  0  0  0  0  0  0  0  0
  -27.9893   -1.1819  -10.0527 N   0  0  0  0  0  0  0  0  0  0  0  0
  -27.5921   -2.1195   -9.1240 C   0  0  0  0  0  0  0  0  0  0  0  0
  -26.8771   -3.0789   -9.3913 O   0  0  0  0  0  0  0  0  0  0  0  0
  -28.5957   -0.4356   -9.7239 H   0  0  0  0  0  0  0  0  0  0  0  0
 35 36  1  0  0  0
 36 37  1  0  0  0
 36 39  1  0  0  0
 37 38  2  0  0  0
 37 29  1  0  0  0
 29 30  1  0  0  0
 29 34  2  0  0  0
 30 31  2  0  0  0
 31 28  1  0  0  0
 31 32  1  0  0  0
 28  1  1  0  0  0
  1  2  1  0  0  0
  1  6  2  0  0  0
  2  3  2  0  0  0
  3  4  1  0  0  0
  4  5  2  0  0  0
  4  9  1  0  0  0
  5  6  1  0  0  0
  5  7  1  0  0  0
  7  8  2  0  0  0
  8 11  1  0  0  0
  8  9  1  0  0  0
 11 13  1  0  0  0
 11 12  1  0  0  0
 13 14  1  0  0  0
 13 19  2  0  0  0
 14 15  2  0  0  0
 15 16  1  0  0  0
 16 17  1  0  0  0
 16 18  2  0  0  0
 18 20  1  0  0  0
 18 19  1  0  0  0
 20 21  1  0  0  0
 21 22  1  0  0  0
 21 27  1  0  0  0
 22 23  1  0  0  0
 23 24  1  0  0  0
 24 25  1  0  0  0
 24 26  1  0  0  0
 26 27  1  0  0  0
  9 10  1  0  0  0
 32 33  2  0  0  0
 33 34  1  0  0  0
M  END
> <minimizedAffinity>
-8.40198

$$$$
