CHEMBL78303


 26 29  0  0  0  0  0  0  0  0999 V2000
  -27.5873   -2.1110   -8.4758 C   0  0  0  0  0  0  0  0  0  0  0  0
  -27.8867   -3.3909   -8.7764 N   0  0  0  0  0  0  0  0  0  0  0  0
  -28.6694   -4.1557   -7.9769 N   0  0  0  0  0  0  0  0  0  0  0  0
  -29.1447   -3.6552   -6.8200 C   0  0  0  0  0  0  0  0  0  0  0  0
  -28.8304   -2.3497   -6.3971 C   0  0  0  0  0  0  0  0  0  0  0  0
  -29.2471   -1.8143   -5.1526 C   0  0  0  0  0  0  0  0  0  0  0  0
  -28.9777   -0.4943   -4.7909 C   0  0  0  0  0  0  0  0  0  0  0  0
  -28.3046    0.3317   -5.6735 C   0  0  0  0  0  0  0  0  0  0  0  0
  -27.8516   -0.1808   -6.8892 C   0  0  0  0  0  0  0  0  0  0  0  0
  -28.0670   -1.5359   -7.2710 C   0  0  0  0  0  0  0  0  0  0  0  0
  -26.7644   -1.3750   -9.3579 N   0  0  0  0  0  0  0  0  0  0  0  0
  -26.4820   -0.4749   -9.0100 H   0  0  0  0  0  0  0  0  0  0  0  0
  -23.3506   -1.6673  -12.8966 C   0  0  0  0  0  0  0  0  0  0  0  0
  -24.7953   -1.6727  -12.4977 C   0  0  0  0  0  0  0  0  0  0  0  0
  -25.8039   -1.7636  -13.4605 C   0  0  0  0  0  0  0  0  0  0  0  0
  -27.1376   -1.7676  -13.0688 C   0  0  0  0  0  0  0  0  0  0  0  0
  -27.4754   -1.6635  -11.7180 C   0  0  0  0  0  0  0  0  0  0  0  0
  -26.4934   -1.5387  -10.7313 C   0  0  0  0  0  0  0  0  0  0  0  0
  -25.1498   -1.5748  -11.1436 C   0  0  0  0  0  0  0  0  0  0  0  0
  -30.1218   -4.5667   -6.1185 C   0  0  0  0  0  0  0  0  0  0  0  0
  -29.5365   -5.9268   -5.7992 C   0  0  0  0  0  0  0  0  0  0  0  0
  -28.4156   -6.0485   -4.9696 C   0  0  0  0  0  0  0  0  0  0  0  0
  -27.8900   -7.3101   -4.7337 C   0  0  0  0  0  0  0  0  0  0  0  0
  -28.4063   -8.4453   -5.2496 N   0  0  0  0  0  0  0  0  0  0  0  0
  -29.4959   -8.3101   -6.0334 C   0  0  0  0  0  0  0  0  0  0  0  0
  -30.0919   -7.0930   -6.3317 C   0  0  0  0  0  0  0  0  0  0  0  0
 13 14  1  0  0  0
 14 15  1  0  0  0
 14 19  2  0  0  0
 15 16  2  0  0  0
 16 17  1  0  0  0
 17 18  2  0  0  0
 18 11  1  0  0  0
 18 19  1  0  0  0
 11  1  1  0  0  0
 11 12  1  0  0  0
  1  2  1  0  0  0
  1 10  2  0  0  0
  2  3  2  0  0  0
  3  4  1  0  0  0
  4 20  1  0  0  0
  4  5  2  0  0  0
 20 21  1  0  0  0
 21 22  1  0  0  0
 21 26  2  0  0  0
 22 23  2  0  0  0
 23 24  1  0  0  0
 24 25  2  0  0  0
 25 26  1  0  0  0
  5  6  1  0  0  0
  5 10  1  0  0  0
  6  7  2  0  0  0
  7  8  1  0  0  0
  8  9  2  0  0  0
  9 10  1  0  0  0
M  END
> <minimizedAffinity>
-9.41293

$$$$
