CHEMBL2204529


 39 43  0  0  0  0  0  0  0  0999 V2000
  -29.3805   -3.7529   -6.9869 C   0  0  0  0  0  0  0  0  0  0  0  0
  -28.7858   -3.5833   -8.2511 C   0  0  0  0  0  0  0  0  0  0  0  0
  -27.9357   -2.5185   -8.5402 C   0  0  0  0  0  0  0  0  0  0  0  0
  -27.6983   -1.5741   -7.5405 C   0  0  0  0  0  0  0  0  0  0  0  0
  -28.3230   -1.6887   -6.2933 C   0  0  0  0  0  0  0  0  0  0  0  0
  -29.1725   -2.7702   -6.0072 C   0  0  0  0  0  0  0  0  0  0  0  0
  -29.8030   -2.8895   -4.6485 C   0  0  0  0  0  0  0  0  0  0  0  0
  -27.3040   -2.3465   -9.7924 N   0  0  0  0  0  0  0  0  0  0  0  0
  -27.6716   -1.4683  -10.7957 C   0  0  0  0  0  0  0  0  0  0  0  0
  -28.6597   -0.7400  -10.8055 O   0  0  0  0  0  0  0  0  0  0  0  0
  -26.4609   -2.8907   -9.9360 H   0  0  0  0  0  0  0  0  0  0  0  0
  -26.8038   -1.4139  -12.0073 C   0  0  0  0  0  0  0  0  0  0  0  0
  -27.3796   -1.9088  -13.1897 C   0  0  0  0  0  0  0  0  0  0  0  0
  -26.6829   -1.8718  -14.3904 C   0  0  0  0  0  0  0  0  0  0  0  0
  -25.4022   -1.3262  -14.4255 C   0  0  0  0  0  0  0  0  0  0  0  0
  -24.7963   -0.7727  -13.2769 C   0  0  0  0  0  0  0  0  0  0  0  0
  -25.5203   -0.8403  -12.0556 C   0  0  0  0  0  0  0  0  0  0  0  0
  -24.7962   -0.1360  -10.6382 Cl  0  0  0  0  0  0  0  0  0  0  0  0
  -23.4105   -0.0992  -13.3754 C   0  0  0  0  0  0  0  0  0  0  0  0
  -22.2461   -0.6825  -12.5641 C   0  0  0  0  0  0  0  0  0  0  0  0
  -22.3222   -0.9599  -14.0299 C   0  0  0  0  0  0  0  0  0  0  0  0
  -23.3256    1.3389  -13.6080 C   0  0  0  0  0  0  0  0  0  0  0  0
  -23.2584    2.4800  -13.7926 N   0  0  0  0  0  0  0  0  0  0  0  0
  -30.1333   -4.9125   -6.6971 N   0  0  0  0  0  0  0  0  0  0  0  0
  -31.0892   -4.9010   -7.0219 H   0  0  0  0  0  0  0  0  0  0  0  0
  -27.1867   -9.8625   -5.4927 C   0  0  0  0  0  0  0  0  0  0  0  0
  -27.8836   -9.9015   -6.6008 N   0  0  0  0  0  0  0  0  0  0  0  0
  -28.5666   -8.7076   -6.7379 C   0  0  0  0  0  0  0  0  0  0  0  0
  -29.4252   -8.2751   -7.7430 C   0  0  0  0  0  0  0  0  0  0  0  0
  -29.9627   -7.0270   -7.6891 N   0  0  0  0  0  0  0  0  0  0  0  0
  -29.6327   -6.2174   -6.6634 C   0  0  0  0  0  0  0  0  0  0  0  0
  -28.8692   -6.5709   -5.6192 N   0  0  0  0  0  0  0  0  0  0  0  0
  -28.3616   -7.8015   -5.7140 C   0  0  0  0  0  0  0  0  0  0  0  0
  -27.3461   -8.4674   -4.5213 S   0  0  0  0  0  0  0  0  0  0  0  0
  -24.2298  -11.8832   -4.5980 C   0  0  0  0  0  0  0  0  0  0  0  0
  -24.9784  -10.7635   -5.2704 C   0  0  0  0  0  0  0  0  0  0  0  0
  -24.3901   -9.9527   -5.9753 O   0  0  0  0  0  0  0  0  0  0  0  0
  -26.3232  -10.7895   -4.9811 N   0  0  0  0  0  0  0  0  0  0  0  0
  -26.6909  -11.4215   -4.2828 H   0  0  0  0  0  0  0  0  0  0  0  0
 35 36  1  0  0  0
 36 37  2  0  0  0
 36 38  1  0  0  0
 38 26  1  0  0  0
 38 39  1  0  0  0
 26 27  2  0  0  0
 26 34  1  0  0  0
 27 28  1  0  0  0
 28 29  1  0  0  0
 28 33  2  0  0  0
 29 30  2  0  0  0
 30 31  1  0  0  0
 31 24  1  0  0  0
 31 32  2  0  0  0
 24  1  1  0  0  0
 24 25  1  0  0  0
  1  2  1  0  0  0
  1  6  2  0  0  0
  2  3  2  0  0  0
  3  8  1  0  0  0
  3  4  1  0  0  0
  8  9  1  0  0  0
  8 11  1  0  0  0
  9 10  2  0  0  0
  9 12  1  0  0  0
 12 13  1  0  0  0
 12 17  2  0  0  0
 13 14  2  0  0  0
 14 15  1  0  0  0
 15 16  2  0  0  0
 16 19  1  0  0  0
 16 17  1  0  0  0
 19 22  1  0  0  0
 19 20  1  0  0  0
 19 21  1  0  0  0
 22 23  3  0  0  0
 20 21  1  0  0  0
 17 18  1  0  0  0
  4  5  2  0  0  0
  5  6  1  0  0  0
  6  7  1  0  0  0
 32 33  1  0  0  0
 33 34  1  0  0  0
M  END
> <minimizedAffinity>
-8.99429

$$$$
