CHEMBL188997


 44 47  0  0  0  0  0  0  0  0999 V2000
  -13.0299   -6.3457  -19.8132 C   0  0  0  0  0  0  0  0  0  0  0  0
  -11.9194   -5.5041  -19.8087 C   0  0  0  0  0  0  0  0  0  0  0  0
  -12.0689   -4.1184  -19.7934 C   0  0  0  0  0  0  0  0  0  0  0  0
  -13.3320   -3.5233  -19.7890 C   0  0  0  0  0  0  0  0  0  0  0  0
  -14.4549   -4.3529  -19.7861 C   0  0  0  0  0  0  0  0  0  0  0  0
  -14.3015   -5.7481  -19.7906 C   0  0  0  0  0  0  0  0  0  0  0  0
  -13.5218   -2.1224  -19.7660 N   0  0  0  0  0  0  0  0  0  0  0  0
  -13.5497   -1.3405  -18.6279 C   0  0  0  0  0  0  0  0  0  0  0  0
  -13.3123   -1.7338  -17.4908 O   0  0  0  0  0  0  0  0  0  0  0  0
  -13.9212   -0.0306  -18.8971 N   0  0  0  0  0  0  0  0  0  0  0  0
  -13.5305   -1.6389  -20.6524 H   0  0  0  0  0  0  0  0  0  0  0  0
  -14.6486    0.0566  -19.5968 H   0  0  0  0  0  0  0  0  0  0  0  0
  -14.0226    0.8803  -17.8137 C   0  0  0  0  0  0  0  0  0  0  0  0
  -15.2403    1.0931  -17.1544 C   0  0  0  0  0  0  0  0  0  0  0  0
  -15.3593    2.0829  -16.1674 C   0  0  0  0  0  0  0  0  0  0  0  0
  -14.2337    2.8629  -15.8529 C   0  0  0  0  0  0  0  0  0  0  0  0
  -13.0098    2.6330  -16.4883 C   0  0  0  0  0  0  0  0  0  0  0  0
  -12.9069    1.6301  -17.4469 C   0  0  0  0  0  0  0  0  0  0  0  0
  -11.7388    1.4393  -18.0789 F   0  0  0  0  0  0  0  0  0  0  0  0
  -16.6742    2.3173  -15.4627 C   0  0  0  0  0  0  0  0  0  0  0  0
  -17.7517    1.8056  -16.1198 F   0  0  0  0  0  0  0  0  0  0  0  0
  -16.6960    1.7525  -14.2228 F   0  0  0  0  0  0  0  0  0  0  0  0
  -16.9408    3.6388  -15.2742 F   0  0  0  0  0  0  0  0  0  0  0  0
  -13.1529   -8.3752  -21.1760 C   0  0  0  0  0  0  0  0  0  0  0  0
  -12.8905   -7.7432  -19.8755 N   0  0  0  0  0  0  0  0  0  0  0  0
  -13.0412   -8.6419  -18.7893 C   0  0  0  0  0  0  0  0  0  0  0  0
  -13.3787   -9.9621  -18.9850 C   0  0  0  0  0  0  0  0  0  0  0  0
  -13.5294  -10.7483  -17.8683 C   0  0  0  0  0  0  0  0  0  0  0  0
  -13.3866  -10.2913  -16.6137 N   0  0  0  0  0  0  0  0  0  0  0  0
  -13.0107   -9.0128  -16.4937 C   0  0  0  0  0  0  0  0  0  0  0  0
  -12.8321   -8.1908  -17.5399 N   0  0  0  0  0  0  0  0  0  0  0  0
  -12.8217   -8.5236  -15.2031 N   0  0  0  0  0  0  0  0  0  0  0  0
  -11.8558   -8.5565  -14.9235 H   0  0  0  0  0  0  0  0  0  0  0  0
  -13.7322   -7.8549  -14.3735 C   0  0  0  0  0  0  0  0  0  0  0  0
  -14.5857   -6.8847  -14.9074 C   0  0  0  0  0  0  0  0  0  0  0  0
  -15.3888   -6.0923  -14.0725 C   0  0  0  0  0  0  0  0  0  0  0  0
  -15.3774   -6.2686  -12.6817 C   0  0  0  0  0  0  0  0  0  0  0  0
  -14.5594   -7.2728  -12.1516 C   0  0  0  0  0  0  0  0  0  0  0  0
  -13.7438   -8.0411  -12.9866 C   0  0  0  0  0  0  0  0  0  0  0  0
  -16.0796   -5.3200  -11.7443 C   0  0  0  0  0  0  0  0  0  0  0  0
  -14.9757   -4.2793  -10.8053 S   0  0  0  0  0  0  0  0  0  0  0  0
  -15.8570   -2.7532  -10.5808 C   0  0  0  0  0  0  0  0  0  0  0  0
  -14.8497   -4.8825   -9.4885 O   0  0  0  0  0  0  0  0  0  0  0  0
  -13.7829   -4.0037  -11.5840 O   0  0  0  0  0  0  0  0  0  0  0  0
 24 25  1  0  0  0
 25  1  1  0  0  0
 25 26  1  0  0  0
  1  2  1  0  0  0
  1  6  2  0  0  0
  2  3  2  0  0  0
  3  4  1  0  0  0
  4  7  1  0  0  0
  4  5  2  0  0  0
  7  8  1  0  0  0
  7 11  1  0  0  0
  8  9  2  0  0  0
  8 10  1  0  0  0
 10 13  1  0  0  0
 10 12  1  0  0  0
 13 14  1  0  0  0
 13 18  2  0  0  0
 14 15  2  0  0  0
 15 20  1  0  0  0
 15 16  1  0  0  0
 20 21  1  0  0  0
 20 22  1  0  0  0
 20 23  1  0  0  0
 16 17  2  0  0  0
 17 18  1  0  0  0
 18 19  1  0  0  0
  5  6  1  0  0  0
 26 27  1  0  0  0
 26 31  2  0  0  0
 27 28  2  0  0  0
 28 29  1  0  0  0
 29 30  2  0  0  0
 30 32  1  0  0  0
 30 31  1  0  0  0
 32 34  1  0  0  0
 32 33  1  0  0  0
 34 35  1  0  0  0
 34 39  2  0  0  0
 35 36  2  0  0  0
 36 37  1  0  0  0
 37 40  1  0  0  0
 37 38  2  0  0  0
 40 41  1  0  0  0
 41 42  1  0  0  0
 41 43  2  0  0  0
 41 44  2  0  0  0
 38 39  1  0  0  0
M  END
> <minimizedAffinity>
-7.78554

$$$$
