CHEMBL3986036


 37 41  0  0  0  0  0  0  0  0999 V2000
  -16.1002    2.0265  -15.3327 N   0  0  0  0  0  0  0  0  0  0  0  0
  -17.5419    2.0629  -15.3880 C   0  0  0  0  0  0  0  0  0  0  0  0
  -18.0795    3.2406  -15.8973 C   0  0  0  0  0  0  0  0  0  0  0  0
  -19.3566    3.6372  -15.5496 C   0  0  0  0  0  0  0  0  0  0  0  0
  -20.1841    2.8218  -14.8191 C   0  0  0  0  0  0  0  0  0  0  0  0
  -21.3005    3.4169  -14.3885 N   0  0  0  0  0  0  0  0  0  0  0  0
  -22.2229    2.6178  -13.8321 C   0  0  0  0  0  0  0  0  0  0  0  0
  -22.0846    1.2549  -13.7840 C   0  0  0  0  0  0  0  0  0  0  0  0
  -20.8947    0.6540  -14.1096 N   0  0  0  0  0  0  0  0  0  0  0  0
  -19.8557    1.4639  -14.5847 C   0  0  0  0  0  0  0  0  0  0  0  0
  -18.4660    1.1276  -14.8392 C   0  0  0  0  0  0  0  0  0  0  0  0
  -23.3191    0.4942  -13.5775 C   0  0  0  0  0  0  0  0  0  0  0  0
  -24.0083    0.2403  -12.3650 C   0  0  0  0  0  0  0  0  0  0  0  0
  -24.9058   -0.7467  -12.4675 N   0  0  0  0  0  0  0  0  0  0  0  0
  -24.7784   -1.1673  -13.7368 N   0  0  0  0  0  0  0  0  0  0  0  0
  -23.7734   -0.5173  -14.4098 C   0  0  0  0  0  0  0  0  0  0  0  0
  -25.3524   -1.9381  -14.0495 H   0  0  0  0  0  0  0  0  0  0  0  0
  -13.4468    4.5594  -16.1451 C   0  0  0  0  0  0  0  0  0  0  0  0
  -13.0562    4.1453  -17.4194 C   0  0  0  0  0  0  0  0  0  0  0  0
  -13.7022    3.0715  -18.0277 C   0  0  0  0  0  0  0  0  0  0  0  0
  -14.7444    2.4144  -17.3614 C   0  0  0  0  0  0  0  0  0  0  0  0
  -15.1722    2.7987  -16.0821 C   0  0  0  0  0  0  0  0  0  0  0  0
  -14.5097    3.8983  -15.4941 C   0  0  0  0  0  0  0  0  0  0  0  0
  -12.1569    6.5803  -16.1966 C   0  0  0  0  0  0  0  0  0  0  0  0
  -12.8273    5.5672  -15.4414 O   0  0  0  0  0  0  0  0  0  0  0  0
  -13.3894    2.5460  -19.2543 O   0  0  0  0  0  0  0  0  0  0  0  0
  -13.7198    1.1794  -19.4741 C   0  0  0  0  0  0  0  0  0  0  0  0
  -15.6405    0.6185  -14.9549 C   0  0  0  0  0  0  0  0  0  0  0  0
  -14.9669    0.5031  -13.5656 C   0  0  0  0  0  0  0  0  0  0  0  0
  -15.8002   -0.3043  -12.5253 C   0  0  0  0  0  0  0  0  0  0  0  0
  -15.4226   -1.7288  -12.5000 N   0  0  0  0  0  0  0  0  0  0  0  0
  -15.8575   -2.4943  -13.6758 C   0  0  0  0  0  0  0  0  0  0  0  0
  -16.1481   -3.9254  -13.2236 C   0  0  0  0  0  0  0  0  0  0  0  0
  -15.7489   -3.9512  -11.7689 C   0  0  0  0  0  0  0  0  0  0  0  0
  -16.5424   -4.7826  -11.0609 F   0  0  0  0  0  0  0  0  0  0  0  0
  -14.4776   -4.3971  -11.6359 F   0  0  0  0  0  0  0  0  0  0  0  0
  -15.8802   -2.4957  -11.3243 C   0  0  0  0  0  0  0  0  0  0  0  0
 24 25  1  0  0  0
 25 18  1  0  0  0
 18 19  1  0  0  0
 18 23  2  0  0  0
 19 20  2  0  0  0
 20 26  1  0  0  0
 20 21  1  0  0  0
 26 27  1  0  0  0
 21 22  2  0  0  0
 22  1  1  0  0  0
 22 23  1  0  0  0
  1 28  1  0  0  0
  1  2  1  0  0  0
 28 29  1  0  0  0
 29 30  1  0  0  0
 30 31  1  0  0  0
 31 32  1  0  0  0
 31 37  1  0  0  0
 32 33  1  0  0  0
 33 34  1  0  0  0
 34 35  1  0  0  0
 34 36  1  0  0  0
 34 37  1  0  0  0
  2  3  1  0  0  0
  2 11  2  0  0  0
  3  4  2  0  0  0
  4  5  1  0  0  0
  5  6  1  0  0  0
  5 10  2  0  0  0
  6  7  2  0  0  0
  7  8  1  0  0  0
  8 12  1  0  0  0
  8  9  2  0  0  0
 12 13  1  0  0  0
 12 16  2  0  0  0
 13 14  2  0  0  0
 14 15  1  0  0  0
 15 16  1  0  0  0
 15 17  1  0  0  0
  9 10  1  0  0  0
 10 11  1  0  0  0
M  END
> <minimizedAffinity>
-8.70911

$$$$
