CHEMBL2113187


 35 38  0  0  0  0  0  0  0  0999 V2000
  -29.7959   -7.8856   -5.3083 N   0  0  0  0  0  0  0  0  0  0  0  0
  -29.8794   -8.5116   -4.4991 H   0  0  0  0  0  0  0  0  0  0  0  0
  -25.8249  -10.9893   -6.2266 C   0  0  0  0  0  0  0  0  0  0  0  0
  -26.5569  -10.7720   -7.4176 C   0  0  0  0  0  0  0  0  0  0  0  0
  -27.7051   -9.9869   -7.4937 C   0  0  0  0  0  0  0  0  0  0  0  0
  -28.3635   -9.8859   -8.6546 N   0  0  0  0  0  0  0  0  0  0  0  0
  -29.4665   -9.1325   -8.6587 C   0  0  0  0  0  0  0  0  0  0  0  0
  -29.9550   -8.4490   -7.6173 N   0  0  0  0  0  0  0  0  0  0  0  0
  -29.2904   -8.5465   -6.4523 C   0  0  0  0  0  0  0  0  0  0  0  0
  -28.1339   -9.3428   -6.3306 C   0  0  0  0  0  0  0  0  0  0  0  0
  -27.4158   -9.5549   -5.1329 C   0  0  0  0  0  0  0  0  0  0  0  0
  -26.2654  -10.3596   -5.0567 C   0  0  0  0  0  0  0  0  0  0  0  0
  -25.8709  -10.4682   -3.7569 O   0  0  0  0  0  0  0  0  0  0  0  0
  -24.5454  -10.1919   -3.3452 C   0  0  0  0  0  0  0  0  0  0  0  0
  -24.7923  -11.8627   -6.4582 O   0  0  0  0  0  0  0  0  0  0  0  0
  -23.9146  -11.5759   -7.5263 C   0  0  0  0  0  0  0  0  0  0  0  0
  -22.5281  -12.1834   -7.3666 C   0  0  0  0  0  0  0  0  0  0  0  0
  -21.1568  -10.2449   -7.2305 C   0  0  0  0  0  0  0  0  0  0  0  0
  -21.8181  -11.2739   -6.5200 O   0  0  0  0  0  0  0  0  0  0  0  0
  -29.5034   -6.5875   -4.8919 C   0  0  0  0  0  0  0  0  0  0  0  0
  -28.2945   -6.0342   -4.7785 C   0  0  0  0  0  0  0  0  0  0  0  0
  -28.0545   -4.6937   -4.2288 C   0  0  0  0  0  0  0  0  0  0  0  0
  -26.9191   -4.3829   -3.9022 O   0  0  0  0  0  0  0  0  0  0  0  0
  -29.2372   -3.7826   -4.1027 C   0  0  0  0  0  0  0  0  0  0  0  0
  -30.4604   -4.3131   -4.2284 C   0  0  0  0  0  0  0  0  0  0  0  0
  -30.6895   -5.7313   -4.5649 C   0  0  0  0  0  0  0  0  0  0  0  0
  -31.8298   -6.1886   -4.6143 O   0  0  0  0  0  0  0  0  0  0  0  0
  -29.1217   -2.4324   -3.7638 O   0  0  0  0  0  0  0  0  0  0  0  0
  -28.9156   -1.4748   -4.7276 C   0  0  0  0  0  0  0  0  0  0  0  0
  -27.8594   -1.5176   -5.6475 C   0  0  0  0  0  0  0  0  0  0  0  0
  -27.6806   -0.4734   -6.5585 C   0  0  0  0  0  0  0  0  0  0  0  0
  -28.5917    0.5803   -6.5952 C   0  0  0  0  0  0  0  0  0  0  0  0
  -29.6780    0.5762   -5.7275 C   0  0  0  0  0  0  0  0  0  0  0  0
  -30.5709    1.5728   -5.7888 F   0  0  0  0  0  0  0  0  0  0  0  0
  -29.8501   -0.4423   -4.7957 C   0  0  0  0  0  0  0  0  0  0  0  0
 18 19  1  0  0  0
 19 17  1  0  0  0
 17 16  1  0  0  0
 16 15  1  0  0  0
 15  3  1  0  0  0
  3  4  1  0  0  0
  3 12  2  0  0  0
  4  5  2  0  0  0
  5  6  1  0  0  0
  5 10  1  0  0  0
  6  7  2  0  0  0
  7  8  1  0  0  0
  8  9  2  0  0  0
  9  1  1  0  0  0
  9 10  1  0  0  0
  1 20  1  0  0  0
  1  2  1  0  0  0
 20 21  2  0  0  0
 20 26  1  0  0  0
 21 22  1  0  0  0
 22 23  2  0  0  0
 22 24  1  0  0  0
 24 28  1  0  0  0
 24 25  2  0  0  0
 28 29  1  0  0  0
 29 30  1  0  0  0
 29 35  2  0  0  0
 30 31  2  0  0  0
 31 32  1  0  0  0
 32 33  2  0  0  0
 33 34  1  0  0  0
 33 35  1  0  0  0
 25 26  1  0  0  0
 26 27  2  0  0  0
 10 11  2  0  0  0
 11 12  1  0  0  0
 12 13  1  0  0  0
 13 14  1  0  0  0
M  END
> <minimizedAffinity>
-8.20613

$$$$
