CHEMBL3935838


 35 38  0  0  0  0  0  0  0  0999 V2000
  -14.1228   -3.3145  -12.5644 C   0  0  0  0  0  0  0  0  0  0  0  0
  -15.0942   -2.7798  -11.7054 C   0  0  0  0  0  0  0  0  0  0  0  0
  -15.7414   -1.6337  -12.0670 C   0  0  0  0  0  0  0  0  0  0  0  0
  -15.3270   -0.8762  -13.1224 C   0  0  0  0  0  0  0  0  0  0  0  0
  -16.1959    0.0760  -13.4580 N   0  0  0  0  0  0  0  0  0  0  0  0
  -15.7693    0.9988  -14.3197 C   0  0  0  0  0  0  0  0  0  0  0  0
  -14.4740    1.0397  -14.7832 C   0  0  0  0  0  0  0  0  0  0  0  0
  -13.6157   -0.0239  -14.5568 N   0  0  0  0  0  0  0  0  0  0  0  0
  -14.0820   -1.0936  -13.7541 C   0  0  0  0  0  0  0  0  0  0  0  0
  -13.5211   -2.4140  -13.4902 C   0  0  0  0  0  0  0  0  0  0  0  0
  -14.0466    2.3791  -15.2332 C   0  0  0  0  0  0  0  0  0  0  0  0
  -14.4883    3.0610  -16.4019 C   0  0  0  0  0  0  0  0  0  0  0  0
  -13.7007    4.0809  -16.7446 N   0  0  0  0  0  0  0  0  0  0  0  0
  -12.7603    4.1011  -15.7861 N   0  0  0  0  0  0  0  0  0  0  0  0
  -11.8775    5.2471  -15.7086 C   0  0  0  0  0  0  0  0  0  0  0  0
  -12.8153    2.9989  -14.9534 C   0  0  0  0  0  0  0  0  0  0  0  0
  -11.7450    2.6999  -13.9358 C   0  0  0  0  0  0  0  0  0  0  0  0
  -12.1143    2.9603  -12.4655 C   0  0  0  0  0  0  0  0  0  0  0  0
  -12.9227    1.9270  -11.9189 O   0  0  0  0  0  0  0  0  0  0  0  0
  -13.8525    2.1911  -12.0386 H   0  0  0  0  0  0  0  0  0  0  0  0
  -14.0549   -4.7577  -12.5312 N   0  0  0  0  0  0  0  0  0  0  0  0
  -11.7131   -7.6342  -11.8864 C   0  0  0  0  0  0  0  0  0  0  0  0
  -11.0886   -7.2145  -10.7101 C   0  0  0  0  0  0  0  0  0  0  0  0
  -11.4820   -6.0294  -10.1000 C   0  0  0  0  0  0  0  0  0  0  0  0
  -12.5061   -5.2637  -10.6693 C   0  0  0  0  0  0  0  0  0  0  0  0
  -13.1662   -5.6389  -11.8526 C   0  0  0  0  0  0  0  0  0  0  0  0
  -12.7515   -6.8517  -12.4445 C   0  0  0  0  0  0  0  0  0  0  0  0
  -12.1642   -9.9343  -12.3769 C   0  0  0  0  0  0  0  0  0  0  0  0
  -11.3576   -8.7718  -12.5755 O   0  0  0  0  0  0  0  0  0  0  0  0
  -10.9279   -5.4914   -8.9687 O   0  0  0  0  0  0  0  0  0  0  0  0
  -11.7663   -5.4018   -7.8227 C   0  0  0  0  0  0  0  0  0  0  0  0
  -14.5844   -5.2682  -13.8608 C   0  0  0  0  0  0  0  0  0  0  0  0
  -15.9979   -5.8789  -13.8583 C   0  0  0  0  0  0  0  0  0  0  0  0
  -16.0382   -7.1524  -14.5005 O   0  0  0  0  0  0  0  0  0  0  0  0
  -16.6872   -7.0846  -15.2229 H   0  0  0  0  0  0  0  0  0  0  0  0
 28 29  1  0  0  0
 29 22  1  0  0  0
 22 23  1  0  0  0
 22 27  2  0  0  0
 23 24  2  0  0  0
 24 30  1  0  0  0
 24 25  1  0  0  0
 30 31  1  0  0  0
 25 26  2  0  0  0
 26 21  1  0  0  0
 26 27  1  0  0  0
 21 32  1  0  0  0
 21  1  1  0  0  0
 32 33  1  0  0  0
 33 34  1  0  0  0
 34 35  1  0  0  0
  1  2  1  0  0  0
  1 10  2  0  0  0
  2  3  2  0  0  0
  3  4  1  0  0  0
  4  5  1  0  0  0
  4  9  2  0  0  0
  5  6  2  0  0  0
  6  7  1  0  0  0
  7 11  1  0  0  0
  7  8  2  0  0  0
 11 12  1  0  0  0
 11 16  2  0  0  0
 12 13  2  0  0  0
 13 14  1  0  0  0
 14 15  1  0  0  0
 14 16  1  0  0  0
 16 17  1  0  0  0
 17 18  1  0  0  0
 18 19  1  0  0  0
 19 20  1  0  0  0
  8  9  1  0  0  0
  9 10  1  0  0  0
M  END
> <minimizedAffinity>
-6.87748

$$$$
