CHEMBL1969483


 48 54  0  0  0  0  0  0  0  0999 V2000
  -27.7023   -1.6810   -8.0897 C   0  0  0  0  0  0  0  0  0  0  0  0
  -27.2354   -0.6151   -7.3286 N   0  0  0  0  0  0  0  0  0  0  0  0
  -27.6364   -0.9124   -6.1260 C   0  0  0  0  0  0  0  0  0  0  0  0
  -27.4853   -0.1628   -4.5675 S   0  0  0  0  0  0  0  0  0  0  0  0
  -28.3807   -1.5255   -3.8684 C   0  0  0  0  0  0  0  0  0  0  0  0
  -28.7373   -2.4499   -4.7839 C   0  0  0  0  0  0  0  0  0  0  0  0
  -28.3110   -2.0927   -6.0449 N   0  0  0  0  0  0  0  0  0  0  0  0
  -28.3460   -2.6407   -7.3034 C   0  0  0  0  0  0  0  0  0  0  0  0
  -26.9874   -1.7928  -12.3403 C   0  0  0  0  0  0  0  0  0  0  0  0
  -28.2806   -1.7514  -11.7688 C   0  0  0  0  0  0  0  0  0  0  0  0
  -28.5185   -1.7316  -10.3980 C   0  0  0  0  0  0  0  0  0  0  0  0
  -27.4465   -1.7795   -9.5188 C   0  0  0  0  0  0  0  0  0  0  0  0
  -26.1483   -1.8504  -10.0521 C   0  0  0  0  0  0  0  0  0  0  0  0
  -25.9016   -1.7877  -11.4341 C   0  0  0  0  0  0  0  0  0  0  0  0
  -24.5408   -1.6132  -11.8110 N   0  0  0  0  0  0  0  0  0  0  0  0
  -24.0180   -0.3397  -12.0307 C   0  0  0  0  0  0  0  0  0  0  0  0
  -24.6937    0.6821  -12.0939 O   0  0  0  0  0  0  0  0  0  0  0  0
  -23.8990   -2.2633  -11.3811 H   0  0  0  0  0  0  0  0  0  0  0  0
  -22.4991   -0.3188  -12.2630 C   0  0  0  0  0  0  0  0  0  0  0  0
  -22.0083    0.6567  -13.3210 C   0  0  0  0  0  0  0  0  0  0  0  0
  -22.4153    2.0017  -13.2976 C   0  0  0  0  0  0  0  0  0  0  0  0
  -21.9526    2.9125  -14.2570 C   0  0  0  0  0  0  0  0  0  0  0  0
  -21.0495    2.5069  -15.2328 C   0  0  0  0  0  0  0  0  0  0  0  0
  -20.6158    1.1806  -15.2539 C   0  0  0  0  0  0  0  0  0  0  0  0
  -21.0897    0.2633  -14.3067 C   0  0  0  0  0  0  0  0  0  0  0  0
  -28.0782   -2.2560  -14.4832 C   0  0  0  0  0  0  0  0  0  0  0  0
  -26.8869   -1.8724  -13.7258 N   0  0  0  0  0  0  0  0  0  0  0  0
  -25.6425   -1.6964  -14.4404 C   0  0  0  0  0  0  0  0  0  0  0  0
  -28.8553   -3.9691   -7.5942 C   0  0  0  0  0  0  0  0  0  0  0  0
  -30.1823   -4.3044   -7.4192 C   0  0  0  0  0  0  0  0  0  0  0  0
  -30.4972   -5.5922   -7.6812 C   0  0  0  0  0  0  0  0  0  0  0  0
  -29.5998   -6.4757   -8.1289 N   0  0  0  0  0  0  0  0  0  0  0  0
  -28.3386   -6.0749   -8.3262 C   0  0  0  0  0  0  0  0  0  0  0  0
  -27.9262   -4.8453   -8.0186 N   0  0  0  0  0  0  0  0  0  0  0  0
  -27.4027   -6.9644   -8.8470 N   0  0  0  0  0  0  0  0  0  0  0  0
  -26.5644   -6.4908   -9.1505 H   0  0  0  0  0  0  0  0  0  0  0  0
  -27.5817   -8.3058   -9.2159 C   0  0  0  0  0  0  0  0  0  0  0  0
  -26.8751   -8.8872  -10.2767 C   0  0  0  0  0  0  0  0  0  0  0  0
  -27.0888  -10.1966  -10.6664 C   0  0  0  0  0  0  0  0  0  0  0  0
  -28.0087  -10.9598   -9.9722 C   0  0  0  0  0  0  0  0  0  0  0  0
  -28.7246  -10.4455   -8.8806 C   0  0  0  0  0  0  0  0  0  0  0  0
  -28.5277   -9.0956   -8.5488 C   0  0  0  0  0  0  0  0  0  0  0  0
  -29.5639  -11.2637   -8.1507 N   0  0  0  0  0  0  0  0  0  0  0  0
  -30.9711  -11.4291   -8.5283 C   0  0  0  0  0  0  0  0  0  0  0  0
  -31.8542  -11.1115   -7.3152 C   0  0  0  0  0  0  0  0  0  0  0  0
  -31.4947  -11.9167   -6.1866 O   0  0  0  0  0  0  0  0  0  0  0  0
  -30.1272  -11.6661   -5.8110 C   0  0  0  0  0  0  0  0  0  0  0  0
  -29.1467  -11.9929   -6.9522 C   0  0  0  0  0  0  0  0  0  0  0  0
 26 27  1  0  0  0
 27 28  1  0  0  0
 27  9  1  0  0  0
  9 10  1  0  0  0
  9 14  2  0  0  0
 10 11  2  0  0  0
 11 12  1  0  0  0
 12  1  1  0  0  0
 12 13  2  0  0  0
  1  2  1  0  0  0
  1  8  2  0  0  0
  2  3  2  0  0  0
  3  4  1  0  0  0
  3  7  1  0  0  0
  4  5  1  0  0  0
  5  6  2  0  0  0
  6  7  1  0  0  0
  7  8  1  0  0  0
  8 29  1  0  0  0
 29 30  1  0  0  0
 29 34  2  0  0  0
 30 31  2  0  0  0
 31 32  1  0  0  0
 32 33  2  0  0  0
 33 35  1  0  0  0
 33 34  1  0  0  0
 35 37  1  0  0  0
 35 36  1  0  0  0
 37 38  1  0  0  0
 37 42  2  0  0  0
 38 39  2  0  0  0
 39 40  1  0  0  0
 40 41  2  0  0  0
 41 43  1  0  0  0
 41 42  1  0  0  0
 43 44  1  0  0  0
 43 48  1  0  0  0
 44 45  1  0  0  0
 45 46  1  0  0  0
 46 47  1  0  0  0
 47 48  1  0  0  0
 13 14  1  0  0  0
 14 15  1  0  0  0
 15 16  1  0  0  0
 15 18  1  0  0  0
 16 17  2  0  0  0
 16 19  1  0  0  0
 19 20  1  0  0  0
 20 21  1  0  0  0
 20 25  2  0  0  0
 21 22  2  0  0  0
 22 23  1  0  0  0
 23 24  2  0  0  0
 24 25  1  0  0  0
M  END
> <minimizedAffinity>
-9.42487

$$$$
