CHEMBL2046839


 34 37  0  0  0  0  0  0  0  0999 V2000
  -24.8738   -1.5380  -12.0712 C   0  0  0  0  0  0  0  0  0  0  0  0
  -25.1013   -1.1959  -13.4003 C   0  0  0  0  0  0  0  0  0  0  0  0
  -24.1810   -0.3897  -14.1142 C   0  0  0  0  0  0  0  0  0  0  0  0
  -23.0273    0.1070  -13.5104 C   0  0  0  0  0  0  0  0  0  0  0  0
  -22.8269   -0.2321  -12.1582 C   0  0  0  0  0  0  0  0  0  0  0  0
  -23.7338   -1.0466  -11.4502 C   0  0  0  0  0  0  0  0  0  0  0  0
  -22.1370    1.1037  -14.1688 C   0  0  0  0  0  0  0  0  0  0  0  0
  -22.4249    2.4880  -14.1171 C   0  0  0  0  0  0  0  0  0  0  0  0
  -21.4448    3.4719  -14.3734 C   0  0  0  0  0  0  0  0  0  0  0  0
  -20.1264    3.1020  -14.6090 C   0  0  0  0  0  0  0  0  0  0  0  0
  -19.8936    1.7556  -14.7632 C   0  0  0  0  0  0  0  0  0  0  0  0
  -18.6714    1.0483  -15.1124 C   0  0  0  0  0  0  0  0  0  0  0  0
  -17.5503    1.5180  -15.0910 O   0  0  0  0  0  0  0  0  0  0  0  0
  -19.0487   -0.2372  -15.4829 N   0  0  0  0  0  0  0  0  0  0  0  0
  -20.4576   -0.4205  -15.2916 N   0  0  0  0  0  0  0  0  0  0  0  0
  -20.8810    0.7793  -14.6763 C   0  0  0  0  0  0  0  0  0  0  0  0
  -18.7328   -0.4539  -16.4274 H   0  0  0  0  0  0  0  0  0  0  0  0
  -20.7307   -1.2718  -14.8080 H   0  0  0  0  0  0  0  0  0  0  0  0
  -26.0780   -1.0060   -9.4558 O   0  0  0  0  0  0  0  0  0  0  0  0
  -26.2954   -2.0407  -10.0698 C   0  0  0  0  0  0  0  0  0  0  0  0
  -25.7458   -2.3598  -11.2963 N   0  0  0  0  0  0  0  0  0  0  0  0
  -27.1683   -3.0389   -9.6404 N   0  0  0  0  0  0  0  0  0  0  0  0
  -26.0740   -3.1930  -11.7516 H   0  0  0  0  0  0  0  0  0  0  0  0
  -27.1457   -3.9128  -10.1432 H   0  0  0  0  0  0  0  0  0  0  0  0
  -28.0523   -2.9711   -8.5349 C   0  0  0  0  0  0  0  0  0  0  0  0
  -29.0289   -3.9305   -8.2618 C   0  0  0  0  0  0  0  0  0  0  0  0
  -29.8495   -3.8214   -7.1365 C   0  0  0  0  0  0  0  0  0  0  0  0
  -29.6961   -2.7532   -6.2594 C   0  0  0  0  0  0  0  0  0  0  0  0
  -28.7204   -1.7787   -6.5030 C   0  0  0  0  0  0  0  0  0  0  0  0
  -27.9074   -1.8939   -7.6492 C   0  0  0  0  0  0  0  0  0  0  0  0
  -28.5284   -0.6249   -5.5503 C   0  0  0  0  0  0  0  0  0  0  0  0
  -27.2243   -0.2625   -5.3849 F   0  0  0  0  0  0  0  0  0  0  0  0
  -29.1764    0.5000   -5.9629 F   0  0  0  0  0  0  0  0  0  0  0  0
  -29.0026   -0.8933   -4.3042 F   0  0  0  0  0  0  0  0  0  0  0  0
 19 20  2  0  0  0
 20 21  1  0  0  0
 20 22  1  0  0  0
 21  1  1  0  0  0
 21 23  1  0  0  0
  1  2  1  0  0  0
  1  6  2  0  0  0
  2  3  2  0  0  0
  3  4  1  0  0  0
  4  7  1  0  0  0
  4  5  2  0  0  0
  7  8  1  0  0  0
  7 16  2  0  0  0
  8  9  2  0  0  0
  9 10  1  0  0  0
 10 11  2  0  0  0
 11 12  1  0  0  0
 11 16  1  0  0  0
 12 13  2  0  0  0
 12 14  1  0  0  0
 14 15  1  0  0  0
 14 17  1  0  0  0
 15 16  1  0  0  0
 15 18  1  0  0  0
  5  6  1  0  0  0
 22 25  1  0  0  0
 22 24  1  0  0  0
 25 26  1  0  0  0
 25 30  2  0  0  0
 26 27  2  0  0  0
 27 28  1  0  0  0
 28 29  2  0  0  0
 29 31  1  0  0  0
 29 30  1  0  0  0
 31 32  1  0  0  0
 31 33  1  0  0  0
 31 34  1  0  0  0
M  END
> <minimizedAffinity>
-11.11698

$$$$
