CHEMBL2036727


 25 28  0  0  0  0  0  0  0  0999 V2000
  -19.6494    2.3221  -14.8482 C   0  0  0  0  0  0  0  0  0  0  0  0
  -20.4069    3.4170  -14.5091 C   0  0  0  0  0  0  0  0  0  0  0  0
  -21.6796    3.1398  -14.0750 C   0  0  0  0  0  0  0  0  0  0  0  0
  -22.1902    1.8940  -13.9861 N   0  0  0  0  0  0  0  0  0  0  0  0
  -21.4003    0.8939  -14.3956 C   0  0  0  0  0  0  0  0  0  0  0  0
  -20.1426    1.0774  -14.8184 N   0  0  0  0  0  0  0  0  0  0  0  0
  -17.1019    0.9099  -13.5820 C   0  0  0  0  0  0  0  0  0  0  0  0
  -17.1544    1.8188  -14.7049 N   0  0  0  0  0  0  0  0  0  0  0  0
  -18.2511    2.4516  -15.2728 C   0  0  0  0  0  0  0  0  0  0  0  0
  -17.8514    3.2491  -16.2546 N   0  0  0  0  0  0  0  0  0  0  0  0
  -16.4874    3.1396  -16.3167 C   0  0  0  0  0  0  0  0  0  0  0  0
  -15.5765    3.7769  -17.1721 C   0  0  0  0  0  0  0  0  0  0  0  0
  -14.2083    3.5266  -17.0092 C   0  0  0  0  0  0  0  0  0  0  0  0
  -13.7566    2.6535  -16.0185 C   0  0  0  0  0  0  0  0  0  0  0  0
  -14.6525    1.9981  -15.1659 C   0  0  0  0  0  0  0  0  0  0  0  0
  -16.0170    2.2630  -15.3456 C   0  0  0  0  0  0  0  0  0  0  0  0
  -21.8961   -0.4075  -14.3444 N   0  0  0  0  0  0  0  0  0  0  0  0
  -21.2022   -1.0850  -14.6252 H   0  0  0  0  0  0  0  0  0  0  0  0
  -22.9790   -0.8744  -13.5838 C   0  0  0  0  0  0  0  0  0  0  0  0
  -24.2519   -0.9722  -14.1603 C   0  0  0  0  0  0  0  0  0  0  0  0
  -25.3613   -1.3261  -13.3818 C   0  0  0  0  0  0  0  0  0  0  0  0
  -25.2039   -1.5991  -12.0245 C   0  0  0  0  0  0  0  0  0  0  0  0
  -26.5694   -2.0003  -11.0596 Cl  0  0  0  0  0  0  0  0  0  0  0  0
  -23.9455   -1.5337  -11.4399 C   0  0  0  0  0  0  0  0  0  0  0  0
  -22.8465   -1.1709  -12.2179 C   0  0  0  0  0  0  0  0  0  0  0  0
  7  8  1  0  0  0
  8  9  1  0  0  0
  8 16  1  0  0  0
  9  1  1  0  0  0
  9 10  2  0  0  0
  1  2  1  0  0  0
  1  6  2  0  0  0
  2  3  2  0  0  0
  3  4  1  0  0  0
  4  5  2  0  0  0
  5 17  1  0  0  0
  5  6  1  0  0  0
 17 19  1  0  0  0
 17 18  1  0  0  0
 19 20  1  0  0  0
 19 25  2  0  0  0
 20 21  2  0  0  0
 21 22  1  0  0  0
 22 23  1  0  0  0
 22 24  2  0  0  0
 24 25  1  0  0  0
 10 11  1  0  0  0
 11 12  1  0  0  0
 11 16  2  0  0  0
 12 13  2  0  0  0
 13 14  1  0  0  0
 14 15  2  0  0  0
 15 16  1  0  0  0
M  END
> <minimizedAffinity>
-8.84720

$$$$
