CHEMBL3676357


 36 38  0  0  0  0  0  0  0  0999 V2000
  -27.6763   -9.3272   -8.3378 C   0  0  0  0  0  0  0  0  0  0  0  0
  -28.5047   -8.6520   -7.4436 C   0  0  0  0  0  0  0  0  0  0  0  0
  -28.3862   -8.8810   -6.0541 C   0  0  0  0  0  0  0  0  0  0  0  0
  -29.2273   -8.3073   -5.0893 C   0  0  0  0  0  0  0  0  0  0  0  0
  -29.0533   -8.5426   -3.7751 N   0  0  0  0  0  0  0  0  0  0  0  0
  -28.0657   -9.3704   -3.4325 C   0  0  0  0  0  0  0  0  0  0  0  0
  -27.2309   -9.9906   -4.2743 N   0  0  0  0  0  0  0  0  0  0  0  0
  -27.3916   -9.7392   -5.5745 C   0  0  0  0  0  0  0  0  0  0  0  0
  -26.5368  -10.3545   -6.4854 C   0  0  0  0  0  0  0  0  0  0  0  0
  -26.6399  -10.1431   -7.8639 C   0  0  0  0  0  0  0  0  0  0  0  0
  -28.8855  -10.2017  -10.2696 C   0  0  0  0  0  0  0  0  0  0  0  0
  -29.4578   -9.9450  -11.3234 O   0  0  0  0  0  0  0  0  0  0  0  0
  -28.0238   -9.2869   -9.7003 N   0  0  0  0  0  0  0  0  0  0  0  0
  -28.2239   -8.3748  -10.0927 H   0  0  0  0  0  0  0  0  0  0  0  0
  -30.2904  -11.6171   -8.8608 C   0  0  0  0  0  0  0  0  0  0  0  0
  -29.1367  -11.4611   -9.5167 C   0  0  0  0  0  0  0  0  0  0  0  0
  -30.3204   -7.4908   -5.4943 N   0  0  0  0  0  0  0  0  0  0  0  0
  -31.1733   -7.8445   -5.0596 H   0  0  0  0  0  0  0  0  0  0  0  0
  -30.2756   -6.0770   -5.4442 C   0  0  0  0  0  0  0  0  0  0  0  0
  -29.6693   -5.3506   -6.4762 C   0  0  0  0  0  0  0  0  0  0  0  0
  -29.5104   -3.9668   -6.3809 C   0  0  0  0  0  0  0  0  0  0  0  0
  -28.7047   -3.1652   -7.6798 Cl  0  0  0  0  0  0  0  0  0  0  0  0
  -29.9807   -3.2916   -5.2496 C   0  0  0  0  0  0  0  0  0  0  0  0
  -29.7376   -1.5952   -5.0245 Cl  0  0  0  0  0  0  0  0  0  0  0  0
  -30.6504   -3.9922   -4.2437 C   0  0  0  0  0  0  0  0  0  0  0  0
  -30.7998   -5.3714   -4.3535 C   0  0  0  0  0  0  0  0  0  0  0  0
  -31.4227   -6.0418   -3.3716 F   0  0  0  0  0  0  0  0  0  0  0  0
  -25.6959  -10.8001   -8.6169 O   0  0  0  0  0  0  0  0  0  0  0  0
  -25.2926  -12.0756   -8.1094 C   0  0  0  0  0  0  0  0  0  0  0  0
  -23.8206  -12.3797   -8.4314 C   0  0  0  0  0  0  0  0  0  0  0  0
  -23.0473  -12.3036   -7.1827 N   0  0  0  0  0  0  0  0  0  0  0  0
  -22.9668  -13.2439   -6.7886 H   0  0  0  0  0  0  0  0  0  0  0  0
  -21.6953  -11.7789   -7.3949 C   0  0  0  0  0  0  0  0  0  0  0  0
  -21.6822  -10.2883   -7.0632 C   0  0  0  0  0  0  0  0  0  0  0  0
  -22.8203   -9.7298   -6.2452 C   0  0  0  0  0  0  0  0  0  0  0  0
  -20.7838   -9.5497   -7.4750 O   0  0  0  0  0  0  0  0  0  0  0  0
 15 16  2  0  0  0
 16 11  1  0  0  0
 11 12  2  0  0  0
 11 13  1  0  0  0
 13  1  1  0  0  0
 13 14  1  0  0  0
  1  2  1  0  0  0
  1 10  2  0  0  0
  2  3  2  0  0  0
  3  4  1  0  0  0
  3  8  1  0  0  0
  4 17  1  0  0  0
  4  5  2  0  0  0
 17 19  1  0  0  0
 17 18  1  0  0  0
 19 20  1  0  0  0
 19 26  2  0  0  0
 20 21  2  0  0  0
 21 22  1  0  0  0
 21 23  1  0  0  0
 23 24  1  0  0  0
 23 25  2  0  0  0
 25 26  1  0  0  0
 26 27  1  0  0  0
  5  6  1  0  0  0
  6  7  2  0  0  0
  7  8  1  0  0  0
  8  9  2  0  0  0
  9 10  1  0  0  0
 10 28  1  0  0  0
 28 29  1  0  0  0
 29 30  1  0  0  0
 30 31  1  0  0  0
 31 33  1  0  0  0
 31 32  1  0  0  0
 33 34  1  0  0  0
 34 35  1  0  0  0
 34 36  2  0  0  0
M  END
> <minimizedAffinity>
-7.59827

$$$$
