CHEMBL1084302


 43 48  0  0  0  0  0  0  0  0999 V2000
  -14.9597   -5.2730  -12.6084 C   0  0  0  0  0  0  0  0  0  0  0  0
  -16.0588   -4.8374  -11.8391 C   0  0  0  0  0  0  0  0  0  0  0  0
  -16.2697   -3.5229  -11.9163 N   0  0  0  0  0  0  0  0  0  0  0  0
  -15.2743   -3.0731  -12.7370 N   0  0  0  0  0  0  0  0  0  0  0  0
  -15.0639   -1.7318  -13.1606 C   0  0  0  0  0  0  0  0  0  0  0  0
  -15.9238   -0.7620  -12.6436 N   0  0  0  0  0  0  0  0  0  0  0  0
  -14.0738   -1.4947  -14.0496 C   0  0  0  0  0  0  0  0  0  0  0  0
  -13.2622   -2.6823  -14.4523 C   0  0  0  0  0  0  0  0  0  0  0  0
  -13.4336   -3.9072  -14.0668 N   0  0  0  0  0  0  0  0  0  0  0  0
  -14.4696   -4.1219  -13.1974 C   0  0  0  0  0  0  0  0  0  0  0  0
  -16.7799   -1.1835  -12.2733 H   0  0  0  0  0  0  0  0  0  0  0  0
  -16.0830    0.0276  -13.2618 H   0  0  0  0  0  0  0  0  0  0  0  0
  -13.5406   -8.3532  -14.2799 C   0  0  0  0  0  0  0  0  0  0  0  0
  -13.2278   -9.1051  -13.1394 C   0  0  0  0  0  0  0  0  0  0  0  0
  -13.4912   -8.6329  -11.8517 C   0  0  0  0  0  0  0  0  0  0  0  0
  -14.0715   -7.3819  -11.6727 C   0  0  0  0  0  0  0  0  0  0  0  0
  -14.4095   -6.6060  -12.7825 C   0  0  0  0  0  0  0  0  0  0  0  0
  -14.1527   -7.1117  -14.0680 C   0  0  0  0  0  0  0  0  0  0  0  0
  -13.9113  -10.0715  -19.5395 C   0  0  0  0  0  0  0  0  0  0  0  0
  -13.2394   -9.6629  -18.3110 N   0  0  0  0  0  0  0  0  0  0  0  0
  -13.6396   -8.2906  -17.9280 C   0  0  0  0  0  0  0  0  0  0  0  0
  -12.9454   -7.8138  -16.6318 C   0  0  0  0  0  0  0  0  0  0  0  0
  -13.2008   -8.7705  -15.5492 N   0  0  0  0  0  0  0  0  0  0  0  0
  -12.8889  -10.1725  -15.8695 C   0  0  0  0  0  0  0  0  0  0  0  0
  -13.5701  -10.5827  -17.1965 C   0  0  0  0  0  0  0  0  0  0  0  0
  -13.7600   -0.1866  -14.6224 C   0  0  0  0  0  0  0  0  0  0  0  0
  -13.3293    0.8558  -13.8037 C   0  0  0  0  0  0  0  0  0  0  0  0
  -12.9611    2.0819  -14.3643 C   0  0  0  0  0  0  0  0  0  0  0  0
  -13.0198    2.2929  -15.7463 C   0  0  0  0  0  0  0  0  0  0  0  0
  -13.4759    1.2468  -16.5588 C   0  0  0  0  0  0  0  0  0  0  0  0
  -13.8454    0.0178  -16.0023 C   0  0  0  0  0  0  0  0  0  0  0  0
  -12.6360    3.5000  -16.3780 N   0  0  0  0  0  0  0  0  0  0  0  0
  -13.4725    4.4891  -16.8490 C   0  0  0  0  0  0  0  0  0  0  0  0
  -14.6975    4.4223  -16.7753 O   0  0  0  0  0  0  0  0  0  0  0  0
  -12.8647    5.6014  -17.4402 N   0  0  0  0  0  0  0  0  0  0  0  0
  -11.4313    5.8220  -17.6263 C   0  0  0  0  0  0  0  0  0  0  0  0
  -11.6457    3.6129  -16.5111 H   0  0  0  0  0  0  0  0  0  0  0  0
  -13.7874    6.5518  -18.1095 C   0  0  0  0  0  0  0  0  0  0  0  0
  -14.1565    6.0466  -19.5165 C   0  0  0  0  0  0  0  0  0  0  0  0
  -15.1518    6.9749  -20.2083 C   0  0  0  0  0  0  0  0  0  0  0  0
  -14.6498    8.4149  -20.2385 C   0  0  0  0  0  0  0  0  0  0  0  0
  -14.3071    8.9176  -18.8382 C   0  0  0  0  0  0  0  0  0  0  0  0
  -13.2881    8.0056  -18.1527 C   0  0  0  0  0  0  0  0  0  0  0  0
 19 20  1  0  0  0
 20 21  1  0  0  0
 20 25  1  0  0  0
 21 22  1  0  0  0
 22 23  1  0  0  0
 23 13  1  0  0  0
 23 24  1  0  0  0
 13 14  1  0  0  0
 13 18  2  0  0  0
 14 15  2  0  0  0
 15 16  1  0  0  0
 16 17  2  0  0  0
 17  1  1  0  0  0
 17 18  1  0  0  0
  1  2  1  0  0  0
  1 10  2  0  0  0
  2  3  2  0  0  0
  3  4  1  0  0  0
  4  5  1  0  0  0
  4 10  1  0  0  0
  5  6  1  0  0  0
  5  7  2  0  0  0
  6 11  1  0  0  0
  6 12  1  0  0  0
  7 26  1  0  0  0
  7  8  1  0  0  0
 26 27  1  0  0  0
 26 31  2  0  0  0
 27 28  2  0  0  0
 28 29  1  0  0  0
 29 32  1  0  0  0
 29 30  2  0  0  0
 32 33  1  0  0  0
 32 37  1  0  0  0
 33 34  2  0  0  0
 33 35  1  0  0  0
 35 36  1  0  0  0
 35 38  1  0  0  0
 38 39  1  0  0  0
 38 43  1  0  0  0
 39 40  1  0  0  0
 40 41  1  0  0  0
 41 42  1  0  0  0
 42 43  1  0  0  0
 30 31  1  0  0  0
  8  9  2  0  0  0
  9 10  1  0  0  0
 24 25  1  0  0  0
M  END
> <minimizedAffinity>
-7.61718

$$$$
