CHEMBL4099682


 28 31  0  0  0  0  0  0  0  0999 V2000
  -29.3739   -8.1525   -5.3586 C   0  0  0  0  0  0  0  0  0  0  0  0
  -28.1410   -8.3967   -4.8215 N   0  0  0  0  0  0  0  0  0  0  0  0
  -27.2565   -9.2829   -5.3763 C   0  0  0  0  0  0  0  0  0  0  0  0
  -25.9266   -9.5146   -4.7400 C   0  0  0  0  0  0  0  0  0  0  0  0
  -27.5836   -9.9546   -6.5157 N   0  0  0  0  0  0  0  0  0  0  0  0
  -28.7956   -9.7265   -7.0715 C   0  0  0  0  0  0  0  0  0  0  0  0
  -29.3226  -10.2488   -8.2301 C   0  0  0  0  0  0  0  0  0  0  0  0
  -30.5752   -9.6697   -8.3616 C   0  0  0  0  0  0  0  0  0  0  0  0
  -30.8164   -8.8302   -7.3253 N   0  0  0  0  0  0  0  0  0  0  0  0
  -32.0528   -8.0615   -7.1792 C   0  0  0  0  0  0  0  0  0  0  0  0
  -29.7101   -8.8604   -6.5343 C   0  0  0  0  0  0  0  0  0  0  0  0
  -30.2651   -7.2182   -4.7487 N   0  0  0  0  0  0  0  0  0  0  0  0
  -31.0435   -7.5911   -4.2021 H   0  0  0  0  0  0  0  0  0  0  0  0
  -30.0073   -2.9894   -5.2015 C   0  0  0  0  0  0  0  0  0  0  0  0
  -30.5438   -3.5244   -4.0147 C   0  0  0  0  0  0  0  0  0  0  0  0
  -30.6561   -4.9094   -3.8473 C   0  0  0  0  0  0  0  0  0  0  0  0
  -30.2361   -5.7905   -4.8669 C   0  0  0  0  0  0  0  0  0  0  0  0
  -29.6987   -5.2399   -6.0445 C   0  0  0  0  0  0  0  0  0  0  0  0
  -29.5891   -3.8595   -6.2092 C   0  0  0  0  0  0  0  0  0  0  0  0
  -28.8950   -0.8475   -4.8737 C   0  0  0  0  0  0  0  0  0  0  0  0
  -29.8753   -1.6543   -5.4108 O   0  0  0  0  0  0  0  0  0  0  0  0
  -28.6842  -11.2199   -9.1786 C   0  0  0  0  0  0  0  0  0  0  0  0
  -28.2716  -10.5392  -10.4602 C   0  0  0  0  0  0  0  0  0  0  0  0
  -27.0767   -9.7967  -10.5135 C   0  0  0  0  0  0  0  0  0  0  0  0
  -26.6838   -9.1746  -11.7021 C   0  0  0  0  0  0  0  0  0  0  0  0
  -27.4743   -9.2890  -12.8474 C   0  0  0  0  0  0  0  0  0  0  0  0
  -28.6615  -10.0259  -12.8064 C   0  0  0  0  0  0  0  0  0  0  0  0
  -29.0605  -10.6519  -11.6186 C   0  0  0  0  0  0  0  0  0  0  0  0
 20 21  1  0  0  0
 21 14  1  0  0  0
 14 15  1  0  0  0
 14 19  2  0  0  0
 15 16  2  0  0  0
 16 17  1  0  0  0
 17 12  1  0  0  0
 17 18  2  0  0  0
 12  1  1  0  0  0
 12 13  1  0  0  0
  1  2  1  0  0  0
  1 11  2  0  0  0
  2  3  2  0  0  0
  3  4  1  0  0  0
  3  5  1  0  0  0
  5  6  2  0  0  0
  6  7  1  0  0  0
  6 11  1  0  0  0
  7 22  1  0  0  0
  7  8  2  0  0  0
 22 23  1  0  0  0
 23 24  1  0  0  0
 23 28  2  0  0  0
 24 25  2  0  0  0
 25 26  1  0  0  0
 26 27  2  0  0  0
 27 28  1  0  0  0
  8  9  1  0  0  0
  9 10  1  0  0  0
  9 11  1  0  0  0
 18 19  1  0  0  0
M  END
> <minimizedAffinity>
-7.99146

$$$$
