CHEMBL270070


 25 27  0  0  0  0  0  0  0  0999 V2000
  -29.6934   -6.5732   -4.4310 C   0  0  0  0  0  0  0  0  0  0  0  0
  -30.5466   -5.8950   -5.2965 C   0  0  0  0  0  0  0  0  0  0  0  0
  -30.2691   -4.5745   -5.6808 C   0  0  0  0  0  0  0  0  0  0  0  0
  -29.1512   -3.8809   -5.1876 C   0  0  0  0  0  0  0  0  0  0  0  0
  -28.3786   -4.5452   -4.2203 C   0  0  0  0  0  0  0  0  0  0  0  0
  -28.6204   -5.8770   -3.8725 C   0  0  0  0  0  0  0  0  0  0  0  0
  -28.8209   -2.5146   -5.6513 C   0  0  0  0  0  0  0  0  0  0  0  0
  -29.0845   -1.3785   -4.8441 C   0  0  0  0  0  0  0  0  0  0  0  0
  -28.7418   -0.0810   -5.2342 C   0  0  0  0  0  0  0  0  0  0  0  0
  -28.0876    0.1499   -6.4407 C   0  0  0  0  0  0  0  0  0  0  0  0
  -27.8591   -0.9670   -7.2381 C   0  0  0  0  0  0  0  0  0  0  0  0
  -27.2500   -0.9368   -8.4511 O   0  0  0  0  0  0  0  0  0  0  0  0
  -27.2444   -2.2017   -8.9967 N   0  0  0  0  0  0  0  0  0  0  0  0
  -27.8678   -2.9829   -8.1119 C   0  0  0  0  0  0  0  0  0  0  0  0
  -28.1462   -4.2776   -8.3661 N   0  0  0  0  0  0  0  0  0  0  0  0
  -28.2246   -2.2693   -6.9222 C   0  0  0  0  0  0  0  0  0  0  0  0
  -28.0200   -4.5783   -9.3272 H   0  0  0  0  0  0  0  0  0  0  0  0
  -28.9669   -4.6930   -7.9335 H   0  0  0  0  0  0  0  0  0  0  0  0
  -29.4675  -10.1658   -4.0041 N   0  0  0  0  0  0  0  0  0  0  0  0
  -29.0976   -8.9826   -4.5786 C   0  0  0  0  0  0  0  0  0  0  0  0
  -28.1899   -8.9649   -5.3929 O   0  0  0  0  0  0  0  0  0  0  0  0
  -29.8344   -7.9328   -4.0957 N   0  0  0  0  0  0  0  0  0  0  0  0
  -29.0034  -10.9635   -4.4251 H   0  0  0  0  0  0  0  0  0  0  0  0
  -30.4427  -10.3098   -3.7883 H   0  0  0  0  0  0  0  0  0  0  0  0
  -30.4249   -8.1458   -3.3047 H   0  0  0  0  0  0  0  0  0  0  0  0
 19 20  1  0  0  0
 19 23  1  0  0  0
 19 24  1  0  0  0
 20 21  2  0  0  0
 20 22  1  0  0  0
 22  1  1  0  0  0
 22 25  1  0  0  0
  1  2  1  0  0  0
  1  6  2  0  0  0
  2  3  2  0  0  0
  3  4  1  0  0  0
  4  7  1  0  0  0
  4  5  2  0  0  0
  7  8  1  0  0  0
  7 16  2  0  0  0
  8  9  2  0  0  0
  9 10  1  0  0  0
 10 11  2  0  0  0
 11 12  1  0  0  0
 11 16  1  0  0  0
 12 13  1  0  0  0
 13 14  2  0  0  0
 14 15  1  0  0  0
 14 16  1  0  0  0
 15 17  1  0  0  0
 15 18  1  0  0  0
  5  6  1  0  0  0
M  END
> <minimizedAffinity>
-8.10897

$$$$
