CHEMBL241517


 32 35  0  0  0  0  0  0  0  0999 V2000
  -29.0818   -4.4035   -3.1129 N   0  0  0  0  0  0  0  0  0  0  0  0
  -29.0698   -5.3280   -4.1499 C   0  0  0  0  0  0  0  0  0  0  0  0
  -29.2711   -6.5913   -3.7393 N   0  0  0  0  0  0  0  0  0  0  0  0
  -29.3473   -7.5860   -4.6396 C   0  0  0  0  0  0  0  0  0  0  0  0
  -29.2125   -7.4552   -6.0183 C   0  0  0  0  0  0  0  0  0  0  0  0
  -28.9384   -6.1199   -6.4316 C   0  0  0  0  0  0  0  0  0  0  0  0
  -28.5781   -5.5854   -8.0417 S   0  0  0  0  0  0  0  0  0  0  0  0
  -28.5124   -3.9642   -7.5996 C   0  0  0  0  0  0  0  0  0  0  0  0
  -28.6436   -3.7642   -6.2412 C   0  0  0  0  0  0  0  0  0  0  0  0
  -28.8842   -5.0318   -5.5298 C   0  0  0  0  0  0  0  0  0  0  0  0
  -29.3922   -4.8763   -2.2689 H   0  0  0  0  0  0  0  0  0  0  0  0
  -29.5919   -3.5585   -3.3325 H   0  0  0  0  0  0  0  0  0  0  0  0
  -28.4995   -2.3917   -5.7295 C   0  0  0  0  0  0  0  0  0  0  0  0
  -27.2877   -1.9487   -5.1855 C   0  0  0  0  0  0  0  0  0  0  0  0
  -27.1570   -0.6474   -4.6923 C   0  0  0  0  0  0  0  0  0  0  0  0
  -28.2131    0.2477   -4.8171 C   0  0  0  0  0  0  0  0  0  0  0  0
  -28.0518    1.5013   -4.3710 F   0  0  0  0  0  0  0  0  0  0  0  0
  -29.4050   -0.1504   -5.4094 C   0  0  0  0  0  0  0  0  0  0  0  0
  -30.6894    0.9720   -5.6417 Cl  0  0  0  0  0  0  0  0  0  0  0  0
  -29.5588   -1.4700   -5.8416 C   0  0  0  0  0  0  0  0  0  0  0  0
  -29.3052   -8.6221   -6.9301 C   0  0  0  0  0  0  0  0  0  0  0  0
  -30.2427   -9.6578   -6.7439 C   0  0  0  0  0  0  0  0  0  0  0  0
  -30.3953  -10.7054   -7.6599 C   0  0  0  0  0  0  0  0  0  0  0  0
  -29.5519  -10.7934   -8.7572 C   0  0  0  0  0  0  0  0  0  0  0  0
  -28.5673   -9.8233   -8.9273 C   0  0  0  0  0  0  0  0  0  0  0  0
  -28.4442   -8.7483   -8.0351 C   0  0  0  0  0  0  0  0  0  0  0  0
  -27.4570   -9.9500  -10.2938 S   0  0  0  0  0  0  0  0  0  0  0  0
  -26.9150   -8.3697  -10.4094 N   0  0  0  0  0  0  0  0  0  0  0  0
  -26.3132  -10.7455   -9.9027 O   0  0  0  0  0  0  0  0  0  0  0  0
  -28.2072  -10.2080  -11.4999 O   0  0  0  0  0  0  0  0  0  0  0  0
  -25.9143   -8.3241  -10.2322 H   0  0  0  0  0  0  0  0  0  0  0  0
  -27.2125   -7.9556  -11.2968 H   0  0  0  0  0  0  0  0  0  0  0  0
  1  2  1  0  0  0
  1 11  1  0  0  0
  1 12  1  0  0  0
  2  3  1  0  0  0
  2 10  2  0  0  0
  3  4  2  0  0  0
  4  5  1  0  0  0
  5 21  1  0  0  0
  5  6  2  0  0  0
 21 22  1  0  0  0
 21 26  2  0  0  0
 22 23  2  0  0  0
 23 24  1  0  0  0
 24 25  2  0  0  0
 25 27  1  0  0  0
 25 26  1  0  0  0
 27 28  1  0  0  0
 27 29  2  0  0  0
 27 30  2  0  0  0
 28 31  1  0  0  0
 28 32  1  0  0  0
  6  7  1  0  0  0
  6 10  1  0  0  0
  7  8  1  0  0  0
  8  9  2  0  0  0
  9 13  1  0  0  0
  9 10  1  0  0  0
 13 14  1  0  0  0
 13 20  2  0  0  0
 14 15  2  0  0  0
 15 16  1  0  0  0
 16 17  1  0  0  0
 16 18  2  0  0  0
 18 19  1  0  0  0
 18 20  1  0  0  0
M  END
> <minimizedAffinity>
-9.98454

$$$$
