CHEMBL3975791


 37 40  0  0  0  0  0  0  0  0999 V2000
  -13.0207   -5.0420  -12.9228 N   0  0  0  0  0  0  0  0  0  0  0  0
  -12.8606   -3.6285  -13.3278 C   0  0  0  0  0  0  0  0  0  0  0  0
  -11.6471   -3.0872  -12.9106 C   0  0  0  0  0  0  0  0  0  0  0  0
  -11.4101   -1.7630  -12.8566 C   0  0  0  0  0  0  0  0  0  0  0  0
  -12.3327   -0.8717  -13.2925 C   0  0  0  0  0  0  0  0  0  0  0  0
  -12.0414    0.4002  -13.0195 N   0  0  0  0  0  0  0  0  0  0  0  0
  -12.7742    1.3988  -13.4512 C   0  0  0  0  0  0  0  0  0  0  0  0
  -13.8225    1.1807  -14.3451 C   0  0  0  0  0  0  0  0  0  0  0  0
  -14.2476   -0.1594  -14.5360 N   0  0  0  0  0  0  0  0  0  0  0  0
  -13.5181   -1.2267  -13.9562 C   0  0  0  0  0  0  0  0  0  0  0  0
  -13.8264   -2.6890  -13.9599 C   0  0  0  0  0  0  0  0  0  0  0  0
  -14.1457    2.4709  -15.1448 C   0  0  0  0  0  0  0  0  0  0  0  0
  -13.3570    3.6475  -15.0323 C   0  0  0  0  0  0  0  0  0  0  0  0
  -13.6940    4.5283  -15.9464 N   0  0  0  0  0  0  0  0  0  0  0  0
  -14.6633    4.0291  -16.6583 N   0  0  0  0  0  0  0  0  0  0  0  0
  -15.1581    4.7316  -17.8438 C   0  0  0  0  0  0  0  0  0  0  0  0
  -15.0180    2.7953  -16.1966 C   0  0  0  0  0  0  0  0  0  0  0  0
  -13.7457   -7.2899  -15.9261 C   0  0  0  0  0  0  0  0  0  0  0  0
  -13.3112   -8.5249  -15.4097 C   0  0  0  0  0  0  0  0  0  0  0  0
  -12.8375   -8.6269  -14.1017 C   0  0  0  0  0  0  0  0  0  0  0  0
  -12.7889   -7.4826  -13.3084 C   0  0  0  0  0  0  0  0  0  0  0  0
  -13.2331   -6.2127  -13.7642 C   0  0  0  0  0  0  0  0  0  0  0  0
  -13.7229   -6.1357  -15.0934 C   0  0  0  0  0  0  0  0  0  0  0  0
  -14.2012   -7.6854  -19.2160 H   0  0  0  0  0  0  0  0  0  0  0  0
  -13.7535   -8.0234  -18.2599 C   0  0  0  0  0  0  0  0  0  0  0  0
  -14.0855   -9.0668  -18.0651 H   0  0  0  0  0  0  0  0  0  0  0  0
  -12.6459   -8.0099  -18.3822 H   0  0  0  0  0  0  0  0  0  0  0  0
  -14.1557   -7.1881  -17.2236 O   0  0  0  0  0  0  0  0  0  0  0  0
  -12.4054   -9.8048  -13.5728 O   0  0  0  0  0  0  0  0  0  0  0  0
  -11.9780   -9.9977  -12.2729 C   0  0  0  0  0  0  0  0  0  0  0  0
  -12.8925   -5.3147  -11.4467 C   0  0  0  0  0  0  0  0  0  0  0  0
  -14.1656   -4.9245  -10.6188 C   0  0  0  0  0  0  0  0  0  0  0  0
  -15.3898   -5.6458  -11.0656 N   0  0  0  0  0  0  0  0  0  0  0  0
  -15.7777   -6.1719  -10.2483 H   0  0  0  0  0  0  0  0  0  0  0  0
  -16.4639   -4.7383  -11.5636 C   0  0  0  0  0  0  0  0  0  0  0  0
  -16.1560   -3.2558  -11.2916 C   0  0  0  0  0  0  0  0  0  0  0  0
  -16.6824   -4.9032  -13.0845 C   0  0  0  0  0  0  0  0  0  0  0  0
 24 25  1  0  0  0
 25 26  1  0  0  0
 25 27  1  0  0  0
 25 28  1  0  0  0
 28 18  1  0  0  0
 18 19  1  0  0  0
 18 23  2  0  0  0
 19 20  2  0  0  0
 20 29  1  0  0  0
 20 21  1  0  0  0
 29 30  1  0  0  0
 21 22  2  0  0  0
 22  1  1  0  0  0
 22 23  1  0  0  0
  1 31  1  0  0  0
  1  2  1  0  0  0
 31 32  1  0  0  0
 32 33  1  0  0  0
 33 35  1  0  0  0
 33 34  1  0  0  0
 35 36  1  0  0  0
 35 37  1  0  0  0
  2  3  1  0  0  0
  2 11  2  0  0  0
  3  4  2  0  0  0
  4  5  1  0  0  0
  5  6  1  0  0  0
  5 10  2  0  0  0
  6  7  2  0  0  0
  7  8  1  0  0  0
  8 12  1  0  0  0
  8  9  2  0  0  0
 12 13  1  0  0  0
 12 17  2  0  0  0
 13 14  2  0  0  0
 14 15  1  0  0  0
 15 16  1  0  0  0
 15 17  1  0  0  0
  9 10  1  0  0  0
 10 11  1  0  0  0
M  ISO 1  24   2
M  ISO 1  26   2
M  ISO 1  27   2
M  END
> <minimizedAffinity>
-6.77185

$$$$
