CHEMBL3808854


 30 32  0  0  0  0  0  0  0  0999 V2000
  -30.7706   -3.9406   -3.3261 N   0  0  0  0  0  0  0  0  0  0  0  0
  -30.8357   -5.2074   -3.8269 C   0  0  0  0  0  0  0  0  0  0  0  0
  -31.6797   -5.9589   -3.3415 O   0  0  0  0  0  0  0  0  0  0  0  0
  -29.9378   -5.5272   -4.8125 N   0  0  0  0  0  0  0  0  0  0  0  0
  -31.4385   -3.7622   -2.5911 H   0  0  0  0  0  0  0  0  0  0  0  0
  -29.1992   -4.8496   -4.9610 H   0  0  0  0  0  0  0  0  0  0  0  0
  -29.8531   -6.7364   -5.5169 C   0  0  0  0  0  0  0  0  0  0  0  0
  -29.1096   -7.8169   -5.0554 C   0  0  0  0  0  0  0  0  0  0  0  0
  -28.9990   -8.9745   -5.8209 C   0  0  0  0  0  0  0  0  0  0  0  0
  -29.6312   -9.0756   -7.0641 C   0  0  0  0  0  0  0  0  0  0  0  0
  -30.4256   -8.0113   -7.5042 C   0  0  0  0  0  0  0  0  0  0  0  0
  -30.5462   -6.8508   -6.7275 C   0  0  0  0  0  0  0  0  0  0  0  0
  -29.4261  -10.2769   -7.8616 C   0  0  0  0  0  0  0  0  0  0  0  0
  -28.4550  -10.5900   -8.7940 C   0  0  0  0  0  0  0  0  0  0  0  0
  -28.8276  -11.8349   -9.3251 C   0  0  0  0  0  0  0  0  0  0  0  0
  -28.1439  -12.4655  -10.2831 N   0  0  0  0  0  0  0  0  0  0  0  0
  -29.9392  -12.3019   -8.7715 N   0  0  0  0  0  0  0  0  0  0  0  0
  -30.2971  -11.3350   -7.9088 N   0  0  0  0  0  0  0  0  0  0  0  0
  -27.1879  -12.2181  -10.4990 H   0  0  0  0  0  0  0  0  0  0  0  0
  -28.3864  -13.4326  -10.4638 H   0  0  0  0  0  0  0  0  0  0  0  0
  -31.1687  -11.4423   -7.4039 H   0  0  0  0  0  0  0  0  0  0  0  0
  -29.2125   -1.1022   -4.7382 C   0  0  0  0  0  0  0  0  0  0  0  0
  -30.3300   -1.8957   -4.6193 C   0  0  0  0  0  0  0  0  0  0  0  0
  -29.9490   -2.9152   -3.7229 C   0  0  0  0  0  0  0  0  0  0  0  0
  -28.6891   -2.7390   -3.3110 N   0  0  0  0  0  0  0  0  0  0  0  0
  -28.2320   -1.6071   -3.9418 O   0  0  0  0  0  0  0  0  0  0  0  0
  -28.2278   -0.2211   -6.8205 C   0  0  0  0  0  0  0  0  0  0  0  0
  -28.8950    0.1566   -5.4881 C   0  0  0  0  0  0  0  0  0  0  0  0
  -27.9378    1.0342   -4.6624 C   0  0  0  0  0  0  0  0  0  0  0  0
  -30.1760    0.9638   -5.7693 C   0  0  0  0  0  0  0  0  0  0  0  0
 27 28  1  0  0  0
 28 29  1  0  0  0
 28 30  1  0  0  0
 28 22  1  0  0  0
 22 23  2  0  0  0
 22 26  1  0  0  0
 23 24  1  0  0  0
 24  1  1  0  0  0
 24 25  2  0  0  0
  1  2  1  0  0  0
  1  5  1  0  0  0
  2  3  2  0  0  0
  2  4  1  0  0  0
  4  7  1  0  0  0
  4  6  1  0  0  0
  7  8  1  0  0  0
  7 12  2  0  0  0
  8  9  2  0  0  0
  9 10  1  0  0  0
 10 13  1  0  0  0
 10 11  2  0  0  0
 13 14  2  0  0  0
 13 18  1  0  0  0
 14 15  1  0  0  0
 15 16  1  0  0  0
 15 17  2  0  0  0
 16 19  1  0  0  0
 16 20  1  0  0  0
 17 18  1  0  0  0
 18 21  1  0  0  0
 11 12  1  0  0  0
 25 26  1  0  0  0
M  END
> <minimizedAffinity>
-7.88232

$$$$
