CHEMBL3221269


 37 40  0  0  0  0  0  0  0  0999 V2000
  -15.1316   -3.0188  -12.5913 C   0  0  0  0  0  0  0  0  0  0  0  0
  -15.9823   -3.2642  -11.5580 N   0  0  0  0  0  0  0  0  0  0  0  0
  -16.6174   -4.4496  -11.4246 C   0  0  0  0  0  0  0  0  0  0  0  0
  -16.4083   -5.4312  -12.3353 N   0  0  0  0  0  0  0  0  0  0  0  0
  -15.5655   -5.2507  -13.3764 C   0  0  0  0  0  0  0  0  0  0  0  0
  -15.3480   -6.2828  -14.2781 C   0  0  0  0  0  0  0  0  0  0  0  0
  -14.4509   -6.1781  -15.3911 C   0  0  0  0  0  0  0  0  0  0  0  0
  -13.7734   -4.9101  -15.5354 C   0  0  0  0  0  0  0  0  0  0  0  0
  -14.0210   -3.8883  -14.6128 C   0  0  0  0  0  0  0  0  0  0  0  0
  -14.9001   -4.0248  -13.5439 C   0  0  0  0  0  0  0  0  0  0  0  0
  -14.5326   -1.7288  -12.7039 N   0  0  0  0  0  0  0  0  0  0  0  0
  -13.5736   -1.5742  -12.3622 H   0  0  0  0  0  0  0  0  0  0  0  0
  -16.5542    1.4592  -14.6015 C   0  0  0  0  0  0  0  0  0  0  0  0
  -16.8559    1.1184  -13.2747 C   0  0  0  0  0  0  0  0  0  0  0  0
  -16.1816    0.0718  -12.6454 C   0  0  0  0  0  0  0  0  0  0  0  0
  -15.1891   -0.6376  -13.3336 C   0  0  0  0  0  0  0  0  0  0  0  0
  -14.8898   -0.2911  -14.6628 C   0  0  0  0  0  0  0  0  0  0  0  0
  -15.5635    0.7502  -15.3021 C   0  0  0  0  0  0  0  0  0  0  0  0
  -15.2479    1.0677  -16.7377 C   0  0  0  0  0  0  0  0  0  0  0  0
  -18.6330    2.4370  -15.3077 C   0  0  0  0  0  0  0  0  0  0  0  0
  -19.2451    3.3426  -15.8545 O   0  0  0  0  0  0  0  0  0  0  0  0
  -17.2798    2.4906  -15.2407 N   0  0  0  0  0  0  0  0  0  0  0  0
  -16.7672    3.2741  -15.6738 H   0  0  0  0  0  0  0  0  0  0  0  0
  -19.2929    1.3596  -14.7984 O   0  0  0  0  0  0  0  0  0  0  0  0
  -21.5103    0.4853  -14.5996 C   0  0  0  0  0  0  0  0  0  0  0  0
  -20.4475    1.4216  -14.0424 C   0  0  0  0  0  0  0  0  0  0  0  0
  -12.8714   -4.5081  -16.4713 O   0  0  0  0  0  0  0  0  0  0  0  0
  -12.8426   -3.5832  -17.4755 C   0  0  0  0  0  0  0  0  0  0  0  0
  -14.2864   -7.2733  -16.2283 O   0  0  0  0  0  0  0  0  0  0  0  0
  -13.2039   -8.1470  -16.0062 C   0  0  0  0  0  0  0  0  0  0  0  0
  -13.2585   -9.2221  -14.8951 C   0  0  0  0  0  0  0  0  0  0  0  0
  -12.1595   -8.9937  -13.8932 N   0  0  0  0  0  0  0  0  0  0  0  0
  -11.9025   -7.5543  -13.6067 C   0  0  0  0  0  0  0  0  0  0  0  0
  -10.7112   -7.3720  -12.6567 C   0  0  0  0  0  0  0  0  0  0  0  0
  -10.9816   -8.0878  -11.3423 C   0  0  0  0  0  0  0  0  0  0  0  0
  -11.2440   -9.5647  -11.6335 C   0  0  0  0  0  0  0  0  0  0  0  0
  -12.4242   -9.7175  -12.6241 C   0  0  0  0  0  0  0  0  0  0  0  0
 25 26  1  0  0  0
 26 24  1  0  0  0
 24 20  1  0  0  0
 20 21  2  0  0  0
 20 22  1  0  0  0
 22 13  1  0  0  0
 22 23  1  0  0  0
 13 14  1  0  0  0
 13 18  2  0  0  0
 14 15  2  0  0  0
 15 16  1  0  0  0
 16 11  1  0  0  0
 16 17  2  0  0  0
 11  1  1  0  0  0
 11 12  1  0  0  0
  1  2  1  0  0  0
  1 10  2  0  0  0
  2  3  2  0  0  0
  3  4  1  0  0  0
  4  5  2  0  0  0
  5  6  1  0  0  0
  5 10  1  0  0  0
  6  7  2  0  0  0
  7 29  1  0  0  0
  7  8  1  0  0  0
 29 30  1  0  0  0
 30 31  1  0  0  0
 31 32  1  0  0  0
 32 33  1  0  0  0
 32 37  1  0  0  0
 33 34  1  0  0  0
 34 35  1  0  0  0
 35 36  1  0  0  0
 36 37  1  0  0  0
  8 27  1  0  0  0
  8  9  2  0  0  0
 27 28  1  0  0  0
  9 10  1  0  0  0
 17 18  1  0  0  0
 18 19  1  0  0  0
M  END
> <minimizedAffinity>
-7.13301

$$$$
