CHEMBL2386790


 42 46  0  0  0  0  0  0  0  0999 V2000
  -22.6773   -0.1344  -13.5013 C   0  0  0  0  0  0  0  0  0  0  0  0
  -22.9390   -0.4946  -12.1532 C   0  0  0  0  0  0  0  0  0  0  0  0
  -24.2513   -0.8876  -12.1061 C   0  0  0  0  0  0  0  0  0  0  0  0
  -24.6938   -0.7798  -13.3957 N   0  0  0  0  0  0  0  0  0  0  0  0
  -23.7775   -0.3080  -14.2486 N   0  0  0  0  0  0  0  0  0  0  0  0
  -25.6086   -1.0018  -13.7698 H   0  0  0  0  0  0  0  0  0  0  0  0
  -19.0424    1.3391  -15.2097 C   0  0  0  0  0  0  0  0  0  0  0  0
  -19.4664    0.0407  -15.4861 C   0  0  0  0  0  0  0  0  0  0  0  0
  -20.6386   -0.4528  -14.9095 C   0  0  0  0  0  0  0  0  0  0  0  0
  -21.4079    0.3519  -14.0627 C   0  0  0  0  0  0  0  0  0  0  0  0
  -20.9592    1.6524  -13.7728 C   0  0  0  0  0  0  0  0  0  0  0  0
  -19.7727    2.1547  -14.3348 C   0  0  0  0  0  0  0  0  0  0  0  0
  -19.3718    3.5751  -14.0562 C   0  0  0  0  0  0  0  0  0  0  0  0
  -15.5350    1.9992  -15.9492 N   0  0  0  0  0  0  0  0  0  0  0  0
  -16.6030    1.3075  -15.4452 C   0  0  0  0  0  0  0  0  0  0  0  0
  -16.3946    0.3123  -14.7531 O   0  0  0  0  0  0  0  0  0  0  0  0
  -17.8394    1.8107  -15.7447 N   0  0  0  0  0  0  0  0  0  0  0  0
  -14.6374    1.6466  -15.6502 H   0  0  0  0  0  0  0  0  0  0  0  0
  -17.8798    2.3318  -16.6147 H   0  0  0  0  0  0  0  0  0  0  0  0
  -14.7943    5.6795  -19.2143 C   0  0  0  0  0  0  0  0  0  0  0  0
  -15.1893    4.7458  -18.1503 C   0  0  0  0  0  0  0  0  0  0  0  0
  -14.9490    3.4197  -17.8869 C   0  0  0  0  0  0  0  0  0  0  0  0
  -15.5801    3.1897  -16.6423 C   0  0  0  0  0  0  0  0  0  0  0  0
  -16.2047    4.2942  -16.2172 N   0  0  0  0  0  0  0  0  0  0  0  0
  -15.9565    5.2651  -17.1616 O   0  0  0  0  0  0  0  0  0  0  0  0
  -24.9941   -1.3166  -11.0141 N   0  0  0  0  0  0  0  0  0  0  0  0
  -26.4322   -1.2944  -10.9916 C   0  0  0  0  0  0  0  0  0  0  0  0
  -27.0846   -0.8811  -11.9360 O   0  0  0  0  0  0  0  0  0  0  0  0
  -24.4936   -1.6198  -10.1873 H   0  0  0  0  0  0  0  0  0  0  0  0
  -27.0923   -1.7359   -9.7457 C   0  0  0  0  0  0  0  0  0  0  0  0
  -27.4479   -3.0806   -9.6496 C   0  0  0  0  0  0  0  0  0  0  0  0
  -28.0911   -3.5474   -8.5049 C   0  0  0  0  0  0  0  0  0  0  0  0
  -28.3765   -2.7044   -7.4193 C   0  0  0  0  0  0  0  0  0  0  0  0
  -27.9734   -1.3657   -7.5235 C   0  0  0  0  0  0  0  0  0  0  0  0
  -27.3421   -0.8734   -8.6765 C   0  0  0  0  0  0  0  0  0  0  0  0
  -28.9637   -3.2390   -6.2911 N   0  0  0  0  0  0  0  0  0  0  0  0
  -29.0621   -4.6891   -6.0714 C   0  0  0  0  0  0  0  0  0  0  0  0
  -30.3257   -4.9873   -5.2237 C   0  0  0  0  0  0  0  0  0  0  0  0
  -30.3321   -4.2570   -3.9356 N   0  0  0  0  0  0  0  0  0  0  0  0
  -31.5580   -4.5401   -3.1923 C   0  0  0  0  0  0  0  0  0  0  0  0
  -30.2089   -2.8045   -4.1987 C   0  0  0  0  0  0  0  0  0  0  0  0
  -28.9543   -2.4594   -5.0359 C   0  0  0  0  0  0  0  0  0  0  0  0
 20 21  1  0  0  0
 21 22  2  0  0  0
 21 25  1  0  0  0
 22 23  1  0  0  0
 23 14  1  0  0  0
 23 24  2  0  0  0
 14 15  1  0  0  0
 14 18  1  0  0  0
 15 16  2  0  0  0
 15 17  1  0  0  0
 17  7  1  0  0  0
 17 19  1  0  0  0
  7  8  1  0  0  0
  7 12  2  0  0  0
  8  9  2  0  0  0
  9 10  1  0  0  0
 10  1  1  0  0  0
 10 11  2  0  0  0
  1  2  1  0  0  0
  1  5  2  0  0  0
  2  3  2  0  0  0
  3 26  1  0  0  0
  3  4  1  0  0  0
 26 27  1  0  0  0
 26 29  1  0  0  0
 27 28  2  0  0  0
 27 30  1  0  0  0
 30 31  1  0  0  0
 30 35  2  0  0  0
 31 32  2  0  0  0
 32 33  1  0  0  0
 33 36  1  0  0  0
 33 34  2  0  0  0
 36 37  1  0  0  0
 36 42  1  0  0  0
 37 38  1  0  0  0
 38 39  1  0  0  0
 39 40  1  0  0  0
 39 41  1  0  0  0
 41 42  1  0  0  0
 34 35  1  0  0  0
  4  5  1  0  0  0
  4  6  1  0  0  0
 11 12  1  0  0  0
 12 13  1  0  0  0
 24 25  1  0  0  0
M  END
> <minimizedAffinity>
-9.46426

$$$$
