CHEMBL504547


 31 34  0  0  0  0  0  0  0  0999 V2000
  -17.6827    3.0677  -15.0675 N   0  0  0  0  0  0  0  0  0  0  0  0
  -17.5252    3.3766  -14.1009 H   0  0  0  0  0  0  0  0  0  0  0  0
  -17.2073    1.1588  -13.1767 O   0  0  0  0  0  0  0  0  0  0  0  0
  -16.1511    0.9656  -13.7732 C   0  0  0  0  0  0  0  0  0  0  0  0
  -15.1136    0.3138  -13.1657 N   0  0  0  0  0  0  0  0  0  0  0  0
  -14.0570   -0.3015  -13.7823 C   0  0  0  0  0  0  0  0  0  0  0  0
  -13.3002   -1.0399  -13.1587 O   0  0  0  0  0  0  0  0  0  0  0  0
  -13.8946   -0.0798  -15.2361 C   0  0  0  0  0  0  0  0  0  0  0  0
  -12.8561   -0.7532  -15.8993 C   0  0  0  0  0  0  0  0  0  0  0  0
  -12.6792   -0.5884  -17.2705 C   0  0  0  0  0  0  0  0  0  0  0  0
  -13.5459    0.2428  -17.9737 C   0  0  0  0  0  0  0  0  0  0  0  0
  -13.2919    0.4897  -20.0233 I   0  0  0  0  0  0  0  0  0  0  0  0
  -14.5877    0.9099  -17.3148 C   0  0  0  0  0  0  0  0  0  0  0  0
  -14.7741    0.7663  -15.9296 C   0  0  0  0  0  0  0  0  0  0  0  0
  -15.8822    1.4069  -15.1823 C   0  0  0  0  0  0  0  0  0  0  0  0
  -16.6259    2.4236  -15.6644 C   0  0  0  0  0  0  0  0  0  0  0  0
  -15.2676    0.0524  -12.2024 H   0  0  0  0  0  0  0  0  0  0  0  0
  -18.9742    3.3669  -15.6410 C   0  0  0  0  0  0  0  0  0  0  0  0
  -19.9986    2.4004  -15.1017 C   0  0  0  0  0  0  0  0  0  0  0  0
  -19.8073    1.0178  -15.1905 C   0  0  0  0  0  0  0  0  0  0  0  0
  -20.7924    0.1332  -14.7334 C   0  0  0  0  0  0  0  0  0  0  0  0
  -21.9932    0.6060  -14.1747 C   0  0  0  0  0  0  0  0  0  0  0  0
  -22.1656    1.9963  -14.0774 C   0  0  0  0  0  0  0  0  0  0  0  0
  -23.2599    2.5903  -13.5066 O   0  0  0  0  0  0  0  0  0  0  0  0
  -21.1922    2.8785  -14.5508 C   0  0  0  0  0  0  0  0  0  0  0  0
  -23.7066    1.9321  -12.9518 H   0  0  0  0  0  0  0  0  0  0  0  0
  -23.0190   -0.3458  -13.7584 C   0  0  0  0  0  0  0  0  0  0  0  0
  -23.1238   -1.1414  -12.5800 C   0  0  0  0  0  0  0  0  0  0  0  0
  -24.2881   -1.8644  -12.6929 C   0  0  0  0  0  0  0  0  0  0  0  0
  -24.9253   -1.5541  -13.8488 O   0  0  0  0  0  0  0  0  0  0  0  0
  -24.1596   -0.6297  -14.4850 C   0  0  0  0  0  0  0  0  0  0  0  0
  3  4  2  0  0  0
  4  5  1  0  0  0
  4 15  1  0  0  0
  5  6  1  0  0  0
  5 17  1  0  0  0
  6  7  2  0  0  0
  6  8  1  0  0  0
  8  9  1  0  0  0
  8 14  2  0  0  0
  9 10  2  0  0  0
 10 11  1  0  0  0
 11 12  1  0  0  0
 11 13  2  0  0  0
 13 14  1  0  0  0
 14 15  1  0  0  0
 15 16  2  0  0  0
 16  1  1  0  0  0
  1 18  1  0  0  0
  1  2  1  0  0  0
 18 19  1  0  0  0
 19 20  1  0  0  0
 19 25  2  0  0  0
 20 21  2  0  0  0
 21 22  1  0  0  0
 22 27  1  0  0  0
 22 23  2  0  0  0
 27 28  1  0  0  0
 27 31  2  0  0  0
 28 29  2  0  0  0
 29 30  1  0  0  0
 30 31  1  0  0  0
 23 24  1  0  0  0
 23 25  1  0  0  0
 24 26  1  0  0  0
M  END
> <minimizedAffinity>
-9.33617

$$$$
