CHEMBL3690442


 39 43  0  0  0  0  0  0  0  0999 V2000
  -29.0194   -5.0118   -5.3380 C   0  0  0  0  0  0  0  0  0  0  0  0
  -28.4231   -5.8584   -6.3678 C   0  0  0  0  0  0  0  0  0  0  0  0
  -28.2103   -7.1630   -6.1217 C   0  0  0  0  0  0  0  0  0  0  0  0
  -28.5776   -7.7036   -4.8859 N   0  0  0  0  0  0  0  0  0  0  0  0
  -28.5057   -9.0021   -4.3928 C   0  0  0  0  0  0  0  0  0  0  0  0
  -28.9549   -8.8784   -3.0826 C   0  0  0  0  0  0  0  0  0  0  0  0
  -29.3289   -7.6037   -2.7710 N   0  0  0  0  0  0  0  0  0  0  0  0
  -29.1129   -6.9130   -3.8657 C   0  0  0  0  0  0  0  0  0  0  0  0
  -29.3344   -5.5319   -4.1312 C   0  0  0  0  0  0  0  0  0  0  0  0
  -29.7903   -0.9259   -5.9962 C   0  0  0  0  0  0  0  0  0  0  0  0
  -30.2307   -1.4926   -4.8592 N   0  0  0  0  0  0  0  0  0  0  0  0
  -29.9777   -2.8047   -4.6676 C   0  0  0  0  0  0  0  0  0  0  0  0
  -29.2977   -3.5926   -5.5665 C   0  0  0  0  0  0  0  0  0  0  0  0
  -28.8709   -2.9256   -6.6910 C   0  0  0  0  0  0  0  0  0  0  0  0
  -29.0973   -1.6161   -6.9186 N   0  0  0  0  0  0  0  0  0  0  0  0
  -31.6997    3.9540   -7.8859 C   0  0  0  0  0  0  0  0  0  0  0  0
  -30.9664    3.0339   -7.0209 N   0  0  0  0  0  0  0  0  0  0  0  0
  -31.8934    2.0734   -6.3757 C   0  0  0  0  0  0  0  0  0  0  0  0
  -31.1573    1.0498   -5.4780 C   0  0  0  0  0  0  0  0  0  0  0  0
  -30.1330    0.3723   -6.2692 N   0  0  0  0  0  0  0  0  0  0  0  0
  -29.1809    1.2548   -6.9411 C   0  0  0  0  0  0  0  0  0  0  0  0
  -29.9556    2.2809   -7.8012 C   0  0  0  0  0  0  0  0  0  0  0  0
  -28.0353  -10.2192   -5.0738 C   0  0  0  0  0  0  0  0  0  0  0  0
  -28.9244  -10.8726   -5.9440 C   0  0  0  0  0  0  0  0  0  0  0  0
  -28.5305  -11.9913   -6.6699 C   0  0  0  0  0  0  0  0  0  0  0  0
  -27.2297  -12.4655   -6.5554 C   0  0  0  0  0  0  0  0  0  0  0  0
  -26.2990  -11.8115   -5.7450 C   0  0  0  0  0  0  0  0  0  0  0  0
  -26.7172  -10.7094   -4.9775 C   0  0  0  0  0  0  0  0  0  0  0  0
  -24.9419  -12.2223   -5.6961 N   0  0  0  0  0  0  0  0  0  0  0  0
  -23.8662  -11.3560   -5.7680 C   0  0  0  0  0  0  0  0  0  0  0  0
  -23.9232  -10.1299   -5.8020 O   0  0  0  0  0  0  0  0  0  0  0  0
  -22.6572  -11.9969   -5.8329 N   0  0  0  0  0  0  0  0  0  0  0  0
  -24.7546  -13.1543   -5.3603 H   0  0  0  0  0  0  0  0  0  0  0  0
  -22.5882  -12.9432   -5.4869 H   0  0  0  0  0  0  0  0  0  0  0  0
  -21.4379  -11.1721   -5.8383 C   0  0  0  0  0  0  0  0  0  0  0  0
  -21.0858  -10.4916   -7.1713 C   0  0  0  0  0  0  0  0  0  0  0  0
  -21.5224  -11.1989   -8.2387 F   0  0  0  0  0  0  0  0  0  0  0  0
  -21.6868   -9.2760   -7.2371 F   0  0  0  0  0  0  0  0  0  0  0  0
  -19.7599  -10.2880   -7.3122 F   0  0  0  0  0  0  0  0  0  0  0  0
 16 17  1  0  0  0
 17 18  1  0  0  0
 17 22  1  0  0  0
 18 19  1  0  0  0
 19 20  1  0  0  0
 20 10  1  0  0  0
 20 21  1  0  0  0
 10 11  1  0  0  0
 10 15  2  0  0  0
 11 12  2  0  0  0
 12 13  1  0  0  0
 13  1  1  0  0  0
 13 14  2  0  0  0
  1  2  1  0  0  0
  1  9  2  0  0  0
  2  3  2  0  0  0
  3  4  1  0  0  0
  4  5  1  0  0  0
  4  8  1  0  0  0
  5 23  1  0  0  0
  5  6  2  0  0  0
 23 24  1  0  0  0
 23 28  2  0  0  0
 24 25  2  0  0  0
 25 26  1  0  0  0
 26 27  2  0  0  0
 27 29  1  0  0  0
 27 28  1  0  0  0
 29 30  1  0  0  0
 29 33  1  0  0  0
 30 31  2  0  0  0
 30 32  1  0  0  0
 32 35  1  0  0  0
 32 34  1  0  0  0
 35 36  1  0  0  0
 36 37  1  0  0  0
 36 38  1  0  0  0
 36 39  1  0  0  0
  6  7  1  0  0  0
  7  8  2  0  0  0
  8  9  1  0  0  0
 14 15  1  0  0  0
 21 22  1  0  0  0
M  END
> <minimizedAffinity>
-2.40732

$$$$
