CHEMBL3702618


 30 33  0  0  0  0  0  0  0  0999 V2000
  -28.9125   -3.4662   -7.0111 C   0  0  0  0  0  0  0  0  0  0  0  0
  -28.5145   -2.5604   -6.0163 C   0  0  0  0  0  0  0  0  0  0  0  0
  -27.8457   -1.3681   -6.3219 C   0  0  0  0  0  0  0  0  0  0  0  0
  -27.5484   -1.0482   -7.6463 C   0  0  0  0  0  0  0  0  0  0  0  0
  -27.9322   -1.9261   -8.6624 C   0  0  0  0  0  0  0  0  0  0  0  0
  -28.6167   -3.1126   -8.3360 C   0  0  0  0  0  0  0  0  0  0  0  0
  -28.4499   -9.9891   -3.5606 N   0  0  0  0  0  0  0  0  0  0  0  0
  -28.8104   -8.7318   -3.9971 C   0  0  0  0  0  0  0  0  0  0  0  0
  -29.2642   -7.8710   -3.0835 N   0  0  0  0  0  0  0  0  0  0  0  0
  -29.6220   -6.6539   -3.5352 C   0  0  0  0  0  0  0  0  0  0  0  0
  -29.5289   -6.2632   -4.8544 C   0  0  0  0  0  0  0  0  0  0  0  0
  -29.0295   -7.2246   -5.7153 C   0  0  0  0  0  0  0  0  0  0  0  0
  -28.6529   -8.4552   -5.2949 N   0  0  0  0  0  0  0  0  0  0  0  0
  -28.8391   -6.9208   -7.1785 C   0  0  0  0  0  0  0  0  0  0  0  0
  -29.7142   -5.7533   -7.6240 C   0  0  0  0  0  0  0  0  0  0  0  0
  -29.5799   -4.6343   -6.6875 N   0  0  0  0  0  0  0  0  0  0  0  0
  -29.9945   -4.9102   -5.3075 C   0  0  0  0  0  0  0  0  0  0  0  0
  -28.2289   -9.9557   -2.5759 H   0  0  0  0  0  0  0  0  0  0  0  0
  -27.7575  -10.3805   -4.1829 H   0  0  0  0  0  0  0  0  0  0  0  0
  -27.6940   -1.6358  -10.1049 C   0  0  0  0  0  0  0  0  0  0  0  0
  -28.3058   -0.7147  -10.6404 O   0  0  0  0  0  0  0  0  0  0  0  0
  -26.8020   -2.4454  -10.7811 N   0  0  0  0  0  0  0  0  0  0  0  0
  -26.4429   -3.2770  -10.3330 H   0  0  0  0  0  0  0  0  0  0  0  0
  -26.5401   -2.2668  -12.2021 C   0  0  0  0  0  0  0  0  0  0  0  0
  -25.3696   -1.3050  -12.4704 C   0  0  0  0  0  0  0  0  0  0  0  0
  -24.9999   -1.2717  -13.9628 C   0  0  0  0  0  0  0  0  0  0  0  0
  -23.7891   -0.3821  -14.2337 C   0  0  0  0  0  0  0  0  0  0  0  0
  -22.5883   -0.7932  -13.3901 C   0  0  0  0  0  0  0  0  0  0  0  0
  -22.9364   -0.8160  -11.9057 C   0  0  0  0  0  0  0  0  0  0  0  0
  -24.1465   -1.7055  -11.6244 C   0  0  0  0  0  0  0  0  0  0  0  0
  7  8  1  0  0  0
  7 18  1  0  0  0
  7 19  1  0  0  0
  8  9  1  0  0  0
  8 13  2  0  0  0
  9 10  2  0  0  0
 10 11  1  0  0  0
 11 12  2  0  0  0
 11 17  1  0  0  0
 12 13  1  0  0  0
 12 14  1  0  0  0
 14 15  1  0  0  0
 15 16  1  0  0  0
 16  1  1  0  0  0
 16 17  1  0  0  0
  1  2  1  0  0  0
  1  6  2  0  0  0
  2  3  2  0  0  0
  3  4  1  0  0  0
  4  5  2  0  0  0
  5 20  1  0  0  0
  5  6  1  0  0  0
 20 21  2  0  0  0
 20 22  1  0  0  0
 22 24  1  0  0  0
 22 23  1  0  0  0
 24 25  1  0  0  0
 25 26  1  0  0  0
 25 30  1  0  0  0
 26 27  1  0  0  0
 27 28  1  0  0  0
 28 29  1  0  0  0
 29 30  1  0  0  0
M  END
> <minimizedAffinity>
-10.12834

$$$$
