CHEMBL3971560


 29 32  0  0  0  0  0  0  0  0999 V2000
  -28.9785   -5.5605   -7.3599 C   0  0  0  0  0  0  0  0  0  0  0  0
  -28.4017   -4.5198   -8.0968 C   0  0  0  0  0  0  0  0  0  0  0  0
  -28.2191   -3.2403   -7.5500 C   0  0  0  0  0  0  0  0  0  0  0  0
  -27.9826   -2.0910   -8.3261 C   0  0  0  0  0  0  0  0  0  0  0  0
  -27.8208   -0.8809   -7.7670 N   0  0  0  0  0  0  0  0  0  0  0  0
  -27.8800   -0.8397   -6.4310 C   0  0  0  0  0  0  0  0  0  0  0  0
  -28.1611   -1.8729   -5.6103 N   0  0  0  0  0  0  0  0  0  0  0  0
  -28.3732   -3.0611   -6.1807 C   0  0  0  0  0  0  0  0  0  0  0  0
  -28.7943   -4.1623   -5.4223 C   0  0  0  0  0  0  0  0  0  0  0  0
  -29.1356   -5.4107   -5.9867 C   0  0  0  0  0  0  0  0  0  0  0  0
  -28.4869   -7.6264   -8.3855 C   0  0  0  0  0  0  0  0  0  0  0  0
  -29.4677   -6.6596   -8.0019 O   0  0  0  0  0  0  0  0  0  0  0  0
  -28.0364   -2.1833   -9.7396 N   0  0  0  0  0  0  0  0  0  0  0  0
  -28.9106   -2.5461  -10.0889 H   0  0  0  0  0  0  0  0  0  0  0  0
  -27.0564   -1.9098  -10.7157 C   0  0  0  0  0  0  0  0  0  0  0  0
  -25.7379   -1.5655  -10.3957 C   0  0  0  0  0  0  0  0  0  0  0  0
  -24.8207   -1.2030  -11.3932 C   0  0  0  0  0  0  0  0  0  0  0  0
  -25.2064   -1.1905  -12.7341 C   0  0  0  0  0  0  0  0  0  0  0  0
  -23.9247   -0.6265  -14.0169 Br  0  0  0  0  0  0  0  0  0  0  0  0
  -26.5077   -1.5625  -13.0771 C   0  0  0  0  0  0  0  0  0  0  0  0
  -27.0713   -1.5911  -14.7116 Cl  0  0  0  0  0  0  0  0  0  0  0  0
  -27.4216   -1.9164  -12.0724 C   0  0  0  0  0  0  0  0  0  0  0  0
  -29.6514   -6.2883   -5.0779 O   0  0  0  0  0  0  0  0  0  0  0  0
  -29.0456   -7.4618   -4.5270 C   0  0  0  0  0  0  0  0  0  0  0  0
  -27.5316   -7.5992   -4.5005 C   0  0  0  0  0  0  0  0  0  0  0  0
  -27.2282   -8.9502   -5.1420 C   0  0  0  0  0  0  0  0  0  0  0  0
  -28.4706   -9.7230   -5.1403 N   0  0  0  0  0  0  0  0  0  0  0  0
  -28.5810  -10.6533   -6.2610 C   0  0  0  0  0  0  0  0  0  0  0  0
  -29.6008   -8.7914   -5.0442 C   0  0  0  0  0  0  0  0  0  0  0  0
 11 12  1  0  0  0
 12  1  1  0  0  0
  1  2  1  0  0  0
  1 10  2  0  0  0
  2  3  2  0  0  0
  3  4  1  0  0  0
  3  8  1  0  0  0
  4 13  1  0  0  0
  4  5  2  0  0  0
 13 15  1  0  0  0
 13 14  1  0  0  0
 15 16  1  0  0  0
 15 22  2  0  0  0
 16 17  2  0  0  0
 17 18  1  0  0  0
 18 19  1  0  0  0
 18 20  2  0  0  0
 20 21  1  0  0  0
 20 22  1  0  0  0
  5  6  1  0  0  0
  6  7  2  0  0  0
  7  8  1  0  0  0
  8  9  2  0  0  0
  9 10  1  0  0  0
 10 23  1  0  0  0
 23 24  1  0  0  0
 24 25  1  0  0  0
 24 29  1  0  0  0
 25 26  1  0  0  0
 26 27  1  0  0  0
 27 28  1  0  0  0
 27 29  1  0  0  0
M  END
> <minimizedAffinity>
-8.16988

$$$$
