CHEMBL216693


 40 45  0  0  0  0  0  0  0  0999 V2000
  -26.8326  -11.4645   -6.7410 C   0  0  0  0  0  0  0  0  0  0  0  0
  -27.6116  -10.7107   -7.6024 C   0  0  0  0  0  0  0  0  0  0  0  0
  -28.2958   -9.5750   -7.1470 C   0  0  0  0  0  0  0  0  0  0  0  0
  -28.2842   -9.2507   -5.7512 C   0  0  0  0  0  0  0  0  0  0  0  0
  -28.9725   -8.2100   -5.0750 C   0  0  0  0  0  0  0  0  0  0  0  0
  -28.7887   -7.9639   -3.7585 N   0  0  0  0  0  0  0  0  0  0  0  0
  -28.0080   -8.7973   -3.0796 C   0  0  0  0  0  0  0  0  0  0  0  0
  -27.3647   -9.8444   -3.5897 N   0  0  0  0  0  0  0  0  0  0  0  0
  -27.5036  -10.0479   -4.9003 C   0  0  0  0  0  0  0  0  0  0  0  0
  -26.8074  -11.1309   -5.3968 C   0  0  0  0  0  0  0  0  0  0  0  0
  -29.9381   -7.4238   -5.7425 N   0  0  0  0  0  0  0  0  0  0  0  0
  -30.1280   -7.7812   -6.6731 H   0  0  0  0  0  0  0  0  0  0  0  0
  -30.0842   -6.0231   -5.6096 C   0  0  0  0  0  0  0  0  0  0  0  0
  -29.4621   -5.1185   -6.4921 C   0  0  0  0  0  0  0  0  0  0  0  0
  -28.5168   -5.6977   -7.8220 Cl  0  0  0  0  0  0  0  0  0  0  0  0
  -29.5788   -3.7204   -6.3240 C   0  0  0  0  0  0  0  0  0  0  0  0
  -30.3216   -3.1909   -5.2669 C   0  0  0  0  0  0  0  0  0  0  0  0
  -30.9499   -4.0798   -4.4245 C   0  0  0  0  0  0  0  0  0  0  0  0
  -30.8491   -5.4452   -4.5953 C   0  0  0  0  0  0  0  0  0  0  0  0
  -31.6190   -6.1144   -3.6841 O   0  0  0  0  0  0  0  0  0  0  0  0
  -32.1639   -5.0336   -2.9138 C   0  0  0  0  0  0  0  0  0  0  0  0
  -31.7370   -3.7353   -3.3694 O   0  0  0  0  0  0  0  0  0  0  0  0
  -26.1271  -12.4654   -7.3439 O   0  0  0  0  0  0  0  0  0  0  0  0
  -25.6102  -12.2212   -8.6496 C   0  0  0  0  0  0  0  0  0  0  0  0
  -24.0846  -12.2230   -8.6299 C   0  0  0  0  0  0  0  0  0  0  0  0
  -23.5681  -12.2747   -7.1852 C   0  0  0  0  0  0  0  0  0  0  0  0
  -22.3782  -11.5986   -2.5618 C   0  0  0  0  0  0  0  0  0  0  0  0
  -22.1141  -11.1763   -3.9317 N   0  0  0  0  0  0  0  0  0  0  0  0
  -21.6224  -12.2954   -4.7522 C   0  0  0  0  0  0  0  0  0  0  0  0
  -21.3468  -11.8336   -6.1996 C   0  0  0  0  0  0  0  0  0  0  0  0
  -22.5283  -11.2768   -6.8907 N   0  0  0  0  0  0  0  0  0  0  0  0
  -23.0794  -10.1908   -6.0412 C   0  0  0  0  0  0  0  0  0  0  0  0
  -23.3083  -10.5730   -4.5538 C   0  0  0  0  0  0  0  0  0  0  0  0
  -28.9568   -8.7376   -8.0241 O   0  0  0  0  0  0  0  0  0  0  0  0
  -28.6520   -8.9427   -9.4151 C   0  0  0  0  0  0  0  0  0  0  0  0
  -29.2541  -10.2645   -9.8850 C   0  0  0  0  0  0  0  0  0  0  0  0
  -28.8906  -10.4690  -11.3492 C   0  0  0  0  0  0  0  0  0  0  0  0
  -27.4727  -10.4655  -11.5238 O   0  0  0  0  0  0  0  0  0  0  0  0
  -26.8682   -9.2353  -11.1232 C   0  0  0  0  0  0  0  0  0  0  0  0
  -27.1415   -8.9571   -9.6500 C   0  0  0  0  0  0  0  0  0  0  0  0
 27 28  1  0  0  0
 28 29  1  0  0  0
 28 33  1  0  0  0
 29 30  1  0  0  0
 30 31  1  0  0  0
 31 26  1  0  0  0
 31 32  1  0  0  0
 26 25  1  0  0  0
 25 24  1  0  0  0
 24 23  1  0  0  0
 23  1  1  0  0  0
  1  2  1  0  0  0
  1 10  2  0  0  0
  2  3  2  0  0  0
  3 34  1  0  0  0
  3  4  1  0  0  0
 34 35  1  0  0  0
 35 36  1  0  0  0
 35 40  1  0  0  0
 36 37  1  0  0  0
 37 38  1  0  0  0
 38 39  1  0  0  0
 39 40  1  0  0  0
  4  5  1  0  0  0
  4  9  2  0  0  0
  5 11  1  0  0  0
  5  6  2  0  0  0
 11 13  1  0  0  0
 11 12  1  0  0  0
 13 14  1  0  0  0
 13 19  2  0  0  0
 14 15  1  0  0  0
 14 16  2  0  0  0
 16 17  1  0  0  0
 17 18  2  0  0  0
 18 19  1  0  0  0
 18 22  1  0  0  0
 19 20  1  0  0  0
 20 21  1  0  0  0
 21 22  1  0  0  0
  6  7  1  0  0  0
  7  8  2  0  0  0
  8  9  1  0  0  0
  9 10  1  0  0  0
 32 33  1  0  0  0
M  END
> <minimizedAffinity>
-7.94383

$$$$
