CHEMBL3678953


 37 41  0  0  0  0  0  0  0  0999 V2000
  -29.6153   -6.7070   -3.5537 C   0  0  0  0  0  0  0  0  0  0  0  0
  -29.0844   -7.6583   -2.8177 N   0  0  0  0  0  0  0  0  0  0  0  0
  -28.8150   -8.6866   -3.6605 C   0  0  0  0  0  0  0  0  0  0  0  0
  -28.2734   -9.9308   -3.4296 C   0  0  0  0  0  0  0  0  0  0  0  0
  -28.1336  -10.7817   -4.4622 N   0  0  0  0  0  0  0  0  0  0  0  0
  -28.4961  -10.3959   -5.7069 C   0  0  0  0  0  0  0  0  0  0  0  0
  -29.0015   -9.1834   -6.0348 N   0  0  0  0  0  0  0  0  0  0  0  0
  -29.1667   -8.3810   -4.9632 C   0  0  0  0  0  0  0  0  0  0  0  0
  -29.7233   -7.1194   -4.8817 N   0  0  0  0  0  0  0  0  0  0  0  0
  -30.3377   -6.3577   -5.9614 C   0  0  0  0  0  0  0  0  0  0  0  0
  -29.2739   -5.8114   -6.9107 C   0  0  0  0  0  0  0  0  0  0  0  0
  -31.4369   -7.0898   -6.7404 C   0  0  0  0  0  0  0  0  0  0  0  0
  -30.0041   -5.4797   -3.1249 N   0  0  0  0  0  0  0  0  0  0  0  0
  -30.8415   -5.3733   -2.5676 H   0  0  0  0  0  0  0  0  0  0  0  0
  -28.2988   -1.8118   -4.4535 C   0  0  0  0  0  0  0  0  0  0  0  0
  -29.6441   -1.8676   -4.1125 C   0  0  0  0  0  0  0  0  0  0  0  0
  -30.2087   -3.0717   -3.6778 C   0  0  0  0  0  0  0  0  0  0  0  0
  -29.4538   -4.2468   -3.5529 C   0  0  0  0  0  0  0  0  0  0  0  0
  -28.0943   -4.1705   -3.8824 C   0  0  0  0  0  0  0  0  0  0  0  0
  -27.5260   -2.9677   -4.3293 C   0  0  0  0  0  0  0  0  0  0  0  0
  -28.3884    0.5016   -4.9799 C   0  0  0  0  0  0  0  0  0  0  0  0
  -27.6391   -0.7099   -4.9212 O   0  0  0  0  0  0  0  0  0  0  0  0
  -28.3047  -11.3215   -6.7329 N   0  0  0  0  0  0  0  0  0  0  0  0
  -28.1218  -12.2543   -6.4036 H   0  0  0  0  0  0  0  0  0  0  0  0
  -28.1298  -11.0526   -8.0993 C   0  0  0  0  0  0  0  0  0  0  0  0
  -26.9393  -10.5098   -8.5902 C   0  0  0  0  0  0  0  0  0  0  0  0
  -26.8026  -10.1506   -9.9321 C   0  0  0  0  0  0  0  0  0  0  0  0
  -27.8513  -10.3057  -10.8449 C   0  0  0  0  0  0  0  0  0  0  0  0
  -29.0410  -10.8558  -10.3520 C   0  0  0  0  0  0  0  0  0  0  0  0
  -29.1809  -11.2255   -9.0000 C   0  0  0  0  0  0  0  0  0  0  0  0
  -27.6409   -9.9727  -12.1747 N   0  0  0  0  0  0  0  0  0  0  0  0
  -28.7190  -10.1045  -13.1628 C   0  0  0  0  0  0  0  0  0  0  0  0
  -28.0902  -10.2748  -14.5670 C   0  0  0  0  0  0  0  0  0  0  0  0
  -27.1978   -9.1506  -14.9366 N   0  0  0  0  0  0  0  0  0  0  0  0
  -26.5822   -9.3970  -16.2394 C   0  0  0  0  0  0  0  0  0  0  0  0
  -26.1558   -8.9887  -13.8936 C   0  0  0  0  0  0  0  0  0  0  0  0
  -26.7366   -8.8405  -12.4649 C   0  0  0  0  0  0  0  0  0  0  0  0
 21 22  1  0  0  0
 22 15  1  0  0  0
 15 16  1  0  0  0
 15 20  2  0  0  0
 16 17  2  0  0  0
 17 18  1  0  0  0
 18 13  1  0  0  0
 18 19  2  0  0  0
 13  1  1  0  0  0
 13 14  1  0  0  0
  1  2  2  0  0  0
  1  9  1  0  0  0
  2  3  1  0  0  0
  3  4  1  0  0  0
  3  8  2  0  0  0
  4  5  2  0  0  0
  5  6  1  0  0  0
  6 23  1  0  0  0
  6  7  2  0  0  0
 23 25  1  0  0  0
 23 24  1  0  0  0
 25 26  1  0  0  0
 25 30  2  0  0  0
 26 27  2  0  0  0
 27 28  1  0  0  0
 28 31  1  0  0  0
 28 29  2  0  0  0
 31 32  1  0  0  0
 31 37  1  0  0  0
 32 33  1  0  0  0
 33 34  1  0  0  0
 34 35  1  0  0  0
 34 36  1  0  0  0
 36 37  1  0  0  0
 29 30  1  0  0  0
  7  8  1  0  0  0
  8  9  1  0  0  0
  9 10  1  0  0  0
 10 11  1  0  0  0
 10 12  1  0  0  0
 19 20  1  0  0  0
M  END
> <minimizedAffinity>
-6.07413

$$$$
