CHEMBL1996702


 38 41  0  0  0  0  0  0  0  0999 V2000
  -17.4819    1.4771  -14.6032 C   0  0  0  0  0  0  0  0  0  0  0  0
  -16.8324    0.7605  -13.5870 C   0  0  0  0  0  0  0  0  0  0  0  0
  -15.4927    0.3992  -13.7097 C   0  0  0  0  0  0  0  0  0  0  0  0
  -14.7735    0.7073  -14.8731 C   0  0  0  0  0  0  0  0  0  0  0  0
  -15.3710    1.4312  -15.9000 C   0  0  0  0  0  0  0  0  0  0  0  0
  -16.7181    1.8194  -15.7409 C   0  0  0  0  0  0  0  0  0  0  0  0
  -14.7255    1.7092  -17.1218 N   0  0  0  0  0  0  0  0  0  0  0  0
  -14.0815    0.7322  -17.9092 C   0  0  0  0  0  0  0  0  0  0  0  0
  -14.1980    0.8420  -19.3067 C   0  0  0  0  0  0  0  0  0  0  0  0
  -13.6568   -0.1230  -20.1586 C   0  0  0  0  0  0  0  0  0  0  0  0
  -12.9718   -1.2188  -19.6314 C   0  0  0  0  0  0  0  0  0  0  0  0
  -12.8006   -1.3146  -18.2485 C   0  0  0  0  0  0  0  0  0  0  0  0
  -13.3286   -0.3355  -17.3873 C   0  0  0  0  0  0  0  0  0  0  0  0
  -12.9471   -0.4494  -16.0420 N   0  0  0  0  0  0  0  0  0  0  0  0
  -13.3936    0.2040  -14.9281 C   0  0  0  0  0  0  0  0  0  0  0  0
  -12.7080    0.1994  -13.9059 O   0  0  0  0  0  0  0  0  0  0  0  0
  -15.2314    2.3893  -17.6812 H   0  0  0  0  0  0  0  0  0  0  0  0
  -12.1471   -1.0336  -15.8330 H   0  0  0  0  0  0  0  0  0  0  0  0
  -21.2813    1.1891  -14.4367 C   0  0  0  0  0  0  0  0  0  0  0  0
  -19.9227    0.8571  -14.5126 C   0  0  0  0  0  0  0  0  0  0  0  0
  -18.9136    1.8414  -14.4875 C   0  0  0  0  0  0  0  0  0  0  0  0
  -19.3171    3.1808  -14.3411 C   0  0  0  0  0  0  0  0  0  0  0  0
  -20.6661    3.5282  -14.2417 C   0  0  0  0  0  0  0  0  0  0  0  0
  -21.6384    2.5349  -14.3018 C   0  0  0  0  0  0  0  0  0  0  0  0
  -22.9621    2.8762  -14.2300 O   0  0  0  0  0  0  0  0  0  0  0  0
  -23.0385    3.8408  -14.1717 H   0  0  0  0  0  0  0  0  0  0  0  0
  -22.5931   -0.4443  -13.2973 C   0  0  0  0  0  0  0  0  0  0  0  0
  -22.3117    0.2869  -14.4819 O   0  0  0  0  0  0  0  0  0  0  0  0
  -12.4687   -2.2548  -20.5739 C   0  0  0  0  0  0  0  0  0  0  0  0
  -11.2841   -2.2591  -20.8916 O   0  0  0  0  0  0  0  0  0  0  0  0
  -13.3777   -3.1834  -21.0211 N   0  0  0  0  0  0  0  0  0  0  0  0
  -14.2845   -3.2674  -20.5807 H   0  0  0  0  0  0  0  0  0  0  0  0
  -12.9718   -4.2912  -21.8634 C   0  0  0  0  0  0  0  0  0  0  0  0
  -13.3803   -5.6472  -21.2854 C   0  0  0  0  0  0  0  0  0  0  0  0
  -14.6120   -5.5818  -20.3701 C   0  0  0  0  0  0  0  0  0  0  0  0
  -14.4312   -6.2120  -19.0501 N   0  0  0  0  0  0  0  0  0  0  0  0
  -13.6766   -7.4635  -19.1418 C   0  0  0  0  0  0  0  0  0  0  0  0
  -13.7428   -5.2895  -18.1463 C   0  0  0  0  0  0  0  0  0  0  0  0
 27 28  1  0  0  0
 28 19  1  0  0  0
 19 20  1  0  0  0
 19 24  2  0  0  0
 20 21  2  0  0  0
 21  1  1  0  0  0
 21 22  1  0  0  0
  1  2  1  0  0  0
  1  6  2  0  0  0
  2  3  2  0  0  0
  3  4  1  0  0  0
  4  5  2  0  0  0
  4 15  1  0  0  0
  5  6  1  0  0  0
  5  7  1  0  0  0
  7  8  1  0  0  0
  7 17  1  0  0  0
  8  9  1  0  0  0
  8 13  2  0  0  0
  9 10  2  0  0  0
 10 11  1  0  0  0
 11 29  1  0  0  0
 11 12  2  0  0  0
 29 30  2  0  0  0
 29 31  1  0  0  0
 31 33  1  0  0  0
 31 32  1  0  0  0
 33 34  1  0  0  0
 34 35  1  0  0  0
 35 36  1  0  0  0
 36 37  1  0  0  0
 36 38  1  0  0  0
 12 13  1  0  0  0
 13 14  1  0  0  0
 14 15  1  0  0  0
 14 18  1  0  0  0
 15 16  2  0  0  0
 22 23  2  0  0  0
 23 24  1  0  0  0
 24 25  1  0  0  0
 25 26  1  0  0  0
M  END
> <minimizedAffinity>
-7.93983

$$$$
