CHEMBL3905633


 37 42  0  0  0  0  0  0  0  0999 V2000
  -13.2494   -4.9789  -13.3403 N   0  0  0  0  0  0  0  0  0  0  0  0
  -13.5540   -3.6521  -13.8318 C   0  0  0  0  0  0  0  0  0  0  0  0
  -12.4386   -2.9113  -14.2209 C   0  0  0  0  0  0  0  0  0  0  0  0
  -12.4766   -1.5313  -14.1898 C   0  0  0  0  0  0  0  0  0  0  0  0
  -13.6358   -0.8461  -13.9281 C   0  0  0  0  0  0  0  0  0  0  0  0
  -13.4719    0.4698  -13.7594 N   0  0  0  0  0  0  0  0  0  0  0  0
  -14.5861    1.2085  -13.7277 C   0  0  0  0  0  0  0  0  0  0  0  0
  -15.8346    0.6679  -13.9688 C   0  0  0  0  0  0  0  0  0  0  0  0
  -16.0212   -0.6987  -13.9798 N   0  0  0  0  0  0  0  0  0  0  0  0
  -14.8856   -1.5098  -13.9000 C   0  0  0  0  0  0  0  0  0  0  0  0
  -14.7977   -2.9548  -13.7755 C   0  0  0  0  0  0  0  0  0  0  0  0
  -16.7985    1.5991  -14.5553 C   0  0  0  0  0  0  0  0  0  0  0  0
  -16.7959    2.4522  -15.6811 C   0  0  0  0  0  0  0  0  0  0  0  0
  -17.9935    3.0142  -15.9158 N   0  0  0  0  0  0  0  0  0  0  0  0
  -18.7698    2.5302  -14.9304 N   0  0  0  0  0  0  0  0  0  0  0  0
  -20.0884    3.0686  -14.6836 C   0  0  0  0  0  0  0  0  0  0  0  0
  -18.1376    1.5823  -14.1825 C   0  0  0  0  0  0  0  0  0  0  0  0
  -12.7221   -8.6061  -14.1033 C   0  0  0  0  0  0  0  0  0  0  0  0
  -13.2358   -8.6960  -15.3980 C   0  0  0  0  0  0  0  0  0  0  0  0
  -13.7117   -7.5538  -16.0361 C   0  0  0  0  0  0  0  0  0  0  0  0
  -13.6645   -6.3188  -15.3761 C   0  0  0  0  0  0  0  0  0  0  0  0
  -13.1585   -6.1852  -14.0745 C   0  0  0  0  0  0  0  0  0  0  0  0
  -12.6925   -7.3592  -13.4500 C   0  0  0  0  0  0  0  0  0  0  0  0
  -12.2628   -9.5208  -11.9560 C   0  0  0  0  0  0  0  0  0  0  0  0
  -12.2885   -9.6861  -13.3745 O   0  0  0  0  0  0  0  0  0  0  0  0
  -14.2698   -7.5077  -17.2858 O   0  0  0  0  0  0  0  0  0  0  0  0
  -13.6182   -6.6983  -18.2560 C   0  0  0  0  0  0  0  0  0  0  0  0
  -13.7972   -5.0835  -11.9335 C   0  0  0  0  0  0  0  0  0  0  0  0
  -13.0855   -4.5043  -10.7378 C   0  0  0  0  0  0  0  0  0  0  0  0
  -12.3239   -3.3806  -10.4619 C   0  0  0  0  0  0  0  0  0  0  0  0
  -11.8509   -3.5295   -9.1255 C   0  0  0  0  0  0  0  0  0  0  0  0
  -10.9903   -2.7856   -8.3853 N   0  0  0  0  0  0  0  0  0  0  0  0
  -10.7423   -3.2808   -7.1600 C   0  0  0  0  0  0  0  0  0  0  0  0
  -11.3075   -4.4191   -6.5995 C   0  0  0  0  0  0  0  0  0  0  0  0
  -12.2259   -5.1553   -7.3470 C   0  0  0  0  0  0  0  0  0  0  0  0
  -12.4494   -4.6797   -8.6351 C   0  0  0  0  0  0  0  0  0  0  0  0
  -13.2200   -5.2562   -9.5926 O   0  0  0  0  0  0  0  0  0  0  0  0
 24 25  1  0  0  0
 25 18  1  0  0  0
 18 19  1  0  0  0
 18 23  2  0  0  0
 19 20  2  0  0  0
 20 26  1  0  0  0
 20 21  1  0  0  0
 26 27  1  0  0  0
 21 22  2  0  0  0
 22  1  1  0  0  0
 22 23  1  0  0  0
  1 28  1  0  0  0
  1  2  1  0  0  0
 28 29  1  0  0  0
 29 30  2  0  0  0
 29 37  1  0  0  0
 30 31  1  0  0  0
 31 32  1  0  0  0
 31 36  2  0  0  0
 32 33  2  0  0  0
 33 34  1  0  0  0
 34 35  2  0  0  0
 35 36  1  0  0  0
 36 37  1  0  0  0
  2  3  1  0  0  0
  2 11  2  0  0  0
  3  4  2  0  0  0
  4  5  1  0  0  0
  5  6  1  0  0  0
  5 10  2  0  0  0
  6  7  2  0  0  0
  7  8  1  0  0  0
  8 12  1  0  0  0
  8  9  2  0  0  0
 12 13  1  0  0  0
 12 17  2  0  0  0
 13 14  2  0  0  0
 14 15  1  0  0  0
 15 16  1  0  0  0
 15 17  1  0  0  0
  9 10  1  0  0  0
 10 11  1  0  0  0
M  END
> <minimizedAffinity>
-8.04419

$$$$
