CHEMBL371329


 32 35  0  0  0  0  0  0  0  0999 V2000
  -15.1897   -2.4794  -13.1897 C   0  0  0  0  0  0  0  0  0  0  0  0
  -13.8019   -2.3816  -13.2978 C   0  0  0  0  0  0  0  0  0  0  0  0
  -12.9666   -3.1741  -12.5102 C   0  0  0  0  0  0  0  0  0  0  0  0
  -13.4898   -4.0103  -11.5179 C   0  0  0  0  0  0  0  0  0  0  0  0
  -14.8802   -3.9985  -11.3263 C   0  0  0  0  0  0  0  0  0  0  0  0
  -15.7299   -3.2569  -12.1680 C   0  0  0  0  0  0  0  0  0  0  0  0
  -12.6042   -4.8978  -10.7377 C   0  0  0  0  0  0  0  0  0  0  0  0
  -12.0711   -4.5045   -9.5069 C   0  0  0  0  0  0  0  0  0  0  0  0
  -12.2316   -3.2580   -8.6882 C   0  0  0  0  0  0  0  0  0  0  0  0
  -11.0380   -5.6980   -8.8398 S   0  0  0  0  0  0  0  0  0  0  0  0
  -11.3029   -6.7583  -10.1280 C   0  0  0  0  0  0  0  0  0  0  0  0
  -10.7019   -7.9569  -10.1073 N   0  0  0  0  0  0  0  0  0  0  0  0
  -10.9902   -8.6883  -11.1865 C   0  0  0  0  0  0  0  0  0  0  0  0
  -11.7548   -8.3271  -12.2182 N   0  0  0  0  0  0  0  0  0  0  0  0
  -12.3311   -7.1081  -12.2151 C   0  0  0  0  0  0  0  0  0  0  0  0
  -13.0767   -6.8270  -13.3495 N   0  0  0  0  0  0  0  0  0  0  0  0
  -12.1395   -6.2420  -11.1086 C   0  0  0  0  0  0  0  0  0  0  0  0
  -12.8866   -7.5319  -14.0540 H   0  0  0  0  0  0  0  0  0  0  0  0
  -12.9839   -5.8704  -13.6652 H   0  0  0  0  0  0  0  0  0  0  0  0
  -17.3038   -0.1095  -14.9609 N   0  0  0  0  0  0  0  0  0  0  0  0
  -16.4872   -0.5619  -13.9394 C   0  0  0  0  0  0  0  0  0  0  0  0
  -16.1573    0.1090  -12.9675 O   0  0  0  0  0  0  0  0  0  0  0  0
  -16.0406   -1.8647  -14.1448 N   0  0  0  0  0  0  0  0  0  0  0  0
  -17.7050   -0.8079  -15.5689 H   0  0  0  0  0  0  0  0  0  0  0  0
  -15.9049   -2.1254  -15.1112 H   0  0  0  0  0  0  0  0  0  0  0  0
  -21.0282    3.1103  -14.4194 C   0  0  0  0  0  0  0  0  0  0  0  0
  -19.6171    2.8082  -14.8311 C   0  0  0  0  0  0  0  0  0  0  0  0
  -18.8072    3.8306  -15.3384 C   0  0  0  0  0  0  0  0  0  0  0  0
  -17.5061    3.5571  -15.7358 C   0  0  0  0  0  0  0  0  0  0  0  0
  -17.0030    2.2611  -15.6222 C   0  0  0  0  0  0  0  0  0  0  0  0
  -17.7792    1.2212  -15.0990 C   0  0  0  0  0  0  0  0  0  0  0  0
  -19.0955    1.5049  -14.7121 C   0  0  0  0  0  0  0  0  0  0  0  0
 26 27  1  0  0  0
 27 28  1  0  0  0
 27 32  2  0  0  0
 28 29  2  0  0  0
 29 30  1  0  0  0
 30 31  2  0  0  0
 31 20  1  0  0  0
 31 32  1  0  0  0
 20 21  1  0  0  0
 20 24  1  0  0  0
 21 22  2  0  0  0
 21 23  1  0  0  0
 23  1  1  0  0  0
 23 25  1  0  0  0
  1  2  1  0  0  0
  1  6  2  0  0  0
  2  3  2  0  0  0
  3  4  1  0  0  0
  4  7  1  0  0  0
  4  5  2  0  0  0
  7  8  2  0  0  0
  7 17  1  0  0  0
  8  9  1  0  0  0
  8 10  1  0  0  0
 10 11  1  0  0  0
 11 12  1  0  0  0
 11 17  2  0  0  0
 12 13  2  0  0  0
 13 14  1  0  0  0
 14 15  2  0  0  0
 15 16  1  0  0  0
 15 17  1  0  0  0
 16 18  1  0  0  0
 16 19  1  0  0  0
  5  6  1  0  0  0
M  END
> <minimizedAffinity>
-8.52796

$$$$
