CHEMBL394694


 36 39  0  0  0  0  0  0  0  0999 V2000
  -23.7286   -0.9247  -13.3393 C   0  0  0  0  0  0  0  0  0  0  0  0
  -24.1839   -1.2681  -12.0588 C   0  0  0  0  0  0  0  0  0  0  0  0
  -25.5025   -1.6667  -11.8218 C   0  0  0  0  0  0  0  0  0  0  0  0
  -26.3621   -1.8042  -12.9091 C   0  0  0  0  0  0  0  0  0  0  0  0
  -25.8835   -1.5863  -14.2124 C   0  0  0  0  0  0  0  0  0  0  0  0
  -24.5718   -1.1473  -14.4199 C   0  0  0  0  0  0  0  0  0  0  0  0
  -24.1496   -0.9204  -15.6723 F   0  0  0  0  0  0  0  0  0  0  0  0
  -25.9896   -1.8902  -10.5070 N   0  0  0  0  0  0  0  0  0  0  0  0
  -27.2985   -1.6553  -10.1051 C   0  0  0  0  0  0  0  0  0  0  0  0
  -28.1702   -1.1209  -10.7956 O   0  0  0  0  0  0  0  0  0  0  0  0
  -25.3352   -2.2658   -9.8385 H   0  0  0  0  0  0  0  0  0  0  0  0
  -27.7057   -2.0107   -8.7266 C   0  0  0  0  0  0  0  0  0  0  0  0
  -27.6339   -1.1331   -7.6468 C   0  0  0  0  0  0  0  0  0  0  0  0
  -28.1730   -1.5185   -6.4154 C   0  0  0  0  0  0  0  0  0  0  0  0
  -28.7939   -2.7661   -6.2619 C   0  0  0  0  0  0  0  0  0  0  0  0
  -28.8760   -3.6629   -7.3352 C   0  0  0  0  0  0  0  0  0  0  0  0
  -28.3093   -3.2728   -8.5544 C   0  0  0  0  0  0  0  0  0  0  0  0
  -29.6095   -4.9908   -7.2589 C   0  0  0  0  0  0  0  0  0  0  0  0
  -28.7652   -6.1683   -7.7500 C   0  0  0  0  0  0  0  0  0  0  0  0
  -30.1430   -5.2558   -5.8495 C   0  0  0  0  0  0  0  0  0  0  0  0
  -22.4772   -0.3567  -13.5267 O   0  0  0  0  0  0  0  0  0  0  0  0
  -21.3066    1.6757  -14.1769 C   0  0  0  0  0  0  0  0  0  0  0  0
  -21.3644    3.0923  -14.1912 C   0  0  0  0  0  0  0  0  0  0  0  0
  -22.4839    3.7882  -13.7506 C   0  0  0  0  0  0  0  0  0  0  0  0
  -23.5679    3.0532  -13.3370 C   0  0  0  0  0  0  0  0  0  0  0  0
  -23.5861    1.7083  -13.3374 N   0  0  0  0  0  0  0  0  0  0  0  0
  -22.4494    1.0346  -13.6910 C   0  0  0  0  0  0  0  0  0  0  0  0
  -17.8217    0.8828  -14.5053 C   0  0  0  0  0  0  0  0  0  0  0  0
  -17.8014   -0.2163  -15.2428 N   0  0  0  0  0  0  0  0  0  0  0  0
  -18.9917   -0.6411  -15.6635 C   0  0  0  0  0  0  0  0  0  0  0  0
  -20.1689   -0.0747  -15.4039 N   0  0  0  0  0  0  0  0  0  0  0  0
  -20.0822    1.0231  -14.6577 C   0  0  0  0  0  0  0  0  0  0  0  0
  -18.9295    1.5379  -14.1999 N   0  0  0  0  0  0  0  0  0  0  0  0
  -15.7374    0.4432  -13.4126 C   0  0  0  0  0  0  0  0  0  0  0  0
  -16.6516    1.4088  -13.9790 N   0  0  0  0  0  0  0  0  0  0  0  0
  -16.2623    2.0353  -14.6720 H   0  0  0  0  0  0  0  0  0  0  0  0
 34 35  1  0  0  0
 35 28  1  0  0  0
 35 36  1  0  0  0
 28 29  1  0  0  0
 28 33  2  0  0  0
 29 30  2  0  0  0
 30 31  1  0  0  0
 31 32  2  0  0  0
 32 22  1  0  0  0
 32 33  1  0  0  0
 22 23  1  0  0  0
 22 27  2  0  0  0
 23 24  2  0  0  0
 24 25  1  0  0  0
 25 26  2  0  0  0
 26 27  1  0  0  0
 27 21  1  0  0  0
 21  1  1  0  0  0
  1  2  1  0  0  0
  1  6  2  0  0  0
  2  3  2  0  0  0
  3  8  1  0  0  0
  3  4  1  0  0  0
  8  9  1  0  0  0
  8 11  1  0  0  0
  9 10  2  0  0  0
  9 12  1  0  0  0
 12 13  1  0  0  0
 12 17  2  0  0  0
 13 14  2  0  0  0
 14 15  1  0  0  0
 15 16  2  0  0  0
 16 18  1  0  0  0
 16 17  1  0  0  0
 18 19  1  0  0  0
 18 20  1  0  0  0
  4  5  2  0  0  0
  5  6  1  0  0  0
  6  7  1  0  0  0
M  END
> <minimizedAffinity>
-7.64916

$$$$
