CHEMBL184274


 40 44  0  0  0  0  0  0  0  0999 V2000
  -18.0434    0.9452  -15.1997 C   0  0  0  0  0  0  0  0  0  0  0  0
  -18.5017   -0.3430  -15.4591 C   0  0  0  0  0  0  0  0  0  0  0  0
  -19.8596   -0.6941  -15.3190 C   0  0  0  0  0  0  0  0  0  0  0  0
  -20.8004    0.2581  -14.8900 C   0  0  0  0  0  0  0  0  0  0  0  0
  -20.2831    1.5710  -14.6398 C   0  0  0  0  0  0  0  0  0  0  0  0
  -18.9543    1.8552  -14.7963 C   0  0  0  0  0  0  0  0  0  0  0  0
  -18.6339    3.2082  -14.5301 C   0  0  0  0  0  0  0  0  0  0  0  0
  -19.7699    3.8611  -14.1378 N   0  0  0  0  0  0  0  0  0  0  0  0
  -20.8827    2.8551  -14.2018 C   0  0  0  0  0  0  0  0  0  0  0  0
  -21.3550    3.9111  -13.8448 O   0  0  0  0  0  0  0  0  0  0  0  0
  -19.9060    4.8525  -13.8497 H   0  0  0  0  0  0  0  0  0  0  0  0
  -13.8836    1.8069  -15.7525 C   0  0  0  0  0  0  0  0  0  0  0  0
  -14.3881    1.3490  -14.5526 C   0  0  0  0  0  0  0  0  0  0  0  0
  -15.7404    1.1097  -14.3456 C   0  0  0  0  0  0  0  0  0  0  0  0
  -16.6711    1.3037  -15.3420 C   0  0  0  0  0  0  0  0  0  0  0  0
  -16.1693    1.8506  -16.5117 C   0  0  0  0  0  0  0  0  0  0  0  0
  -14.7993    1.9798  -16.7704 C   0  0  0  0  0  0  0  0  0  0  0  0
  -13.0214    4.4919  -15.9247 N   0  0  0  0  0  0  0  0  0  0  0  0
  -12.0545    3.4615  -15.9218 C   0  0  0  0  0  0  0  0  0  0  0  0
  -10.8489    3.6869  -16.0148 O   0  0  0  0  0  0  0  0  0  0  0  0
  -12.4821    2.1315  -15.8637 N   0  0  0  0  0  0  0  0  0  0  0  0
  -14.0162    4.3004  -15.8445 H   0  0  0  0  0  0  0  0  0  0  0  0
  -11.8589    1.3337  -15.8917 H   0  0  0  0  0  0  0  0  0  0  0  0
  -12.6207    8.7492  -18.5882 C   0  0  0  0  0  0  0  0  0  0  0  0
  -12.4570    7.9666  -17.3302 C   0  0  0  0  0  0  0  0  0  0  0  0
  -11.8979    8.5919  -16.2153 C   0  0  0  0  0  0  0  0  0  0  0  0
  -11.7325    7.9110  -15.0306 C   0  0  0  0  0  0  0  0  0  0  0  0
  -12.1195    6.5875  -14.9644 C   0  0  0  0  0  0  0  0  0  0  0  0
  -12.6477    5.8912  -16.0407 C   0  0  0  0  0  0  0  0  0  0  0  0
  -12.7668    6.6145  -17.2343 C   0  0  0  0  0  0  0  0  0  0  0  0
  -22.1856   -0.1201  -14.7251 N   0  0  0  0  0  0  0  0  0  0  0  0
  -22.7633   -0.2997  -13.4536 C   0  0  0  0  0  0  0  0  0  0  0  0
  -22.1987   -0.1679  -12.3839 O   0  0  0  0  0  0  0  0  0  0  0  0
  -22.7520   -0.2375  -15.5648 H   0  0  0  0  0  0  0  0  0  0  0  0
  -24.1660   -0.6898  -13.2934 C   0  0  0  0  0  0  0  0  0  0  0  0
  -24.8848   -1.2671  -14.3039 C   0  0  0  0  0  0  0  0  0  0  0  0
  -26.1977   -1.6507  -14.0922 C   0  0  0  0  0  0  0  0  0  0  0  0
  -26.7455   -1.4505  -12.8452 C   0  0  0  0  0  0  0  0  0  0  0  0
  -26.0956   -0.8897  -11.8160 N   0  0  0  0  0  0  0  0  0  0  0  0
  -24.8094   -0.5397  -12.0682 C   0  0  0  0  0  0  0  0  0  0  0  0
 24 25  1  0  0  0
 25 26  1  0  0  0
 25 30  2  0  0  0
 26 27  2  0  0  0
 27 28  1  0  0  0
 28 29  2  0  0  0
 29 18  1  0  0  0
 29 30  1  0  0  0
 18 19  1  0  0  0
 18 22  1  0  0  0
 19 20  2  0  0  0
 19 21  1  0  0  0
 21 12  1  0  0  0
 21 23  1  0  0  0
 12 13  1  0  0  0
 12 17  2  0  0  0
 13 14  2  0  0  0
 14 15  1  0  0  0
 15  1  1  0  0  0
 15 16  2  0  0  0
  1  2  1  0  0  0
  1  6  2  0  0  0
  2  3  2  0  0  0
  3  4  1  0  0  0
  4 31  1  0  0  0
  4  5  2  0  0  0
 31 32  1  0  0  0
 31 34  1  0  0  0
 32 33  2  0  0  0
 32 35  1  0  0  0
 35 36  1  0  0  0
 35 40  2  0  0  0
 36 37  2  0  0  0
 37 38  1  0  0  0
 38 39  2  0  0  0
 39 40  1  0  0  0
  5  6  1  0  0  0
  5  9  1  0  0  0
  6  7  1  0  0  0
  7  8  1  0  0  0
  8  9  1  0  0  0
  8 11  1  0  0  0
  9 10  2  0  0  0
 16 17  1  0  0  0
M  END
> <minimizedAffinity>
-8.97469

$$$$
