CHEMBL3891395


 36 38  0  0  0  0  0  0  0  0999 V2000
  -25.4646   -1.6333  -12.4025 C   0  0  0  0  0  0  0  0  0  0  0  0
  -25.5595   -1.2370  -13.7382 C   0  0  0  0  0  0  0  0  0  0  0  0
  -24.4208   -0.9009  -14.4735 C   0  0  0  0  0  0  0  0  0  0  0  0
  -23.1714   -0.8690  -13.8584 C   0  0  0  0  0  0  0  0  0  0  0  0
  -23.0604   -1.2647  -12.5251 C   0  0  0  0  0  0  0  0  0  0  0  0
  -24.2011   -1.6378  -11.7979 C   0  0  0  0  0  0  0  0  0  0  0  0
  -25.7836   -1.5782   -9.5211 O   0  0  0  0  0  0  0  0  0  0  0  0
  -26.6731   -1.9903  -10.2550 C   0  0  0  0  0  0  0  0  0  0  0  0
  -26.5767   -2.0607  -11.6354 N   0  0  0  0  0  0  0  0  0  0  0  0
  -27.9150   -2.4179   -9.7990 N   0  0  0  0  0  0  0  0  0  0  0  0
  -27.4208   -2.2598  -12.1480 H   0  0  0  0  0  0  0  0  0  0  0  0
  -28.5271   -2.8443  -10.4779 H   0  0  0  0  0  0  0  0  0  0  0  0
  -28.3751   -2.3717   -8.4618 C   0  0  0  0  0  0  0  0  0  0  0  0
  -28.8531   -3.4816   -7.7666 C   0  0  0  0  0  0  0  0  0  0  0  0
  -29.3134   -3.3612   -6.4535 C   0  0  0  0  0  0  0  0  0  0  0  0
  -29.2808   -2.1322   -5.7961 C   0  0  0  0  0  0  0  0  0  0  0  0
  -29.9063   -2.1070   -4.1902 Cl  0  0  0  0  0  0  0  0  0  0  0  0
  -28.7647   -1.0078   -6.4460 C   0  0  0  0  0  0  0  0  0  0  0  0
  -28.3308   -1.1434   -7.7908 C   0  0  0  0  0  0  0  0  0  0  0  0
  -28.6051    0.3442   -5.8003 C   0  0  0  0  0  0  0  0  0  0  0  0
  -27.6579    0.4554   -4.8350 F   0  0  0  0  0  0  0  0  0  0  0  0
  -28.2939    1.3001   -6.7246 F   0  0  0  0  0  0  0  0  0  0  0  0
  -29.7667    0.7693   -5.2243 F   0  0  0  0  0  0  0  0  0  0  0  0
  -22.0056   -0.5128  -14.5017 O   0  0  0  0  0  0  0  0  0  0  0  0
  -21.5856    0.8007  -14.4760 C   0  0  0  0  0  0  0  0  0  0  0  0
  -22.3591    1.8577  -13.9963 C   0  0  0  0  0  0  0  0  0  0  0  0
  -21.8440    3.1392  -14.0668 C   0  0  0  0  0  0  0  0  0  0  0  0
  -20.6053    3.4250  -14.5159 N   0  0  0  0  0  0  0  0  0  0  0  0
  -19.8441    2.3647  -14.9098 C   0  0  0  0  0  0  0  0  0  0  0  0
  -20.2865    1.0482  -14.9109 C   0  0  0  0  0  0  0  0  0  0  0  0
  -18.4551    2.6866  -15.3541 C   0  0  0  0  0  0  0  0  0  0  0  0
  -17.6883    1.8429  -15.8070 O   0  0  0  0  0  0  0  0  0  0  0  0
  -18.1008    4.0063  -15.2041 N   0  0  0  0  0  0  0  0  0  0  0  0
  -16.7994    4.3872  -15.5851 O   0  0  0  0  0  0  0  0  0  0  0  0
  -18.7287    4.7030  -14.8133 H   0  0  0  0  0  0  0  0  0  0  0  0
  -16.4185    3.5382  -15.8965 H   0  0  0  0  0  0  0  0  0  0  0  0
  7  8  2  0  0  0
  8  9  1  0  0  0
  8 10  1  0  0  0
  9  1  1  0  0  0
  9 11  1  0  0  0
  1  2  1  0  0  0
  1  6  2  0  0  0
  2  3  2  0  0  0
  3  4  1  0  0  0
  4 24  1  0  0  0
  4  5  2  0  0  0
 24 25  1  0  0  0
 25 26  1  0  0  0
 25 30  2  0  0  0
 26 27  2  0  0  0
 27 28  1  0  0  0
 28 29  2  0  0  0
 29 31  1  0  0  0
 29 30  1  0  0  0
 31 32  2  0  0  0
 31 33  1  0  0  0
 33 34  1  0  0  0
 33 35  1  0  0  0
 34 36  1  0  0  0
  5  6  1  0  0  0
 10 13  1  0  0  0
 10 12  1  0  0  0
 13 14  1  0  0  0
 13 19  2  0  0  0
 14 15  2  0  0  0
 15 16  1  0  0  0
 16 17  1  0  0  0
 16 18  2  0  0  0
 18 20  1  0  0  0
 18 19  1  0  0  0
 20 21  1  0  0  0
 20 22  1  0  0  0
 20 23  1  0  0  0
M  END
> <minimizedAffinity>
-11.75481

$$$$
