CHEMBL3321905


 29 33  0  0  0  0  0  0  0  0999 V2000
  -28.3909   -6.4428   -4.4934 C   0  0  0  0  0  0  0  0  0  0  0  0
  -29.2646   -7.3994   -4.2435 N   0  0  0  0  0  0  0  0  0  0  0  0
  -28.5370   -8.5546   -4.1206 C   0  0  0  0  0  0  0  0  0  0  0  0
  -28.9703   -9.8542   -3.8520 C   0  0  0  0  0  0  0  0  0  0  0  0
  -28.0120  -10.8739   -3.8022 C   0  0  0  0  0  0  0  0  0  0  0  0
  -26.6385  -10.6271   -3.9867 C   0  0  0  0  0  0  0  0  0  0  0  0
  -26.2089   -9.3221   -4.2844 C   0  0  0  0  0  0  0  0  0  0  0  0
  -27.1848   -8.3177   -4.3240 C   0  0  0  0  0  0  0  0  0  0  0  0
  -27.1194   -6.9688   -4.5573 N   0  0  0  0  0  0  0  0  0  0  0  0
  -26.2834   -6.4477   -4.7694 H   0  0  0  0  0  0  0  0  0  0  0  0
  -29.6580   -0.4809   -5.3448 Br  0  0  0  0  0  0  0  0  0  0  0  0
  -29.2678   -2.3132   -5.0949 C   0  0  0  0  0  0  0  0  0  0  0  0
  -29.9546   -3.2726   -5.8340 C   0  0  0  0  0  0  0  0  0  0  0  0
  -29.6733   -4.6293   -5.6464 C   0  0  0  0  0  0  0  0  0  0  0  0
  -28.7039   -5.0327   -4.7173 C   0  0  0  0  0  0  0  0  0  0  0  0
  -28.0096   -4.0516   -3.9944 C   0  0  0  0  0  0  0  0  0  0  0  0
  -28.2938   -2.6930   -4.1776 C   0  0  0  0  0  0  0  0  0  0  0  0
  -25.7084  -11.6953   -4.0084 N   0  0  0  0  0  0  0  0  0  0  0  0
  -25.9514  -12.4410   -4.6490 H   0  0  0  0  0  0  0  0  0  0  0  0
  -24.2989  -11.5544   -3.9388 C   0  0  0  0  0  0  0  0  0  0  0  0
  -23.7432  -11.3816   -2.7244 N   0  0  0  0  0  0  0  0  0  0  0  0
  -22.4132  -11.3195   -2.6720 C   0  0  0  0  0  0  0  0  0  0  0  0
  -21.5811  -11.4198   -3.7109 N   0  0  0  0  0  0  0  0  0  0  0  0
  -22.1404  -11.5781   -4.9136 C   0  0  0  0  0  0  0  0  0  0  0  0
  -21.3041  -11.7283   -6.0115 C   0  0  0  0  0  0  0  0  0  0  0  0
  -21.8044  -11.9006   -7.3042 C   0  0  0  0  0  0  0  0  0  0  0  0
  -23.1765  -11.9162   -7.5150 C   0  0  0  0  0  0  0  0  0  0  0  0
  -24.0385  -11.7827   -6.4272 C   0  0  0  0  0  0  0  0  0  0  0  0
  -23.5281  -11.6218   -5.1135 C   0  0  0  0  0  0  0  0  0  0  0  0
 11 12  1  0  0  0
 12 13  1  0  0  0
 12 17  2  0  0  0
 13 14  2  0  0  0
 14 15  1  0  0  0
 15  1  1  0  0  0
 15 16  2  0  0  0
  1  2  2  0  0  0
  1  9  1  0  0  0
  2  3  1  0  0  0
  3  4  1  0  0  0
  3  8  2  0  0  0
  4  5  2  0  0  0
  5  6  1  0  0  0
  6 18  1  0  0  0
  6  7  2  0  0  0
 18 20  1  0  0  0
 18 19  1  0  0  0
 20 21  1  0  0  0
 20 29  2  0  0  0
 21 22  2  0  0  0
 22 23  1  0  0  0
 23 24  2  0  0  0
 24 25  1  0  0  0
 24 29  1  0  0  0
 25 26  2  0  0  0
 26 27  1  0  0  0
 27 28  2  0  0  0
 28 29  1  0  0  0
  7  8  1  0  0  0
  8  9  1  0  0  0
  9 10  1  0  0  0
 16 17  1  0  0  0
M  END
> <minimizedAffinity>
-8.74040

$$$$
