CHEMBL3648125


 30 31  0  0  0  0  0  0  0  0999 V2000
  -15.3621    0.2675  -13.8415 C   0  0  0  0  0  0  0  0  0  0  0  0
  -14.3054    0.9630  -14.2712 N   0  0  0  0  0  0  0  0  0  0  0  0
  -14.5639    2.0001  -15.0894 C   0  0  0  0  0  0  0  0  0  0  0  0
  -15.8386    2.3773  -15.4676 C   0  0  0  0  0  0  0  0  0  0  0  0
  -16.0876    3.9296  -16.5116 Br  0  0  0  0  0  0  0  0  0  0  0  0
  -16.8891    1.6078  -14.9848 C   0  0  0  0  0  0  0  0  0  0  0  0
  -16.6332    0.5663  -14.1745 N   0  0  0  0  0  0  0  0  0  0  0  0
  -15.0872   -0.7997  -12.9843 N   0  0  0  0  0  0  0  0  0  0  0  0
  -14.5478   -0.4793  -12.1948 H   0  0  0  0  0  0  0  0  0  0  0  0
  -16.7698   -5.3379  -12.0183 C   0  0  0  0  0  0  0  0  0  0  0  0
  -15.8306   -4.4652  -12.8003 C   0  0  0  0  0  0  0  0  0  0  0  0
  -15.8932   -3.0833  -12.5944 C   0  0  0  0  0  0  0  0  0  0  0  0
  -15.0589   -2.1736  -13.2534 C   0  0  0  0  0  0  0  0  0  0  0  0
  -14.1176   -2.6875  -14.1465 C   0  0  0  0  0  0  0  0  0  0  0  0
  -14.0321   -4.0635  -14.3798 C   0  0  0  0  0  0  0  0  0  0  0  0
  -14.8909   -4.9595  -13.7218 C   0  0  0  0  0  0  0  0  0  0  0  0
  -14.7525   -6.7150  -14.0345 S   0  0  0  0  0  0  0  0  0  0  0  0
  -14.3759   -7.4525  -12.4662 C   0  0  0  0  0  0  0  0  0  0  0  0
  -16.1698   -7.1655  -14.4458 N   0  0  0  0  0  0  0  0  0  0  0  0
  -13.5541   -6.9234  -14.8263 O   0  0  0  0  0  0  0  0  0  0  0  0
  -16.8390   -7.1564  -13.6764 H   0  0  0  0  0  0  0  0  0  0  0  0
  -18.2149    1.8094  -15.4369 N   0  0  0  0  0  0  0  0  0  0  0  0
  -18.2395    2.5182  -16.1682 H   0  0  0  0  0  0  0  0  0  0  0  0
  -19.2500    2.0443  -14.3932 C   0  0  0  0  0  0  0  0  0  0  0  0
  -19.4655    3.5586  -14.2463 C   0  0  0  0  0  0  0  0  0  0  0  0
  -20.5880    1.3167  -14.7896 C   0  0  0  0  0  0  0  0  0  0  0  0
  -20.3166   -0.0156  -15.4970 C   0  0  0  0  0  0  0  0  0  0  0  0
  -21.4865    1.0420  -13.5737 C   0  0  0  0  0  0  0  0  0  0  0  0
  -21.3454    2.1460  -15.6866 O   0  0  0  0  0  0  0  0  0  0  0  0
  -20.8274    2.1954  -16.5094 H   0  0  0  0  0  0  0  0  0  0  0  0
 10 11  1  0  0  0
 11 12  1  0  0  0
 11 16  2  0  0  0
 12 13  2  0  0  0
 13  8  1  0  0  0
 13 14  1  0  0  0
  8  1  1  0  0  0
  8  9  1  0  0  0
  1  2  1  0  0  0
  1  7  2  0  0  0
  2  3  2  0  0  0
  3  4  1  0  0  0
  4  5  1  0  0  0
  4  6  2  0  0  0
  6 22  1  0  0  0
  6  7  1  0  0  0
 22 24  1  0  0  0
 22 23  1  0  0  0
 24 25  1  0  0  0
 24 26  1  0  0  0
 26 27  1  0  0  0
 26 28  1  0  0  0
 26 29  1  0  0  0
 29 30  1  0  0  0
 14 15  2  0  0  0
 15 16  1  0  0  0
 16 17  1  0  0  0
 17 18  1  0  0  0
 17 19  2  0  0  0
 17 20  2  0  0  0
 19 21  1  0  0  0
M  END
> <minimizedAffinity>
-7.30487

$$$$
