CHEMBL510788


 34 37  0  0  0  0  0  0  0  0999 V2000
  -23.2117   -0.3571  -13.2167 C   0  0  0  0  0  0  0  0  0  0  0  0
  -22.9895   -0.8852  -11.9444 C   0  0  0  0  0  0  0  0  0  0  0  0
  -24.0001   -1.5976  -11.2929 C   0  0  0  0  0  0  0  0  0  0  0  0
  -25.2514   -1.7847  -11.8902 C   0  0  0  0  0  0  0  0  0  0  0  0
  -25.4551   -1.3019  -13.1867 C   0  0  0  0  0  0  0  0  0  0  0  0
  -24.4441   -0.5802  -13.8419 C   0  0  0  0  0  0  0  0  0  0  0  0
  -23.1008    2.6129  -13.3820 N   0  0  0  0  0  0  0  0  0  0  0  0
  -22.1352    1.7707  -13.9348 C   0  0  0  0  0  0  0  0  0  0  0  0
  -22.1507    0.4206  -13.8670 C   0  0  0  0  0  0  0  0  0  0  0  0
  -21.0300   -0.2788  -14.5762 C   0  0  0  0  0  0  0  0  0  0  0  0
  -20.0434    0.2746  -15.2150 N   0  0  0  0  0  0  0  0  0  0  0  0
  -20.0484    1.6393  -15.2350 C   0  0  0  0  0  0  0  0  0  0  0  0
  -19.1837    2.5465  -15.8014 C   0  0  0  0  0  0  0  0  0  0  0  0
  -19.7042    3.8056  -15.4715 C   0  0  0  0  0  0  0  0  0  0  0  0
  -20.8209    3.7332  -14.7439 N   0  0  0  0  0  0  0  0  0  0  0  0
  -21.0543    2.3910  -14.6180 N   0  0  0  0  0  0  0  0  0  0  0  0
  -23.5856    2.2320  -12.5757 H   0  0  0  0  0  0  0  0  0  0  0  0
  -22.7437    3.5629  -13.2542 H   0  0  0  0  0  0  0  0  0  0  0  0
  -26.3104   -2.4534  -11.2261 N   0  0  0  0  0  0  0  0  0  0  0  0
  -26.7344   -2.1351   -9.9475 C   0  0  0  0  0  0  0  0  0  0  0  0
  -26.3327   -1.1694   -9.3020 O   0  0  0  0  0  0  0  0  0  0  0  0
  -27.6639   -3.0431   -9.4613 N   0  0  0  0  0  0  0  0  0  0  0  0
  -26.9886   -2.9327  -11.8011 H   0  0  0  0  0  0  0  0  0  0  0  0
  -27.4999   -3.9976   -9.7479 H   0  0  0  0  0  0  0  0  0  0  0  0
  -28.2702   -2.8496   -8.1956 C   0  0  0  0  0  0  0  0  0  0  0  0
  -29.0237   -3.8616   -7.5894 C   0  0  0  0  0  0  0  0  0  0  0  0
  -29.6431   -3.6454   -6.3584 C   0  0  0  0  0  0  0  0  0  0  0  0
  -29.5387   -2.4036   -5.7376 C   0  0  0  0  0  0  0  0  0  0  0  0
  -28.8007   -1.3715   -6.3366 C   0  0  0  0  0  0  0  0  0  0  0  0
  -28.1339   -1.6185   -7.5531 C   0  0  0  0  0  0  0  0  0  0  0  0
  -28.7654    0.0062   -5.7246 C   0  0  0  0  0  0  0  0  0  0  0  0
  -28.0305    0.0795   -4.5800 F   0  0  0  0  0  0  0  0  0  0  0  0
  -28.2406    0.9380   -6.5671 F   0  0  0  0  0  0  0  0  0  0  0  0
  -30.0084    0.4584   -5.3972 F   0  0  0  0  0  0  0  0  0  0  0  0
  7  8  1  0  0  0
  7 17  1  0  0  0
  7 18  1  0  0  0
  8  9  2  0  0  0
  8 16  1  0  0  0
  9  1  1  0  0  0
  9 10  1  0  0  0
  1  2  1  0  0  0
  1  6  2  0  0  0
  2  3  2  0  0  0
  3  4  1  0  0  0
  4 19  1  0  0  0
  4  5  2  0  0  0
 19 20  1  0  0  0
 19 23  1  0  0  0
 20 21  2  0  0  0
 20 22  1  0  0  0
 22 25  1  0  0  0
 22 24  1  0  0  0
 25 26  1  0  0  0
 25 30  2  0  0  0
 26 27  2  0  0  0
 27 28  1  0  0  0
 28 29  2  0  0  0
 29 31  1  0  0  0
 29 30  1  0  0  0
 31 32  1  0  0  0
 31 33  1  0  0  0
 31 34  1  0  0  0
  5  6  1  0  0  0
 10 11  2  0  0  0
 11 12  1  0  0  0
 12 13  2  0  0  0
 12 16  1  0  0  0
 13 14  1  0  0  0
 14 15  2  0  0  0
 15 16  1  0  0  0
M  END
> <minimizedAffinity>
-11.37475

$$$$
