CHEMBL255959


 36 42  0  0  0  0  0  0  0  0999 V2000
  -15.8832    0.9998  -14.7895 N   0  0  0  0  0  0  0  0  0  0  0  0
  -15.1262    2.1829  -14.9754 C   0  0  0  0  0  0  0  0  0  0  0  0
  -15.3693    3.3772  -15.6927 C   0  0  0  0  0  0  0  0  0  0  0  0
  -14.3353    4.3449  -15.7813 C   0  0  0  0  0  0  0  0  0  0  0  0
  -13.1086    4.1552  -15.1399 C   0  0  0  0  0  0  0  0  0  0  0  0
  -12.9024    2.9854  -14.4081 C   0  0  0  0  0  0  0  0  0  0  0  0
  -13.8778    1.9812  -14.3681 C   0  0  0  0  0  0  0  0  0  0  0  0
  -13.9352    0.6695  -13.9657 C   0  0  0  0  0  0  0  0  0  0  0  0
  -12.7837   -0.0981  -13.7380 C   0  0  0  0  0  0  0  0  0  0  0  0
  -12.9545   -1.4854  -13.8372 C   0  0  0  0  0  0  0  0  0  0  0  0
  -14.2045   -2.1074  -14.0084 C   0  0  0  0  0  0  0  0  0  0  0  0
  -15.3069   -1.2720  -13.6194 C   0  0  0  0  0  0  0  0  0  0  0  0
  -15.1583    0.0701  -14.0387 C   0  0  0  0  0  0  0  0  0  0  0  0
  -15.8502   -1.6678  -12.1788 C   0  0  0  0  0  0  0  0  0  0  0  0
  -14.9632   -2.7329  -11.4076 C   0  0  0  0  0  0  0  0  0  0  0  0
  -14.7126   -3.8461  -12.3623 C   0  0  0  0  0  0  0  0  0  0  0  0
  -15.1033   -5.1151  -12.2555 N   0  0  0  0  0  0  0  0  0  0  0  0
  -15.0343   -5.5513  -13.5394 N   0  0  0  0  0  0  0  0  0  0  0  0
  -15.5325   -6.8630  -13.8745 C   0  0  0  0  0  0  0  0  0  0  0  0
  -14.7004   -4.5674  -14.4387 C   0  0  0  0  0  0  0  0  0  0  0  0
  -14.3264   -3.4999  -13.6659 C   0  0  0  0  0  0  0  0  0  0  0  0
  -11.6561   -2.0864  -13.5779 C   0  0  0  0  0  0  0  0  0  0  0  0
  -11.2760   -3.2478  -13.4935 O   0  0  0  0  0  0  0  0  0  0  0  0
  -10.8212   -1.0178  -13.3316 N   0  0  0  0  0  0  0  0  0  0  0  0
  -11.4003    0.2963  -13.4699 C   0  0  0  0  0  0  0  0  0  0  0  0
   -9.8720   -1.1911  -13.0421 H   0  0  0  0  0  0  0  0  0  0  0  0
  -11.8946    5.0171  -15.2840 C   0  0  0  0  0  0  0  0  0  0  0  0
  -10.8220    4.4700  -15.0066 O   0  0  0  0  0  0  0  0  0  0  0  0
  -11.9731    6.4088  -15.6855 C   0  0  0  0  0  0  0  0  0  0  0  0
  -11.9712    7.5760  -14.9472 C   0  0  0  0  0  0  0  0  0  0  0  0
  -11.9888    8.7416  -15.7739 C   0  0  0  0  0  0  0  0  0  0  0  0
  -11.9973    8.4303  -17.1139 C   0  0  0  0  0  0  0  0  0  0  0  0
  -11.9878    6.7471  -17.3752 S   0  0  0  0  0  0  0  0  0  0  0  0
  -17.1613    0.7438  -15.4455 C   0  0  0  0  0  0  0  0  0  0  0  0
  -19.7128    0.7677  -15.1347 C   0  0  0  0  0  0  0  0  0  0  0  0
  -18.3809    1.4230  -14.7995 C   0  0  0  0  0  0  0  0  0  0  0  0
 35 36  1  0  0  0
 36 34  1  0  0  0
 34  1  1  0  0  0
  1  2  1  0  0  0
  1 13  1  0  0  0
  2  3  1  0  0  0
  2  7  2  0  0  0
  3  4  2  0  0  0
  4  5  1  0  0  0
  5 27  1  0  0  0
  5  6  2  0  0  0
 27 28  2  0  0  0
 27 29  1  0  0  0
 29 30  2  0  0  0
 29 33  1  0  0  0
 30 31  1  0  0  0
 31 32  2  0  0  0
 32 33  1  0  0  0
  6  7  1  0  0  0
  7  8  1  0  0  0
  8  9  1  0  0  0
  8 13  2  0  0  0
  9 10  2  0  0  0
  9 25  1  0  0  0
 10 11  1  0  0  0
 10 22  1  0  0  0
 11 12  2  0  0  0
 11 21  1  0  0  0
 12 13  1  0  0  0
 12 14  1  0  0  0
 14 15  1  0  0  0
 15 16  1  0  0  0
 16 17  2  0  0  0
 16 21  1  0  0  0
 17 18  1  0  0  0
 18 19  1  0  0  0
 18 20  1  0  0  0
 20 21  2  0  0  0
 22 23  2  0  0  0
 22 24  1  0  0  0
 24 25  1  0  0  0
 24 26  1  0  0  0
M  END
> <minimizedAffinity>
-7.72526

$$$$
