CHEMBL304271


 43 46  0  0  0  0  0  0  0  0999 V2000
  -13.4407   -0.0909  -16.7277 C   0  0  0  0  0  0  0  0  0  0  0  0
  -12.7354    0.7253  -15.9240 C   0  0  0  0  0  0  0  0  0  0  0  0
  -11.4929    0.4711  -15.1081 C   0  0  0  0  0  0  0  0  0  0  0  0
  -10.9098   -0.5860  -14.9397 O   0  0  0  0  0  0  0  0  0  0  0  0
  -11.1302    1.6998  -14.5936 N   0  0  0  0  0  0  0  0  0  0  0  0
  -12.0304    2.6896  -14.9534 C   0  0  0  0  0  0  0  0  0  0  0  0
  -11.9207    3.9568  -14.5585 N   0  0  0  0  0  0  0  0  0  0  0  0
  -12.9255    4.7302  -14.9877 C   0  0  0  0  0  0  0  0  0  0  0  0
  -13.9809    4.3263  -15.7239 N   0  0  0  0  0  0  0  0  0  0  0  0
  -14.0509    3.0228  -16.0735 C   0  0  0  0  0  0  0  0  0  0  0  0
  -13.0420    2.1556  -15.7275 C   0  0  0  0  0  0  0  0  0  0  0  0
  -10.3293    1.8688  -14.0047 H   0  0  0  0  0  0  0  0  0  0  0  0
  -13.3805   -3.7144  -16.5408 C   0  0  0  0  0  0  0  0  0  0  0  0
  -13.0116   -3.5491  -17.8619 C   0  0  0  0  0  0  0  0  0  0  0  0
  -12.9499   -2.1609  -18.1519 C   0  0  0  0  0  0  0  0  0  0  0  0
  -12.5906   -1.5956  -19.4814 C   0  0  0  0  0  0  0  0  0  0  0  0
  -13.2970   -1.4852  -16.9857 C   0  0  0  0  0  0  0  0  0  0  0  0
  -13.5278   -2.4449  -16.0268 N   0  0  0  0  0  0  0  0  0  0  0  0
  -13.7821   -2.2469  -15.0665 H   0  0  0  0  0  0  0  0  0  0  0  0
  -13.6947   -4.8966  -14.4789 N   0  0  0  0  0  0  0  0  0  0  0  0
  -13.5619   -4.9739  -15.8490 C   0  0  0  0  0  0  0  0  0  0  0  0
  -13.6044   -6.0528  -16.4362 O   0  0  0  0  0  0  0  0  0  0  0  0
  -13.9211   -4.0056  -14.0606 H   0  0  0  0  0  0  0  0  0  0  0  0
  -14.0675   -6.0716  -13.7069 C   0  0  0  0  0  0  0  0  0  0  0  0
  -15.5946   -6.1714  -13.5589 C   0  0  0  0  0  0  0  0  0  0  0  0
  -16.0799   -7.0665  -14.5750 O   0  0  0  0  0  0  0  0  0  0  0  0
  -16.1708   -6.5546  -15.3960 H   0  0  0  0  0  0  0  0  0  0  0  0
  -16.2521   -4.7675  -13.6717 C   0  0  0  0  0  0  0  0  0  0  0  0
  -15.7123   -3.7357  -12.7547 N   0  0  0  0  0  0  0  0  0  0  0  0
  -14.8537   -1.3637  -12.9616 C   0  0  0  0  0  0  0  0  0  0  0  0
  -15.9544   -2.3755  -13.2687 C   0  0  0  0  0  0  0  0  0  0  0  0
  -16.1672   -3.9389  -11.3674 C   0  0  0  0  0  0  0  0  0  0  0  0
  -15.0856   -4.0085  -10.2914 C   0  0  0  0  0  0  0  0  0  0  0  0
  -15.2035    2.5372  -16.7240 N   0  0  0  0  0  0  0  0  0  0  0  0
  -14.9216    1.9352  -17.4934 H   0  0  0  0  0  0  0  0  0  0  0  0
  -16.4082    2.1244  -16.1236 C   0  0  0  0  0  0  0  0  0  0  0  0
  -16.5373    0.8631  -15.5245 C   0  0  0  0  0  0  0  0  0  0  0  0
  -17.7125    0.4979  -14.8659 C   0  0  0  0  0  0  0  0  0  0  0  0
  -18.7650    1.4016  -14.7924 C   0  0  0  0  0  0  0  0  0  0  0  0
  -19.8867    1.0335  -14.1574 F   0  0  0  0  0  0  0  0  0  0  0  0
  -18.6469    2.6682  -15.3560 C   0  0  0  0  0  0  0  0  0  0  0  0
  -19.9406    3.8004  -15.2556 Cl  0  0  0  0  0  0  0  0  0  0  0  0
  -17.4671    3.0358  -16.0062 C   0  0  0  0  0  0  0  0  0  0  0  0
 30 31  1  0  0  0
 31 29  1  0  0  0
 29 32  1  0  0  0
 29 28  1  0  0  0
 32 33  1  0  0  0
 28 25  1  0  0  0
 25 26  1  0  0  0
 25 24  1  0  0  0
 26 27  1  0  0  0
 24 20  1  0  0  0
 20 21  1  0  0  0
 20 23  1  0  0  0
 21 22  2  0  0  0
 21 13  1  0  0  0
 13 14  2  0  0  0
 13 18  1  0  0  0
 14 15  1  0  0  0
 15 16  1  0  0  0
 15 17  2  0  0  0
 17  1  1  0  0  0
 17 18  1  0  0  0
  1  2  2  0  0  0
  2  3  1  0  0  0
  2 11  1  0  0  0
  3  4  2  0  0  0
  3  5  1  0  0  0
  5  6  1  0  0  0
  5 12  1  0  0  0
  6  7  1  0  0  0
  6 11  2  0  0  0
  7  8  2  0  0  0
  8  9  1  0  0  0
  9 10  2  0  0  0
 10 34  1  0  0  0
 10 11  1  0  0  0
 34 36  1  0  0  0
 34 35  1  0  0  0
 36 37  1  0  0  0
 36 43  2  0  0  0
 37 38  2  0  0  0
 38 39  1  0  0  0
 39 40  1  0  0  0
 39 41  2  0  0  0
 41 42  1  0  0  0
 41 43  1  0  0  0
 18 19  1  0  0  0
M  END
> <minimizedAffinity>
-7.34804

$$$$
