CHEMBL3656086


 45 49  0  0  0  0  0  0  0  0999 V2000
  -16.3487    3.8254  -15.8880 C   0  0  0  0  0  0  0  0  0  0  0  0
  -15.6242    4.5004  -16.8661 C   0  0  0  0  0  0  0  0  0  0  0  0
  -14.2975    4.1545  -17.0482 C   0  0  0  0  0  0  0  0  0  0  0  0
  -13.6800    3.1616  -16.3741 N   0  0  0  0  0  0  0  0  0  0  0  0
  -14.4254    2.4814  -15.4683 C   0  0  0  0  0  0  0  0  0  0  0  0
  -15.7498    2.7818  -15.1926 C   0  0  0  0  0  0  0  0  0  0  0  0
  -13.7224    1.3915  -14.8058 C   0  0  0  0  0  0  0  0  0  0  0  0
  -14.0520    0.0630  -14.6002 C   0  0  0  0  0  0  0  0  0  0  0  0
  -12.9863   -0.5753  -13.8975 C   0  0  0  0  0  0  0  0  0  0  0  0
  -12.0527    0.4166  -13.6512 C   0  0  0  0  0  0  0  0  0  0  0  0
  -12.4853    1.5767  -14.2332 N   0  0  0  0  0  0  0  0  0  0  0  0
  -11.9999    2.4659  -14.2408 H   0  0  0  0  0  0  0  0  0  0  0  0
  -12.9469   -1.9779  -13.4850 C   0  0  0  0  0  0  0  0  0  0  0  0
  -11.9287   -2.6526  -13.6406 O   0  0  0  0  0  0  0  0  0  0  0  0
  -14.0704   -2.5046  -12.8693 N   0  0  0  0  0  0  0  0  0  0  0  0
  -15.2491   -1.7923  -12.4143 C   0  0  0  0  0  0  0  0  0  0  0  0
  -15.6977   -2.5848  -11.1996 C   0  0  0  0  0  0  0  0  0  0  0  0
  -15.3268   -4.0283  -11.5491 C   0  0  0  0  0  0  0  0  0  0  0  0
  -14.1279   -3.9041  -12.4863 C   0  0  0  0  0  0  0  0  0  0  0  0
  -16.4694   -4.7444  -12.2310 C   0  0  0  0  0  0  0  0  0  0  0  0
  -16.7236   -4.6710  -13.4235 O   0  0  0  0  0  0  0  0  0  0  0  0
  -17.2108   -5.4935  -11.3848 O   0  0  0  0  0  0  0  0  0  0  0  0
  -16.9308   -5.4650  -10.4505 H   0  0  0  0  0  0  0  0  0  0  0  0
  -17.6688    4.0648  -15.5789 O   0  0  0  0  0  0  0  0  0  0  0  0
  -20.4615    0.9956  -15.1541 C   0  0  0  0  0  0  0  0  0  0  0  0
  -20.8533    2.3378  -15.1711 C   0  0  0  0  0  0  0  0  0  0  0  0
  -19.8914    3.3439  -15.3065 C   0  0  0  0  0  0  0  0  0  0  0  0
  -18.5412    3.0111  -15.4421 C   0  0  0  0  0  0  0  0  0  0  0  0
  -18.1574    1.6700  -15.4943 C   0  0  0  0  0  0  0  0  0  0  0  0
  -19.1109    0.6793  -15.2971 C   0  0  0  0  0  0  0  0  0  0  0  0
  -18.7282   -0.6072  -15.2994 F   0  0  0  0  0  0  0  0  0  0  0  0
  -23.1550   -1.1436  -14.0128 N   0  0  0  0  0  0  0  0  0  0  0  0
  -22.3209   -0.0387  -13.9890 C   0  0  0  0  0  0  0  0  0  0  0  0
  -22.3895    0.9039  -13.2114 O   0  0  0  0  0  0  0  0  0  0  0  0
  -21.4007   -0.0619  -15.0317 N   0  0  0  0  0  0  0  0  0  0  0  0
  -23.0474   -1.7724  -14.7964 H   0  0  0  0  0  0  0  0  0  0  0  0
  -21.7902   -0.3708  -15.9131 H   0  0  0  0  0  0  0  0  0  0  0  0
  -28.0097   -1.9786  -13.5448 C   0  0  0  0  0  0  0  0  0  0  0  0
  -26.6585   -1.7660  -12.9181 C   0  0  0  0  0  0  0  0  0  0  0  0
  -26.5402   -1.7466  -11.5259 C   0  0  0  0  0  0  0  0  0  0  0  0
  -25.2907   -1.5877  -10.9413 C   0  0  0  0  0  0  0  0  0  0  0  0
  -24.1579   -1.4335  -11.7373 C   0  0  0  0  0  0  0  0  0  0  0  0
  -22.9886   -1.4151  -11.0880 F   0  0  0  0  0  0  0  0  0  0  0  0
  -24.2466   -1.3850  -13.1355 C   0  0  0  0  0  0  0  0  0  0  0  0
  -25.5127   -1.5843  -13.7167 C   0  0  0  0  0  0  0  0  0  0  0  0
 38 39  1  0  0  0
 39 40  1  0  0  0
 39 45  2  0  0  0
 40 41  2  0  0  0
 41 42  1  0  0  0
 42 43  1  0  0  0
 42 44  2  0  0  0
 44 32  1  0  0  0
 44 45  1  0  0  0
 32 33  1  0  0  0
 32 36  1  0  0  0
 33 34  2  0  0  0
 33 35  1  0  0  0
 35 25  1  0  0  0
 35 37  1  0  0  0
 25 26  1  0  0  0
 25 30  2  0  0  0
 26 27  2  0  0  0
 27 28  1  0  0  0
 28 24  1  0  0  0
 28 29  2  0  0  0
 24  1  1  0  0  0
  1  2  1  0  0  0
  1  6  2  0  0  0
  2  3  2  0  0  0
  3  4  1  0  0  0
  4  5  2  0  0  0
  5  7  1  0  0  0
  5  6  1  0  0  0
  7  8  2  0  0  0
  7 11  1  0  0  0
  8  9  1  0  0  0
  9 13  1  0  0  0
  9 10  2  0  0  0
 13 14  2  0  0  0
 13 15  1  0  0  0
 15 16  1  0  0  0
 15 19  1  0  0  0
 16 17  1  0  0  0
 17 18  1  0  0  0
 18 20  1  0  0  0
 18 19  1  0  0  0
 20 21  2  0  0  0
 20 22  1  0  0  0
 22 23  1  0  0  0
 10 11  1  0  0  0
 11 12  1  0  0  0
 29 30  1  0  0  0
 30 31  1  0  0  0
M  END
> <minimizedAffinity>
-11.20902

$$$$
