CHEMBL4248513


 27 30  0  0  0  0  0  0  0  0999 V2000
  -29.8559   -6.4842   -6.2223 C   0  0  0  0  0  0  0  0  0  0  0  0
  -29.5318   -7.0138   -5.0232 N   0  0  0  0  0  0  0  0  0  0  0  0
  -28.9842   -6.1979   -4.1084 C   0  0  0  0  0  0  0  0  0  0  0  0
  -28.7859   -4.8633   -4.3390 C   0  0  0  0  0  0  0  0  0  0  0  0
  -29.0150   -4.4290   -5.6342 C   0  0  0  0  0  0  0  0  0  0  0  0
  -29.5380   -5.2321   -6.5836 N   0  0  0  0  0  0  0  0  0  0  0  0
  -28.9167   -2.9823   -5.9135 C   0  0  0  0  0  0  0  0  0  0  0  0
  -28.0764   -2.4418   -6.8947 C   0  0  0  0  0  0  0  0  0  0  0  0
  -27.9620   -1.0505   -7.0330 C   0  0  0  0  0  0  0  0  0  0  0  0
  -28.7696   -0.1977   -6.2764 C   0  0  0  0  0  0  0  0  0  0  0  0
  -28.6502    1.5066   -6.4811 Cl  0  0  0  0  0  0  0  0  0  0  0  0
  -29.5928   -0.7070   -5.2821 C   0  0  0  0  0  0  0  0  0  0  0  0
  -29.5544   -2.0759   -5.0301 C   0  0  0  0  0  0  0  0  0  0  0  0
  -29.9247   -2.6305   -3.3454 S   0  0  0  0  0  0  0  0  0  0  0  0
  -28.5369   -3.8528   -3.2687 C   0  0  0  0  0  0  0  0  0  0  0  0
  -30.6497   -7.3337   -6.9993 N   0  0  0  0  0  0  0  0  0  0  0  0
  -31.6105   -7.0242   -6.9514 H   0  0  0  0  0  0  0  0  0  0  0  0
  -29.7689  -10.7737   -9.3046 C   0  0  0  0  0  0  0  0  0  0  0  0
  -28.9066   -9.6731   -9.3149 C   0  0  0  0  0  0  0  0  0  0  0  0
  -29.2048   -8.5135   -8.5926 C   0  0  0  0  0  0  0  0  0  0  0  0
  -30.3761   -8.4081   -7.8496 C   0  0  0  0  0  0  0  0  0  0  0  0
  -31.2767   -9.4845   -7.9068 C   0  0  0  0  0  0  0  0  0  0  0  0
  -30.9799  -10.6679   -8.6062 C   0  0  0  0  0  0  0  0  0  0  0  0
  -28.1283  -12.3048  -10.0606 C   0  0  0  0  0  0  0  0  0  0  0  0
  -29.5000  -11.9221  -10.0007 O   0  0  0  0  0  0  0  0  0  0  0  0
  -31.9715  -11.6146   -8.5343 O   0  0  0  0  0  0  0  0  0  0  0  0
  -32.4084  -11.9659   -7.2259 C   0  0  0  0  0  0  0  0  0  0  0  0
 24 25  1  0  0  0
 25 18  1  0  0  0
 18 19  1  0  0  0
 18 23  2  0  0  0
 19 20  2  0  0  0
 20 21  1  0  0  0
 21 16  1  0  0  0
 21 22  2  0  0  0
 16  1  1  0  0  0
 16 17  1  0  0  0
  1  2  1  0  0  0
  1  6  2  0  0  0
  2  3  2  0  0  0
  3  4  1  0  0  0
  4  5  2  0  0  0
  4 15  1  0  0  0
  5  6  1  0  0  0
  5  7  1  0  0  0
  7  8  1  0  0  0
  7 13  2  0  0  0
  8  9  2  0  0  0
  9 10  1  0  0  0
 10 11  1  0  0  0
 10 12  2  0  0  0
 12 13  1  0  0  0
 13 14  1  0  0  0
 14 15  1  0  0  0
 22 23  1  0  0  0
 23 26  1  0  0  0
 26 27  1  0  0  0
M  END
> <minimizedAffinity>
-8.15738

$$$$
