CHEMBL221875


 25 28  0  0  0  0  0  0  0  0999 V2000
  -29.0430   -6.7627   -3.2361 N   0  0  0  0  0  0  0  0  0  0  0  0
  -29.2829   -7.0252   -2.2901 H   0  0  0  0  0  0  0  0  0  0  0  0
  -28.9730   -7.8978   -4.0531 C   0  0  0  0  0  0  0  0  0  0  0  0
  -28.8260   -7.7834   -5.4344 C   0  0  0  0  0  0  0  0  0  0  0  0
  -28.6110   -8.9120   -6.2302 C   0  0  0  0  0  0  0  0  0  0  0  0
  -28.6451  -10.1543   -5.6042 C   0  0  0  0  0  0  0  0  0  0  0  0
  -28.8268  -10.1958   -4.2287 C   0  0  0  0  0  0  0  0  0  0  0  0
  -28.9557   -9.1015   -3.4421 N   0  0  0  0  0  0  0  0  0  0  0  0
  -28.3255   -8.7625   -7.7057 C   0  0  0  0  0  0  0  0  0  0  0  0
  -28.2724   -9.9914   -8.5042 N   0  0  0  0  0  0  0  0  0  0  0  0
  -27.0019  -10.2687   -9.1675 C   0  0  0  0  0  0  0  0  0  0  0  0
  -27.2299   -9.9735  -10.6368 C   0  0  0  0  0  0  0  0  0  0  0  0
  -28.6934  -10.3017  -10.8538 C   0  0  0  0  0  0  0  0  0  0  0  0
  -29.3458  -10.1658   -9.4836 C   0  0  0  0  0  0  0  0  0  0  0  0
  -29.4008   -3.2077   -4.4372 C   0  0  0  0  0  0  0  0  0  0  0  0
  -30.6216   -3.8529   -4.4223 C   0  0  0  0  0  0  0  0  0  0  0  0
  -30.6068   -5.1685   -4.0227 N   0  0  0  0  0  0  0  0  0  0  0  0
  -29.3912   -5.5319   -3.6694 C   0  0  0  0  0  0  0  0  0  0  0  0
  -28.2093   -4.2793   -3.8180 S   0  0  0  0  0  0  0  0  0  0  0  0
  -28.4502    0.8242   -5.5072 C   0  0  0  0  0  0  0  0  0  0  0  0
  -27.4512   -0.0535   -5.0979 C   0  0  0  0  0  0  0  0  0  0  0  0
  -27.7748   -1.3696   -4.7641 C   0  0  0  0  0  0  0  0  0  0  0  0
  -29.0993   -1.8309   -4.8375 C   0  0  0  0  0  0  0  0  0  0  0  0
  -30.0960   -0.9334   -5.2463 C   0  0  0  0  0  0  0  0  0  0  0  0
  -29.7716    0.3863   -5.5805 C   0  0  0  0  0  0  0  0  0  0  0  0
 20 21  1  0  0  0
 20 25  2  0  0  0
 21 22  2  0  0  0
 22 23  1  0  0  0
 23 15  1  0  0  0
 23 24  2  0  0  0
 15 16  2  0  0  0
 15 19  1  0  0  0
 16 17  1  0  0  0
 17 18  2  0  0  0
 18  1  1  0  0  0
 18 19  1  0  0  0
  1  3  1  0  0  0
  1  2  1  0  0  0
  3  4  1  0  0  0
  3  8  2  0  0  0
  4  5  2  0  0  0
  5  9  1  0  0  0
  5  6  1  0  0  0
  9 10  1  0  0  0
 10 11  1  0  0  0
 10 14  1  0  0  0
 11 12  1  0  0  0
 12 13  1  0  0  0
 13 14  1  0  0  0
  6  7  2  0  0  0
  7  8  1  0  0  0
 24 25  1  0  0  0
M  END
> <minimizedAffinity>
-8.03657

$$$$
