CHEMBL3910444


 41 45  0  0  0  0  0  0  0  0999 V2000
  -27.6880   -9.2935   -4.0391 N   0  0  0  0  0  0  0  0  0  0  0  0
  -28.3620   -8.1345   -4.5850 C   0  0  0  0  0  0  0  0  0  0  0  0
  -29.2987   -8.4294   -5.5696 C   0  0  0  0  0  0  0  0  0  0  0  0
  -29.5300   -7.5278   -6.5892 C   0  0  0  0  0  0  0  0  0  0  0  0
  -29.0045   -6.2636   -6.5572 C   0  0  0  0  0  0  0  0  0  0  0  0
  -29.1302   -5.5937   -7.7036 N   0  0  0  0  0  0  0  0  0  0  0  0
  -28.8521   -4.2840   -7.6675 C   0  0  0  0  0  0  0  0  0  0  0  0
  -28.5555   -3.6282   -6.4922 C   0  0  0  0  0  0  0  0  0  0  0  0
  -28.2657   -4.3411   -5.3363 N   0  0  0  0  0  0  0  0  0  0  0  0
  -28.4156   -5.7432   -5.3862 C   0  0  0  0  0  0  0  0  0  0  0  0
  -28.0312   -6.7614   -4.4125 C   0  0  0  0  0  0  0  0  0  0  0  0
  -28.7670   -2.1807   -6.5224 C   0  0  0  0  0  0  0  0  0  0  0  0
  -27.8663   -1.1696   -6.9479 C   0  0  0  0  0  0  0  0  0  0  0  0
  -28.2355    0.0586   -6.5671 N   0  0  0  0  0  0  0  0  0  0  0  0
  -29.3694   -0.1533   -5.8787 N   0  0  0  0  0  0  0  0  0  0  0  0
  -30.2014    0.9587   -5.4781 C   0  0  0  0  0  0  0  0  0  0  0  0
  -29.6405   -1.4836   -5.6981 C   0  0  0  0  0  0  0  0  0  0  0  0
  -24.3732  -10.8090   -3.0998 C   0  0  0  0  0  0  0  0  0  0  0  0
  -23.7345  -10.8400   -4.3385 C   0  0  0  0  0  0  0  0  0  0  0  0
  -24.3594  -10.2969   -5.4572 C   0  0  0  0  0  0  0  0  0  0  0  0
  -25.6262   -9.7158   -5.3257 C   0  0  0  0  0  0  0  0  0  0  0  0
  -26.3216   -9.6748   -4.1066 C   0  0  0  0  0  0  0  0  0  0  0  0
  -25.6507  -10.2142   -2.9871 C   0  0  0  0  0  0  0  0  0  0  0  0
  -22.9492  -12.4657   -2.1179 C   0  0  0  0  0  0  0  0  0  0  0  0
  -23.8496  -11.3685   -1.9522 O   0  0  0  0  0  0  0  0  0  0  0  0
  -23.8596  -10.2977   -6.7328 O   0  0  0  0  0  0  0  0  0  0  0  0
  -22.7371  -11.1347   -6.9846 C   0  0  0  0  0  0  0  0  0  0  0  0
  -28.6939  -10.4394   -3.9429 C   0  0  0  0  0  0  0  0  0  0  0  0
  -28.2999  -11.7166   -4.7133 C   0  0  0  0  0  0  0  0  0  0  0  0
  -29.4798  -12.3605   -5.5002 C   0  0  0  0  0  0  0  0  0  0  0  0
  -29.5634  -12.0685   -6.9513 N   0  0  0  0  0  0  0  0  0  0  0  0
  -30.7501  -11.2634   -7.2743 C   0  0  0  0  0  0  0  0  0  0  0  0
  -30.8630  -11.0373   -8.7794 C   0  0  0  0  0  0  0  0  0  0  0  0
  -29.6389  -10.3176   -9.3263 C   0  0  0  0  0  0  0  0  0  0  0  0
  -28.3549  -11.0536   -8.9284 C   0  0  0  0  0  0  0  0  0  0  0  0
  -28.3416  -11.3474   -7.4099 C   0  0  0  0  0  0  0  0  0  0  0  0
  -27.1244  -10.2470   -9.3390 C   0  0  0  0  0  0  0  0  0  0  0  0
  -26.9312   -9.0769   -8.6596 N   0  0  0  0  0  0  0  0  0  0  0  0
  -26.3422  -10.5780  -10.2215 O   0  0  0  0  0  0  0  0  0  0  0  0
  -27.5955   -8.7009   -7.9985 H   0  0  0  0  0  0  0  0  0  0  0  0
  -26.1390   -8.5048   -8.9252 H   0  0  0  0  0  0  0  0  0  0  0  0
 24 25  1  0  0  0
 25 18  1  0  0  0
 18 19  1  0  0  0
 18 23  2  0  0  0
 19 20  2  0  0  0
 20 26  1  0  0  0
 20 21  1  0  0  0
 26 27  1  0  0  0
 21 22  2  0  0  0
 22  1  1  0  0  0
 22 23  1  0  0  0
  1 28  1  0  0  0
  1  2  1  0  0  0
 28 29  1  0  0  0
 29 30  1  0  0  0
 30 31  1  0  0  0
 31 32  1  0  0  0
 31 36  1  0  0  0
 32 33  1  0  0  0
 33 34  1  0  0  0
 34 35  1  0  0  0
 35 37  1  0  0  0
 35 36  1  0  0  0
 37 38  1  0  0  0
 37 39  2  0  0  0
 38 40  1  0  0  0
 38 41  1  0  0  0
  2  3  1  0  0  0
  2 11  2  0  0  0
  3  4  2  0  0  0
  4  5  1  0  0  0
  5  6  1  0  0  0
  5 10  2  0  0  0
  6  7  2  0  0  0
  7  8  1  0  0  0
  8 12  1  0  0  0
  8  9  2  0  0  0
 12 13  1  0  0  0
 12 17  2  0  0  0
 13 14  2  0  0  0
 14 15  1  0  0  0
 15 16  1  0  0  0
 15 17  1  0  0  0
  9 10  1  0  0  0
 10 11  1  0  0  0
M  END
> <minimizedAffinity>
-7.83513

$$$$
