CHEMBL378687


 35 38  0  0  0  0  0  0  0  0999 V2000
  -28.8565   -4.0728   -6.1565 C   0  0  0  0  0  0  0  0  0  0  0  0
  -28.0685   -2.9396   -5.9681 C   0  0  0  0  0  0  0  0  0  0  0  0
  -27.8122   -2.0712   -7.0320 C   0  0  0  0  0  0  0  0  0  0  0  0
  -28.3040   -2.3182   -8.3144 C   0  0  0  0  0  0  0  0  0  0  0  0
  -29.1252   -3.4295   -8.4988 C   0  0  0  0  0  0  0  0  0  0  0  0
  -29.4287   -4.2733   -7.4195 C   0  0  0  0  0  0  0  0  0  0  0  0
  -28.2316   -7.3100   -7.2909 N   0  0  0  0  0  0  0  0  0  0  0  0
  -28.5771   -7.4757   -5.9557 C   0  0  0  0  0  0  0  0  0  0  0  0
  -28.5904   -8.7457   -5.5031 N   0  0  0  0  0  0  0  0  0  0  0  0
  -28.8753   -8.9694   -4.2063 C   0  0  0  0  0  0  0  0  0  0  0  0
  -29.1486   -8.0655   -3.2613 N   0  0  0  0  0  0  0  0  0  0  0  0
  -29.1414   -6.8219   -3.7627 C   0  0  0  0  0  0  0  0  0  0  0  0
  -29.3823   -5.7119   -3.0173 O   0  0  0  0  0  0  0  0  0  0  0  0
  -29.3081   -4.5880   -3.8161 N   0  0  0  0  0  0  0  0  0  0  0  0
  -29.0300   -5.0241   -5.0583 C   0  0  0  0  0  0  0  0  0  0  0  0
  -28.8887   -6.4426   -5.0675 C   0  0  0  0  0  0  0  0  0  0  0  0
  -27.8760   -8.1800   -7.6728 H   0  0  0  0  0  0  0  0  0  0  0  0
  -27.6531   -6.4986   -7.4766 H   0  0  0  0  0  0  0  0  0  0  0  0
  -28.0284   -1.4828   -9.4227 N   0  0  0  0  0  0  0  0  0  0  0  0
  -27.2048   -1.8153  -10.4790 C   0  0  0  0  0  0  0  0  0  0  0  0
  -26.6941   -2.9206  -10.6460 O   0  0  0  0  0  0  0  0  0  0  0  0
  -26.9643   -0.7440  -11.3262 N   0  0  0  0  0  0  0  0  0  0  0  0
  -28.5581   -0.6228   -9.5026 H   0  0  0  0  0  0  0  0  0  0  0  0
  -26.8989    0.1518  -10.8567 H   0  0  0  0  0  0  0  0  0  0  0  0
  -26.0193   -0.9389  -12.3681 C   0  0  0  0  0  0  0  0  0  0  0  0
  -24.7347   -0.3874  -12.2859 C   0  0  0  0  0  0  0  0  0  0  0  0
  -23.8795   -0.3914  -13.3976 C   0  0  0  0  0  0  0  0  0  0  0  0
  -24.3260   -0.9825  -14.5912 C   0  0  0  0  0  0  0  0  0  0  0  0
  -25.5873   -1.5832  -14.6585 C   0  0  0  0  0  0  0  0  0  0  0  0
  -26.4169   -1.5769  -13.5415 C   0  0  0  0  0  0  0  0  0  0  0  0
  -27.6475   -2.1039  -13.6305 F   0  0  0  0  0  0  0  0  0  0  0  0
  -22.5179    0.2603  -13.3176 C   0  0  0  0  0  0  0  0  0  0  0  0
  -22.5351    1.6067  -13.4936 F   0  0  0  0  0  0  0  0  0  0  0  0
  -21.9254    0.0473  -12.1096 F   0  0  0  0  0  0  0  0  0  0  0  0
  -21.6516   -0.2343  -14.2478 F   0  0  0  0  0  0  0  0  0  0  0  0
  7  8  1  0  0  0
  7 17  1  0  0  0
  7 18  1  0  0  0
  8  9  1  0  0  0
  8 16  2  0  0  0
  9 10  2  0  0  0
 10 11  1  0  0  0
 11 12  2  0  0  0
 12 13  1  0  0  0
 12 16  1  0  0  0
 13 14  1  0  0  0
 14 15  2  0  0  0
 15  1  1  0  0  0
 15 16  1  0  0  0
  1  2  1  0  0  0
  1  6  2  0  0  0
  2  3  2  0  0  0
  3  4  1  0  0  0
  4 19  1  0  0  0
  4  5  2  0  0  0
 19 20  1  0  0  0
 19 23  1  0  0  0
 20 21  2  0  0  0
 20 22  1  0  0  0
 22 25  1  0  0  0
 22 24  1  0  0  0
 25 26  1  0  0  0
 25 30  2  0  0  0
 26 27  2  0  0  0
 27 32  1  0  0  0
 27 28  1  0  0  0
 32 33  1  0  0  0
 32 34  1  0  0  0
 32 35  1  0  0  0
 28 29  2  0  0  0
 29 30  1  0  0  0
 30 31  1  0  0  0
  5  6  1  0  0  0
M  END
> <minimizedAffinity>
-10.67663

$$$$
