CHEMBL3813791


 43 46  0  0  0  0  0  0  0  0999 V2000
  -14.2895   -0.3701  -14.5138 C   0  0  0  0  0  0  0  0  0  0  0  0
  -15.1478   -0.4959  -13.4170 C   0  0  0  0  0  0  0  0  0  0  0  0
  -16.3787    0.1820  -13.3960 C   0  0  0  0  0  0  0  0  0  0  0  0
  -16.7978    0.9300  -14.4973 C   0  0  0  0  0  0  0  0  0  0  0  0
  -15.9622    1.0337  -15.6121 C   0  0  0  0  0  0  0  0  0  0  0  0
  -14.6996    0.4280  -15.5903 C   0  0  0  0  0  0  0  0  0  0  0  0
  -13.8627    0.6861  -16.6071 F   0  0  0  0  0  0  0  0  0  0  0  0
  -17.9978    1.6609  -14.4118 N   0  0  0  0  0  0  0  0  0  0  0  0
  -19.2090    1.2395  -14.9239 C   0  0  0  0  0  0  0  0  0  0  0  0
  -19.4414    0.1422  -15.4157 O   0  0  0  0  0  0  0  0  0  0  0  0
  -17.9829    2.5208  -13.8751 H   0  0  0  0  0  0  0  0  0  0  0  0
  -20.3177    2.2518  -14.8357 C   0  0  0  0  0  0  0  0  0  0  0  0
  -20.6225    3.1634  -16.0307 C   0  0  0  0  0  0  0  0  0  0  0  0
  -19.9391    3.7336  -14.8301 C   0  0  0  0  0  0  0  0  0  0  0  0
  -21.5219    1.7779  -14.0825 C   0  0  0  0  0  0  0  0  0  0  0  0
  -22.2156    2.6255  -13.5468 O   0  0  0  0  0  0  0  0  0  0  0  0
  -21.7109    0.4117  -14.0901 N   0  0  0  0  0  0  0  0  0  0  0  0
  -21.0304   -0.1444  -14.5977 H   0  0  0  0  0  0  0  0  0  0  0  0
  -22.7950   -0.2837  -13.5117 C   0  0  0  0  0  0  0  0  0  0  0  0
  -23.9498   -0.6312  -14.2214 C   0  0  0  0  0  0  0  0  0  0  0  0
  -24.9627   -1.3768  -13.6169 C   0  0  0  0  0  0  0  0  0  0  0  0
  -24.8262   -1.7625  -12.2891 C   0  0  0  0  0  0  0  0  0  0  0  0
  -25.7901   -2.4969  -11.7177 F   0  0  0  0  0  0  0  0  0  0  0  0
  -23.7055   -1.4040  -11.5581 C   0  0  0  0  0  0  0  0  0  0  0  0
  -22.6862   -0.6642  -12.1669 C   0  0  0  0  0  0  0  0  0  0  0  0
  -13.0411   -0.9637  -14.4038 O   0  0  0  0  0  0  0  0  0  0  0  0
  -12.3453   -5.7204  -13.8107 N   0  0  0  0  0  0  0  0  0  0  0  0
  -12.4570   -4.5499  -14.5556 C   0  0  0  0  0  0  0  0  0  0  0  0
  -12.4544   -4.7474  -15.8837 N   0  0  0  0  0  0  0  0  0  0  0  0
  -12.7027   -3.6811  -16.6536 C   0  0  0  0  0  0  0  0  0  0  0  0
  -12.9563   -2.4467  -16.2161 N   0  0  0  0  0  0  0  0  0  0  0  0
  -12.8882   -2.2641  -14.8772 C   0  0  0  0  0  0  0  0  0  0  0  0
  -12.6834   -3.3013  -13.9796 C   0  0  0  0  0  0  0  0  0  0  0  0
  -12.0426   -6.4790  -14.4151 H   0  0  0  0  0  0  0  0  0  0  0  0
  -11.7768   -5.5822  -12.9780 H   0  0  0  0  0  0  0  0  0  0  0  0
  -12.6924   -3.1211  -12.5123 C   0  0  0  0  0  0  0  0  0  0  0  0
  -13.6289   -3.6450  -11.7787 N   0  0  0  0  0  0  0  0  0  0  0  0
  -13.4740   -3.2917  -10.4263 O   0  0  0  0  0  0  0  0  0  0  0  0
  -14.7483   -3.4589   -9.7893 C   0  0  0  0  0  0  0  0  0  0  0  0
  -15.8965   -3.1199  -10.7304 C   0  0  0  0  0  0  0  0  0  0  0  0
  -16.5318   -4.3475  -11.3651 C   0  0  0  0  0  0  0  0  0  0  0  0
  -15.6925   -5.4800  -11.1574 O   0  0  0  0  0  0  0  0  0  0  0  0
  -14.7924   -5.2397  -11.4369 H   0  0  0  0  0  0  0  0  0  0  0  0
 27 28  1  0  0  0
 27 34  1  0  0  0
 27 35  1  0  0  0
 28 29  1  0  0  0
 28 33  2  0  0  0
 29 30  2  0  0  0
 30 31  1  0  0  0
 31 32  2  0  0  0
 32 26  1  0  0  0
 32 33  1  0  0  0
 26  1  1  0  0  0
  1  2  1  0  0  0
  1  6  2  0  0  0
  2  3  2  0  0  0
  3  4  1  0  0  0
  4  8  1  0  0  0
  4  5  2  0  0  0
  8  9  1  0  0  0
  8 11  1  0  0  0
  9 10  2  0  0  0
  9 12  1  0  0  0
 12 15  1  0  0  0
 12 13  1  0  0  0
 12 14  1  0  0  0
 15 16  2  0  0  0
 15 17  1  0  0  0
 17 19  1  0  0  0
 17 18  1  0  0  0
 19 20  1  0  0  0
 19 25  2  0  0  0
 20 21  2  0  0  0
 21 22  1  0  0  0
 22 23  1  0  0  0
 22 24  2  0  0  0
 24 25  1  0  0  0
 13 14  1  0  0  0
  5  6  1  0  0  0
  6  7  1  0  0  0
 33 36  1  0  0  0
 36 37  2  0  0  0
 37 38  1  0  0  0
 38 39  1  0  0  0
 39 40  1  0  0  0
 40 41  1  0  0  0
 41 42  1  0  0  0
 42 43  1  0  0  0
M  END
> <minimizedAffinity>
-8.64447

$$$$
