CHEMBL409933


 37 41  0  0  0  0  0  0  0  0999 V2000
  -29.8322   -5.2562   -5.9626 C   0  0  0  0  0  0  0  0  0  0  0  0
  -29.2587   -5.4530   -7.2172 C   0  0  0  0  0  0  0  0  0  0  0  0
  -28.6224   -4.3931   -7.8943 C   0  0  0  0  0  0  0  0  0  0  0  0
  -28.5530   -3.1059   -7.3408 C   0  0  0  0  0  0  0  0  0  0  0  0
  -29.1492   -2.9290   -6.0718 C   0  0  0  0  0  0  0  0  0  0  0  0
  -29.7941   -3.9813   -5.4023 C   0  0  0  0  0  0  0  0  0  0  0  0
  -29.1595   -1.7382   -5.3812 O   0  0  0  0  0  0  0  0  0  0  0  0
  -28.8989   -0.6155   -6.2217 C   0  0  0  0  0  0  0  0  0  0  0  0
  -27.6684   -0.8529   -7.0787 C   0  0  0  0  0  0  0  0  0  0  0  0
  -27.9046   -1.9800   -7.9933 N   0  0  0  0  0  0  0  0  0  0  0  0
  -27.6438   -1.9450   -9.3678 C   0  0  0  0  0  0  0  0  0  0  0  0
  -27.9559   -2.8402  -10.1502 O   0  0  0  0  0  0  0  0  0  0  0  0
  -27.0625   -0.7857   -9.8596 N   0  0  0  0  0  0  0  0  0  0  0  0
  -26.4216   -0.2898   -9.2621 H   0  0  0  0  0  0  0  0  0  0  0  0
  -26.7901   -0.6732  -11.3005 C   0  0  0  0  0  0  0  0  0  0  0  0
  -27.7427   -1.5983  -12.0719 C   0  0  0  0  0  0  0  0  0  0  0  0
  -25.3114   -0.8501  -11.6610 C   0  0  0  0  0  0  0  0  0  0  0  0
  -24.7526   -2.1265  -11.8778 C   0  0  0  0  0  0  0  0  0  0  0  0
  -23.4610   -2.2849  -12.3968 C   0  0  0  0  0  0  0  0  0  0  0  0
  -22.6994   -1.1657  -12.7157 C   0  0  0  0  0  0  0  0  0  0  0  0
  -23.2186    0.1046  -12.4909 C   0  0  0  0  0  0  0  0  0  0  0  0
  -24.5112    0.2625  -11.9739 C   0  0  0  0  0  0  0  0  0  0  0  0
  -30.4535   -6.3416   -5.3720 O   0  0  0  0  0  0  0  0  0  0  0  0
  -27.5617  -10.4333   -6.3584 C   0  0  0  0  0  0  0  0  0  0  0  0
  -28.7993  -10.5635   -7.0089 C   0  0  0  0  0  0  0  0  0  0  0  0
  -29.7997   -9.6082   -6.9205 C   0  0  0  0  0  0  0  0  0  0  0  0
  -30.9028   -9.7961   -7.6615 N   0  0  0  0  0  0  0  0  0  0  0  0
  -31.8691   -8.8594   -7.6151 C   0  0  0  0  0  0  0  0  0  0  0  0
  -31.7894   -7.7218   -6.8472 C   0  0  0  0  0  0  0  0  0  0  0  0
  -30.6260   -7.5010   -6.1137 C   0  0  0  0  0  0  0  0  0  0  0  0
  -29.6047   -8.4855   -6.0981 C   0  0  0  0  0  0  0  0  0  0  0  0
  -28.4128   -8.4158   -5.3378 C   0  0  0  0  0  0  0  0  0  0  0  0
  -27.3848   -9.3702   -5.4663 C   0  0  0  0  0  0  0  0  0  0  0  0
  -25.6073  -10.9618   -7.5937 C   0  0  0  0  0  0  0  0  0  0  0  0
  -26.5496  -11.3320   -6.5804 O   0  0  0  0  0  0  0  0  0  0  0  0
  -26.3122   -9.0785   -4.6700 O   0  0  0  0  0  0  0  0  0  0  0  0
  -26.0354   -9.8754   -3.5291 C   0  0  0  0  0  0  0  0  0  0  0  0
 34 35  1  0  0  0
 35 24  1  0  0  0
 24 25  1  0  0  0
 24 33  2  0  0  0
 25 26  2  0  0  0
 26 27  1  0  0  0
 26 31  1  0  0  0
 27 28  2  0  0  0
 28 29  1  0  0  0
 29 30  2  0  0  0
 30 23  1  0  0  0
 30 31  1  0  0  0
 23  1  1  0  0  0
  1  2  1  0  0  0
  1  6  2  0  0  0
  2  3  2  0  0  0
  3  4  1  0  0  0
  4  5  2  0  0  0
  4 10  1  0  0  0
  5  6  1  0  0  0
  5  7  1  0  0  0
  7  8  1  0  0  0
  8  9  1  0  0  0
  9 10  1  0  0  0
 10 11  1  0  0  0
 11 12  2  0  0  0
 11 13  1  0  0  0
 13 14  1  0  0  0
 15 17  1  0  0  0
 15 16  1  0  0  0
 15 13  1  0  0  0
 17 18  1  0  0  0
 17 22  2  0  0  0
 18 19  2  0  0  0
 19 20  1  0  0  0
 20 21  2  0  0  0
 21 22  1  0  0  0
 31 32  2  0  0  0
 32 33  1  0  0  0
 33 36  1  0  0  0
 36 37  1  0  0  0
M  END
> <minimizedAffinity>
-9.14375

$$$$
