CHEMBL392987


 30 32  0  0  0  0  0  0  0  0999 V2000
  -31.4228   -8.0191   -7.1030 C   0  0  0  0  0  0  0  0  0  0  0  0
  -30.2002   -8.5749   -6.5702 N   0  0  0  0  0  0  0  0  0  0  0  0
  -29.9502   -9.9040   -6.3878 C   0  0  0  0  0  0  0  0  0  0  0  0
  -28.7181  -10.1104   -5.9810 N   0  0  0  0  0  0  0  0  0  0  0  0
  -28.1763   -8.8666   -5.8673 C   0  0  0  0  0  0  0  0  0  0  0  0
  -29.0525   -7.8774   -6.2545 C   0  0  0  0  0  0  0  0  0  0  0  0
  -28.8799   -6.4530   -6.3651 C   0  0  0  0  0  0  0  0  0  0  0  0
  -28.4178   -5.9409   -7.3773 O   0  0  0  0  0  0  0  0  0  0  0  0
  -29.1987   -5.7697   -5.2025 N   0  0  0  0  0  0  0  0  0  0  0  0
  -29.3454   -6.3501   -4.3836 H   0  0  0  0  0  0  0  0  0  0  0  0
  -29.1775   -4.3753   -5.0152 C   0  0  0  0  0  0  0  0  0  0  0  0
  -28.5044   -3.7613   -3.9593 C   0  0  0  0  0  0  0  0  0  0  0  0
  -28.5308   -2.3705   -3.7990 C   0  0  0  0  0  0  0  0  0  0  0  0
  -29.1995   -1.5719   -4.7199 C   0  0  0  0  0  0  0  0  0  0  0  0
  -29.8780   -2.1851   -5.7780 C   0  0  0  0  0  0  0  0  0  0  0  0
  -29.8562   -3.5750   -5.9362 C   0  0  0  0  0  0  0  0  0  0  0  0
  -29.2928   -0.2150   -4.6982 O   0  0  0  0  0  0  0  0  0  0  0  0
  -28.2156    0.5741   -5.1825 C   0  0  0  0  0  0  0  0  0  0  0  0
  -27.1300   -0.1418   -5.5426 F   0  0  0  0  0  0  0  0  0  0  0  0
  -28.6440    1.2405   -6.2793 F   0  0  0  0  0  0  0  0  0  0  0  0
  -27.8584    1.4835   -4.2514 F   0  0  0  0  0  0  0  0  0  0  0  0
  -26.9240   -8.6733   -5.4134 N   0  0  0  0  0  0  0  0  0  0  0  0
  -26.2300   -8.1665   -5.9541 H   0  0  0  0  0  0  0  0  0  0  0  0
  -26.4995   -9.1217   -4.1057 C   0  0  0  0  0  0  0  0  0  0  0  0
  -25.1680   -9.8219   -4.1617 C   0  0  0  0  0  0  0  0  0  0  0  0
  -24.4267   -9.8412   -5.3468 C   0  0  0  0  0  0  0  0  0  0  0  0
  -23.1729  -10.4313   -5.3377 C   0  0  0  0  0  0  0  0  0  0  0  0
  -22.6161  -10.9980   -4.2455 N   0  0  0  0  0  0  0  0  0  0  0  0
  -23.3479  -10.9735   -3.1119 C   0  0  0  0  0  0  0  0  0  0  0  0
  -24.6112  -10.4087   -3.0206 C   0  0  0  0  0  0  0  0  0  0  0  0
  1  2  1  0  0  0
  2  3  1  0  0  0
  2  6  1  0  0  0
  3  4  2  0  0  0
  4  5  1  0  0  0
  5 22  1  0  0  0
  5  6  2  0  0  0
 22 24  1  0  0  0
 22 23  1  0  0  0
 24 25  1  0  0  0
 25 26  1  0  0  0
 25 30  2  0  0  0
 26 27  2  0  0  0
 27 28  1  0  0  0
 28 29  2  0  0  0
 29 30  1  0  0  0
  6  7  1  0  0  0
  7  8  2  0  0  0
  7  9  1  0  0  0
  9 11  1  0  0  0
  9 10  1  0  0  0
 11 12  1  0  0  0
 11 16  2  0  0  0
 12 13  2  0  0  0
 13 14  1  0  0  0
 14 17  1  0  0  0
 14 15  2  0  0  0
 17 18  1  0  0  0
 18 19  1  0  0  0
 18 20  1  0  0  0
 18 21  1  0  0  0
 15 16  1  0  0  0
M  END
> <minimizedAffinity>
-8.23055

$$$$
