CHEMBL3909831


 38 41  0  0  0  0  0  0  0  0999 V2000
  -28.9125   -9.1650   -5.4292 C   0  0  0  0  0  0  0  0  0  0  0  0
  -29.3137   -9.5190   -4.1382 C   0  0  0  0  0  0  0  0  0  0  0  0
  -28.7330  -10.6247   -3.4969 C   0  0  0  0  0  0  0  0  0  0  0  0
  -27.7413  -11.3787   -4.1339 C   0  0  0  0  0  0  0  0  0  0  0  0
  -27.3810  -11.0604   -5.4461 C   0  0  0  0  0  0  0  0  0  0  0  0
  -27.9624   -9.9593   -6.0757 C   0  0  0  0  0  0  0  0  0  0  0  0
  -27.5535   -9.6261   -7.3105 F   0  0  0  0  0  0  0  0  0  0  0  0
  -29.6049   -5.8018   -6.6326 N   0  0  0  0  0  0  0  0  0  0  0  0
  -28.9330   -6.7571   -5.8840 C   0  0  0  0  0  0  0  0  0  0  0  0
  -27.9997   -6.5123   -5.1270 O   0  0  0  0  0  0  0  0  0  0  0  0
  -29.4314   -8.0312   -6.1053 N   0  0  0  0  0  0  0  0  0  0  0  0
  -30.5778   -6.0019   -6.8201 H   0  0  0  0  0  0  0  0  0  0  0  0
  -29.7591   -8.2018   -7.0494 H   0  0  0  0  0  0  0  0  0  0  0  0
  -28.9258   -2.1831   -5.8594 C   0  0  0  0  0  0  0  0  0  0  0  0
  -29.3173   -3.5320   -5.7204 C   0  0  0  0  0  0  0  0  0  0  0  0
  -29.1789   -4.4609   -6.7601 C   0  0  0  0  0  0  0  0  0  0  0  0
  -28.5867   -4.0461   -7.9523 C   0  0  0  0  0  0  0  0  0  0  0  0
  -28.2205   -2.7057   -8.1219 C   0  0  0  0  0  0  0  0  0  0  0  0
  -28.4074   -1.7739   -7.0920 C   0  0  0  0  0  0  0  0  0  0  0  0
  -27.9995   -0.1314   -7.4309 Cl  0  0  0  0  0  0  0  0  0  0  0  0
  -29.5152   -2.0158   -3.4127 C   0  0  0  0  0  0  0  0  0  0  0  0
  -29.0928   -1.2658   -4.6671 C   0  0  0  0  0  0  0  0  0  0  0  0
  -29.9849   -0.2556   -4.8782 F   0  0  0  0  0  0  0  0  0  0  0  0
  -27.9231   -0.6182   -4.3642 F   0  0  0  0  0  0  0  0  0  0  0  0
  -27.2274  -12.4489   -3.4258 O   0  0  0  0  0  0  0  0  0  0  0  0
  -25.9272  -12.4092   -2.9646 C   0  0  0  0  0  0  0  0  0  0  0  0
  -25.5935  -12.4655   -1.6167 C   0  0  0  0  0  0  0  0  0  0  0  0
  -24.2628  -12.3648   -1.2830 C   0  0  0  0  0  0  0  0  0  0  0  0
  -23.2737  -12.2785   -2.1920 N   0  0  0  0  0  0  0  0  0  0  0  0
  -23.5857  -12.3022   -3.4999 C   0  0  0  0  0  0  0  0  0  0  0  0
  -24.9088  -12.3686   -3.9269 C   0  0  0  0  0  0  0  0  0  0  0  0
  -22.5464  -12.2491   -4.4526 N   0  0  0  0  0  0  0  0  0  0  0  0
  -22.3537  -11.1945   -5.3250 C   0  0  0  0  0  0  0  0  0  0  0  0
  -23.0204  -10.1695   -5.4051 O   0  0  0  0  0  0  0  0  0  0  0  0
  -21.9220  -13.0381   -4.5018 H   0  0  0  0  0  0  0  0  0  0  0  0
  -21.2214  -11.3052   -6.2925 C   0  0  0  0  0  0  0  0  0  0  0  0
  -20.9821  -10.1778   -7.2683 C   0  0  0  0  0  0  0  0  0  0  0  0
  -21.3005  -11.5563   -7.7717 C   0  0  0  0  0  0  0  0  0  0  0  0
 21 22  1  0  0  0
 22 23  1  0  0  0
 22 24  1  0  0  0
 22 14  1  0  0  0
 14 15  1  0  0  0
 14 19  2  0  0  0
 15 16  2  0  0  0
 16  8  1  0  0  0
 16 17  1  0  0  0
  8  9  1  0  0  0
  8 12  1  0  0  0
  9 10  2  0  0  0
  9 11  1  0  0  0
 11  1  1  0  0  0
 11 13  1  0  0  0
  1  2  1  0  0  0
  1  6  2  0  0  0
  2  3  2  0  0  0
  3  4  1  0  0  0
  4 25  1  0  0  0
  4  5  2  0  0  0
 25 26  1  0  0  0
 26 27  1  0  0  0
 26 31  2  0  0  0
 27 28  2  0  0  0
 28 29  1  0  0  0
 29 30  2  0  0  0
 30 32  1  0  0  0
 30 31  1  0  0  0
 32 33  1  0  0  0
 32 35  1  0  0  0
 33 34  2  0  0  0
 33 36  1  0  0  0
 36 37  1  0  0  0
 36 38  1  0  0  0
 37 38  1  0  0  0
  5  6  1  0  0  0
  6  7  1  0  0  0
 17 18  2  0  0  0
 18 19  1  0  0  0
 19 20  1  0  0  0
M  END
> <minimizedAffinity>
-8.37423

$$$$
