CHEMBL3907102


 37 40  0  0  0  0  0  0  0  0999 V2000
  -20.7474    1.3539  -14.4555 C   0  0  0  0  0  0  0  0  0  0  0  0
  -20.1374    0.2876  -15.1216 C   0  0  0  0  0  0  0  0  0  0  0  0
  -18.7950    0.3449  -15.5079 C   0  0  0  0  0  0  0  0  0  0  0  0
  -18.0466    1.4985  -15.2869 C   0  0  0  0  0  0  0  0  0  0  0  0
  -18.6576    2.5690  -14.6345 C   0  0  0  0  0  0  0  0  0  0  0  0
  -17.9595    3.6868  -14.3807 F   0  0  0  0  0  0  0  0  0  0  0  0
  -19.9944    2.5072  -14.2215 C   0  0  0  0  0  0  0  0  0  0  0  0
  -22.3997   -0.9595  -13.8197 O   0  0  0  0  0  0  0  0  0  0  0  0
  -22.8401    0.1809  -13.7508 C   0  0  0  0  0  0  0  0  0  0  0  0
  -24.1580    0.4833  -13.4364 N   0  0  0  0  0  0  0  0  0  0  0  0
  -22.0929    1.3231  -14.0049 N   0  0  0  0  0  0  0  0  0  0  0  0
  -24.4470    1.4421  -13.5529 H   0  0  0  0  0  0  0  0  0  0  0  0
  -22.5118    2.2127  -13.7706 H   0  0  0  0  0  0  0  0  0  0  0  0
  -25.1872   -0.4619  -13.2011 C   0  0  0  0  0  0  0  0  0  0  0  0
  -25.8245   -1.1848  -14.2141 C   0  0  0  0  0  0  0  0  0  0  0  0
  -26.8885   -2.0421  -13.9281 C   0  0  0  0  0  0  0  0  0  0  0  0
  -27.3217   -2.2014  -12.6166 C   0  0  0  0  0  0  0  0  0  0  0  0
  -26.6781   -1.5186  -11.5764 C   0  0  0  0  0  0  0  0  0  0  0  0
  -25.6040   -0.6577  -11.8791 C   0  0  0  0  0  0  0  0  0  0  0  0
  -27.1309   -1.6832  -10.1482 C   0  0  0  0  0  0  0  0  0  0  0  0
  -26.2945   -1.1120   -9.2376 F   0  0  0  0  0  0  0  0  0  0  0  0
  -28.3567   -1.1329   -9.9269 F   0  0  0  0  0  0  0  0  0  0  0  0
  -27.2396   -2.9918   -9.7861 F   0  0  0  0  0  0  0  0  0  0  0  0
  -16.7087    1.6079  -15.6004 O   0  0  0  0  0  0  0  0  0  0  0  0
  -15.7800    1.0358  -14.7348 C   0  0  0  0  0  0  0  0  0  0  0  0
  -16.2234    0.0012  -13.9345 C   0  0  0  0  0  0  0  0  0  0  0  0
  -15.2837   -0.5500  -13.0887 C   0  0  0  0  0  0  0  0  0  0  0  0
  -14.0220   -0.1030  -13.0526 N   0  0  0  0  0  0  0  0  0  0  0  0
  -13.7009    0.9151  -13.8520 C   0  0  0  0  0  0  0  0  0  0  0  0
  -14.5318    1.5323  -14.6906 N   0  0  0  0  0  0  0  0  0  0  0  0
  -15.6745   -1.5915  -12.2265 N   0  0  0  0  0  0  0  0  0  0  0  0
  -15.9693   -2.8730  -12.6518 C   0  0  0  0  0  0  0  0  0  0  0  0
  -16.0456   -3.2645  -13.8089 O   0  0  0  0  0  0  0  0  0  0  0  0
  -15.7472   -1.3849  -11.2449 H   0  0  0  0  0  0  0  0  0  0  0  0
  -16.2575   -3.8814  -11.5870 C   0  0  0  0  0  0  0  0  0  0  0  0
  -15.2233   -4.9171  -11.2170 C   0  0  0  0  0  0  0  0  0  0  0  0
  -16.5430   -5.3460  -11.7942 C   0  0  0  0  0  0  0  0  0  0  0  0
  8  9  2  0  0  0
  9 10  1  0  0  0
  9 11  1  0  0  0
 10 14  1  0  0  0
 10 12  1  0  0  0
 14 15  1  0  0  0
 14 19  2  0  0  0
 15 16  2  0  0  0
 16 17  1  0  0  0
 17 18  2  0  0  0
 18 20  1  0  0  0
 18 19  1  0  0  0
 20 21  1  0  0  0
 20 22  1  0  0  0
 20 23  1  0  0  0
 11  1  1  0  0  0
 11 13  1  0  0  0
  1  2  1  0  0  0
  1  7  2  0  0  0
  2  3  2  0  0  0
  3  4  1  0  0  0
  4 24  1  0  0  0
  4  5  2  0  0  0
 24 25  1  0  0  0
 25 26  1  0  0  0
 25 30  2  0  0  0
 26 27  2  0  0  0
 27 31  1  0  0  0
 27 28  1  0  0  0
 31 32  1  0  0  0
 31 34  1  0  0  0
 32 33  2  0  0  0
 32 35  1  0  0  0
 35 36  1  0  0  0
 35 37  1  0  0  0
 36 37  1  0  0  0
 28 29  2  0  0  0
 29 30  1  0  0  0
  5  6  1  0  0  0
  5  7  1  0  0  0
M  END
> <minimizedAffinity>
-9.72622

$$$$
