CHEMBL66716


 31 35  0  0  0  0  0  0  0  0999 V2000
  -32.7987   -7.9603   -7.4641 N   0  0  0  0  0  0  0  0  0  0  0  0
  -31.9483   -9.0568   -7.4109 C   0  0  0  0  0  0  0  0  0  0  0  0
  -32.4425  -10.1781   -7.9707 N   0  0  0  0  0  0  0  0  0  0  0  0
  -31.6819  -11.2802   -7.9792 C   0  0  0  0  0  0  0  0  0  0  0  0
  -30.4443  -11.4203   -7.4947 N   0  0  0  0  0  0  0  0  0  0  0  0
  -29.9832  -10.2924   -6.9279 C   0  0  0  0  0  0  0  0  0  0  0  0
  -30.6577   -9.0788   -6.8322 C   0  0  0  0  0  0  0  0  0  0  0  0
  -29.7850   -8.1705   -6.1135 C   0  0  0  0  0  0  0  0  0  0  0  0
  -28.6588   -8.9128   -5.7636 C   0  0  0  0  0  0  0  0  0  0  0  0
  -27.2528   -8.3718   -4.6220 Br  0  0  0  0  0  0  0  0  0  0  0  0
  -28.7488  -10.1612   -6.3375 N   0  0  0  0  0  0  0  0  0  0  0  0
  -33.5725   -8.1499   -8.0916 H   0  0  0  0  0  0  0  0  0  0  0  0
  -32.3296   -7.0745   -7.6026 H   0  0  0  0  0  0  0  0  0  0  0  0
  -30.0341   -6.7806   -5.7118 C   0  0  0  0  0  0  0  0  0  0  0  0
  -30.5207   -6.5010   -4.4326 C   0  0  0  0  0  0  0  0  0  0  0  0
  -30.8365   -5.1991   -4.0477 C   0  0  0  0  0  0  0  0  0  0  0  0
  -30.4762   -4.1253   -4.8579 C   0  0  0  0  0  0  0  0  0  0  0  0
  -29.9951   -4.3760   -6.1389 C   0  0  0  0  0  0  0  0  0  0  0  0
  -29.8255   -5.6959   -6.5773 C   0  0  0  0  0  0  0  0  0  0  0  0
  -30.5740   -2.8042   -4.4802 O   0  0  0  0  0  0  0  0  0  0  0  0
  -29.5480   -1.9395   -4.7990 C   0  0  0  0  0  0  0  0  0  0  0  0
  -28.1887   -2.2357   -4.6371 C   0  0  0  0  0  0  0  0  0  0  0  0
  -27.2257   -1.2558   -4.8650 C   0  0  0  0  0  0  0  0  0  0  0  0
  -27.6098   -0.0045   -5.3420 C   0  0  0  0  0  0  0  0  0  0  0  0
  -28.9551    0.2608   -5.6013 C   0  0  0  0  0  0  0  0  0  0  0  0
  -29.9246   -0.7044   -5.3280 C   0  0  0  0  0  0  0  0  0  0  0  0
  -27.7259  -11.1882   -6.2972 C   0  0  0  0  0  0  0  0  0  0  0  0
  -27.4102  -11.7572   -4.9119 C   0  0  0  0  0  0  0  0  0  0  0  0
  -26.0490  -12.4317   -5.0757 C   0  0  0  0  0  0  0  0  0  0  0  0
  -25.4476  -11.9039   -6.3796 C   0  0  0  0  0  0  0  0  0  0  0  0
  -26.3605  -10.7743   -6.8402 C   0  0  0  0  0  0  0  0  0  0  0  0
  1  2  1  0  0  0
  1 12  1  0  0  0
  1 13  1  0  0  0
  2  3  1  0  0  0
  2  7  2  0  0  0
  3  4  2  0  0  0
  4  5  1  0  0  0
  5  6  2  0  0  0
  6  7  1  0  0  0
  6 11  1  0  0  0
  7  8  1  0  0  0
  8 14  1  0  0  0
  8  9  2  0  0  0
 14 15  1  0  0  0
 14 19  2  0  0  0
 15 16  2  0  0  0
 16 17  1  0  0  0
 17 20  1  0  0  0
 17 18  2  0  0  0
 20 21  1  0  0  0
 21 22  1  0  0  0
 21 26  2  0  0  0
 22 23  2  0  0  0
 23 24  1  0  0  0
 24 25  2  0  0  0
 25 26  1  0  0  0
 18 19  1  0  0  0
  9 10  1  0  0  0
  9 11  1  0  0  0
 11 27  1  0  0  0
 27 28  1  0  0  0
 27 31  1  0  0  0
 28 29  1  0  0  0
 29 30  1  0  0  0
 30 31  1  0  0  0
M  END
> <minimizedAffinity>
-8.38678

$$$$
