CHEMBL1095358


 52 58  0  0  0  0  0  0  0  0999 V2000
  -12.0680    0.7373  -18.1418 O   0  0  0  0  0  0  0  0  0  0  0  0
  -15.5566    2.5131  -15.7353 C   0  0  0  0  0  0  0  0  0  0  0  0
  -14.6038    3.2938  -15.1084 C   0  0  0  0  0  0  0  0  0  0  0  0
  -13.2847    3.0486  -15.5765 C   0  0  0  0  0  0  0  0  0  0  0  0
  -12.1675    3.6749  -15.1211 N   0  0  0  0  0  0  0  0  0  0  0  0
  -11.0206    3.3256  -15.7284 C   0  0  0  0  0  0  0  0  0  0  0  0
  -10.9091    2.3976  -16.7470 C   0  0  0  0  0  0  0  0  0  0  0  0
  -12.0484    1.7056  -17.1625 C   0  0  0  0  0  0  0  0  0  0  0  0
  -13.2610    2.0800  -16.5737 C   0  0  0  0  0  0  0  0  0  0  0  0
  -14.8347    1.4947  -16.9062 S   0  0  0  0  0  0  0  0  0  0  0  0
  -19.7779    2.4734  -15.0080 C   0  0  0  0  0  0  0  0  0  0  0  0
  -19.0334    1.2957  -14.9688 C   0  0  0  0  0  0  0  0  0  0  0  0
  -17.6541    1.3247  -15.1704 C   0  0  0  0  0  0  0  0  0  0  0  0
  -17.0115    2.5101  -15.5461 C   0  0  0  0  0  0  0  0  0  0  0  0
  -17.7948    3.6583  -15.7401 C   0  0  0  0  0  0  0  0  0  0  0  0
  -19.1626    3.6455  -15.4557 C   0  0  0  0  0  0  0  0  0  0  0  0
  -23.6296    0.1132  -13.1892 C   0  0  0  0  0  0  0  0  0  0  0  0
  -22.3773   -0.7058  -13.5508 C   0  0  0  0  0  0  0  0  0  0  0  0
  -21.2591    0.2951  -13.3452 C   0  0  0  0  0  0  0  0  0  0  0  0
  -21.8136    1.4930  -13.9509 N   0  0  0  0  0  0  0  0  0  0  0  0
  -21.2171    2.5330  -14.6442 C   0  0  0  0  0  0  0  0  0  0  0  0
  -21.8435    3.5434  -14.9599 O   0  0  0  0  0  0  0  0  0  0  0  0
  -23.2491    1.5332  -13.6924 C   0  0  0  0  0  0  0  0  0  0  0  0
  -25.3338   -1.6088  -12.9897 C   0  0  0  0  0  0  0  0  0  0  0  0
  -24.8685   -0.4518  -13.7576 N   0  0  0  0  0  0  0  0  0  0  0  0
  -24.7046   -0.8294  -15.1636 C   0  0  0  0  0  0  0  0  0  0  0  0
  -12.2868   -0.5696  -17.7902 C   0  0  0  0  0  0  0  0  0  0  0  0
  -11.6601   -1.1937  -16.7161 C   0  0  0  0  0  0  0  0  0  0  0  0
  -11.8131   -2.5641  -16.5236 C   0  0  0  0  0  0  0  0  0  0  0  0
  -12.6509   -3.3147  -17.3521 C   0  0  0  0  0  0  0  0  0  0  0  0
  -13.3861   -2.6584  -18.3437 C   0  0  0  0  0  0  0  0  0  0  0  0
  -13.2003   -1.2925  -18.5530 C   0  0  0  0  0  0  0  0  0  0  0  0
  -13.8941   -0.6874  -19.5289 F   0  0  0  0  0  0  0  0  0  0  0  0
  -12.7581   -4.7164  -17.2614 N   0  0  0  0  0  0  0  0  0  0  0  0
  -13.4302   -5.4220  -16.2815 C   0  0  0  0  0  0  0  0  0  0  0  0
  -14.1759   -4.9559  -15.4260 O   0  0  0  0  0  0  0  0  0  0  0  0
  -12.1743   -5.2467  -17.9019 H   0  0  0  0  0  0  0  0  0  0  0  0
  -13.1594   -6.8428  -16.2968 C   0  0  0  0  0  0  0  0  0  0  0  0
  -12.8817   -7.7058  -15.2296 C   0  0  0  0  0  0  0  0  0  0  0  0
  -12.7602   -8.9687  -15.6254 N   0  0  0  0  0  0  0  0  0  0  0  0
  -12.8024   -8.9245  -16.9833 N   0  0  0  0  0  0  0  0  0  0  0  0
  -13.1503   -7.6631  -17.4221 C   0  0  0  0  0  0  0  0  0  0  0  0
  -12.5300  -10.1184  -17.7107 C   0  0  0  0  0  0  0  0  0  0  0  0
  -13.5584  -11.0651  -17.8580 C   0  0  0  0  0  0  0  0  0  0  0  0
  -13.3471  -12.2259  -18.5998 C   0  0  0  0  0  0  0  0  0  0  0  0
  -12.1059  -12.4653  -19.1818 C   0  0  0  0  0  0  0  0  0  0  0  0
  -11.0665  -11.5552  -19.0022 C   0  0  0  0  0  0  0  0  0  0  0  0
  -11.2727  -10.3881  -18.2602 C   0  0  0  0  0  0  0  0  0  0  0  0
  -13.5682   -7.3641  -18.8028 C   0  0  0  0  0  0  0  0  0  0  0  0
  -14.6110   -6.4982  -18.8638 F   0  0  0  0  0  0  0  0  0  0  0  0
  -12.5733   -6.8216  -19.5452 F   0  0  0  0  0  0  0  0  0  0  0  0
  -13.9943   -8.4787  -19.4506 F   0  0  0  0  0  0  0  0  0  0  0  0
 24 25  1  0  0  0
 25 26  1  0  0  0
 17 18  1  0  0  0
 17 23  1  0  0  0
 17 25  1  0  0  0
 18 19  1  0  0  0
 19 20  1  0  0  0
 20 21  1  0  0  0
 20 23  1  0  0  0
 21 22  2  0  0  0
 21 11  1  0  0  0
 11 12  1  0  0  0
 11 16  2  0  0  0
 12 13  2  0  0  0
 13 14  1  0  0  0
 14  2  1  0  0  0
 14 15  2  0  0  0
  2  3  2  0  0  0
  2 10  1  0  0  0
  3  4  1  0  0  0
  4  5  1  0  0  0
  4  9  2  0  0  0
  5  6  2  0  0  0
  6  7  1  0  0  0
  7  8  2  0  0  0
  8  1  1  0  0  0
  8  9  1  0  0  0
  1 27  1  0  0  0
 27 28  1  0  0  0
 27 32  2  0  0  0
 28 29  2  0  0  0
 29 30  1  0  0  0
 30 34  1  0  0  0
 30 31  2  0  0  0
 34 35  1  0  0  0
 34 37  1  0  0  0
 35 36  2  0  0  0
 35 38  1  0  0  0
 38 39  1  0  0  0
 38 42  2  0  0  0
 39 40  2  0  0  0
 40 41  1  0  0  0
 41 43  1  0  0  0
 41 42  1  0  0  0
 43 44  1  0  0  0
 43 48  2  0  0  0
 44 45  2  0  0  0
 45 46  1  0  0  0
 46 47  2  0  0  0
 47 48  1  0  0  0
 42 49  1  0  0  0
 49 50  1  0  0  0
 49 51  1  0  0  0
 49 52  1  0  0  0
 31 32  1  0  0  0
 32 33  1  0  0  0
  9 10  1  0  0  0
 15 16  1  0  0  0
M  END
> <minimizedAffinity>
-8.51491

$$$$
