CHEMBL208788


 34 37  0  0  0  0  0  0  0  0999 V2000
  -27.8187   -1.4761   -7.5904 C   0  0  0  0  0  0  0  0  0  0  0  0
  -28.0076   -0.0957   -7.6313 C   0  0  0  0  0  0  0  0  0  0  0  0
  -28.3718    0.5862   -6.4707 C   0  0  0  0  0  0  0  0  0  0  0  0
  -28.5286   -0.1192   -5.2791 C   0  0  0  0  0  0  0  0  0  0  0  0
  -28.8639    0.5699   -4.1747 F   0  0  0  0  0  0  0  0  0  0  0  0
  -28.2933   -1.5052   -5.1992 C   0  0  0  0  0  0  0  0  0  0  0  0
  -27.9495   -2.1759   -6.3784 C   0  0  0  0  0  0  0  0  0  0  0  0
  -27.3518   -3.4019   -8.8532 O   0  0  0  0  0  0  0  0  0  0  0  0
  -27.4200   -2.1733   -8.8356 C   0  0  0  0  0  0  0  0  0  0  0  0
  -27.1216   -1.3798   -9.9187 N   0  0  0  0  0  0  0  0  0  0  0  0
  -26.9117   -0.4011   -9.7788 H   0  0  0  0  0  0  0  0  0  0  0  0
  -26.6715   -1.9724  -11.1617 C   0  0  0  0  0  0  0  0  0  0  0  0
  -25.3286   -1.4382  -11.6038 C   0  0  0  0  0  0  0  0  0  0  0  0
  -25.1507   -0.0730  -11.8237 C   0  0  0  0  0  0  0  0  0  0  0  0
  -23.8991    0.3887  -12.2221 C   0  0  0  0  0  0  0  0  0  0  0  0
  -22.8653   -0.5205  -12.4041 C   0  0  0  0  0  0  0  0  0  0  0  0
  -23.1289   -1.8619  -12.1831 C   0  0  0  0  0  0  0  0  0  0  0  0
  -24.3318   -2.3419  -11.7939 N   0  0  0  0  0  0  0  0  0  0  0  0
  -28.4260   -2.1660   -3.9719 N   0  0  0  0  0  0  0  0  0  0  0  0
  -27.8364   -1.7561   -3.2517 H   0  0  0  0  0  0  0  0  0  0  0  0
  -29.7508   -2.5690   -3.4958 C   0  0  0  0  0  0  0  0  0  0  0  0
  -30.0932   -3.9649   -3.8774 C   0  0  0  0  0  0  0  0  0  0  0  0
  -31.3456   -4.5175   -3.9897 C   0  0  0  0  0  0  0  0  0  0  0  0
  -31.3643   -5.8169   -4.3978 N   0  0  0  0  0  0  0  0  0  0  0  0
  -30.1526   -6.3147   -4.5123 C   0  0  0  0  0  0  0  0  0  0  0  0
  -28.9048   -5.1567   -4.2144 S   0  0  0  0  0  0  0  0  0  0  0  0
  -29.8708   -7.6084   -4.7922 N   0  0  0  0  0  0  0  0  0  0  0  0
  -30.2624   -8.3392   -4.2129 H   0  0  0  0  0  0  0  0  0  0  0  0
  -29.6911   -8.0914   -6.0962 C   0  0  0  0  0  0  0  0  0  0  0  0
  -28.7118   -7.6000   -6.9640 C   0  0  0  0  0  0  0  0  0  0  0  0
  -28.6917   -7.9769   -8.2931 C   0  0  0  0  0  0  0  0  0  0  0  0
  -29.6170   -8.8981   -8.7347 C   0  0  0  0  0  0  0  0  0  0  0  0
  -30.5126   -9.4101   -7.8083 C   0  0  0  0  0  0  0  0  0  0  0  0
  -30.5682   -9.0319   -6.5087 N   0  0  0  0  0  0  0  0  0  0  0  0
  8  9  2  0  0  0
  9 10  1  0  0  0
  9  1  1  0  0  0
 10 12  1  0  0  0
 10 11  1  0  0  0
 12 13  1  0  0  0
 13 14  1  0  0  0
 13 18  2  0  0  0
 14 15  2  0  0  0
 15 16  1  0  0  0
 16 17  2  0  0  0
 17 18  1  0  0  0
  1  2  1  0  0  0
  1  7  2  0  0  0
  2  3  2  0  0  0
  3  4  1  0  0  0
  4  5  1  0  0  0
  4  6  2  0  0  0
  6 19  1  0  0  0
  6  7  1  0  0  0
 19 21  1  0  0  0
 19 20  1  0  0  0
 21 22  1  0  0  0
 22 23  2  0  0  0
 22 26  1  0  0  0
 23 24  1  0  0  0
 24 25  2  0  0  0
 25 27  1  0  0  0
 25 26  1  0  0  0
 27 29  1  0  0  0
 27 28  1  0  0  0
 29 30  1  0  0  0
 29 34  2  0  0  0
 30 31  2  0  0  0
 31 32  1  0  0  0
 32 33  2  0  0  0
 33 34  1  0  0  0
M  END
> <minimizedAffinity>
-9.01282

$$$$
