CHEMBL1980904


 36 39  0  0  0  0  0  0  0  0999 V2000
  -28.7979   -4.5129   -6.1953 C   0  0  0  0  0  0  0  0  0  0  0  0
  -29.2195   -4.6929   -7.5168 C   0  0  0  0  0  0  0  0  0  0  0  0
  -28.8921   -3.7798   -8.5279 C   0  0  0  0  0  0  0  0  0  0  0  0
  -28.2138   -2.5980   -8.2364 C   0  0  0  0  0  0  0  0  0  0  0  0
  -27.8885   -2.3516   -6.9026 C   0  0  0  0  0  0  0  0  0  0  0  0
  -27.2703   -1.2078   -6.5680 F   0  0  0  0  0  0  0  0  0  0  0  0
  -28.1493   -3.2972   -5.9035 C   0  0  0  0  0  0  0  0  0  0  0  0
  -31.6110   -3.4860   -4.5586 N   0  0  0  0  0  0  0  0  0  0  0  0
  -31.2611   -4.6192   -3.9314 C   0  0  0  0  0  0  0  0  0  0  0  0
  -31.9951   -5.0629   -2.9159 N   0  0  0  0  0  0  0  0  0  0  0  0
  -31.3994   -6.2028   -2.5667 N   0  0  0  0  0  0  0  0  0  0  0  0
  -30.2917   -6.5124   -3.3074 C   0  0  0  0  0  0  0  0  0  0  0  0
  -29.4451   -7.6205   -3.2246 C   0  0  0  0  0  0  0  0  0  0  0  0
  -28.3715   -7.6663   -4.1039 C   0  0  0  0  0  0  0  0  0  0  0  0
  -28.1682   -6.6439   -5.0281 C   0  0  0  0  0  0  0  0  0  0  0  0
  -29.0388   -5.5287   -5.1446 C   0  0  0  0  0  0  0  0  0  0  0  0
  -30.1408   -5.4708   -4.2311 C   0  0  0  0  0  0  0  0  0  0  0  0
  -32.5102   -3.0999   -4.2932 H   0  0  0  0  0  0  0  0  0  0  0  0
  -31.4060   -3.3663   -5.5423 H   0  0  0  0  0  0  0  0  0  0  0  0
  -31.8025   -6.7400   -1.8084 H   0  0  0  0  0  0  0  0  0  0  0  0
  -27.8490   -1.6461   -9.2219 N   0  0  0  0  0  0  0  0  0  0  0  0
  -27.0446   -1.9052  -10.3097 C   0  0  0  0  0  0  0  0  0  0  0  0
  -26.5420   -2.9978  -10.5633 O   0  0  0  0  0  0  0  0  0  0  0  0
  -26.8054   -0.7797  -11.0828 N   0  0  0  0  0  0  0  0  0  0  0  0
  -28.1211   -0.6898   -9.0359 H   0  0  0  0  0  0  0  0  0  0  0  0
  -26.7797    0.0883  -10.5675 H   0  0  0  0  0  0  0  0  0  0  0  0
  -25.9585   -0.8625  -12.2090 C   0  0  0  0  0  0  0  0  0  0  0  0
  -26.4269   -1.5091  -13.3553 C   0  0  0  0  0  0  0  0  0  0  0  0
  -25.6554   -1.5165  -14.5174 C   0  0  0  0  0  0  0  0  0  0  0  0
  -24.3928   -0.9211  -14.5295 C   0  0  0  0  0  0  0  0  0  0  0  0
  -23.8905   -0.3048  -13.3793 C   0  0  0  0  0  0  0  0  0  0  0  0
  -24.6815   -0.2773  -12.2225 C   0  0  0  0  0  0  0  0  0  0  0  0
  -22.5210    0.3352  -13.3671 C   0  0  0  0  0  0  0  0  0  0  0  0
  -21.6856   -0.1597  -14.3283 F   0  0  0  0  0  0  0  0  0  0  0  0
  -22.5568    1.6804  -13.5704 F   0  0  0  0  0  0  0  0  0  0  0  0
  -21.8660    0.1510  -12.1861 F   0  0  0  0  0  0  0  0  0  0  0  0
  8  9  1  0  0  0
  8 18  1  0  0  0
  8 19  1  0  0  0
  9 10  2  0  0  0
  9 17  1  0  0  0
 10 11  1  0  0  0
 11 12  1  0  0  0
 11 20  1  0  0  0
 12 13  1  0  0  0
 12 17  2  0  0  0
 13 14  2  0  0  0
 14 15  1  0  0  0
 15 16  2  0  0  0
 16  1  1  0  0  0
 16 17  1  0  0  0
  1  2  1  0  0  0
  1  7  2  0  0  0
  2  3  2  0  0  0
  3  4  1  0  0  0
  4 21  1  0  0  0
  4  5  2  0  0  0
 21 22  1  0  0  0
 21 25  1  0  0  0
 22 23  2  0  0  0
 22 24  1  0  0  0
 24 27  1  0  0  0
 24 26  1  0  0  0
 27 28  1  0  0  0
 27 32  2  0  0  0
 28 29  2  0  0  0
 29 30  1  0  0  0
 30 31  2  0  0  0
 31 33  1  0  0  0
 31 32  1  0  0  0
 33 34  1  0  0  0
 33 35  1  0  0  0
 33 36  1  0  0  0
  5  6  1  0  0  0
  5  7  1  0  0  0
M  END
> <minimizedAffinity>
-10.16428

$$$$
