CHEMBL3125885


 42 46  0  0  0  0  0  0  0  0999 V2000
  -13.6968   -0.8550  -13.4755 C   0  0  0  0  0  0  0  0  0  0  0  0
  -12.7010    0.1186  -13.6011 C   0  0  0  0  0  0  0  0  0  0  0  0
  -12.9718    1.3067  -14.2916 C   0  0  0  0  0  0  0  0  0  0  0  0
  -14.2339    1.5119  -14.8382 C   0  0  0  0  0  0  0  0  0  0  0  0
  -14.4653    2.6208  -15.5576 F   0  0  0  0  0  0  0  0  0  0  0  0
  -15.2365    0.5493  -14.7150 C   0  0  0  0  0  0  0  0  0  0  0  0
  -14.9811   -0.6139  -13.9894 C   0  0  0  0  0  0  0  0  0  0  0  0
  -16.4754    0.7614  -15.3651 N   0  0  0  0  0  0  0  0  0  0  0  0
  -17.5933    1.1902  -14.6601 C   0  0  0  0  0  0  0  0  0  0  0  0
  -17.5756    1.5084  -13.4753 O   0  0  0  0  0  0  0  0  0  0  0  0
  -18.7373    1.1513  -15.4446 N   0  0  0  0  0  0  0  0  0  0  0  0
  -16.6495    0.1670  -16.1633 H   0  0  0  0  0  0  0  0  0  0  0  0
  -18.7284    0.4870  -16.2029 H   0  0  0  0  0  0  0  0  0  0  0  0
  -20.0052    1.5430  -14.9637 C   0  0  0  0  0  0  0  0  0  0  0  0
  -20.3354    2.8849  -14.7596 C   0  0  0  0  0  0  0  0  0  0  0  0
  -21.5993    3.2364  -14.2851 C   0  0  0  0  0  0  0  0  0  0  0  0
  -22.5273    2.2452  -13.9707 C   0  0  0  0  0  0  0  0  0  0  0  0
  -22.2049    0.8917  -14.1454 C   0  0  0  0  0  0  0  0  0  0  0  0
  -20.9513    0.5517  -14.6868 C   0  0  0  0  0  0  0  0  0  0  0  0
  -23.1575   -0.1934  -13.7099 C   0  0  0  0  0  0  0  0  0  0  0  0
  -22.5404   -1.3487  -13.3362 F   0  0  0  0  0  0  0  0  0  0  0  0
  -23.9278    0.1799  -12.6512 F   0  0  0  0  0  0  0  0  0  0  0  0
  -24.0289   -0.5411  -14.6986 F   0  0  0  0  0  0  0  0  0  0  0  0
  -13.3446   -2.0091  -12.8130 O   0  0  0  0  0  0  0  0  0  0  0  0
  -14.0142   -4.1383  -13.6371 C   0  0  0  0  0  0  0  0  0  0  0  0
  -13.0368   -3.1412  -13.5539 C   0  0  0  0  0  0  0  0  0  0  0  0
  -11.7965   -3.3149  -14.1682 C   0  0  0  0  0  0  0  0  0  0  0  0
  -11.5380   -4.4444  -14.9472 C   0  0  0  0  0  0  0  0  0  0  0  0
  -12.5075   -5.4579  -15.0569 C   0  0  0  0  0  0  0  0  0  0  0  0
  -12.3456   -6.6412  -15.7546 N   0  0  0  0  0  0  0  0  0  0  0  0
  -13.4161   -7.3701  -15.6189 C   0  0  0  0  0  0  0  0  0  0  0  0
  -14.7001   -6.6943  -14.7279 S   0  0  0  0  0  0  0  0  0  0  0  0
  -13.7341   -5.2996  -14.3975 C   0  0  0  0  0  0  0  0  0  0  0  0
  -13.6816   -8.6293  -16.0588 N   0  0  0  0  0  0  0  0  0  0  0  0
  -12.8107   -9.3723  -16.8195 C   0  0  0  0  0  0  0  0  0  0  0  0
  -11.7270   -9.0669  -17.2785 O   0  0  0  0  0  0  0  0  0  0  0  0
  -14.5466   -9.0438  -15.7573 H   0  0  0  0  0  0  0  0  0  0  0  0
  -13.3720  -10.7545  -17.0351 C   0  0  0  0  0  0  0  0  0  0  0  0
  -14.0292  -10.5799  -18.4777 C   0  0  0  0  0  0  0  0  0  0  0  0
  -13.6163  -11.8767  -18.0381 C   0  0  0  0  0  0  0  0  0  0  0  0
  -16.3145   -3.9839  -12.4518 N   0  0  0  0  0  0  0  0  0  0  0  0
  -15.2754   -4.0532  -12.9668 C   0  0  0  0  0  0  0  0  0  0  0  0
 41 42  3  0  0  0
 42 25  1  0  0  0
 25 26  1  0  0  0
 25 33  2  0  0  0
 26 24  1  0  0  0
 26 27  2  0  0  0
 24  1  1  0  0  0
  1  2  1  0  0  0
  1  7  2  0  0  0
  2  3  2  0  0  0
  3  4  1  0  0  0
  4  5  1  0  0  0
  4  6  2  0  0  0
  6  8  1  0  0  0
  6  7  1  0  0  0
  8  9  1  0  0  0
  8 12  1  0  0  0
  9 10  2  0  0  0
  9 11  1  0  0  0
 11 14  1  0  0  0
 11 13  1  0  0  0
 14 15  1  0  0  0
 14 19  2  0  0  0
 15 16  2  0  0  0
 16 17  1  0  0  0
 17 18  2  0  0  0
 18 20  1  0  0  0
 18 19  1  0  0  0
 20 21  1  0  0  0
 20 22  1  0  0  0
 20 23  1  0  0  0
 27 28  1  0  0  0
 28 29  2  0  0  0
 29 30  1  0  0  0
 29 33  1  0  0  0
 30 31  2  0  0  0
 31 34  1  0  0  0
 31 32  1  0  0  0
 34 35  1  0  0  0
 34 37  1  0  0  0
 35 36  2  0  0  0
 35 38  1  0  0  0
 38 39  1  0  0  0
 38 40  1  0  0  0
 39 40  1  0  0  0
 32 33  1  0  0  0
M  END
> <minimizedAffinity>
-9.46978

$$$$
