CHEMBL171736


 31 34  0  0  0  0  0  0  0  0999 V2000
  -28.5942   -2.2057   -6.8735 N   0  0  0  0  0  0  0  0  0  0  0  0
  -28.5362   -3.2501   -7.7786 C   0  0  0  0  0  0  0  0  0  0  0  0
  -27.9574   -3.0985   -8.9768 C   0  0  0  0  0  0  0  0  0  0  0  0
  -27.3770   -1.8246   -9.3622 C   0  0  0  0  0  0  0  0  0  0  0  0
  -27.4421   -0.8013   -8.5049 C   0  0  0  0  0  0  0  0  0  0  0  0
  -28.0437   -0.9566   -7.1600 C   0  0  0  0  0  0  0  0  0  0  0  0
  -28.0041   -0.0063   -6.3823 O   0  0  0  0  0  0  0  0  0  0  0  0
  -26.6144   -1.6481  -10.6034 C   0  0  0  0  0  0  0  0  0  0  0  0
  -27.1261   -1.9798  -11.9474 C   0  0  0  0  0  0  0  0  0  0  0  0
  -26.4181   -1.6107  -13.0407 C   0  0  0  0  0  0  0  0  0  0  0  0
  -25.1112   -1.1118  -12.8525 N   0  0  0  0  0  0  0  0  0  0  0  0
  -24.0188   -1.0334  -13.7343 C   0  0  0  0  0  0  0  0  0  0  0  0
  -23.4053   -2.1978  -13.2441 C   0  0  0  0  0  0  0  0  0  0  0  0
  -23.4908   -2.1733  -11.8632 N   0  0  0  0  0  0  0  0  0  0  0  0
  -24.4974   -1.3635  -11.6243 C   0  0  0  0  0  0  0  0  0  0  0  0
  -25.3221   -1.2562  -10.4770 C   0  0  0  0  0  0  0  0  0  0  0  0
  -23.1747    0.1851  -13.9857 C   0  0  0  0  0  0  0  0  0  0  0  0
  -21.8545   -0.0150  -14.4462 C   0  0  0  0  0  0  0  0  0  0  0  0
  -20.9120    1.0144  -14.4720 C   0  0  0  0  0  0  0  0  0  0  0  0
  -21.2784    2.2895  -14.0680 C   0  0  0  0  0  0  0  0  0  0  0  0
  -22.5867    2.5272  -13.6454 C   0  0  0  0  0  0  0  0  0  0  0  0
  -23.5335    1.4832  -13.6020 C   0  0  0  0  0  0  0  0  0  0  0  0
  -29.1493   -2.4261   -5.5364 C   0  0  0  0  0  0  0  0  0  0  0  0
  -28.3262   -3.4299   -4.7220 C   0  0  0  0  0  0  0  0  0  0  0  0
  -29.1990   -4.4115   -3.9275 C   0  0  0  0  0  0  0  0  0  0  0  0
  -30.5085   -4.7284   -4.5318 N   0  0  0  0  0  0  0  0  0  0  0  0
  -31.5634   -4.5225   -3.5323 C   0  0  0  0  0  0  0  0  0  0  0  0
  -30.5441   -6.1092   -5.0699 C   0  0  0  0  0  0  0  0  0  0  0  0
  -30.2460   -6.2092   -6.5755 C   0  0  0  0  0  0  0  0  0  0  0  0
  -28.8259   -7.4729   -7.9597 C   0  0  0  0  0  0  0  0  0  0  0  0
  -28.9165   -6.7027   -6.7683 O   0  0  0  0  0  0  0  0  0  0  0  0
 30 31  1  0  0  0
 31 29  1  0  0  0
 29 28  1  0  0  0
 28 26  1  0  0  0
 26 27  1  0  0  0
 26 25  1  0  0  0
 25 24  1  0  0  0
 24 23  1  0  0  0
 23  1  1  0  0  0
  1  2  1  0  0  0
  1  6  1  0  0  0
  2  3  2  0  0  0
  3  4  1  0  0  0
  4  8  1  0  0  0
  4  5  2  0  0  0
  8  9  1  0  0  0
  8 16  2  0  0  0
  9 10  2  0  0  0
 10 11  1  0  0  0
 11 12  1  0  0  0
 11 15  1  0  0  0
 12 17  1  0  0  0
 12 13  2  0  0  0
 17 18  1  0  0  0
 17 22  2  0  0  0
 18 19  2  0  0  0
 19 20  1  0  0  0
 20 21  2  0  0  0
 21 22  1  0  0  0
 13 14  1  0  0  0
 14 15  2  0  0  0
 15 16  1  0  0  0
  5  6  1  0  0  0
  6  7  2  0  0  0
M  END
> <minimizedAffinity>
-8.71879

$$$$
