CHEMBL250395


 26 29  0  0  0  0  0  0  0  0999 V2000
  -14.4362   -0.9855  -13.3774 C   0  0  0  0  0  0  0  0  0  0  0  0
  -14.0689   -2.1543  -13.9247 C   0  0  0  0  0  0  0  0  0  0  0  0
  -13.6473   -2.4449  -15.3231 C   0  0  0  0  0  0  0  0  0  0  0  0
  -13.2600   -1.7005  -16.1947 O   0  0  0  0  0  0  0  0  0  0  0  0
  -13.7753   -3.8204  -15.3978 N   0  0  0  0  0  0  0  0  0  0  0  0
  -14.0139   -4.4509  -14.1991 N   0  0  0  0  0  0  0  0  0  0  0  0
  -14.1353   -3.5045  -13.2961 C   0  0  0  0  0  0  0  0  0  0  0  0
  -13.5345   -4.3505  -16.2276 H   0  0  0  0  0  0  0  0  0  0  0  0
  -16.2458    3.0408  -15.6510 C   0  0  0  0  0  0  0  0  0  0  0  0
  -17.5498    2.5685  -15.8497 C   0  0  0  0  0  0  0  0  0  0  0  0
  -17.9429    1.3144  -15.3964 C   0  0  0  0  0  0  0  0  0  0  0  0
  -17.0324    0.4823  -14.7423 C   0  0  0  0  0  0  0  0  0  0  0  0
  -15.6886    0.8905  -14.5927 C   0  0  0  0  0  0  0  0  0  0  0  0
  -14.5307    0.2914  -14.0119 C   0  0  0  0  0  0  0  0  0  0  0  0
  -13.4692    1.1211  -14.2688 C   0  0  0  0  0  0  0  0  0  0  0  0
  -13.9517    2.2684  -14.8440 N   0  0  0  0  0  0  0  0  0  0  0  0
  -13.1009    3.3832  -15.1936 C   0  0  0  0  0  0  0  0  0  0  0  0
  -15.3087    2.1560  -15.0735 C   0  0  0  0  0  0  0  0  0  0  0  0
  -15.6114    4.4739  -17.4052 C   0  0  0  0  0  0  0  0  0  0  0  0
  -15.8523    4.3076  -16.0056 O   0  0  0  0  0  0  0  0  0  0  0  0
  -14.2820   -3.8275  -11.9074 C   0  0  0  0  0  0  0  0  0  0  0  0
  -12.9899   -3.6840  -10.7877 S   0  0  0  0  0  0  0  0  0  0  0  0
  -13.8889   -4.2554   -9.5091 N   0  0  0  0  0  0  0  0  0  0  0  0
  -15.1062   -4.6211   -9.8642 N   0  0  0  0  0  0  0  0  0  0  0  0
  -15.3372   -4.4194  -11.2215 C   0  0  0  0  0  0  0  0  0  0  0  0
  -16.6546   -4.8424  -11.7642 C   0  0  0  0  0  0  0  0  0  0  0  0
 19 20  1  0  0  0
 20  9  1  0  0  0
  9 10  1  0  0  0
  9 18  2  0  0  0
 10 11  2  0  0  0
 11 12  1  0  0  0
 12 13  2  0  0  0
 13 14  1  0  0  0
 13 18  1  0  0  0
 14  1  1  0  0  0
 14 15  2  0  0  0
  1  2  2  0  0  0
  2  3  1  0  0  0
  2  7  1  0  0  0
  3  4  2  0  0  0
  3  5  1  0  0  0
  5  6  1  0  0  0
  5  8  1  0  0  0
  6  7  2  0  0  0
  7 21  1  0  0  0
 21 22  1  0  0  0
 21 25  2  0  0  0
 22 23  1  0  0  0
 23 24  2  0  0  0
 24 25  1  0  0  0
 25 26  1  0  0  0
 15 16  1  0  0  0
 16 17  1  0  0  0
 16 18  1  0  0  0
M  END
> <minimizedAffinity>
-6.93050

$$$$
