CHEMBL224497


 38 43  0  0  0  0  0  0  0  0999 V2000
  -28.5435   -2.6648   -4.8261 C   0  0  0  0  0  0  0  0  0  0  0  0
  -29.4354   -1.8454   -4.2255 N   0  0  0  0  0  0  0  0  0  0  0  0
  -30.2126   -2.7472   -3.5617 N   0  0  0  0  0  0  0  0  0  0  0  0
  -29.5988   -3.9628   -3.4914 C   0  0  0  0  0  0  0  0  0  0  0  0
  -28.2648   -3.6719   -3.8244 C   0  0  0  0  0  0  0  0  0  0  0  0
  -27.4693   -4.9385   -3.7194 C   0  0  0  0  0  0  0  0  0  0  0  0
  -28.5500   -5.8381   -4.2998 C   0  0  0  0  0  0  0  0  0  0  0  0
  -28.2291   -6.7142   -5.3243 C   0  0  0  0  0  0  0  0  0  0  0  0
  -29.1683   -6.8613   -6.3402 C   0  0  0  0  0  0  0  0  0  0  0  0
  -30.4955   -6.3946   -6.1373 C   0  0  0  0  0  0  0  0  0  0  0  0
  -30.8569   -5.6230   -5.0085 C   0  0  0  0  0  0  0  0  0  0  0  0
  -29.8537   -5.2813   -4.1149 C   0  0  0  0  0  0  0  0  0  0  0  0
  -31.0035   -2.3843   -3.0579 H   0  0  0  0  0  0  0  0  0  0  0  0
  -28.1282   -2.5415   -8.5954 C   0  0  0  0  0  0  0  0  0  0  0  0
  -27.8640   -2.2701   -7.2718 C   0  0  0  0  0  0  0  0  0  0  0  0
  -28.7773   -2.8861   -6.3186 C   0  0  0  0  0  0  0  0  0  0  0  0
  -29.7877   -3.5321   -6.9947 C   0  0  0  0  0  0  0  0  0  0  0  0
  -29.5327   -3.5126   -8.7167 S   0  0  0  0  0  0  0  0  0  0  0  0
  -26.7752   -1.6475  -10.8097 C   0  0  0  0  0  0  0  0  0  0  0  0
  -27.3556   -2.0397   -9.7100 C   0  0  0  0  0  0  0  0  0  0  0  0
  -26.0987   -1.1904  -12.0918 C   0  0  0  0  0  0  0  0  0  0  0  0
  -25.1873   -0.1383  -11.7917 O   0  0  0  0  0  0  0  0  0  0  0  0
  -20.6157    0.6322  -15.0905 C   0  0  0  0  0  0  0  0  0  0  0  0
  -21.8240    0.4240  -14.2194 C   0  0  0  0  0  0  0  0  0  0  0  0
  -22.2309   -0.8810  -13.9097 C   0  0  0  0  0  0  0  0  0  0  0  0
  -23.3490   -1.1169  -13.1046 C   0  0  0  0  0  0  0  0  0  0  0  0
  -24.0804   -0.0475  -12.5932 C   0  0  0  0  0  0  0  0  0  0  0  0
  -23.6852    1.2565  -12.9043 C   0  0  0  0  0  0  0  0  0  0  0  0
  -22.5642    1.5091  -13.7142 C   0  0  0  0  0  0  0  0  0  0  0  0
  -22.1851    2.9302  -14.0287 C   0  0  0  0  0  0  0  0  0  0  0  0
  -28.6504   -7.0776   -7.7589 C   0  0  0  0  0  0  0  0  0  0  0  0
  -28.3242   -8.4578   -8.1462 N   0  0  0  0  0  0  0  0  0  0  0  0
  -29.5307   -9.1962   -8.5400 C   0  0  0  0  0  0  0  0  0  0  0  0
  -29.1808  -10.6097   -9.0485 C   0  0  0  0  0  0  0  0  0  0  0  0
  -28.2567  -10.6385  -10.2006 N   0  0  0  0  0  0  0  0  0  0  0  0
  -28.8986  -10.1606  -11.4238 C   0  0  0  0  0  0  0  0  0  0  0  0
  -27.0592   -9.8412   -9.8690 C   0  0  0  0  0  0  0  0  0  0  0  0
  -27.3503   -8.4432   -9.2660 C   0  0  0  0  0  0  0  0  0  0  0  0
 23 24  1  0  0  0
 24 25  1  0  0  0
 24 29  2  0  0  0
 25 26  2  0  0  0
 26 27  1  0  0  0
 27 22  1  0  0  0
 27 28  2  0  0  0
 22 21  1  0  0  0
 21 19  1  0  0  0
 19 20  3  0  0  0
 20 14  1  0  0  0
 14 15  2  0  0  0
 14 18  1  0  0  0
 15 16  1  0  0  0
 16  1  1  0  0  0
 16 17  2  0  0  0
  1  2  2  0  0  0
  1  5  1  0  0  0
  2  3  1  0  0  0
  3  4  1  0  0  0
  3 13  1  0  0  0
  4  5  2  0  0  0
  4 12  1  0  0  0
  5  6  1  0  0  0
  6  7  1  0  0  0
  7  8  1  0  0  0
  7 12  2  0  0  0
  8  9  2  0  0  0
  9 31  1  0  0  0
  9 10  1  0  0  0
 31 32  1  0  0  0
 32 33  1  0  0  0
 32 38  1  0  0  0
 33 34  1  0  0  0
 34 35  1  0  0  0
 35 36  1  0  0  0
 35 37  1  0  0  0
 37 38  1  0  0  0
 10 11  2  0  0  0
 11 12  1  0  0  0
 17 18  1  0  0  0
 28 29  1  0  0  0
 29 30  1  0  0  0
M  END
> <minimizedAffinity>
-10.25342

$$$$
