CHEMBL3961102


 38 41  0  0  0  0  0  0  0  0999 V2000
  -14.4264    1.8223  -16.6830 C   0  0  0  0  0  0  0  0  0  0  0  0
  -13.7394    2.7823  -17.3474 N   0  0  0  0  0  0  0  0  0  0  0  0
  -14.3540    3.9554  -17.6077 C   0  0  0  0  0  0  0  0  0  0  0  0
  -15.6015    4.3310  -17.2817 N   0  0  0  0  0  0  0  0  0  0  0  0
  -16.2329    3.3625  -16.6052 C   0  0  0  0  0  0  0  0  0  0  0  0
  -17.5211    3.4364  -16.1612 N   0  0  0  0  0  0  0  0  0  0  0  0
  -17.8926    2.2578  -15.5481 C   0  0  0  0  0  0  0  0  0  0  0  0
  -16.7751    1.4382  -15.5748 C   0  0  0  0  0  0  0  0  0  0  0  0
  -15.7308    2.1216  -16.2594 C   0  0  0  0  0  0  0  0  0  0  0  0
  -18.1156    4.2388  -16.3157 H   0  0  0  0  0  0  0  0  0  0  0  0
  -19.2493    2.0034  -15.0742 C   0  0  0  0  0  0  0  0  0  0  0  0
  -19.7807    0.7190  -15.1508 C   0  0  0  0  0  0  0  0  0  0  0  0
  -21.0579    0.4427  -14.6558 C   0  0  0  0  0  0  0  0  0  0  0  0
  -21.8404    1.4427  -14.0834 C   0  0  0  0  0  0  0  0  0  0  0  0
  -21.3120    2.7366  -13.9957 C   0  0  0  0  0  0  0  0  0  0  0  0
  -20.0275    3.0147  -14.4897 C   0  0  0  0  0  0  0  0  0  0  0  0
  -23.1410    1.1991  -13.5877 N   0  0  0  0  0  0  0  0  0  0  0  0
  -23.4807    0.2704  -12.6210 C   0  0  0  0  0  0  0  0  0  0  0  0
  -22.7230   -0.5039  -12.0407 O   0  0  0  0  0  0  0  0  0  0  0  0
  -23.8772    1.7996  -13.9436 H   0  0  0  0  0  0  0  0  0  0  0  0
  -24.9478    0.2539  -12.2533 C   0  0  0  0  0  0  0  0  0  0  0  0
  -25.3758   -1.1861  -11.9982 C   0  0  0  0  0  0  0  0  0  0  0  0
  -26.3957   -1.6585  -13.0110 C   0  0  0  0  0  0  0  0  0  0  0  0
  -26.2366   -1.5758  -14.2236 O   0  0  0  0  0  0  0  0  0  0  0  0
  -27.4980   -2.2469  -12.4434 N   0  0  0  0  0  0  0  0  0  0  0  0
  -28.5113   -2.6913  -13.3183 O   0  0  0  0  0  0  0  0  0  0  0  0
  -27.7226   -2.2193  -11.4544 H   0  0  0  0  0  0  0  0  0  0  0  0
  -28.1364   -2.4844  -14.2010 H   0  0  0  0  0  0  0  0  0  0  0  0
  -13.8740    0.5553  -16.4633 N   0  0  0  0  0  0  0  0  0  0  0  0
  -14.6396   -0.1165  -16.4975 H   0  0  0  0  0  0  0  0  0  0  0  0
  -11.7431   -0.2119  -15.4452 C   0  0  0  0  0  0  0  0  0  0  0  0
  -13.1314    0.3962  -15.2031 C   0  0  0  0  0  0  0  0  0  0  0  0
  -13.9517   -0.5168  -14.2960 C   0  0  0  0  0  0  0  0  0  0  0  0
  -14.7754    0.0279  -13.2987 C   0  0  0  0  0  0  0  0  0  0  0  0
  -15.5846   -0.7986  -12.5148 C   0  0  0  0  0  0  0  0  0  0  0  0
  -15.5707   -2.1788  -12.7071 C   0  0  0  0  0  0  0  0  0  0  0  0
  -14.7298   -2.7381  -13.6657 C   0  0  0  0  0  0  0  0  0  0  0  0
  -13.9246   -1.9139  -14.4533 C   0  0  0  0  0  0  0  0  0  0  0  0
 31 32  1  0  0  0
 32 29  1  0  0  0
 32 33  1  0  0  0
 29  1  1  0  0  0
 29 30  1  0  0  0
  1  2  1  0  0  0
  1  9  2  0  0  0
  2  3  2  0  0  0
  3  4  1  0  0  0
  4  5  2  0  0  0
  5  6  1  0  0  0
  5  9  1  0  0  0
  6  7  1  0  0  0
  6 10  1  0  0  0
  7 11  1  0  0  0
  7  8  2  0  0  0
 11 12  1  0  0  0
 11 16  2  0  0  0
 12 13  2  0  0  0
 13 14  1  0  0  0
 14 17  1  0  0  0
 14 15  2  0  0  0
 17 18  1  0  0  0
 17 20  1  0  0  0
 18 19  2  0  0  0
 18 21  1  0  0  0
 21 22  1  0  0  0
 22 23  1  0  0  0
 23 24  2  0  0  0
 23 25  1  0  0  0
 25 26  1  0  0  0
 25 27  1  0  0  0
 26 28  1  0  0  0
 15 16  1  0  0  0
  8  9  1  0  0  0
 33 34  1  0  0  0
 33 38  2  0  0  0
 34 35  2  0  0  0
 35 36  1  0  0  0
 36 37  2  0  0  0
 37 38  1  0  0  0
M  END
> <minimizedAffinity>
-9.64420

$$$$
