CHEMBL3690569


 37 40  0  0  0  0  0  0  0  0999 V2000
  -27.5504   -2.2296   -9.1209 C   0  0  0  0  0  0  0  0  0  0  0  0
  -28.0208   -3.5871   -8.8002 C   0  0  0  0  0  0  0  0  0  0  0  0
  -28.5372   -3.8625   -7.5892 C   0  0  0  0  0  0  0  0  0  0  0  0
  -28.6488   -2.8495   -6.6341 N   0  0  0  0  0  0  0  0  0  0  0  0
  -29.1733   -2.8451   -5.3442 C   0  0  0  0  0  0  0  0  0  0  0  0
  -28.9456   -1.5458   -4.9035 C   0  0  0  0  0  0  0  0  0  0  0  0
  -28.3393   -0.7693   -5.8455 N   0  0  0  0  0  0  0  0  0  0  0  0
  -28.1792   -1.5596   -6.8803 C   0  0  0  0  0  0  0  0  0  0  0  0
  -27.6200   -1.2793   -8.1572 C   0  0  0  0  0  0  0  0  0  0  0  0
  -25.2320   -1.3004  -11.7854 C   0  0  0  0  0  0  0  0  0  0  0  0
  -26.0306   -1.2164  -12.9066 C   0  0  0  0  0  0  0  0  0  0  0  0
  -27.3535   -1.4782  -12.6992 C   0  0  0  0  0  0  0  0  0  0  0  0
  -27.8573   -1.7973  -11.4949 N   0  0  0  0  0  0  0  0  0  0  0  0
  -26.9999   -1.8551  -10.4535 C   0  0  0  0  0  0  0  0  0  0  0  0
  -25.6790   -1.6192  -10.5445 N   0  0  0  0  0  0  0  0  0  0  0  0
  -22.0687    0.3500  -13.0411 C   0  0  0  0  0  0  0  0  0  0  0  0
  -23.4406   -0.0129  -12.7978 N   0  0  0  0  0  0  0  0  0  0  0  0
  -23.7669   -1.0339  -11.9323 C   0  0  0  0  0  0  0  0  0  0  0  0
  -22.9385   -1.6907  -11.3131 O   0  0  0  0  0  0  0  0  0  0  0  0
  -24.2005    0.4730  -13.2606 H   0  0  0  0  0  0  0  0  0  0  0  0
  -29.7789   -3.9563   -4.5922 C   0  0  0  0  0  0  0  0  0  0  0  0
  -31.1552   -3.8949   -4.3225 C   0  0  0  0  0  0  0  0  0  0  0  0
  -31.8021   -4.9247   -3.6498 C   0  0  0  0  0  0  0  0  0  0  0  0
  -31.0826   -6.0401   -3.2323 C   0  0  0  0  0  0  0  0  0  0  0  0
  -29.7175   -6.1550   -3.5025 C   0  0  0  0  0  0  0  0  0  0  0  0
  -29.0735   -5.1058   -4.1859 C   0  0  0  0  0  0  0  0  0  0  0  0
  -28.9549   -7.2875   -3.1204 N   0  0  0  0  0  0  0  0  0  0  0  0
  -28.2137   -8.0918   -3.9620 C   0  0  0  0  0  0  0  0  0  0  0  0
  -28.0587   -7.9467   -5.1680 O   0  0  0  0  0  0  0  0  0  0  0  0
  -27.6487   -9.1658   -3.3122 N   0  0  0  0  0  0  0  0  0  0  0  0
  -28.9445   -7.5237   -2.1400 H   0  0  0  0  0  0  0  0  0  0  0  0
  -27.3995   -9.0318   -2.3422 H   0  0  0  0  0  0  0  0  0  0  0  0
  -26.7995  -10.0725   -4.0973 C   0  0  0  0  0  0  0  0  0  0  0  0
  -25.2902   -9.7850   -4.0602 C   0  0  0  0  0  0  0  0  0  0  0  0
  -24.9848   -8.7839   -3.2026 F   0  0  0  0  0  0  0  0  0  0  0  0
  -24.6234  -10.8854   -3.6266 F   0  0  0  0  0  0  0  0  0  0  0  0
  -24.7931   -9.4697   -5.2736 F   0  0  0  0  0  0  0  0  0  0  0  0
 16 17  1  0  0  0
 17 18  1  0  0  0
 17 20  1  0  0  0
 18 19  2  0  0  0
 18 10  1  0  0  0
 10 11  1  0  0  0
 10 15  2  0  0  0
 11 12  2  0  0  0
 12 13  1  0  0  0
 13 14  2  0  0  0
 14  1  1  0  0  0
 14 15  1  0  0  0
  1  2  1  0  0  0
  1  9  2  0  0  0
  2  3  2  0  0  0
  3  4  1  0  0  0
  4  5  1  0  0  0
  4  8  1  0  0  0
  5 21  1  0  0  0
  5  6  2  0  0  0
 21 22  1  0  0  0
 21 26  2  0  0  0
 22 23  2  0  0  0
 23 24  1  0  0  0
 24 25  2  0  0  0
 25 27  1  0  0  0
 25 26  1  0  0  0
 27 28  1  0  0  0
 27 31  1  0  0  0
 28 29  2  0  0  0
 28 30  1  0  0  0
 30 33  1  0  0  0
 30 32  1  0  0  0
 33 34  1  0  0  0
 34 35  1  0  0  0
 34 36  1  0  0  0
 34 37  1  0  0  0
  6  7  1  0  0  0
  7  8  2  0  0  0
  8  9  1  0  0  0
M  END
> <minimizedAffinity>
-10.11211

$$$$
