CHEMBL2087169


 36 40  0  0  0  0  0  0  0  0999 V2000
  -29.0582   -7.7535   -7.2330 C   0  0  0  0  0  0  0  0  0  0  0  0
  -28.3446   -7.7975   -8.4448 C   0  0  0  0  0  0  0  0  0  0  0  0
  -27.7967   -6.6450   -9.0039 C   0  0  0  0  0  0  0  0  0  0  0  0
  -27.9637   -5.4632   -8.3129 C   0  0  0  0  0  0  0  0  0  0  0  0
  -28.6286   -5.3789   -7.0862 C   0  0  0  0  0  0  0  0  0  0  0  0
  -29.1472   -6.5370   -6.5278 C   0  0  0  0  0  0  0  0  0  0  0  0
  -28.6155   -3.9432   -6.7079 C   0  0  0  0  0  0  0  0  0  0  0  0
  -29.1632   -3.2971   -5.6517 C   0  0  0  0  0  0  0  0  0  0  0  0
  -27.8579   -3.2324   -7.8210 C   0  0  0  0  0  0  0  0  0  0  0  0
  -27.5858   -2.0550   -7.9440 O   0  0  0  0  0  0  0  0  0  0  0  0
  -27.5178   -4.2209   -8.7251 N   0  0  0  0  0  0  0  0  0  0  0  0
  -27.0077   -4.0231   -9.5713 H   0  0  0  0  0  0  0  0  0  0  0  0
  -29.8435   -4.0353   -4.6423 C   0  0  0  0  0  0  0  0  0  0  0  0
  -31.1306   -4.2180   -4.4291 N   0  0  0  0  0  0  0  0  0  0  0  0
  -31.2242   -5.0269   -3.3204 C   0  0  0  0  0  0  0  0  0  0  0  0
  -32.5433   -5.4348   -2.7911 C   0  0  0  0  0  0  0  0  0  0  0  0
  -29.9669   -5.3362   -2.8501 C   0  0  0  0  0  0  0  0  0  0  0  0
  -29.0984   -4.7261   -3.7141 N   0  0  0  0  0  0  0  0  0  0  0  0
  -28.0882   -4.7466   -3.6737 H   0  0  0  0  0  0  0  0  0  0  0  0
  -29.0560   -1.8245   -5.5349 C   0  0  0  0  0  0  0  0  0  0  0  0
  -30.1577   -1.0022   -5.8056 C   0  0  0  0  0  0  0  0  0  0  0  0
  -30.0642    0.3808   -5.6205 C   0  0  0  0  0  0  0  0  0  0  0  0
  -28.8698    0.9528   -5.1778 C   0  0  0  0  0  0  0  0  0  0  0  0
  -27.7605    0.1443   -4.9319 C   0  0  0  0  0  0  0  0  0  0  0  0
  -27.8598   -1.2341   -5.1133 C   0  0  0  0  0  0  0  0  0  0  0  0
  -26.7809   -1.9967   -4.8701 F   0  0  0  0  0  0  0  0  0  0  0  0
  -29.6283   -8.8879   -6.6408 N   0  0  0  0  0  0  0  0  0  0  0  0
  -29.5330   -8.8106   -5.6272 H   0  0  0  0  0  0  0  0  0  0  0  0
  -31.4547  -11.9928   -6.1832 N   0  0  0  0  0  0  0  0  0  0  0  0
  -31.6481  -11.0738   -7.3210 C   0  0  0  0  0  0  0  0  0  0  0  0
  -30.3374  -10.8163   -8.0600 C   0  0  0  0  0  0  0  0  0  0  0  0
  -29.2703  -10.2350   -7.1256 C   0  0  0  0  0  0  0  0  0  0  0  0
  -29.1182  -11.1728   -5.9264 C   0  0  0  0  0  0  0  0  0  0  0  0
  -30.4600  -11.4474   -5.2449 C   0  0  0  0  0  0  0  0  0  0  0  0
  -33.8985  -12.4645   -6.5118 C   0  0  0  0  0  0  0  0  0  0  0  0
  -32.7555  -12.2288   -5.5309 C   0  0  0  0  0  0  0  0  0  0  0  0
 35 36  1  0  0  0
 36 29  1  0  0  0
 29 30  1  0  0  0
 29 34  1  0  0  0
 30 31  1  0  0  0
 31 32  1  0  0  0
 32 27  1  0  0  0
 32 33  1  0  0  0
 27  1  1  0  0  0
 27 28  1  0  0  0
  1  2  1  0  0  0
  1  6  2  0  0  0
  2  3  2  0  0  0
  3  4  1  0  0  0
  4  5  2  0  0  0
  4 11  1  0  0  0
  5  6  1  0  0  0
  5  7  1  0  0  0
  7  8  2  0  0  0
  7  9  1  0  0  0
  8 13  1  0  0  0
  8 20  1  0  0  0
 13 14  2  0  0  0
 13 18  1  0  0  0
 14 15  1  0  0  0
 15 16  1  0  0  0
 15 17  2  0  0  0
 17 18  1  0  0  0
 18 19  1  0  0  0
 20 21  1  0  0  0
 20 25  2  0  0  0
 21 22  2  0  0  0
 22 23  1  0  0  0
 23 24  2  0  0  0
 24 25  1  0  0  0
 25 26  1  0  0  0
  9 10  2  0  0  0
  9 11  1  0  0  0
 11 12  1  0  0  0
 33 34  1  0  0  0
M  END
> <minimizedAffinity>
-7.71447

$$$$
