CHEMBL56109


 41 45  0  0  0  0  0  0  0  0999 V2000
  -16.4021    0.8007  -15.3227 C   0  0  0  0  0  0  0  0  0  0  0  0
  -16.1345    1.0120  -16.6537 N   0  0  0  0  0  0  0  0  0  0  0  0
  -14.7808    1.0538  -16.8387 C   0  0  0  0  0  0  0  0  0  0  0  0
  -14.1576    0.8442  -15.6266 C   0  0  0  0  0  0  0  0  0  0  0  0
  -15.1901    0.7825  -14.6354 C   0  0  0  0  0  0  0  0  0  0  0  0
  -12.6721    0.6560  -15.5332 C   0  0  0  0  0  0  0  0  0  0  0  0
  -11.9476    1.1255  -16.8072 C   0  0  0  0  0  0  0  0  0  0  0  0
  -12.6747    0.6867  -18.0869 C   0  0  0  0  0  0  0  0  0  0  0  0
  -14.1063    1.2444  -18.1518 C   0  0  0  0  0  0  0  0  0  0  0  0
  -16.8262    1.0615  -17.3863 H   0  0  0  0  0  0  0  0  0  0  0  0
  -22.2767    0.8564  -13.9336 C   0  0  0  0  0  0  0  0  0  0  0  0
  -22.7414    2.1869  -14.0083 C   0  0  0  0  0  0  0  0  0  0  0  0
  -21.8593    3.2228  -14.3085 C   0  0  0  0  0  0  0  0  0  0  0  0
  -20.5403    2.8836  -14.5379 C   0  0  0  0  0  0  0  0  0  0  0  0
  -20.0566    1.5676  -14.4795 C   0  0  0  0  0  0  0  0  0  0  0  0
  -20.9275    0.5308  -14.1788 C   0  0  0  0  0  0  0  0  0  0  0  0
  -18.6189    1.6497  -14.8091 C   0  0  0  0  0  0  0  0  0  0  0  0
  -17.7525    0.6255  -14.9122 C   0  0  0  0  0  0  0  0  0  0  0  0
  -18.3110    3.1174  -15.0362 C   0  0  0  0  0  0  0  0  0  0  0  0
  -17.2542    3.6589  -15.2833 O   0  0  0  0  0  0  0  0  0  0  0  0
  -19.5218    3.7675  -14.8645 N   0  0  0  0  0  0  0  0  0  0  0  0
  -19.6102    4.7668  -14.9661 H   0  0  0  0  0  0  0  0  0  0  0  0
  -23.4676   -0.4302  -13.6402 S   0  0  0  0  0  0  0  0  0  0  0  0
  -22.7502   -1.5879  -13.1386 O   0  0  0  0  0  0  0  0  0  0  0  0
  -24.3400   -0.5196  -14.7931 O   0  0  0  0  0  0  0  0  0  0  0  0
  -25.5317   -0.5895  -11.9041 C   0  0  0  0  0  0  0  0  0  0  0  0
  -24.3538    0.1561  -12.3423 N   0  0  0  0  0  0  0  0  0  0  0  0
  -23.7388    0.5203  -11.6132 H   0  0  0  0  0  0  0  0  0  0  0  0
  -15.0846    0.6004  -13.1581 C   0  0  0  0  0  0  0  0  0  0  0  0
  -15.5743   -0.7081  -12.5597 C   0  0  0  0  0  0  0  0  0  0  0  0
  -14.7117   -1.9605  -12.8206 C   0  0  0  0  0  0  0  0  0  0  0  0
  -15.5540   -3.0943  -13.2771 N   0  0  0  0  0  0  0  0  0  0  0  0
  -16.1120   -3.8720  -12.1556 C   0  0  0  0  0  0  0  0  0  0  0  0
  -15.0151   -4.6053  -11.3495 C   0  0  0  0  0  0  0  0  0  0  0  0
  -14.2855   -5.6173  -12.1540 N   0  0  0  0  0  0  0  0  0  0  0  0
  -13.8164   -4.9812  -13.4114 C   0  0  0  0  0  0  0  0  0  0  0  0
  -14.8117   -4.0367  -14.1447 C   0  0  0  0  0  0  0  0  0  0  0  0
  -15.1715   -6.7861  -12.3520 C   0  0  0  0  0  0  0  0  0  0  0  0
  -15.0281   -7.4974  -13.7019 C   0  0  0  0  0  0  0  0  0  0  0  0
  -16.1778   -7.2937  -14.5140 O   0  0  0  0  0  0  0  0  0  0  0  0
  -16.9414   -7.4236  -13.9190 H   0  0  0  0  0  0  0  0  0  0  0  0
 26 27  1  0  0  0
 27 23  1  0  0  0
 27 28  1  0  0  0
 23 24  2  0  0  0
 23 25  2  0  0  0
 23 11  1  0  0  0
 11 12  1  0  0  0
 11 16  2  0  0  0
 12 13  2  0  0  0
 13 14  1  0  0  0
 14 15  2  0  0  0
 14 21  1  0  0  0
 15 16  1  0  0  0
 15 17  1  0  0  0
 17 18  2  0  0  0
 17 19  1  0  0  0
 18  1  1  0  0  0
  1  2  1  0  0  0
  1  5  2  0  0  0
  2  3  1  0  0  0
  2 10  1  0  0  0
  3  4  2  0  0  0
  3  9  1  0  0  0
  4  5  1  0  0  0
  4  6  1  0  0  0
  5 29  1  0  0  0
 29 30  1  0  0  0
 30 31  1  0  0  0
 31 32  1  0  0  0
 32 33  1  0  0  0
 32 37  1  0  0  0
 33 34  1  0  0  0
 34 35  1  0  0  0
 35 38  1  0  0  0
 35 36  1  0  0  0
 38 39  1  0  0  0
 39 40  1  0  0  0
 40 41  1  0  0  0
 36 37  1  0  0  0
  6  7  1  0  0  0
  7  8  1  0  0  0
  8  9  1  0  0  0
 19 20  2  0  0  0
 19 21  1  0  0  0
 21 22  1  0  0  0
M  END
> <minimizedAffinity>
-9.60239

$$$$
