CHEMBL1761929


 28 30  0  0  0  0  0  0  0  0999 V2000
  -26.7087   11.9681  -15.9250 N   0  0  0  0  0  0  0  0  0  0  0  0
  -26.8059   11.9324  -16.9311 H   0  0  0  0  0  0  0  0  0  0  0  0
  -25.3824   11.6538  -15.5198 C   0  0  0  0  0  0  0  0  0  0  0  0
  -25.0731   11.6333  -14.2109 N   0  0  0  0  0  0  0  0  0  0  0  0
  -23.7991   11.4153  -13.8804 C   0  0  0  0  0  0  0  0  0  0  0  0
  -22.7930   11.2072  -14.7297 N   0  0  0  0  0  0  0  0  0  0  0  0
  -23.0930   11.2497  -16.0275 C   0  0  0  0  0  0  0  0  0  0  0  0
  -22.0510   11.0918  -16.9307 C   0  0  0  0  0  0  0  0  0  0  0  0
  -22.2257   11.1802  -18.3197 C   0  0  0  0  0  0  0  0  0  0  0  0
  -23.5183   11.3820  -18.8174 C   0  0  0  0  0  0  0  0  0  0  0  0
  -24.5814   11.5163  -17.9118 C   0  0  0  0  0  0  0  0  0  0  0  0
  -24.3853   11.4726  -16.5080 C   0  0  0  0  0  0  0  0  0  0  0  0
  -21.1844   11.0727  -19.2022 O   0  0  0  0  0  0  0  0  0  0  0  0
  -20.1711   12.0724  -19.1591 C   0  0  0  0  0  0  0  0  0  0  0  0
  -23.9353   11.4835  -20.1179 O   0  0  0  0  0  0  0  0  0  0  0  0
  -23.6127   12.6544  -20.8532 C   0  0  0  0  0  0  0  0  0  0  0  0
  -30.6108   11.6776  -14.2761 C   0  0  0  0  0  0  0  0  0  0  0  0
  -29.6741   12.5337  -13.7056 C   0  0  0  0  0  0  0  0  0  0  0  0
  -28.3734   12.6187  -14.2096 C   0  0  0  0  0  0  0  0  0  0  0  0
  -27.9508   11.8287  -15.2774 C   0  0  0  0  0  0  0  0  0  0  0  0
  -28.8916   10.9384  -15.8242 C   0  0  0  0  0  0  0  0  0  0  0  0
  -30.2003   10.8483  -15.3225 C   0  0  0  0  0  0  0  0  0  0  0  0
  -32.4215   11.1564  -12.6735 C   0  0  0  0  0  0  0  0  0  0  0  0
  -31.7669   10.6632  -11.7643 O   0  0  0  0  0  0  0  0  0  0  0  0
  -31.9581   11.6359  -13.8704 N   0  0  0  0  0  0  0  0  0  0  0  0
  -32.6497   12.1215  -14.4234 H   0  0  0  0  0  0  0  0  0  0  0  0
  -34.4144   10.4124  -11.7353 C   0  0  0  0  0  0  0  0  0  0  0  0
  -33.7672   11.3534  -12.5971 O   0  0  0  0  0  0  0  0  0  0  0  0
 27 28  1  0  0  0
 28 23  1  0  0  0
 23 24  2  0  0  0
 23 25  1  0  0  0
 25 17  1  0  0  0
 25 26  1  0  0  0
 17 18  1  0  0  0
 17 22  2  0  0  0
 18 19  2  0  0  0
 19 20  1  0  0  0
 20  1  1  0  0  0
 20 21  2  0  0  0
  1  3  1  0  0  0
  1  2  1  0  0  0
  3  4  1  0  0  0
  3 12  2  0  0  0
  4  5  2  0  0  0
  5  6  1  0  0  0
  6  7  2  0  0  0
  7  8  1  0  0  0
  7 12  1  0  0  0
  8  9  2  0  0  0
  9 13  1  0  0  0
  9 10  1  0  0  0
 13 14  1  0  0  0
 10 15  1  0  0  0
 10 11  2  0  0  0
 15 16  1  0  0  0
 11 12  1  0  0  0
 21 22  1  0  0  0
M  END
> <minimizedAffinity>
-4.86845

$$$$
