CHEMBL3928634


 37 40  0  0  0  0  0  0  0  0999 V2000
  -27.9472    1.0778   -4.8848 C   0  0  0  0  0  0  0  0  0  0  0  0
  -28.0059   -0.2758   -5.5297 C   0  0  0  0  0  0  0  0  0  0  0  0
  -28.1481   -0.3850   -6.9192 C   0  0  0  0  0  0  0  0  0  0  0  0
  -28.2114   -1.6322   -7.5492 C   0  0  0  0  0  0  0  0  0  0  0  0
  -28.1858   -2.7884   -6.7620 C   0  0  0  0  0  0  0  0  0  0  0  0
  -28.0041   -2.6976   -5.3734 C   0  0  0  0  0  0  0  0  0  0  0  0
  -27.9186   -1.4422   -4.7621 C   0  0  0  0  0  0  0  0  0  0  0  0
  -28.3366   -1.7621   -8.9539 N   0  0  0  0  0  0  0  0  0  0  0  0
  -27.2807   -1.6866   -9.8497 C   0  0  0  0  0  0  0  0  0  0  0  0
  -26.0933   -1.6554   -9.5416 O   0  0  0  0  0  0  0  0  0  0  0  0
  -27.7321   -1.6075  -11.1612 N   0  0  0  0  0  0  0  0  0  0  0  0
  -29.1707   -2.2148   -9.3004 H   0  0  0  0  0  0  0  0  0  0  0  0
  -28.5934   -1.0886  -11.2584 H   0  0  0  0  0  0  0  0  0  0  0  0
  -26.8201   -1.5189  -12.2384 C   0  0  0  0  0  0  0  0  0  0  0  0
  -27.2340   -1.9355  -13.5041 C   0  0  0  0  0  0  0  0  0  0  0  0
  -26.3764   -1.8080  -14.5981 C   0  0  0  0  0  0  0  0  0  0  0  0
  -25.0807   -1.3221  -14.4211 C   0  0  0  0  0  0  0  0  0  0  0  0
  -24.6309   -0.9443  -13.1471 C   0  0  0  0  0  0  0  0  0  0  0  0
  -25.5213   -1.0259  -12.0623 C   0  0  0  0  0  0  0  0  0  0  0  0
  -23.2135   -0.4724  -12.9335 C   0  0  0  0  0  0  0  0  0  0  0  0
  -23.0771    0.8825  -13.0177 F   0  0  0  0  0  0  0  0  0  0  0  0
  -22.7098   -0.8196  -11.7183 F   0  0  0  0  0  0  0  0  0  0  0  0
  -22.3522   -0.9830  -13.8587 F   0  0  0  0  0  0  0  0  0  0  0  0
  -28.0078   -3.7863   -4.5237 O   0  0  0  0  0  0  0  0  0  0  0  0
  -29.1744   -4.5320   -4.3797 C   0  0  0  0  0  0  0  0  0  0  0  0
  -29.1819   -5.7854   -4.9558 C   0  0  0  0  0  0  0  0  0  0  0  0
  -30.3482   -6.5023   -4.8253 C   0  0  0  0  0  0  0  0  0  0  0  0
  -31.4048   -6.0064   -4.1693 N   0  0  0  0  0  0  0  0  0  0  0  0
  -31.3064   -4.7751   -3.6682 C   0  0  0  0  0  0  0  0  0  0  0  0
  -30.2321   -3.9937   -3.7482 N   0  0  0  0  0  0  0  0  0  0  0  0
  -30.4414   -7.7836   -5.4037 N   0  0  0  0  0  0  0  0  0  0  0  0
  -30.8035   -7.9969   -6.7193 C   0  0  0  0  0  0  0  0  0  0  0  0
  -31.1202   -7.1535   -7.5464 O   0  0  0  0  0  0  0  0  0  0  0  0
  -30.2143   -8.5814   -4.8298 H   0  0  0  0  0  0  0  0  0  0  0  0
  -30.8167   -9.4364   -7.1331 C   0  0  0  0  0  0  0  0  0  0  0  0
  -29.5802  -10.0317   -7.7815 C   0  0  0  0  0  0  0  0  0  0  0  0
  -30.8053   -9.7774   -8.6085 C   0  0  0  0  0  0  0  0  0  0  0  0
  1  2  1  0  0  0
  2  3  1  0  0  0
  2  7  2  0  0  0
  3  4  2  0  0  0
  4  8  1  0  0  0
  4  5  1  0  0  0
  8  9  1  0  0  0
  8 12  1  0  0  0
  9 10  2  0  0  0
  9 11  1  0  0  0
 11 14  1  0  0  0
 11 13  1  0  0  0
 14 15  1  0  0  0
 14 19  2  0  0  0
 15 16  2  0  0  0
 16 17  1  0  0  0
 17 18  2  0  0  0
 18 20  1  0  0  0
 18 19  1  0  0  0
 20 21  1  0  0  0
 20 22  1  0  0  0
 20 23  1  0  0  0
  5  6  2  0  0  0
  6 24  1  0  0  0
  6  7  1  0  0  0
 24 25  1  0  0  0
 25 26  1  0  0  0
 25 30  2  0  0  0
 26 27  2  0  0  0
 27 31  1  0  0  0
 27 28  1  0  0  0
 31 32  1  0  0  0
 31 34  1  0  0  0
 32 33  2  0  0  0
 32 35  1  0  0  0
 35 36  1  0  0  0
 35 37  1  0  0  0
 36 37  1  0  0  0
 28 29  2  0  0  0
 29 30  1  0  0  0
M  END
> <minimizedAffinity>
-11.43507

$$$$
