CHEMBL205413


 31 34  0  0  0  0  0  0  0  0999 V2000
  -13.8871    0.2387  -16.1008 C   0  0  0  0  0  0  0  0  0  0  0  0
  -13.1158   -0.2147  -17.1936 C   0  0  0  0  0  0  0  0  0  0  0  0
  -13.1520    0.4328  -18.4280 C   0  0  0  0  0  0  0  0  0  0  0  0
  -13.9626    1.5440  -18.5979 C   0  0  0  0  0  0  0  0  0  0  0  0
  -14.7028    2.0318  -17.5219 C   0  0  0  0  0  0  0  0  0  0  0  0
  -14.6576    1.4208  -16.2469 C   0  0  0  0  0  0  0  0  0  0  0  0
  -12.8190   -0.2727  -14.0709 O   0  0  0  0  0  0  0  0  0  0  0  0
  -13.7730   -0.5094  -14.8004 C   0  0  0  0  0  0  0  0  0  0  0  0
  -14.7674   -1.4482  -14.5319 N   0  0  0  0  0  0  0  0  0  0  0  0
  -15.5553   -1.5008  -15.1635 H   0  0  0  0  0  0  0  0  0  0  0  0
  -14.8242   -2.3282  -13.4249 C   0  0  0  0  0  0  0  0  0  0  0  0
  -14.1883   -3.5687  -13.3923 C   0  0  0  0  0  0  0  0  0  0  0  0
  -14.2363   -4.3791  -12.2525 C   0  0  0  0  0  0  0  0  0  0  0  0
  -14.9343   -3.9651  -11.1224 C   0  0  0  0  0  0  0  0  0  0  0  0
  -15.6285   -2.7551  -11.1654 C   0  0  0  0  0  0  0  0  0  0  0  0
  -15.5624   -1.9352  -12.3017 C   0  0  0  0  0  0  0  0  0  0  0  0
  -15.0510   -4.6851   -9.9684 O   0  0  0  0  0  0  0  0  0  0  0  0
  -13.8353   -4.9743   -9.2782 C   0  0  0  0  0  0  0  0  0  0  0  0
  -14.0978   -5.5358   -8.0723 F   0  0  0  0  0  0  0  0  0  0  0  0
  -13.0891   -5.8475  -10.0001 F   0  0  0  0  0  0  0  0  0  0  0  0
  -12.9258   -3.4781   -9.0309 Cl  0  0  0  0  0  0  0  0  0  0  0  0
  -15.3841    2.1478  -15.1228 C   0  0  0  0  0  0  0  0  0  0  0  0
  -16.8521    1.9819  -15.1582 N   0  0  0  0  0  0  0  0  0  0  0  0
  -17.4289    0.7053  -15.1264 C   0  0  0  0  0  0  0  0  0  0  0  0
  -18.7471    0.4502  -15.0724 C   0  0  0  0  0  0  0  0  0  0  0  0
  -19.6221    1.6240  -15.0422 C   0  0  0  0  0  0  0  0  0  0  0  0
  -20.9123    1.7298  -15.0083 N   0  0  0  0  0  0  0  0  0  0  0  0
  -21.1170    3.1059  -14.9751 C   0  0  0  0  0  0  0  0  0  0  0  0
  -20.0593    3.8698  -14.9773 N   0  0  0  0  0  0  0  0  0  0  0  0
  -19.0387    2.9679  -15.0311 C   0  0  0  0  0  0  0  0  0  0  0  0
  -17.7111    3.0866  -15.0777 C   0  0  0  0  0  0  0  0  0  0  0  0
  7  8  2  0  0  0
  8  9  1  0  0  0
  8  1  1  0  0  0
  9 11  1  0  0  0
  9 10  1  0  0  0
 11 12  1  0  0  0
 11 16  2  0  0  0
 12 13  2  0  0  0
 13 14  1  0  0  0
 14 17  1  0  0  0
 14 15  2  0  0  0
 17 18  1  0  0  0
 18 19  1  0  0  0
 18 20  1  0  0  0
 18 21  1  0  0  0
 15 16  1  0  0  0
  1  2  1  0  0  0
  1  6  2  0  0  0
  2  3  2  0  0  0
  3  4  1  0  0  0
  4  5  2  0  0  0
  5  6  1  0  0  0
  6 22  1  0  0  0
 22 23  1  0  0  0
 23 24  1  0  0  0
 23 31  1  0  0  0
 24 25  2  0  0  0
 25 26  1  0  0  0
 26 27  2  0  0  0
 26 30  1  0  0  0
 27 28  1  0  0  0
 28 29  2  0  0  0
 29 30  1  0  0  0
 30 31  2  0  0  0
M  END
> <minimizedAffinity>
-7.84854

$$$$
