CHEMBL3905825


 38 41  0  0  0  0  0  0  0  0999 V2000
  -14.1620   -0.7315  -14.4138 C   0  0  0  0  0  0  0  0  0  0  0  0
  -14.3798   -1.9499  -13.7548 C   0  0  0  0  0  0  0  0  0  0  0  0
  -13.4106   -2.4783  -12.8869 C   0  0  0  0  0  0  0  0  0  0  0  0
  -12.2192   -1.7858  -12.6536 C   0  0  0  0  0  0  0  0  0  0  0  0
  -11.9988   -0.5876  -13.3411 C   0  0  0  0  0  0  0  0  0  0  0  0
  -10.8461    0.0839  -13.2026 F   0  0  0  0  0  0  0  0  0  0  0  0
  -12.9549   -0.0632  -14.2183 C   0  0  0  0  0  0  0  0  0  0  0  0
  -17.1798    0.9191  -15.6139 N   0  0  0  0  0  0  0  0  0  0  0  0
  -16.2631    0.4463  -14.6872 C   0  0  0  0  0  0  0  0  0  0  0  0
  -16.3480    0.5945  -13.4725 O   0  0  0  0  0  0  0  0  0  0  0  0
  -15.1560   -0.1602  -15.2651 N   0  0  0  0  0  0  0  0  0  0  0  0
  -16.9077    0.8896  -16.5848 H   0  0  0  0  0  0  0  0  0  0  0  0
  -14.8038    0.3262  -16.0769 H   0  0  0  0  0  0  0  0  0  0  0  0
  -20.7098    1.4833  -14.4689 C   0  0  0  0  0  0  0  0  0  0  0  0
  -20.8788    2.8444  -14.7575 C   0  0  0  0  0  0  0  0  0  0  0  0
  -19.8226    3.5933  -15.2436 C   0  0  0  0  0  0  0  0  0  0  0  0
  -18.5861    2.9885  -15.4763 C   0  0  0  0  0  0  0  0  0  0  0  0
  -17.5804    3.8187  -15.7772 F   0  0  0  0  0  0  0  0  0  0  0  0
  -18.3919    1.6068  -15.2938 C   0  0  0  0  0  0  0  0  0  0  0  0
  -19.4637    0.8695  -14.7520 C   0  0  0  0  0  0  0  0  0  0  0  0
  -23.1384    1.5480  -13.7753 C   0  0  0  0  0  0  0  0  0  0  0  0
  -21.8607    0.7268  -13.8318 C   0  0  0  0  0  0  0  0  0  0  0  0
  -21.5683    0.3497  -12.5500 F   0  0  0  0  0  0  0  0  0  0  0  0
  -22.1390   -0.4365  -14.4895 F   0  0  0  0  0  0  0  0  0  0  0  0
  -11.2885   -2.4052  -11.8425 O   0  0  0  0  0  0  0  0  0  0  0  0
  -11.7309   -3.3232  -10.8918 C   0  0  0  0  0  0  0  0  0  0  0  0
  -11.7387   -4.6571  -11.2658 C   0  0  0  0  0  0  0  0  0  0  0  0
  -12.2164   -5.5454  -10.3245 C   0  0  0  0  0  0  0  0  0  0  0  0
  -12.6071   -5.1335   -9.1127 N   0  0  0  0  0  0  0  0  0  0  0  0
  -12.5730   -3.8236   -8.8580 C   0  0  0  0  0  0  0  0  0  0  0  0
  -12.1852   -2.8772   -9.7102 N   0  0  0  0  0  0  0  0  0  0  0  0
  -12.3268   -6.9139  -10.6501 N   0  0  0  0  0  0  0  0  0  0  0  0
  -13.3058   -7.4179  -11.4861 C   0  0  0  0  0  0  0  0  0  0  0  0
  -14.2259   -6.8000  -12.0085 O   0  0  0  0  0  0  0  0  0  0  0  0
  -11.6263   -7.5448  -10.2890 H   0  0  0  0  0  0  0  0  0  0  0  0
  -13.1940   -8.8864  -11.7752 C   0  0  0  0  0  0  0  0  0  0  0  0
  -11.8305   -9.4748  -12.0866 C   0  0  0  0  0  0  0  0  0  0  0  0
  -12.8475   -9.3375  -13.1804 C   0  0  0  0  0  0  0  0  0  0  0  0
 21 22  1  0  0  0
 22 23  1  0  0  0
 22 24  1  0  0  0
 22 14  1  0  0  0
 14 15  1  0  0  0
 14 20  2  0  0  0
 15 16  2  0  0  0
 16 17  1  0  0  0
 17 18  1  0  0  0
 17 19  2  0  0  0
 19  8  1  0  0  0
 19 20  1  0  0  0
  8  9  1  0  0  0
  8 12  1  0  0  0
  9 10  2  0  0  0
  9 11  1  0  0  0
 11  1  1  0  0  0
 11 13  1  0  0  0
  1  2  1  0  0  0
  1  7  2  0  0  0
  2  3  2  0  0  0
  3  4  1  0  0  0
  4 25  1  0  0  0
  4  5  2  0  0  0
 25 26  1  0  0  0
 26 27  1  0  0  0
 26 31  2  0  0  0
 27 28  2  0  0  0
 28 32  1  0  0  0
 28 29  1  0  0  0
 32 33  1  0  0  0
 32 35  1  0  0  0
 33 34  2  0  0  0
 33 36  1  0  0  0
 36 37  1  0  0  0
 36 38  1  0  0  0
 37 38  1  0  0  0
 29 30  2  0  0  0
 30 31  1  0  0  0
  5  6  1  0  0  0
  5  7  1  0  0  0
M  END
> <minimizedAffinity>
-9.94939

$$$$
