CHEMBL60541


 29 32  0  0  0  0  0  0  0  0999 V2000
  -22.3076    0.8218  -14.0067 C   0  0  0  0  0  0  0  0  0  0  0  0
  -22.7518    2.1606  -14.0160 C   0  0  0  0  0  0  0  0  0  0  0  0
  -21.8527    3.1977  -14.2672 C   0  0  0  0  0  0  0  0  0  0  0  0
  -20.5353    2.8546  -14.5018 C   0  0  0  0  0  0  0  0  0  0  0  0
  -20.0746    1.5306  -14.4999 C   0  0  0  0  0  0  0  0  0  0  0  0
  -20.9572    0.4934  -14.2398 C   0  0  0  0  0  0  0  0  0  0  0  0
  -18.6332    1.6078  -14.8023 C   0  0  0  0  0  0  0  0  0  0  0  0
  -17.7860    0.5778  -14.9674 C   0  0  0  0  0  0  0  0  0  0  0  0
  -18.2934    3.0765  -14.9391 C   0  0  0  0  0  0  0  0  0  0  0  0
  -17.2180    3.6014  -15.1474 O   0  0  0  0  0  0  0  0  0  0  0  0
  -19.4950    3.7385  -14.7548 N   0  0  0  0  0  0  0  0  0  0  0  0
  -19.5631    4.7441  -14.7863 H   0  0  0  0  0  0  0  0  0  0  0  0
  -16.4432    0.7630  -15.3755 C   0  0  0  0  0  0  0  0  0  0  0  0
  -16.1731    1.1514  -16.6702 N   0  0  0  0  0  0  0  0  0  0  0  0
  -14.8145    1.2445  -16.8574 C   0  0  0  0  0  0  0  0  0  0  0  0
  -14.1979    0.9074  -15.6717 C   0  0  0  0  0  0  0  0  0  0  0  0
  -15.2285    0.6139  -14.7391 C   0  0  0  0  0  0  0  0  0  0  0  0
  -14.8802    0.2035  -13.3589 C   0  0  0  0  0  0  0  0  0  0  0  0
  -13.4526   -0.3602  -13.3567 C   0  0  0  0  0  0  0  0  0  0  0  0
  -12.4904    0.4606  -14.0665 O   0  0  0  0  0  0  0  0  0  0  0  0
  -12.7771    0.8472  -15.3572 C   0  0  0  0  0  0  0  0  0  0  0  0
  -11.8938    1.1656  -16.1441 O   0  0  0  0  0  0  0  0  0  0  0  0
  -16.8648    1.3127  -17.3902 H   0  0  0  0  0  0  0  0  0  0  0  0
  -23.4579   -0.4588  -13.5426 S   0  0  0  0  0  0  0  0  0  0  0  0
  -22.7037   -1.5377  -12.9471 O   0  0  0  0  0  0  0  0  0  0  0  0
  -24.3510   -0.6858  -14.6595 O   0  0  0  0  0  0  0  0  0  0  0  0
  -25.4686   -0.5013  -11.7472 C   0  0  0  0  0  0  0  0  0  0  0  0
  -24.3366    0.2442  -12.2925 N   0  0  0  0  0  0  0  0  0  0  0  0
  -23.7131    0.6908  -11.6187 H   0  0  0  0  0  0  0  0  0  0  0  0
 27 28  1  0  0  0
 28 24  1  0  0  0
 28 29  1  0  0  0
 24 25  2  0  0  0
 24 26  2  0  0  0
 24  1  1  0  0  0
  1  2  1  0  0  0
  1  6  2  0  0  0
  2  3  2  0  0  0
  3  4  1  0  0  0
  4  5  2  0  0  0
  4 11  1  0  0  0
  5  6  1  0  0  0
  5  7  1  0  0  0
  7  8  2  0  0  0
  7  9  1  0  0  0
  8 13  1  0  0  0
 13 14  1  0  0  0
 13 17  2  0  0  0
 14 15  1  0  0  0
 14 23  1  0  0  0
 15 16  2  0  0  0
 16 17  1  0  0  0
 16 21  1  0  0  0
 17 18  1  0  0  0
 18 19  1  0  0  0
 19 20  1  0  0  0
 20 21  1  0  0  0
 21 22  2  0  0  0
  9 10  2  0  0  0
  9 11  1  0  0  0
 11 12  1  0  0  0
M  END
> <minimizedAffinity>
-8.58672

$$$$
