CHEMBL1242289


 28 31  0  0  0  0  0  0  0  0999 V2000
  -29.0028   -5.9030   -6.2071 C   0  0  0  0  0  0  0  0  0  0  0  0
  -28.9819   -6.2695   -7.5036 N   0  0  0  0  0  0  0  0  0  0  0  0
  -28.9117   -7.6183   -7.4798 N   0  0  0  0  0  0  0  0  0  0  0  0
  -28.9149   -8.1346   -6.2134 C   0  0  0  0  0  0  0  0  0  0  0  0
  -28.8540   -9.4339   -5.8708 N   0  0  0  0  0  0  0  0  0  0  0  0
  -28.8935   -9.5953   -4.5398 C   0  0  0  0  0  0  0  0  0  0  0  0
  -29.0083   -8.6433   -3.5961 N   0  0  0  0  0  0  0  0  0  0  0  0
  -29.0764   -7.3532   -3.9833 C   0  0  0  0  0  0  0  0  0  0  0  0
  -29.2454   -6.4237   -2.9638 N   0  0  0  0  0  0  0  0  0  0  0  0
  -29.0033   -7.0510   -5.3511 C   0  0  0  0  0  0  0  0  0  0  0  0
  -29.4981   -6.8962   -2.1023 H   0  0  0  0  0  0  0  0  0  0  0  0
  -29.8348   -5.6377   -3.2100 H   0  0  0  0  0  0  0  0  0  0  0  0
  -29.0959   -1.7054   -5.2560 C   0  0  0  0  0  0  0  0  0  0  0  0
  -30.2794   -2.3845   -5.5394 C   0  0  0  0  0  0  0  0  0  0  0  0
  -30.2571   -3.7635   -5.8097 C   0  0  0  0  0  0  0  0  0  0  0  0
  -29.0509   -4.4767   -5.8578 C   0  0  0  0  0  0  0  0  0  0  0  0
  -27.8673   -3.7960   -5.5481 C   0  0  0  0  0  0  0  0  0  0  0  0
  -27.8983   -2.4336   -5.2415 C   0  0  0  0  0  0  0  0  0  0  0  0
  -26.7314   -1.7861   -4.9261 O   0  0  0  0  0  0  0  0  0  0  0  0
  -26.0260   -2.4438   -4.8235 H   0  0  0  0  0  0  0  0  0  0  0  0
  -28.9832   -0.3793   -4.9530 O   0  0  0  0  0  0  0  0  0  0  0  0
  -30.4861    1.3180   -5.8189 C   0  0  0  0  0  0  0  0  0  0  0  0
  -29.1464    0.6154   -5.9572 C   0  0  0  0  0  0  0  0  0  0  0  0
  -28.8581   -8.3718   -8.7148 C   0  0  0  0  0  0  0  0  0  0  0  0
  -29.9277   -9.4603   -8.8234 C   0  0  0  0  0  0  0  0  0  0  0  0
  -29.3824  -10.4643   -9.8373 C   0  0  0  0  0  0  0  0  0  0  0  0
  -27.8951  -10.1592  -10.0020 C   0  0  0  0  0  0  0  0  0  0  0  0
  -27.5533   -9.1420   -8.9213 C   0  0  0  0  0  0  0  0  0  0  0  0
 22 23  1  0  0  0
 23 21  1  0  0  0
 21 13  1  0  0  0
 13 14  1  0  0  0
 13 18  2  0  0  0
 14 15  2  0  0  0
 15 16  1  0  0  0
 16  1  1  0  0  0
 16 17  2  0  0  0
  1  2  2  0  0  0
  1 10  1  0  0  0
  2  3  1  0  0  0
  3 24  1  0  0  0
  3  4  1  0  0  0
 24 25  1  0  0  0
 24 28  1  0  0  0
 25 26  1  0  0  0
 26 27  1  0  0  0
 27 28  1  0  0  0
  4  5  1  0  0  0
  4 10  2  0  0  0
  5  6  2  0  0  0
  6  7  1  0  0  0
  7  8  2  0  0  0
  8  9  1  0  0  0
  8 10  1  0  0  0
  9 11  1  0  0  0
  9 12  1  0  0  0
 17 18  1  0  0  0
 18 19  1  0  0  0
 19 20  1  0  0  0
M  END
> <minimizedAffinity>
-8.25334

$$$$
