CHEMBL1973145


 34 37  0  0  0  0  0  0  0  0999 V2000
  -28.3680   -2.3439   -8.1613 C   0  0  0  0  0  0  0  0  0  0  0  0
  -27.9131   -2.2233   -6.8462 C   0  0  0  0  0  0  0  0  0  0  0  0
  -28.1554   -3.2344   -5.9123 C   0  0  0  0  0  0  0  0  0  0  0  0
  -28.8945   -4.3737   -6.2617 C   0  0  0  0  0  0  0  0  0  0  0  0
  -29.4367   -4.4298   -7.5528 C   0  0  0  0  0  0  0  0  0  0  0  0
  -29.1687   -3.4310   -8.5020 C   0  0  0  0  0  0  0  0  0  0  0  0
  -29.1025   -5.4611   -5.2912 C   0  0  0  0  0  0  0  0  0  0  0  0
  -29.5228   -5.1521   -4.0057 C   0  0  0  0  0  0  0  0  0  0  0  0
  -29.7386   -6.5199   -3.0161 S   0  0  0  0  0  0  0  0  0  0  0  0
  -29.3097   -7.5650   -4.2843 C   0  0  0  0  0  0  0  0  0  0  0  0
  -29.3392   -8.8895   -4.0764 N   0  0  0  0  0  0  0  0  0  0  0  0
  -29.0033   -9.5967   -5.1443 C   0  0  0  0  0  0  0  0  0  0  0  0
  -29.0460  -10.9721   -5.0275 N   0  0  0  0  0  0  0  0  0  0  0  0
  -28.5822   -9.1021   -6.3083 N   0  0  0  0  0  0  0  0  0  0  0  0
  -28.5364   -7.7675   -6.4899 C   0  0  0  0  0  0  0  0  0  0  0  0
  -28.0492   -7.3630   -7.7281 N   0  0  0  0  0  0  0  0  0  0  0  0
  -28.9505   -6.9057   -5.4529 C   0  0  0  0  0  0  0  0  0  0  0  0
  -28.9592  -11.2440   -4.0588 H   0  0  0  0  0  0  0  0  0  0  0  0
  -28.4172  -11.3960   -5.6932 H   0  0  0  0  0  0  0  0  0  0  0  0
  -27.6282   -8.1529   -8.2062 H   0  0  0  0  0  0  0  0  0  0  0  0
  -27.4820   -6.5244   -7.6961 H   0  0  0  0  0  0  0  0  0  0  0  0
  -26.7510   -0.7487  -10.9994 N   0  0  0  0  0  0  0  0  0  0  0  0
  -27.0014   -1.7605  -10.0877 C   0  0  0  0  0  0  0  0  0  0  0  0
  -26.4621   -2.8628  -10.0925 O   0  0  0  0  0  0  0  0  0  0  0  0
  -27.9851   -1.4164   -9.1629 N   0  0  0  0  0  0  0  0  0  0  0  0
  -27.0845    0.1735  -10.7594 H   0  0  0  0  0  0  0  0  0  0  0  0
  -28.7126   -0.8183   -9.5257 H   0  0  0  0  0  0  0  0  0  0  0  0
  -22.4321    0.3105  -13.1939 C   0  0  0  0  0  0  0  0  0  0  0  0
  -23.7836   -0.3382  -13.2233 C   0  0  0  0  0  0  0  0  0  0  0  0
  -24.1925   -1.0324  -14.3650 C   0  0  0  0  0  0  0  0  0  0  0  0
  -25.4487   -1.6304  -14.4036 C   0  0  0  0  0  0  0  0  0  0  0  0
  -26.2999   -1.5370  -13.3038 C   0  0  0  0  0  0  0  0  0  0  0  0
  -25.9123   -0.8626  -12.1422 C   0  0  0  0  0  0  0  0  0  0  0  0
  -24.6488   -0.2574  -12.1135 C   0  0  0  0  0  0  0  0  0  0  0  0
 28 29  1  0  0  0
 29 30  1  0  0  0
 29 34  2  0  0  0
 30 31  2  0  0  0
 31 32  1  0  0  0
 32 33  2  0  0  0
 33 22  1  0  0  0
 33 34  1  0  0  0
 22 23  1  0  0  0
 22 26  1  0  0  0
 23 24  2  0  0  0
 23 25  1  0  0  0
 25  1  1  0  0  0
 25 27  1  0  0  0
  1  2  1  0  0  0
  1  6  2  0  0  0
  2  3  2  0  0  0
  3  4  1  0  0  0
  4  7  1  0  0  0
  4  5  2  0  0  0
  7  8  2  0  0  0
  7 17  1  0  0  0
  8  9  1  0  0  0
  9 10  1  0  0  0
 10 11  1  0  0  0
 10 17  2  0  0  0
 11 12  2  0  0  0
 12 13  1  0  0  0
 12 14  1  0  0  0
 13 18  1  0  0  0
 13 19  1  0  0  0
 14 15  2  0  0  0
 15 16  1  0  0  0
 15 17  1  0  0  0
 16 20  1  0  0  0
 16 21  1  0  0  0
  5  6  1  0  0  0
M  END
> <minimizedAffinity>
-9.01238

$$$$
