CHEMBL4436488


 29 31  0  0  0  0  0  0  0  0999 V2000
  -25.9885   -1.9747  -12.2422 C   0  0  0  0  0  0  0  0  0  0  0  0
  -26.9948   -2.0391  -13.2094 C   0  0  0  0  0  0  0  0  0  0  0  0
  -26.7689   -1.6116  -14.5116 C   0  0  0  0  0  0  0  0  0  0  0  0
  -25.5401   -1.0714  -14.8580 C   0  0  0  0  0  0  0  0  0  0  0  0
  -24.5239   -0.9310  -13.9101 C   0  0  0  0  0  0  0  0  0  0  0  0
  -24.7414   -1.4222  -12.6064 C   0  0  0  0  0  0  0  0  0  0  0  0
  -28.1507   -1.2831  -10.3986 O   0  0  0  0  0  0  0  0  0  0  0  0
  -27.2244   -2.0076  -10.0609 C   0  0  0  0  0  0  0  0  0  0  0  0
  -27.0648   -2.4908   -8.7685 N   0  0  0  0  0  0  0  0  0  0  0  0
  -26.1903   -2.4108  -10.9033 N   0  0  0  0  0  0  0  0  0  0  0  0
  -26.1888   -2.9405   -8.5552 H   0  0  0  0  0  0  0  0  0  0  0  0
  -25.5504   -3.1079  -10.5553 H   0  0  0  0  0  0  0  0  0  0  0  0
  -27.9044   -2.1846   -7.6645 C   0  0  0  0  0  0  0  0  0  0  0  0
  -28.9144   -3.0331   -7.1922 C   0  0  0  0  0  0  0  0  0  0  0  0
  -29.7592   -2.6426   -6.1478 C   0  0  0  0  0  0  0  0  0  0  0  0
  -29.5970   -1.3974   -5.5512 C   0  0  0  0  0  0  0  0  0  0  0  0
  -28.5745   -0.5605   -5.9912 C   0  0  0  0  0  0  0  0  0  0  0  0
  -28.3713    0.9834   -5.2568 Cl  0  0  0  0  0  0  0  0  0  0  0  0
  -27.7247   -0.9495   -7.0317 C   0  0  0  0  0  0  0  0  0  0  0  0
  -23.3037   -0.2817  -14.2213 N   0  0  0  0  0  0  0  0  0  0  0  0
  -22.9773    1.0254  -13.8719 C   0  0  0  0  0  0  0  0  0  0  0  0
  -23.6942    1.8238  -13.2774 O   0  0  0  0  0  0  0  0  0  0  0  0
  -22.5449   -0.8205  -14.6269 H   0  0  0  0  0  0  0  0  0  0  0  0
  -21.5916    1.4619  -14.2192 C   0  0  0  0  0  0  0  0  0  0  0  0
  -20.7139    0.5234  -14.7613 C   0  0  0  0  0  0  0  0  0  0  0  0
  -19.4418    0.9391  -15.1298 C   0  0  0  0  0  0  0  0  0  0  0  0
  -19.0888    2.2689  -14.9395 C   0  0  0  0  0  0  0  0  0  0  0  0
  -20.0245    3.1332  -14.3816 C   0  0  0  0  0  0  0  0  0  0  0  0
  -21.2766    2.7699  -14.0162 N   0  0  0  0  0  0  0  0  0  0  0  0
  7  8  2  0  0  0
  8  9  1  0  0  0
  8 10  1  0  0  0
  9 13  1  0  0  0
  9 11  1  0  0  0
 13 14  1  0  0  0
 13 19  2  0  0  0
 14 15  2  0  0  0
 15 16  1  0  0  0
 16 17  2  0  0  0
 17 18  1  0  0  0
 17 19  1  0  0  0
 10  1  1  0  0  0
 10 12  1  0  0  0
  1  2  1  0  0  0
  1  6  2  0  0  0
  2  3  2  0  0  0
  3  4  1  0  0  0
  4  5  2  0  0  0
  5 20  1  0  0  0
  5  6  1  0  0  0
 20 21  1  0  0  0
 20 23  1  0  0  0
 21 22  2  0  0  0
 21 24  1  0  0  0
 24 25  1  0  0  0
 24 29  2  0  0  0
 25 26  2  0  0  0
 26 27  1  0  0  0
 27 28  2  0  0  0
 28 29  1  0  0  0
M  END
> <minimizedAffinity>
-10.51468

$$$$
