CHEMBL3911948


 36 40  0  0  0  0  0  0  0  0999 V2000
  -12.4971   -5.2153  -13.4874 N   0  0  0  0  0  0  0  0  0  0  0  0
  -12.7942   -3.8482  -13.8630 C   0  0  0  0  0  0  0  0  0  0  0  0
  -11.6869   -3.0081  -13.9713 C   0  0  0  0  0  0  0  0  0  0  0  0
  -11.8194   -1.6419  -13.7897 C   0  0  0  0  0  0  0  0  0  0  0  0
  -13.0540   -1.0635  -13.6400 C   0  0  0  0  0  0  0  0  0  0  0  0
  -13.0321    0.2262  -13.2816 N   0  0  0  0  0  0  0  0  0  0  0  0
  -14.2003    0.8780  -13.3389 C   0  0  0  0  0  0  0  0  0  0  0  0
  -15.3432    0.2829  -13.8382 C   0  0  0  0  0  0  0  0  0  0  0  0
  -15.4067   -1.0769  -14.0479 N   0  0  0  0  0  0  0  0  0  0  0  0
  -14.2361   -1.8021  -13.8902 C   0  0  0  0  0  0  0  0  0  0  0  0
  -14.0702   -3.2344  -13.9324 C   0  0  0  0  0  0  0  0  0  0  0  0
  -16.2672    1.1893  -14.5098 C   0  0  0  0  0  0  0  0  0  0  0  0
  -16.2633    1.8925  -15.7306 C   0  0  0  0  0  0  0  0  0  0  0  0
  -17.4123    2.5512  -15.9507 N   0  0  0  0  0  0  0  0  0  0  0  0
  -18.1441    2.2887  -14.8524 N   0  0  0  0  0  0  0  0  0  0  0  0
  -19.3531    3.0245  -14.5625 C   0  0  0  0  0  0  0  0  0  0  0  0
  -17.5564    1.3733  -14.0336 C   0  0  0  0  0  0  0  0  0  0  0  0
  -13.6621   -7.5246  -16.1890 C   0  0  0  0  0  0  0  0  0  0  0  0
  -13.3238   -8.7675  -15.6479 C   0  0  0  0  0  0  0  0  0  0  0  0
  -12.8253   -8.8392  -14.3488 C   0  0  0  0  0  0  0  0  0  0  0  0
  -12.6785   -7.6697  -13.5927 C   0  0  0  0  0  0  0  0  0  0  0  0
  -12.9321   -6.4019  -14.1231 C   0  0  0  0  0  0  0  0  0  0  0  0
  -13.4692   -6.3559  -15.4257 C   0  0  0  0  0  0  0  0  0  0  0  0
  -13.8419   -8.3427  -18.4298 C   0  0  0  0  0  0  0  0  0  0  0  0
  -14.1389   -7.3372  -17.4671 O   0  0  0  0  0  0  0  0  0  0  0  0
  -12.3925   -9.9739  -13.7156 O   0  0  0  0  0  0  0  0  0  0  0  0
  -12.0948   -9.8709  -12.3284 C   0  0  0  0  0  0  0  0  0  0  0  0
  -12.3954   -5.2348  -11.9677 C   0  0  0  0  0  0  0  0  0  0  0  0
  -13.5555   -5.8314  -11.1536 C   0  0  0  0  0  0  0  0  0  0  0  0
  -14.5515   -4.8120  -10.7980 N   0  0  0  0  0  0  0  0  0  0  0  0
  -14.3794   -3.7697   -9.9028 C   0  0  0  0  0  0  0  0  0  0  0  0
  -13.2181   -3.5368   -9.0135 C   0  0  0  0  0  0  0  0  0  0  0  0
  -15.5218   -3.0109  -10.0223 C   0  0  0  0  0  0  0  0  0  0  0  0
  -16.3899   -3.5799  -10.8960 N   0  0  0  0  0  0  0  0  0  0  0  0
  -15.8122   -4.6674  -11.3479 C   0  0  0  0  0  0  0  0  0  0  0  0
  -16.4367   -5.6166  -12.3050 C   0  0  0  0  0  0  0  0  0  0  0  0
 24 25  1  0  0  0
 25 18  1  0  0  0
 18 19  1  0  0  0
 18 23  2  0  0  0
 19 20  2  0  0  0
 20 26  1  0  0  0
 20 21  1  0  0  0
 26 27  1  0  0  0
 21 22  2  0  0  0
 22  1  1  0  0  0
 22 23  1  0  0  0
  1 28  1  0  0  0
  1  2  1  0  0  0
 28 29  1  0  0  0
 29 30  1  0  0  0
 30 31  1  0  0  0
 30 35  1  0  0  0
 31 32  1  0  0  0
 31 33  2  0  0  0
 33 34  1  0  0  0
 34 35  2  0  0  0
 35 36  1  0  0  0
  2  3  1  0  0  0
  2 11  2  0  0  0
  3  4  2  0  0  0
  4  5  1  0  0  0
  5  6  1  0  0  0
  5 10  2  0  0  0
  6  7  2  0  0  0
  7  8  1  0  0  0
  8 12  1  0  0  0
  8  9  2  0  0  0
 12 13  1  0  0  0
 12 17  2  0  0  0
 13 14  2  0  0  0
 14 15  1  0  0  0
 15 16  1  0  0  0
 15 17  1  0  0  0
  9 10  1  0  0  0
 10 11  1  0  0  0
M  END
> <minimizedAffinity>
-7.96002

$$$$
