CHEMBL405233


 22 24  0  0  0  0  0  0  0  0999 V2000
  -29.0867   -4.5944   -5.5469 C   0  0  0  0  0  0  0  0  0  0  0  0
  -29.2094   -5.0515   -6.7613 N   0  0  0  0  0  0  0  0  0  0  0  0
  -29.4208   -6.4351   -6.9646 C   0  0  0  0  0  0  0  0  0  0  0  0
  -28.7507   -7.0622   -8.0227 C   0  0  0  0  0  0  0  0  0  0  0  0
  -27.7577   -6.3582   -8.7249 N   0  0  0  0  0  0  0  0  0  0  0  0
  -28.9291   -8.3473   -8.3617 N   0  0  0  0  0  0  0  0  0  0  0  0
  -29.8164   -9.0172   -7.6193 C   0  0  0  0  0  0  0  0  0  0  0  0
  -30.5237   -8.5361   -6.5838 N   0  0  0  0  0  0  0  0  0  0  0  0
  -30.3184   -7.2447   -6.2649 C   0  0  0  0  0  0  0  0  0  0  0  0
  -31.1146   -6.7971   -5.2173 N   0  0  0  0  0  0  0  0  0  0  0  0
  -30.5902   -5.9575   -4.1500 C   0  0  0  0  0  0  0  0  0  0  0  0
  -29.1649   -5.4653   -4.3184 C   0  0  0  0  0  0  0  0  0  0  0  0
  -28.0400   -5.3874   -8.8351 H   0  0  0  0  0  0  0  0  0  0  0  0
  -27.5341   -6.8529   -9.5801 H   0  0  0  0  0  0  0  0  0  0  0  0
  -31.6518   -7.5938   -4.8895 H   0  0  0  0  0  0  0  0  0  0  0  0
  -28.1973    1.0645   -4.8243 C   0  0  0  0  0  0  0  0  0  0  0  0
  -28.4176   -0.4084   -5.0174 C   0  0  0  0  0  0  0  0  0  0  0  0
  -27.3526   -1.3101   -4.8961 C   0  0  0  0  0  0  0  0  0  0  0  0
  -27.5664   -2.6723   -5.0677 C   0  0  0  0  0  0  0  0  0  0  0  0
  -28.8486   -3.1458   -5.3603 C   0  0  0  0  0  0  0  0  0  0  0  0
  -29.9163   -2.2517   -5.4852 C   0  0  0  0  0  0  0  0  0  0  0  0
  -29.6988   -0.8888   -5.3099 C   0  0  0  0  0  0  0  0  0  0  0  0
 16 17  1  0  0  0
 17 18  1  0  0  0
 17 22  2  0  0  0
 18 19  2  0  0  0
 19 20  1  0  0  0
 20  1  1  0  0  0
 20 21  2  0  0  0
  1  2  2  0  0  0
  1 12  1  0  0  0
  2  3  1  0  0  0
  3  4  1  0  0  0
  3  9  2  0  0  0
  4  5  1  0  0  0
  4  6  2  0  0  0
  5 13  1  0  0  0
  5 14  1  0  0  0
  6  7  1  0  0  0
  7  8  2  0  0  0
  8  9  1  0  0  0
  9 10  1  0  0  0
 10 11  1  0  0  0
 10 15  1  0  0  0
 11 12  1  0  0  0
 21 22  1  0  0  0
M  END
> <minimizedAffinity>
-8.32917

$$$$
