CHEMBL403747


 37 41  0  0  0  0  0  0  0  0999 V2000
  -12.6680   -4.6812  -14.3228 C   0  0  0  0  0  0  0  0  0  0  0  0
  -13.8108   -4.1038  -14.8684 C   0  0  0  0  0  0  0  0  0  0  0  0
  -14.2628   -2.8781  -14.3811 C   0  0  0  0  0  0  0  0  0  0  0  0
  -13.5154   -2.1827  -13.4216 C   0  0  0  0  0  0  0  0  0  0  0  0
  -12.3799   -2.7732  -12.8797 C   0  0  0  0  0  0  0  0  0  0  0  0
  -11.6757   -2.1462  -11.9268 F   0  0  0  0  0  0  0  0  0  0  0  0
  -11.9481   -4.0121  -13.3259 C   0  0  0  0  0  0  0  0  0  0  0  0
  -12.2608   -5.9328  -14.8128 N   0  0  0  0  0  0  0  0  0  0  0  0
  -11.2715   -6.1611  -14.7655 H   0  0  0  0  0  0  0  0  0  0  0  0
  -13.0855   -6.9490  -15.2469 C   0  0  0  0  0  0  0  0  0  0  0  0
  -13.5786   -6.9182  -16.8325 S   0  0  0  0  0  0  0  0  0  0  0  0
  -14.3264   -8.8671  -12.4388 O   0  0  0  0  0  0  0  0  0  0  0  0
  -14.4521   -7.9673  -13.2731 C   0  0  0  0  0  0  0  0  0  0  0  0
  -13.4471   -7.8252  -14.2163 N   0  0  0  0  0  0  0  0  0  0  0  0
  -12.7247   -8.4930  -13.9937 H   0  0  0  0  0  0  0  0  0  0  0  0
  -15.6246   -7.0303  -13.2568 C   0  0  0  0  0  0  0  0  0  0  0  0
  -15.4805   -5.8887  -12.2791 C   0  0  0  0  0  0  0  0  0  0  0  0
  -16.4438   -4.8705  -12.2785 C   0  0  0  0  0  0  0  0  0  0  0  0
  -16.3518   -3.8061  -11.3826 C   0  0  0  0  0  0  0  0  0  0  0  0
  -15.3053   -3.7537  -10.4653 C   0  0  0  0  0  0  0  0  0  0  0  0
  -14.3497   -4.7670  -10.4426 C   0  0  0  0  0  0  0  0  0  0  0  0
  -14.4394   -5.8329  -11.3389 C   0  0  0  0  0  0  0  0  0  0  0  0
  -13.8320   -0.9349  -12.9438 O   0  0  0  0  0  0  0  0  0  0  0  0
  -13.7211    0.1431  -13.7874 C   0  0  0  0  0  0  0  0  0  0  0  0
  -12.5028    0.6471  -14.2407 C   0  0  0  0  0  0  0  0  0  0  0  0
  -12.5130    1.6865  -15.1491 C   0  0  0  0  0  0  0  0  0  0  0  0
  -13.6166    2.2900  -15.6248 N   0  0  0  0  0  0  0  0  0  0  0  0
  -14.7985    1.8440  -15.1241 C   0  0  0  0  0  0  0  0  0  0  0  0
  -16.0886    2.3280  -15.4985 C   0  0  0  0  0  0  0  0  0  0  0  0
  -17.1084    1.6763  -14.8412 C   0  0  0  0  0  0  0  0  0  0  0  0
  -16.5121    0.5231  -13.7351 S   0  0  0  0  0  0  0  0  0  0  0  0
  -14.8854    0.8046  -14.1999 C   0  0  0  0  0  0  0  0  0  0  0  0
  -18.5652    1.9039  -15.0575 C   0  0  0  0  0  0  0  0  0  0  0  0
  -19.2432    3.1464  -15.1519 C   0  0  0  0  0  0  0  0  0  0  0  0
  -20.5796    2.8446  -15.2698 C   0  0  0  0  0  0  0  0  0  0  0  0
  -20.7630    1.4993  -15.2834 O   0  0  0  0  0  0  0  0  0  0  0  0
  -19.5332    0.9309  -15.1658 C   0  0  0  0  0  0  0  0  0  0  0  0
 12 13  2  0  0  0
 13 16  1  0  0  0
 13 14  1  0  0  0
 16 17  1  0  0  0
 17 18  1  0  0  0
 17 22  2  0  0  0
 18 19  2  0  0  0
 19 20  1  0  0  0
 20 21  2  0  0  0
 21 22  1  0  0  0
 14 10  1  0  0  0
 14 15  1  0  0  0
 10 11  2  0  0  0
 10  8  1  0  0  0
  8  1  1  0  0  0
  8  9  1  0  0  0
  1  2  1  0  0  0
  1  7  2  0  0  0
  2  3  2  0  0  0
  3  4  1  0  0  0
  4 23  1  0  0  0
  4  5  2  0  0  0
 23 24  1  0  0  0
 24 25  1  0  0  0
 24 32  2  0  0  0
 25 26  2  0  0  0
 26 27  1  0  0  0
 27 28  2  0  0  0
 28 29  1  0  0  0
 28 32  1  0  0  0
 29 30  2  0  0  0
 30 33  1  0  0  0
 30 31  1  0  0  0
 33 34  1  0  0  0
 33 37  2  0  0  0
 34 35  2  0  0  0
 35 36  1  0  0  0
 36 37  1  0  0  0
 31 32  1  0  0  0
  5  6  1  0  0  0
  5  7  1  0  0  0
M  END
> <minimizedAffinity>
-8.34860

$$$$
