CHEMBL4090562


 40 46  0  0  0  0  0  0  0  0999 V2000
  -26.9296   -2.6157  -10.1703 N   0  0  0  0  0  0  0  0  0  0  0  0
  -27.0869   -3.5508  -10.5235 H   0  0  0  0  0  0  0  0  0  0  0  0
  -27.8174   -0.2187   -6.3392 N   0  0  0  0  0  0  0  0  0  0  0  0
  -27.8435   -1.2158   -7.2436 C   0  0  0  0  0  0  0  0  0  0  0  0
  -27.1502   -1.2121   -8.3555 N   0  0  0  0  0  0  0  0  0  0  0  0
  -27.5106   -2.3649   -8.9794 C   0  0  0  0  0  0  0  0  0  0  0  0
  -28.3791   -3.1061   -8.2961 N   0  0  0  0  0  0  0  0  0  0  0  0
  -28.5696   -2.4132   -7.1436 N   0  0  0  0  0  0  0  0  0  0  0  0
  -27.3524    0.6364   -6.6319 H   0  0  0  0  0  0  0  0  0  0  0  0
  -28.6277   -0.0723   -5.7392 H   0  0  0  0  0  0  0  0  0  0  0  0
  -29.3214   -2.9341   -6.0208 C   0  0  0  0  0  0  0  0  0  0  0  0
  -29.4942   -2.0972   -4.9630 N   0  0  0  0  0  0  0  0  0  0  0  0
  -30.0083   -2.6365   -3.8494 C   0  0  0  0  0  0  0  0  0  0  0  0
  -30.3362   -3.9227   -3.6809 N   0  0  0  0  0  0  0  0  0  0  0  0
  -30.1808   -4.7375   -4.7258 C   0  0  0  0  0  0  0  0  0  0  0  0
  -30.4665   -6.0897   -4.5294 C   0  0  0  0  0  0  0  0  0  0  0  0
  -30.3378   -7.0330   -5.5469 C   0  0  0  0  0  0  0  0  0  0  0  0
  -29.9919   -6.6082   -6.8146 C   0  0  0  0  0  0  0  0  0  0  0  0
  -29.8502   -7.7350   -8.1048 Cl  0  0  0  0  0  0  0  0  0  0  0  0
  -29.7310   -5.2611   -7.0418 C   0  0  0  0  0  0  0  0  0  0  0  0
  -29.7337   -4.3014   -5.9883 C   0  0  0  0  0  0  0  0  0  0  0  0
  -26.0450   -1.8547  -10.9604 C   0  0  0  0  0  0  0  0  0  0  0  0
  -26.4652   -0.8123  -11.7828 C   0  0  0  0  0  0  0  0  0  0  0  0
  -25.5619   -0.1283  -12.6128 C   0  0  0  0  0  0  0  0  0  0  0  0
  -24.2005   -0.4605  -12.6791 C   0  0  0  0  0  0  0  0  0  0  0  0
  -23.7761   -1.4929  -11.8345 C   0  0  0  0  0  0  0  0  0  0  0  0
  -24.6822   -2.1840  -10.9995 C   0  0  0  0  0  0  0  0  0  0  0  0
  -23.3575    0.2603  -13.5349 N   0  0  0  0  0  0  0  0  0  0  0  0
  -23.0699    1.6791  -13.2579 C   0  0  0  0  0  0  0  0  0  0  0  0
  -22.3871    2.3434  -14.4874 C   0  0  0  0  0  0  0  0  0  0  0  0
  -21.1528    1.6751  -14.9871 N   0  0  0  0  0  0  0  0  0  0  0  0
  -21.4984    0.2513  -15.2161 C   0  0  0  0  0  0  0  0  0  0  0  0
  -22.1798   -0.4906  -14.0355 C   0  0  0  0  0  0  0  0  0  0  0  0
  -19.9984    1.8692  -14.0970 C   0  0  0  0  0  0  0  0  0  0  0  0
  -19.4597    3.3289  -14.0911 C   0  0  0  0  0  0  0  0  0  0  0  0
  -17.9449    3.1620  -14.3116 C   0  0  0  0  0  0  0  0  0  0  0  0
  -17.7041    2.7828  -15.7824 C   0  0  0  0  0  0  0  0  0  0  0  0
  -18.1711    1.3228  -15.8368 C   0  0  0  0  0  0  0  0  0  0  0  0
  -18.6957    1.0682  -14.4119 C   0  0  0  0  0  0  0  0  0  0  0  0
  -17.6621    1.8478  -13.5896 C   0  0  0  0  0  0  0  0  0  0  0  0
  3  4  1  0  0  0
  3  9  1  0  0  0
  3 10  1  0  0  0
  4  5  2  0  0  0
  4  8  1  0  0  0
  5  6  1  0  0  0
  6  1  1  0  0  0
  6  7  2  0  0  0
  1 22  1  0  0  0
  1  2  1  0  0  0
 22 23  1  0  0  0
 22 27  2  0  0  0
 23 24  2  0  0  0
 24 25  1  0  0  0
 25 28  1  0  0  0
 25 26  2  0  0  0
 28 29  1  0  0  0
 28 33  1  0  0  0
 29 30  1  0  0  0
 30 31  1  0  0  0
 31 34  1  0  0  0
 31 32  1  0  0  0
 34 35  1  0  0  0
 34 39  1  0  0  0
 35 36  1  0  0  0
 36 37  1  0  0  0
 36 40  1  0  0  0
 37 38  1  0  0  0
 38 39  1  0  0  0
 39 40  1  0  0  0
 32 33  1  0  0  0
 26 27  1  0  0  0
  7  8  1  0  0  0
  8 11  1  0  0  0
 11 12  1  0  0  0
 11 21  2  0  0  0
 12 13  2  0  0  0
 13 14  1  0  0  0
 14 15  2  0  0  0
 15 16  1  0  0  0
 15 21  1  0  0  0
 16 17  2  0  0  0
 17 18  1  0  0  0
 18 19  1  0  0  0
 18 20  2  0  0  0
 20 21  1  0  0  0
M  END
> <minimizedAffinity>
-9.99459

$$$$
