CHEMBL3914394


 39 43  0  0  0  0  0  0  0  0999 V2000
  -28.6856   -5.4462   -7.2421 C   0  0  0  0  0  0  0  0  0  0  0  0
  -28.4888   -4.4126   -8.1683 C   0  0  0  0  0  0  0  0  0  0  0  0
  -28.2442   -3.0763   -7.7584 C   0  0  0  0  0  0  0  0  0  0  0  0
  -28.0383   -1.9613   -8.5885 C   0  0  0  0  0  0  0  0  0  0  0  0
  -27.8065   -0.7326   -8.0819 N   0  0  0  0  0  0  0  0  0  0  0  0
  -27.7680   -0.6051   -6.7553 C   0  0  0  0  0  0  0  0  0  0  0  0
  -27.9619   -1.5878   -5.8841 N   0  0  0  0  0  0  0  0  0  0  0  0
  -28.2010   -2.7934   -6.3959 C   0  0  0  0  0  0  0  0  0  0  0  0
  -28.4182   -3.8105   -5.4972 C   0  0  0  0  0  0  0  0  0  0  0  0
  -28.6407   -5.1449   -5.8748 C   0  0  0  0  0  0  0  0  0  0  0  0
  -30.1832   -7.2844   -7.6297 C   0  0  0  0  0  0  0  0  0  0  0  0
  -28.9370   -6.6432   -7.8559 O   0  0  0  0  0  0  0  0  0  0  0  0
  -28.0580   -2.1291   -9.9989 N   0  0  0  0  0  0  0  0  0  0  0  0
  -28.9661   -1.8421  -10.3557 H   0  0  0  0  0  0  0  0  0  0  0  0
  -27.0138   -1.8067  -10.8946 C   0  0  0  0  0  0  0  0  0  0  0  0
  -25.7003   -1.5720  -10.4644 C   0  0  0  0  0  0  0  0  0  0  0  0
  -24.6912   -1.2284  -11.3619 C   0  0  0  0  0  0  0  0  0  0  0  0
  -24.9648   -1.1684  -12.7240 C   0  0  0  0  0  0  0  0  0  0  0  0
  -23.6811   -0.7106  -13.7828 Cl  0  0  0  0  0  0  0  0  0  0  0  0
  -26.2504   -1.4816  -13.1813 C   0  0  0  0  0  0  0  0  0  0  0  0
  -26.6555   -1.4713  -14.8634 Cl  0  0  0  0  0  0  0  0  0  0  0  0
  -27.2630   -1.8037  -12.2740 C   0  0  0  0  0  0  0  0  0  0  0  0
  -28.8102   -6.1396   -4.9453 O   0  0  0  0  0  0  0  0  0  0  0  0
  -27.6335   -6.5948   -4.2681 C   0  0  0  0  0  0  0  0  0  0  0  0
  -27.3770   -8.0716   -4.5328 C   0  0  0  0  0  0  0  0  0  0  0  0
  -28.4499   -8.9738   -3.8837 C   0  0  0  0  0  0  0  0  0  0  0  0
  -28.5096  -10.3568   -4.4165 N   0  0  0  0  0  0  0  0  0  0  0  0
  -27.4744  -11.2326   -3.8589 C   0  0  0  0  0  0  0  0  0  0  0  0
  -26.1144  -10.6579   -3.4481 C   0  0  0  0  0  0  0  0  0  0  0  0
  -25.5458   -9.6208   -4.3951 C   0  0  0  0  0  0  0  0  0  0  0  0
  -26.0478   -8.3330   -4.0633 O   0  0  0  0  0  0  0  0  0  0  0  0
  -28.6214  -10.3531   -5.8870 C   0  0  0  0  0  0  0  0  0  0  0  0
  -27.6166  -11.2233   -6.6441 C   0  0  0  0  0  0  0  0  0  0  0  0
  -27.9375  -11.3517   -8.1534 C   0  0  0  0  0  0  0  0  0  0  0  0
  -26.7240  -10.8320   -8.9423 C   0  0  0  0  0  0  0  0  0  0  0  0
  -26.9666  -10.7960  -10.4452 C   0  0  0  0  0  0  0  0  0  0  0  0
  -28.2112   -9.9849  -10.7814 C   0  0  0  0  0  0  0  0  0  0  0  0
  -29.4312  -10.5540  -10.0715 C   0  0  0  0  0  0  0  0  0  0  0  0
  -29.2249  -10.6049   -8.5603 C   0  0  0  0  0  0  0  0  0  0  0  0
 11 12  1  0  0  0
 12  1  1  0  0  0
  1  2  1  0  0  0
  1 10  2  0  0  0
  2  3  2  0  0  0
  3  4  1  0  0  0
  3  8  1  0  0  0
  4 13  1  0  0  0
  4  5  2  0  0  0
 13 15  1  0  0  0
 13 14  1  0  0  0
 15 16  1  0  0  0
 15 22  2  0  0  0
 16 17  2  0  0  0
 17 18  1  0  0  0
 18 19  1  0  0  0
 18 20  2  0  0  0
 20 21  1  0  0  0
 20 22  1  0  0  0
  5  6  1  0  0  0
  6  7  2  0  0  0
  7  8  1  0  0  0
  8  9  2  0  0  0
  9 10  1  0  0  0
 10 23  1  0  0  0
 23 24  1  0  0  0
 24 25  1  0  0  0
 25 26  1  0  0  0
 25 31  1  0  0  0
 26 27  1  0  0  0
 27 32  1  0  0  0
 27 28  1  0  0  0
 32 33  1  0  0  0
 33 34  1  0  0  0
 34 35  1  0  0  0
 34 39  1  0  0  0
 35 36  1  0  0  0
 36 37  1  0  0  0
 37 38  1  0  0  0
 38 39  1  0  0  0
 28 29  1  0  0  0
 29 30  1  0  0  0
 30 31  1  0  0  0
M  END
> <minimizedAffinity>
-8.94755

$$$$
