CHEMBL255526


 32 35  0  0  0  0  0  0  0  0999 V2000
  -15.1655    3.6903  -15.9656 C   0  0  0  0  0  0  0  0  0  0  0  0
  -16.4480    4.2508  -16.0334 C   0  0  0  0  0  0  0  0  0  0  0  0
  -17.5988    3.4827  -15.8492 C   0  0  0  0  0  0  0  0  0  0  0  0
  -17.5216    2.1083  -15.6351 C   0  0  0  0  0  0  0  0  0  0  0  0
  -16.2545    1.5315  -15.5374 C   0  0  0  0  0  0  0  0  0  0  0  0
  -15.0962    2.3218  -15.6624 C   0  0  0  0  0  0  0  0  0  0  0  0
  -15.3353    4.6818  -19.2319 N   0  0  0  0  0  0  0  0  0  0  0  0
  -14.2060    5.2464  -18.7742 C   0  0  0  0  0  0  0  0  0  0  0  0
  -13.4530    5.9954  -19.5786 N   0  0  0  0  0  0  0  0  0  0  0  0
  -12.4674    6.4246  -18.7756 N   0  0  0  0  0  0  0  0  0  0  0  0
  -12.5625    5.9732  -17.4943 C   0  0  0  0  0  0  0  0  0  0  0  0
  -11.7095    6.2958  -16.5049 N   0  0  0  0  0  0  0  0  0  0  0  0
  -12.0270    5.7126  -15.3357 C   0  0  0  0  0  0  0  0  0  0  0  0
  -13.0983    4.8547  -15.1377 C   0  0  0  0  0  0  0  0  0  0  0  0
  -13.9844    4.5439  -16.1961 C   0  0  0  0  0  0  0  0  0  0  0  0
  -13.6878    5.1544  -17.4430 C   0  0  0  0  0  0  0  0  0  0  0  0
  -15.6281    4.9969  -20.1510 H   0  0  0  0  0  0  0  0  0  0  0  0
  -16.1156    4.5627  -18.5952 H   0  0  0  0  0  0  0  0  0  0  0  0
  -11.7562    7.0379  -19.1471 H   0  0  0  0  0  0  0  0  0  0  0  0
  -18.6632    1.2807  -15.5198 N   0  0  0  0  0  0  0  0  0  0  0  0
  -19.7885    1.5704  -14.7818 C   0  0  0  0  0  0  0  0  0  0  0  0
  -19.9821    2.5831  -14.1164 O   0  0  0  0  0  0  0  0  0  0  0  0
  -20.7525    0.5829  -14.8568 N   0  0  0  0  0  0  0  0  0  0  0  0
  -18.6986    0.4563  -16.0984 H   0  0  0  0  0  0  0  0  0  0  0  0
  -20.4113   -0.3625  -14.9575 H   0  0  0  0  0  0  0  0  0  0  0  0
  -21.9251    0.7909  -14.0299 C   0  0  0  0  0  0  0  0  0  0  0  0
  -22.6805   -0.4799  -13.6444 C   0  0  0  0  0  0  0  0  0  0  0  0
  -24.1004   -0.5057  -14.2252 C   0  0  0  0  0  0  0  0  0  0  0  0
  -24.8807   -1.7261  -13.7390 C   0  0  0  0  0  0  0  0  0  0  0  0
  -24.9171   -1.8008  -12.2157 C   0  0  0  0  0  0  0  0  0  0  0  0
  -23.5121   -1.7757  -11.6215 C   0  0  0  0  0  0  0  0  0  0  0  0
  -22.7224   -0.5717  -12.1101 C   0  0  0  0  0  0  0  0  0  0  0  0
  7  8  1  0  0  0
  7 17  1  0  0  0
  7 18  1  0  0  0
  8  9  2  0  0  0
  8 16  1  0  0  0
  9 10  1  0  0  0
 10 11  1  0  0  0
 10 19  1  0  0  0
 11 12  1  0  0  0
 11 16  2  0  0  0
 12 13  2  0  0  0
 13 14  1  0  0  0
 14 15  2  0  0  0
 15  1  1  0  0  0
 15 16  1  0  0  0
  1  2  1  0  0  0
  1  6  2  0  0  0
  2  3  2  0  0  0
  3  4  1  0  0  0
  4 20  1  0  0  0
  4  5  2  0  0  0
 20 21  1  0  0  0
 20 24  1  0  0  0
 21 22  2  0  0  0
 21 23  1  0  0  0
 23 26  1  0  0  0
 23 25  1  0  0  0
 26 27  1  0  0  0
 27 28  1  0  0  0
 27 32  1  0  0  0
 28 29  1  0  0  0
 29 30  1  0  0  0
 30 31  1  0  0  0
 31 32  1  0  0  0
  5  6  1  0  0  0
M  END
> <minimizedAffinity>
-9.36657

$$$$
