CHEMBL3093584


 42 47  0  0  0  0  0  0  0  0999 V2000
  -15.3506   -2.1618  -13.6503 C   0  0  0  0  0  0  0  0  0  0  0  0
  -14.0846   -2.4026  -13.1081 C   0  0  0  0  0  0  0  0  0  0  0  0
  -13.7663   -3.6288  -12.5300 C   0  0  0  0  0  0  0  0  0  0  0  0
  -14.7104   -4.6408  -12.5044 C   0  0  0  0  0  0  0  0  0  0  0  0
  -16.0052   -4.3885  -12.9522 C   0  0  0  0  0  0  0  0  0  0  0  0
  -16.9516   -5.3340  -12.8505 F   0  0  0  0  0  0  0  0  0  0  0  0
  -16.3367   -3.1501  -13.5145 C   0  0  0  0  0  0  0  0  0  0  0  0
  -16.0189    0.2302  -13.7463 C   0  0  0  0  0  0  0  0  0  0  0  0
  -16.1374    0.3873  -12.5323 O   0  0  0  0  0  0  0  0  0  0  0  0
  -15.6590   -0.9696  -14.3408 N   0  0  0  0  0  0  0  0  0  0  0  0
  -15.4392   -0.9406  -15.3388 H   0  0  0  0  0  0  0  0  0  0  0  0
  -18.7231    1.0950  -14.7269 C   0  0  0  0  0  0  0  0  0  0  0  0
  -17.4308    1.8040  -15.0542 C   0  0  0  0  0  0  0  0  0  0  0  0
  -17.5961    3.0081  -15.8427 C   0  0  0  0  0  0  0  0  0  0  0  0
  -16.5432    3.7501  -16.1885 C   0  0  0  0  0  0  0  0  0  0  0  0
  -15.2536    3.3902  -15.8410 N   0  0  0  0  0  0  0  0  0  0  0  0
  -14.9983    2.2027  -15.1321 C   0  0  0  0  0  0  0  0  0  0  0  0
  -13.8686    1.7549  -14.9114 O   0  0  0  0  0  0  0  0  0  0  0  0
  -16.1912    1.4122  -14.6652 C   0  0  0  0  0  0  0  0  0  0  0  0
  -14.1420    4.1795  -16.2698 C   0  0  0  0  0  0  0  0  0  0  0  0
  -13.3978    4.9121  -15.3352 C   0  0  0  0  0  0  0  0  0  0  0  0
  -12.3533    5.7354  -15.7565 C   0  0  0  0  0  0  0  0  0  0  0  0
  -12.0171    5.7999  -17.1076 C   0  0  0  0  0  0  0  0  0  0  0  0
  -12.7254    5.0447  -18.0401 C   0  0  0  0  0  0  0  0  0  0  0  0
  -13.7917    4.2465  -17.6247 C   0  0  0  0  0  0  0  0  0  0  0  0
  -14.4035   -5.8886  -11.9348 O   0  0  0  0  0  0  0  0  0  0  0  0
  -14.0066   -6.9293  -12.7687 C   0  0  0  0  0  0  0  0  0  0  0  0
  -13.5389   -8.0359  -11.9056 C   0  0  0  0  0  0  0  0  0  0  0  0
  -13.0785   -9.1262  -12.5298 C   0  0  0  0  0  0  0  0  0  0  0  0
  -13.0779   -9.1634  -13.9414 C   0  0  0  0  0  0  0  0  0  0  0  0
  -12.6838  -10.0971  -14.7711 N   0  0  0  0  0  0  0  0  0  0  0  0
  -12.8840   -9.5927  -16.0219 C   0  0  0  0  0  0  0  0  0  0  0  0
  -13.4025   -8.3174  -15.9562 C   0  0  0  0  0  0  0  0  0  0  0  0
  -13.5487   -8.0509  -14.6155 N   0  0  0  0  0  0  0  0  0  0  0  0
  -14.0321   -6.8944  -14.0661 N   0  0  0  0  0  0  0  0  0  0  0  0
  -12.5787  -10.2895  -17.1713 N   0  0  0  0  0  0  0  0  0  0  0  0
  -13.4537  -11.1801  -17.7663 C   0  0  0  0  0  0  0  0  0  0  0  0
  -14.5976  -11.4381  -17.4178 O   0  0  0  0  0  0  0  0  0  0  0  0
  -11.6816  -10.1149  -17.5912 H   0  0  0  0  0  0  0  0  0  0  0  0
  -12.9575  -11.9006  -18.9796 C   0  0  0  0  0  0  0  0  0  0  0  0
  -11.7779  -11.5157  -19.8317 C   0  0  0  0  0  0  0  0  0  0  0  0
  -13.1701  -11.3144  -20.3557 C   0  0  0  0  0  0  0  0  0  0  0  0
 12 13  1  0  0  0
 13 14  1  0  0  0
 13 19  2  0  0  0
 14 15  2  0  0  0
 15 16  1  0  0  0
 16 20  1  0  0  0
 16 17  1  0  0  0
 20 21  1  0  0  0
 20 25  2  0  0  0
 21 22  2  0  0  0
 22 23  1  0  0  0
 23 24  2  0  0  0
 24 25  1  0  0  0
 17 18  2  0  0  0
 17 19  1  0  0  0
 19  8  1  0  0  0
  8  9  2  0  0  0
  8 10  1  0  0  0
 10  1  1  0  0  0
 10 11  1  0  0  0
  1  2  1  0  0  0
  1  7  2  0  0  0
  2  3  2  0  0  0
  3  4  1  0  0  0
  4 26  1  0  0  0
  4  5  2  0  0  0
 26 27  1  0  0  0
 27 28  1  0  0  0
 27 35  2  0  0  0
 28 29  2  0  0  0
 29 30  1  0  0  0
 30 31  2  0  0  0
 30 34  1  0  0  0
 31 32  1  0  0  0
 32 36  1  0  0  0
 32 33  2  0  0  0
 36 37  1  0  0  0
 36 39  1  0  0  0
 37 38  2  0  0  0
 37 40  1  0  0  0
 40 41  1  0  0  0
 40 42  1  0  0  0
 41 42  1  0  0  0
 33 34  1  0  0  0
 34 35  1  0  0  0
  5  6  1  0  0  0
  5  7  1  0  0  0
M  END
> <minimizedAffinity>
-8.85210

$$$$
