CHEMBL3809077


 29 31  0  0  0  0  0  0  0  0999 V2000
  -19.3811    3.5264  -14.5899 N   0  0  0  0  0  0  0  0  0  0  0  0
  -20.5929    2.9523  -14.3240 C   0  0  0  0  0  0  0  0  0  0  0  0
  -21.5711    3.6960  -14.2659 O   0  0  0  0  0  0  0  0  0  0  0  0
  -20.5938    1.5970  -14.1210 N   0  0  0  0  0  0  0  0  0  0  0  0
  -19.4189    4.5285  -14.7037 H   0  0  0  0  0  0  0  0  0  0  0  0
  -19.6753    1.1738  -14.0243 H   0  0  0  0  0  0  0  0  0  0  0  0
  -21.6963    0.7826  -13.8381 C   0  0  0  0  0  0  0  0  0  0  0  0
  -22.5386    0.3002  -14.8319 C   0  0  0  0  0  0  0  0  0  0  0  0
  -23.6868   -0.4114  -14.4936 C   0  0  0  0  0  0  0  0  0  0  0  0
  -24.0152   -0.6553  -13.1535 C   0  0  0  0  0  0  0  0  0  0  0  0
  -23.1179   -0.2355  -12.1606 C   0  0  0  0  0  0  0  0  0  0  0  0
  -21.9573    0.4657  -12.5014 C   0  0  0  0  0  0  0  0  0  0  0  0
  -25.2878   -1.2940  -12.8165 C   0  0  0  0  0  0  0  0  0  0  0  0
  -26.3563   -1.6093  -13.7003 C   0  0  0  0  0  0  0  0  0  0  0  0
  -27.3274   -2.1437  -12.9045 C   0  0  0  0  0  0  0  0  0  0  0  0
  -28.5538   -2.6135  -13.1709 N   0  0  0  0  0  0  0  0  0  0  0  0
  -26.8931   -2.1612  -11.6195 O   0  0  0  0  0  0  0  0  0  0  0  0
  -25.6159   -1.6295  -11.5566 N   0  0  0  0  0  0  0  0  0  0  0  0
  -29.0154   -2.3892  -14.0481 H   0  0  0  0  0  0  0  0  0  0  0  0
  -29.1909   -2.7601  -12.3942 H   0  0  0  0  0  0  0  0  0  0  0  0
  -16.2003    2.3576  -15.5944 C   0  0  0  0  0  0  0  0  0  0  0  0
  -17.1783    3.3226  -15.6792 C   0  0  0  0  0  0  0  0  0  0  0  0
  -18.1784    2.8906  -14.7855 C   0  0  0  0  0  0  0  0  0  0  0  0
  -17.8037    1.7689  -14.1616 N   0  0  0  0  0  0  0  0  0  0  0  0
  -16.5783    1.4313  -14.6758 O   0  0  0  0  0  0  0  0  0  0  0  0
  -14.5526    3.3728  -17.1381 C   0  0  0  0  0  0  0  0  0  0  0  0
  -14.8917    2.1350  -16.2919 C   0  0  0  0  0  0  0  0  0  0  0  0
  -15.0135    0.8990  -17.1992 C   0  0  0  0  0  0  0  0  0  0  0  0
  -13.7545    1.8973  -15.2800 C   0  0  0  0  0  0  0  0  0  0  0  0
 26 27  1  0  0  0
 27 28  1  0  0  0
 27 29  1  0  0  0
 27 21  1  0  0  0
 21 22  2  0  0  0
 21 25  1  0  0  0
 22 23  1  0  0  0
 23  1  1  0  0  0
 23 24  2  0  0  0
  1  2  1  0  0  0
  1  5  1  0  0  0
  2  3  2  0  0  0
  2  4  1  0  0  0
  4  7  1  0  0  0
  4  6  1  0  0  0
  7  8  1  0  0  0
  7 12  2  0  0  0
  8  9  2  0  0  0
  9 10  1  0  0  0
 10 13  1  0  0  0
 10 11  2  0  0  0
 13 14  1  0  0  0
 13 18  2  0  0  0
 14 15  2  0  0  0
 15 16  1  0  0  0
 15 17  1  0  0  0
 16 19  1  0  0  0
 16 20  1  0  0  0
 17 18  1  0  0  0
 11 12  1  0  0  0
 24 25  1  0  0  0
M  END
> <minimizedAffinity>
-9.13953

$$$$
