CHEMBL3939419


 44 48  0  0  0  0  0  0  0  0999 V2000
  -25.9641   -1.4279   -9.2674 O   0  0  0  0  0  0  0  0  0  0  0  0
  -26.8745   -1.9766   -9.8779 C   0  0  0  0  0  0  0  0  0  0  0  0
  -26.8447   -2.1997  -11.2411 N   0  0  0  0  0  0  0  0  0  0  0  0
  -28.0596   -2.3986   -9.3024 N   0  0  0  0  0  0  0  0  0  0  0  0
  -27.7156   -2.4501  -11.6848 H   0  0  0  0  0  0  0  0  0  0  0  0
  -28.6956   -2.9280   -9.8791 H   0  0  0  0  0  0  0  0  0  0  0  0
  -25.7978   -1.7663  -12.0902 C   0  0  0  0  0  0  0  0  0  0  0  0
  -25.9479   -1.5107  -13.4561 C   0  0  0  0  0  0  0  0  0  0  0  0
  -24.8421   -1.1819  -14.2381 C   0  0  0  0  0  0  0  0  0  0  0  0
  -23.6142   -1.0840  -13.6145 C   0  0  0  0  0  0  0  0  0  0  0  0
  -23.4286   -1.3067  -12.2916 N   0  0  0  0  0  0  0  0  0  0  0  0
  -24.5218   -1.6183  -11.5620 C   0  0  0  0  0  0  0  0  0  0  0  0
  -22.5258   -0.7281  -14.4017 O   0  0  0  0  0  0  0  0  0  0  0  0
  -22.1221    0.5886  -14.3436 C   0  0  0  0  0  0  0  0  0  0  0  0
  -22.8975    1.5883  -13.7662 C   0  0  0  0  0  0  0  0  0  0  0  0
  -22.3888    2.8641  -13.7392 C   0  0  0  0  0  0  0  0  0  0  0  0
  -21.2071    3.1946  -14.2854 N   0  0  0  0  0  0  0  0  0  0  0  0
  -20.4796    2.2394  -14.8860 C   0  0  0  0  0  0  0  0  0  0  0  0
  -20.9001    0.9165  -14.9418 C   0  0  0  0  0  0  0  0  0  0  0  0
  -19.2516    2.5873  -15.4789 N   0  0  0  0  0  0  0  0  0  0  0  0
  -18.0200    2.2574  -14.9485 C   0  0  0  0  0  0  0  0  0  0  0  0
  -17.7921    1.6395  -13.9168 O   0  0  0  0  0  0  0  0  0  0  0  0
  -19.2842    3.1304  -16.3246 H   0  0  0  0  0  0  0  0  0  0  0  0
  -16.8225    2.7220  -15.7108 C   0  0  0  0  0  0  0  0  0  0  0  0
  -15.9482    1.7087  -16.4120 C   0  0  0  0  0  0  0  0  0  0  0  0
  -15.3799    2.5599  -15.3121 C   0  0  0  0  0  0  0  0  0  0  0  0
  -28.4454   -2.1830   -7.9575 C   0  0  0  0  0  0  0  0  0  0  0  0
  -28.7140   -3.2236   -7.0595 C   0  0  0  0  0  0  0  0  0  0  0  0
  -29.0805   -3.0179   -5.7231 C   0  0  0  0  0  0  0  0  0  0  0  0
  -29.1803   -1.6910   -5.3025 C   0  0  0  0  0  0  0  0  0  0  0  0
  -28.8877   -0.6158   -6.1622 C   0  0  0  0  0  0  0  0  0  0  0  0
  -28.5328   -0.8725   -7.4966 C   0  0  0  0  0  0  0  0  0  0  0  0
  -29.2989   -4.0868   -4.8731 N   0  0  0  0  0  0  0  0  0  0  0  0
  -28.1786   -4.7364   -4.1705 C   0  0  0  0  0  0  0  0  0  0  0  0
  -27.9907   -6.1496   -4.6747 C   0  0  0  0  0  0  0  0  0  0  0  0
  -29.4860   -7.0613   -4.3918 S   0  0  0  0  0  0  0  0  0  0  0  0
  -29.4013   -8.3011   -5.1425 O   0  0  0  0  0  0  0  0  0  0  0  0
  -29.7454   -7.0926   -2.9635 O   0  0  0  0  0  0  0  0  0  0  0  0
  -30.7205   -6.0477   -5.1613 C   0  0  0  0  0  0  0  0  0  0  0  0
  -30.6360   -4.6327   -4.6257 C   0  0  0  0  0  0  0  0  0  0  0  0
  -28.8974    0.7992   -5.6463 C   0  0  0  0  0  0  0  0  0  0  0  0
  -28.0374    1.0121   -4.6124 F   0  0  0  0  0  0  0  0  0  0  0  0
  -28.5522    1.6975   -6.6102 F   0  0  0  0  0  0  0  0  0  0  0  0
  -30.1243    1.1833   -5.2000 F   0  0  0  0  0  0  0  0  0  0  0  0
  1  2  2  0  0  0
  2  3  1  0  0  0
  2  4  1  0  0  0
  3  7  1  0  0  0
  3  5  1  0  0  0
  7  8  1  0  0  0
  7 12  2  0  0  0
  8  9  2  0  0  0
  9 10  1  0  0  0
 10 13  1  0  0  0
 10 11  2  0  0  0
 13 14  1  0  0  0
 14 15  1  0  0  0
 14 19  2  0  0  0
 15 16  2  0  0  0
 16 17  1  0  0  0
 17 18  2  0  0  0
 18 20  1  0  0  0
 18 19  1  0  0  0
 20 21  1  0  0  0
 20 23  1  0  0  0
 21 22  2  0  0  0
 21 24  1  0  0  0
 24 25  1  0  0  0
 24 26  1  0  0  0
 25 26  1  0  0  0
 11 12  1  0  0  0
  4 27  1  0  0  0
  4  6  1  0  0  0
 27 28  1  0  0  0
 27 32  2  0  0  0
 28 29  2  0  0  0
 29 33  1  0  0  0
 29 30  1  0  0  0
 33 34  1  0  0  0
 33 40  1  0  0  0
 34 35  1  0  0  0
 35 36  1  0  0  0
 36 37  2  0  0  0
 36 38  2  0  0  0
 36 39  1  0  0  0
 39 40  1  0  0  0
 30 31  2  0  0  0
 31 41  1  0  0  0
 31 32  1  0  0  0
 41 42  1  0  0  0
 41 43  1  0  0  0
 41 44  1  0  0  0
M  END
> <minimizedAffinity>
-12.28481

$$$$
