CHEMBL3099481


 44 47  0  0  0  0  0  0  0  0999 V2000
  -28.9220   -4.3156   -7.0984 C   0  0  0  0  0  0  0  0  0  0  0  0
  -28.7591   -3.5898   -8.3009 C   0  0  0  0  0  0  0  0  0  0  0  0
  -28.2173   -2.3120   -8.3787 C   0  0  0  0  0  0  0  0  0  0  0  0
  -27.8746   -1.6820   -7.1860 C   0  0  0  0  0  0  0  0  0  0  0  0
  -28.0651   -2.3329   -5.9500 C   0  0  0  0  0  0  0  0  0  0  0  0
  -28.5763   -3.6532   -5.8969 C   0  0  0  0  0  0  0  0  0  0  0  0
  -29.2330   -7.9799   -8.2002 C   0  0  0  0  0  0  0  0  0  0  0  0
  -28.7228   -6.7042   -7.9183 C   0  0  0  0  0  0  0  0  0  0  0  0
  -29.4606   -5.7097   -7.2233 C   0  0  0  0  0  0  0  0  0  0  0  0
  -30.7326   -6.0842   -6.7726 C   0  0  0  0  0  0  0  0  0  0  0  0
  -31.2215   -7.3825   -6.9619 C   0  0  0  0  0  0  0  0  0  0  0  0
  -30.4727   -8.3429   -7.6589 C   0  0  0  0  0  0  0  0  0  0  0  0
  -31.0214   -9.7334   -7.7531 C   0  0  0  0  0  0  0  0  0  0  0  0
  -30.7162  -10.7243   -6.6410 C   0  0  0  0  0  0  0  0  0  0  0  0
  -31.8014  -10.0366   -8.7542 N   0  0  0  0  0  0  0  0  0  0  0  0
  -32.2631  -11.3552   -8.6608 O   0  0  0  0  0  0  0  0  0  0  0  0
  -32.8365  -11.4330   -9.4440 H   0  0  0  0  0  0  0  0  0  0  0  0
  -27.2592   -8.6774   -9.3669 C   0  0  0  0  0  0  0  0  0  0  0  0
  -28.6367   -8.8590   -9.0663 O   0  0  0  0  0  0  0  0  0  0  0  0
  -27.9906   -1.6619   -9.6189 N   0  0  0  0  0  0  0  0  0  0  0  0
  -26.8029   -1.6681  -10.3488 C   0  0  0  0  0  0  0  0  0  0  0  0
  -25.7680   -2.2506  -10.0467 O   0  0  0  0  0  0  0  0  0  0  0  0
  -26.9070   -0.8688  -11.4883 N   0  0  0  0  0  0  0  0  0  0  0  0
  -28.7781   -1.1971  -10.0463 H   0  0  0  0  0  0  0  0  0  0  0  0
  -27.2903    0.0250  -11.2125 H   0  0  0  0  0  0  0  0  0  0  0  0
  -25.7425   -0.7373  -12.2959 C   0  0  0  0  0  0  0  0  0  0  0  0
  -24.6373   -0.0806  -11.7540 C   0  0  0  0  0  0  0  0  0  0  0  0
  -23.4765    0.0913  -12.5098 C   0  0  0  0  0  0  0  0  0  0  0  0
  -23.4063   -0.3732  -13.8260 C   0  0  0  0  0  0  0  0  0  0  0  0
  -24.5189   -1.0231  -14.3713 C   0  0  0  0  0  0  0  0  0  0  0  0
  -25.6923   -1.2277  -13.6122 C   0  0  0  0  0  0  0  0  0  0  0  0
  -26.8778   -1.8991  -14.2454 C   0  0  0  0  0  0  0  0  0  0  0  0
  -22.3196   -0.2095  -14.6581 O   0  0  0  0  0  0  0  0  0  0  0  0
  -21.4594    0.8737  -14.2851 C   0  0  0  0  0  0  0  0  0  0  0  0
  -20.1942    0.9593  -15.1646 C   0  0  0  0  0  0  0  0  0  0  0  0
  -19.0702    1.5624  -14.4165 N   0  0  0  0  0  0  0  0  0  0  0  0
  -18.8876    2.9912  -14.7038 C   0  0  0  0  0  0  0  0  0  0  0  0
  -17.9142    3.0441  -15.8642 C   0  0  0  0  0  0  0  0  0  0  0  0
  -16.9829    1.8787  -15.6008 C   0  0  0  0  0  0  0  0  0  0  0  0
  -17.7722    0.9306  -14.7102 C   0  0  0  0  0  0  0  0  0  0  0  0
  -27.6436   -1.7262   -4.7885 O   0  0  0  0  0  0  0  0  0  0  0  0
  -27.7947   -0.3122   -4.7648 C   0  0  0  0  0  0  0  0  0  0  0  0
  -28.7039   -4.3853   -4.7374 O   0  0  0  0  0  0  0  0  0  0  0  0
  -29.7906   -4.0771   -3.8749 C   0  0  0  0  0  0  0  0  0  0  0  0
 18 19  1  0  0  0
 19  7  1  0  0  0
  7  8  1  0  0  0
  7 12  2  0  0  0
  8  9  2  0  0  0
  9  1  1  0  0  0
  9 10  1  0  0  0
  1  2  1  0  0  0
  1  6  2  0  0  0
  2  3  2  0  0  0
  3 20  1  0  0  0
  3  4  1  0  0  0
 20 21  1  0  0  0
 20 24  1  0  0  0
 21 22  2  0  0  0
 21 23  1  0  0  0
 23 26  1  0  0  0
 23 25  1  0  0  0
 26 27  1  0  0  0
 26 31  2  0  0  0
 27 28  2  0  0  0
 28 29  1  0  0  0
 29 33  1  0  0  0
 29 30  2  0  0  0
 33 34  1  0  0  0
 34 35  1  0  0  0
 35 36  1  0  0  0
 36 37  1  0  0  0
 36 40  1  0  0  0
 37 38  1  0  0  0
 38 39  1  0  0  0
 39 40  1  0  0  0
 30 31  1  0  0  0
 31 32  1  0  0  0
  4  5  2  0  0  0
  5 41  1  0  0  0
  5  6  1  0  0  0
 41 42  1  0  0  0
  6 43  1  0  0  0
 43 44  1  0  0  0
 10 11  2  0  0  0
 11 12  1  0  0  0
 12 13  1  0  0  0
 13 14  1  0  0  0
 13 15  2  0  0  0
 15 16  1  0  0  0
 16 17  1  0  0  0
M  END
> <minimizedAffinity>
-10.71338

$$$$
