CHEMBL3671558


 35 38  0  0  0  0  0  0  0  0999 V2000
  -29.8282   -5.0831   -7.1437 C   0  0  0  0  0  0  0  0  0  0  0  0
  -29.0991   -4.3409   -8.0867 C   0  0  0  0  0  0  0  0  0  0  0  0
  -28.5541   -3.0725   -7.7528 C   0  0  0  0  0  0  0  0  0  0  0  0
  -27.8120   -2.2265   -8.6116 C   0  0  0  0  0  0  0  0  0  0  0  0
  -27.4613   -0.9774   -8.2546 N   0  0  0  0  0  0  0  0  0  0  0  0
  -27.8198   -0.5784   -7.0337 C   0  0  0  0  0  0  0  0  0  0  0  0
  -28.4138   -1.3345   -6.1044 N   0  0  0  0  0  0  0  0  0  0  0  0
  -28.7547   -2.5769   -6.4600 C   0  0  0  0  0  0  0  0  0  0  0  0
  -29.3110   -3.4212   -5.5007 C   0  0  0  0  0  0  0  0  0  0  0  0
  -29.7917   -4.7044   -5.7999 C   0  0  0  0  0  0  0  0  0  0  0  0
  -30.1590   -7.4076   -7.9107 C   0  0  0  0  0  0  0  0  0  0  0  0
  -30.9566   -8.3413   -7.9486 O   0  0  0  0  0  0  0  0  0  0  0  0
  -30.6369   -6.1363   -7.6215 N   0  0  0  0  0  0  0  0  0  0  0  0
  -31.5190   -6.2728   -7.1379 H   0  0  0  0  0  0  0  0  0  0  0  0
  -28.2499   -8.7272   -8.7958 C   0  0  0  0  0  0  0  0  0  0  0  0
  -28.7034   -7.6302   -8.1637 C   0  0  0  0  0  0  0  0  0  0  0  0
  -27.4130   -2.6904   -9.8875 N   0  0  0  0  0  0  0  0  0  0  0  0
  -28.1720   -3.1844  -10.3489 H   0  0  0  0  0  0  0  0  0  0  0  0
  -26.5737   -2.0301  -10.8217 C   0  0  0  0  0  0  0  0  0  0  0  0
  -25.2450   -1.6887  -10.5317 C   0  0  0  0  0  0  0  0  0  0  0  0
  -24.3998   -1.1695  -11.5223 C   0  0  0  0  0  0  0  0  0  0  0  0
  -24.8747   -0.9946  -12.8208 C   0  0  0  0  0  0  0  0  0  0  0  0
  -23.7127   -0.3518  -14.1668 Br  0  0  0  0  0  0  0  0  0  0  0  0
  -26.1902   -1.3166  -13.1360 C   0  0  0  0  0  0  0  0  0  0  0  0
  -27.0172   -1.8355  -12.1404 C   0  0  0  0  0  0  0  0  0  0  0  0
  -28.2797   -2.1644  -12.4591 F   0  0  0  0  0  0  0  0  0  0  0  0
  -30.1796   -5.4227   -4.6951 O   0  0  0  0  0  0  0  0  0  0  0  0
  -29.1953   -5.7551   -3.6940 C   0  0  0  0  0  0  0  0  0  0  0  0
  -27.8463   -5.8798   -4.3942 C   0  0  0  0  0  0  0  0  0  0  0  0
  -27.9277   -7.2493   -5.0534 C   0  0  0  0  0  0  0  0  0  0  0  0
  -28.6477   -8.0625   -4.0981 N   0  0  0  0  0  0  0  0  0  0  0  0
  -28.6762   -9.4374   -4.0295 C   0  0  0  0  0  0  0  0  0  0  0  0
  -27.9062  -10.2204   -5.0740 C   0  0  0  0  0  0  0  0  0  0  0  0
  -29.3070  -10.0330   -3.1551 O   0  0  0  0  0  0  0  0  0  0  0  0
  -29.3732   -7.2049   -3.1569 C   0  0  0  0  0  0  0  0  0  0  0  0
 15 16  2  0  0  0
 16 11  1  0  0  0
 11 12  2  0  0  0
 11 13  1  0  0  0
 13  1  1  0  0  0
 13 14  1  0  0  0
  1  2  1  0  0  0
  1 10  2  0  0  0
  2  3  2  0  0  0
  3  4  1  0  0  0
  3  8  1  0  0  0
  4 17  1  0  0  0
  4  5  2  0  0  0
 17 19  1  0  0  0
 17 18  1  0  0  0
 19 20  1  0  0  0
 19 25  2  0  0  0
 20 21  2  0  0  0
 21 22  1  0  0  0
 22 23  1  0  0  0
 22 24  2  0  0  0
 24 25  1  0  0  0
 25 26  1  0  0  0
  5  6  1  0  0  0
  6  7  2  0  0  0
  7  8  1  0  0  0
  8  9  2  0  0  0
  9 10  1  0  0  0
 10 27  1  0  0  0
 27 28  1  0  0  0
 28 29  1  0  0  0
 28 35  1  0  0  0
 29 30  1  0  0  0
 30 31  1  0  0  0
 31 32  1  0  0  0
 31 35  1  0  0  0
 32 33  1  0  0  0
 32 34  2  0  0  0
M  END
> <minimizedAffinity>
-9.38296

$$$$
