CHEMBL3703197


 38 42  0  0  0  0  0  0  0  0999 V2000
  -25.3378   -1.5211  -11.0077 C   0  0  0  0  0  0  0  0  0  0  0  0
  -25.9575   -1.1335  -12.1946 C   0  0  0  0  0  0  0  0  0  0  0  0
  -25.2120   -0.8620  -13.3421 C   0  0  0  0  0  0  0  0  0  0  0  0
  -23.8178   -0.8899  -13.3054 C   0  0  0  0  0  0  0  0  0  0  0  0
  -23.1819   -1.2829  -12.1269 C   0  0  0  0  0  0  0  0  0  0  0  0
  -23.9381   -1.5887  -10.9785 C   0  0  0  0  0  0  0  0  0  0  0  0
  -27.4081   -1.5911   -9.6112 C   0  0  0  0  0  0  0  0  0  0  0  0
  -28.1621   -1.0114  -10.3861 O   0  0  0  0  0  0  0  0  0  0  0  0
  -26.0672   -1.8628   -9.8445 N   0  0  0  0  0  0  0  0  0  0  0  0
  -25.5745   -2.4202   -9.1439 H   0  0  0  0  0  0  0  0  0  0  0  0
  -28.3214   -0.0080   -6.9612 C   0  0  0  0  0  0  0  0  0  0  0  0
  -28.3926   -1.4792   -7.2444 C   0  0  0  0  0  0  0  0  0  0  0  0
  -27.9410   -2.1282   -8.3401 C   0  0  0  0  0  0  0  0  0  0  0  0
  -28.0106   -3.5640   -7.9833 C   0  0  0  0  0  0  0  0  0  0  0  0
  -27.7173   -4.4631   -8.7599 O   0  0  0  0  0  0  0  0  0  0  0  0
  -28.4711   -3.6376   -6.6668 N   0  0  0  0  0  0  0  0  0  0  0  0
  -28.9174   -2.3626   -6.2832 N   0  0  0  0  0  0  0  0  0  0  0  0
  -28.9719   -2.0360   -4.8599 C   0  0  0  0  0  0  0  0  0  0  0  0
  -28.8922   -4.8459   -6.0902 C   0  0  0  0  0  0  0  0  0  0  0  0
  -30.0889   -5.4030   -6.5586 C   0  0  0  0  0  0  0  0  0  0  0  0
  -30.5721   -6.5957   -6.0276 C   0  0  0  0  0  0  0  0  0  0  0  0
  -29.8780   -7.2212   -4.9962 C   0  0  0  0  0  0  0  0  0  0  0  0
  -28.6923   -6.6642   -4.5114 C   0  0  0  0  0  0  0  0  0  0  0  0
  -28.1859   -5.4861   -5.0692 C   0  0  0  0  0  0  0  0  0  0  0  0
  -23.0230   -0.5747  -14.3928 O   0  0  0  0  0  0  0  0  0  0  0  0
  -22.3342    0.6256  -14.3769 C   0  0  0  0  0  0  0  0  0  0  0  0
  -22.8443    1.7737  -13.7844 C   0  0  0  0  0  0  0  0  0  0  0  0
  -22.1227    2.9392  -13.9121 C   0  0  0  0  0  0  0  0  0  0  0  0
  -20.9222    2.9995  -14.5123 N   0  0  0  0  0  0  0  0  0  0  0  0
  -20.3856    1.8717  -15.0100 C   0  0  0  0  0  0  0  0  0  0  0  0
  -21.0624    0.6588  -14.9639 C   0  0  0  0  0  0  0  0  0  0  0  0
  -19.1061    1.9195  -15.5831 N   0  0  0  0  0  0  0  0  0  0  0  0
  -17.9399    1.6627  -14.8912 C   0  0  0  0  0  0  0  0  0  0  0  0
  -17.8149    1.4087  -13.7028 O   0  0  0  0  0  0  0  0  0  0  0  0
  -19.0450    2.1362  -16.5654 H   0  0  0  0  0  0  0  0  0  0  0  0
  -16.7154    1.6747  -15.7584 C   0  0  0  0  0  0  0  0  0  0  0  0
  -15.3728    1.9615  -15.1271 C   0  0  0  0  0  0  0  0  0  0  0  0
  -15.9938    2.9808  -16.0350 C   0  0  0  0  0  0  0  0  0  0  0  0
 11 12  1  0  0  0
 12 13  2  0  0  0
 12 17  1  0  0  0
 13  7  1  0  0  0
 13 14  1  0  0  0
  7  8  2  0  0  0
  7  9  1  0  0  0
  9  1  1  0  0  0
  9 10  1  0  0  0
  1  2  1  0  0  0
  1  6  2  0  0  0
  2  3  2  0  0  0
  3  4  1  0  0  0
  4 25  1  0  0  0
  4  5  2  0  0  0
 25 26  1  0  0  0
 26 27  1  0  0  0
 26 31  2  0  0  0
 27 28  2  0  0  0
 28 29  1  0  0  0
 29 30  2  0  0  0
 30 32  1  0  0  0
 30 31  1  0  0  0
 32 33  1  0  0  0
 32 35  1  0  0  0
 33 34  2  0  0  0
 33 36  1  0  0  0
 36 37  1  0  0  0
 36 38  1  0  0  0
 37 38  1  0  0  0
  5  6  1  0  0  0
 14 15  2  0  0  0
 14 16  1  0  0  0
 16 19  1  0  0  0
 16 17  1  0  0  0
 19 20  1  0  0  0
 19 24  2  0  0  0
 20 21  2  0  0  0
 21 22  1  0  0  0
 22 23  2  0  0  0
 23 24  1  0  0  0
 17 18  1  0  0  0
M  END
> <minimizedAffinity>
-10.09050

$$$$
