CHEMBL3676352


 36 38  0  0  0  0  0  0  0  0999 V2000
  -28.6593   -3.2571   -8.0747 C   0  0  0  0  0  0  0  0  0  0  0  0
  -28.7871   -4.6456   -8.1017 C   0  0  0  0  0  0  0  0  0  0  0  0
  -28.6251   -5.4031   -6.9215 C   0  0  0  0  0  0  0  0  0  0  0  0
  -28.6326   -6.8066   -6.8755 C   0  0  0  0  0  0  0  0  0  0  0  0
  -28.5399   -7.4818   -5.7159 N   0  0  0  0  0  0  0  0  0  0  0  0
  -28.4021   -6.7525   -4.6061 C   0  0  0  0  0  0  0  0  0  0  0  0
  -28.3323   -5.4170   -4.5413 N   0  0  0  0  0  0  0  0  0  0  0  0
  -28.4354   -4.7493   -5.6980 C   0  0  0  0  0  0  0  0  0  0  0  0
  -28.3642   -3.3647   -5.6838 C   0  0  0  0  0  0  0  0  0  0  0  0
  -28.4893   -2.5932   -6.8486 C   0  0  0  0  0  0  0  0  0  0  0  0
  -27.5354   -1.9535   -9.7634 C   0  0  0  0  0  0  0  0  0  0  0  0
  -26.4621   -1.9115   -9.1746 O   0  0  0  0  0  0  0  0  0  0  0  0
  -28.6847   -2.5805   -9.3132 N   0  0  0  0  0  0  0  0  0  0  0  0
  -29.2057   -3.0439  -10.0484 H   0  0  0  0  0  0  0  0  0  0  0  0
  -26.9929   -1.6908  -12.1491 C   0  0  0  0  0  0  0  0  0  0  0  0
  -27.7347   -1.3212  -11.0970 C   0  0  0  0  0  0  0  0  0  0  0  0
  -28.6720   -7.5504   -8.0933 N   0  0  0  0  0  0  0  0  0  0  0  0
  -27.7093   -7.7375   -8.3760 H   0  0  0  0  0  0  0  0  0  0  0  0
  -29.4849   -8.6977   -8.2733 C   0  0  0  0  0  0  0  0  0  0  0  0
  -30.8222   -8.6711   -7.8522 C   0  0  0  0  0  0  0  0  0  0  0  0
  -31.6617   -9.7920   -7.9166 C   0  0  0  0  0  0  0  0  0  0  0  0
  -31.1479  -10.9697   -8.4709 C   0  0  0  0  0  0  0  0  0  0  0  0
  -32.0069  -12.4649   -8.6036 Cl  0  0  0  0  0  0  0  0  0  0  0  0
  -29.8348  -10.9976   -8.9665 C   0  0  0  0  0  0  0  0  0  0  0  0
  -29.0145   -9.8708   -8.8730 C   0  0  0  0  0  0  0  0  0  0  0  0
  -27.3951   -9.9738   -9.4677 Cl  0  0  0  0  0  0  0  0  0  0  0  0
  -32.8880   -9.5033   -7.3898 O   0  0  0  0  0  0  0  0  0  0  0  0
  -33.2317   -8.1830   -7.0264 C   0  0  0  0  0  0  0  0  0  0  0  0
  -28.4734   -1.2323   -6.6284 O   0  0  0  0  0  0  0  0  0  0  0  0
  -27.6498   -0.8080   -5.5451 C   0  0  0  0  0  0  0  0  0  0  0  0
  -28.3029    0.2871   -4.6950 C   0  0  0  0  0  0  0  0  0  0  0  0
  -29.6220    0.6638   -5.2031 N   0  0  0  0  0  0  0  0  0  0  0  0
  -29.7743    1.4652   -6.3128 C   0  0  0  0  0  0  0  0  0  0  0  0
  -31.2000    1.8149   -6.6482 C   0  0  0  0  0  0  0  0  0  0  0  0
  -28.8409    1.9060   -6.9774 O   0  0  0  0  0  0  0  0  0  0  0  0
  -30.4353    0.2195   -4.7997 H   0  0  0  0  0  0  0  0  0  0  0  0
 15 16  2  0  0  0
 16 11  1  0  0  0
 11 12  2  0  0  0
 11 13  1  0  0  0
 13  1  1  0  0  0
 13 14  1  0  0  0
  1  2  1  0  0  0
  1 10  2  0  0  0
  2  3  2  0  0  0
  3  4  1  0  0  0
  3  8  1  0  0  0
  4 17  1  0  0  0
  4  5  2  0  0  0
 17 19  1  0  0  0
 17 18  1  0  0  0
 19 20  1  0  0  0
 19 25  2  0  0  0
 20 21  2  0  0  0
 21 27  1  0  0  0
 21 22  1  0  0  0
 27 28  1  0  0  0
 22 23  1  0  0  0
 22 24  2  0  0  0
 24 25  1  0  0  0
 25 26  1  0  0  0
  5  6  1  0  0  0
  6  7  2  0  0  0
  7  8  1  0  0  0
  8  9  2  0  0  0
  9 10  1  0  0  0
 10 29  1  0  0  0
 29 30  1  0  0  0
 30 31  1  0  0  0
 31 32  1  0  0  0
 32 33  1  0  0  0
 32 36  1  0  0  0
 33 34  1  0  0  0
 33 35  2  0  0  0
M  END
> <minimizedAffinity>
-8.64419

$$$$
