CHEMBL434180


 37 42  0  0  0  0  0  0  0  0999 V2000
  -23.5136   12.1510  -18.1062 C   0  0  0  0  0  0  0  0  0  0  0  0
  -23.7979   12.6585  -19.3990 C   0  0  0  0  0  0  0  0  0  0  0  0
  -22.8632   12.5820  -20.4462 C   0  0  0  0  0  0  0  0  0  0  0  0
  -21.6372   12.0211  -20.1650 C   0  0  0  0  0  0  0  0  0  0  0  0
  -21.3116   11.5493  -18.8664 C   0  0  0  0  0  0  0  0  0  0  0  0
  -22.2486   11.5930  -17.8482 C   0  0  0  0  0  0  0  0  0  0  0  0
  -19.8699   11.0270  -18.7499 C   0  0  0  0  0  0  0  0  0  0  0  0
  -19.4758   11.2260  -20.1702 C   0  0  0  0  0  0  0  0  0  0  0  0
  -18.3572   11.0865  -21.0203 C   0  0  0  0  0  0  0  0  0  0  0  0
  -18.6779   11.5227  -22.2628 N   0  0  0  0  0  0  0  0  0  0  0  0
  -19.9762   11.9251  -22.1808 N   0  0  0  0  0  0  0  0  0  0  0  0
  -20.4650   11.7805  -20.9361 C   0  0  0  0  0  0  0  0  0  0  0  0
  -20.4273   12.2881  -23.0125 H   0  0  0  0  0  0  0  0  0  0  0  0
  -17.0135   10.6184  -20.6520 C   0  0  0  0  0  0  0  0  0  0  0  0
  -16.7631    9.2535  -20.4494 C   0  0  0  0  0  0  0  0  0  0  0  0
  -15.5341    8.8091  -19.9427 C   0  0  0  0  0  0  0  0  0  0  0  0
  -14.5246    9.7210  -19.6428 C   0  0  0  0  0  0  0  0  0  0  0  0
  -14.7320   11.0774  -19.9159 C   0  0  0  0  0  0  0  0  0  0  0  0
  -15.9682   11.5232  -20.4196 C   0  0  0  0  0  0  0  0  0  0  0  0
  -13.3092    9.2646  -19.0258 C   0  0  0  0  0  0  0  0  0  0  0  0
  -12.2252    8.8477  -18.4332 C   0  0  0  0  0  0  0  0  0  0  0  0
  -10.9616    8.3615  -17.7424 C   0  0  0  0  0  0  0  0  0  0  0  0
  -11.1556    7.0494  -17.2252 O   0  0  0  0  0  0  0  0  0  0  0  0
  -10.9897    6.9138  -15.8706 C   0  0  0  0  0  0  0  0  0  0  0  0
  -10.8798    5.7059  -15.1755 C   0  0  0  0  0  0  0  0  0  0  0  0
  -10.7392    5.7016  -13.7848 C   0  0  0  0  0  0  0  0  0  0  0  0
  -10.6966    6.9028  -13.0815 C   0  0  0  0  0  0  0  0  0  0  0  0
  -10.7876    8.1110  -13.7688 C   0  0  0  0  0  0  0  0  0  0  0  0
  -10.9356    8.1146  -15.1581 C   0  0  0  0  0  0  0  0  0  0  0  0
  -24.5673   12.1830  -17.0099 C   0  0  0  0  0  0  0  0  0  0  0  0
  -28.6922   11.2684  -14.6507 C   0  0  0  0  0  0  0  0  0  0  0  0
  -27.3229   10.8210  -14.8777 N   0  0  0  0  0  0  0  0  0  0  0  0
  -27.0943   10.4938  -16.2943 C   0  0  0  0  0  0  0  0  0  0  0  0
  -25.6433   10.0101  -16.5188 C   0  0  0  0  0  0  0  0  0  0  0  0
  -24.6066   10.9952  -16.1389 N   0  0  0  0  0  0  0  0  0  0  0  0
  -24.8744   11.3924  -14.7312 C   0  0  0  0  0  0  0  0  0  0  0  0
  -26.3378   11.8217  -14.4278 C   0  0  0  0  0  0  0  0  0  0  0  0
 31 32  1  0  0  0
 32 33  1  0  0  0
 32 37  1  0  0  0
 33 34  1  0  0  0
 34 35  1  0  0  0
 35 30  1  0  0  0
 35 36  1  0  0  0
 30  1  1  0  0  0
  1  2  1  0  0  0
  1  6  2  0  0  0
  2  3  2  0  0  0
  3  4  1  0  0  0
  4  5  2  0  0  0
  4 12  1  0  0  0
  5  6  1  0  0  0
  5  7  1  0  0  0
  7  8  1  0  0  0
  8  9  1  0  0  0
  8 12  2  0  0  0
  9 14  1  0  0  0
  9 10  2  0  0  0
 14 15  1  0  0  0
 14 19  2  0  0  0
 15 16  2  0  0  0
 16 17  1  0  0  0
 17 20  1  0  0  0
 17 18  2  0  0  0
 20 21  3  0  0  0
 21 22  1  0  0  0
 22 23  1  0  0  0
 23 24  1  0  0  0
 24 25  1  0  0  0
 24 29  2  0  0  0
 25 26  2  0  0  0
 26 27  1  0  0  0
 27 28  2  0  0  0
 28 29  1  0  0  0
 18 19  1  0  0  0
 10 11  1  0  0  0
 11 12  1  0  0  0
 11 13  1  0  0  0
 36 37  1  0  0  0
M  END
> <minimizedAffinity>
-6.61010

$$$$
