CHEMBL241492


 29 31  0  0  0  0  0  0  0  0999 V2000
  -28.0238   -7.8046   -8.7780 C   0  0  0  0  0  0  0  0  0  0  0  0
  -29.0855   -7.7747   -7.7453 C   0  0  0  0  0  0  0  0  0  0  0  0
  -29.4465   -8.9229   -7.1606 N   0  0  0  0  0  0  0  0  0  0  0  0
  -30.3485   -8.5717   -6.1800 O   0  0  0  0  0  0  0  0  0  0  0  0
  -30.5420   -7.2241   -6.1813 C   0  0  0  0  0  0  0  0  0  0  0  0
  -29.7843   -6.6627   -7.1953 C   0  0  0  0  0  0  0  0  0  0  0  0
  -29.7001   -5.2482   -7.4905 C   0  0  0  0  0  0  0  0  0  0  0  0
  -30.6767   -4.6314   -7.9081 O   0  0  0  0  0  0  0  0  0  0  0  0
  -28.4314   -4.6926   -7.3517 N   0  0  0  0  0  0  0  0  0  0  0  0
  -27.6531   -5.3341   -7.4444 H   0  0  0  0  0  0  0  0  0  0  0  0
  -28.1757   -3.3290   -7.6225 C   0  0  0  0  0  0  0  0  0  0  0  0
  -27.7183   -2.9633   -8.8901 C   0  0  0  0  0  0  0  0  0  0  0  0
  -27.5288   -1.6145   -9.2047 C   0  0  0  0  0  0  0  0  0  0  0  0
  -27.7359   -0.6303   -8.2370 C   0  0  0  0  0  0  0  0  0  0  0  0
  -28.1412   -0.9845   -6.9428 C   0  0  0  0  0  0  0  0  0  0  0  0
  -28.3694   -2.3412   -6.6501 C   0  0  0  0  0  0  0  0  0  0  0  0
  -28.3304    0.0592   -5.8693 C   0  0  0  0  0  0  0  0  0  0  0  0
  -28.2225    1.3384   -6.3286 F   0  0  0  0  0  0  0  0  0  0  0  0
  -29.5486   -0.0176   -5.2675 F   0  0  0  0  0  0  0  0  0  0  0  0
  -27.4109   -0.0527   -4.8701 F   0  0  0  0  0  0  0  0  0  0  0  0
  -31.4043   -6.6984   -5.2786 N   0  0  0  0  0  0  0  0  0  0  0  0
  -32.1580   -6.1015   -5.6153 H   0  0  0  0  0  0  0  0  0  0  0  0
  -30.9830   -6.4220   -3.9130 C   0  0  0  0  0  0  0  0  0  0  0  0
  -30.2539   -5.1042   -3.7391 C   0  0  0  0  0  0  0  0  0  0  0  0
  -30.8838   -3.8743   -3.5545 C   0  0  0  0  0  0  0  0  0  0  0  0
  -30.1088   -2.7373   -3.3791 C   0  0  0  0  0  0  0  0  0  0  0  0
  -28.7595   -2.7402   -3.3593 N   0  0  0  0  0  0  0  0  0  0  0  0
  -28.1591   -3.9349   -3.5330 C   0  0  0  0  0  0  0  0  0  0  0  0
  -28.8495   -5.1220   -3.7186 C   0  0  0  0  0  0  0  0  0  0  0  0
  1  2  1  0  0  0
  2  3  2  0  0  0
  2  6  1  0  0  0
  3  4  1  0  0  0
  4  5  1  0  0  0
  5 21  1  0  0  0
  5  6  2  0  0  0
 21 23  1  0  0  0
 21 22  1  0  0  0
 23 24  1  0  0  0
 24 25  1  0  0  0
 24 29  2  0  0  0
 25 26  2  0  0  0
 26 27  1  0  0  0
 27 28  2  0  0  0
 28 29  1  0  0  0
  6  7  1  0  0  0
  7  8  2  0  0  0
  7  9  1  0  0  0
  9 11  1  0  0  0
  9 10  1  0  0  0
 11 12  1  0  0  0
 11 16  2  0  0  0
 12 13  2  0  0  0
 13 14  1  0  0  0
 14 15  2  0  0  0
 15 17  1  0  0  0
 15 16  1  0  0  0
 17 18  1  0  0  0
 17 19  1  0  0  0
 17 20  1  0  0  0
M  END
> <minimizedAffinity>
-7.83352

$$$$
