CHEMBL243916


 39 42  0  0  0  0  0  0  0  0999 V2000
  -23.6599   -1.3536  -13.5108 C   0  0  0  0  0  0  0  0  0  0  0  0
  -23.3767   -1.6415  -12.1776 C   0  0  0  0  0  0  0  0  0  0  0  0
  -24.4073   -1.9417  -11.2908 C   0  0  0  0  0  0  0  0  0  0  0  0
  -25.7431   -1.9617  -11.7163 C   0  0  0  0  0  0  0  0  0  0  0  0
  -26.0266   -1.6135  -13.0378 C   0  0  0  0  0  0  0  0  0  0  0  0
  -24.9898   -1.2781  -13.9231 C   0  0  0  0  0  0  0  0  0  0  0  0
  -26.8245   -2.3476  -10.8884 N   0  0  0  0  0  0  0  0  0  0  0  0
  -27.0540   -1.9112   -9.6032 C   0  0  0  0  0  0  0  0  0  0  0  0
  -26.4122   -1.0336   -9.0334 O   0  0  0  0  0  0  0  0  0  0  0  0
  -28.0925   -2.5963   -8.9865 N   0  0  0  0  0  0  0  0  0  0  0  0
  -27.5506   -2.9092  -11.3088 H   0  0  0  0  0  0  0  0  0  0  0  0
  -28.1136   -3.5871   -9.1947 H   0  0  0  0  0  0  0  0  0  0  0  0
  -28.4323   -2.2597   -7.6495 C   0  0  0  0  0  0  0  0  0  0  0  0
  -28.5435   -0.9237   -7.2442 C   0  0  0  0  0  0  0  0  0  0  0  0
  -28.7343   -0.5962   -5.8935 C   0  0  0  0  0  0  0  0  0  0  0  0
  -28.8149   -1.6341   -4.9504 C   0  0  0  0  0  0  0  0  0  0  0  0
  -28.7473   -2.9694   -5.3569 C   0  0  0  0  0  0  0  0  0  0  0  0
  -28.5801   -3.2739   -6.7045 C   0  0  0  0  0  0  0  0  0  0  0  0
  -28.4777   -4.5576   -7.0811 F   0  0  0  0  0  0  0  0  0  0  0  0
  -28.8247    0.8490   -5.4510 C   0  0  0  0  0  0  0  0  0  0  0  0
  -27.9727    1.1620   -4.4409 F   0  0  0  0  0  0  0  0  0  0  0  0
  -28.5411    1.7138   -6.4650 F   0  0  0  0  0  0  0  0  0  0  0  0
  -30.0693    1.1785   -5.0099 F   0  0  0  0  0  0  0  0  0  0  0  0
  -22.5739   -1.1250  -14.3269 O   0  0  0  0  0  0  0  0  0  0  0  0
  -18.9057    3.3271  -15.1396 C   0  0  0  0  0  0  0  0  0  0  0  0
  -19.9098    3.6945  -14.3823 N   0  0  0  0  0  0  0  0  0  0  0  0
  -20.7649    2.6240  -14.3817 C   0  0  0  0  0  0  0  0  0  0  0  0
  -22.0555    2.5224  -13.8609 C   0  0  0  0  0  0  0  0  0  0  0  0
  -22.7027    1.2816  -13.9092 C   0  0  0  0  0  0  0  0  0  0  0  0
  -22.0371    0.1474  -14.3919 C   0  0  0  0  0  0  0  0  0  0  0  0
  -20.7864    0.2555  -15.0156 C   0  0  0  0  0  0  0  0  0  0  0  0
  -20.1911    1.5227  -15.0095 C   0  0  0  0  0  0  0  0  0  0  0  0
  -19.0366    2.0254  -15.5572 N   0  0  0  0  0  0  0  0  0  0  0  0
  -18.3827    1.5405  -16.1548 H   0  0  0  0  0  0  0  0  0  0  0  0
  -15.6336    4.6336  -16.2296 C   0  0  0  0  0  0  0  0  0  0  0  0
  -16.6452    3.5923  -15.8276 C   0  0  0  0  0  0  0  0  0  0  0  0
  -16.3783    2.3939  -15.8297 O   0  0  0  0  0  0  0  0  0  0  0  0
  -17.8497    4.1410  -15.4446 N   0  0  0  0  0  0  0  0  0  0  0  0
  -18.1154    5.0396  -15.8253 H   0  0  0  0  0  0  0  0  0  0  0  0
 35 36  1  0  0  0
 36 37  2  0  0  0
 36 38  1  0  0  0
 38 25  1  0  0  0
 38 39  1  0  0  0
 25 26  2  0  0  0
 25 33  1  0  0  0
 26 27  1  0  0  0
 27 28  1  0  0  0
 27 32  2  0  0  0
 28 29  2  0  0  0
 29 30  1  0  0  0
 30 24  1  0  0  0
 30 31  2  0  0  0
 24  1  1  0  0  0
  1  2  1  0  0  0
  1  6  2  0  0  0
  2  3  2  0  0  0
  3  4  1  0  0  0
  4  7  1  0  0  0
  4  5  2  0  0  0
  7  8  1  0  0  0
  7 11  1  0  0  0
  8  9  2  0  0  0
  8 10  1  0  0  0
 10 13  1  0  0  0
 10 12  1  0  0  0
 13 14  1  0  0  0
 13 18  2  0  0  0
 14 15  2  0  0  0
 15 20  1  0  0  0
 15 16  1  0  0  0
 20 21  1  0  0  0
 20 22  1  0  0  0
 20 23  1  0  0  0
 16 17  2  0  0  0
 17 18  1  0  0  0
 18 19  1  0  0  0
  5  6  1  0  0  0
 31 32  1  0  0  0
 32 33  1  0  0  0
 33 34  1  0  0  0
M  END
> <minimizedAffinity>
-11.96734

$$$$
