CHEMBL75077


 26 29  0  0  0  0  0  0  0  0999 V2000
  -29.1937   -5.7690   -5.9794 C   0  0  0  0  0  0  0  0  0  0  0  0
  -28.1487   -5.7404   -5.1243 N   0  0  0  0  0  0  0  0  0  0  0  0
  -27.6357   -6.8867   -4.6076 N   0  0  0  0  0  0  0  0  0  0  0  0
  -28.1812   -8.0779   -4.9456 C   0  0  0  0  0  0  0  0  0  0  0  0
  -29.2660   -8.1878   -5.8075 C   0  0  0  0  0  0  0  0  0  0  0  0
  -29.7934   -9.3996   -6.1206 N   0  0  0  0  0  0  0  0  0  0  0  0
  -30.8516   -9.4577   -6.9569 C   0  0  0  0  0  0  0  0  0  0  0  0
  -31.4338   -8.3478   -7.5260 C   0  0  0  0  0  0  0  0  0  0  0  0
  -30.8961   -7.1054   -7.2142 C   0  0  0  0  0  0  0  0  0  0  0  0
  -29.7854   -6.9964   -6.3450 C   0  0  0  0  0  0  0  0  0  0  0  0
  -29.6968   -4.5533   -6.5181 N   0  0  0  0  0  0  0  0  0  0  0  0
  -29.8168   -4.6479   -7.5208 H   0  0  0  0  0  0  0  0  0  0  0  0
  -28.1393    0.9792   -5.0104 Cl  0  0  0  0  0  0  0  0  0  0  0  0
  -28.5821   -0.6269   -5.4374 C   0  0  0  0  0  0  0  0  0  0  0  0
  -28.0269   -1.2246   -6.5662 C   0  0  0  0  0  0  0  0  0  0  0  0
  -28.3950   -2.5286   -6.9180 C   0  0  0  0  0  0  0  0  0  0  0  0
  -29.3023   -3.2535   -6.1322 C   0  0  0  0  0  0  0  0  0  0  0  0
  -29.8608   -2.6240   -5.0098 C   0  0  0  0  0  0  0  0  0  0  0  0
  -29.5012   -1.3208   -4.6585 C   0  0  0  0  0  0  0  0  0  0  0  0
  -27.5358   -9.2964   -4.3341 C   0  0  0  0  0  0  0  0  0  0  0  0
  -26.2179   -9.6837   -4.9632 C   0  0  0  0  0  0  0  0  0  0  0  0
  -26.1752  -10.2819   -6.2256 C   0  0  0  0  0  0  0  0  0  0  0  0
  -24.9416  -10.6168   -6.7630 C   0  0  0  0  0  0  0  0  0  0  0  0
  -23.7647  -10.3995   -6.1388 N   0  0  0  0  0  0  0  0  0  0  0  0
  -23.8267   -9.8288   -4.9169 C   0  0  0  0  0  0  0  0  0  0  0  0
  -25.0104   -9.4616   -4.2942 C   0  0  0  0  0  0  0  0  0  0  0  0
 13 14  1  0  0  0
 14 15  1  0  0  0
 14 19  2  0  0  0
 15 16  2  0  0  0
 16 17  1  0  0  0
 17 11  1  0  0  0
 17 18  2  0  0  0
 11  1  1  0  0  0
 11 12  1  0  0  0
  1  2  1  0  0  0
  1 10  2  0  0  0
  2  3  2  0  0  0
  3  4  1  0  0  0
  4 20  1  0  0  0
  4  5  2  0  0  0
 20 21  1  0  0  0
 21 22  1  0  0  0
 21 26  2  0  0  0
 22 23  2  0  0  0
 23 24  1  0  0  0
 24 25  2  0  0  0
 25 26  1  0  0  0
  5  6  1  0  0  0
  5 10  1  0  0  0
  6  7  2  0  0  0
  7  8  1  0  0  0
  8  9  2  0  0  0
  9 10  1  0  0  0
 18 19  1  0  0  0
M  END
> <minimizedAffinity>
-7.92339

$$$$
