CHEMBL3220325


 44 46  0  0  0  0  0  0  0  0999 V2000
  -29.7267   -4.2727   -7.2082 C   0  0  0  0  0  0  0  0  0  0  0  0
  -29.6829   -3.5664   -6.0007 C   0  0  0  0  0  0  0  0  0  0  0  0
  -28.9664   -2.3691   -5.8762 C   0  0  0  0  0  0  0  0  0  0  0  0
  -28.3000   -1.8456   -7.0066 C   0  0  0  0  0  0  0  0  0  0  0  0
  -28.2498   -2.5989   -8.2251 C   0  0  0  0  0  0  0  0  0  0  0  0
  -28.9690   -3.8185   -8.2886 C   0  0  0  0  0  0  0  0  0  0  0  0
  -30.8682   -7.6747   -7.8456 N   0  0  0  0  0  0  0  0  0  0  0  0
  -29.9823   -6.6523   -7.5672 C   0  0  0  0  0  0  0  0  0  0  0  0
  -28.7582   -6.7704   -7.4641 O   0  0  0  0  0  0  0  0  0  0  0  0
  -30.5840   -5.4127   -7.3444 N   0  0  0  0  0  0  0  0  0  0  0  0
  -31.8424   -7.4725   -7.6633 H   0  0  0  0  0  0  0  0  0  0  0  0
  -31.3525   -5.4615   -6.6906 H   0  0  0  0  0  0  0  0  0  0  0  0
  -29.0604  -10.5514   -9.4379 C   0  0  0  0  0  0  0  0  0  0  0  0
  -29.7830  -11.6437   -8.9765 C   0  0  0  0  0  0  0  0  0  0  0  0
  -30.8799  -11.4567   -8.1541 C   0  0  0  0  0  0  0  0  0  0  0  0
  -31.2916  -10.1767   -7.7396 C   0  0  0  0  0  0  0  0  0  0  0  0
  -32.5031  -10.1996   -6.8481 C   0  0  0  0  0  0  0  0  0  0  0  0
  -30.5652   -9.0427   -8.1710 C   0  0  0  0  0  0  0  0  0  0  0  0
  -29.4221   -9.2638   -8.9908 C   0  0  0  0  0  0  0  0  0  0  0  0
  -27.9957  -10.6714  -10.3119 O   0  0  0  0  0  0  0  0  0  0  0  0
  -26.7479  -10.1595   -9.7846 C   0  0  0  0  0  0  0  0  0  0  0  0
  -26.1217  -11.0942   -8.7338 C   0  0  0  0  0  0  0  0  0  0  0  0
  -25.9473  -10.4921   -7.3847 N   0  0  0  0  0  0  0  0  0  0  0  0
  -27.7107   -9.7722   -5.7090 C   0  0  0  0  0  0  0  0  0  0  0  0
  -27.0652  -10.9004   -6.5099 C   0  0  0  0  0  0  0  0  0  0  0  0
  -24.6216  -10.7028   -6.7792 C   0  0  0  0  0  0  0  0  0  0  0  0
  -23.6884  -11.6650   -7.5083 C   0  0  0  0  0  0  0  0  0  0  0  0
  -27.4737   -2.1386   -9.4202 C   0  0  0  0  0  0  0  0  0  0  0  0
  -26.1253   -1.8029   -9.3603 C   0  0  0  0  0  0  0  0  0  0  0  0
  -25.4472   -1.3539  -10.5036 C   0  0  0  0  0  0  0  0  0  0  0  0
  -26.0573   -1.2429  -11.7834 C   0  0  0  0  0  0  0  0  0  0  0  0
  -27.4136   -1.5732  -11.8712 C   0  0  0  0  0  0  0  0  0  0  0  0
  -28.0764   -1.9868  -10.6828 C   0  0  0  0  0  0  0  0  0  0  0  0
  -25.0892   -0.7519  -12.8334 C   0  0  0  0  0  0  0  0  0  0  0  0
  -25.1470   -1.2725  -14.2442 C   0  0  0  0  0  0  0  0  0  0  0  0
  -24.2616    0.2090  -12.4989 N   0  0  0  0  0  0  0  0  0  0  0  0
  -23.4997    0.6619  -13.5809 O   0  0  0  0  0  0  0  0  0  0  0  0
  -23.0978    1.4766  -13.2248 H   0  0  0  0  0  0  0  0  0  0  0  0
  -28.3373   -1.6149  -12.8663 O   0  0  0  0  0  0  0  0  0  0  0  0
  -28.4769   -2.5907  -13.8660 C   0  0  0  0  0  0  0  0  0  0  0  0
  -28.8956   -1.6649   -4.7021 O   0  0  0  0  0  0  0  0  0  0  0  0
  -28.9860   -2.3688   -3.4718 C   0  0  0  0  0  0  0  0  0  0  0  0
  -27.7082   -0.6055   -7.0817 O   0  0  0  0  0  0  0  0  0  0  0  0
  -28.4444    0.5874   -6.8547 C   0  0  0  0  0  0  0  0  0  0  0  0
 24 25  1  0  0  0
 25 23  1  0  0  0
 23 26  1  0  0  0
 23 22  1  0  0  0
 26 27  1  0  0  0
 22 21  1  0  0  0
 21 20  1  0  0  0
 20 13  1  0  0  0
 13 14  1  0  0  0
 13 19  2  0  0  0
 14 15  2  0  0  0
 15 16  1  0  0  0
 16 17  1  0  0  0
 16 18  2  0  0  0
 18  7  1  0  0  0
 18 19  1  0  0  0
  7  8  1  0  0  0
  7 11  1  0  0  0
  8  9  2  0  0  0
  8 10  1  0  0  0
 10  1  1  0  0  0
 10 12  1  0  0  0
  1  2  1  0  0  0
  1  6  2  0  0  0
  2  3  2  0  0  0
  3 41  1  0  0  0
  3  4  1  0  0  0
 41 42  1  0  0  0
  4 43  1  0  0  0
  4  5  2  0  0  0
 43 44  1  0  0  0
  5 28  1  0  0  0
  5  6  1  0  0  0
 28 29  1  0  0  0
 28 33  2  0  0  0
 29 30  2  0  0  0
 30 31  1  0  0  0
 31 34  1  0  0  0
 31 32  2  0  0  0
 34 35  1  0  0  0
 34 36  2  0  0  0
 36 37  1  0  0  0
 37 38  1  0  0  0
 32 39  1  0  0  0
 32 33  1  0  0  0
 39 40  1  0  0  0
M  END
> <minimizedAffinity>
-7.08423

$$$$
