CHEMBL569880


 39 42  0  0  0  0  0  0  0  0999 V2000
  -27.1575   -8.7434   -5.0596 C   0  0  0  0  0  0  0  0  0  0  0  0
  -27.7570   -9.0701   -6.2776 C   0  0  0  0  0  0  0  0  0  0  0  0
  -27.1125   -9.9534   -7.1799 C   0  0  0  0  0  0  0  0  0  0  0  0
  -27.5652  -10.2670   -8.4653 C   0  0  0  0  0  0  0  0  0  0  0  0
  -26.8980  -11.1185   -9.2701 N   0  0  0  0  0  0  0  0  0  0  0  0
  -25.7557  -11.6235   -8.8063 C   0  0  0  0  0  0  0  0  0  0  0  0
  -25.2118  -11.3614   -7.6159 N   0  0  0  0  0  0  0  0  0  0  0  0
  -25.8836  -10.5278   -6.8191 C   0  0  0  0  0  0  0  0  0  0  0  0
  -25.3290  -10.2180   -5.5875 C   0  0  0  0  0  0  0  0  0  0  0  0
  -25.9601   -9.3636   -4.6803 C   0  0  0  0  0  0  0  0  0  0  0  0
  -28.3256   -6.6331   -4.8477 C   0  0  0  0  0  0  0  0  0  0  0  0
  -28.2022   -6.3489   -6.0384 O   0  0  0  0  0  0  0  0  0  0  0  0
  -27.7742   -7.7641   -4.2592 N   0  0  0  0  0  0  0  0  0  0  0  0
  -28.3243   -8.1211   -3.4873 H   0  0  0  0  0  0  0  0  0  0  0  0
  -29.3340   -3.4328   -5.0393 C   0  0  0  0  0  0  0  0  0  0  0  0
  -29.9697   -2.6730   -5.7613 O   0  0  0  0  0  0  0  0  0  0  0  0
  -29.8350   -4.6174   -4.5568 N   0  0  0  0  0  0  0  0  0  0  0  0
  -31.2362   -4.9557   -4.7094 C   0  0  0  0  0  0  0  0  0  0  0  0
  -31.5267   -5.8079   -3.4897 C   0  0  0  0  0  0  0  0  0  0  0  0
  -30.2155   -6.5367   -3.2013 C   0  0  0  0  0  0  0  0  0  0  0  0
  -29.1158   -5.7089   -3.8848 C   0  0  0  0  0  0  0  0  0  0  0  0
  -27.3657   -1.9798   -5.0477 C   0  0  0  0  0  0  0  0  0  0  0  0
  -27.9168   -3.1499   -4.7037 C   0  0  0  0  0  0  0  0  0  0  0  0
  -28.7296   -9.6484   -8.9897 N   0  0  0  0  0  0  0  0  0  0  0  0
  -28.5759   -8.6519   -9.1373 H   0  0  0  0  0  0  0  0  0  0  0  0
  -30.0263   -9.9252   -8.4846 C   0  0  0  0  0  0  0  0  0  0  0  0
  -30.5071  -11.2461   -8.4595 C   0  0  0  0  0  0  0  0  0  0  0  0
  -31.7186  -11.5561   -7.8473 C   0  0  0  0  0  0  0  0  0  0  0  0
  -32.4791  -10.5377   -7.2851 C   0  0  0  0  0  0  0  0  0  0  0  0
  -33.6201  -10.8654   -6.6613 F   0  0  0  0  0  0  0  0  0  0  0  0
  -32.0629   -9.2098   -7.3619 C   0  0  0  0  0  0  0  0  0  0  0  0
  -33.0356   -7.9574   -6.6892 Cl  0  0  0  0  0  0  0  0  0  0  0  0
  -30.8418   -8.9094   -7.9687 C   0  0  0  0  0  0  0  0  0  0  0  0
  -30.4113   -7.6385   -8.0374 F   0  0  0  0  0  0  0  0  0  0  0  0
  -25.3027   -9.2511   -3.4791 O   0  0  0  0  0  0  0  0  0  0  0  0
  -24.1892  -10.1248   -3.3136 C   0  0  0  0  0  0  0  0  0  0  0  0
  -24.5125  -11.2849   -2.3799 C   0  0  0  0  0  0  0  0  0  0  0  0
  -23.2632  -11.8167   -1.9326 O   0  0  0  0  0  0  0  0  0  0  0  0
  -22.1590  -11.3239   -2.6728 C   0  0  0  0  0  0  0  0  0  0  0  0
 22 23  2  0  0  0
 23 15  1  0  0  0
 15 16  2  0  0  0
 15 17  1  0  0  0
 17 18  1  0  0  0
 17 21  1  0  0  0
 18 19  1  0  0  0
 19 20  1  0  0  0
 20 21  1  0  0  0
 21 11  1  0  0  0
 11 12  2  0  0  0
 11 13  1  0  0  0
 13  1  1  0  0  0
 13 14  1  0  0  0
  1  2  1  0  0  0
  1 10  2  0  0  0
  2  3  2  0  0  0
  3  4  1  0  0  0
  3  8  1  0  0  0
  4 24  1  0  0  0
  4  5  2  0  0  0
 24 26  1  0  0  0
 24 25  1  0  0  0
 26 27  1  0  0  0
 26 33  2  0  0  0
 27 28  2  0  0  0
 28 29  1  0  0  0
 29 30  1  0  0  0
 29 31  2  0  0  0
 31 32  1  0  0  0
 31 33  1  0  0  0
 33 34  1  0  0  0
  5  6  1  0  0  0
  6  7  2  0  0  0
  7  8  1  0  0  0
  8  9  2  0  0  0
  9 10  1  0  0  0
 10 35  1  0  0  0
 35 36  1  0  0  0
 36 37  1  0  0  0
 37 38  1  0  0  0
 38 39  1  0  0  0
M  END
> <minimizedAffinity>
-8.10552

$$$$
