CHEMBL4529670


 41 45  0  0  0  0  0  0  0  0999 V2000
  -26.7016   10.9091  -14.5292 N   0  0  0  0  0  0  0  0  0  0  0  0
  -26.7028    9.8825  -14.4827 H   0  0  0  0  0  0  0  0  0  0  0  0
  -28.0471   11.1839  -14.8056 C   0  0  0  0  0  0  0  0  0  0  0  0
  -28.3584   10.8356  -16.0966 N   0  0  0  0  0  0  0  0  0  0  0  0
  -29.5965   10.4189  -16.3961 C   0  0  0  0  0  0  0  0  0  0  0  0
  -30.5418   10.2000  -15.4334 C   0  0  0  0  0  0  0  0  0  0  0  0
  -30.2300   10.6340  -14.1588 C   0  0  0  0  0  0  0  0  0  0  0  0
  -31.2193   10.4271  -13.1804 N   0  0  0  0  0  0  0  0  0  0  0  0
  -31.4155   11.5679  -12.4378 C   0  0  0  0  0  0  0  0  0  0  0  0
  -30.4178   12.2566  -11.8720 C   0  0  0  0  0  0  0  0  0  0  0  0
  -29.0123   11.9113  -12.4227 C   0  0  0  0  0  0  0  0  0  0  0  0
  -27.9872   12.1714  -11.8125 O   0  0  0  0  0  0  0  0  0  0  0  0
  -29.0095   11.2765  -13.8110 C   0  0  0  0  0  0  0  0  0  0  0  0
  -30.7798    9.7652  -12.5148 H   0  0  0  0  0  0  0  0  0  0  0  0
  -30.9199   12.6589  -10.5291 C   0  0  0  0  0  0  0  0  0  0  0  0
  -29.9615   12.5518   -9.5003 C   0  0  0  0  0  0  0  0  0  0  0  0
  -30.3106   11.9921   -8.2650 C   0  0  0  0  0  0  0  0  0  0  0  0
  -31.6233   11.6022   -8.0263 C   0  0  0  0  0  0  0  0  0  0  0  0
  -31.9202   10.9424   -6.8983 F   0  0  0  0  0  0  0  0  0  0  0  0
  -32.6163   11.8264   -8.9718 C   0  0  0  0  0  0  0  0  0  0  0  0
  -32.2777   12.3872  -10.2130 C   0  0  0  0  0  0  0  0  0  0  0  0
  -23.1167   12.1536  -16.3671 C   0  0  0  0  0  0  0  0  0  0  0  0
  -23.1356   11.6860  -15.0553 C   0  0  0  0  0  0  0  0  0  0  0  0
  -24.3220   11.1938  -14.5195 C   0  0  0  0  0  0  0  0  0  0  0  0
  -25.5269   11.2357  -15.2471 C   0  0  0  0  0  0  0  0  0  0  0  0
  -25.5097   11.7223  -16.5496 C   0  0  0  0  0  0  0  0  0  0  0  0
  -24.3089   12.1734  -17.0990 C   0  0  0  0  0  0  0  0  0  0  0  0
  -24.3110   12.6585  -18.3488 F   0  0  0  0  0  0  0  0  0  0  0  0
  -21.9953   12.6557  -16.9884 O   0  0  0  0  0  0  0  0  0  0  0  0
  -20.3199   11.1153  -19.8760 C   0  0  0  0  0  0  0  0  0  0  0  0
  -20.6058   11.3884  -18.5469 C   0  0  0  0  0  0  0  0  0  0  0  0
  -21.6822   12.2286  -18.2595 C   0  0  0  0  0  0  0  0  0  0  0  0
  -22.5190   12.6575  -19.2787 C   0  0  0  0  0  0  0  0  0  0  0  0
  -22.2006   12.2770  -20.5635 C   0  0  0  0  0  0  0  0  0  0  0  0
  -21.1162   11.5375  -20.8703 N   0  0  0  0  0  0  0  0  0  0  0  0
  -17.9816   10.9603  -20.6187 C   0  0  0  0  0  0  0  0  0  0  0  0
  -17.7629   12.1527  -20.7963 O   0  0  0  0  0  0  0  0  0  0  0  0
  -19.1543   10.3966  -20.1651 N   0  0  0  0  0  0  0  0  0  0  0  0
  -19.1398    9.4167  -19.8985 H   0  0  0  0  0  0  0  0  0  0  0  0
  -15.5377   10.5520  -21.0432 C   0  0  0  0  0  0  0  0  0  0  0  0
  -16.9070    9.9145  -20.8728 C   0  0  0  0  0  0  0  0  0  0  0  0
 40 41  1  0  0  0
 41 36  1  0  0  0
 36 37  2  0  0  0
 36 38  1  0  0  0
 38 30  1  0  0  0
 38 39  1  0  0  0
 30 31  1  0  0  0
 30 35  2  0  0  0
 31 32  2  0  0  0
 32 29  1  0  0  0
 32 33  1  0  0  0
 29 22  1  0  0  0
 22 23  1  0  0  0
 22 27  2  0  0  0
 23 24  2  0  0  0
 24 25  1  0  0  0
 25  1  1  0  0  0
 25 26  2  0  0  0
  1  3  1  0  0  0
  1  2  1  0  0  0
  3  4  1  0  0  0
  3 13  2  0  0  0
  4  5  2  0  0  0
  5  6  1  0  0  0
  6  7  2  0  0  0
  7  8  1  0  0  0
  7 13  1  0  0  0
  8  9  1  0  0  0
  8 14  1  0  0  0
  9 10  2  0  0  0
 10 15  1  0  0  0
 10 11  1  0  0  0
 15 16  1  0  0  0
 15 21  2  0  0  0
 16 17  2  0  0  0
 17 18  1  0  0  0
 18 19  1  0  0  0
 18 20  2  0  0  0
 20 21  1  0  0  0
 11 12  2  0  0  0
 11 13  1  0  0  0
 26 27  1  0  0  0
 27 28  1  0  0  0
 33 34  2  0  0  0
 34 35  1  0  0  0
M  END
> <minimizedAffinity>
-4.56332

$$$$
