CHEMBL4786463


 50 56  0  0  0  0  0  0  0  0999 V2000
  -28.9281   -3.2589   -3.9862 C   0  0  0  0  0  0  0  0  0  0  0  0
  -30.3087   -3.3483   -4.1819 C   0  0  0  0  0  0  0  0  0  0  0  0
  -30.9165   -4.5959   -4.3510 C   0  0  0  0  0  0  0  0  0  0  0  0
  -30.1561   -5.7722   -4.3891 C   0  0  0  0  0  0  0  0  0  0  0  0
  -28.7735   -5.6702   -4.1930 C   0  0  0  0  0  0  0  0  0  0  0  0
  -28.1710   -4.4274   -4.0001 C   0  0  0  0  0  0  0  0  0  0  0  0
  -26.8391   -4.3689   -3.8409 F   0  0  0  0  0  0  0  0  0  0  0  0
  -30.8049   -6.9918   -4.6598 N   0  0  0  0  0  0  0  0  0  0  0  0
  -31.7239   -7.0820   -4.2187 H   0  0  0  0  0  0  0  0  0  0  0  0
  -30.7300   -7.7806   -5.8304 C   0  0  0  0  0  0  0  0  0  0  0  0
  -31.6102   -7.5445   -6.8362 N   0  0  0  0  0  0  0  0  0  0  0  0
  -31.5095   -8.2476   -7.9807 C   0  0  0  0  0  0  0  0  0  0  0  0
  -30.5511   -9.2131   -8.2013 C   0  0  0  0  0  0  0  0  0  0  0  0
  -29.6494   -9.4837   -7.1781 C   0  0  0  0  0  0  0  0  0  0  0  0
  -28.6277  -10.4255   -7.3664 N   0  0  0  0  0  0  0  0  0  0  0  0
  -27.7657  -10.7385   -6.3522 C   0  0  0  0  0  0  0  0  0  0  0  0
  -27.7662  -10.1646   -5.1396 C   0  0  0  0  0  0  0  0  0  0  0  0
  -28.8056   -9.1201   -4.8692 C   0  0  0  0  0  0  0  0  0  0  0  0
  -28.9274   -8.6158   -3.7548 O   0  0  0  0  0  0  0  0  0  0  0  0
  -29.7359   -8.7582   -5.9756 C   0  0  0  0  0  0  0  0  0  0  0  0
  -28.6700  -11.0451   -8.1689 H   0  0  0  0  0  0  0  0  0  0  0  0
  -26.8394  -10.6331   -4.1053 C   0  0  0  0  0  0  0  0  0  0  0  0
  -25.6092   -9.9934   -3.8947 C   0  0  0  0  0  0  0  0  0  0  0  0
  -24.7231  -10.4779   -2.9289 C   0  0  0  0  0  0  0  0  0  0  0  0
  -25.0686  -11.5969   -2.1791 C   0  0  0  0  0  0  0  0  0  0  0  0
  -24.2157  -12.0643   -1.2579 F   0  0  0  0  0  0  0  0  0  0  0  0
  -26.2832  -12.2426   -2.3769 C   0  0  0  0  0  0  0  0  0  0  0  0
  -27.1718  -11.7605   -3.3399 C   0  0  0  0  0  0  0  0  0  0  0  0
  -28.2455   -2.0700   -3.8551 O   0  0  0  0  0  0  0  0  0  0  0  0
  -27.7888   -3.2909   -7.9403 C   0  0  0  0  0  0  0  0  0  0  0  0
  -27.8410   -2.9291   -6.5821 C   0  0  0  0  0  0  0  0  0  0  0  0
  -28.1382   -1.5957   -6.1892 C   0  0  0  0  0  0  0  0  0  0  0  0
  -28.3486   -1.1426   -4.8837 C   0  0  0  0  0  0  0  0  0  0  0  0
  -28.6586    0.1307   -4.5607 N   0  0  0  0  0  0  0  0  0  0  0  0
  -28.8021    0.9667   -5.5866 C   0  0  0  0  0  0  0  0  0  0  0  0
  -28.6139    0.6587   -6.8720 N   0  0  0  0  0  0  0  0  0  0  0  0
  -28.2890   -0.6078   -7.1532 C   0  0  0  0  0  0  0  0  0  0  0  0
  -28.1352   -0.9567   -8.4798 C   0  0  0  0  0  0  0  0  0  0  0  0
  -27.9459   -2.2839   -8.9133 C   0  0  0  0  0  0  0  0  0  0  0  0
  -28.5250   -5.5802   -7.8737 C   0  0  0  0  0  0  0  0  0  0  0  0
  -27.6347   -4.5827   -8.3758 O   0  0  0  0  0  0  0  0  0  0  0  0
  -27.9510   -2.6199  -10.2685 O   0  0  0  0  0  0  0  0  0  0  0  0
  -26.7619   -2.1850  -10.9546 C   0  0  0  0  0  0  0  0  0  0  0  0
  -26.9416   -1.1401  -12.0717 C   0  0  0  0  0  0  0  0  0  0  0  0
  -26.5659   -1.6327  -13.4718 C   0  0  0  0  0  0  0  0  0  0  0  0
  -25.0717   -1.9463  -13.6033 C   0  0  0  0  0  0  0  0  0  0  0  0
  -24.2036   -0.8304  -13.1977 N   0  0  0  0  0  0  0  0  0  0  0  0
  -22.8014   -1.2662  -13.2011 C   0  0  0  0  0  0  0  0  0  0  0  0
  -24.5495   -0.2526  -11.8948 C   0  0  0  0  0  0  0  0  0  0  0  0
  -26.0426    0.0770  -11.7634 C   0  0  0  0  0  0  0  0  0  0  0  0
 40 41  1  0  0  0
 41 30  1  0  0  0
 30 31  1  0  0  0
 30 39  2  0  0  0
 31 32  2  0  0  0
 32 33  1  0  0  0
 32 37  1  0  0  0
 33 29  1  0  0  0
 33 34  2  0  0  0
 29  1  1  0  0  0
  1  2  1  0  0  0
  1  6  2  0  0  0
  2  3  2  0  0  0
  3  4  1  0  0  0
  4  8  1  0  0  0
  4  5  2  0  0  0
  8 10  1  0  0  0
  8  9  1  0  0  0
 10 11  1  0  0  0
 10 20  2  0  0  0
 11 12  2  0  0  0
 12 13  1  0  0  0
 13 14  2  0  0  0
 14 15  1  0  0  0
 14 20  1  0  0  0
 15 16  1  0  0  0
 15 21  1  0  0  0
 16 17  2  0  0  0
 17 22  1  0  0  0
 17 18  1  0  0  0
 22 23  1  0  0  0
 22 28  2  0  0  0
 23 24  2  0  0  0
 24 25  1  0  0  0
 25 26  1  0  0  0
 25 27  2  0  0  0
 27 28  1  0  0  0
 18 19  2  0  0  0
 18 20  1  0  0  0
  5  6  1  0  0  0
  6  7  1  0  0  0
 34 35  1  0  0  0
 35 36  2  0  0  0
 36 37  1  0  0  0
 37 38  2  0  0  0
 38 39  1  0  0  0
 39 42  1  0  0  0
 42 43  1  0  0  0
 43 44  1  0  0  0
 44 45  1  0  0  0
 44 50  1  0  0  0
 45 46  1  0  0  0
 46 47  1  0  0  0
 47 48  1  0  0  0
 47 49  1  0  0  0
 49 50  1  0  0  0
M  END
> <minimizedAffinity>
-9.79879

$$$$
