CHEMBL373826


 29 31  0  0  0  0  0  0  0  0999 V2000
  -30.2926   -9.3213   -7.5721 C   0  0  0  0  0  0  0  0  0  0  0  0
  -31.3718   -9.9036   -8.2267 C   0  0  0  0  0  0  0  0  0  0  0  0
  -31.2567  -11.0740   -8.9766 N   0  0  0  0  0  0  0  0  0  0  0  0
  -32.6362   -9.4663   -8.0846 N   0  0  0  0  0  0  0  0  0  0  0  0
  -32.8145   -8.4098   -7.2836 C   0  0  0  0  0  0  0  0  0  0  0  0
  -31.8586   -7.7742   -6.6071 N   0  0  0  0  0  0  0  0  0  0  0  0
  -30.6039   -8.2638   -6.7367 C   0  0  0  0  0  0  0  0  0  0  0  0
  -30.4239  -11.0622   -9.5653 H   0  0  0  0  0  0  0  0  0  0  0  0
  -32.1254  -11.2504   -9.4752 H   0  0  0  0  0  0  0  0  0  0  0  0
  -28.0886   -9.1029   -8.5283 N   0  0  0  0  0  0  0  0  0  0  0  0
  -28.9105   -9.7842   -7.7897 C   0  0  0  0  0  0  0  0  0  0  0  0
  -26.8426   -9.7432   -8.5862 O   0  0  0  0  0  0  0  0  0  0  0  0
  -26.8629  -10.6617   -9.6878 C   0  0  0  0  0  0  0  0  0  0  0  0
  -27.2438   -9.9040  -10.9553 C   0  0  0  0  0  0  0  0  0  0  0  0
  -28.6780  -10.0707  -13.0211 C   0  0  0  0  0  0  0  0  0  0  0  0
  -28.5738  -10.3856  -11.5360 C   0  0  0  0  0  0  0  0  0  0  0  0
  -29.5884   -7.6448   -6.0085 O   0  0  0  0  0  0  0  0  0  0  0  0
  -29.3323   -6.3083   -6.2695 C   0  0  0  0  0  0  0  0  0  0  0  0
  -28.9129   -5.8545   -7.5251 C   0  0  0  0  0  0  0  0  0  0  0  0
  -28.6663   -4.4995   -7.7704 C   0  0  0  0  0  0  0  0  0  0  0  0
  -28.9386   -3.5957   -6.7374 C   0  0  0  0  0  0  0  0  0  0  0  0
  -28.8482   -2.2235   -6.7186 N   0  0  0  0  0  0  0  0  0  0  0  0
  -29.4108   -1.7299   -5.5679 C   0  0  0  0  0  0  0  0  0  0  0  0
  -29.6969   -0.2839   -5.3944 C   0  0  0  0  0  0  0  0  0  0  0  0
  -29.6563   -2.8091   -4.7412 C   0  0  0  0  0  0  0  0  0  0  0  0
  -29.4129   -3.9996   -5.4887 C   0  0  0  0  0  0  0  0  0  0  0  0
  -29.5918   -5.3803   -5.2501 C   0  0  0  0  0  0  0  0  0  0  0  0
  -30.0508   -5.8041   -4.0598 F   0  0  0  0  0  0  0  0  0  0  0  0
  -28.5199   -1.6624   -7.4936 H   0  0  0  0  0  0  0  0  0  0  0  0
 15 16  1  0  0  0
 16 14  1  0  0  0
 14 13  1  0  0  0
 13 12  1  0  0  0
 12 10  1  0  0  0
 10 11  2  0  0  0
 11  1  1  0  0  0
  1  2  1  0  0  0
  1  7  2  0  0  0
  2  3  1  0  0  0
  2  4  2  0  0  0
  3  8  1  0  0  0
  3  9  1  0  0  0
  4  5  1  0  0  0
  5  6  2  0  0  0
  6  7  1  0  0  0
  7 17  1  0  0  0
 17 18  1  0  0  0
 18 19  1  0  0  0
 18 27  2  0  0  0
 19 20  2  0  0  0
 20 21  1  0  0  0
 21 22  1  0  0  0
 21 26  2  0  0  0
 22 23  1  0  0  0
 22 29  1  0  0  0
 23 24  1  0  0  0
 23 25  2  0  0  0
 25 26  1  0  0  0
 26 27  1  0  0  0
 27 28  1  0  0  0
M  END
> <minimizedAffinity>
-7.84372

$$$$
