CHEMBL75232


 26 29  0  0  0  0  0  0  0  0999 V2000
  -16.4686    1.6639  -15.2909 C   0  0  0  0  0  0  0  0  0  0  0  0
  -16.7286    1.2653  -14.0475 N   0  0  0  0  0  0  0  0  0  0  0  0
  -16.2178    0.1661  -13.5025 N   0  0  0  0  0  0  0  0  0  0  0  0
  -15.1538   -0.3986  -14.0682 C   0  0  0  0  0  0  0  0  0  0  0  0
  -14.6476    0.0710  -15.2869 C   0  0  0  0  0  0  0  0  0  0  0  0
  -13.5137   -0.5162  -15.8834 C   0  0  0  0  0  0  0  0  0  0  0  0
  -12.9615    0.0043  -17.0464 C   0  0  0  0  0  0  0  0  0  0  0  0
  -13.5537    1.1057  -17.6517 C   0  0  0  0  0  0  0  0  0  0  0  0
  -14.7285    1.6646  -17.1224 C   0  0  0  0  0  0  0  0  0  0  0  0
  -15.3053    1.1698  -15.9236 C   0  0  0  0  0  0  0  0  0  0  0  0
  -17.5352    2.3990  -15.8897 N   0  0  0  0  0  0  0  0  0  0  0  0
  -17.5642    2.2301  -16.9028 H   0  0  0  0  0  0  0  0  0  0  0  0
  -23.8110    1.5312  -13.3987 Cl  0  0  0  0  0  0  0  0  0  0  0  0
  -22.1995    1.7036  -13.9733 C   0  0  0  0  0  0  0  0  0  0  0  0
  -21.5287    3.3598  -14.1040 C   0  0  0  0  0  0  0  0  0  0  0  0
  -19.9112    3.5989  -14.8203 C   0  0  0  0  0  0  0  0  0  0  0  0
  -18.8837    2.1973  -15.3602 C   0  0  0  0  0  0  0  0  0  0  0  0
  -19.6185    0.5244  -15.3107 C   0  0  0  0  0  0  0  0  0  0  0  0
  -21.2951    0.3040  -14.6442 C   0  0  0  0  0  0  0  0  0  0  0  0
  -14.4224   -1.2562  -13.0704 C   0  0  0  0  0  0  0  0  0  0  0  0
  -15.3458   -2.3847  -12.6565 C   0  0  0  0  0  0  0  0  0  0  0  0
  -15.5991   -2.6449  -11.2970 C   0  0  0  0  0  0  0  0  0  0  0  0
  -16.2161   -3.8328  -10.9499 C   0  0  0  0  0  0  0  0  0  0  0  0
  -16.6265   -4.7466  -11.8523 N   0  0  0  0  0  0  0  0  0  0  0  0
  -16.4053   -4.4578  -13.1531 C   0  0  0  0  0  0  0  0  0  0  0  0
  -15.7877   -3.3042  -13.6026 C   0  0  0  0  0  0  0  0  0  0  0  0
 13 14  1  0  0  0
 14 15  1  0  0  0
 14 19  2  0  0  0
 15 16  2  0  0  0
 16 17  1  0  0  0
 17 11  1  0  0  0
 17 18  2  0  0  0
 11  1  1  0  0  0
 11 12  1  0  0  0
  1  2  1  0  0  0
  1 10  2  0  0  0
  2  3  2  0  0  0
  3  4  1  0  0  0
  4 20  1  0  0  0
  4  5  2  0  0  0
 20 21  1  0  0  0
 21 22  1  0  0  0
 21 26  2  0  0  0
 22 23  2  0  0  0
 23 24  1  0  0  0
 24 25  2  0  0  0
 25 26  1  0  0  0
  5  6  1  0  0  0
  5 10  1  0  0  0
  6  7  2  0  0  0
  7  8  1  0  0  0
  8  9  2  0  0  0
  9 10  1  0  0  0
 18 19  1  0  0  0
M  END
> <minimizedAffinity>
-8.15786

$$$$
