CHEMBL3979490


 34 38  0  0  0  0  0  0  0  0999 V2000
  -28.1552  -10.0635   -5.3705 N   0  0  0  0  0  0  0  0  0  0  0  0
  -28.7470   -8.7428   -5.4090 C   0  0  0  0  0  0  0  0  0  0  0  0
  -30.0147   -8.6930   -6.0028 C   0  0  0  0  0  0  0  0  0  0  0  0
  -30.4654   -7.5438   -6.6034 C   0  0  0  0  0  0  0  0  0  0  0  0
  -29.7696   -6.3644   -6.5169 C   0  0  0  0  0  0  0  0  0  0  0  0
  -30.2474   -5.3941   -7.3050 N   0  0  0  0  0  0  0  0  0  0  0  0
  -29.7098   -4.1784   -7.1536 C   0  0  0  0  0  0  0  0  0  0  0  0
  -28.7822   -3.9130   -6.1706 C   0  0  0  0  0  0  0  0  0  0  0  0
  -28.2054   -4.9237   -5.4334 N   0  0  0  0  0  0  0  0  0  0  0  0
  -28.6594   -6.2294   -5.6542 C   0  0  0  0  0  0  0  0  0  0  0  0
  -28.1266   -7.4887   -5.1433 C   0  0  0  0  0  0  0  0  0  0  0  0
  -28.5832   -2.4971   -5.8580 C   0  0  0  0  0  0  0  0  0  0  0  0
  -27.4653   -1.8634   -5.2542 C   0  0  0  0  0  0  0  0  0  0  0  0
  -27.7157   -0.5998   -4.8866 N   0  0  0  0  0  0  0  0  0  0  0  0
  -28.9964   -0.4191   -5.2503 N   0  0  0  0  0  0  0  0  0  0  0  0
  -29.5614    0.9093   -5.3043 C   0  0  0  0  0  0  0  0  0  0  0  0
  -29.6004   -1.5750   -5.6685 C   0  0  0  0  0  0  0  0  0  0  0  0
  -24.4514  -10.1727   -4.8699 C   0  0  0  0  0  0  0  0  0  0  0  0
  -24.3549  -10.8550   -3.6593 C   0  0  0  0  0  0  0  0  0  0  0  0
  -25.5070  -11.3509   -3.0431 C   0  0  0  0  0  0  0  0  0  0  0  0
  -26.7566  -11.1541   -3.6553 C   0  0  0  0  0  0  0  0  0  0  0  0
  -26.8965  -10.4762   -4.8707 C   0  0  0  0  0  0  0  0  0  0  0  0
  -25.7107  -10.0207   -5.4822 C   0  0  0  0  0  0  0  0  0  0  0  0
  -22.6326  -10.4011   -6.4124 C   0  0  0  0  0  0  0  0  0  0  0  0
  -23.3942   -9.5842   -5.5183 O   0  0  0  0  0  0  0  0  0  0  0  0
  -25.5603  -12.0062   -1.8465 O   0  0  0  0  0  0  0  0  0  0  0  0
  -24.3226  -12.3204   -1.2210 C   0  0  0  0  0  0  0  0  0  0  0  0
  -28.6387  -10.8026   -6.6063 C   0  0  0  0  0  0  0  0  0  0  0  0
  -28.0618  -10.6585   -8.0000 C   0  0  0  0  0  0  0  0  0  0  0  0
  -28.0461   -9.5977   -8.9425 C   0  0  0  0  0  0  0  0  0  0  0  0
  -27.4335  -10.1360  -10.0563 C   0  0  0  0  0  0  0  0  0  0  0  0
  -27.1763   -9.6906  -11.4451 C   0  0  0  0  0  0  0  0  0  0  0  0
  -27.0177  -11.3942   -9.7673 O   0  0  0  0  0  0  0  0  0  0  0  0
  -27.3950  -11.7203   -8.4870 N   0  0  0  0  0  0  0  0  0  0  0  0
 24 25  1  0  0  0
 25 18  1  0  0  0
 18 19  1  0  0  0
 18 23  2  0  0  0
 19 20  2  0  0  0
 20 26  1  0  0  0
 20 21  1  0  0  0
 26 27  1  0  0  0
 21 22  2  0  0  0
 22  1  1  0  0  0
 22 23  1  0  0  0
  1 28  1  0  0  0
  1  2  1  0  0  0
 28 29  1  0  0  0
 29 30  1  0  0  0
 29 34  2  0  0  0
 30 31  2  0  0  0
 31 32  1  0  0  0
 31 33  1  0  0  0
 33 34  1  0  0  0
  2  3  1  0  0  0
  2 11  2  0  0  0
  3  4  2  0  0  0
  4  5  1  0  0  0
  5  6  1  0  0  0
  5 10  2  0  0  0
  6  7  2  0  0  0
  7  8  1  0  0  0
  8 12  1  0  0  0
  8  9  2  0  0  0
 12 13  1  0  0  0
 12 17  2  0  0  0
 13 14  2  0  0  0
 14 15  1  0  0  0
 15 16  1  0  0  0
 15 17  1  0  0  0
  9 10  1  0  0  0
 10 11  1  0  0  0
M  END
> <minimizedAffinity>
-7.85215

$$$$
