CHEMBL3962736


 37 41  0  0  0  0  0  0  0  0999 V2000
  -15.6956    2.4592  -15.9702 N   0  0  0  0  0  0  0  0  0  0  0  0
  -17.0732    2.4329  -15.5016 C   0  0  0  0  0  0  0  0  0  0  0  0
  -17.5479    1.1730  -15.1922 C   0  0  0  0  0  0  0  0  0  0  0  0
  -18.8386    1.0735  -14.8278 C   0  0  0  0  0  0  0  0  0  0  0  0
  -19.7168    2.0954  -14.7323 C   0  0  0  0  0  0  0  0  0  0  0  0
  -20.7841    1.6231  -15.2282 N   0  0  0  0  0  0  0  0  0  0  0  0
  -21.5025    0.9483  -14.4314 C   0  0  0  0  0  0  0  0  0  0  0  0
  -22.3613    1.8081  -14.0302 C   0  0  0  0  0  0  0  0  0  0  0  0
  -21.4585    3.2509  -14.0747 N   0  0  0  0  0  0  0  0  0  0  0  0
  -19.8204    3.3658  -14.5518 C   0  0  0  0  0  0  0  0  0  0  0  0
  -18.2467    3.5222  -15.3471 C   0  0  0  0  0  0  0  0  0  0  0  0
  -23.6600    0.6023  -13.5364 C   0  0  0  0  0  0  0  0  0  0  0  0
  -24.0760   -0.9313  -13.9792 C   0  0  0  0  0  0  0  0  0  0  0  0
  -24.8169   -1.6790  -13.0972 N   0  0  0  0  0  0  0  0  0  0  0  0
  -24.9002   -0.9369  -11.9859 N   0  0  0  0  0  0  0  0  0  0  0  0
  -25.5945   -1.4646  -10.7506 C   0  0  0  0  0  0  0  0  0  0  0  0
  -24.1684    0.3220  -12.2350 C   0  0  0  0  0  0  0  0  0  0  0  0
  -13.2445    5.3222  -16.5148 C   0  0  0  0  0  0  0  0  0  0  0  0
  -13.6405    5.7015  -17.7467 C   0  0  0  0  0  0  0  0  0  0  0  0
  -14.7227    5.1131  -18.3774 C   0  0  0  0  0  0  0  0  0  0  0  0
  -15.4347    4.1111  -17.7431 C   0  0  0  0  0  0  0  0  0  0  0  0
  -15.0338    3.5738  -16.5322 C   0  0  0  0  0  0  0  0  0  0  0  0
  -13.9947    4.3229  -15.9098 C   0  0  0  0  0  0  0  0  0  0  0  0
  -11.8069    5.0209  -14.7130 C   0  0  0  0  0  0  0  0  0  0  0  0
  -12.1683    5.8183  -15.8406 O   0  0  0  0  0  0  0  0  0  0  0  0
  -15.1157    5.4695  -19.6340 O   0  0  0  0  0  0  0  0  0  0  0  0
  -14.9003    6.8467  -19.9448 C   0  0  0  0  0  0  0  0  0  0  0  0
  -15.1618    1.0556  -16.3288 C   0  0  0  0  0  0  0  0  0  0  0  0
  -13.9964    0.5681  -15.4807 C   0  0  0  0  0  0  0  0  0  0  0  0
  -13.9823    0.9363  -14.0225 C   0  0  0  0  0  0  0  0  0  0  0  0
  -14.1264   -0.2706  -13.1822 N   0  0  0  0  0  0  0  0  0  0  0  0
  -13.7230   -1.4948  -13.8984 C   0  0  0  0  0  0  0  0  0  0  0  0
  -14.6834   -2.6008  -13.4554 C   0  0  0  0  0  0  0  0  0  0  0  0
  -15.6269   -1.9372  -12.4634 C   0  0  0  0  0  0  0  0  0  0  0  0
  -15.1847   -2.1930  -11.1274 O   0  0  0  0  0  0  0  0  0  0  0  0
  -15.5439   -0.4562  -12.7939 C   0  0  0  0  0  0  0  0  0  0  0  0
  -14.2864   -1.8214  -11.0513 H   0  0  0  0  0  0  0  0  0  0  0  0
 24 25  1  0  0  0
 25 18  1  0  0  0
 18 19  1  0  0  0
 18 23  2  0  0  0
 19 20  2  0  0  0
 20 26  1  0  0  0
 20 21  1  0  0  0
 26 27  1  0  0  0
 21 22  2  0  0  0
 22  1  1  0  0  0
 22 23  1  0  0  0
  1 28  1  0  0  0
  1  2  1  0  0  0
 28 29  1  0  0  0
 29 30  1  0  0  0
 30 31  1  0  0  0
 31 32  1  0  0  0
 31 36  1  0  0  0
 32 33  1  0  0  0
 33 34  1  0  0  0
 34 35  1  0  0  0
 34 36  1  0  0  0
 35 37  1  0  0  0
  2  3  1  0  0  0
  2 11  2  0  0  0
  3  4  2  0  0  0
  4  5  1  0  0  0
  5  6  1  0  0  0
  5 10  2  0  0  0
  6  7  2  0  0  0
  7  8  1  0  0  0
  8 12  1  0  0  0
  8  9  2  0  0  0
 12 13  1  0  0  0
 12 17  2  0  0  0
 13 14  2  0  0  0
 14 15  1  0  0  0
 15 16  1  0  0  0
 15 17  1  0  0  0
  9 10  1  0  0  0
 10 11  1  0  0  0
M  END
> <minimizedAffinity>
-9.56772

$$$$
