CHEMBL231270


 42 46  0  0  0  0  0  0  0  0999 V2000
  -23.9139   -1.2238  -13.0307 C   0  0  0  0  0  0  0  0  0  0  0  0
  -24.9342   -1.4104  -13.9719 C   0  0  0  0  0  0  0  0  0  0  0  0
  -26.2566   -1.6435  -13.5788 C   0  0  0  0  0  0  0  0  0  0  0  0
  -26.4852   -1.7492  -12.2087 C   0  0  0  0  0  0  0  0  0  0  0  0
  -27.6226   -1.9742  -11.4783 N   0  0  0  0  0  0  0  0  0  0  0  0
  -27.2923   -1.9943  -10.1472 C   0  0  0  0  0  0  0  0  0  0  0  0
  -26.0050   -1.7764   -9.9883 N   0  0  0  0  0  0  0  0  0  0  0  0
  -25.4850   -1.6330  -11.2519 C   0  0  0  0  0  0  0  0  0  0  0  0
  -24.1674   -1.3820  -11.6606 C   0  0  0  0  0  0  0  0  0  0  0  0
  -28.5533   -2.0677  -11.8510 H   0  0  0  0  0  0  0  0  0  0  0  0
  -28.2532   -2.2341   -9.2294 N   0  0  0  0  0  0  0  0  0  0  0  0
  -29.1877   -2.4987   -9.5160 H   0  0  0  0  0  0  0  0  0  0  0  0
  -28.1602   -1.9607   -7.8485 C   0  0  0  0  0  0  0  0  0  0  0  0
  -27.8607   -2.9470   -6.9009 C   0  0  0  0  0  0  0  0  0  0  0  0
  -27.7318   -2.6300   -5.5455 C   0  0  0  0  0  0  0  0  0  0  0  0
  -28.0220   -1.3416   -5.1061 C   0  0  0  0  0  0  0  0  0  0  0  0
  -28.3566   -0.3399   -6.0245 C   0  0  0  0  0  0  0  0  0  0  0  0
  -28.4134   -0.6599   -7.3928 C   0  0  0  0  0  0  0  0  0  0  0  0
  -28.6179    1.0706   -5.5693 C   0  0  0  0  0  0  0  0  0  0  0  0
  -29.8673    1.2645   -5.0631 F   0  0  0  0  0  0  0  0  0  0  0  0
  -27.7556    1.4601   -4.5882 F   0  0  0  0  0  0  0  0  0  0  0  0
  -28.4742    1.9807   -6.5717 F   0  0  0  0  0  0  0  0  0  0  0  0
  -27.3054   -3.4963   -4.5723 O   0  0  0  0  0  0  0  0  0  0  0  0
  -28.3133   -4.4081   -4.1163 C   0  0  0  0  0  0  0  0  0  0  0  0
  -27.9509   -5.8356   -4.5554 C   0  0  0  0  0  0  0  0  0  0  0  0
  -29.0962   -6.5775   -5.1192 N   0  0  0  0  0  0  0  0  0  0  0  0
  -28.7275   -7.4419   -6.2522 C   0  0  0  0  0  0  0  0  0  0  0  0
  -28.8516   -6.5518   -7.4693 C   0  0  0  0  0  0  0  0  0  0  0  0
  -30.1132   -5.7747   -7.1612 C   0  0  0  0  0  0  0  0  0  0  0  0
  -30.1227   -5.6514   -5.6400 C   0  0  0  0  0  0  0  0  0  0  0  0
  -22.6089   -0.9169  -13.3717 O   0  0  0  0  0  0  0  0  0  0  0  0
  -20.8867    2.1102  -14.5511 C   0  0  0  0  0  0  0  0  0  0  0  0
  -21.1116    0.7565  -14.3434 C   0  0  0  0  0  0  0  0  0  0  0  0
  -22.2934    0.3788  -13.7208 C   0  0  0  0  0  0  0  0  0  0  0  0
  -23.2594    1.3444  -13.4420 C   0  0  0  0  0  0  0  0  0  0  0  0
  -22.9630    2.6678  -13.7281 C   0  0  0  0  0  0  0  0  0  0  0  0
  -21.7926    3.0852  -14.2525 N   0  0  0  0  0  0  0  0  0  0  0  0
  -17.2681    1.8383  -15.6113 C   0  0  0  0  0  0  0  0  0  0  0  0
  -18.5979    1.5667  -15.1378 N   0  0  0  0  0  0  0  0  0  0  0  0
  -19.5563    2.5532  -15.0771 C   0  0  0  0  0  0  0  0  0  0  0  0
  -19.3657    3.7098  -15.4391 O   0  0  0  0  0  0  0  0  0  0  0  0
  -18.8684    0.6385  -14.8247 H   0  0  0  0  0  0  0  0  0  0  0  0
 38 39  1  0  0  0
 39 40  1  0  0  0
 39 42  1  0  0  0
 40 41  2  0  0  0
 40 32  1  0  0  0
 32 33  1  0  0  0
 32 37  2  0  0  0
 33 34  2  0  0  0
 34 31  1  0  0  0
 34 35  1  0  0  0
 31  1  1  0  0  0
  1  2  1  0  0  0
  1  9  2  0  0  0
  2  3  2  0  0  0
  3  4  1  0  0  0
  4  5  1  0  0  0
  4  8  2  0  0  0
  5  6  1  0  0  0
  5 10  1  0  0  0
  6 11  1  0  0  0
  6  7  2  0  0  0
 11 13  1  0  0  0
 11 12  1  0  0  0
 13 14  1  0  0  0
 13 18  2  0  0  0
 14 15  2  0  0  0
 15 23  1  0  0  0
 15 16  1  0  0  0
 23 24  1  0  0  0
 24 25  1  0  0  0
 25 26  1  0  0  0
 26 27  1  0  0  0
 26 30  1  0  0  0
 27 28  1  0  0  0
 28 29  1  0  0  0
 29 30  1  0  0  0
 16 17  2  0  0  0
 17 19  1  0  0  0
 17 18  1  0  0  0
 19 20  1  0  0  0
 19 21  1  0  0  0
 19 22  1  0  0  0
  7  8  1  0  0  0
  8  9  1  0  0  0
 35 36  2  0  0  0
 36 37  1  0  0  0
M  END
> <minimizedAffinity>
-11.57502

$$$$
