CHEMBL264803


 49 53  0  0  0  0  0  0  0  0999 V2000
  -30.1495  -10.6069   -7.3783 C   0  0  0  0  0  0  0  0  0  0  0  0
  -31.0146  -11.6652   -7.5627 C   0  0  0  0  0  0  0  0  0  0  0  0
  -32.3343  -11.3967   -7.3479 C   0  0  0  0  0  0  0  0  0  0  0  0
  -32.7845  -10.1682   -7.0628 N   0  0  0  0  0  0  0  0  0  0  0  0
  -31.8884   -9.1796   -6.9057 C   0  0  0  0  0  0  0  0  0  0  0  0
  -30.5670   -9.3729   -7.0028 N   0  0  0  0  0  0  0  0  0  0  0  0
  -28.7664  -10.8332   -7.5870 N   0  0  0  0  0  0  0  0  0  0  0  0
  -27.9671  -11.0854   -6.4767 C   0  0  0  0  0  0  0  0  0  0  0  0
  -28.3321  -11.7246   -5.4901 O   0  0  0  0  0  0  0  0  0  0  0  0
  -27.2244   -9.8614  -11.4524 C   0  0  0  0  0  0  0  0  0  0  0  0
  -27.5384  -11.1767  -11.1374 C   0  0  0  0  0  0  0  0  0  0  0  0
  -28.0172  -11.5002   -9.8535 C   0  0  0  0  0  0  0  0  0  0  0  0
  -28.2273  -10.5034   -8.8798 C   0  0  0  0  0  0  0  0  0  0  0  0
  -27.8999   -9.1748   -9.2041 C   0  0  0  0  0  0  0  0  0  0  0  0
  -27.3945   -8.8764  -10.4768 C   0  0  0  0  0  0  0  0  0  0  0  0
  -27.6143   -9.3670  -13.7558 C   0  0  0  0  0  0  0  0  0  0  0  0
  -26.7423   -9.3806  -12.6364 O   0  0  0  0  0  0  0  0  0  0  0  0
  -28.0139   -8.2422   -8.2012 O   0  0  0  0  0  0  0  0  0  0  0  0
  -27.6529   -6.9043   -8.5323 C   0  0  0  0  0  0  0  0  0  0  0  0
  -26.7258  -10.4504   -6.5603 O   0  0  0  0  0  0  0  0  0  0  0  0
  -25.6019  -10.7853   -5.7507 C   0  0  0  0  0  0  0  0  0  0  0  0
  -25.3931  -10.2526   -4.4608 C   0  0  0  0  0  0  0  0  0  0  0  0
  -26.3892   -9.5039   -3.6156 C   0  0  0  0  0  0  0  0  0  0  0  0
  -24.1108  -10.3885   -3.8919 C   0  0  0  0  0  0  0  0  0  0  0  0
  -23.0816  -11.0460   -4.5596 C   0  0  0  0  0  0  0  0  0  0  0  0
  -23.3201  -11.6169   -5.8048 C   0  0  0  0  0  0  0  0  0  0  0  0
  -24.5766  -11.4931   -6.4186 C   0  0  0  0  0  0  0  0  0  0  0  0
  -24.8067  -12.1437   -7.7531 C   0  0  0  0  0  0  0  0  0  0  0  0
  -32.3661   -7.8905   -6.6541 N   0  0  0  0  0  0  0  0  0  0  0  0
  -33.3299   -7.7698   -6.9168 H   0  0  0  0  0  0  0  0  0  0  0  0
  -31.6547   -6.8050   -6.1133 C   0  0  0  0  0  0  0  0  0  0  0  0
  -30.7092   -6.1096   -6.8698 C   0  0  0  0  0  0  0  0  0  0  0  0
  -29.8860   -5.1233   -6.2895 C   0  0  0  0  0  0  0  0  0  0  0  0
  -30.0333   -4.8077   -4.9181 C   0  0  0  0  0  0  0  0  0  0  0  0
  -30.9714   -5.5206   -4.1499 C   0  0  0  0  0  0  0  0  0  0  0  0
  -31.7833   -6.4756   -4.7601 C   0  0  0  0  0  0  0  0  0  0  0  0
  -28.8744   -4.5156   -6.9892 O   0  0  0  0  0  0  0  0  0  0  0  0
  -29.2162   -3.5964   -8.0180 C   0  0  0  0  0  0  0  0  0  0  0  0
  -31.0546   -5.2327   -2.8037 O   0  0  0  0  0  0  0  0  0  0  0  0
  -32.3220   -5.4810   -2.1977 C   0  0  0  0  0  0  0  0  0  0  0  0
  -29.3253   -3.8786   -4.1947 O   0  0  0  0  0  0  0  0  0  0  0  0
  -29.9517   -2.6609   -3.8107 C   0  0  0  0  0  0  0  0  0  0  0  0
  -29.8065   -1.6398   -4.9472 C   0  0  0  0  0  0  0  0  0  0  0  0
  -28.7007   -0.6932   -4.7028 N   0  0  0  0  0  0  0  0  0  0  0  0
  -29.0913    0.7204   -4.8938 C   0  0  0  0  0  0  0  0  0  0  0  0
  -29.2729    1.1210   -6.3660 C   0  0  0  0  0  0  0  0  0  0  0  0
  -28.0938    0.8395   -7.1310 O   0  0  0  0  0  0  0  0  0  0  0  0
  -27.7463   -0.5484   -7.0348 C   0  0  0  0  0  0  0  0  0  0  0  0
  -27.5407   -0.9754   -5.5732 C   0  0  0  0  0  0  0  0  0  0  0  0
 16 17  1  0  0  0
 17 10  1  0  0  0
 10 11  1  0  0  0
 10 15  2  0  0  0
 11 12  2  0  0  0
 12 13  1  0  0  0
 13  7  1  0  0  0
 13 14  2  0  0  0
  7  8  1  0  0  0
  7  1  1  0  0  0
  8  9  2  0  0  0
  8 20  1  0  0  0
 20 21  1  0  0  0
 21 22  1  0  0  0
 21 27  2  0  0  0
 22 23  1  0  0  0
 22 24  2  0  0  0
 24 25  1  0  0  0
 25 26  2  0  0  0
 26 27  1  0  0  0
 27 28  1  0  0  0
  1  2  1  0  0  0
  1  6  2  0  0  0
  2  3  2  0  0  0
  3  4  1  0  0  0
  4  5  2  0  0  0
  5 29  1  0  0  0
  5  6  1  0  0  0
 29 31  1  0  0  0
 29 30  1  0  0  0
 31 32  1  0  0  0
 31 36  2  0  0  0
 32 33  2  0  0  0
 33 37  1  0  0  0
 33 34  1  0  0  0
 37 38  1  0  0  0
 34 41  1  0  0  0
 34 35  2  0  0  0
 41 42  1  0  0  0
 42 43  1  0  0  0
 43 44  1  0  0  0
 44 45  1  0  0  0
 44 49  1  0  0  0
 45 46  1  0  0  0
 46 47  1  0  0  0
 47 48  1  0  0  0
 48 49  1  0  0  0
 35 39  1  0  0  0
 35 36  1  0  0  0
 39 40  1  0  0  0
 14 18  1  0  0  0
 14 15  1  0  0  0
 18 19  1  0  0  0
M  END
> <minimizedAffinity>
-6.63272

$$$$
