CHEMBL3690521


 36 39  0  0  0  0  0  0  0  0999 V2000
  -30.2885   -7.6059   -6.7517 C   0  0  0  0  0  0  0  0  0  0  0  0
  -29.3640   -6.6942   -7.4498 C   0  0  0  0  0  0  0  0  0  0  0  0
  -29.0512   -5.4981   -6.9282 C   0  0  0  0  0  0  0  0  0  0  0  0
  -29.6350   -5.0878   -5.7301 N   0  0  0  0  0  0  0  0  0  0  0  0
  -29.5454   -3.8809   -5.0286 C   0  0  0  0  0  0  0  0  0  0  0  0
  -30.2749   -4.1270   -3.8744 C   0  0  0  0  0  0  0  0  0  0  0  0
  -30.8467   -5.3732   -3.8698 N   0  0  0  0  0  0  0  0  0  0  0  0
  -30.4840   -5.9266   -5.0064 C   0  0  0  0  0  0  0  0  0  0  0  0
  -30.8070   -7.2058   -5.5641 C   0  0  0  0  0  0  0  0  0  0  0  0
  -30.1496  -10.7005   -8.7922 C   0  0  0  0  0  0  0  0  0  0  0  0
  -29.7772   -9.5216   -8.2224 N   0  0  0  0  0  0  0  0  0  0  0  0
  -30.6085   -8.9532   -7.3194 C   0  0  0  0  0  0  0  0  0  0  0  0
  -31.7732   -9.4940   -6.9095 N   0  0  0  0  0  0  0  0  0  0  0  0
  -32.1126  -10.6654   -7.4703 C   0  0  0  0  0  0  0  0  0  0  0  0
  -31.3498  -11.2989   -8.4179 C   0  0  0  0  0  0  0  0  0  0  0  0
  -31.7780  -12.4654   -8.9226 F   0  0  0  0  0  0  0  0  0  0  0  0
  -28.9444  -10.5431  -10.9274 C   0  0  0  0  0  0  0  0  0  0  0  0
  -29.2965  -11.2970   -9.7308 N   0  0  0  0  0  0  0  0  0  0  0  0
  -28.3300  -12.2610   -9.2259 C   0  0  0  0  0  0  0  0  0  0  0  0
  -28.8835   -2.6374   -5.4747 C   0  0  0  0  0  0  0  0  0  0  0  0
  -28.2348   -1.8105   -4.5492 C   0  0  0  0  0  0  0  0  0  0  0  0
  -27.6193   -0.6290   -4.9451 C   0  0  0  0  0  0  0  0  0  0  0  0
  -27.5692   -0.2913   -6.2919 C   0  0  0  0  0  0  0  0  0  0  0  0
  -28.1245   -1.1222   -7.2648 C   0  0  0  0  0  0  0  0  0  0  0  0
  -28.8090   -2.2832   -6.8439 C   0  0  0  0  0  0  0  0  0  0  0  0
  -28.0113   -0.8480   -8.6508 N   0  0  0  0  0  0  0  0  0  0  0  0
  -27.3920   -1.6533   -9.5932 C   0  0  0  0  0  0  0  0  0  0  0  0
  -26.8393   -2.7295   -9.4016 O   0  0  0  0  0  0  0  0  0  0  0  0
  -27.3993   -1.0980  -10.8544 N   0  0  0  0  0  0  0  0  0  0  0  0
  -28.4398   -0.0006   -8.9873 H   0  0  0  0  0  0  0  0  0  0  0  0
  -28.1997   -0.5347  -11.0914 H   0  0  0  0  0  0  0  0  0  0  0  0
  -26.7680   -1.8588  -11.9475 C   0  0  0  0  0  0  0  0  0  0  0  0
  -25.3988   -1.3538  -12.4272 C   0  0  0  0  0  0  0  0  0  0  0  0
  -25.1048   -0.1296  -11.9305 F   0  0  0  0  0  0  0  0  0  0  0  0
  -24.4242   -2.1926  -11.9919 F   0  0  0  0  0  0  0  0  0  0  0  0
  -25.3060   -1.2995  -13.7707 F   0  0  0  0  0  0  0  0  0  0  0  0
 17 18  1  0  0  0
 18 19  1  0  0  0
 18 10  1  0  0  0
 10 11  1  0  0  0
 10 15  2  0  0  0
 11 12  2  0  0  0
 12  1  1  0  0  0
 12 13  1  0  0  0
  1  2  1  0  0  0
  1  9  2  0  0  0
  2  3  2  0  0  0
  3  4  1  0  0  0
  4  5  1  0  0  0
  4  8  1  0  0  0
  5 20  1  0  0  0
  5  6  2  0  0  0
 20 21  1  0  0  0
 20 25  2  0  0  0
 21 22  2  0  0  0
 22 23  1  0  0  0
 23 24  2  0  0  0
 24 26  1  0  0  0
 24 25  1  0  0  0
 26 27  1  0  0  0
 26 30  1  0  0  0
 27 28  2  0  0  0
 27 29  1  0  0  0
 29 32  1  0  0  0
 29 31  1  0  0  0
 32 33  1  0  0  0
 33 34  1  0  0  0
 33 35  1  0  0  0
 33 36  1  0  0  0
  6  7  1  0  0  0
  7  8  2  0  0  0
  8  9  1  0  0  0
 13 14  2  0  0  0
 14 15  1  0  0  0
 15 16  1  0  0  0
M  END
> <minimizedAffinity>
-9.49899

$$$$
