CHEMBL3694710


 37 40  0  0  0  0  0  0  0  0999 V2000
  -27.3852   -2.1210   -9.0709 C   0  0  0  0  0  0  0  0  0  0  0  0
  -27.8410   -3.4740   -8.7699 C   0  0  0  0  0  0  0  0  0  0  0  0
  -28.5497   -3.7034   -7.6544 C   0  0  0  0  0  0  0  0  0  0  0  0
  -28.8611   -2.6434   -6.7987 N   0  0  0  0  0  0  0  0  0  0  0  0
  -29.6110   -2.5980   -5.6279 C   0  0  0  0  0  0  0  0  0  0  0  0
  -29.5095   -1.2714   -5.2248 C   0  0  0  0  0  0  0  0  0  0  0  0
  -28.7679   -0.5145   -6.0846 N   0  0  0  0  0  0  0  0  0  0  0  0
  -28.3990   -1.3461   -7.0306 C   0  0  0  0  0  0  0  0  0  0  0  0
  -27.6375   -1.1109   -8.2100 C   0  0  0  0  0  0  0  0  0  0  0  0
  -25.2482   -1.2117  -12.6823 C   0  0  0  0  0  0  0  0  0  0  0  0
  -26.5964   -1.6127  -12.7191 C   0  0  0  0  0  0  0  0  0  0  0  0
  -27.3002   -1.8990  -11.5469 C   0  0  0  0  0  0  0  0  0  0  0  0
  -26.6649   -1.7989  -10.3090 C   0  0  0  0  0  0  0  0  0  0  0  0
  -25.3318   -1.3835  -10.2506 C   0  0  0  0  0  0  0  0  0  0  0  0
  -24.6329   -1.0922  -11.4243 C   0  0  0  0  0  0  0  0  0  0  0  0
  -23.8718    0.4744  -13.9526 C   0  0  0  0  0  0  0  0  0  0  0  0
  -24.4809   -0.9327  -13.9721 C   0  0  0  0  0  0  0  0  0  0  0  0
  -25.3895   -1.1169  -15.1948 C   0  0  0  0  0  0  0  0  0  0  0  0
  -23.3944   -1.8585  -14.1078 O   0  0  0  0  0  0  0  0  0  0  0  0
  -22.9359   -1.6560  -14.9400 H   0  0  0  0  0  0  0  0  0  0  0  0
  -30.3137   -3.7025   -4.9565 C   0  0  0  0  0  0  0  0  0  0  0  0
  -31.1303   -3.3980   -3.8567 C   0  0  0  0  0  0  0  0  0  0  0  0
  -31.8334   -4.3947   -3.1927 C   0  0  0  0  0  0  0  0  0  0  0  0
  -31.7468   -5.7107   -3.6263 C   0  0  0  0  0  0  0  0  0  0  0  0
  -30.9874   -6.0538   -4.7483 C   0  0  0  0  0  0  0  0  0  0  0  0
  -30.2621   -5.0397   -5.3979 C   0  0  0  0  0  0  0  0  0  0  0  0
  -30.9358   -7.3776   -5.2689 N   0  0  0  0  0  0  0  0  0  0  0  0
  -30.9951   -7.7074   -6.5953 C   0  0  0  0  0  0  0  0  0  0  0  0
  -31.0991   -6.9438   -7.5485 O   0  0  0  0  0  0  0  0  0  0  0  0
  -30.9811   -9.0667   -6.8278 N   0  0  0  0  0  0  0  0  0  0  0  0
  -30.7978   -8.1232   -4.6036 H   0  0  0  0  0  0  0  0  0  0  0  0
  -30.5177   -9.6616   -6.1538 H   0  0  0  0  0  0  0  0  0  0  0  0
  -31.0176   -9.5210   -8.2295 C   0  0  0  0  0  0  0  0  0  0  0  0
  -29.6631   -9.7888   -8.9051 C   0  0  0  0  0  0  0  0  0  0  0  0
  -29.7940  -10.4396  -10.0833 F   0  0  0  0  0  0  0  0  0  0  0  0
  -29.0475   -8.6096   -9.1765 F   0  0  0  0  0  0  0  0  0  0  0  0
  -28.8278  -10.5014   -8.1204 F   0  0  0  0  0  0  0  0  0  0  0  0
 16 17  1  0  0  0
 17 18  1  0  0  0
 17 19  1  0  0  0
 17 10  1  0  0  0
 19 20  1  0  0  0
 10 11  1  0  0  0
 10 15  2  0  0  0
 11 12  2  0  0  0
 12 13  1  0  0  0
 13  1  1  0  0  0
 13 14  2  0  0  0
  1  2  1  0  0  0
  1  9  2  0  0  0
  2  3  2  0  0  0
  3  4  1  0  0  0
  4  5  1  0  0  0
  4  8  1  0  0  0
  5 21  1  0  0  0
  5  6  2  0  0  0
 21 22  1  0  0  0
 21 26  2  0  0  0
 22 23  2  0  0  0
 23 24  1  0  0  0
 24 25  2  0  0  0
 25 27  1  0  0  0
 25 26  1  0  0  0
 27 28  1  0  0  0
 27 31  1  0  0  0
 28 29  2  0  0  0
 28 30  1  0  0  0
 30 33  1  0  0  0
 30 32  1  0  0  0
 33 34  1  0  0  0
 34 35  1  0  0  0
 34 36  1  0  0  0
 34 37  1  0  0  0
  6  7  1  0  0  0
  7  8  2  0  0  0
  8  9  1  0  0  0
 14 15  1  0  0  0
M  END
> <minimizedAffinity>
-9.86051

$$$$
