CHEMBL3656090


 44 47  0  0  0  0  0  0  0  0999 V2000
  -12.6862   -4.4543  -11.6457 O   0  0  0  0  0  0  0  0  0  0  0  0
  -12.8627   -7.9467  -13.9260 C   0  0  0  0  0  0  0  0  0  0  0  0
  -11.6935   -7.1827  -13.8555 C   0  0  0  0  0  0  0  0  0  0  0  0
  -11.6690   -6.0116  -13.0903 C   0  0  0  0  0  0  0  0  0  0  0  0
  -12.8051   -5.6099  -12.3821 C   0  0  0  0  0  0  0  0  0  0  0  0
  -13.9502   -6.4080  -12.3972 C   0  0  0  0  0  0  0  0  0  0  0  0
  -13.9853   -7.5377  -13.2068 C   0  0  0  0  0  0  0  0  0  0  0  0
  -15.1052   -8.2761  -13.2491 F   0  0  0  0  0  0  0  0  0  0  0  0
  -13.3944  -10.3630  -16.5745 N   0  0  0  0  0  0  0  0  0  0  0  0
  -13.3983   -9.1101  -15.9840 C   0  0  0  0  0  0  0  0  0  0  0  0
  -13.6940   -8.0546  -16.5302 O   0  0  0  0  0  0  0  0  0  0  0  0
  -12.9313   -9.1516  -14.6753 N   0  0  0  0  0  0  0  0  0  0  0  0
  -13.0083  -11.1186  -16.0294 H   0  0  0  0  0  0  0  0  0  0  0  0
  -12.1331   -9.7605  -14.5483 H   0  0  0  0  0  0  0  0  0  0  0  0
  -12.5944   -9.4354  -21.3748 C   0  0  0  0  0  0  0  0  0  0  0  0
  -13.3499  -10.1598  -20.2980 C   0  0  0  0  0  0  0  0  0  0  0  0
  -14.3952  -11.0201  -20.6462 C   0  0  0  0  0  0  0  0  0  0  0  0
  -15.0774  -11.7192  -19.6589 C   0  0  0  0  0  0  0  0  0  0  0  0
  -14.7362  -11.5540  -18.3194 C   0  0  0  0  0  0  0  0  0  0  0  0
  -15.3563  -12.3650  -17.4554 F   0  0  0  0  0  0  0  0  0  0  0  0
  -13.7379  -10.6516  -17.9245 C   0  0  0  0  0  0  0  0  0  0  0  0
  -13.0266   -9.9815  -18.9365 C   0  0  0  0  0  0  0  0  0  0  0  0
  -13.7627   -3.6044  -11.5225 C   0  0  0  0  0  0  0  0  0  0  0  0
  -14.7097   -3.6577  -10.5057 C   0  0  0  0  0  0  0  0  0  0  0  0
  -15.7287   -2.7213  -10.5157 C   0  0  0  0  0  0  0  0  0  0  0  0
  -15.8941   -1.7941  -11.4864 N   0  0  0  0  0  0  0  0  0  0  0  0
  -14.9928   -1.8031  -12.4966 C   0  0  0  0  0  0  0  0  0  0  0  0
  -13.9171   -2.6782  -12.5480 C   0  0  0  0  0  0  0  0  0  0  0  0
  -15.2489   -0.8254  -13.5488 C   0  0  0  0  0  0  0  0  0  0  0  0
  -16.2372    0.1337  -13.6873 C   0  0  0  0  0  0  0  0  0  0  0  0
  -16.0436    0.8305  -14.9189 C   0  0  0  0  0  0  0  0  0  0  0  0
  -14.9053    0.2767  -15.4799 C   0  0  0  0  0  0  0  0  0  0  0  0
  -14.4369   -0.7083  -14.6544 N   0  0  0  0  0  0  0  0  0  0  0  0
  -13.6192   -1.2867  -14.8088 H   0  0  0  0  0  0  0  0  0  0  0  0
  -16.8379    1.9020  -15.5221 C   0  0  0  0  0  0  0  0  0  0  0  0
  -16.3497    2.7573  -16.2545 O   0  0  0  0  0  0  0  0  0  0  0  0
  -18.1845    1.8645  -15.2230 N   0  0  0  0  0  0  0  0  0  0  0  0
  -18.5395    1.1419  -14.6158 H   0  0  0  0  0  0  0  0  0  0  0  0
  -19.1185    2.8477  -15.7366 C   0  0  0  0  0  0  0  0  0  0  0  0
  -19.8321    3.5870  -14.6132 C   0  0  0  0  0  0  0  0  0  0  0  0
  -21.0693    2.8341  -14.2021 C   0  0  0  0  0  0  0  0  0  0  0  0
  -21.1186    1.6266  -14.0251 O   0  0  0  0  0  0  0  0  0  0  0  0
  -22.1635    3.6219  -14.1034 O   0  0  0  0  0  0  0  0  0  0  0  0
  -21.9924    4.5690  -14.2671 H   0  0  0  0  0  0  0  0  0  0  0  0
 15 16  1  0  0  0
 16 17  1  0  0  0
 16 22  2  0  0  0
 17 18  2  0  0  0
 18 19  1  0  0  0
 19 20  1  0  0  0
 19 21  2  0  0  0
 21  9  1  0  0  0
 21 22  1  0  0  0
  9 10  1  0  0  0
  9 13  1  0  0  0
 10 11  2  0  0  0
 10 12  1  0  0  0
 12  2  1  0  0  0
 12 14  1  0  0  0
  2  3  1  0  0  0
  2  7  2  0  0  0
  3  4  2  0  0  0
  4  5  1  0  0  0
  5  1  1  0  0  0
  5  6  2  0  0  0
  1 23  1  0  0  0
 23 24  1  0  0  0
 23 28  2  0  0  0
 24 25  2  0  0  0
 25 26  1  0  0  0
 26 27  2  0  0  0
 27 29  1  0  0  0
 27 28  1  0  0  0
 29 30  2  0  0  0
 29 33  1  0  0  0
 30 31  1  0  0  0
 31 35  1  0  0  0
 31 32  2  0  0  0
 35 36  2  0  0  0
 35 37  1  0  0  0
 37 39  1  0  0  0
 37 38  1  0  0  0
 39 40  1  0  0  0
 40 41  1  0  0  0
 41 42  2  0  0  0
 41 43  1  0  0  0
 43 44  1  0  0  0
 32 33  1  0  0  0
 33 34  1  0  0  0
  6  7  1  0  0  0
  7  8  1  0  0  0
M  END
> <minimizedAffinity>
-8.56361

$$$$
