CHEMBL3950023


 41 44  0  0  0  0  0  0  0  0999 V2000
  -19.4929    1.9255  -14.9412 C   0  0  0  0  0  0  0  0  0  0  0  0
  -19.8822    0.5971  -15.1309 C   0  0  0  0  0  0  0  0  0  0  0  0
  -21.1344    0.1414  -14.7113 C   0  0  0  0  0  0  0  0  0  0  0  0
  -22.0358    0.9994  -14.0884 C   0  0  0  0  0  0  0  0  0  0  0  0
  -21.6573    2.3353  -13.8984 C   0  0  0  0  0  0  0  0  0  0  0  0
  -20.3974    2.7952  -14.3209 C   0  0  0  0  0  0  0  0  0  0  0  0
  -14.6669    2.2936  -16.5351 C   0  0  0  0  0  0  0  0  0  0  0  0
  -14.0321    3.3882  -17.0192 N   0  0  0  0  0  0  0  0  0  0  0  0
  -14.7081    4.5546  -17.0836 C   0  0  0  0  0  0  0  0  0  0  0  0
  -15.9748    4.8061  -16.7104 N   0  0  0  0  0  0  0  0  0  0  0  0
  -16.5620    3.7021  -16.2279 C   0  0  0  0  0  0  0  0  0  0  0  0
  -17.8571    3.6331  -15.7913 N   0  0  0  0  0  0  0  0  0  0  0  0
  -18.1646    2.3498  -15.3895 C   0  0  0  0  0  0  0  0  0  0  0  0
  -17.0055    1.6036  -15.5693 C   0  0  0  0  0  0  0  0  0  0  0  0
  -15.9948    2.4471  -16.1020 C   0  0  0  0  0  0  0  0  0  0  0  0
  -18.4942    4.4140  -15.8217 H   0  0  0  0  0  0  0  0  0  0  0  0
  -14.0259    1.0463  -16.4819 N   0  0  0  0  0  0  0  0  0  0  0  0
  -14.7594    0.3446  -16.5622 H   0  0  0  0  0  0  0  0  0  0  0  0
  -11.9024    0.1460  -15.5818 C   0  0  0  0  0  0  0  0  0  0  0  0
  -13.2524    0.7967  -15.2550 C   0  0  0  0  0  0  0  0  0  0  0  0
  -14.0242   -0.1301  -14.3191 C   0  0  0  0  0  0  0  0  0  0  0  0
  -13.9644   -1.5205  -14.5205 C   0  0  0  0  0  0  0  0  0  0  0  0
  -14.7107   -2.3949  -13.7282 C   0  0  0  0  0  0  0  0  0  0  0  0
  -15.5274   -1.8948  -12.7170 C   0  0  0  0  0  0  0  0  0  0  0  0
  -15.6055   -0.5180  -12.5060 C   0  0  0  0  0  0  0  0  0  0  0  0
  -14.8637    0.3580  -13.3040 C   0  0  0  0  0  0  0  0  0  0  0  0
  -23.3163    0.5924  -13.6462 N   0  0  0  0  0  0  0  0  0  0  0  0
  -23.5879   -0.3639  -12.6787 C   0  0  0  0  0  0  0  0  0  0  0  0
  -22.7668   -1.0046  -12.0297 O   0  0  0  0  0  0  0  0  0  0  0  0
  -24.1041    1.0685  -14.0685 H   0  0  0  0  0  0  0  0  0  0  0  0
  -25.0640   -0.6490  -12.5019 C   0  0  0  0  0  0  0  0  0  0  0  0
  -25.2512   -1.4779  -11.2359 C   0  0  0  0  0  0  0  0  0  0  0  0
  -26.4585   -2.3108  -11.3220 N   0  0  0  0  0  0  0  0  0  0  0  0
  -26.2853   -3.2066  -10.8613 H   0  0  0  0  0  0  0  0  0  0  0  0
  -27.5759   -1.6330  -10.6235 C   0  0  0  0  0  0  0  0  0  0  0  0
  -27.6374   -2.0512   -9.1568 C   0  0  0  0  0  0  0  0  0  0  0  0
  -27.2103   -1.3525   -8.2389 O   0  0  0  0  0  0  0  0  0  0  0  0
  -28.2553   -3.2523   -8.9337 N   0  0  0  0  0  0  0  0  0  0  0  0
  -28.3248   -3.7157   -7.6047 O   0  0  0  0  0  0  0  0  0  0  0  0
  -28.5659   -3.8593   -9.6875 H   0  0  0  0  0  0  0  0  0  0  0  0
  -27.9127   -2.9772   -7.1051 H   0  0  0  0  0  0  0  0  0  0  0  0
 19 20  1  0  0  0
 20 17  1  0  0  0
 20 21  1  0  0  0
 17  7  1  0  0  0
 17 18  1  0  0  0
  7  8  1  0  0  0
  7 15  2  0  0  0
  8  9  2  0  0  0
  9 10  1  0  0  0
 10 11  2  0  0  0
 11 12  1  0  0  0
 11 15  1  0  0  0
 12 13  1  0  0  0
 12 16  1  0  0  0
 13  1  1  0  0  0
 13 14  2  0  0  0
  1  2  1  0  0  0
  1  6  2  0  0  0
  2  3  2  0  0  0
  3  4  1  0  0  0
  4 27  1  0  0  0
  4  5  2  0  0  0
 27 28  1  0  0  0
 27 30  1  0  0  0
 28 29  2  0  0  0
 28 31  1  0  0  0
 31 32  1  0  0  0
 32 33  1  0  0  0
 33 35  1  0  0  0
 33 34  1  0  0  0
 35 36  1  0  0  0
 36 37  2  0  0  0
 36 38  1  0  0  0
 38 39  1  0  0  0
 38 40  1  0  0  0
 39 41  1  0  0  0
  5  6  1  0  0  0
 14 15  1  0  0  0
 21 22  1  0  0  0
 21 26  2  0  0  0
 22 23  2  0  0  0
 23 24  1  0  0  0
 24 25  2  0  0  0
 25 26  1  0  0  0
M  END
> <minimizedAffinity>
-9.30082

$$$$
