CHEMBL3964305


 35 39  0  0  0  0  0  0  0  0999 V2000
  -20.4450    0.8819  -15.1579 C   0  0  0  0  0  0  0  0  0  0  0  0
  -20.5002    2.2588  -15.3814 C   0  0  0  0  0  0  0  0  0  0  0  0
  -19.3468    2.9833  -15.7078 C   0  0  0  0  0  0  0  0  0  0  0  0
  -18.1078    2.3414  -15.8128 C   0  0  0  0  0  0  0  0  0  0  0  0
  -18.0341    0.9726  -15.5027 C   0  0  0  0  0  0  0  0  0  0  0  0
  -19.1886    0.2580  -15.1683 C   0  0  0  0  0  0  0  0  0  0  0  0
  -16.9022    3.1049  -16.3512 C   0  0  0  0  0  0  0  0  0  0  0  0
  -16.5880    4.3615  -15.5300 C   0  0  0  0  0  0  0  0  0  0  0  0
  -15.1616    4.7754  -15.5871 N   0  0  0  0  0  0  0  0  0  0  0  0
  -14.3597    3.8067  -15.2831 C   0  0  0  0  0  0  0  0  0  0  0  0
  -13.0189    4.0302  -14.7343 C   0  0  0  0  0  0  0  0  0  0  0  0
  -12.1615    5.0450  -15.1400 C   0  0  0  0  0  0  0  0  0  0  0  0
  -10.9678    5.2263  -14.4380 C   0  0  0  0  0  0  0  0  0  0  0  0
  -10.6966    4.4623  -13.2945 C   0  0  0  0  0  0  0  0  0  0  0  0
  -11.5512    3.4253  -12.9170 C   0  0  0  0  0  0  0  0  0  0  0  0
  -12.6636    3.1600  -13.7039 C   0  0  0  0  0  0  0  0  0  0  0  0
  -13.3470    1.9409  -13.5844 N   0  0  0  0  0  0  0  0  0  0  0  0
  -14.1271    1.4865  -14.6295 C   0  0  0  0  0  0  0  0  0  0  0  0
  -14.2523    0.2826  -14.8333 O   0  0  0  0  0  0  0  0  0  0  0  0
  -14.7408    2.4817  -15.3665 N   0  0  0  0  0  0  0  0  0  0  0  0
  -15.6789    2.1818  -16.4287 C   0  0  0  0  0  0  0  0  0  0  0  0
  -12.9866    1.2284  -12.9652 H   0  0  0  0  0  0  0  0  0  0  0  0
  -22.0382    0.4867  -12.7495 O   0  0  0  0  0  0  0  0  0  0  0  0
  -22.3222   -0.0580  -13.8059 C   0  0  0  0  0  0  0  0  0  0  0  0
  -21.5851    0.0658  -14.9770 N   0  0  0  0  0  0  0  0  0  0  0  0
  -23.4408   -0.8608  -14.0151 N   0  0  0  0  0  0  0  0  0  0  0  0
  -22.0180   -0.2613  -15.8201 H   0  0  0  0  0  0  0  0  0  0  0  0
  -23.4681   -1.3704  -14.8823 H   0  0  0  0  0  0  0  0  0  0  0  0
  -24.4944   -1.0962  -13.1050 C   0  0  0  0  0  0  0  0  0  0  0  0
  -24.3860   -0.9176  -11.7200 C   0  0  0  0  0  0  0  0  0  0  0  0
  -25.4654   -1.1694  -10.8767 C   0  0  0  0  0  0  0  0  0  0  0  0
  -26.6766   -1.5939  -11.4036 C   0  0  0  0  0  0  0  0  0  0  0  0
  -26.7992   -1.7663  -12.7811 C   0  0  0  0  0  0  0  0  0  0  0  0
  -28.4504   -2.3399  -13.5063 Br  0  0  0  0  0  0  0  0  0  0  0  0
  -25.7176   -1.5197  -13.6313 C   0  0  0  0  0  0  0  0  0  0  0  0
 23 24  2  0  0  0
 24 25  1  0  0  0
 24 26  1  0  0  0
 25  1  1  0  0  0
 25 27  1  0  0  0
  1  2  1  0  0  0
  1  6  2  0  0  0
  2  3  2  0  0  0
  3  4  1  0  0  0
  4  7  1  0  0  0
  4  5  2  0  0  0
  7  8  1  0  0  0
  7 21  1  0  0  0
  8  9  1  0  0  0
  9 10  2  0  0  0
 10 11  1  0  0  0
 10 20  1  0  0  0
 11 12  1  0  0  0
 11 16  2  0  0  0
 12 13  2  0  0  0
 13 14  1  0  0  0
 14 15  2  0  0  0
 15 16  1  0  0  0
 16 17  1  0  0  0
 17 18  1  0  0  0
 17 22  1  0  0  0
 18 19  2  0  0  0
 18 20  1  0  0  0
 20 21  1  0  0  0
  5  6  1  0  0  0
 26 29  1  0  0  0
 26 28  1  0  0  0
 29 30  1  0  0  0
 29 35  2  0  0  0
 30 31  2  0  0  0
 31 32  1  0  0  0
 32 33  2  0  0  0
 33 34  1  0  0  0
 33 35  1  0  0  0
M  END
> <minimizedAffinity>
-10.23833

$$$$
