CHEMBL3956493


 35 38  0  0  0  0  0  0  0  0999 V2000
  -27.7609   -2.1546   -8.6178 N   0  0  0  0  0  0  0  0  0  0  0  0
  -27.2514   -1.5921   -9.8470 C   0  0  0  0  0  0  0  0  0  0  0  0
  -27.9841   -1.9512  -10.9681 C   0  0  0  0  0  0  0  0  0  0  0  0
  -27.4163   -1.9154  -12.2199 C   0  0  0  0  0  0  0  0  0  0  0  0
  -26.1695   -1.4054  -12.4527 C   0  0  0  0  0  0  0  0  0  0  0  0
  -25.8125   -1.6353  -13.7102 N   0  0  0  0  0  0  0  0  0  0  0  0
  -24.6746   -1.0908  -14.1291 C   0  0  0  0  0  0  0  0  0  0  0  0
  -23.9001   -0.2688  -13.3428 C   0  0  0  0  0  0  0  0  0  0  0  0
  -24.2189   -0.0911  -11.9941 N   0  0  0  0  0  0  0  0  0  0  0  0
  -25.4054   -0.7316  -11.4717 C   0  0  0  0  0  0  0  0  0  0  0  0
  -26.0088   -0.8876  -10.1064 C   0  0  0  0  0  0  0  0  0  0  0  0
  -22.7859    0.3528  -14.1023 C   0  0  0  0  0  0  0  0  0  0  0  0
  -21.5275   -0.2031  -14.5041 C   0  0  0  0  0  0  0  0  0  0  0  0
  -20.5814    0.7183  -14.7516 N   0  0  0  0  0  0  0  0  0  0  0  0
  -21.1888    1.8798  -14.4634 N   0  0  0  0  0  0  0  0  0  0  0  0
  -20.5295    3.1465  -14.7024 C   0  0  0  0  0  0  0  0  0  0  0  0
  -22.4462    1.6982  -13.9483 C   0  0  0  0  0  0  0  0  0  0  0  0
  -28.7568    0.2244   -5.8609 C   0  0  0  0  0  0  0  0  0  0  0  0
  -28.4927   -0.5574   -4.7360 C   0  0  0  0  0  0  0  0  0  0  0  0
  -27.9732   -1.8380   -4.8887 C   0  0  0  0  0  0  0  0  0  0  0  0
  -27.7111   -2.3336   -6.1710 C   0  0  0  0  0  0  0  0  0  0  0  0
  -27.9274   -1.5768   -7.3348 C   0  0  0  0  0  0  0  0  0  0  0  0
  -28.4596   -0.2819   -7.1508 C   0  0  0  0  0  0  0  0  0  0  0  0
  -30.7084    1.5846   -6.1554 C   0  0  0  0  0  0  0  0  0  0  0  0
  -29.3245    1.4771   -5.8023 O   0  0  0  0  0  0  0  0  0  0  0  0
  -27.7005   -2.7136   -3.8719 O   0  0  0  0  0  0  0  0  0  0  0  0
  -28.7563   -2.9799   -2.9564 C   0  0  0  0  0  0  0  0  0  0  0  0
  -27.7750   -3.6895   -8.6781 C   0  0  0  0  0  0  0  0  0  0  0  0
  -29.0080   -4.3923   -8.0602 C   0  0  0  0  0  0  0  0  0  0  0  0
  -28.6859   -5.7998   -7.5804 C   0  0  0  0  0  0  0  0  0  0  0  0
  -28.1571   -6.6352   -8.3196 O   0  0  0  0  0  0  0  0  0  0  0  0
  -28.9722   -6.0685   -6.2329 N   0  0  0  0  0  0  0  0  0  0  0  0
  -29.9685   -5.4281   -5.3933 C   0  0  0  0  0  0  0  0  0  0  0  0
  -28.8911   -7.4445   -5.8902 O   0  0  0  0  0  0  0  0  0  0  0  0
  -27.9774   -7.6112   -4.7986 C   0  0  0  0  0  0  0  0  0  0  0  0
 24 25  1  0  0  0
 25 18  1  0  0  0
 18 19  1  0  0  0
 18 23  2  0  0  0
 19 20  2  0  0  0
 20 26  1  0  0  0
 20 21  1  0  0  0
 26 27  1  0  0  0
 21 22  2  0  0  0
 22  1  1  0  0  0
 22 23  1  0  0  0
  1 28  1  0  0  0
  1  2  1  0  0  0
 28 29  1  0  0  0
 29 30  1  0  0  0
 30 31  2  0  0  0
 30 32  1  0  0  0
 32 33  1  0  0  0
 32 34  1  0  0  0
 34 35  1  0  0  0
  2  3  1  0  0  0
  2 11  2  0  0  0
  3  4  2  0  0  0
  4  5  1  0  0  0
  5  6  1  0  0  0
  5 10  2  0  0  0
  6  7  2  0  0  0
  7  8  1  0  0  0
  8 12  1  0  0  0
  8  9  2  0  0  0
 12 13  1  0  0  0
 12 17  2  0  0  0
 13 14  2  0  0  0
 14 15  1  0  0  0
 15 16  1  0  0  0
 15 17  1  0  0  0
  9 10  1  0  0  0
 10 11  1  0  0  0
M  END
> <minimizedAffinity>
-8.45833

$$$$
