CHEMBL3943975


 38 41  0  0  0  0  0  0  0  0999 V2000
  -28.1728   -1.8246   -6.9963 C   0  0  0  0  0  0  0  0  0  0  0  0
  -28.0677   -0.5128   -6.5313 C   0  0  0  0  0  0  0  0  0  0  0  0
  -28.7148   -0.1336   -5.3583 C   0  0  0  0  0  0  0  0  0  0  0  0
  -28.5928    1.1271   -4.9209 F   0  0  0  0  0  0  0  0  0  0  0  0
  -29.4744   -1.0374   -4.6268 C   0  0  0  0  0  0  0  0  0  0  0  0
  -29.6092   -2.3419   -5.0938 C   0  0  0  0  0  0  0  0  0  0  0  0
  -28.9987   -2.7166   -6.3016 C   0  0  0  0  0  0  0  0  0  0  0  0
  -28.1259   -0.7948   -9.7024 O   0  0  0  0  0  0  0  0  0  0  0  0
  -27.4600   -1.7737   -9.3842 C   0  0  0  0  0  0  0  0  0  0  0  0
  -27.4620   -2.3299   -8.1147 N   0  0  0  0  0  0  0  0  0  0  0  0
  -26.5955   -2.4434  -10.2396 N   0  0  0  0  0  0  0  0  0  0  0  0
  -26.7276   -2.9910   -7.9090 H   0  0  0  0  0  0  0  0  0  0  0  0
  -26.2272   -3.3258   -9.9175 H   0  0  0  0  0  0  0  0  0  0  0  0
  -26.2753   -2.0636  -11.5657 C   0  0  0  0  0  0  0  0  0  0  0  0
  -27.1655   -2.1632  -12.6325 C   0  0  0  0  0  0  0  0  0  0  0  0
  -26.7833   -1.7906  -13.9238 C   0  0  0  0  0  0  0  0  0  0  0  0
  -25.5016   -1.2971  -14.1716 C   0  0  0  0  0  0  0  0  0  0  0  0
  -25.1488   -0.8906  -15.8103 Cl  0  0  0  0  0  0  0  0  0  0  0  0
  -24.5914   -1.1564  -13.1221 C   0  0  0  0  0  0  0  0  0  0  0  0
  -24.9974   -1.5459  -11.8187 C   0  0  0  0  0  0  0  0  0  0  0  0
  -23.2009   -0.5976  -13.2800 C   0  0  0  0  0  0  0  0  0  0  0  0
  -22.3327   -1.3179  -14.0343 F   0  0  0  0  0  0  0  0  0  0  0  0
  -23.2218    0.6485  -13.8359 F   0  0  0  0  0  0  0  0  0  0  0  0
  -22.5847   -0.4403  -12.0719 F   0  0  0  0  0  0  0  0  0  0  0  0
  -30.4058   -3.1911   -4.3520 O   0  0  0  0  0  0  0  0  0  0  0  0
  -30.1078   -4.5523   -4.3629 C   0  0  0  0  0  0  0  0  0  0  0  0
  -30.9244   -5.3613   -5.1275 C   0  0  0  0  0  0  0  0  0  0  0  0
  -30.6039   -6.7031   -5.1296 C   0  0  0  0  0  0  0  0  0  0  0  0
  -29.5560   -7.1774   -4.4452 N   0  0  0  0  0  0  0  0  0  0  0  0
  -28.8476   -6.3169   -3.7155 C   0  0  0  0  0  0  0  0  0  0  0  0
  -29.0796   -5.0092   -3.6267 N   0  0  0  0  0  0  0  0  0  0  0  0
  -31.4069   -7.5948   -5.8648 N   0  0  0  0  0  0  0  0  0  0  0  0
  -31.1430   -7.9652   -7.1692 C   0  0  0  0  0  0  0  0  0  0  0  0
  -30.2277   -7.5705   -7.8770 O   0  0  0  0  0  0  0  0  0  0  0  0
  -32.1853   -8.0234   -5.3915 H   0  0  0  0  0  0  0  0  0  0  0  0
  -32.0615   -8.9743   -7.7762 C   0  0  0  0  0  0  0  0  0  0  0  0
  -32.7429  -10.1238   -7.0833 C   0  0  0  0  0  0  0  0  0  0  0  0
  -31.5674  -10.3891   -7.9791 C   0  0  0  0  0  0  0  0  0  0  0  0
  8  9  2  0  0  0
  9 10  1  0  0  0
  9 11  1  0  0  0
 10  1  1  0  0  0
 10 12  1  0  0  0
  1  2  1  0  0  0
  1  7  2  0  0  0
  2  3  2  0  0  0
  3  4  1  0  0  0
  3  5  1  0  0  0
  5  6  2  0  0  0
  6 25  1  0  0  0
  6  7  1  0  0  0
 25 26  1  0  0  0
 26 27  1  0  0  0
 26 31  2  0  0  0
 27 28  2  0  0  0
 28 32  1  0  0  0
 28 29  1  0  0  0
 32 33  1  0  0  0
 32 35  1  0  0  0
 33 34  2  0  0  0
 33 36  1  0  0  0
 36 37  1  0  0  0
 36 38  1  0  0  0
 37 38  1  0  0  0
 29 30  2  0  0  0
 30 31  1  0  0  0
 11 14  1  0  0  0
 11 13  1  0  0  0
 14 15  1  0  0  0
 14 20  2  0  0  0
 15 16  2  0  0  0
 16 17  1  0  0  0
 17 18  1  0  0  0
 17 19  2  0  0  0
 19 21  1  0  0  0
 19 20  1  0  0  0
 21 22  1  0  0  0
 21 23  1  0  0  0
 21 24  1  0  0  0
M  END
> <minimizedAffinity>
-11.28817

$$$$
