CHEMBL188648


 32 34  0  0  0  0  0  0  0  0999 V2000
  -30.2382   -9.2159   -6.5907 C   0  0  0  0  0  0  0  0  0  0  0  0
  -29.4754   -8.6031   -5.6043 C   0  0  0  0  0  0  0  0  0  0  0  0
  -29.3219   -7.2382   -5.6120 C   0  0  0  0  0  0  0  0  0  0  0  0
  -28.4345   -6.6841   -4.7731 N   0  0  0  0  0  0  0  0  0  0  0  0
  -28.2056   -5.3511   -4.8583 C   0  0  0  0  0  0  0  0  0  0  0  0
  -27.2098   -4.9645   -3.9768 N   0  0  0  0  0  0  0  0  0  0  0  0
  -28.9126   -4.4744   -5.6933 C   0  0  0  0  0  0  0  0  0  0  0  0
  -29.8731   -5.0955   -6.5203 C   0  0  0  0  0  0  0  0  0  0  0  0
  -30.0292   -6.4913   -6.5425 C   0  0  0  0  0  0  0  0  0  0  0  0
  -30.8391   -7.1714   -7.4481 C   0  0  0  0  0  0  0  0  0  0  0  0
  -30.9326   -8.5183   -7.5042 N   0  0  0  0  0  0  0  0  0  0  0  0
  -26.8391   -5.7855   -3.5163 H   0  0  0  0  0  0  0  0  0  0  0  0
  -26.5172   -4.3399   -4.3523 H   0  0  0  0  0  0  0  0  0  0  0  0
  -28.6994   -2.9813   -5.7705 C   0  0  0  0  0  0  0  0  0  0  0  0
  -28.2248   -2.3386   -6.9531 C   0  0  0  0  0  0  0  0  0  0  0  0
  -27.7366   -3.1823   -8.3975 Cl  0  0  0  0  0  0  0  0  0  0  0  0
  -28.0744   -0.9427   -7.0486 C   0  0  0  0  0  0  0  0  0  0  0  0
  -28.3058   -0.1317   -5.9519 C   0  0  0  0  0  0  0  0  0  0  0  0
  -28.7341   -0.7128   -4.7708 C   0  0  0  0  0  0  0  0  0  0  0  0
  -28.9826   -2.0966   -4.6906 C   0  0  0  0  0  0  0  0  0  0  0  0
  -29.7707   -2.5577   -3.2140 Cl  0  0  0  0  0  0  0  0  0  0  0  0
  -30.2370  -10.6094   -6.6135 N   0  0  0  0  0  0  0  0  0  0  0  0
  -30.1570  -10.9564   -5.6620 H   0  0  0  0  0  0  0  0  0  0  0  0
  -31.3059  -11.2284   -7.3797 C   0  0  0  0  0  0  0  0  0  0  0  0
  -30.6602  -12.0889   -8.4661 C   0  0  0  0  0  0  0  0  0  0  0  0
  -29.1324  -12.1582   -8.3604 C   0  0  0  0  0  0  0  0  0  0  0  0
  -28.4171  -12.2711   -9.7157 C   0  0  0  0  0  0  0  0  0  0  0  0
  -27.9241  -10.9854  -10.2441 N   0  0  0  0  0  0  0  0  0  0  0  0
  -28.7556  -10.1084  -12.4728 C   0  0  0  0  0  0  0  0  0  0  0  0
  -28.9858  -10.2749  -10.9766 C   0  0  0  0  0  0  0  0  0  0  0  0
  -27.2802  -10.1820   -9.1898 C   0  0  0  0  0  0  0  0  0  0  0  0
  -27.6673   -8.7058   -9.1364 C   0  0  0  0  0  0  0  0  0  0  0  0
 29 30  1  0  0  0
 30 28  1  0  0  0
 28 31  1  0  0  0
 28 27  1  0  0  0
 31 32  1  0  0  0
 27 26  1  0  0  0
 26 25  1  0  0  0
 25 24  1  0  0  0
 24 22  1  0  0  0
 22  1  1  0  0  0
 22 23  1  0  0  0
  1  2  1  0  0  0
  1 11  2  0  0  0
  2  3  2  0  0  0
  3  4  1  0  0  0
  3  9  1  0  0  0
  4  5  2  0  0  0
  5  6  1  0  0  0
  5  7  1  0  0  0
  6 12  1  0  0  0
  6 13  1  0  0  0
  7 14  1  0  0  0
  7  8  2  0  0  0
 14 15  1  0  0  0
 14 20  2  0  0  0
 15 16  1  0  0  0
 15 17  2  0  0  0
 17 18  1  0  0  0
 18 19  2  0  0  0
 19 20  1  0  0  0
 20 21  1  0  0  0
  8  9  1  0  0  0
  9 10  2  0  0  0
 10 11  1  0  0  0
M  END
> <minimizedAffinity>
-7.62120

$$$$
