CHEMBL3657545


 34 38  0  0  0  0  0  0  0  0999 V2000
  -19.4021    2.2038  -15.0299 C   0  0  0  0  0  0  0  0  0  0  0  0
  -20.0886    3.3864  -14.8823 C   0  0  0  0  0  0  0  0  0  0  0  0
  -21.4018    3.2546  -14.5100 C   0  0  0  0  0  0  0  0  0  0  0  0
  -21.9999    2.0663  -14.2719 N   0  0  0  0  0  0  0  0  0  0  0  0
  -21.2693    0.9568  -14.4589 C   0  0  0  0  0  0  0  0  0  0  0  0
  -19.9798    0.9906  -14.8350 N   0  0  0  0  0  0  0  0  0  0  0  0
  -15.1722    3.9377  -16.6947 C   0  0  0  0  0  0  0  0  0  0  0  0
  -16.2038    2.9528  -16.2757 C   0  0  0  0  0  0  0  0  0  0  0  0
  -17.4199    3.3652  -15.8933 N   0  0  0  0  0  0  0  0  0  0  0  0
  -18.0382    2.2337  -15.4560 N   0  0  0  0  0  0  0  0  0  0  0  0
  -17.1775    1.1619  -15.4750 C   0  0  0  0  0  0  0  0  0  0  0  0
  -16.0465    1.5446  -16.1729 C   0  0  0  0  0  0  0  0  0  0  0  0
  -14.8446    0.7387  -16.5808 C   0  0  0  0  0  0  0  0  0  0  0  0
  -14.0514    0.2552  -15.4322 N   0  0  0  0  0  0  0  0  0  0  0  0
  -13.2296    1.2913  -14.7680 C   0  0  0  0  0  0  0  0  0  0  0  0
  -12.1029    1.0738  -15.8006 C   0  0  0  0  0  0  0  0  0  0  0  0
  -12.0968    1.9132  -16.9840 O   0  0  0  0  0  0  0  0  0  0  0  0
  -12.7571   -0.3268  -15.9302 C   0  0  0  0  0  0  0  0  0  0  0  0
  -12.6649    2.6716  -16.7627 H   0  0  0  0  0  0  0  0  0  0  0  0
  -21.9264   -0.2548  -14.2175 N   0  0  0  0  0  0  0  0  0  0  0  0
  -21.3083   -1.0185  -14.4547 H   0  0  0  0  0  0  0  0  0  0  0  0
  -23.0414   -0.5668  -13.4260 C   0  0  0  0  0  0  0  0  0  0  0  0
  -22.9352   -0.5292  -12.0254 C   0  0  0  0  0  0  0  0  0  0  0  0
  -23.9966   -0.8933  -11.1673 C   0  0  0  0  0  0  0  0  0  0  0  0
  -25.1954   -1.3176  -11.7571 C   0  0  0  0  0  0  0  0  0  0  0  0
  -25.3417   -1.3464  -13.1442 C   0  0  0  0  0  0  0  0  0  0  0  0
  -24.2597   -0.9864  -13.9738 C   0  0  0  0  0  0  0  0  0  0  0  0
  -26.6809   -1.7213  -13.3433 C   0  0  0  0  0  0  0  0  0  0  0  0
  -27.5578   -1.7166  -14.7738 Cl  0  0  0  0  0  0  0  0  0  0  0  0
  -27.3068   -2.0406  -12.2223 N   0  0  0  0  0  0  0  0  0  0  0  0
  -26.4153   -1.7352  -11.2638 N   0  0  0  0  0  0  0  0  0  0  0  0
  -26.8951   -1.8147   -9.8864 C   0  0  0  0  0  0  0  0  0  0  0  0
  -28.0983   -0.8820   -9.6948 C   0  0  0  0  0  0  0  0  0  0  0  0
  -27.2823   -3.2520   -9.5308 C   0  0  0  0  0  0  0  0  0  0  0  0
  7  8  1  0  0  0
  8  9  2  0  0  0
  8 12  1  0  0  0
  9 10  1  0  0  0
 10  1  1  0  0  0
 10 11  1  0  0  0
  1  2  1  0  0  0
  1  6  2  0  0  0
  2  3  2  0  0  0
  3  4  1  0  0  0
  4  5  2  0  0  0
  5 20  1  0  0  0
  5  6  1  0  0  0
 20 22  1  0  0  0
 20 21  1  0  0  0
 22 23  1  0  0  0
 22 27  2  0  0  0
 23 24  2  0  0  0
 24 25  1  0  0  0
 25 26  2  0  0  0
 25 31  1  0  0  0
 26 27  1  0  0  0
 26 28  1  0  0  0
 28 29  1  0  0  0
 28 30  2  0  0  0
 30 31  1  0  0  0
 31 32  1  0  0  0
 32 33  1  0  0  0
 32 34  1  0  0  0
 11 12  2  0  0  0
 12 13  1  0  0  0
 13 14  1  0  0  0
 14 15  1  0  0  0
 14 18  1  0  0  0
 15 16  1  0  0  0
 16 17  1  0  0  0
 16 18  1  0  0  0
 17 19  1  0  0  0
M  END
> <minimizedAffinity>
-8.48822

$$$$
