CHEMBL1940860


 22 24  0  0  0  0  0  0  0  0999 V2000
  -27.9657    0.4822   -5.0157 C   0  0  0  0  0  0  0  0  0  0  0  0
  -28.4146   -0.9025   -5.3781 C   0  0  0  0  0  0  0  0  0  0  0  0
  -28.0388   -1.4979   -6.5825 C   0  0  0  0  0  0  0  0  0  0  0  0
  -28.4685   -2.7908   -6.8868 C   0  0  0  0  0  0  0  0  0  0  0  0
  -29.2863   -3.5012   -5.9907 C   0  0  0  0  0  0  0  0  0  0  0  0
  -29.7529   -4.7997   -6.2658 C   0  0  0  0  0  0  0  0  0  0  0  0
  -30.5894   -5.4727   -5.3647 C   0  0  0  0  0  0  0  0  0  0  0  0
  -30.9299   -4.7572   -4.2124 C   0  0  0  0  0  0  0  0  0  0  0  0
  -32.0609   -5.3077   -3.0298 Cl  0  0  0  0  0  0  0  0  0  0  0  0
  -30.4753   -3.5219   -3.8997 N   0  0  0  0  0  0  0  0  0  0  0  0
  -29.6721   -2.9063   -4.7753 C   0  0  0  0  0  0  0  0  0  0  0  0
  -29.2189   -1.6267   -4.4865 C   0  0  0  0  0  0  0  0  0  0  0  0
  -31.0728   -6.8116   -5.7600 C   0  0  0  0  0  0  0  0  0  0  0  0
  -31.3411   -7.1912   -7.0183 C   0  0  0  0  0  0  0  0  0  0  0  0
  -31.8125   -8.5740   -7.3499 C   0  0  0  0  0  0  0  0  0  0  0  0
  -32.9291   -8.9376   -6.9921 O   0  0  0  0  0  0  0  0  0  0  0  0
  -30.8776   -9.3812   -8.1207 C   0  0  0  0  0  0  0  0  0  0  0  0
  -31.0241  -10.6752   -8.5963 C   0  0  0  0  0  0  0  0  0  0  0  0
  -29.8545  -11.1511   -9.2610 C   0  0  0  0  0  0  0  0  0  0  0  0
  -28.8724  -10.1937   -9.2742 C   0  0  0  0  0  0  0  0  0  0  0  0
  -27.0111  -10.4862  -10.0898 I   0  0  0  0  0  0  0  0  0  0  0  0
  -29.3467   -8.7358   -8.5479 S   0  0  0  0  0  0  0  0  0  0  0  0
  1  2  1  0  0  0
  2  3  1  0  0  0
  2 12  2  0  0  0
  3  4  2  0  0  0
  4  5  1  0  0  0
  5  6  1  0  0  0
  5 11  2  0  0  0
  6  7  2  0  0  0
  7 13  1  0  0  0
  7  8  1  0  0  0
 13 14  2  0  0  0
 14 15  1  0  0  0
 15 16  2  0  0  0
 15 17  1  0  0  0
 17 18  2  0  0  0
 17 22  1  0  0  0
 18 19  1  0  0  0
 19 20  2  0  0  0
 20 21  1  0  0  0
 20 22  1  0  0  0
  8  9  1  0  0  0
  8 10  2  0  0  0
 10 11  1  0  0  0
 11 12  1  0  0  0
M  END
> <minimizedAffinity>
-8.33438

$$$$
