CHEMBL3694689


 37 40  0  0  0  0  0  0  0  0999 V2000
  -14.7887    0.2321  -15.0322 C   0  0  0  0  0  0  0  0  0  0  0  0
  -13.6430   -0.1128  -15.7379 C   0  0  0  0  0  0  0  0  0  0  0  0
  -12.9774   -1.1603  -15.1721 N   0  0  0  0  0  0  0  0  0  0  0  0
  -13.6978   -1.4932  -14.1270 C   0  0  0  0  0  0  0  0  0  0  0  0
  -13.4902   -2.5263  -13.1746 C   0  0  0  0  0  0  0  0  0  0  0  0
  -14.3973   -2.7860  -12.2043 C   0  0  0  0  0  0  0  0  0  0  0  0
  -15.5898   -1.9268  -12.1112 C   0  0  0  0  0  0  0  0  0  0  0  0
  -15.7902   -0.9442  -13.0059 C   0  0  0  0  0  0  0  0  0  0  0  0
  -14.8433   -0.7096  -14.0065 N   0  0  0  0  0  0  0  0  0  0  0  0
  -17.9157    2.3970  -15.0347 C   0  0  0  0  0  0  0  0  0  0  0  0
  -17.4947    3.4478  -15.8485 C   0  0  0  0  0  0  0  0  0  0  0  0
  -16.2158    3.4327  -16.3962 C   0  0  0  0  0  0  0  0  0  0  0  0
  -15.6937    4.7424  -17.3850 Cl  0  0  0  0  0  0  0  0  0  0  0  0
  -15.3499    2.3696  -16.1508 C   0  0  0  0  0  0  0  0  0  0  0  0
  -15.7391    1.3145  -15.3140 C   0  0  0  0  0  0  0  0  0  0  0  0
  -17.0161    1.3638  -14.7328 C   0  0  0  0  0  0  0  0  0  0  0  0
  -19.9485    0.2927  -15.3876 O   0  0  0  0  0  0  0  0  0  0  0  0
  -20.1227    1.3001  -14.7168 C   0  0  0  0  0  0  0  0  0  0  0  0
  -21.3009    1.5209  -14.0344 N   0  0  0  0  0  0  0  0  0  0  0  0
  -19.2172    2.3124  -14.4917 N   0  0  0  0  0  0  0  0  0  0  0  0
  -21.5511    2.4917  -13.9118 H   0  0  0  0  0  0  0  0  0  0  0  0
  -19.4281    2.9162  -13.7112 H   0  0  0  0  0  0  0  0  0  0  0  0
  -22.4195    0.5952  -14.2537 C   0  0  0  0  0  0  0  0  0  0  0  0
  -22.8104   -0.2477  -13.0321 C   0  0  0  0  0  0  0  0  0  0  0  0
  -24.0659    0.0328  -12.6094 F   0  0  0  0  0  0  0  0  0  0  0  0
  -22.7332   -1.5716  -13.2726 F   0  0  0  0  0  0  0  0  0  0  0  0
  -21.9807    0.0282  -11.9953 F   0  0  0  0  0  0  0  0  0  0  0  0
  -14.1662   -3.9246  -11.2712 C   0  0  0  0  0  0  0  0  0  0  0  0
  -14.3309   -3.7899   -9.9068 C   0  0  0  0  0  0  0  0  0  0  0  0
  -14.0706   -4.8976   -9.1413 C   0  0  0  0  0  0  0  0  0  0  0  0
  -13.6595   -6.0665   -9.6569 N   0  0  0  0  0  0  0  0  0  0  0  0
  -13.4965   -6.1291  -10.9982 C   0  0  0  0  0  0  0  0  0  0  0  0
  -13.7377   -5.0789  -11.8286 N   0  0  0  0  0  0  0  0  0  0  0  0
  -13.0061   -7.4495  -11.6106 C   0  0  0  0  0  0  0  0  0  0  0  0
  -13.8930   -8.4834  -11.4832 F   0  0  0  0  0  0  0  0  0  0  0  0
  -12.7500   -7.3583  -12.9506 F   0  0  0  0  0  0  0  0  0  0  0  0
  -11.8453   -7.9016  -11.0450 F   0  0  0  0  0  0  0  0  0  0  0  0
 17 18  2  0  0  0
 18 19  1  0  0  0
 18 20  1  0  0  0
 19 23  1  0  0  0
 19 21  1  0  0  0
 23 24  1  0  0  0
 24 25  1  0  0  0
 24 26  1  0  0  0
 24 27  1  0  0  0
 20 10  1  0  0  0
 20 22  1  0  0  0
 10 11  1  0  0  0
 10 16  2  0  0  0
 11 12  2  0  0  0
 12 13  1  0  0  0
 12 14  1  0  0  0
 14 15  2  0  0  0
 15  1  1  0  0  0
 15 16  1  0  0  0
  1  2  2  0  0  0
  1  9  1  0  0  0
  2  3  1  0  0  0
  3  4  2  0  0  0
  4  5  1  0  0  0
  4  9  1  0  0  0
  5  6  2  0  0  0
  6 28  1  0  0  0
  6  7  1  0  0  0
 28 29  1  0  0  0
 28 33  2  0  0  0
 29 30  2  0  0  0
 30 31  1  0  0  0
 31 32  2  0  0  0
 32 34  1  0  0  0
 32 33  1  0  0  0
 34 35  1  0  0  0
 34 36  1  0  0  0
 34 37  1  0  0  0
  7  8  2  0  0  0
  8  9  1  0  0  0
M  END
> <minimizedAffinity>
-9.62235

$$$$
