CHEMBL3690415


 34 37  0  0  0  0  0  0  0  0999 V2000
  -27.7472   12.3452  -13.0517 C   0  0  0  0  0  0  0  0  0  0  0  0
  -26.8329   12.6588  -12.0439 C   0  0  0  0  0  0  0  0  0  0  0  0
  -25.4704   12.4776  -12.2465 C   0  0  0  0  0  0  0  0  0  0  0  0
  -25.0103   11.9643  -13.4522 C   0  0  0  0  0  0  0  0  0  0  0  0
  -25.8987   11.5268  -14.4419 C   0  0  0  0  0  0  0  0  0  0  0  0
  -27.2730   11.7645  -14.2432 C   0  0  0  0  0  0  0  0  0  0  0  0
  -25.4057   10.8453  -15.6505 C   0  0  0  0  0  0  0  0  0  0  0  0
  -25.8286    9.6657  -16.2477 C   0  0  0  0  0  0  0  0  0  0  0  0
  -25.1207    9.3714  -17.3835 N   0  0  0  0  0  0  0  0  0  0  0  0
  -24.2506   10.3469  -17.5120 C   0  0  0  0  0  0  0  0  0  0  0  0
  -23.2545   10.5825  -18.5086 C   0  0  0  0  0  0  0  0  0  0  0  0
  -22.4281   11.6406  -18.3970 C   0  0  0  0  0  0  0  0  0  0  0  0
  -22.5444   12.5731  -17.2872 C   0  0  0  0  0  0  0  0  0  0  0  0
  -23.4682   12.3474  -16.3420 C   0  0  0  0  0  0  0  0  0  0  0  0
  -24.3430   11.2587  -16.4573 N   0  0  0  0  0  0  0  0  0  0  0  0
  -21.3798   11.8367  -19.4357 C   0  0  0  0  0  0  0  0  0  0  0  0
  -20.0030   11.5409  -18.9755 C   0  0  0  0  0  0  0  0  0  0  0  0
  -19.0120   11.7525  -19.8444 C   0  0  0  0  0  0  0  0  0  0  0  0
  -19.3074   12.2553  -21.1986 C   0  0  0  0  0  0  0  0  0  0  0  0
  -18.4040   12.4729  -21.9957 O   0  0  0  0  0  0  0  0  0  0  0  0
  -20.6376   12.4544  -21.4860 N   0  0  0  0  0  0  0  0  0  0  0  0
  -21.6803   12.2604  -20.6269 N   0  0  0  0  0  0  0  0  0  0  0  0
  -20.8683   12.8093  -22.4082 H   0  0  0  0  0  0  0  0  0  0  0  0
  -29.9645   10.4978  -12.3159 O   0  0  0  0  0  0  0  0  0  0  0  0
  -30.1110   11.6822  -12.5842 C   0  0  0  0  0  0  0  0  0  0  0  0
  -31.3585   12.2707  -12.5461 N   0  0  0  0  0  0  0  0  0  0  0  0
  -29.1334   12.5920  -12.9297 N   0  0  0  0  0  0  0  0  0  0  0  0
  -31.4931   13.0426  -13.1839 H   0  0  0  0  0  0  0  0  0  0  0  0
  -29.4289   13.5524  -13.0154 H   0  0  0  0  0  0  0  0  0  0  0  0
  -32.5342   11.4197  -12.3159 C   0  0  0  0  0  0  0  0  0  0  0  0
  -33.2169   10.8990  -13.5884 C   0  0  0  0  0  0  0  0  0  0  0  0
  -32.3733   10.8964  -14.6474 F   0  0  0  0  0  0  0  0  0  0  0  0
  -33.7069    9.6521  -13.4382 F   0  0  0  0  0  0  0  0  0  0  0  0
  -34.2546   11.7070  -13.9205 F   0  0  0  0  0  0  0  0  0  0  0  0
 24 25  2  0  0  0
 25 26  1  0  0  0
 25 27  1  0  0  0
 26 30  1  0  0  0
 26 28  1  0  0  0
 30 31  1  0  0  0
 31 32  1  0  0  0
 31 33  1  0  0  0
 31 34  1  0  0  0
 27  1  1  0  0  0
 27 29  1  0  0  0
  1  2  1  0  0  0
  1  6  2  0  0  0
  2  3  2  0  0  0
  3  4  1  0  0  0
  4  5  2  0  0  0
  5  7  1  0  0  0
  5  6  1  0  0  0
  7  8  2  0  0  0
  7 15  1  0  0  0
  8  9  1  0  0  0
  9 10  2  0  0  0
 10 11  1  0  0  0
 10 15  1  0  0  0
 11 12  2  0  0  0
 12 16  1  0  0  0
 12 13  1  0  0  0
 16 17  1  0  0  0
 16 22  2  0  0  0
 17 18  2  0  0  0
 18 19  1  0  0  0
 19 20  2  0  0  0
 19 21  1  0  0  0
 21 22  1  0  0  0
 21 23  1  0  0  0
 13 14  2  0  0  0
 14 15  1  0  0  0
M  END
> <minimizedAffinity>
-6.12527

$$$$
