CHEMBL4203429


 42 44  0  0  0  0  0  0  0  0999 V2000
  -15.4312    0.1725  -13.2651 C   0  0  0  0  0  0  0  0  0  0  0  0
  -14.4532    0.8780  -13.0294 O   0  0  0  0  0  0  0  0  0  0  0  0
  -16.1605    0.2000  -14.4476 N   0  0  0  0  0  0  0  0  0  0  0  0
  -17.1378   -0.0532  -14.3501 H   0  0  0  0  0  0  0  0  0  0  0  0
  -15.8495    1.1279  -15.4606 C   0  0  0  0  0  0  0  0  0  0  0  0
  -16.5128    2.3412  -15.4570 C   0  0  0  0  0  0  0  0  0  0  0  0
  -16.1539    3.3248  -16.3747 C   0  0  0  0  0  0  0  0  0  0  0  0
  -15.2240    3.0896  -17.4078 C   0  0  0  0  0  0  0  0  0  0  0  0
  -14.5141    1.8634  -17.3949 C   0  0  0  0  0  0  0  0  0  0  0  0
  -14.8571    0.8927  -16.4156 C   0  0  0  0  0  0  0  0  0  0  0  0
  -13.3565    1.4796  -18.3046 C   0  0  0  0  0  0  0  0  0  0  0  0
  -12.1646    2.0820  -18.0508 F   0  0  0  0  0  0  0  0  0  0  0  0
  -13.0856    0.1418  -18.2426 F   0  0  0  0  0  0  0  0  0  0  0  0
  -13.6219    1.7353  -19.6173 F   0  0  0  0  0  0  0  0  0  0  0  0
  -15.0625    4.1874  -18.4493 C   0  0  0  0  0  0  0  0  0  0  0  0
  -13.8989    5.2325  -18.2332 C   0  0  0  0  0  0  0  0  0  0  0  0
  -13.3244    4.9593  -16.8239 C   0  0  0  0  0  0  0  0  0  0  0  0
  -12.8044    4.9819  -19.2873 C   0  0  0  0  0  0  0  0  0  0  0  0
  -14.4190    6.6943  -18.3047 C   0  0  0  0  0  0  0  0  0  0  0  0
  -14.6280    7.4144  -19.9301 S   0  0  0  0  0  0  0  0  0  0  0  0
  -15.5793    8.8781  -19.5934 C   0  0  0  0  0  0  0  0  0  0  0  0
  -13.3409    7.8583  -20.4261 O   0  0  0  0  0  0  0  0  0  0  0  0
  -15.4814    6.5435  -20.7139 O   0  0  0  0  0  0  0  0  0  0  0  0
  -15.9775   -0.7903  -12.2271 C   0  0  0  0  0  0  0  0  0  0  0  0
  -14.3305   -4.8104  -12.2975 C   0  0  0  0  0  0  0  0  0  0  0  0
  -14.0307   -3.9081  -13.3300 C   0  0  0  0  0  0  0  0  0  0  0  0
  -14.5413   -2.6008  -13.3063 C   0  0  0  0  0  0  0  0  0  0  0  0
  -15.3578   -2.1699  -12.2496 C   0  0  0  0  0  0  0  0  0  0  0  0
  -15.6505   -3.0849  -11.2343 C   0  0  0  0  0  0  0  0  0  0  0  0
  -16.4270   -2.7133  -10.2084 F   0  0  0  0  0  0  0  0  0  0  0  0
  -15.1527   -4.3851  -11.2498 C   0  0  0  0  0  0  0  0  0  0  0  0
  -12.5422   -6.5240  -11.5243 C   0  0  0  0  0  0  0  0  0  0  0  0
  -12.1003   -7.7980  -11.4892 C   0  0  0  0  0  0  0  0  0  0  0  0
  -12.8592   -8.8609  -12.2016 C   0  0  0  0  0  0  0  0  0  0  0  0
  -12.4814  -10.0317  -12.1766 O   0  0  0  0  0  0  0  0  0  0  0  0
  -13.9916   -8.4614  -12.8561 N   0  0  0  0  0  0  0  0  0  0  0  0
  -14.4342   -7.1531  -12.8934 C   0  0  0  0  0  0  0  0  0  0  0  0
  -13.7588   -6.1750  -12.2633 C   0  0  0  0  0  0  0  0  0  0  0  0
  -14.5106   -9.1900  -13.3229 H   0  0  0  0  0  0  0  0  0  0  0  0
  -11.9499   -5.4532  -10.8866 O   0  0  0  0  0  0  0  0  0  0  0  0
  -12.6184   -4.9061   -8.6556 C   0  0  0  0  0  0  0  0  0  0  0  0
  -11.5968   -5.6268   -9.5136 C   0  0  0  0  0  0  0  0  0  0  0  0
 41 42  1  0  0  0
 42 40  1  0  0  0
 40 32  1  0  0  0
 32 33  2  0  0  0
 32 38  1  0  0  0
 33 34  1  0  0  0
 34 35  2  0  0  0
 34 36  1  0  0  0
 36 37  1  0  0  0
 36 39  1  0  0  0
 37 38  2  0  0  0
 38 25  1  0  0  0
 25 26  1  0  0  0
 25 31  2  0  0  0
 26 27  2  0  0  0
 27 28  1  0  0  0
 28 24  1  0  0  0
 28 29  2  0  0  0
 24  1  1  0  0  0
  1  2  2  0  0  0
  1  3  1  0  0  0
  3  5  1  0  0  0
  3  4  1  0  0  0
  5  6  1  0  0  0
  5 10  2  0  0  0
  6  7  2  0  0  0
  7  8  1  0  0  0
  8 15  1  0  0  0
  8  9  2  0  0  0
 15 16  1  0  0  0
 16 17  1  0  0  0
 16 18  1  0  0  0
 16 19  1  0  0  0
 19 20  1  0  0  0
 20 21  1  0  0  0
 20 22  2  0  0  0
 20 23  2  0  0  0
  9 11  1  0  0  0
  9 10  1  0  0  0
 11 12  1  0  0  0
 11 13  1  0  0  0
 11 14  1  0  0  0
 29 30  1  0  0  0
 29 31  1  0  0  0
M  END
> <minimizedAffinity>
-7.43935

$$$$
