CHEMBL3694722


 38 41  0  0  0  0  0  0  0  0999 V2000
  -23.5346    0.1176  -13.4588 C   0  0  0  0  0  0  0  0  0  0  0  0
  -22.3039   -0.5951  -13.8210 C   0  0  0  0  0  0  0  0  0  0  0  0
  -21.2140    0.0864  -14.1635 C   0  0  0  0  0  0  0  0  0  0  0  0
  -21.2397    1.4832  -14.2184 N   0  0  0  0  0  0  0  0  0  0  0  0
  -20.2584    2.4175  -14.5470 C   0  0  0  0  0  0  0  0  0  0  0  0
  -20.9013    3.6356  -14.4171 C   0  0  0  0  0  0  0  0  0  0  0  0
  -22.2044    3.4993  -14.0290 N   0  0  0  0  0  0  0  0  0  0  0  0
  -22.3936    2.2027  -13.9153 C   0  0  0  0  0  0  0  0  0  0  0  0
  -23.5524    1.4725  -13.5287 C   0  0  0  0  0  0  0  0  0  0  0  0
  -26.1738   -1.4369  -11.3400 C   0  0  0  0  0  0  0  0  0  0  0  0
  -25.0266   -0.7443  -11.6553 C   0  0  0  0  0  0  0  0  0  0  0  0
  -24.7603   -0.5788  -13.0035 C   0  0  0  0  0  0  0  0  0  0  0  0
  -25.5943   -1.0281  -13.9636 N   0  0  0  0  0  0  0  0  0  0  0  0
  -26.6973   -1.6474  -13.5659 C   0  0  0  0  0  0  0  0  0  0  0  0
  -27.5910   -2.0488  -14.5331 N   0  0  0  0  0  0  0  0  0  0  0  0
  -27.0067   -1.9125  -12.2933 N   0  0  0  0  0  0  0  0  0  0  0  0
  -27.1522   -2.1455  -15.4359 H   0  0  0  0  0  0  0  0  0  0  0  0
  -28.1980   -2.7814  -14.2021 H   0  0  0  0  0  0  0  0  0  0  0  0
  -26.5488   -1.6835   -9.8968 C   0  0  0  0  0  0  0  0  0  0  0  0
  -28.2496   -2.6816   -8.6086 C   0  0  0  0  0  0  0  0  0  0  0  0
  -27.9449   -1.9752   -9.8036 O   0  0  0  0  0  0  0  0  0  0  0  0
  -18.9023    2.1404  -15.0394 C   0  0  0  0  0  0  0  0  0  0  0  0
  -18.1973    3.1478  -15.6981 C   0  0  0  0  0  0  0  0  0  0  0  0
  -16.8961    2.9464  -16.1248 C   0  0  0  0  0  0  0  0  0  0  0  0
  -16.2652    1.7393  -15.8514 C   0  0  0  0  0  0  0  0  0  0  0  0
  -16.8983    0.7207  -15.1343 C   0  0  0  0  0  0  0  0  0  0  0  0
  -18.2426    0.9172  -14.7620 C   0  0  0  0  0  0  0  0  0  0  0  0
  -16.2171   -0.4698  -14.7401 N   0  0  0  0  0  0  0  0  0  0  0  0
  -15.8190   -0.7576  -13.4492 C   0  0  0  0  0  0  0  0  0  0  0  0
  -15.9487   -0.0447  -12.4687 O   0  0  0  0  0  0  0  0  0  0  0  0
  -15.1575   -1.9615  -13.3166 N   0  0  0  0  0  0  0  0  0  0  0  0
  -16.0977   -1.1841  -15.4400 H   0  0  0  0  0  0  0  0  0  0  0  0
  -15.2734   -2.6862  -14.0108 H   0  0  0  0  0  0  0  0  0  0  0  0
  -14.6962   -2.3300  -11.9668 C   0  0  0  0  0  0  0  0  0  0  0  0
  -15.6760   -3.1123  -11.0873 C   0  0  0  0  0  0  0  0  0  0  0  0
  -15.0701   -4.1321  -10.4394 F   0  0  0  0  0  0  0  0  0  0  0  0
  -16.2110   -2.3017  -10.1400 F   0  0  0  0  0  0  0  0  0  0  0  0
  -16.7020   -3.6178  -11.8059 F   0  0  0  0  0  0  0  0  0  0  0  0
 20 21  1  0  0  0
 21 19  1  0  0  0
 19 10  1  0  0  0
 10 11  1  0  0  0
 10 16  2  0  0  0
 11 12  2  0  0  0
 12  1  1  0  0  0
 12 13  1  0  0  0
  1  2  1  0  0  0
  1  9  2  0  0  0
  2  3  2  0  0  0
  3  4  1  0  0  0
  4  5  1  0  0  0
  4  8  1  0  0  0
  5 22  1  0  0  0
  5  6  2  0  0  0
 22 23  1  0  0  0
 22 27  2  0  0  0
 23 24  2  0  0  0
 24 25  1  0  0  0
 25 26  2  0  0  0
 26 28  1  0  0  0
 26 27  1  0  0  0
 28 29  1  0  0  0
 28 32  1  0  0  0
 29 30  2  0  0  0
 29 31  1  0  0  0
 31 34  1  0  0  0
 31 33  1  0  0  0
 34 35  1  0  0  0
 35 36  1  0  0  0
 35 37  1  0  0  0
 35 38  1  0  0  0
  6  7  1  0  0  0
  7  8  2  0  0  0
  8  9  1  0  0  0
 13 14  2  0  0  0
 14 15  1  0  0  0
 14 16  1  0  0  0
 15 17  1  0  0  0
 15 18  1  0  0  0
M  END
> <minimizedAffinity>
-10.04194

$$$$
