CHEMBL3939200


 35 39  0  0  0  0  0  0  0  0999 V2000
  -15.3795    2.5579  -16.4702 N   0  0  0  0  0  0  0  0  0  0  0  0
  -16.7529    2.5085  -15.8902 C   0  0  0  0  0  0  0  0  0  0  0  0
  -17.1157    1.1930  -15.6259 C   0  0  0  0  0  0  0  0  0  0  0  0
  -18.2898    0.8761  -15.1698 C   0  0  0  0  0  0  0  0  0  0  0  0
  -19.1688    1.7699  -14.9817 C   0  0  0  0  0  0  0  0  0  0  0  0
  -20.1210    1.2669  -14.8181 N   0  0  0  0  0  0  0  0  0  0  0  0
  -21.0771    0.6959  -14.6509 C   0  0  0  0  0  0  0  0  0  0  0  0
  -21.8596    1.6540  -14.1689 C   0  0  0  0  0  0  0  0  0  0  0  0
  -21.0358    3.1618  -14.4441 N   0  0  0  0  0  0  0  0  0  0  0  0
  -19.4004    3.0963  -15.0051 C   0  0  0  0  0  0  0  0  0  0  0  0
  -17.8434    3.5971  -15.5937 C   0  0  0  0  0  0  0  0  0  0  0  0
  -23.1813    0.5378  -13.5626 C   0  0  0  0  0  0  0  0  0  0  0  0
  -23.9830   -0.5605  -14.3176 C   0  0  0  0  0  0  0  0  0  0  0  0
  -24.8294   -1.2505  -13.4662 N   0  0  0  0  0  0  0  0  0  0  0  0
  -24.6985   -0.7319  -12.2539 N   0  0  0  0  0  0  0  0  0  0  0  0
  -25.3815   -1.3299  -11.0454 C   0  0  0  0  0  0  0  0  0  0  0  0
  -23.7964    0.3609  -12.2833 C   0  0  0  0  0  0  0  0  0  0  0  0
  -13.3189    5.6466  -17.1032 C   0  0  0  0  0  0  0  0  0  0  0  0
  -13.6058    5.8824  -18.3774 C   0  0  0  0  0  0  0  0  0  0  0  0
  -14.6875    5.2739  -18.9325 C   0  0  0  0  0  0  0  0  0  0  0  0
  -15.2770    4.1755  -18.3283 C   0  0  0  0  0  0  0  0  0  0  0  0
  -14.7992    3.7138  -17.0994 C   0  0  0  0  0  0  0  0  0  0  0  0
  -13.8553    4.5538  -16.4744 C   0  0  0  0  0  0  0  0  0  0  0  0
  -12.0251    6.2979  -15.1457 C   0  0  0  0  0  0  0  0  0  0  0  0
  -12.5307    6.4810  -16.4016 O   0  0  0  0  0  0  0  0  0  0  0  0
  -15.2256    5.8744  -19.9768 O   0  0  0  0  0  0  0  0  0  0  0  0
  -15.1005    7.2273  -20.2618 C   0  0  0  0  0  0  0  0  0  0  0  0
  -14.5773    1.2720  -16.4253 C   0  0  0  0  0  0  0  0  0  0  0  0
  -13.3842    1.2102  -15.4853 C   0  0  0  0  0  0  0  0  0  0  0  0
  -13.4439    0.1711  -14.4720 N   0  0  0  0  0  0  0  0  0  0  0  0
  -13.9526    0.8792  -13.2945 C   0  0  0  0  0  0  0  0  0  0  0  0
  -15.2508    0.2758  -12.9647 C   0  0  0  0  0  0  0  0  0  0  0  0
  -15.1332   -1.1621  -13.3843 C   0  0  0  0  0  0  0  0  0  0  0  0
  -14.1089   -1.1716  -14.5333 C   0  0  0  0  0  0  0  0  0  0  0  0
  -13.0491   -2.2581  -14.2234 C   0  0  0  0  0  0  0  0  0  0  0  0
 24 25  1  0  0  0
 25 18  1  0  0  0
 18 19  1  0  0  0
 18 23  2  0  0  0
 19 20  2  0  0  0
 20 26  1  0  0  0
 20 21  1  0  0  0
 26 27  1  0  0  0
 21 22  2  0  0  0
 22  1  1  0  0  0
 22 23  1  0  0  0
  1 28  1  0  0  0
  1  2  1  0  0  0
 28 29  1  0  0  0
 29 30  1  0  0  0
 30 31  1  0  0  0
 30 34  1  0  0  0
 31 32  1  0  0  0
 32 33  1  0  0  0
 33 34  1  0  0  0
 34 35  1  0  0  0
  2  3  1  0  0  0
  2 11  2  0  0  0
  3  4  2  0  0  0
  4  5  1  0  0  0
  5  6  1  0  0  0
  5 10  2  0  0  0
  6  7  2  0  0  0
  7  8  1  0  0  0
  8 12  1  0  0  0
  8  9  2  0  0  0
 12 13  1  0  0  0
 12 17  2  0  0  0
 13 14  2  0  0  0
 14 15  1  0  0  0
 15 16  1  0  0  0
 15 17  1  0  0  0
  9 10  1  0  0  0
 10 11  1  0  0  0
M  END
> <minimizedAffinity>
-9.32927

$$$$
