CHEMBL3644027


 28 29  0  0  0  0  0  0  0  0999 V2000
  -27.8883   -1.8460   -6.3943 C   0  0  0  0  0  0  0  0  0  0  0  0
  -27.9155   -1.5805   -7.7212 N   0  0  0  0  0  0  0  0  0  0  0  0
  -28.1949   -2.6016   -8.5470 C   0  0  0  0  0  0  0  0  0  0  0  0
  -28.4358   -3.8433   -8.1045 N   0  0  0  0  0  0  0  0  0  0  0  0
  -28.4701   -4.0466   -6.7821 C   0  0  0  0  0  0  0  0  0  0  0  0
  -28.2265   -3.0639   -5.8565 C   0  0  0  0  0  0  0  0  0  0  0  0
  -28.3784   -3.3856   -4.4179 C   0  0  0  0  0  0  0  0  0  0  0  0
  -28.4594   -2.3278   -3.5700 F   0  0  0  0  0  0  0  0  0  0  0  0
  -29.5105   -4.1185   -4.1924 F   0  0  0  0  0  0  0  0  0  0  0  0
  -27.3584   -4.1594   -3.9512 F   0  0  0  0  0  0  0  0  0  0  0  0
  -28.3118   -2.3452   -9.9124 N   0  0  0  0  0  0  0  0  0  0  0  0
  -29.1988   -2.6378  -10.2892 H   0  0  0  0  0  0  0  0  0  0  0  0
  -27.3231   -1.8653  -10.7852 C   0  0  0  0  0  0  0  0  0  0  0  0
  -27.5620   -1.7514  -12.1621 C   0  0  0  0  0  0  0  0  0  0  0  0
  -26.5293   -1.3885  -13.0439 C   0  0  0  0  0  0  0  0  0  0  0  0
  -25.2507   -1.1219  -12.5452 C   0  0  0  0  0  0  0  0  0  0  0  0
  -24.9938   -1.2263  -11.1811 C   0  0  0  0  0  0  0  0  0  0  0  0
  -26.0248   -1.6011  -10.3188 C   0  0  0  0  0  0  0  0  0  0  0  0
  -23.9043   -0.7823  -13.6557 S   0  0  0  0  0  0  0  0  0  0  0  0
  -23.4052    0.8659  -13.2336 C   0  0  0  0  0  0  0  0  0  0  0  0
  -22.8128   -1.6768  -13.3118 O   0  0  0  0  0  0  0  0  0  0  0  0
  -24.4425   -0.7530  -15.0045 O   0  0  0  0  0  0  0  0  0  0  0  0
  -27.5583   -0.8271   -5.5243 O   0  0  0  0  0  0  0  0  0  0  0  0
  -28.3678    0.3601   -5.6081 C   0  0  0  0  0  0  0  0  0  0  0  0
  -27.9671    1.2642   -4.4328 C   0  0  0  0  0  0  0  0  0  0  0  0
  -29.8607    0.0146   -5.5040 C   0  0  0  0  0  0  0  0  0  0  0  0
  -30.8037    1.7972   -6.7321 C   0  0  0  0  0  0  0  0  0  0  0  0
  -30.6314    1.2171   -5.4480 O   0  0  0  0  0  0  0  0  0  0  0  0
 27 28  1  0  0  0
 28 26  1  0  0  0
 26 24  1  0  0  0
 24 25  1  0  0  0
 24 23  1  0  0  0
 23  1  1  0  0  0
  1  2  1  0  0  0
  1  6  2  0  0  0
  2  3  2  0  0  0
  3 11  1  0  0  0
  3  4  1  0  0  0
 11 13  1  0  0  0
 11 12  1  0  0  0
 13 14  1  0  0  0
 13 18  2  0  0  0
 14 15  2  0  0  0
 15 16  1  0  0  0
 16 19  1  0  0  0
 16 17  2  0  0  0
 19 20  1  0  0  0
 19 21  2  0  0  0
 19 22  2  0  0  0
 17 18  1  0  0  0
  4  5  2  0  0  0
  5  6  1  0  0  0
  6  7  1  0  0  0
  7  8  1  0  0  0
  7  9  1  0  0  0
  7 10  1  0  0  0
M  END
> <minimizedAffinity>
-7.87978

$$$$
