CHEMBL3906894


 36 40  0  0  0  0  0  0  0  0999 V2000
  -27.6211   -2.2636   -8.6969 N   0  0  0  0  0  0  0  0  0  0  0  0
  -26.9800   -1.7058   -9.9116 C   0  0  0  0  0  0  0  0  0  0  0  0
  -27.5807   -2.1626  -11.0668 C   0  0  0  0  0  0  0  0  0  0  0  0
  -27.0561   -2.0084  -12.2873 C   0  0  0  0  0  0  0  0  0  0  0  0
  -25.8812   -1.3624  -12.4591 C   0  0  0  0  0  0  0  0  0  0  0  0
  -25.4374   -1.3917  -13.7107 N   0  0  0  0  0  0  0  0  0  0  0  0
  -24.3230   -0.8008  -14.0836 C   0  0  0  0  0  0  0  0  0  0  0  0
  -23.5666   -0.0449  -13.1865 C   0  0  0  0  0  0  0  0  0  0  0  0
  -23.9812   -0.0423  -11.8293 N   0  0  0  0  0  0  0  0  0  0  0  0
  -25.1612   -0.7308  -11.4322 C   0  0  0  0  0  0  0  0  0  0  0  0
  -25.7355   -0.9070  -10.0709 C   0  0  0  0  0  0  0  0  0  0  0  0
  -22.4133    0.6979  -13.9156 C   0  0  0  0  0  0  0  0  0  0  0  0
  -21.4513    0.0187  -14.6995 C   0  0  0  0  0  0  0  0  0  0  0  0
  -20.5855    0.8592  -15.2520 N   0  0  0  0  0  0  0  0  0  0  0  0
  -20.9166    2.0747  -14.8727 N   0  0  0  0  0  0  0  0  0  0  0  0
  -20.1460    3.2146  -15.3726 C   0  0  0  0  0  0  0  0  0  0  0  0
  -22.0156    2.0365  -14.0641 C   0  0  0  0  0  0  0  0  0  0  0  0
  -28.9138    0.3744   -6.2916 C   0  0  0  0  0  0  0  0  0  0  0  0
  -28.7131   -0.2846   -5.0647 C   0  0  0  0  0  0  0  0  0  0  0  0
  -28.1198   -1.5464   -5.0241 C   0  0  0  0  0  0  0  0  0  0  0  0
  -27.7433   -2.1666   -6.2259 C   0  0  0  0  0  0  0  0  0  0  0  0
  -27.9193   -1.5404   -7.4799 C   0  0  0  0  0  0  0  0  0  0  0  0
  -28.5006   -0.2510   -7.4963 C   0  0  0  0  0  0  0  0  0  0  0  0
  -30.8767    1.8079   -6.5407 C   0  0  0  0  0  0  0  0  0  0  0  0
  -29.5197    1.5943   -6.3410 O   0  0  0  0  0  0  0  0  0  0  0  0
  -27.9382   -2.1353   -3.8117 O   0  0  0  0  0  0  0  0  0  0  0  0
  -28.9453   -2.5374   -2.9574 C   0  0  0  0  0  0  0  0  0  0  0  0
  -27.8453   -3.7562   -8.7069 C   0  0  0  0  0  0  0  0  0  0  0  0
  -29.0312   -4.4424   -7.8876 C   0  0  0  0  0  0  0  0  0  0  0  0
  -29.1539   -5.9814   -7.6870 C   0  0  0  0  0  0  0  0  0  0  0  0
  -29.8158   -6.3296   -6.3744 N   0  0  0  0  0  0  0  0  0  0  0  0
  -29.2766   -7.5709   -5.7920 C   0  0  0  0  0  0  0  0  0  0  0  0
  -28.1084   -7.1307   -4.9279 C   0  0  0  0  0  0  0  0  0  0  0  0
  -28.7087   -5.9484   -4.2155 C   0  0  0  0  0  0  0  0  0  0  0  0
  -29.6456   -5.3329   -5.2766 C   0  0  0  0  0  0  0  0  0  0  0  0
  -31.0117   -5.0221   -4.6327 C   0  0  0  0  0  0  0  0  0  0  0  0
 24 25  1  0  0  0
 25 18  1  0  0  0
 18 19  1  0  0  0
 18 23  2  0  0  0
 19 20  2  0  0  0
 20 26  1  0  0  0
 20 21  1  0  0  0
 26 27  1  0  0  0
 21 22  2  0  0  0
 22  1  1  0  0  0
 22 23  1  0  0  0
  1 28  1  0  0  0
  1  2  1  0  0  0
 28 29  1  0  0  0
 29 30  1  0  0  0
 30 31  1  0  0  0
 31 32  1  0  0  0
 31 35  1  0  0  0
 32 33  1  0  0  0
 33 34  1  0  0  0
 34 35  1  0  0  0
 35 36  1  0  0  0
  2  3  1  0  0  0
  2 11  2  0  0  0
  3  4  2  0  0  0
  4  5  1  0  0  0
  5  6  1  0  0  0
  5 10  2  0  0  0
  6  7  2  0  0  0
  7  8  1  0  0  0
  8 12  1  0  0  0
  8  9  2  0  0  0
 12 13  1  0  0  0
 12 17  2  0  0  0
 13 14  2  0  0  0
 14 15  1  0  0  0
 15 16  1  0  0  0
 15 17  1  0  0  0
  9 10  1  0  0  0
 10 11  1  0  0  0
M  END
> <minimizedAffinity>
-8.66623

$$$$
