CHEMBL247585


 28 32  0  0  0  0  0  0  0  0999 V2000
  -27.7565   -1.6752   -7.8650 C   0  0  0  0  0  0  0  0  0  0  0  0
  -27.8740   -0.5028   -7.0950 C   0  0  0  0  0  0  0  0  0  0  0  0
  -28.6341   -0.4476   -5.9084 C   0  0  0  0  0  0  0  0  0  0  0  0
  -29.3167   -1.5670   -5.4521 C   0  0  0  0  0  0  0  0  0  0  0  0
  -29.2244   -2.7040   -6.2225 C   0  0  0  0  0  0  0  0  0  0  0  0
  -28.4682   -2.7887   -7.4297 C   0  0  0  0  0  0  0  0  0  0  0  0
  -28.5311   -4.1901   -8.0613 C   0  0  0  0  0  0  0  0  0  0  0  0
  -29.4033   -4.8465   -7.0462 C   0  0  0  0  0  0  0  0  0  0  0  0
  -29.7913   -3.9884   -6.0111 C   0  0  0  0  0  0  0  0  0  0  0  0
  -30.5682   -4.5483   -5.0966 N   0  0  0  0  0  0  0  0  0  0  0  0
  -30.6828   -5.8144   -5.5706 N   0  0  0  0  0  0  0  0  0  0  0  0
  -29.9973   -6.0459   -6.7484 C   0  0  0  0  0  0  0  0  0  0  0  0
  -31.2391   -6.4717   -5.0369 H   0  0  0  0  0  0  0  0  0  0  0  0
  -29.9429   -7.3299   -7.4948 C   0  0  0  0  0  0  0  0  0  0  0  0
  -28.8343   -7.7927   -8.2635 C   0  0  0  0  0  0  0  0  0  0  0  0
  -29.0755   -9.0179   -8.8460 C   0  0  0  0  0  0  0  0  0  0  0  0
  -30.6341   -9.6106   -8.4724 S   0  0  0  0  0  0  0  0  0  0  0  0
  -30.9883   -8.2294   -7.5218 C   0  0  0  0  0  0  0  0  0  0  0  0
  -28.5233   -1.0588  -10.6163 O   0  0  0  0  0  0  0  0  0  0  0  0
  -27.4049   -1.4659  -10.3147 C   0  0  0  0  0  0  0  0  0  0  0  0
  -26.9533   -1.7419   -9.0322 N   0  0  0  0  0  0  0  0  0  0  0  0
  -25.9563   -1.8480   -8.9060 H   0  0  0  0  0  0  0  0  0  0  0  0
  -26.4256   -1.6147  -11.4205 C   0  0  0  0  0  0  0  0  0  0  0  0
  -25.0633   -1.5666  -11.0878 C   0  0  0  0  0  0  0  0  0  0  0  0
  -24.0912   -1.5844  -12.0859 C   0  0  0  0  0  0  0  0  0  0  0  0
  -24.4768   -1.6430  -13.4230 C   0  0  0  0  0  0  0  0  0  0  0  0
  -25.8315   -1.6958  -13.7619 C   0  0  0  0  0  0  0  0  0  0  0  0
  -26.8116   -1.6836  -12.7631 C   0  0  0  0  0  0  0  0  0  0  0  0
 19 20  2  0  0  0
 20 21  1  0  0  0
 20 23  1  0  0  0
 21  1  1  0  0  0
 21 22  1  0  0  0
  1  2  1  0  0  0
  1  6  2  0  0  0
  2  3  2  0  0  0
  3  4  1  0  0  0
  4  5  2  0  0  0
  5  6  1  0  0  0
  5  9  1  0  0  0
  6  7  1  0  0  0
  7  8  1  0  0  0
  8  9  1  0  0  0
  8 12  2  0  0  0
  9 10  2  0  0  0
 10 11  1  0  0  0
 11 12  1  0  0  0
 11 13  1  0  0  0
 12 14  1  0  0  0
 14 15  1  0  0  0
 14 18  2  0  0  0
 15 16  2  0  0  0
 16 17  1  0  0  0
 17 18  1  0  0  0
 23 24  1  0  0  0
 23 28  2  0  0  0
 24 25  2  0  0  0
 25 26  1  0  0  0
 26 27  2  0  0  0
 27 28  1  0  0  0
M  END
> <minimizedAffinity>
-10.01665

$$$$
