CHEMBL3696081


 37 39  0  0  0  0  0  0  0  0999 V2000
  -17.5778    1.9040  -15.2238 C   0  0  0  0  0  0  0  0  0  0  0  0
  -18.1431    3.0713  -14.7220 C   0  0  0  0  0  0  0  0  0  0  0  0
  -19.5008    3.1223  -14.4187 C   0  0  0  0  0  0  0  0  0  0  0  0
  -20.3223    1.9990  -14.5566 C   0  0  0  0  0  0  0  0  0  0  0  0
  -19.7558    0.8137  -15.0261 C   0  0  0  0  0  0  0  0  0  0  0  0
  -18.3958    0.7698  -15.3647 C   0  0  0  0  0  0  0  0  0  0  0  0
  -21.6867    2.0046  -14.1926 N   0  0  0  0  0  0  0  0  0  0  0  0
  -22.3990    0.8972  -13.7750 C   0  0  0  0  0  0  0  0  0  0  0  0
  -21.9094   -0.1976  -13.5182 O   0  0  0  0  0  0  0  0  0  0  0  0
  -23.7624    1.1409  -13.7056 N   0  0  0  0  0  0  0  0  0  0  0  0
  -22.1623    2.9015  -14.1497 H   0  0  0  0  0  0  0  0  0  0  0  0
  -24.1165    1.7318  -14.4473 H   0  0  0  0  0  0  0  0  0  0  0  0
  -24.6269    0.0804  -13.3282 C   0  0  0  0  0  0  0  0  0  0  0  0
  -25.0060   -0.1170  -11.9940 C   0  0  0  0  0  0  0  0  0  0  0  0
  -25.7649   -1.2350  -11.6253 C   0  0  0  0  0  0  0  0  0  0  0  0
  -26.1604   -1.4506  -10.1938 C   0  0  0  0  0  0  0  0  0  0  0  0
  -26.1362   -2.1607  -12.6093 C   0  0  0  0  0  0  0  0  0  0  0  0
  -25.7828   -1.9539  -13.9452 C   0  0  0  0  0  0  0  0  0  0  0  0
  -25.0516   -0.8249  -14.2983 C   0  0  0  0  0  0  0  0  0  0  0  0
  -24.6851   -0.6500  -15.5775 F   0  0  0  0  0  0  0  0  0  0  0  0
  -13.9049    1.2322  -15.5462 C   0  0  0  0  0  0  0  0  0  0  0  0
  -14.1421    2.3092  -16.8446 S   0  0  0  0  0  0  0  0  0  0  0  0
  -15.7333    2.5714  -16.5768 N   0  0  0  0  0  0  0  0  0  0  0  0
  -16.1443    1.8422  -15.5355 C   0  0  0  0  0  0  0  0  0  0  0  0
  -15.1057    1.0489  -14.8807 C   0  0  0  0  0  0  0  0  0  0  0  0
  -15.1921    0.1852  -13.7149 C   0  0  0  0  0  0  0  0  0  0  0  0
  -15.8085   -1.0205  -13.8831 N   0  0  0  0  0  0  0  0  0  0  0  0
  -14.7864    0.5217  -12.6065 O   0  0  0  0  0  0  0  0  0  0  0  0
  -16.2164   -1.3249  -14.7558 H   0  0  0  0  0  0  0  0  0  0  0  0
  -15.8718   -1.6395  -13.0855 H   0  0  0  0  0  0  0  0  0  0  0  0
  -12.4257   -0.6716  -15.6986 C   0  0  0  0  0  0  0  0  0  0  0  0
  -13.0755   -1.3412  -16.4968 O   0  0  0  0  0  0  0  0  0  0  0  0
  -12.6744    0.6287  -15.3484 N   0  0  0  0  0  0  0  0  0  0  0  0
  -11.9230    1.1673  -14.9218 H   0  0  0  0  0  0  0  0  0  0  0  0
  -11.3672   -1.1662  -15.0047 O   0  0  0  0  0  0  0  0  0  0  0  0
  -12.3553   -2.1777  -13.0530 C   0  0  0  0  0  0  0  0  0  0  0  0
  -11.5201   -1.0213  -13.5819 C   0  0  0  0  0  0  0  0  0  0  0  0
 36 37  1  0  0  0
 37 35  1  0  0  0
 35 31  1  0  0  0
 31 32  2  0  0  0
 31 33  1  0  0  0
 33 21  1  0  0  0
 33 34  1  0  0  0
 21 22  1  0  0  0
 21 25  2  0  0  0
 22 23  1  0  0  0
 23 24  2  0  0  0
 24  1  1  0  0  0
 24 25  1  0  0  0
  1  2  1  0  0  0
  1  6  2  0  0  0
  2  3  2  0  0  0
  3  4  1  0  0  0
  4  7  1  0  0  0
  4  5  2  0  0  0
  7  8  1  0  0  0
  7 11  1  0  0  0
  8  9  2  0  0  0
  8 10  1  0  0  0
 10 13  1  0  0  0
 10 12  1  0  0  0
 13 14  1  0  0  0
 13 19  2  0  0  0
 14 15  2  0  0  0
 15 16  1  0  0  0
 15 17  1  0  0  0
 17 18  2  0  0  0
 18 19  1  0  0  0
 19 20  1  0  0  0
  5  6  1  0  0  0
 25 26  1  0  0  0
 26 27  1  0  0  0
 26 28  2  0  0  0
 27 29  1  0  0  0
 27 30  1  0  0  0
M  END
> <minimizedAffinity>
-7.90082

$$$$
