CHEMBL375248


 27 29  0  0  0  0  0  0  0  0999 V2000
  -27.3614   -1.6700  -10.5460 C   0  0  0  0  0  0  0  0  0  0  0  0
  -28.0540   -1.5880  -11.7535 C   0  0  0  0  0  0  0  0  0  0  0  0
  -27.3290   -1.5785  -12.9316 C   0  0  0  0  0  0  0  0  0  0  0  0
  -25.9807   -1.5933  -12.9867 N   0  0  0  0  0  0  0  0  0  0  0  0
  -25.3043   -1.6287  -11.8183 C   0  0  0  0  0  0  0  0  0  0  0  0
  -25.9672   -1.7156  -10.5971 C   0  0  0  0  0  0  0  0  0  0  0  0
  -23.9172   -1.5272  -11.9414 N   0  0  0  0  0  0  0  0  0  0  0  0
  -23.5156   -2.4372  -11.7522 H   0  0  0  0  0  0  0  0  0  0  0  0
  -23.2611   -0.6857  -12.7676 C   0  0  0  0  0  0  0  0  0  0  0  0
  -22.4851   -1.0215  -13.7763 N   0  0  0  0  0  0  0  0  0  0  0  0
  -21.9362    0.0915  -14.3714 C   0  0  0  0  0  0  0  0  0  0  0  0
  -22.2978    1.2899  -13.8057 C   0  0  0  0  0  0  0  0  0  0  0  0
  -23.3855    1.0210  -12.5187 S   0  0  0  0  0  0  0  0  0  0  0  0
  -21.8389    2.5668  -14.2267 C   0  0  0  0  0  0  0  0  0  0  0  0
  -21.4840    3.6087  -14.5839 N   0  0  0  0  0  0  0  0  0  0  0  0
  -28.0615   -1.6550   -9.2056 C   0  0  0  0  0  0  0  0  0  0  0  0
  -31.2786   -5.5363   -4.1284 C   0  0  0  0  0  0  0  0  0  0  0  0
  -30.6043   -4.9096   -5.2351 N   0  0  0  0  0  0  0  0  0  0  0  0
  -30.1964   -3.6040   -5.1460 C   0  0  0  0  0  0  0  0  0  0  0  0
  -30.4090   -2.9160   -4.1530 O   0  0  0  0  0  0  0  0  0  0  0  0
  -29.5281   -3.1326   -6.2574 N   0  0  0  0  0  0  0  0  0  0  0  0
  -29.3768   -3.8411   -7.5299 C   0  0  0  0  0  0  0  0  0  0  0  0
  -27.9083   -3.7945   -7.9786 C   0  0  0  0  0  0  0  0  0  0  0  0
  -27.3902   -2.4187   -8.1358 N   0  0  0  0  0  0  0  0  0  0  0  0
  -27.5609   -1.7207   -6.8296 C   0  0  0  0  0  0  0  0  0  0  0  0
  -28.9979   -1.7643   -6.2549 C   0  0  0  0  0  0  0  0  0  0  0  0
  -29.9770   -5.5134   -5.7393 H   0  0  0  0  0  0  0  0  0  0  0  0
 17 18  1  0  0  0
 18 19  1  0  0  0
 18 27  1  0  0  0
 19 20  2  0  0  0
 19 21  1  0  0  0
 21 22  1  0  0  0
 21 26  1  0  0  0
 22 23  1  0  0  0
 23 24  1  0  0  0
 24 16  1  0  0  0
 24 25  1  0  0  0
 16  1  1  0  0  0
  1  2  1  0  0  0
  1  6  2  0  0  0
  2  3  2  0  0  0
  3  4  1  0  0  0
  4  5  2  0  0  0
  5  7  1  0  0  0
  5  6  1  0  0  0
  7  9  1  0  0  0
  7  8  1  0  0  0
  9 10  2  0  0  0
  9 13  1  0  0  0
 10 11  1  0  0  0
 11 12  2  0  0  0
 12 14  1  0  0  0
 12 13  1  0  0  0
 14 15  3  0  0  0
 25 26  1  0  0  0
M  END
> <minimizedAffinity>
-7.46925

$$$$
