CHEMBL3929002


 34 38  0  0  0  0  0  0  0  0999 V2000
  -28.4966   -3.2214   -7.7921 C   0  0  0  0  0  0  0  0  0  0  0  0
  -29.0234   -2.8601   -6.5463 C   0  0  0  0  0  0  0  0  0  0  0  0
  -28.8788   -1.5446   -6.0497 C   0  0  0  0  0  0  0  0  0  0  0  0
  -29.4113   -1.0653   -4.8461 C   0  0  0  0  0  0  0  0  0  0  0  0
  -29.2909    0.2293   -4.4733 N   0  0  0  0  0  0  0  0  0  0  0  0
  -28.6243    1.0378   -5.2950 C   0  0  0  0  0  0  0  0  0  0  0  0
  -28.0622    0.6842   -6.4492 N   0  0  0  0  0  0  0  0  0  0  0  0
  -28.1965   -0.5929   -6.8123 C   0  0  0  0  0  0  0  0  0  0  0  0
  -27.6187   -0.9863   -7.9996 C   0  0  0  0  0  0  0  0  0  0  0  0
  -27.6910   -2.3059   -8.4823 C   0  0  0  0  0  0  0  0  0  0  0  0
  -28.5960   -5.5631   -7.4654 C   0  0  0  0  0  0  0  0  0  0  0  0
  -28.7332   -4.4488   -8.3533 O   0  0  0  0  0  0  0  0  0  0  0  0
  -30.1187   -1.9522   -3.9901 N   0  0  0  0  0  0  0  0  0  0  0  0
  -31.1105   -1.7366   -4.0280 H   0  0  0  0  0  0  0  0  0  0  0  0
  -29.8483   -3.3359   -3.9333 C   0  0  0  0  0  0  0  0  0  0  0  0
  -28.5957   -3.7882   -3.4952 C   0  0  0  0  0  0  0  0  0  0  0  0
  -28.2699   -5.1427   -3.5307 C   0  0  0  0  0  0  0  0  0  0  0  0
  -29.2032   -6.0691   -3.9964 C   0  0  0  0  0  0  0  0  0  0  0  0
  -28.7175   -7.7235   -4.0772 Cl  0  0  0  0  0  0  0  0  0  0  0  0
  -30.4739   -5.6340   -4.3919 C   0  0  0  0  0  0  0  0  0  0  0  0
  -31.6834   -6.7262   -4.9689 Cl  0  0  0  0  0  0  0  0  0  0  0  0
  -30.7984   -4.2723   -4.3496 C   0  0  0  0  0  0  0  0  0  0  0  0
  -26.9956   -2.7171   -9.6012 O   0  0  0  0  0  0  0  0  0  0  0  0
  -26.4584   -1.6189  -10.3655 C   0  0  0  0  0  0  0  0  0  0  0  0
  -26.6756   -1.6750  -11.8475 C   0  0  0  0  0  0  0  0  0  0  0  0
  -27.8025   -2.1401  -12.4898 C   0  0  0  0  0  0  0  0  0  0  0  0
  -27.6625   -2.0779  -14.1877 S   0  0  0  0  0  0  0  0  0  0  0  0
  -26.0777   -1.4112  -14.1161 C   0  0  0  0  0  0  0  0  0  0  0  0
  -25.2508   -1.0651  -15.2061 C   0  0  0  0  0  0  0  0  0  0  0  0
  -23.9869   -0.5221  -14.9586 C   0  0  0  0  0  0  0  0  0  0  0  0
  -23.5554   -0.3297  -13.6559 C   0  0  0  0  0  0  0  0  0  0  0  0
  -22.0010    0.3502  -13.3622 Cl  0  0  0  0  0  0  0  0  0  0  0  0
  -24.3706   -0.6808  -12.5763 C   0  0  0  0  0  0  0  0  0  0  0  0
  -25.6634   -1.2332  -12.7940 C   0  0  0  0  0  0  0  0  0  0  0  0
 11 12  1  0  0  0
 12  1  1  0  0  0
  1  2  1  0  0  0
  1 10  2  0  0  0
  2  3  2  0  0  0
  3  4  1  0  0  0
  3  8  1  0  0  0
  4 13  1  0  0  0
  4  5  2  0  0  0
 13 15  1  0  0  0
 13 14  1  0  0  0
 15 16  1  0  0  0
 15 22  2  0  0  0
 16 17  2  0  0  0
 17 18  1  0  0  0
 18 19  1  0  0  0
 18 20  2  0  0  0
 20 21  1  0  0  0
 20 22  1  0  0  0
  5  6  1  0  0  0
  6  7  2  0  0  0
  7  8  1  0  0  0
  8  9  2  0  0  0
  9 10  1  0  0  0
 10 23  1  0  0  0
 23 24  1  0  0  0
 24 25  1  0  0  0
 25 26  2  0  0  0
 25 34  1  0  0  0
 26 27  1  0  0  0
 27 28  1  0  0  0
 28 29  1  0  0  0
 28 34  2  0  0  0
 29 30  2  0  0  0
 30 31  1  0  0  0
 31 32  1  0  0  0
 31 33  2  0  0  0
 33 34  1  0  0  0
M  END
> <minimizedAffinity>
-9.44029

$$$$
