CHEMBL3979328


 36 39  0  0  0  0  0  0  0  0999 V2000
  -28.7966   -7.3500   -6.1481 N   0  0  0  0  0  0  0  0  0  0  0  0
  -28.6483   -5.9221   -6.3375 C   0  0  0  0  0  0  0  0  0  0  0  0
  -28.8569   -4.9992   -5.3059 C   0  0  0  0  0  0  0  0  0  0  0  0
  -28.7891   -3.6134   -5.5459 C   0  0  0  0  0  0  0  0  0  0  0  0
  -28.4229   -3.1026   -6.7828 C   0  0  0  0  0  0  0  0  0  0  0  0
  -28.3425   -1.7702   -6.9819 N   0  0  0  0  0  0  0  0  0  0  0  0
  -27.9054   -1.3683   -8.2016 C   0  0  0  0  0  0  0  0  0  0  0  0
  -27.5420   -2.2498   -9.2081 C   0  0  0  0  0  0  0  0  0  0  0  0
  -27.6781   -3.5884   -9.0266 N   0  0  0  0  0  0  0  0  0  0  0  0
  -28.1303   -4.0052   -7.8218 C   0  0  0  0  0  0  0  0  0  0  0  0
  -28.3021   -5.3700   -7.5917 C   0  0  0  0  0  0  0  0  0  0  0  0
  -26.9409   -1.8010  -10.4512 C   0  0  0  0  0  0  0  0  0  0  0  0
  -27.4957   -1.6312  -11.7429 C   0  0  0  0  0  0  0  0  0  0  0  0
  -26.6294   -1.1345  -12.6274 N   0  0  0  0  0  0  0  0  0  0  0  0
  -25.5052   -0.9699  -11.9013 N   0  0  0  0  0  0  0  0  0  0  0  0
  -24.3343   -0.3942  -12.5152 C   0  0  0  0  0  0  0  0  0  0  0  0
  -25.6395   -1.3621  -10.6003 C   0  0  0  0  0  0  0  0  0  0  0  0
  -31.4526   -9.4207   -7.9555 C   0  0  0  0  0  0  0  0  0  0  0  0
  -30.7070  -10.0330   -8.9483 C   0  0  0  0  0  0  0  0  0  0  0  0
  -29.3314   -9.8643   -8.9982 C   0  0  0  0  0  0  0  0  0  0  0  0
  -28.6856   -9.1427   -7.9647 C   0  0  0  0  0  0  0  0  0  0  0  0
  -27.0424   -9.6433   -7.6296 Cl  0  0  0  0  0  0  0  0  0  0  0  0
  -29.4114   -8.2894   -7.0635 C   0  0  0  0  0  0  0  0  0  0  0  0
  -30.8408   -8.4335   -7.1437 C   0  0  0  0  0  0  0  0  0  0  0  0
  -31.9486   -7.3358   -6.3524 Cl  0  0  0  0  0  0  0  0  0  0  0  0
  -33.0363  -10.7489   -6.7834 C   0  0  0  0  0  0  0  0  0  0  0  0
  -32.7807   -9.7304   -7.7590 O   0  0  0  0  0  0  0  0  0  0  0  0
  -28.7708  -10.5932  -10.0165 O   0  0  0  0  0  0  0  0  0  0  0  0
  -29.0430  -10.2032  -11.3575 C   0  0  0  0  0  0  0  0  0  0  0  0
  -28.5568   -7.7220   -4.7177 C   0  0  0  0  0  0  0  0  0  0  0  0
  -27.4166   -8.7158   -4.3984 C   0  0  0  0  0  0  0  0  0  0  0  0
  -26.0640   -8.1935   -4.1496 N   0  0  0  0  0  0  0  0  0  0  0  0
  -26.0859   -7.5057   -3.4019 H   0  0  0  0  0  0  0  0  0  0  0  0
  -25.1293   -9.2903   -3.8158 C   0  0  0  0  0  0  0  0  0  0  0  0
  -25.8659  -10.5419   -3.3316 C   0  0  0  0  0  0  0  0  0  0  0  0
  -24.2816   -9.6580   -5.0335 C   0  0  0  0  0  0  0  0  0  0  0  0
 26 27  1  0  0  0
 27 18  1  0  0  0
 18 19  1  0  0  0
 18 24  2  0  0  0
 19 20  2  0  0  0
 20 28  1  0  0  0
 20 21  1  0  0  0
 28 29  1  0  0  0
 21 22  1  0  0  0
 21 23  2  0  0  0
 23  1  1  0  0  0
 23 24  1  0  0  0
  1 30  1  0  0  0
  1  2  1  0  0  0
 30 31  1  0  0  0
 31 32  1  0  0  0
 32 34  1  0  0  0
 32 33  1  0  0  0
 34 35  1  0  0  0
 34 36  1  0  0  0
  2  3  1  0  0  0
  2 11  2  0  0  0
  3  4  2  0  0  0
  4  5  1  0  0  0
  5  6  1  0  0  0
  5 10  2  0  0  0
  6  7  2  0  0  0
  7  8  1  0  0  0
  8 12  1  0  0  0
  8  9  2  0  0  0
 12 13  1  0  0  0
 12 17  2  0  0  0
 13 14  2  0  0  0
 14 15  1  0  0  0
 15 16  1  0  0  0
 15 17  1  0  0  0
  9 10  1  0  0  0
 10 11  1  0  0  0
 24 25  1  0  0  0
M  END
> <minimizedAffinity>
-8.20018

$$$$
