CHEMBL258433


 35 40  0  0  0  0  0  0  0  0999 V2000
  -14.9354   -2.0559  -12.8692 C   0  0  0  0  0  0  0  0  0  0  0  0
  -13.6410   -1.9955  -13.3352 C   0  0  0  0  0  0  0  0  0  0  0  0
  -13.2589   -0.9741  -14.2349 C   0  0  0  0  0  0  0  0  0  0  0  0
  -14.2639   -0.0932  -14.5415 C   0  0  0  0  0  0  0  0  0  0  0  0
  -14.1014    1.0078  -15.3260 N   0  0  0  0  0  0  0  0  0  0  0  0
  -15.2184    1.7538  -15.3072 C   0  0  0  0  0  0  0  0  0  0  0  0
  -15.5382    2.9699  -15.9306 C   0  0  0  0  0  0  0  0  0  0  0  0
  -16.4427    4.0275  -16.4710 C   0  0  0  0  0  0  0  0  0  0  0  0
  -17.6516    2.9838  -15.7551 C   0  0  0  0  0  0  0  0  0  0  0  0
  -17.3578    1.6966  -14.8014 C   0  0  0  0  0  0  0  0  0  0  0  0
  -16.1099    1.0396  -14.6754 C   0  0  0  0  0  0  0  0  0  0  0  0
  -15.5849   -0.0474  -14.1153 C   0  0  0  0  0  0  0  0  0  0  0  0
  -15.9268   -1.1238  -13.2308 C   0  0  0  0  0  0  0  0  0  0  0  0
  -18.4424    1.1264  -14.0197 C   0  0  0  0  0  0  0  0  0  0  0  0
  -19.4731    1.9573  -14.5395 N   0  0  0  0  0  0  0  0  0  0  0  0
  -19.0846    3.1523  -15.2819 C   0  0  0  0  0  0  0  0  0  0  0  0
  -19.9443    4.0279  -15.3602 O   0  0  0  0  0  0  0  0  0  0  0  0
  -15.4387    4.5732  -18.0018 C   0  0  0  0  0  0  0  0  0  0  0  0
  -14.4306    5.7461  -18.4142 C   0  0  0  0  0  0  0  0  0  0  0  0
  -13.4110    5.2770  -19.5083 N   0  0  0  0  0  0  0  0  0  0  0  0
  -12.1987    5.6646  -20.2862 C   0  0  0  0  0  0  0  0  0  0  0  0
  -13.4434    3.9607  -19.5401 N   0  0  0  0  0  0  0  0  0  0  0  0
  -14.1114    3.7276  -18.4720 C   0  0  0  0  0  0  0  0  0  0  0  0
  -13.3555    2.8363  -17.5106 C   0  0  0  0  0  0  0  0  0  0  0  0
  -14.3102    3.1952  -16.4916 C   0  0  0  0  0  0  0  0  0  0  0  0
  -13.2027    1.2204  -15.8016 H   0  0  0  0  0  0  0  0  0  0  0  0
  -20.3966    1.7806  -14.2001 H   0  0  0  0  0  0  0  0  0  0  0  0
  -16.3545   -4.1261  -12.3638 C   0  0  0  0  0  0  0  0  0  0  0  0
  -15.3510   -3.0844  -11.8977 C   0  0  0  0  0  0  0  0  0  0  0  0
  -14.7829   -3.0641  -10.7284 N   0  0  0  0  0  0  0  0  0  0  0  0
  -15.2154   -4.1079   -9.9314 O   0  0  0  0  0  0  0  0  0  0  0  0
  -14.1043   -4.6577   -9.2374 C   0  0  0  0  0  0  0  0  0  0  0  0
  -13.1870   -5.3046  -10.2759 C   0  0  0  0  0  0  0  0  0  0  0  0
  -11.8680   -5.7162   -9.6255 C   0  0  0  0  0  0  0  0  0  0  0  0
  -13.8800   -6.4711  -10.9419 C   0  0  0  0  0  0  0  0  0  0  0  0
 28 29  1  0  0  0
 29 30  2  0  0  0
 29  1  1  0  0  0
 30 31  1  0  0  0
 31 32  1  0  0  0
 32 33  1  0  0  0
 33 34  1  0  0  0
 33 35  1  0  0  0
  1  2  1  0  0  0
  1 13  2  0  0  0
  2  3  2  0  0  0
  3  4  1  0  0  0
  4  5  1  0  0  0
  4 12  2  0  0  0
  5  6  1  0  0  0
  5 26  1  0  0  0
  6  7  1  0  0  0
  6 11  2  0  0  0
  7  8  2  0  0  0
  7 25  1  0  0  0
  8  9  1  0  0  0
  8 18  1  0  0  0
  9 10  2  0  0  0
  9 16  1  0  0  0
 10 11  1  0  0  0
 10 14  1  0  0  0
 11 12  1  0  0  0
 12 13  1  0  0  0
 14 15  1  0  0  0
 15 16  1  0  0  0
 15 27  1  0  0  0
 16 17  2  0  0  0
 18 19  2  0  0  0
 18 23  1  0  0  0
 19 20  1  0  0  0
 20 21  1  0  0  0
 20 22  1  0  0  0
 22 23  2  0  0  0
 23 24  1  0  0  0
 24 25  1  0  0  0
M  END
> <minimizedAffinity>
-9.14825

$$$$
