CHEMBL1973142


 21 22  0  0  0  0  0  0  0  0999 V2000
  -29.1468   -2.8160   -6.3358 C   0  0  0  0  0  0  0  0  0  0  0  0
  -28.5408   -3.2314   -7.5145 C   0  0  0  0  0  0  0  0  0  0  0  0
  -28.8684   -4.8773   -7.8306 S   0  0  0  0  0  0  0  0  0  0  0  0
  -29.7455   -5.0830   -6.3757 C   0  0  0  0  0  0  0  0  0  0  0  0
  -30.3528   -6.2846   -5.9554 C   0  0  0  0  0  0  0  0  0  0  0  0
  -31.0658   -6.3087   -4.7586 C   0  0  0  0  0  0  0  0  0  0  0  0
  -31.1654   -5.1644   -3.9814 C   0  0  0  0  0  0  0  0  0  0  0  0
  -32.0829   -5.2620   -2.5212 Cl  0  0  0  0  0  0  0  0  0  0  0  0
  -30.5439   -3.9793   -4.4010 C   0  0  0  0  0  0  0  0  0  0  0  0
  -30.6320   -2.5284   -3.4757 Cl  0  0  0  0  0  0  0  0  0  0  0  0
  -29.8134   -3.9017   -5.6236 C   0  0  0  0  0  0  0  0  0  0  0  0
  -28.2056    0.3968   -4.6886 C   0  0  0  0  0  0  0  0  0  0  0  0
  -28.0405   -1.0416   -5.1033 C   0  0  0  0  0  0  0  0  0  0  0  0
  -27.0230   -1.6797   -4.8513 O   0  0  0  0  0  0  0  0  0  0  0  0
  -29.1103   -1.5019   -5.8570 N   0  0  0  0  0  0  0  0  0  0  0  0
  -29.5643   -0.8018   -6.4350 H   0  0  0  0  0  0  0  0  0  0  0  0
  -27.6444   -2.4990   -8.4023 C   0  0  0  0  0  0  0  0  0  0  0  0
  -27.2333   -3.1534   -9.5349 N   0  0  0  0  0  0  0  0  0  0  0  0
  -27.2163   -1.3676   -8.1880 O   0  0  0  0  0  0  0  0  0  0  0  0
  -27.6169   -4.0498   -9.7964 H   0  0  0  0  0  0  0  0  0  0  0  0
  -26.6562   -2.6460  -10.1896 H   0  0  0  0  0  0  0  0  0  0  0  0
 12 13  1  0  0  0
 13 14  2  0  0  0
 13 15  1  0  0  0
 15  1  1  0  0  0
 15 16  1  0  0  0
  1  2  2  0  0  0
  1 11  1  0  0  0
  2 17  1  0  0  0
  2  3  1  0  0  0
 17 18  1  0  0  0
 17 19  2  0  0  0
 18 20  1  0  0  0
 18 21  1  0  0  0
  3  4  1  0  0  0
  4  5  1  0  0  0
  4 11  2  0  0  0
  5  6  2  0  0  0
  6  7  1  0  0  0
  7  8  1  0  0  0
  7  9  2  0  0  0
  9 10  1  0  0  0
  9 11  1  0  0  0
M  END
> <minimizedAffinity>
-7.43712

$$$$
