CHEMBL3676366


 37 39  0  0  0  0  0  0  0  0999 V2000
  -29.7454   -5.3156   -7.0864 C   0  0  0  0  0  0  0  0  0  0  0  0
  -29.0959   -4.4577   -7.9751 C   0  0  0  0  0  0  0  0  0  0  0  0
  -28.5935   -3.2120   -7.5321 C   0  0  0  0  0  0  0  0  0  0  0  0
  -27.9894   -2.2549   -8.3629 C   0  0  0  0  0  0  0  0  0  0  0  0
  -27.5068   -1.0926   -7.8858 N   0  0  0  0  0  0  0  0  0  0  0  0
  -27.6705   -0.8770   -6.5802 C   0  0  0  0  0  0  0  0  0  0  0  0
  -28.2504   -1.7063   -5.7026 N   0  0  0  0  0  0  0  0  0  0  0  0
  -28.6980   -2.8730   -6.1787 C   0  0  0  0  0  0  0  0  0  0  0  0
  -29.2903   -3.7793   -5.2979 C   0  0  0  0  0  0  0  0  0  0  0  0
  -29.7893   -5.0159   -5.7220 C   0  0  0  0  0  0  0  0  0  0  0  0
  -30.0219   -7.6271   -7.8372 C   0  0  0  0  0  0  0  0  0  0  0  0
  -30.7781   -8.5735   -8.0275 O   0  0  0  0  0  0  0  0  0  0  0  0
  -30.5178   -6.3610   -7.6227 N   0  0  0  0  0  0  0  0  0  0  0  0
  -31.4895   -6.4127   -7.3336 H   0  0  0  0  0  0  0  0  0  0  0  0
  -27.9461   -8.6517   -8.6044 C   0  0  0  0  0  0  0  0  0  0  0  0
  -28.5453   -7.7984   -7.7654 C   0  0  0  0  0  0  0  0  0  0  0  0
  -27.9256   -2.4832   -9.7579 N   0  0  0  0  0  0  0  0  0  0  0  0
  -28.8451   -2.6990  -10.1391 H   0  0  0  0  0  0  0  0  0  0  0  0
  -27.0600   -1.8926  -10.7011 C   0  0  0  0  0  0  0  0  0  0  0  0
  -25.7620   -1.5010  -10.3586 C   0  0  0  0  0  0  0  0  0  0  0  0
  -24.8358   -1.1544  -11.3449 C   0  0  0  0  0  0  0  0  0  0  0  0
  -25.1994   -1.1807  -12.6942 C   0  0  0  0  0  0  0  0  0  0  0  0
  -23.8305   -0.8442  -13.9669 Br  0  0  0  0  0  0  0  0  0  0  0  0
  -26.5120   -1.4959  -13.0566 C   0  0  0  0  0  0  0  0  0  0  0  0
  -27.0415   -1.5006  -14.7023 Cl  0  0  0  0  0  0  0  0  0  0  0  0
  -27.4241   -1.8537  -12.0584 C   0  0  0  0  0  0  0  0  0  0  0  0
  -28.6814   -2.2013  -12.3889 F   0  0  0  0  0  0  0  0  0  0  0  0
  -30.3300   -5.7981   -4.7280 O   0  0  0  0  0  0  0  0  0  0  0  0
  -29.4090   -6.2323   -3.7154 C   0  0  0  0  0  0  0  0  0  0  0  0
  -29.0614   -7.7169   -3.8834 C   0  0  0  0  0  0  0  0  0  0  0  0
  -27.6630   -7.9076   -4.2551 N   0  0  0  0  0  0  0  0  0  0  0  0
  -27.0192   -9.1095   -4.0106 C   0  0  0  0  0  0  0  0  0  0  0  0
  -27.5994  -10.1178   -3.6317 O   0  0  0  0  0  0  0  0  0  0  0  0
  -27.0793   -7.0888   -4.3873 H   0  0  0  0  0  0  0  0  0  0  0  0
  -25.5091   -9.0701   -4.2586 C   0  0  0  0  0  0  0  0  0  0  0  0
  -24.8118   -9.5414   -3.1088 O   0  0  0  0  0  0  0  0  0  0  0  0
  -24.0729  -10.7237   -3.3928 C   0  0  0  0  0  0  0  0  0  0  0  0
 15 16  2  0  0  0
 16 11  1  0  0  0
 11 12  2  0  0  0
 11 13  1  0  0  0
 13  1  1  0  0  0
 13 14  1  0  0  0
  1  2  1  0  0  0
  1 10  2  0  0  0
  2  3  2  0  0  0
  3  4  1  0  0  0
  3  8  1  0  0  0
  4 17  1  0  0  0
  4  5  2  0  0  0
 17 19  1  0  0  0
 17 18  1  0  0  0
 19 20  1  0  0  0
 19 26  2  0  0  0
 20 21  2  0  0  0
 21 22  1  0  0  0
 22 23  1  0  0  0
 22 24  2  0  0  0
 24 25  1  0  0  0
 24 26  1  0  0  0
 26 27  1  0  0  0
  5  6  1  0  0  0
  6  7  2  0  0  0
  7  8  1  0  0  0
  8  9  2  0  0  0
  9 10  1  0  0  0
 10 28  1  0  0  0
 28 29  1  0  0  0
 29 30  1  0  0  0
 30 31  1  0  0  0
 31 32  1  0  0  0
 31 34  1  0  0  0
 32 33  2  0  0  0
 32 35  1  0  0  0
 35 36  1  0  0  0
 36 37  1  0  0  0
M  END
> <minimizedAffinity>
-8.52642

$$$$
