CHEMBL1681962


 29 30  0  0  0  0  0  0  0  0999 V2000
  -28.9108   -4.2082   -5.7825 C   0  0  0  0  0  0  0  0  0  0  0  0
  -29.3281   -4.3789   -7.0983 C   0  0  0  0  0  0  0  0  0  0  0  0
  -29.4356   -5.6624   -7.6455 C   0  0  0  0  0  0  0  0  0  0  0  0
  -29.1084   -6.7952   -6.8909 C   0  0  0  0  0  0  0  0  0  0  0  0
  -28.5888   -6.6312   -5.5958 C   0  0  0  0  0  0  0  0  0  0  0  0
  -28.1557   -7.7580   -4.7001 C   0  0  0  0  0  0  0  0  0  0  0  0
  -28.5179   -5.3279   -5.0533 C   0  0  0  0  0  0  0  0  0  0  0  0
  -28.4267   -0.7421   -4.7485 N   0  0  0  0  0  0  0  0  0  0  0  0
  -28.2222   -1.8447   -5.5718 C   0  0  0  0  0  0  0  0  0  0  0  0
  -27.5469   -1.7560   -6.5867 O   0  0  0  0  0  0  0  0  0  0  0  0
  -28.8885   -2.9534   -5.1236 N   0  0  0  0  0  0  0  0  0  0  0  0
  -28.4806   -0.9563   -3.7630 H   0  0  0  0  0  0  0  0  0  0  0  0
  -29.6365   -2.7697   -4.4707 H   0  0  0  0  0  0  0  0  0  0  0  0
  -28.6392    1.3262   -6.0798 C   0  0  0  0  0  0  0  0  0  0  0  0
  -27.7926    0.4986   -5.1381 C   0  0  0  0  0  0  0  0  0  0  0  0
  -29.2240   -7.9968   -7.5623 O   0  0  0  0  0  0  0  0  0  0  0  0
  -30.4656   -8.6220   -7.6506 C   0  0  0  0  0  0  0  0  0  0  0  0
  -31.5538   -7.9905   -7.1622 N   0  0  0  0  0  0  0  0  0  0  0  0
  -32.6975   -8.6784   -7.1998 C   0  0  0  0  0  0  0  0  0  0  0  0
  -32.8645   -9.8909   -7.7392 N   0  0  0  0  0  0  0  0  0  0  0  0
  -31.7775  -10.4613   -8.2860 C   0  0  0  0  0  0  0  0  0  0  0  0
  -31.9898  -11.7445   -8.7876 N   0  0  0  0  0  0  0  0  0  0  0  0
  -30.5237   -9.8694   -8.2449 C   0  0  0  0  0  0  0  0  0  0  0  0
  -32.9871  -11.9058   -8.8805 H   0  0  0  0  0  0  0  0  0  0  0  0
  -31.4553  -11.9053   -9.6422 H   0  0  0  0  0  0  0  0  0  0  0  0
  -29.3345  -10.4947   -8.8423 C   0  0  0  0  0  0  0  0  0  0  0  0
  -29.3020  -10.8074  -10.1013 N   0  0  0  0  0  0  0  0  0  0  0  0
  -28.0492  -11.3540  -10.4135 O   0  0  0  0  0  0  0  0  0  0  0  0
  -27.1602  -10.2849  -10.7211 C   0  0  0  0  0  0  0  0  0  0  0  0
 14 15  1  0  0  0
 15  8  1  0  0  0
  8  9  1  0  0  0
  8 12  1  0  0  0
  9 10  2  0  0  0
  9 11  1  0  0  0
 11  1  1  0  0  0
 11 13  1  0  0  0
  1  2  1  0  0  0
  1  7  2  0  0  0
  2  3  2  0  0  0
  3  4  1  0  0  0
  4 16  1  0  0  0
  4  5  2  0  0  0
 16 17  1  0  0  0
 17 18  1  0  0  0
 17 23  2  0  0  0
 18 19  2  0  0  0
 19 20  1  0  0  0
 20 21  2  0  0  0
 21 22  1  0  0  0
 21 23  1  0  0  0
 22 24  1  0  0  0
 22 25  1  0  0  0
 23 26  1  0  0  0
 26 27  2  0  0  0
 27 28  1  0  0  0
 28 29  1  0  0  0
  5  6  1  0  0  0
  5  7  1  0  0  0
M  END
> <minimizedAffinity>
-7.60778

$$$$
