CHEMBL4085010


 29 32  0  0  0  0  0  0  0  0999 V2000
  -23.6692    0.0515  -13.0410 C   0  0  0  0  0  0  0  0  0  0  0  0
  -22.6660   -0.6757  -13.6717 C   0  0  0  0  0  0  0  0  0  0  0  0
  -21.6782   -0.0581  -14.4345 C   0  0  0  0  0  0  0  0  0  0  0  0
  -21.5747    1.3311  -14.5021 C   0  0  0  0  0  0  0  0  0  0  0  0
  -22.4991    2.0879  -13.7789 C   0  0  0  0  0  0  0  0  0  0  0  0
  -23.5429    1.4534  -13.0732 C   0  0  0  0  0  0  0  0  0  0  0  0
  -25.8647   -0.9428  -15.7042 C   0  0  0  0  0  0  0  0  0  0  0  0
  -26.3791   -1.4079  -14.3867 C   0  0  0  0  0  0  0  0  0  0  0  0
  -27.5225   -2.1123  -14.4058 N   0  0  0  0  0  0  0  0  0  0  0  0
  -27.7637   -2.3715  -13.1148 N   0  0  0  0  0  0  0  0  0  0  0  0
  -26.8211   -1.8825  -12.2662 C   0  0  0  0  0  0  0  0  0  0  0  0
  -26.8543   -2.0244  -10.9296 N   0  0  0  0  0  0  0  0  0  0  0  0
  -25.8025   -1.4576  -10.3138 C   0  0  0  0  0  0  0  0  0  0  0  0
  -24.7706   -0.7837  -10.9489 C   0  0  0  0  0  0  0  0  0  0  0  0
  -24.7677   -0.6448  -12.3521 C   0  0  0  0  0  0  0  0  0  0  0  0
  -25.8659   -1.2371  -13.0481 C   0  0  0  0  0  0  0  0  0  0  0  0
  -28.5946   -2.8899  -12.8615 H   0  0  0  0  0  0  0  0  0  0  0  0
  -20.5490    1.9850  -15.2375 N   0  0  0  0  0  0  0  0  0  0  0  0
  -19.2425    1.5804  -15.2256 C   0  0  0  0  0  0  0  0  0  0  0  0
  -18.7723    0.5812  -14.7194 O   0  0  0  0  0  0  0  0  0  0  0  0
  -18.3743    2.5150  -15.8795 N   0  0  0  0  0  0  0  0  0  0  0  0
  -20.8352    2.7660  -15.8100 H   0  0  0  0  0  0  0  0  0  0  0  0
  -18.7387    3.3844  -16.2325 H   0  0  0  0  0  0  0  0  0  0  0  0
  -16.9890    2.3020  -15.9088 C   0  0  0  0  0  0  0  0  0  0  0  0
  -15.9700    3.2250  -15.8276 C   0  0  0  0  0  0  0  0  0  0  0  0
  -14.7822    2.4907  -15.9984 C   0  0  0  0  0  0  0  0  0  0  0  0
  -15.0202    1.1856  -16.1271 N   0  0  0  0  0  0  0  0  0  0  0  0
  -16.3595    1.0930  -16.0446 N   0  0  0  0  0  0  0  0  0  0  0  0
  -16.7696    0.1734  -16.1426 H   0  0  0  0  0  0  0  0  0  0  0  0
  7  8  1  0  0  0
  8  9  2  0  0  0
  8 16  1  0  0  0
  9 10  1  0  0  0
 10 11  1  0  0  0
 10 17  1  0  0  0
 11 12  1  0  0  0
 11 16  2  0  0  0
 12 13  2  0  0  0
 13 14  1  0  0  0
 14 15  2  0  0  0
 15  1  1  0  0  0
 15 16  1  0  0  0
  1  2  1  0  0  0
  1  6  2  0  0  0
  2  3  2  0  0  0
  3  4  1  0  0  0
  4 18  1  0  0  0
  4  5  2  0  0  0
 18 19  1  0  0  0
 18 22  1  0  0  0
 19 20  2  0  0  0
 19 21  1  0  0  0
 21 24  1  0  0  0
 21 23  1  0  0  0
 24 25  2  0  0  0
 24 28  1  0  0  0
 25 26  1  0  0  0
 26 27  2  0  0  0
 27 28  1  0  0  0
 28 29  1  0  0  0
  5  6  1  0  0  0
M  END
> <minimizedAffinity>
-8.67751

$$$$
