CHEMBL2088113


 27 29  0  0  0  0  0  0  0  0999 V2000
  -28.6759   -3.3220   -6.9327 C   0  0  0  0  0  0  0  0  0  0  0  0
  -28.2426   -3.5154   -8.2064 N   0  0  0  0  0  0  0  0  0  0  0  0
  -27.5871   -2.5149   -8.8173 C   0  0  0  0  0  0  0  0  0  0  0  0
  -27.3567   -1.3235   -8.2614 N   0  0  0  0  0  0  0  0  0  0  0  0
  -27.8278   -1.1410   -7.0141 C   0  0  0  0  0  0  0  0  0  0  0  0
  -28.4942   -2.1026   -6.2900 C   0  0  0  0  0  0  0  0  0  0  0  0
  -29.2490   -1.5708   -4.6359 Br  0  0  0  0  0  0  0  0  0  0  0  0
  -29.3691   -4.4079   -6.3720 N   0  0  0  0  0  0  0  0  0  0  0  0
  -30.1766   -4.6190   -6.9459 H   0  0  0  0  0  0  0  0  0  0  0  0
  -28.4305   -7.4563   -4.9155 C   0  0  0  0  0  0  0  0  0  0  0  0
  -28.6619   -6.6960   -6.0420 C   0  0  0  0  0  0  0  0  0  0  0  0
  -28.8979   -5.3849   -5.5661 C   0  0  0  0  0  0  0  0  0  0  0  0
  -28.6381   -5.2982   -4.2590 N   0  0  0  0  0  0  0  0  0  0  0  0
  -28.3685   -6.5575   -3.8876 N   0  0  0  0  0  0  0  0  0  0  0  0
  -28.2124   -6.7443   -2.9024 H   0  0  0  0  0  0  0  0  0  0  0  0
  -28.3142   -8.9261   -4.7111 C   0  0  0  0  0  0  0  0  0  0  0  0
  -25.8506   -9.0385   -4.1635 C   0  0  0  0  0  0  0  0  0  0  0  0
  -27.2631   -9.2657   -3.6483 C   0  0  0  0  0  0  0  0  0  0  0  0
  -27.1015   -2.6510  -10.1114 N   0  0  0  0  0  0  0  0  0  0  0  0
  -27.4633   -3.5425  -10.4385 H   0  0  0  0  0  0  0  0  0  0  0  0
  -27.4059   -1.5311  -10.9814 C   0  0  0  0  0  0  0  0  0  0  0  0
  -26.3139   -1.3173  -12.0043 C   0  0  0  0  0  0  0  0  0  0  0  0
  -26.4076   -1.7388  -13.3350 C   0  0  0  0  0  0  0  0  0  0  0  0
  -25.3343   -1.5597  -14.2010 C   0  0  0  0  0  0  0  0  0  0  0  0
  -24.1784   -0.9691  -13.7089 C   0  0  0  0  0  0  0  0  0  0  0  0
  -24.0399   -0.5615  -12.4343 N   0  0  0  0  0  0  0  0  0  0  0  0
  -25.1032   -0.7499  -11.6126 C   0  0  0  0  0  0  0  0  0  0  0  0
 17 18  1  0  0  0
 18 16  1  0  0  0
 16 10  1  0  0  0
 10 11  2  0  0  0
 10 14  1  0  0  0
 11 12  1  0  0  0
 12  8  1  0  0  0
 12 13  2  0  0  0
  8  1  1  0  0  0
  8  9  1  0  0  0
  1  2  1  0  0  0
  1  6  2  0  0  0
  2  3  2  0  0  0
  3 19  1  0  0  0
  3  4  1  0  0  0
 19 21  1  0  0  0
 19 20  1  0  0  0
 21 22  1  0  0  0
 22 23  1  0  0  0
 22 27  2  0  0  0
 23 24  2  0  0  0
 24 25  1  0  0  0
 25 26  2  0  0  0
 26 27  1  0  0  0
  4  5  2  0  0  0
  5  6  1  0  0  0
  6  7  1  0  0  0
 13 14  1  0  0  0
 14 15  1  0  0  0
M  END
> <minimizedAffinity>
-8.06817

$$$$
