CHEMBL3623375


 39 42  0  0  0  0  0  0  0  0999 V2000
  -15.2632   -0.6920  -13.2234 C   0  0  0  0  0  0  0  0  0  0  0  0
  -15.9079   -1.2974  -12.1374 C   0  0  0  0  0  0  0  0  0  0  0  0
  -15.3076   -2.3398  -11.4375 C   0  0  0  0  0  0  0  0  0  0  0  0
  -14.0461   -2.7847  -11.8089 C   0  0  0  0  0  0  0  0  0  0  0  0
  -13.3877   -2.1799  -12.8894 C   0  0  0  0  0  0  0  0  0  0  0  0
  -13.9909   -1.1336  -13.5928 C   0  0  0  0  0  0  0  0  0  0  0  0
  -18.4534    2.6397  -14.9553 C   0  0  0  0  0  0  0  0  0  0  0  0
  -18.0492    3.5287  -15.8860 C   0  0  0  0  0  0  0  0  0  0  0  0
  -16.3456    3.3444  -16.3385 S   0  0  0  0  0  0  0  0  0  0  0  0
  -16.2389    2.0107  -15.2329 C   0  0  0  0  0  0  0  0  0  0  0  0
  -15.2881    1.1923  -14.8743 N   0  0  0  0  0  0  0  0  0  0  0  0
  -15.9133    0.3779  -13.9489 C   0  0  0  0  0  0  0  0  0  0  0  0
  -17.2529    0.7049  -13.8065 C   0  0  0  0  0  0  0  0  0  0  0  0
  -17.4305    1.7867  -14.6102 N   0  0  0  0  0  0  0  0  0  0  0  0
  -20.5187    1.4530  -14.5557 N   0  0  0  0  0  0  0  0  0  0  0  0
  -19.8464    2.6453  -14.4659 C   0  0  0  0  0  0  0  0  0  0  0  0
  -20.3386    3.6637  -13.9950 O   0  0  0  0  0  0  0  0  0  0  0  0
  -20.0584    0.6090  -14.8654 H   0  0  0  0  0  0  0  0  0  0  0  0
  -21.9080    1.3192  -14.1594 C   0  0  0  0  0  0  0  0  0  0  0  0
  -22.2582   -0.0963  -13.7004 C   0  0  0  0  0  0  0  0  0  0  0  0
  -23.7211   -0.4945  -13.9526 C   0  0  0  0  0  0  0  0  0  0  0  0
  -23.3246   -2.0645  -12.1335 C   0  0  0  0  0  0  0  0  0  0  0  0
  -24.3302   -1.3014  -12.8797 N   0  0  0  0  0  0  0  0  0  0  0  0
  -25.0640   -0.4318  -11.9524 C   0  0  0  0  0  0  0  0  0  0  0  0
  -13.3795   -3.8218  -11.1512 N   0  0  0  0  0  0  0  0  0  0  0  0
  -12.9068   -3.8769   -9.8660 C   0  0  0  0  0  0  0  0  0  0  0  0
  -12.9760   -2.9852   -9.0228 O   0  0  0  0  0  0  0  0  0  0  0  0
  -12.3622   -5.0775   -9.4858 N   0  0  0  0  0  0  0  0  0  0  0  0
  -13.2092   -4.6559  -11.7050 H   0  0  0  0  0  0  0  0  0  0  0  0
  -12.1398   -5.1421   -8.5037 H   0  0  0  0  0  0  0  0  0  0  0  0
  -12.1379   -6.1738  -10.2877 C   0  0  0  0  0  0  0  0  0  0  0  0
  -13.0774   -6.7436  -11.1688 C   0  0  0  0  0  0  0  0  0  0  0  0
  -12.3944   -7.7698  -11.7839 C   0  0  0  0  0  0  0  0  0  0  0  0
  -11.1393   -7.8304  -11.2706 O   0  0  0  0  0  0  0  0  0  0  0  0
  -10.9755   -6.8334  -10.3468 N   0  0  0  0  0  0  0  0  0  0  0  0
  -12.7388   -8.7543  -12.8606 C   0  0  0  0  0  0  0  0  0  0  0  0
  -12.1143   -8.2826  -14.1846 C   0  0  0  0  0  0  0  0  0  0  0  0
  -12.1987  -10.1603  -12.5333 C   0  0  0  0  0  0  0  0  0  0  0  0
  -14.2671   -8.8317  -12.9985 C   0  0  0  0  0  0  0  0  0  0  0  0
 22 23  1  0  0  0
 23 24  1  0  0  0
 23 21  1  0  0  0
 21 20  1  0  0  0
 20 19  1  0  0  0
 19 15  1  0  0  0
 15 16  1  0  0  0
 15 18  1  0  0  0
 16 17  2  0  0  0
 16  7  1  0  0  0
  7  8  2  0  0  0
  7 14  1  0  0  0
  8  9  1  0  0  0
  9 10  1  0  0  0
 10 11  2  0  0  0
 10 14  1  0  0  0
 11 12  1  0  0  0
 12  1  1  0  0  0
 12 13  2  0  0  0
  1  2  1  0  0  0
  1  6  2  0  0  0
  2  3  2  0  0  0
  3  4  1  0  0  0
  4 25  1  0  0  0
  4  5  2  0  0  0
 25 26  1  0  0  0
 25 29  1  0  0  0
 26 27  2  0  0  0
 26 28  1  0  0  0
 28 31  1  0  0  0
 28 30  1  0  0  0
 31 32  1  0  0  0
 31 35  2  0  0  0
 32 33  2  0  0  0
 33 36  1  0  0  0
 33 34  1  0  0  0
 36 37  1  0  0  0
 36 38  1  0  0  0
 36 39  1  0  0  0
 34 35  1  0  0  0
  5  6  1  0  0  0
 13 14  1  0  0  0
M  END
> <minimizedAffinity>
-8.28389

$$$$
