CHEMBL3920036


 32 36  0  0  0  0  0  0  0  0999 V2000
  -29.5337   -6.3851   -4.6589 C   0  0  0  0  0  0  0  0  0  0  0  0
  -29.1408   -7.7046   -4.9285 C   0  0  0  0  0  0  0  0  0  0  0  0
  -28.5733   -8.0807   -6.1742 C   0  0  0  0  0  0  0  0  0  0  0  0
  -27.9402   -9.3019   -6.4823 C   0  0  0  0  0  0  0  0  0  0  0  0
  -27.6765   -9.6600   -7.7536 N   0  0  0  0  0  0  0  0  0  0  0  0
  -27.9257   -8.7475   -8.6977 C   0  0  0  0  0  0  0  0  0  0  0  0
  -28.3449   -7.4982   -8.4912 N   0  0  0  0  0  0  0  0  0  0  0  0
  -28.6490   -7.1708   -7.2331 C   0  0  0  0  0  0  0  0  0  0  0  0
  -29.0361   -5.8623   -6.9699 C   0  0  0  0  0  0  0  0  0  0  0  0
  -29.3808   -5.4401   -5.6811 C   0  0  0  0  0  0  0  0  0  0  0  0
  -31.3753   -5.8954   -3.1634 C   0  0  0  0  0  0  0  0  0  0  0  0
  -29.9799   -5.9360   -3.4496 O   0  0  0  0  0  0  0  0  0  0  0  0
  -27.4926  -10.2695   -5.5679 N   0  0  0  0  0  0  0  0  0  0  0  0
  -27.7030  -11.1627   -6.0160 H   0  0  0  0  0  0  0  0  0  0  0  0
  -26.3789  -10.3850   -4.7067 C   0  0  0  0  0  0  0  0  0  0  0  0
  -25.1409   -9.8984   -5.1664 C   0  0  0  0  0  0  0  0  0  0  0  0
  -23.9514  -10.1253   -4.4616 C   0  0  0  0  0  0  0  0  0  0  0  0
  -23.9682  -10.8885   -3.2963 C   0  0  0  0  0  0  0  0  0  0  0  0
  -22.4602  -11.2433   -2.5353 Cl  0  0  0  0  0  0  0  0  0  0  0  0
  -25.1882  -11.3468   -2.8010 C   0  0  0  0  0  0  0  0  0  0  0  0
  -25.3022  -12.3301   -1.3823 Cl  0  0  0  0  0  0  0  0  0  0  0  0
  -26.3800  -11.0538   -3.4811 C   0  0  0  0  0  0  0  0  0  0  0  0
  -29.6364   -4.1013   -5.4378 O   0  0  0  0  0  0  0  0  0  0  0  0
  -28.7375   -3.5098   -4.4722 C   0  0  0  0  0  0  0  0  0  0  0  0
  -29.4342   -2.3524   -3.7461 C   0  0  0  0  0  0  0  0  0  0  0  0
  -29.0183   -1.0874   -4.4789 C   0  0  0  0  0  0  0  0  0  0  0  0
  -29.7841   -0.7999   -5.7604 C   0  0  0  0  0  0  0  0  0  0  0  0
  -28.8445   -0.0516   -6.6073 N   0  0  0  0  0  0  0  0  0  0  0  0
  -29.0278    1.3912   -6.4586 C   0  0  0  0  0  0  0  0  0  0  0  0
  -27.4850   -0.4891   -6.2297 C   0  0  0  0  0  0  0  0  0  0  0  0
  -27.6033   -1.3404   -4.9629 C   0  0  0  0  0  0  0  0  0  0  0  0
  -27.5081   -2.8668   -5.1511 C   0  0  0  0  0  0  0  0  0  0  0  0
 11 12  1  0  0  0
 12  1  1  0  0  0
  1  2  1  0  0  0
  1 10  2  0  0  0
  2  3  2  0  0  0
  3  4  1  0  0  0
  3  8  1  0  0  0
  4 13  1  0  0  0
  4  5  2  0  0  0
 13 15  1  0  0  0
 13 14  1  0  0  0
 15 16  1  0  0  0
 15 22  2  0  0  0
 16 17  2  0  0  0
 17 18  1  0  0  0
 18 19  1  0  0  0
 18 20  2  0  0  0
 20 21  1  0  0  0
 20 22  1  0  0  0
  5  6  1  0  0  0
  6  7  2  0  0  0
  7  8  1  0  0  0
  8  9  2  0  0  0
  9 10  1  0  0  0
 10 23  1  0  0  0
 23 24  1  0  0  0
 24 25  1  0  0  0
 24 32  1  0  0  0
 25 26  1  0  0  0
 26 27  1  0  0  0
 26 31  1  0  0  0
 27 28  1  0  0  0
 28 29  1  0  0  0
 28 30  1  0  0  0
 30 31  1  0  0  0
 31 32  1  0  0  0
M  END
> <minimizedAffinity>
-8.51452

$$$$
