CHEMBL3690576


 36 39  0  0  0  0  0  0  0  0999 V2000
  -26.4185   10.5679  -16.2523 C   0  0  0  0  0  0  0  0  0  0  0  0
  -27.0754    9.5915  -16.9845 C   0  0  0  0  0  0  0  0  0  0  0  0
  -28.3103    9.2945  -16.4684 N   0  0  0  0  0  0  0  0  0  0  0  0
  -28.4519   10.0888  -15.4292 C   0  0  0  0  0  0  0  0  0  0  0  0
  -29.5403   10.2496  -14.5176 C   0  0  0  0  0  0  0  0  0  0  0  0
  -29.4805   11.1484  -13.5027 C   0  0  0  0  0  0  0  0  0  0  0  0
  -28.2819   11.9859  -13.3714 C   0  0  0  0  0  0  0  0  0  0  0  0
  -27.2739   11.8617  -14.2443 C   0  0  0  0  0  0  0  0  0  0  0  0
  -27.3355   10.9035  -15.2565 N   0  0  0  0  0  0  0  0  0  0  0  0
  -23.2563   11.8142  -17.9410 C   0  0  0  0  0  0  0  0  0  0  0  0
  -22.7336   12.6202  -16.9284 C   0  0  0  0  0  0  0  0  0  0  0  0
  -23.3331   12.6589  -15.6740 C   0  0  0  0  0  0  0  0  0  0  0  0
  -24.4835   11.9168  -15.4320 C   0  0  0  0  0  0  0  0  0  0  0  0
  -25.1050   11.1940  -16.4579 C   0  0  0  0  0  0  0  0  0  0  0  0
  -24.4520   11.1135  -17.7028 C   0  0  0  0  0  0  0  0  0  0  0  0
  -20.4595   12.3765  -18.7765 O   0  0  0  0  0  0  0  0  0  0  0  0
  -21.3267   11.9266  -19.5137 C   0  0  0  0  0  0  0  0  0  0  0  0
  -21.0383   11.6002  -20.8250 N   0  0  0  0  0  0  0  0  0  0  0  0
  -22.6365   11.6564  -19.1988 N   0  0  0  0  0  0  0  0  0  0  0  0
  -21.8097   11.6750  -21.4725 H   0  0  0  0  0  0  0  0  0  0  0  0
  -23.1929   11.2320  -19.9243 H   0  0  0  0  0  0  0  0  0  0  0  0
  -19.7139   11.9434  -21.3591 C   0  0  0  0  0  0  0  0  0  0  0  0
  -18.6559   10.8385  -21.2313 C   0  0  0  0  0  0  0  0  0  0  0  0
  -19.2164    9.6281  -20.9997 F   0  0  0  0  0  0  0  0  0  0  0  0
  -17.8776   10.7395  -22.3274 F   0  0  0  0  0  0  0  0  0  0  0  0
  -17.8428   11.0980  -20.1768 F   0  0  0  0  0  0  0  0  0  0  0  0
  -30.6574   11.3215  -12.6081 C   0  0  0  0  0  0  0  0  0  0  0  0
  -31.7626   10.4954  -12.7185 C   0  0  0  0  0  0  0  0  0  0  0  0
  -32.7744   10.6564  -11.7849 C   0  0  0  0  0  0  0  0  0  0  0  0
  -32.6942   11.5995  -10.8115 N   0  0  0  0  0  0  0  0  0  0  0  0
  -31.5935   12.3629  -10.8022 C   0  0  0  0  0  0  0  0  0  0  0  0
  -30.5678   12.2698  -11.6569 N   0  0  0  0  0  0  0  0  0  0  0  0
  -33.9918    9.7468  -11.8333 C   0  0  0  0  0  0  0  0  0  0  0  0
  -35.0016   10.1615  -11.0086 F   0  0  0  0  0  0  0  0  0  0  0  0
  -34.5516    9.6678  -13.0739 F   0  0  0  0  0  0  0  0  0  0  0  0
  -33.7182    8.4676  -11.4542 F   0  0  0  0  0  0  0  0  0  0  0  0
 16 17  2  0  0  0
 17 18  1  0  0  0
 17 19  1  0  0  0
 18 22  1  0  0  0
 18 20  1  0  0  0
 22 23  1  0  0  0
 23 24  1  0  0  0
 23 25  1  0  0  0
 23 26  1  0  0  0
 19 10  1  0  0  0
 19 21  1  0  0  0
 10 11  1  0  0  0
 10 15  2  0  0  0
 11 12  2  0  0  0
 12 13  1  0  0  0
 13 14  2  0  0  0
 14  1  1  0  0  0
 14 15  1  0  0  0
  1  2  2  0  0  0
  1  9  1  0  0  0
  2  3  1  0  0  0
  3  4  2  0  0  0
  4  5  1  0  0  0
  4  9  1  0  0  0
  5  6  2  0  0  0
  6 27  1  0  0  0
  6  7  1  0  0  0
 27 28  1  0  0  0
 27 32  2  0  0  0
 28 29  2  0  0  0
 29 33  1  0  0  0
 29 30  1  0  0  0
 33 34  1  0  0  0
 33 35  1  0  0  0
 33 36  1  0  0  0
 30 31  2  0  0  0
 31 32  1  0  0  0
  7  8  2  0  0  0
  8  9  1  0  0  0
M  END
> <minimizedAffinity>
-5.80762

$$$$
