CHEMBL361898


 34 37  0  0  0  0  0  0  0  0999 V2000
  -28.7099   -3.1393   -7.2327 C   0  0  0  0  0  0  0  0  0  0  0  0
  -28.6033   -1.9777   -6.4673 C   0  0  0  0  0  0  0  0  0  0  0  0
  -27.9983   -0.8352   -6.8634 N   0  0  0  0  0  0  0  0  0  0  0  0
  -27.5055   -0.8238   -8.1250 C   0  0  0  0  0  0  0  0  0  0  0  0
  -27.6051   -1.8817   -9.0278 C   0  0  0  0  0  0  0  0  0  0  0  0
  -28.2139   -3.0532   -8.5381 C   0  0  0  0  0  0  0  0  0  0  0  0
  -27.1155   -1.7610  -10.4105 C   0  0  0  0  0  0  0  0  0  0  0  0
  -27.9427   -1.8372  -11.5281 C   0  0  0  0  0  0  0  0  0  0  0  0
  -27.4860   -1.7493  -12.7995 N   0  0  0  0  0  0  0  0  0  0  0  0
  -26.1483   -1.5804  -12.9115 C   0  0  0  0  0  0  0  0  0  0  0  0
  -25.2881   -1.4571  -11.8204 C   0  0  0  0  0  0  0  0  0  0  0  0
  -25.7821   -1.5539  -10.5616 N   0  0  0  0  0  0  0  0  0  0  0  0
  -23.8966   -1.3120  -12.0209 N   0  0  0  0  0  0  0  0  0  0  0  0
  -23.4711   -2.1789  -12.3333 H   0  0  0  0  0  0  0  0  0  0  0  0
  -23.2833   -0.2271  -12.6947 C   0  0  0  0  0  0  0  0  0  0  0  0
  -23.7901    1.0795  -12.6191 C   0  0  0  0  0  0  0  0  0  0  0  0
  -23.2052    2.1199  -13.3436 C   0  0  0  0  0  0  0  0  0  0  0  0
  -22.1121    1.8627  -14.1639 C   0  0  0  0  0  0  0  0  0  0  0  0
  -21.6142    0.5640  -14.2642 C   0  0  0  0  0  0  0  0  0  0  0  0
  -20.2676    0.2466  -15.2849 Cl  0  0  0  0  0  0  0  0  0  0  0  0
  -22.2030   -0.4785  -13.5446 C   0  0  0  0  0  0  0  0  0  0  0  0
  -29.4139   -4.2480   -6.7461 N   0  0  0  0  0  0  0  0  0  0  0  0
  -29.9816   -4.6777   -7.4741 H   0  0  0  0  0  0  0  0  0  0  0  0
  -30.1579   -4.1056   -5.4924 C   0  0  0  0  0  0  0  0  0  0  0  0
  -29.6119   -5.0861   -4.4502 C   0  0  0  0  0  0  0  0  0  0  0  0
  -30.3912   -6.4030   -4.3662 C   0  0  0  0  0  0  0  0  0  0  0  0
  -28.7630   -8.1645   -4.4836 O   0  0  0  0  0  0  0  0  0  0  0  0
  -29.6837   -7.5669   -5.0431 C   0  0  0  0  0  0  0  0  0  0  0  0
  -30.1343   -7.9345   -6.3030 N   0  0  0  0  0  0  0  0  0  0  0  0
  -31.2808   -7.3603   -7.0065 C   0  0  0  0  0  0  0  0  0  0  0  0
  -32.3526   -8.4268   -7.2340 C   0  0  0  0  0  0  0  0  0  0  0  0
  -31.7731   -9.6677   -7.9163 C   0  0  0  0  0  0  0  0  0  0  0  0
  -30.5406  -10.1873   -7.1745 C   0  0  0  0  0  0  0  0  0  0  0  0
  -29.5147   -9.0760   -6.9711 C   0  0  0  0  0  0  0  0  0  0  0  0
 27 28  2  0  0  0
 28 26  1  0  0  0
 28 29  1  0  0  0
 26 25  1  0  0  0
 25 24  1  0  0  0
 24 22  1  0  0  0
 22  1  1  0  0  0
 22 23  1  0  0  0
  1  2  1  0  0  0
  1  6  2  0  0  0
  2  3  2  0  0  0
  3  4  1  0  0  0
  4  5  2  0  0  0
  5  7  1  0  0  0
  5  6  1  0  0  0
  7  8  1  0  0  0
  7 12  2  0  0  0
  8  9  2  0  0  0
  9 10  1  0  0  0
 10 11  2  0  0  0
 11 13  1  0  0  0
 11 12  1  0  0  0
 13 15  1  0  0  0
 13 14  1  0  0  0
 15 16  1  0  0  0
 15 21  2  0  0  0
 16 17  2  0  0  0
 17 18  1  0  0  0
 18 19  2  0  0  0
 19 20  1  0  0  0
 19 21  1  0  0  0
 29 30  1  0  0  0
 29 34  1  0  0  0
 30 31  1  0  0  0
 31 32  1  0  0  0
 32 33  1  0  0  0
 33 34  1  0  0  0
M  END
> <minimizedAffinity>
-8.81065

$$$$
