CHEMBL244096


 37 40  0  0  0  0  0  0  0  0999 V2000
  -17.1377    1.5552  -15.2459 C   0  0  0  0  0  0  0  0  0  0  0  0
  -16.0941    1.2117  -16.0928 C   0  0  0  0  0  0  0  0  0  0  0  0
  -15.0043    0.4900  -15.6006 C   0  0  0  0  0  0  0  0  0  0  0  0
  -14.9391    0.0792  -14.2614 C   0  0  0  0  0  0  0  0  0  0  0  0
  -15.9534    0.5023  -13.4006 C   0  0  0  0  0  0  0  0  0  0  0  0
  -17.0365    1.2564  -13.8841 C   0  0  0  0  0  0  0  0  0  0  0  0
  -13.9032   -0.7429  -13.7402 N   0  0  0  0  0  0  0  0  0  0  0  0
  -14.1077   -1.9129  -13.0310 C   0  0  0  0  0  0  0  0  0  0  0  0
  -15.2184   -2.3497  -12.7493 O   0  0  0  0  0  0  0  0  0  0  0  0
  -12.9319   -2.5551  -12.6651 N   0  0  0  0  0  0  0  0  0  0  0  0
  -12.9546   -0.4167  -13.8541 H   0  0  0  0  0  0  0  0  0  0  0  0
  -12.1119   -1.9849  -12.5314 H   0  0  0  0  0  0  0  0  0  0  0  0
  -12.9224   -3.8553  -12.0774 C   0  0  0  0  0  0  0  0  0  0  0  0
  -12.6171   -4.0495  -10.7248 C   0  0  0  0  0  0  0  0  0  0  0  0
  -12.5092   -5.3248  -10.1811 C   0  0  0  0  0  0  0  0  0  0  0  0
  -12.7603   -6.4354  -10.9744 C   0  0  0  0  0  0  0  0  0  0  0  0
  -13.1579   -6.2762  -12.3057 C   0  0  0  0  0  0  0  0  0  0  0  0
  -13.2247   -4.9795  -12.8568 C   0  0  0  0  0  0  0  0  0  0  0  0
  -13.5417   -7.6783  -13.3527 S   0  0  0  0  0  0  0  0  0  0  0  0
  -13.3447   -9.0721  -12.1993 C   0  0  0  0  0  0  0  0  0  0  0  0
  -18.1964    2.2103  -15.8338 O   0  0  0  0  0  0  0  0  0  0  0  0
  -23.2367    0.3429  -13.5942 C   0  0  0  0  0  0  0  0  0  0  0  0
  -23.2001    1.6532  -13.6264 N   0  0  0  0  0  0  0  0  0  0  0  0
  -21.9657    1.9891  -14.0986 C   0  0  0  0  0  0  0  0  0  0  0  0
  -21.4199    3.2562  -14.3252 C   0  0  0  0  0  0  0  0  0  0  0  0
  -20.1301    3.3405  -14.8551 C   0  0  0  0  0  0  0  0  0  0  0  0
  -19.4261    2.1817  -15.2090 C   0  0  0  0  0  0  0  0  0  0  0  0
  -19.9288    0.9050  -14.9175 C   0  0  0  0  0  0  0  0  0  0  0  0
  -21.2128    0.8537  -14.3715 C   0  0  0  0  0  0  0  0  0  0  0  0
  -22.0329   -0.1839  -13.9946 N   0  0  0  0  0  0  0  0  0  0  0  0
  -21.8016   -1.1653  -14.0448 H   0  0  0  0  0  0  0  0  0  0  0  0
  -24.1435   -1.4074  -12.2493 C   0  0  0  0  0  0  0  0  0  0  0  0
  -23.1534   -1.6933  -11.5912 O   0  0  0  0  0  0  0  0  0  0  0  0
  -24.2845   -0.4515  -13.2147 N   0  0  0  0  0  0  0  0  0  0  0  0
  -25.2025   -0.3432  -13.6118 H   0  0  0  0  0  0  0  0  0  0  0  0
  -26.4614   -1.1470  -12.1599 C   0  0  0  0  0  0  0  0  0  0  0  0
  -25.3440   -2.0369  -12.0919 O   0  0  0  0  0  0  0  0  0  0  0  0
 36 37  1  0  0  0
 37 32  1  0  0  0
 32 33  2  0  0  0
 32 34  1  0  0  0
 34 22  1  0  0  0
 34 35  1  0  0  0
 22 23  2  0  0  0
 22 30  1  0  0  0
 23 24  1  0  0  0
 24 25  1  0  0  0
 24 29  2  0  0  0
 25 26  2  0  0  0
 26 27  1  0  0  0
 27 21  1  0  0  0
 27 28  2  0  0  0
 21  1  1  0  0  0
  1  2  1  0  0  0
  1  6  2  0  0  0
  2  3  2  0  0  0
  3  4  1  0  0  0
  4  7  1  0  0  0
  4  5  2  0  0  0
  7  8  1  0  0  0
  7 11  1  0  0  0
  8  9  2  0  0  0
  8 10  1  0  0  0
 10 13  1  0  0  0
 10 12  1  0  0  0
 13 14  1  0  0  0
 13 18  2  0  0  0
 14 15  2  0  0  0
 15 16  1  0  0  0
 16 17  2  0  0  0
 17 19  1  0  0  0
 17 18  1  0  0  0
 19 20  1  0  0  0
  5  6  1  0  0  0
 28 29  1  0  0  0
 29 30  1  0  0  0
 30 31  1  0  0  0
M  END
> <minimizedAffinity>
-9.21062

$$$$
