CHEMBL3656052


 37 40  0  0  0  0  0  0  0  0999 V2000
  -25.8371   -1.3082  -12.4690 C   0  0  0  0  0  0  0  0  0  0  0  0
  -24.5213   -0.8857  -12.3502 C   0  0  0  0  0  0  0  0  0  0  0  0
  -23.7281   -0.8219  -13.4907 C   0  0  0  0  0  0  0  0  0  0  0  0
  -24.3137   -1.0558  -14.7290 C   0  0  0  0  0  0  0  0  0  0  0  0
  -25.6523   -1.4216  -14.7597 C   0  0  0  0  0  0  0  0  0  0  0  0
  -26.4238   -1.5789  -13.6576 N   0  0  0  0  0  0  0  0  0  0  0  0
  -27.5580   -1.6591   -9.1820 C   0  0  0  0  0  0  0  0  0  0  0  0
  -28.4816   -2.1379  -10.0968 C   0  0  0  0  0  0  0  0  0  0  0  0
  -27.9347   -2.0525  -11.3553 N   0  0  0  0  0  0  0  0  0  0  0  0
  -26.6666   -1.5240  -11.2887 C   0  0  0  0  0  0  0  0  0  0  0  0
  -26.4118   -1.2979   -9.9482 C   0  0  0  0  0  0  0  0  0  0  0  0
  -28.3787   -2.3230  -12.2247 H   0  0  0  0  0  0  0  0  0  0  0  0
  -27.9005   -2.6750   -7.0504 N   0  0  0  0  0  0  0  0  0  0  0  0
  -27.6768   -1.5145   -7.7327 C   0  0  0  0  0  0  0  0  0  0  0  0
  -27.5885   -0.4180   -7.1868 O   0  0  0  0  0  0  0  0  0  0  0  0
  -27.9558   -3.5693   -7.5106 H   0  0  0  0  0  0  0  0  0  0  0  0
  -28.2464   -4.1907   -4.6757 C   0  0  0  0  0  0  0  0  0  0  0  0
  -28.1438   -2.6653   -5.4437 S   0  0  0  0  0  0  0  0  0  0  0  0
  -29.4049   -1.6151   -4.8823 C   0  0  0  0  0  0  0  0  0  0  0  0
  -26.9775   -2.0919   -4.8191 O   0  0  0  0  0  0  0  0  0  0  0  0
  -22.3852   -0.4980  -13.4712 O   0  0  0  0  0  0  0  0  0  0  0  0
  -21.9800    0.7551  -13.8998 C   0  0  0  0  0  0  0  0  0  0  0  0
  -22.7078    1.9248  -13.6606 C   0  0  0  0  0  0  0  0  0  0  0  0
  -22.2799    3.1325  -14.1996 C   0  0  0  0  0  0  0  0  0  0  0  0
  -21.0652    3.2000  -14.8782 C   0  0  0  0  0  0  0  0  0  0  0  0
  -20.2523    2.0704  -15.0060 C   0  0  0  0  0  0  0  0  0  0  0  0
  -20.7407    0.8340  -14.5538 C   0  0  0  0  0  0  0  0  0  0  0  0
  -18.9499    2.1318  -15.5508 N   0  0  0  0  0  0  0  0  0  0  0  0
  -17.7618    1.8513  -14.8829 C   0  0  0  0  0  0  0  0  0  0  0  0
  -17.6801    1.5361  -13.6985 O   0  0  0  0  0  0  0  0  0  0  0  0
  -18.8593    2.2549  -16.5543 H   0  0  0  0  0  0  0  0  0  0  0  0
  -16.5811    1.9117  -15.7315 C   0  0  0  0  0  0  0  0  0  0  0  0
  -15.9398    0.7483  -16.0720 O   0  0  0  0  0  0  0  0  0  0  0  0
  -14.8928    1.0854  -16.8651 C   0  0  0  0  0  0  0  0  0  0  0  0
  -14.8340    2.4469  -17.0381 C   0  0  0  0  0  0  0  0  0  0  0  0
  -15.9209    2.9952  -16.3025 C   0  0  0  0  0  0  0  0  0  0  0  0
  -16.2691    4.4336  -16.1679 C   0  0  0  0  0  0  0  0  0  0  0  0
 17 18  2  0  0  0
 18 19  1  0  0  0
 18 20  2  0  0  0
 18 13  1  0  0  0
 13 14  1  0  0  0
 13 16  1  0  0  0
 14 15  2  0  0  0
 14  7  1  0  0  0
  7  8  2  0  0  0
  7 11  1  0  0  0
  8  9  1  0  0  0
  9 10  1  0  0  0
  9 12  1  0  0  0
 10  1  1  0  0  0
 10 11  2  0  0  0
  1  2  1  0  0  0
  1  6  2  0  0  0
  2  3  2  0  0  0
  3 21  1  0  0  0
  3  4  1  0  0  0
 21 22  1  0  0  0
 22 23  1  0  0  0
 22 27  2  0  0  0
 23 24  2  0  0  0
 24 25  1  0  0  0
 25 26  2  0  0  0
 26 28  1  0  0  0
 26 27  1  0  0  0
 28 29  1  0  0  0
 28 31  1  0  0  0
 29 30  2  0  0  0
 29 32  1  0  0  0
 32 33  1  0  0  0
 32 36  2  0  0  0
 33 34  1  0  0  0
 34 35  2  0  0  0
 35 36  1  0  0  0
 36 37  1  0  0  0
  4  5  2  0  0  0
  5  6  1  0  0  0
M  END
> <minimizedAffinity>
-9.98131

$$$$
