CHEMBL512863


 29 31  0  0  0  0  0  0  0  0999 V2000
  -28.3393   -5.0100   -5.0531 N   0  0  0  0  0  0  0  0  0  0  0  0
  -29.3672   -5.9468   -5.0135 C   0  0  0  0  0  0  0  0  0  0  0  0
  -30.5383   -5.6419   -5.1728 O   0  0  0  0  0  0  0  0  0  0  0  0
  -27.4000   -5.3949   -5.0196 H   0  0  0  0  0  0  0  0  0  0  0  0
  -27.8030   -0.8597   -7.7323 C   0  0  0  0  0  0  0  0  0  0  0  0
  -28.2936   -1.5103   -6.4650 C   0  0  0  0  0  0  0  0  0  0  0  0
  -28.1204   -2.8995   -6.3355 C   0  0  0  0  0  0  0  0  0  0  0  0
  -28.5175   -3.6136   -5.1964 C   0  0  0  0  0  0  0  0  0  0  0  0
  -29.1222   -2.9088   -4.1609 C   0  0  0  0  0  0  0  0  0  0  0  0
  -29.3107   -1.5236   -4.2709 C   0  0  0  0  0  0  0  0  0  0  0  0
  -28.9021   -0.8027   -5.4171 C   0  0  0  0  0  0  0  0  0  0  0  0
  -29.1515    0.6884   -5.4441 C   0  0  0  0  0  0  0  0  0  0  0  0
  -28.9089    1.2991   -6.6358 F   0  0  0  0  0  0  0  0  0  0  0  0
  -30.4443    0.9947   -5.1353 F   0  0  0  0  0  0  0  0  0  0  0  0
  -28.3882    1.3539   -4.5311 F   0  0  0  0  0  0  0  0  0  0  0  0
  -28.9653   -7.3470   -4.7932 C   0  0  0  0  0  0  0  0  0  0  0  0
  -29.0906   -7.8506   -3.5514 N   0  0  0  0  0  0  0  0  0  0  0  0
  -28.4413   -9.3684   -3.5028 S   0  0  0  0  0  0  0  0  0  0  0  0
  -28.0012   -9.4334   -5.1457 C   0  0  0  0  0  0  0  0  0  0  0  0
  -28.3874   -8.2675   -5.7778 C   0  0  0  0  0  0  0  0  0  0  0  0
  -28.1492   -8.1295   -7.1190 N   0  0  0  0  0  0  0  0  0  0  0  0
  -27.2916   -8.5037   -7.5174 H   0  0  0  0  0  0  0  0  0  0  0  0
  -29.1592   -7.9046   -8.1517 C   0  0  0  0  0  0  0  0  0  0  0  0
  -30.4276   -8.7089   -7.9444 C   0  0  0  0  0  0  0  0  0  0  0  0
  -30.5490  -10.0522   -8.3157 C   0  0  0  0  0  0  0  0  0  0  0  0
  -31.7741  -10.6851   -8.1645 C   0  0  0  0  0  0  0  0  0  0  0  0
  -32.8758  -10.0901   -7.6610 N   0  0  0  0  0  0  0  0  0  0  0  0
  -32.7480   -8.7927   -7.3155 C   0  0  0  0  0  0  0  0  0  0  0  0
  -31.5666   -8.0727   -7.4293 C   0  0  0  0  0  0  0  0  0  0  0  0
  5  6  1  0  0  0
  6  7  1  0  0  0
  6 11  2  0  0  0
  7  8  2  0  0  0
  8  1  1  0  0  0
  8  9  1  0  0  0
  1  2  1  0  0  0
  1  4  1  0  0  0
  2  3  2  0  0  0
  2 16  1  0  0  0
 16 17  2  0  0  0
 16 20  1  0  0  0
 17 18  1  0  0  0
 18 19  1  0  0  0
 19 20  2  0  0  0
 20 21  1  0  0  0
 21 23  1  0  0  0
 21 22  1  0  0  0
 23 24  1  0  0  0
 24 25  1  0  0  0
 24 29  2  0  0  0
 25 26  2  0  0  0
 26 27  1  0  0  0
 27 28  2  0  0  0
 28 29  1  0  0  0
  9 10  2  0  0  0
 10 11  1  0  0  0
 11 12  1  0  0  0
 12 13  1  0  0  0
 12 14  1  0  0  0
 12 15  1  0  0  0
M  END
> <minimizedAffinity>
-8.90892

$$$$
