CHEMBL67598


 35 39  0  0  0  0  0  0  0  0999 V2000
  -29.2513   -3.3778   -5.0610 C   0  0  0  0  0  0  0  0  0  0  0  0
  -28.8999   -4.3490   -6.0065 C   0  0  0  0  0  0  0  0  0  0  0  0
  -28.3198   -3.6972   -7.1421 C   0  0  0  0  0  0  0  0  0  0  0  0
  -27.7458   -4.0751   -8.3795 C   0  0  0  0  0  0  0  0  0  0  0  0
  -27.5904   -5.3814   -8.8174 N   0  0  0  0  0  0  0  0  0  0  0  0
  -27.2726   -3.1272   -9.2005 N   0  0  0  0  0  0  0  0  0  0  0  0
  -27.3880   -1.8398   -8.8190 C   0  0  0  0  0  0  0  0  0  0  0  0
  -27.9315   -1.3629   -7.6910 N   0  0  0  0  0  0  0  0  0  0  0  0
  -28.3800   -2.3339   -6.8810 C   0  0  0  0  0  0  0  0  0  0  0  0
  -28.9781   -2.1400   -5.6493 N   0  0  0  0  0  0  0  0  0  0  0  0
  -28.2894   -6.0469   -8.5280 H   0  0  0  0  0  0  0  0  0  0  0  0
  -27.2663   -5.4570   -9.7735 H   0  0  0  0  0  0  0  0  0  0  0  0
  -29.1506   -5.7786   -5.8346 C   0  0  0  0  0  0  0  0  0  0  0  0
  -30.2845   -6.3751   -6.3975 C   0  0  0  0  0  0  0  0  0  0  0  0
  -30.5411   -7.7173   -6.1945 C   0  0  0  0  0  0  0  0  0  0  0  0
  -29.5610   -8.5339   -5.6361 C   0  0  0  0  0  0  0  0  0  0  0  0
  -28.4183   -7.9667   -5.0916 C   0  0  0  0  0  0  0  0  0  0  0  0
  -28.2675   -6.5852   -5.1105 C   0  0  0  0  0  0  0  0  0  0  0  0
  -29.6599   -9.8954   -5.5411 O   0  0  0  0  0  0  0  0  0  0  0  0
  -30.2384  -10.6007   -6.5711 C   0  0  0  0  0  0  0  0  0  0  0  0
  -29.7295  -10.6596   -7.8736 C   0  0  0  0  0  0  0  0  0  0  0  0
  -30.4191  -11.3524   -8.8622 C   0  0  0  0  0  0  0  0  0  0  0  0
  -31.5809  -12.0469   -8.5339 C   0  0  0  0  0  0  0  0  0  0  0  0
  -32.0634  -12.0449   -7.2214 C   0  0  0  0  0  0  0  0  0  0  0  0
  -31.3855  -11.3142   -6.2406 C   0  0  0  0  0  0  0  0  0  0  0  0
  -28.9505   -3.3670   -2.6877 N   0  0  0  0  0  0  0  0  0  0  0  0
  -29.8279   -3.5364   -3.7279 C   0  0  0  0  0  0  0  0  0  0  0  0
  -30.9887   -3.8248   -3.4896 O   0  0  0  0  0  0  0  0  0  0  0  0
  -29.2669   -3.6201   -1.7611 H   0  0  0  0  0  0  0  0  0  0  0  0
  -27.9621   -3.2229   -2.8307 H   0  0  0  0  0  0  0  0  0  0  0  0
  -29.2161   -0.8436   -5.0392 C   0  0  0  0  0  0  0  0  0  0  0  0
  -30.2515    0.0375   -5.7415 C   0  0  0  0  0  0  0  0  0  0  0  0
  -29.9689    1.4516   -5.2357 C   0  0  0  0  0  0  0  0  0  0  0  0
  -28.5767    1.4256   -4.6038 C   0  0  0  0  0  0  0  0  0  0  0  0
  -27.9869    0.0570   -4.9249 C   0  0  0  0  0  0  0  0  0  0  0  0
 26 27  1  0  0  0
 26 29  1  0  0  0
 26 30  1  0  0  0
 27 28  2  0  0  0
 27  1  1  0  0  0
  1  2  2  0  0  0
  1 10  1  0  0  0
  2 13  1  0  0  0
  2  3  1  0  0  0
 13 14  1  0  0  0
 13 18  2  0  0  0
 14 15  2  0  0  0
 15 16  1  0  0  0
 16 19  1  0  0  0
 16 17  2  0  0  0
 19 20  1  0  0  0
 20 21  1  0  0  0
 20 25  2  0  0  0
 21 22  2  0  0  0
 22 23  1  0  0  0
 23 24  2  0  0  0
 24 25  1  0  0  0
 17 18  1  0  0  0
  3  4  1  0  0  0
  3  9  2  0  0  0
  4  5  1  0  0  0
  4  6  2  0  0  0
  5 11  1  0  0  0
  5 12  1  0  0  0
  6  7  1  0  0  0
  7  8  2  0  0  0
  8  9  1  0  0  0
  9 10  1  0  0  0
 10 31  1  0  0  0
 31 32  1  0  0  0
 31 35  1  0  0  0
 32 33  1  0  0  0
 33 34  1  0  0  0
 34 35  1  0  0  0
M  END
> <minimizedAffinity>
-8.66358

$$$$
