CHEMBL94678


 37 44  0  0  0  0  0  0  0  0999 V2000
  -28.4169  -10.3376   -9.2075 C   0  0  0  0  0  0  0  0  0  0  0  0
  -28.3045  -10.0769  -10.6376 O   0  0  0  0  0  0  0  0  0  0  0  0
  -28.3224  -11.9856   -9.0328 C   0  0  0  0  0  0  0  0  0  0  0  0
  -26.6763  -12.4291   -8.6792 C   0  0  0  0  0  0  0  0  0  0  0  0
  -26.3186  -11.2087   -9.1992 O   0  0  0  0  0  0  0  0  0  0  0  0
  -27.1593  -10.2450   -8.4043 C   0  0  0  0  0  0  0  0  0  0  0  0
  -26.1163   -9.1246   -8.5669 C   0  0  0  0  0  0  0  0  0  0  0  0
  -27.6874  -10.6860   -6.9715 N   0  0  0  0  0  0  0  0  0  0  0  0
  -28.9148  -11.1232   -6.2762 C   0  0  0  0  0  0  0  0  0  0  0  0
  -30.2644  -11.3937   -6.6749 C   0  0  0  0  0  0  0  0  0  0  0  0
  -31.1907  -12.0627   -5.8336 C   0  0  0  0  0  0  0  0  0  0  0  0
  -30.8371  -12.4609   -4.5601 C   0  0  0  0  0  0  0  0  0  0  0  0
  -29.5795  -12.1549   -4.0636 C   0  0  0  0  0  0  0  0  0  0  0  0
  -28.6131  -11.4918   -4.8596 C   0  0  0  0  0  0  0  0  0  0  0  0
  -27.2703  -11.2604   -4.6676 C   0  0  0  0  0  0  0  0  0  0  0  0
  -26.4200  -11.6615   -3.6195 C   0  0  0  0  0  0  0  0  0  0  0  0
  -25.0716  -11.6065   -3.9707 C   0  0  0  0  0  0  0  0  0  0  0  0
  -24.9185  -11.8083   -5.3632 C   0  0  0  0  0  0  0  0  0  0  0  0
  -23.9023  -11.4869   -6.2317 C   0  0  0  0  0  0  0  0  0  0  0  0
  -22.7901  -10.6209   -6.1731 C   0  0  0  0  0  0  0  0  0  0  0  0
  -21.8005  -10.7783   -7.1207 C   0  0  0  0  0  0  0  0  0  0  0  0
  -21.9311  -11.7892   -8.0714 C   0  0  0  0  0  0  0  0  0  0  0  0
  -23.1590  -12.4651   -8.3236 C   0  0  0  0  0  0  0  0  0  0  0  0
  -24.2603  -12.1967   -7.4956 C   0  0  0  0  0  0  0  0  0  0  0  0
  -25.7035  -12.4065   -7.5716 N   0  0  0  0  0  0  0  0  0  0  0  0
  -25.9021  -11.9460   -6.3227 C   0  0  0  0  0  0  0  0  0  0  0  0
  -26.9115  -11.1065   -5.9814 C   0  0  0  0  0  0  0  0  0  0  0  0
  -24.2349  -11.7795   -2.8543 C   0  0  0  0  0  0  0  0  0  0  0  0
  -23.0306  -11.7864   -2.6548 O   0  0  0  0  0  0  0  0  0  0  0  0
  -25.1729  -12.0550   -1.8316 N   0  0  0  0  0  0  0  0  0  0  0  0
  -26.5688  -12.1470   -2.2480 C   0  0  0  0  0  0  0  0  0  0  0  0
  -28.3001   -9.1024  -10.7662 H   0  0  0  0  0  0  0  0  0  0  0  0
  -24.8194  -12.4002   -0.9518 H   0  0  0  0  0  0  0  0  0  0  0  0
  -29.0135   -8.9588   -8.6746 C   0  0  0  0  0  0  0  0  0  0  0  0
  -30.2431   -8.8832   -8.4323 O   0  0  0  0  0  0  0  0  0  0  0  0
  -28.8134   -6.7283   -7.8955 C   0  0  0  0  0  0  0  0  0  0  0  0
  -28.2536   -7.8524   -8.6119 O   0  0  0  0  0  0  0  0  0  0  0  0
 36 37  1  0  0  0
 37 34  1  0  0  0
 34 35  2  0  0  0
  1 34  1  0  0  0
  1  2  1  0  0  0
  1  3  1  0  0  0
  1  6  1  0  0  0
  2 32  1  0  0  0
  3  4  1  0  0  0
  4  5  1  0  0  0
  4 25  1  0  0  0
  5  6  1  0  0  0
  6  7  1  0  0  0
  6  8  1  0  0  0
  8  9  1  0  0  0
  8 27  1  0  0  0
  9 10  1  0  0  0
  9 14  2  0  0  0
 10 11  2  0  0  0
 11 12  1  0  0  0
 12 13  2  0  0  0
 13 14  1  0  0  0
 14 15  1  0  0  0
 15 16  1  0  0  0
 15 27  2  0  0  0
 16 17  2  0  0  0
 16 31  1  0  0  0
 17 18  1  0  0  0
 17 28  1  0  0  0
 18 19  1  0  0  0
 18 26  2  0  0  0
 19 20  1  0  0  0
 19 24  2  0  0  0
 20 21  2  0  0  0
 21 22  1  0  0  0
 22 23  2  0  0  0
 23 24  1  0  0  0
 24 25  1  0  0  0
 25 26  1  0  0  0
 26 27  1  0  0  0
 28 29  2  0  0  0
 28 30  1  0  0  0
 30 31  1  0  0  0
 30 33  1  0  0  0
M  END
> <minimizedAffinity>
-6.53377

$$$$
