CHEMBL1271668


 23 25  0  0  0  0  0  0  0  0999 V2000
  -27.7095   -1.8610   -9.5986 C   0  0  0  0  0  0  0  0  0  0  0  0
  -28.2301   -0.7616   -9.7888 O   0  0  0  0  0  0  0  0  0  0  0  0
  -26.9389   -2.5365  -10.5323 N   0  0  0  0  0  0  0  0  0  0  0  0
  -26.7261   -3.5233  -10.3742 H   0  0  0  0  0  0  0  0  0  0  0  0
  -26.6974   -2.0711  -11.8580 C   0  0  0  0  0  0  0  0  0  0  0  0
  -27.7051   -2.1003  -12.8377 C   0  0  0  0  0  0  0  0  0  0  0  0
  -27.4255   -1.7736  -14.1627 C   0  0  0  0  0  0  0  0  0  0  0  0
  -26.1262   -1.4547  -14.5219 C   0  0  0  0  0  0  0  0  0  0  0  0
  -25.1138   -1.4189  -13.5521 C   0  0  0  0  0  0  0  0  0  0  0  0
  -23.7844   -1.2097  -13.9334 C   0  0  0  0  0  0  0  0  0  0  0  0
  -22.7907   -1.1535  -12.9688 C   0  0  0  0  0  0  0  0  0  0  0  0
  -23.1690   -1.2657  -11.6453 C   0  0  0  0  0  0  0  0  0  0  0  0
  -24.4328   -1.5286  -11.2384 N   0  0  0  0  0  0  0  0  0  0  0  0
  -25.3998   -1.6451  -12.1833 C   0  0  0  0  0  0  0  0  0  0  0  0
  -29.0636   -5.9802   -7.1714 C   0  0  0  0  0  0  0  0  0  0  0  0
  -28.6788   -4.5361   -7.1315 C   0  0  0  0  0  0  0  0  0  0  0  0
  -28.6135   -3.8077   -5.9511 C   0  0  0  0  0  0  0  0  0  0  0  0
  -28.2547   -2.5049   -5.8814 N   0  0  0  0  0  0  0  0  0  0  0  0
  -27.9556   -1.9043   -7.0513 C   0  0  0  0  0  0  0  0  0  0  0  0
  -27.5972   -0.6071   -6.8800 O   0  0  0  0  0  0  0  0  0  0  0  0
  -27.9962   -2.5095   -8.2948 C   0  0  0  0  0  0  0  0  0  0  0  0
  -28.3612   -3.8607   -8.3128 C   0  0  0  0  0  0  0  0  0  0  0  0
  -27.7045   -0.5301   -5.9147 H   0  0  0  0  0  0  0  0  0  0  0  0
 15 16  1  0  0  0
 16 17  1  0  0  0
 16 22  2  0  0  0
 17 18  2  0  0  0
 18 19  1  0  0  0
 19 20  1  0  0  0
 19 21  2  0  0  0
 20 23  1  0  0  0
 21  1  1  0  0  0
 21 22  1  0  0  0
  1  2  2  0  0  0
  1  3  1  0  0  0
  3  5  1  0  0  0
  3  4  1  0  0  0
  5  6  1  0  0  0
  5 14  2  0  0  0
  6  7  2  0  0  0
  7  8  1  0  0  0
  8  9  2  0  0  0
  9 10  1  0  0  0
  9 14  1  0  0  0
 10 11  2  0  0  0
 11 12  1  0  0  0
 12 13  2  0  0  0
 13 14  1  0  0  0
M  END
> <minimizedAffinity>
-9.03683

$$$$
