CHEMBL1907944


 31 34  0  0  0  0  0  0  0  0999 V2000
  -30.6367   -7.9769   -6.5541 C   0  0  0  0  0  0  0  0  0  0  0  0
  -29.8339   -9.0828   -6.8309 C   0  0  0  0  0  0  0  0  0  0  0  0
  -28.5815   -9.2542   -6.2084 C   0  0  0  0  0  0  0  0  0  0  0  0
  -27.6580  -10.2495   -6.5569 C   0  0  0  0  0  0  0  0  0  0  0  0
  -26.4860  -10.3845   -5.9121 N   0  0  0  0  0  0  0  0  0  0  0  0
  -26.2206   -9.5051   -4.9390 C   0  0  0  0  0  0  0  0  0  0  0  0
  -27.0006   -8.4836   -4.5774 N   0  0  0  0  0  0  0  0  0  0  0  0
  -28.1667   -8.3552   -5.2167 C   0  0  0  0  0  0  0  0  0  0  0  0
  -28.9969   -7.2900   -4.9039 C   0  0  0  0  0  0  0  0  0  0  0  0
  -30.2326   -7.0961   -5.5360 C   0  0  0  0  0  0  0  0  0  0  0  0
  -32.8317   -8.6652   -7.2638 C   0  0  0  0  0  0  0  0  0  0  0  0
  -31.7806   -7.7021   -7.2505 O   0  0  0  0  0  0  0  0  0  0  0  0
  -27.9134  -11.0842   -7.6789 N   0  0  0  0  0  0  0  0  0  0  0  0
  -27.4328  -11.9753   -7.5920 H   0  0  0  0  0  0  0  0  0  0  0  0
  -27.9303  -10.6217   -9.0140 C   0  0  0  0  0  0  0  0  0  0  0  0
  -26.8443   -9.9121   -9.5465 C   0  0  0  0  0  0  0  0  0  0  0  0
  -26.8108   -9.5645  -10.8978 C   0  0  0  0  0  0  0  0  0  0  0  0
  -27.8821   -9.9027  -11.7209 C   0  0  0  0  0  0  0  0  0  0  0  0
  -27.7908   -9.5222  -13.5699 Br  0  0  0  0  0  0  0  0  0  0  0  0
  -29.0034  -10.5435  -11.1975 C   0  0  0  0  0  0  0  0  0  0  0  0
  -29.0206  -10.8870   -9.8488 C   0  0  0  0  0  0  0  0  0  0  0  0
  -30.0955  -11.5175   -9.3486 F   0  0  0  0  0  0  0  0  0  0  0  0
  -30.9310   -6.0022   -5.0660 O   0  0  0  0  0  0  0  0  0  0  0  0
  -30.1224   -5.0430   -4.3816 C   0  0  0  0  0  0  0  0  0  0  0  0
  -30.4410   -3.5978   -4.8000 C   0  0  0  0  0  0  0  0  0  0  0  0
  -29.6484   -2.6243   -3.9094 C   0  0  0  0  0  0  0  0  0  0  0  0
  -28.1553   -2.6554   -4.2414 C   0  0  0  0  0  0  0  0  0  0  0  0
  -27.9114   -2.4469   -5.7375 C   0  0  0  0  0  0  0  0  0  0  0  0
  -28.6788   -3.3904   -6.5627 N   0  0  0  0  0  0  0  0  0  0  0  0
  -28.4305   -3.1365   -7.9835 C   0  0  0  0  0  0  0  0  0  0  0  0
  -30.1207   -3.3149   -6.2772 C   0  0  0  0  0  0  0  0  0  0  0  0
 11 12  1  0  0  0
 12  1  1  0  0  0
  1  2  1  0  0  0
  1 10  2  0  0  0
  2  3  2  0  0  0
  3  4  1  0  0  0
  3  8  1  0  0  0
  4 13  1  0  0  0
  4  5  2  0  0  0
 13 15  1  0  0  0
 13 14  1  0  0  0
 15 16  1  0  0  0
 15 21  2  0  0  0
 16 17  2  0  0  0
 17 18  1  0  0  0
 18 19  1  0  0  0
 18 20  2  0  0  0
 20 21  1  0  0  0
 21 22  1  0  0  0
  5  6  1  0  0  0
  6  7  2  0  0  0
  7  8  1  0  0  0
  8  9  2  0  0  0
  9 10  1  0  0  0
 10 23  1  0  0  0
 23 24  1  0  0  0
 25 26  1  0  0  0
 25 31  1  0  0  0
 25 24  1  0  0  0
 26 27  1  0  0  0
 27 28  1  0  0  0
 28 29  1  0  0  0
 29 30  1  0  0  0
 29 31  1  0  0  0
M  END
> <minimizedAffinity>
-7.85819

$$$$
