CHEMBL3746273


 36 41  0  0  0  0  0  0  0  0999 V2000
  -14.5744   -0.6755  -13.9983 C   0  0  0  0  0  0  0  0  0  0  0  0
  -13.8091    0.4081  -14.4269 C   0  0  0  0  0  0  0  0  0  0  0  0
  -14.3971    1.5037  -15.0425 C   0  0  0  0  0  0  0  0  0  0  0  0
  -15.7833    1.4970  -15.2053 C   0  0  0  0  0  0  0  0  0  0  0  0
  -16.5876    0.4736  -14.6994 C   0  0  0  0  0  0  0  0  0  0  0  0
  -17.9402    0.8539  -14.9364 C   0  0  0  0  0  0  0  0  0  0  0  0
  -17.9189    2.0987  -15.5332 C   0  0  0  0  0  0  0  0  0  0  0  0
  -16.6043    2.4551  -15.7966 N   0  0  0  0  0  0  0  0  0  0  0  0
  -16.1583    3.6454  -16.3820 C   0  0  0  0  0  0  0  0  0  0  0  0
  -16.6412    4.7056  -15.9888 O   0  0  0  0  0  0  0  0  0  0  0  0
  -15.2476    3.4374  -17.4095 N   0  0  0  0  0  0  0  0  0  0  0  0
  -15.9724   -0.6412  -14.0912 C   0  0  0  0  0  0  0  0  0  0  0  0
  -15.3624    2.5925  -17.9539 H   0  0  0  0  0  0  0  0  0  0  0  0
  -14.8488    4.5533  -18.1362 C   0  0  0  0  0  0  0  0  0  0  0  0
  -13.9226    5.5402  -17.7197 C   0  0  0  0  0  0  0  0  0  0  0  0
  -13.9793    6.5239  -18.6818 C   0  0  0  0  0  0  0  0  0  0  0  0
  -14.8862    6.0650  -19.5999 N   0  0  0  0  0  0  0  0  0  0  0  0
  -15.3328    4.8089  -19.3472 N   0  0  0  0  0  0  0  0  0  0  0  0
  -15.2371    6.5511  -20.4171 H   0  0  0  0  0  0  0  0  0  0  0  0
  -13.2334    7.8768  -18.7364 C   0  0  0  0  0  0  0  0  0  0  0  0
  -12.6880    8.4138  -17.4354 C   0  0  0  0  0  0  0  0  0  0  0  0
  -13.7284    8.8914  -19.7613 C   0  0  0  0  0  0  0  0  0  0  0  0
  -12.4297    8.2022  -19.9923 C   0  0  0  0  0  0  0  0  0  0  0  0
  -14.0200   -1.7983  -13.4214 O   0  0  0  0  0  0  0  0  0  0  0  0
  -14.0470   -6.6754  -13.5437 C   0  0  0  0  0  0  0  0  0  0  0  0
  -15.1106   -5.8809  -14.3145 C   0  0  0  0  0  0  0  0  0  0  0  0
  -14.8409   -4.3663  -14.2652 C   0  0  0  0  0  0  0  0  0  0  0  0
  -15.2407   -3.7673  -12.9512 C   0  0  0  0  0  0  0  0  0  0  0  0
  -16.1140   -4.4127  -12.0871 C   0  0  0  0  0  0  0  0  0  0  0  0
  -16.4697   -3.8968  -10.8896 N   0  0  0  0  0  0  0  0  0  0  0  0
  -15.9353   -2.7112  -10.5712 C   0  0  0  0  0  0  0  0  0  0  0  0
  -15.1139   -1.9916  -11.3384 N   0  0  0  0  0  0  0  0  0  0  0  0
  -14.8140   -2.5250  -12.5394 C   0  0  0  0  0  0  0  0  0  0  0  0
  -16.6680   -5.7783  -12.4423 C   0  0  0  0  0  0  0  0  0  0  0  0
  -16.4800   -6.1710  -13.8525 N   0  0  0  0  0  0  0  0  0  0  0  0
  -17.1327   -5.6198  -14.4125 H   0  0  0  0  0  0  0  0  0  0  0  0
 26 27  1  0  0  0
 26 35  1  0  0  0
 26 25  1  0  0  0
 27 28  1  0  0  0
 28 29  1  0  0  0
 28 33  2  0  0  0
 29 30  2  0  0  0
 29 34  1  0  0  0
 30 31  1  0  0  0
 31 32  2  0  0  0
 32 33  1  0  0  0
 33 24  1  0  0  0
 24  1  1  0  0  0
  1  2  1  0  0  0
  1 12  2  0  0  0
  2  3  2  0  0  0
  3  4  1  0  0  0
  4  5  2  0  0  0
  4  8  1  0  0  0
  5  6  1  0  0  0
  5 12  1  0  0  0
  6  7  2  0  0  0
  7  8  1  0  0  0
  8  9  1  0  0  0
  9 10  2  0  0  0
  9 11  1  0  0  0
 11 14  1  0  0  0
 11 13  1  0  0  0
 14 15  1  0  0  0
 14 18  2  0  0  0
 15 16  2  0  0  0
 16 20  1  0  0  0
 16 17  1  0  0  0
 20 21  1  0  0  0
 20 22  1  0  0  0
 20 23  1  0  0  0
 22 23  1  0  0  0
 17 18  1  0  0  0
 17 19  1  0  0  0
 34 35  1  0  0  0
 35 36  1  0  0  0
M  END
> <minimizedAffinity>
-8.79496

$$$$
