CHEMBL383123


 31 35  0  0  0  0  0  0  0  0999 V2000
  -28.3356   -2.5438   -6.9613 C   0  0  0  0  0  0  0  0  0  0  0  0
  -27.7041   -1.3884   -6.9705 N   0  0  0  0  0  0  0  0  0  0  0  0
  -27.1996   -1.2208   -8.2422 N   0  0  0  0  0  0  0  0  0  0  0  0
  -27.4940   -2.3116   -8.9112 C   0  0  0  0  0  0  0  0  0  0  0  0
  -28.2023   -3.2093   -8.1609 O   0  0  0  0  0  0  0  0  0  0  0  0
  -30.0777   -3.1110   -3.6735 C   0  0  0  0  0  0  0  0  0  0  0  0
  -30.6966   -4.3128   -3.9341 C   0  0  0  0  0  0  0  0  0  0  0  0
  -30.5558   -4.9787   -5.0970 N   0  0  0  0  0  0  0  0  0  0  0  0
  -29.7742   -4.4333   -6.0797 C   0  0  0  0  0  0  0  0  0  0  0  0
  -29.1238   -3.1959   -5.9175 C   0  0  0  0  0  0  0  0  0  0  0  0
  -29.2833   -2.5563   -4.6733 C   0  0  0  0  0  0  0  0  0  0  0  0
  -29.7616   -5.2677   -7.3412 C   0  0  0  0  0  0  0  0  0  0  0  0
  -29.4456   -6.7645   -7.2239 C   0  0  0  0  0  0  0  0  0  0  0  0
  -30.5352   -7.7804   -7.4620 C   0  0  0  0  0  0  0  0  0  0  0  0
  -31.8473   -7.6247   -7.0158 C   0  0  0  0  0  0  0  0  0  0  0  0
  -32.7878   -8.5853   -7.3722 C   0  0  0  0  0  0  0  0  0  0  0  0
  -32.5179   -9.6698   -8.1328 N   0  0  0  0  0  0  0  0  0  0  0  0
  -31.2474   -9.7973   -8.5615 C   0  0  0  0  0  0  0  0  0  0  0  0
  -30.2413   -8.8939   -8.2604 C   0  0  0  0  0  0  0  0  0  0  0  0
  -27.2600   -2.5895  -10.2063 N   0  0  0  0  0  0  0  0  0  0  0  0
  -27.4546   -3.5524  -10.4629 H   0  0  0  0  0  0  0  0  0  0  0  0
  -27.6544   -1.6478  -11.2351 C   0  0  0  0  0  0  0  0  0  0  0  0
  -26.4618   -1.3217  -12.1085 C   0  0  0  0  0  0  0  0  0  0  0  0
  -26.4561   -1.7334  -13.4656 C   0  0  0  0  0  0  0  0  0  0  0  0
  -25.3605   -1.4843  -14.2970 C   0  0  0  0  0  0  0  0  0  0  0  0
  -24.2796   -0.8292  -13.7504 C   0  0  0  0  0  0  0  0  0  0  0  0
  -24.2713   -0.4214  -12.4370 C   0  0  0  0  0  0  0  0  0  0  0  0
  -25.3433   -0.6469  -11.5943 C   0  0  0  0  0  0  0  0  0  0  0  0
  -23.1084    0.1989  -12.0973 O   0  0  0  0  0  0  0  0  0  0  0  0
  -22.3726    0.0947  -13.3352 C   0  0  0  0  0  0  0  0  0  0  0  0
  -23.1268   -0.5194  -14.4004 O   0  0  0  0  0  0  0  0  0  0  0  0
  6  7  1  0  0  0
  6 11  2  0  0  0
  7  8  2  0  0  0
  8  9  1  0  0  0
  9 12  1  0  0  0
  9 10  2  0  0  0
 12 13  1  0  0  0
 13 14  1  0  0  0
 14 15  1  0  0  0
 14 19  2  0  0  0
 15 16  2  0  0  0
 16 17  1  0  0  0
 17 18  2  0  0  0
 18 19  1  0  0  0
 10  1  1  0  0  0
 10 11  1  0  0  0
  1  2  2  0  0  0
  1  5  1  0  0  0
  2  3  1  0  0  0
  3  4  2  0  0  0
  4 20  1  0  0  0
  4  5  1  0  0  0
 20 22  1  0  0  0
 20 21  1  0  0  0
 22 23  1  0  0  0
 23 24  1  0  0  0
 23 28  2  0  0  0
 24 25  2  0  0  0
 25 26  1  0  0  0
 26 27  2  0  0  0
 26 31  1  0  0  0
 27 28  1  0  0  0
 27 29  1  0  0  0
 29 30  1  0  0  0
 30 31  1  0  0  0
M  END
> <minimizedAffinity>
-10.48767

$$$$
