CHEMBL3907479


 31 35  0  0  0  0  0  0  0  0999 V2000
  -29.2373   -7.8008   -4.7626 N   0  0  0  0  0  0  0  0  0  0  0  0
  -29.7230   -7.7348   -6.0273 N   0  0  0  0  0  0  0  0  0  0  0  0
  -30.4284   -6.6124   -6.0437 C   0  0  0  0  0  0  0  0  0  0  0  0
  -30.3544   -5.8708   -4.8360 C   0  0  0  0  0  0  0  0  0  0  0  0
  -29.5767   -6.6726   -4.0086 C   0  0  0  0  0  0  0  0  0  0  0  0
  -29.1357   -6.4445   -2.7379 N   0  0  0  0  0  0  0  0  0  0  0  0
  -29.2070   -5.4952   -2.3579 H   0  0  0  0  0  0  0  0  0  0  0  0
  -28.3006   -6.9148   -2.3992 H   0  0  0  0  0  0  0  0  0  0  0  0
  -23.4105  -11.5542   -2.5188 C   0  0  0  0  0  0  0  0  0  0  0  0
  -24.7388  -11.1053   -2.9908 C   0  0  0  0  0  0  0  0  0  0  0  0
  -25.8504  -11.8113   -3.0028 N   0  0  0  0  0  0  0  0  0  0  0  0
  -26.8194  -10.9722   -3.4746 C   0  0  0  0  0  0  0  0  0  0  0  0
  -28.1940  -11.1932   -3.6527 C   0  0  0  0  0  0  0  0  0  0  0  0
  -28.9973  -10.1377   -4.1051 C   0  0  0  0  0  0  0  0  0  0  0  0
  -28.4223   -8.8980   -4.3975 C   0  0  0  0  0  0  0  0  0  0  0  0
  -27.0349   -8.6742   -4.3042 C   0  0  0  0  0  0  0  0  0  0  0  0
  -26.2818   -9.7305   -3.7988 C   0  0  0  0  0  0  0  0  0  0  0  0
  -24.9530   -9.8404   -3.4756 N   0  0  0  0  0  0  0  0  0  0  0  0
  -24.2650   -9.1055   -3.5472 H   0  0  0  0  0  0  0  0  0  0  0  0
  -30.9280   -4.5500   -4.5420 C   0  0  0  0  0  0  0  0  0  0  0  0
  -32.0027   -4.3988   -4.0094 O   0  0  0  0  0  0  0  0  0  0  0  0
  -30.0406   -3.4704   -4.9065 C   0  0  0  0  0  0  0  0  0  0  0  0
  -29.7352   -3.0424   -6.1866 C   0  0  0  0  0  0  0  0  0  0  0  0
  -28.6182   -2.2096   -6.0955 C   0  0  0  0  0  0  0  0  0  0  0  0
  -27.8492   -1.5445   -7.0537 C   0  0  0  0  0  0  0  0  0  0  0  0
  -28.2774   -0.2290   -6.9990 C   0  0  0  0  0  0  0  0  0  0  0  0
  -28.2477    0.4063   -5.7702 C   0  0  0  0  0  0  0  0  0  0  0  0
  -28.2794   -0.3522   -4.5771 C   0  0  0  0  0  0  0  0  0  0  0  0
  -28.6895   -1.6750   -4.8033 C   0  0  0  0  0  0  0  0  0  0  0  0
  -29.3628   -2.6183   -4.0442 N   0  0  0  0  0  0  0  0  0  0  0  0
  -29.4779   -2.5918   -3.0396 H   0  0  0  0  0  0  0  0  0  0  0  0
  9 10  1  0  0  0
 10 11  2  0  0  0
 10 18  1  0  0  0
 11 12  1  0  0  0
 12 13  1  0  0  0
 12 17  2  0  0  0
 13 14  2  0  0  0
 14 15  1  0  0  0
 15  1  1  0  0  0
 15 16  2  0  0  0
  1  2  1  0  0  0
  1  5  1  0  0  0
  2  3  2  0  0  0
  3  4  1  0  0  0
  4 20  1  0  0  0
  4  5  2  0  0  0
 20 21  2  0  0  0
 20 22  1  0  0  0
 22 23  2  0  0  0
 22 30  1  0  0  0
 23 24  1  0  0  0
 24 25  1  0  0  0
 24 29  2  0  0  0
 25 26  2  0  0  0
 26 27  1  0  0  0
 27 28  2  0  0  0
 28 29  1  0  0  0
 29 30  1  0  0  0
 30 31  1  0  0  0
  5  6  1  0  0  0
  6  7  1  0  0  0
  6  8  1  0  0  0
 16 17  1  0  0  0
 17 18  1  0  0  0
 18 19  1  0  0  0
M  END
> <minimizedAffinity>
-9.00385

$$$$
