CHEMBL2386812


 41 45  0  0  0  0  0  0  0  0999 V2000
  -24.9489   -1.2217  -11.7801 C   0  0  0  0  0  0  0  0  0  0  0  0
  -23.9338   -0.3008  -11.8647 C   0  0  0  0  0  0  0  0  0  0  0  0
  -23.6380   -0.1427  -13.2522 C   0  0  0  0  0  0  0  0  0  0  0  0
  -24.4471   -0.9224  -13.9857 N   0  0  0  0  0  0  0  0  0  0  0  0
  -25.1912   -1.5828  -13.0778 N   0  0  0  0  0  0  0  0  0  0  0  0
  -25.8721   -2.2462  -13.4301 H   0  0  0  0  0  0  0  0  0  0  0  0
  -22.5980    0.7103  -13.8345 C   0  0  0  0  0  0  0  0  0  0  0  0
  -21.5093    0.1164  -14.4698 C   0  0  0  0  0  0  0  0  0  0  0  0
  -20.5034    0.8867  -15.0469 C   0  0  0  0  0  0  0  0  0  0  0  0
  -20.5215    2.2800  -15.0073 C   0  0  0  0  0  0  0  0  0  0  0  0
  -21.6236    2.8938  -14.3866 C   0  0  0  0  0  0  0  0  0  0  0  0
  -22.6459    2.1114  -13.8066 C   0  0  0  0  0  0  0  0  0  0  0  0
  -19.4687    3.0667  -15.5562 N   0  0  0  0  0  0  0  0  0  0  0  0
  -18.1302    2.7004  -15.5523 C   0  0  0  0  0  0  0  0  0  0  0  0
  -17.6942    1.6459  -15.0991 O   0  0  0  0  0  0  0  0  0  0  0  0
  -17.2781    3.6582  -16.0958 N   0  0  0  0  0  0  0  0  0  0  0  0
  -19.7226    3.9336  -16.0119 H   0  0  0  0  0  0  0  0  0  0  0  0
  -17.5205    4.6127  -15.8719 H   0  0  0  0  0  0  0  0  0  0  0  0
  -15.8862    3.3524  -16.1163 C   0  0  0  0  0  0  0  0  0  0  0  0
  -14.9420    4.3312  -15.7751 C   0  0  0  0  0  0  0  0  0  0  0  0
  -13.5748    4.0784  -15.8973 C   0  0  0  0  0  0  0  0  0  0  0  0
  -13.1406    2.8431  -16.3708 C   0  0  0  0  0  0  0  0  0  0  0  0
  -14.0738    1.8595  -16.7011 C   0  0  0  0  0  0  0  0  0  0  0  0
  -15.4465    2.1024  -16.5568 C   0  0  0  0  0  0  0  0  0  0  0  0
  -26.9980   -1.5804  -10.4322 C   0  0  0  0  0  0  0  0  0  0  0  0
  -27.7161   -1.0396  -11.2572 O   0  0  0  0  0  0  0  0  0  0  0  0
  -25.5764   -1.7184  -10.6451 N   0  0  0  0  0  0  0  0  0  0  0  0
  -25.0125   -2.1901   -9.9544 H   0  0  0  0  0  0  0  0  0  0  0  0
  -28.6464   -3.2849   -6.8258 C   0  0  0  0  0  0  0  0  0  0  0  0
  -28.2685   -1.9375   -6.8780 C   0  0  0  0  0  0  0  0  0  0  0  0
  -27.7442   -1.3452   -8.0324 C   0  0  0  0  0  0  0  0  0  0  0  0
  -27.5819   -2.1263   -9.1821 C   0  0  0  0  0  0  0  0  0  0  0  0
  -27.9484   -3.4681   -9.1507 C   0  0  0  0  0  0  0  0  0  0  0  0
  -28.4848   -4.0403   -7.9965 C   0  0  0  0  0  0  0  0  0  0  0  0
  -32.0385   -5.2311   -2.8645 C   0  0  0  0  0  0  0  0  0  0  0  0
  -30.7771   -4.8164   -3.4704 N   0  0  0  0  0  0  0  0  0  0  0  0
  -30.4607   -5.6473   -4.6550 C   0  0  0  0  0  0  0  0  0  0  0  0
  -29.1265   -5.2296   -5.3253 C   0  0  0  0  0  0  0  0  0  0  0  0
  -29.1931   -3.8021   -5.6738 N   0  0  0  0  0  0  0  0  0  0  0  0
  -29.5148   -2.9250   -4.5324 C   0  0  0  0  0  0  0  0  0  0  0  0
  -30.8322   -3.3945   -3.8761 C   0  0  0  0  0  0  0  0  0  0  0  0
 35 36  1  0  0  0
 36 37  1  0  0  0
 36 41  1  0  0  0
 37 38  1  0  0  0
 38 39  1  0  0  0
 39 29  1  0  0  0
 39 40  1  0  0  0
 29 30  1  0  0  0
 29 34  2  0  0  0
 30 31  2  0  0  0
 31 32  1  0  0  0
 32 25  1  0  0  0
 32 33  2  0  0  0
 25 26  2  0  0  0
 25 27  1  0  0  0
 27  1  1  0  0  0
 27 28  1  0  0  0
  1  2  2  0  0  0
  1  5  1  0  0  0
  2  3  1  0  0  0
  3  7  1  0  0  0
  3  4  2  0  0  0
  7  8  1  0  0  0
  7 12  2  0  0  0
  8  9  2  0  0  0
  9 10  1  0  0  0
 10 13  1  0  0  0
 10 11  2  0  0  0
 13 14  1  0  0  0
 13 17  1  0  0  0
 14 15  2  0  0  0
 14 16  1  0  0  0
 16 19  1  0  0  0
 16 18  1  0  0  0
 19 20  1  0  0  0
 19 24  2  0  0  0
 20 21  2  0  0  0
 21 22  1  0  0  0
 22 23  2  0  0  0
 23 24  1  0  0  0
 11 12  1  0  0  0
  4  5  1  0  0  0
  5  6  1  0  0  0
 33 34  1  0  0  0
 40 41  1  0  0  0
M  END
> <minimizedAffinity>
-11.57709

$$$$
