CHEMBL4513894


 43 47  0  0  0  0  0  0  0  0999 V2000
  -24.9325   -1.4982  -12.8123 C   0  0  0  0  0  0  0  0  0  0  0  0
  -26.2992   -1.5482  -13.0876 C   0  0  0  0  0  0  0  0  0  0  0  0
  -27.2107   -1.6581  -12.0360 C   0  0  0  0  0  0  0  0  0  0  0  0
  -26.7754   -1.8040  -10.7031 C   0  0  0  0  0  0  0  0  0  0  0  0
  -25.4093   -1.7813  -10.4401 C   0  0  0  0  0  0  0  0  0  0  0  0
  -24.5028   -1.6295  -11.4896 C   0  0  0  0  0  0  0  0  0  0  0  0
  -23.1904   -1.6302  -11.2112 F   0  0  0  0  0  0  0  0  0  0  0  0
  -27.7492   -2.1480   -9.7381 N   0  0  0  0  0  0  0  0  0  0  0  0
  -28.5647   -1.5621   -9.9421 H   0  0  0  0  0  0  0  0  0  0  0  0
  -27.6755   -2.0908   -8.3271 C   0  0  0  0  0  0  0  0  0  0  0  0
  -27.3998   -0.8156   -7.9022 N   0  0  0  0  0  0  0  0  0  0  0  0
  -27.9758   -0.3537   -6.7743 C   0  0  0  0  0  0  0  0  0  0  0  0
  -28.9424   -1.0510   -6.1253 C   0  0  0  0  0  0  0  0  0  0  0  0
  -29.1790   -2.3478   -6.5400 C   0  0  0  0  0  0  0  0  0  0  0  0
  -30.1893   -3.0606   -5.8667 N   0  0  0  0  0  0  0  0  0  0  0  0
  -29.7201   -4.2667   -5.4338 C   0  0  0  0  0  0  0  0  0  0  0  0
  -28.9977   -5.1107   -6.1948 C   0  0  0  0  0  0  0  0  0  0  0  0
  -28.5054   -4.4945   -7.5324 C   0  0  0  0  0  0  0  0  0  0  0  0
  -28.1408   -5.2123   -8.4679 O   0  0  0  0  0  0  0  0  0  0  0  0
  -28.4190   -2.9698   -7.5336 C   0  0  0  0  0  0  0  0  0  0  0  0
  -30.8536   -3.3026   -6.6237 H   0  0  0  0  0  0  0  0  0  0  0  0
  -29.3282   -6.4790   -5.7126 C   0  0  0  0  0  0  0  0  0  0  0  0
  -29.7872   -6.5298   -4.3774 C   0  0  0  0  0  0  0  0  0  0  0  0
  -29.3317   -7.5265   -3.5048 C   0  0  0  0  0  0  0  0  0  0  0  0
  -28.4826   -8.5219   -3.9717 C   0  0  0  0  0  0  0  0  0  0  0  0
  -27.9564   -9.4000   -3.1066 F   0  0  0  0  0  0  0  0  0  0  0  0
  -28.1174   -8.5729   -5.3114 C   0  0  0  0  0  0  0  0  0  0  0  0
  -28.5527   -7.5669   -6.1907 C   0  0  0  0  0  0  0  0  0  0  0  0
  -23.9545   -1.3885  -13.7761 O   0  0  0  0  0  0  0  0  0  0  0  0
  -21.3055    1.0886  -14.3671 C   0  0  0  0  0  0  0  0  0  0  0  0
  -21.9578   -0.1298  -14.4156 C   0  0  0  0  0  0  0  0  0  0  0  0
  -23.2461   -0.2132  -13.8860 C   0  0  0  0  0  0  0  0  0  0  0  0
  -23.8958    0.9384  -13.4595 C   0  0  0  0  0  0  0  0  0  0  0  0
  -23.1939    2.1231  -13.5218 C   0  0  0  0  0  0  0  0  0  0  0  0
  -21.9165    2.2086  -13.9440 N   0  0  0  0  0  0  0  0  0  0  0  0
  -19.3227    2.2652  -15.2030 C   0  0  0  0  0  0  0  0  0  0  0  0
  -19.7742    3.4027  -15.2929 O   0  0  0  0  0  0  0  0  0  0  0  0
  -19.9647    1.1218  -14.7548 N   0  0  0  0  0  0  0  0  0  0  0  0
  -19.3815    0.3098  -14.5711 H   0  0  0  0  0  0  0  0  0  0  0  0
  -17.1332    3.2273  -16.0302 C   0  0  0  0  0  0  0  0  0  0  0  0
  -17.8777    1.9629  -15.6153 C   0  0  0  0  0  0  0  0  0  0  0  0
  -17.1724    1.3151  -14.5520 O   0  0  0  0  0  0  0  0  0  0  0  0
  -17.0024    1.9995  -13.8786 H   0  0  0  0  0  0  0  0  0  0  0  0
 40 41  1  0  0  0
 41 42  1  0  0  0
 41 36  1  0  0  0
 42 43  1  0  0  0
 36 37  2  0  0  0
 36 38  1  0  0  0
 38 30  1  0  0  0
 38 39  1  0  0  0
 30 31  1  0  0  0
 30 35  2  0  0  0
 31 32  2  0  0  0
 32 29  1  0  0  0
 32 33  1  0  0  0
 29  1  1  0  0  0
  1  2  1  0  0  0
  1  6  2  0  0  0
  2  3  2  0  0  0
  3  4  1  0  0  0
  4  8  1  0  0  0
  4  5  2  0  0  0
  8 10  1  0  0  0
  8  9  1  0  0  0
 10 11  1  0  0  0
 10 20  2  0  0  0
 11 12  2  0  0  0
 12 13  1  0  0  0
 13 14  2  0  0  0
 14 15  1  0  0  0
 14 20  1  0  0  0
 15 16  1  0  0  0
 15 21  1  0  0  0
 16 17  2  0  0  0
 17 22  1  0  0  0
 17 18  1  0  0  0
 22 23  1  0  0  0
 22 28  2  0  0  0
 23 24  2  0  0  0
 24 25  1  0  0  0
 25 26  1  0  0  0
 25 27  2  0  0  0
 27 28  1  0  0  0
 18 19  2  0  0  0
 18 20  1  0  0  0
  5  6  1  0  0  0
  6  7  1  0  0  0
 33 34  2  0  0  0
 34 35  1  0  0  0
M  END
> <minimizedAffinity>
-11.18701

$$$$
