CHEMBL245934


 28 32  0  0  0  0  0  0  0  0999 V2000
  -28.9057   -5.7804   -5.8717 C   0  0  0  0  0  0  0  0  0  0  0  0
  -29.2565   -5.7519   -4.5036 C   0  0  0  0  0  0  0  0  0  0  0  0
  -29.4314   -4.5427   -3.8008 C   0  0  0  0  0  0  0  0  0  0  0  0
  -29.2519   -3.3161   -4.4352 C   0  0  0  0  0  0  0  0  0  0  0  0
  -28.8858   -3.3476   -5.7612 C   0  0  0  0  0  0  0  0  0  0  0  0
  -28.7151   -4.5510   -6.5006 C   0  0  0  0  0  0  0  0  0  0  0  0
  -28.2880   -4.3008   -7.9581 C   0  0  0  0  0  0  0  0  0  0  0  0
  -28.1912   -2.8137   -7.8893 C   0  0  0  0  0  0  0  0  0  0  0  0
  -28.5501   -2.2849   -6.6425 C   0  0  0  0  0  0  0  0  0  0  0  0
  -28.4198   -0.9705   -6.5470 N   0  0  0  0  0  0  0  0  0  0  0  0
  -27.9469   -0.6519   -7.7786 N   0  0  0  0  0  0  0  0  0  0  0  0
  -27.7917   -1.7294   -8.6266 C   0  0  0  0  0  0  0  0  0  0  0  0
  -27.7339    0.3196   -7.9678 H   0  0  0  0  0  0  0  0  0  0  0  0
  -27.2723   -1.6897  -10.0201 C   0  0  0  0  0  0  0  0  0  0  0  0
  -28.0740   -1.6731  -11.2008 C   0  0  0  0  0  0  0  0  0  0  0  0
  -27.3132   -1.6303  -12.3489 C   0  0  0  0  0  0  0  0  0  0  0  0
  -25.6381   -1.6243  -12.0106 S   0  0  0  0  0  0  0  0  0  0  0  0
  -25.9264   -1.6679  -10.3214 C   0  0  0  0  0  0  0  0  0  0  0  0
  -28.7656   -7.1055   -6.5887 C   0  0  0  0  0  0  0  0  0  0  0  0
  -32.1917   -9.4466   -7.7923 C   0  0  0  0  0  0  0  0  0  0  0  0
  -30.9836   -9.3406   -8.7257 C   0  0  0  0  0  0  0  0  0  0  0  0
  -29.7335   -8.8376   -7.9983 C   0  0  0  0  0  0  0  0  0  0  0  0
  -29.9625   -7.5415   -7.3397 N   0  0  0  0  0  0  0  0  0  0  0  0
  -31.1178   -7.5893   -6.4238 C   0  0  0  0  0  0  0  0  0  0  0  0
  -32.3936   -8.0913   -7.1046 C   0  0  0  0  0  0  0  0  0  0  0  0
  -33.1889  -10.6942   -5.9723 O   0  0  0  0  0  0  0  0  0  0  0  0
  -32.0337  -10.6037   -6.7956 C   0  0  0  0  0  0  0  0  0  0  0  0
  -33.0557  -11.4494   -5.3740 H   0  0  0  0  0  0  0  0  0  0  0  0
 26 27  1  0  0  0
 26 28  1  0  0  0
 27 20  1  0  0  0
 20 21  1  0  0  0
 20 25  1  0  0  0
 21 22  1  0  0  0
 22 23  1  0  0  0
 23 19  1  0  0  0
 23 24  1  0  0  0
 19  1  1  0  0  0
  1  2  1  0  0  0
  1  6  2  0  0  0
  2  3  2  0  0  0
  3  4  1  0  0  0
  4  5  2  0  0  0
  5  6  1  0  0  0
  5  9  1  0  0  0
  6  7  1  0  0  0
  7  8  1  0  0  0
  8  9  1  0  0  0
  8 12  2  0  0  0
  9 10  2  0  0  0
 10 11  1  0  0  0
 11 12  1  0  0  0
 11 13  1  0  0  0
 12 14  1  0  0  0
 14 15  1  0  0  0
 14 18  2  0  0  0
 15 16  2  0  0  0
 16 17  1  0  0  0
 17 18  1  0  0  0
 24 25  1  0  0  0
M  END
> <minimizedAffinity>
-8.40117

$$$$
