CHEMBL425831


 39 43  0  0  0  0  0  0  0  0999 V2000
  -23.7203   -1.0356  -13.1504 C   0  0  0  0  0  0  0  0  0  0  0  0
  -24.7086   -1.1222  -14.1433 C   0  0  0  0  0  0  0  0  0  0  0  0
  -26.0408   -1.4000  -13.8121 C   0  0  0  0  0  0  0  0  0  0  0  0
  -27.2339   -1.5794  -15.0271 Cl  0  0  0  0  0  0  0  0  0  0  0  0
  -26.3288   -1.5355  -12.4605 C   0  0  0  0  0  0  0  0  0  0  0  0
  -27.5323   -1.7937  -11.8643 O   0  0  0  0  0  0  0  0  0  0  0  0
  -27.2339   -1.8607  -10.5281 C   0  0  0  0  0  0  0  0  0  0  0  0
  -25.9685   -1.6255  -10.2487 N   0  0  0  0  0  0  0  0  0  0  0  0
  -25.3786   -1.4257  -11.4605 C   0  0  0  0  0  0  0  0  0  0  0  0
  -24.0482   -1.1646  -11.7942 C   0  0  0  0  0  0  0  0  0  0  0  0
  -28.2615   -2.2136   -9.7327 N   0  0  0  0  0  0  0  0  0  0  0  0
  -28.9947   -2.7518  -10.1737 H   0  0  0  0  0  0  0  0  0  0  0  0
  -28.1983   -2.3322   -8.3317 C   0  0  0  0  0  0  0  0  0  0  0  0
  -27.8082   -1.2314   -7.5615 C   0  0  0  0  0  0  0  0  0  0  0  0
  -27.8071   -1.2961   -6.1627 C   0  0  0  0  0  0  0  0  0  0  0  0
  -28.1484   -2.4804   -5.5051 C   0  0  0  0  0  0  0  0  0  0  0  0
  -28.1246   -2.4742   -3.7799 Cl  0  0  0  0  0  0  0  0  0  0  0  0
  -28.4663   -3.6207   -6.2456 C   0  0  0  0  0  0  0  0  0  0  0  0
  -28.5132   -3.5136   -7.6515 C   0  0  0  0  0  0  0  0  0  0  0  0
  -28.6666   -4.9981   -5.6425 C   0  0  0  0  0  0  0  0  0  0  0  0
  -29.4261   -5.8796   -6.5476 N   0  0  0  0  0  0  0  0  0  0  0  0
  -28.5783   -6.9085   -7.1798 C   0  0  0  0  0  0  0  0  0  0  0  0
  -29.3902   -7.7949   -8.1487 C   0  0  0  0  0  0  0  0  0  0  0  0
  -30.5602   -8.4555   -7.5404 N   0  0  0  0  0  0  0  0  0  0  0  0
  -30.1550   -9.5494   -6.6625 C   0  0  0  0  0  0  0  0  0  0  0  0
  -31.3626   -7.4429   -6.8212 C   0  0  0  0  0  0  0  0  0  0  0  0
  -30.5649   -6.5166   -5.8675 C   0  0  0  0  0  0  0  0  0  0  0  0
  -22.3967   -0.7463  -13.4049 O   0  0  0  0  0  0  0  0  0  0  0  0
  -20.5522    2.2047  -14.5713 C   0  0  0  0  0  0  0  0  0  0  0  0
  -20.7686    0.8774  -14.2349 C   0  0  0  0  0  0  0  0  0  0  0  0
  -22.0301    0.5276  -13.7691 C   0  0  0  0  0  0  0  0  0  0  0  0
  -22.9943    1.5142  -13.5819 C   0  0  0  0  0  0  0  0  0  0  0  0
  -22.6773    2.8182  -13.9220 C   0  0  0  0  0  0  0  0  0  0  0  0
  -21.4816    3.1921  -14.4254 N   0  0  0  0  0  0  0  0  0  0  0  0
  -17.0001    1.7967  -15.7951 C   0  0  0  0  0  0  0  0  0  0  0  0
  -18.3166    1.5784  -15.2633 N   0  0  0  0  0  0  0  0  0  0  0  0
  -19.2329    2.6013  -15.1577 C   0  0  0  0  0  0  0  0  0  0  0  0
  -19.0098    3.7570  -15.5007 O   0  0  0  0  0  0  0  0  0  0  0  0
  -18.6090    0.6613  -14.9363 H   0  0  0  0  0  0  0  0  0  0  0  0
 35 36  1  0  0  0
 36 37  1  0  0  0
 36 39  1  0  0  0
 37 38  2  0  0  0
 37 29  1  0  0  0
 29 30  1  0  0  0
 29 34  2  0  0  0
 30 31  2  0  0  0
 31 28  1  0  0  0
 31 32  1  0  0  0
 28  1  1  0  0  0
  1  2  1  0  0  0
  1 10  2  0  0  0
  2  3  2  0  0  0
  3  4  1  0  0  0
  3  5  1  0  0  0
  5  6  1  0  0  0
  5  9  2  0  0  0
  6  7  1  0  0  0
  7 11  1  0  0  0
  7  8  2  0  0  0
 11 13  1  0  0  0
 11 12  1  0  0  0
 13 14  1  0  0  0
 13 19  2  0  0  0
 14 15  2  0  0  0
 15 16  1  0  0  0
 16 17  1  0  0  0
 16 18  2  0  0  0
 18 20  1  0  0  0
 18 19  1  0  0  0
 20 21  1  0  0  0
 21 22  1  0  0  0
 21 27  1  0  0  0
 22 23  1  0  0  0
 23 24  1  0  0  0
 24 25  1  0  0  0
 24 26  1  0  0  0
 26 27  1  0  0  0
  8  9  1  0  0  0
  9 10  1  0  0  0
 32 33  2  0  0  0
 33 34  1  0  0  0
M  END
> <minimizedAffinity>
-11.20188

$$$$
