CHEMBL3894725


 38 41  0  0  0  0  0  0  0  0999 V2000
  -25.4300   -1.8887  -12.0383 C   0  0  0  0  0  0  0  0  0  0  0  0
  -24.1301   -1.8733  -11.5224 C   0  0  0  0  0  0  0  0  0  0  0  0
  -23.0529   -1.4548  -12.3108 C   0  0  0  0  0  0  0  0  0  0  0  0
  -23.2598   -1.0569  -13.6307 C   0  0  0  0  0  0  0  0  0  0  0  0
  -24.5441   -1.1303  -14.1766 C   0  0  0  0  0  0  0  0  0  0  0  0
  -25.6140   -1.5193  -13.3728 C   0  0  0  0  0  0  0  0  0  0  0  0
  -26.8508   -1.5213  -13.8954 F   0  0  0  0  0  0  0  0  0  0  0  0
  -26.2047   -1.0591   -9.3974 O   0  0  0  0  0  0  0  0  0  0  0  0
  -26.8263   -1.9317   -9.9885 C   0  0  0  0  0  0  0  0  0  0  0  0
  -27.8370   -2.6977   -9.4255 N   0  0  0  0  0  0  0  0  0  0  0  0
  -26.5636   -2.3001  -11.2947 N   0  0  0  0  0  0  0  0  0  0  0  0
  -28.1045   -3.5258   -9.9392 H   0  0  0  0  0  0  0  0  0  0  0  0
  -27.3197   -2.7072  -11.8306 H   0  0  0  0  0  0  0  0  0  0  0  0
  -28.2433   -2.6197   -8.0733 C   0  0  0  0  0  0  0  0  0  0  0  0
  -28.7045   -3.7196   -7.3494 C   0  0  0  0  0  0  0  0  0  0  0  0
  -29.1988   -3.5669   -6.0542 C   0  0  0  0  0  0  0  0  0  0  0  0
  -29.2231   -2.3122   -5.4447 C   0  0  0  0  0  0  0  0  0  0  0  0
  -29.8983   -2.2464   -3.8601 Cl  0  0  0  0  0  0  0  0  0  0  0  0
  -28.7221   -1.1969   -6.1233 C   0  0  0  0  0  0  0  0  0  0  0  0
  -28.2156   -1.3741   -7.4373 C   0  0  0  0  0  0  0  0  0  0  0  0
  -28.6953    0.1975   -5.5547 C   0  0  0  0  0  0  0  0  0  0  0  0
  -27.9376    0.3921   -4.4457 F   0  0  0  0  0  0  0  0  0  0  0  0
  -28.2465    1.1045   -6.4697 F   0  0  0  0  0  0  0  0  0  0  0  0
  -29.9475    0.6225   -5.2136 F   0  0  0  0  0  0  0  0  0  0  0  0
  -22.1371   -0.6626  -14.3273 O   0  0  0  0  0  0  0  0  0  0  0  0
  -21.7953    0.6713  -14.3532 C   0  0  0  0  0  0  0  0  0  0  0  0
  -22.5926    1.6785  -13.8214 C   0  0  0  0  0  0  0  0  0  0  0  0
  -22.1704    2.9773  -13.9834 C   0  0  0  0  0  0  0  0  0  0  0  0
  -21.0026    3.3082  -14.5625 N   0  0  0  0  0  0  0  0  0  0  0  0
  -20.1912    2.3288  -14.9961 C   0  0  0  0  0  0  0  0  0  0  0  0
  -20.5537    0.9904  -14.9086 C   0  0  0  0  0  0  0  0  0  0  0  0
  -18.9443    2.6549  -15.5536 N   0  0  0  0  0  0  0  0  0  0  0  0
  -17.7314    2.3042  -14.9925 C   0  0  0  0  0  0  0  0  0  0  0  0
  -17.5444    1.6963  -13.9471 O   0  0  0  0  0  0  0  0  0  0  0  0
  -18.9445    3.1871  -16.4068 H   0  0  0  0  0  0  0  0  0  0  0  0
  -16.5106    2.7364  -15.7378 C   0  0  0  0  0  0  0  0  0  0  0  0
  -15.7205    1.7101  -16.5139 C   0  0  0  0  0  0  0  0  0  0  0  0
  -15.0777    2.4552  -15.3789 C   0  0  0  0  0  0  0  0  0  0  0  0
  8  9  2  0  0  0
  9 10  1  0  0  0
  9 11  1  0  0  0
 10 14  1  0  0  0
 10 12  1  0  0  0
 14 15  1  0  0  0
 14 20  2  0  0  0
 15 16  2  0  0  0
 16 17  1  0  0  0
 17 18  1  0  0  0
 17 19  2  0  0  0
 19 21  1  0  0  0
 19 20  1  0  0  0
 21 22  1  0  0  0
 21 23  1  0  0  0
 21 24  1  0  0  0
 11  1  1  0  0  0
 11 13  1  0  0  0
  1  2  1  0  0  0
  1  6  2  0  0  0
  2  3  2  0  0  0
  3  4  1  0  0  0
  4 25  1  0  0  0
  4  5  2  0  0  0
 25 26  1  0  0  0
 26 27  1  0  0  0
 26 31  2  0  0  0
 27 28  2  0  0  0
 28 29  1  0  0  0
 29 30  2  0  0  0
 30 32  1  0  0  0
 30 31  1  0  0  0
 32 33  1  0  0  0
 32 35  1  0  0  0
 33 34  2  0  0  0
 33 36  1  0  0  0
 36 37  1  0  0  0
 36 38  1  0  0  0
 37 38  1  0  0  0
  5  6  1  0  0  0
  6  7  1  0  0  0
M  END
> <minimizedAffinity>
-12.20572

$$$$
