CHEMBL3972564


 30 34  0  0  0  0  0  0  0  0999 V2000
  -18.0225    1.8470  -15.1534 C   0  0  0  0  0  0  0  0  0  0  0  0
  -18.3821    3.1700  -15.4671 C   0  0  0  0  0  0  0  0  0  0  0  0
  -19.6584    3.6785  -15.1795 C   0  0  0  0  0  0  0  0  0  0  0  0
  -20.6540    2.8682  -14.6609 C   0  0  0  0  0  0  0  0  0  0  0  0
  -21.8839    3.3609  -14.4208 N   0  0  0  0  0  0  0  0  0  0  0  0
  -22.8047    2.4718  -13.9700 C   0  0  0  0  0  0  0  0  0  0  0  0
  -22.5283    1.1269  -13.7683 C   0  0  0  0  0  0  0  0  0  0  0  0
  -21.2781    0.6485  -13.9573 N   0  0  0  0  0  0  0  0  0  0  0  0
  -20.3461    1.5206  -14.3958 C   0  0  0  0  0  0  0  0  0  0  0  0
  -19.0415    1.0770  -14.5791 C   0  0  0  0  0  0  0  0  0  0  0  0
  -23.5567    0.1770  -13.3790 C   0  0  0  0  0  0  0  0  0  0  0  0
  -24.1786   -0.8668  -14.1006 C   0  0  0  0  0  0  0  0  0  0  0  0
  -25.0606   -1.5549  -13.3682 N   0  0  0  0  0  0  0  0  0  0  0  0
  -25.0066   -0.9530  -12.1665 N   0  0  0  0  0  0  0  0  0  0  0  0
  -25.8250   -1.4410  -11.0821 C   0  0  0  0  0  0  0  0  0  0  0  0
  -24.1210    0.0848  -12.1198 C   0  0  0  0  0  0  0  0  0  0  0  0
  -16.7075    1.3411  -15.4077 N   0  0  0  0  0  0  0  0  0  0  0  0
  -13.9261    3.8440  -16.1198 C   0  0  0  0  0  0  0  0  0  0  0  0
  -13.3548    3.3299  -17.2660 C   0  0  0  0  0  0  0  0  0  0  0  0
  -13.8878    2.1586  -17.7989 C   0  0  0  0  0  0  0  0  0  0  0  0
  -13.1578    1.4792  -19.2072 Cl  0  0  0  0  0  0  0  0  0  0  0  0
  -14.9908    1.5091  -17.2097 C   0  0  0  0  0  0  0  0  0  0  0  0
  -15.6028    1.9997  -16.0408 C   0  0  0  0  0  0  0  0  0  0  0  0
  -15.0075    3.1675  -15.5290 C   0  0  0  0  0  0  0  0  0  0  0  0
  -12.2227    5.0694  -14.9724 C   0  0  0  0  0  0  0  0  0  0  0  0
  -13.5575    4.9762  -15.4472 O   0  0  0  0  0  0  0  0  0  0  0  0
  -16.4643   -0.0016  -14.8071 C   0  0  0  0  0  0  0  0  0  0  0  0
  -15.6710    0.0716  -13.5266 C   0  0  0  0  0  0  0  0  0  0  0  0
  -14.3069   -0.5846  -13.4497 C   0  0  0  0  0  0  0  0  0  0  0  0
  -15.4583   -1.1644  -12.6880 C   0  0  0  0  0  0  0  0  0  0  0  0
 25 26  1  0  0  0
 26 18  1  0  0  0
 18 19  1  0  0  0
 18 24  2  0  0  0
 19 20  2  0  0  0
 20 21  1  0  0  0
 20 22  1  0  0  0
 22 23  2  0  0  0
 23 17  1  0  0  0
 23 24  1  0  0  0
 17 27  1  0  0  0
 17  1  1  0  0  0
 27 28  1  0  0  0
 28 29  1  0  0  0
 28 30  1  0  0  0
 29 30  1  0  0  0
  1  2  1  0  0  0
  1 10  2  0  0  0
  2  3  2  0  0  0
  3  4  1  0  0  0
  4  5  1  0  0  0
  4  9  2  0  0  0
  5  6  2  0  0  0
  6  7  1  0  0  0
  7 11  1  0  0  0
  7  8  2  0  0  0
 11 12  1  0  0  0
 11 16  2  0  0  0
 12 13  2  0  0  0
 13 14  1  0  0  0
 14 15  1  0  0  0
 14 16  1  0  0  0
  8  9  1  0  0  0
  9 10  1  0  0  0
M  END
> <minimizedAffinity>
-8.46335

$$$$
