CHEMBL3397922


 35 37  0  0  0  0  0  0  0  0999 V2000
  -14.5292    3.3551  -16.5017 C   0  0  0  0  0  0  0  0  0  0  0  0
  -13.5738    2.7152  -15.7208 C   0  0  0  0  0  0  0  0  0  0  0  0
  -13.9748    1.7981  -14.7482 C   0  0  0  0  0  0  0  0  0  0  0  0
  -15.3368    1.5008  -14.5514 C   0  0  0  0  0  0  0  0  0  0  0  0
  -16.3566    2.1595  -15.3040 C   0  0  0  0  0  0  0  0  0  0  0  0
  -15.8966    3.1023  -16.2669 C   0  0  0  0  0  0  0  0  0  0  0  0
  -16.7589    3.8482  -17.0457 O   0  0  0  0  0  0  0  0  0  0  0  0
  -17.6316    3.8917  -16.6287 H   0  0  0  0  0  0  0  0  0  0  0  0
  -17.8190    1.8922  -15.1148 C   0  0  0  0  0  0  0  0  0  0  0  0
  -18.3836    0.6229  -15.3601 C   0  0  0  0  0  0  0  0  0  0  0  0
  -19.7600    0.3839  -15.2284 C   0  0  0  0  0  0  0  0  0  0  0  0
  -20.6000    1.3831  -14.7468 C   0  0  0  0  0  0  0  0  0  0  0  0
  -20.0573    2.6240  -14.4436 C   0  0  0  0  0  0  0  0  0  0  0  0
  -20.8185    3.6179  -13.9030 O   0  0  0  0  0  0  0  0  0  0  0  0
  -18.7089    2.8935  -14.6727 C   0  0  0  0  0  0  0  0  0  0  0  0
  -21.7133    3.2745  -13.7471 H   0  0  0  0  0  0  0  0  0  0  0  0
  -15.6254    0.3544  -13.6222 C   0  0  0  0  0  0  0  0  0  0  0  0
  -16.1297    0.6020  -12.5344 O   0  0  0  0  0  0  0  0  0  0  0  0
  -15.2464   -0.9085  -14.0655 N   0  0  0  0  0  0  0  0  0  0  0  0
  -14.6173   -0.9619  -14.8585 H   0  0  0  0  0  0  0  0  0  0  0  0
  -15.3360   -2.0467  -13.2240 C   0  0  0  0  0  0  0  0  0  0  0  0
  -14.5921   -2.1449  -12.0498 C   0  0  0  0  0  0  0  0  0  0  0  0
  -14.6252   -3.3114  -11.2696 C   0  0  0  0  0  0  0  0  0  0  0  0
  -15.4058   -4.4138  -11.6645 C   0  0  0  0  0  0  0  0  0  0  0  0
  -16.1631   -4.2917  -12.8364 C   0  0  0  0  0  0  0  0  0  0  0  0
  -17.1032   -5.6230  -13.4243 Cl  0  0  0  0  0  0  0  0  0  0  0  0
  -16.1622   -3.1031  -13.5892 C   0  0  0  0  0  0  0  0  0  0  0  0
  -15.4395   -5.6046  -10.9920 O   0  0  0  0  0  0  0  0  0  0  0  0
  -14.1749   -6.1729  -10.6326 C   0  0  0  0  0  0  0  0  0  0  0  0
  -13.5016   -6.7775  -11.8756 C   0  0  0  0  0  0  0  0  0  0  0  0
  -14.1174   -8.0447  -12.3246 N   0  0  0  0  0  0  0  0  0  0  0  0
  -14.4451   -8.0276  -13.7519 C   0  0  0  0  0  0  0  0  0  0  0  0
  -13.2201   -9.1679  -12.0402 C   0  0  0  0  0  0  0  0  0  0  0  0
  -13.3864    5.3265  -17.2378 C   0  0  0  0  0  0  0  0  0  0  0  0
  -14.2546    4.2425  -17.5110 O   0  0  0  0  0  0  0  0  0  0  0  0
 34 35  1  0  0  0
 35  1  1  0  0  0
  1  2  1  0  0  0
  1  6  2  0  0  0
  2  3  2  0  0  0
  3  4  1  0  0  0
  4 17  1  0  0  0
  4  5  2  0  0  0
 17 18  2  0  0  0
 17 19  1  0  0  0
 19 21  1  0  0  0
 19 20  1  0  0  0
 21 22  1  0  0  0
 21 27  2  0  0  0
 22 23  2  0  0  0
 23 24  1  0  0  0
 24 28  1  0  0  0
 24 25  2  0  0  0
 28 29  1  0  0  0
 29 30  1  0  0  0
 30 31  1  0  0  0
 31 32  1  0  0  0
 31 33  1  0  0  0
 25 26  1  0  0  0
 25 27  1  0  0  0
  5  9  1  0  0  0
  5  6  1  0  0  0
  9 10  1  0  0  0
  9 15  2  0  0  0
 10 11  2  0  0  0
 11 12  1  0  0  0
 12 13  2  0  0  0
 13 14  1  0  0  0
 13 15  1  0  0  0
 14 16  1  0  0  0
  6  7  1  0  0  0
  7  8  1  0  0  0
M  END
> <minimizedAffinity>
-8.38103

$$$$
