CHEMBL1940870


 22 24  0  0  0  0  0  0  0  0999 V2000
  -29.6927   -2.5561   -4.1074 C   0  0  0  0  0  0  0  0  0  0  0  0
  -29.2610   -1.4081   -4.9811 C   0  0  0  0  0  0  0  0  0  0  0  0
  -29.3984   -0.0896   -4.5183 C   0  0  0  0  0  0  0  0  0  0  0  0
  -29.0013    0.9782   -5.3153 C   0  0  0  0  0  0  0  0  0  0  0  0
  -28.4574    0.7352   -6.5751 C   0  0  0  0  0  0  0  0  0  0  0  0
  -28.3106   -0.5807   -7.0471 C   0  0  0  0  0  0  0  0  0  0  0  0
  -27.7518   -0.8586   -8.3097 C   0  0  0  0  0  0  0  0  0  0  0  0
  -27.6100   -2.1753   -8.7646 C   0  0  0  0  0  0  0  0  0  0  0  0
  -28.1012   -3.1603   -7.9059 C   0  0  0  0  0  0  0  0  0  0  0  0
  -28.1831   -4.8407   -8.2943 Cl  0  0  0  0  0  0  0  0  0  0  0  0
  -28.6250   -2.9321   -6.6812 N   0  0  0  0  0  0  0  0  0  0  0  0
  -28.7257   -1.6663   -6.2476 C   0  0  0  0  0  0  0  0  0  0  0  0
  -27.0220   -2.3811  -10.1046 C   0  0  0  0  0  0  0  0  0  0  0  0
  -26.9942   -1.4482  -11.0709 C   0  0  0  0  0  0  0  0  0  0  0  0
  -26.3710   -1.6944  -12.4120 C   0  0  0  0  0  0  0  0  0  0  0  0
  -27.0321   -2.2138  -13.3056 O   0  0  0  0  0  0  0  0  0  0  0  0
  -24.9893   -1.2505  -12.5435 C   0  0  0  0  0  0  0  0  0  0  0  0
  -23.9853   -1.2186  -11.5884 C   0  0  0  0  0  0  0  0  0  0  0  0
  -22.7684   -0.6620  -12.0877 C   0  0  0  0  0  0  0  0  0  0  0  0
  -22.8985   -0.3006  -13.4031 C   0  0  0  0  0  0  0  0  0  0  0  0
  -21.5240    0.5011  -14.3903 Br  0  0  0  0  0  0  0  0  0  0  0  0
  -24.4244   -0.6534  -14.0522 S   0  0  0  0  0  0  0  0  0  0  0  0
  1  2  1  0  0  0
  2  3  1  0  0  0
  2 12  2  0  0  0
  3  4  2  0  0  0
  4  5  1  0  0  0
  5  6  2  0  0  0
  6  7  1  0  0  0
  6 12  1  0  0  0
  7  8  2  0  0  0
  8 13  1  0  0  0
  8  9  1  0  0  0
 13 14  2  0  0  0
 14 15  1  0  0  0
 15 16  2  0  0  0
 15 17  1  0  0  0
 17 18  2  0  0  0
 17 22  1  0  0  0
 18 19  1  0  0  0
 19 20  2  0  0  0
 20 21  1  0  0  0
 20 22  1  0  0  0
  9 10  1  0  0  0
  9 11  2  0  0  0
 11 12  1  0  0  0
M  END
> <minimizedAffinity>
-8.89332

$$$$
