CHEMBL382979


 31 34  0  0  0  0  0  0  0  0999 V2000
  -29.7565   -8.5457   -6.6432 C   0  0  0  0  0  0  0  0  0  0  0  0
  -28.7083   -8.0677   -5.8484 C   0  0  0  0  0  0  0  0  0  0  0  0
  -28.7986   -6.8376   -5.1942 C   0  0  0  0  0  0  0  0  0  0  0  0
  -29.9166   -6.0207   -5.3550 C   0  0  0  0  0  0  0  0  0  0  0  0
  -30.9802   -6.4981   -6.1256 C   0  0  0  0  0  0  0  0  0  0  0  0
  -30.9143   -7.7641   -6.7309 C   0  0  0  0  0  0  0  0  0  0  0  0
  -27.5519   -8.1083   -9.2042 N   0  0  0  0  0  0  0  0  0  0  0  0
  -27.9012   -9.4445   -9.3502 C   0  0  0  0  0  0  0  0  0  0  0  0
  -27.3044  -10.0741  -10.3798 N   0  0  0  0  0  0  0  0  0  0  0  0
  -27.5498  -11.3741  -10.5705 C   0  0  0  0  0  0  0  0  0  0  0  0
  -28.3375  -12.1638   -9.8388 N   0  0  0  0  0  0  0  0  0  0  0  0
  -28.9327  -11.5041   -8.8327 C   0  0  0  0  0  0  0  0  0  0  0  0
  -29.9700  -12.3472   -7.7852 S   0  0  0  0  0  0  0  0  0  0  0  0
  -30.2938  -10.9378   -6.8904 C   0  0  0  0  0  0  0  0  0  0  0  0
  -29.6124   -9.8216   -7.3539 C   0  0  0  0  0  0  0  0  0  0  0  0
  -28.7922  -10.1573   -8.5132 C   0  0  0  0  0  0  0  0  0  0  0  0
  -26.7529   -7.9046   -9.7954 H   0  0  0  0  0  0  0  0  0  0  0  0
  -27.4510   -7.8210   -8.2386 H   0  0  0  0  0  0  0  0  0  0  0  0
  -30.0366   -4.7490   -4.7540 N   0  0  0  0  0  0  0  0  0  0  0  0
  -29.7346   -3.5373   -5.3552 C   0  0  0  0  0  0  0  0  0  0  0  0
  -29.4508   -3.3818   -6.5364 O   0  0  0  0  0  0  0  0  0  0  0  0
  -29.7240   -2.5038   -4.4281 N   0  0  0  0  0  0  0  0  0  0  0  0
  -30.5074   -4.7028   -3.8617 H   0  0  0  0  0  0  0  0  0  0  0  0
  -29.4328   -2.7802   -3.5019 H   0  0  0  0  0  0  0  0  0  0  0  0
  -29.4083   -1.1817   -4.8172 C   0  0  0  0  0  0  0  0  0  0  0  0
  -28.1153   -0.7081   -4.5794 C   0  0  0  0  0  0  0  0  0  0  0  0
  -27.7477    0.5689   -5.0103 C   0  0  0  0  0  0  0  0  0  0  0  0
  -28.6839    1.3924   -5.6358 C   0  0  0  0  0  0  0  0  0  0  0  0
  -29.9826    0.9310   -5.8409 C   0  0  0  0  0  0  0  0  0  0  0  0
  -31.1439    1.9588   -6.5887 Cl  0  0  0  0  0  0  0  0  0  0  0  0
  -30.3468   -0.3538   -5.4428 C   0  0  0  0  0  0  0  0  0  0  0  0
  7  8  1  0  0  0
  7 17  1  0  0  0
  7 18  1  0  0  0
  8  9  1  0  0  0
  8 16  2  0  0  0
  9 10  2  0  0  0
 10 11  1  0  0  0
 11 12  2  0  0  0
 12 13  1  0  0  0
 12 16  1  0  0  0
 13 14  1  0  0  0
 14 15  2  0  0  0
 15  1  1  0  0  0
 15 16  1  0  0  0
  1  2  1  0  0  0
  1  6  2  0  0  0
  2  3  2  0  0  0
  3  4  1  0  0  0
  4 19  1  0  0  0
  4  5  2  0  0  0
 19 20  1  0  0  0
 19 23  1  0  0  0
 20 21  2  0  0  0
 20 22  1  0  0  0
 22 25  1  0  0  0
 22 24  1  0  0  0
 25 26  1  0  0  0
 25 31  2  0  0  0
 26 27  2  0  0  0
 27 28  1  0  0  0
 28 29  2  0  0  0
 29 30  1  0  0  0
 29 31  1  0  0  0
  5  6  1  0  0  0
M  END
> <minimizedAffinity>
-8.42235

$$$$
