CHEMBL3949155


 31 34  0  0  0  0  0  0  0  0999 V2000
  -28.6401   -7.5001   -5.1085 C   0  0  0  0  0  0  0  0  0  0  0  0
  -28.9962   -8.5727   -5.9359 C   0  0  0  0  0  0  0  0  0  0  0  0
  -30.2942   -8.6692   -6.4883 C   0  0  0  0  0  0  0  0  0  0  0  0
  -30.7661   -9.7019   -7.3110 C   0  0  0  0  0  0  0  0  0  0  0  0
  -32.0170   -9.6995   -7.8160 N   0  0  0  0  0  0  0  0  0  0  0  0
  -32.8097   -8.6822   -7.4852 C   0  0  0  0  0  0  0  0  0  0  0  0
  -32.4757   -7.6701   -6.6873 N   0  0  0  0  0  0  0  0  0  0  0  0
  -31.2376   -7.6800   -6.2007 C   0  0  0  0  0  0  0  0  0  0  0  0
  -30.8944   -6.6706   -5.3251 C   0  0  0  0  0  0  0  0  0  0  0  0
  -29.6321   -6.5872   -4.7196 C   0  0  0  0  0  0  0  0  0  0  0  0
  -26.6525   -8.5292   -4.3356 C   0  0  0  0  0  0  0  0  0  0  0  0
  -27.3621   -7.3252   -4.6427 O   0  0  0  0  0  0  0  0  0  0  0  0
  -29.9343  -10.8129   -7.6102 N   0  0  0  0  0  0  0  0  0  0  0  0
  -29.5636  -11.2171   -6.7531 H   0  0  0  0  0  0  0  0  0  0  0  0
  -28.9637  -10.7840   -8.6437 C   0  0  0  0  0  0  0  0  0  0  0  0
  -29.3464  -10.5579   -9.9739 C   0  0  0  0  0  0  0  0  0  0  0  0
  -28.3848  -10.4257  -10.9715 C   0  0  0  0  0  0  0  0  0  0  0  0
  -28.8781  -10.0697  -12.5804 Cl  0  0  0  0  0  0  0  0  0  0  0  0
  -27.0302  -10.5602  -10.6687 C   0  0  0  0  0  0  0  0  0  0  0  0
  -26.6380  -10.8533   -9.3612 C   0  0  0  0  0  0  0  0  0  0  0  0
  -27.6049  -10.9674   -8.3636 C   0  0  0  0  0  0  0  0  0  0  0  0
  -27.2182  -11.2184   -7.1042 F   0  0  0  0  0  0  0  0  0  0  0  0
  -29.3465   -5.6431   -3.7481 O   0  0  0  0  0  0  0  0  0  0  0  0
  -28.6230   -4.5046   -4.2561 C   0  0  0  0  0  0  0  0  0  0  0  0
  -29.5114   -3.3822   -4.8090 C   0  0  0  0  0  0  0  0  0  0  0  0
  -29.4108   -3.2169   -6.3361 C   0  0  0  0  0  0  0  0  0  0  0  0
  -28.0948   -2.6827   -6.7466 N   0  0  0  0  0  0  0  0  0  0  0  0
  -28.0302   -2.5397   -8.1967 C   0  0  0  0  0  0  0  0  0  0  0  0
  -27.8761   -1.3910   -6.0688 C   0  0  0  0  0  0  0  0  0  0  0  0
  -27.9646   -1.5581   -4.5448 C   0  0  0  0  0  0  0  0  0  0  0  0
  -29.2228   -2.1261   -4.1403 O   0  0  0  0  0  0  0  0  0  0  0  0
 11 12  1  0  0  0
 12  1  1  0  0  0
  1  2  1  0  0  0
  1 10  2  0  0  0
  2  3  2  0  0  0
  3  4  1  0  0  0
  3  8  1  0  0  0
  4 13  1  0  0  0
  4  5  2  0  0  0
 13 15  1  0  0  0
 13 14  1  0  0  0
 15 16  1  0  0  0
 15 21  2  0  0  0
 16 17  2  0  0  0
 17 18  1  0  0  0
 17 19  1  0  0  0
 19 20  2  0  0  0
 20 21  1  0  0  0
 21 22  1  0  0  0
  5  6  1  0  0  0
  6  7  2  0  0  0
  7  8  1  0  0  0
  8  9  2  0  0  0
  9 10  1  0  0  0
 10 23  1  0  0  0
 23 24  1  0  0  0
 24 25  1  0  0  0
 25 26  1  0  0  0
 25 31  1  0  0  0
 26 27  1  0  0  0
 27 28  1  0  0  0
 27 29  1  0  0  0
 29 30  1  0  0  0
 30 31  1  0  0  0
M  END
> <minimizedAffinity>
-7.81987

$$$$
