CHEMBL425718


 35 37  0  0  0  0  0  0  0  0999 V2000
  -29.5241   -4.2125   -4.3846 C   0  0  0  0  0  0  0  0  0  0  0  0
  -30.8956   -4.2421   -4.1983 C   0  0  0  0  0  0  0  0  0  0  0  0
  -31.4474   -5.4100   -3.7447 C   0  0  0  0  0  0  0  0  0  0  0  0
  -30.7301   -6.5072   -3.5023 N   0  0  0  0  0  0  0  0  0  0  0  0
  -29.4047   -6.4305   -3.6936 C   0  0  0  0  0  0  0  0  0  0  0  0
  -28.7818   -5.3172   -4.1115 N   0  0  0  0  0  0  0  0  0  0  0  0
  -28.8740   -3.0243   -4.8267 N   0  0  0  0  0  0  0  0  0  0  0  0
  -28.6727   -1.9822   -3.8189 C   0  0  0  0  0  0  0  0  0  0  0  0
  -27.9519   -2.2666   -8.9252 C   0  0  0  0  0  0  0  0  0  0  0  0
  -28.3837   -3.5132   -8.4843 C   0  0  0  0  0  0  0  0  0  0  0  0
  -28.6824   -3.7355   -7.1385 C   0  0  0  0  0  0  0  0  0  0  0  0
  -28.5432   -2.7353   -6.1685 C   0  0  0  0  0  0  0  0  0  0  0  0
  -28.0553   -1.4950   -6.6154 C   0  0  0  0  0  0  0  0  0  0  0  0
  -27.7538   -1.2648   -7.9738 C   0  0  0  0  0  0  0  0  0  0  0  0
  -26.5708   -1.4542  -12.1999 N   0  0  0  0  0  0  0  0  0  0  0  0
  -26.4958   -1.6714  -10.8404 C   0  0  0  0  0  0  0  0  0  0  0  0
  -25.4255   -1.6258  -10.2474 O   0  0  0  0  0  0  0  0  0  0  0  0
  -27.7261   -1.9827  -10.2928 N   0  0  0  0  0  0  0  0  0  0  0  0
  -27.4468   -1.1211  -12.5722 H   0  0  0  0  0  0  0  0  0  0  0  0
  -28.4402   -2.2694  -10.9446 H   0  0  0  0  0  0  0  0  0  0  0  0
  -25.4463   -1.5956  -14.3960 C   0  0  0  0  0  0  0  0  0  0  0  0
  -25.3577   -1.1610  -12.9424 C   0  0  0  0  0  0  0  0  0  0  0  0
  -28.6292   -7.5616   -3.4226 N   0  0  0  0  0  0  0  0  0  0  0  0
  -28.2343   -7.5265   -2.4940 H   0  0  0  0  0  0  0  0  0  0  0  0
  -27.9862   -8.3890   -4.3570 C   0  0  0  0  0  0  0  0  0  0  0  0
  -26.6493   -8.7493   -4.1804 C   0  0  0  0  0  0  0  0  0  0  0  0
  -26.0288   -9.6281   -5.0743 C   0  0  0  0  0  0  0  0  0  0  0  0
  -26.7323  -10.1440   -6.1664 C   0  0  0  0  0  0  0  0  0  0  0  0
  -28.0720   -9.8014   -6.3702 C   0  0  0  0  0  0  0  0  0  0  0  0
  -28.6731   -8.9153   -5.4634 C   0  0  0  0  0  0  0  0  0  0  0  0
  -28.8626  -10.2753   -7.5607 C   0  0  0  0  0  0  0  0  0  0  0  0
  -28.4739   -9.3894   -9.0644 S   0  0  0  0  0  0  0  0  0  0  0  0
  -27.0826  -10.2445   -9.7678 C   0  0  0  0  0  0  0  0  0  0  0  0
  -29.5906   -9.5974   -9.9732 O   0  0  0  0  0  0  0  0  0  0  0  0
  -28.0588   -8.0367   -8.7436 O   0  0  0  0  0  0  0  0  0  0  0  0
 21 22  1  0  0  0
 22 15  1  0  0  0
 15 16  1  0  0  0
 15 19  1  0  0  0
 16 17  2  0  0  0
 16 18  1  0  0  0
 18  9  1  0  0  0
 18 20  1  0  0  0
  9 10  1  0  0  0
  9 14  2  0  0  0
 10 11  2  0  0  0
 11 12  1  0  0  0
 12  7  1  0  0  0
 12 13  2  0  0  0
  7  8  1  0  0  0
  7  1  1  0  0  0
  1  2  1  0  0  0
  1  6  2  0  0  0
  2  3  2  0  0  0
  3  4  1  0  0  0
  4  5  2  0  0  0
  5 23  1  0  0  0
  5  6  1  0  0  0
 23 25  1  0  0  0
 23 24  1  0  0  0
 25 26  1  0  0  0
 25 30  2  0  0  0
 26 27  2  0  0  0
 27 28  1  0  0  0
 28 29  2  0  0  0
 29 31  1  0  0  0
 29 30  1  0  0  0
 31 32  1  0  0  0
 32 33  1  0  0  0
 32 34  2  0  0  0
 32 35  2  0  0  0
 13 14  1  0  0  0
M  END
> <minimizedAffinity>
-8.85628

$$$$
