CHEMBL3942179


 34 38  0  0  0  0  0  0  0  0999 V2000
  -28.0102   -2.0985   -8.4922 N   0  0  0  0  0  0  0  0  0  0  0  0
  -27.3663   -1.5248   -9.6569 C   0  0  0  0  0  0  0  0  0  0  0  0
  -28.1973   -1.4079  -10.7688 C   0  0  0  0  0  0  0  0  0  0  0  0
  -27.6630   -1.4825  -12.0360 C   0  0  0  0  0  0  0  0  0  0  0  0
  -26.3115   -1.4809  -12.2485 C   0  0  0  0  0  0  0  0  0  0  0  0
  -25.9575   -1.7648  -13.5182 N   0  0  0  0  0  0  0  0  0  0  0  0
  -24.6833   -1.5282  -13.8413 C   0  0  0  0  0  0  0  0  0  0  0  0
  -23.8107   -0.9191  -12.9637 C   0  0  0  0  0  0  0  0  0  0  0  0
  -24.1219   -0.8108  -11.6205 N   0  0  0  0  0  0  0  0  0  0  0  0
  -25.4135   -1.1715  -11.2134 C   0  0  0  0  0  0  0  0  0  0  0  0
  -25.9778   -1.2911   -9.8761 C   0  0  0  0  0  0  0  0  0  0  0  0
  -22.8043   -0.0732  -13.6078 C   0  0  0  0  0  0  0  0  0  0  0  0
  -21.7540   -0.3016  -14.5233 C   0  0  0  0  0  0  0  0  0  0  0  0
  -21.1819    0.8344  -14.9583 N   0  0  0  0  0  0  0  0  0  0  0  0
  -21.8648    1.7994  -14.3156 N   0  0  0  0  0  0  0  0  0  0  0  0
  -21.4188    3.1742  -14.3392 C   0  0  0  0  0  0  0  0  0  0  0  0
  -22.9227    1.3111  -13.6072 C   0  0  0  0  0  0  0  0  0  0  0  0
  -28.8646    0.1030   -5.5734 C   0  0  0  0  0  0  0  0  0  0  0  0
  -28.5839   -0.7410   -4.4994 C   0  0  0  0  0  0  0  0  0  0  0  0
  -28.0421   -2.0007   -4.7351 C   0  0  0  0  0  0  0  0  0  0  0  0
  -27.7898   -2.4193   -6.0484 C   0  0  0  0  0  0  0  0  0  0  0  0
  -28.0614   -1.6062   -7.1605 C   0  0  0  0  0  0  0  0  0  0  0  0
  -28.5870   -0.3244   -6.8917 C   0  0  0  0  0  0  0  0  0  0  0  0
  -30.7361    1.5285   -6.0255 C   0  0  0  0  0  0  0  0  0  0  0  0
  -29.4409    1.3447   -5.4437 O   0  0  0  0  0  0  0  0  0  0  0  0
  -27.7523   -2.9342   -3.7734 O   0  0  0  0  0  0  0  0  0  0  0  0
  -28.8572   -3.5642   -3.1328 C   0  0  0  0  0  0  0  0  0  0  0  0
  -27.9278   -3.6045   -8.6394 C   0  0  0  0  0  0  0  0  0  0  0  0
  -29.1086   -4.4375   -8.1064 C   0  0  0  0  0  0  0  0  0  0  0  0
  -28.7647   -5.6789   -7.4474 N   0  0  0  0  0  0  0  0  0  0  0  0
  -28.7400   -6.9155   -8.0149 C   0  0  0  0  0  0  0  0  0  0  0  0
  -28.5278   -7.8185   -7.0869 N   0  0  0  0  0  0  0  0  0  0  0  0
  -28.4422   -7.1647   -5.8781 N   0  0  0  0  0  0  0  0  0  0  0  0
  -28.6044   -5.8835   -6.1086 C   0  0  0  0  0  0  0  0  0  0  0  0
 24 25  1  0  0  0
 25 18  1  0  0  0
 18 19  1  0  0  0
 18 23  2  0  0  0
 19 20  2  0  0  0
 20 26  1  0  0  0
 20 21  1  0  0  0
 26 27  1  0  0  0
 21 22  2  0  0  0
 22  1  1  0  0  0
 22 23  1  0  0  0
  1 28  1  0  0  0
  1  2  1  0  0  0
 28 29  1  0  0  0
 29 30  1  0  0  0
 30 31  1  0  0  0
 30 34  1  0  0  0
 31 32  2  0  0  0
 32 33  1  0  0  0
 33 34  2  0  0  0
  2  3  1  0  0  0
  2 11  2  0  0  0
  3  4  2  0  0  0
  4  5  1  0  0  0
  5  6  1  0  0  0
  5 10  2  0  0  0
  6  7  2  0  0  0
  7  8  1  0  0  0
  8 12  1  0  0  0
  8  9  2  0  0  0
 12 13  1  0  0  0
 12 17  2  0  0  0
 13 14  2  0  0  0
 14 15  1  0  0  0
 15 16  1  0  0  0
 15 17  1  0  0  0
  9 10  1  0  0  0
 10 11  1  0  0  0
M  END
> <minimizedAffinity>
-8.48815

$$$$
