CHEMBL1082693


 43 48  0  0  0  0  0  0  0  0999 V2000
  -26.7198   -1.7741  -11.5971 C   0  0  0  0  0  0  0  0  0  0  0  0
  -27.3317   -2.0920  -12.8268 C   0  0  0  0  0  0  0  0  0  0  0  0
  -26.6156   -1.7209  -13.8875 N   0  0  0  0  0  0  0  0  0  0  0  0
  -25.5119   -1.1198  -13.3502 N   0  0  0  0  0  0  0  0  0  0  0  0
  -24.4275   -0.5447  -14.0675 C   0  0  0  0  0  0  0  0  0  0  0  0
  -24.5301   -0.5314  -15.4588 N   0  0  0  0  0  0  0  0  0  0  0  0
  -23.3803   -0.0662  -13.3603 C   0  0  0  0  0  0  0  0  0  0  0  0
  -23.5141   -0.1372  -11.8742 C   0  0  0  0  0  0  0  0  0  0  0  0
  -24.5040   -0.6414  -11.2064 N   0  0  0  0  0  0  0  0  0  0  0  0
  -25.5289   -1.1619  -11.9513 C   0  0  0  0  0  0  0  0  0  0  0  0
  -25.2209   -1.2095  -15.7910 H   0  0  0  0  0  0  0  0  0  0  0  0
  -23.6422   -0.5593  -15.9502 H   0  0  0  0  0  0  0  0  0  0  0  0
  -28.0250   -2.4115   -7.5452 C   0  0  0  0  0  0  0  0  0  0  0  0
  -27.8932   -3.4710   -8.4520 C   0  0  0  0  0  0  0  0  0  0  0  0
  -27.4885   -3.2704   -9.7735 C   0  0  0  0  0  0  0  0  0  0  0  0
  -27.1856   -1.9908  -10.2378 C   0  0  0  0  0  0  0  0  0  0  0  0
  -27.3261   -0.9170   -9.3537 C   0  0  0  0  0  0  0  0  0  0  0  0
  -27.7351   -1.1297   -8.0278 C   0  0  0  0  0  0  0  0  0  0  0  0
  -30.5206   -2.8329   -2.5878 C   0  0  0  0  0  0  0  0  0  0  0  0
  -29.4302   -2.9677   -3.5494 N   0  0  0  0  0  0  0  0  0  0  0  0
  -29.8202   -3.8701   -4.6598 C   0  0  0  0  0  0  0  0  0  0  0  0
  -28.7238   -4.0025   -5.7482 C   0  0  0  0  0  0  0  0  0  0  0  0
  -28.3624   -2.6647   -6.2325 N   0  0  0  0  0  0  0  0  0  0  0  0
  -27.9475   -1.7394   -5.1653 C   0  0  0  0  0  0  0  0  0  0  0  0
  -29.0663   -1.6433   -4.1055 C   0  0  0  0  0  0  0  0  0  0  0  0
  -22.1926    0.5528  -13.9495 C   0  0  0  0  0  0  0  0  0  0  0  0
  -21.9825    1.9211  -13.7918 C   0  0  0  0  0  0  0  0  0  0  0  0
  -20.8376    2.5247  -14.3153 C   0  0  0  0  0  0  0  0  0  0  0  0
  -19.8815    1.7792  -15.0131 C   0  0  0  0  0  0  0  0  0  0  0  0
  -20.1010    0.4042  -15.1741 C   0  0  0  0  0  0  0  0  0  0  0  0
  -21.2474   -0.2080  -14.6454 C   0  0  0  0  0  0  0  0  0  0  0  0
  -18.6981    2.3372  -15.5620 N   0  0  0  0  0  0  0  0  0  0  0  0
  -17.4002    1.9923  -15.2470 C   0  0  0  0  0  0  0  0  0  0  0  0
  -17.1125    1.1485  -14.3957 O   0  0  0  0  0  0  0  0  0  0  0  0
  -16.3819    2.6522  -15.9430 N   0  0  0  0  0  0  0  0  0  0  0  0
  -16.5549    3.7162  -16.9327 C   0  0  0  0  0  0  0  0  0  0  0  0
  -18.8458    3.0988  -16.1974 H   0  0  0  0  0  0  0  0  0  0  0  0
  -14.9933    2.3884  -15.4678 C   0  0  0  0  0  0  0  0  0  0  0  0
  -14.1729    3.6927  -15.4664 C   0  0  0  0  0  0  0  0  0  0  0  0
  -12.7289    3.4768  -15.0215 C   0  0  0  0  0  0  0  0  0  0  0  0
  -12.0521    2.3771  -15.8308 C   0  0  0  0  0  0  0  0  0  0  0  0
  -12.8332    1.0715  -15.7338 C   0  0  0  0  0  0  0  0  0  0  0  0
  -14.2712    1.2549  -16.2189 C   0  0  0  0  0  0  0  0  0  0  0  0
 19 20  1  0  0  0
 20 21  1  0  0  0
 20 25  1  0  0  0
 21 22  1  0  0  0
 22 23  1  0  0  0
 23 13  1  0  0  0
 23 24  1  0  0  0
 13 14  1  0  0  0
 13 18  2  0  0  0
 14 15  2  0  0  0
 15 16  1  0  0  0
 16  1  1  0  0  0
 16 17  2  0  0  0
  1  2  1  0  0  0
  1 10  2  0  0  0
  2  3  2  0  0  0
  3  4  1  0  0  0
  4  5  1  0  0  0
  4 10  1  0  0  0
  5  6  1  0  0  0
  5  7  2  0  0  0
  6 11  1  0  0  0
  6 12  1  0  0  0
  7 26  1  0  0  0
  7  8  1  0  0  0
 26 27  1  0  0  0
 26 31  2  0  0  0
 27 28  2  0  0  0
 28 29  1  0  0  0
 29 32  1  0  0  0
 29 30  2  0  0  0
 32 33  1  0  0  0
 32 37  1  0  0  0
 33 34  2  0  0  0
 33 35  1  0  0  0
 35 36  1  0  0  0
 35 38  1  0  0  0
 38 39  1  0  0  0
 38 43  1  0  0  0
 39 40  1  0  0  0
 40 41  1  0  0  0
 41 42  1  0  0  0
 42 43  1  0  0  0
 30 31  1  0  0  0
  8  9  2  0  0  0
  9 10  1  0  0  0
 17 18  1  0  0  0
 24 25  1  0  0  0
M  END
> <minimizedAffinity>
-10.28685

$$$$
