CHEMBL3109343


 34 38  0  0  0  0  0  0  0  0999 V2000
  -14.7849   -1.4662  -13.2410 C   0  0  0  0  0  0  0  0  0  0  0  0
  -13.4451   -1.2493  -13.5215 C   0  0  0  0  0  0  0  0  0  0  0  0
  -13.0915   -0.1053  -14.2231 C   0  0  0  0  0  0  0  0  0  0  0  0
  -14.0785    0.7977  -14.6312 C   0  0  0  0  0  0  0  0  0  0  0  0
  -13.7281    1.9615  -15.3303 C   0  0  0  0  0  0  0  0  0  0  0  0
  -14.7085    2.8591  -15.7381 C   0  0  0  0  0  0  0  0  0  0  0  0
  -16.0474    2.5966  -15.4604 C   0  0  0  0  0  0  0  0  0  0  0  0
  -16.4049    1.4354  -14.7641 C   0  0  0  0  0  0  0  0  0  0  0  0
  -15.4272    0.5137  -14.3243 C   0  0  0  0  0  0  0  0  0  0  0  0
  -15.7548   -0.6086  -13.6306 N   0  0  0  0  0  0  0  0  0  0  0  0
  -14.9519   -6.7221  -13.0133 C   0  0  0  0  0  0  0  0  0  0  0  0
  -14.4220   -5.8833  -14.0870 C   0  0  0  0  0  0  0  0  0  0  0  0
  -14.4848   -4.5475  -13.9776 C   0  0  0  0  0  0  0  0  0  0  0  0
  -15.0536   -3.9660  -12.8436 N   0  0  0  0  0  0  0  0  0  0  0  0
  -15.2129   -2.6363  -12.4809 C   0  0  0  0  0  0  0  0  0  0  0  0
  -15.8273   -2.7014  -11.2389 C   0  0  0  0  0  0  0  0  0  0  0  0
  -16.0335   -3.9865  -10.8225 N   0  0  0  0  0  0  0  0  0  0  0  0
  -15.5618   -4.7361  -11.7948 C   0  0  0  0  0  0  0  0  0  0  0  0
  -15.4917   -6.1535  -11.9178 C   0  0  0  0  0  0  0  0  0  0  0  0
  -14.9019   -8.1035  -13.0959 O   0  0  0  0  0  0  0  0  0  0  0  0
  -13.8565   -8.7757  -12.3966 C   0  0  0  0  0  0  0  0  0  0  0  0
  -12.8175   -9.2933  -13.3817 C   0  0  0  0  0  0  0  0  0  0  0  0
  -11.1123   -9.6255  -11.7862 C   0  0  0  0  0  0  0  0  0  0  0  0
  -11.9966  -10.2471  -12.7063 O   0  0  0  0  0  0  0  0  0  0  0  0
  -17.7001    1.1086  -14.4487 O   0  0  0  0  0  0  0  0  0  0  0  0
  -18.6419    2.1249  -14.0819 C   0  0  0  0  0  0  0  0  0  0  0  0
  -19.7409    2.1474  -15.1673 C   0  0  0  0  0  0  0  0  0  0  0  0
  -19.1013    2.2840  -16.3760 F   0  0  0  0  0  0  0  0  0  0  0  0
  -20.6994    3.3361  -15.0524 C   0  0  0  0  0  0  0  0  0  0  0  0
  -21.7424    3.1620  -13.9544 C   0  0  0  0  0  0  0  0  0  0  0  0
  -22.4303    1.8724  -14.0236 N   0  0  0  0  0  0  0  0  0  0  0  0
  -21.4914    0.7496  -14.0250 C   0  0  0  0  0  0  0  0  0  0  0  0
  -20.5408    0.8419  -15.2116 C   0  0  0  0  0  0  0  0  0  0  0  0
  -22.9942    1.8324  -14.8754 H   0  0  0  0  0  0  0  0  0  0  0  0
 23 24  1  0  0  0
 24 22  1  0  0  0
 22 21  1  0  0  0
 21 20  1  0  0  0
 20 11  1  0  0  0
 11 12  1  0  0  0
 11 19  2  0  0  0
 12 13  2  0  0  0
 13 14  1  0  0  0
 14 15  1  0  0  0
 14 18  1  0  0  0
 15  1  1  0  0  0
 15 16  2  0  0  0
  1  2  1  0  0  0
  1 10  2  0  0  0
  2  3  2  0  0  0
  3  4  1  0  0  0
  4  5  1  0  0  0
  4  9  2  0  0  0
  5  6  2  0  0  0
  6  7  1  0  0  0
  7  8  2  0  0  0
  8 25  1  0  0  0
  8  9  1  0  0  0
 25 26  1  0  0  0
 26 27  1  0  0  0
 27 28  1  0  0  0
 27 29  1  0  0  0
 27 33  1  0  0  0
 29 30  1  0  0  0
 30 31  1  0  0  0
 31 32  1  0  0  0
 31 34  1  0  0  0
 32 33  1  0  0  0
  9 10  1  0  0  0
 16 17  1  0  0  0
 17 18  2  0  0  0
 18 19  1  0  0  0
M  END
> <minimizedAffinity>
-8.13068

$$$$
