CHEMBL1972365


 18 20  0  0  0  0  0  0  0  0999 V2000
  -26.7967   -2.3692  -10.3930 N   0  0  0  0  0  0  0  0  0  0  0  0
  -26.0415   -1.9000  -11.4402 C   0  0  0  0  0  0  0  0  0  0  0  0
  -24.8790   -1.2528  -11.1973 C   0  0  0  0  0  0  0  0  0  0  0  0
  -24.1342   -0.7301  -12.2755 C   0  0  0  0  0  0  0  0  0  0  0  0
  -23.0156   -0.0408  -12.3428 N   0  0  0  0  0  0  0  0  0  0  0  0
  -22.8330    0.2405  -13.6842 C   0  0  0  0  0  0  0  0  0  0  0  0
  -23.8459   -0.3266  -14.4331 C   0  0  0  0  0  0  0  0  0  0  0  0
  -24.6659   -0.9324  -13.5207 N   0  0  0  0  0  0  0  0  0  0  0  0
  -25.8432   -1.6324  -13.7197 C   0  0  0  0  0  0  0  0  0  0  0  0
  -26.5164   -2.1187  -12.7198 N   0  0  0  0  0  0  0  0  0  0  0  0
  -26.2598   -2.6185   -9.5701 H   0  0  0  0  0  0  0  0  0  0  0  0
  -27.4087   -3.1132  -10.7170 H   0  0  0  0  0  0  0  0  0  0  0  0
  -21.7306    1.0509  -14.1839 C   0  0  0  0  0  0  0  0  0  0  0  0
  -21.8066    2.4489  -14.0982 C   0  0  0  0  0  0  0  0  0  0  0  0
  -20.7785    3.2550  -14.5959 C   0  0  0  0  0  0  0  0  0  0  0  0
  -19.6596    2.6729  -15.1865 C   0  0  0  0  0  0  0  0  0  0  0  0
  -19.5662    1.2864  -15.2759 C   0  0  0  0  0  0  0  0  0  0  0  0
  -20.5938    0.4796  -14.7775 C   0  0  0  0  0  0  0  0  0  0  0  0
  1  2  1  0  0  0
  1 11  1  0  0  0
  1 12  1  0  0  0
  2  3  2  0  0  0
  2 10  1  0  0  0
  3  4  1  0  0  0
  4  5  2  0  0  0
  4  8  1  0  0  0
  5  6  1  0  0  0
  6 13  1  0  0  0
  6  7  2  0  0  0
 13 14  1  0  0  0
 13 18  2  0  0  0
 14 15  2  0  0  0
 15 16  1  0  0  0
 16 17  2  0  0  0
 17 18  1  0  0  0
  7  8  1  0  0  0
  8  9  1  0  0  0
  9 10  2  0  0  0
M  END
> <minimizedAffinity>
-8.34558

$$$$
