CHEMBL473268


 29 31  0  0  0  0  0  0  0  0999 V2000
  -15.9087    0.4683  -12.6122 O   0  0  0  0  0  0  0  0  0  0  0  0
  -15.5537    0.2294  -13.7647 C   0  0  0  0  0  0  0  0  0  0  0  0
  -15.0394   -0.9874  -14.2036 N   0  0  0  0  0  0  0  0  0  0  0  0
  -14.6688   -0.9764  -15.1503 H   0  0  0  0  0  0  0  0  0  0  0  0
  -14.8416   -2.1291  -13.3993 C   0  0  0  0  0  0  0  0  0  0  0  0
  -13.6940   -2.3127  -12.6310 C   0  0  0  0  0  0  0  0  0  0  0  0
  -13.4929   -3.4927  -11.9176 C   0  0  0  0  0  0  0  0  0  0  0  0
  -14.4419   -4.5147  -11.9504 C   0  0  0  0  0  0  0  0  0  0  0  0
  -14.0526   -5.9383  -11.0594 Cl  0  0  0  0  0  0  0  0  0  0  0  0
  -15.6237   -4.3493  -12.6805 C   0  0  0  0  0  0  0  0  0  0  0  0
  -15.8200   -3.1307  -13.3848 C   0  0  0  0  0  0  0  0  0  0  0  0
  -16.7031   -5.3971  -12.7799 C   0  0  0  0  0  0  0  0  0  0  0  0
  -16.3064   -6.6511  -13.1177 F   0  0  0  0  0  0  0  0  0  0  0  0
  -17.3855   -5.5327  -11.6068 F   0  0  0  0  0  0  0  0  0  0  0  0
  -17.6456   -5.0590  -13.7081 F   0  0  0  0  0  0  0  0  0  0  0  0
  -15.5943    1.2860  -14.7924 C   0  0  0  0  0  0  0  0  0  0  0  0
  -14.4874    1.6156  -15.4757 N   0  0  0  0  0  0  0  0  0  0  0  0
  -14.8721    2.7940  -16.5779 S   0  0  0  0  0  0  0  0  0  0  0  0
  -16.5163    2.9402  -16.1361 C   0  0  0  0  0  0  0  0  0  0  0  0
  -16.7835    2.0528  -15.1188 C   0  0  0  0  0  0  0  0  0  0  0  0
  -17.9970    1.8635  -14.5258 N   0  0  0  0  0  0  0  0  0  0  0  0
  -18.3256    2.5986  -13.8935 H   0  0  0  0  0  0  0  0  0  0  0  0
  -19.0584    1.0297  -15.0646 C   0  0  0  0  0  0  0  0  0  0  0  0
  -20.4429    1.3964  -14.5632 C   0  0  0  0  0  0  0  0  0  0  0  0
  -20.7916    2.7528  -14.4829 C   0  0  0  0  0  0  0  0  0  0  0  0
  -22.0811    3.1070  -14.1096 C   0  0  0  0  0  0  0  0  0  0  0  0
  -23.0466    2.2154  -13.8152 N   0  0  0  0  0  0  0  0  0  0  0  0
  -22.7057    0.9130  -13.9043 C   0  0  0  0  0  0  0  0  0  0  0  0
  -21.4437    0.4609  -14.2742 C   0  0  0  0  0  0  0  0  0  0  0  0
  1  2  2  0  0  0
  2  3  1  0  0  0
  2 16  1  0  0  0
  3  5  1  0  0  0
  3  4  1  0  0  0
  5  6  1  0  0  0
  5 11  2  0  0  0
  6  7  2  0  0  0
  7  8  1  0  0  0
  8  9  1  0  0  0
  8 10  2  0  0  0
 10 12  1  0  0  0
 10 11  1  0  0  0
 12 13  1  0  0  0
 12 14  1  0  0  0
 12 15  1  0  0  0
 16 17  2  0  0  0
 16 20  1  0  0  0
 17 18  1  0  0  0
 18 19  1  0  0  0
 19 20  2  0  0  0
 20 21  1  0  0  0
 21 23  1  0  0  0
 21 22  1  0  0  0
 23 24  1  0  0  0
 24 25  1  0  0  0
 24 29  2  0  0  0
 25 26  2  0  0  0
 26 27  1  0  0  0
 27 28  2  0  0  0
 28 29  1  0  0  0
M  END
> <minimizedAffinity>
-8.40445

$$$$
