CHEMBL1095464


 30 33  0  0  0  0  0  0  0  0999 V2000
  -28.4766   -8.7382   -6.0819 C   0  0  0  0  0  0  0  0  0  0  0  0
  -28.6931   -7.5002   -6.6720 C   0  0  0  0  0  0  0  0  0  0  0  0
  -29.3838   -6.6893   -5.7195 C   0  0  0  0  0  0  0  0  0  0  0  0
  -30.0875   -5.4720   -5.7192 C   0  0  0  0  0  0  0  0  0  0  0  0
  -30.7845   -5.1564   -4.5945 N   0  0  0  0  0  0  0  0  0  0  0  0
  -30.7901   -5.9844   -3.5454 C   0  0  0  0  0  0  0  0  0  0  0  0
  -31.6474   -5.6492   -2.5174 N   0  0  0  0  0  0  0  0  0  0  0  0
  -30.0849   -7.1096   -3.4199 N   0  0  0  0  0  0  0  0  0  0  0  0
  -29.4281   -7.4192   -4.5445 C   0  0  0  0  0  0  0  0  0  0  0  0
  -28.7445   -8.5871   -4.7391 N   0  0  0  0  0  0  0  0  0  0  0  0
  -31.8722   -4.6655   -2.5594 H   0  0  0  0  0  0  0  0  0  0  0  0
  -31.3386   -6.0378   -1.6405 H   0  0  0  0  0  0  0  0  0  0  0  0
  -28.6696   -9.3036   -4.0327 H   0  0  0  0  0  0  0  0  0  0  0  0
  -30.1512   -4.6219   -6.8331 N   0  0  0  0  0  0  0  0  0  0  0  0
  -31.0055   -4.6855   -7.3684 H   0  0  0  0  0  0  0  0  0  0  0  0
  -29.3795   -3.4705   -7.0819 C   0  0  0  0  0  0  0  0  0  0  0  0
  -28.6588   -3.3647   -8.2790 C   0  0  0  0  0  0  0  0  0  0  0  0
  -27.8349   -2.2605   -8.5297 C   0  0  0  0  0  0  0  0  0  0  0  0
  -27.7233   -1.2422   -7.5832 C   0  0  0  0  0  0  0  0  0  0  0  0
  -28.4276   -1.3358   -6.3900 C   0  0  0  0  0  0  0  0  0  0  0  0
  -28.2871    0.0345   -5.0961 Br  0  0  0  0  0  0  0  0  0  0  0  0
  -29.2364   -2.4407   -6.1398 C   0  0  0  0  0  0  0  0  0  0  0  0
  -28.2211  -10.0884   -6.6759 C   0  0  0  0  0  0  0  0  0  0  0  0
  -30.7478  -10.3544   -8.3562 C   0  0  0  0  0  0  0  0  0  0  0  0
  -29.3747  -10.2671   -8.9655 C   0  0  0  0  0  0  0  0  0  0  0  0
  -29.2657  -10.2686  -10.3676 C   0  0  0  0  0  0  0  0  0  0  0  0
  -28.0258  -10.1457  -10.9930 C   0  0  0  0  0  0  0  0  0  0  0  0
  -26.8725  -10.0331  -10.2268 C   0  0  0  0  0  0  0  0  0  0  0  0
  -26.9595  -10.0533   -8.8356 C   0  0  0  0  0  0  0  0  0  0  0  0
  -28.2025  -10.1670   -8.1840 C   0  0  0  0  0  0  0  0  0  0  0  0
 24 25  1  0  0  0
 25 26  1  0  0  0
 25 30  2  0  0  0
 26 27  2  0  0  0
 27 28  1  0  0  0
 28 29  2  0  0  0
 29 30  1  0  0  0
 30 23  1  0  0  0
 23  1  1  0  0  0
  1  2  2  0  0  0
  1 10  1  0  0  0
  2  3  1  0  0  0
  3  4  1  0  0  0
  3  9  2  0  0  0
  4 14  1  0  0  0
  4  5  2  0  0  0
 14 16  1  0  0  0
 14 15  1  0  0  0
 16 17  1  0  0  0
 16 22  2  0  0  0
 17 18  2  0  0  0
 18 19  1  0  0  0
 19 20  2  0  0  0
 20 21  1  0  0  0
 20 22  1  0  0  0
  5  6  1  0  0  0
  6  7  1  0  0  0
  6  8  2  0  0  0
  7 11  1  0  0  0
  7 12  1  0  0  0
  8  9  1  0  0  0
  9 10  1  0  0  0
 10 13  1  0  0  0
M  END
> <minimizedAffinity>
-8.64943

$$$$
