CHEMBL4213003


 31 35  0  0  0  0  0  0  0  0999 V2000
  -28.9292   -0.5866   -5.6520 C   0  0  0  0  0  0  0  0  0  0  0  0
  -29.4794   -1.6607   -5.0548 N   0  0  0  0  0  0  0  0  0  0  0  0
  -29.3960   -2.8629   -5.6504 C   0  0  0  0  0  0  0  0  0  0  0  0
  -28.7682   -2.9721   -6.8797 C   0  0  0  0  0  0  0  0  0  0  0  0
  -28.5112   -3.9853   -7.8409 C   0  0  0  0  0  0  0  0  0  0  0  0
  -27.7722   -3.5059   -8.8548 N   0  0  0  0  0  0  0  0  0  0  0  0
  -27.5929   -2.1952   -8.5505 N   0  0  0  0  0  0  0  0  0  0  0  0
  -28.2009   -1.8184   -7.3823 C   0  0  0  0  0  0  0  0  0  0  0  0
  -28.2435   -0.5979   -6.8123 N   0  0  0  0  0  0  0  0  0  0  0  0
  -28.9563   -5.3717   -7.7926 C   0  0  0  0  0  0  0  0  0  0  0  0
  -28.1545   -6.4132   -8.2335 C   0  0  0  0  0  0  0  0  0  0  0  0
  -28.6391   -7.7198   -8.2260 C   0  0  0  0  0  0  0  0  0  0  0  0
  -29.9215   -7.9937   -7.7551 C   0  0  0  0  0  0  0  0  0  0  0  0
  -30.6951   -6.9896   -7.2860 N   0  0  0  0  0  0  0  0  0  0  0  0
  -30.2125   -5.7178   -7.3126 C   0  0  0  0  0  0  0  0  0  0  0  0
  -30.3942   -9.2864   -7.7086 N   0  0  0  0  0  0  0  0  0  0  0  0
  -31.7524   -9.6443   -8.1243 C   0  0  0  0  0  0  0  0  0  0  0  0
  -32.5467  -10.2660   -6.9533 C   0  0  0  0  0  0  0  0  0  0  0  0
  -31.8498  -11.3853   -6.2904 N   0  0  0  0  0  0  0  0  0  0  0  0
  -30.5308  -10.9003   -5.8231 C   0  0  0  0  0  0  0  0  0  0  0  0
  -29.6584  -10.2981   -6.9442 C   0  0  0  0  0  0  0  0  0  0  0  0
  -31.6847  -12.1105   -6.9884 H   0  0  0  0  0  0  0  0  0  0  0  0
  -30.2672    1.3718   -5.4113 C   0  0  0  0  0  0  0  0  0  0  0  0
  -29.0704    0.6490   -5.0322 N   0  0  0  0  0  0  0  0  0  0  0  0
  -28.9331    0.5046   -4.0398 H   0  0  0  0  0  0  0  0  0  0  0  0
  -26.8459   -1.3570   -9.4688 C   0  0  0  0  0  0  0  0  0  0  0  0
  -26.6164   -1.9869  -10.8491 C   0  0  0  0  0  0  0  0  0  0  0  0
  -25.2782   -1.5495  -11.4539 C   0  0  0  0  0  0  0  0  0  0  0  0
  -25.4521   -1.6035  -12.9684 C   0  0  0  0  0  0  0  0  0  0  0  0
  -26.9380   -1.7733  -13.2417 C   0  0  0  0  0  0  0  0  0  0  0  0
  -27.6433   -1.5781  -11.9063 C   0  0  0  0  0  0  0  0  0  0  0  0
 23 24  1  0  0  0
 24  1  1  0  0  0
 24 25  1  0  0  0
  1  2  1  0  0  0
  1  9  2  0  0  0
  2  3  2  0  0  0
  3  4  1  0  0  0
  4  5  1  0  0  0
  4  8  2  0  0  0
  5 10  1  0  0  0
  5  6  2  0  0  0
 10 11  1  0  0  0
 10 15  2  0  0  0
 11 12  2  0  0  0
 12 13  1  0  0  0
 13 16  1  0  0  0
 13 14  2  0  0  0
 16 17  1  0  0  0
 16 21  1  0  0  0
 17 18  1  0  0  0
 18 19  1  0  0  0
 19 20  1  0  0  0
 19 22  1  0  0  0
 20 21  1  0  0  0
 14 15  1  0  0  0
  6  7  1  0  0  0
  7 26  1  0  0  0
  7  8  1  0  0  0
 26 27  1  0  0  0
 27 28  1  0  0  0
 27 31  1  0  0  0
 28 29  1  0  0  0
 29 30  1  0  0  0
 30 31  1  0  0  0
  8  9  1  0  0  0
M  END
> <minimizedAffinity>
-8.72937

$$$$
