CHEMBL1807473


 37 40  0  0  0  0  0  0  0  0999 V2000
  -21.7681   11.4772  -18.4869 C   0  0  0  0  0  0  0  0  0  0  0  0
  -23.1497   11.7904  -18.4180 C   0  0  0  0  0  0  0  0  0  0  0  0
  -23.5671   11.4385  -17.1613 C   0  0  0  0  0  0  0  0  0  0  0  0
  -22.4575   10.9118  -16.5583 N   0  0  0  0  0  0  0  0  0  0  0  0
  -21.3555   10.9444  -17.3257 N   0  0  0  0  0  0  0  0  0  0  0  0
  -22.3629   10.5457  -15.6189 H   0  0  0  0  0  0  0  0  0  0  0  0
  -18.8815   11.2612  -20.8692 C   0  0  0  0  0  0  0  0  0  0  0  0
  -19.3497   12.0099  -21.9472 C   0  0  0  0  0  0  0  0  0  0  0  0
  -20.5868   12.6587  -21.8559 C   0  0  0  0  0  0  0  0  0  0  0  0
  -21.3622   12.5388  -20.6993 C   0  0  0  0  0  0  0  0  0  0  0  0
  -20.8990   11.7792  -19.6204 C   0  0  0  0  0  0  0  0  0  0  0  0
  -19.6255   11.1861  -19.6978 C   0  0  0  0  0  0  0  0  0  0  0  0
  -17.6427   10.5407  -20.9478 N   0  0  0  0  0  0  0  0  0  0  0  0
  -17.5866   10.0078  -21.8187 H   0  0  0  0  0  0  0  0  0  0  0  0
  -16.2391   11.5004  -20.8419 S   0  0  0  0  0  0  0  0  0  0  0  0
  -16.4427   12.5332  -19.8506 O   0  0  0  0  0  0  0  0  0  0  0  0
  -15.8683   11.8003  -22.2080 O   0  0  0  0  0  0  0  0  0  0  0  0
  -15.0724   10.3056  -20.1801 C   0  0  0  0  0  0  0  0  0  0  0  0
  -15.0054    8.2179  -18.7521 C   0  0  0  0  0  0  0  0  0  0  0  0
  -15.7776    9.0071  -19.7978 C   0  0  0  0  0  0  0  0  0  0  0  0
  -24.8343   11.5830  -16.6118 N   0  0  0  0  0  0  0  0  0  0  0  0
  -25.6986   10.4573  -16.3466 C   0  0  0  0  0  0  0  0  0  0  0  0
  -25.3603    9.3095  -16.5860 O   0  0  0  0  0  0  0  0  0  0  0  0
  -25.1377   12.5123  -16.3565 H   0  0  0  0  0  0  0  0  0  0  0  0
  -27.0017   10.7416  -15.7197 C   0  0  0  0  0  0  0  0  0  0  0  0
  -27.1009   11.4806  -14.5449 C   0  0  0  0  0  0  0  0  0  0  0  0
  -28.3579   11.6801  -13.9788 C   0  0  0  0  0  0  0  0  0  0  0  0
  -29.5301   11.1657  -14.5579 C   0  0  0  0  0  0  0  0  0  0  0  0
  -29.4113   10.4760  -15.7687 C   0  0  0  0  0  0  0  0  0  0  0  0
  -28.1580   10.2617  -16.3470 C   0  0  0  0  0  0  0  0  0  0  0  0
  -30.7377   11.4037  -13.9299 N   0  0  0  0  0  0  0  0  0  0  0  0
  -31.8931   11.9672  -14.6482 C   0  0  0  0  0  0  0  0  0  0  0  0
  -32.8343   12.6450  -13.6184 C   0  0  0  0  0  0  0  0  0  0  0  0
  -33.2608   11.7305  -12.5307 N   0  0  0  0  0  0  0  0  0  0  0  0
  -34.0607   12.4485  -11.5404 C   0  0  0  0  0  0  0  0  0  0  0  0
  -32.0709   11.1329  -11.8840 C   0  0  0  0  0  0  0  0  0  0  0  0
  -31.1451   10.4296  -12.8964 C   0  0  0  0  0  0  0  0  0  0  0  0
 19 20  1  0  0  0
 20 18  1  0  0  0
 18 15  1  0  0  0
 15 16  2  0  0  0
 15 17  2  0  0  0
 15 13  1  0  0  0
 13  7  1  0  0  0
 13 14  1  0  0  0
  7  8  1  0  0  0
  7 12  2  0  0  0
  8  9  2  0  0  0
  9 10  1  0  0  0
 10 11  2  0  0  0
 11  1  1  0  0  0
 11 12  1  0  0  0
  1  2  1  0  0  0
  1  5  2  0  0  0
  2  3  2  0  0  0
  3 21  1  0  0  0
  3  4  1  0  0  0
 21 22  1  0  0  0
 21 24  1  0  0  0
 22 23  2  0  0  0
 22 25  1  0  0  0
 25 26  1  0  0  0
 25 30  2  0  0  0
 26 27  2  0  0  0
 27 28  1  0  0  0
 28 31  1  0  0  0
 28 29  2  0  0  0
 31 32  1  0  0  0
 31 37  1  0  0  0
 32 33  1  0  0  0
 33 34  1  0  0  0
 34 35  1  0  0  0
 34 36  1  0  0  0
 36 37  1  0  0  0
 29 30  1  0  0  0
  4  5  1  0  0  0
  4  6  1  0  0  0
M  END
> <minimizedAffinity>
-7.03582

$$$$
