CHEMBL372634


 30 33  0  0  0  0  0  0  0  0999 V2000
  -27.2149   -2.0654   -9.2943 C   0  0  0  0  0  0  0  0  0  0  0  0
  -27.6013   -1.0602   -8.4092 C   0  0  0  0  0  0  0  0  0  0  0  0
  -28.2511   -1.3647   -7.2104 C   0  0  0  0  0  0  0  0  0  0  0  0
  -28.6339   -2.6747   -6.9039 C   0  0  0  0  0  0  0  0  0  0  0  0
  -28.3574   -3.6619   -7.8563 C   0  0  0  0  0  0  0  0  0  0  0  0
  -27.6143   -3.3766   -9.0154 C   0  0  0  0  0  0  0  0  0  0  0  0
  -29.2561   -2.9907   -5.6045 C   0  0  0  0  0  0  0  0  0  0  0  0
  -29.1590   -2.1258   -4.5097 C   0  0  0  0  0  0  0  0  0  0  0  0
  -28.5282   -0.7745   -4.3401 C   0  0  0  0  0  0  0  0  0  0  0  0
  -29.9023   -2.7749   -3.1089 S   0  0  0  0  0  0  0  0  0  0  0  0
  -30.4000   -4.1690   -3.9248 C   0  0  0  0  0  0  0  0  0  0  0  0
  -31.1015   -5.0963   -3.2528 N   0  0  0  0  0  0  0  0  0  0  0  0
  -31.4281   -6.1368   -4.0119 C   0  0  0  0  0  0  0  0  0  0  0  0
  -31.1144   -6.3273   -5.2974 N   0  0  0  0  0  0  0  0  0  0  0  0
  -30.3904   -5.3878   -5.9357 C   0  0  0  0  0  0  0  0  0  0  0  0
  -30.0779   -5.7110   -7.2516 N   0  0  0  0  0  0  0  0  0  0  0  0
  -30.0031   -4.2090   -5.2535 C   0  0  0  0  0  0  0  0  0  0  0  0
  -30.3096   -6.6851   -7.4175 H   0  0  0  0  0  0  0  0  0  0  0  0
  -29.1375   -5.4466   -7.5183 H   0  0  0  0  0  0  0  0  0  0  0  0
  -26.9167   -1.6306  -11.7192 C   0  0  0  0  0  0  0  0  0  0  0  0
  -28.0960   -1.6360  -12.0557 O   0  0  0  0  0  0  0  0  0  0  0  0
  -26.4235   -1.8239  -10.4374 N   0  0  0  0  0  0  0  0  0  0  0  0
  -25.4449   -1.6415  -10.2788 H   0  0  0  0  0  0  0  0  0  0  0  0
  -22.4518    0.2028  -12.8732 C   0  0  0  0  0  0  0  0  0  0  0  0
  -23.7322   -0.4279  -13.3324 C   0  0  0  0  0  0  0  0  0  0  0  0
  -23.9927   -0.6642  -14.6856 C   0  0  0  0  0  0  0  0  0  0  0  0
  -25.2063   -1.2339  -15.0865 C   0  0  0  0  0  0  0  0  0  0  0  0
  -26.1735   -1.5762  -14.1397 C   0  0  0  0  0  0  0  0  0  0  0  0
  -25.9188   -1.3531  -12.7844 C   0  0  0  0  0  0  0  0  0  0  0  0
  -24.7009   -0.7795  -12.3884 C   0  0  0  0  0  0  0  0  0  0  0  0
 24 25  1  0  0  0
 25 26  1  0  0  0
 25 30  2  0  0  0
 26 27  2  0  0  0
 27 28  1  0  0  0
 28 29  2  0  0  0
 29 20  1  0  0  0
 29 30  1  0  0  0
 20 21  2  0  0  0
 20 22  1  0  0  0
 22  1  1  0  0  0
 22 23  1  0  0  0
  1  2  1  0  0  0
  1  6  2  0  0  0
  2  3  2  0  0  0
  3  4  1  0  0  0
  4  7  1  0  0  0
  4  5  2  0  0  0
  7  8  2  0  0  0
  7 17  1  0  0  0
  8  9  1  0  0  0
  8 10  1  0  0  0
 10 11  1  0  0  0
 11 12  1  0  0  0
 11 17  2  0  0  0
 12 13  2  0  0  0
 13 14  1  0  0  0
 14 15  2  0  0  0
 15 16  1  0  0  0
 15 17  1  0  0  0
 16 18  1  0  0  0
 16 19  1  0  0  0
  5  6  1  0  0  0
M  END
> <minimizedAffinity>
-10.37892

$$$$
