CHEMBL524453


 40 44  0  0  0  0  0  0  0  0999 V2000
  -28.1763   -9.7210  -11.9372 C   0  0  0  0  0  0  0  0  0  0  0  0
  -29.4575   -9.8808  -11.3591 C   0  0  0  0  0  0  0  0  0  0  0  0
  -29.6449   -9.8272   -9.9601 C   0  0  0  0  0  0  0  0  0  0  0  0
  -28.5367   -9.6510   -9.1495 C   0  0  0  0  0  0  0  0  0  0  0  0
  -27.2841   -9.4642   -9.7598 C   0  0  0  0  0  0  0  0  0  0  0  0
  -27.0755   -9.4633  -11.1218 C   0  0  0  0  0  0  0  0  0  0  0  0
  -26.2637   -9.4568   -8.8215 N   0  0  0  0  0  0  0  0  0  0  0  0
  -26.7616   -9.8493   -7.5972 C   0  0  0  0  0  0  0  0  0  0  0  0
  -26.1174  -10.4251   -6.7404 O   0  0  0  0  0  0  0  0  0  0  0  0
  -28.2606   -9.6632   -7.6909 C   0  0  0  0  0  0  0  0  0  0  0  0
  -29.0589   -9.4960   -6.6090 C   0  0  0  0  0  0  0  0  0  0  0  0
  -25.2816   -9.5388   -9.0394 H   0  0  0  0  0  0  0  0  0  0  0  0
  -30.4984   -9.8248   -6.7547 C   0  0  0  0  0  0  0  0  0  0  0  0
  -30.8908  -11.1477   -6.4763 C   0  0  0  0  0  0  0  0  0  0  0  0
  -32.2306  -11.5272   -6.5445 C   0  0  0  0  0  0  0  0  0  0  0  0
  -33.1945  -10.5853   -6.8915 C   0  0  0  0  0  0  0  0  0  0  0  0
  -32.8186   -9.2670   -7.1622 C   0  0  0  0  0  0  0  0  0  0  0  0
  -31.4740   -8.8817   -7.0882 C   0  0  0  0  0  0  0  0  0  0  0  0
  -27.8932   -9.9153  -13.3836 C   0  0  0  0  0  0  0  0  0  0  0  0
  -28.5841  -10.6160  -14.1087 O   0  0  0  0  0  0  0  0  0  0  0  0
  -26.6093   -9.2252  -15.1912 C   0  0  0  0  0  0  0  0  0  0  0  0
  -26.8300   -9.1760  -13.7801 O   0  0  0  0  0  0  0  0  0  0  0  0
  -28.7316   -9.1971   -5.2828 N   0  0  0  0  0  0  0  0  0  0  0  0
  -28.2876   -9.9539   -4.7713 H   0  0  0  0  0  0  0  0  0  0  0  0
  -28.7187   -7.9540   -4.6120 C   0  0  0  0  0  0  0  0  0  0  0  0
  -29.7662   -7.5182   -3.8037 C   0  0  0  0  0  0  0  0  0  0  0  0
  -29.9474   -6.1495   -3.5265 C   0  0  0  0  0  0  0  0  0  0  0  0
  -29.0411   -5.1741   -3.9618 C   0  0  0  0  0  0  0  0  0  0  0  0
  -27.8730   -5.6653   -4.5713 C   0  0  0  0  0  0  0  0  0  0  0  0
  -27.7227   -7.0244   -4.9082 C   0  0  0  0  0  0  0  0  0  0  0  0
  -29.3100   -3.7461   -3.8467 N   0  0  0  0  0  0  0  0  0  0  0  0
  -28.7469   -3.0252   -2.7018 C   0  0  0  0  0  0  0  0  0  0  0  0
  -29.9959   -3.0167   -4.8465 C   0  0  0  0  0  0  0  0  0  0  0  0
  -30.4956   -3.4988   -5.8677 O   0  0  0  0  0  0  0  0  0  0  0  0
  -30.1947   -1.5184   -4.6406 C   0  0  0  0  0  0  0  0  0  0  0  0
  -29.3877   -0.7007   -5.5265 N   0  0  0  0  0  0  0  0  0  0  0  0
  -28.2532   -1.0991   -6.1819 C   0  0  0  0  0  0  0  0  0  0  0  0
  -27.7837    0.0354   -6.8016 C   0  0  0  0  0  0  0  0  0  0  0  0
  -28.5907    1.1076   -6.5253 N   0  0  0  0  0  0  0  0  0  0  0  0
  -29.5425    0.6386   -5.7489 C   0  0  0  0  0  0  0  0  0  0  0  0
 21 22  1  0  0  0
 22 19  1  0  0  0
 19 20  2  0  0  0
 19  1  1  0  0  0
  1  2  1  0  0  0
  1  6  2  0  0  0
  2  3  2  0  0  0
  3  4  1  0  0  0
  4  5  2  0  0  0
  4 10  1  0  0  0
  5  6  1  0  0  0
  5  7  1  0  0  0
  7  8  1  0  0  0
  7 12  1  0  0  0
  8  9  2  0  0  0
  8 10  1  0  0  0
 10 11  2  0  0  0
 11 23  1  0  0  0
 11 13  1  0  0  0
 23 25  1  0  0  0
 23 24  1  0  0  0
 25 26  1  0  0  0
 25 30  2  0  0  0
 26 27  2  0  0  0
 27 28  1  0  0  0
 28 31  1  0  0  0
 28 29  2  0  0  0
 31 32  1  0  0  0
 31 33  1  0  0  0
 33 34  2  0  0  0
 33 35  1  0  0  0
 35 36  1  0  0  0
 36 37  1  0  0  0
 36 40  1  0  0  0
 37 38  2  0  0  0
 38 39  1  0  0  0
 39 40  2  0  0  0
 29 30  1  0  0  0
 13 14  1  0  0  0
 13 18  2  0  0  0
 14 15  2  0  0  0
 15 16  1  0  0  0
 16 17  2  0  0  0
 17 18  1  0  0  0
M  END
> <minimizedAffinity>
-7.31941

$$$$
