CHEMBL3966912


 31 35  0  0  0  0  0  0  0  0999 V2000
  -29.5492   -6.1485   -6.7030 C   0  0  0  0  0  0  0  0  0  0  0  0
  -30.7801   -6.4953   -7.2550 C   0  0  0  0  0  0  0  0  0  0  0  0
  -31.1623   -7.8341   -7.2742 C   0  0  0  0  0  0  0  0  0  0  0  0
  -30.3134   -8.8296   -6.7697 C   0  0  0  0  0  0  0  0  0  0  0  0
  -29.0540   -8.5214   -6.2368 C   0  0  0  0  0  0  0  0  0  0  0  0
  -28.7165   -7.1599   -6.1906 C   0  0  0  0  0  0  0  0  0  0  0  0
  -28.1713   -9.5057   -5.8344 N   0  0  0  0  0  0  0  0  0  0  0  0
  -28.2224  -10.8506   -6.4084 C   0  0  0  0  0  0  0  0  0  0  0  0
  -26.9856  -11.0706   -7.2698 C   0  0  0  0  0  0  0  0  0  0  0  0
  -25.7234  -10.7096   -6.5297 C   0  0  0  0  0  0  0  0  0  0  0  0
  -25.7685   -9.8404   -5.4184 C   0  0  0  0  0  0  0  0  0  0  0  0
  -24.5741   -9.5365   -4.7714 C   0  0  0  0  0  0  0  0  0  0  0  0
  -23.3500   -9.9735   -5.1271 N   0  0  0  0  0  0  0  0  0  0  0  0
  -23.3076  -10.7752   -6.2250 C   0  0  0  0  0  0  0  0  0  0  0  0
  -22.1178  -11.3226   -6.7902 C   0  0  0  0  0  0  0  0  0  0  0  0
  -22.3644  -12.0886   -7.9050 C   0  0  0  0  0  0  0  0  0  0  0  0
  -24.0287  -12.1604   -8.2726 S   0  0  0  0  0  0  0  0  0  0  0  0
  -24.4477  -11.1550   -6.9332 C   0  0  0  0  0  0  0  0  0  0  0  0
  -27.0731   -9.2689   -4.8925 C   0  0  0  0  0  0  0  0  0  0  0  0
  -29.2105   -3.9592   -5.6256 N   0  0  0  0  0  0  0  0  0  0  0  0
  -29.0022   -4.7621   -6.7430 C   0  0  0  0  0  0  0  0  0  0  0  0
  -28.4010   -4.4389   -7.7600 O   0  0  0  0  0  0  0  0  0  0  0  0
  -29.5995   -4.3880   -4.7982 H   0  0  0  0  0  0  0  0  0  0  0  0
  -29.3862   -0.2487   -5.3606 C   0  0  0  0  0  0  0  0  0  0  0  0
  -28.0726    0.0626   -4.9923 C   0  0  0  0  0  0  0  0  0  0  0  0
  -27.1144   -0.9386   -4.9127 C   0  0  0  0  0  0  0  0  0  0  0  0
  -27.4677   -2.2639   -5.1618 C   0  0  0  0  0  0  0  0  0  0  0  0
  -28.7811   -2.6133   -5.4824 C   0  0  0  0  0  0  0  0  0  0  0  0
  -29.7292   -1.5886   -5.6277 C   0  0  0  0  0  0  0  0  0  0  0  0
  -30.3845    1.6278   -6.6664 C   0  0  0  0  0  0  0  0  0  0  0  0
  -30.4259    0.8444   -5.3613 C   0  0  0  0  0  0  0  0  0  0  0  0
 30 31  1  0  0  0
 31 24  1  0  0  0
 24 25  1  0  0  0
 24 29  2  0  0  0
 25 26  2  0  0  0
 26 27  1  0  0  0
 27 28  2  0  0  0
 28 20  1  0  0  0
 28 29  1  0  0  0
 20 21  1  0  0  0
 20 23  1  0  0  0
 21 22  2  0  0  0
 21  1  1  0  0  0
  1  2  1  0  0  0
  1  6  2  0  0  0
  2  3  2  0  0  0
  3  4  1  0  0  0
  4  5  2  0  0  0
  5  7  1  0  0  0
  5  6  1  0  0  0
  7  8  1  0  0  0
  7 19  1  0  0  0
  8  9  1  0  0  0
  9 10  1  0  0  0
 10 11  1  0  0  0
 10 18  2  0  0  0
 11 12  2  0  0  0
 11 19  1  0  0  0
 12 13  1  0  0  0
 13 14  2  0  0  0
 14 15  1  0  0  0
 14 18  1  0  0  0
 15 16  2  0  0  0
 16 17  1  0  0  0
 17 18  1  0  0  0
M  END
> <minimizedAffinity>
-9.51453

$$$$
