CHEMBL3690553


 38 42  0  0  0  0  0  0  0  0999 V2000
  -29.9674   -3.4881   -5.1166 C   0  0  0  0  0  0  0  0  0  0  0  0
  -30.5006   -3.7990   -3.8751 C   0  0  0  0  0  0  0  0  0  0  0  0
  -30.9719   -5.0842   -3.8181 N   0  0  0  0  0  0  0  0  0  0  0  0
  -30.7292   -5.5941   -5.0054 C   0  0  0  0  0  0  0  0  0  0  0  0
  -30.9939   -6.8953   -5.5288 C   0  0  0  0  0  0  0  0  0  0  0  0
  -30.6415   -7.2290   -6.7963 C   0  0  0  0  0  0  0  0  0  0  0  0
  -29.9567   -6.2251   -7.6228 C   0  0  0  0  0  0  0  0  0  0  0  0
  -29.6806   -5.0107   -7.1275 C   0  0  0  0  0  0  0  0  0  0  0  0
  -30.0878   -4.6769   -5.8352 N   0  0  0  0  0  0  0  0  0  0  0  0
  -27.9536   -1.0535   -7.2179 C   0  0  0  0  0  0  0  0  0  0  0  0
  -28.3796    0.1602   -6.6788 C   0  0  0  0  0  0  0  0  0  0  0  0
  -29.2221    0.1836   -5.5716 C   0  0  0  0  0  0  0  0  0  0  0  0
  -29.6720   -1.0087   -5.0138 C   0  0  0  0  0  0  0  0  0  0  0  0
  -29.3603   -2.2404   -5.6015 C   0  0  0  0  0  0  0  0  0  0  0  0
  -28.4591   -2.2505   -6.6813 C   0  0  0  0  0  0  0  0  0  0  0  0
  -28.3309   -2.0226  -10.0066 O   0  0  0  0  0  0  0  0  0  0  0  0
  -27.2746   -1.5983   -9.5585 C   0  0  0  0  0  0  0  0  0  0  0  0
  -26.1507   -1.5077  -10.3528 N   0  0  0  0  0  0  0  0  0  0  0  0
  -27.0288   -1.1431   -8.2820 N   0  0  0  0  0  0  0  0  0  0  0  0
  -25.2666   -1.5901   -9.8711 H   0  0  0  0  0  0  0  0  0  0  0  0
  -26.1106   -0.7628   -8.1117 H   0  0  0  0  0  0  0  0  0  0  0  0
  -26.2000   -2.0767  -11.7073 C   0  0  0  0  0  0  0  0  0  0  0  0
  -25.0611   -1.6336  -12.6343 C   0  0  0  0  0  0  0  0  0  0  0  0
  -23.9044   -2.2816  -12.3600 F   0  0  0  0  0  0  0  0  0  0  0  0
  -25.3515   -1.8244  -13.9367 F   0  0  0  0  0  0  0  0  0  0  0  0
  -24.8150   -0.3109  -12.4612 F   0  0  0  0  0  0  0  0  0  0  0  0
  -30.9113   -8.6008   -7.3071 C   0  0  0  0  0  0  0  0  0  0  0  0
  -32.0397   -9.1945   -6.8816 N   0  0  0  0  0  0  0  0  0  0  0  0
  -32.2990  -10.4092   -7.3828 C   0  0  0  0  0  0  0  0  0  0  0  0
  -31.4813  -11.0383   -8.2874 C   0  0  0  0  0  0  0  0  0  0  0  0
  -30.3367  -10.3657   -8.6613 C   0  0  0  0  0  0  0  0  0  0  0  0
  -30.0421   -9.1492   -8.1710 N   0  0  0  0  0  0  0  0  0  0  0  0
  -29.4438  -10.9423   -9.5632 N   0  0  0  0  0  0  0  0  0  0  0  0
  -28.4608  -11.9586   -9.4441 C   0  0  0  0  0  0  0  0  0  0  0  0
  -27.7422  -11.3157  -10.6464 C   0  0  0  0  0  0  0  0  0  0  0  0
  -26.5405  -10.5665  -10.3384 O   0  0  0  0  0  0  0  0  0  0  0  0
  -29.0291  -10.4947  -10.8480 C   0  0  0  0  0  0  0  0  0  0  0  0
  -26.8190   -9.9359   -9.6490 H   0  0  0  0  0  0  0  0  0  0  0  0
 16 17  2  0  0  0
 17 18  1  0  0  0
 17 19  1  0  0  0
 18 22  1  0  0  0
 18 20  1  0  0  0
 22 23  1  0  0  0
 23 24  1  0  0  0
 23 25  1  0  0  0
 23 26  1  0  0  0
 19 10  1  0  0  0
 19 21  1  0  0  0
 10 11  1  0  0  0
 10 15  2  0  0  0
 11 12  2  0  0  0
 12 13  1  0  0  0
 13 14  2  0  0  0
 14  1  1  0  0  0
 14 15  1  0  0  0
  1  2  2  0  0  0
  1  9  1  0  0  0
  2  3  1  0  0  0
  3  4  2  0  0  0
  4  5  1  0  0  0
  4  9  1  0  0  0
  5  6  2  0  0  0
  6 27  1  0  0  0
  6  7  1  0  0  0
 27 28  1  0  0  0
 27 32  2  0  0  0
 28 29  2  0  0  0
 29 30  1  0  0  0
 30 31  2  0  0  0
 31 33  1  0  0  0
 31 32  1  0  0  0
 33 34  1  0  0  0
 33 37  1  0  0  0
 34 35  1  0  0  0
 35 36  1  0  0  0
 35 37  1  0  0  0
 36 38  1  0  0  0
  7  8  2  0  0  0
  8  9  1  0  0  0
M  END
> <minimizedAffinity>
-10.18551

$$$$
