CHEMBL3939959


 42 46  0  0  0  0  0  0  0  0999 V2000
  -13.8582   -5.0678  -11.3513 O   0  0  0  0  0  0  0  0  0  0  0  0
  -12.8365   -4.1366  -11.4526 C   0  0  0  0  0  0  0  0  0  0  0  0
  -11.6683   -4.2331  -10.6965 C   0  0  0  0  0  0  0  0  0  0  0  0
  -10.7377   -3.2261  -10.7675 C   0  0  0  0  0  0  0  0  0  0  0  0
  -10.8190   -2.1603  -11.5764 N   0  0  0  0  0  0  0  0  0  0  0  0
  -11.9143   -2.1015  -12.3802 C   0  0  0  0  0  0  0  0  0  0  0  0
  -12.1709   -1.0704  -13.3283 C   0  0  0  0  0  0  0  0  0  0  0  0
  -13.3433   -1.2667  -14.0285 C   0  0  0  0  0  0  0  0  0  0  0  0
  -14.1507   -2.6823  -13.4977 S   0  0  0  0  0  0  0  0  0  0  0  0
  -12.9282   -3.0591  -12.3527 C   0  0  0  0  0  0  0  0  0  0  0  0
  -13.8727   -0.4175  -15.0866 C   0  0  0  0  0  0  0  0  0  0  0  0
  -13.2194   -0.0694  -16.0605 O   0  0  0  0  0  0  0  0  0  0  0  0
  -15.1813   -0.0266  -14.9194 N   0  0  0  0  0  0  0  0  0  0  0  0
  -15.6582   -0.3342  -14.0808 H   0  0  0  0  0  0  0  0  0  0  0  0
  -15.8814    0.8117  -15.8706 C   0  0  0  0  0  0  0  0  0  0  0  0
  -16.6700    1.8709  -15.1091 C   0  0  0  0  0  0  0  0  0  0  0  0
  -18.0018    1.3521  -14.5381 C   0  0  0  0  0  0  0  0  0  0  0  0
  -19.1765    1.6554  -15.3746 N   0  0  0  0  0  0  0  0  0  0  0  0
  -19.5792    3.0729  -15.2878 C   0  0  0  0  0  0  0  0  0  0  0  0
  -20.6078    3.1595  -14.1724 C   0  0  0  0  0  0  0  0  0  0  0  0
  -21.3050    1.8122  -14.2239 C   0  0  0  0  0  0  0  0  0  0  0  0
  -20.3854    0.8958  -15.0256 C   0  0  0  0  0  0  0  0  0  0  0  0
  -13.9328   -8.2564  -14.0903 C   0  0  0  0  0  0  0  0  0  0  0  0
  -12.8943   -8.1649  -13.1605 C   0  0  0  0  0  0  0  0  0  0  0  0
  -12.8662   -7.1419  -12.2138 C   0  0  0  0  0  0  0  0  0  0  0  0
  -13.8475   -6.1451  -12.2200 C   0  0  0  0  0  0  0  0  0  0  0  0
  -14.8950   -6.2356  -13.1343 C   0  0  0  0  0  0  0  0  0  0  0  0
  -14.9331   -7.2788  -14.0806 C   0  0  0  0  0  0  0  0  0  0  0  0
  -13.3758  -10.3507  -17.0324 N   0  0  0  0  0  0  0  0  0  0  0  0
  -13.3162   -9.2177  -16.2224 C   0  0  0  0  0  0  0  0  0  0  0  0
  -12.7119   -8.2058  -16.4906 O   0  0  0  0  0  0  0  0  0  0  0  0
  -13.9728   -9.3632  -14.9913 N   0  0  0  0  0  0  0  0  0  0  0  0
  -13.8445  -11.1642  -16.6724 H   0  0  0  0  0  0  0  0  0  0  0  0
  -13.9483  -10.2842  -14.5827 H   0  0  0  0  0  0  0  0  0  0  0  0
  -13.2320   -8.9637  -21.8397 C   0  0  0  0  0  0  0  0  0  0  0  0
  -12.7015   -9.7795  -20.6925 C   0  0  0  0  0  0  0  0  0  0  0  0
  -11.6238  -10.6364  -20.9299 C   0  0  0  0  0  0  0  0  0  0  0  0
  -11.0975  -11.3808  -19.8887 C   0  0  0  0  0  0  0  0  0  0  0  0
  -11.6412  -11.2858  -18.6080 C   0  0  0  0  0  0  0  0  0  0  0  0
  -10.9688  -11.9565  -17.6651 F   0  0  0  0  0  0  0  0  0  0  0  0
  -12.7495  -10.4662  -18.3225 C   0  0  0  0  0  0  0  0  0  0  0  0
  -13.2595   -9.6955  -19.3908 C   0  0  0  0  0  0  0  0  0  0  0  0
 35 36  1  0  0  0
 36 37  1  0  0  0
 36 42  2  0  0  0
 37 38  2  0  0  0
 38 39  1  0  0  0
 39 40  1  0  0  0
 39 41  2  0  0  0
 41 29  1  0  0  0
 41 42  1  0  0  0
 29 30  1  0  0  0
 29 33  1  0  0  0
 30 31  2  0  0  0
 30 32  1  0  0  0
 32 23  1  0  0  0
 32 34  1  0  0  0
 23 24  1  0  0  0
 23 28  2  0  0  0
 24 25  2  0  0  0
 25 26  1  0  0  0
 26  1  1  0  0  0
 26 27  2  0  0  0
  1  2  1  0  0  0
  2  3  1  0  0  0
  2 10  2  0  0  0
  3  4  2  0  0  0
  4  5  1  0  0  0
  5  6  2  0  0  0
  6  7  1  0  0  0
  6 10  1  0  0  0
  7  8  2  0  0  0
  8 11  1  0  0  0
  8  9  1  0  0  0
 11 12  2  0  0  0
 11 13  1  0  0  0
 13 15  1  0  0  0
 13 14  1  0  0  0
 15 16  1  0  0  0
 16 17  1  0  0  0
 17 18  1  0  0  0
 18 19  1  0  0  0
 18 22  1  0  0  0
 19 20  1  0  0  0
 20 21  1  0  0  0
 21 22  1  0  0  0
  9 10  1  0  0  0
 27 28  1  0  0  0
M  END
> <minimizedAffinity>
-7.11419

$$$$
