CHEMBL3125893


 42 46  0  0  0  0  0  0  0  0999 V2000
  -14.2268   -0.9461  -13.7980 O   0  0  0  0  0  0  0  0  0  0  0  0
  -14.5626   -3.3152  -14.0568 C   0  0  0  0  0  0  0  0  0  0  0  0
  -13.9928   -2.1047  -14.5200 C   0  0  0  0  0  0  0  0  0  0  0  0
  -13.2368   -2.0814  -15.6969 C   0  0  0  0  0  0  0  0  0  0  0  0
  -12.9468   -3.2608  -16.3793 C   0  0  0  0  0  0  0  0  0  0  0  0
  -13.4614   -4.4840  -15.9157 C   0  0  0  0  0  0  0  0  0  0  0  0
  -13.2452   -5.7002  -16.5314 N   0  0  0  0  0  0  0  0  0  0  0  0
  -13.8120   -6.6546  -15.8395 C   0  0  0  0  0  0  0  0  0  0  0  0
  -14.6997   -6.1687  -14.4826 S   0  0  0  0  0  0  0  0  0  0  0  0
  -14.2563   -4.5081  -14.7628 C   0  0  0  0  0  0  0  0  0  0  0  0
  -13.7072   -7.9495  -16.2654 N   0  0  0  0  0  0  0  0  0  0  0  0
  -13.0508   -8.9880  -15.6616 C   0  0  0  0  0  0  0  0  0  0  0  0
  -12.4187   -8.9771  -14.6168 O   0  0  0  0  0  0  0  0  0  0  0  0
  -14.0932   -8.0825  -17.1874 H   0  0  0  0  0  0  0  0  0  0  0  0
  -13.1741  -10.2532  -16.4599 C   0  0  0  0  0  0  0  0  0  0  0  0
  -12.1996  -10.5031  -17.5864 C   0  0  0  0  0  0  0  0  0  0  0  0
  -13.6518  -10.2714  -17.8908 C   0  0  0  0  0  0  0  0  0  0  0  0
  -15.4013   -3.3847  -12.8354 C   0  0  0  0  0  0  0  0  0  0  0  0
  -16.6015   -3.6019  -12.8507 O   0  0  0  0  0  0  0  0  0  0  0  0
  -15.4506   -2.9811  -10.5366 C   0  0  0  0  0  0  0  0  0  0  0  0
  -14.6681   -3.1277  -11.7236 O   0  0  0  0  0  0  0  0  0  0  0  0
  -14.8857    0.1115  -14.3877 C   0  0  0  0  0  0  0  0  0  0  0  0
  -14.1453    0.8821  -15.2836 C   0  0  0  0  0  0  0  0  0  0  0  0
  -14.7235    2.0043  -15.8714 C   0  0  0  0  0  0  0  0  0  0  0  0
  -16.0473    2.3441  -15.5802 C   0  0  0  0  0  0  0  0  0  0  0  0
  -16.8253    1.5335  -14.7505 C   0  0  0  0  0  0  0  0  0  0  0  0
  -16.2370    0.4053  -14.1681 C   0  0  0  0  0  0  0  0  0  0  0  0
  -18.1890    1.7721  -14.4608 N   0  0  0  0  0  0  0  0  0  0  0  0
  -19.2607    1.0111  -14.8838 C   0  0  0  0  0  0  0  0  0  0  0  0
  -19.2059    0.0101  -15.5895 O   0  0  0  0  0  0  0  0  0  0  0  0
  -18.3734    2.5283  -13.8169 H   0  0  0  0  0  0  0  0  0  0  0  0
  -20.6077    1.4351  -14.4104 C   0  0  0  0  0  0  0  0  0  0  0  0
  -21.0164    2.7702  -14.3614 C   0  0  0  0  0  0  0  0  0  0  0  0
  -22.3130    3.0754  -13.9552 C   0  0  0  0  0  0  0  0  0  0  0  0
  -23.2174    2.0542  -13.6221 C   0  0  0  0  0  0  0  0  0  0  0  0
  -22.8430    0.7000  -13.6864 C   0  0  0  0  0  0  0  0  0  0  0  0
  -21.5177    0.4192  -14.0674 C   0  0  0  0  0  0  0  0  0  0  0  0
  -23.8199   -0.4571  -13.3980 C   0  0  0  0  0  0  0  0  0  0  0  0
  -23.0281   -1.7072  -12.9520 C   0  0  0  0  0  0  0  0  0  0  0  0
  -24.8036   -0.0582  -12.2782 C   0  0  0  0  0  0  0  0  0  0  0  0
  -24.6312   -0.8493  -14.5828 C   0  0  0  0  0  0  0  0  0  0  0  0
  -25.2594   -1.1540  -15.5085 N   0  0  0  0  0  0  0  0  0  0  0  0
 20 21  1  0  0  0
 21 18  1  0  0  0
 18 19  2  0  0  0
 18  2  1  0  0  0
  2  3  1  0  0  0
  2 10  2  0  0  0
  3  1  1  0  0  0
  3  4  2  0  0  0
  1 22  1  0  0  0
 22 23  1  0  0  0
 22 27  2  0  0  0
 23 24  2  0  0  0
 24 25  1  0  0  0
 25 26  2  0  0  0
 26 28  1  0  0  0
 26 27  1  0  0  0
 28 29  1  0  0  0
 28 31  1  0  0  0
 29 30  2  0  0  0
 29 32  1  0  0  0
 32 33  1  0  0  0
 32 37  2  0  0  0
 33 34  2  0  0  0
 34 35  1  0  0  0
 35 36  2  0  0  0
 36 38  1  0  0  0
 36 37  1  0  0  0
 38 39  1  0  0  0
 38 40  1  0  0  0
 38 41  1  0  0  0
 41 42  3  0  0  0
  4  5  1  0  0  0
  5  6  2  0  0  0
  6  7  1  0  0  0
  6 10  1  0  0  0
  7  8  2  0  0  0
  8 11  1  0  0  0
  8  9  1  0  0  0
 11 12  1  0  0  0
 11 14  1  0  0  0
 12 13  2  0  0  0
 12 15  1  0  0  0
 15 16  1  0  0  0
 15 17  1  0  0  0
 16 17  1  0  0  0
  9 10  1  0  0  0
M  END
> <minimizedAffinity>
-9.43293

$$$$
