CHEMBL3924500


 24 26  0  0  0  0  0  0  0  0999 V2000
  -14.3218    0.2372  -14.9954 N   0  0  0  0  0  0  0  0  0  0  0  0
  -13.4399    0.7398  -15.1322 H   0  0  0  0  0  0  0  0  0  0  0  0
  -12.7964   -1.4004  -13.6681 S   0  0  0  0  0  0  0  0  0  0  0  0
  -14.3008   -0.8442  -14.1493 C   0  0  0  0  0  0  0  0  0  0  0  0
  -15.5387   -1.3472  -13.8163 N   0  0  0  0  0  0  0  0  0  0  0  0
  -16.2885   -0.9322  -14.3548 H   0  0  0  0  0  0  0  0  0  0  0  0
  -15.8352   -2.5057  -13.0671 C   0  0  0  0  0  0  0  0  0  0  0  0
  -15.8153   -2.5122  -11.6704 C   0  0  0  0  0  0  0  0  0  0  0  0
  -16.1209   -3.6777  -10.9569 C   0  0  0  0  0  0  0  0  0  0  0  0
  -16.4664   -4.8409  -11.6380 C   0  0  0  0  0  0  0  0  0  0  0  0
  -16.5288   -4.8315  -13.0305 C   0  0  0  0  0  0  0  0  0  0  0  0
  -16.2314   -3.6633  -13.7428 C   0  0  0  0  0  0  0  0  0  0  0  0
  -15.2689    0.3706  -16.0406 N   0  0  0  0  0  0  0  0  0  0  0  0
  -16.0199   -0.3158  -15.9343 H   0  0  0  0  0  0  0  0  0  0  0  0
  -15.8828    1.6687  -15.9792 C   0  0  0  0  0  0  0  0  0  0  0  0
  -15.1286    2.7626  -16.2735 N   0  0  0  0  0  0  0  0  0  0  0  0
  -15.6530    4.0168  -16.2288 N   0  0  0  0  0  0  0  0  0  0  0  0
  -16.9507    4.1685  -15.9147 C   0  0  0  0  0  0  0  0  0  0  0  0
  -17.7895    3.1023  -15.6197 C   0  0  0  0  0  0  0  0  0  0  0  0
  -19.1487    3.3049  -15.3244 C   0  0  0  0  0  0  0  0  0  0  0  0
  -19.9801    2.2234  -15.0427 C   0  0  0  0  0  0  0  0  0  0  0  0
  -19.4610    0.9331  -15.0435 C   0  0  0  0  0  0  0  0  0  0  0  0
  -18.1108    0.7203  -15.3362 C   0  0  0  0  0  0  0  0  0  0  0  0
  -17.2462    1.7998  -15.6364 C   0  0  0  0  0  0  0  0  0  0  0  0
  3  4  2  0  0  0
  4  1  1  0  0  0
  4  5  1  0  0  0
  1 13  1  0  0  0
  1  2  1  0  0  0
 13 15  1  0  0  0
 13 14  1  0  0  0
 15 16  1  0  0  0
 15 24  2  0  0  0
 16 17  2  0  0  0
 17 18  1  0  0  0
 18 19  2  0  0  0
 19 20  1  0  0  0
 19 24  1  0  0  0
 20 21  2  0  0  0
 21 22  1  0  0  0
 22 23  2  0  0  0
 23 24  1  0  0  0
  5  7  1  0  0  0
  5  6  1  0  0  0
  7  8  1  0  0  0
  7 12  2  0  0  0
  8  9  2  0  0  0
  9 10  1  0  0  0
 10 11  2  0  0  0
 11 12  1  0  0  0
M  END
> <minimizedAffinity>
-8.03162

$$$$
