CHEMBL603545


 27 30  0  0  0  0  0  0  0  0999 V2000
  -13.5272   -0.6044  -15.5633 O   0  0  0  0  0  0  0  0  0  0  0  0
  -14.0095    0.5071  -15.7724 C   0  0  0  0  0  0  0  0  0  0  0  0
  -14.5155    1.3762  -14.6410 C   0  0  0  0  0  0  0  0  0  0  0  0
  -15.9646    1.6564  -14.8080 C   0  0  0  0  0  0  0  0  0  0  0  0
  -16.9308    1.1533  -13.9679 C   0  0  0  0  0  0  0  0  0  0  0  0
  -18.2493    1.3603  -14.1375 N   0  0  0  0  0  0  0  0  0  0  0  0
  -18.6152    2.1120  -15.1835 C   0  0  0  0  0  0  0  0  0  0  0  0
  -17.7319    2.6466  -16.0415 N   0  0  0  0  0  0  0  0  0  0  0  0
  -16.4186    2.4105  -15.8644 C   0  0  0  0  0  0  0  0  0  0  0  0
  -15.5142    3.0042  -16.8713 C   0  0  0  0  0  0  0  0  0  0  0  0
  -15.7471    4.3215  -17.3200 C   0  0  0  0  0  0  0  0  0  0  0  0
  -14.9354    4.9220  -18.2857 C   0  0  0  0  0  0  0  0  0  0  0  0
  -13.9067    4.1962  -18.8734 C   0  0  0  0  0  0  0  0  0  0  0  0
  -13.6777    2.8803  -18.4803 C   0  0  0  0  0  0  0  0  0  0  0  0
  -14.4313    2.3011  -17.4478 C   0  0  0  0  0  0  0  0  0  0  0  0
  -14.0107    1.0206  -17.0429 N   0  0  0  0  0  0  0  0  0  0  0  0
  -13.4651    0.4640  -17.6890 H   0  0  0  0  0  0  0  0  0  0  0  0
  -19.9819    2.3554  -15.3274 N   0  0  0  0  0  0  0  0  0  0  0  0
  -20.1905    2.6393  -16.2773 H   0  0  0  0  0  0  0  0  0  0  0  0
  -21.0562    1.7147  -14.6836 C   0  0  0  0  0  0  0  0  0  0  0  0
  -21.1828    0.3228  -14.6163 C   0  0  0  0  0  0  0  0  0  0  0  0
  -22.3188   -0.2762  -14.0740 C   0  0  0  0  0  0  0  0  0  0  0  0
  -23.3331    0.5132  -13.5415 C   0  0  0  0  0  0  0  0  0  0  0  0
  -23.1999    1.9014  -13.5275 C   0  0  0  0  0  0  0  0  0  0  0  0
  -22.0673    2.4903  -14.0925 C   0  0  0  0  0  0  0  0  0  0  0  0
  -21.9357    3.8563  -14.1138 O   0  0  0  0  0  0  0  0  0  0  0  0
  -22.6911    4.2405  -13.6386 H   0  0  0  0  0  0  0  0  0  0  0  0
  1  2  2  0  0  0
  2  3  1  0  0  0
  2 16  1  0  0  0
  3  4  1  0  0  0
  4  5  1  0  0  0
  4  9  2  0  0  0
  5  6  2  0  0  0
  6  7  1  0  0  0
  7 18  1  0  0  0
  7  8  2  0  0  0
 18 20  1  0  0  0
 18 19  1  0  0  0
 20 21  1  0  0  0
 20 25  2  0  0  0
 21 22  2  0  0  0
 22 23  1  0  0  0
 23 24  2  0  0  0
 24 25  1  0  0  0
 25 26  1  0  0  0
 26 27  1  0  0  0
  8  9  1  0  0  0
  9 10  1  0  0  0
 10 11  1  0  0  0
 10 15  2  0  0  0
 11 12  2  0  0  0
 12 13  1  0  0  0
 13 14  2  0  0  0
 14 15  1  0  0  0
 15 16  1  0  0  0
 16 17  1  0  0  0
M  END
> <minimizedAffinity>
-8.60508

$$$$
