CHEMBL3962340


 39 43  0  0  0  0  0  0  0  0999 V2000
  -15.0157   -2.5284  -12.0775 C   0  0  0  0  0  0  0  0  0  0  0  0
  -13.6664   -2.8691  -12.2474 C   0  0  0  0  0  0  0  0  0  0  0  0
  -13.2677   -4.1903  -12.2726 C   0  0  0  0  0  0  0  0  0  0  0  0
  -14.1867   -5.2209  -12.0928 C   0  0  0  0  0  0  0  0  0  0  0  0
  -15.5337   -4.8817  -11.8468 C   0  0  0  0  0  0  0  0  0  0  0  0
  -15.9364   -3.5461  -11.8392 C   0  0  0  0  0  0  0  0  0  0  0  0
  -13.7427   -6.6711  -12.2356 C   0  0  0  0  0  0  0  0  0  0  0  0
  -14.8767   -7.5811  -12.7496 C   0  0  0  0  0  0  0  0  0  0  0  0
  -14.4337   -8.6653  -13.6730 N   0  0  0  0  0  0  0  0  0  0  0  0
  -13.6108   -8.2620  -14.5835 C   0  0  0  0  0  0  0  0  0  0  0  0
  -13.3653   -8.9610  -15.8458 C   0  0  0  0  0  0  0  0  0  0  0  0
  -12.8700  -10.2416  -15.9976 C   0  0  0  0  0  0  0  0  0  0  0  0
  -12.7071  -10.7239  -17.2988 C   0  0  0  0  0  0  0  0  0  0  0  0
  -13.1606   -9.9764  -18.3993 C   0  0  0  0  0  0  0  0  0  0  0  0
  -13.5850   -8.6585  -18.2299 C   0  0  0  0  0  0  0  0  0  0  0  0
  -13.5128   -8.1294  -16.9519 C   0  0  0  0  0  0  0  0  0  0  0  0
  -13.1236   -6.7791  -16.7812 N   0  0  0  0  0  0  0  0  0  0  0  0
  -12.4216   -6.4647  -15.6147 C   0  0  0  0  0  0  0  0  0  0  0  0
  -11.4277   -5.7459  -15.6254 O   0  0  0  0  0  0  0  0  0  0  0  0
  -12.9462   -7.0637  -14.4884 N   0  0  0  0  0  0  0  0  0  0  0  0
  -12.5159   -6.7511  -13.1471 C   0  0  0  0  0  0  0  0  0  0  0  0
  -13.8311   -6.1034  -17.0395 H   0  0  0  0  0  0  0  0  0  0  0  0
  -15.8464   -1.0561  -14.4402 O   0  0  0  0  0  0  0  0  0  0  0  0
  -15.9339   -0.5751  -13.3138 C   0  0  0  0  0  0  0  0  0  0  0  0
  -15.5301   -1.1973  -12.1542 N   0  0  0  0  0  0  0  0  0  0  0  0
  -16.4926    0.6647  -13.0496 N   0  0  0  0  0  0  0  0  0  0  0  0
  -15.8500   -0.7901  -11.2911 H   0  0  0  0  0  0  0  0  0  0  0  0
  -16.2145    1.1259  -12.1952 H   0  0  0  0  0  0  0  0  0  0  0  0
  -17.1520    1.4778  -14.0014 C   0  0  0  0  0  0  0  0  0  0  0  0
  -18.5370    1.6740  -14.0093 C   0  0  0  0  0  0  0  0  0  0  0  0
  -19.1491    2.4883  -14.9758 C   0  0  0  0  0  0  0  0  0  0  0  0
  -18.3489    3.1083  -15.9487 C   0  0  0  0  0  0  0  0  0  0  0  0
  -16.9634    2.9332  -15.9380 C   0  0  0  0  0  0  0  0  0  0  0  0
  -16.3773    2.1335  -14.9611 C   0  0  0  0  0  0  0  0  0  0  0  0
  -15.0440    1.9770  -14.9579 F   0  0  0  0  0  0  0  0  0  0  0  0
  -20.6440    2.7073  -14.9552 C   0  0  0  0  0  0  0  0  0  0  0  0
  -21.1062    3.4638  -15.9891 F   0  0  0  0  0  0  0  0  0  0  0  0
  -21.3334    1.5343  -15.0185 F   0  0  0  0  0  0  0  0  0  0  0  0
  -21.0652    3.3276  -13.8193 F   0  0  0  0  0  0  0  0  0  0  0  0
 23 24  2  0  0  0
 24 25  1  0  0  0
 24 26  1  0  0  0
 25  1  1  0  0  0
 25 27  1  0  0  0
  1  2  1  0  0  0
  1  6  2  0  0  0
  2  3  2  0  0  0
  3  4  1  0  0  0
  4  7  1  0  0  0
  4  5  2  0  0  0
  7  8  1  0  0  0
  7 21  1  0  0  0
  8  9  1  0  0  0
  9 10  2  0  0  0
 10 11  1  0  0  0
 10 20  1  0  0  0
 11 12  1  0  0  0
 11 16  2  0  0  0
 12 13  2  0  0  0
 13 14  1  0  0  0
 14 15  2  0  0  0
 15 16  1  0  0  0
 16 17  1  0  0  0
 17 18  1  0  0  0
 17 22  1  0  0  0
 18 19  2  0  0  0
 18 20  1  0  0  0
 20 21  1  0  0  0
  5  6  1  0  0  0
 26 29  1  0  0  0
 26 28  1  0  0  0
 29 30  1  0  0  0
 29 34  2  0  0  0
 30 31  2  0  0  0
 31 36  1  0  0  0
 31 32  1  0  0  0
 36 37  1  0  0  0
 36 38  1  0  0  0
 36 39  1  0  0  0
 32 33  2  0  0  0
 33 34  1  0  0  0
 34 35  1  0  0  0
M  END
> <minimizedAffinity>
-9.73120

$$$$
