CHEMBL453577


 33 36  0  0  0  0  0  0  0  0999 V2000
  -28.4680   -7.7943   -4.7830 C   0  0  0  0  0  0  0  0  0  0  0  0
  -28.3429   -7.2124   -6.0508 C   0  0  0  0  0  0  0  0  0  0  0  0
  -28.5869   -5.8473   -6.2392 C   0  0  0  0  0  0  0  0  0  0  0  0
  -28.9466   -5.0420   -5.1552 C   0  0  0  0  0  0  0  0  0  0  0  0
  -29.1173   -5.6343   -3.8955 C   0  0  0  0  0  0  0  0  0  0  0  0
  -28.9028   -7.0096   -3.7142 C   0  0  0  0  0  0  0  0  0  0  0  0
  -29.1099   -3.5920   -5.3298 C   0  0  0  0  0  0  0  0  0  0  0  0
  -30.4229   -3.0352   -5.7942 C   0  0  0  0  0  0  0  0  0  0  0  0
  -30.7122   -1.7843   -5.9998 N   0  0  0  0  0  0  0  0  0  0  0  0
  -29.7050   -0.8913   -5.7607 C   0  0  0  0  0  0  0  0  0  0  0  0
  -29.6389    0.4794   -5.8637 C   0  0  0  0  0  0  0  0  0  0  0  0
  -28.3316    0.8216   -5.4994 C   0  0  0  0  0  0  0  0  0  0  0  0
  -27.5898   -0.2424   -5.1782 N   0  0  0  0  0  0  0  0  0  0  0  0
  -28.4453   -1.3048   -5.3113 N   0  0  0  0  0  0  0  0  0  0  0  0
  -28.1466   -2.6770   -5.0783 C   0  0  0  0  0  0  0  0  0  0  0  0
  -26.8652   -2.9718   -4.6137 N   0  0  0  0  0  0  0  0  0  0  0  0
  -26.2040   -2.2155   -4.8065 H   0  0  0  0  0  0  0  0  0  0  0  0
  -26.5267   -3.8980   -4.8563 H   0  0  0  0  0  0  0  0  0  0  0  0
  -30.6758    1.3617   -6.2662 C   0  0  0  0  0  0  0  0  0  0  0  0
  -31.5014    2.0952   -6.6334 N   0  0  0  0  0  0  0  0  0  0  0  0
  -26.5787  -10.7567   -3.8377 N   0  0  0  0  0  0  0  0  0  0  0  0
  -26.8080   -9.4049   -4.0591 C   0  0  0  0  0  0  0  0  0  0  0  0
  -26.0119   -8.5038   -3.8173 O   0  0  0  0  0  0  0  0  0  0  0  0
  -28.0873   -9.1464   -4.5536 N   0  0  0  0  0  0  0  0  0  0  0  0
  -27.2377  -11.4084   -4.2379 H   0  0  0  0  0  0  0  0  0  0  0  0
  -28.8012   -9.7513   -4.1745 H   0  0  0  0  0  0  0  0  0  0  0  0
  -21.6936  -11.7278   -4.0415 C   0  0  0  0  0  0  0  0  0  0  0  0
  -23.0150  -11.7901   -3.3294 C   0  0  0  0  0  0  0  0  0  0  0  0
  -23.0828  -12.3988   -2.0724 C   0  0  0  0  0  0  0  0  0  0  0  0
  -24.2926  -12.4658   -1.3976 C   0  0  0  0  0  0  0  0  0  0  0  0
  -25.4439  -11.9287   -1.9724 C   0  0  0  0  0  0  0  0  0  0  0  0
  -25.4161  -11.3068   -3.2250 C   0  0  0  0  0  0  0  0  0  0  0  0
  -24.1852  -11.2438   -3.9014 C   0  0  0  0  0  0  0  0  0  0  0  0
 27 28  1  0  0  0
 28 29  1  0  0  0
 28 33  2  0  0  0
 29 30  2  0  0  0
 30 31  1  0  0  0
 31 32  2  0  0  0
 32 21  1  0  0  0
 32 33  1  0  0  0
 21 22  1  0  0  0
 21 25  1  0  0  0
 22 23  2  0  0  0
 22 24  1  0  0  0
 24  1  1  0  0  0
 24 26  1  0  0  0
  1  2  1  0  0  0
  1  6  2  0  0  0
  2  3  2  0  0  0
  3  4  1  0  0  0
  4  7  1  0  0  0
  4  5  2  0  0  0
  7  8  1  0  0  0
  7 15  2  0  0  0
  8  9  2  0  0  0
  9 10  1  0  0  0
 10 11  2  0  0  0
 10 14  1  0  0  0
 11 19  1  0  0  0
 11 12  1  0  0  0
 19 20  3  0  0  0
 12 13  2  0  0  0
 13 14  1  0  0  0
 14 15  1  0  0  0
 15 16  1  0  0  0
 16 17  1  0  0  0
 16 18  1  0  0  0
  5  6  1  0  0  0
M  END
> <minimizedAffinity>
-7.00461

$$$$
