CHEMBL3648090


 34 35  0  0  0  0  0  0  0  0999 V2000
  -30.0130   -7.3204   -4.8328 N   0  0  0  0  0  0  0  0  0  0  0  0
  -30.6095   -7.4506   -4.0252 H   0  0  0  0  0  0  0  0  0  0  0  0
  -28.7475   -3.3184   -5.4750 C   0  0  0  0  0  0  0  0  0  0  0  0
  -28.9306   -4.1995   -6.5517 C   0  0  0  0  0  0  0  0  0  0  0  0
  -29.3389   -5.5223   -6.3278 C   0  0  0  0  0  0  0  0  0  0  0  0
  -29.5891   -5.9888   -5.0348 C   0  0  0  0  0  0  0  0  0  0  0  0
  -29.3799   -5.0994   -3.9732 C   0  0  0  0  0  0  0  0  0  0  0  0
  -28.9896   -3.7623   -4.1647 C   0  0  0  0  0  0  0  0  0  0  0  0
  -28.8313   -2.8977   -2.9456 C   0  0  0  0  0  0  0  0  0  0  0  0
  -29.2092   -0.6781   -5.3690 N   0  0  0  0  0  0  0  0  0  0  0  0
  -28.0902   -1.6644   -5.7480 S   0  0  0  0  0  0  0  0  0  0  0  0
  -27.8531   -1.5129   -7.5074 C   0  0  0  0  0  0  0  0  0  0  0  0
  -26.7644   -1.6855   -5.1514 O   0  0  0  0  0  0  0  0  0  0  0  0
  -28.9015    0.6713   -5.3481 C   0  0  0  0  0  0  0  0  0  0  0  0
  -28.0503    1.1735   -4.6273 O   0  0  0  0  0  0  0  0  0  0  0  0
  -29.5743    1.3761   -6.3028 O   0  0  0  0  0  0  0  0  0  0  0  0
  -31.6544    2.2577   -7.2144 C   0  0  0  0  0  0  0  0  0  0  0  0
  -30.9855    1.5004   -6.0783 C   0  0  0  0  0  0  0  0  0  0  0  0
  -29.1743   -8.4438   -4.8672 C   0  0  0  0  0  0  0  0  0  0  0  0
  -29.0376   -9.1031   -3.7143 N   0  0  0  0  0  0  0  0  0  0  0  0
  -27.9779   -9.9305   -3.6395 C   0  0  0  0  0  0  0  0  0  0  0  0
  -27.0547  -10.1238   -4.6531 C   0  0  0  0  0  0  0  0  0  0  0  0
  -25.5520  -11.1935   -4.2823 Br  0  0  0  0  0  0  0  0  0  0  0  0
  -27.3642   -9.5171   -5.8609 C   0  0  0  0  0  0  0  0  0  0  0  0
  -28.4324   -8.7083   -5.9532 N   0  0  0  0  0  0  0  0  0  0  0  0
  -26.7838   -9.6863   -7.0831 N   0  0  0  0  0  0  0  0  0  0  0  0
  -25.7799   -9.5812   -6.9472 H   0  0  0  0  0  0  0  0  0  0  0  0
  -27.1295  -10.5073   -8.2521 C   0  0  0  0  0  0  0  0  0  0  0  0
  -25.9062  -11.3029   -8.7200 C   0  0  0  0  0  0  0  0  0  0  0  0
  -27.6685   -9.5188   -9.3467 C   0  0  0  0  0  0  0  0  0  0  0  0
  -27.1130   -9.8142  -10.7497 C   0  0  0  0  0  0  0  0  0  0  0  0
  -29.1946   -9.4768   -9.4101 C   0  0  0  0  0  0  0  0  0  0  0  0
  -27.2562   -8.1877   -8.9797 O   0  0  0  0  0  0  0  0  0  0  0  0
  -26.4763   -8.3097   -8.4024 H   0  0  0  0  0  0  0  0  0  0  0  0
 17 18  1  0  0  0
 18 16  1  0  0  0
 16 14  1  0  0  0
 14 15  2  0  0  0
 14 10  1  0  0  0
 10 11  2  0  0  0
 11 12  1  0  0  0
 11 13  2  0  0  0
 11  3  1  0  0  0
  3  4  1  0  0  0
  3  8  2  0  0  0
  4  5  2  0  0  0
  5  6  1  0  0  0
  6  1  1  0  0  0
  6  7  2  0  0  0
  1 19  1  0  0  0
  1  2  1  0  0  0
 19 20  1  0  0  0
 19 25  2  0  0  0
 20 21  2  0  0  0
 21 22  1  0  0  0
 22 23  1  0  0  0
 22 24  2  0  0  0
 24 26  1  0  0  0
 24 25  1  0  0  0
 26 27  1  0  0  0
 28 30  1  0  0  0
 28 29  1  0  0  0
 28 26  1  0  0  0
 30 31  1  0  0  0
 30 32  1  0  0  0
 30 33  1  0  0  0
 33 34  1  0  0  0
  7  8  1  0  0  0
  8  9  1  0  0  0
M  END
> <minimizedAffinity>
-8.25912

$$$$
