CHEMBL1254595


 40 44  0  0  0  0  0  0  0  0999 V2000
  -26.8084   -1.5182  -11.5071 N   0  0  0  0  0  0  0  0  0  0  0  0
  -26.9101   -1.9011  -10.1823 C   0  0  0  0  0  0  0  0  0  0  0  0
  -25.9753   -1.9552   -9.3850 O   0  0  0  0  0  0  0  0  0  0  0  0
  -28.2099   -2.2872   -9.8401 N   0  0  0  0  0  0  0  0  0  0  0  0
  -27.6692   -1.2614  -11.9798 H   0  0  0  0  0  0  0  0  0  0  0  0
  -28.6023   -2.8591  -10.5776 H   0  0  0  0  0  0  0  0  0  0  0  0
  -23.2220   -0.5603  -13.6057 C   0  0  0  0  0  0  0  0  0  0  0  0
  -23.2444   -0.5752  -12.2121 C   0  0  0  0  0  0  0  0  0  0  0  0
  -24.4203   -0.8780  -11.5208 C   0  0  0  0  0  0  0  0  0  0  0  0
  -25.5985   -1.2074  -12.1952 C   0  0  0  0  0  0  0  0  0  0  0  0
  -25.5506   -1.2497  -13.6026 C   0  0  0  0  0  0  0  0  0  0  0  0
  -26.9468   -1.7038  -14.5221 Cl  0  0  0  0  0  0  0  0  0  0  0  0
  -24.3728   -0.9315  -14.3023 C   0  0  0  0  0  0  0  0  0  0  0  0
  -22.0869   -0.2634  -14.3394 O   0  0  0  0  0  0  0  0  0  0  0  0
  -19.2506   -0.6830  -15.4948 C   0  0  0  0  0  0  0  0  0  0  0  0
  -19.3113    0.7431  -15.2620 N   0  0  0  0  0  0  0  0  0  0  0  0
  -18.2784    1.6159  -15.5089 C   0  0  0  0  0  0  0  0  0  0  0  0
  -18.7026    2.8822  -15.1849 C   0  0  0  0  0  0  0  0  0  0  0  0
  -20.0423    2.7776  -14.7425 C   0  0  0  0  0  0  0  0  0  0  0  0
  -20.8706    3.7524  -14.3259 N   0  0  0  0  0  0  0  0  0  0  0  0
  -22.0889    3.3064  -13.9827 C   0  0  0  0  0  0  0  0  0  0  0  0
  -22.5348    2.0417  -13.9951 N   0  0  0  0  0  0  0  0  0  0  0  0
  -21.6778    1.0649  -14.3673 C   0  0  0  0  0  0  0  0  0  0  0  0
  -20.4024    1.4296  -14.7879 C   0  0  0  0  0  0  0  0  0  0  0  0
  -28.3613   -2.8258   -8.5362 C   0  0  0  0  0  0  0  0  0  0  0  0
  -28.6171   -4.1725   -8.3528 C   0  0  0  0  0  0  0  0  0  0  0  0
  -28.9854   -4.6417   -7.0838 C   0  0  0  0  0  0  0  0  0  0  0  0
  -29.1322   -3.8038   -5.9499 C   0  0  0  0  0  0  0  0  0  0  0  0
  -28.7909   -2.4436   -6.1441 C   0  0  0  0  0  0  0  0  0  0  0  0
  -28.4072   -1.9789   -7.4382 C   0  0  0  0  0  0  0  0  0  0  0  0
  -29.6321   -4.3602   -4.7843 N   0  0  0  0  0  0  0  0  0  0  0  0
  -28.8223   -5.2340   -3.9044 C   0  0  0  0  0  0  0  0  0  0  0  0
  -29.5895   -6.5255   -3.5736 C   0  0  0  0  0  0  0  0  0  0  0  0
  -30.8651   -6.2389   -2.9790 O   0  0  0  0  0  0  0  0  0  0  0  0
  -31.6675   -5.4792   -3.8929 C   0  0  0  0  0  0  0  0  0  0  0  0
  -31.0016   -4.1466   -4.2753 C   0  0  0  0  0  0  0  0  0  0  0  0
  -28.7967   -1.3487   -5.1016 C   0  0  0  0  0  0  0  0  0  0  0  0
  -28.3888   -1.6751   -3.8482 F   0  0  0  0  0  0  0  0  0  0  0  0
  -27.9842   -0.3055   -5.4604 F   0  0  0  0  0  0  0  0  0  0  0  0
  -30.0360   -0.7914   -4.9571 F   0  0  0  0  0  0  0  0  0  0  0  0
 15 16  1  0  0  0
 16 17  1  0  0  0
 16 24  1  0  0  0
 17 18  2  0  0  0
 18 19  1  0  0  0
 19 20  1  0  0  0
 19 24  2  0  0  0
 20 21  2  0  0  0
 21 22  1  0  0  0
 22 23  2  0  0  0
 23 14  1  0  0  0
 23 24  1  0  0  0
 14  7  1  0  0  0
  7  8  1  0  0  0
  7 13  2  0  0  0
  8  9  2  0  0  0
  9 10  1  0  0  0
 10  1  1  0  0  0
 10 11  2  0  0  0
  1  2  1  0  0  0
  1  5  1  0  0  0
  2  3  2  0  0  0
  2  4  1  0  0  0
  4 25  1  0  0  0
  4  6  1  0  0  0
 25 26  1  0  0  0
 25 30  2  0  0  0
 26 27  2  0  0  0
 27 28  1  0  0  0
 28 31  1  0  0  0
 28 29  2  0  0  0
 31 32  1  0  0  0
 31 36  1  0  0  0
 32 33  1  0  0  0
 33 34  1  0  0  0
 34 35  1  0  0  0
 35 36  1  0  0  0
 29 37  1  0  0  0
 29 30  1  0  0  0
 37 38  1  0  0  0
 37 39  1  0  0  0
 37 40  1  0  0  0
 11 12  1  0  0  0
 11 13  1  0  0  0
M  END
> <minimizedAffinity>
-11.47392

$$$$
