CHEMBL1929555


 33 37  0  0  0  0  0  0  0  0999 V2000
  -33.1526  -10.1781   -7.2301 N   0  0  0  0  0  0  0  0  0  0  0  0
  -32.0154   -9.4295   -7.4427 C   0  0  0  0  0  0  0  0  0  0  0  0
  -31.0185  -10.0580   -8.0905 N   0  0  0  0  0  0  0  0  0  0  0  0
  -29.8759   -9.3988   -8.3820 C   0  0  0  0  0  0  0  0  0  0  0  0
  -29.7715   -8.0699   -7.9580 C   0  0  0  0  0  0  0  0  0  0  0  0
  -28.8102   -7.0249   -8.0738 C   0  0  0  0  0  0  0  0  0  0  0  0
  -29.3469   -5.8943   -7.4908 C   0  0  0  0  0  0  0  0  0  0  0  0
  -30.5678   -6.2403   -6.9620 N   0  0  0  0  0  0  0  0  0  0  0  0
  -30.8569   -7.5432   -7.2749 C   0  0  0  0  0  0  0  0  0  0  0  0
  -31.9916   -8.1756   -6.9681 N   0  0  0  0  0  0  0  0  0  0  0  0
  -32.9207  -11.1613   -7.2754 H   0  0  0  0  0  0  0  0  0  0  0  0
  -33.6260   -9.8498   -6.3994 H   0  0  0  0  0  0  0  0  0  0  0  0
  -31.2208   -5.6277   -6.4924 H   0  0  0  0  0  0  0  0  0  0  0  0
  -28.8138  -10.0171   -9.0650 N   0  0  0  0  0  0  0  0  0  0  0  0
  -28.5532  -10.9009   -8.6560 H   0  0  0  0  0  0  0  0  0  0  0  0
  -28.3553   -9.8355  -10.3767 C   0  0  0  0  0  0  0  0  0  0  0  0
  -27.1055   -9.3019  -10.6899 C   0  0  0  0  0  0  0  0  0  0  0  0
  -26.6969   -9.1452  -12.0178 C   0  0  0  0  0  0  0  0  0  0  0  0
  -27.5417   -9.5359  -13.0495 C   0  0  0  0  0  0  0  0  0  0  0  0
  -27.0559   -9.3123  -14.6828 Cl  0  0  0  0  0  0  0  0  0  0  0  0
  -28.7823  -10.0977  -12.7630 C   0  0  0  0  0  0  0  0  0  0  0  0
  -29.1822  -10.2584  -11.4319 C   0  0  0  0  0  0  0  0  0  0  0  0
  -28.8377   -4.4995   -7.5397 C   0  0  0  0  0  0  0  0  0  0  0  0
  -28.4935   -3.8410   -6.2235 C   0  0  0  0  0  0  0  0  0  0  0  0
  -28.4349   -4.6614   -5.0843 C   0  0  0  0  0  0  0  0  0  0  0  0
  -28.4973   -4.1097   -3.8111 C   0  0  0  0  0  0  0  0  0  0  0  0
  -28.7420   -2.7489   -3.6710 C   0  0  0  0  0  0  0  0  0  0  0  0
  -28.7066   -1.9040   -4.7840 C   0  0  0  0  0  0  0  0  0  0  0  0
  -28.8799   -0.5271   -4.6102 C   0  0  0  0  0  0  0  0  0  0  0  0
  -28.3344    0.3537   -5.5318 C   0  0  0  0  0  0  0  0  0  0  0  0
  -27.8700   -0.1355   -6.7449 C   0  0  0  0  0  0  0  0  0  0  0  0
  -28.0406   -1.4935   -7.0554 C   0  0  0  0  0  0  0  0  0  0  0  0
  -28.4204   -2.4250   -6.0619 C   0  0  0  0  0  0  0  0  0  0  0  0
  1  2  1  0  0  0
  1 11  1  0  0  0
  1 12  1  0  0  0
  2  3  1  0  0  0
  2 10  2  0  0  0
  3  4  2  0  0  0
  4 14  1  0  0  0
  4  5  1  0  0  0
 14 16  1  0  0  0
 14 15  1  0  0  0
 16 17  1  0  0  0
 16 22  2  0  0  0
 17 18  2  0  0  0
 18 19  1  0  0  0
 19 20  1  0  0  0
 19 21  2  0  0  0
 21 22  1  0  0  0
  5  6  1  0  0  0
  5  9  2  0  0  0
  6  7  2  0  0  0
  7 23  1  0  0  0
  7  8  1  0  0  0
 23 24  1  0  0  0
 24 25  1  0  0  0
 24 33  2  0  0  0
 25 26  2  0  0  0
 26 27  1  0  0  0
 27 28  2  0  0  0
 28 29  1  0  0  0
 28 33  1  0  0  0
 29 30  2  0  0  0
 30 31  1  0  0  0
 31 32  2  0  0  0
 32 33  1  0  0  0
  8  9  1  0  0  0
  8 13  1  0  0  0
  9 10  1  0  0  0
M  END
> <minimizedAffinity>
-10.22416

$$$$
