CHEMBL233380


 25 27  0  0  0  0  0  0  0  0999 V2000
  -15.2754   -0.3843  -12.4856 N   0  0  0  0  0  0  0  0  0  0  0  0
  -14.3369   -0.1154  -12.2066 H   0  0  0  0  0  0  0  0  0  0  0  0
  -15.6799    0.4620  -13.5250 C   0  0  0  0  0  0  0  0  0  0  0  0
  -14.7420    1.0168  -14.3095 N   0  0  0  0  0  0  0  0  0  0  0  0
  -15.1415    1.9076  -15.2305 C   0  0  0  0  0  0  0  0  0  0  0  0
  -16.4517    2.2643  -15.4269 C   0  0  0  0  0  0  0  0  0  0  0  0
  -16.8006    3.4998  -16.5691 Cl  0  0  0  0  0  0  0  0  0  0  0  0
  -17.3672    1.6044  -14.6206 C   0  0  0  0  0  0  0  0  0  0  0  0
  -16.9909    0.7051  -13.6687 N   0  0  0  0  0  0  0  0  0  0  0  0
  -18.8263    1.8203  -14.7132 C   0  0  0  0  0  0  0  0  0  0  0  0
  -19.8301    0.9384  -15.0858 C   0  0  0  0  0  0  0  0  0  0  0  0
  -21.1179    1.5443  -15.1433 C   0  0  0  0  0  0  0  0  0  0  0  0
  -21.0807    2.8603  -14.7487 C   0  0  0  0  0  0  0  0  0  0  0  0
  -19.4998    3.3619  -14.3386 S   0  0  0  0  0  0  0  0  0  0  0  0
  -15.9859   -4.5613  -12.4151 C   0  0  0  0  0  0  0  0  0  0  0  0
  -15.6188   -3.9277  -13.6055 C   0  0  0  0  0  0  0  0  0  0  0  0
  -15.3516   -2.5596  -13.6249 C   0  0  0  0  0  0  0  0  0  0  0  0
  -15.4850   -1.7779  -12.4687 C   0  0  0  0  0  0  0  0  0  0  0  0
  -15.7982   -2.4207  -11.2693 C   0  0  0  0  0  0  0  0  0  0  0  0
  -16.0626   -3.7964  -11.2434 C   0  0  0  0  0  0  0  0  0  0  0  0
  -16.3241   -6.0357  -12.4070 C   0  0  0  0  0  0  0  0  0  0  0  0
  -15.6276   -6.8025  -13.5469 C   0  0  0  0  0  0  0  0  0  0  0  0
  -13.9297   -8.3625  -14.2108 C   0  0  0  0  0  0  0  0  0  0  0  0
  -14.8103   -7.9525  -13.1114 N   0  0  0  0  0  0  0  0  0  0  0  0
  -14.0096   -7.6459  -11.9260 C   0  0  0  0  0  0  0  0  0  0  0  0
 23 24  1  0  0  0
 24 25  1  0  0  0
 24 22  1  0  0  0
 22 21  1  0  0  0
 21 15  1  0  0  0
 15 16  1  0  0  0
 15 20  2  0  0  0
 16 17  2  0  0  0
 17 18  1  0  0  0
 18  1  1  0  0  0
 18 19  2  0  0  0
  1  3  1  0  0  0
  1  2  1  0  0  0
  3  4  1  0  0  0
  3  9  2  0  0  0
  4  5  2  0  0  0
  5  6  1  0  0  0
  6  7  1  0  0  0
  6  8  2  0  0  0
  8 10  1  0  0  0
  8  9  1  0  0  0
 10 11  2  0  0  0
 10 14  1  0  0  0
 11 12  1  0  0  0
 12 13  2  0  0  0
 13 14  1  0  0  0
 19 20  1  0  0  0
M  END
> <minimizedAffinity>
-7.67596

$$$$
