CHEMBL525550


 39 42  0  0  0  0  0  0  0  0999 V2000
  -15.0671   -4.4024  -12.5201 C   0  0  0  0  0  0  0  0  0  0  0  0
  -16.1323   -3.5924  -12.9730 C   0  0  0  0  0  0  0  0  0  0  0  0
  -15.9025   -2.2843  -13.4474 C   0  0  0  0  0  0  0  0  0  0  0  0
  -14.6055   -1.7953  -13.4546 C   0  0  0  0  0  0  0  0  0  0  0  0
  -13.5674   -2.6311  -13.0253 C   0  0  0  0  0  0  0  0  0  0  0  0
  -13.7582   -3.9157  -12.5651 C   0  0  0  0  0  0  0  0  0  0  0  0
  -12.3412   -1.9900  -13.1087 N   0  0  0  0  0  0  0  0  0  0  0  0
  -12.4731   -0.6989  -13.5755 C   0  0  0  0  0  0  0  0  0  0  0  0
  -11.5573    0.0929  -13.6793 O   0  0  0  0  0  0  0  0  0  0  0  0
  -13.9574   -0.5235  -13.8420 C   0  0  0  0  0  0  0  0  0  0  0  0
  -14.4399    0.6424  -14.3230 C   0  0  0  0  0  0  0  0  0  0  0  0
  -11.4514   -2.3691  -12.8265 H   0  0  0  0  0  0  0  0  0  0  0  0
  -15.9007    0.8786  -14.4586 C   0  0  0  0  0  0  0  0  0  0  0  0
  -16.6334    1.2854  -13.3314 C   0  0  0  0  0  0  0  0  0  0  0  0
  -18.0026    1.5439  -13.4222 C   0  0  0  0  0  0  0  0  0  0  0  0
  -18.6614    1.3949  -14.6382 C   0  0  0  0  0  0  0  0  0  0  0  0
  -17.9439    0.9958  -15.7678 C   0  0  0  0  0  0  0  0  0  0  0  0
  -16.5682    0.7394  -15.6814 C   0  0  0  0  0  0  0  0  0  0  0  0
  -15.2544   -5.7603  -11.9431 C   0  0  0  0  0  0  0  0  0  0  0  0
  -14.8040   -6.0863  -10.8544 O   0  0  0  0  0  0  0  0  0  0  0  0
  -15.2540   -7.1242  -13.8255 C   0  0  0  0  0  0  0  0  0  0  0  0
  -16.0034   -6.5437  -12.7548 O   0  0  0  0  0  0  0  0  0  0  0  0
  -13.6398    1.7144  -14.7322 N   0  0  0  0  0  0  0  0  0  0  0  0
  -12.6767    1.4098  -14.8557 H   0  0  0  0  0  0  0  0  0  0  0  0
  -14.0034    2.5516  -15.8220 C   0  0  0  0  0  0  0  0  0  0  0  0
  -13.6940    2.2290  -17.1479 C   0  0  0  0  0  0  0  0  0  0  0  0
  -13.9599    3.1326  -18.1819 C   0  0  0  0  0  0  0  0  0  0  0  0
  -14.5716    4.3619  -17.9079 C   0  0  0  0  0  0  0  0  0  0  0  0
  -15.0634    4.5929  -16.6226 C   0  0  0  0  0  0  0  0  0  0  0  0
  -14.7585    3.7069  -15.5832 C   0  0  0  0  0  0  0  0  0  0  0  0
  -14.7137    5.3372  -19.0228 C   0  0  0  0  0  0  0  0  0  0  0  0
  -15.6040    5.1114  -19.8455 O   0  0  0  0  0  0  0  0  0  0  0  0
  -13.8407    6.4263  -19.1652 N   0  0  0  0  0  0  0  0  0  0  0  0
  -12.6833    6.7652  -18.3458 C   0  0  0  0  0  0  0  0  0  0  0  0
  -14.0487    7.3005  -20.3307 C   0  0  0  0  0  0  0  0  0  0  0  0
  -14.5583    8.6953  -19.9107 C   0  0  0  0  0  0  0  0  0  0  0  0
  -15.9986    8.9389  -20.1438 N   0  0  0  0  0  0  0  0  0  0  0  0
  -16.2735   10.3635  -20.3516 C   0  0  0  0  0  0  0  0  0  0  0  0
  -16.4220    8.1847  -21.3294 C   0  0  0  0  0  0  0  0  0  0  0  0
 21 22  1  0  0  0
 22 19  1  0  0  0
 19 20  2  0  0  0
 19  1  1  0  0  0
  1  2  1  0  0  0
  1  6  2  0  0  0
  2  3  2  0  0  0
  3  4  1  0  0  0
  4  5  2  0  0  0
  4 10  1  0  0  0
  5  6  1  0  0  0
  5  7  1  0  0  0
  7  8  1  0  0  0
  7 12  1  0  0  0
  8  9  2  0  0  0
  8 10  1  0  0  0
 10 11  2  0  0  0
 11 23  1  0  0  0
 11 13  1  0  0  0
 23 25  1  0  0  0
 23 24  1  0  0  0
 25 26  1  0  0  0
 25 30  2  0  0  0
 26 27  2  0  0  0
 27 28  1  0  0  0
 28 31  1  0  0  0
 28 29  2  0  0  0
 31 32  2  0  0  0
 31 33  1  0  0  0
 33 34  1  0  0  0
 33 35  1  0  0  0
 35 36  1  0  0  0
 36 37  1  0  0  0
 37 38  1  0  0  0
 37 39  1  0  0  0
 29 30  1  0  0  0
 13 14  1  0  0  0
 13 18  2  0  0  0
 14 15  2  0  0  0
 15 16  1  0  0  0
 16 17  2  0  0  0
 17 18  1  0  0  0
M  END
> <minimizedAffinity>
-6.48701

$$$$
