CHEMBL2206662


 28 31  0  0  0  0  0  0  0  0999 V2000
  -26.1860   -2.2034  -11.7395 C   0  0  0  0  0  0  0  0  0  0  0  0
  -27.0747   -1.9949  -12.8021 C   0  0  0  0  0  0  0  0  0  0  0  0
  -26.6208   -1.6031  -14.0622 C   0  0  0  0  0  0  0  0  0  0  0  0
  -25.2674   -1.3945  -14.2771 C   0  0  0  0  0  0  0  0  0  0  0  0
  -24.3759   -1.5359  -13.2151 C   0  0  0  0  0  0  0  0  0  0  0  0
  -24.8191   -1.9606  -11.9547 C   0  0  0  0  0  0  0  0  0  0  0  0
  -27.9426   -0.8647   -9.8216 O   0  0  0  0  0  0  0  0  0  0  0  0
  -27.4185   -1.9425   -9.5720 C   0  0  0  0  0  0  0  0  0  0  0  0
  -27.5434   -2.5986   -8.3556 N   0  0  0  0  0  0  0  0  0  0  0  0
  -26.6057   -2.6449  -10.4567 N   0  0  0  0  0  0  0  0  0  0  0  0
  -26.9411   -3.3907   -8.2018 H   0  0  0  0  0  0  0  0  0  0  0  0
  -26.3544   -3.5871  -10.2018 H   0  0  0  0  0  0  0  0  0  0  0  0
  -28.2437   -2.1178   -7.2201 C   0  0  0  0  0  0  0  0  0  0  0  0
  -28.0091   -0.8734   -6.6259 C   0  0  0  0  0  0  0  0  0  0  0  0
  -28.6925   -0.4902   -5.4676 C   0  0  0  0  0  0  0  0  0  0  0  0
  -29.6240   -1.3453   -4.8913 C   0  0  0  0  0  0  0  0  0  0  0  0
  -29.8923   -2.5739   -5.4893 C   0  0  0  0  0  0  0  0  0  0  0  0
  -29.2128   -2.9546   -6.6523 C   0  0  0  0  0  0  0  0  0  0  0  0
  -22.9858   -1.3615  -13.4099 O   0  0  0  0  0  0  0  0  0  0  0  0
  -22.4982   -0.1090  -13.7751 C   0  0  0  0  0  0  0  0  0  0  0  0
  -23.4247    0.9254  -13.2590 C   0  0  0  0  0  0  0  0  0  0  0  0
  -23.0809    2.2018  -13.4824 C   0  0  0  0  0  0  0  0  0  0  0  0
  -21.8939    2.4840  -14.1976 C   0  0  0  0  0  0  0  0  0  0  0  0
  -21.3382    3.6268  -14.5478 N   0  0  0  0  0  0  0  0  0  0  0  0
  -20.1883    3.2754  -15.2128 C   0  0  0  0  0  0  0  0  0  0  0  0
  -20.0436    1.9090  -15.2638 C   0  0  0  0  0  0  0  0  0  0  0  0
  -21.1413    1.4018  -14.6264 N   0  0  0  0  0  0  0  0  0  0  0  0
  -21.4063    0.0808  -14.4425 N   0  0  0  0  0  0  0  0  0  0  0  0
  7  8  2  0  0  0
  8  9  1  0  0  0
  8 10  1  0  0  0
  9 13  1  0  0  0
  9 11  1  0  0  0
 13 14  1  0  0  0
 13 18  2  0  0  0
 14 15  2  0  0  0
 15 16  1  0  0  0
 16 17  2  0  0  0
 17 18  1  0  0  0
 10  1  1  0  0  0
 10 12  1  0  0  0
  1  2  1  0  0  0
  1  6  2  0  0  0
  2  3  2  0  0  0
  3  4  1  0  0  0
  4  5  2  0  0  0
  5 19  1  0  0  0
  5  6  1  0  0  0
 19 20  1  0  0  0
 20 21  1  0  0  0
 20 28  2  0  0  0
 21 22  2  0  0  0
 22 23  1  0  0  0
 23 24  2  0  0  0
 23 27  1  0  0  0
 24 25  1  0  0  0
 25 26  2  0  0  0
 26 27  1  0  0  0
 27 28  1  0  0  0
M  END
> <minimizedAffinity>
-10.42662

$$$$
