CHEMBL316384


 30 34  0  0  0  0  0  0  0  0999 V2000
  -19.7550    2.4456  -14.8779 N   0  0  0  0  0  0  0  0  0  0  0  0
  -20.2420    3.7195  -14.6782 C   0  0  0  0  0  0  0  0  0  0  0  0
  -21.4945    3.7401  -14.2828 N   0  0  0  0  0  0  0  0  0  0  0  0
  -21.8326    2.4206  -14.1734 C   0  0  0  0  0  0  0  0  0  0  0  0
  -23.0162    1.8311  -13.7315 C   0  0  0  0  0  0  0  0  0  0  0  0
  -23.0702    0.4355  -13.6194 C   0  0  0  0  0  0  0  0  0  0  0  0
  -21.9284   -0.2815  -14.0103 C   0  0  0  0  0  0  0  0  0  0  0  0
  -20.7672    0.2281  -14.4916 N   0  0  0  0  0  0  0  0  0  0  0  0
  -20.7844    1.5830  -14.5409 C   0  0  0  0  0  0  0  0  0  0  0  0
  -15.8530    1.4803  -16.0707 C   0  0  0  0  0  0  0  0  0  0  0  0
  -16.4039    2.7068  -16.4367 C   0  0  0  0  0  0  0  0  0  0  0  0
  -17.7167    3.0182  -16.0828 C   0  0  0  0  0  0  0  0  0  0  0  0
  -18.4524    2.1088  -15.3081 C   0  0  0  0  0  0  0  0  0  0  0  0
  -17.9011    0.8759  -14.9522 C   0  0  0  0  0  0  0  0  0  0  0  0
  -16.6021    0.5566  -15.3482 C   0  0  0  0  0  0  0  0  0  0  0  0
  -24.2598   -0.2336  -13.0768 C   0  0  0  0  0  0  0  0  0  0  0  0
  -25.0257   -1.1055  -13.8602 C   0  0  0  0  0  0  0  0  0  0  0  0
  -26.1413   -1.7560  -13.3329 C   0  0  0  0  0  0  0  0  0  0  0  0
  -26.5266   -1.5451  -12.0067 C   0  0  0  0  0  0  0  0  0  0  0  0
  -25.7711   -0.6899  -11.2117 C   0  0  0  0  0  0  0  0  0  0  0  0
  -24.6570   -0.0397  -11.7414 C   0  0  0  0  0  0  0  0  0  0  0  0
  -27.6112   -2.1132  -11.3854 O   0  0  0  0  0  0  0  0  0  0  0  0
  -27.8332   -1.6499  -10.0529 C   0  0  0  0  0  0  0  0  0  0  0  0
  -27.6024   -2.7658   -9.0237 C   0  0  0  0  0  0  0  0  0  0  0  0
  -27.6994   -2.2763   -7.6302 N   0  0  0  0  0  0  0  0  0  0  0  0
  -27.8526   -0.8142   -7.5602 C   0  0  0  0  0  0  0  0  0  0  0  0
  -27.8567   -0.3257   -6.1145 C   0  0  0  0  0  0  0  0  0  0  0  0
  -28.9564   -1.0007   -5.3118 C   0  0  0  0  0  0  0  0  0  0  0  0
  -28.8637   -2.5159   -5.4544 C   0  0  0  0  0  0  0  0  0  0  0  0
  -28.8045   -2.9449   -6.9240 C   0  0  0  0  0  0  0  0  0  0  0  0
 10 11  1  0  0  0
 10 15  2  0  0  0
 11 12  2  0  0  0
 12 13  1  0  0  0
 13  1  1  0  0  0
 13 14  2  0  0  0
  1  2  1  0  0  0
  1  9  1  0  0  0
  2  3  2  0  0  0
  3  4  1  0  0  0
  4  5  1  0  0  0
  4  9  2  0  0  0
  5  6  2  0  0  0
  6 16  1  0  0  0
  6  7  1  0  0  0
 16 17  1  0  0  0
 16 21  2  0  0  0
 17 18  2  0  0  0
 18 19  1  0  0  0
 19 22  1  0  0  0
 19 20  2  0  0  0
 22 23  1  0  0  0
 23 24  1  0  0  0
 24 25  1  0  0  0
 25 26  1  0  0  0
 25 30  1  0  0  0
 26 27  1  0  0  0
 27 28  1  0  0  0
 28 29  1  0  0  0
 29 30  1  0  0  0
 20 21  1  0  0  0
  7  8  2  0  0  0
  8  9  1  0  0  0
 14 15  1  0  0  0
M  END
> <minimizedAffinity>
-10.27906

$$$$
