CHEMBL3979972


 38 42  0  0  0  0  0  0  0  0999 V2000
  -29.2640  -10.0774   -5.1521 N   0  0  0  0  0  0  0  0  0  0  0  0
  -29.0520   -8.6509   -5.1271 C   0  0  0  0  0  0  0  0  0  0  0  0
  -29.3369   -8.0981   -3.8941 C   0  0  0  0  0  0  0  0  0  0  0  0
  -29.7408   -6.8101   -3.8231 C   0  0  0  0  0  0  0  0  0  0  0  0
  -29.7241   -5.9835   -4.8919 C   0  0  0  0  0  0  0  0  0  0  0  0
  -30.5716   -5.0197   -4.6298 N   0  0  0  0  0  0  0  0  0  0  0  0
  -30.3658   -3.8354   -5.1864 C   0  0  0  0  0  0  0  0  0  0  0  0
  -29.2905   -3.5342   -5.9944 C   0  0  0  0  0  0  0  0  0  0  0  0
  -28.6129   -4.6576   -6.5357 N   0  0  0  0  0  0  0  0  0  0  0  0
  -28.9079   -6.0884   -6.0075 C   0  0  0  0  0  0  0  0  0  0  0  0
  -28.7187   -7.6569   -6.1551 C   0  0  0  0  0  0  0  0  0  0  0  0
  -28.9933   -2.0273   -5.8212 C   0  0  0  0  0  0  0  0  0  0  0  0
  -28.2771   -1.2830   -6.8529 C   0  0  0  0  0  0  0  0  0  0  0  0
  -27.8627   -0.0745   -6.5182 N   0  0  0  0  0  0  0  0  0  0  0  0
  -28.3623    0.0927   -5.2954 N   0  0  0  0  0  0  0  0  0  0  0  0
  -28.1342    1.4070   -4.7223 C   0  0  0  0  0  0  0  0  0  0  0  0
  -29.0276   -1.0517   -4.8178 C   0  0  0  0  0  0  0  0  0  0  0  0
  -31.4576  -12.0907   -7.5046 C   0  0  0  0  0  0  0  0  0  0  0  0
  -30.5143  -12.4430   -8.4595 C   0  0  0  0  0  0  0  0  0  0  0  0
  -29.1704  -12.1527   -8.2380 C   0  0  0  0  0  0  0  0  0  0  0  0
  -28.7544  -11.4559   -7.0970 C   0  0  0  0  0  0  0  0  0  0  0  0
  -29.6745  -10.9943   -6.1653 C   0  0  0  0  0  0  0  0  0  0  0  0
  -31.0211  -11.4391   -6.3420 C   0  0  0  0  0  0  0  0  0  0  0  0
  -33.5890  -11.9611   -6.4881 C   0  0  0  0  0  0  0  0  0  0  0  0
  -32.7999  -12.3468   -7.6219 O   0  0  0  0  0  0  0  0  0  0  0  0
  -28.1464  -12.4659   -9.0940 O   0  0  0  0  0  0  0  0  0  0  0  0
  -27.8725  -11.5063  -10.1012 C   0  0  0  0  0  0  0  0  0  0  0  0
  -28.8997  -10.7443   -3.8549 C   0  0  0  0  0  0  0  0  0  0  0  0
  -27.4396  -10.8975   -3.7614 C   0  0  0  0  0  0  0  0  0  0  0  0
  -26.2472  -10.9925   -3.7228 C   0  0  0  0  0  0  0  0  0  0  0  0
  -24.8219  -11.0951   -3.7131 C   0  0  0  0  0  0  0  0  0  0  0  0
  -24.1788  -11.3051   -2.4911 C   0  0  0  0  0  0  0  0  0  0  0  0
  -22.8023  -11.3918   -2.4838 C   0  0  0  0  0  0  0  0  0  0  0  0
  -22.0252  -11.2890   -3.5840 N   0  0  0  0  0  0  0  0  0  0  0  0
  -22.6928  -11.1052   -4.7741 C   0  0  0  0  0  0  0  0  0  0  0  0
  -24.0663  -10.9989   -4.8748 C   0  0  0  0  0  0  0  0  0  0  0  0
  -24.6468  -10.8070   -6.1780 C   0  0  0  0  0  0  0  0  0  0  0  0
  -25.1226  -10.6247   -7.2143 N   0  0  0  0  0  0  0  0  0  0  0  0
 24 25  1  0  0  0
 25 18  1  0  0  0
 18 19  1  0  0  0
 18 23  2  0  0  0
 19 20  2  0  0  0
 20 26  1  0  0  0
 20 21  1  0  0  0
 26 27  1  0  0  0
 21 22  2  0  0  0
 22  1  1  0  0  0
 22 23  1  0  0  0
  1 28  1  0  0  0
  1  2  1  0  0  0
 28 29  1  0  0  0
 29 30  3  0  0  0
 30 31  1  0  0  0
 31 32  1  0  0  0
 31 36  2  0  0  0
 32 33  2  0  0  0
 33 34  1  0  0  0
 34 35  2  0  0  0
 35 36  1  0  0  0
 36 37  1  0  0  0
 37 38  3  0  0  0
  2  3  1  0  0  0
  2 11  2  0  0  0
  3  4  2  0  0  0
  4  5  1  0  0  0
  5  6  1  0  0  0
  5 10  2  0  0  0
  6  7  2  0  0  0
  7  8  1  0  0  0
  8 12  1  0  0  0
  8  9  2  0  0  0
 12 13  1  0  0  0
 12 17  2  0  0  0
 13 14  2  0  0  0
 14 15  1  0  0  0
 15 16  1  0  0  0
 15 17  1  0  0  0
  9 10  1  0  0  0
 10 11  1  0  0  0
M  END
> <minimizedAffinity>
-7.77876

$$$$
