CHEMBL2003524


 22 24  0  0  0  0  0  0  0  0999 V2000
  -29.0617   -5.3825   -6.9632 C   0  0  0  0  0  0  0  0  0  0  0  0
  -29.6919   -5.9681   -5.9035 N   0  0  0  0  0  0  0  0  0  0  0  0
  -30.0347   -5.1308   -4.9149 C   0  0  0  0  0  0  0  0  0  0  0  0
  -29.8181   -3.7769   -4.8934 C   0  0  0  0  0  0  0  0  0  0  0  0
  -29.1629   -3.1623   -5.9499 C   0  0  0  0  0  0  0  0  0  0  0  0
  -28.8811   -1.7828   -5.9598 C   0  0  0  0  0  0  0  0  0  0  0  0
  -28.1388   -1.1837   -6.9824 C   0  0  0  0  0  0  0  0  0  0  0  0
  -27.7135   -1.9803   -8.0538 C   0  0  0  0  0  0  0  0  0  0  0  0
  -28.0427   -3.3503   -8.0736 C   0  0  0  0  0  0  0  0  0  0  0  0
  -28.7526   -3.9824   -7.0269 C   0  0  0  0  0  0  0  0  0  0  0  0
  -30.3208   -3.2757   -3.6107 C   0  0  0  0  0  0  0  0  0  0  0  0
  -30.2928   -2.1289   -3.2212 O   0  0  0  0  0  0  0  0  0  0  0  0
  -30.8086   -4.3534   -2.9380 N   0  0  0  0  0  0  0  0  0  0  0  0
  -30.6559   -5.5099   -3.6372 C   0  0  0  0  0  0  0  0  0  0  0  0
  -30.9586   -6.6253   -3.2589 O   0  0  0  0  0  0  0  0  0  0  0  0
  -31.1868   -4.3082   -2.0016 H   0  0  0  0  0  0  0  0  0  0  0  0
  -29.4635   -7.6313   -8.0110 C   0  0  0  0  0  0  0  0  0  0  0  0
  -28.6560   -6.3426   -8.0604 C   0  0  0  0  0  0  0  0  0  0  0  0
  -27.8025    0.1418   -6.9645 O   0  0  0  0  0  0  0  0  0  0  0  0
  -28.8010    1.0922   -6.6083 C   0  0  0  0  0  0  0  0  0  0  0  0
  -26.9686   -1.6150   -9.1455 O   0  0  0  0  0  0  0  0  0  0  0  0
  -27.5963   -1.5792  -10.4189 C   0  0  0  0  0  0  0  0  0  0  0  0
 17 18  1  0  0  0
 18  1  1  0  0  0
  1  2  1  0  0  0
  1 10  2  0  0  0
  2  3  2  0  0  0
  3  4  1  0  0  0
  3 14  1  0  0  0
  4  5  2  0  0  0
  4 11  1  0  0  0
  5  6  1  0  0  0
  5 10  1  0  0  0
  6  7  2  0  0  0
  7 19  1  0  0  0
  7  8  1  0  0  0
 19 20  1  0  0  0
  8 21  1  0  0  0
  8  9  2  0  0  0
 21 22  1  0  0  0
  9 10  1  0  0  0
 11 12  2  0  0  0
 11 13  1  0  0  0
 13 14  1  0  0  0
 13 16  1  0  0  0
 14 15  2  0  0  0
M  END
> <minimizedAffinity>
-7.46111

$$$$
