CHEMBL4282473


 26 29  0  0  0  0  0  0  0  0999 V2000
  -28.2080   -8.6056   -7.6651 C   0  0  0  0  0  0  0  0  0  0  0  0
  -28.7201   -7.7076   -8.5207 N   0  0  0  0  0  0  0  0  0  0  0  0
  -29.0328   -6.5018   -8.0027 C   0  0  0  0  0  0  0  0  0  0  0  0
  -28.8551   -6.1641   -6.6765 C   0  0  0  0  0  0  0  0  0  0  0  0
  -28.3681   -7.1764   -5.8676 C   0  0  0  0  0  0  0  0  0  0  0  0
  -28.0012   -8.3775   -6.3597 N   0  0  0  0  0  0  0  0  0  0  0  0
  -28.3196   -7.0647   -4.4696 N   0  0  0  0  0  0  0  0  0  0  0  0
  -29.4004   -6.6032   -3.8039 C   0  0  0  0  0  0  0  0  0  0  0  0
  -29.9572   -7.2184   -2.7591 N   0  0  0  0  0  0  0  0  0  0  0  0
  -31.0670   -6.4964   -2.5158 N   0  0  0  0  0  0  0  0  0  0  0  0
  -31.2348   -5.4258   -3.3550 C   0  0  0  0  0  0  0  0  0  0  0  0
  -32.3802   -4.5003   -3.2570 C   0  0  0  0  0  0  0  0  0  0  0  0
  -30.1507   -5.4679   -4.1909 C   0  0  0  0  0  0  0  0  0  0  0  0
  -29.8264   -4.4744   -5.1140 N   0  0  0  0  0  0  0  0  0  0  0  0
  -29.1706   -4.7901   -6.1932 C   0  0  0  0  0  0  0  0  0  0  0  0
  -27.9680   -7.9466   -4.1081 H   0  0  0  0  0  0  0  0  0  0  0  0
  -31.6705   -6.7933   -1.7578 H   0  0  0  0  0  0  0  0  0  0  0  0
  -28.6637   -3.6222   -7.0028 C   0  0  0  0  0  0  0  0  0  0  0  0
  -28.2912   -3.7653   -8.3500 C   0  0  0  0  0  0  0  0  0  0  0  0
  -27.7130   -2.6963   -9.0419 C   0  0  0  0  0  0  0  0  0  0  0  0
  -27.4913   -1.4853   -8.3904 C   0  0  0  0  0  0  0  0  0  0  0  0
  -27.8610   -1.3462   -7.0578 C   0  0  0  0  0  0  0  0  0  0  0  0
  -27.6346   -0.1840   -6.4316 F   0  0  0  0  0  0  0  0  0  0  0  0
  -28.4429   -2.3971   -6.3602 C   0  0  0  0  0  0  0  0  0  0  0  0
  -28.7836  -10.2932   -9.7638 C   0  0  0  0  0  0  0  0  0  0  0  0
  -27.8123  -10.2372   -8.2405 S   0  0  0  0  0  0  0  0  0  0  0  0
 25 26  1  0  0  0
 26  1  1  0  0  0
  1  2  1  0  0  0
  1  6  2  0  0  0
  2  3  2  0  0  0
  3  4  1  0  0  0
  4  5  2  0  0  0
  4 15  1  0  0  0
  5  6  1  0  0  0
  5  7  1  0  0  0
  7  8  1  0  0  0
  7 16  1  0  0  0
  8  9  2  0  0  0
  8 13  1  0  0  0
  9 10  1  0  0  0
 10 11  1  0  0  0
 10 17  1  0  0  0
 11 12  1  0  0  0
 11 13  2  0  0  0
 13 14  1  0  0  0
 14 15  2  0  0  0
 15 18  1  0  0  0
 18 19  1  0  0  0
 18 24  2  0  0  0
 19 20  2  0  0  0
 20 21  1  0  0  0
 21 22  2  0  0  0
 22 23  1  0  0  0
 22 24  1  0  0  0
M  END
> <minimizedAffinity>
-8.08923

$$$$
