CHEMBL204621


 29 32  0  0  0  0  0  0  0  0999 V2000
  -15.9039   -2.7570  -12.3810 C   0  0  0  0  0  0  0  0  0  0  0  0
  -15.5958   -1.8784  -11.4523 N   0  0  0  0  0  0  0  0  0  0  0  0
  -15.2916   -0.6990  -12.1006 N   0  0  0  0  0  0  0  0  0  0  0  0
  -15.4745   -0.9173  -13.3867 C   0  0  0  0  0  0  0  0  0  0  0  0
  -15.8653   -2.2123  -13.6332 O   0  0  0  0  0  0  0  0  0  0  0  0
  -15.3351   -0.0362  -14.5437 C   0  0  0  0  0  0  0  0  0  0  0  0
  -14.1467   -0.0884  -15.3040 C   0  0  0  0  0  0  0  0  0  0  0  0
  -13.9545    0.7383  -16.4064 C   0  0  0  0  0  0  0  0  0  0  0  0
  -14.9615    1.6161  -16.7302 C   0  0  0  0  0  0  0  0  0  0  0  0
  -16.1146    1.7018  -16.0395 N   0  0  0  0  0  0  0  0  0  0  0  0
  -16.3196    0.8748  -14.9696 C   0  0  0  0  0  0  0  0  0  0  0  0
  -17.6562    1.0842  -14.2678 C   0  0  0  0  0  0  0  0  0  0  0  0
  -18.8367    1.1296  -15.2612 C   0  0  0  0  0  0  0  0  0  0  0  0
  -20.2091    1.4845  -14.7289 C   0  0  0  0  0  0  0  0  0  0  0  0
  -20.5446    2.8428  -14.6182 C   0  0  0  0  0  0  0  0  0  0  0  0
  -21.8196    3.1968  -14.2023 C   0  0  0  0  0  0  0  0  0  0  0  0
  -22.7807    2.3026  -13.9005 N   0  0  0  0  0  0  0  0  0  0  0  0
  -22.4484    0.9999  -14.0257 C   0  0  0  0  0  0  0  0  0  0  0  0
  -21.1975    0.5463  -14.4336 C   0  0  0  0  0  0  0  0  0  0  0  0
  -16.2963   -4.0348  -12.2078 N   0  0  0  0  0  0  0  0  0  0  0  0
  -17.0694   -4.1383  -11.5580 H   0  0  0  0  0  0  0  0  0  0  0  0
  -13.2160   -9.0826  -12.9986 Cl  0  0  0  0  0  0  0  0  0  0  0  0
  -14.0941   -7.6202  -12.7345 C   0  0  0  0  0  0  0  0  0  0  0  0
  -15.2693   -7.4244  -13.4588 C   0  0  0  0  0  0  0  0  0  0  0  0
  -16.0168   -6.2489  -13.2969 C   0  0  0  0  0  0  0  0  0  0  0  0
  -15.5957   -5.2368  -12.4278 C   0  0  0  0  0  0  0  0  0  0  0  0
  -14.4253   -5.4671  -11.6803 C   0  0  0  0  0  0  0  0  0  0  0  0
  -13.6740   -6.6406  -11.8355 C   0  0  0  0  0  0  0  0  0  0  0  0
  -12.2373   -6.8066  -10.8887 Cl  0  0  0  0  0  0  0  0  0  0  0  0
 22 23  1  0  0  0
 23 24  1  0  0  0
 23 28  2  0  0  0
 24 25  2  0  0  0
 25 26  1  0  0  0
 26 20  1  0  0  0
 26 27  2  0  0  0
 20  1  1  0  0  0
 20 21  1  0  0  0
  1  2  2  0  0  0
  1  5  1  0  0  0
  2  3  1  0  0  0
  3  4  2  0  0  0
  4  6  1  0  0  0
  4  5  1  0  0  0
  6  7  1  0  0  0
  6 11  2  0  0  0
  7  8  2  0  0  0
  8  9  1  0  0  0
  9 10  2  0  0  0
 10 11  1  0  0  0
 11 12  1  0  0  0
 12 13  1  0  0  0
 13 14  1  0  0  0
 14 15  1  0  0  0
 14 19  2  0  0  0
 15 16  2  0  0  0
 16 17  1  0  0  0
 17 18  2  0  0  0
 18 19  1  0  0  0
 27 28  1  0  0  0
 28 29  1  0  0  0
M  END
> <minimizedAffinity>
-8.61157

$$$$
