CHEMBL1258821


 27 30  0  0  0  0  0  0  0  0999 V2000
  -27.6095   -4.4829   -4.1485 C   0  0  0  0  0  0  0  0  0  0  0  0
  -28.6124   -5.4004   -4.7249 C   0  0  0  0  0  0  0  0  0  0  0  0
  -29.7911   -4.9784   -5.2772 N   0  0  0  0  0  0  0  0  0  0  0  0
  -30.5729   -5.9750   -5.7397 N   0  0  0  0  0  0  0  0  0  0  0  0
  -29.8572   -7.0733   -5.4882 C   0  0  0  0  0  0  0  0  0  0  0  0
  -28.6485   -6.7651   -4.8339 C   0  0  0  0  0  0  0  0  0  0  0  0
  -27.7363   -7.6309   -4.2457 N   0  0  0  0  0  0  0  0  0  0  0  0
  -27.4370   -8.7599   -4.8188 C   0  0  0  0  0  0  0  0  0  0  0  0
  -27.9062   -9.2335   -6.1746 C   0  0  0  0  0  0  0  0  0  0  0  0
  -26.9707   -9.8461   -7.0282 C   0  0  0  0  0  0  0  0  0  0  0  0
  -27.3808  -10.3485   -8.2725 C   0  0  0  0  0  0  0  0  0  0  0  0
  -28.7158  -10.2575   -8.6741 C   0  0  0  0  0  0  0  0  0  0  0  0
  -29.6415   -9.6377   -7.8356 C   0  0  0  0  0  0  0  0  0  0  0  0
  -29.2503   -9.1005   -6.5940 C   0  0  0  0  0  0  0  0  0  0  0  0
  -30.1984   -8.3186   -5.8895 N   0  0  0  0  0  0  0  0  0  0  0  0
  -30.1289   -4.0263   -5.3667 H   0  0  0  0  0  0  0  0  0  0  0  0
  -31.1250   -8.3543   -6.2994 H   0  0  0  0  0  0  0  0  0  0  0  0
  -26.5765   -9.6929   -3.9901 C   0  0  0  0  0  0  0  0  0  0  0  0
  -25.2086   -9.3878   -3.8438 C   0  0  0  0  0  0  0  0  0  0  0  0
  -24.3390  -10.2712   -3.1972 C   0  0  0  0  0  0  0  0  0  0  0  0
  -24.8125  -11.4847   -2.7111 C   0  0  0  0  0  0  0  0  0  0  0  0
  -26.1622  -11.8032   -2.8459 C   0  0  0  0  0  0  0  0  0  0  0  0
  -27.0492  -10.9134   -3.4698 C   0  0  0  0  0  0  0  0  0  0  0  0
  -28.7098  -11.4044   -3.4917 Cl  0  0  0  0  0  0  0  0  0  0  0  0
  -26.4014  -10.9822   -9.1681 N   0  0  0  0  0  0  0  0  0  0  0  0
  -26.3791  -10.6057  -10.3473 O   0  0  0  0  0  0  0  0  0  0  0  0
  -25.6593  -11.8510   -8.6892 O   0  0  0  0  0  0  0  0  0  0  0  0
  1  2  1  0  0  0
  2  3  1  0  0  0
  2  6  2  0  0  0
  3  4  1  0  0  0
  3 16  1  0  0  0
  4  5  2  0  0  0
  5  6  1  0  0  0
  5 15  1  0  0  0
  6  7  1  0  0  0
  7  8  2  0  0  0
  8 18  1  0  0  0
  8  9  1  0  0  0
 18 19  1  0  0  0
 18 23  2  0  0  0
 19 20  2  0  0  0
 20 21  1  0  0  0
 21 22  2  0  0  0
 22 23  1  0  0  0
 23 24  1  0  0  0
  9 10  1  0  0  0
  9 14  2  0  0  0
 10 11  2  0  0  0
 11 25  1  0  0  0
 11 12  1  0  0  0
 25 26  2  0  0  0
 25 27  1  0  0  0
 12 13  2  0  0  0
 13 14  1  0  0  0
 14 15  1  0  0  0
 15 17  1  0  0  0
M  CHG 1  25   1
M  CHG 1  27  -1
M  END
> <minimizedAffinity>
-7.39144

$$$$
