CHEMBL3639469


 30 31  0  0  0  0  0  0  0  0999 V2000
  -27.7638   -8.3896   -4.9113 C   0  0  0  0  0  0  0  0  0  0  0  0
  -26.5419   -8.7719   -4.5230 N   0  0  0  0  0  0  0  0  0  0  0  0
  -25.9983   -9.8029   -5.2026 C   0  0  0  0  0  0  0  0  0  0  0  0
  -26.6339  -10.4694   -6.2292 C   0  0  0  0  0  0  0  0  0  0  0  0
  -25.7846  -11.9123   -7.0981 Br  0  0  0  0  0  0  0  0  0  0  0  0
  -27.9187  -10.0497   -6.5311 C   0  0  0  0  0  0  0  0  0  0  0  0
  -28.4566   -9.0060   -5.8829 N   0  0  0  0  0  0  0  0  0  0  0  0
  -28.3361   -7.2985   -4.2584 N   0  0  0  0  0  0  0  0  0  0  0  0
  -28.2350   -7.4120   -3.2587 H   0  0  0  0  0  0  0  0  0  0  0  0
  -29.7044   -4.0365   -7.6760 C   0  0  0  0  0  0  0  0  0  0  0  0
  -29.0167   -4.2973   -6.3643 C   0  0  0  0  0  0  0  0  0  0  0  0
  -29.0142   -5.6159   -5.8631 C   0  0  0  0  0  0  0  0  0  0  0  0
  -28.3286   -5.9602   -4.6923 C   0  0  0  0  0  0  0  0  0  0  0  0
  -27.6556   -4.9505   -3.9996 C   0  0  0  0  0  0  0  0  0  0  0  0
  -27.6670   -3.6324   -4.4554 C   0  0  0  0  0  0  0  0  0  0  0  0
  -28.3558   -3.2973   -5.6260 C   0  0  0  0  0  0  0  0  0  0  0  0
  -28.3492   -1.5862   -6.1604 S   0  0  0  0  0  0  0  0  0  0  0  0
  -27.3513   -0.7215   -4.9698 C   0  0  0  0  0  0  0  0  0  0  0  0
  -27.5924   -1.5876   -7.5031 N   0  0  0  0  0  0  0  0  0  0  0  0
  -29.6862   -1.0629   -5.9569 O   0  0  0  0  0  0  0  0  0  0  0  0
  -26.5783   -1.6054   -7.3995 H   0  0  0  0  0  0  0  0  0  0  0  0
  -28.6508  -10.6210   -7.5966 N   0  0  0  0  0  0  0  0  0  0  0  0
  -29.4613  -11.1142   -7.2247 H   0  0  0  0  0  0  0  0  0  0  0  0
  -29.0412   -9.6637   -8.6710 C   0  0  0  0  0  0  0  0  0  0  0  0
  -30.5568   -9.4514   -8.6469 C   0  0  0  0  0  0  0  0  0  0  0  0
  -28.4912  -10.1751  -10.0451 C   0  0  0  0  0  0  0  0  0  0  0  0
  -27.1251   -9.5986  -10.4279 C   0  0  0  0  0  0  0  0  0  0  0  0
  -28.4297  -11.7062  -10.0810 C   0  0  0  0  0  0  0  0  0  0  0  0
  -29.4181   -9.7679  -11.0697 O   0  0  0  0  0  0  0  0  0  0  0  0
  -29.7511   -8.8965  -10.7712 H   0  0  0  0  0  0  0  0  0  0  0  0
 10 11  1  0  0  0
 11 12  1  0  0  0
 11 16  2  0  0  0
 12 13  2  0  0  0
 13  8  1  0  0  0
 13 14  1  0  0  0
  8  1  1  0  0  0
  8  9  1  0  0  0
  1  2  1  0  0  0
  1  7  2  0  0  0
  2  3  2  0  0  0
  3  4  1  0  0  0
  4  5  1  0  0  0
  4  6  2  0  0  0
  6 22  1  0  0  0
  6  7  1  0  0  0
 22 23  1  0  0  0
 24 26  1  0  0  0
 24 25  1  0  0  0
 24 22  1  0  0  0
 26 27  1  0  0  0
 26 28  1  0  0  0
 26 29  1  0  0  0
 29 30  1  0  0  0
 14 15  2  0  0  0
 15 16  1  0  0  0
 16 17  1  0  0  0
 17 18  1  0  0  0
 17 19  2  0  0  0
 17 20  2  0  0  0
 19 21  1  0  0  0
M  END
> <minimizedAffinity>
-7.53046

$$$$
