CHEMBL2208237


 31 34  0  0  0  0  0  0  0  0999 V2000
  -29.2145   -4.8662   -6.4777 C   0  0  0  0  0  0  0  0  0  0  0  0
  -29.0191   -3.5120   -6.6761 N   0  0  0  0  0  0  0  0  0  0  0  0
  -28.4264   -3.4060   -7.8470 C   0  0  0  0  0  0  0  0  0  0  0  0
  -28.2874   -4.6432   -8.4307 N   0  0  0  0  0  0  0  0  0  0  0  0
  -28.8354   -5.6005   -7.6000 C   0  0  0  0  0  0  0  0  0  0  0  0
  -27.8678   -4.8056   -9.3371 H   0  0  0  0  0  0  0  0  0  0  0  0
  -29.0072   -7.0097   -7.9940 C   0  0  0  0  0  0  0  0  0  0  0  0
  -27.9828   -7.7154   -8.6344 C   0  0  0  0  0  0  0  0  0  0  0  0
  -28.1583   -9.0486   -9.0443 C   0  0  0  0  0  0  0  0  0  0  0  0
  -29.3765   -9.7104   -8.7989 C   0  0  0  0  0  0  0  0  0  0  0  0
  -29.6839  -11.0191   -9.1391 N   0  0  0  0  0  0  0  0  0  0  0  0
  -30.9078  -11.2938   -8.7508 C   0  0  0  0  0  0  0  0  0  0  0  0
  -31.7629  -10.0349   -7.9668 S   0  0  0  0  0  0  0  0  0  0  0  0
  -30.3940   -9.0052   -8.1587 C   0  0  0  0  0  0  0  0  0  0  0  0
  -30.2346   -7.6623   -7.7734 C   0  0  0  0  0  0  0  0  0  0  0  0
  -32.4474   -5.3387   -2.7923 C   0  0  0  0  0  0  0  0  0  0  0  0
  -31.1728   -5.6480   -3.4871 C   0  0  0  0  0  0  0  0  0  0  0  0
  -30.2056   -6.5546   -3.1007 C   0  0  0  0  0  0  0  0  0  0  0  0
  -29.0083   -6.6905   -4.3233 S   0  0  0  0  0  0  0  0  0  0  0  0
  -29.7767   -5.4297   -5.2009 C   0  0  0  0  0  0  0  0  0  0  0  0
  -30.8908   -4.9751   -4.6605 N   0  0  0  0  0  0  0  0  0  0  0  0
  -27.9579   -2.1589   -8.5170 C   0  0  0  0  0  0  0  0  0  0  0  0
  -27.0762   -2.4773   -9.6123 N   0  0  0  0  0  0  0  0  0  0  0  0
  -27.1198   -1.7984  -10.7923 C   0  0  0  0  0  0  0  0  0  0  0  0
  -27.8768   -0.8653  -11.0191 O   0  0  0  0  0  0  0  0  0  0  0  0
  -26.5793   -3.3569   -9.6112 H   0  0  0  0  0  0  0  0  0  0  0  0
  -26.2528   -2.3507  -11.6742 O   0  0  0  0  0  0  0  0  0  0  0  0
  -25.8294   -1.4988  -12.7525 C   0  0  0  0  0  0  0  0  0  0  0  0
  -24.3397   -1.1244  -12.7095 C   0  0  0  0  0  0  0  0  0  0  0  0
  -23.4464   -2.3441  -12.4840 C   0  0  0  0  0  0  0  0  0  0  0  0
  -23.9513   -0.4184  -14.0099 C   0  0  0  0  0  0  0  0  0  0  0  0
 16 17  1  0  0  0
 17 18  2  0  0  0
 17 21  1  0  0  0
 18 19  1  0  0  0
 19 20  1  0  0  0
 20  1  1  0  0  0
 20 21  2  0  0  0
  1  2  1  0  0  0
  1  5  2  0  0  0
  2  3  2  0  0  0
  3 22  1  0  0  0
  3  4  1  0  0  0
 22 23  1  0  0  0
 23 24  1  0  0  0
 23 26  1  0  0  0
 24 25  2  0  0  0
 24 27  1  0  0  0
 27 28  1  0  0  0
 28 29  1  0  0  0
 29 30  1  0  0  0
 29 31  1  0  0  0
  4  5  1  0  0  0
  4  6  1  0  0  0
  5  7  1  0  0  0
  7  8  1  0  0  0
  7 15  2  0  0  0
  8  9  2  0  0  0
  9 10  1  0  0  0
 10 11  1  0  0  0
 10 14  2  0  0  0
 11 12  2  0  0  0
 12 13  1  0  0  0
 13 14  1  0  0  0
 14 15  1  0  0  0
M  END
> <minimizedAffinity>
-8.70625

$$$$
