CHEMBL3694656


 35 38  0  0  0  0  0  0  0  0999 V2000
  -29.5735   -2.6143   -5.3712 C   0  0  0  0  0  0  0  0  0  0  0  0
  -29.3026   -1.3444   -4.8841 C   0  0  0  0  0  0  0  0  0  0  0  0
  -28.5242   -0.6147   -5.7470 N   0  0  0  0  0  0  0  0  0  0  0  0
  -28.3104   -1.3988   -6.7784 C   0  0  0  0  0  0  0  0  0  0  0  0
  -27.5915   -1.1729   -7.9932 C   0  0  0  0  0  0  0  0  0  0  0  0
  -27.5246   -2.1287   -8.9585 C   0  0  0  0  0  0  0  0  0  0  0  0
  -28.1913   -3.4142   -8.7206 C   0  0  0  0  0  0  0  0  0  0  0  0
  -28.8911   -3.6162   -7.5978 C   0  0  0  0  0  0  0  0  0  0  0  0
  -28.9412   -2.6286   -6.6147 N   0  0  0  0  0  0  0  0  0  0  0  0
  -30.8515   -6.0990   -4.6140 C   0  0  0  0  0  0  0  0  0  0  0  0
  -31.6583   -5.8290   -3.5071 C   0  0  0  0  0  0  0  0  0  0  0  0
  -31.9052   -4.5180   -3.1128 C   0  0  0  0  0  0  0  0  0  0  0  0
  -31.3086   -3.4636   -3.7980 C   0  0  0  0  0  0  0  0  0  0  0  0
  -30.3876   -3.7048   -4.8242 C   0  0  0  0  0  0  0  0  0  0  0  0
  -30.2131   -5.0278   -5.2654 C   0  0  0  0  0  0  0  0  0  0  0  0
  -31.3482   -7.2040   -7.3297 O   0  0  0  0  0  0  0  0  0  0  0  0
  -30.8843   -7.8426   -6.3982 C   0  0  0  0  0  0  0  0  0  0  0  0
  -30.5213   -9.1656   -6.5569 N   0  0  0  0  0  0  0  0  0  0  0  0
  -30.6378   -7.4028   -5.1145 N   0  0  0  0  0  0  0  0  0  0  0  0
  -30.5547   -9.7400   -5.7264 H   0  0  0  0  0  0  0  0  0  0  0  0
  -30.2169   -8.0633   -4.4831 H   0  0  0  0  0  0  0  0  0  0  0  0
  -30.8554   -9.8360   -7.8206 C   0  0  0  0  0  0  0  0  0  0  0  0
  -29.6900   -9.9761   -8.8111 C   0  0  0  0  0  0  0  0  0  0  0  0
  -29.9633  -10.8699   -9.7906 F   0  0  0  0  0  0  0  0  0  0  0  0
  -29.3619   -8.8039   -9.3904 F   0  0  0  0  0  0  0  0  0  0  0  0
  -28.5874  -10.4329   -8.1651 F   0  0  0  0  0  0  0  0  0  0  0  0
  -26.8161   -1.8104  -10.1686 C   0  0  0  0  0  0  0  0  0  0  0  0
  -25.5434   -1.4621  -10.2895 N   0  0  0  0  0  0  0  0  0  0  0  0
  -25.1575   -1.2500  -11.5962 N   0  0  0  0  0  0  0  0  0  0  0  0
  -26.1494   -1.4098  -12.4447 C   0  0  0  0  0  0  0  0  0  0  0  0
  -27.6321   -1.8314  -11.7049 S   0  0  0  0  0  0  0  0  0  0  0  0
  -26.0590   -1.2807  -13.9319 C   0  0  0  0  0  0  0  0  0  0  0  0
  -24.6242   -1.3825  -14.4362 C   0  0  0  0  0  0  0  0  0  0  0  0
  -23.8558   -0.2516  -14.0330 O   0  0  0  0  0  0  0  0  0  0  0  0
  -24.2044    0.5131  -14.5353 H   0  0  0  0  0  0  0  0  0  0  0  0
 16 17  2  0  0  0
 17 18  1  0  0  0
 17 19  1  0  0  0
 18 22  1  0  0  0
 18 20  1  0  0  0
 22 23  1  0  0  0
 23 24  1  0  0  0
 23 25  1  0  0  0
 23 26  1  0  0  0
 19 10  1  0  0  0
 19 21  1  0  0  0
 10 11  1  0  0  0
 10 15  2  0  0  0
 11 12  2  0  0  0
 12 13  1  0  0  0
 13 14  2  0  0  0
 14  1  1  0  0  0
 14 15  1  0  0  0
  1  2  2  0  0  0
  1  9  1  0  0  0
  2  3  1  0  0  0
  3  4  2  0  0  0
  4  5  1  0  0  0
  4  9  1  0  0  0
  5  6  2  0  0  0
  6 27  1  0  0  0
  6  7  1  0  0  0
 27 28  2  0  0  0
 27 31  1  0  0  0
 28 29  1  0  0  0
 29 30  2  0  0  0
 30 32  1  0  0  0
 30 31  1  0  0  0
 32 33  1  0  0  0
 33 34  1  0  0  0
 34 35  1  0  0  0
  7  8  2  0  0  0
  8  9  1  0  0  0
M  END
> <minimizedAffinity>
-9.25946

$$$$
