CHEMBL473287


 25 27  0  0  0  0  0  0  0  0999 V2000
  -28.2813   -2.0276   -7.1198 C   0  0  0  0  0  0  0  0  0  0  0  0
  -27.8031   -0.9381   -6.5012 N   0  0  0  0  0  0  0  0  0  0  0  0
  -28.5479   -0.7919   -5.0246 S   0  0  0  0  0  0  0  0  0  0  0  0
  -29.4914   -2.2125   -5.1417 C   0  0  0  0  0  0  0  0  0  0  0  0
  -29.2459   -2.8054   -6.3585 C   0  0  0  0  0  0  0  0  0  0  0  0
  -27.6349   -3.5927   -8.7436 O   0  0  0  0  0  0  0  0  0  0  0  0
  -27.8086   -2.4067   -8.4645 C   0  0  0  0  0  0  0  0  0  0  0  0
  -27.5277   -1.3428   -9.3148 N   0  0  0  0  0  0  0  0  0  0  0  0
  -27.5795   -0.4204   -8.8918 H   0  0  0  0  0  0  0  0  0  0  0  0
  -27.0194   -1.4680  -10.6289 C   0  0  0  0  0  0  0  0  0  0  0  0
  -27.8523   -1.6347  -11.7431 C   0  0  0  0  0  0  0  0  0  0  0  0
  -27.3250   -1.8342  -13.0183 C   0  0  0  0  0  0  0  0  0  0  0  0
  -25.9485   -1.8546  -13.2010 C   0  0  0  0  0  0  0  0  0  0  0  0
  -25.1103   -1.6471  -12.1060 C   0  0  0  0  0  0  0  0  0  0  0  0
  -23.2368   -1.6749  -12.3653 Br  0  0  0  0  0  0  0  0  0  0  0  0
  -25.6348   -1.4408  -10.8240 C   0  0  0  0  0  0  0  0  0  0  0  0
  -29.8392   -3.9483   -6.8132 N   0  0  0  0  0  0  0  0  0  0  0  0
  -29.7751   -4.1413   -7.8188 H   0  0  0  0  0  0  0  0  0  0  0  0
  -29.9853   -5.1429   -5.9945 C   0  0  0  0  0  0  0  0  0  0  0  0
  -29.9398   -6.4252   -6.8043 C   0  0  0  0  0  0  0  0  0  0  0  0
  -31.0202   -7.3145   -6.8808 C   0  0  0  0  0  0  0  0  0  0  0  0
  -30.9111   -8.4407   -7.6887 C   0  0  0  0  0  0  0  0  0  0  0  0
  -29.8261   -8.7248   -8.4386 N   0  0  0  0  0  0  0  0  0  0  0  0
  -28.8036   -7.8470   -8.3776 C   0  0  0  0  0  0  0  0  0  0  0  0
  -28.8161   -6.7021   -7.5909 C   0  0  0  0  0  0  0  0  0  0  0  0
  6  7  2  0  0  0
  7  8  1  0  0  0
  7  1  1  0  0  0
  8 10  1  0  0  0
  8  9  1  0  0  0
 10 11  1  0  0  0
 10 16  2  0  0  0
 11 12  2  0  0  0
 12 13  1  0  0  0
 13 14  2  0  0  0
 14 15  1  0  0  0
 14 16  1  0  0  0
  1  2  2  0  0  0
  1  5  1  0  0  0
  2  3  1  0  0  0
  3  4  1  0  0  0
  4  5  2  0  0  0
  5 17  1  0  0  0
 17 19  1  0  0  0
 17 18  1  0  0  0
 19 20  1  0  0  0
 20 21  1  0  0  0
 20 25  2  0  0  0
 21 22  2  0  0  0
 22 23  1  0  0  0
 23 24  2  0  0  0
 24 25  1  0  0  0
M  END
> <minimizedAffinity>
-7.96088

$$$$
