CHEMBL3905866


 35 38  0  0  0  0  0  0  0  0999 V2000
  -13.9420   -5.7792  -13.1140 N   0  0  0  0  0  0  0  0  0  0  0  0
  -13.9993   -4.4014  -13.5635 C   0  0  0  0  0  0  0  0  0  0  0  0
  -12.8236   -3.6923  -13.3711 C   0  0  0  0  0  0  0  0  0  0  0  0
  -12.8520   -2.3156  -13.1898 C   0  0  0  0  0  0  0  0  0  0  0  0
  -14.0012   -1.5896  -13.3653 C   0  0  0  0  0  0  0  0  0  0  0  0
  -13.8894   -0.3177  -12.9694 N   0  0  0  0  0  0  0  0  0  0  0  0
  -14.9078    0.4880  -13.2667 C   0  0  0  0  0  0  0  0  0  0  0  0
  -16.0059    0.0619  -14.0057 C   0  0  0  0  0  0  0  0  0  0  0  0
  -16.1750   -1.2742  -14.2957 N   0  0  0  0  0  0  0  0  0  0  0  0
  -15.1705   -2.1739  -13.8995 C   0  0  0  0  0  0  0  0  0  0  0  0
  -15.1444   -3.6374  -13.9435 C   0  0  0  0  0  0  0  0  0  0  0  0
  -16.8250    1.1345  -14.5516 C   0  0  0  0  0  0  0  0  0  0  0  0
  -16.4555    2.2017  -15.4155 C   0  0  0  0  0  0  0  0  0  0  0  0
  -17.3870    3.1607  -15.4934 N   0  0  0  0  0  0  0  0  0  0  0  0
  -18.3524    2.7255  -14.6672 N   0  0  0  0  0  0  0  0  0  0  0  0
  -19.6585    3.3420  -14.6726 C   0  0  0  0  0  0  0  0  0  0  0  0
  -17.9819    1.6161  -13.9558 C   0  0  0  0  0  0  0  0  0  0  0  0
  -13.7268   -8.0821  -16.0885 C   0  0  0  0  0  0  0  0  0  0  0  0
  -13.1254   -9.2078  -15.5269 C   0  0  0  0  0  0  0  0  0  0  0  0
  -12.8572   -9.2376  -14.1615 C   0  0  0  0  0  0  0  0  0  0  0  0
  -13.1921   -8.1321  -13.3595 C   0  0  0  0  0  0  0  0  0  0  0  0
  -13.7937   -6.9732  -13.8814 C   0  0  0  0  0  0  0  0  0  0  0  0
  -14.0774   -6.9869  -15.2631 C   0  0  0  0  0  0  0  0  0  0  0  0
  -12.8611   -7.7526  -18.2976 C   0  0  0  0  0  0  0  0  0  0  0  0
  -13.9850   -7.9407  -17.4322 O   0  0  0  0  0  0  0  0  0  0  0  0
  -12.2417  -10.2677  -13.4966 O   0  0  0  0  0  0  0  0  0  0  0  0
  -11.7548   -9.9917  -12.1868 C   0  0  0  0  0  0  0  0  0  0  0  0
  -14.8060   -5.8852  -11.8791 C   0  0  0  0  0  0  0  0  0  0  0  0
  -14.1326   -5.7349  -10.4815 C   0  0  0  0  0  0  0  0  0  0  0  0
  -14.6177   -4.7489   -9.4999 N   0  0  0  0  0  0  0  0  0  0  0  0
  -14.0667   -4.8058   -8.6419 H   0  0  0  0  0  0  0  0  0  0  0  0
  -14.6591   -3.3571   -9.9822 C   0  0  0  0  0  0  0  0  0  0  0  0
  -16.0788   -2.8346  -10.2730 C   0  0  0  0  0  0  0  0  0  0  0  0
  -16.0121   -1.6507  -10.9360 F   0  0  0  0  0  0  0  0  0  0  0  0
  -16.7159   -3.7014  -11.1057 F   0  0  0  0  0  0  0  0  0  0  0  0
 24 25  1  0  0  0
 25 18  1  0  0  0
 18 19  1  0  0  0
 18 23  2  0  0  0
 19 20  2  0  0  0
 20 26  1  0  0  0
 20 21  1  0  0  0
 26 27  1  0  0  0
 21 22  2  0  0  0
 22  1  1  0  0  0
 22 23  1  0  0  0
  1 28  1  0  0  0
  1  2  1  0  0  0
 28 29  1  0  0  0
 29 30  1  0  0  0
 30 32  1  0  0  0
 30 31  1  0  0  0
 32 33  1  0  0  0
 33 34  1  0  0  0
 33 35  1  0  0  0
  2  3  1  0  0  0
  2 11  2  0  0  0
  3  4  2  0  0  0
  4  5  1  0  0  0
  5  6  1  0  0  0
  5 10  2  0  0  0
  6  7  2  0  0  0
  7  8  1  0  0  0
  8 12  1  0  0  0
  8  9  2  0  0  0
 12 13  1  0  0  0
 12 17  2  0  0  0
 13 14  2  0  0  0
 14 15  1  0  0  0
 15 16  1  0  0  0
 15 17  1  0  0  0
  9 10  1  0  0  0
 10 11  1  0  0  0
M  END
> <minimizedAffinity>
-6.98363

$$$$
