CHEMBL510676


 39 44  0  0  0  0  0  0  0  0999 V2000
  -28.4004   -2.5383   -7.7005 C   0  0  0  0  0  0  0  0  0  0  0  0
  -27.9283   -3.4111   -8.6768 C   0  0  0  0  0  0  0  0  0  0  0  0
  -27.1963   -2.9196   -9.7502 C   0  0  0  0  0  0  0  0  0  0  0  0
  -26.8572   -1.5676   -9.8256 C   0  0  0  0  0  0  0  0  0  0  0  0
  -27.1964   -0.7185   -8.7699 C   0  0  0  0  0  0  0  0  0  0  0  0
  -27.9825   -1.2064   -7.7249 C   0  0  0  0  0  0  0  0  0  0  0  0
  -28.3587   -0.3637   -6.7503 F   0  0  0  0  0  0  0  0  0  0  0  0
  -26.1759   -1.0442  -10.9369 N   0  0  0  0  0  0  0  0  0  0  0  0
  -26.0753   -1.6574  -12.1709 C   0  0  0  0  0  0  0  0  0  0  0  0
  -26.6180   -2.7160  -12.4835 O   0  0  0  0  0  0  0  0  0  0  0  0
  -25.3075   -0.9719  -13.0902 N   0  0  0  0  0  0  0  0  0  0  0  0
  -25.2057   -1.4505  -14.4477 C   0  0  0  0  0  0  0  0  0  0  0  0
  -24.3589   -0.3985  -15.1278 C   0  0  0  0  0  0  0  0  0  0  0  0
  -23.5583    0.1224  -14.0457 N   0  0  0  0  0  0  0  0  0  0  0  0
  -24.2157   -0.1185  -12.8150 C   0  0  0  0  0  0  0  0  0  0  0  0
  -23.9719    0.3661  -11.7206 O   0  0  0  0  0  0  0  0  0  0  0  0
  -25.8370   -0.0880  -10.8865 H   0  0  0  0  0  0  0  0  0  0  0  0
  -22.3844    0.8827  -14.2289 C   0  0  0  0  0  0  0  0  0  0  0  0
  -21.1997    0.2807  -14.6689 C   0  0  0  0  0  0  0  0  0  0  0  0
  -20.0380    1.0334  -14.8556 C   0  0  0  0  0  0  0  0  0  0  0  0
  -20.0434    2.4002  -14.5959 C   0  0  0  0  0  0  0  0  0  0  0  0
  -21.2168    3.0170  -14.1709 C   0  0  0  0  0  0  0  0  0  0  0  0
  -22.3837    2.2655  -14.0015 C   0  0  0  0  0  0  0  0  0  0  0  0
  -29.2508   -2.9219   -6.6905 O   0  0  0  0  0  0  0  0  0  0  0  0
  -29.8183   -7.4889   -6.8056 C   0  0  0  0  0  0  0  0  0  0  0  0
  -29.1211   -7.5208   -5.6121 C   0  0  0  0  0  0  0  0  0  0  0  0
  -28.7227   -6.2244   -5.1693 C   0  0  0  0  0  0  0  0  0  0  0  0
  -27.9919   -5.9569   -4.0510 N   0  0  0  0  0  0  0  0  0  0  0  0
  -27.6752   -4.6613   -3.8569 C   0  0  0  0  0  0  0  0  0  0  0  0
  -28.0233   -3.6178   -4.6936 C   0  0  0  0  0  0  0  0  0  0  0  0
  -28.8273   -3.8878   -5.8006 C   0  0  0  0  0  0  0  0  0  0  0  0
  -29.1612   -5.2264   -6.0344 C   0  0  0  0  0  0  0  0  0  0  0  0
  -30.1109   -5.8781   -7.2954 S   0  0  0  0  0  0  0  0  0  0  0  0
  -32.8219   -8.3436   -7.1443 C   0  0  0  0  0  0  0  0  0  0  0  0
  -31.6470   -9.0165   -7.6428 N   0  0  0  0  0  0  0  0  0  0  0  0
  -31.6764  -10.1732   -8.3761 C   0  0  0  0  0  0  0  0  0  0  0  0
  -30.3726  -10.4023   -8.7370 C   0  0  0  0  0  0  0  0  0  0  0  0
  -29.5526   -9.4239   -8.2341 N   0  0  0  0  0  0  0  0  0  0  0  0
  -30.3291   -8.6167   -7.5382 C   0  0  0  0  0  0  0  0  0  0  0  0
 34 35  1  0  0  0
 35 36  1  0  0  0
 35 39  1  0  0  0
 36 37  2  0  0  0
 37 38  1  0  0  0
 38 39  2  0  0  0
 39 25  1  0  0  0
 25 26  2  0  0  0
 25 33  1  0  0  0
 26 27  1  0  0  0
 27 28  1  0  0  0
 27 32  2  0  0  0
 28 29  2  0  0  0
 29 30  1  0  0  0
 30 31  2  0  0  0
 31 24  1  0  0  0
 31 32  1  0  0  0
 24  1  1  0  0  0
  1  2  1  0  0  0
  1  6  2  0  0  0
  2  3  2  0  0  0
  3  4  1  0  0  0
  4  8  1  0  0  0
  4  5  2  0  0  0
  8  9  1  0  0  0
  8 17  1  0  0  0
  9 10  2  0  0  0
  9 11  1  0  0  0
 11 12  1  0  0  0
 11 15  1  0  0  0
 12 13  1  0  0  0
 13 14  1  0  0  0
 14 18  1  0  0  0
 14 15  1  0  0  0
 18 19  1  0  0  0
 18 23  2  0  0  0
 19 20  2  0  0  0
 20 21  1  0  0  0
 21 22  2  0  0  0
 22 23  1  0  0  0
 15 16  2  0  0  0
  5  6  1  0  0  0
  6  7  1  0  0  0
 32 33  1  0  0  0
M  END
> <minimizedAffinity>
-10.01485

$$$$
