CHEMBL1254840


 36 39  0  0  0  0  0  0  0  0999 V2000
  -23.7582   -0.4380  -14.5269 N   0  0  0  0  0  0  0  0  0  0  0  0
  -22.5562    0.1481  -14.1398 C   0  0  0  0  0  0  0  0  0  0  0  0
  -22.1964    0.3238  -12.9855 O   0  0  0  0  0  0  0  0  0  0  0  0
  -21.7708    0.5476  -15.2144 N   0  0  0  0  0  0  0  0  0  0  0  0
  -23.8587   -0.6689  -15.5007 H   0  0  0  0  0  0  0  0  0  0  0  0
  -22.2994    0.9975  -15.9509 H   0  0  0  0  0  0  0  0  0  0  0  0
  -20.5148    1.1628  -14.9165 C   0  0  0  0  0  0  0  0  0  0  0  0
  -20.4770    2.4994  -14.5004 C   0  0  0  0  0  0  0  0  0  0  0  0
  -19.2583    3.1574  -14.3308 C   0  0  0  0  0  0  0  0  0  0  0  0
  -18.0595    2.4984  -14.6041 C   0  0  0  0  0  0  0  0  0  0  0  0
  -18.0824    1.1450  -14.9567 C   0  0  0  0  0  0  0  0  0  0  0  0
  -19.3066    0.4768  -15.1020 C   0  0  0  0  0  0  0  0  0  0  0  0
  -19.2982   -1.1740  -15.6184 Cl  0  0  0  0  0  0  0  0  0  0  0  0
  -16.8222    3.0976  -14.4772 O   0  0  0  0  0  0  0  0  0  0  0  0
  -16.0351    3.2274  -15.6182 C   0  0  0  0  0  0  0  0  0  0  0  0
  -16.3945    4.0819  -16.6009 N   0  0  0  0  0  0  0  0  0  0  0  0
  -15.6009    4.1824  -17.6796 C   0  0  0  0  0  0  0  0  0  0  0  0
  -14.4759    3.5028  -17.9365 N   0  0  0  0  0  0  0  0  0  0  0  0
  -14.1499    2.6214  -16.9691 C   0  0  0  0  0  0  0  0  0  0  0  0
  -13.0539    1.7332  -16.9175 C   0  0  0  0  0  0  0  0  0  0  0  0
  -13.1365    1.0465  -15.7252 C   0  0  0  0  0  0  0  0  0  0  0  0
  -14.2445    1.4998  -15.0495 N   0  0  0  0  0  0  0  0  0  0  0  0
  -14.6502    1.0463  -13.7413 C   0  0  0  0  0  0  0  0  0  0  0  0
  -14.8894    2.4569  -15.8040 C   0  0  0  0  0  0  0  0  0  0  0  0
  -25.5536   -1.3698  -11.3641 C   0  0  0  0  0  0  0  0  0  0  0  0
  -24.5778   -0.9167  -12.2449 C   0  0  0  0  0  0  0  0  0  0  0  0
  -24.7670   -0.8776  -13.6275 C   0  0  0  0  0  0  0  0  0  0  0  0
  -26.0058   -1.3037  -14.1330 C   0  0  0  0  0  0  0  0  0  0  0  0
  -27.0088   -1.7700  -13.2606 C   0  0  0  0  0  0  0  0  0  0  0  0
  -26.7765   -1.7869  -11.8747 C   0  0  0  0  0  0  0  0  0  0  0  0
  -28.3290   -2.2976  -13.7737 C   0  0  0  0  0  0  0  0  0  0  0  0
  -28.3764   -3.6567  -13.8586 F   0  0  0  0  0  0  0  0  0  0  0  0
  -29.3762   -1.9401  -12.9756 F   0  0  0  0  0  0  0  0  0  0  0  0
  -28.6342   -1.8341  -15.0163 F   0  0  0  0  0  0  0  0  0  0  0  0
  -26.6027   -1.6974   -9.2582 C   0  0  0  0  0  0  0  0  0  0  0  0
  -25.4097   -1.4565  -10.0047 O   0  0  0  0  0  0  0  0  0  0  0  0
 35 36  1  0  0  0
 36 25  1  0  0  0
 25 26  1  0  0  0
 25 30  2  0  0  0
 26 27  2  0  0  0
 27  1  1  0  0  0
 27 28  1  0  0  0
  1  2  1  0  0  0
  1  5  1  0  0  0
  2  3  2  0  0  0
  2  4  1  0  0  0
  4  7  1  0  0  0
  4  6  1  0  0  0
  7  8  1  0  0  0
  7 12  2  0  0  0
  8  9  2  0  0  0
  9 10  1  0  0  0
 10 14  1  0  0  0
 10 11  2  0  0  0
 14 15  1  0  0  0
 15 16  1  0  0  0
 15 24  2  0  0  0
 16 17  2  0  0  0
 17 18  1  0  0  0
 18 19  2  0  0  0
 19 20  1  0  0  0
 19 24  1  0  0  0
 20 21  2  0  0  0
 21 22  1  0  0  0
 22 23  1  0  0  0
 22 24  1  0  0  0
 11 12  1  0  0  0
 12 13  1  0  0  0
 28 29  2  0  0  0
 29 31  1  0  0  0
 29 30  1  0  0  0
 31 32  1  0  0  0
 31 33  1  0  0  0
 31 34  1  0  0  0
M  END
> <minimizedAffinity>
-7.47733

$$$$
