CHEMBL1974254


 39 43  0  0  0  0  0  0  0  0999 V2000
  -15.4511    1.4080  -15.7958 C   0  0  0  0  0  0  0  0  0  0  0  0
  -16.1515    2.5980  -15.5901 C   0  0  0  0  0  0  0  0  0  0  0  0
  -15.7547    3.7724  -16.2291 C   0  0  0  0  0  0  0  0  0  0  0  0
  -14.6198    3.7955  -17.0539 C   0  0  0  0  0  0  0  0  0  0  0  0
  -13.8549    2.6260  -17.1498 C   0  0  0  0  0  0  0  0  0  0  0  0
  -14.2721    1.4334  -16.5373 C   0  0  0  0  0  0  0  0  0  0  0  0
  -14.2657    5.0254  -17.7818 C   0  0  0  0  0  0  0  0  0  0  0  0
  -14.8501    5.2465  -19.0128 C   0  0  0  0  0  0  0  0  0  0  0  0
  -14.3073    6.6500  -19.7719 S   0  0  0  0  0  0  0  0  0  0  0  0
  -13.3168    7.1072  -18.4310 C   0  0  0  0  0  0  0  0  0  0  0  0
  -12.5387    8.2808  -18.3022 C   0  0  0  0  0  0  0  0  0  0  0  0
  -11.7896    8.3684  -17.1427 C   0  0  0  0  0  0  0  0  0  0  0  0
  -11.7493    7.4312  -16.1809 N   0  0  0  0  0  0  0  0  0  0  0  0
  -12.4886    6.3117  -16.2990 C   0  0  0  0  0  0  0  0  0  0  0  0
  -12.3086    5.4156  -15.2519 N   0  0  0  0  0  0  0  0  0  0  0  0
  -13.3355    6.1100  -17.4277 C   0  0  0  0  0  0  0  0  0  0  0  0
  -11.5046    5.7130  -14.7082 H   0  0  0  0  0  0  0  0  0  0  0  0
  -12.2850    4.4483  -15.5509 H   0  0  0  0  0  0  0  0  0  0  0  0
  -12.5227    9.3375  -19.2981 C   0  0  0  0  0  0  0  0  0  0  0  0
  -11.6602    9.5991  -20.3915 C   0  0  0  0  0  0  0  0  0  0  0  0
  -12.0134   10.6771  -21.0949 N   0  0  0  0  0  0  0  0  0  0  0  0
  -13.1128   11.1179  -20.4558 N   0  0  0  0  0  0  0  0  0  0  0  0
  -13.8129   12.2764  -20.9494 C   0  0  0  0  0  0  0  0  0  0  0  0
  -13.4603   10.3491  -19.3851 C   0  0  0  0  0  0  0  0  0  0  0  0
  -15.9609   -1.6447  -13.9076 N   0  0  0  0  0  0  0  0  0  0  0  0
  -15.3258   -0.4704  -14.2680 C   0  0  0  0  0  0  0  0  0  0  0  0
  -14.3437   -0.0016  -13.7017 O   0  0  0  0  0  0  0  0  0  0  0  0
  -15.9586    0.1707  -15.3275 N   0  0  0  0  0  0  0  0  0  0  0  0
  -16.6051   -2.0407  -14.5763 H   0  0  0  0  0  0  0  0  0  0  0  0
  -16.9617    0.0589  -15.3476 H   0  0  0  0  0  0  0  0  0  0  0  0
  -15.0700   -4.0313  -10.5116 C   0  0  0  0  0  0  0  0  0  0  0  0
  -15.6309   -2.7701  -10.3520 C   0  0  0  0  0  0  0  0  0  0  0  0
  -15.9240   -1.9797  -11.4618 C   0  0  0  0  0  0  0  0  0  0  0  0
  -15.6576   -2.4176  -12.7605 C   0  0  0  0  0  0  0  0  0  0  0  0
  -15.0904   -3.6849  -12.9245 C   0  0  0  0  0  0  0  0  0  0  0  0
  -14.8001   -4.4855  -11.8054 C   0  0  0  0  0  0  0  0  0  0  0  0
  -14.7585   -4.8832   -9.4836 O   0  0  0  0  0  0  0  0  0  0  0  0
  -12.7370   -3.8682   -8.6587 C   0  0  0  0  0  0  0  0  0  0  0  0
  -13.3595   -5.1051   -9.2739 C   0  0  0  0  0  0  0  0  0  0  0  0
 38 39  1  0  0  0
 39 37  1  0  0  0
 37 31  1  0  0  0
 31 32  1  0  0  0
 31 36  2  0  0  0
 32 33  2  0  0  0
 33 34  1  0  0  0
 34 25  1  0  0  0
 34 35  2  0  0  0
 25 26  1  0  0  0
 25 29  1  0  0  0
 26 27  2  0  0  0
 26 28  1  0  0  0
 28  1  1  0  0  0
 28 30  1  0  0  0
  1  2  1  0  0  0
  1  6  2  0  0  0
  2  3  2  0  0  0
  3  4  1  0  0  0
  4  7  1  0  0  0
  4  5  2  0  0  0
  7  8  2  0  0  0
  7 16  1  0  0  0
  8  9  1  0  0  0
  9 10  1  0  0  0
 10 11  1  0  0  0
 10 16  2  0  0  0
 11 19  1  0  0  0
 11 12  2  0  0  0
 19 20  1  0  0  0
 19 24  2  0  0  0
 20 21  2  0  0  0
 21 22  1  0  0  0
 22 23  1  0  0  0
 22 24  1  0  0  0
 12 13  1  0  0  0
 13 14  2  0  0  0
 14 15  1  0  0  0
 14 16  1  0  0  0
 15 17  1  0  0  0
 15 18  1  0  0  0
  5  6  1  0  0  0
 35 36  1  0  0  0
M  END
> <minimizedAffinity>
-6.95735

$$$$
