CHEMBL3932285


 32 35  0  0  0  0  0  0  0  0999 V2000
  -13.5741   -1.6298  -13.6904 N   0  0  0  0  0  0  0  0  0  0  0  0
  -14.2616   -0.6024  -14.4092 C   0  0  0  0  0  0  0  0  0  0  0  0
  -13.6477    0.1564  -15.4110 C   0  0  0  0  0  0  0  0  0  0  0  0
  -14.3480    1.1720  -16.0791 C   0  0  0  0  0  0  0  0  0  0  0  0
  -15.6562    1.4959  -15.7417 C   0  0  0  0  0  0  0  0  0  0  0  0
  -16.2845    2.5238  -16.3459 N   0  0  0  0  0  0  0  0  0  0  0  0
  -17.5544    2.7747  -15.9434 C   0  0  0  0  0  0  0  0  0  0  0  0
  -18.2111    2.0194  -14.9813 C   0  0  0  0  0  0  0  0  0  0  0  0
  -17.5810    0.9865  -14.3739 N   0  0  0  0  0  0  0  0  0  0  0  0
  -16.3078    0.7371  -14.7500 C   0  0  0  0  0  0  0  0  0  0  0  0
  -15.6152   -0.2935  -14.1318 C   0  0  0  0  0  0  0  0  0  0  0  0
  -19.5917    2.2762  -14.6144 C   0  0  0  0  0  0  0  0  0  0  0  0
  -20.3216    3.4863  -14.5527 C   0  0  0  0  0  0  0  0  0  0  0  0
  -21.6010    3.3068  -14.2191 N   0  0  0  0  0  0  0  0  0  0  0  0
  -21.7041    1.9744  -14.0703 N   0  0  0  0  0  0  0  0  0  0  0  0
  -22.9857    1.3822  -13.7729 C   0  0  0  0  0  0  0  0  0  0  0  0
  -20.5255    1.3146  -14.2708 C   0  0  0  0  0  0  0  0  0  0  0  0
  -15.0652   -4.2594  -11.3925 C   0  0  0  0  0  0  0  0  0  0  0  0
  -15.2336   -5.3253  -12.2537 C   0  0  0  0  0  0  0  0  0  0  0  0
  -14.8602   -5.2154  -13.5965 C   0  0  0  0  0  0  0  0  0  0  0  0
  -14.2904   -4.0140  -14.1114 C   0  0  0  0  0  0  0  0  0  0  0  0
  -13.9498   -3.9538  -15.5769 C   0  0  0  0  0  0  0  0  0  0  0  0
  -14.1184   -2.8827  -13.2407 C   0  0  0  0  0  0  0  0  0  0  0  0
  -14.5127   -3.0709  -11.8858 C   0  0  0  0  0  0  0  0  0  0  0  0
  -14.2875   -4.4403   -9.1482 C   0  0  0  0  0  0  0  0  0  0  0  0
  -15.3696   -4.2507  -10.0576 O   0  0  0  0  0  0  0  0  0  0  0  0
  -14.9606   -6.4126  -14.2655 O   0  0  0  0  0  0  0  0  0  0  0  0
  -15.1550   -7.5896  -13.4906 C   0  0  0  0  0  0  0  0  0  0  0  0
  -12.0959   -1.5486  -13.9811 C   0  0  0  0  0  0  0  0  0  0  0  0
  -11.2741   -0.9143  -12.8463 C   0  0  0  0  0  0  0  0  0  0  0  0
  -11.1456   -1.7706  -11.7189 O   0  0  0  0  0  0  0  0  0  0  0  0
  -12.0123   -1.7622  -11.2738 H   0  0  0  0  0  0  0  0  0  0  0  0
 25 26  1  0  0  0
 26 18  1  0  0  0
 18 19  1  0  0  0
 18 24  2  0  0  0
 19 20  2  0  0  0
 20 27  1  0  0  0
 20 21  1  0  0  0
 27 28  1  0  0  0
 21 22  1  0  0  0
 21 23  2  0  0  0
 23  1  1  0  0  0
 23 24  1  0  0  0
  1 29  1  0  0  0
  1  2  1  0  0  0
 29 30  1  0  0  0
 30 31  1  0  0  0
 31 32  1  0  0  0
  2  3  1  0  0  0
  2 11  2  0  0  0
  3  4  2  0  0  0
  4  5  1  0  0  0
  5  6  1  0  0  0
  5 10  2  0  0  0
  6  7  2  0  0  0
  7  8  1  0  0  0
  8 12  1  0  0  0
  8  9  2  0  0  0
 12 13  1  0  0  0
 12 17  2  0  0  0
 13 14  2  0  0  0
 14 15  1  0  0  0
 15 16  1  0  0  0
 15 17  1  0  0  0
  9 10  1  0  0  0
 10 11  1  0  0  0
M  END
> <minimizedAffinity>
-7.54423

$$$$
