CHEMBL3644554


 33 36  0  0  0  0  0  0  0  0999 V2000
  -27.7344   -1.8003   -8.4480 C   0  0  0  0  0  0  0  0  0  0  0  0
  -27.6206   -0.8353   -7.4514 C   0  0  0  0  0  0  0  0  0  0  0  0
  -28.0590   -1.1429   -6.1641 C   0  0  0  0  0  0  0  0  0  0  0  0
  -28.6274   -2.3965   -5.8784 C   0  0  0  0  0  0  0  0  0  0  0  0
  -28.7716   -3.3819   -6.8625 C   0  0  0  0  0  0  0  0  0  0  0  0
  -28.2881   -3.0565   -8.1367 C   0  0  0  0  0  0  0  0  0  0  0  0
  -29.3790   -4.5980   -6.6186 N   0  0  0  0  0  0  0  0  0  0  0  0
  -29.5863   -5.5932   -7.6718 C   0  0  0  0  0  0  0  0  0  0  0  0
  -28.7087   -6.8123   -7.3793 C   0  0  0  0  0  0  0  0  0  0  0  0
  -28.8317   -7.2930   -5.9473 C   0  0  0  0  0  0  0  0  0  0  0  0
  -29.3833   -6.4152   -4.9798 C   0  0  0  0  0  0  0  0  0  0  0  0
  -29.5435   -6.8836   -3.6771 C   0  0  0  0  0  0  0  0  0  0  0  0
  -29.1781   -8.1130   -3.2639 N   0  0  0  0  0  0  0  0  0  0  0  0
  -28.6264   -8.9259   -4.1959 C   0  0  0  0  0  0  0  0  0  0  0  0
  -28.4161   -8.5727   -5.5280 C   0  0  0  0  0  0  0  0  0  0  0  0
  -29.8450   -5.0057   -5.2973 C   0  0  0  0  0  0  0  0  0  0  0  0
  -27.8276   -9.6370   -6.3769 C   0  0  0  0  0  0  0  0  0  0  0  0
  -28.4984  -10.5554   -6.8195 O   0  0  0  0  0  0  0  0  0  0  0  0
  -26.4985   -9.5556   -6.5766 O   0  0  0  0  0  0  0  0  0  0  0  0
  -26.0224   -8.9336   -5.9992 H   0  0  0  0  0  0  0  0  0  0  0  0
  -26.0750   -1.5908  -10.2542 N   0  0  0  0  0  0  0  0  0  0  0  0
  -27.4094   -1.5558   -9.8818 C   0  0  0  0  0  0  0  0  0  0  0  0
  -28.3560   -1.3847  -10.6424 O   0  0  0  0  0  0  0  0  0  0  0  0
  -25.4068   -1.9751   -9.5987 H   0  0  0  0  0  0  0  0  0  0  0  0
  -23.9533   -0.2964  -13.0356 C   0  0  0  0  0  0  0  0  0  0  0  0
  -24.5238   -0.9553  -14.1331 C   0  0  0  0  0  0  0  0  0  0  0  0
  -25.6367   -1.7717  -13.9675 C   0  0  0  0  0  0  0  0  0  0  0  0
  -26.1753   -1.9670  -12.6950 C   0  0  0  0  0  0  0  0  0  0  0  0
  -25.6040   -1.3573  -11.5752 C   0  0  0  0  0  0  0  0  0  0  0  0
  -24.5182   -0.4941  -11.7572 C   0  0  0  0  0  0  0  0  0  0  0  0
  -21.7970   -0.0115  -14.3172 C   0  0  0  0  0  0  0  0  0  0  0  0
  -22.7308    0.5761  -13.2590 C   0  0  0  0  0  0  0  0  0  0  0  0
  -23.1230    2.0148  -13.6006 C   0  0  0  0  0  0  0  0  0  0  0  0
 31 32  1  0  0  0
 32 33  1  0  0  0
 32 25  1  0  0  0
 25 26  1  0  0  0
 25 30  2  0  0  0
 26 27  2  0  0  0
 27 28  1  0  0  0
 28 29  2  0  0  0
 29 21  1  0  0  0
 29 30  1  0  0  0
 21 22  1  0  0  0
 21 24  1  0  0  0
 22 23  2  0  0  0
 22  1  1  0  0  0
  1  2  1  0  0  0
  1  6  2  0  0  0
  2  3  2  0  0  0
  3  4  1  0  0  0
  4  5  2  0  0  0
  5  7  1  0  0  0
  5  6  1  0  0  0
  7  8  1  0  0  0
  7 16  1  0  0  0
  8  9  1  0  0  0
  9 10  1  0  0  0
 10 11  1  0  0  0
 10 15  2  0  0  0
 11 12  2  0  0  0
 11 16  1  0  0  0
 12 13  1  0  0  0
 13 14  2  0  0  0
 14 15  1  0  0  0
 15 17  1  0  0  0
 17 18  2  0  0  0
 17 19  1  0  0  0
 19 20  1  0  0  0
M  END
> <minimizedAffinity>
-10.78206

$$$$
