CHEMBL1999931


 32 36  0  0  0  0  0  0  0  0999 V2000
  -27.6449   -1.5589   -8.0135 C   0  0  0  0  0  0  0  0  0  0  0  0
  -27.8508   -0.4666   -7.2738 N   0  0  0  0  0  0  0  0  0  0  0  0
  -28.6887   -0.8552   -6.3133 N   0  0  0  0  0  0  0  0  0  0  0  0
  -29.0651   -2.1642   -6.3972 C   0  0  0  0  0  0  0  0  0  0  0  0
  -29.9112   -2.9305   -5.5962 C   0  0  0  0  0  0  0  0  0  0  0  0
  -30.0738   -4.2746   -5.9492 C   0  0  0  0  0  0  0  0  0  0  0  0
  -29.4207   -4.8347   -7.0580 C   0  0  0  0  0  0  0  0  0  0  0  0
  -28.5788   -4.0231   -7.8469 C   0  0  0  0  0  0  0  0  0  0  0  0
  -28.4007   -2.6638   -7.5113 C   0  0  0  0  0  0  0  0  0  0  0  0
  -28.9632   -0.1699   -5.6194 H   0  0  0  0  0  0  0  0  0  0  0  0
  -29.6127   -6.2294   -7.4234 C   0  0  0  0  0  0  0  0  0  0  0  0
  -28.6809   -7.0846   -7.9704 C   0  0  0  0  0  0  0  0  0  0  0  0
  -29.3306   -8.2839   -8.0387 N   0  0  0  0  0  0  0  0  0  0  0  0
  -30.5965   -8.1796   -7.5945 N   0  0  0  0  0  0  0  0  0  0  0  0
  -30.7831   -6.9197   -7.2225 N   0  0  0  0  0  0  0  0  0  0  0  0
  -28.7608   -9.5793   -8.3586 C   0  0  0  0  0  0  0  0  0  0  0  0
  -28.3919   -9.6852   -9.8145 C   0  0  0  0  0  0  0  0  0  0  0  0
  -27.1176   -9.3070  -10.2629 C   0  0  0  0  0  0  0  0  0  0  0  0
  -26.7919   -9.3915  -11.6175 C   0  0  0  0  0  0  0  0  0  0  0  0
  -27.7333   -9.8542  -12.5350 C   0  0  0  0  0  0  0  0  0  0  0  0
  -29.0015  -10.2334  -12.1005 C   0  0  0  0  0  0  0  0  0  0  0  0
  -29.3315  -10.1466  -10.7480 C   0  0  0  0  0  0  0  0  0  0  0  0
  -28.4230   -1.2117  -10.7871 O   0  0  0  0  0  0  0  0  0  0  0  0
  -27.2817   -1.4722  -10.4195 C   0  0  0  0  0  0  0  0  0  0  0  0
  -26.8187   -1.5974   -9.1245 N   0  0  0  0  0  0  0  0  0  0  0  0
  -25.8261   -1.5941   -8.9481 H   0  0  0  0  0  0  0  0  0  0  0  0
  -26.2428   -1.5876  -11.4755 C   0  0  0  0  0  0  0  0  0  0  0  0
  -24.8990   -1.5921  -11.0785 C   0  0  0  0  0  0  0  0  0  0  0  0
  -23.8851   -1.6456  -12.0336 C   0  0  0  0  0  0  0  0  0  0  0  0
  -24.2109   -1.6830  -13.3884 C   0  0  0  0  0  0  0  0  0  0  0  0
  -25.5489   -1.6680  -13.7901 C   0  0  0  0  0  0  0  0  0  0  0  0
  -26.5695   -1.6222  -12.8363 C   0  0  0  0  0  0  0  0  0  0  0  0
 23 24  2  0  0  0
 24 25  1  0  0  0
 24 27  1  0  0  0
 25  1  1  0  0  0
 25 26  1  0  0  0
  1  2  2  0  0  0
  1  9  1  0  0  0
  2  3  1  0  0  0
  3  4  1  0  0  0
  3 10  1  0  0  0
  4  5  1  0  0  0
  4  9  2  0  0  0
  5  6  2  0  0  0
  6  7  1  0  0  0
  7 11  1  0  0  0
  7  8  2  0  0  0
 11 12  2  0  0  0
 11 15  1  0  0  0
 12 13  1  0  0  0
 13 16  1  0  0  0
 13 14  1  0  0  0
 16 17  1  0  0  0
 17 18  1  0  0  0
 17 22  2  0  0  0
 18 19  2  0  0  0
 19 20  1  0  0  0
 20 21  2  0  0  0
 21 22  1  0  0  0
 14 15  2  0  0  0
  8  9  1  0  0  0
 27 28  1  0  0  0
 27 32  2  0  0  0
 28 29  2  0  0  0
 29 30  1  0  0  0
 30 31  2  0  0  0
 31 32  1  0  0  0
M  END
> <minimizedAffinity>
-10.06239

$$$$
