CHEMBL330042


 20 23  0  0  0  0  0  0  0  0999 V2000
  -25.4993   -1.1720  -12.8440 C   0  0  0  0  0  0  0  0  0  0  0  0
  -25.7484   -1.5220  -14.1844 C   0  0  0  0  0  0  0  0  0  0  0  0
  -24.7688   -1.1542  -15.0128 N   0  0  0  0  0  0  0  0  0  0  0  0
  -23.8630   -0.5475  -14.2069 N   0  0  0  0  0  0  0  0  0  0  0  0
  -22.6603    0.0406  -14.5865 C   0  0  0  0  0  0  0  0  0  0  0  0
  -21.8583    0.6217  -13.6779 C   0  0  0  0  0  0  0  0  0  0  0  0
  -22.3761    0.5499  -12.2746 C   0  0  0  0  0  0  0  0  0  0  0  0
  -23.4915    0.0117  -11.8847 N   0  0  0  0  0  0  0  0  0  0  0  0
  -24.2680   -0.5460  -12.8670 C   0  0  0  0  0  0  0  0  0  0  0  0
  -20.5575    1.3168  -13.9783 C   0  0  0  0  0  0  0  0  0  0  0  0
  -20.7598    2.8107  -14.2858 C   0  0  0  0  0  0  0  0  0  0  0  0
  -19.4429    3.4996  -14.6386 C   0  0  0  0  0  0  0  0  0  0  0  0
  -18.7280    2.7870  -15.7821 C   0  0  0  0  0  0  0  0  0  0  0  0
  -18.4958    1.3145  -15.4613 C   0  0  0  0  0  0  0  0  0  0  0  0
  -19.8019    0.6047  -15.1138 C   0  0  0  0  0  0  0  0  0  0  0  0
  -28.4035   -1.5819  -10.5449 C   0  0  0  0  0  0  0  0  0  0  0  0
  -27.8030   -1.2862  -11.7509 C   0  0  0  0  0  0  0  0  0  0  0  0
  -26.3811   -1.4267  -11.6997 C   0  0  0  0  0  0  0  0  0  0  0  0
  -25.9642   -1.8239  -10.4451 C   0  0  0  0  0  0  0  0  0  0  0  0
  -27.2646   -2.0254   -9.3512 S   0  0  0  0  0  0  0  0  0  0  0  0
 16 17  2  0  0  0
 16 20  1  0  0  0
 17 18  1  0  0  0
 18  1  1  0  0  0
 18 19  2  0  0  0
  1  2  1  0  0  0
  1  9  2  0  0  0
  2  3  2  0  0  0
  3  4  1  0  0  0
  4  5  1  0  0  0
  4  9  1  0  0  0
  5  6  2  0  0  0
  6 10  1  0  0  0
  6  7  1  0  0  0
 10 11  1  0  0  0
 10 15  1  0  0  0
 11 12  1  0  0  0
 12 13  1  0  0  0
 13 14  1  0  0  0
 14 15  1  0  0  0
  7  8  2  0  0  0
  8  9  1  0  0  0
 19 20  1  0  0  0
M  END
> <minimizedAffinity>
-8.03643

$$$$
