CHEMBL269924


 38 44  0  0  0  0  0  0  0  0999 V2000
  -29.8310   -6.4303   -4.0897 N   0  0  0  0  0  0  0  0  0  0  0  0
  -29.5544   -7.6737   -4.7035 C   0  0  0  0  0  0  0  0  0  0  0  0
  -29.4276   -8.9842   -4.1829 C   0  0  0  0  0  0  0  0  0  0  0  0
  -28.9603  -10.0146   -5.0299 C   0  0  0  0  0  0  0  0  0  0  0  0
  -28.7186   -9.7828   -6.3847 C   0  0  0  0  0  0  0  0  0  0  0  0
  -28.9133   -8.5019   -6.9001 C   0  0  0  0  0  0  0  0  0  0  0  0
  -29.2736   -7.4398   -6.0524 C   0  0  0  0  0  0  0  0  0  0  0  0
  -29.3206   -6.0710   -6.1368 C   0  0  0  0  0  0  0  0  0  0  0  0
  -28.6369   -5.3669   -7.1440 C   0  0  0  0  0  0  0  0  0  0  0  0
  -28.2895   -4.0496   -6.8209 C   0  0  0  0  0  0  0  0  0  0  0  0
  -28.7095   -3.3885   -5.6474 C   0  0  0  0  0  0  0  0  0  0  0  0
  -29.8660   -3.9921   -5.0531 C   0  0  0  0  0  0  0  0  0  0  0  0
  -29.8031   -5.4037   -5.0431 C   0  0  0  0  0  0  0  0  0  0  0  0
  -31.1884   -3.1870   -5.4474 C   0  0  0  0  0  0  0  0  0  0  0  0
  -30.9748   -2.0325   -6.5176 C   0  0  0  0  0  0  0  0  0  0  0  0
  -29.8036   -1.2380   -6.0596 C   0  0  0  0  0  0  0  0  0  0  0  0
  -29.7736    0.0470   -5.7074 N   0  0  0  0  0  0  0  0  0  0  0  0
  -28.6352    0.1210   -4.9714 N   0  0  0  0  0  0  0  0  0  0  0  0
  -28.3142    1.3416   -4.2720 C   0  0  0  0  0  0  0  0  0  0  0  0
  -28.0167   -1.0926   -4.7868 C   0  0  0  0  0  0  0  0  0  0  0  0
  -28.6755   -1.9489   -5.6284 C   0  0  0  0  0  0  0  0  0  0  0  0
  -27.5696   -3.5019   -7.9478 C   0  0  0  0  0  0  0  0  0  0  0  0
  -27.0791   -2.4124   -8.1915 O   0  0  0  0  0  0  0  0  0  0  0  0
  -27.5661   -4.5357   -8.8820 N   0  0  0  0  0  0  0  0  0  0  0  0
  -28.1405   -5.7845   -8.4533 C   0  0  0  0  0  0  0  0  0  0  0  0
  -27.1610   -4.3821   -9.7920 H   0  0  0  0  0  0  0  0  0  0  0  0
  -28.1148  -10.7613   -7.3421 C   0  0  0  0  0  0  0  0  0  0  0  0
  -27.5280  -11.7105   -6.8157 O   0  0  0  0  0  0  0  0  0  0  0  0
  -28.1873  -10.6189   -8.7856 C   0  0  0  0  0  0  0  0  0  0  0  0
  -26.7994  -10.3083   -9.7410 S   0  0  0  0  0  0  0  0  0  0  0  0
  -27.6890  -10.3747  -11.1920 C   0  0  0  0  0  0  0  0  0  0  0  0
  -29.0137  -10.6725  -10.9703 C   0  0  0  0  0  0  0  0  0  0  0  0
  -29.2991  -10.8275   -9.5872 C   0  0  0  0  0  0  0  0  0  0  0  0
  -30.8841  -11.2336   -9.0701 Cl  0  0  0  0  0  0  0  0  0  0  0  0
  -30.0233   -6.2710   -2.6571 C   0  0  0  0  0  0  0  0  0  0  0  0
  -32.4507   -5.5236   -3.2216 C   0  0  0  0  0  0  0  0  0  0  0  0
  -31.3868   -5.7305   -2.1438 C   0  0  0  0  0  0  0  0  0  0  0  0
  -31.9686   -6.5674   -1.0038 C   0  0  0  0  0  0  0  0  0  0  0  0
 36 37  1  0  0  0
 37 38  1  0  0  0
 37 35  1  0  0  0
 35  1  1  0  0  0
  1  2  1  0  0  0
  1 13  1  0  0  0
  2  3  1  0  0  0
  2  7  2  0  0  0
  3  4  2  0  0  0
  4  5  1  0  0  0
  5 27  1  0  0  0
  5  6  2  0  0  0
 27 28  2  0  0  0
 27 29  1  0  0  0
 29 30  1  0  0  0
 29 33  2  0  0  0
 30 31  1  0  0  0
 31 32  2  0  0  0
 32 33  1  0  0  0
 33 34  1  0  0  0
  6  7  1  0  0  0
  7  8  1  0  0  0
  8  9  1  0  0  0
  8 13  2  0  0  0
  9 10  2  0  0  0
  9 25  1  0  0  0
 10 11  1  0  0  0
 10 22  1  0  0  0
 11 12  2  0  0  0
 11 21  1  0  0  0
 12 13  1  0  0  0
 12 14  1  0  0  0
 14 15  1  0  0  0
 15 16  1  0  0  0
 16 17  2  0  0  0
 16 21  1  0  0  0
 17 18  1  0  0  0
 18 19  1  0  0  0
 18 20  1  0  0  0
 20 21  2  0  0  0
 22 23  2  0  0  0
 22 24  1  0  0  0
 24 25  1  0  0  0
 24 26  1  0  0  0
M  END
> <minimizedAffinity>
-4.04926

$$$$
