CHEMBL3939332


 37 41  0  0  0  0  0  0  0  0999 V2000
  -15.2378    3.0255  -16.1829 N   0  0  0  0  0  0  0  0  0  0  0  0
  -14.7068    1.9226  -15.3808 C   0  0  0  0  0  0  0  0  0  0  0  0
  -13.5517    1.3616  -15.9027 C   0  0  0  0  0  0  0  0  0  0  0  0
  -13.2709    0.0206  -15.6742 C   0  0  0  0  0  0  0  0  0  0  0  0
  -13.9923   -0.7350  -14.7946 C   0  0  0  0  0  0  0  0  0  0  0  0
  -13.6966   -2.0362  -14.8432 N   0  0  0  0  0  0  0  0  0  0  0  0
  -14.1386   -2.7874  -13.8402 C   0  0  0  0  0  0  0  0  0  0  0  0
  -14.7756   -2.2411  -12.7495 C   0  0  0  0  0  0  0  0  0  0  0  0
  -15.2134   -0.9232  -12.7670 N   0  0  0  0  0  0  0  0  0  0  0  0
  -14.8751   -0.1257  -13.8718 C   0  0  0  0  0  0  0  0  0  0  0  0
  -15.2979    1.2320  -14.2741 C   0  0  0  0  0  0  0  0  0  0  0  0
  -14.7533   -3.0710  -11.5409 C   0  0  0  0  0  0  0  0  0  0  0  0
  -15.7284   -3.1964  -10.5127 C   0  0  0  0  0  0  0  0  0  0  0  0
  -15.2685   -3.8269   -9.4226 N   0  0  0  0  0  0  0  0  0  0  0  0
  -13.9912   -4.0986   -9.7353 N   0  0  0  0  0  0  0  0  0  0  0  0
  -13.2155   -5.0135   -8.9288 C   0  0  0  0  0  0  0  0  0  0  0  0
  -13.5982   -3.5188  -10.9126 C   0  0  0  0  0  0  0  0  0  0  0  0
  -14.4882    5.5744  -18.8433 C   0  0  0  0  0  0  0  0  0  0  0  0
  -13.4198    6.2623  -18.2691 C   0  0  0  0  0  0  0  0  0  0  0  0
  -12.8936    5.8385  -17.0528 C   0  0  0  0  0  0  0  0  0  0  0  0
  -13.4465    4.7247  -16.4043 C   0  0  0  0  0  0  0  0  0  0  0  0
  -14.5331    4.0078  -16.9327 C   0  0  0  0  0  0  0  0  0  0  0  0
  -15.0260    4.4455  -18.1841 C   0  0  0  0  0  0  0  0  0  0  0  0
  -15.1062    7.3503  -20.3268 C   0  0  0  0  0  0  0  0  0  0  0  0
  -15.0925    5.9515  -20.0216 O   0  0  0  0  0  0  0  0  0  0  0  0
  -11.8670    6.4495  -16.3814 O   0  0  0  0  0  0  0  0  0  0  0  0
  -12.0893    7.7861  -15.9427 C   0  0  0  0  0  0  0  0  0  0  0  0
  -16.4941    3.5148  -15.4689 C   0  0  0  0  0  0  0  0  0  0  0  0
  -17.8935    3.0977  -15.9780 C   0  0  0  0  0  0  0  0  0  0  0  0
  -18.4601    1.7413  -15.5239 C   0  0  0  0  0  0  0  0  0  0  0  0
  -19.8669    1.8966  -14.9512 C   0  0  0  0  0  0  0  0  0  0  0  0
  -20.6435    0.7672  -14.6771 C   0  0  0  0  0  0  0  0  0  0  0  0
  -21.9433    0.9216  -14.1794 C   0  0  0  0  0  0  0  0  0  0  0  0
  -22.8068   -0.2715  -13.8770 C   0  0  0  0  0  0  0  0  0  0  0  0
  -22.4286    2.2093  -13.9600 C   0  0  0  0  0  0  0  0  0  0  0  0
  -21.5983    3.2820  -14.2581 C   0  0  0  0  0  0  0  0  0  0  0  0
  -20.3398    3.1508  -14.7534 N   0  0  0  0  0  0  0  0  0  0  0  0
 24 25  1  0  0  0
 25 18  1  0  0  0
 18 19  1  0  0  0
 18 23  2  0  0  0
 19 20  2  0  0  0
 20 26  1  0  0  0
 20 21  1  0  0  0
 26 27  1  0  0  0
 21 22  2  0  0  0
 22  1  1  0  0  0
 22 23  1  0  0  0
  1 28  1  0  0  0
  1  2  1  0  0  0
 28 29  1  0  0  0
 29 30  1  0  0  0
 30 31  1  0  0  0
 31 32  1  0  0  0
 31 37  2  0  0  0
 32 33  2  0  0  0
 33 34  1  0  0  0
 33 35  1  0  0  0
 35 36  2  0  0  0
 36 37  1  0  0  0
  2  3  1  0  0  0
  2 11  2  0  0  0
  3  4  2  0  0  0
  4  5  1  0  0  0
  5  6  1  0  0  0
  5 10  2  0  0  0
  6  7  2  0  0  0
  7  8  1  0  0  0
  8 12  1  0  0  0
  8  9  2  0  0  0
 12 13  1  0  0  0
 12 17  2  0  0  0
 13 14  2  0  0  0
 14 15  1  0  0  0
 15 16  1  0  0  0
 15 17  1  0  0  0
  9 10  1  0  0  0
 10 11  1  0  0  0
M  END
> <minimizedAffinity>
-8.69509

$$$$
