CHEMBL2180605


 36 40  0  0  0  0  0  0  0  0999 V2000
  -28.7459   -9.4976   -8.8763 C   0  0  0  0  0  0  0  0  0  0  0  0
  -28.7939   -9.6902  -10.2710 C   0  0  0  0  0  0  0  0  0  0  0  0
  -27.7271  -10.2891  -10.9308 C   0  0  0  0  0  0  0  0  0  0  0  0
  -26.6364  -10.6955  -10.2337 N   0  0  0  0  0  0  0  0  0  0  0  0
  -26.5543  -10.5404   -8.8849 C   0  0  0  0  0  0  0  0  0  0  0  0
  -25.3984  -10.9361   -8.2193 C   0  0  0  0  0  0  0  0  0  0  0  0
  -25.2467  -10.7634   -6.8281 C   0  0  0  0  0  0  0  0  0  0  0  0
  -26.3415  -10.1953   -6.0934 C   0  0  0  0  0  0  0  0  0  0  0  0
  -27.4978   -9.7980   -6.7870 C   0  0  0  0  0  0  0  0  0  0  0  0
  -27.6109   -9.9446   -8.1683 C   0  0  0  0  0  0  0  0  0  0  0  0
  -26.3962   -9.9728   -4.7521 O   0  0  0  0  0  0  0  0  0  0  0  0
  -25.9538   -8.9349   -3.9680 C   0  0  0  0  0  0  0  0  0  0  0  0
  -29.7738   -8.8857   -8.2203 O   0  0  0  0  0  0  0  0  0  0  0  0
  -29.4400   -4.0173   -5.3915 C   0  0  0  0  0  0  0  0  0  0  0  0
  -30.2965   -3.8649   -4.2790 C   0  0  0  0  0  0  0  0  0  0  0  0
  -31.1886   -4.8662   -3.9021 C   0  0  0  0  0  0  0  0  0  0  0  0
  -31.2545   -6.0559   -4.6159 C   0  0  0  0  0  0  0  0  0  0  0  0
  -30.4192   -6.2641   -5.7200 C   0  0  0  0  0  0  0  0  0  0  0  0
  -30.4959   -7.4799   -6.4276 C   0  0  0  0  0  0  0  0  0  0  0  0
  -29.6739   -7.7128   -7.5340 C   0  0  0  0  0  0  0  0  0  0  0  0
  -28.7421   -6.7322   -7.9038 C   0  0  0  0  0  0  0  0  0  0  0  0
  -28.6554   -5.5289   -7.2183 C   0  0  0  0  0  0  0  0  0  0  0  0
  -29.4989   -5.2496   -6.1216 C   0  0  0  0  0  0  0  0  0  0  0  0
  -27.8851   -1.0016   -7.2156 C   0  0  0  0  0  0  0  0  0  0  0  0
  -28.7650   -2.0951   -6.8610 N   0  0  0  0  0  0  0  0  0  0  0  0
  -28.5314   -2.8698   -5.7613 C   0  0  0  0  0  0  0  0  0  0  0  0
  -27.5549   -2.6215   -5.0693 O   0  0  0  0  0  0  0  0  0  0  0  0
  -29.5969   -2.2464   -7.4460 H   0  0  0  0  0  0  0  0  0  0  0  0
  -24.0688  -11.1226   -6.2192 O   0  0  0  0  0  0  0  0  0  0  0  0
  -22.9848  -10.2729   -5.9784 C   0  0  0  0  0  0  0  0  0  0  0  0
  -21.7720  -10.6586   -6.8563 C   0  0  0  0  0  0  0  0  0  0  0  0
  -20.7398   -9.6299   -7.0108 N   0  0  0  0  0  0  0  0  0  0  0  0
  -21.7737  -11.8368   -7.8261 C   0  0  0  0  0  0  0  0  0  0  0  0
  -21.1220  -11.9789   -6.4453 C   0  0  0  0  0  0  0  0  0  0  0  0
  -21.1935   -8.7363   -7.2981 H   0  0  0  0  0  0  0  0  0  0  0  0
  -20.0431   -9.8857   -7.7472 H   0  0  0  0  0  0  0  0  0  0  0  0
 24 25  1  0  0  0
 25 26  1  0  0  0
 25 28  1  0  0  0
 26 27  2  0  0  0
 26 14  1  0  0  0
 14 15  1  0  0  0
 14 23  2  0  0  0
 15 16  2  0  0  0
 16 17  1  0  0  0
 17 18  2  0  0  0
 18 19  1  0  0  0
 18 23  1  0  0  0
 19 20  2  0  0  0
 20 13  1  0  0  0
 20 21  1  0  0  0
 13  1  1  0  0  0
  1  2  1  0  0  0
  1 10  2  0  0  0
  2  3  2  0  0  0
  3  4  1  0  0  0
  4  5  2  0  0  0
  5  6  1  0  0  0
  5 10  1  0  0  0
  6  7  2  0  0  0
  7 29  1  0  0  0
  7  8  1  0  0  0
 29 30  1  0  0  0
 30 31  1  0  0  0
 31 32  1  0  0  0
 31 33  1  0  0  0
 31 34  1  0  0  0
 32 35  1  0  0  0
 32 36  1  0  0  0
 33 34  1  0  0  0
  8 11  1  0  0  0
  8  9  2  0  0  0
 11 12  1  0  0  0
  9 10  1  0  0  0
 21 22  2  0  0  0
 22 23  1  0  0  0
M  END
> <minimizedAffinity>
-9.26543

$$$$
