CHEMBL4790511


 34 37  0  0  0  0  0  0  0  0999 V2000
  -28.7848   -7.0474   -5.0550 C   0  0  0  0  0  0  0  0  0  0  0  0
  -28.9831   -7.6347   -3.8034 C   0  0  0  0  0  0  0  0  0  0  0  0
  -28.6618   -8.9736   -3.5462 C   0  0  0  0  0  0  0  0  0  0  0  0
  -28.1807   -9.8034   -4.5496 C   0  0  0  0  0  0  0  0  0  0  0  0
  -28.0425   -9.2276   -5.8300 C   0  0  0  0  0  0  0  0  0  0  0  0
  -28.3586   -7.8727   -6.0924 C   0  0  0  0  0  0  0  0  0  0  0  0
  -28.1436   -4.6855   -4.7011 C   0  0  0  0  0  0  0  0  0  0  0  0
  -27.1380   -4.9002   -4.0446 O   0  0  0  0  0  0  0  0  0  0  0  0
  -28.9792   -5.6478   -5.2646 N   0  0  0  0  0  0  0  0  0  0  0  0
  -29.6984   -5.3674   -5.9197 H   0  0  0  0  0  0  0  0  0  0  0  0
  -28.9148   -0.4869   -5.2180 C   0  0  0  0  0  0  0  0  0  0  0  0
  -29.9938   -1.3724   -5.0541 C   0  0  0  0  0  0  0  0  0  0  0  0
  -29.7846   -2.7486   -4.8857 C   0  0  0  0  0  0  0  0  0  0  0  0
  -28.4842   -3.2447   -4.8847 C   0  0  0  0  0  0  0  0  0  0  0  0
  -27.4062   -2.3735   -5.1067 C   0  0  0  0  0  0  0  0  0  0  0  0
  -27.6172   -1.0045   -5.2556 C   0  0  0  0  0  0  0  0  0  0  0  0
  -30.5153    1.3431   -5.8866 C   0  0  0  0  0  0  0  0  0  0  0  0
  -29.1411    1.0008   -5.3267 C   0  0  0  0  0  0  0  0  0  0  0  0
  -27.7091  -11.1154   -4.3334 N   0  0  0  0  0  0  0  0  0  0  0  0
  -28.4693  -11.7506   -4.1393 H   0  0  0  0  0  0  0  0  0  0  0  0
  -26.4638  -11.6387   -3.8802 C   0  0  0  0  0  0  0  0  0  0  0  0
  -26.2206  -11.7494   -2.5552 N   0  0  0  0  0  0  0  0  0  0  0  0
  -24.9923  -12.1489   -2.1812 C   0  0  0  0  0  0  0  0  0  0  0  0
  -23.9917  -12.4658   -2.9899 N   0  0  0  0  0  0  0  0  0  0  0  0
  -24.2170  -12.2850   -4.2839 C   0  0  0  0  0  0  0  0  0  0  0  0
  -23.1106  -12.4206   -5.0805 C   0  0  0  0  0  0  0  0  0  0  0  0
  -23.1206  -12.1337   -6.4475 C   0  0  0  0  0  0  0  0  0  0  0  0
  -24.3442  -11.8042   -7.0473 C   0  0  0  0  0  0  0  0  0  0  0  0
  -25.4942  -11.7024   -6.2403 C   0  0  0  0  0  0  0  0  0  0  0  0
  -25.4391  -11.8817   -4.8291 C   0  0  0  0  0  0  0  0  0  0  0  0
  -21.9659  -12.1442   -7.1851 O   0  0  0  0  0  0  0  0  0  0  0  0
  -21.2267  -10.9263   -7.2579 C   0  0  0  0  0  0  0  0  0  0  0  0
  -24.5912  -11.5101   -8.3629 O   0  0  0  0  0  0  0  0  0  0  0  0
  -25.9481  -11.4967   -8.7940 C   0  0  0  0  0  0  0  0  0  0  0  0
 17 18  1  0  0  0
 18 11  1  0  0  0
 11 12  1  0  0  0
 11 16  2  0  0  0
 12 13  2  0  0  0
 13 14  1  0  0  0
 14  7  1  0  0  0
 14 15  2  0  0  0
  7  8  2  0  0  0
  7  9  1  0  0  0
  9  1  1  0  0  0
  9 10  1  0  0  0
  1  2  1  0  0  0
  1  6  2  0  0  0
  2  3  2  0  0  0
  3  4  1  0  0  0
  4 19  1  0  0  0
  4  5  2  0  0  0
 19 21  1  0  0  0
 19 20  1  0  0  0
 21 22  1  0  0  0
 21 30  2  0  0  0
 22 23  2  0  0  0
 23 24  1  0  0  0
 24 25  2  0  0  0
 25 26  1  0  0  0
 25 30  1  0  0  0
 26 27  2  0  0  0
 27 31  1  0  0  0
 27 28  1  0  0  0
 31 32  1  0  0  0
 28 33  1  0  0  0
 28 29  2  0  0  0
 33 34  1  0  0  0
 29 30  1  0  0  0
  5  6  1  0  0  0
 15 16  1  0  0  0
M  END
> <minimizedAffinity>
-7.92742

$$$$
