CHEMBL231415


 30 33  0  0  0  0  0  0  0  0999 V2000
  -29.6177   -7.8434   -7.0835 C   0  0  0  0  0  0  0  0  0  0  0  0
  -28.6918   -7.7570   -6.0398 C   0  0  0  0  0  0  0  0  0  0  0  0
  -28.6515   -6.6450   -5.2013 C   0  0  0  0  0  0  0  0  0  0  0  0
  -29.5038   -5.5591   -5.3981 C   0  0  0  0  0  0  0  0  0  0  0  0
  -30.4300   -5.6289   -6.4432 C   0  0  0  0  0  0  0  0  0  0  0  0
  -30.5103   -6.7788   -7.2522 C   0  0  0  0  0  0  0  0  0  0  0  0
  -27.0280   -7.5757   -9.2149 N   0  0  0  0  0  0  0  0  0  0  0  0
  -27.5761   -8.7887   -9.6163 C   0  0  0  0  0  0  0  0  0  0  0  0
  -26.9155   -9.3774  -10.6383 N   0  0  0  0  0  0  0  0  0  0  0  0
  -27.3022  -10.5797  -11.0902 C   0  0  0  0  0  0  0  0  0  0  0  0
  -28.3563  -11.2938  -10.5735 C   0  0  0  0  0  0  0  0  0  0  0  0
  -29.0579  -10.6822   -9.5300 C   0  0  0  0  0  0  0  0  0  0  0  0
  -30.4083  -11.3667   -8.7211 S   0  0  0  0  0  0  0  0  0  0  0  0
  -30.5712  -10.0134   -7.7180 C   0  0  0  0  0  0  0  0  0  0  0  0
  -29.6157   -9.0359   -7.9431 C   0  0  0  0  0  0  0  0  0  0  0  0
  -28.7070   -9.4197   -9.0253 C   0  0  0  0  0  0  0  0  0  0  0  0
  -26.1173   -7.4755   -9.6514 H   0  0  0  0  0  0  0  0  0  0  0  0
  -27.0345   -7.4519   -8.2104 H   0  0  0  0  0  0  0  0  0  0  0  0
  -29.4486   -4.3955   -4.6013 N   0  0  0  0  0  0  0  0  0  0  0  0
  -29.2616   -3.1116   -5.0695 C   0  0  0  0  0  0  0  0  0  0  0  0
  -29.0237   -2.7846   -6.2303 O   0  0  0  0  0  0  0  0  0  0  0  0
  -29.4224   -2.1574   -4.0924 N   0  0  0  0  0  0  0  0  0  0  0  0
  -29.5828   -4.5065   -3.6072 H   0  0  0  0  0  0  0  0  0  0  0  0
  -29.1882   -2.4182   -3.1448 H   0  0  0  0  0  0  0  0  0  0  0  0
  -29.2994   -0.7471   -4.4549 C   0  0  0  0  0  0  0  0  0  0  0  0
  -30.4074   -0.3334   -5.4330 C   0  0  0  0  0  0  0  0  0  0  0  0
  -30.2243    1.0962   -5.9389 C   0  0  0  0  0  0  0  0  0  0  0  0
  -28.8288    1.3061   -6.5134 C   0  0  0  0  0  0  0  0  0  0  0  0
  -27.7578    0.9772   -5.4792 C   0  0  0  0  0  0  0  0  0  0  0  0
  -27.8940   -0.4585   -4.9826 C   0  0  0  0  0  0  0  0  0  0  0  0
  7  8  1  0  0  0
  7 17  1  0  0  0
  7 18  1  0  0  0
  8  9  1  0  0  0
  8 16  2  0  0  0
  9 10  2  0  0  0
 10 11  1  0  0  0
 11 12  2  0  0  0
 12 13  1  0  0  0
 12 16  1  0  0  0
 13 14  1  0  0  0
 14 15  2  0  0  0
 15  1  1  0  0  0
 15 16  1  0  0  0
  1  2  1  0  0  0
  1  6  2  0  0  0
  2  3  2  0  0  0
  3  4  1  0  0  0
  4 19  1  0  0  0
  4  5  2  0  0  0
 19 20  1  0  0  0
 19 23  1  0  0  0
 20 21  2  0  0  0
 20 22  1  0  0  0
 22 25  1  0  0  0
 22 24  1  0  0  0
 25 26  1  0  0  0
 25 30  1  0  0  0
 26 27  1  0  0  0
 27 28  1  0  0  0
 28 29  1  0  0  0
 29 30  1  0  0  0
  5  6  1  0  0  0
M  END
> <minimizedAffinity>
-8.58452

$$$$
