CHEMBL577742


 43 47  0  0  0  0  0  0  0  0999 V2000
  -29.6588   -7.0202   -5.7742 C   0  0  0  0  0  0  0  0  0  0  0  0
  -29.0919   -6.0504   -4.8588 C   0  0  0  0  0  0  0  0  0  0  0  0
  -28.6371   -4.7199   -5.3018 C   0  0  0  0  0  0  0  0  0  0  0  0
  -29.0997   -4.1807   -6.5010 C   0  0  0  0  0  0  0  0  0  0  0  0
  -29.9922   -5.0319   -7.1722 C   0  0  0  0  0  0  0  0  0  0  0  0
  -30.2465   -6.3916   -6.8513 C   0  0  0  0  0  0  0  0  0  0  0  0
  -31.0776   -7.0658   -7.6515 F   0  0  0  0  0  0  0  0  0  0  0  0
  -28.7301   -2.8624   -7.0266 N   0  0  0  0  0  0  0  0  0  0  0  0
  -27.9137   -2.6977   -8.1543 C   0  0  0  0  0  0  0  0  0  0  0  0
  -27.4632   -3.6761   -8.7525 O   0  0  0  0  0  0  0  0  0  0  0  0
  -29.1064   -2.0285   -6.5662 H   0  0  0  0  0  0  0  0  0  0  0  0
  -27.5529   -1.2957   -8.7012 C   0  0  0  0  0  0  0  0  0  0  0  0
  -27.3593   -1.3081  -10.2389 C   0  0  0  0  0  0  0  0  0  0  0  0
  -28.2377   -0.9125  -11.0133 O   0  0  0  0  0  0  0  0  0  0  0  0
  -26.1576   -1.7657  -10.7780 N   0  0  0  0  0  0  0  0  0  0  0  0
  -25.5202   -2.3218  -10.2156 H   0  0  0  0  0  0  0  0  0  0  0  0
  -25.9833   -1.7677  -12.2040 C   0  0  0  0  0  0  0  0  0  0  0  0
  -27.0628   -2.0832  -13.0399 C   0  0  0  0  0  0  0  0  0  0  0  0
  -27.0256   -1.7051  -14.3903 C   0  0  0  0  0  0  0  0  0  0  0  0
  -25.8102   -1.4394  -15.0054 C   0  0  0  0  0  0  0  0  0  0  0  0
  -24.6754   -1.3367  -14.2149 C   0  0  0  0  0  0  0  0  0  0  0  0
  -24.7747   -1.3746  -12.8062 C   0  0  0  0  0  0  0  0  0  0  0  0
  -23.5439   -1.0183  -12.0140 C   0  0  0  0  0  0  0  0  0  0  0  0
  -22.4467   -0.9299  -12.8164 F   0  0  0  0  0  0  0  0  0  0  0  0
  -23.6553    0.1921  -11.4022 F   0  0  0  0  0  0  0  0  0  0  0  0
  -23.1596   -1.9144  -11.0566 F   0  0  0  0  0  0  0  0  0  0  0  0
  -29.6813   -8.4188   -5.7728 O   0  0  0  0  0  0  0  0  0  0  0  0
  -26.0832  -10.6589   -6.2104 C   0  0  0  0  0  0  0  0  0  0  0  0
  -26.6944  -11.4744   -7.0908 C   0  0  0  0  0  0  0  0  0  0  0  0
  -27.9544  -11.0575   -7.0532 C   0  0  0  0  0  0  0  0  0  0  0  0
  -28.9476  -11.5652   -7.6040 N   0  0  0  0  0  0  0  0  0  0  0  0
  -29.8476  -12.0675   -8.1500 C   0  0  0  0  0  0  0  0  0  0  0  0
  -30.4203  -10.9525   -7.4269 C   0  0  0  0  0  0  0  0  0  0  0  0
  -29.7340   -9.6363   -6.4396 C   0  0  0  0  0  0  0  0  0  0  0  0
  -28.4162  -10.0037   -6.3463 C   0  0  0  0  0  0  0  0  0  0  0  0
  -27.0574   -9.4533   -5.4853 S   0  0  0  0  0  0  0  0  0  0  0  0
  -22.8715  -11.1482   -4.8712 N   0  0  0  0  0  0  0  0  0  0  0  0
  -22.6148  -11.0649   -6.2080 C   0  0  0  0  0  0  0  0  0  0  0  0
  -23.7219  -10.9458   -6.8985 N   0  0  0  0  0  0  0  0  0  0  0  0
  -24.6891  -10.8819   -5.9437 C   0  0  0  0  0  0  0  0  0  0  0  0
  -24.1979  -10.9788   -4.6751 C   0  0  0  0  0  0  0  0  0  0  0  0
  -22.6226  -11.4631   -2.4886 C   0  0  0  0  0  0  0  0  0  0  0  0
  -21.9296  -11.4709   -3.8326 C   0  0  0  0  0  0  0  0  0  0  0  0
 42 43  1  0  0  0
 43 37  1  0  0  0
 37 38  1  0  0  0
 37 41  1  0  0  0
 38 39  2  0  0  0
 39 40  1  0  0  0
 40 28  1  0  0  0
 40 41  2  0  0  0
 28 29  2  0  0  0
 28 36  1  0  0  0
 29 30  1  0  0  0
 30 31  1  0  0  0
 30 35  2  0  0  0
 31 32  2  0  0  0
 32 33  1  0  0  0
 33 34  2  0  0  0
 34 27  1  0  0  0
 34 35  1  0  0  0
 27  1  1  0  0  0
  1  2  1  0  0  0
  1  6  2  0  0  0
  2  3  2  0  0  0
  3  4  1  0  0  0
  4  8  1  0  0  0
  4  5  2  0  0  0
  8  9  1  0  0  0
  8 11  1  0  0  0
  9 10  2  0  0  0
  9 12  1  0  0  0
 12 13  1  0  0  0
 13 14  2  0  0  0
 13 15  1  0  0  0
 15 17  1  0  0  0
 15 16  1  0  0  0
 17 18  1  0  0  0
 17 22  2  0  0  0
 18 19  2  0  0  0
 19 20  1  0  0  0
 20 21  2  0  0  0
 21 22  1  0  0  0
 22 23  1  0  0  0
 23 24  1  0  0  0
 23 25  1  0  0  0
 23 26  1  0  0  0
  5  6  1  0  0  0
  6  7  1  0  0  0
 35 36  1  0  0  0
M  END
> <minimizedAffinity>
-10.09472

$$$$
