CHEMBL225311


 39 44  0  0  0  0  0  0  0  0999 V2000
  -29.0134   -9.6089   -5.3901 C   0  0  0  0  0  0  0  0  0  0  0  0
  -29.0580   -9.3653   -3.9907 C   0  0  0  0  0  0  0  0  0  0  0  0
  -29.0571   -8.0761   -3.4584 C   0  0  0  0  0  0  0  0  0  0  0  0
  -28.9171   -7.0457   -4.3462 C   0  0  0  0  0  0  0  0  0  0  0  0
  -28.7792   -7.2441   -5.7470 C   0  0  0  0  0  0  0  0  0  0  0  0
  -28.8529   -8.5258   -6.2766 C   0  0  0  0  0  0  0  0  0  0  0  0
  -28.5322   -5.9308   -6.5155 C   0  0  0  0  0  0  0  0  0  0  0  0
  -28.6015   -5.0095   -5.3437 C   0  0  0  0  0  0  0  0  0  0  0  0
  -28.4889   -3.6615   -4.9957 C   0  0  0  0  0  0  0  0  0  0  0  0
  -28.6120   -3.4794   -3.6634 N   0  0  0  0  0  0  0  0  0  0  0  0
  -28.8485   -4.7255   -3.1783 N   0  0  0  0  0  0  0  0  0  0  0  0
  -28.8189   -5.6470   -4.1565 C   0  0  0  0  0  0  0  0  0  0  0  0
  -29.0140   -4.8417   -2.1832 H   0  0  0  0  0  0  0  0  0  0  0  0
  -28.2518   -2.5783   -5.9384 C   0  0  0  0  0  0  0  0  0  0  0  0
  -28.3385   -1.2374   -5.6337 C   0  0  0  0  0  0  0  0  0  0  0  0
  -28.0320   -0.2545   -6.9963 S   0  0  0  0  0  0  0  0  0  0  0  0
  -27.7913   -1.6154   -7.9983 C   0  0  0  0  0  0  0  0  0  0  0  0
  -27.9138   -2.7998   -7.3069 C   0  0  0  0  0  0  0  0  0  0  0  0
  -27.5012   -1.5070   -9.3854 C   0  0  0  0  0  0  0  0  0  0  0  0
  -27.2345   -1.4590  -10.6609 C   0  0  0  0  0  0  0  0  0  0  0  0
  -26.9237   -1.4031  -12.1476 C   0  0  0  0  0  0  0  0  0  0  0  0
  -25.7586   -0.5808  -12.3866 N   0  0  0  0  0  0  0  0  0  0  0  0
  -24.8338   -0.9680  -13.3451 C   0  0  0  0  0  0  0  0  0  0  0  0
  -24.9277   -1.9939  -13.9935 O   0  0  0  0  0  0  0  0  0  0  0  0
  -25.7753    0.3744  -12.0607 H   0  0  0  0  0  0  0  0  0  0  0  0
  -23.6944   -0.0372  -13.5848 C   0  0  0  0  0  0  0  0  0  0  0  0
  -23.7970    1.3398  -13.3596 C   0  0  0  0  0  0  0  0  0  0  0  0
  -22.7059    2.1738  -13.6216 C   0  0  0  0  0  0  0  0  0  0  0  0
  -21.5081    1.6344  -14.0935 C   0  0  0  0  0  0  0  0  0  0  0  0
  -21.3875    0.2590  -14.2825 C   0  0  0  0  0  0  0  0  0  0  0  0
  -22.4762   -0.5772  -14.0209 C   0  0  0  0  0  0  0  0  0  0  0  0
  -29.1228  -11.0348   -5.9136 C   0  0  0  0  0  0  0  0  0  0  0  0
  -29.0798  -10.6937  -10.7221 C   0  0  0  0  0  0  0  0  0  0  0  0
  -29.9080  -11.0065   -9.5632 N   0  0  0  0  0  0  0  0  0  0  0  0
  -29.3559  -12.1380   -8.8020 C   0  0  0  0  0  0  0  0  0  0  0  0
  -30.2692  -12.4651   -7.5993 C   0  0  0  0  0  0  0  0  0  0  0  0
  -30.3805  -11.3595   -6.6210 N   0  0  0  0  0  0  0  0  0  0  0  0
  -30.8740  -10.1780   -7.3801 C   0  0  0  0  0  0  0  0  0  0  0  0
  -30.0779   -9.8395   -8.6753 C   0  0  0  0  0  0  0  0  0  0  0  0
 33 34  1  0  0  0
 34 35  1  0  0  0
 34 39  1  0  0  0
 35 36  1  0  0  0
 36 37  1  0  0  0
 37 32  1  0  0  0
 37 38  1  0  0  0
 32  1  1  0  0  0
  1  2  1  0  0  0
  1  6  2  0  0  0
  2  3  2  0  0  0
  3  4  1  0  0  0
  4  5  2  0  0  0
  4 12  1  0  0  0
  5  6  1  0  0  0
  5  7  1  0  0  0
  7  8  1  0  0  0
  8  9  1  0  0  0
  8 12  2  0  0  0
  9 14  1  0  0  0
  9 10  2  0  0  0
 14 15  2  0  0  0
 14 18  1  0  0  0
 15 16  1  0  0  0
 16 17  1  0  0  0
 17 19  1  0  0  0
 17 18  2  0  0  0
 19 20  3  0  0  0
 20 21  1  0  0  0
 21 22  1  0  0  0
 22 23  1  0  0  0
 22 25  1  0  0  0
 23 24  2  0  0  0
 23 26  1  0  0  0
 26 27  1  0  0  0
 26 31  2  0  0  0
 27 28  2  0  0  0
 28 29  1  0  0  0
 29 30  2  0  0  0
 30 31  1  0  0  0
 10 11  1  0  0  0
 11 12  1  0  0  0
 11 13  1  0  0  0
 38 39  1  0  0  0
M  END
> <minimizedAffinity>
-10.12229

$$$$
