CHEMBL3099476


 44 47  0  0  0  0  0  0  0  0999 V2000
  -30.2221   -5.4240   -7.3749 N   0  0  0  0  0  0  0  0  0  0  0  0
  -29.5604   -6.6400   -7.2937 C   0  0  0  0  0  0  0  0  0  0  0  0
  -28.3468   -6.7670   -7.1480 O   0  0  0  0  0  0  0  0  0  0  0  0
  -30.4566   -7.6942   -7.3928 N   0  0  0  0  0  0  0  0  0  0  0  0
  -31.1584   -5.4517   -6.9983 H   0  0  0  0  0  0  0  0  0  0  0  0
  -31.0406   -7.5893   -8.2149 H   0  0  0  0  0  0  0  0  0  0  0  0
  -30.0155   -9.0189   -7.1281 C   0  0  0  0  0  0  0  0  0  0  0  0
  -29.8519   -9.4007   -5.7908 C   0  0  0  0  0  0  0  0  0  0  0  0
  -29.5058  -10.7151   -5.4763 C   0  0  0  0  0  0  0  0  0  0  0  0
  -29.2560  -11.6276   -6.4985 C   0  0  0  0  0  0  0  0  0  0  0  0
  -29.3604  -11.2363   -7.8321 C   0  0  0  0  0  0  0  0  0  0  0  0
  -29.7323   -9.9257   -8.1684 C   0  0  0  0  0  0  0  0  0  0  0  0
  -29.6982   -9.5246   -9.6183 C   0  0  0  0  0  0  0  0  0  0  0  0
  -29.3671  -11.2156   -4.2107 O   0  0  0  0  0  0  0  0  0  0  0  0
  -28.1352  -10.9153   -3.5557 C   0  0  0  0  0  0  0  0  0  0  0  0
  -27.2292  -12.1399   -3.6697 C   0  0  0  0  0  0  0  0  0  0  0  0
  -25.9134  -11.7604   -4.3525 C   0  0  0  0  0  0  0  0  0  0  0  0
  -25.9655  -10.5220   -5.1465 N   0  0  0  0  0  0  0  0  0  0  0  0
  -25.7547  -10.7295   -6.5979 C   0  0  0  0  0  0  0  0  0  0  0  0
  -24.3230  -11.1602   -6.9555 C   0  0  0  0  0  0  0  0  0  0  0  0
  -23.3654  -10.1977   -6.4944 O   0  0  0  0  0  0  0  0  0  0  0  0
  -23.4881   -9.9759   -5.0841 C   0  0  0  0  0  0  0  0  0  0  0  0
  -24.9220   -9.5690   -4.6894 C   0  0  0  0  0  0  0  0  0  0  0  0
  -28.1472   -2.4440   -8.3630 C   0  0  0  0  0  0  0  0  0  0  0  0
  -28.7646   -3.7190   -8.3696 C   0  0  0  0  0  0  0  0  0  0  0  0
  -29.5353   -4.1914   -7.3063 C   0  0  0  0  0  0  0  0  0  0  0  0
  -29.6686   -3.4133   -6.1655 C   0  0  0  0  0  0  0  0  0  0  0  0
  -28.9713   -2.2033   -6.0582 C   0  0  0  0  0  0  0  0  0  0  0  0
  -28.2306   -1.6958   -7.1539 C   0  0  0  0  0  0  0  0  0  0  0  0
  -25.4168   -1.5625  -10.9213 C   0  0  0  0  0  0  0  0  0  0  0  0
  -26.0875   -2.0166   -9.7762 C   0  0  0  0  0  0  0  0  0  0  0  0
  -27.4977   -1.9635   -9.6302 C   0  0  0  0  0  0  0  0  0  0  0  0
  -28.2113   -1.4215  -10.7096 C   0  0  0  0  0  0  0  0  0  0  0  0
  -27.5626   -1.0202  -11.8874 C   0  0  0  0  0  0  0  0  0  0  0  0
  -26.1700   -1.1124  -12.0111 C   0  0  0  0  0  0  0  0  0  0  0  0
  -25.5672   -0.7474  -13.3235 C   0  0  0  0  0  0  0  0  0  0  0  0
  -25.9660   -1.4945  -14.5761 C   0  0  0  0  0  0  0  0  0  0  0  0
  -24.8027    0.2177  -13.3892 O   0  0  0  0  0  0  0  0  0  0  0  0
  -23.3696   -2.3270  -11.8819 C   0  0  0  0  0  0  0  0  0  0  0  0
  -24.0544   -1.4432  -11.0040 O   0  0  0  0  0  0  0  0  0  0  0  0
  -29.1079   -1.4569   -4.9123 O   0  0  0  0  0  0  0  0  0  0  0  0
  -29.3011   -2.2378   -3.7317 C   0  0  0  0  0  0  0  0  0  0  0  0
  -27.6330   -0.4553   -7.1562 O   0  0  0  0  0  0  0  0  0  0  0  0
  -28.4615    0.6719   -6.8813 C   0  0  0  0  0  0  0  0  0  0  0  0
 39 40  1  0  0  0
 40 30  1  0  0  0
 30 31  1  0  0  0
 30 35  2  0  0  0
 31 32  2  0  0  0
 32 24  1  0  0  0
 32 33  1  0  0  0
 24 25  1  0  0  0
 24 29  2  0  0  0
 25 26  2  0  0  0
 26  1  1  0  0  0
 26 27  1  0  0  0
  1  2  1  0  0  0
  1  5  1  0  0  0
  2  3  2  0  0  0
  2  4  1  0  0  0
  4  7  1  0  0  0
  4  6  1  0  0  0
  7  8  1  0  0  0
  7 12  2  0  0  0
  8  9  2  0  0  0
  9 14  1  0  0  0
  9 10  1  0  0  0
 14 15  1  0  0  0
 15 16  1  0  0  0
 16 17  1  0  0  0
 17 18  1  0  0  0
 18 19  1  0  0  0
 18 23  1  0  0  0
 19 20  1  0  0  0
 20 21  1  0  0  0
 21 22  1  0  0  0
 22 23  1  0  0  0
 10 11  2  0  0  0
 11 12  1  0  0  0
 12 13  1  0  0  0
 27 28  2  0  0  0
 28 41  1  0  0  0
 28 29  1  0  0  0
 41 42  1  0  0  0
 29 43  1  0  0  0
 43 44  1  0  0  0
 33 34  2  0  0  0
 34 35  1  0  0  0
 35 36  1  0  0  0
 36 37  1  0  0  0
 36 38  2  0  0  0
M  END
> <minimizedAffinity>
-7.29739

$$$$
