CHEMBL3775903


 25 27  0  0  0  0  0  0  0  0999 V2000
  -14.8659   -6.9700  -12.8432 C   0  0  0  0  0  0  0  0  0  0  0  0
  -14.8319   -6.2990  -11.6066 C   0  0  0  0  0  0  0  0  0  0  0  0
  -15.0844   -4.9417  -11.4892 C   0  0  0  0  0  0  0  0  0  0  0  0
  -15.1159   -4.3985  -10.2697 N   0  0  0  0  0  0  0  0  0  0  0  0
  -15.4180   -3.0985  -10.2020 C   0  0  0  0  0  0  0  0  0  0  0  0
  -15.6900   -2.3017  -11.2387 N   0  0  0  0  0  0  0  0  0  0  0  0
  -15.6502   -2.8604  -12.4630 C   0  0  0  0  0  0  0  0  0  0  0  0
  -15.3163   -4.2065  -12.6498 C   0  0  0  0  0  0  0  0  0  0  0  0
  -15.2116   -4.8451  -13.9065 C   0  0  0  0  0  0  0  0  0  0  0  0
  -14.9972   -6.2221  -14.0168 C   0  0  0  0  0  0  0  0  0  0  0  0
  -13.6735   -8.8957  -12.1602 C   0  0  0  0  0  0  0  0  0  0  0  0
  -14.7589   -8.3345  -12.9057 O   0  0  0  0  0  0  0  0  0  0  0  0
  -16.0068   -2.0704  -13.5913 N   0  0  0  0  0  0  0  0  0  0  0  0
  -17.0183   -1.9411  -13.5957 H   0  0  0  0  0  0  0  0  0  0  0  0
  -15.3556   -0.8605  -13.9329 C   0  0  0  0  0  0  0  0  0  0  0  0
  -13.9770   -0.7153  -13.7332 C   0  0  0  0  0  0  0  0  0  0  0  0
  -13.3368    0.4920  -14.0107 C   0  0  0  0  0  0  0  0  0  0  0  0
  -14.0659    1.5733  -14.5051 C   0  0  0  0  0  0  0  0  0  0  0  0
  -15.4319    1.4295  -14.7431 C   0  0  0  0  0  0  0  0  0  0  0  0
  -16.1629    2.4749  -15.2349 O   0  0  0  0  0  0  0  0  0  0  0  0
  -16.0689    0.2173  -14.4723 C   0  0  0  0  0  0  0  0  0  0  0  0
  -17.3883    0.0831  -14.6930 F   0  0  0  0  0  0  0  0  0  0  0  0
  -15.5868    3.2527  -15.3126 H   0  0  0  0  0  0  0  0  0  0  0  0
  -14.9809   -6.6224  -15.3213 O   0  0  0  0  0  0  0  0  0  0  0  0
  -13.7533   -6.9569  -15.9422 C   0  0  0  0  0  0  0  0  0  0  0  0
 11 12  1  0  0  0
 12  1  1  0  0  0
  1  2  1  0  0  0
  1 10  2  0  0  0
  2  3  2  0  0  0
  3  4  1  0  0  0
  3  8  1  0  0  0
  4  5  2  0  0  0
  5  6  1  0  0  0
  6  7  2  0  0  0
  7 13  1  0  0  0
  7  8  1  0  0  0
 13 15  1  0  0  0
 13 14  1  0  0  0
 15 16  1  0  0  0
 15 21  2  0  0  0
 16 17  2  0  0  0
 17 18  1  0  0  0
 18 19  2  0  0  0
 19 20  1  0  0  0
 19 21  1  0  0  0
 20 23  1  0  0  0
 21 22  1  0  0  0
  8  9  2  0  0  0
  9 10  1  0  0  0
 10 24  1  0  0  0
 24 25  1  0  0  0
M  END
> <minimizedAffinity>
-6.80741

$$$$
