CHEMBL1254590


 24 26  0  0  0  0  0  0  0  0999 V2000
  -30.1756   -3.4408   -5.7907 C   0  0  0  0  0  0  0  0  0  0  0  0
  -30.6725   -4.1829   -4.7197 C   0  0  0  0  0  0  0  0  0  0  0  0
  -30.5757   -5.5724   -4.6978 C   0  0  0  0  0  0  0  0  0  0  0  0
  -30.0594   -6.2638   -5.7908 C   0  0  0  0  0  0  0  0  0  0  0  0
  -29.5968   -5.5346   -6.8923 C   0  0  0  0  0  0  0  0  0  0  0  0
  -29.6612   -4.1273   -6.8960 C   0  0  0  0  0  0  0  0  0  0  0  0
  -28.3242    0.9563   -4.8286 C   0  0  0  0  0  0  0  0  0  0  0  0
  -29.3449    0.0821   -5.3625 N   0  0  0  0  0  0  0  0  0  0  0  0
  -29.0888   -1.2720   -5.3310 C   0  0  0  0  0  0  0  0  0  0  0  0
  -28.0012   -1.6976   -4.9586 O   0  0  0  0  0  0  0  0  0  0  0  0
  -30.1589   -2.0253   -5.7724 N   0  0  0  0  0  0  0  0  0  0  0  0
  -30.3062    0.3614   -5.2403 H   0  0  0  0  0  0  0  0  0  0  0  0
  -30.8355   -1.5440   -6.3457 H   0  0  0  0  0  0  0  0  0  0  0  0
  -29.9135   -7.6372   -5.8240 O   0  0  0  0  0  0  0  0  0  0  0  0
  -30.7260   -8.3563   -6.6980 C   0  0  0  0  0  0  0  0  0  0  0  0
  -32.0501   -8.0791   -6.7596 N   0  0  0  0  0  0  0  0  0  0  0  0
  -32.8206   -8.8284   -7.5625 C   0  0  0  0  0  0  0  0  0  0  0  0
  -32.4355   -9.8159   -8.3767 N   0  0  0  0  0  0  0  0  0  0  0  0
  -31.1038  -10.0417   -8.3587 C   0  0  0  0  0  0  0  0  0  0  0  0
  -30.3611  -10.9812   -9.1024 C   0  0  0  0  0  0  0  0  0  0  0  0
  -29.0416  -10.8435   -8.7350 C   0  0  0  0  0  0  0  0  0  0  0  0
  -28.9706   -9.8548   -7.7811 N   0  0  0  0  0  0  0  0  0  0  0  0
  -27.7458   -9.4298   -7.1435 C   0  0  0  0  0  0  0  0  0  0  0  0
  -30.2232   -9.3388   -7.5427 C   0  0  0  0  0  0  0  0  0  0  0  0
  7  8  1  0  0  0
  8  9  1  0  0  0
  8 12  1  0  0  0
  9 10  2  0  0  0
  9 11  1  0  0  0
 11  1  1  0  0  0
 11 13  1  0  0  0
  1  2  1  0  0  0
  1  6  2  0  0  0
  2  3  2  0  0  0
  3  4  1  0  0  0
  4 14  1  0  0  0
  4  5  2  0  0  0
 14 15  1  0  0  0
 15 16  1  0  0  0
 15 24  2  0  0  0
 16 17  2  0  0  0
 17 18  1  0  0  0
 18 19  2  0  0  0
 19 20  1  0  0  0
 19 24  1  0  0  0
 20 21  2  0  0  0
 21 22  1  0  0  0
 22 23  1  0  0  0
 22 24  1  0  0  0
  5  6  1  0  0  0
M  END
> <minimizedAffinity>
-7.23301

$$$$
