CHEMBL435227


 29 31  0  0  0  0  0  0  0  0999 V2000
  -30.3033   -4.8238   -5.6438 C   0  0  0  0  0  0  0  0  0  0  0  0
  -29.5780   -5.9563   -5.6271 C   0  0  0  0  0  0  0  0  0  0  0  0
  -28.1990   -6.1055   -5.0085 C   0  0  0  0  0  0  0  0  0  0  0  0
  -27.5466   -5.3144   -4.3569 O   0  0  0  0  0  0  0  0  0  0  0  0
  -27.8281   -7.4065   -5.2854 N   0  0  0  0  0  0  0  0  0  0  0  0
  -28.8180   -8.0843   -5.9775 C   0  0  0  0  0  0  0  0  0  0  0  0
  -28.7441   -9.4011   -6.3814 C   0  0  0  0  0  0  0  0  0  0  0  0
  -29.8332   -9.9139   -7.0789 C   0  0  0  0  0  0  0  0  0  0  0  0
  -30.9575   -9.1052   -7.3782 C   0  0  0  0  0  0  0  0  0  0  0  0
  -31.0099   -7.7621   -6.9453 C   0  0  0  0  0  0  0  0  0  0  0  0
  -29.9239   -7.2701   -6.2249 C   0  0  0  0  0  0  0  0  0  0  0  0
  -26.9462   -7.7879   -4.9775 H   0  0  0  0  0  0  0  0  0  0  0  0
  -28.6785   -2.7979   -7.4243 C   0  0  0  0  0  0  0  0  0  0  0  0
  -28.9762   -2.6565   -5.9710 C   0  0  0  0  0  0  0  0  0  0  0  0
  -28.5143   -1.6695   -5.0266 C   0  0  0  0  0  0  0  0  0  0  0  0
  -29.0909   -2.0034   -3.8126 C   0  0  0  0  0  0  0  0  0  0  0  0
  -29.8286   -3.1486   -3.9654 N   0  0  0  0  0  0  0  0  0  0  0  0
  -29.7353   -3.5792   -5.2612 C   0  0  0  0  0  0  0  0  0  0  0  0
  -30.2914   -3.6396   -3.2128 H   0  0  0  0  0  0  0  0  0  0  0  0
  -27.5453   -0.5276   -5.2182 C   0  0  0  0  0  0  0  0  0  0  0  0
  -28.1561    0.8350   -4.9197 C   0  0  0  0  0  0  0  0  0  0  0  0
  -29.3151    1.1822   -5.8206 C   0  0  0  0  0  0  0  0  0  0  0  0
  -30.4988    1.0536   -5.5555 O   0  0  0  0  0  0  0  0  0  0  0  0
  -28.8891    1.6824   -7.0084 O   0  0  0  0  0  0  0  0  0  0  0  0
  -27.9164    1.7268   -7.0863 H   0  0  0  0  0  0  0  0  0  0  0  0
  -32.0615   -9.7835   -8.1142 C   0  0  0  0  0  0  0  0  0  0  0  0
  -33.2272   -9.4479   -7.9826 O   0  0  0  0  0  0  0  0  0  0  0  0
  -31.6871  -10.8200   -8.8874 O   0  0  0  0  0  0  0  0  0  0  0  0
  -30.7622  -11.1085   -8.8095 H   0  0  0  0  0  0  0  0  0  0  0  0
 13 14  1  0  0  0
 14 15  1  0  0  0
 14 18  2  0  0  0
 15 20  1  0  0  0
 15 16  2  0  0  0
 20 21  1  0  0  0
 21 22  1  0  0  0
 22 23  2  0  0  0
 22 24  1  0  0  0
 24 25  1  0  0  0
 16 17  1  0  0  0
 17 18  1  0  0  0
 17 19  1  0  0  0
 18  1  1  0  0  0
  1  2  2  0  0  0
  2  3  1  0  0  0
  2 11  1  0  0  0
  3  4  2  0  0  0
  3  5  1  0  0  0
  5  6  1  0  0  0
  5 12  1  0  0  0
  6  7  1  0  0  0
  6 11  2  0  0  0
  7  8  2  0  0  0
  8  9  1  0  0  0
  9 26  1  0  0  0
  9 10  2  0  0  0
 26 27  2  0  0  0
 26 28  1  0  0  0
 28 29  1  0  0  0
 10 11  1  0  0  0
M  END
> <minimizedAffinity>
-9.13132

$$$$
