CHEMBL246343


 27 30  0  0  0  0  0  0  0  0999 V2000
  -27.9118   -1.6570   -7.9999 C   0  0  0  0  0  0  0  0  0  0  0  0
  -27.7680   -0.5034   -7.2070 C   0  0  0  0  0  0  0  0  0  0  0  0
  -28.1285   -0.5042   -5.8425 C   0  0  0  0  0  0  0  0  0  0  0  0
  -28.6488   -1.6495   -5.2386 C   0  0  0  0  0  0  0  0  0  0  0  0
  -28.7985   -2.7665   -6.0307 C   0  0  0  0  0  0  0  0  0  0  0  0
  -28.4428   -2.7976   -7.4064 C   0  0  0  0  0  0  0  0  0  0  0  0
  -28.7098   -4.1607   -8.0655 C   0  0  0  0  0  0  0  0  0  0  0  0
  -29.2617   -4.8591   -6.8720 C   0  0  0  0  0  0  0  0  0  0  0  0
  -29.3118   -4.0570   -5.7257 C   0  0  0  0  0  0  0  0  0  0  0  0
  -29.8334   -4.6571   -4.6662 N   0  0  0  0  0  0  0  0  0  0  0  0
  -30.1345   -5.8868   -5.1644 N   0  0  0  0  0  0  0  0  0  0  0  0
  -29.7969   -6.0613   -6.4925 C   0  0  0  0  0  0  0  0  0  0  0  0
  -30.5695   -6.5583   -4.5434 H   0  0  0  0  0  0  0  0  0  0  0  0
  -29.9946   -7.2873   -7.3099 C   0  0  0  0  0  0  0  0  0  0  0  0
  -31.1941   -8.0595   -7.3600 C   0  0  0  0  0  0  0  0  0  0  0  0
  -31.0874   -9.1405   -8.2078 C   0  0  0  0  0  0  0  0  0  0  0  0
  -29.5448   -9.2330   -8.9369 S   0  0  0  0  0  0  0  0  0  0  0  0
  -29.0181   -7.8172   -8.1262 C   0  0  0  0  0  0  0  0  0  0  0  0
  -26.2647   -1.9692   -9.7803 N   0  0  0  0  0  0  0  0  0  0  0  0
  -27.5645   -1.6553   -9.4448 C   0  0  0  0  0  0  0  0  0  0  0  0
  -28.4117   -1.4071  -10.2944 O   0  0  0  0  0  0  0  0  0  0  0  0
  -25.6169   -2.3528   -9.0981 H   0  0  0  0  0  0  0  0  0  0  0  0
  -25.8859   -2.0077  -11.1783 C   0  0  0  0  0  0  0  0  0  0  0  0
  -24.4615   -0.1470  -11.8300 O   0  0  0  0  0  0  0  0  0  0  0  0
  -24.5665   -1.3100  -11.4672 C   0  0  0  0  0  0  0  0  0  0  0  0
  -23.4928   -2.1140  -11.2678 O   0  0  0  0  0  0  0  0  0  0  0  0
  -23.7176   -3.0197  -10.9761 H   0  0  0  0  0  0  0  0  0  0  0  0
 24 25  2  0  0  0
 25 26  1  0  0  0
 25 23  1  0  0  0
 26 27  1  0  0  0
 23 19  1  0  0  0
 19 20  1  0  0  0
 19 22  1  0  0  0
 20 21  2  0  0  0
 20  1  1  0  0  0
  1  2  1  0  0  0
  1  6  2  0  0  0
  2  3  2  0  0  0
  3  4  1  0  0  0
  4  5  2  0  0  0
  5  6  1  0  0  0
  5  9  1  0  0  0
  6  7  1  0  0  0
  7  8  1  0  0  0
  8  9  1  0  0  0
  8 12  2  0  0  0
  9 10  2  0  0  0
 10 11  1  0  0  0
 11 12  1  0  0  0
 11 13  1  0  0  0
 12 14  1  0  0  0
 14 15  1  0  0  0
 14 18  2  0  0  0
 15 16  2  0  0  0
 16 17  1  0  0  0
 17 18  1  0  0  0
M  END
> <minimizedAffinity>
-8.34965

$$$$
