CHEMBL254964


 39 43  0  0  0  0  0  0  0  0999 V2000
  -25.3762   -1.9610  -11.8710 C   0  0  0  0  0  0  0  0  0  0  0  0
  -25.6140   -1.9375  -13.2448 C   0  0  0  0  0  0  0  0  0  0  0  0
  -24.6370   -1.4416  -14.1111 C   0  0  0  0  0  0  0  0  0  0  0  0
  -23.4345   -0.9388  -13.5999 C   0  0  0  0  0  0  0  0  0  0  0  0
  -23.1672   -1.0741  -12.2412 C   0  0  0  0  0  0  0  0  0  0  0  0
  -21.9804   -0.7007  -11.7421 F   0  0  0  0  0  0  0  0  0  0  0  0
  -24.1270   -1.5790  -11.3754 C   0  0  0  0  0  0  0  0  0  0  0  0
  -26.4029   -2.4160  -11.0260 N   0  0  0  0  0  0  0  0  0  0  0  0
  -26.4255   -3.4110  -10.8188 H   0  0  0  0  0  0  0  0  0  0  0  0
  -27.3224   -1.6557  -10.3337 C   0  0  0  0  0  0  0  0  0  0  0  0
  -28.3398   -0.6831  -11.2197 S   0  0  0  0  0  0  0  0  0  0  0  0
  -27.4709   -2.0627   -6.7486 O   0  0  0  0  0  0  0  0  0  0  0  0
  -27.8367   -2.3691   -7.8856 C   0  0  0  0  0  0  0  0  0  0  0  0
  -27.1974   -1.7404   -8.9493 N   0  0  0  0  0  0  0  0  0  0  0  0
  -26.5345   -1.0833   -8.5592 H   0  0  0  0  0  0  0  0  0  0  0  0
  -28.9212   -3.3685   -8.1998 C   0  0  0  0  0  0  0  0  0  0  0  0
  -29.5466   -4.0447   -7.0050 C   0  0  0  0  0  0  0  0  0  0  0  0
  -29.3923   -5.4264   -6.8283 C   0  0  0  0  0  0  0  0  0  0  0  0
  -29.9118   -6.0569   -5.6986 C   0  0  0  0  0  0  0  0  0  0  0  0
  -30.5944   -5.3127   -4.7371 C   0  0  0  0  0  0  0  0  0  0  0  0
  -30.7583   -3.9388   -4.9057 C   0  0  0  0  0  0  0  0  0  0  0  0
  -30.2351   -3.3055   -6.0324 C   0  0  0  0  0  0  0  0  0  0  0  0
  -22.4594   -0.3280  -14.3501 O   0  0  0  0  0  0  0  0  0  0  0  0
  -22.2256    1.0161  -14.1842 C   0  0  0  0  0  0  0  0  0  0  0  0
  -23.1547    1.9169  -13.6680 C   0  0  0  0  0  0  0  0  0  0  0  0
  -22.8380    3.2603  -13.6454 C   0  0  0  0  0  0  0  0  0  0  0  0
  -21.6748    3.7930  -14.0660 N   0  0  0  0  0  0  0  0  0  0  0  0
  -20.7300    2.8999  -14.4645 C   0  0  0  0  0  0  0  0  0  0  0  0
  -19.4193    3.2227  -14.9211 C   0  0  0  0  0  0  0  0  0  0  0  0
  -18.6665    2.1087  -15.2624 C   0  0  0  0  0  0  0  0  0  0  0  0
  -19.5279    0.6841  -14.8879 S   0  0  0  0  0  0  0  0  0  0  0  0
  -20.9587    1.5280  -14.4926 C   0  0  0  0  0  0  0  0  0  0  0  0
  -17.2721    2.1129  -15.6889 C   0  0  0  0  0  0  0  0  0  0  0  0
  -16.9232    2.8041  -16.6518 O   0  0  0  0  0  0  0  0  0  0  0  0
  -16.3109    1.3585  -15.0229 N   0  0  0  0  0  0  0  0  0  0  0  0
  -16.4462    0.2448  -14.0966 C   0  0  0  0  0  0  0  0  0  0  0  0
  -15.2187    0.4067  -13.2213 C   0  0  0  0  0  0  0  0  0  0  0  0
  -14.1464    0.7848  -14.2369 C   0  0  0  0  0  0  0  0  0  0  0  0
  -14.9008    1.5795  -15.3040 C   0  0  0  0  0  0  0  0  0  0  0  0
 12 13  2  0  0  0
 13 16  1  0  0  0
 13 14  1  0  0  0
 16 17  1  0  0  0
 17 18  1  0  0  0
 17 22  2  0  0  0
 18 19  2  0  0  0
 19 20  1  0  0  0
 20 21  2  0  0  0
 21 22  1  0  0  0
 14 10  1  0  0  0
 14 15  1  0  0  0
 10 11  2  0  0  0
 10  8  1  0  0  0
  8  1  1  0  0  0
  8  9  1  0  0  0
  1  2  1  0  0  0
  1  7  2  0  0  0
  2  3  2  0  0  0
  3  4  1  0  0  0
  4 23  1  0  0  0
  4  5  2  0  0  0
 23 24  1  0  0  0
 24 25  1  0  0  0
 24 32  2  0  0  0
 25 26  2  0  0  0
 26 27  1  0  0  0
 27 28  2  0  0  0
 28 29  1  0  0  0
 28 32  1  0  0  0
 29 30  2  0  0  0
 30 33  1  0  0  0
 30 31  1  0  0  0
 33 34  2  0  0  0
 33 35  1  0  0  0
 35 36  1  0  0  0
 35 39  1  0  0  0
 36 37  1  0  0  0
 37 38  1  0  0  0
 38 39  1  0  0  0
 31 32  1  0  0  0
  5  6  1  0  0  0
  5  7  1  0  0  0
M  END
> <minimizedAffinity>
-10.08627

$$$$
