CHEMBL429582


 34 37  0  0  0  0  0  0  0  0999 V2000
  -29.5500   -3.7164   -4.7961 C   0  0  0  0  0  0  0  0  0  0  0  0
  -28.8538   -3.4542   -6.1082 C   0  0  0  0  0  0  0  0  0  0  0  0
  -28.4941   -2.1556   -6.4007 C   0  0  0  0  0  0  0  0  0  0  0  0
  -27.9686   -1.8556   -7.6440 C   0  0  0  0  0  0  0  0  0  0  0  0
  -27.6784   -2.8345   -8.5992 C   0  0  0  0  0  0  0  0  0  0  0  0
  -28.0626   -4.1388   -8.3350 C   0  0  0  0  0  0  0  0  0  0  0  0
  -28.6029   -4.4623   -7.0716 C   0  0  0  0  0  0  0  0  0  0  0  0
  -29.1219   -5.7924   -6.8593 C   0  0  0  0  0  0  0  0  0  0  0  0
  -30.2880   -5.9891   -7.5800 C   0  0  0  0  0  0  0  0  0  0  0  0
  -30.8842   -7.1545   -7.5870 C   0  0  0  0  0  0  0  0  0  0  0  0
  -30.4043   -8.0418   -6.7383 C   0  0  0  0  0  0  0  0  0  0  0  0
  -31.0168   -9.1564   -6.7917 N   0  0  0  0  0  0  0  0  0  0  0  0
  -31.6514  -10.2309   -6.8653 C   0  0  0  0  0  0  0  0  0  0  0  0
  -32.7094   -9.5749   -7.4920 N   0  0  0  0  0  0  0  0  0  0  0  0
  -30.4885  -10.6025   -6.2772 N   0  0  0  0  0  0  0  0  0  0  0  0
  -29.2165   -9.6264   -5.8860 C   0  0  0  0  0  0  0  0  0  0  0  0
  -29.2170   -8.1690   -6.1408 C   0  0  0  0  0  0  0  0  0  0  0  0
  -28.5392   -6.8662   -6.1226 C   0  0  0  0  0  0  0  0  0  0  0  0
  -32.6144   -8.5798   -7.6202 H   0  0  0  0  0  0  0  0  0  0  0  0
  -33.5989   -9.8405   -7.8749 H   0  0  0  0  0  0  0  0  0  0  0  0
  -26.9530   -2.5211   -9.7748 N   0  0  0  0  0  0  0  0  0  0  0  0
  -27.3176   -1.5682  -10.7203 C   0  0  0  0  0  0  0  0  0  0  0  0
  -28.3427   -0.9051  -10.5925 O   0  0  0  0  0  0  0  0  0  0  0  0
  -26.1837   -3.1253  -10.0371 H   0  0  0  0  0  0  0  0  0  0  0  0
  -26.4769   -1.4163  -11.9668 C   0  0  0  0  0  0  0  0  0  0  0  0
  -26.9640   -1.7829  -13.2331 C   0  0  0  0  0  0  0  0  0  0  0  0
  -26.1678   -1.7876  -14.3686 C   0  0  0  0  0  0  0  0  0  0  0  0
  -24.8919   -1.2730  -14.2888 C   0  0  0  0  0  0  0  0  0  0  0  0
  -24.3916   -0.8208  -13.0577 C   0  0  0  0  0  0  0  0  0  0  0  0
  -25.1774   -0.9141  -11.8903 C   0  0  0  0  0  0  0  0  0  0  0  0
  -23.0132   -0.2305  -12.9914 C   0  0  0  0  0  0  0  0  0  0  0  0
  -22.1910   -0.7389  -13.9469 F   0  0  0  0  0  0  0  0  0  0  0  0
  -23.0214    1.1175  -13.1627 F   0  0  0  0  0  0  0  0  0  0  0  0
  -22.3928   -0.4567  -11.8006 F   0  0  0  0  0  0  0  0  0  0  0  0
  1  2  1  0  0  0
  2  3  1  0  0  0
  2  7  2  0  0  0
  3  4  2  0  0  0
  4  5  1  0  0  0
  5 21  1  0  0  0
  5  6  2  0  0  0
 21 22  1  0  0  0
 21 24  1  0  0  0
 22 23  2  0  0  0
 22 25  1  0  0  0
 25 26  1  0  0  0
 25 30  2  0  0  0
 26 27  2  0  0  0
 27 28  1  0  0  0
 28 29  2  0  0  0
 29 31  1  0  0  0
 29 30  1  0  0  0
 31 32  1  0  0  0
 31 33  1  0  0  0
 31 34  1  0  0  0
  6  7  1  0  0  0
  7  8  1  0  0  0
  8  9  1  0  0  0
  8 18  2  0  0  0
  9 10  2  0  0  0
 10 11  1  0  0  0
 11 12  1  0  0  0
 11 17  2  0  0  0
 12 13  2  0  0  0
 13 14  1  0  0  0
 13 15  1  0  0  0
 14 19  1  0  0  0
 14 20  1  0  0  0
 15 16  2  0  0  0
 16 17  1  0  0  0
 17 18  1  0  0  0
M  END
> <minimizedAffinity>
-11.49213

$$$$
