CHEMBL3957414


 33 36  0  0  0  0  0  0  0  0999 V2000
  -28.6538   -9.7351   -5.2267 N   0  0  0  0  0  0  0  0  0  0  0  0
  -28.6021   -8.3367   -4.8009 C   0  0  0  0  0  0  0  0  0  0  0  0
  -29.1082   -8.0453   -3.5296 C   0  0  0  0  0  0  0  0  0  0  0  0
  -29.7255   -6.8380   -3.3051 C   0  0  0  0  0  0  0  0  0  0  0  0
  -29.6007   -5.7829   -4.1710 C   0  0  0  0  0  0  0  0  0  0  0  0
  -30.3696   -4.7377   -3.8479 N   0  0  0  0  0  0  0  0  0  0  0  0
  -30.0973   -3.5936   -4.4762 C   0  0  0  0  0  0  0  0  0  0  0  0
  -29.0310   -3.4678   -5.3365 C   0  0  0  0  0  0  0  0  0  0  0  0
  -28.3506   -4.5794   -5.8006 N   0  0  0  0  0  0  0  0  0  0  0  0
  -28.6840   -5.8348   -5.2460 C   0  0  0  0  0  0  0  0  0  0  0  0
  -28.2656   -7.1903   -5.5933 C   0  0  0  0  0  0  0  0  0  0  0  0
  -28.6016   -2.0893   -5.5914 C   0  0  0  0  0  0  0  0  0  0  0  0
  -27.4524   -1.4104   -5.0912 C   0  0  0  0  0  0  0  0  0  0  0  0
  -27.5127   -0.0815   -5.2574 N   0  0  0  0  0  0  0  0  0  0  0  0
  -28.7072    0.1048   -5.8422 N   0  0  0  0  0  0  0  0  0  0  0  0
  -29.0561    1.3861   -6.4107 C   0  0  0  0  0  0  0  0  0  0  0  0
  -29.4536   -1.0414   -5.9056 C   0  0  0  0  0  0  0  0  0  0  0  0
  -31.1011  -10.0534   -8.1727 C   0  0  0  0  0  0  0  0  0  0  0  0
  -30.2989  -10.6700   -9.1275 C   0  0  0  0  0  0  0  0  0  0  0  0
  -29.0441  -11.1167   -8.7568 C   0  0  0  0  0  0  0  0  0  0  0  0
  -28.6066  -10.9243   -7.4323 C   0  0  0  0  0  0  0  0  0  0  0  0
  -29.2969  -10.1475   -6.4707 C   0  0  0  0  0  0  0  0  0  0  0  0
  -30.6054   -9.8314   -6.8605 C   0  0  0  0  0  0  0  0  0  0  0  0
  -32.9769   -8.8175   -7.3615 C   0  0  0  0  0  0  0  0  0  0  0  0
  -32.3733   -9.5858   -8.4003 O   0  0  0  0  0  0  0  0  0  0  0  0
  -28.1258  -11.7139   -9.5793 O   0  0  0  0  0  0  0  0  0  0  0  0
  -27.0860  -10.9045  -10.1124 C   0  0  0  0  0  0  0  0  0  0  0  0
  -28.6203  -10.7131   -4.0625 C   0  0  0  0  0  0  0  0  0  0  0  0
  -27.2464  -11.3940   -3.9604 C   0  0  0  0  0  0  0  0  0  0  0  0
  -29.8088  -11.7462   -4.0388 C   0  0  0  0  0  0  0  0  0  0  0  0
  -30.6716  -11.6937   -2.8474 N   0  0  0  0  0  0  0  0  0  0  0  0
  -30.1573  -12.0556   -2.0351 H   0  0  0  0  0  0  0  0  0  0  0  0
  -31.4613  -12.3309   -2.9763 H   0  0  0  0  0  0  0  0  0  0  0  0
 24 25  1  0  0  0
 25 18  1  0  0  0
 18 19  1  0  0  0
 18 23  2  0  0  0
 19 20  2  0  0  0
 20 26  1  0  0  0
 20 21  1  0  0  0
 26 27  1  0  0  0
 21 22  2  0  0  0
 22  1  1  0  0  0
 22 23  1  0  0  0
  1  2  1  0  0  0
  2  3  1  0  0  0
  2 11  2  0  0  0
  3  4  2  0  0  0
  4  5  1  0  0  0
  5  6  1  0  0  0
  5 10  2  0  0  0
  6  7  2  0  0  0
  7  8  1  0  0  0
  8 12  1  0  0  0
  8  9  2  0  0  0
 12 13  1  0  0  0
 12 17  2  0  0  0
 13 14  2  0  0  0
 14 15  1  0  0  0
 15 16  1  0  0  0
 15 17  1  0  0  0
  9 10  1  0  0  0
 10 11  1  0  0  0
 28 30  1  0  0  0
 28 29  1  0  0  0
 28  1  1  0  0  0
 30 31  1  0  0  0
 31 32  1  0  0  0
 31 33  1  0  0  0
M  END
> <minimizedAffinity>
-7.80401

$$$$
