CHEMBL1241481


 32 34  0  0  0  0  0  0  0  0999 V2000
  -30.1138   -5.3029   -5.2458 C   0  0  0  0  0  0  0  0  0  0  0  0
  -30.0771   -6.5893   -5.8144 C   0  0  0  0  0  0  0  0  0  0  0  0
  -29.7719   -6.7913   -7.1711 C   0  0  0  0  0  0  0  0  0  0  0  0
  -29.5717   -5.6815   -7.9728 C   0  0  0  0  0  0  0  0  0  0  0  0
  -29.5642   -4.4130   -7.4172 C   0  0  0  0  0  0  0  0  0  0  0  0
  -29.8650   -4.1830   -6.0627 C   0  0  0  0  0  0  0  0  0  0  0  0
  -29.6023   -8.1434   -7.6932 C   0  0  0  0  0  0  0  0  0  0  0  0
  -28.4248   -8.5151   -8.2225 N   0  0  0  0  0  0  0  0  0  0  0  0
  -28.6281   -9.7816   -8.6376 N   0  0  0  0  0  0  0  0  0  0  0  0
  -29.9019  -10.2304   -8.4050 C   0  0  0  0  0  0  0  0  0  0  0  0
  -30.4025  -11.4424   -8.7223 N   0  0  0  0  0  0  0  0  0  0  0  0
  -31.6938  -11.5411   -8.3715 C   0  0  0  0  0  0  0  0  0  0  0  0
  -32.4733  -10.6063   -7.7948 N   0  0  0  0  0  0  0  0  0  0  0  0
  -31.9322   -9.4035   -7.5050 C   0  0  0  0  0  0  0  0  0  0  0  0
  -32.8048   -8.4765   -6.9503 N   0  0  0  0  0  0  0  0  0  0  0  0
  -30.5769   -9.1854   -7.7990 C   0  0  0  0  0  0  0  0  0  0  0  0
  -33.7645   -8.7933   -7.0305 H   0  0  0  0  0  0  0  0  0  0  0  0
  -32.6438   -7.5157   -7.2223 H   0  0  0  0  0  0  0  0  0  0  0  0
  -27.5525  -10.5070   -9.3037 C   0  0  0  0  0  0  0  0  0  0  0  0
  -27.1525   -9.8303  -10.6171 C   0  0  0  0  0  0  0  0  0  0  0  0
  -26.3407  -10.6735   -8.3859 C   0  0  0  0  0  0  0  0  0  0  0  0
  -29.8947   -2.8482   -5.5439 N   0  0  0  0  0  0  0  0  0  0  0  0
  -28.7893   -2.2331   -4.9986 C   0  0  0  0  0  0  0  0  0  0  0  0
  -27.6566   -2.7069   -5.0147 O   0  0  0  0  0  0  0  0  0  0  0  0
  -30.7275   -2.3022   -5.6978 H   0  0  0  0  0  0  0  0  0  0  0  0
  -29.0497   -1.0082   -4.4372 O   0  0  0  0  0  0  0  0  0  0  0  0
  -28.9326    0.1406   -5.3452 C   0  0  0  0  0  0  0  0  0  0  0  0
  -30.3127    0.7763   -5.6052 C   0  0  0  0  0  0  0  0  0  0  0  0
  -28.0694    1.2162   -4.6600 C   0  0  0  0  0  0  0  0  0  0  0  0
  -28.1983   -0.2378   -6.6501 C   0  0  0  0  0  0  0  0  0  0  0  0
  -31.7582   -5.3256   -3.5358 C   0  0  0  0  0  0  0  0  0  0  0  0
  -30.3998   -5.0814   -3.9160 O   0  0  0  0  0  0  0  0  0  0  0  0
 31 32  1  0  0  0
 32  1  1  0  0  0
  1  2  1  0  0  0
  1  6  2  0  0  0
  2  3  2  0  0  0
  3  7  1  0  0  0
  3  4  1  0  0  0
  7  8  2  0  0  0
  7 16  1  0  0  0
  8  9  1  0  0  0
  9 19  1  0  0  0
  9 10  1  0  0  0
 19 20  1  0  0  0
 19 21  1  0  0  0
 10 11  1  0  0  0
 10 16  2  0  0  0
 11 12  2  0  0  0
 12 13  1  0  0  0
 13 14  2  0  0  0
 14 15  1  0  0  0
 14 16  1  0  0  0
 15 17  1  0  0  0
 15 18  1  0  0  0
  4  5  2  0  0  0
  5  6  1  0  0  0
  6 22  1  0  0  0
 22 23  1  0  0  0
 22 25  1  0  0  0
 23 24  2  0  0  0
 23 26  1  0  0  0
 26 27  1  0  0  0
 27 28  1  0  0  0
 27 29  1  0  0  0
 27 30  1  0  0  0
M  END
> <minimizedAffinity>
-8.66351

$$$$
