CHEMBL2022854


 44 49  0  0  0  0  0  0  0  0999 V2000
  -13.4707    0.5745  -18.8730 N   0  0  0  0  0  0  0  0  0  0  0  0
  -13.1702    0.1991  -17.5700 C   0  0  0  0  0  0  0  0  0  0  0  0
  -12.9650   -1.1230  -17.4272 N   0  0  0  0  0  0  0  0  0  0  0  0
  -12.6452   -1.6267  -16.2284 C   0  0  0  0  0  0  0  0  0  0  0  0
  -12.4944   -0.8747  -15.0664 C   0  0  0  0  0  0  0  0  0  0  0  0
  -12.7148    0.5080  -15.2104 C   0  0  0  0  0  0  0  0  0  0  0  0
  -12.6381    1.7051  -13.9691 S   0  0  0  0  0  0  0  0  0  0  0  0
  -13.0168    2.9535  -15.0275 C   0  0  0  0  0  0  0  0  0  0  0  0
  -13.2244    2.5325  -16.3266 C   0  0  0  0  0  0  0  0  0  0  0  0
  -13.0590    1.0806  -16.4560 C   0  0  0  0  0  0  0  0  0  0  0  0
  -13.2863   -0.2117  -19.4876 H   0  0  0  0  0  0  0  0  0  0  0  0
  -13.0324    1.4435  -19.1505 H   0  0  0  0  0  0  0  0  0  0  0  0
  -13.5118    3.5543  -17.3382 C   0  0  0  0  0  0  0  0  0  0  0  0
  -14.8378    3.7651  -17.7265 C   0  0  0  0  0  0  0  0  0  0  0  0
  -15.1623    4.7189  -18.6817 C   0  0  0  0  0  0  0  0  0  0  0  0
  -14.1835    5.5499  -19.2202 C   0  0  0  0  0  0  0  0  0  0  0  0
  -12.8506    5.3364  -18.8682 C   0  0  0  0  0  0  0  0  0  0  0  0
  -12.5159    4.3195  -17.9587 C   0  0  0  0  0  0  0  0  0  0  0  0
  -14.5117    6.5878  -20.1229 N   0  0  0  0  0  0  0  0  0  0  0  0
  -15.1099    7.7755  -19.7315 C   0  0  0  0  0  0  0  0  0  0  0  0
  -15.2927    8.1169  -18.5686 O   0  0  0  0  0  0  0  0  0  0  0  0
  -15.5127    8.5346  -20.8152 N   0  0  0  0  0  0  0  0  0  0  0  0
  -14.0478    6.5945  -21.0164 H   0  0  0  0  0  0  0  0  0  0  0  0
  -15.8278    8.0002  -21.6120 H   0  0  0  0  0  0  0  0  0  0  0  0
  -16.0968    9.8062  -20.6189 C   0  0  0  0  0  0  0  0  0  0  0  0
  -15.3094   10.9650  -20.5407 C   0  0  0  0  0  0  0  0  0  0  0  0
  -15.8990   12.2193  -20.3708 C   0  0  0  0  0  0  0  0  0  0  0  0
  -17.2832   12.3127  -20.2524 C   0  0  0  0  0  0  0  0  0  0  0  0
  -18.0570   11.1581  -20.3040 C   0  0  0  0  0  0  0  0  0  0  0  0
  -19.3841   11.2497  -20.1457 F   0  0  0  0  0  0  0  0  0  0  0  0
  -17.4812    9.9065  -20.5046 C   0  0  0  0  0  0  0  0  0  0  0  0
  -12.1974   -1.4961  -13.7955 C   0  0  0  0  0  0  0  0  0  0  0  0
  -11.1246   -1.3515  -12.8858 C   0  0  0  0  0  0  0  0  0  0  0  0
  -11.2756   -2.0928  -11.7863 N   0  0  0  0  0  0  0  0  0  0  0  0
  -12.4462   -2.7196  -11.9931 N   0  0  0  0  0  0  0  0  0  0  0  0
  -13.0247   -2.4178  -13.1843 C   0  0  0  0  0  0  0  0  0  0  0  0
  -12.9700   -3.6135  -10.9843 C   0  0  0  0  0  0  0  0  0  0  0  0
  -12.9543   -5.0700  -11.4636 C   0  0  0  0  0  0  0  0  0  0  0  0
  -14.2931   -5.5785  -11.8357 N   0  0  0  0  0  0  0  0  0  0  0  0
  -15.3539   -4.6717  -11.3625 C   0  0  0  0  0  0  0  0  0  0  0  0
  -16.7385   -5.1982  -11.7176 C   0  0  0  0  0  0  0  0  0  0  0  0
  -16.8762   -5.4198  -13.2145 C   0  0  0  0  0  0  0  0  0  0  0  0
  -15.7406   -6.2981  -13.7245 C   0  0  0  0  0  0  0  0  0  0  0  0
  -14.3742   -5.7508  -13.2995 C   0  0  0  0  0  0  0  0  0  0  0  0
  1  2  1  0  0  0
  1 11  1  0  0  0
  1 12  1  0  0  0
  2  3  1  0  0  0
  2 10  2  0  0  0
  3  4  2  0  0  0
  4  5  1  0  0  0
  5 32  1  0  0  0
  5  6  2  0  0  0
 32 33  1  0  0  0
 32 36  2  0  0  0
 33 34  2  0  0  0
 34 35  1  0  0  0
 35 37  1  0  0  0
 35 36  1  0  0  0
 37 38  1  0  0  0
 38 39  1  0  0  0
 39 40  1  0  0  0
 39 44  1  0  0  0
 40 41  1  0  0  0
 41 42  1  0  0  0
 42 43  1  0  0  0
 43 44  1  0  0  0
  6  7  1  0  0  0
  6 10  1  0  0  0
  7  8  1  0  0  0
  8  9  2  0  0  0
  9 13  1  0  0  0
  9 10  1  0  0  0
 13 14  1  0  0  0
 13 18  2  0  0  0
 14 15  2  0  0  0
 15 16  1  0  0  0
 16 19  1  0  0  0
 16 17  2  0  0  0
 19 20  1  0  0  0
 19 23  1  0  0  0
 20 21  2  0  0  0
 20 22  1  0  0  0
 22 25  1  0  0  0
 22 24  1  0  0  0
 25 26  1  0  0  0
 25 31  2  0  0  0
 26 27  2  0  0  0
 27 28  1  0  0  0
 28 29  2  0  0  0
 29 30  1  0  0  0
 29 31  1  0  0  0
 17 18  1  0  0  0
M  END
> <minimizedAffinity>
-6.93926

$$$$
