CHEMBL3577114


 41 45  0  0  0  0  0  0  0  0999 V2000
  -27.5375   -2.0573   -9.9611 C   0  0  0  0  0  0  0  0  0  0  0  0
  -28.4625   -1.5714  -10.8930 C   0  0  0  0  0  0  0  0  0  0  0  0
  -28.0564   -1.3022  -12.2039 C   0  0  0  0  0  0  0  0  0  0  0  0
  -26.7364   -1.5310  -12.5806 C   0  0  0  0  0  0  0  0  0  0  0  0
  -26.3741   -1.3326  -13.8566 F   0  0  0  0  0  0  0  0  0  0  0  0
  -25.8213   -2.0663  -11.6764 C   0  0  0  0  0  0  0  0  0  0  0  0
  -26.2105   -2.2852  -10.3544 C   0  0  0  0  0  0  0  0  0  0  0  0
  -29.9902   -4.8247   -4.6390 C   0  0  0  0  0  0  0  0  0  0  0  0
  -29.4977   -3.5297   -4.8113 C   0  0  0  0  0  0  0  0  0  0  0  0
  -29.0123   -3.1159   -6.0591 C   0  0  0  0  0  0  0  0  0  0  0  0
  -28.9383   -4.0673   -7.0797 C   0  0  0  0  0  0  0  0  0  0  0  0
  -29.4347   -5.3379   -6.8196 C   0  0  0  0  0  0  0  0  0  0  0  0
  -29.9754   -5.7205   -5.6403 N   0  0  0  0  0  0  0  0  0  0  0  0
  -28.4119   -3.7197   -8.3938 C   0  0  0  0  0  0  0  0  0  0  0  0
  -27.9380   -2.4816   -8.6129 C   0  0  0  0  0  0  0  0  0  0  0  0
  -27.9338   -1.4563   -7.5182 C   0  0  0  0  0  0  0  0  0  0  0  0
  -27.3892   -0.3747   -7.7385 O   0  0  0  0  0  0  0  0  0  0  0  0
  -28.6033   -1.7633   -6.3356 N   0  0  0  0  0  0  0  0  0  0  0  0
  -28.8797   -0.6924   -5.3650 C   0  0  0  0  0  0  0  0  0  0  0  0
  -27.6801    0.1353   -4.9556 C   0  0  0  0  0  0  0  0  0  0  0  0
  -28.3245    1.3531   -4.3131 C   0  0  0  0  0  0  0  0  0  0  0  0
  -29.6701    1.4581   -4.8042 O   0  0  0  0  0  0  0  0  0  0  0  0
  -29.8693    0.4072   -5.7658 C   0  0  0  0  0  0  0  0  0  0  0  0
  -31.9644   -4.8332   -3.2601 C   0  0  0  0  0  0  0  0  0  0  0  0
  -30.5534   -5.1523   -3.3952 N   0  0  0  0  0  0  0  0  0  0  0  0
  -30.3495   -6.1227   -3.1701 H   0  0  0  0  0  0  0  0  0  0  0  0
  -24.5368   -2.4064  -12.1253 N   0  0  0  0  0  0  0  0  0  0  0  0
  -23.6178   -1.5925  -12.7496 C   0  0  0  0  0  0  0  0  0  0  0  0
  -22.5859   -2.1042  -13.1744 O   0  0  0  0  0  0  0  0  0  0  0  0
  -23.9057   -0.2484  -12.7283 N   0  0  0  0  0  0  0  0  0  0  0  0
  -24.1011   -3.2365  -11.7371 H   0  0  0  0  0  0  0  0  0  0  0  0
  -24.6336    0.0856  -12.1137 H   0  0  0  0  0  0  0  0  0  0  0  0
  -23.0775    0.6966  -13.2764 C   0  0  0  0  0  0  0  0  0  0  0  0
  -21.8024    0.5772  -13.7674 C   0  0  0  0  0  0  0  0  0  0  0  0
  -21.4408    1.8960  -14.1502 C   0  0  0  0  0  0  0  0  0  0  0  0
  -22.4499    2.7468  -13.9191 N   0  0  0  0  0  0  0  0  0  0  0  0
  -23.4719    1.9914  -13.3753 O   0  0  0  0  0  0  0  0  0  0  0  0
  -20.1226    2.3735  -14.7294 C   0  0  0  0  0  0  0  0  0  0  0  0
  -20.3720    3.1904  -16.0125 C   0  0  0  0  0  0  0  0  0  0  0  0
  -19.3412    3.2649  -13.7396 C   0  0  0  0  0  0  0  0  0  0  0  0
  -19.2346    1.1615  -15.0751 C   0  0  0  0  0  0  0  0  0  0  0  0
 24 25  1  0  0  0
 25  8  1  0  0  0
 25 26  1  0  0  0
  8  9  1  0  0  0
  8 13  2  0  0  0
  9 10  2  0  0  0
 10 11  1  0  0  0
 10 18  1  0  0  0
 11 12  2  0  0  0
 11 14  1  0  0  0
 12 13  1  0  0  0
 14 15  2  0  0  0
 15  1  1  0  0  0
 15 16  1  0  0  0
  1  2  1  0  0  0
  1  7  2  0  0  0
  2  3  2  0  0  0
  3  4  1  0  0  0
  4  5  1  0  0  0
  4  6  2  0  0  0
  6 27  1  0  0  0
  6  7  1  0  0  0
 27 28  1  0  0  0
 27 31  1  0  0  0
 28 29  2  0  0  0
 28 30  1  0  0  0
 30 33  1  0  0  0
 30 32  1  0  0  0
 33 34  2  0  0  0
 33 37  1  0  0  0
 34 35  1  0  0  0
 35 38  1  0  0  0
 35 36  2  0  0  0
 38 39  1  0  0  0
 38 40  1  0  0  0
 38 41  1  0  0  0
 36 37  1  0  0  0
 16 17  2  0  0  0
 16 18  1  0  0  0
 19 20  1  0  0  0
 19 23  1  0  0  0
 19 18  1  0  0  0
 20 21  1  0  0  0
 21 22  1  0  0  0
 22 23  1  0  0  0
M  END
> <minimizedAffinity>
-10.27877

$$$$
