CHEMBL243912


 40 43  0  0  0  0  0  0  0  0999 V2000
  -16.9400    1.7270  -15.2258 C   0  0  0  0  0  0  0  0  0  0  0  0
  -15.8885    1.2675  -16.0138 C   0  0  0  0  0  0  0  0  0  0  0  0
  -14.9396    0.3830  -15.4890 C   0  0  0  0  0  0  0  0  0  0  0  0
  -15.0125   -0.0510  -14.1627 C   0  0  0  0  0  0  0  0  0  0  0  0
  -16.0536    0.4333  -13.3630 C   0  0  0  0  0  0  0  0  0  0  0  0
  -17.0089    1.3178  -13.8905 C   0  0  0  0  0  0  0  0  0  0  0  0
  -14.0969   -0.9747  -13.5951 N   0  0  0  0  0  0  0  0  0  0  0  0
  -14.4026   -2.2535  -13.1622 C   0  0  0  0  0  0  0  0  0  0  0  0
  -15.4854   -2.8066  -13.3165 O   0  0  0  0  0  0  0  0  0  0  0  0
  -13.3408   -2.8557  -12.5014 N   0  0  0  0  0  0  0  0  0  0  0  0
  -13.1183   -0.7204  -13.6032 H   0  0  0  0  0  0  0  0  0  0  0  0
  -12.8180   -2.2300  -11.9003 H   0  0  0  0  0  0  0  0  0  0  0  0
  -13.5068   -4.1715  -11.9981 C   0  0  0  0  0  0  0  0  0  0  0  0
  -13.7151   -5.2559  -12.8604 C   0  0  0  0  0  0  0  0  0  0  0  0
  -14.0014   -6.5337  -12.3569 C   0  0  0  0  0  0  0  0  0  0  0  0
  -14.0831   -6.7085  -10.9660 C   0  0  0  0  0  0  0  0  0  0  0  0
  -13.8428   -5.6378  -10.1008 C   0  0  0  0  0  0  0  0  0  0  0  0
  -13.5303   -4.3849  -10.6212 C   0  0  0  0  0  0  0  0  0  0  0  0
  -13.3292   -3.3564   -9.7840 F   0  0  0  0  0  0  0  0  0  0  0  0
  -14.2394   -7.6959  -13.2920 C   0  0  0  0  0  0  0  0  0  0  0  0
  -13.9769   -8.9129  -12.7397 F   0  0  0  0  0  0  0  0  0  0  0  0
  -15.5333   -7.7554  -13.7158 F   0  0  0  0  0  0  0  0  0  0  0  0
  -13.4819   -7.6238  -14.4209 F   0  0  0  0  0  0  0  0  0  0  0  0
  -18.1171    2.8675  -15.9092 S   0  0  0  0  0  0  0  0  0  0  0  0
  -23.2026   -0.0019  -13.7123 C   0  0  0  0  0  0  0  0  0  0  0  0
  -23.3603    1.2935  -13.5835 N   0  0  0  0  0  0  0  0  0  0  0  0
  -22.1675    1.8389  -13.9813 C   0  0  0  0  0  0  0  0  0  0  0  0
  -21.7276    3.1693  -13.9241 C   0  0  0  0  0  0  0  0  0  0  0  0
  -20.4705    3.4918  -14.4630 C   0  0  0  0  0  0  0  0  0  0  0  0
  -19.6672    2.5185  -15.0739 C   0  0  0  0  0  0  0  0  0  0  0  0
  -20.0801    1.1706  -15.0719 C   0  0  0  0  0  0  0  0  0  0  0  0
  -21.3202    0.8729  -14.4963 C   0  0  0  0  0  0  0  0  0  0  0  0
  -21.9878   -0.3111  -14.2704 N   0  0  0  0  0  0  0  0  0  0  0  0
  -21.6573   -1.2429  -14.4710 H   0  0  0  0  0  0  0  0  0  0  0  0
  -23.9592   -1.6438  -12.1731 C   0  0  0  0  0  0  0  0  0  0  0  0
  -22.9192   -1.7544  -11.5345 O   0  0  0  0  0  0  0  0  0  0  0  0
  -24.1334   -0.9255  -13.3220 N   0  0  0  0  0  0  0  0  0  0  0  0
  -25.0927   -0.7124  -13.5551 H   0  0  0  0  0  0  0  0  0  0  0  0
  -26.2925   -1.4974  -12.4005 C   0  0  0  0  0  0  0  0  0  0  0  0
  -25.1670   -2.1293  -11.7898 O   0  0  0  0  0  0  0  0  0  0  0  0
 39 40  1  0  0  0
 40 35  1  0  0  0
 35 36  2  0  0  0
 35 37  1  0  0  0
 37 25  1  0  0  0
 37 38  1  0  0  0
 25 26  2  0  0  0
 25 33  1  0  0  0
 26 27  1  0  0  0
 27 28  1  0  0  0
 27 32  2  0  0  0
 28 29  2  0  0  0
 29 30  1  0  0  0
 30 24  1  0  0  0
 30 31  2  0  0  0
 24  1  1  0  0  0
  1  2  1  0  0  0
  1  6  2  0  0  0
  2  3  2  0  0  0
  3  4  1  0  0  0
  4  7  1  0  0  0
  4  5  2  0  0  0
  7  8  1  0  0  0
  7 11  1  0  0  0
  8  9  2  0  0  0
  8 10  1  0  0  0
 10 13  1  0  0  0
 10 12  1  0  0  0
 13 14  1  0  0  0
 13 18  2  0  0  0
 14 15  2  0  0  0
 15 20  1  0  0  0
 15 16  1  0  0  0
 20 21  1  0  0  0
 20 22  1  0  0  0
 20 23  1  0  0  0
 16 17  2  0  0  0
 17 18  1  0  0  0
 18 19  1  0  0  0
  5  6  1  0  0  0
 31 32  1  0  0  0
 32 33  1  0  0  0
 33 34  1  0  0  0
M  END
> <minimizedAffinity>
-10.01488

$$$$
