CHEMBL4092026


 38 42  0  0  0  0  0  0  0  0999 V2000
  -29.2927   -3.5751   -6.6950 C   0  0  0  0  0  0  0  0  0  0  0  0
  -28.9856   -3.9781   -7.9929 C   0  0  0  0  0  0  0  0  0  0  0  0
  -28.2188   -3.1659   -8.8242 C   0  0  0  0  0  0  0  0  0  0  0  0
  -27.7697   -1.9046   -8.4171 C   0  0  0  0  0  0  0  0  0  0  0  0
  -28.2400   -1.3937   -7.1598 C   0  0  0  0  0  0  0  0  0  0  0  0
  -28.0078   -0.0702   -6.7055 C   0  0  0  0  0  0  0  0  0  0  0  0
  -28.4887    0.3954   -5.4752 C   0  0  0  0  0  0  0  0  0  0  0  0
  -29.2008   -0.4523   -4.6408 C   0  0  0  0  0  0  0  0  0  0  0  0
  -29.4427   -1.7648   -5.0403 C   0  0  0  0  0  0  0  0  0  0  0  0
  -28.9980   -2.2533   -6.2891 C   0  0  0  0  0  0  0  0  0  0  0  0
  -26.8655   -1.1568   -9.2579 N   0  0  0  0  0  0  0  0  0  0  0  0
  -26.3306   -1.6061  -10.4591 C   0  0  0  0  0  0  0  0  0  0  0  0
  -26.5104   -2.7172  -10.9455 O   0  0  0  0  0  0  0  0  0  0  0  0
  -25.5548   -0.6665  -11.1178 N   0  0  0  0  0  0  0  0  0  0  0  0
  -26.4209   -0.3568   -8.8412 H   0  0  0  0  0  0  0  0  0  0  0  0
  -25.3526    0.2107  -10.6612 H   0  0  0  0  0  0  0  0  0  0  0  0
  -24.9287   -0.9327  -12.4457 C   0  0  0  0  0  0  0  0  0  0  0  0
  -23.8509   -2.0465  -12.3862 C   0  0  0  0  0  0  0  0  0  0  0  0
  -22.6686   -1.5604  -13.2315 C   0  0  0  0  0  0  0  0  0  0  0  0
  -23.1349   -0.2990  -13.9417 C   0  0  0  0  0  0  0  0  0  0  0  0
  -24.1731    0.2962  -12.9999 C   0  0  0  0  0  0  0  0  0  0  0  0
  -25.9669   -1.3387  -13.4790 C   0  0  0  0  0  0  0  0  0  0  0  0
  -26.8281   -1.6754  -14.3361 N   0  0  0  0  0  0  0  0  0  0  0  0
  -29.9403   -4.4559   -5.8288 O   0  0  0  0  0  0  0  0  0  0  0  0
  -29.8921   -9.5074   -6.7118 C   0  0  0  0  0  0  0  0  0  0  0  0
  -28.8652   -9.1517   -5.8299 C   0  0  0  0  0  0  0  0  0  0  0  0
  -28.6694   -7.8499   -5.4031 C   0  0  0  0  0  0  0  0  0  0  0  0
  -27.6250   -7.6284   -4.6020 N   0  0  0  0  0  0  0  0  0  0  0  0
  -27.4261   -6.3719   -4.2014 C   0  0  0  0  0  0  0  0  0  0  0  0
  -28.1817   -5.3267   -4.5262 N   0  0  0  0  0  0  0  0  0  0  0  0
  -29.1965   -5.5615   -5.3804 C   0  0  0  0  0  0  0  0  0  0  0  0
  -29.5346   -6.8437   -5.8480 C   0  0  0  0  0  0  0  0  0  0  0  0
  -30.6135   -7.2001   -6.7004 C   0  0  0  0  0  0  0  0  0  0  0  0
  -30.8162   -8.5321   -7.1011 C   0  0  0  0  0  0  0  0  0  0  0  0
  -29.2801  -11.0299   -8.4153 C   0  0  0  0  0  0  0  0  0  0  0  0
  -30.0044  -10.7828   -7.2079 O   0  0  0  0  0  0  0  0  0  0  0  0
  -31.9096   -8.7168   -7.9049 O   0  0  0  0  0  0  0  0  0  0  0  0
  -33.1182   -9.1049   -7.2550 C   0  0  0  0  0  0  0  0  0  0  0  0
 35 36  1  0  0  0
 36 25  1  0  0  0
 25 26  1  0  0  0
 25 34  2  0  0  0
 26 27  2  0  0  0
 27 28  1  0  0  0
 27 32  1  0  0  0
 28 29  2  0  0  0
 29 30  1  0  0  0
 30 31  2  0  0  0
 31 24  1  0  0  0
 31 32  1  0  0  0
 24  1  1  0  0  0
  1  2  1  0  0  0
  1 10  2  0  0  0
  2  3  2  0  0  0
  3  4  1  0  0  0
  4 11  1  0  0  0
  4  5  2  0  0  0
 11 12  1  0  0  0
 11 15  1  0  0  0
 12 13  2  0  0  0
 12 14  1  0  0  0
 14 17  1  0  0  0
 14 16  1  0  0  0
 17 22  1  0  0  0
 17 18  1  0  0  0
 17 21  1  0  0  0
 22 23  3  0  0  0
 18 19  1  0  0  0
 19 20  1  0  0  0
 20 21  1  0  0  0
  5  6  1  0  0  0
  5 10  1  0  0  0
  6  7  2  0  0  0
  7  8  1  0  0  0
  8  9  2  0  0  0
  9 10  1  0  0  0
 32 33  2  0  0  0
 33 34  1  0  0  0
 34 37  1  0  0  0
 37 38  1  0  0  0
M  END
> <minimizedAffinity>
-9.59046

$$$$
