CHEMBL3903022


 39 43  0  0  0  0  0  0  0  0999 V2000
  -28.0566   -3.2351   -8.1006 C   0  0  0  0  0  0  0  0  0  0  0  0
  -28.6947   -2.9118   -6.9040 C   0  0  0  0  0  0  0  0  0  0  0  0
  -28.6962   -1.5808   -6.4101 C   0  0  0  0  0  0  0  0  0  0  0  0
  -29.2451   -1.1699   -5.1743 C   0  0  0  0  0  0  0  0  0  0  0  0
  -29.1363    0.1002   -4.7464 N   0  0  0  0  0  0  0  0  0  0  0  0
  -28.5025    0.9624   -5.5440 C   0  0  0  0  0  0  0  0  0  0  0  0
  -27.9855    0.6892   -6.7455 N   0  0  0  0  0  0  0  0  0  0  0  0
  -28.0874   -0.5735   -7.1713 C   0  0  0  0  0  0  0  0  0  0  0  0
  -27.5688   -0.9018   -8.4181 C   0  0  0  0  0  0  0  0  0  0  0  0
  -27.5862   -2.2130   -8.9146 C   0  0  0  0  0  0  0  0  0  0  0  0
  -28.8803   -5.3800   -7.6485 C   0  0  0  0  0  0  0  0  0  0  0  0
  -27.9546   -4.5687   -8.3896 O   0  0  0  0  0  0  0  0  0  0  0  0
  -29.9374   -2.1196   -4.3710 N   0  0  0  0  0  0  0  0  0  0  0  0
  -30.9271   -1.8980   -4.3635 H   0  0  0  0  0  0  0  0  0  0  0  0
  -29.7210   -3.5138   -4.2731 C   0  0  0  0  0  0  0  0  0  0  0  0
  -28.5720   -4.0676   -3.6959 C   0  0  0  0  0  0  0  0  0  0  0  0
  -28.3960   -5.4521   -3.6083 C   0  0  0  0  0  0  0  0  0  0  0  0
  -29.3936   -6.3141   -4.0568 C   0  0  0  0  0  0  0  0  0  0  0  0
  -29.1007   -8.0124   -3.9469 Cl  0  0  0  0  0  0  0  0  0  0  0  0
  -30.5783   -5.7819   -4.5724 C   0  0  0  0  0  0  0  0  0  0  0  0
  -31.8782   -6.7822   -5.1184 Cl  0  0  0  0  0  0  0  0  0  0  0  0
  -30.7419   -4.3933   -4.6664 C   0  0  0  0  0  0  0  0  0  0  0  0
  -27.0582   -2.3791  -10.1628 O   0  0  0  0  0  0  0  0  0  0  0  0
  -26.9286   -1.1922  -10.9604 C   0  0  0  0  0  0  0  0  0  0  0  0
  -25.5176   -1.1619  -11.4078 C   0  0  0  0  0  0  0  0  0  0  0  0
  -24.7799   -0.1402  -11.7759 N   0  0  0  0  0  0  0  0  0  0  0  0
  -23.5528   -0.7163  -11.9648 C   0  0  0  0  0  0  0  0  0  0  0  0
  -23.5313   -2.0477  -11.8089 N   0  0  0  0  0  0  0  0  0  0  0  0
  -24.8361   -2.3461  -11.4095 O   0  0  0  0  0  0  0  0  0  0  0  0
  -22.3932    0.0964  -12.3617 C   0  0  0  0  0  0  0  0  0  0  0  0
  -22.6874    1.0301  -13.8383 S   0  0  0  0  0  0  0  0  0  0  0  0
  -23.1720    0.1237  -14.8669 O   0  0  0  0  0  0  0  0  0  0  0  0
  -23.4650    2.2181  -13.5107 O   0  0  0  0  0  0  0  0  0  0  0  0
  -21.0596    1.5580  -14.3230 C   0  0  0  0  0  0  0  0  0  0  0  0
  -20.1681    0.6792  -14.9149 C   0  0  0  0  0  0  0  0  0  0  0  0
  -18.9470    1.1996  -15.3258 C   0  0  0  0  0  0  0  0  0  0  0  0
  -18.6744    2.5524  -15.1245 C   0  0  0  0  0  0  0  0  0  0  0  0
  -19.6398    3.3459  -14.5215 C   0  0  0  0  0  0  0  0  0  0  0  0
  -20.8402    2.8843  -14.1199 N   0  0  0  0  0  0  0  0  0  0  0  0
 11 12  1  0  0  0
 12  1  1  0  0  0
  1  2  1  0  0  0
  1 10  2  0  0  0
  2  3  2  0  0  0
  3  4  1  0  0  0
  3  8  1  0  0  0
  4 13  1  0  0  0
  4  5  2  0  0  0
 13 15  1  0  0  0
 13 14  1  0  0  0
 15 16  1  0  0  0
 15 22  2  0  0  0
 16 17  2  0  0  0
 17 18  1  0  0  0
 18 19  1  0  0  0
 18 20  2  0  0  0
 20 21  1  0  0  0
 20 22  1  0  0  0
  5  6  1  0  0  0
  6  7  2  0  0  0
  7  8  1  0  0  0
  8  9  2  0  0  0
  9 10  1  0  0  0
 10 23  1  0  0  0
 23 24  1  0  0  0
 24 25  1  0  0  0
 25 26  2  0  0  0
 25 29  1  0  0  0
 26 27  1  0  0  0
 27 30  1  0  0  0
 27 28  2  0  0  0
 30 31  1  0  0  0
 31 32  2  0  0  0
 31 33  2  0  0  0
 31 34  1  0  0  0
 34 35  1  0  0  0
 34 39  2  0  0  0
 35 36  2  0  0  0
 36 37  1  0  0  0
 37 38  2  0  0  0
 38 39  1  0  0  0
 28 29  1  0  0  0
M  END
> <minimizedAffinity>
-9.73099

$$$$
