CHEMBL214109


 41 46  0  0  0  0  0  0  0  0999 V2000
  -29.1811   -6.4231   -4.0905 C   0  0  0  0  0  0  0  0  0  0  0  0
  -29.4664   -6.9055   -2.8232 N   0  0  0  0  0  0  0  0  0  0  0  0
  -29.0044   -8.1633   -2.5730 N   0  0  0  0  0  0  0  0  0  0  0  0
  -28.4062   -8.4634   -3.7131 C   0  0  0  0  0  0  0  0  0  0  0  0
  -28.4642   -7.4395   -4.6762 C   0  0  0  0  0  0  0  0  0  0  0  0
  -27.7836   -7.8020   -5.9557 C   0  0  0  0  0  0  0  0  0  0  0  0
  -27.3396   -9.2223   -5.5676 C   0  0  0  0  0  0  0  0  0  0  0  0
  -26.6557  -10.1317   -6.3651 C   0  0  0  0  0  0  0  0  0  0  0  0
  -26.3667  -11.4117   -5.8474 C   0  0  0  0  0  0  0  0  0  0  0  0
  -26.7696  -11.7472   -4.5300 C   0  0  0  0  0  0  0  0  0  0  0  0
  -27.4509  -10.8310   -3.7197 C   0  0  0  0  0  0  0  0  0  0  0  0
  -27.7207   -9.5875   -4.2524 C   0  0  0  0  0  0  0  0  0  0  0  0
  -29.9853   -6.4291   -2.0943 H   0  0  0  0  0  0  0  0  0  0  0  0
  -29.7454   -2.8230   -5.5539 C   0  0  0  0  0  0  0  0  0  0  0  0
  -30.9696   -3.2914   -5.1173 C   0  0  0  0  0  0  0  0  0  0  0  0
  -30.8951   -4.6206   -4.5764 C   0  0  0  0  0  0  0  0  0  0  0  0
  -29.6113   -5.1287   -4.5637 C   0  0  0  0  0  0  0  0  0  0  0  0
  -28.5141   -3.9915   -5.2358 S   0  0  0  0  0  0  0  0  0  0  0  0
  -29.4133   -1.5693   -6.3387 C   0  0  0  0  0  0  0  0  0  0  0  0
  -28.0831   -1.4781   -6.9677 N   0  0  0  0  0  0  0  0  0  0  0  0
  -27.9137   -1.8990   -8.2923 C   0  0  0  0  0  0  0  0  0  0  0  0
  -28.4461   -2.9285   -8.7079 O   0  0  0  0  0  0  0  0  0  0  0  0
  -27.0528   -1.1096   -9.0451 N   0  0  0  0  0  0  0  0  0  0  0  0
  -26.5594   -0.3971   -8.5349 H   0  0  0  0  0  0  0  0  0  0  0  0
  -26.7092   -1.3236  -10.4017 C   0  0  0  0  0  0  0  0  0  0  0  0
  -27.6759   -1.4914  -11.3977 C   0  0  0  0  0  0  0  0  0  0  0  0
  -27.3170   -1.8217  -12.7001 C   0  0  0  0  0  0  0  0  0  0  0  0
  -25.9776   -1.9876  -13.0315 C   0  0  0  0  0  0  0  0  0  0  0  0
  -24.9847   -1.7863  -12.0665 C   0  0  0  0  0  0  0  0  0  0  0  0
  -23.5459   -2.0222  -12.4240 C   0  0  0  0  0  0  0  0  0  0  0  0
  -25.3549   -1.4107  -10.7604 C   0  0  0  0  0  0  0  0  0  0  0  0
  -28.6074    0.7532   -6.5036 C   0  0  0  0  0  0  0  0  0  0  0  0
  -27.5384   -0.1694   -6.7336 O   0  0  0  0  0  0  0  0  0  0  0  0
  -25.6413  -12.4399   -6.7021 C   0  0  0  0  0  0  0  0  0  0  0  0
  -24.1873  -12.4659   -6.4877 N   0  0  0  0  0  0  0  0  0  0  0  0
  -23.4308  -12.3333   -7.7480 C   0  0  0  0  0  0  0  0  0  0  0  0
  -21.9067  -12.3777   -7.4917 C   0  0  0  0  0  0  0  0  0  0  0  0
  -21.4083  -11.3588   -6.5460 N   0  0  0  0  0  0  0  0  0  0  0  0
  -21.3891  -10.0311   -7.1531 C   0  0  0  0  0  0  0  0  0  0  0  0
  -22.2360  -11.3923   -5.3221 C   0  0  0  0  0  0  0  0  0  0  0  0
  -23.7684  -11.3956   -5.5593 C   0  0  0  0  0  0  0  0  0  0  0  0
 32 33  1  0  0  0
 33 20  1  0  0  0
 20 19  1  0  0  0
 20 21  1  0  0  0
 19 14  1  0  0  0
 14 15  2  0  0  0
 14 18  1  0  0  0
 15 16  1  0  0  0
 16 17  2  0  0  0
 17  1  1  0  0  0
 17 18  1  0  0  0
  1  2  1  0  0  0
  1  5  2  0  0  0
  2  3  1  0  0  0
  2 13  1  0  0  0
  3  4  2  0  0  0
  4  5  1  0  0  0
  4 12  1  0  0  0
  5  6  1  0  0  0
  6  7  1  0  0  0
  7  8  1  0  0  0
  7 12  2  0  0  0
  8  9  2  0  0  0
  9 34  1  0  0  0
  9 10  1  0  0  0
 34 35  1  0  0  0
 35 36  1  0  0  0
 35 41  1  0  0  0
 36 37  1  0  0  0
 37 38  1  0  0  0
 38 39  1  0  0  0
 38 40  1  0  0  0
 40 41  1  0  0  0
 10 11  2  0  0  0
 11 12  1  0  0  0
 21 22  2  0  0  0
 21 23  1  0  0  0
 23 25  1  0  0  0
 23 24  1  0  0  0
 25 26  1  0  0  0
 25 31  2  0  0  0
 26 27  2  0  0  0
 27 28  1  0  0  0
 28 29  2  0  0  0
 29 30  1  0  0  0
 29 31  1  0  0  0
M  END
> <minimizedAffinity>
-9.13120

$$$$
