CHEMBL219253


 42 48  0  0  0  0  0  0  0  0999 V2000
  -30.1054   -5.0498   -5.7383 N   0  0  0  0  0  0  0  0  0  0  0  0
  -29.3709   -4.0565   -6.4160 C   0  0  0  0  0  0  0  0  0  0  0  0
  -29.5022   -2.6597   -6.4409 C   0  0  0  0  0  0  0  0  0  0  0  0
  -28.6957   -1.9227   -7.3226 C   0  0  0  0  0  0  0  0  0  0  0  0
  -27.7363   -2.5287   -8.1334 C   0  0  0  0  0  0  0  0  0  0  0  0
  -27.6109   -3.9229   -8.0967 C   0  0  0  0  0  0  0  0  0  0  0  0
  -28.4545   -4.6901   -7.2656 C   0  0  0  0  0  0  0  0  0  0  0  0
  -28.7736   -6.0212   -7.0792 C   0  0  0  0  0  0  0  0  0  0  0  0
  -28.4668   -7.0082   -8.0356 C   0  0  0  0  0  0  0  0  0  0  0  0
  -29.2789   -8.1602   -7.9973 C   0  0  0  0  0  0  0  0  0  0  0  0
  -30.2516   -8.4000   -7.0089 C   0  0  0  0  0  0  0  0  0  0  0  0
  -30.0233   -7.6516   -5.8097 C   0  0  0  0  0  0  0  0  0  0  0  0
  -29.6176   -6.3199   -6.0530 C   0  0  0  0  0  0  0  0  0  0  0  0
  -29.4062   -8.5521   -4.6578 C   0  0  0  0  0  0  0  0  0  0  0  0
  -28.9597   -9.9997   -5.1295 C   0  0  0  0  0  0  0  0  0  0  0  0
  -30.1073  -10.5723   -5.8832 C   0  0  0  0  0  0  0  0  0  0  0  0
  -30.8214  -11.6568   -5.5852 N   0  0  0  0  0  0  0  0  0  0  0  0
  -31.9617  -11.4605   -6.2956 N   0  0  0  0  0  0  0  0  0  0  0  0
  -33.0690  -12.3717   -6.1372 C   0  0  0  0  0  0  0  0  0  0  0  0
  -32.0050  -10.2486   -6.9427 C   0  0  0  0  0  0  0  0  0  0  0  0
  -30.7371   -9.7426   -6.8238 C   0  0  0  0  0  0  0  0  0  0  0  0
  -28.7945   -9.0657   -9.0134 C   0  0  0  0  0  0  0  0  0  0  0  0
  -29.0968  -10.1934   -9.3559 O   0  0  0  0  0  0  0  0  0  0  0  0
  -27.7542   -8.3641   -9.6216 N   0  0  0  0  0  0  0  0  0  0  0  0
  -27.4871   -7.0397   -9.1119 C   0  0  0  0  0  0  0  0  0  0  0  0
  -27.1804   -8.8401  -10.2995 H   0  0  0  0  0  0  0  0  0  0  0  0
  -26.8732   -1.8410   -9.0196 N   0  0  0  0  0  0  0  0  0  0  0  0
  -26.7704   -2.0544  -10.3851 C   0  0  0  0  0  0  0  0  0  0  0  0
  -27.4024   -2.9073  -10.9951 O   0  0  0  0  0  0  0  0  0  0  0  0
  -25.8712   -1.1895  -10.9883 N   0  0  0  0  0  0  0  0  0  0  0  0
  -26.2883   -1.1256   -8.6321 H   0  0  0  0  0  0  0  0  0  0  0  0
  -25.1315   -0.8031  -10.4170 H   0  0  0  0  0  0  0  0  0  0  0  0
  -25.6417   -1.1340  -12.3947 C   0  0  0  0  0  0  0  0  0  0  0  0
  -26.6408   -1.4741  -13.3162 C   0  0  0  0  0  0  0  0  0  0  0  0
  -26.3752   -1.5294  -14.6851 C   0  0  0  0  0  0  0  0  0  0  0  0
  -25.1108   -1.2084  -15.1613 C   0  0  0  0  0  0  0  0  0  0  0  0
  -24.1203   -0.7947  -14.2698 C   0  0  0  0  0  0  0  0  0  0  0  0
  -24.3876   -0.7466  -12.8947 C   0  0  0  0  0  0  0  0  0  0  0  0
  -23.1203   -0.2300  -11.8352 Cl  0  0  0  0  0  0  0  0  0  0  0  0
  -31.3577   -4.7788   -5.0374 C   0  0  0  0  0  0  0  0  0  0  0  0
  -32.3323   -5.3252   -2.7269 C   0  0  0  0  0  0  0  0  0  0  0  0
  -31.2187   -4.6444   -3.5089 C   0  0  0  0  0  0  0  0  0  0  0  0
 41 42  1  0  0  0
 42 40  1  0  0  0
 40  1  1  0  0  0
  1  2  1  0  0  0
  1 13  1  0  0  0
  2  3  1  0  0  0
  2  7  2  0  0  0
  3  4  2  0  0  0
  4  5  1  0  0  0
  5 27  1  0  0  0
  5  6  2  0  0  0
 27 28  1  0  0  0
 27 31  1  0  0  0
 28 29  2  0  0  0
 28 30  1  0  0  0
 30 33  1  0  0  0
 30 32  1  0  0  0
 33 34  1  0  0  0
 33 38  2  0  0  0
 34 35  2  0  0  0
 35 36  1  0  0  0
 36 37  2  0  0  0
 37 38  1  0  0  0
 38 39  1  0  0  0
  6  7  1  0  0  0
  7  8  1  0  0  0
  8  9  1  0  0  0
  8 13  2  0  0  0
  9 10  2  0  0  0
  9 25  1  0  0  0
 10 11  1  0  0  0
 10 22  1  0  0  0
 11 12  2  0  0  0
 11 21  1  0  0  0
 12 13  1  0  0  0
 12 14  1  0  0  0
 14 15  1  0  0  0
 15 16  1  0  0  0
 16 17  2  0  0  0
 16 21  1  0  0  0
 17 18  1  0  0  0
 18 19  1  0  0  0
 18 20  1  0  0  0
 20 21  2  0  0  0
 22 23  2  0  0  0
 22 24  1  0  0  0
 24 25  1  0  0  0
 24 26  1  0  0  0
M  END
> <minimizedAffinity>
-9.57472

$$$$
