CHEMBL481491


 31 34  0  0  0  0  0  0  0  0999 V2000
  -29.3398   -6.7041   -4.9801 C   0  0  0  0  0  0  0  0  0  0  0  0
  -29.6069   -8.3010   -5.5551 S   0  0  0  0  0  0  0  0  0  0  0  0
  -29.3754   -7.8410   -7.1691 C   0  0  0  0  0  0  0  0  0  0  0  0
  -29.0317   -6.5181   -7.2935 C   0  0  0  0  0  0  0  0  0  0  0  0
  -29.0000   -5.8618   -6.0244 C   0  0  0  0  0  0  0  0  0  0  0  0
  -29.5659   -8.7951   -8.1781 N   0  0  0  0  0  0  0  0  0  0  0  0
  -30.6969   -9.5688   -8.3762 C   0  0  0  0  0  0  0  0  0  0  0  0
  -30.6042  -10.3742   -9.4042 N   0  0  0  0  0  0  0  0  0  0  0  0
  -29.3690  -10.1247   -9.9292 C   0  0  0  0  0  0  0  0  0  0  0  0
  -28.7736  -10.6924  -11.0658 C   0  0  0  0  0  0  0  0  0  0  0  0
  -27.4967  -10.2731  -11.4459 C   0  0  0  0  0  0  0  0  0  0  0  0
  -26.8253   -9.2984  -10.7128 C   0  0  0  0  0  0  0  0  0  0  0  0
  -27.4056   -8.7153   -9.5819 C   0  0  0  0  0  0  0  0  0  0  0  0
  -28.6820   -9.1601   -9.1921 C   0  0  0  0  0  0  0  0  0  0  0  0
  -28.7893   -5.3058   -3.1171 N   0  0  0  0  0  0  0  0  0  0  0  0
  -29.4730   -6.4075   -3.5629 C   0  0  0  0  0  0  0  0  0  0  0  0
  -30.1425   -7.0521   -2.7605 O   0  0  0  0  0  0  0  0  0  0  0  0
  -28.8484   -5.0662   -2.1383 H   0  0  0  0  0  0  0  0  0  0  0  0
  -28.2504   -4.7249   -3.7440 H   0  0  0  0  0  0  0  0  0  0  0  0
  -28.6905   -4.5639   -5.7909 O   0  0  0  0  0  0  0  0  0  0  0  0
  -29.6841   -3.6254   -6.2155 C   0  0  0  0  0  0  0  0  0  0  0  0
  -29.1614   -2.1995   -6.1331 C   0  0  0  0  0  0  0  0  0  0  0  0
  -29.4786   -1.4047   -5.0159 C   0  0  0  0  0  0  0  0  0  0  0  0
  -29.0021   -0.1016   -4.8912 C   0  0  0  0  0  0  0  0  0  0  0  0
  -28.1991    0.4399   -5.8868 C   0  0  0  0  0  0  0  0  0  0  0  0
  -27.8766   -0.3211   -7.0107 C   0  0  0  0  0  0  0  0  0  0  0  0
  -28.3511   -1.6439   -7.1547 C   0  0  0  0  0  0  0  0  0  0  0  0
  -27.9372   -2.3817   -8.4137 C   0  0  0  0  0  0  0  0  0  0  0  0
  -27.2819   -3.5562   -8.2031 F   0  0  0  0  0  0  0  0  0  0  0  0
  -29.0054   -2.6988   -9.1996 F   0  0  0  0  0  0  0  0  0  0  0  0
  -27.1095   -1.6370   -9.1987 F   0  0  0  0  0  0  0  0  0  0  0  0
 15 16  1  0  0  0
 15 18  1  0  0  0
 15 19  1  0  0  0
 16 17  2  0  0  0
 16  1  1  0  0  0
  1  2  1  0  0  0
  1  5  2  0  0  0
  2  3  1  0  0  0
  3  6  1  0  0  0
  3  4  2  0  0  0
  6  7  1  0  0  0
  6 14  1  0  0  0
  7  8  2  0  0  0
  8  9  1  0  0  0
  9 10  1  0  0  0
  9 14  2  0  0  0
 10 11  2  0  0  0
 11 12  1  0  0  0
 12 13  2  0  0  0
 13 14  1  0  0  0
  4  5  1  0  0  0
  5 20  1  0  0  0
 20 21  1  0  0  0
 21 22  1  0  0  0
 22 23  1  0  0  0
 22 27  2  0  0  0
 23 24  2  0  0  0
 24 25  1  0  0  0
 25 26  2  0  0  0
 26 27  1  0  0  0
 27 28  1  0  0  0
 28 29  1  0  0  0
 28 30  1  0  0  0
 28 31  1  0  0  0
M  END
> <minimizedAffinity>
-8.78667

$$$$
