CHEMBL179227


 34 37  0  0  0  0  0  0  0  0999 V2000
  -19.1299    2.6303  -14.7620 C   0  0  0  0  0  0  0  0  0  0  0  0
  -20.3727    3.0486  -14.2954 C   0  0  0  0  0  0  0  0  0  0  0  0
  -21.4138    2.1224  -14.1732 C   0  0  0  0  0  0  0  0  0  0  0  0
  -21.2632    0.7992  -14.6002 C   0  0  0  0  0  0  0  0  0  0  0  0
  -20.0696    0.4385  -15.2302 C   0  0  0  0  0  0  0  0  0  0  0  0
  -19.0073    1.3508  -15.3091 C   0  0  0  0  0  0  0  0  0  0  0  0
  -22.2423   -0.2075  -14.3761 N   0  0  0  0  0  0  0  0  0  0  0  0
  -23.3417   -0.0934  -13.5499 C   0  0  0  0  0  0  0  0  0  0  0  0
  -23.7069    0.9369  -12.9954 O   0  0  0  0  0  0  0  0  0  0  0  0
  -23.9997   -1.3078  -13.3707 N   0  0  0  0  0  0  0  0  0  0  0  0
  -22.1230   -1.0875  -14.8733 H   0  0  0  0  0  0  0  0  0  0  0  0
  -23.3908   -2.1136  -13.2936 H   0  0  0  0  0  0  0  0  0  0  0  0
  -25.1632   -1.3605  -12.5548 C   0  0  0  0  0  0  0  0  0  0  0  0
  -25.0789   -1.3519  -11.1578 C   0  0  0  0  0  0  0  0  0  0  0  0
  -26.2282   -1.5187  -10.3786 C   0  0  0  0  0  0  0  0  0  0  0  0
  -27.4665   -1.6975  -10.9939 C   0  0  0  0  0  0  0  0  0  0  0  0
  -27.5626   -1.6744  -12.3864 C   0  0  0  0  0  0  0  0  0  0  0  0
  -26.4170   -1.4832  -13.1554 C   0  0  0  0  0  0  0  0  0  0  0  0
  -26.5163   -1.4972  -14.4944 F   0  0  0  0  0  0  0  0  0  0  0  0
  -17.9733    3.3711  -14.6714 O   0  0  0  0  0  0  0  0  0  0  0  0
  -13.7529    0.3310  -14.2223 C   0  0  0  0  0  0  0  0  0  0  0  0
  -13.7334    1.0265  -15.4434 C   0  0  0  0  0  0  0  0  0  0  0  0
  -14.7566    1.8799  -15.8393 C   0  0  0  0  0  0  0  0  0  0  0  0
  -14.5843    2.5935  -16.9652 N   0  0  0  0  0  0  0  0  0  0  0  0
  -15.5276    3.4966  -17.3019 C   0  0  0  0  0  0  0  0  0  0  0  0
  -16.6480    3.7501  -16.5405 C   0  0  0  0  0  0  0  0  0  0  0  0
  -16.8340    3.0091  -15.3750 C   0  0  0  0  0  0  0  0  0  0  0  0
  -15.9013    1.9915  -15.0310 C   0  0  0  0  0  0  0  0  0  0  0  0
  -16.0042    1.1060  -13.9356 C   0  0  0  0  0  0  0  0  0  0  0  0
  -14.9275    0.3422  -13.4737 C   0  0  0  0  0  0  0  0  0  0  0  0
  -11.5736    0.4118  -13.2882 C   0  0  0  0  0  0  0  0  0  0  0  0
  -12.6667   -0.3729  -13.7730 O   0  0  0  0  0  0  0  0  0  0  0  0
  -15.2261   -0.2636  -12.2879 O   0  0  0  0  0  0  0  0  0  0  0  0
  -15.5726   -1.6356  -12.2534 C   0  0  0  0  0  0  0  0  0  0  0  0
 31 32  1  0  0  0
 32 21  1  0  0  0
 21 22  1  0  0  0
 21 30  2  0  0  0
 22 23  2  0  0  0
 23 24  1  0  0  0
 23 28  1  0  0  0
 24 25  2  0  0  0
 25 26  1  0  0  0
 26 27  2  0  0  0
 27 20  1  0  0  0
 27 28  1  0  0  0
 20  1  1  0  0  0
  1  2  1  0  0  0
  1  6  2  0  0  0
  2  3  2  0  0  0
  3  4  1  0  0  0
  4  7  1  0  0  0
  4  5  2  0  0  0
  7  8  1  0  0  0
  7 11  1  0  0  0
  8  9  2  0  0  0
  8 10  1  0  0  0
 10 13  1  0  0  0
 10 12  1  0  0  0
 13 14  1  0  0  0
 13 18  2  0  0  0
 14 15  2  0  0  0
 15 16  1  0  0  0
 16 17  2  0  0  0
 17 18  1  0  0  0
 18 19  1  0  0  0
  5  6  1  0  0  0
 28 29  2  0  0  0
 29 30  1  0  0  0
 30 33  1  0  0  0
 33 34  1  0  0  0
M  END
> <minimizedAffinity>
-9.84292

$$$$
