CHEMBL4208845


 44 48  0  0  0  0  0  0  0  0999 V2000
  -14.6325   -0.1663  -14.3587 C   0  0  0  0  0  0  0  0  0  0  0  0
  -15.1237    0.4642  -15.5033 C   0  0  0  0  0  0  0  0  0  0  0  0
  -16.3771    1.0717  -15.4867 C   0  0  0  0  0  0  0  0  0  0  0  0
  -17.1714    1.0148  -14.3434 C   0  0  0  0  0  0  0  0  0  0  0  0
  -16.7091    0.3284  -13.2162 C   0  0  0  0  0  0  0  0  0  0  0  0
  -15.4523   -0.2701  -13.2390 C   0  0  0  0  0  0  0  0  0  0  0  0
  -15.0414   -0.9519  -12.1589 F   0  0  0  0  0  0  0  0  0  0  0  0
  -18.4231    1.6389  -14.2608 N   0  0  0  0  0  0  0  0  0  0  0  0
  -19.6006    1.2203  -14.8473 C   0  0  0  0  0  0  0  0  0  0  0  0
  -19.8018    0.2082  -15.5028 O   0  0  0  0  0  0  0  0  0  0  0  0
  -18.4657    2.4913  -13.7133 H   0  0  0  0  0  0  0  0  0  0  0  0
  -20.7341    2.1672  -14.6131 C   0  0  0  0  0  0  0  0  0  0  0  0
  -21.0173    3.1820  -15.7318 C   0  0  0  0  0  0  0  0  0  0  0  0
  -20.4458    3.6502  -14.4322 C   0  0  0  0  0  0  0  0  0  0  0  0
  -21.9082    1.5221  -13.9588 C   0  0  0  0  0  0  0  0  0  0  0  0
  -22.8527    2.2427  -13.6426 O   0  0  0  0  0  0  0  0  0  0  0  0
  -21.8476    0.1516  -13.7771 N   0  0  0  0  0  0  0  0  0  0  0  0
  -20.9321   -0.2841  -13.7166 H   0  0  0  0  0  0  0  0  0  0  0  0
  -22.9783   -0.5690  -13.3440 C   0  0  0  0  0  0  0  0  0  0  0  0
  -24.0157   -0.8717  -14.2409 C   0  0  0  0  0  0  0  0  0  0  0  0
  -25.1923   -1.4664  -13.7838 C   0  0  0  0  0  0  0  0  0  0  0  0
  -25.3291   -1.7420  -12.4315 C   0  0  0  0  0  0  0  0  0  0  0  0
  -26.4838   -2.2418  -11.9738 F   0  0  0  0  0  0  0  0  0  0  0  0
  -24.2861   -1.4949  -11.5420 C   0  0  0  0  0  0  0  0  0  0  0  0
  -23.0879   -0.9413  -12.0063 C   0  0  0  0  0  0  0  0  0  0  0  0
  -13.3864   -0.7380  -14.2843 O   0  0  0  0  0  0  0  0  0  0  0  0
  -13.4098   -5.0066  -15.5670 C   0  0  0  0  0  0  0  0  0  0  0  0
  -12.5994   -4.8075  -17.0641 S   0  0  0  0  0  0  0  0  0  0  0  0
  -12.4508   -3.1356  -16.8471 C   0  0  0  0  0  0  0  0  0  0  0  0
  -11.8742   -2.3871  -17.8025 N   0  0  0  0  0  0  0  0  0  0  0  0
  -11.8081   -1.0980  -17.4747 C   0  0  0  0  0  0  0  0  0  0  0  0
  -12.2442   -0.5310  -16.3461 N   0  0  0  0  0  0  0  0  0  0  0  0
  -12.8681   -1.3153  -15.4347 C   0  0  0  0  0  0  0  0  0  0  0  0
  -12.9769   -2.6967  -15.6444 C   0  0  0  0  0  0  0  0  0  0  0  0
  -13.5517   -3.7983  -14.8930 C   0  0  0  0  0  0  0  0  0  0  0  0
  -14.2331   -3.6685  -13.5585 C   0  0  0  0  0  0  0  0  0  0  0  0
  -12.9508   -7.1102  -14.4879 N   0  0  0  0  0  0  0  0  0  0  0  0
  -13.8731   -6.3295  -15.1434 C   0  0  0  0  0  0  0  0  0  0  0  0
  -15.0150   -6.7385  -15.3515 O   0  0  0  0  0  0  0  0  0  0  0  0
  -12.0985   -6.6665  -14.1627 H   0  0  0  0  0  0  0  0  0  0  0  0
  -13.3194   -8.3844  -13.9048 C   0  0  0  0  0  0  0  0  0  0  0  0
  -13.6890   -8.2437  -12.4321 C   0  0  0  0  0  0  0  0  0  0  0  0
  -12.1050   -9.9902  -12.3158 C   0  0  0  0  0  0  0  0  0  0  0  0
  -12.6777   -8.8779  -11.6414 O   0  0  0  0  0  0  0  0  0  0  0  0
 43 44  1  0  0  0
 44 42  1  0  0  0
 42 41  1  0  0  0
 41 37  1  0  0  0
 37 38  1  0  0  0
 37 40  1  0  0  0
 38 39  2  0  0  0
 38 27  1  0  0  0
 27 28  1  0  0  0
 27 35  2  0  0  0
 28 29  1  0  0  0
 29 30  1  0  0  0
 29 34  2  0  0  0
 30 31  2  0  0  0
 31 32  1  0  0  0
 32 33  2  0  0  0
 33 26  1  0  0  0
 33 34  1  0  0  0
 26  1  1  0  0  0
  1  2  1  0  0  0
  1  6  2  0  0  0
  2  3  2  0  0  0
  3  4  1  0  0  0
  4  8  1  0  0  0
  4  5  2  0  0  0
  8  9  1  0  0  0
  8 11  1  0  0  0
  9 10  2  0  0  0
  9 12  1  0  0  0
 12 15  1  0  0  0
 12 13  1  0  0  0
 12 14  1  0  0  0
 15 16  2  0  0  0
 15 17  1  0  0  0
 17 19  1  0  0  0
 17 18  1  0  0  0
 19 20  1  0  0  0
 19 25  2  0  0  0
 20 21  2  0  0  0
 21 22  1  0  0  0
 22 23  1  0  0  0
 22 24  2  0  0  0
 24 25  1  0  0  0
 13 14  1  0  0  0
  5  6  1  0  0  0
  6  7  1  0  0  0
 34 35  1  0  0  0
 35 36  1  0  0  0
M  END
> <minimizedAffinity>
-8.98107

$$$$
