CHEMBL2403370


 32 36  0  0  0  0  0  0  0  0999 V2000
  -18.2498    1.8627  -15.2767 C   0  0  0  0  0  0  0  0  0  0  0  0
  -18.0646    2.8581  -16.2200 C   0  0  0  0  0  0  0  0  0  0  0  0
  -16.6748    3.1536  -16.2666 C   0  0  0  0  0  0  0  0  0  0  0  0
  -16.0986    2.3717  -15.2971 C   0  0  0  0  0  0  0  0  0  0  0  0
  -17.0499    1.6312  -14.6679 N   0  0  0  0  0  0  0  0  0  0  0  0
  -14.6707    2.2492  -15.0445 C   0  0  0  0  0  0  0  0  0  0  0  0
  -13.9002    3.3113  -15.8159 C   0  0  0  0  0  0  0  0  0  0  0  0
  -14.4504    4.0474  -16.9446 N   0  0  0  0  0  0  0  0  0  0  0  0
  -13.7238    4.9797  -17.6758 C   0  0  0  0  0  0  0  0  0  0  0  0
  -14.2801    5.5663  -18.6201 O   0  0  0  0  0  0  0  0  0  0  0  0
  -12.4059    5.2961  -17.3511 N   0  0  0  0  0  0  0  0  0  0  0  0
  -11.5212    4.9156  -16.2297 C   0  0  0  0  0  0  0  0  0  0  0  0
  -11.3643    6.1026  -15.2810 C   0  0  0  0  0  0  0  0  0  0  0  0
  -10.7014    7.1691  -15.9704 O   0  0  0  0  0  0  0  0  0  0  0  0
  -11.4676    7.5848  -17.1164 C   0  0  0  0  0  0  0  0  0  0  0  0
  -11.7872    6.4196  -18.0768 C   0  0  0  0  0  0  0  0  0  0  0  0
  -15.9143    4.0477  -17.1915 C   0  0  0  0  0  0  0  0  0  0  0  0
  -16.8652    0.9218  -13.9613 H   0  0  0  0  0  0  0  0  0  0  0  0
  -23.1787   -0.8373  -13.3080 C   0  0  0  0  0  0  0  0  0  0  0  0
  -24.1506    0.1484  -13.0372 C   0  0  0  0  0  0  0  0  0  0  0  0
  -23.8882    1.5010  -13.2531 C   0  0  0  0  0  0  0  0  0  0  0  0
  -22.6473    1.8228  -13.7595 C   0  0  0  0  0  0  0  0  0  0  0  0
  -21.6833    0.8575  -14.0649 C   0  0  0  0  0  0  0  0  0  0  0  0
  -21.9351   -0.4869  -13.8450 C   0  0  0  0  0  0  0  0  0  0  0  0
  -20.5183    1.5919  -14.5680 C   0  0  0  0  0  0  0  0  0  0  0  0
  -19.3450    1.0489  -14.9285 C   0  0  0  0  0  0  0  0  0  0  0  0
  -20.8915    3.0611  -14.5567 C   0  0  0  0  0  0  0  0  0  0  0  0
  -20.2615    4.0236  -14.9475 O   0  0  0  0  0  0  0  0  0  0  0  0
  -22.1754    3.0976  -14.0412 N   0  0  0  0  0  0  0  0  0  0  0  0
  -22.6791    3.9620  -13.9170 H   0  0  0  0  0  0  0  0  0  0  0  0
  -24.6302   -2.2434  -12.0922 C   0  0  0  0  0  0  0  0  0  0  0  0
  -23.5732   -2.1209  -13.0385 O   0  0  0  0  0  0  0  0  0  0  0  0
 31 32  1  0  0  0
 32 19  1  0  0  0
 19 20  1  0  0  0
 19 24  2  0  0  0
 20 21  2  0  0  0
 21 22  1  0  0  0
 22 23  2  0  0  0
 22 29  1  0  0  0
 23 24  1  0  0  0
 23 25  1  0  0  0
 25 26  2  0  0  0
 25 27  1  0  0  0
 26  1  1  0  0  0
  1  2  2  0  0  0
  1  5  1  0  0  0
  2  3  1  0  0  0
  3  4  2  0  0  0
  3 17  1  0  0  0
  4  5  1  0  0  0
  4  6  1  0  0  0
  5 18  1  0  0  0
  6  7  1  0  0  0
  7  8  1  0  0  0
  8  9  1  0  0  0
  8 17  1  0  0  0
  9 10  2  0  0  0
  9 11  1  0  0  0
 11 12  1  0  0  0
 11 16  1  0  0  0
 12 13  1  0  0  0
 13 14  1  0  0  0
 14 15  1  0  0  0
 15 16  1  0  0  0
 27 28  2  0  0  0
 27 29  1  0  0  0
 29 30  1  0  0  0
M  END
> <minimizedAffinity>
-9.53681

$$$$
