CHEMBL3909951


 31 35  0  0  0  0  0  0  0  0999 V2000
  -28.5171   -7.5395   -5.0646 C   0  0  0  0  0  0  0  0  0  0  0  0
  -29.2313   -7.5673   -3.8692 C   0  0  0  0  0  0  0  0  0  0  0  0
  -29.9037   -6.4392   -3.4478 C   0  0  0  0  0  0  0  0  0  0  0  0
  -29.7647   -5.2434   -4.1018 C   0  0  0  0  0  0  0  0  0  0  0  0
  -30.6373   -4.3023   -3.7360 N   0  0  0  0  0  0  0  0  0  0  0  0
  -30.4194   -3.0736   -4.2164 C   0  0  0  0  0  0  0  0  0  0  0  0
  -29.2909   -2.7536   -4.9466 C   0  0  0  0  0  0  0  0  0  0  0  0
  -28.4657   -3.7362   -5.4361 N   0  0  0  0  0  0  0  0  0  0  0  0
  -28.7609   -5.0542   -5.0600 C   0  0  0  0  0  0  0  0  0  0  0  0
  -28.1896   -6.2606   -5.5935 C   0  0  0  0  0  0  0  0  0  0  0  0
  -28.9201   -1.3412   -4.9337 C   0  0  0  0  0  0  0  0  0  0  0  0
  -29.6769   -0.2291   -5.3916 C   0  0  0  0  0  0  0  0  0  0  0  0
  -28.9330    0.8647   -5.5960 N   0  0  0  0  0  0  0  0  0  0  0  0
  -27.6874    0.4583   -5.3108 N   0  0  0  0  0  0  0  0  0  0  0  0
  -27.6183   -0.8691   -4.9849 C   0  0  0  0  0  0  0  0  0  0  0  0
  -26.9256    1.1206   -5.4322 H   0  0  0  0  0  0  0  0  0  0  0  0
  -28.3887   -8.8070   -5.7295 N   0  0  0  0  0  0  0  0  0  0  0  0
  -28.8298  -10.3512   -9.1474 C   0  0  0  0  0  0  0  0  0  0  0  0
  -30.2050  -10.2438   -9.3200 C   0  0  0  0  0  0  0  0  0  0  0  0
  -30.9709   -9.6413   -8.3253 C   0  0  0  0  0  0  0  0  0  0  0  0
  -30.3588   -9.1318   -7.1690 C   0  0  0  0  0  0  0  0  0  0  0  0
  -28.9905   -9.2959   -6.9173 C   0  0  0  0  0  0  0  0  0  0  0  0
  -28.2469   -9.9139   -7.9494 C   0  0  0  0  0  0  0  0  0  0  0  0
  -27.0984   -9.9787  -10.7332 C   0  0  0  0  0  0  0  0  0  0  0  0
  -27.9752  -10.8954  -10.0841 O   0  0  0  0  0  0  0  0  0  0  0  0
  -32.3345   -9.5081   -8.3639 O   0  0  0  0  0  0  0  0  0  0  0  0
  -32.9373   -8.7785   -7.2988 C   0  0  0  0  0  0  0  0  0  0  0  0
  -27.8169   -9.8136   -4.7693 C   0  0  0  0  0  0  0  0  0  0  0  0
  -26.2975   -9.9049   -4.7739 C   0  0  0  0  0  0  0  0  0  0  0  0
  -25.6105  -10.4493   -3.5337 C   0  0  0  0  0  0  0  0  0  0  0  0
  -25.4183   -9.0143   -3.9136 C   0  0  0  0  0  0  0  0  0  0  0  0
 24 25  1  0  0  0
 25 18  1  0  0  0
 18 19  1  0  0  0
 18 23  2  0  0  0
 19 20  2  0  0  0
 20 26  1  0  0  0
 20 21  1  0  0  0
 26 27  1  0  0  0
 21 22  2  0  0  0
 22 17  1  0  0  0
 22 23  1  0  0  0
 17 28  1  0  0  0
 17  1  1  0  0  0
 28 29  1  0  0  0
 29 30  1  0  0  0
 29 31  1  0  0  0
 30 31  1  0  0  0
  1  2  1  0  0  0
  1 10  2  0  0  0
  2  3  2  0  0  0
  3  4  1  0  0  0
  4  5  1  0  0  0
  4  9  2  0  0  0
  5  6  2  0  0  0
  6  7  1  0  0  0
  7 11  1  0  0  0
  7  8  2  0  0  0
 11 12  1  0  0  0
 11 15  2  0  0  0
 12 13  2  0  0  0
 13 14  1  0  0  0
 14 15  1  0  0  0
 14 16  1  0  0  0
  8  9  1  0  0  0
  9 10  1  0  0  0
M  END
> <minimizedAffinity>
-7.99277

$$$$
