CHEMBL179360


 36 39  0  0  0  0  0  0  0  0999 V2000
  -27.4528   -1.8898  -10.6615 C   0  0  0  0  0  0  0  0  0  0  0  0
  -27.6823   -1.6004  -12.0010 C   0  0  0  0  0  0  0  0  0  0  0  0
  -26.5998   -1.3276  -12.8442 C   0  0  0  0  0  0  0  0  0  0  0  0
  -25.2919   -1.2415  -12.3530 C   0  0  0  0  0  0  0  0  0  0  0  0
  -25.1009   -1.3586  -10.9718 C   0  0  0  0  0  0  0  0  0  0  0  0
  -26.1762   -1.6858  -10.1305 C   0  0  0  0  0  0  0  0  0  0  0  0
  -24.1506   -1.0941  -13.1856 N   0  0  0  0  0  0  0  0  0  0  0  0
  -23.3421    0.0248  -13.2540 C   0  0  0  0  0  0  0  0  0  0  0  0
  -23.4373    1.0058  -12.5194 O   0  0  0  0  0  0  0  0  0  0  0  0
  -22.4085   -0.0389  -14.2826 N   0  0  0  0  0  0  0  0  0  0  0  0
  -23.8902   -1.8848  -13.7533 H   0  0  0  0  0  0  0  0  0  0  0  0
  -22.7325   -0.5114  -15.1149 H   0  0  0  0  0  0  0  0  0  0  0  0
  -21.5010    1.0386  -14.4717 C   0  0  0  0  0  0  0  0  0  0  0  0
  -21.9464    2.3688  -14.4314 C   0  0  0  0  0  0  0  0  0  0  0  0
  -21.0833    3.4274  -14.7186 C   0  0  0  0  0  0  0  0  0  0  0  0
  -19.7587    3.1672  -15.0563 C   0  0  0  0  0  0  0  0  0  0  0  0
  -19.3045    1.8403  -15.0743 C   0  0  0  0  0  0  0  0  0  0  0  0
  -20.1617    0.7723  -14.7558 C   0  0  0  0  0  0  0  0  0  0  0  0
  -17.9212    1.5664  -15.4781 N   0  0  0  0  0  0  0  0  0  0  0  0
  -17.3275    2.4268  -16.1371 O   0  0  0  0  0  0  0  0  0  0  0  0
  -17.4238    0.4815  -15.1316 O   0  0  0  0  0  0  0  0  0  0  0  0
  -28.3967   -2.4149   -9.8096 O   0  0  0  0  0  0  0  0  0  0  0  0
  -28.8136   -5.2891   -5.4216 C   0  0  0  0  0  0  0  0  0  0  0  0
  -28.4298   -3.9664   -5.1408 C   0  0  0  0  0  0  0  0  0  0  0  0
  -28.2372   -3.0061   -6.1240 C   0  0  0  0  0  0  0  0  0  0  0  0
  -27.9542   -1.7570   -5.7213 N   0  0  0  0  0  0  0  0  0  0  0  0
  -27.8119   -0.7979   -6.6571 C   0  0  0  0  0  0  0  0  0  0  0  0
  -27.9668   -1.0218   -8.0063 C   0  0  0  0  0  0  0  0  0  0  0  0
  -28.2627   -2.3171   -8.4354 C   0  0  0  0  0  0  0  0  0  0  0  0
  -28.3605   -3.3700   -7.4750 C   0  0  0  0  0  0  0  0  0  0  0  0
  -28.5840   -4.7431   -7.7462 C   0  0  0  0  0  0  0  0  0  0  0  0
  -28.8923   -5.6854   -6.7543 C   0  0  0  0  0  0  0  0  0  0  0  0
  -30.3765   -6.2031   -3.8947 C   0  0  0  0  0  0  0  0  0  0  0  0
  -29.0508   -6.1994   -4.4253 O   0  0  0  0  0  0  0  0  0  0  0  0
  -29.2633   -6.8733   -7.3104 O   0  0  0  0  0  0  0  0  0  0  0  0
  -30.6213   -7.2386   -7.4689 C   0  0  0  0  0  0  0  0  0  0  0  0
 33 34  1  0  0  0
 34 23  1  0  0  0
 23 24  1  0  0  0
 23 32  2  0  0  0
 24 25  2  0  0  0
 25 26  1  0  0  0
 25 30  1  0  0  0
 26 27  2  0  0  0
 27 28  1  0  0  0
 28 29  2  0  0  0
 29 22  1  0  0  0
 29 30  1  0  0  0
 22  1  1  0  0  0
  1  2  1  0  0  0
  1  6  2  0  0  0
  2  3  2  0  0  0
  3  4  1  0  0  0
  4  7  1  0  0  0
  4  5  2  0  0  0
  7  8  1  0  0  0
  7 11  1  0  0  0
  8  9  2  0  0  0
  8 10  1  0  0  0
 10 13  1  0  0  0
 10 12  1  0  0  0
 13 14  1  0  0  0
 13 18  2  0  0  0
 14 15  2  0  0  0
 15 16  1  0  0  0
 16 17  2  0  0  0
 17 19  1  0  0  0
 17 18  1  0  0  0
 19 20  2  0  0  0
 19 21  1  0  0  0
  5  6  1  0  0  0
 30 31  2  0  0  0
 31 32  1  0  0  0
 32 35  1  0  0  0
 35 36  1  0  0  0
M  CHG 1  19   1
M  CHG 1  21  -1
M  END
> <minimizedAffinity>
-10.14123

$$$$
