CHEMBL3906129


 38 41  0  0  0  0  0  0  0  0999 V2000
  -20.1837    1.5317  -15.2381 C   0  0  0  0  0  0  0  0  0  0  0  0
  -19.9013    2.8923  -15.4113 C   0  0  0  0  0  0  0  0  0  0  0  0
  -18.5870    3.3588  -15.4857 C   0  0  0  0  0  0  0  0  0  0  0  0
  -17.5201    2.4830  -15.3030 C   0  0  0  0  0  0  0  0  0  0  0  0
  -17.7928    1.1218  -15.1686 C   0  0  0  0  0  0  0  0  0  0  0  0
  -16.7871    0.2428  -15.0459 F   0  0  0  0  0  0  0  0  0  0  0  0
  -19.1062    0.6460  -15.1369 C   0  0  0  0  0  0  0  0  0  0  0  0
  -21.6111    0.5907  -12.8884 O   0  0  0  0  0  0  0  0  0  0  0  0
  -22.1180    0.5527  -14.0031 C   0  0  0  0  0  0  0  0  0  0  0  0
  -23.3679    0.0161  -14.2660 N   0  0  0  0  0  0  0  0  0  0  0  0
  -21.4963    1.0133  -15.1568 N   0  0  0  0  0  0  0  0  0  0  0  0
  -23.6190   -0.1327  -15.2297 H   0  0  0  0  0  0  0  0  0  0  0  0
  -22.0406    1.0033  -16.0136 H   0  0  0  0  0  0  0  0  0  0  0  0
  -24.2233   -0.5680  -13.2948 C   0  0  0  0  0  0  0  0  0  0  0  0
  -24.0019   -0.4898  -11.9178 C   0  0  0  0  0  0  0  0  0  0  0  0
  -24.8447   -1.1374  -11.0057 C   0  0  0  0  0  0  0  0  0  0  0  0
  -25.9589   -1.8281  -11.4584 C   0  0  0  0  0  0  0  0  0  0  0  0
  -26.1866   -1.9133  -12.8351 C   0  0  0  0  0  0  0  0  0  0  0  0
  -25.3363   -1.2803  -13.7495 C   0  0  0  0  0  0  0  0  0  0  0  0
  -26.8687   -2.4817  -10.6884 O   0  0  0  0  0  0  0  0  0  0  0  0
  -27.7046   -1.7450   -9.8063 C   0  0  0  0  0  0  0  0  0  0  0  0
  -27.0616   -1.2142   -8.7454 F   0  0  0  0  0  0  0  0  0  0  0  0
  -28.2523   -0.7222  -10.5023 F   0  0  0  0  0  0  0  0  0  0  0  0
  -28.7064   -2.5349   -9.3641 F   0  0  0  0  0  0  0  0  0  0  0  0
  -16.2015    2.8919  -15.2778 O   0  0  0  0  0  0  0  0  0  0  0  0
  -15.5167    2.9952  -16.4784 C   0  0  0  0  0  0  0  0  0  0  0  0
  -14.7539    1.9561  -17.0089 C   0  0  0  0  0  0  0  0  0  0  0  0
  -14.0459    2.2069  -18.1610 C   0  0  0  0  0  0  0  0  0  0  0  0
  -14.1165    3.3714  -18.8279 N   0  0  0  0  0  0  0  0  0  0  0  0
  -14.9217    4.3423  -18.3692 C   0  0  0  0  0  0  0  0  0  0  0  0
  -15.6405    4.1912  -17.1854 C   0  0  0  0  0  0  0  0  0  0  0  0
  -15.0397    5.5362  -19.0986 N   0  0  0  0  0  0  0  0  0  0  0  0
  -14.2627    6.6524  -18.8642 C   0  0  0  0  0  0  0  0  0  0  0  0
  -13.3970    6.7977  -18.0169 O   0  0  0  0  0  0  0  0  0  0  0  0
  -15.7091    5.5575  -19.8519 H   0  0  0  0  0  0  0  0  0  0  0  0
  -14.5429    7.7903  -19.8002 C   0  0  0  0  0  0  0  0  0  0  0  0
  -14.1258    9.1878  -19.3998 C   0  0  0  0  0  0  0  0  0  0  0  0
  -15.5822    8.8248  -19.4235 C   0  0  0  0  0  0  0  0  0  0  0  0
  8  9  2  0  0  0
  9 10  1  0  0  0
  9 11  1  0  0  0
 10 14  1  0  0  0
 10 12  1  0  0  0
 14 15  1  0  0  0
 14 19  2  0  0  0
 15 16  2  0  0  0
 16 17  1  0  0  0
 17 20  1  0  0  0
 17 18  2  0  0  0
 20 21  1  0  0  0
 21 22  1  0  0  0
 21 23  1  0  0  0
 21 24  1  0  0  0
 18 19  1  0  0  0
 11  1  1  0  0  0
 11 13  1  0  0  0
  1  2  1  0  0  0
  1  7  2  0  0  0
  2  3  2  0  0  0
  3  4  1  0  0  0
  4 25  1  0  0  0
  4  5  2  0  0  0
 25 26  1  0  0  0
 26 27  1  0  0  0
 26 31  2  0  0  0
 27 28  2  0  0  0
 28 29  1  0  0  0
 29 30  2  0  0  0
 30 32  1  0  0  0
 30 31  1  0  0  0
 32 33  1  0  0  0
 32 35  1  0  0  0
 33 34  2  0  0  0
 33 36  1  0  0  0
 36 37  1  0  0  0
 36 38  1  0  0  0
 37 38  1  0  0  0
  5  6  1  0  0  0
  5  7  1  0  0  0
M  END
> <minimizedAffinity>
-9.39202

$$$$
