CHEMBL482967


 29 32  0  0  0  0  0  0  0  0999 V2000
  -23.0324    0.7518  -13.6978 C   0  0  0  0  0  0  0  0  0  0  0  0
  -23.2684    2.1076  -13.5929 C   0  0  0  0  0  0  0  0  0  0  0  0
  -22.2750    2.9205  -14.0526 C   0  0  0  0  0  0  0  0  0  0  0  0
  -21.1314    2.4467  -14.5610 N   0  0  0  0  0  0  0  0  0  0  0  0
  -20.9530    1.1170  -14.6125 C   0  0  0  0  0  0  0  0  0  0  0  0
  -21.8803    0.2424  -14.1957 N   0  0  0  0  0  0  0  0  0  0  0  0
  -25.0528   -1.0155  -15.5386 C   0  0  0  0  0  0  0  0  0  0  0  0
  -24.9233   -1.0001  -14.0565 C   0  0  0  0  0  0  0  0  0  0  0  0
  -25.7546   -1.8408  -13.3232 N   0  0  0  0  0  0  0  0  0  0  0  0
  -25.5040   -1.7288  -12.0468 C   0  0  0  0  0  0  0  0  0  0  0  0
  -26.1639   -2.4138  -11.0991 N   0  0  0  0  0  0  0  0  0  0  0  0
  -24.2786   -0.6160  -11.6318 S   0  0  0  0  0  0  0  0  0  0  0  0
  -24.0367   -0.2438  -13.2994 C   0  0  0  0  0  0  0  0  0  0  0  0
  -27.0538   -2.8027  -11.3889 H   0  0  0  0  0  0  0  0  0  0  0  0
  -26.1576   -2.0455  -10.1563 H   0  0  0  0  0  0  0  0  0  0  0  0
  -19.7772    0.5998  -15.1682 N   0  0  0  0  0  0  0  0  0  0  0  0
  -19.9640   -0.1812  -15.7764 H   0  0  0  0  0  0  0  0  0  0  0  0
  -18.4929    1.1621  -15.1695 C   0  0  0  0  0  0  0  0  0  0  0  0
  -18.2525    2.4368  -15.6816 C   0  0  0  0  0  0  0  0  0  0  0  0
  -16.9578    2.9253  -15.8412 C   0  0  0  0  0  0  0  0  0  0  0  0
  -15.8345    2.1698  -15.4983 C   0  0  0  0  0  0  0  0  0  0  0  0
  -16.0740    0.9204  -14.9166 C   0  0  0  0  0  0  0  0  0  0  0  0
  -17.3820    0.4178  -14.7606 C   0  0  0  0  0  0  0  0  0  0  0  0
  -14.5795    2.6944  -15.7136 N   0  0  0  0  0  0  0  0  0  0  0  0
  -13.4325    1.9028  -16.1670 C   0  0  0  0  0  0  0  0  0  0  0  0
  -12.1590    2.4872  -15.5190 C   0  0  0  0  0  0  0  0  0  0  0  0
  -12.0044    3.8950  -15.7845 O   0  0  0  0  0  0  0  0  0  0  0  0
  -13.1481    4.6248  -15.3040 C   0  0  0  0  0  0  0  0  0  0  0  0
  -14.4328    4.1369  -15.9844 C   0  0  0  0  0  0  0  0  0  0  0  0
  7  8  1  0  0  0
  8  9  1  0  0  0
  8 13  2  0  0  0
  9 10  2  0  0  0
 10 11  1  0  0  0
 10 12  1  0  0  0
 11 14  1  0  0  0
 11 15  1  0  0  0
 12 13  1  0  0  0
 13  1  1  0  0  0
  1  2  1  0  0  0
  1  6  2  0  0  0
  2  3  2  0  0  0
  3  4  1  0  0  0
  4  5  2  0  0  0
  5 16  1  0  0  0
  5  6  1  0  0  0
 16 18  1  0  0  0
 16 17  1  0  0  0
 18 19  1  0  0  0
 18 23  2  0  0  0
 19 20  2  0  0  0
 20 21  1  0  0  0
 21 24  1  0  0  0
 21 22  2  0  0  0
 24 25  1  0  0  0
 24 29  1  0  0  0
 25 26  1  0  0  0
 26 27  1  0  0  0
 27 28  1  0  0  0
 28 29  1  0  0  0
 22 23  1  0  0  0
M  END
> <minimizedAffinity>
-8.42649

$$$$
