CHEMBL4587222


 53 58  0  0  0  0  0  0  0  0999 V2000
  -23.4318   -0.6720  -13.4605 C   0  0  0  0  0  0  0  0  0  0  0  0
  -23.4022   -0.7254  -12.0712 C   0  0  0  0  0  0  0  0  0  0  0  0
  -22.3224   -0.3096  -11.3941 F   0  0  0  0  0  0  0  0  0  0  0  0
  -24.4581   -1.2677  -11.3479 C   0  0  0  0  0  0  0  0  0  0  0  0
  -25.6171   -1.7148  -11.9907 C   0  0  0  0  0  0  0  0  0  0  0  0
  -25.7242   -1.5060  -13.3707 C   0  0  0  0  0  0  0  0  0  0  0  0
  -24.6312   -0.9980  -14.0928 C   0  0  0  0  0  0  0  0  0  0  0  0
  -24.7515   -0.8558  -15.4228 F   0  0  0  0  0  0  0  0  0  0  0  0
  -26.6815   -2.3169  -11.2723 N   0  0  0  0  0  0  0  0  0  0  0  0
  -26.8108   -2.2790   -9.8876 C   0  0  0  0  0  0  0  0  0  0  0  0
  -25.9145   -2.0015   -9.0979 O   0  0  0  0  0  0  0  0  0  0  0  0
  -28.1079   -2.5457   -9.4638 N   0  0  0  0  0  0  0  0  0  0  0  0
  -27.3547   -2.8607  -11.7922 H   0  0  0  0  0  0  0  0  0  0  0  0
  -28.5736   -3.3548   -9.8558 H   0  0  0  0  0  0  0  0  0  0  0  0
  -28.4610   -2.1992   -8.1227 N   0  0  0  0  0  0  0  0  0  0  0  0
  -28.6738   -0.8670   -7.7763 C   0  0  0  0  0  0  0  0  0  0  0  0
  -28.8399    0.0578   -8.5660 O   0  0  0  0  0  0  0  0  0  0  0  0
  -28.6702   -0.6734   -6.2747 C   0  0  0  0  0  0  0  0  0  0  0  0
  -28.6124   -2.3135   -5.5103 S   0  0  0  0  0  0  0  0  0  0  0  0
  -28.1889   -3.1455   -7.0647 C   0  0  0  0  0  0  0  0  0  0  0  0
  -28.9205   -4.4458   -7.2622 C   0  0  0  0  0  0  0  0  0  0  0  0
  -28.3858   -5.5113   -7.9936 C   0  0  0  0  0  0  0  0  0  0  0  0
  -27.2098   -5.3820   -8.6213 F   0  0  0  0  0  0  0  0  0  0  0  0
  -29.0371   -6.7443   -8.0681 C   0  0  0  0  0  0  0  0  0  0  0  0
  -30.2426   -6.9301   -7.4005 C   0  0  0  0  0  0  0  0  0  0  0  0
  -30.8063   -5.8739   -6.6858 C   0  0  0  0  0  0  0  0  0  0  0  0
  -30.1457   -4.6480   -6.6303 C   0  0  0  0  0  0  0  0  0  0  0  0
  -30.6946   -3.6602   -5.9095 F   0  0  0  0  0  0  0  0  0  0  0  0
  -22.3401   -0.3082  -14.2224 O   0  0  0  0  0  0  0  0  0  0  0  0
  -17.9796    2.1801  -15.0352 C   0  0  0  0  0  0  0  0  0  0  0  0
  -19.0258    3.1158  -14.9009 C   0  0  0  0  0  0  0  0  0  0  0  0
  -20.3537    2.7510  -14.6865 C   0  0  0  0  0  0  0  0  0  0  0  0
  -21.2725    3.7268  -14.5463 N   0  0  0  0  0  0  0  0  0  0  0  0
  -22.5352    3.3657  -14.2459 C   0  0  0  0  0  0  0  0  0  0  0  0
  -22.9378    2.0593  -14.0699 C   0  0  0  0  0  0  0  0  0  0  0  0
  -22.0116    1.0428  -14.3137 C   0  0  0  0  0  0  0  0  0  0  0  0
  -20.6693    1.3884  -14.6057 C   0  0  0  0  0  0  0  0  0  0  0  0
  -19.6340    0.4500  -14.7971 C   0  0  0  0  0  0  0  0  0  0  0  0
  -18.2845    0.8191  -14.9901 C   0  0  0  0  0  0  0  0  0  0  0  0
  -17.5065   -0.2785  -15.1655 O   0  0  0  0  0  0  0  0  0  0  0  0
  -16.4284   -0.5745  -14.3004 C   0  0  0  0  0  0  0  0  0  0  0  0
  -16.7663    2.7993  -15.1516 O   0  0  0  0  0  0  0  0  0  0  0  0
  -16.6045    3.9790  -15.9245 C   0  0  0  0  0  0  0  0  0  0  0  0
  -15.1770    4.4834  -16.0997 C   0  0  0  0  0  0  0  0  0  0  0  0
  -14.2242    3.3797  -15.6506 C   0  0  0  0  0  0  0  0  0  0  0  0
  -13.7208   -0.1521  -16.7653 N   0  0  0  0  0  0  0  0  0  0  0  0
  -14.6814    0.8057  -17.3578 C   0  0  0  0  0  0  0  0  0  0  0  0
  -14.0454    2.1498  -17.7813 C   0  0  0  0  0  0  0  0  0  0  0  0
  -13.3343    2.8497  -16.6908 N   0  0  0  0  0  0  0  0  0  0  0  0
  -12.3830    1.9062  -16.0527 C   0  0  0  0  0  0  0  0  0  0  0  0
  -13.0065    0.5357  -15.6599 C   0  0  0  0  0  0  0  0  0  0  0  0
  -13.3357   -1.3899  -18.9293 C   0  0  0  0  0  0  0  0  0  0  0  0
  -12.7351   -0.6618  -17.7346 C   0  0  0  0  0  0  0  0  0  0  0  0
 52 53  1  0  0  0
 53 46  1  0  0  0
 46 47  1  0  0  0
 46 51  1  0  0  0
 47 48  1  0  0  0
 48 49  1  0  0  0
 49 45  1  0  0  0
 49 50  1  0  0  0
 45 44  1  0  0  0
 44 43  1  0  0  0
 43 42  1  0  0  0
 42 30  1  0  0  0
 30 31  1  0  0  0
 30 39  2  0  0  0
 31 32  2  0  0  0
 32 33  1  0  0  0
 32 37  1  0  0  0
 33 34  2  0  0  0
 34 35  1  0  0  0
 35 36  2  0  0  0
 36 29  1  0  0  0
 36 37  1  0  0  0
 29  1  1  0  0  0
  1  2  1  0  0  0
  1  7  2  0  0  0
  2  3  1  0  0  0
  2  4  2  0  0  0
  4  5  1  0  0  0
  5  9  1  0  0  0
  5  6  2  0  0  0
  9 10  1  0  0  0
  9 13  1  0  0  0
 10 11  2  0  0  0
 10 12  1  0  0  0
 12 15  1  0  0  0
 12 14  1  0  0  0
 15 16  1  0  0  0
 15 20  1  0  0  0
 16 17  2  0  0  0
 16 18  1  0  0  0
 18 19  1  0  0  0
 19 20  1  0  0  0
 20 21  1  0  0  0
 21 22  1  0  0  0
 21 27  2  0  0  0
 22 23  1  0  0  0
 22 24  2  0  0  0
 24 25  1  0  0  0
 25 26  2  0  0  0
 26 27  1  0  0  0
 27 28  1  0  0  0
  6  7  1  0  0  0
  7  8  1  0  0  0
 37 38  2  0  0  0
 38 39  1  0  0  0
 39 40  1  0  0  0
 40 41  1  0  0  0
 50 51  1  0  0  0
M  END
> <minimizedAffinity>
-8.59779

$$$$
