CHEMBL468184


 32 36  0  0  0  0  0  0  0  0999 V2000
  -30.6985   -9.6348   -7.4375 C   0  0  0  0  0  0  0  0  0  0  0  0
  -31.1150  -10.3627   -8.5628 C   0  0  0  0  0  0  0  0  0  0  0  0
  -31.2637  -11.7434   -8.4990 C   0  0  0  0  0  0  0  0  0  0  0  0
  -30.7848  -12.4310   -7.3968 C   0  0  0  0  0  0  0  0  0  0  0  0
  -30.1832  -11.7232   -6.3558 C   0  0  0  0  0  0  0  0  0  0  0  0
  -30.2093  -10.3183   -6.2983 C   0  0  0  0  0  0  0  0  0  0  0  0
  -30.8679   -8.1541   -7.4913 C   0  0  0  0  0  0  0  0  0  0  0  0
  -31.9688   -7.6658   -7.2531 O   0  0  0  0  0  0  0  0  0  0  0  0
  -28.2323   -1.7945   -7.6838 C   0  0  0  0  0  0  0  0  0  0  0  0
  -28.6602   -3.2265   -7.6638 C   0  0  0  0  0  0  0  0  0  0  0  0
  -29.8657   -3.5564   -7.0589 C   0  0  0  0  0  0  0  0  0  0  0  0
  -30.2716   -4.8782   -6.9981 C   0  0  0  0  0  0  0  0  0  0  0  0
  -29.5111   -5.8986   -7.5980 C   0  0  0  0  0  0  0  0  0  0  0  0
  -29.7118   -7.3032   -7.8023 C   0  0  0  0  0  0  0  0  0  0  0  0
  -28.5581   -7.7720   -8.4032 C   0  0  0  0  0  0  0  0  0  0  0  0
  -27.7292   -6.7116   -8.6544 N   0  0  0  0  0  0  0  0  0  0  0  0
  -28.2974   -5.5483   -8.1882 C   0  0  0  0  0  0  0  0  0  0  0  0
  -27.8458   -4.2217   -8.2359 C   0  0  0  0  0  0  0  0  0  0  0  0
  -26.8374   -6.7702   -9.1277 H   0  0  0  0  0  0  0  0  0  0  0  0
  -29.8422   -9.6789   -5.1214 N   0  0  0  0  0  0  0  0  0  0  0  0
  -30.5527   -9.6881   -4.3946 H   0  0  0  0  0  0  0  0  0  0  0  0
  -28.5713   -9.0079   -4.8950 C   0  0  0  0  0  0  0  0  0  0  0  0
  -28.6760   -7.5670   -4.4554 C   0  0  0  0  0  0  0  0  0  0  0  0
  -29.9312   -7.2348   -3.9174 C   0  0  0  0  0  0  0  0  0  0  0  0
  -30.1458   -6.0113   -3.4341 C   0  0  0  0  0  0  0  0  0  0  0  0
  -29.1804   -5.1371   -3.7037 C   0  0  0  0  0  0  0  0  0  0  0  0
  -29.5667   -3.9337   -3.5256 N   0  0  0  0  0  0  0  0  0  0  0  0
  -30.0071   -2.7663   -3.3162 C   0  0  0  0  0  0  0  0  0  0  0  0
  -28.7493   -2.4922   -3.7443 C   0  0  0  0  0  0  0  0  0  0  0  0
  -27.5936   -3.5973   -4.2198 C   0  0  0  0  0  0  0  0  0  0  0  0
  -27.9467   -5.1340   -4.2340 C   0  0  0  0  0  0  0  0  0  0  0  0
  -27.6339   -6.5706   -4.5090 C   0  0  0  0  0  0  0  0  0  0  0  0
  9 10  1  0  0  0
 10 11  1  0  0  0
 10 18  2  0  0  0
 11 12  2  0  0  0
 12 13  1  0  0  0
 13 14  1  0  0  0
 13 17  2  0  0  0
 14  7  1  0  0  0
 14 15  2  0  0  0
  7  8  2  0  0  0
  7  1  1  0  0  0
  1  2  1  0  0  0
  1  6  2  0  0  0
  2  3  2  0  0  0
  3  4  1  0  0  0
  4  5  2  0  0  0
  5  6  1  0  0  0
  6 20  1  0  0  0
 20 22  1  0  0  0
 20 21  1  0  0  0
 22 23  1  0  0  0
 23 24  1  0  0  0
 23 32  2  0  0  0
 24 25  2  0  0  0
 25 26  1  0  0  0
 26 27  1  0  0  0
 26 31  2  0  0  0
 27 28  2  0  0  0
 28 29  1  0  0  0
 29 30  2  0  0  0
 30 31  1  0  0  0
 31 32  1  0  0  0
 15 16  1  0  0  0
 16 17  1  0  0  0
 16 19  1  0  0  0
 17 18  1  0  0  0
M  END
> <minimizedAffinity>
-8.34333

$$$$
