CHEMBL3951360


 34 37  0  0  0  0  0  0  0  0999 V2000
  -27.8532   -9.3562   -5.8982 N   0  0  0  0  0  0  0  0  0  0  0  0
  -28.4697   -8.1752   -5.4088 C   0  0  0  0  0  0  0  0  0  0  0  0
  -29.2339   -8.2299   -4.2371 C   0  0  0  0  0  0  0  0  0  0  0  0
  -29.7889   -7.0761   -3.6850 C   0  0  0  0  0  0  0  0  0  0  0  0
  -29.5880   -5.8378   -4.2674 C   0  0  0  0  0  0  0  0  0  0  0  0
  -30.1110   -4.7497   -3.6794 N   0  0  0  0  0  0  0  0  0  0  0  0
  -29.8446   -3.5643   -4.2754 C   0  0  0  0  0  0  0  0  0  0  0  0
  -29.0785   -3.4489   -5.4260 C   0  0  0  0  0  0  0  0  0  0  0  0
  -28.5679   -4.5489   -6.0338 N   0  0  0  0  0  0  0  0  0  0  0  0
  -28.8235   -5.7446   -5.4538 C   0  0  0  0  0  0  0  0  0  0  0  0
  -28.3079   -6.9135   -6.0091 C   0  0  0  0  0  0  0  0  0  0  0  0
  -28.7739   -2.1495   -6.0014 C   0  0  0  0  0  0  0  0  0  0  0  0
  -27.8967   -1.7852   -7.0463 C   0  0  0  0  0  0  0  0  0  0  0  0
  -27.9108   -0.4752   -7.3079 N   0  0  0  0  0  0  0  0  0  0  0  0
  -28.8061    0.0096   -6.4314 N   0  0  0  0  0  0  0  0  0  0  0  0
  -29.1139    1.4187   -6.4244 C   0  0  0  0  0  0  0  0  0  0  0  0
  -29.3470   -0.9473   -5.6247 C   0  0  0  0  0  0  0  0  0  0  0  0
  -24.3932  -10.7821   -6.3530 C   0  0  0  0  0  0  0  0  0  0  0  0
  -23.8943  -10.7121   -5.0601 C   0  0  0  0  0  0  0  0  0  0  0  0
  -24.6893  -10.1660   -4.0616 C   0  0  0  0  0  0  0  0  0  0  0  0
  -24.2086  -10.1017   -2.8117 F   0  0  0  0  0  0  0  0  0  0  0  0
  -25.9795   -9.6999   -4.3175 C   0  0  0  0  0  0  0  0  0  0  0  0
  -26.5220   -9.7633   -5.6065 C   0  0  0  0  0  0  0  0  0  0  0  0
  -25.6886  -10.3034   -6.6137 C   0  0  0  0  0  0  0  0  0  0  0  0
  -24.4194  -12.2736   -8.2101 C   0  0  0  0  0  0  0  0  0  0  0  0
  -23.7308  -11.2953   -7.4363 O   0  0  0  0  0  0  0  0  0  0  0  0
  -28.7205  -10.3030   -6.6443 C   0  0  0  0  0  0  0  0  0  0  0  0
  -29.5871   -9.6367   -7.7281 C   0  0  0  0  0  0  0  0  0  0  0  0
  -28.8100   -9.1484   -8.9521 C   0  0  0  0  0  0  0  0  0  0  0  0
  -29.5346   -9.6016  -10.1461 N   0  0  0  0  0  0  0  0  0  0  0  0
  -29.7767   -8.7840  -10.7096 H   0  0  0  0  0  0  0  0  0  0  0  0
  -28.7953  -10.5473  -10.9897 C   0  0  0  0  0  0  0  0  0  0  0  0
  -28.8380  -10.1645  -12.4688 C   0  0  0  0  0  0  0  0  0  0  0  0
  -27.3378  -10.5592  -10.5124 C   0  0  0  0  0  0  0  0  0  0  0  0
 25 26  1  0  0  0
 26 18  1  0  0  0
 18 19  1  0  0  0
 18 24  2  0  0  0
 19 20  2  0  0  0
 20 21  1  0  0  0
 20 22  1  0  0  0
 22 23  2  0  0  0
 23  1  1  0  0  0
 23 24  1  0  0  0
  1 27  1  0  0  0
  1  2  1  0  0  0
 27 28  1  0  0  0
 28 29  1  0  0  0
 29 30  1  0  0  0
 30 32  1  0  0  0
 30 31  1  0  0  0
 32 33  1  0  0  0
 32 34  1  0  0  0
  2  3  1  0  0  0
  2 11  2  0  0  0
  3  4  2  0  0  0
  4  5  1  0  0  0
  5  6  1  0  0  0
  5 10  2  0  0  0
  6  7  2  0  0  0
  7  8  1  0  0  0
  8 12  1  0  0  0
  8  9  2  0  0  0
 12 13  1  0  0  0
 12 17  2  0  0  0
 13 14  2  0  0  0
 14 15  1  0  0  0
 15 16  1  0  0  0
 15 17  1  0  0  0
  9 10  1  0  0  0
 10 11  1  0  0  0
M  END
> <minimizedAffinity>
-7.78061

$$$$
