CHEMBL1242755


 27 31  0  0  0  0  0  0  0  0999 V2000
  -16.2646   -0.4837  -14.1709 N   0  0  0  0  0  0  0  0  0  0  0  0
  -15.3839    0.2799  -14.9266 C   0  0  0  0  0  0  0  0  0  0  0  0
  -14.1556   -0.2604  -15.0754 N   0  0  0  0  0  0  0  0  0  0  0  0
  -13.2614    0.3611  -15.8610 C   0  0  0  0  0  0  0  0  0  0  0  0
  -13.4265    1.4930  -16.5497 N   0  0  0  0  0  0  0  0  0  0  0  0
  -14.6520    2.0211  -16.3506 C   0  0  0  0  0  0  0  0  0  0  0  0
  -15.6738    1.4974  -15.5671 C   0  0  0  0  0  0  0  0  0  0  0  0
  -16.7487    2.4394  -15.7038 C   0  0  0  0  0  0  0  0  0  0  0  0
  -16.3873    3.4458  -16.5243 N   0  0  0  0  0  0  0  0  0  0  0  0
  -15.1412    3.1524  -16.9238 N   0  0  0  0  0  0  0  0  0  0  0  0
  -15.8404   -1.3931  -14.0039 H   0  0  0  0  0  0  0  0  0  0  0  0
  -17.1770   -0.5625  -14.6030 H   0  0  0  0  0  0  0  0  0  0  0  0
  -18.1157    2.4573  -15.1711 C   0  0  0  0  0  0  0  0  0  0  0  0
  -18.8092    3.6674  -15.1509 C   0  0  0  0  0  0  0  0  0  0  0  0
  -20.0654    3.8368  -14.6795 N   0  0  0  0  0  0  0  0  0  0  0  0
  -20.7572    2.7467  -14.3654 C   0  0  0  0  0  0  0  0  0  0  0  0
  -22.0850    2.8709  -14.0370 C   0  0  0  0  0  0  0  0  0  0  0  0
  -22.9479    1.7839  -14.1321 C   0  0  0  0  0  0  0  0  0  0  0  0
  -22.4236    0.5038  -14.2671 C   0  0  0  0  0  0  0  0  0  0  0  0
  -21.0382    0.3344  -14.3015 C   0  0  0  0  0  0  0  0  0  0  0  0
  -20.1962    1.4543  -14.4329 C   0  0  0  0  0  0  0  0  0  0  0  0
  -18.8201    1.3464  -14.7190 C   0  0  0  0  0  0  0  0  0  0  0  0
  -14.4799    3.9953  -17.8974 C   0  0  0  0  0  0  0  0  0  0  0  0
  -13.6788    5.1457  -17.2863 C   0  0  0  0  0  0  0  0  0  0  0  0
  -13.5438    6.1749  -18.4071 C   0  0  0  0  0  0  0  0  0  0  0  0
  -14.5869    5.8128  -19.4635 C   0  0  0  0  0  0  0  0  0  0  0  0
  -15.4405    4.7123  -18.8483 C   0  0  0  0  0  0  0  0  0  0  0  0
  1  2  1  0  0  0
  1 11  1  0  0  0
  1 12  1  0  0  0
  2  3  1  0  0  0
  2  7  2  0  0  0
  3  4  2  0  0  0
  4  5  1  0  0  0
  5  6  2  0  0  0
  6  7  1  0  0  0
  6 10  1  0  0  0
  7  8  1  0  0  0
  8 13  1  0  0  0
  8  9  2  0  0  0
 13 14  1  0  0  0
 13 22  2  0  0  0
 14 15  2  0  0  0
 15 16  1  0  0  0
 16 17  1  0  0  0
 16 21  2  0  0  0
 17 18  2  0  0  0
 18 19  1  0  0  0
 19 20  2  0  0  0
 20 21  1  0  0  0
 21 22  1  0  0  0
  9 10  1  0  0  0
 10 23  1  0  0  0
 23 24  1  0  0  0
 23 27  1  0  0  0
 24 25  1  0  0  0
 25 26  1  0  0  0
 26 27  1  0  0  0
M  END
> <minimizedAffinity>
-8.43115

$$$$
