CHEMBL4449700


 27 30  0  0  0  0  0  0  0  0999 V2000
  -23.2333    0.3818  -13.7166 C   0  0  0  0  0  0  0  0  0  0  0  0
  -23.8999   -0.4464  -14.6372 C   0  0  0  0  0  0  0  0  0  0  0  0
  -24.9598   -1.2725  -14.2442 C   0  0  0  0  0  0  0  0  0  0  0  0
  -25.3792   -1.3013  -12.9110 C   0  0  0  0  0  0  0  0  0  0  0  0
  -24.7278   -0.4789  -11.9825 C   0  0  0  0  0  0  0  0  0  0  0  0
  -23.6750    0.3476  -12.3848 C   0  0  0  0  0  0  0  0  0  0  0  0
  -19.9486    2.8513  -14.7698 C   0  0  0  0  0  0  0  0  0  0  0  0
  -19.8049    1.4844  -14.9375 C   0  0  0  0  0  0  0  0  0  0  0  0
  -20.8913    0.6645  -14.6239 C   0  0  0  0  0  0  0  0  0  0  0  0
  -22.0823    1.2100  -14.1289 C   0  0  0  0  0  0  0  0  0  0  0  0
  -22.1067    2.6016  -14.0156 C   0  0  0  0  0  0  0  0  0  0  0  0
  -21.0844    3.4271  -14.3333 N   0  0  0  0  0  0  0  0  0  0  0  0
  -17.8899    2.9639  -15.8449 C   0  0  0  0  0  0  0  0  0  0  0  0
  -18.8540    3.6411  -15.0390 O   0  0  0  0  0  0  0  0  0  0  0  0
  -26.4891   -2.2259  -12.4666 C   0  0  0  0  0  0  0  0  0  0  0  0
  -27.0594   -1.8040  -11.2005 N   0  0  0  0  0  0  0  0  0  0  0  0
  -26.8095   -2.3019   -9.9541 C   0  0  0  0  0  0  0  0  0  0  0  0
  -27.6884   -1.6184   -9.1449 C   0  0  0  0  0  0  0  0  0  0  0  0
  -28.3690   -0.6963   -9.8980 N   0  0  0  0  0  0  0  0  0  0  0  0
  -27.9556   -0.8008  -11.1554 N   0  0  0  0  0  0  0  0  0  0  0  0
  -27.9303   -1.8696   -7.7387 C   0  0  0  0  0  0  0  0  0  0  0  0
  -28.4817   -3.0781   -7.2944 C   0  0  0  0  0  0  0  0  0  0  0  0
  -28.7468   -3.2824   -5.9366 C   0  0  0  0  0  0  0  0  0  0  0  0
  -28.4686   -2.2807   -5.0012 C   0  0  0  0  0  0  0  0  0  0  0  0
  -28.7575   -2.4853   -3.5439 C   0  0  0  0  0  0  0  0  0  0  0  0
  -27.9118   -1.0749   -5.4418 C   0  0  0  0  0  0  0  0  0  0  0  0
  -27.6399   -0.8739   -6.7984 C   0  0  0  0  0  0  0  0  0  0  0  0
 13 14  1  0  0  0
 14  7  1  0  0  0
  7  8  1  0  0  0
  7 12  2  0  0  0
  8  9  2  0  0  0
  9 10  1  0  0  0
 10  1  1  0  0  0
 10 11  2  0  0  0
  1  2  1  0  0  0
  1  6  2  0  0  0
  2  3  2  0  0  0
  3  4  1  0  0  0
  4 15  1  0  0  0
  4  5  2  0  0  0
 15 16  1  0  0  0
 16 17  1  0  0  0
 16 20  1  0  0  0
 17 18  2  0  0  0
 18 21  1  0  0  0
 18 19  1  0  0  0
 21 22  1  0  0  0
 21 27  2  0  0  0
 22 23  2  0  0  0
 23 24  1  0  0  0
 24 25  1  0  0  0
 24 26  2  0  0  0
 26 27  1  0  0  0
 19 20  2  0  0  0
  5  6  1  0  0  0
 11 12  1  0  0  0
M  END
> <minimizedAffinity>
-10.15761

$$$$
