CHEMBL4437475


 34 37  0  0  0  0  0  0  0  0999 V2000
  -21.2523    1.1593  -14.5426 C   0  0  0  0  0  0  0  0  0  0  0  0
  -21.0110    2.4962  -14.2413 C   0  0  0  0  0  0  0  0  0  0  0  0
  -19.7769    3.0867  -14.5263 C   0  0  0  0  0  0  0  0  0  0  0  0
  -18.7295    2.3600  -15.1005 C   0  0  0  0  0  0  0  0  0  0  0  0
  -18.9625    1.0073  -15.3816 C   0  0  0  0  0  0  0  0  0  0  0  0
  -20.2069    0.4082  -15.0938 C   0  0  0  0  0  0  0  0  0  0  0  0
  -22.2398   -0.0769  -12.0723 O   0  0  0  0  0  0  0  0  0  0  0  0
  -22.8889   -0.0512  -13.1126 C   0  0  0  0  0  0  0  0  0  0  0  0
  -22.5054    0.5414  -14.3097 N   0  0  0  0  0  0  0  0  0  0  0  0
  -23.2156    0.6734  -15.0178 H   0  0  0  0  0  0  0  0  0  0  0  0
  -24.2443   -0.6599  -13.0717 C   0  0  0  0  0  0  0  0  0  0  0  0
  -24.7355   -1.2377  -14.2540 C   0  0  0  0  0  0  0  0  0  0  0  0
  -26.0314   -1.7535  -14.3057 C   0  0  0  0  0  0  0  0  0  0  0  0
  -26.8431   -1.6820  -13.1763 C   0  0  0  0  0  0  0  0  0  0  0  0
  -28.4509   -2.2890  -13.2442 Cl  0  0  0  0  0  0  0  0  0  0  0  0
  -26.3664   -1.1042  -11.9971 C   0  0  0  0  0  0  0  0  0  0  0  0
  -25.0645   -0.5912  -11.9405 C   0  0  0  0  0  0  0  0  0  0  0  0
  -17.4547    2.9353  -15.3133 N   0  0  0  0  0  0  0  0  0  0  0  0
  -17.4650    3.9567  -15.3526 H   0  0  0  0  0  0  0  0  0  0  0  0
  -16.1862    2.3707  -15.0303 C   0  0  0  0  0  0  0  0  0  0  0  0
  -16.1377    1.1599  -14.3134 C   0  0  0  0  0  0  0  0  0  0  0  0
  -14.9328    0.6291  -13.8934 C   0  0  0  0  0  0  0  0  0  0  0  0
  -13.7548    1.2842  -14.2603 C   0  0  0  0  0  0  0  0  0  0  0  0
  -13.7153    2.4130  -15.0723 C   0  0  0  0  0  0  0  0  0  0  0  0
  -12.5352    2.9129  -15.5034 N   0  0  0  0  0  0  0  0  0  0  0  0
  -12.5474    4.0318  -16.2314 C   0  0  0  0  0  0  0  0  0  0  0  0
  -13.6328    4.7387  -16.5336 N   0  0  0  0  0  0  0  0  0  0  0  0
  -14.7867    4.1995  -16.1146 C   0  0  0  0  0  0  0  0  0  0  0  0
  -15.8476    4.9998  -16.4065 O   0  0  0  0  0  0  0  0  0  0  0  0
  -14.9455    2.9965  -15.4174 C   0  0  0  0  0  0  0  0  0  0  0  0
  -15.3694    5.7949  -16.7125 H   0  0  0  0  0  0  0  0  0  0  0  0
  -12.5210    0.7894  -13.6901 N   0  0  0  0  0  0  0  0  0  0  0  0
  -11.9505   -0.1243  -14.2948 O   0  0  0  0  0  0  0  0  0  0  0  0
  -12.1813    1.2507  -12.5893 O   0  0  0  0  0  0  0  0  0  0  0  0
  7  8  2  0  0  0
  8  9  1  0  0  0
  8 11  1  0  0  0
  9  1  1  0  0  0
  9 10  1  0  0  0
  1  2  1  0  0  0
  1  6  2  0  0  0
  2  3  2  0  0  0
  3  4  1  0  0  0
  4 18  1  0  0  0
  4  5  2  0  0  0
 18 20  1  0  0  0
 18 19  1  0  0  0
 20 21  1  0  0  0
 20 30  2  0  0  0
 21 22  2  0  0  0
 22 23  1  0  0  0
 23 32  1  0  0  0
 23 24  2  0  0  0
 32 33  2  0  0  0
 32 34  1  0  0  0
 24 25  1  0  0  0
 24 30  1  0  0  0
 25 26  2  0  0  0
 26 27  1  0  0  0
 27 28  2  0  0  0
 28 29  1  0  0  0
 28 30  1  0  0  0
 29 31  1  0  0  0
  5  6  1  0  0  0
 11 12  1  0  0  0
 11 17  2  0  0  0
 12 13  2  0  0  0
 13 14  1  0  0  0
 14 15  1  0  0  0
 14 16  2  0  0  0
 16 17  1  0  0  0
M  CHG 1  32   1
M  CHG 1  34  -1
M  END
> <minimizedAffinity>
-10.11115

$$$$
