CHEMBL45942


 26 29  0  0  0  0  0  0  0  0999 V2000
  -28.6180   -6.4042   -7.1862 C   0  0  0  0  0  0  0  0  0  0  0  0
  -28.2755   -5.5681   -8.1787 N   0  0  0  0  0  0  0  0  0  0  0  0
  -28.6605   -4.2864   -8.0813 C   0  0  0  0  0  0  0  0  0  0  0  0
  -29.3937   -3.7970   -7.0331 C   0  0  0  0  0  0  0  0  0  0  0  0
  -29.6648   -4.7068   -6.0336 C   0  0  0  0  0  0  0  0  0  0  0  0
  -29.2795   -6.0028   -6.0925 N   0  0  0  0  0  0  0  0  0  0  0  0
  -30.3728   -4.2703   -4.8800 N   0  0  0  0  0  0  0  0  0  0  0  0
  -31.3844   -4.9708   -4.2529 C   0  0  0  0  0  0  0  0  0  0  0  0
  -31.6230   -4.3056   -3.0777 C   0  0  0  0  0  0  0  0  0  0  0  0
  -30.8792   -3.1633   -3.0123 N   0  0  0  0  0  0  0  0  0  0  0  0
  -30.1714   -3.1064   -4.1345 C   0  0  0  0  0  0  0  0  0  0  0  0
  -29.3794   -1.9299   -4.5391 C   0  0  0  0  0  0  0  0  0  0  0  0
  -30.0286   -0.8334   -5.1244 C   0  0  0  0  0  0  0  0  0  0  0  0
  -29.3103    0.3007   -5.5144 C   0  0  0  0  0  0  0  0  0  0  0  0
  -27.9307    0.3534   -5.3280 C   0  0  0  0  0  0  0  0  0  0  0  0
  -27.2641   -0.7412   -4.7869 C   0  0  0  0  0  0  0  0  0  0  0  0
  -27.9807   -1.8826   -4.4218 C   0  0  0  0  0  0  0  0  0  0  0  0
  -28.3331   -7.7683   -7.2863 N   0  0  0  0  0  0  0  0  0  0  0  0
  -27.5644   -7.9848   -6.6639 H   0  0  0  0  0  0  0  0  0  0  0  0
  -30.8482   -9.0234   -8.0690 C   0  0  0  0  0  0  0  0  0  0  0  0
  -29.5645   -9.2058   -8.8400 C   0  0  0  0  0  0  0  0  0  0  0  0
  -29.5719  -10.0300   -9.9766 C   0  0  0  0  0  0  0  0  0  0  0  0
  -28.4127  -10.2206  -10.7255 C   0  0  0  0  0  0  0  0  0  0  0  0
  -27.2298   -9.6052  -10.3357 C   0  0  0  0  0  0  0  0  0  0  0  0
  -27.2098   -8.7915   -9.2029 C   0  0  0  0  0  0  0  0  0  0  0  0
  -28.3706   -8.5639   -8.4480 C   0  0  0  0  0  0  0  0  0  0  0  0
 20 21  1  0  0  0
 21 22  1  0  0  0
 21 26  2  0  0  0
 22 23  2  0  0  0
 23 24  1  0  0  0
 24 25  2  0  0  0
 25 26  1  0  0  0
 26 18  1  0  0  0
 18  1  1  0  0  0
 18 19  1  0  0  0
  1  2  1  0  0  0
  1  6  2  0  0  0
  2  3  2  0  0  0
  3  4  1  0  0  0
  4  5  2  0  0  0
  5  7  1  0  0  0
  5  6  1  0  0  0
  7  8  1  0  0  0
  7 11  1  0  0  0
  8  9  2  0  0  0
  9 10  1  0  0  0
 10 11  2  0  0  0
 11 12  1  0  0  0
 12 13  1  0  0  0
 12 17  2  0  0  0
 13 14  2  0  0  0
 14 15  1  0  0  0
 15 16  2  0  0  0
 16 17  1  0  0  0
M  END
> <minimizedAffinity>
-8.76820

$$$$
