CHEMBL220317


 30 33  0  0  0  0  0  0  0  0999 V2000
  -28.9910   -7.1305   -6.9954 C   0  0  0  0  0  0  0  0  0  0  0  0
  -28.7456   -7.3671   -5.6330 C   0  0  0  0  0  0  0  0  0  0  0  0
  -28.3741   -6.3346   -4.7590 C   0  0  0  0  0  0  0  0  0  0  0  0
  -28.3481   -5.0224   -5.2146 C   0  0  0  0  0  0  0  0  0  0  0  0
  -28.6714   -4.7461   -6.5373 C   0  0  0  0  0  0  0  0  0  0  0  0
  -28.9692   -5.7877   -7.4184 C   0  0  0  0  0  0  0  0  0  0  0  0
  -32.2589   -7.9386   -6.4984 N   0  0  0  0  0  0  0  0  0  0  0  0
  -31.8535   -8.7765   -7.4622 C   0  0  0  0  0  0  0  0  0  0  0  0
  -32.7115   -9.6571   -7.9718 N   0  0  0  0  0  0  0  0  0  0  0  0
  -31.9901  -10.3206   -8.8746 N   0  0  0  0  0  0  0  0  0  0  0  0
  -30.6933   -9.9030   -8.9818 C   0  0  0  0  0  0  0  0  0  0  0  0
  -29.6675  -10.3752   -9.8058 C   0  0  0  0  0  0  0  0  0  0  0  0
  -28.4345   -9.7447   -9.7094 C   0  0  0  0  0  0  0  0  0  0  0  0
  -28.2484   -8.6897   -8.8189 C   0  0  0  0  0  0  0  0  0  0  0  0
  -29.2783   -8.2123   -7.9632 C   0  0  0  0  0  0  0  0  0  0  0  0
  -30.5508   -8.8554   -8.0628 C   0  0  0  0  0  0  0  0  0  0  0  0
  -33.1785   -8.1304   -6.1163 H   0  0  0  0  0  0  0  0  0  0  0  0
  -31.6007   -7.6234   -5.7974 H   0  0  0  0  0  0  0  0  0  0  0  0
  -32.4400  -11.0668   -9.3935 H   0  0  0  0  0  0  0  0  0  0  0  0
  -27.9628   -3.9568   -4.3582 N   0  0  0  0  0  0  0  0  0  0  0  0
  -27.1352   -3.4169   -4.6061 H   0  0  0  0  0  0  0  0  0  0  0  0
  -29.1736   -2.9733   -3.6985 S   0  0  0  0  0  0  0  0  0  0  0  0
  -30.4369   -3.5763   -4.0841 O   0  0  0  0  0  0  0  0  0  0  0  0
  -28.8588   -2.7309   -2.3048 O   0  0  0  0  0  0  0  0  0  0  0  0
  -29.0105   -1.4613   -4.6065 C   0  0  0  0  0  0  0  0  0  0  0  0
  -27.7385   -0.9112   -4.7944 C   0  0  0  0  0  0  0  0  0  0  0  0
  -27.6138    0.3280   -5.4233 C   0  0  0  0  0  0  0  0  0  0  0  0
  -28.7512    0.9982   -5.8783 C   0  0  0  0  0  0  0  0  0  0  0  0
  -30.0172    0.4319   -5.7087 C   0  0  0  0  0  0  0  0  0  0  0  0
  -30.1521   -0.7997   -5.0697 C   0  0  0  0  0  0  0  0  0  0  0  0
  7  8  1  0  0  0
  7 17  1  0  0  0
  7 18  1  0  0  0
  8  9  2  0  0  0
  8 16  1  0  0  0
  9 10  1  0  0  0
 10 11  1  0  0  0
 10 19  1  0  0  0
 11 12  1  0  0  0
 11 16  2  0  0  0
 12 13  2  0  0  0
 13 14  1  0  0  0
 14 15  2  0  0  0
 15  1  1  0  0  0
 15 16  1  0  0  0
  1  2  1  0  0  0
  1  6  2  0  0  0
  2  3  2  0  0  0
  3  4  1  0  0  0
  4 20  1  0  0  0
  4  5  2  0  0  0
 20 22  1  0  0  0
 20 21  1  0  0  0
 22 23  2  0  0  0
 22 24  2  0  0  0
 22 25  1  0  0  0
 25 26  1  0  0  0
 25 30  2  0  0  0
 26 27  2  0  0  0
 27 28  1  0  0  0
 28 29  2  0  0  0
 29 30  1  0  0  0
  5  6  1  0  0  0
M  END
> <minimizedAffinity>
-9.74949

$$$$
