CHEMBL3656125


 42 46  0  0  0  0  0  0  0  0999 V2000
  -21.9422   -0.5995  -14.3257 O   0  0  0  0  0  0  0  0  0  0  0  0
  -25.4755   -1.6514  -12.3202 C   0  0  0  0  0  0  0  0  0  0  0  0
  -25.5343   -1.2487  -13.6587 C   0  0  0  0  0  0  0  0  0  0  0  0
  -24.3715   -0.9225  -14.3589 C   0  0  0  0  0  0  0  0  0  0  0  0
  -23.1345   -0.9309  -13.7119 C   0  0  0  0  0  0  0  0  0  0  0  0
  -23.0679   -1.3485  -12.3781 C   0  0  0  0  0  0  0  0  0  0  0  0
  -24.2374   -1.6871  -11.6738 C   0  0  0  0  0  0  0  0  0  0  0  0
  -27.8614   -2.4843   -9.7026 N   0  0  0  0  0  0  0  0  0  0  0  0
  -26.7185   -1.9365  -10.2701 C   0  0  0  0  0  0  0  0  0  0  0  0
  -25.8609   -1.3201   -9.6583 O   0  0  0  0  0  0  0  0  0  0  0  0
  -26.6599   -2.0890  -11.6604 N   0  0  0  0  0  0  0  0  0  0  0  0
  -28.5969   -2.7806  -10.3266 H   0  0  0  0  0  0  0  0  0  0  0  0
  -27.5283   -1.8901  -12.1341 H   0  0  0  0  0  0  0  0  0  0  0  0
  -27.8727    0.0285   -5.3973 C   0  0  0  0  0  0  0  0  0  0  0  0
  -28.1355   -1.2266   -6.1826 C   0  0  0  0  0  0  0  0  0  0  0  0
  -28.5918   -2.3634   -5.5051 C   0  0  0  0  0  0  0  0  0  0  0  0
  -28.8580   -3.5272   -6.2119 C   0  0  0  0  0  0  0  0  0  0  0  0
  -28.6594   -3.5715   -7.5903 C   0  0  0  0  0  0  0  0  0  0  0  0
  -29.0753   -4.6876   -8.2012 F   0  0  0  0  0  0  0  0  0  0  0  0
  -28.1506   -2.4707   -8.3020 C   0  0  0  0  0  0  0  0  0  0  0  0
  -27.9224   -1.2842   -7.5775 C   0  0  0  0  0  0  0  0  0  0  0  0
  -21.5491    0.7229  -14.3727 C   0  0  0  0  0  0  0  0  0  0  0  0
  -22.3529    1.7816  -13.9582 C   0  0  0  0  0  0  0  0  0  0  0  0
  -21.8676    3.0665  -14.1087 C   0  0  0  0  0  0  0  0  0  0  0  0
  -20.6365    3.3591  -14.5794 N   0  0  0  0  0  0  0  0  0  0  0  0
  -19.8439    2.3097  -14.9058 C   0  0  0  0  0  0  0  0  0  0  0  0
  -20.2559    0.9852  -14.8141 C   0  0  0  0  0  0  0  0  0  0  0  0
  -18.5081    2.6865  -15.3530 C   0  0  0  0  0  0  0  0  0  0  0  0
  -17.4360    1.9298  -15.7940 C   0  0  0  0  0  0  0  0  0  0  0  0
  -16.3433    2.7987  -16.0786 C   0  0  0  0  0  0  0  0  0  0  0  0
  -16.7805    4.0745  -15.7654 C   0  0  0  0  0  0  0  0  0  0  0  0
  -18.0921    3.9995  -15.3819 N   0  0  0  0  0  0  0  0  0  0  0  0
  -18.6882    4.7768  -15.1200 H   0  0  0  0  0  0  0  0  0  0  0  0
  -15.0149    2.3961  -16.5379 C   0  0  0  0  0  0  0  0  0  0  0  0
  -14.5292    2.8985  -17.5499 O   0  0  0  0  0  0  0  0  0  0  0  0
  -14.3293    1.4371  -15.7809 N   0  0  0  0  0  0  0  0  0  0  0  0
  -13.0155    1.0363  -16.2881 C   0  0  0  0  0  0  0  0  0  0  0  0
  -12.4797   -0.2384  -15.6085 C   0  0  0  0  0  0  0  0  0  0  0  0
  -12.5270   -0.2265  -14.1309 N   0  0  0  0  0  0  0  0  0  0  0  0
  -11.5351    0.6864  -13.5644 C   0  0  0  0  0  0  0  0  0  0  0  0
  -13.8918    0.1269  -13.6959 C   0  0  0  0  0  0  0  0  0  0  0  0
  -14.4488    1.4175  -14.3188 C   0  0  0  0  0  0  0  0  0  0  0  0
 14 15  1  0  0  0
 15 16  1  0  0  0
 15 21  2  0  0  0
 16 17  2  0  0  0
 17 18  1  0  0  0
 18 19  1  0  0  0
 18 20  2  0  0  0
 20  8  1  0  0  0
 20 21  1  0  0  0
  8  9  1  0  0  0
  8 12  1  0  0  0
  9 10  2  0  0  0
  9 11  1  0  0  0
 11  2  1  0  0  0
 11 13  1  0  0  0
  2  3  1  0  0  0
  2  7  2  0  0  0
  3  4  2  0  0  0
  4  5  1  0  0  0
  5  1  1  0  0  0
  5  6  2  0  0  0
  1 22  1  0  0  0
 22 23  1  0  0  0
 22 27  2  0  0  0
 23 24  2  0  0  0
 24 25  1  0  0  0
 25 26  2  0  0  0
 26 28  1  0  0  0
 26 27  1  0  0  0
 28 29  2  0  0  0
 28 32  1  0  0  0
 29 30  1  0  0  0
 30 34  1  0  0  0
 30 31  2  0  0  0
 34 35  2  0  0  0
 34 36  1  0  0  0
 36 37  1  0  0  0
 36 42  1  0  0  0
 37 38  1  0  0  0
 38 39  1  0  0  0
 39 40  1  0  0  0
 39 41  1  0  0  0
 41 42  1  0  0  0
 31 32  1  0  0  0
 32 33  1  0  0  0
  6  7  1  0  0  0
M  END
> <minimizedAffinity>
-12.73628

$$$$
