CHEMBL3941664


 36 39  0  0  0  0  0  0  0  0999 V2000
  -28.2857   -2.2062   -7.6573 C   0  0  0  0  0  0  0  0  0  0  0  0
  -28.9810   -3.4166   -7.6154 C   0  0  0  0  0  0  0  0  0  0  0  0
  -29.0828   -4.1388   -6.4267 C   0  0  0  0  0  0  0  0  0  0  0  0
  -28.4227   -3.7033   -5.2729 C   0  0  0  0  0  0  0  0  0  0  0  0
  -27.7323   -2.4878   -5.3079 C   0  0  0  0  0  0  0  0  0  0  0  0
  -27.6478   -1.7452   -6.5018 C   0  0  0  0  0  0  0  0  0  0  0  0
  -27.4436   -0.9088  -10.9464 N   0  0  0  0  0  0  0  0  0  0  0  0
  -27.3603   -1.7251   -9.8281 C   0  0  0  0  0  0  0  0  0  0  0  0
  -26.5349   -2.6288   -9.7012 O   0  0  0  0  0  0  0  0  0  0  0  0
  -28.3000   -1.4253   -8.8450 N   0  0  0  0  0  0  0  0  0  0  0  0
  -27.9652   -0.0521  -10.8641 H   0  0  0  0  0  0  0  0  0  0  0  0
  -29.2048   -1.1346   -9.1881 H   0  0  0  0  0  0  0  0  0  0  0  0
  -24.4379   -0.7197  -13.1603 C   0  0  0  0  0  0  0  0  0  0  0  0
  -24.9305   -1.4023  -14.2672 C   0  0  0  0  0  0  0  0  0  0  0  0
  -26.1736   -1.9118  -14.3300 N   0  0  0  0  0  0  0  0  0  0  0  0
  -26.9592   -1.7397  -13.2412 C   0  0  0  0  0  0  0  0  0  0  0  0
  -26.5846   -1.0631  -12.0784 C   0  0  0  0  0  0  0  0  0  0  0  0
  -25.2968   -0.5225  -12.0621 C   0  0  0  0  0  0  0  0  0  0  0  0
  -22.8926    1.2013  -13.5984 C   0  0  0  0  0  0  0  0  0  0  0  0
  -23.0099   -0.2497  -13.1488 C   0  0  0  0  0  0  0  0  0  0  0  0
  -22.2204   -1.0005  -13.9713 F   0  0  0  0  0  0  0  0  0  0  0  0
  -22.4375   -0.3461  -11.9134 F   0  0  0  0  0  0  0  0  0  0  0  0
  -28.4372   -4.4031   -4.0808 O   0  0  0  0  0  0  0  0  0  0  0  0
  -28.6077   -5.7803   -4.1100 C   0  0  0  0  0  0  0  0  0  0  0  0
  -29.7376   -6.3997   -3.5782 C   0  0  0  0  0  0  0  0  0  0  0  0
  -29.7632   -7.7700   -3.5437 C   0  0  0  0  0  0  0  0  0  0  0  0
  -28.7938   -8.5292   -4.0710 N   0  0  0  0  0  0  0  0  0  0  0  0
  -27.7449   -7.9521   -4.6652 C   0  0  0  0  0  0  0  0  0  0  0  0
  -27.6128   -6.5629   -4.7125 C   0  0  0  0  0  0  0  0  0  0  0  0
  -26.7524   -8.7755   -5.2425 N   0  0  0  0  0  0  0  0  0  0  0  0
  -25.6612   -9.2408   -4.5154 C   0  0  0  0  0  0  0  0  0  0  0  0
  -25.3851   -9.0069   -3.3414 O   0  0  0  0  0  0  0  0  0  0  0  0
  -26.8526   -9.0439   -6.2024 H   0  0  0  0  0  0  0  0  0  0  0  0
  -24.7538  -10.1627   -5.2706 C   0  0  0  0  0  0  0  0  0  0  0  0
  -23.4239  -10.5169   -4.6392 C   0  0  0  0  0  0  0  0  0  0  0  0
  -23.4523   -9.6489   -5.8599 C   0  0  0  0  0  0  0  0  0  0  0  0
 19 20  1  0  0  0
 20 21  1  0  0  0
 20 22  1  0  0  0
 20 13  1  0  0  0
 13 14  1  0  0  0
 13 18  2  0  0  0
 14 15  2  0  0  0
 15 16  1  0  0  0
 16 17  2  0  0  0
 17  7  1  0  0  0
 17 18  1  0  0  0
  7  8  1  0  0  0
  7 11  1  0  0  0
  8  9  2  0  0  0
  8 10  1  0  0  0
 10  1  1  0  0  0
 10 12  1  0  0  0
  1  2  1  0  0  0
  1  6  2  0  0  0
  2  3  2  0  0  0
  3  4  1  0  0  0
  4 23  1  0  0  0
  4  5  2  0  0  0
 23 24  1  0  0  0
 24 25  1  0  0  0
 24 29  2  0  0  0
 25 26  2  0  0  0
 26 27  1  0  0  0
 27 28  2  0  0  0
 28 30  1  0  0  0
 28 29  1  0  0  0
 30 31  1  0  0  0
 30 33  1  0  0  0
 31 32  2  0  0  0
 31 34  1  0  0  0
 34 35  1  0  0  0
 34 36  1  0  0  0
 35 36  1  0  0  0
  5  6  1  0  0  0
M  END
> <minimizedAffinity>
-9.38370

$$$$
