CHEMBL1681945


 33 35  0  0  0  0  0  0  0  0999 V2000
  -29.3814   -7.5619   -5.2523 C   0  0  0  0  0  0  0  0  0  0  0  0
  -28.3235   -6.8039   -5.7445 C   0  0  0  0  0  0  0  0  0  0  0  0
  -28.2518   -5.4381   -5.4769 C   0  0  0  0  0  0  0  0  0  0  0  0
  -29.2385   -4.7785   -4.7358 C   0  0  0  0  0  0  0  0  0  0  0  0
  -30.3655   -5.5317   -4.3517 C   0  0  0  0  0  0  0  0  0  0  0  0
  -31.6775   -4.7808   -3.5064 Cl  0  0  0  0  0  0  0  0  0  0  0  0
  -30.4350   -6.9147   -4.6025 C   0  0  0  0  0  0  0  0  0  0  0  0
  -29.1037   -3.4079   -4.3556 N   0  0  0  0  0  0  0  0  0  0  0  0
  -29.4689   -2.3377   -5.1556 C   0  0  0  0  0  0  0  0  0  0  0  0
  -29.9938   -2.4528   -6.2592 O   0  0  0  0  0  0  0  0  0  0  0  0
  -29.1603   -1.1023   -4.6210 N   0  0  0  0  0  0  0  0  0  0  0  0
  -28.5788   -3.2247   -3.5099 H   0  0  0  0  0  0  0  0  0  0  0  0
  -28.3091   -1.0085   -4.0883 H   0  0  0  0  0  0  0  0  0  0  0  0
  -29.4681    0.0270   -5.3733 C   0  0  0  0  0  0  0  0  0  0  0  0
  -30.7224    0.6805   -5.4690 C   0  0  0  0  0  0  0  0  0  0  0  0
  -30.5622    1.5903   -6.4796 C   0  0  0  0  0  0  0  0  0  0  0  0
  -31.4830    2.5066   -7.1752 C   0  0  0  0  0  0  0  0  0  0  0  0
  -29.2672    1.5642   -6.8971 O   0  0  0  0  0  0  0  0  0  0  0  0
  -28.5623    0.6178   -6.1611 N   0  0  0  0  0  0  0  0  0  0  0  0
  -29.4206   -8.9292   -5.4227 O   0  0  0  0  0  0  0  0  0  0  0  0
  -29.6746   -9.5144   -7.7481 C   0  0  0  0  0  0  0  0  0  0  0  0
  -29.0589  -10.0313   -8.8849 C   0  0  0  0  0  0  0  0  0  0  0  0
  -29.6868  -10.0831  -10.1284 N   0  0  0  0  0  0  0  0  0  0  0  0
  -27.7691  -10.4065   -8.9053 N   0  0  0  0  0  0  0  0  0  0  0  0
  -27.0924  -10.2875   -7.7593 C   0  0  0  0  0  0  0  0  0  0  0  0
  -27.5902   -9.8402   -6.6040 N   0  0  0  0  0  0  0  0  0  0  0  0
  -28.8792   -9.4275   -6.6205 C   0  0  0  0  0  0  0  0  0  0  0  0
  -30.6587  -10.3942  -10.0488 H   0  0  0  0  0  0  0  0  0  0  0  0
  -29.1226  -10.6197  -10.7754 H   0  0  0  0  0  0  0  0  0  0  0  0
  -32.0223   -9.9701   -8.0089 N   0  0  0  0  0  0  0  0  0  0  0  0
  -31.0878   -9.1078   -7.7505 C   0  0  0  0  0  0  0  0  0  0  0  0
  -33.2036   -8.2745   -7.0400 C   0  0  0  0  0  0  0  0  0  0  0  0
  -33.2753   -9.3480   -7.9743 O   0  0  0  0  0  0  0  0  0  0  0  0
 32 33  1  0  0  0
 33 30  1  0  0  0
 30 31  2  0  0  0
 31 21  1  0  0  0
 21 22  1  0  0  0
 21 27  2  0  0  0
 22 23  1  0  0  0
 22 24  2  0  0  0
 23 28  1  0  0  0
 23 29  1  0  0  0
 24 25  1  0  0  0
 25 26  2  0  0  0
 26 27  1  0  0  0
 27 20  1  0  0  0
 20  1  1  0  0  0
  1  2  1  0  0  0
  1  7  2  0  0  0
  2  3  2  0  0  0
  3  4  1  0  0  0
  4  8  1  0  0  0
  4  5  2  0  0  0
  8  9  1  0  0  0
  8 12  1  0  0  0
  9 10  2  0  0  0
  9 11  1  0  0  0
 11 14  1  0  0  0
 11 13  1  0  0  0
 14 15  1  0  0  0
 14 19  2  0  0  0
 15 16  2  0  0  0
 16 17  1  0  0  0
 16 18  1  0  0  0
 18 19  1  0  0  0
  5  6  1  0  0  0
  5  7  1  0  0  0
M  END
> <minimizedAffinity>
-8.12240

$$$$
