CHEMBL67211


 32 35  0  0  0  0  0  0  0  0999 V2000
  -30.0175   -6.5251   -7.0751 C   0  0  0  0  0  0  0  0  0  0  0  0
  -29.7576   -5.3427   -7.7817 C   0  0  0  0  0  0  0  0  0  0  0  0
  -29.8665   -4.0981   -7.1584 C   0  0  0  0  0  0  0  0  0  0  0  0
  -30.3436   -4.0128   -5.8498 C   0  0  0  0  0  0  0  0  0  0  0  0
  -30.5371   -5.1801   -5.1159 C   0  0  0  0  0  0  0  0  0  0  0  0
  -30.3354   -6.4260   -5.7166 C   0  0  0  0  0  0  0  0  0  0  0  0
  -29.1484   -9.4282   -9.0807 N   0  0  0  0  0  0  0  0  0  0  0  0
  -28.9075   -8.1806   -8.5619 C   0  0  0  0  0  0  0  0  0  0  0  0
  -29.9692   -7.8205   -7.7492 C   0  0  0  0  0  0  0  0  0  0  0  0
  -30.9014   -8.9184   -7.7739 C   0  0  0  0  0  0  0  0  0  0  0  0
  -32.1646   -9.2216   -7.2252 C   0  0  0  0  0  0  0  0  0  0  0  0
  -32.9318   -8.3583   -6.4516 N   0  0  0  0  0  0  0  0  0  0  0  0
  -32.7163  -10.4248   -7.4704 N   0  0  0  0  0  0  0  0  0  0  0  0
  -32.0434  -11.2888   -8.2563 C   0  0  0  0  0  0  0  0  0  0  0  0
  -30.8647  -11.1066   -8.8641 N   0  0  0  0  0  0  0  0  0  0  0  0
  -30.3397   -9.9010   -8.5878 C   0  0  0  0  0  0  0  0  0  0  0  0
  -32.8505   -7.3876   -6.7266 H   0  0  0  0  0  0  0  0  0  0  0  0
  -33.8797   -8.7105   -6.3765 H   0  0  0  0  0  0  0  0  0  0  0  0
  -28.8971  -10.2320  -11.4128 C   0  0  0  0  0  0  0  0  0  0  0  0
  -28.2721  -10.1304  -10.0180 C   0  0  0  0  0  0  0  0  0  0  0  0
  -26.8892   -9.4811  -10.0913 C   0  0  0  0  0  0  0  0  0  0  0  0
  -30.6167   -2.8348   -5.1898 O   0  0  0  0  0  0  0  0  0  0  0  0
  -29.6809   -1.8198   -5.1795 C   0  0  0  0  0  0  0  0  0  0  0  0
  -29.9319   -0.5761   -5.7859 C   0  0  0  0  0  0  0  0  0  0  0  0
  -28.9372    0.3965   -5.8563 C   0  0  0  0  0  0  0  0  0  0  0  0
  -27.7078    0.1683   -5.2524 C   0  0  0  0  0  0  0  0  0  0  0  0
  -27.4849   -1.0229   -4.5587 C   0  0  0  0  0  0  0  0  0  0  0  0
  -28.4670   -2.0295   -4.5056 C   0  0  0  0  0  0  0  0  0  0  0  0
  -28.1205   -3.2493   -3.7118 C   0  0  0  0  0  0  0  0  0  0  0  0
  -27.2415   -4.0213   -4.0657 O   0  0  0  0  0  0  0  0  0  0  0  0
  -28.8114   -3.4475   -2.5717 O   0  0  0  0  0  0  0  0  0  0  0  0
  -29.4943   -2.7752   -2.3863 H   0  0  0  0  0  0  0  0  0  0  0  0
 19 20  1  0  0  0
 20 21  1  0  0  0
 20  7  1  0  0  0
  7  8  1  0  0  0
  7 16  1  0  0  0
  8  9  2  0  0  0
  9  1  1  0  0  0
  9 10  1  0  0  0
  1  2  1  0  0  0
  1  6  2  0  0  0
  2  3  2  0  0  0
  3  4  1  0  0  0
  4 22  1  0  0  0
  4  5  2  0  0  0
 22 23  1  0  0  0
 23 24  1  0  0  0
 23 28  2  0  0  0
 24 25  2  0  0  0
 25 26  1  0  0  0
 26 27  2  0  0  0
 27 28  1  0  0  0
 28 29  1  0  0  0
 29 30  2  0  0  0
 29 31  1  0  0  0
 31 32  1  0  0  0
  5  6  1  0  0  0
 10 11  1  0  0  0
 10 16  2  0  0  0
 11 12  1  0  0  0
 11 13  2  0  0  0
 12 17  1  0  0  0
 12 18  1  0  0  0
 13 14  1  0  0  0
 14 15  2  0  0  0
 15 16  1  0  0  0
M  END
> <minimizedAffinity>
-9.63409

$$$$
