CHEMBL176019


 30 33  0  0  0  0  0  0  0  0999 V2000
  -29.7525   -8.8543   -5.8830 C   0  0  0  0  0  0  0  0  0  0  0  0
  -29.0878   -9.1492   -4.7728 N   0  0  0  0  0  0  0  0  0  0  0  0
  -28.9793   -8.1420   -3.9242 C   0  0  0  0  0  0  0  0  0  0  0  0
  -28.3684   -8.4622   -2.7523 O   0  0  0  0  0  0  0  0  0  0  0  0
  -29.4146   -6.9050   -4.0578 N   0  0  0  0  0  0  0  0  0  0  0  0
  -30.0649   -6.7032   -5.1910 C   0  0  0  0  0  0  0  0  0  0  0  0
  -30.2653   -7.6491   -6.1056 N   0  0  0  0  0  0  0  0  0  0  0  0
  -28.2213   -9.4102   -2.9041 H   0  0  0  0  0  0  0  0  0  0  0  0
  -30.5524   -5.4168   -5.4227 N   0  0  0  0  0  0  0  0  0  0  0  0
  -31.5294   -5.4649   -5.6829 H   0  0  0  0  0  0  0  0  0  0  0  0
  -29.8606   -4.3004   -5.9249 C   0  0  0  0  0  0  0  0  0  0  0  0
  -29.2220   -4.4021   -7.1639 C   0  0  0  0  0  0  0  0  0  0  0  0
  -28.5196   -3.3194   -7.7131 C   0  0  0  0  0  0  0  0  0  0  0  0
  -28.4398   -2.1033   -7.0064 C   0  0  0  0  0  0  0  0  0  0  0  0
  -27.7743   -0.9612   -7.4160 N   0  0  0  0  0  0  0  0  0  0  0  0
  -27.9099   -0.0258   -6.5041 C   0  0  0  0  0  0  0  0  0  0  0  0
  -28.8319   -0.4336   -5.1213 S   0  0  0  0  0  0  0  0  0  0  0  0
  -29.0824   -2.0101   -5.7708 C   0  0  0  0  0  0  0  0  0  0  0  0
  -29.7946   -3.0878   -5.2207 C   0  0  0  0  0  0  0  0  0  0  0  0
  -29.9595   -9.8395   -6.8307 N   0  0  0  0  0  0  0  0  0  0  0  0
  -30.9620  -12.1276   -6.8989 C   0  0  0  0  0  0  0  0  0  0  0  0
  -29.8254  -11.2397   -6.4072 C   0  0  0  0  0  0  0  0  0  0  0  0
  -28.4583  -11.8030   -6.8013 C   0  0  0  0  0  0  0  0  0  0  0  0
  -30.3858   -9.4365   -8.1679 C   0  0  0  0  0  0  0  0  0  0  0  0
  -29.2684   -9.5247   -9.1944 C   0  0  0  0  0  0  0  0  0  0  0  0
  -29.3812  -10.3519  -10.3228 C   0  0  0  0  0  0  0  0  0  0  0  0
  -28.3230  -10.4762  -11.2274 C   0  0  0  0  0  0  0  0  0  0  0  0
  -27.1391   -9.7728  -11.0191 C   0  0  0  0  0  0  0  0  0  0  0  0
  -27.0229   -8.9230   -9.9229 C   0  0  0  0  0  0  0  0  0  0  0  0
  -28.0845   -8.7907   -9.0256 C   0  0  0  0  0  0  0  0  0  0  0  0
 21 22  1  0  0  0
 22 23  1  0  0  0
 22 20  1  0  0  0
 20 24  1  0  0  0
 20  1  1  0  0  0
 24 25  1  0  0  0
 25 26  1  0  0  0
 25 30  2  0  0  0
 26 27  2  0  0  0
 27 28  1  0  0  0
 28 29  2  0  0  0
 29 30  1  0  0  0
  1  2  1  0  0  0
  1  7  2  0  0  0
  2  3  2  0  0  0
  3  4  1  0  0  0
  3  5  1  0  0  0
  4  8  1  0  0  0
  5  6  2  0  0  0
  6  9  1  0  0  0
  6  7  1  0  0  0
  9 11  1  0  0  0
  9 10  1  0  0  0
 11 12  1  0  0  0
 11 19  2  0  0  0
 12 13  2  0  0  0
 13 14  1  0  0  0
 14 15  1  0  0  0
 14 18  2  0  0  0
 15 16  2  0  0  0
 16 17  1  0  0  0
 17 18  1  0  0  0
 18 19  1  0  0  0
M  END
> <minimizedAffinity>
-7.96053

$$$$
