CHEMBL3690471


 35 38  0  0  0  0  0  0  0  0999 V2000
  -27.6183   -2.1515   -8.9711 C   0  0  0  0  0  0  0  0  0  0  0  0
  -28.3235   -3.4211   -8.7472 C   0  0  0  0  0  0  0  0  0  0  0  0
  -28.9474   -3.6589   -7.5819 C   0  0  0  0  0  0  0  0  0  0  0  0
  -28.8991   -2.7097   -6.5568 N   0  0  0  0  0  0  0  0  0  0  0  0
  -29.3668   -2.7386   -5.2397 C   0  0  0  0  0  0  0  0  0  0  0  0
  -29.0797   -1.4685   -4.7618 C   0  0  0  0  0  0  0  0  0  0  0  0
  -28.4229   -0.7009   -5.6861 N   0  0  0  0  0  0  0  0  0  0  0  0
  -28.2928   -1.4672   -6.7421 C   0  0  0  0  0  0  0  0  0  0  0  0
  -27.6539   -1.2142   -7.9920 C   0  0  0  0  0  0  0  0  0  0  0  0
  -27.5447   -1.7416  -13.9117 N   0  0  0  0  0  0  0  0  0  0  0  0
  -26.8849   -1.7290  -12.6759 C   0  0  0  0  0  0  0  0  0  0  0  0
  -25.5900   -1.2350  -12.5762 C   0  0  0  0  0  0  0  0  0  0  0  0
  -25.0232   -1.1143  -11.3199 C   0  0  0  0  0  0  0  0  0  0  0  0
  -25.6627   -1.4254  -10.1730 N   0  0  0  0  0  0  0  0  0  0  0  0
  -26.9428   -1.8624  -10.2679 C   0  0  0  0  0  0  0  0  0  0  0  0
  -27.5880   -1.9855  -11.4988 C   0  0  0  0  0  0  0  0  0  0  0  0
  -26.9283   -1.8530  -14.7115 H   0  0  0  0  0  0  0  0  0  0  0  0
  -28.3387   -2.3741  -13.9531 H   0  0  0  0  0  0  0  0  0  0  0  0
  -29.9604   -3.8899   -4.5356 C   0  0  0  0  0  0  0  0  0  0  0  0
  -31.3422   -3.9465   -4.3187 C   0  0  0  0  0  0  0  0  0  0  0  0
  -31.9177   -5.0025   -3.6229 C   0  0  0  0  0  0  0  0  0  0  0  0
  -31.1304   -6.0666   -3.2041 C   0  0  0  0  0  0  0  0  0  0  0  0
  -29.7634   -6.1045   -3.4838 C   0  0  0  0  0  0  0  0  0  0  0  0
  -29.1779   -4.9932   -4.1229 C   0  0  0  0  0  0  0  0  0  0  0  0
  -28.9565   -7.2269   -3.1549 N   0  0  0  0  0  0  0  0  0  0  0  0
  -28.1634   -7.9396   -4.0331 C   0  0  0  0  0  0  0  0  0  0  0  0
  -28.0089   -7.7309   -5.2301 O   0  0  0  0  0  0  0  0  0  0  0  0
  -27.5397   -9.0144   -3.4428 N   0  0  0  0  0  0  0  0  0  0  0  0
  -28.9348   -7.5051   -2.1875 H   0  0  0  0  0  0  0  0  0  0  0  0
  -27.2873   -8.9182   -2.4698 H   0  0  0  0  0  0  0  0  0  0  0  0
  -26.6631   -9.8455   -4.2851 C   0  0  0  0  0  0  0  0  0  0  0  0
  -25.1533   -9.5692   -4.1813 C   0  0  0  0  0  0  0  0  0  0  0  0
  -24.5567   -9.5350   -5.3946 F   0  0  0  0  0  0  0  0  0  0  0  0
  -24.9489   -8.3528   -3.6128 F   0  0  0  0  0  0  0  0  0  0  0  0
  -24.5103  -10.4770   -3.4182 F   0  0  0  0  0  0  0  0  0  0  0  0
 10 11  1  0  0  0
 10 17  1  0  0  0
 10 18  1  0  0  0
 11 12  1  0  0  0
 11 16  2  0  0  0
 12 13  2  0  0  0
 13 14  1  0  0  0
 14 15  2  0  0  0
 15  1  1  0  0  0
 15 16  1  0  0  0
  1  2  1  0  0  0
  1  9  2  0  0  0
  2  3  2  0  0  0
  3  4  1  0  0  0
  4  5  1  0  0  0
  4  8  1  0  0  0
  5 19  1  0  0  0
  5  6  2  0  0  0
 19 20  1  0  0  0
 19 24  2  0  0  0
 20 21  2  0  0  0
 21 22  1  0  0  0
 22 23  2  0  0  0
 23 25  1  0  0  0
 23 24  1  0  0  0
 25 26  1  0  0  0
 25 29  1  0  0  0
 26 27  2  0  0  0
 26 28  1  0  0  0
 28 31  1  0  0  0
 28 30  1  0  0  0
 31 32  1  0  0  0
 32 33  1  0  0  0
 32 34  1  0  0  0
 32 35  1  0  0  0
  6  7  1  0  0  0
  7  8  2  0  0  0
  8  9  1  0  0  0
M  END
> <minimizedAffinity>
-9.87949

$$$$
