CHEMBL3690451


 32 35  0  0  0  0  0  0  0  0999 V2000
  -16.7971    0.6846  -15.0305 C   0  0  0  0  0  0  0  0  0  0  0  0
  -16.1292    1.5585  -15.8907 C   0  0  0  0  0  0  0  0  0  0  0  0
  -16.6915    2.7865  -16.2269 C   0  0  0  0  0  0  0  0  0  0  0  0
  -17.9443    3.1355  -15.7328 C   0  0  0  0  0  0  0  0  0  0  0  0
  -18.6931    2.2352  -14.9672 C   0  0  0  0  0  0  0  0  0  0  0  0
  -18.0851    1.0258  -14.5825 C   0  0  0  0  0  0  0  0  0  0  0  0
  -20.0800    2.5396  -14.5852 C   0  0  0  0  0  0  0  0  0  0  0  0
  -20.7199    3.7613  -14.4310 C   0  0  0  0  0  0  0  0  0  0  0  0
  -22.0332    3.6209  -14.0690 N   0  0  0  0  0  0  0  0  0  0  0  0
  -22.2320    2.3246  -13.9811 C   0  0  0  0  0  0  0  0  0  0  0  0
  -23.4069    1.5796  -13.6604 C   0  0  0  0  0  0  0  0  0  0  0  0
  -23.3755    0.2292  -13.6194 C   0  0  0  0  0  0  0  0  0  0  0  0
  -22.1238   -0.4814  -13.8722 C   0  0  0  0  0  0  0  0  0  0  0  0
  -21.0118    0.2156  -14.1549 C   0  0  0  0  0  0  0  0  0  0  0  0
  -21.0620    1.6095  -14.2476 N   0  0  0  0  0  0  0  0  0  0  0  0
  -24.6030   -0.5059  -13.2901 C   0  0  0  0  0  0  0  0  0  0  0  0
  -25.2739   -1.2469  -14.2584 C   0  0  0  0  0  0  0  0  0  0  0  0
  -26.4570   -1.8617  -13.9006 C   0  0  0  0  0  0  0  0  0  0  0  0
  -26.9821   -1.7669  -12.6622 N   0  0  0  0  0  0  0  0  0  0  0  0
  -26.3335   -1.0388  -11.7126 N   0  0  0  0  0  0  0  0  0  0  0  0
  -25.1749   -0.4242  -12.0290 C   0  0  0  0  0  0  0  0  0  0  0  0
  -15.8028   -0.0773  -12.3300 O   0  0  0  0  0  0  0  0  0  0  0  0
  -15.7993   -0.8177  -13.3029 C   0  0  0  0  0  0  0  0  0  0  0  0
  -15.3459   -2.1164  -13.2061 N   0  0  0  0  0  0  0  0  0  0  0  0
  -16.2333   -0.5287  -14.5784 N   0  0  0  0  0  0  0  0  0  0  0  0
  -14.9577   -2.5107  -14.0508 H   0  0  0  0  0  0  0  0  0  0  0  0
  -16.2123   -1.2874  -15.2416 H   0  0  0  0  0  0  0  0  0  0  0  0
  -14.7159   -2.5461  -11.9501 C   0  0  0  0  0  0  0  0  0  0  0  0
  -15.6554   -3.2533  -10.9631 C   0  0  0  0  0  0  0  0  0  0  0  0
  -16.6943   -3.8490  -11.5954 F   0  0  0  0  0  0  0  0  0  0  0  0
  -15.0217   -4.1859  -10.2244 F   0  0  0  0  0  0  0  0  0  0  0  0
  -16.1905   -2.3488  -10.1054 F   0  0  0  0  0  0  0  0  0  0  0  0
 22 23  2  0  0  0
 23 24  1  0  0  0
 23 25  1  0  0  0
 24 28  1  0  0  0
 24 26  1  0  0  0
 28 29  1  0  0  0
 29 30  1  0  0  0
 29 31  1  0  0  0
 29 32  1  0  0  0
 25  1  1  0  0  0
 25 27  1  0  0  0
  1  2  1  0  0  0
  1  6  2  0  0  0
  2  3  2  0  0  0
  3  4  1  0  0  0
  4  5  2  0  0  0
  5  7  1  0  0  0
  5  6  1  0  0  0
  7  8  2  0  0  0
  7 15  1  0  0  0
  8  9  1  0  0  0
  9 10  2  0  0  0
 10 11  1  0  0  0
 10 15  1  0  0  0
 11 12  2  0  0  0
 12 16  1  0  0  0
 12 13  1  0  0  0
 16 17  1  0  0  0
 16 21  2  0  0  0
 17 18  2  0  0  0
 18 19  1  0  0  0
 19 20  2  0  0  0
 20 21  1  0  0  0
 13 14  2  0  0  0
 14 15  1  0  0  0
M  END
> <minimizedAffinity>
-10.29400

$$$$
