CHEMBL124660


 42 46  0  0  0  0  0  0  0  0999 V2000
  -28.1897   -0.4512   -7.0121 C   0  0  0  0  0  0  0  0  0  0  0  0
  -27.5315   -1.0171   -8.0884 C   0  0  0  0  0  0  0  0  0  0  0  0
  -27.6885   -2.3636   -8.4708 C   0  0  0  0  0  0  0  0  0  0  0  0
  -27.0626   -2.9405   -9.5977 C   0  0  0  0  0  0  0  0  0  0  0  0
  -27.1582   -4.2568   -9.8514 N   0  0  0  0  0  0  0  0  0  0  0  0
  -27.9246   -4.9712   -9.0237 C   0  0  0  0  0  0  0  0  0  0  0  0
  -28.5928   -4.5157   -7.9475 N   0  0  0  0  0  0  0  0  0  0  0  0
  -28.4652   -3.2134   -7.6787 C   0  0  0  0  0  0  0  0  0  0  0  0
  -29.1122   -2.6583   -6.5770 C   0  0  0  0  0  0  0  0  0  0  0  0
  -29.0346   -1.2872   -6.2720 C   0  0  0  0  0  0  0  0  0  0  0  0
  -26.2550   -2.1701  -10.4163 N   0  0  0  0  0  0  0  0  0  0  0  0
  -24.9500   -2.6754  -10.8431 C   0  0  0  0  0  0  0  0  0  0  0  0
  -23.9801   -1.4685  -10.9355 C   0  0  0  0  0  0  0  0  0  0  0  0
  -24.5465   -0.3513  -11.7311 N   0  0  0  0  0  0  0  0  0  0  0  0
  -23.8845    0.5269  -12.5674 C   0  0  0  0  0  0  0  0  0  0  0  0
  -24.4855    1.4921  -13.0349 O   0  0  0  0  0  0  0  0  0  0  0  0
  -22.5745    0.2310  -12.8436 N   0  0  0  0  0  0  0  0  0  0  0  0
  -25.9225    0.0176  -11.3728 C   0  0  0  0  0  0  0  0  0  0  0  0
  -26.8389   -1.2150  -11.3675 C   0  0  0  0  0  0  0  0  0  0  0  0
  -22.2384   -0.6815  -12.5944 H   0  0  0  0  0  0  0  0  0  0  0  0
  -21.7229    0.9875  -13.6747 C   0  0  0  0  0  0  0  0  0  0  0  0
  -21.6994    2.3832  -13.6795 C   0  0  0  0  0  0  0  0  0  0  0  0
  -20.8719    3.0844  -14.5545 C   0  0  0  0  0  0  0  0  0  0  0  0
  -20.0145    2.3967  -15.4055 C   0  0  0  0  0  0  0  0  0  0  0  0
  -20.0317    1.0011  -15.4092 C   0  0  0  0  0  0  0  0  0  0  0  0
  -20.8707    0.2982  -14.5434 C   0  0  0  0  0  0  0  0  0  0  0  0
  -19.1206    2.9792  -16.2580 O   0  0  0  0  0  0  0  0  0  0  0  0
  -17.7336    2.6588  -16.0753 C   0  0  0  0  0  0  0  0  0  0  0  0
  -16.8325    3.8015  -16.5497 C   0  0  0  0  0  0  0  0  0  0  0  0
  -17.5331    2.4423  -14.5776 C   0  0  0  0  0  0  0  0  0  0  0  0
  -29.1412    1.7374   -6.5767 C   0  0  0  0  0  0  0  0  0  0  0  0
  -28.0258    0.8524   -6.6387 O   0  0  0  0  0  0  0  0  0  0  0  0
  -29.8432   -0.8992   -5.2278 O   0  0  0  0  0  0  0  0  0  0  0  0
  -29.2892   -1.1681   -3.9410 C   0  0  0  0  0  0  0  0  0  0  0  0
  -29.9271   -2.4032   -3.3276 C   0  0  0  0  0  0  0  0  0  0  0  0
  -28.8195   -3.4384   -3.0997 C   0  0  0  0  0  0  0  0  0  0  0  0
  -29.1567   -4.7891   -3.5545 N   0  0  0  0  0  0  0  0  0  0  0  0
  -30.4528   -4.8368   -4.2456 C   0  0  0  0  0  0  0  0  0  0  0  0
  -30.8092   -6.2802   -4.5916 C   0  0  0  0  0  0  0  0  0  0  0  0
  -29.7288   -6.9320   -5.4458 C   0  0  0  0  0  0  0  0  0  0  0  0
  -28.3535   -6.7549   -4.8121 C   0  0  0  0  0  0  0  0  0  0  0  0
  -28.0930   -5.2975   -4.4388 C   0  0  0  0  0  0  0  0  0  0  0  0
 31 32  1  0  0  0
 32  1  1  0  0  0
  1  2  1  0  0  0
  1 10  2  0  0  0
  2  3  2  0  0  0
  3  4  1  0  0  0
  3  8  1  0  0  0
  4 11  1  0  0  0
  4  5  2  0  0  0
 11 12  1  0  0  0
 11 19  1  0  0  0
 12 13  1  0  0  0
 13 14  1  0  0  0
 14 15  1  0  0  0
 14 18  1  0  0  0
 15 16  2  0  0  0
 15 17  1  0  0  0
 17 21  1  0  0  0
 17 20  1  0  0  0
 21 22  1  0  0  0
 21 26  2  0  0  0
 22 23  2  0  0  0
 23 24  1  0  0  0
 24 27  1  0  0  0
 24 25  2  0  0  0
 27 28  1  0  0  0
 28 29  1  0  0  0
 28 30  1  0  0  0
 25 26  1  0  0  0
 18 19  1  0  0  0
  5  6  1  0  0  0
  6  7  2  0  0  0
  7  8  1  0  0  0
  8  9  2  0  0  0
  9 10  1  0  0  0
 10 33  1  0  0  0
 33 34  1  0  0  0
 34 35  1  0  0  0
 35 36  1  0  0  0
 36 37  1  0  0  0
 37 38  1  0  0  0
 37 42  1  0  0  0
 38 39  1  0  0  0
 39 40  1  0  0  0
 40 41  1  0  0  0
 41 42  1  0  0  0
M  END
> <minimizedAffinity>
-3.31181

$$$$
