CHEMBL3746595


 33 36  0  0  0  0  0  0  0  0999 V2000
  -24.8123  -11.5551   -2.3550 O   0  0  0  0  0  0  0  0  0  0  0  0
  -23.7425  -11.3406   -2.8984 C   0  0  0  0  0  0  0  0  0  0  0  0
  -22.4826  -11.2329   -2.3749 N   0  0  0  0  0  0  0  0  0  0  0  0
  -23.6765  -11.2104   -4.2984 N   0  0  0  0  0  0  0  0  0  0  0  0
  -22.6671  -10.5227   -4.9941 C   0  0  0  0  0  0  0  0  0  0  0  0
  -22.8360  -10.8243   -6.3248 C   0  0  0  0  0  0  0  0  0  0  0  0
  -24.2458  -10.9170   -6.4153 C   0  0  0  0  0  0  0  0  0  0  0  0
  -25.1847  -10.5530   -7.3767 C   0  0  0  0  0  0  0  0  0  0  0  0
  -26.5242  -10.8929   -7.1615 C   0  0  0  0  0  0  0  0  0  0  0  0
  -26.8988  -11.6709   -6.0656 C   0  0  0  0  0  0  0  0  0  0  0  0
  -25.9805  -11.9856   -5.0638 C   0  0  0  0  0  0  0  0  0  0  0  0
  -24.6901  -11.4640   -5.2147 C   0  0  0  0  0  0  0  0  0  0  0  0
  -21.6993  -11.2414   -3.0159 H   0  0  0  0  0  0  0  0  0  0  0  0
  -22.1518  -11.3111   -1.0183 C   0  0  0  0  0  0  0  0  0  0  0  0
  -22.3200  -12.4658   -0.2494 C   0  0  0  0  0  0  0  0  0  0  0  0
  -21.9307  -12.4606    1.0882 C   0  0  0  0  0  0  0  0  0  0  0  0
  -21.3638  -11.3284    1.6520 C   0  0  0  0  0  0  0  0  0  0  0  0
  -21.2175  -10.1460    0.9052 C   0  0  0  0  0  0  0  0  0  0  0  0
  -21.6446  -10.1443   -0.4438 C   0  0  0  0  0  0  0  0  0  0  0  0
  -20.5512   -8.9192    1.4580 C   0  0  0  0  0  0  0  0  0  0  0  0
  -19.4787   -9.1912    2.2495 F   0  0  0  0  0  0  0  0  0  0  0  0
  -20.0890   -8.0709    0.4903 F   0  0  0  0  0  0  0  0  0  0  0  0
  -21.4014   -8.1756    2.2179 F   0  0  0  0  0  0  0  0  0  0  0  0
  -27.5566  -10.4022   -7.9262 O   0  0  0  0  0  0  0  0  0  0  0  0
  -28.5331   -9.6538   -7.2922 C   0  0  0  0  0  0  0  0  0  0  0  0
  -29.8335  -10.0108   -7.5382 C   0  0  0  0  0  0  0  0  0  0  0  0
  -30.7845   -9.1551   -7.0229 C   0  0  0  0  0  0  0  0  0  0  0  0
  -30.4680   -8.0880   -6.2558 N   0  0  0  0  0  0  0  0  0  0  0  0
  -29.1607   -7.8629   -6.0470 C   0  0  0  0  0  0  0  0  0  0  0  0
  -28.1667   -8.5794   -6.5699 N   0  0  0  0  0  0  0  0  0  0  0  0
  -32.2280   -9.3204   -7.4164 C   0  0  0  0  0  0  0  0  0  0  0  0
  -32.3128   -9.7491   -8.7737 O   0  0  0  0  0  0  0  0  0  0  0  0
  -31.7775   -9.1209   -9.2923 H   0  0  0  0  0  0  0  0  0  0  0  0
  1  2  2  0  0  0
  2  3  1  0  0  0
  2  4  1  0  0  0
  3 14  1  0  0  0
  3 13  1  0  0  0
 14 15  1  0  0  0
 14 19  2  0  0  0
 15 16  2  0  0  0
 16 17  1  0  0  0
 17 18  2  0  0  0
 18 20  1  0  0  0
 18 19  1  0  0  0
 20 21  1  0  0  0
 20 22  1  0  0  0
 20 23  1  0  0  0
  4  5  1  0  0  0
  4 12  1  0  0  0
  5  6  2  0  0  0
  6  7  1  0  0  0
  7  8  1  0  0  0
  7 12  2  0  0  0
  8  9  2  0  0  0
  9 24  1  0  0  0
  9 10  1  0  0  0
 24 25  1  0  0  0
 25 26  1  0  0  0
 25 30  2  0  0  0
 26 27  2  0  0  0
 27 31  1  0  0  0
 27 28  1  0  0  0
 31 32  1  0  0  0
 32 33  1  0  0  0
 28 29  2  0  0  0
 29 30  1  0  0  0
 10 11  2  0  0  0
 11 12  1  0  0  0
M  END
> <minimizedAffinity>
-1.25588

$$$$
