CHEMBL257802


 32 35  0  0  0  0  0  0  0  0999 V2000
  -28.8466   -7.3541   -3.7749 C   0  0  0  0  0  0  0  0  0  0  0  0
  -27.9265   -6.7097   -4.6029 C   0  0  0  0  0  0  0  0  0  0  0  0
  -28.3226   -5.6059   -5.3624 C   0  0  0  0  0  0  0  0  0  0  0  0
  -29.6475   -5.1587   -5.3140 C   0  0  0  0  0  0  0  0  0  0  0  0
  -30.5339   -5.7604   -4.4244 C   0  0  0  0  0  0  0  0  0  0  0  0
  -31.7849   -5.2965   -4.2938 F   0  0  0  0  0  0  0  0  0  0  0  0
  -30.1455   -6.8521   -3.6582 C   0  0  0  0  0  0  0  0  0  0  0  0
  -28.4040   -8.4640   -3.0329 N   0  0  0  0  0  0  0  0  0  0  0  0
  -28.4856   -8.4022   -2.0213 H   0  0  0  0  0  0  0  0  0  0  0  0
  -28.0353   -9.7058   -3.5064 C   0  0  0  0  0  0  0  0  0  0  0  0
  -26.4436   -9.9183   -3.9333 S   0  0  0  0  0  0  0  0  0  0  0  0
  -30.8256  -11.8484   -4.3285 O   0  0  0  0  0  0  0  0  0  0  0  0
  -29.7830  -11.2632   -4.6423 C   0  0  0  0  0  0  0  0  0  0  0  0
  -29.1054  -10.5939   -3.6388 N   0  0  0  0  0  0  0  0  0  0  0  0
  -29.6410  -10.6912   -2.7863 H   0  0  0  0  0  0  0  0  0  0  0  0
  -29.2861  -11.2568   -6.0662 C   0  0  0  0  0  0  0  0  0  0  0  0
  -29.4564   -9.9360   -6.7794 C   0  0  0  0  0  0  0  0  0  0  0  0
  -30.6887   -9.2710   -6.6961 C   0  0  0  0  0  0  0  0  0  0  0  0
  -30.8765   -8.0380   -7.3184 C   0  0  0  0  0  0  0  0  0  0  0  0
  -29.8291   -7.4456   -8.0221 C   0  0  0  0  0  0  0  0  0  0  0  0
  -28.5938   -8.0842   -8.0979 C   0  0  0  0  0  0  0  0  0  0  0  0
  -28.4044   -9.3195   -7.4745 C   0  0  0  0  0  0  0  0  0  0  0  0
  -30.1393   -4.1091   -6.0522 O   0  0  0  0  0  0  0  0  0  0  0  0
  -29.2662   -3.2986   -6.7486 C   0  0  0  0  0  0  0  0  0  0  0  0
  -28.8268   -3.5746   -8.0441 C   0  0  0  0  0  0  0  0  0  0  0  0
  -27.9134   -2.7225   -8.6322 C   0  0  0  0  0  0  0  0  0  0  0  0
  -27.4439   -1.5897   -8.0824 N   0  0  0  0  0  0  0  0  0  0  0  0
  -27.9537   -1.2714   -6.8611 C   0  0  0  0  0  0  0  0  0  0  0  0
  -27.6451   -0.0839   -6.1364 C   0  0  0  0  0  0  0  0  0  0  0  0
  -28.3160   -0.0088   -4.9375 C   0  0  0  0  0  0  0  0  0  0  0  0
  -29.2893   -1.3851   -4.6626 S   0  0  0  0  0  0  0  0  0  0  0  0
  -28.8517   -2.0870   -6.1738 C   0  0  0  0  0  0  0  0  0  0  0  0
 12 13  2  0  0  0
 13 16  1  0  0  0
 13 14  1  0  0  0
 16 17  1  0  0  0
 17 18  1  0  0  0
 17 22  2  0  0  0
 18 19  2  0  0  0
 19 20  1  0  0  0
 20 21  2  0  0  0
 21 22  1  0  0  0
 14 10  1  0  0  0
 14 15  1  0  0  0
 10 11  2  0  0  0
 10  8  1  0  0  0
  8  1  1  0  0  0
  8  9  1  0  0  0
  1  2  1  0  0  0
  1  7  2  0  0  0
  2  3  2  0  0  0
  3  4  1  0  0  0
  4 23  1  0  0  0
  4  5  2  0  0  0
 23 24  1  0  0  0
 24 25  1  0  0  0
 24 32  2  0  0  0
 25 26  2  0  0  0
 26 27  1  0  0  0
 27 28  2  0  0  0
 28 29  1  0  0  0
 28 32  1  0  0  0
 29 30  2  0  0  0
 30 31  1  0  0  0
 31 32  1  0  0  0
  5  6  1  0  0  0
  5  7  1  0  0  0
M  END
> <minimizedAffinity>
-7.83829

$$$$
