CHEMBL4747900


 45 50  0  0  0  0  0  0  0  0999 V2000
  -15.4959   -3.9665  -13.3055 C   0  0  0  0  0  0  0  0  0  0  0  0
  -14.6971   -3.3243  -14.2564 C   0  0  0  0  0  0  0  0  0  0  0  0
  -14.3440   -1.9786  -14.0890 C   0  0  0  0  0  0  0  0  0  0  0  0
  -14.8543   -1.2245  -13.0247 C   0  0  0  0  0  0  0  0  0  0  0  0
  -15.6743   -1.8711  -12.0938 C   0  0  0  0  0  0  0  0  0  0  0  0
  -15.9886   -3.2197  -12.2367 C   0  0  0  0  0  0  0  0  0  0  0  0
  -16.7684   -3.8016  -11.3119 F   0  0  0  0  0  0  0  0  0  0  0  0
  -14.5723    0.1542  -12.9562 N   0  0  0  0  0  0  0  0  0  0  0  0
  -14.0418    0.4365  -12.1281 H   0  0  0  0  0  0  0  0  0  0  0  0
  -14.3046    1.0233  -14.0409 C   0  0  0  0  0  0  0  0  0  0  0  0
  -13.0143    1.2160  -14.4082 N   0  0  0  0  0  0  0  0  0  0  0  0
  -12.7353    1.9914  -15.4750 C   0  0  0  0  0  0  0  0  0  0  0  0
  -13.7011    2.6134  -16.2350 C   0  0  0  0  0  0  0  0  0  0  0  0
  -15.0304    2.4442  -15.8659 C   0  0  0  0  0  0  0  0  0  0  0  0
  -16.0533    3.0240  -16.6293 N   0  0  0  0  0  0  0  0  0  0  0  0
  -17.3640    2.8820  -16.2685 C   0  0  0  0  0  0  0  0  0  0  0  0
  -17.8000    2.1770  -15.2129 C   0  0  0  0  0  0  0  0  0  0  0  0
  -16.7680    1.5188  -14.3472 C   0  0  0  0  0  0  0  0  0  0  0  0
  -17.0755    0.9484  -13.3041 O   0  0  0  0  0  0  0  0  0  0  0  0
  -15.3411    1.6326  -14.7580 C   0  0  0  0  0  0  0  0  0  0  0  0
  -15.8157    3.7168  -17.3313 H   0  0  0  0  0  0  0  0  0  0  0  0
  -19.2317    2.1363  -14.9002 C   0  0  0  0  0  0  0  0  0  0  0  0
  -19.9069    3.2888  -14.4795 C   0  0  0  0  0  0  0  0  0  0  0  0
  -21.2609    3.2263  -14.1401 C   0  0  0  0  0  0  0  0  0  0  0  0
  -21.9448    2.0136  -14.2139 C   0  0  0  0  0  0  0  0  0  0  0  0
  -21.2799    0.8607  -14.6315 C   0  0  0  0  0  0  0  0  0  0  0  0
  -19.9262    0.9224  -14.9722 C   0  0  0  0  0  0  0  0  0  0  0  0
  -15.8283   -5.3057  -13.3025 O   0  0  0  0  0  0  0  0  0  0  0  0
  -12.9980   -8.7095  -15.9343 C   0  0  0  0  0  0  0  0  0  0  0  0
  -13.8265   -7.6804  -16.3593 C   0  0  0  0  0  0  0  0  0  0  0  0
  -14.3707   -6.8051  -15.4327 C   0  0  0  0  0  0  0  0  0  0  0  0
  -14.1867   -6.9992  -14.0493 C   0  0  0  0  0  0  0  0  0  0  0  0
  -14.8695   -6.2661  -13.0549 C   0  0  0  0  0  0  0  0  0  0  0  0
  -14.5579   -6.4500  -11.7132 C   0  0  0  0  0  0  0  0  0  0  0  0
  -13.6245   -7.4130  -11.3973 C   0  0  0  0  0  0  0  0  0  0  0  0
  -13.0156   -8.1987  -12.3124 N   0  0  0  0  0  0  0  0  0  0  0  0
  -13.2986   -8.0051  -13.6150 C   0  0  0  0  0  0  0  0  0  0  0  0
  -12.7172   -8.8361  -14.5692 C   0  0  0  0  0  0  0  0  0  0  0  0
  -12.4127   -9.6294  -16.7653 O   0  0  0  0  0  0  0  0  0  0  0  0
  -13.0483   -9.7864  -18.0389 C   0  0  0  0  0  0  0  0  0  0  0  0
  -12.3915  -12.2244  -18.0891 C   0  0  0  0  0  0  0  0  0  0  0  0
  -13.5344  -11.2253  -18.2633 C   0  0  0  0  0  0  0  0  0  0  0  0
  -14.1813  -11.3682  -19.6412 C   0  0  0  0  0  0  0  0  0  0  0  0
  -14.5304  -11.5005  -17.2675 O   0  0  0  0  0  0  0  0  0  0  0  0
  -14.9031  -12.3798  -17.4514 H   0  0  0  0  0  0  0  0  0  0  0  0
 41 42  1  0  0  0
 42 43  1  0  0  0
 42 44  1  0  0  0
 42 40  1  0  0  0
 44 45  1  0  0  0
 40 39  1  0  0  0
 39 29  1  0  0  0
 29 30  1  0  0  0
 29 38  2  0  0  0
 30 31  2  0  0  0
 31 32  1  0  0  0
 32 33  1  0  0  0
 32 37  2  0  0  0
 33 28  1  0  0  0
 33 34  2  0  0  0
 28  1  1  0  0  0
  1  2  1  0  0  0
  1  6  2  0  0  0
  2  3  2  0  0  0
  3  4  1  0  0  0
  4  8  1  0  0  0
  4  5  2  0  0  0
  8 10  1  0  0  0
  8  9  1  0  0  0
 10 11  1  0  0  0
 10 20  2  0  0  0
 11 12  2  0  0  0
 12 13  1  0  0  0
 13 14  2  0  0  0
 14 15  1  0  0  0
 14 20  1  0  0  0
 15 16  1  0  0  0
 15 21  1  0  0  0
 16 17  2  0  0  0
 17 22  1  0  0  0
 17 18  1  0  0  0
 22 23  1  0  0  0
 22 27  2  0  0  0
 23 24  2  0  0  0
 24 25  1  0  0  0
 25 26  2  0  0  0
 26 27  1  0  0  0
 18 19  2  0  0  0
 18 20  1  0  0  0
  5  6  1  0  0  0
  6  7  1  0  0  0
 34 35  1  0  0  0
 35 36  2  0  0  0
 36 37  1  0  0  0
 37 38  1  0  0  0
M  END
> <minimizedAffinity>
-10.24686

$$$$
