CHEMBL231612


 42 46  0  0  0  0  0  0  0  0999 V2000
  -18.5903    2.6199  -15.4511 C   0  0  0  0  0  0  0  0  0  0  0  0
  -19.1336    3.8233  -15.0195 C   0  0  0  0  0  0  0  0  0  0  0  0
  -20.3269    3.9800  -14.4236 N   0  0  0  0  0  0  0  0  0  0  0  0
  -21.1239    2.9156  -14.2168 C   0  0  0  0  0  0  0  0  0  0  0  0
  -22.3473    3.2587  -13.6788 N   0  0  0  0  0  0  0  0  0  0  0  0
  -20.6761    1.6053  -14.5504 C   0  0  0  0  0  0  0  0  0  0  0  0
  -21.2916    0.2840  -14.3995 C   0  0  0  0  0  0  0  0  0  0  0  0
  -20.4956   -0.7221  -14.9066 C   0  0  0  0  0  0  0  0  0  0  0  0
  -19.0023   -0.1707  -15.4418 S   0  0  0  0  0  0  0  0  0  0  0  0
  -19.4056    1.4935  -15.1602 C   0  0  0  0  0  0  0  0  0  0  0  0
  -22.3214    4.1824  -13.2639 H   0  0  0  0  0  0  0  0  0  0  0  0
  -22.9278    2.5623  -13.2523 H   0  0  0  0  0  0  0  0  0  0  0  0
  -15.5190    3.5701  -17.4875 C   0  0  0  0  0  0  0  0  0  0  0  0
  -14.6601    2.4999  -17.2255 C   0  0  0  0  0  0  0  0  0  0  0  0
  -15.1075    1.4329  -16.4545 C   0  0  0  0  0  0  0  0  0  0  0  0
  -16.4036    1.4431  -15.9329 C   0  0  0  0  0  0  0  0  0  0  0  0
  -17.2623    2.5454  -16.0973 C   0  0  0  0  0  0  0  0  0  0  0  0
  -16.7979    3.5960  -16.9092 C   0  0  0  0  0  0  0  0  0  0  0  0
  -14.0751    6.9428  -18.4038 C   0  0  0  0  0  0  0  0  0  0  0  0
  -14.5009    5.7789  -17.6717 N   0  0  0  0  0  0  0  0  0  0  0  0
  -15.1053    4.7269  -18.3265 C   0  0  0  0  0  0  0  0  0  0  0  0
  -15.2824    4.7038  -19.5398 O   0  0  0  0  0  0  0  0  0  0  0  0
  -14.2023    5.6757  -16.7118 H   0  0  0  0  0  0  0  0  0  0  0  0
  -22.5617   -0.1094  -13.7930 C   0  0  0  0  0  0  0  0  0  0  0  0
  -23.6345   -0.4767  -14.6160 C   0  0  0  0  0  0  0  0  0  0  0  0
  -24.8220   -0.9510  -14.0620 C   0  0  0  0  0  0  0  0  0  0  0  0
  -24.9807   -1.0423  -12.6767 C   0  0  0  0  0  0  0  0  0  0  0  0
  -23.9268   -0.6642  -11.8544 C   0  0  0  0  0  0  0  0  0  0  0  0
  -22.7080   -0.2354  -12.4117 C   0  0  0  0  0  0  0  0  0  0  0  0
  -26.1690   -1.5166  -12.0729 N   0  0  0  0  0  0  0  0  0  0  0  0
  -26.3921   -1.5806  -10.7089 C   0  0  0  0  0  0  0  0  0  0  0  0
  -25.6317   -1.1552   -9.8503 O   0  0  0  0  0  0  0  0  0  0  0  0
  -27.5881   -2.2259  -10.4178 N   0  0  0  0  0  0  0  0  0  0  0  0
  -26.9725   -1.6450  -12.6672 H   0  0  0  0  0  0  0  0  0  0  0  0
  -27.8194   -2.9717  -11.0536 H   0  0  0  0  0  0  0  0  0  0  0  0
  -27.9638   -2.4130   -9.0684 C   0  0  0  0  0  0  0  0  0  0  0  0
  -28.4072   -3.6740   -8.6689 C   0  0  0  0  0  0  0  0  0  0  0  0
  -28.6664   -3.9194   -7.3193 C   0  0  0  0  0  0  0  0  0  0  0  0
  -28.5232   -2.8987   -6.3768 C   0  0  0  0  0  0  0  0  0  0  0  0
  -28.1139   -1.6213   -6.7713 C   0  0  0  0  0  0  0  0  0  0  0  0
  -27.9413   -0.5156   -5.7732 C   0  0  0  0  0  0  0  0  0  0  0  0
  -27.8416   -1.3846   -8.1270 C   0  0  0  0  0  0  0  0  0  0  0  0
 19 20  1  0  0  0
 20 21  1  0  0  0
 20 23  1  0  0  0
 21 22  2  0  0  0
 21 13  1  0  0  0
 13 14  1  0  0  0
 13 18  2  0  0  0
 14 15  2  0  0  0
 15 16  1  0  0  0
 16 17  2  0  0  0
 17  1  1  0  0  0
 17 18  1  0  0  0
  1  2  1  0  0  0
  1 10  2  0  0  0
  2  3  2  0  0  0
  3  4  1  0  0  0
  4  5  1  0  0  0
  4  6  2  0  0  0
  5 11  1  0  0  0
  5 12  1  0  0  0
  6  7  1  0  0  0
  6 10  1  0  0  0
  7 24  1  0  0  0
  7  8  2  0  0  0
 24 25  1  0  0  0
 24 29  2  0  0  0
 25 26  2  0  0  0
 26 27  1  0  0  0
 27 30  1  0  0  0
 27 28  2  0  0  0
 30 31  1  0  0  0
 30 34  1  0  0  0
 31 32  2  0  0  0
 31 33  1  0  0  0
 33 36  1  0  0  0
 33 35  1  0  0  0
 36 37  1  0  0  0
 36 42  2  0  0  0
 37 38  2  0  0  0
 38 39  1  0  0  0
 39 40  2  0  0  0
 40 41  1  0  0  0
 40 42  1  0  0  0
 28 29  1  0  0  0
  8  9  1  0  0  0
  9 10  1  0  0  0
M  END
> <minimizedAffinity>
-10.74524

$$$$
