CHEMBL395694


 25 28  0  0  0  0  0  0  0  0999 V2000
  -30.2313   -5.3083   -6.1217 C   0  0  0  0  0  0  0  0  0  0  0  0
  -30.6564   -5.3023   -4.7870 C   0  0  0  0  0  0  0  0  0  0  0  0
  -30.4029   -4.2016   -3.9447 C   0  0  0  0  0  0  0  0  0  0  0  0
  -29.7193   -3.0824   -4.4189 C   0  0  0  0  0  0  0  0  0  0  0  0
  -29.3307   -3.0985   -5.7407 C   0  0  0  0  0  0  0  0  0  0  0  0
  -29.5871   -4.1872   -6.6185 C   0  0  0  0  0  0  0  0  0  0  0  0
  -29.0756   -3.9416   -8.0438 C   0  0  0  0  0  0  0  0  0  0  0  0
  -28.4534   -2.6058   -7.8107 C   0  0  0  0  0  0  0  0  0  0  0  0
  -28.6095   -2.1375   -6.5010 C   0  0  0  0  0  0  0  0  0  0  0  0
  -28.0267   -0.9709   -6.2670 N   0  0  0  0  0  0  0  0  0  0  0  0
  -27.4896   -0.6803   -7.4821 N   0  0  0  0  0  0  0  0  0  0  0  0
  -27.7265   -1.6373   -8.4508 C   0  0  0  0  0  0  0  0  0  0  0  0
  -26.9743    0.1853   -7.5800 H   0  0  0  0  0  0  0  0  0  0  0  0
  -27.2721   -1.6046   -9.8661 C   0  0  0  0  0  0  0  0  0  0  0  0
  -28.1343   -1.5209  -11.0002 C   0  0  0  0  0  0  0  0  0  0  0  0
  -27.4398   -1.5172  -12.1899 C   0  0  0  0  0  0  0  0  0  0  0  0
  -25.7515   -1.6109  -11.9450 S   0  0  0  0  0  0  0  0  0  0  0  0
  -25.9461   -1.6481  -10.2418 C   0  0  0  0  0  0  0  0  0  0  0  0
  -30.4480   -6.4761   -6.9047 N   0  0  0  0  0  0  0  0  0  0  0  0
  -31.3395   -6.9558   -6.7718 H   0  0  0  0  0  0  0  0  0  0  0  0
  -29.1928   -7.5865   -7.0916 S   0  0  0  0  0  0  0  0  0  0  0  0
  -28.4209   -7.4799   -5.8690 O   0  0  0  0  0  0  0  0  0  0  0  0
  -28.5746   -7.4131   -8.3864 O   0  0  0  0  0  0  0  0  0  0  0  0
  -31.5334   -8.9634   -7.4753 C   0  0  0  0  0  0  0  0  0  0  0  0
  -30.0890   -9.1357   -7.0488 C   0  0  0  0  0  0  0  0  0  0  0  0
 24 25  1  0  0  0
 25 21  1  0  0  0
 21 22  2  0  0  0
 21 23  2  0  0  0
 21 19  1  0  0  0
 19  1  1  0  0  0
 19 20  1  0  0  0
  1  2  1  0  0  0
  1  6  2  0  0  0
  2  3  2  0  0  0
  3  4  1  0  0  0
  4  5  2  0  0  0
  5  6  1  0  0  0
  5  9  1  0  0  0
  6  7  1  0  0  0
  7  8  1  0  0  0
  8  9  1  0  0  0
  8 12  2  0  0  0
  9 10  2  0  0  0
 10 11  1  0  0  0
 11 12  1  0  0  0
 11 13  1  0  0  0
 12 14  1  0  0  0
 14 15  1  0  0  0
 14 18  2  0  0  0
 15 16  2  0  0  0
 16 17  1  0  0  0
 17 18  1  0  0  0
M  END
> <minimizedAffinity>
-7.38078

$$$$
