CHEMBL2409786


 35 39  0  0  0  0  0  0  0  0999 V2000
  -27.5589   -0.3293   -7.3921 C   0  0  0  0  0  0  0  0  0  0  0  0
  -28.1837   -1.6930   -7.2554 C   0  0  0  0  0  0  0  0  0  0  0  0
  -28.9838   -1.9131   -6.1162 C   0  0  0  0  0  0  0  0  0  0  0  0
  -29.6258   -3.1305   -5.9080 C   0  0  0  0  0  0  0  0  0  0  0  0
  -29.5414   -4.1260   -6.8741 C   0  0  0  0  0  0  0  0  0  0  0  0
  -28.7031   -3.9439   -7.9803 C   0  0  0  0  0  0  0  0  0  0  0  0
  -27.9984   -2.7437   -8.1853 C   0  0  0  0  0  0  0  0  0  0  0  0
  -27.1362   -2.5578   -9.3075 N   0  0  0  0  0  0  0  0  0  0  0  0
  -27.3686   -1.7379  -10.4094 C   0  0  0  0  0  0  0  0  0  0  0  0
  -28.4050   -1.1175  -10.6191 O   0  0  0  0  0  0  0  0  0  0  0  0
  -26.3093   -3.1329   -9.3453 H   0  0  0  0  0  0  0  0  0  0  0  0
  -26.2689   -1.6450  -11.3756 C   0  0  0  0  0  0  0  0  0  0  0  0
  -24.9312   -1.3588  -11.1622 C   0  0  0  0  0  0  0  0  0  0  0  0
  -24.3477   -1.2902  -12.3976 N   0  0  0  0  0  0  0  0  0  0  0  0
  -22.9968   -0.8906  -12.7122 C   0  0  0  0  0  0  0  0  0  0  0  0
  -25.1833   -1.5758  -13.4010 N   0  0  0  0  0  0  0  0  0  0  0  0
  -26.3664   -1.7662  -12.7980 C   0  0  0  0  0  0  0  0  0  0  0  0
  -27.5658   -2.0495  -13.6310 C   0  0  0  0  0  0  0  0  0  0  0  0
  -30.2215   -5.3262   -6.7977 O   0  0  0  0  0  0  0  0  0  0  0  0
  -29.8668   -6.2873   -5.8557 C   0  0  0  0  0  0  0  0  0  0  0  0
  -30.4340   -6.2406   -4.5073 C   0  0  0  0  0  0  0  0  0  0  0  0
  -30.0124   -7.0745   -3.5407 C   0  0  0  0  0  0  0  0  0  0  0  0
  -29.0666   -8.0821   -3.8554 C   0  0  0  0  0  0  0  0  0  0  0  0
  -28.4787   -8.9793   -3.1111 N   0  0  0  0  0  0  0  0  0  0  0  0
  -27.7142   -9.6805   -3.9908 C   0  0  0  0  0  0  0  0  0  0  0  0
  -27.8132   -9.2866   -5.2649 N   0  0  0  0  0  0  0  0  0  0  0  0
  -28.6455   -8.2083   -5.1780 N   0  0  0  0  0  0  0  0  0  0  0  0
  -29.0396   -7.3037   -6.1688 C   0  0  0  0  0  0  0  0  0  0  0  0
  -26.9215  -10.7290   -3.5995 N   0  0  0  0  0  0  0  0  0  0  0  0
  -25.5930  -10.5778   -3.2733 C   0  0  0  0  0  0  0  0  0  0  0  0
  -24.9410   -9.5435   -3.3235 O   0  0  0  0  0  0  0  0  0  0  0  0
  -27.3559  -11.6344   -3.6461 H   0  0  0  0  0  0  0  0  0  0  0  0
  -24.8493  -11.8058   -2.8638 C   0  0  0  0  0  0  0  0  0  0  0  0
  -24.7378  -12.1806   -1.4048 C   0  0  0  0  0  0  0  0  0  0  0  0
  -23.5005  -11.8652   -2.1974 C   0  0  0  0  0  0  0  0  0  0  0  0
  1  2  1  0  0  0
  2  3  1  0  0  0
  2  7  2  0  0  0
  3  4  2  0  0  0
  4  5  1  0  0  0
  5 19  1  0  0  0
  5  6  2  0  0  0
 19 20  1  0  0  0
 20 21  1  0  0  0
 20 28  2  0  0  0
 21 22  2  0  0  0
 22 23  1  0  0  0
 23 24  2  0  0  0
 23 27  1  0  0  0
 24 25  1  0  0  0
 25 29  1  0  0  0
 25 26  2  0  0  0
 29 30  1  0  0  0
 29 32  1  0  0  0
 30 31  2  0  0  0
 30 33  1  0  0  0
 33 34  1  0  0  0
 33 35  1  0  0  0
 34 35  1  0  0  0
 26 27  1  0  0  0
 27 28  1  0  0  0
  6  7  1  0  0  0
  7  8  1  0  0  0
  8  9  1  0  0  0
  8 11  1  0  0  0
  9 10  2  0  0  0
  9 12  1  0  0  0
 12 13  2  0  0  0
 12 17  1  0  0  0
 13 14  1  0  0  0
 14 15  1  0  0  0
 14 16  1  0  0  0
 16 17  2  0  0  0
 17 18  1  0  0  0
M  END
> <minimizedAffinity>
-9.73553

$$$$
