CHEMBL462667


 40 45  0  0  0  0  0  0  0  0999 V2000
  -28.0513   -2.2589   -8.5302 C   0  0  0  0  0  0  0  0  0  0  0  0
  -28.8018   -3.3542   -8.1009 C   0  0  0  0  0  0  0  0  0  0  0  0
  -29.1017   -3.4949   -6.7388 C   0  0  0  0  0  0  0  0  0  0  0  0
  -28.6257   -2.5671   -5.8022 C   0  0  0  0  0  0  0  0  0  0  0  0
  -27.8800   -1.4754   -6.2604 C   0  0  0  0  0  0  0  0  0  0  0  0
  -27.4701   -0.5061   -5.4270 F   0  0  0  0  0  0  0  0  0  0  0  0
  -27.5752   -1.3343   -7.6016 C   0  0  0  0  0  0  0  0  0  0  0  0
  -26.6934   -1.8079  -10.4712 C   0  0  0  0  0  0  0  0  0  0  0  0
  -25.6321   -1.9744   -9.8704 O   0  0  0  0  0  0  0  0  0  0  0  0
  -27.9353   -1.9928   -9.9056 N   0  0  0  0  0  0  0  0  0  0  0  0
  -28.7292   -2.1775  -10.5089 H   0  0  0  0  0  0  0  0  0  0  0  0
  -26.6488   -1.3737  -11.8946 C   0  0  0  0  0  0  0  0  0  0  0  0
  -27.0974   -2.4234  -12.9240 C   0  0  0  0  0  0  0  0  0  0  0  0
  -27.9859   -1.2582  -12.6411 C   0  0  0  0  0  0  0  0  0  0  0  0
  -23.9973   -2.2701  -12.8754 C   0  0  0  0  0  0  0  0  0  0  0  0
  -24.3355   -0.8490  -12.8057 N   0  0  0  0  0  0  0  0  0  0  0  0
  -25.5823   -0.3743  -12.3243 C   0  0  0  0  0  0  0  0  0  0  0  0
  -25.9078    0.8016  -12.2740 O   0  0  0  0  0  0  0  0  0  0  0  0
  -23.3382    0.0537  -13.3512 C   0  0  0  0  0  0  0  0  0  0  0  0
  -23.4534    1.4473  -13.2583 C   0  0  0  0  0  0  0  0  0  0  0  0
  -22.4913    2.2991  -13.8151 C   0  0  0  0  0  0  0  0  0  0  0  0
  -21.3866    1.7761  -14.4765 C   0  0  0  0  0  0  0  0  0  0  0  0
  -21.2320    0.3983  -14.5611 C   0  0  0  0  0  0  0  0  0  0  0  0
  -22.1917   -0.4493  -13.9988 C   0  0  0  0  0  0  0  0  0  0  0  0
  -29.0113   -2.7864   -4.5021 O   0  0  0  0  0  0  0  0  0  0  0  0
  -29.8313   -3.8531   -4.2054 C   0  0  0  0  0  0  0  0  0  0  0  0
  -31.1525   -3.7073   -3.7865 C   0  0  0  0  0  0  0  0  0  0  0  0
  -31.8981   -4.8417   -3.5345 C   0  0  0  0  0  0  0  0  0  0  0  0
  -31.4484   -6.1079   -3.6172 N   0  0  0  0  0  0  0  0  0  0  0  0
  -30.1388   -6.2470   -3.9631 C   0  0  0  0  0  0  0  0  0  0  0  0
  -29.4534   -7.4915   -4.1033 C   0  0  0  0  0  0  0  0  0  0  0  0
  -28.1279   -7.3231   -4.4332 C   0  0  0  0  0  0  0  0  0  0  0  0
  -27.7115   -5.6765   -4.5811 S   0  0  0  0  0  0  0  0  0  0  0  0
  -29.3114   -5.1577   -4.2374 C   0  0  0  0  0  0  0  0  0  0  0  0
  -27.1706   -8.4444   -4.6528 C   0  0  0  0  0  0  0  0  0  0  0  0
  -25.9720   -8.6073   -3.9925 C   0  0  0  0  0  0  0  0  0  0  0  0
  -25.4208   -9.7332   -4.5281 N   0  0  0  0  0  0  0  0  0  0  0  0
  -24.1566  -10.3157   -4.1599 C   0  0  0  0  0  0  0  0  0  0  0  0
  -26.2790  -10.2061   -5.4776 C   0  0  0  0  0  0  0  0  0  0  0  0
  -27.3596   -9.4601   -5.5614 N   0  0  0  0  0  0  0  0  0  0  0  0
 15 16  1  0  0  0
 16 17  1  0  0  0
 16 19  1  0  0  0
 17 18  2  0  0  0
 17 12  1  0  0  0
 12  8  1  0  0  0
 12 13  1  0  0  0
 12 14  1  0  0  0
  8  9  2  0  0  0
  8 10  1  0  0  0
 10  1  1  0  0  0
 10 11  1  0  0  0
  1  2  1  0  0  0
  1  7  2  0  0  0
  2  3  2  0  0  0
  3  4  1  0  0  0
  4 25  1  0  0  0
  4  5  2  0  0  0
 25 26  1  0  0  0
 26 27  1  0  0  0
 26 34  2  0  0  0
 27 28  2  0  0  0
 28 29  1  0  0  0
 29 30  2  0  0  0
 30 31  1  0  0  0
 30 34  1  0  0  0
 31 32  2  0  0  0
 32 35  1  0  0  0
 32 33  1  0  0  0
 35 36  2  0  0  0
 35 40  1  0  0  0
 36 37  1  0  0  0
 37 38  1  0  0  0
 37 39  1  0  0  0
 39 40  2  0  0  0
 33 34  1  0  0  0
  5  6  1  0  0  0
  5  7  1  0  0  0
 13 14  1  0  0  0
 19 20  1  0  0  0
 19 24  2  0  0  0
 20 21  2  0  0  0
 21 22  1  0  0  0
 22 23  2  0  0  0
 23 24  1  0  0  0
M  END
> <minimizedAffinity>
-9.59003

$$$$
