CHEMBL3740721


 40 44  0  0  0  0  0  0  0  0999 V2000
  -29.8477  -10.6780   -8.0868 O   0  0  0  0  0  0  0  0  0  0  0  0
  -30.1404   -9.5593   -7.3505 C   0  0  0  0  0  0  0  0  0  0  0  0
  -31.4671   -9.1386   -7.3151 C   0  0  0  0  0  0  0  0  0  0  0  0
  -31.7725   -7.9020   -6.7426 C   0  0  0  0  0  0  0  0  0  0  0  0
  -30.7658   -7.1428   -6.1139 C   0  0  0  0  0  0  0  0  0  0  0  0
  -30.9838   -5.9135   -5.4750 C   0  0  0  0  0  0  0  0  0  0  0  0
  -30.9324   -6.0925   -4.1069 C   0  0  0  0  0  0  0  0  0  0  0  0
  -29.8337   -6.7989   -3.6223 C   0  0  0  0  0  0  0  0  0  0  0  0
  -29.0423   -7.5325   -4.5234 C   0  0  0  0  0  0  0  0  0  0  0  0
  -29.5947   -7.8288   -5.7786 C   0  0  0  0  0  0  0  0  0  0  0  0
  -29.1917   -8.9316   -6.5427 C   0  0  0  0  0  0  0  0  0  0  0  0
  -29.9483   -4.7935   -5.9063 C   0  0  0  0  0  0  0  0  0  0  0  0
  -29.0632   -5.0397   -6.7192 O   0  0  0  0  0  0  0  0  0  0  0  0
  -30.1328   -3.5603   -5.2707 N   0  0  0  0  0  0  0  0  0  0  0  0
  -30.9596   -3.4655   -4.7074 H   0  0  0  0  0  0  0  0  0  0  0  0
  -29.2917   -2.4213   -5.2426 C   0  0  0  0  0  0  0  0  0  0  0  0
  -27.9031   -2.4473   -5.0811 C   0  0  0  0  0  0  0  0  0  0  0  0
  -27.1565   -1.2530   -5.0668 C   0  0  0  0  0  0  0  0  0  0  0  0
  -27.7887   -0.0171   -5.1971 C   0  0  0  0  0  0  0  0  0  0  0  0
  -29.1701    0.0288   -5.3287 C   0  0  0  0  0  0  0  0  0  0  0  0
  -29.9081   -1.1508   -5.3454 C   0  0  0  0  0  0  0  0  0  0  0  0
  -26.6358  -11.3500   -9.3388 C   0  0  0  0  0  0  0  0  0  0  0  0
  -26.5297  -10.6211  -10.4610 N   0  0  0  0  0  0  0  0  0  0  0  0
  -27.6142   -9.9265  -10.8452 C   0  0  0  0  0  0  0  0  0  0  0  0
  -28.7886   -9.9087  -10.1396 C   0  0  0  0  0  0  0  0  0  0  0  0
  -28.7759  -10.6109   -8.9557 C   0  0  0  0  0  0  0  0  0  0  0  0
  -27.7247  -11.3481   -8.5621 N   0  0  0  0  0  0  0  0  0  0  0  0
  -25.5345  -12.1508   -9.0519 N   0  0  0  0  0  0  0  0  0  0  0  0
  -25.7908  -13.1162   -9.2041 H   0  0  0  0  0  0  0  0  0  0  0  0
  -23.2683  -10.8814   -6.4002 C   0  0  0  0  0  0  0  0  0  0  0  0
  -22.0411  -11.4220   -6.8005 C   0  0  0  0  0  0  0  0  0  0  0  0
  -21.9630  -12.2082   -7.9463 C   0  0  0  0  0  0  0  0  0  0  0  0
  -23.1091  -12.4600   -8.7034 C   0  0  0  0  0  0  0  0  0  0  0  0
  -24.3458  -11.9127   -8.3531 C   0  0  0  0  0  0  0  0  0  0  0  0
  -24.3980  -11.1090   -7.2043 C   0  0  0  0  0  0  0  0  0  0  0  0
  -23.3608  -10.0583   -5.1435 C   0  0  0  0  0  0  0  0  0  0  0  0
  -22.1536  -11.5139   -3.0361 C   0  0  0  0  0  0  0  0  0  0  0  0
  -23.7430  -11.0773   -3.7146 S   0  0  0  0  0  0  0  0  0  0  0  0
  -24.4033  -12.2999   -4.1396 O   0  0  0  0  0  0  0  0  0  0  0  0
  -24.3982  -10.2203   -2.7381 O   0  0  0  0  0  0  0  0  0  0  0  0
 37 38  1  0  0  0
 38 39  2  0  0  0
 38 40  2  0  0  0
 38 36  1  0  0  0
 36 30  1  0  0  0
 30 31  1  0  0  0
 30 35  2  0  0  0
 31 32  2  0  0  0
 32 33  1  0  0  0
 33 34  2  0  0  0
 34 28  1  0  0  0
 34 35  1  0  0  0
 28 22  1  0  0  0
 28 29  1  0  0  0
 22 23  1  0  0  0
 22 27  2  0  0  0
 23 24  2  0  0  0
 24 25  1  0  0  0
 25 26  2  0  0  0
 26  1  1  0  0  0
 26 27  1  0  0  0
  1  2  1  0  0  0
  2  3  1  0  0  0
  2 11  2  0  0  0
  3  4  2  0  0  0
  4  5  1  0  0  0
  5  6  1  0  0  0
  5 10  2  0  0  0
  6 12  1  0  0  0
  6  7  2  0  0  0
 12 13  2  0  0  0
 12 14  1  0  0  0
 14 16  1  0  0  0
 14 15  1  0  0  0
 16 17  1  0  0  0
 16 21  2  0  0  0
 17 18  2  0  0  0
 18 19  1  0  0  0
 19 20  2  0  0  0
 20 21  1  0  0  0
  7  8  1  0  0  0
  8  9  2  0  0  0
  9 10  1  0  0  0
 10 11  1  0  0  0
M  END
> <minimizedAffinity>
-9.70507

$$$$
