CHEMBL193920


 32 35  0  0  0  0  0  0  0  0999 V2000
  -19.1470    1.1846  -15.1476 C   0  0  0  0  0  0  0  0  0  0  0  0
  -18.0616    0.3214  -15.1985 C   0  0  0  0  0  0  0  0  0  0  0  0
  -16.7546    0.7979  -15.2412 C   0  0  0  0  0  0  0  0  0  0  0  0
  -16.4873    2.1451  -15.4854 C   0  0  0  0  0  0  0  0  0  0  0  0
  -17.5875    3.0036  -15.6088 C   0  0  0  0  0  0  0  0  0  0  0  0
  -18.8967    2.5382  -15.3827 C   0  0  0  0  0  0  0  0  0  0  0  0
  -15.0916    2.6118  -15.6070 C   0  0  0  0  0  0  0  0  0  0  0  0
  -14.7051    3.4946  -16.6237 C   0  0  0  0  0  0  0  0  0  0  0  0
  -15.4691    4.1782  -17.7226 C   0  0  0  0  0  0  0  0  0  0  0  0
  -13.0243    3.8176  -16.5924 S   0  0  0  0  0  0  0  0  0  0  0  0
  -12.7860    2.8471  -15.2306 C   0  0  0  0  0  0  0  0  0  0  0  0
  -11.5457    2.7426  -14.7271 N   0  0  0  0  0  0  0  0  0  0  0  0
  -11.4949    1.9495  -13.6641 C   0  0  0  0  0  0  0  0  0  0  0  0
  -12.5100    1.2826  -13.1064 N   0  0  0  0  0  0  0  0  0  0  0  0
  -13.7390    1.3952  -13.6466 C   0  0  0  0  0  0  0  0  0  0  0  0
  -14.7075    0.6293  -13.0116 N   0  0  0  0  0  0  0  0  0  0  0  0
  -13.9422    2.2312  -14.7704 C   0  0  0  0  0  0  0  0  0  0  0  0
  -14.2634   -0.0140  -12.3648 H   0  0  0  0  0  0  0  0  0  0  0  0
  -15.3828    0.2098  -13.6376 H   0  0  0  0  0  0  0  0  0  0  0  0
  -21.4519    1.4426  -14.5039 C   0  0  0  0  0  0  0  0  0  0  0  0
  -21.3626    3.1251  -13.9638 S   0  0  0  0  0  0  0  0  0  0  0  0
  -20.4664    0.7435  -14.9787 N   0  0  0  0  0  0  0  0  0  0  0  0
  -20.8504    2.8299  -12.7590 H   0  0  0  0  0  0  0  0  0  0  0  0
  -22.7402    1.0169  -14.3430 N   0  0  0  0  0  0  0  0  0  0  0  0
  -23.4170    1.4949  -14.9207 H   0  0  0  0  0  0  0  0  0  0  0  0
  -26.5594   -1.8688  -13.2790 C   0  0  0  0  0  0  0  0  0  0  0  0
  -25.1772   -1.3975  -12.9478 C   0  0  0  0  0  0  0  0  0  0  0  0
  -24.4460   -1.9662  -11.9070 C   0  0  0  0  0  0  0  0  0  0  0  0
  -23.1402   -1.5471  -11.6514 C   0  0  0  0  0  0  0  0  0  0  0  0
  -22.5556   -0.5594  -12.4519 C   0  0  0  0  0  0  0  0  0  0  0  0
  -23.2718    0.0480  -13.4850 C   0  0  0  0  0  0  0  0  0  0  0  0
  -24.5846   -0.3905  -13.7224 C   0  0  0  0  0  0  0  0  0  0  0  0
 26 27  1  0  0  0
 27 28  1  0  0  0
 27 32  2  0  0  0
 28 29  2  0  0  0
 29 30  1  0  0  0
 30 31  2  0  0  0
 31 24  1  0  0  0
 31 32  1  0  0  0
 24 20  1  0  0  0
 24 25  1  0  0  0
 20 21  1  0  0  0
 20 22  2  0  0  0
 21 23  1  0  0  0
 22  1  1  0  0  0
  1  2  1  0  0  0
  1  6  2  0  0  0
  2  3  2  0  0  0
  3  4  1  0  0  0
  4  7  1  0  0  0
  4  5  2  0  0  0
  7  8  2  0  0  0
  7 17  1  0  0  0
  8  9  1  0  0  0
  8 10  1  0  0  0
 10 11  1  0  0  0
 11 12  1  0  0  0
 11 17  2  0  0  0
 12 13  2  0  0  0
 13 14  1  0  0  0
 14 15  2  0  0  0
 15 16  1  0  0  0
 15 17  1  0  0  0
 16 18  1  0  0  0
 16 19  1  0  0  0
  5  6  1  0  0  0
M  END
> <minimizedAffinity>
-9.41754

$$$$
