CHEMBL1242377


 24 26  0  0  0  0  0  0  0  0999 V2000
  -15.0697    2.9565  -16.3501 N   0  0  0  0  0  0  0  0  0  0  0  0
  -16.4152    2.8884  -16.4383 N   0  0  0  0  0  0  0  0  0  0  0  0
  -16.7904    2.1471  -15.3752 C   0  0  0  0  0  0  0  0  0  0  0  0
  -15.6465    1.7013  -14.6340 C   0  0  0  0  0  0  0  0  0  0  0  0
  -15.3463    0.8968  -13.5233 C   0  0  0  0  0  0  0  0  0  0  0  0
  -16.2657    0.1599  -12.7857 N   0  0  0  0  0  0  0  0  0  0  0  0
  -14.0614    0.7881  -13.1259 N   0  0  0  0  0  0  0  0  0  0  0  0
  -13.1115    1.4347  -13.8254 C   0  0  0  0  0  0  0  0  0  0  0  0
  -13.2680    2.1877  -14.9230 N   0  0  0  0  0  0  0  0  0  0  0  0
  -14.5621    2.2820  -15.2731 C   0  0  0  0  0  0  0  0  0  0  0  0
  -17.0209   -0.2347  -13.3330 H   0  0  0  0  0  0  0  0  0  0  0  0
  -15.7774   -0.5015  -12.1902 H   0  0  0  0  0  0  0  0  0  0  0  0
  -18.2159    1.8990  -15.1268 C   0  0  0  0  0  0  0  0  0  0  0  0
  -18.7699    0.6188  -15.3002 C   0  0  0  0  0  0  0  0  0  0  0  0
  -20.1364    0.3926  -15.1116 C   0  0  0  0  0  0  0  0  0  0  0  0
  -20.9439    1.4372  -14.6897 C   0  0  0  0  0  0  0  0  0  0  0  0
  -22.2533    1.2303  -14.4899 F   0  0  0  0  0  0  0  0  0  0  0  0
  -20.4036    2.6975  -14.4577 C   0  0  0  0  0  0  0  0  0  0  0  0
  -21.1891    3.7183  -14.0018 O   0  0  0  0  0  0  0  0  0  0  0  0
  -19.0509    2.9384  -14.6819 C   0  0  0  0  0  0  0  0  0  0  0  0
  -22.0765    3.3443  -13.8441 H   0  0  0  0  0  0  0  0  0  0  0  0
  -13.9506    2.7234  -18.5368 C   0  0  0  0  0  0  0  0  0  0  0  0
  -14.2971    3.6525  -17.3730 C   0  0  0  0  0  0  0  0  0  0  0  0
  -15.0060    4.9149  -17.8629 C   0  0  0  0  0  0  0  0  0  0  0  0
 22 23  1  0  0  0
 23 24  1  0  0  0
 23  1  1  0  0  0
  1  2  1  0  0  0
  1 10  1  0  0  0
  2  3  2  0  0  0
  3 13  1  0  0  0
  3  4  1  0  0  0
 13 14  1  0  0  0
 13 20  2  0  0  0
 14 15  2  0  0  0
 15 16  1  0  0  0
 16 17  1  0  0  0
 16 18  2  0  0  0
 18 19  1  0  0  0
 18 20  1  0  0  0
 19 21  1  0  0  0
  4  5  1  0  0  0
  4 10  2  0  0  0
  5  6  1  0  0  0
  5  7  2  0  0  0
  6 11  1  0  0  0
  6 12  1  0  0  0
  7  8  1  0  0  0
  8  9  2  0  0  0
  9 10  1  0  0  0
M  END
> <minimizedAffinity>
-7.41936

$$$$
