CHEMBL234944


 37 40  0  0  0  0  0  0  0  0999 V2000
  -28.5150   -3.7476   -7.5822 C   0  0  0  0  0  0  0  0  0  0  0  0
  -28.4188   -3.3181   -8.8750 N   0  0  0  0  0  0  0  0  0  0  0  0
  -27.9275   -2.0898   -9.0977 C   0  0  0  0  0  0  0  0  0  0  0  0
  -27.5376   -1.2803   -8.1058 N   0  0  0  0  0  0  0  0  0  0  0  0
  -27.6509   -1.7059   -6.8447 C   0  0  0  0  0  0  0  0  0  0  0  0
  -28.1487   -2.9370   -6.5156 C   0  0  0  0  0  0  0  0  0  0  0  0
  -30.2993   -7.6964   -7.3230 C   0  0  0  0  0  0  0  0  0  0  0  0
  -30.8989   -6.5912   -6.7112 C   0  0  0  0  0  0  0  0  0  0  0  0
  -30.2936   -5.3333   -6.7387 C   0  0  0  0  0  0  0  0  0  0  0  0
  -29.0923   -5.1031   -7.4260 C   0  0  0  0  0  0  0  0  0  0  0  0
  -28.4627   -6.2226   -7.9919 C   0  0  0  0  0  0  0  0  0  0  0  0
  -29.0511   -7.4920   -7.9353 C   0  0  0  0  0  0  0  0  0  0  0  0
  -30.4705   -9.8853   -8.5493 C   0  0  0  0  0  0  0  0  0  0  0  0
  -30.9494   -9.0808   -7.3255 C   0  0  0  0  0  0  0  0  0  0  0  0
  -32.4926   -9.0468   -7.3574 C   0  0  0  0  0  0  0  0  0  0  0  0
  -30.5460   -9.7994   -6.1077 N   0  0  0  0  0  0  0  0  0  0  0  0
  -31.0195  -10.6997   -6.0677 H   0  0  0  0  0  0  0  0  0  0  0  0
  -30.8670   -9.2711   -5.2970 H   0  0  0  0  0  0  0  0  0  0  0  0
  -27.8827   -1.6204  -10.4112 N   0  0  0  0  0  0  0  0  0  0  0  0
  -28.7579   -1.2241  -10.7122 H   0  0  0  0  0  0  0  0  0  0  0  0
  -26.7581   -1.4890  -11.2403 C   0  0  0  0  0  0  0  0  0  0  0  0
  -26.8460   -1.6807  -12.6222 C   0  0  0  0  0  0  0  0  0  0  0  0
  -25.7160   -1.6777  -13.4386 C   0  0  0  0  0  0  0  0  0  0  0  0
  -24.4563   -1.4239  -12.9038 C   0  0  0  0  0  0  0  0  0  0  0  0
  -24.3426   -1.2631  -11.5232 C   0  0  0  0  0  0  0  0  0  0  0  0
  -25.4841   -1.2914  -10.6986 C   0  0  0  0  0  0  0  0  0  0  0  0
  -23.3076   -1.2914  -13.6560 O   0  0  0  0  0  0  0  0  0  0  0  0
  -23.0845    0.0517  -14.1203 C   0  0  0  0  0  0  0  0  0  0  0  0
  -21.6885    0.5991  -13.7609 C   0  0  0  0  0  0  0  0  0  0  0  0
  -21.0203    1.1630  -14.9514 N   0  0  0  0  0  0  0  0  0  0  0  0
  -19.6265    0.7216  -15.1684 C   0  0  0  0  0  0  0  0  0  0  0  0
  -18.5276    1.5276  -14.4448 C   0  0  0  0  0  0  0  0  0  0  0  0
  -18.7084    2.9430  -14.5569 O   0  0  0  0  0  0  0  0  0  0  0  0
  -20.0220    3.3124  -14.1242 C   0  0  0  0  0  0  0  0  0  0  0  0
  -21.0695    2.6355  -15.0149 C   0  0  0  0  0  0  0  0  0  0  0  0
  -28.2802   -3.2523   -5.1375 C   0  0  0  0  0  0  0  0  0  0  0  0
  -28.3775   -3.5530   -4.0175 N   0  0  0  0  0  0  0  0  0  0  0  0
 13 14  1  0  0  0
 14 15  1  0  0  0
 14 16  1  0  0  0
 14  7  1  0  0  0
 16 17  1  0  0  0
 16 18  1  0  0  0
  7  8  1  0  0  0
  7 12  2  0  0  0
  8  9  2  0  0  0
  9 10  1  0  0  0
 10  1  1  0  0  0
 10 11  2  0  0  0
  1  2  1  0  0  0
  1  6  2  0  0  0
  2  3  2  0  0  0
  3 19  1  0  0  0
  3  4  1  0  0  0
 19 21  1  0  0  0
 19 20  1  0  0  0
 21 22  1  0  0  0
 21 26  2  0  0  0
 22 23  2  0  0  0
 23 24  1  0  0  0
 24 27  1  0  0  0
 24 25  2  0  0  0
 27 28  1  0  0  0
 28 29  1  0  0  0
 29 30  1  0  0  0
 30 31  1  0  0  0
 30 35  1  0  0  0
 31 32  1  0  0  0
 32 33  1  0  0  0
 33 34  1  0  0  0
 34 35  1  0  0  0
 25 26  1  0  0  0
  4  5  2  0  0  0
  5  6  1  0  0  0
  6 36  1  0  0  0
 36 37  3  0  0  0
 11 12  1  0  0  0
M  END
> <minimizedAffinity>
-9.78233

$$$$
