CHEMBL202244


 35 40  0  0  0  0  0  0  0  0999 V2000
  -29.3974   -6.8517   -5.5993 C   0  0  0  0  0  0  0  0  0  0  0  0
  -29.3593   -8.1959   -6.0440 C   0  0  0  0  0  0  0  0  0  0  0  0
  -28.8248   -8.5747   -7.3430 C   0  0  0  0  0  0  0  0  0  0  0  0
  -28.8703   -9.8701   -7.8847 C   0  0  0  0  0  0  0  0  0  0  0  0
  -28.5288  -10.2280   -9.1846 C   0  0  0  0  0  0  0  0  0  0  0  0
  -27.4478   -9.7022   -9.8335 C   0  0  0  0  0  0  0  0  0  0  0  0
  -27.5601   -8.3635   -9.4403 C   0  0  0  0  0  0  0  0  0  0  0  0
  -28.2255   -7.6766   -8.2212 C   0  0  0  0  0  0  0  0  0  0  0  0
  -28.3969   -6.2602   -7.7250 C   0  0  0  0  0  0  0  0  0  0  0  0
  -28.0017   -5.1056   -8.3866 O   0  0  0  0  0  0  0  0  0  0  0  0
  -28.2873   -4.0220   -7.5963 C   0  0  0  0  0  0  0  0  0  0  0  0
  -28.8605   -4.4109   -6.4065 C   0  0  0  0  0  0  0  0  0  0  0  0
  -28.9556   -5.8480   -6.4819 C   0  0  0  0  0  0  0  0  0  0  0  0
  -29.1251   -3.4242   -5.3610 C   0  0  0  0  0  0  0  0  0  0  0  0
  -29.4141   -3.6815   -4.2010 O   0  0  0  0  0  0  0  0  0  0  0  0
  -28.8599   -2.0047   -5.7093 C   0  0  0  0  0  0  0  0  0  0  0  0
  -29.1302   -1.0284   -4.7383 C   0  0  0  0  0  0  0  0  0  0  0  0
  -28.8395    0.3076   -4.9998 C   0  0  0  0  0  0  0  0  0  0  0  0
  -28.2574    0.6789   -6.2063 C   0  0  0  0  0  0  0  0  0  0  0  0
  -27.9688   -0.2941   -7.1636 C   0  0  0  0  0  0  0  0  0  0  0  0
  -28.2734   -1.6405   -6.9303 C   0  0  0  0  0  0  0  0  0  0  0  0
  -27.9410   -2.6665   -7.9680 C   0  0  0  0  0  0  0  0  0  0  0  0
  -27.4250   -2.3131   -9.0230 O   0  0  0  0  0  0  0  0  0  0  0  0
  -30.0490   -6.4987   -4.3049 C   0  0  0  0  0  0  0  0  0  0  0  0
  -29.4373   -6.4868   -3.2504 O   0  0  0  0  0  0  0  0  0  0  0  0
  -31.9695   -5.5411   -3.3258 C   0  0  0  0  0  0  0  0  0  0  0  0
  -31.3511   -6.1359   -4.4779 O   0  0  0  0  0  0  0  0  0  0  0  0
  -29.9112   -9.0845   -5.1127 O   0  0  0  0  0  0  0  0  0  0  0  0
  -29.0268   -9.9727   -4.4508 C   0  0  0  0  0  0  0  0  0  0  0  0
  -27.7259   -9.4661   -3.8492 C   0  0  0  0  0  0  0  0  0  0  0  0
  -26.6953  -10.4950   -4.1439 N   0  0  0  0  0  0  0  0  0  0  0  0
  -25.4462  -10.0188   -4.7438 C   0  0  0  0  0  0  0  0  0  0  0  0
  -25.5855  -10.3111   -6.2225 C   0  0  0  0  0  0  0  0  0  0  0  0
  -26.3068  -11.6451   -6.2268 C   0  0  0  0  0  0  0  0  0  0  0  0
  -27.1728  -11.6156   -4.9693 C   0  0  0  0  0  0  0  0  0  0  0  0
 26 27  1  0  0  0
 27 24  1  0  0  0
 24 25  2  0  0  0
 24  1  1  0  0  0
  1  2  1  0  0  0
  1 13  2  0  0  0
  2 28  1  0  0  0
  2  3  2  0  0  0
 28 29  1  0  0  0
 29 30  1  0  0  0
 30 31  1  0  0  0
 31 32  1  0  0  0
 31 35  1  0  0  0
 32 33  1  0  0  0
 33 34  1  0  0  0
 34 35  1  0  0  0
  3  4  1  0  0  0
  3  8  1  0  0  0
  4  5  2  0  0  0
  5  6  1  0  0  0
  6  7  2  0  0  0
  7  8  1  0  0  0
  8  9  2  0  0  0
  9 10  1  0  0  0
  9 13  1  0  0  0
 10 11  1  0  0  0
 11 12  2  0  0  0
 11 22  1  0  0  0
 12 13  1  0  0  0
 12 14  1  0  0  0
 14 15  2  0  0  0
 14 16  1  0  0  0
 16 17  1  0  0  0
 16 21  2  0  0  0
 17 18  2  0  0  0
 18 19  1  0  0  0
 19 20  2  0  0  0
 20 21  1  0  0  0
 21 22  1  0  0  0
 22 23  2  0  0  0
M  END
> <minimizedAffinity>
-8.91116

$$$$
