CHEMBL4790899


 51 57  0  0  0  0  0  0  0  0999 V2000
  -12.1844    1.4701  -15.7485 C   0  0  0  0  0  0  0  0  0  0  0  0
  -12.2021    0.3512  -14.9175 C   0  0  0  0  0  0  0  0  0  0  0  0
  -11.9103   -0.9162  -15.4407 C   0  0  0  0  0  0  0  0  0  0  0  0
  -11.6182   -1.0947  -16.8041 C   0  0  0  0  0  0  0  0  0  0  0  0
  -11.5447    0.0437  -17.6076 C   0  0  0  0  0  0  0  0  0  0  0  0
  -11.8612    1.2996  -17.0965 C   0  0  0  0  0  0  0  0  0  0  0  0
  -11.8818    2.3332  -17.9523 F   0  0  0  0  0  0  0  0  0  0  0  0
  -11.4437   -2.4046  -17.2963 N   0  0  0  0  0  0  0  0  0  0  0  0
  -11.1260   -3.0627  -16.5781 H   0  0  0  0  0  0  0  0  0  0  0  0
  -12.1820   -3.0768  -18.3021 C   0  0  0  0  0  0  0  0  0  0  0  0
  -12.3117   -2.5046  -19.5253 N   0  0  0  0  0  0  0  0  0  0  0  0
  -13.0352   -3.1242  -20.4796 C   0  0  0  0  0  0  0  0  0  0  0  0
  -13.6717   -4.3309  -20.2880 C   0  0  0  0  0  0  0  0  0  0  0  0
  -13.5549   -4.9381  -19.0430 C   0  0  0  0  0  0  0  0  0  0  0  0
  -14.1274   -6.2004  -18.8190 N   0  0  0  0  0  0  0  0  0  0  0  0
  -14.0556   -6.7853  -17.5843 C   0  0  0  0  0  0  0  0  0  0  0  0
  -13.3982   -6.2834  -16.5276 C   0  0  0  0  0  0  0  0  0  0  0  0
  -12.7060   -4.9707  -16.7054 C   0  0  0  0  0  0  0  0  0  0  0  0
  -12.1262   -4.4248  -15.7693 O   0  0  0  0  0  0  0  0  0  0  0  0
  -12.7823   -4.3170  -18.0425 C   0  0  0  0  0  0  0  0  0  0  0  0
  -14.8707   -6.5055  -19.4397 H   0  0  0  0  0  0  0  0  0  0  0  0
  -13.4906   -6.9626  -15.2331 C   0  0  0  0  0  0  0  0  0  0  0  0
  -12.3853   -7.6081  -14.6618 C   0  0  0  0  0  0  0  0  0  0  0  0
  -12.5404   -8.3478  -13.4869 C   0  0  0  0  0  0  0  0  0  0  0  0
  -13.7947   -8.4378  -12.8905 C   0  0  0  0  0  0  0  0  0  0  0  0
  -13.9489   -9.1819  -11.7873 F   0  0  0  0  0  0  0  0  0  0  0  0
  -14.8906   -7.7836  -13.4312 C   0  0  0  0  0  0  0  0  0  0  0  0
  -14.7414   -7.0376  -14.5982 C   0  0  0  0  0  0  0  0  0  0  0  0
  -12.5660    2.6740  -15.1871 O   0  0  0  0  0  0  0  0  0  0  0  0
  -17.6001    1.8831  -15.4382 C   0  0  0  0  0  0  0  0  0  0  0  0
  -17.2268    2.9649  -16.2420 C   0  0  0  0  0  0  0  0  0  0  0  0
  -15.9241    3.4278  -16.3168 C   0  0  0  0  0  0  0  0  0  0  0  0
  -15.6879    4.4902  -17.0932 N   0  0  0  0  0  0  0  0  0  0  0  0
  -14.4306    4.9446  -17.1380 C   0  0  0  0  0  0  0  0  0  0  0  0
  -13.3911    4.4340  -16.4835 N   0  0  0  0  0  0  0  0  0  0  0  0
  -13.6517    3.3194  -15.7687 C   0  0  0  0  0  0  0  0  0  0  0  0
  -14.9299    2.7708  -15.5907 C   0  0  0  0  0  0  0  0  0  0  0  0
  -15.2766    1.6425  -14.7999 C   0  0  0  0  0  0  0  0  0  0  0  0
  -16.5970    1.1726  -14.7604 C   0  0  0  0  0  0  0  0  0  0  0  0
  -19.8497    2.4459  -14.7932 C   0  0  0  0  0  0  0  0  0  0  0  0
  -18.9000    1.4910  -15.2640 O   0  0  0  0  0  0  0  0  0  0  0  0
  -16.7800    0.0323  -14.0123 O   0  0  0  0  0  0  0  0  0  0  0  0
  -15.6169   -0.4340  -13.3086 C   0  0  0  0  0  0  0  0  0  0  0  0
  -15.4165   -1.9361  -13.5562 C   0  0  0  0  0  0  0  0  0  0  0  0
  -14.3533   -2.5363  -12.6242 C   0  0  0  0  0  0  0  0  0  0  0  0
  -14.8067   -2.7374  -11.2312 N   0  0  0  0  0  0  0  0  0  0  0  0
  -13.8708   -3.6368  -10.5070 C   0  0  0  0  0  0  0  0  0  0  0  0
  -13.9507   -5.1055  -10.9655 C   0  0  0  0  0  0  0  0  0  0  0  0
  -15.2825   -5.6203  -10.8390 O   0  0  0  0  0  0  0  0  0  0  0  0
  -16.2198   -4.8104  -11.5611 C   0  0  0  0  0  0  0  0  0  0  0  0
  -16.1548   -3.3389  -11.1159 C   0  0  0  0  0  0  0  0  0  0  0  0
 40 41  1  0  0  0
 41 30  1  0  0  0
 30 31  1  0  0  0
 30 39  2  0  0  0
 31 32  2  0  0  0
 32 33  1  0  0  0
 32 37  1  0  0  0
 33 34  2  0  0  0
 34 35  1  0  0  0
 35 36  2  0  0  0
 36 29  1  0  0  0
 36 37  1  0  0  0
 29  1  1  0  0  0
  1  2  1  0  0  0
  1  6  2  0  0  0
  2  3  2  0  0  0
  3  4  1  0  0  0
  4  8  1  0  0  0
  4  5  2  0  0  0
  8 10  1  0  0  0
  8  9  1  0  0  0
 10 11  1  0  0  0
 10 20  2  0  0  0
 11 12  2  0  0  0
 12 13  1  0  0  0
 13 14  2  0  0  0
 14 15  1  0  0  0
 14 20  1  0  0  0
 15 16  1  0  0  0
 15 21  1  0  0  0
 16 17  2  0  0  0
 17 22  1  0  0  0
 17 18  1  0  0  0
 22 23  1  0  0  0
 22 28  2  0  0  0
 23 24  2  0  0  0
 24 25  1  0  0  0
 25 26  1  0  0  0
 25 27  2  0  0  0
 27 28  1  0  0  0
 18 19  2  0  0  0
 18 20  1  0  0  0
  5  6  1  0  0  0
  6  7  1  0  0  0
 37 38  2  0  0  0
 38 39  1  0  0  0
 39 42  1  0  0  0
 42 43  1  0  0  0
 43 44  1  0  0  0
 44 45  1  0  0  0
 45 46  1  0  0  0
 46 47  1  0  0  0
 46 51  1  0  0  0
 47 48  1  0  0  0
 48 49  1  0  0  0
 49 50  1  0  0  0
 50 51  1  0  0  0
M  END
> <minimizedAffinity>
-7.93118

$$$$
