CHEMBL2325101


 29 33  0  0  0  0  0  0  0  0999 V2000
  -29.1991   -5.8880   -6.3910 C   0  0  0  0  0  0  0  0  0  0  0  0
  -28.7544   -6.3601   -7.5080 N   0  0  0  0  0  0  0  0  0  0  0  0
  -28.9017   -7.7156   -7.4488 N   0  0  0  0  0  0  0  0  0  0  0  0
  -29.4608   -8.1896   -6.1842 C   0  0  0  0  0  0  0  0  0  0  0  0
  -29.6916   -6.8977   -5.3996 C   0  0  0  0  0  0  0  0  0  0  0  0
  -28.5438   -9.1131   -5.4038 C   0  0  0  0  0  0  0  0  0  0  0  0
  -28.9596  -10.4371   -5.2187 C   0  0  0  0  0  0  0  0  0  0  0  0
  -28.2591  -11.2814   -4.3637 C   0  0  0  0  0  0  0  0  0  0  0  0
  -27.0600  -10.8681   -3.7784 C   0  0  0  0  0  0  0  0  0  0  0  0
  -26.3576  -11.7346   -2.9370 C   0  0  0  0  0  0  0  0  0  0  0  0
  -25.0203  -11.4904   -2.6478 C   0  0  0  0  0  0  0  0  0  0  0  0
  -24.4292  -10.3031   -3.0713 C   0  0  0  0  0  0  0  0  0  0  0  0
  -25.2002   -9.3238   -3.7091 C   0  0  0  0  0  0  0  0  0  0  0  0
  -26.5250   -9.6035   -4.0963 C   0  0  0  0  0  0  0  0  0  0  0  0
  -27.3237   -8.7016   -4.8290 C   0  0  0  0  0  0  0  0  0  0  0  0
  -29.2883    0.0229   -5.2591 Cl  0  0  0  0  0  0  0  0  0  0  0  0
  -29.2399   -1.6660   -5.6212 C   0  0  0  0  0  0  0  0  0  0  0  0
  -29.8878   -2.5367   -4.7418 C   0  0  0  0  0  0  0  0  0  0  0  0
  -29.8873   -3.9120   -4.9812 C   0  0  0  0  0  0  0  0  0  0  0  0
  -29.2230   -4.4264   -6.1046 C   0  0  0  0  0  0  0  0  0  0  0  0
  -28.5700   -3.5468   -6.9869 C   0  0  0  0  0  0  0  0  0  0  0  0
  -28.5786   -2.1703   -6.7430 C   0  0  0  0  0  0  0  0  0  0  0  0
  -27.7582   -1.1542   -7.8752 Cl  0  0  0  0  0  0  0  0  0  0  0  0
  -28.6571   -8.5240   -8.5618 C   0  0  0  0  0  0  0  0  0  0  0  0
  -27.3924   -8.5217   -9.1716 C   0  0  0  0  0  0  0  0  0  0  0  0
  -27.0893   -9.3785  -10.2310 C   0  0  0  0  0  0  0  0  0  0  0  0
  -28.0584  -10.2443  -10.7264 C   0  0  0  0  0  0  0  0  0  0  0  0
  -29.3311  -10.2431  -10.1666 C   0  0  0  0  0  0  0  0  0  0  0  0
  -29.6245   -9.3949   -9.0970 C   0  0  0  0  0  0  0  0  0  0  0  0
 16 17  1  0  0  0
 17 18  1  0  0  0
 17 22  2  0  0  0
 18 19  2  0  0  0
 19 20  1  0  0  0
 20  1  1  0  0  0
 20 21  2  0  0  0
  1  2  2  0  0  0
  1  5  1  0  0  0
  2  3  1  0  0  0
  3 24  1  0  0  0
  3  4  1  0  0  0
 24 25  1  0  0  0
 24 29  2  0  0  0
 25 26  2  0  0  0
 26 27  1  0  0  0
 27 28  2  0  0  0
 28 29  1  0  0  0
  4  6  1  0  0  0
  4  5  1  0  0  0
  6  7  1  0  0  0
  6 15  2  0  0  0
  7  8  2  0  0  0
  8  9  1  0  0  0
  9 10  1  0  0  0
  9 14  2  0  0  0
 10 11  2  0  0  0
 11 12  1  0  0  0
 12 13  2  0  0  0
 13 14  1  0  0  0
 14 15  1  0  0  0
 21 22  1  0  0  0
 22 23  1  0  0  0
M  END
> <minimizedAffinity>
-9.38435

$$$$
