CHEMBL3814311


 39 42  0  0  0  0  0  0  0  0999 V2000
  -29.6782   -5.3270   -6.2379 C   0  0  0  0  0  0  0  0  0  0  0  0
  -30.3505   -5.9745   -7.2700 C   0  0  0  0  0  0  0  0  0  0  0  0
  -29.9816   -7.2699   -7.6458 C   0  0  0  0  0  0  0  0  0  0  0  0
  -28.9298   -7.9399   -7.0099 C   0  0  0  0  0  0  0  0  0  0  0  0
  -28.3004   -7.3188   -5.9294 C   0  0  0  0  0  0  0  0  0  0  0  0
  -28.6486   -6.0074   -5.5790 C   0  0  0  0  0  0  0  0  0  0  0  0
  -27.9207   -5.3996   -4.6292 F   0  0  0  0  0  0  0  0  0  0  0  0
  -28.4590   -9.2000   -7.4504 N   0  0  0  0  0  0  0  0  0  0  0  0
  -27.6307   -9.3849   -8.5452 C   0  0  0  0  0  0  0  0  0  0  0  0
  -27.1799   -8.5178   -9.2834 O   0  0  0  0  0  0  0  0  0  0  0  0
  -28.6518  -10.0076   -6.8656 H   0  0  0  0  0  0  0  0  0  0  0  0
  -27.2684  -10.7998   -8.8572 C   0  0  0  0  0  0  0  0  0  0  0  0
  -27.6318  -11.4159  -10.2062 C   0  0  0  0  0  0  0  0  0  0  0  0
  -28.4456  -11.7763   -9.0065 C   0  0  0  0  0  0  0  0  0  0  0  0
  -26.0528  -11.3099   -8.1463 C   0  0  0  0  0  0  0  0  0  0  0  0
  -25.6933  -12.4584   -8.3603 O   0  0  0  0  0  0  0  0  0  0  0  0
  -25.4681  -10.3734   -7.3166 N   0  0  0  0  0  0  0  0  0  0  0  0
  -25.8798   -9.4438   -7.3240 H   0  0  0  0  0  0  0  0  0  0  0  0
  -24.3767  -10.5750   -6.4490 C   0  0  0  0  0  0  0  0  0  0  0  0
  -23.1125  -10.9821   -6.8867 C   0  0  0  0  0  0  0  0  0  0  0  0
  -22.0912  -11.2409   -5.9698 C   0  0  0  0  0  0  0  0  0  0  0  0
  -22.3328  -11.0848   -4.6131 C   0  0  0  0  0  0  0  0  0  0  0  0
  -21.3620  -11.3622   -3.7333 F   0  0  0  0  0  0  0  0  0  0  0  0
  -23.5708  -10.6506   -4.1570 C   0  0  0  0  0  0  0  0  0  0  0  0
  -24.5930  -10.3913   -5.0756 C   0  0  0  0  0  0  0  0  0  0  0  0
  -30.0308   -4.0111   -6.0261 O   0  0  0  0  0  0  0  0  0  0  0  0
  -27.5505    0.0395   -5.2019 N   0  0  0  0  0  0  0  0  0  0  0  0
  -28.0216   -1.0005   -5.9995 C   0  0  0  0  0  0  0  0  0  0  0  0
  -27.5307   -1.0095   -7.2522 N   0  0  0  0  0  0  0  0  0  0  0  0
  -27.8511   -2.0643   -8.0128 C   0  0  0  0  0  0  0  0  0  0  0  0
  -28.6123   -3.0913   -7.6479 N   0  0  0  0  0  0  0  0  0  0  0  0
  -29.1457   -3.0148   -6.4117 C   0  0  0  0  0  0  0  0  0  0  0  0
  -28.8347   -2.0131   -5.5113 C   0  0  0  0  0  0  0  0  0  0  0  0
  -27.1050    0.7400   -5.7841 H   0  0  0  0  0  0  0  0  0  0  0  0
  -28.2721    0.3990   -4.5778 H   0  0  0  0  0  0  0  0  0  0  0  0
  -29.3275   -2.0309   -4.1243 C   0  0  0  0  0  0  0  0  0  0  0  0
  -28.8234   -2.8233   -3.2267 N   0  0  0  0  0  0  0  0  0  0  0  0
  -29.5141   -2.6568   -2.0216 O   0  0  0  0  0  0  0  0  0  0  0  0
  -29.0856   -3.3125   -1.4386 H   0  0  0  0  0  0  0  0  0  0  0  0
 27 28  1  0  0  0
 27 34  1  0  0  0
 27 35  1  0  0  0
 28 29  1  0  0  0
 28 33  2  0  0  0
 29 30  2  0  0  0
 30 31  1  0  0  0
 31 32  2  0  0  0
 32 26  1  0  0  0
 32 33  1  0  0  0
 26  1  1  0  0  0
  1  2  1  0  0  0
  1  6  2  0  0  0
  2  3  2  0  0  0
  3  4  1  0  0  0
  4  8  1  0  0  0
  4  5  2  0  0  0
  8  9  1  0  0  0
  8 11  1  0  0  0
  9 10  2  0  0  0
  9 12  1  0  0  0
 12 15  1  0  0  0
 12 13  1  0  0  0
 12 14  1  0  0  0
 15 16  2  0  0  0
 15 17  1  0  0  0
 17 19  1  0  0  0
 17 18  1  0  0  0
 19 20  1  0  0  0
 19 25  2  0  0  0
 20 21  2  0  0  0
 21 22  1  0  0  0
 22 23  1  0  0  0
 22 24  2  0  0  0
 24 25  1  0  0  0
 13 14  1  0  0  0
  5  6  1  0  0  0
  6  7  1  0  0  0
 33 36  1  0  0  0
 36 37  2  0  0  0
 37 38  1  0  0  0
 38 39  1  0  0  0
M  END
> <minimizedAffinity>
-9.01803

$$$$
