CHEMBL3690496


 34 37  0  0  0  0  0  0  0  0999 V2000
  -23.0273    0.3428  -13.8058 C   0  0  0  0  0  0  0  0  0  0  0  0
  -21.7602   -0.3909  -13.9343 C   0  0  0  0  0  0  0  0  0  0  0  0
  -20.6189    0.2646  -14.2027 C   0  0  0  0  0  0  0  0  0  0  0  0
  -20.6371    1.6494  -14.3982 N   0  0  0  0  0  0  0  0  0  0  0  0
  -19.6316    2.5480  -14.7663 C   0  0  0  0  0  0  0  0  0  0  0  0
  -20.2620    3.7816  -14.7127 C   0  0  0  0  0  0  0  0  0  0  0  0
  -21.5894    3.6788  -14.3929 N   0  0  0  0  0  0  0  0  0  0  0  0
  -21.8049    2.3932  -14.2428 C   0  0  0  0  0  0  0  0  0  0  0  0
  -23.0118    1.6911  -13.9497 C   0  0  0  0  0  0  0  0  0  0  0  0
  -26.7048   -1.5332  -12.9381 C   0  0  0  0  0  0  0  0  0  0  0  0
  -26.1129   -1.5954  -14.1795 C   0  0  0  0  0  0  0  0  0  0  0  0
  -24.9320   -1.0157  -14.4845 N   0  0  0  0  0  0  0  0  0  0  0  0
  -24.3135   -0.3404  -13.4973 C   0  0  0  0  0  0  0  0  0  0  0  0
  -24.7954   -0.2258  -12.2434 N   0  0  0  0  0  0  0  0  0  0  0  0
  -25.9818   -0.8286  -11.9998 C   0  0  0  0  0  0  0  0  0  0  0  0
  -28.6524   -2.7072  -13.5743 C   0  0  0  0  0  0  0  0  0  0  0  0
  -27.8891   -2.0746  -12.5511 O   0  0  0  0  0  0  0  0  0  0  0  0
  -18.2565    2.2250  -15.1831 C   0  0  0  0  0  0  0  0  0  0  0  0
  -17.4884    3.1647  -15.8809 C   0  0  0  0  0  0  0  0  0  0  0  0
  -16.1948    2.8725  -16.2926 C   0  0  0  0  0  0  0  0  0  0  0  0
  -15.6128    1.6612  -15.9400 C   0  0  0  0  0  0  0  0  0  0  0  0
  -16.3037    0.7263  -15.1662 C   0  0  0  0  0  0  0  0  0  0  0  0
  -17.6411    1.0026  -14.8203 C   0  0  0  0  0  0  0  0  0  0  0  0
  -15.6979   -0.4783  -14.7058 N   0  0  0  0  0  0  0  0  0  0  0  0
  -15.4304   -0.7887  -13.3922 C   0  0  0  0  0  0  0  0  0  0  0  0
  -15.6639   -0.1075  -12.4020 O   0  0  0  0  0  0  0  0  0  0  0  0
  -14.7881   -2.0013  -13.2493 N   0  0  0  0  0  0  0  0  0  0  0  0
  -15.4825   -1.1714  -15.4048 H   0  0  0  0  0  0  0  0  0  0  0  0
  -15.0159   -2.7187  -13.9219 H   0  0  0  0  0  0  0  0  0  0  0  0
  -14.4570   -2.4412  -11.8851 C   0  0  0  0  0  0  0  0  0  0  0  0
  -15.5525   -3.2115  -11.1305 C   0  0  0  0  0  0  0  0  0  0  0  0
  -15.0652   -4.3001  -10.4928 F   0  0  0  0  0  0  0  0  0  0  0  0
  -16.0984   -2.4135  -10.1766 F   0  0  0  0  0  0  0  0  0  0  0  0
  -16.5582   -3.6085  -11.9380 F   0  0  0  0  0  0  0  0  0  0  0  0
 16 17  1  0  0  0
 17 10  1  0  0  0
 10 11  1  0  0  0
 10 15  2  0  0  0
 11 12  2  0  0  0
 12 13  1  0  0  0
 13  1  1  0  0  0
 13 14  2  0  0  0
  1  2  1  0  0  0
  1  9  2  0  0  0
  2  3  2  0  0  0
  3  4  1  0  0  0
  4  5  1  0  0  0
  4  8  1  0  0  0
  5 18  1  0  0  0
  5  6  2  0  0  0
 18 19  1  0  0  0
 18 23  2  0  0  0
 19 20  2  0  0  0
 20 21  1  0  0  0
 21 22  2  0  0  0
 22 24  1  0  0  0
 22 23  1  0  0  0
 24 25  1  0  0  0
 24 28  1  0  0  0
 25 26  2  0  0  0
 25 27  1  0  0  0
 27 30  1  0  0  0
 27 29  1  0  0  0
 30 31  1  0  0  0
 31 32  1  0  0  0
 31 33  1  0  0  0
 31 34  1  0  0  0
  6  7  1  0  0  0
  7  8  2  0  0  0
  8  9  1  0  0  0
 14 15  1  0  0  0
M  END
> <minimizedAffinity>
-9.32095

$$$$
