CHEMBL248781


 27 29  0  0  0  0  0  0  0  0999 V2000
  -15.7687    1.1614  -14.7486 C   0  0  0  0  0  0  0  0  0  0  0  0
  -14.6506    1.5328  -15.5101 C   0  0  0  0  0  0  0  0  0  0  0  0
  -14.7665    2.5467  -16.4528 C   0  0  0  0  0  0  0  0  0  0  0  0
  -15.9923    3.1670  -16.5903 C   0  0  0  0  0  0  0  0  0  0  0  0
  -17.0890    2.8261  -15.8806 N   0  0  0  0  0  0  0  0  0  0  0  0
  -16.9877    1.8359  -14.9600 C   0  0  0  0  0  0  0  0  0  0  0  0
  -15.8147    0.4615  -12.5188 O   0  0  0  0  0  0  0  0  0  0  0  0
  -15.6367    0.1207  -13.6823 C   0  0  0  0  0  0  0  0  0  0  0  0
  -15.2726   -1.1483  -14.1194 N   0  0  0  0  0  0  0  0  0  0  0  0
  -15.2173   -1.2965  -15.1187 H   0  0  0  0  0  0  0  0  0  0  0  0
  -14.9638   -2.2695  -13.3180 C   0  0  0  0  0  0  0  0  0  0  0  0
  -13.7011   -2.5158  -12.7736 C   0  0  0  0  0  0  0  0  0  0  0  0
  -13.4600   -3.6621  -12.0064 C   0  0  0  0  0  0  0  0  0  0  0  0
  -14.4779   -4.5824  -11.7809 C   0  0  0  0  0  0  0  0  0  0  0  0
  -14.1038   -5.9872  -10.8431 Cl  0  0  0  0  0  0  0  0  0  0  0  0
  -15.7478   -4.3535  -12.3175 C   0  0  0  0  0  0  0  0  0  0  0  0
  -17.0599   -5.4569  -12.0931 Cl  0  0  0  0  0  0  0  0  0  0  0  0
  -15.9869   -3.1971  -13.0751 C   0  0  0  0  0  0  0  0  0  0  0  0
  -18.1520    1.4245  -14.3095 N   0  0  0  0  0  0  0  0  0  0  0  0
  -18.4944    2.1661  -13.6937 H   0  0  0  0  0  0  0  0  0  0  0  0
  -19.1891    0.7992  -15.1113 C   0  0  0  0  0  0  0  0  0  0  0  0
  -20.5242    1.2953  -14.6091 C   0  0  0  0  0  0  0  0  0  0  0  0
  -21.5475    0.4161  -14.2490 C   0  0  0  0  0  0  0  0  0  0  0  0
  -22.7684    0.9472  -13.8583 C   0  0  0  0  0  0  0  0  0  0  0  0
  -23.0334    2.2704  -13.7995 N   0  0  0  0  0  0  0  0  0  0  0  0
  -22.0311    3.1029  -14.1510 C   0  0  0  0  0  0  0  0  0  0  0  0
  -20.7782    2.6710  -14.5510 C   0  0  0  0  0  0  0  0  0  0  0  0
  7  8  2  0  0  0
  8  9  1  0  0  0
  8  1  1  0  0  0
  9 11  1  0  0  0
  9 10  1  0  0  0
 11 12  1  0  0  0
 11 18  2  0  0  0
 12 13  2  0  0  0
 13 14  1  0  0  0
 14 15  1  0  0  0
 14 16  2  0  0  0
 16 17  1  0  0  0
 16 18  1  0  0  0
  1  2  1  0  0  0
  1  6  2  0  0  0
  2  3  2  0  0  0
  3  4  1  0  0  0
  4  5  2  0  0  0
  5  6  1  0  0  0
  6 19  1  0  0  0
 19 21  1  0  0  0
 19 20  1  0  0  0
 21 22  1  0  0  0
 22 23  1  0  0  0
 22 27  2  0  0  0
 23 24  2  0  0  0
 24 25  1  0  0  0
 25 26  2  0  0  0
 26 27  1  0  0  0
M  END
> <minimizedAffinity>
-8.19612

$$$$
