CHEMBL4557230


 30 33  0  0  0  0  0  0  0  0999 V2000
  -29.3881   -7.1012   -5.2145 C   0  0  0  0  0  0  0  0  0  0  0  0
  -30.5373   -6.8125   -5.9657 C   0  0  0  0  0  0  0  0  0  0  0  0
  -30.7177   -5.5777   -6.5577 C   0  0  0  0  0  0  0  0  0  0  0  0
  -29.7358   -4.6573   -6.2557 C   0  0  0  0  0  0  0  0  0  0  0  0
  -29.3154   -3.5178   -6.8719 N   0  0  0  0  0  0  0  0  0  0  0  0
  -28.8749   -2.7044   -5.8754 C   0  0  0  0  0  0  0  0  0  0  0  0
  -28.2888   -3.4873   -4.9691 N   0  0  0  0  0  0  0  0  0  0  0  0
  -28.7986   -4.7665   -5.2388 C   0  0  0  0  0  0  0  0  0  0  0  0
  -28.5628   -6.0612   -4.7263 C   0  0  0  0  0  0  0  0  0  0  0  0
  -29.4763   -3.2692   -7.8394 H   0  0  0  0  0  0  0  0  0  0  0  0
  -29.1993   -1.2705   -5.9188 C   0  0  0  0  0  0  0  0  0  0  0  0
  -28.3195   -0.3937   -6.6049 C   0  0  0  0  0  0  0  0  0  0  0  0
  -28.6191    0.9548   -6.8064 C   0  0  0  0  0  0  0  0  0  0  0  0
  -29.8202    1.4541   -6.3380 C   0  0  0  0  0  0  0  0  0  0  0  0
  -30.2074    3.1106   -6.6283 Cl  0  0  0  0  0  0  0  0  0  0  0  0
  -30.7079    0.6215   -5.6549 C   0  0  0  0  0  0  0  0  0  0  0  0
  -30.4082   -0.7412   -5.4480 C   0  0  0  0  0  0  0  0  0  0  0  0
  -27.7524   -8.8368   -4.6923 C   0  0  0  0  0  0  0  0  0  0  0  0
  -26.8524   -8.0433   -4.3826 O   0  0  0  0  0  0  0  0  0  0  0  0
  -29.0645   -8.4698   -5.0204 N   0  0  0  0  0  0  0  0  0  0  0  0
  -29.8003   -9.1079   -4.7435 H   0  0  0  0  0  0  0  0  0  0  0  0
  -27.4479  -10.3111   -4.7690 C   0  0  0  0  0  0  0  0  0  0  0  0
  -28.3010  -12.0234   -8.6448 C   0  0  0  0  0  0  0  0  0  0  0  0
  -29.0387  -12.3929   -7.5208 C   0  0  0  0  0  0  0  0  0  0  0  0
  -28.7265  -11.8546   -6.2688 C   0  0  0  0  0  0  0  0  0  0  0  0
  -27.6697  -10.9450   -6.1146 C   0  0  0  0  0  0  0  0  0  0  0  0
  -26.9339  -10.5793   -7.2479 C   0  0  0  0  0  0  0  0  0  0  0  0
  -27.2486  -11.1123   -8.4990 C   0  0  0  0  0  0  0  0  0  0  0  0
  -28.4167  -11.4994  -10.9659 C   0  0  0  0  0  0  0  0  0  0  0  0
  -28.5147  -12.4657   -9.9236 O   0  0  0  0  0  0  0  0  0  0  0  0
 29 30  1  0  0  0
 30 23  1  0  0  0
 23 24  1  0  0  0
 23 28  2  0  0  0
 24 25  2  0  0  0
 25 26  1  0  0  0
 26 22  1  0  0  0
 26 27  2  0  0  0
 22 18  1  0  0  0
 18 19  2  0  0  0
 18 20  1  0  0  0
 20  1  1  0  0  0
 20 21  1  0  0  0
  1  2  1  0  0  0
  1  9  2  0  0  0
  2  3  2  0  0  0
  3  4  1  0  0  0
  4  5  1  0  0  0
  4  8  2  0  0  0
  5  6  1  0  0  0
  5 10  1  0  0  0
  6 11  1  0  0  0
  6  7  2  0  0  0
 11 12  1  0  0  0
 11 17  2  0  0  0
 12 13  2  0  0  0
 13 14  1  0  0  0
 14 15  1  0  0  0
 14 16  2  0  0  0
 16 17  1  0  0  0
  7  8  1  0  0  0
  8  9  1  0  0  0
 27 28  1  0  0  0
M  END
> <minimizedAffinity>
-3.71696

$$$$
