CHEMBL270086


 31 34  0  0  0  0  0  0  0  0999 V2000
  -29.6905   -3.6543   -5.8783 C   0  0  0  0  0  0  0  0  0  0  0  0
  -29.0072   -2.4952   -5.5283 C   0  0  0  0  0  0  0  0  0  0  0  0
  -28.2973   -1.7558   -6.4700 C   0  0  0  0  0  0  0  0  0  0  0  0
  -28.3335   -2.0615   -7.8293 C   0  0  0  0  0  0  0  0  0  0  0  0
  -29.0892   -3.1683   -8.2202 C   0  0  0  0  0  0  0  0  0  0  0  0
  -29.7476   -3.9599   -7.2533 C   0  0  0  0  0  0  0  0  0  0  0  0
  -27.8723   -6.5487   -5.7818 N   0  0  0  0  0  0  0  0  0  0  0  0
  -28.8114   -6.7063   -4.8304 C   0  0  0  0  0  0  0  0  0  0  0  0
  -28.8501   -7.8064   -4.0748 N   0  0  0  0  0  0  0  0  0  0  0  0
  -29.9223   -7.6498   -3.2297 O   0  0  0  0  0  0  0  0  0  0  0  0
  -30.5158   -6.4537   -3.4629 C   0  0  0  0  0  0  0  0  0  0  0  0
  -31.6277   -5.9836   -2.7701 C   0  0  0  0  0  0  0  0  0  0  0  0
  -32.0920   -4.7217   -3.1241 C   0  0  0  0  0  0  0  0  0  0  0  0
  -31.4599   -3.9868   -4.1293 C   0  0  0  0  0  0  0  0  0  0  0  0
  -30.3365   -4.4790   -4.8418 C   0  0  0  0  0  0  0  0  0  0  0  0
  -29.8522   -5.7764   -4.4790 C   0  0  0  0  0  0  0  0  0  0  0  0
  -27.2586   -7.3330   -5.9751 H   0  0  0  0  0  0  0  0  0  0  0  0
  -27.9977   -5.9216   -6.5673 H   0  0  0  0  0  0  0  0  0  0  0  0
  -27.6502   -1.2893   -8.8099 N   0  0  0  0  0  0  0  0  0  0  0  0
  -26.8026   -1.8262   -9.7709 C   0  0  0  0  0  0  0  0  0  0  0  0
  -26.5536   -3.0197   -9.8710 O   0  0  0  0  0  0  0  0  0  0  0  0
  -26.2311   -0.8804  -10.6030 N   0  0  0  0  0  0  0  0  0  0  0  0
  -27.8260   -0.2983   -8.8303 H   0  0  0  0  0  0  0  0  0  0  0  0
  -26.1272    0.0523  -10.2422 H   0  0  0  0  0  0  0  0  0  0  0  0
  -25.3981   -1.2472  -11.7003 C   0  0  0  0  0  0  0  0  0  0  0  0
  -24.0510   -1.6146  -11.5372 C   0  0  0  0  0  0  0  0  0  0  0  0
  -23.2238   -1.8661  -12.6332 C   0  0  0  0  0  0  0  0  0  0  0  0
  -23.7459   -1.7948  -13.9162 C   0  0  0  0  0  0  0  0  0  0  0  0
  -25.0928   -1.4897  -14.0790 C   0  0  0  0  0  0  0  0  0  0  0  0
  -25.6019   -1.4299  -15.3198 F   0  0  0  0  0  0  0  0  0  0  0  0
  -25.9246   -1.2225  -12.9911 C   0  0  0  0  0  0  0  0  0  0  0  0
  7  8  1  0  0  0
  7 17  1  0  0  0
  7 18  1  0  0  0
  8  9  2  0  0  0
  8 16  1  0  0  0
  9 10  1  0  0  0
 10 11  1  0  0  0
 11 12  1  0  0  0
 11 16  2  0  0  0
 12 13  2  0  0  0
 13 14  1  0  0  0
 14 15  2  0  0  0
 15  1  1  0  0  0
 15 16  1  0  0  0
  1  2  1  0  0  0
  1  6  2  0  0  0
  2  3  2  0  0  0
  3  4  1  0  0  0
  4 19  1  0  0  0
  4  5  2  0  0  0
 19 20  1  0  0  0
 19 23  1  0  0  0
 20 21  2  0  0  0
 20 22  1  0  0  0
 22 25  1  0  0  0
 22 24  1  0  0  0
 25 26  1  0  0  0
 25 31  2  0  0  0
 26 27  2  0  0  0
 27 28  1  0  0  0
 28 29  2  0  0  0
 29 30  1  0  0  0
 29 31  1  0  0  0
  5  6  1  0  0  0
M  END
> <minimizedAffinity>
-8.91252

$$$$
