CHEMBL4635626


 58 63  0  0  0  0  0  0  0  0999 V2000
  -12.9220   -3.4350  -17.2400 C   0  0  0  0  0  0  0  0  0  0  0  0
  -12.7909   -2.2941  -16.5375 N   0  0  0  0  0  0  0  0  0  0  0  0
  -12.1285   -2.3180  -15.3813 C   0  0  0  0  0  0  0  0  0  0  0  0
  -11.4448   -3.3762  -14.9370 N   0  0  0  0  0  0  0  0  0  0  0  0
  -11.4496   -4.4637  -15.7277 C   0  0  0  0  0  0  0  0  0  0  0  0
  -12.1787   -4.5678  -16.8967 C   0  0  0  0  0  0  0  0  0  0  0  0
  -12.2261   -5.8213  -17.5580 N   0  0  0  0  0  0  0  0  0  0  0  0
  -13.3368   -6.6298  -17.3761 C   0  0  0  0  0  0  0  0  0  0  0  0
  -14.2965   -6.2467  -16.7106 O   0  0  0  0  0  0  0  0  0  0  0  0
  -11.3386   -6.2726  -17.7268 H   0  0  0  0  0  0  0  0  0  0  0  0
  -13.3293   -7.9951  -17.9708 C   0  0  0  0  0  0  0  0  0  0  0  0
  -13.7280   -8.1835  -19.3062 C   0  0  0  0  0  0  0  0  0  0  0  0
  -13.5957   -9.4313  -19.9172 C   0  0  0  0  0  0  0  0  0  0  0  0
  -13.0605  -10.5067  -19.2104 C   0  0  0  0  0  0  0  0  0  0  0  0
  -12.6582  -10.3432  -17.8835 C   0  0  0  0  0  0  0  0  0  0  0  0
  -12.8095   -9.0904  -17.2513 C   0  0  0  0  0  0  0  0  0  0  0  0
  -12.1002  -11.3324  -17.1124 O   0  0  0  0  0  0  0  0  0  0  0  0
  -11.4434  -12.4015  -17.7743 C   0  0  0  0  0  0  0  0  0  0  0  0
  -12.2854   -9.0234  -15.9830 O   0  0  0  0  0  0  0  0  0  0  0  0
  -13.2151   -9.0459  -14.9110 C   0  0  0  0  0  0  0  0  0  0  0  0
  -13.8531   -3.4209  -18.3385 N   0  0  0  0  0  0  0  0  0  0  0  0
  -14.3951   -2.5663  -18.1725 H   0  0  0  0  0  0  0  0  0  0  0  0
  -12.9812   -2.1466  -20.3323 C   0  0  0  0  0  0  0  0  0  0  0  0
  -12.6800   -2.1645  -21.7139 C   0  0  0  0  0  0  0  0  0  0  0  0
  -12.6732   -3.3558  -22.4361 C   0  0  0  0  0  0  0  0  0  0  0  0
  -12.9234   -4.5484  -21.7800 C   0  0  0  0  0  0  0  0  0  0  0  0
  -13.2340   -4.5322  -20.4224 C   0  0  0  0  0  0  0  0  0  0  0  0
  -13.3691   -3.3298  -19.6869 C   0  0  0  0  0  0  0  0  0  0  0  0
  -12.8867   -0.5472  -19.5610 S   0  0  0  0  0  0  0  0  0  0  0  0
  -11.5535   -0.3025  -19.0497 O   0  0  0  0  0  0  0  0  0  0  0  0
  -14.0652   -0.4133  -18.7415 O   0  0  0  0  0  0  0  0  0  0  0  0
  -13.1080    0.5184  -20.8955 N   0  0  0  0  0  0  0  0  0  0  0  0
  -13.3390   -0.0030  -21.7427 H   0  0  0  0  0  0  0  0  0  0  0  0
  -11.3781    1.3289  -22.4582 C   0  0  0  0  0  0  0  0  0  0  0  0
  -12.0375    1.5048  -21.1017 C   0  0  0  0  0  0  0  0  0  0  0  0
  -12.2178   -1.1432  -14.6495 N   0  0  0  0  0  0  0  0  0  0  0  0
  -11.5738   -1.2313  -13.8692 H   0  0  0  0  0  0  0  0  0  0  0  0
  -12.3725    0.1749  -15.0968 C   0  0  0  0  0  0  0  0  0  0  0  0
  -11.3699    0.9291  -15.7059 C   0  0  0  0  0  0  0  0  0  0  0  0
  -11.6466    2.2259  -16.1700 C   0  0  0  0  0  0  0  0  0  0  0  0
  -12.9314    2.7929  -16.0713 C   0  0  0  0  0  0  0  0  0  0  0  0
  -13.9252    2.0463  -15.3939 C   0  0  0  0  0  0  0  0  0  0  0  0
  -13.6226    0.7599  -14.9165 C   0  0  0  0  0  0  0  0  0  0  0  0
  -13.1464    4.0238  -16.7286 N   0  0  0  0  0  0  0  0  0  0  0  0
  -12.0809    5.0165  -16.6437 C   0  0  0  0  0  0  0  0  0  0  0  0
  -12.7282    6.3842  -16.8082 C   0  0  0  0  0  0  0  0  0  0  0  0
  -13.4243    6.5614  -18.1792 C   0  0  0  0  0  0  0  0  0  0  0  0
  -14.3271    5.3134  -18.4449 C   0  0  0  0  0  0  0  0  0  0  0  0
  -13.7170    3.9453  -18.0796 C   0  0  0  0  0  0  0  0  0  0  0  0
  -12.5422    6.8682  -19.3436 N   0  0  0  0  0  0  0  0  0  0  0  0
  -11.6348    8.0277  -19.1635 C   0  0  0  0  0  0  0  0  0  0  0  0
  -12.3431    9.4016  -19.0863 C   0  0  0  0  0  0  0  0  0  0  0  0
  -13.1121    9.6988  -20.3049 N   0  0  0  0  0  0  0  0  0  0  0  0
  -13.8766   10.9380  -20.1444 C   0  0  0  0  0  0  0  0  0  0  0  0
  -13.9993    8.5737  -20.6531 C   0  0  0  0  0  0  0  0  0  0  0  0
  -13.3333    7.1656  -20.5760 C   0  0  0  0  0  0  0  0  0  0  0  0
  -15.1786    2.5852  -15.2714 O   0  0  0  0  0  0  0  0  0  0  0  0
  -16.2385    1.9153  -15.9416 C   0  0  0  0  0  0  0  0  0  0  0  0
 34 35  1  0  0  0
 35 32  1  0  0  0
 32 29  1  0  0  0
 32 33  1  0  0  0
 29 30  2  0  0  0
 29 31  2  0  0  0
 29 23  1  0  0  0
 23 24  1  0  0  0
 23 28  2  0  0  0
 24 25  2  0  0  0
 25 26  1  0  0  0
 26 27  2  0  0  0
 27 28  1  0  0  0
 28 21  1  0  0  0
 21  1  1  0  0  0
 21 22  1  0  0  0
  1  2  1  0  0  0
  1  6  2  0  0  0
  2  3  2  0  0  0
  3 36  1  0  0  0
  3  4  1  0  0  0
 36 38  1  0  0  0
 36 37  1  0  0  0
 38 39  1  0  0  0
 38 43  2  0  0  0
 39 40  2  0  0  0
 40 41  1  0  0  0
 41 44  1  0  0  0
 41 42  2  0  0  0
 44 45  1  0  0  0
 44 49  1  0  0  0
 45 46  1  0  0  0
 46 47  1  0  0  0
 47 50  1  0  0  0
 47 48  1  0  0  0
 50 51  1  0  0  0
 50 56  1  0  0  0
 51 52  1  0  0  0
 52 53  1  0  0  0
 53 54  1  0  0  0
 53 55  1  0  0  0
 55 56  1  0  0  0
 48 49  1  0  0  0
 42 57  1  0  0  0
 42 43  1  0  0  0
 57 58  1  0  0  0
  4  5  2  0  0  0
  5  6  1  0  0  0
  6  7  1  0  0  0
  7  8  1  0  0  0
  7 10  1  0  0  0
  8  9  2  0  0  0
  8 11  1  0  0  0
 11 12  1  0  0  0
 11 16  2  0  0  0
 12 13  2  0  0  0
 13 14  1  0  0  0
 14 15  2  0  0  0
 15 17  1  0  0  0
 15 16  1  0  0  0
 17 18  1  0  0  0
 16 19  1  0  0  0
 19 20  1  0  0  0
M  END
> <minimizedAffinity>
-5.52700

$$$$
