CHEMBL127907


 24 26  0  0  0  0  0  0  0  0999 V2000
  -27.7423   -1.6946   -5.4299 C   0  0  0  0  0  0  0  0  0  0  0  0
  -28.1973   -2.5298   -4.3916 C   0  0  0  0  0  0  0  0  0  0  0  0
  -28.7079   -3.8006   -4.6230 C   0  0  0  0  0  0  0  0  0  0  0  0
  -29.0413   -4.5612   -3.5767 N   0  0  0  0  0  0  0  0  0  0  0  0
  -29.4855   -5.7887   -3.8515 C   0  0  0  0  0  0  0  0  0  0  0  0
  -29.6235   -6.3245   -5.0661 N   0  0  0  0  0  0  0  0  0  0  0  0
  -29.2846   -5.5502   -6.1142 C   0  0  0  0  0  0  0  0  0  0  0  0
  -28.8286   -4.2359   -5.9431 C   0  0  0  0  0  0  0  0  0  0  0  0
  -28.4939   -3.3549   -6.9956 C   0  0  0  0  0  0  0  0  0  0  0  0
  -27.9375   -2.0955   -6.7538 C   0  0  0  0  0  0  0  0  0  0  0  0
  -28.0166    0.5981   -4.8953 C   0  0  0  0  0  0  0  0  0  0  0  0
  -27.1361   -0.4957   -5.1633 O   0  0  0  0  0  0  0  0  0  0  0  0
  -29.3432   -6.0923   -7.4287 N   0  0  0  0  0  0  0  0  0  0  0  0
  -28.4961   -5.8400   -7.9301 H   0  0  0  0  0  0  0  0  0  0  0  0
  -29.7633   -7.4059   -7.7258 C   0  0  0  0  0  0  0  0  0  0  0  0
  -28.8332   -8.3774   -8.1220 C   0  0  0  0  0  0  0  0  0  0  0  0
  -29.2440   -9.6635   -8.4700 C   0  0  0  0  0  0  0  0  0  0  0  0
  -30.5954   -9.9966   -8.4207 C   0  0  0  0  0  0  0  0  0  0  0  0
  -31.5172   -9.0440   -7.9986 C   0  0  0  0  0  0  0  0  0  0  0  0
  -32.8506   -9.3294   -7.9415 O   0  0  0  0  0  0  0  0  0  0  0  0
  -31.1128   -7.7616   -7.6366 C   0  0  0  0  0  0  0  0  0  0  0  0
  -32.9883  -10.2253   -8.2914 H   0  0  0  0  0  0  0  0  0  0  0  0
  -27.6491   -1.4524   -7.9215 O   0  0  0  0  0  0  0  0  0  0  0  0
  -27.6047   -2.1766   -9.1369 C   0  0  0  0  0  0  0  0  0  0  0  0
 11 12  1  0  0  0
 12  1  1  0  0  0
  1  2  1  0  0  0
  1 10  2  0  0  0
  2  3  2  0  0  0
  3  4  1  0  0  0
  3  8  1  0  0  0
  4  5  2  0  0  0
  5  6  1  0  0  0
  6  7  2  0  0  0
  7 13  1  0  0  0
  7  8  1  0  0  0
 13 15  1  0  0  0
 13 14  1  0  0  0
 15 16  1  0  0  0
 15 21  2  0  0  0
 16 17  2  0  0  0
 17 18  1  0  0  0
 18 19  2  0  0  0
 19 20  1  0  0  0
 19 21  1  0  0  0
 20 22  1  0  0  0
  8  9  2  0  0  0
  9 10  1  0  0  0
 10 23  1  0  0  0
 23 24  1  0  0  0
M  END
> <minimizedAffinity>
-7.62554

$$$$
