CHEMBL1241946


 24 26  0  0  0  0  0  0  0  0999 V2000
  -29.4942   -2.8849   -5.5801 C   0  0  0  0  0  0  0  0  0  0  0  0
  -29.6793   -1.6353   -5.1167 N   0  0  0  0  0  0  0  0  0  0  0  0
  -29.0279   -0.8478   -5.9988 N   0  0  0  0  0  0  0  0  0  0  0  0
  -28.4682   -1.5415   -7.0358 C   0  0  0  0  0  0  0  0  0  0  0  0
  -27.7668   -1.0305   -8.0636 N   0  0  0  0  0  0  0  0  0  0  0  0
  -27.3588   -1.9916   -8.9060 C   0  0  0  0  0  0  0  0  0  0  0  0
  -27.5927   -3.3140   -8.8258 N   0  0  0  0  0  0  0  0  0  0  0  0
  -28.3073   -3.7852   -7.7829 C   0  0  0  0  0  0  0  0  0  0  0  0
  -28.5262   -5.1503   -7.7739 N   0  0  0  0  0  0  0  0  0  0  0  0
  -28.7684   -2.8774   -6.8149 C   0  0  0  0  0  0  0  0  0  0  0  0
  -28.2562   -5.5907   -8.6449 H   0  0  0  0  0  0  0  0  0  0  0  0
  -29.3744   -5.4853   -7.3424 H   0  0  0  0  0  0  0  0  0  0  0  0
  -29.8112   -6.3127   -4.0128 C   0  0  0  0  0  0  0  0  0  0  0  0
  -31.0722   -6.2208   -3.4161 C   0  0  0  0  0  0  0  0  0  0  0  0
  -31.7962   -5.0302   -3.4986 C   0  0  0  0  0  0  0  0  0  0  0  0
  -31.2786   -3.9404   -4.2037 C   0  0  0  0  0  0  0  0  0  0  0  0
  -30.0231   -4.0219   -4.8226 C   0  0  0  0  0  0  0  0  0  0  0  0
  -29.2838   -5.2015   -4.6854 C   0  0  0  0  0  0  0  0  0  0  0  0
  -28.1389   -7.9000   -5.1807 C   0  0  0  0  0  0  0  0  0  0  0  0
  -28.9994   -7.5680   -3.9939 C   0  0  0  0  0  0  0  0  0  0  0  0
  -29.0192   -8.2945   -3.0042 O   0  0  0  0  0  0  0  0  0  0  0  0
  -28.9790    0.5951   -5.7877 C   0  0  0  0  0  0  0  0  0  0  0  0
  -30.3820    1.1866   -5.6446 C   0  0  0  0  0  0  0  0  0  0  0  0
  -28.1088    0.9570   -4.5835 C   0  0  0  0  0  0  0  0  0  0  0  0
 19 20  1  0  0  0
 20 21  2  0  0  0
 20 13  1  0  0  0
 13 14  1  0  0  0
 13 18  2  0  0  0
 14 15  2  0  0  0
 15 16  1  0  0  0
 16 17  2  0  0  0
 17  1  1  0  0  0
 17 18  1  0  0  0
  1  2  2  0  0  0
  1 10  1  0  0  0
  2  3  1  0  0  0
  3 22  1  0  0  0
  3  4  1  0  0  0
 22 23  1  0  0  0
 22 24  1  0  0  0
  4  5  1  0  0  0
  4 10  2  0  0  0
  5  6  2  0  0  0
  6  7  1  0  0  0
  7  8  2  0  0  0
  8  9  1  0  0  0
  8 10  1  0  0  0
  9 11  1  0  0  0
  9 12  1  0  0  0
M  END
> <minimizedAffinity>
-8.29351

$$$$
