CHEMBL1085996


 41 45  0  0  0  0  0  0  0  0999 V2000
  -22.8231    0.5044  -13.4702 C   0  0  0  0  0  0  0  0  0  0  0  0
  -21.5423   -0.2215  -13.7030 C   0  0  0  0  0  0  0  0  0  0  0  0
  -20.4345    0.2894  -14.1393 N   0  0  0  0  0  0  0  0  0  0  0  0
  -20.4528    1.6352  -14.3946 C   0  0  0  0  0  0  0  0  0  0  0  0
  -19.4680    2.5066  -14.8193 C   0  0  0  0  0  0  0  0  0  0  0  0
  -20.1132    3.7591  -14.8887 C   0  0  0  0  0  0  0  0  0  0  0  0
  -21.3975    3.7148  -14.5324 N   0  0  0  0  0  0  0  0  0  0  0  0
  -21.6171    2.3968  -14.2462 N   0  0  0  0  0  0  0  0  0  0  0  0
  -22.8305    1.8183  -13.7870 C   0  0  0  0  0  0  0  0  0  0  0  0
  -23.9302    2.6686  -13.6529 N   0  0  0  0  0  0  0  0  0  0  0  0
  -23.6385    3.6485  -13.6085 H   0  0  0  0  0  0  0  0  0  0  0  0
  -24.5772    2.3986  -12.9173 H   0  0  0  0  0  0  0  0  0  0  0  0
  -24.8201   -0.8706  -15.1740 C   0  0  0  0  0  0  0  0  0  0  0  0
  -24.8948   -0.8542  -13.6702 C   0  0  0  0  0  0  0  0  0  0  0  0
  -25.9510   -1.5323  -13.0529 C   0  0  0  0  0  0  0  0  0  0  0  0
  -26.0985   -1.5771  -11.6629 C   0  0  0  0  0  0  0  0  0  0  0  0
  -25.1600   -0.9109  -10.8713 C   0  0  0  0  0  0  0  0  0  0  0  0
  -24.0963   -0.2220  -11.4679 C   0  0  0  0  0  0  0  0  0  0  0  0
  -23.9557   -0.1960  -12.8634 C   0  0  0  0  0  0  0  0  0  0  0  0
  -27.1551   -2.2683  -11.0378 N   0  0  0  0  0  0  0  0  0  0  0  0
  -27.5254   -2.1463   -9.7230 C   0  0  0  0  0  0  0  0  0  0  0  0
  -27.0085   -1.4212   -8.8812 O   0  0  0  0  0  0  0  0  0  0  0  0
  -27.6436   -2.9867  -11.5525 H   0  0  0  0  0  0  0  0  0  0  0  0
  -28.5235   -3.0208   -9.4260 O   0  0  0  0  0  0  0  0  0  0  0  0
  -28.4622   -3.5197   -8.0772 C   0  0  0  0  0  0  0  0  0  0  0  0
  -29.8020   -4.0370   -7.5191 C   0  0  0  0  0  0  0  0  0  0  0  0
  -29.7788   -5.5465   -7.3012 C   0  0  0  0  0  0  0  0  0  0  0  0
  -30.1365   -3.3007   -6.2216 C   0  0  0  0  0  0  0  0  0  0  0  0
  -18.1069    2.1184  -15.1566 C   0  0  0  0  0  0  0  0  0  0  0  0
  -17.5105    2.5208  -16.3555 C   0  0  0  0  0  0  0  0  0  0  0  0
  -16.1836    2.2076  -16.6197 C   0  0  0  0  0  0  0  0  0  0  0  0
  -15.4536    1.4561  -15.6998 C   0  0  0  0  0  0  0  0  0  0  0  0
  -16.0254    0.9797  -14.5105 C   0  0  0  0  0  0  0  0  0  0  0  0
  -17.3586    1.3415  -14.2582 C   0  0  0  0  0  0  0  0  0  0  0  0
  -15.3268    0.1628  -13.6470 N   0  0  0  0  0  0  0  0  0  0  0  0
  -13.8812   -0.0580  -13.7930 C   0  0  0  0  0  0  0  0  0  0  0  0
  -13.5725   -1.5695  -13.6988 C   0  0  0  0  0  0  0  0  0  0  0  0
  -14.0922   -2.1808  -12.4548 N   0  0  0  0  0  0  0  0  0  0  0  0
  -13.7867   -3.6071  -12.4182 C   0  0  0  0  0  0  0  0  0  0  0  0
  -15.5539   -1.9516  -12.3808 C   0  0  0  0  0  0  0  0  0  0  0  0
  -15.9191   -0.4498  -12.4498 C   0  0  0  0  0  0  0  0  0  0  0  0
 13 14  1  0  0  0
 14 15  1  0  0  0
 14 19  2  0  0  0
 15 16  2  0  0  0
 16 20  1  0  0  0
 16 17  1  0  0  0
 20 21  1  0  0  0
 20 23  1  0  0  0
 21 22  2  0  0  0
 21 24  1  0  0  0
 24 25  1  0  0  0
 25 26  1  0  0  0
 26 27  1  0  0  0
 26 28  1  0  0  0
 17 18  2  0  0  0
 18 19  1  0  0  0
 19  1  1  0  0  0
  1  2  1  0  0  0
  1  9  2  0  0  0
  2  3  2  0  0  0
  3  4  1  0  0  0
  4  5  2  0  0  0
  4  8  1  0  0  0
  5 29  1  0  0  0
  5  6  1  0  0  0
 29 30  1  0  0  0
 29 34  2  0  0  0
 30 31  2  0  0  0
 31 32  1  0  0  0
 32 33  2  0  0  0
 33 35  1  0  0  0
 33 34  1  0  0  0
 35 36  1  0  0  0
 35 41  1  0  0  0
 36 37  1  0  0  0
 37 38  1  0  0  0
 38 39  1  0  0  0
 38 40  1  0  0  0
 40 41  1  0  0  0
  6  7  2  0  0  0
  7  8  1  0  0  0
  8  9  1  0  0  0
  9 10  1  0  0  0
 10 11  1  0  0  0
 10 12  1  0  0  0
M  END
> <minimizedAffinity>
-9.45264

$$$$
