CHEMBL3919838


 39 42  0  0  0  0  0  0  0  0999 V2000
  -29.4171   -6.1460   -4.5043 C   0  0  0  0  0  0  0  0  0  0  0  0
  -28.0815   -5.7333   -4.4940 C   0  0  0  0  0  0  0  0  0  0  0  0
  -27.7467   -4.3931   -4.2867 C   0  0  0  0  0  0  0  0  0  0  0  0
  -28.7451   -3.4386   -4.1112 C   0  0  0  0  0  0  0  0  0  0  0  0
  -30.0851   -3.8319   -4.1220 C   0  0  0  0  0  0  0  0  0  0  0  0
  -30.4077   -5.1714   -4.3446 C   0  0  0  0  0  0  0  0  0  0  0  0
  -31.7015   -5.5305   -4.3668 F   0  0  0  0  0  0  0  0  0  0  0  0
  -30.1097   -7.5503   -6.9144 O   0  0  0  0  0  0  0  0  0  0  0  0
  -30.1056   -8.1213   -5.8298 C   0  0  0  0  0  0  0  0  0  0  0  0
  -29.8150   -7.5031   -4.6278 N   0  0  0  0  0  0  0  0  0  0  0  0
  -30.3564   -9.4714   -5.6870 N   0  0  0  0  0  0  0  0  0  0  0  0
  -29.5993   -8.0984   -3.8379 H   0  0  0  0  0  0  0  0  0  0  0  0
  -30.7339   -9.7911   -4.8039 H   0  0  0  0  0  0  0  0  0  0  0  0
  -30.4273  -10.3868   -6.7693 C   0  0  0  0  0  0  0  0  0  0  0  0
  -29.3611  -10.6150   -7.6483 C   0  0  0  0  0  0  0  0  0  0  0  0
  -29.4560  -11.5414   -8.6948 C   0  0  0  0  0  0  0  0  0  0  0  0
  -30.6170  -12.2972   -8.8294 C   0  0  0  0  0  0  0  0  0  0  0  0
  -31.6963  -12.0745   -7.9668 C   0  0  0  0  0  0  0  0  0  0  0  0
  -31.5947  -11.1272   -6.9495 C   0  0  0  0  0  0  0  0  0  0  0  0
  -32.6432  -10.9274   -6.1361 F   0  0  0  0  0  0  0  0  0  0  0  0
  -28.3288  -11.6395   -9.4511 O   0  0  0  0  0  0  0  0  0  0  0  0
  -28.0989  -10.7384  -10.5228 C   0  0  0  0  0  0  0  0  0  0  0  0
  -28.3964   -9.4534  -10.2397 F   0  0  0  0  0  0  0  0  0  0  0  0
  -26.7910  -10.7948  -10.8605 F   0  0  0  0  0  0  0  0  0  0  0  0
  -28.8255  -11.1281  -11.5923 F   0  0  0  0  0  0  0  0  0  0  0  0
  -28.3092   -2.1568   -3.8629 O   0  0  0  0  0  0  0  0  0  0  0  0
  -28.4298   -1.1961   -4.8406 C   0  0  0  0  0  0  0  0  0  0  0  0
  -29.0861    0.0146   -4.6571 C   0  0  0  0  0  0  0  0  0  0  0  0
  -29.0988    0.8955   -5.7150 C   0  0  0  0  0  0  0  0  0  0  0  0
  -28.5596    0.6247   -6.9150 N   0  0  0  0  0  0  0  0  0  0  0  0
  -27.9870   -0.5758   -7.1135 C   0  0  0  0  0  0  0  0  0  0  0  0
  -27.9015   -1.5156   -6.0925 C   0  0  0  0  0  0  0  0  0  0  0  0
  -27.4506   -0.9002   -8.3696 N   0  0  0  0  0  0  0  0  0  0  0  0
  -27.7738   -2.0395   -9.0753 C   0  0  0  0  0  0  0  0  0  0  0  0
  -28.5401   -2.9291   -8.7338 O   0  0  0  0  0  0  0  0  0  0  0  0
  -26.7740   -0.2685   -8.7624 H   0  0  0  0  0  0  0  0  0  0  0  0
  -27.1076   -2.2157  -10.3993 C   0  0  0  0  0  0  0  0  0  0  0  0
  -25.8348   -1.4603  -10.7003 C   0  0  0  0  0  0  0  0  0  0  0  0
  -27.0658   -1.2200  -11.5274 C   0  0  0  0  0  0  0  0  0  0  0  0
  8  9  2  0  0  0
  9 10  1  0  0  0
  9 11  1  0  0  0
 10  1  1  0  0  0
 10 12  1  0  0  0
  1  2  1  0  0  0
  1  6  2  0  0  0
  2  3  2  0  0  0
  3  4  1  0  0  0
  4 26  1  0  0  0
  4  5  2  0  0  0
 26 27  1  0  0  0
 27 28  1  0  0  0
 27 32  2  0  0  0
 28 29  2  0  0  0
 29 30  1  0  0  0
 30 31  2  0  0  0
 31 33  1  0  0  0
 31 32  1  0  0  0
 33 34  1  0  0  0
 33 36  1  0  0  0
 34 35  2  0  0  0
 34 37  1  0  0  0
 37 38  1  0  0  0
 37 39  1  0  0  0
 38 39  1  0  0  0
  5  6  1  0  0  0
  6  7  1  0  0  0
 11 14  1  0  0  0
 11 13  1  0  0  0
 14 15  1  0  0  0
 14 19  2  0  0  0
 15 16  2  0  0  0
 16 21  1  0  0  0
 16 17  1  0  0  0
 21 22  1  0  0  0
 22 23  1  0  0  0
 22 24  1  0  0  0
 22 25  1  0  0  0
 17 18  2  0  0  0
 18 19  1  0  0  0
 19 20  1  0  0  0
M  END
> <minimizedAffinity>
-9.26354

$$$$
