CHEMBL1253917


 37 40  0  0  0  0  0  0  0  0999 V2000
  -12.4771   -1.7318  -12.8764 C   0  0  0  0  0  0  0  0  0  0  0  0
  -13.7384   -2.3255  -12.8745 C   0  0  0  0  0  0  0  0  0  0  0  0
  -14.7867   -1.7595  -13.6036 C   0  0  0  0  0  0  0  0  0  0  0  0
  -14.5990   -0.6145  -14.3750 C   0  0  0  0  0  0  0  0  0  0  0  0
  -13.3043   -0.0595  -14.4258 C   0  0  0  0  0  0  0  0  0  0  0  0
  -12.9687    1.3251  -15.4086 Cl  0  0  0  0  0  0  0  0  0  0  0  0
  -12.2526   -0.6175  -13.6830 C   0  0  0  0  0  0  0  0  0  0  0  0
  -15.6589   -0.0206  -15.1202 N   0  0  0  0  0  0  0  0  0  0  0  0
  -16.7404    0.6607  -14.5864 C   0  0  0  0  0  0  0  0  0  0  0  0
  -16.8892    0.9310  -13.4000 O   0  0  0  0  0  0  0  0  0  0  0  0
  -17.6876    0.9732  -15.5522 N   0  0  0  0  0  0  0  0  0  0  0  0
  -15.5188    0.0421  -16.1214 H   0  0  0  0  0  0  0  0  0  0  0  0
  -17.7738    0.2815  -16.2836 H   0  0  0  0  0  0  0  0  0  0  0  0
  -18.8771    1.6477  -15.1827 C   0  0  0  0  0  0  0  0  0  0  0  0
  -18.9504    3.0297  -15.3574 C   0  0  0  0  0  0  0  0  0  0  0  0
  -20.1406    3.7049  -15.0800 C   0  0  0  0  0  0  0  0  0  0  0  0
  -21.2429    3.0122  -14.5747 C   0  0  0  0  0  0  0  0  0  0  0  0
  -21.1720    1.6311  -14.3490 C   0  0  0  0  0  0  0  0  0  0  0  0
  -19.9836    0.9548  -14.6733 C   0  0  0  0  0  0  0  0  0  0  0  0
  -22.3361    0.8740  -13.7619 C   0  0  0  0  0  0  0  0  0  0  0  0
  -23.3357    1.6860  -13.3076 F   0  0  0  0  0  0  0  0  0  0  0  0
  -22.9266    0.0253  -14.6487 F   0  0  0  0  0  0  0  0  0  0  0  0
  -21.9755    0.1090  -12.6936 F   0  0  0  0  0  0  0  0  0  0  0  0
  -11.4079   -2.2365  -12.1670 O   0  0  0  0  0  0  0  0  0  0  0  0
  -11.7552   -6.6651  -12.1944 C   0  0  0  0  0  0  0  0  0  0  0  0
  -12.0707   -6.7012  -10.8465 C   0  0  0  0  0  0  0  0  0  0  0  0
  -12.0517   -5.3819  -10.3602 C   0  0  0  0  0  0  0  0  0  0  0  0
  -12.3041   -4.9532   -9.1040 N   0  0  0  0  0  0  0  0  0  0  0  0
  -12.1861   -3.6321   -8.9591 C   0  0  0  0  0  0  0  0  0  0  0  0
  -11.8755   -2.7298   -9.9014 N   0  0  0  0  0  0  0  0  0  0  0  0
  -11.6769   -3.1657  -11.1684 C   0  0  0  0  0  0  0  0  0  0  0  0
  -11.7307   -4.5320  -11.4151 C   0  0  0  0  0  0  0  0  0  0  0  0
  -11.5530   -5.3308  -12.5256 N   0  0  0  0  0  0  0  0  0  0  0  0
  -11.1940   -4.8842  -13.8566 C   0  0  0  0  0  0  0  0  0  0  0  0
  -11.6472   -7.7965  -13.1541 C   0  0  0  0  0  0  0  0  0  0  0  0
  -11.7835   -9.9390  -12.1895 C   0  0  0  0  0  0  0  0  0  0  0  0
  -10.9410   -8.8324  -12.4841 O   0  0  0  0  0  0  0  0  0  0  0  0
 36 37  1  0  0  0
 37 35  1  0  0  0
 35 25  1  0  0  0
 25 26  2  0  0  0
 25 33  1  0  0  0
 26 27  1  0  0  0
 27 28  1  0  0  0
 27 32  2  0  0  0
 28 29  2  0  0  0
 29 30  1  0  0  0
 30 31  2  0  0  0
 31 24  1  0  0  0
 31 32  1  0  0  0
 24  1  1  0  0  0
  1  2  1  0  0  0
  1  7  2  0  0  0
  2  3  2  0  0  0
  3  4  1  0  0  0
  4  8  1  0  0  0
  4  5  2  0  0  0
  8  9  1  0  0  0
  8 12  1  0  0  0
  9 10  2  0  0  0
  9 11  1  0  0  0
 11 14  1  0  0  0
 11 13  1  0  0  0
 14 15  1  0  0  0
 14 19  2  0  0  0
 15 16  2  0  0  0
 16 17  1  0  0  0
 17 18  2  0  0  0
 18 20  1  0  0  0
 18 19  1  0  0  0
 20 21  1  0  0  0
 20 22  1  0  0  0
 20 23  1  0  0  0
  5  6  1  0  0  0
  5  7  1  0  0  0
 32 33  1  0  0  0
 33 34  1  0  0  0
M  END
> <minimizedAffinity>
-9.17868

$$$$
