CHEMBL3967803


 39 43  0  0  0  0  0  0  0  0999 V2000
  -12.0977   -2.6283  -16.9619 C   0  0  0  0  0  0  0  0  0  0  0  0
  -12.3091   -2.2142  -15.6478 C   0  0  0  0  0  0  0  0  0  0  0  0
  -12.7555   -0.9151  -15.3673 C   0  0  0  0  0  0  0  0  0  0  0  0
  -12.9831    0.0076  -16.3957 C   0  0  0  0  0  0  0  0  0  0  0  0
  -12.7212   -0.4025  -17.7121 C   0  0  0  0  0  0  0  0  0  0  0  0
  -12.2823   -1.6996  -17.9892 C   0  0  0  0  0  0  0  0  0  0  0  0
  -13.5715    1.3773  -16.0697 C   0  0  0  0  0  0  0  0  0  0  0  0
  -14.4934    1.9175  -17.1806 C   0  0  0  0  0  0  0  0  0  0  0  0
  -15.7011    2.6535  -16.7039 N   0  0  0  0  0  0  0  0  0  0  0  0
  -16.3167    2.0526  -15.7401 C   0  0  0  0  0  0  0  0  0  0  0  0
  -17.7363    2.2340  -15.4337 C   0  0  0  0  0  0  0  0  0  0  0  0
  -18.3721    3.4578  -15.2913 C   0  0  0  0  0  0  0  0  0  0  0  0
  -19.7441    3.4610  -15.0273 C   0  0  0  0  0  0  0  0  0  0  0  0
  -20.4694    2.2598  -15.0211 C   0  0  0  0  0  0  0  0  0  0  0  0
  -19.8122    1.0344  -15.1361 C   0  0  0  0  0  0  0  0  0  0  0  0
  -18.4276    1.0391  -15.2266 C   0  0  0  0  0  0  0  0  0  0  0  0
  -17.6891   -0.1090  -14.8911 N   0  0  0  0  0  0  0  0  0  0  0  0
  -16.4039    0.0498  -14.3956 C   0  0  0  0  0  0  0  0  0  0  0  0
  -15.9581   -0.7273  -13.5572 O   0  0  0  0  0  0  0  0  0  0  0  0
  -15.7042    1.1036  -14.9519 N   0  0  0  0  0  0  0  0  0  0  0  0
  -14.2973    1.3316  -14.7252 C   0  0  0  0  0  0  0  0  0  0  0  0
  -18.1765   -0.9376  -14.5785 H   0  0  0  0  0  0  0  0  0  0  0  0
  -13.8029   -4.8516  -17.7478 O   0  0  0  0  0  0  0  0  0  0  0  0
  -12.5860   -4.9489  -17.6989 C   0  0  0  0  0  0  0  0  0  0  0  0
  -11.7241   -3.9401  -17.3227 N   0  0  0  0  0  0  0  0  0  0  0  0
  -11.8939   -6.1127  -18.0484 N   0  0  0  0  0  0  0  0  0  0  0  0
  -10.7428   -4.0951  -17.4775 H   0  0  0  0  0  0  0  0  0  0  0  0
  -10.9129   -6.1329  -17.8145 H   0  0  0  0  0  0  0  0  0  0  0  0
  -12.4466   -7.2879  -18.6028 C   0  0  0  0  0  0  0  0  0  0  0  0
  -12.8147   -7.4223  -19.9357 C   0  0  0  0  0  0  0  0  0  0  0  0
  -13.3657   -8.6085  -20.4103 C   0  0  0  0  0  0  0  0  0  0  0  0
  -13.5537   -9.7005  -19.5626 C   0  0  0  0  0  0  0  0  0  0  0  0
  -14.2683  -11.1026  -20.2623 Cl  0  0  0  0  0  0  0  0  0  0  0  0
  -13.1669   -9.6096  -18.2234 C   0  0  0  0  0  0  0  0  0  0  0  0
  -12.6203   -8.3905  -17.7541 C   0  0  0  0  0  0  0  0  0  0  0  0
  -13.2695  -10.7411  -17.2315 C   0  0  0  0  0  0  0  0  0  0  0  0
  -14.4510  -11.4071  -17.1784 F   0  0  0  0  0  0  0  0  0  0  0  0
  -12.3242  -11.6977  -17.4689 F   0  0  0  0  0  0  0  0  0  0  0  0
  -13.0330  -10.3153  -15.9571 F   0  0  0  0  0  0  0  0  0  0  0  0
 23 24  2  0  0  0
 24 25  1  0  0  0
 24 26  1  0  0  0
 25  1  1  0  0  0
 25 27  1  0  0  0
  1  2  1  0  0  0
  1  6  2  0  0  0
  2  3  2  0  0  0
  3  4  1  0  0  0
  4  7  1  0  0  0
  4  5  2  0  0  0
  7  8  1  0  0  0
  7 21  1  0  0  0
  8  9  1  0  0  0
  9 10  2  0  0  0
 10 11  1  0  0  0
 10 20  1  0  0  0
 11 12  1  0  0  0
 11 16  2  0  0  0
 12 13  2  0  0  0
 13 14  1  0  0  0
 14 15  2  0  0  0
 15 16  1  0  0  0
 16 17  1  0  0  0
 17 18  1  0  0  0
 17 22  1  0  0  0
 18 19  2  0  0  0
 18 20  1  0  0  0
 20 21  1  0  0  0
  5  6  1  0  0  0
 26 29  1  0  0  0
 26 28  1  0  0  0
 29 30  1  0  0  0
 29 35  2  0  0  0
 30 31  2  0  0  0
 31 32  1  0  0  0
 32 33  1  0  0  0
 32 34  2  0  0  0
 34 36  1  0  0  0
 34 35  1  0  0  0
 36 37  1  0  0  0
 36 38  1  0  0  0
 36 39  1  0  0  0
M  END
> <minimizedAffinity>
-8.36540

$$$$
