CHEMBL269894


 32 35  0  0  0  0  0  0  0  0999 V2000
  -21.3639    1.7028  -14.6381 C   0  0  0  0  0  0  0  0  0  0  0  0
  -21.3137    0.3064  -14.6157 C   0  0  0  0  0  0  0  0  0  0  0  0
  -22.3255   -0.4387  -13.9967 C   0  0  0  0  0  0  0  0  0  0  0  0
  -23.4055    0.1876  -13.3578 C   0  0  0  0  0  0  0  0  0  0  0  0
  -23.3868    1.5954  -13.3210 C   0  0  0  0  0  0  0  0  0  0  0  0
  -22.3876    2.3489  -13.9549 C   0  0  0  0  0  0  0  0  0  0  0  0
  -24.4827   -0.5961  -12.7087 C   0  0  0  0  0  0  0  0  0  0  0  0
  -24.4763   -0.8393  -11.3095 C   0  0  0  0  0  0  0  0  0  0  0  0
  -25.5329   -1.4733  -10.6473 C   0  0  0  0  0  0  0  0  0  0  0  0
  -26.6692   -1.8741  -11.3426 C   0  0  0  0  0  0  0  0  0  0  0  0
  -26.6464   -1.6770  -12.7195 C   0  0  0  0  0  0  0  0  0  0  0  0
  -27.6482   -2.0233  -13.5674 O   0  0  0  0  0  0  0  0  0  0  0  0
  -27.2654   -1.7603  -14.8656 N   0  0  0  0  0  0  0  0  0  0  0  0
  -26.0288   -1.2644  -14.7864 C   0  0  0  0  0  0  0  0  0  0  0  0
  -25.2791   -1.0007  -15.8764 N   0  0  0  0  0  0  0  0  0  0  0  0
  -25.5989   -1.1062  -13.4314 C   0  0  0  0  0  0  0  0  0  0  0  0
  -25.6186   -1.3820  -16.7539 H   0  0  0  0  0  0  0  0  0  0  0  0
  -24.2676   -1.0509  -15.7956 H   0  0  0  0  0  0  0  0  0  0  0  0
  -18.2902    3.1422  -15.9432 N   0  0  0  0  0  0  0  0  0  0  0  0
  -19.0717    2.3142  -15.1503 C   0  0  0  0  0  0  0  0  0  0  0  0
  -18.6314    1.4997  -14.3434 O   0  0  0  0  0  0  0  0  0  0  0  0
  -20.4287    2.4682  -15.3815 N   0  0  0  0  0  0  0  0  0  0  0  0
  -18.7613    3.9148  -16.3942 H   0  0  0  0  0  0  0  0  0  0  0  0
  -20.6779    2.6756  -16.3397 H   0  0  0  0  0  0  0  0  0  0  0  0
  -14.7920    1.8682  -16.1165 C   0  0  0  0  0  0  0  0  0  0  0  0
  -14.0623    3.0543  -16.0849 C   0  0  0  0  0  0  0  0  0  0  0  0
  -14.7197    4.2743  -15.9796 C   0  0  0  0  0  0  0  0  0  0  0  0
  -16.1102    4.3076  -15.9070 C   0  0  0  0  0  0  0  0  0  0  0  0
  -16.8734    3.1399  -15.9715 C   0  0  0  0  0  0  0  0  0  0  0  0
  -16.1981    1.9124  -16.0491 C   0  0  0  0  0  0  0  0  0  0  0  0
  -13.6115    0.3044  -17.4564 C   0  0  0  0  0  0  0  0  0  0  0  0
  -14.2455    0.6149  -16.2191 O   0  0  0  0  0  0  0  0  0  0  0  0
 31 32  1  0  0  0
 32 25  1  0  0  0
 25 26  1  0  0  0
 25 30  2  0  0  0
 26 27  2  0  0  0
 27 28  1  0  0  0
 28 29  2  0  0  0
 29 19  1  0  0  0
 29 30  1  0  0  0
 19 20  1  0  0  0
 19 23  1  0  0  0
 20 21  2  0  0  0
 20 22  1  0  0  0
 22  1  1  0  0  0
 22 24  1  0  0  0
  1  2  1  0  0  0
  1  6  2  0  0  0
  2  3  2  0  0  0
  3  4  1  0  0  0
  4  7  1  0  0  0
  4  5  2  0  0  0
  7  8  1  0  0  0
  7 16  2  0  0  0
  8  9  2  0  0  0
  9 10  1  0  0  0
 10 11  2  0  0  0
 11 12  1  0  0  0
 11 16  1  0  0  0
 12 13  1  0  0  0
 13 14  2  0  0  0
 14 15  1  0  0  0
 14 16  1  0  0  0
 15 17  1  0  0  0
 15 18  1  0  0  0
  5  6  1  0  0  0
M  END
> <minimizedAffinity>
-9.55195

$$$$
