CHEMBL521155


 25 28  0  0  0  0  0  0  0  0999 V2000
  -22.1986   -0.1105  -14.2390 C   0  0  0  0  0  0  0  0  0  0  0  0
  -26.6857   -2.4580  -10.9202 N   0  0  0  0  0  0  0  0  0  0  0  0
  -26.1148   -2.0116  -12.1048 C   0  0  0  0  0  0  0  0  0  0  0  0
  -26.8864   -1.9902  -13.2154 N   0  0  0  0  0  0  0  0  0  0  0  0
  -26.3442   -1.5280  -14.3625 C   0  0  0  0  0  0  0  0  0  0  0  0
  -25.0890   -1.0775  -14.5802 N   0  0  0  0  0  0  0  0  0  0  0  0
  -24.3592   -1.1387  -13.4522 C   0  0  0  0  0  0  0  0  0  0  0  0
  -24.7779   -1.5873  -12.2079 C   0  0  0  0  0  0  0  0  0  0  0  0
  -23.7499   -1.5134  -11.2913 N   0  0  0  0  0  0  0  0  0  0  0  0
  -22.7352   -1.0048  -11.9583 C   0  0  0  0  0  0  0  0  0  0  0  0
  -23.0566   -0.7617  -13.2669 N   0  0  0  0  0  0  0  0  0  0  0  0
  -27.5060   -3.0285  -11.0745 H   0  0  0  0  0  0  0  0  0  0  0  0
  -26.0101   -2.7700  -10.2321 H   0  0  0  0  0  0  0  0  0  0  0  0
  -22.2459    1.4026  -14.1400 C   0  0  0  0  0  0  0  0  0  0  0  0
  -23.2588    1.9538  -13.7060 O   0  0  0  0  0  0  0  0  0  0  0  0
  -21.0675    2.1784  -14.5434 C   0  0  0  0  0  0  0  0  0  0  0  0
  -21.0422    3.5518  -14.7168 C   0  0  0  0  0  0  0  0  0  0  0  0
  -19.7967    3.9205  -15.1318 N   0  0  0  0  0  0  0  0  0  0  0  0
  -18.9822    2.8208  -15.2258 C   0  0  0  0  0  0  0  0  0  0  0  0
  -17.6428    2.7407  -15.6243 C   0  0  0  0  0  0  0  0  0  0  0  0
  -17.0418    1.4818  -15.6282 C   0  0  0  0  0  0  0  0  0  0  0  0
  -17.7536    0.3516  -15.2353 C   0  0  0  0  0  0  0  0  0  0  0  0
  -19.0969    0.4501  -14.8407 C   0  0  0  0  0  0  0  0  0  0  0  0
  -19.7391    1.7098  -14.8432 C   0  0  0  0  0  0  0  0  0  0  0  0
  -19.5075    4.8627  -15.3507 H   0  0  0  0  0  0  0  0  0  0  0  0
  2  3  1  0  0  0
  2 12  1  0  0  0
  2 13  1  0  0  0
  3  4  1  0  0  0
  3  8  2  0  0  0
  4  5  2  0  0  0
  5  6  1  0  0  0
  6  7  2  0  0  0
  7  8  1  0  0  0
  7 11  1  0  0  0
  8  9  1  0  0  0
  9 10  2  0  0  0
 10 11  1  0  0  0
 11  1  1  0  0  0
  1 14  1  0  0  0
 14 15  2  0  0  0
 14 16  1  0  0  0
 16 17  2  0  0  0
 16 24  1  0  0  0
 17 18  1  0  0  0
 18 19  1  0  0  0
 18 25  1  0  0  0
 19 20  1  0  0  0
 19 24  2  0  0  0
 20 21  2  0  0  0
 21 22  1  0  0  0
 22 23  2  0  0  0
 23 24  1  0  0  0
M  END
> <minimizedAffinity>
-8.79521

$$$$
