CHEMBL4642069


 27 29  0  0  0  0  0  0  0  0999 V2000
  -19.2610    3.2559  -14.3951 C   0  0  0  0  0  0  0  0  0  0  0  0
  -20.7057    2.7626  -14.4589 C   0  0  0  0  0  0  0  0  0  0  0  0
  -21.6642    3.5169  -14.6245 O   0  0  0  0  0  0  0  0  0  0  0  0
  -20.8378    1.3791  -14.3565 N   0  0  0  0  0  0  0  0  0  0  0  0
  -20.0746    0.8289  -13.9680 H   0  0  0  0  0  0  0  0  0  0  0  0
  -22.1364    0.7977  -14.3670 N   0  0  0  0  0  0  0  0  0  0  0  0
  -22.0995   -0.0204  -14.9890 H   0  0  0  0  0  0  0  0  0  0  0  0
  -22.4990    0.3035  -13.0294 C   0  0  0  0  0  0  0  0  0  0  0  0
  -23.8716   -0.3297  -13.0156 C   0  0  0  0  0  0  0  0  0  0  0  0
  -24.3362   -1.0444  -14.1309 C   0  0  0  0  0  0  0  0  0  0  0  0
  -25.5934   -1.6535  -14.1112 C   0  0  0  0  0  0  0  0  0  0  0  0
  -26.4025   -1.5494  -12.9817 C   0  0  0  0  0  0  0  0  0  0  0  0
  -25.9603   -0.8276  -11.8754 C   0  0  0  0  0  0  0  0  0  0  0  0
  -24.7043   -0.2160  -11.8929 C   0  0  0  0  0  0  0  0  0  0  0  0
  -18.5545    2.8742  -15.5686 O   0  0  0  0  0  0  0  0  0  0  0  0
  -12.6056    0.0967  -16.0276 C   0  0  0  0  0  0  0  0  0  0  0  0
  -13.7509   -0.1067  -15.0802 C   0  0  0  0  0  0  0  0  0  0  0  0
  -13.6754   -0.9956  -14.0784 C   0  0  0  0  0  0  0  0  0  0  0  0
  -14.7664   -1.2370  -13.1224 C   0  0  0  0  0  0  0  0  0  0  0  0
  -14.6401   -2.0564  -12.2201 O   0  0  0  0  0  0  0  0  0  0  0  0
  -15.9238   -0.4988  -13.2965 O   0  0  0  0  0  0  0  0  0  0  0  0
  -16.0370    0.4474  -14.3361 C   0  0  0  0  0  0  0  0  0  0  0  0
  -17.2511    1.1415  -14.4028 C   0  0  0  0  0  0  0  0  0  0  0  0
  -17.4369    2.1026  -15.3925 C   0  0  0  0  0  0  0  0  0  0  0  0
  -16.4025    2.3389  -16.3029 C   0  0  0  0  0  0  0  0  0  0  0  0
  -15.1915    1.6324  -16.2262 C   0  0  0  0  0  0  0  0  0  0  0  0
  -14.9896    0.6704  -15.2317 C   0  0  0  0  0  0  0  0  0  0  0  0
 16 17  1  0  0  0
 17 18  2  0  0  0
 17 27  1  0  0  0
 18 19  1  0  0  0
 19 20  2  0  0  0
 19 21  1  0  0  0
 21 22  1  0  0  0
 22 23  1  0  0  0
 22 27  2  0  0  0
 23 24  2  0  0  0
 24 15  1  0  0  0
 24 25  1  0  0  0
 15  1  1  0  0  0
  1  2  1  0  0  0
  2  3  2  0  0  0
  2  4  1  0  0  0
  4  6  1  0  0  0
  4  5  1  0  0  0
  6  8  1  0  0  0
  6  7  1  0  0  0
  8  9  1  0  0  0
  9 10  1  0  0  0
  9 14  2  0  0  0
 10 11  2  0  0  0
 11 12  1  0  0  0
 12 13  2  0  0  0
 13 14  1  0  0  0
 25 26  2  0  0  0
 26 27  1  0  0  0
M  END
> <minimizedAffinity>
-8.34559

$$$$
