CHEMBL444724


 21 23  0  0  0  0  0  0  0  0999 V2000
  -29.4475   -6.9182   -4.7563 C   0  0  0  0  0  0  0  0  0  0  0  0
  -28.2298   -7.2667   -4.2822 N   0  0  0  0  0  0  0  0  0  0  0  0
  -27.6287   -8.3206   -4.8280 C   0  0  0  0  0  0  0  0  0  0  0  0
  -26.0812   -8.7073   -4.2178 Cl  0  0  0  0  0  0  0  0  0  0  0  0
  -28.0743   -9.0694   -5.8275 N   0  0  0  0  0  0  0  0  0  0  0  0
  -29.2589   -8.7282   -6.3179 C   0  0  0  0  0  0  0  0  0  0  0  0
  -29.7058   -9.4732   -7.4006 C   0  0  0  0  0  0  0  0  0  0  0  0
  -30.9246   -9.2177   -8.0237 C   0  0  0  0  0  0  0  0  0  0  0  0
  -31.7190   -8.1849   -7.5576 C   0  0  0  0  0  0  0  0  0  0  0  0
  -31.2734   -7.3991   -6.4915 C   0  0  0  0  0  0  0  0  0  0  0  0
  -30.0385   -7.6535   -5.8278 C   0  0  0  0  0  0  0  0  0  0  0  0
  -30.0223   -5.7420   -4.1886 N   0  0  0  0  0  0  0  0  0  0  0  0
  -31.1480   -6.0593   -3.2894 C   0  0  0  0  0  0  0  0  0  0  0  0
  -29.4085   -1.6132   -5.0611 C   0  0  0  0  0  0  0  0  0  0  0  0
  -29.0757   -2.1270   -3.8146 C   0  0  0  0  0  0  0  0  0  0  0  0
  -29.2776   -3.4885   -3.5409 C   0  0  0  0  0  0  0  0  0  0  0  0
  -29.8420   -4.3722   -4.4824 C   0  0  0  0  0  0  0  0  0  0  0  0
  -30.1999   -3.8210   -5.7201 C   0  0  0  0  0  0  0  0  0  0  0  0
  -29.9676   -2.4672   -6.0108 C   0  0  0  0  0  0  0  0  0  0  0  0
  -28.0944    0.3699   -4.9714 C   0  0  0  0  0  0  0  0  0  0  0  0
  -29.2348   -0.3191   -5.4719 O   0  0  0  0  0  0  0  0  0  0  0  0
 20 21  1  0  0  0
 21 14  1  0  0  0
 14 15  1  0  0  0
 14 19  2  0  0  0
 15 16  2  0  0  0
 16 17  1  0  0  0
 17 12  1  0  0  0
 17 18  2  0  0  0
 12 13  1  0  0  0
 12  1  1  0  0  0
  1  2  1  0  0  0
  1 11  2  0  0  0
  2  3  2  0  0  0
  3  4  1  0  0  0
  3  5  1  0  0  0
  5  6  2  0  0  0
  6  7  1  0  0  0
  6 11  1  0  0  0
  7  8  2  0  0  0
  8  9  1  0  0  0
  9 10  2  0  0  0
 10 11  1  0  0  0
 18 19  1  0  0  0
M  END
> <minimizedAffinity>
-7.02951

$$$$
