CHEMBL1996234


 35 40  0  0  0  0  0  0  0  0999 V2000
  -14.6363    0.0014  -14.6811 C   0  0  0  0  0  0  0  0  0  0  0  0
  -15.8636    0.2488  -14.2769 N   0  0  0  0  0  0  0  0  0  0  0  0
  -16.3294    1.3448  -15.0005 C   0  0  0  0  0  0  0  0  0  0  0  0
  -15.3341    1.7760  -15.8613 C   0  0  0  0  0  0  0  0  0  0  0  0
  -15.1734    2.7986  -16.8747 C   0  0  0  0  0  0  0  0  0  0  0  0
  -16.0863    3.7692  -17.1643 N   0  0  0  0  0  0  0  0  0  0  0  0
  -14.0849    2.8462  -17.6116 N   0  0  0  0  0  0  0  0  0  0  0  0
  -13.1024    1.9011  -17.4208 C   0  0  0  0  0  0  0  0  0  0  0  0
  -13.1656    0.9387  -16.4919 C   0  0  0  0  0  0  0  0  0  0  0  0
  -14.2869    0.8818  -15.6813 N   0  0  0  0  0  0  0  0  0  0  0  0
  -17.0473    3.4561  -17.2035 H   0  0  0  0  0  0  0  0  0  0  0  0
  -15.8237    4.2678  -18.0074 H   0  0  0  0  0  0  0  0  0  0  0  0
  -17.7559    1.7026  -14.9662 C   0  0  0  0  0  0  0  0  0  0  0  0
  -18.0338    3.0673  -15.0849 C   0  0  0  0  0  0  0  0  0  0  0  0
  -19.3244    3.5496  -14.9211 C   0  0  0  0  0  0  0  0  0  0  0  0
  -20.3704    2.6750  -14.6169 C   0  0  0  0  0  0  0  0  0  0  0  0
  -21.6335    3.2035  -14.3683 C   0  0  0  0  0  0  0  0  0  0  0  0
  -22.6768    2.3654  -14.0242 C   0  0  0  0  0  0  0  0  0  0  0  0
  -22.4523    0.9929  -13.9478 C   0  0  0  0  0  0  0  0  0  0  0  0
  -21.2218    0.4510  -14.2265 N   0  0  0  0  0  0  0  0  0  0  0  0
  -20.1741    1.2797  -14.5424 C   0  0  0  0  0  0  0  0  0  0  0  0
  -18.8491    0.8240  -14.7665 C   0  0  0  0  0  0  0  0  0  0  0  0
  -23.5745    0.0994  -13.5466 C   0  0  0  0  0  0  0  0  0  0  0  0
  -24.1542   -0.8222  -14.4315 C   0  0  0  0  0  0  0  0  0  0  0  0
  -25.2797   -1.5801  -14.0624 C   0  0  0  0  0  0  0  0  0  0  0  0
  -25.8465   -1.4433  -12.7978 C   0  0  0  0  0  0  0  0  0  0  0  0
  -25.2853   -0.5506  -11.8919 C   0  0  0  0  0  0  0  0  0  0  0  0
  -24.1643    0.2032  -12.2632 C   0  0  0  0  0  0  0  0  0  0  0  0
  -14.3447   -4.4479  -13.3087 C   0  0  0  0  0  0  0  0  0  0  0  0
  -14.7228   -3.0684  -13.8397 C   0  0  0  0  0  0  0  0  0  0  0  0
  -16.1247   -3.0981  -14.1726 O   0  0  0  0  0  0  0  0  0  0  0  0
  -13.7926   -2.4712  -14.9230 C   0  0  0  0  0  0  0  0  0  0  0  0
  -13.7231   -1.1266  -14.1414 C   0  0  0  0  0  0  0  0  0  0  0  0
  -14.2860   -1.9055  -12.9199 C   0  0  0  0  0  0  0  0  0  0  0  0
  -16.1816   -3.5888  -15.0093 H   0  0  0  0  0  0  0  0  0  0  0  0
 29 30  1  0  0  0
 30 31  1  0  0  0
 30 32  1  0  0  0
 30 34  1  0  0  0
 31 35  1  0  0  0
 32 33  1  0  0  0
 33  1  1  0  0  0
 33 34  1  0  0  0
  1  2  2  0  0  0
  1 10  1  0  0  0
  2  3  1  0  0  0
  3 13  1  0  0  0
  3  4  2  0  0  0
 13 14  1  0  0  0
 13 22  2  0  0  0
 14 15  2  0  0  0
 15 16  1  0  0  0
 16 17  1  0  0  0
 16 21  2  0  0  0
 17 18  2  0  0  0
 18 19  1  0  0  0
 19 23  1  0  0  0
 19 20  2  0  0  0
 23 24  1  0  0  0
 23 28  2  0  0  0
 24 25  2  0  0  0
 25 26  1  0  0  0
 26 27  2  0  0  0
 27 28  1  0  0  0
 20 21  1  0  0  0
 21 22  1  0  0  0
  4  5  1  0  0  0
  4 10  1  0  0  0
  5  6  1  0  0  0
  5  7  2  0  0  0
  6 11  1  0  0  0
  6 12  1  0  0  0
  7  8  1  0  0  0
  8  9  2  0  0  0
  9 10  1  0  0  0
M  END
> <minimizedAffinity>
-11.26044

$$$$
