CHEMBL4090507


 37 41  0  0  0  0  0  0  0  0999 V2000
  -15.7639    1.9047  -15.1837 N   0  0  0  0  0  0  0  0  0  0  0  0
  -15.0483    1.2384  -14.2472 N   0  0  0  0  0  0  0  0  0  0  0  0
  -15.9840    0.6698  -13.5038 C   0  0  0  0  0  0  0  0  0  0  0  0
  -17.2576    0.9142  -13.9143 N   0  0  0  0  0  0  0  0  0  0  0  0
  -17.1151    1.6538  -14.9812 C   0  0  0  0  0  0  0  0  0  0  0  0
  -18.1229    2.1386  -15.7325 N   0  0  0  0  0  0  0  0  0  0  0  0
  -19.0285    1.6980  -15.6055 H   0  0  0  0  0  0  0  0  0  0  0  0
  -17.9201    2.4203  -16.6893 H   0  0  0  0  0  0  0  0  0  0  0  0
  -13.3325    0.9421  -19.6333 C   0  0  0  0  0  0  0  0  0  0  0  0
  -13.4984    2.3310  -19.4465 C   0  0  0  0  0  0  0  0  0  0  0  0
  -14.0868    2.8828  -18.3145 C   0  0  0  0  0  0  0  0  0  0  0  0
  -14.1215    4.2182  -18.1985 N   0  0  0  0  0  0  0  0  0  0  0  0
  -14.6327    4.7265  -17.0703 C   0  0  0  0  0  0  0  0  0  0  0  0
  -15.1403    4.0247  -16.0534 N   0  0  0  0  0  0  0  0  0  0  0  0
  -15.1503    2.6750  -16.2098 C   0  0  0  0  0  0  0  0  0  0  0  0
  -14.5911    2.0252  -17.3351 C   0  0  0  0  0  0  0  0  0  0  0  0
  -14.4366    0.6255  -17.5452 C   0  0  0  0  0  0  0  0  0  0  0  0
  -13.8264    0.0741  -18.6692 C   0  0  0  0  0  0  0  0  0  0  0  0
  -11.2935    0.2889  -20.6202 C   0  0  0  0  0  0  0  0  0  0  0  0
  -12.7077    0.4272  -20.7365 O   0  0  0  0  0  0  0  0  0  0  0  0
  -13.7909   -1.2861  -18.5874 O   0  0  0  0  0  0  0  0  0  0  0  0
  -12.7964   -1.9370  -17.8218 C   0  0  0  0  0  0  0  0  0  0  0  0
  -15.6902   -0.1358  -12.4682 N   0  0  0  0  0  0  0  0  0  0  0  0
  -14.9647    0.2357  -11.8670 H   0  0  0  0  0  0  0  0  0  0  0  0
  -15.7234   -1.5407  -12.4657 C   0  0  0  0  0  0  0  0  0  0  0  0
  -15.7745   -2.2245  -13.6815 C   0  0  0  0  0  0  0  0  0  0  0  0
  -15.9369   -3.6118  -13.7118 C   0  0  0  0  0  0  0  0  0  0  0  0
  -15.9609   -4.3636  -12.5307 C   0  0  0  0  0  0  0  0  0  0  0  0
  -15.9069   -3.6684  -11.3175 C   0  0  0  0  0  0  0  0  0  0  0  0
  -15.7639   -2.2876  -11.2890 C   0  0  0  0  0  0  0  0  0  0  0  0
  -15.9583   -5.8872  -12.4784 C   0  0  0  0  0  0  0  0  0  0  0  0
  -14.7484   -6.4044  -11.6819 C   0  0  0  0  0  0  0  0  0  0  0  0
  -13.4509   -6.0395  -12.4011 C   0  0  0  0  0  0  0  0  0  0  0  0
  -13.3678   -6.5131  -13.7885 N   0  0  0  0  0  0  0  0  0  0  0  0
  -12.3184   -5.7533  -14.4861 C   0  0  0  0  0  0  0  0  0  0  0  0
  -14.6074   -6.4526  -14.5760 C   0  0  0  0  0  0  0  0  0  0  0  0
  -15.9238   -6.6408  -13.8119 C   0  0  0  0  0  0  0  0  0  0  0  0
 19 20  1  0  0  0
 20  9  1  0  0  0
  9 10  1  0  0  0
  9 18  2  0  0  0
 10 11  2  0  0  0
 11 12  1  0  0  0
 11 16  1  0  0  0
 12 13  2  0  0  0
 13 14  1  0  0  0
 14 15  2  0  0  0
 15  1  1  0  0  0
 15 16  1  0  0  0
  1  2  1  0  0  0
  1  5  1  0  0  0
  2  3  2  0  0  0
  3 23  1  0  0  0
  3  4  1  0  0  0
 23 25  1  0  0  0
 23 24  1  0  0  0
 25 26  1  0  0  0
 25 30  2  0  0  0
 26 27  2  0  0  0
 27 28  1  0  0  0
 28 31  1  0  0  0
 28 29  2  0  0  0
 31 32  1  0  0  0
 31 37  1  0  0  0
 32 33  1  0  0  0
 33 34  1  0  0  0
 34 35  1  0  0  0
 34 36  1  0  0  0
 36 37  1  0  0  0
 29 30  1  0  0  0
  4  5  2  0  0  0
  5  6  1  0  0  0
  6  7  1  0  0  0
  6  8  1  0  0  0
 16 17  2  0  0  0
 17 18  1  0  0  0
 18 21  1  0  0  0
 21 22  1  0  0  0
M  END
> <minimizedAffinity>
-7.99031

$$$$
