CHEMBL3959997


 31 35  0  0  0  0  0  0  0  0999 V2000
  -28.4279   -8.3674   -4.1939 N   0  0  0  0  0  0  0  0  0  0  0  0
  -29.2451   -7.7776   -3.2806 N   0  0  0  0  0  0  0  0  0  0  0  0
  -29.8131   -6.7767   -3.9572 C   0  0  0  0  0  0  0  0  0  0  0  0
  -29.4830   -6.7741   -5.3313 C   0  0  0  0  0  0  0  0  0  0  0  0
  -28.6001   -7.8264   -5.4686 C   0  0  0  0  0  0  0  0  0  0  0  0
  -28.0169   -8.3188   -6.5981 N   0  0  0  0  0  0  0  0  0  0  0  0
  -28.4306   -8.0782   -7.5004 H   0  0  0  0  0  0  0  0  0  0  0  0
  -27.6407   -9.2660   -6.6053 H   0  0  0  0  0  0  0  0  0  0  0  0
  -22.3118  -12.3657   -2.9118 C   0  0  0  0  0  0  0  0  0  0  0  0
  -23.6196  -11.7036   -3.1262 C   0  0  0  0  0  0  0  0  0  0  0  0
  -23.9223  -10.3755   -3.3336 C   0  0  0  0  0  0  0  0  0  0  0  0
  -25.3262  -10.2714   -3.4897 C   0  0  0  0  0  0  0  0  0  0  0  0
  -26.1897   -9.1973   -3.7446 C   0  0  0  0  0  0  0  0  0  0  0  0
  -27.5710   -9.4330   -3.8317 C   0  0  0  0  0  0  0  0  0  0  0  0
  -28.0976  -10.7077   -3.6153 C   0  0  0  0  0  0  0  0  0  0  0  0
  -27.2447  -11.7960   -3.3955 C   0  0  0  0  0  0  0  0  0  0  0  0
  -25.8655  -11.5447   -3.3416 C   0  0  0  0  0  0  0  0  0  0  0  0
  -24.8046  -12.4014   -3.1454 N   0  0  0  0  0  0  0  0  0  0  0  0
  -24.8947  -13.4003   -3.0222 H   0  0  0  0  0  0  0  0  0  0  0  0
  -29.9581   -5.9390   -6.4135 C   0  0  0  0  0  0  0  0  0  0  0  0
  -30.5414   -6.4110   -7.3944 O   0  0  0  0  0  0  0  0  0  0  0  0
  -29.7104   -4.5207   -6.2818 C   0  0  0  0  0  0  0  0  0  0  0  0
  -30.2187   -3.5825   -5.4061 C   0  0  0  0  0  0  0  0  0  0  0  0
  -29.5595   -2.3476   -5.6377 C   0  0  0  0  0  0  0  0  0  0  0  0
  -29.6401   -1.0751   -5.0464 C   0  0  0  0  0  0  0  0  0  0  0  0
  -28.8081   -0.0523   -5.5133 C   0  0  0  0  0  0  0  0  0  0  0  0
  -27.9077   -0.2877   -6.5505 C   0  0  0  0  0  0  0  0  0  0  0  0
  -27.8116   -1.5459   -7.1539 C   0  0  0  0  0  0  0  0  0  0  0  0
  -28.6522   -2.5561   -6.6738 C   0  0  0  0  0  0  0  0  0  0  0  0
  -28.7691   -3.8717   -7.0521 N   0  0  0  0  0  0  0  0  0  0  0  0
  -28.2241   -4.3196   -7.7770 H   0  0  0  0  0  0  0  0  0  0  0  0
  9 10  1  0  0  0
 10 11  2  0  0  0
 10 18  1  0  0  0
 11 12  1  0  0  0
 12 13  1  0  0  0
 12 17  2  0  0  0
 13 14  2  0  0  0
 14  1  1  0  0  0
 14 15  1  0  0  0
  1  2  1  0  0  0
  1  5  1  0  0  0
  2  3  2  0  0  0
  3  4  1  0  0  0
  4 20  1  0  0  0
  4  5  2  0  0  0
 20 21  2  0  0  0
 20 22  1  0  0  0
 22 23  2  0  0  0
 22 30  1  0  0  0
 23 24  1  0  0  0
 24 25  1  0  0  0
 24 29  2  0  0  0
 25 26  2  0  0  0
 26 27  1  0  0  0
 27 28  2  0  0  0
 28 29  1  0  0  0
 29 30  1  0  0  0
 30 31  1  0  0  0
  5  6  1  0  0  0
  6  7  1  0  0  0
  6  8  1  0  0  0
 15 16  2  0  0  0
 16 17  1  0  0  0
 17 18  1  0  0  0
 18 19  1  0  0  0
M  END
> <minimizedAffinity>
-9.09113

$$$$
