CHEMBL259013


 37 40  0  0  0  0  0  0  0  0999 V2000
  -22.3947    0.1357  -13.6352 C   0  0  0  0  0  0  0  0  0  0  0  0
  -22.2762   -0.2251  -12.2999 C   0  0  0  0  0  0  0  0  0  0  0  0
  -23.2770   -0.9749  -11.6858 C   0  0  0  0  0  0  0  0  0  0  0  0
  -24.4166   -1.3852  -12.3842 C   0  0  0  0  0  0  0  0  0  0  0  0
  -24.5189   -1.0522  -13.7390 C   0  0  0  0  0  0  0  0  0  0  0  0
  -23.5096   -0.2975  -14.3664 C   0  0  0  0  0  0  0  0  0  0  0  0
  -17.8318   -0.4992  -15.1231 N   0  0  0  0  0  0  0  0  0  0  0  0
  -17.9232    0.9024  -15.0957 C   0  0  0  0  0  0  0  0  0  0  0  0
  -16.8918    1.5722  -15.6337 N   0  0  0  0  0  0  0  0  0  0  0  0
  -17.0184    2.9037  -15.6540 C   0  0  0  0  0  0  0  0  0  0  0  0
  -18.0626    3.6155  -15.2080 N   0  0  0  0  0  0  0  0  0  0  0  0
  -19.0878    2.9121  -14.6906 C   0  0  0  0  0  0  0  0  0  0  0  0
  -19.0776    1.5139  -14.6012 C   0  0  0  0  0  0  0  0  0  0  0  0
  -20.0870    0.7122  -13.9987 N   0  0  0  0  0  0  0  0  0  0  0  0
  -21.3309    0.9597  -14.2751 C   0  0  0  0  0  0  0  0  0  0  0  0
  -21.7518    2.0554  -15.2405 C   0  0  0  0  0  0  0  0  0  0  0  0
  -21.5041    3.4211  -14.6208 C   0  0  0  0  0  0  0  0  0  0  0  0
  -20.1299    3.7098  -14.2247 N   0  0  0  0  0  0  0  0  0  0  0  0
  -16.8790   -0.7583  -15.3538 H   0  0  0  0  0  0  0  0  0  0  0  0
  -18.1865   -0.8758  -14.2498 H   0  0  0  0  0  0  0  0  0  0  0  0
  -19.8560    4.6691  -14.4269 H   0  0  0  0  0  0  0  0  0  0  0  0
  -25.4516   -2.1370  -11.7772 N   0  0  0  0  0  0  0  0  0  0  0  0
  -26.0755   -1.8112  -10.5838 C   0  0  0  0  0  0  0  0  0  0  0  0
  -25.8727   -0.7871   -9.9408 O   0  0  0  0  0  0  0  0  0  0  0  0
  -26.9455   -2.8043  -10.1504 N   0  0  0  0  0  0  0  0  0  0  0  0
  -25.8644   -2.8835  -12.3193 H   0  0  0  0  0  0  0  0  0  0  0  0
  -26.6350   -3.7434  -10.3536 H   0  0  0  0  0  0  0  0  0  0  0  0
  -27.6343   -2.6211   -8.9250 C   0  0  0  0  0  0  0  0  0  0  0  0
  -27.6349   -1.3801   -8.2765 C   0  0  0  0  0  0  0  0  0  0  0  0
  -28.2081   -1.2388   -7.0117 C   0  0  0  0  0  0  0  0  0  0  0  0
  -28.7879   -2.3414   -6.3730 C   0  0  0  0  0  0  0  0  0  0  0  0
  -28.8098   -3.5775   -7.0432 C   0  0  0  0  0  0  0  0  0  0  0  0
  -28.2585   -3.7119   -8.3231 C   0  0  0  0  0  0  0  0  0  0  0  0
  -29.3652   -2.2178   -4.9843 C   0  0  0  0  0  0  0  0  0  0  0  0
  -28.4432   -2.3542   -3.9895 F   0  0  0  0  0  0  0  0  0  0  0  0
  -29.9552   -1.0082   -4.7752 F   0  0  0  0  0  0  0  0  0  0  0  0
  -30.3265   -3.1484   -4.7330 F   0  0  0  0  0  0  0  0  0  0  0  0
  7  8  1  0  0  0
  7 19  1  0  0  0
  7 20  1  0  0  0
  8  9  1  0  0  0
  8 13  2  0  0  0
  9 10  2  0  0  0
 10 11  1  0  0  0
 11 12  2  0  0  0
 12 13  1  0  0  0
 12 18  1  0  0  0
 13 14  1  0  0  0
 14 15  2  0  0  0
 15  1  1  0  0  0
 15 16  1  0  0  0
  1  2  1  0  0  0
  1  6  2  0  0  0
  2  3  2  0  0  0
  3  4  1  0  0  0
  4 22  1  0  0  0
  4  5  2  0  0  0
 22 23  1  0  0  0
 22 26  1  0  0  0
 23 24  2  0  0  0
 23 25  1  0  0  0
 25 28  1  0  0  0
 25 27  1  0  0  0
 28 29  1  0  0  0
 28 33  2  0  0  0
 29 30  2  0  0  0
 30 31  1  0  0  0
 31 34  1  0  0  0
 31 32  2  0  0  0
 34 35  1  0  0  0
 34 36  1  0  0  0
 34 37  1  0  0  0
 32 33  1  0  0  0
  5  6  1  0  0  0
 16 17  1  0  0  0
 17 18  1  0  0  0
 18 21  1  0  0  0
M  END
> <minimizedAffinity>
-10.69124

$$$$
