CHEMBL3702669


 30 33  0  0  0  0  0  0  0  0999 V2000
  -12.0120   -0.7400  -15.5836 C   0  0  0  0  0  0  0  0  0  0  0  0
  -13.2763   -1.0431  -14.8323 C   0  0  0  0  0  0  0  0  0  0  0  0
  -14.3324   -0.1221  -14.7882 C   0  0  0  0  0  0  0  0  0  0  0  0
  -15.4997   -0.4530  -14.0999 C   0  0  0  0  0  0  0  0  0  0  0  0
  -15.6139   -1.7100  -13.4806 C   0  0  0  0  0  0  0  0  0  0  0  0
  -14.5926   -2.6634  -13.5358 C   0  0  0  0  0  0  0  0  0  0  0  0
  -13.4111   -2.2900  -14.1892 C   0  0  0  0  0  0  0  0  0  0  0  0
  -14.7664   -3.9517  -13.0660 N   0  0  0  0  0  0  0  0  0  0  0  0
  -16.0855   -4.5841  -13.1335 C   0  0  0  0  0  0  0  0  0  0  0  0
  -15.8983   -5.9823  -13.7146 C   0  0  0  0  0  0  0  0  0  0  0  0
  -14.8341   -6.7413  -12.9695 C   0  0  0  0  0  0  0  0  0  0  0  0
  -14.8609   -8.0880  -13.0885 N   0  0  0  0  0  0  0  0  0  0  0  0
  -13.8993   -8.7599  -12.4427 C   0  0  0  0  0  0  0  0  0  0  0  0
  -12.9297   -8.2180  -11.6881 N   0  0  0  0  0  0  0  0  0  0  0  0
  -12.9403   -6.8753  -11.6060 C   0  0  0  0  0  0  0  0  0  0  0  0
  -13.8589   -6.0656  -12.2467 C   0  0  0  0  0  0  0  0  0  0  0  0
  -13.8219   -4.5650  -12.1276 C   0  0  0  0  0  0  0  0  0  0  0  0
  -16.6412    0.4859  -13.9309 C   0  0  0  0  0  0  0  0  0  0  0  0
  -16.7492    1.0238  -12.8328 O   0  0  0  0  0  0  0  0  0  0  0  0
  -17.5241    0.6129  -14.9966 N   0  0  0  0  0  0  0  0  0  0  0  0
  -17.4244   -0.0330  -15.7685 H   0  0  0  0  0  0  0  0  0  0  0  0
  -18.6988    1.4136  -14.9843 C   0  0  0  0  0  0  0  0  0  0  0  0
  -18.6670    2.7997  -15.1576 C   0  0  0  0  0  0  0  0  0  0  0  0
  -19.8312    3.5620  -15.0739 C   0  0  0  0  0  0  0  0  0  0  0  0
  -21.0507    2.9471  -14.8160 C   0  0  0  0  0  0  0  0  0  0  0  0
  -21.1269    1.5566  -14.6527 C   0  0  0  0  0  0  0  0  0  0  0  0
  -19.9419    0.7953  -14.7657 C   0  0  0  0  0  0  0  0  0  0  0  0
  -22.4505    0.8934  -14.3003 C   0  0  0  0  0  0  0  0  0  0  0  0
  -22.2231   -0.4111  -13.5253 C   0  0  0  0  0  0  0  0  0  0  0  0
  -23.3746    1.8220  -13.5059 C   0  0  0  0  0  0  0  0  0  0  0  0
  1  2  1  0  0  0
  2  3  1  0  0  0
  2  7  2  0  0  0
  3  4  2  0  0  0
  4 18  1  0  0  0
  4  5  1  0  0  0
 18 19  2  0  0  0
 18 20  1  0  0  0
 20 22  1  0  0  0
 20 21  1  0  0  0
 22 23  1  0  0  0
 22 27  2  0  0  0
 23 24  2  0  0  0
 24 25  1  0  0  0
 25 26  2  0  0  0
 26 28  1  0  0  0
 26 27  1  0  0  0
 28 29  1  0  0  0
 28 30  1  0  0  0
  5  6  2  0  0  0
  6  8  1  0  0  0
  6  7  1  0  0  0
  8  9  1  0  0  0
  8 17  1  0  0  0
  9 10  1  0  0  0
 10 11  1  0  0  0
 11 12  1  0  0  0
 11 16  2  0  0  0
 12 13  2  0  0  0
 13 14  1  0  0  0
 14 15  2  0  0  0
 15 16  1  0  0  0
 16 17  1  0  0  0
M  END
> <minimizedAffinity>
-9.64469

$$$$
