CHEMBL369899


 38 42  0  0  0  0  0  0  0  0999 V2000
  -14.3636   -5.2641  -12.9935 C   0  0  0  0  0  0  0  0  0  0  0  0
  -15.2649   -6.0916  -12.4202 N   0  0  0  0  0  0  0  0  0  0  0  0
  -16.3063   -5.5340  -11.8098 C   0  0  0  0  0  0  0  0  0  0  0  0
  -16.5273   -4.2278  -11.6995 N   0  0  0  0  0  0  0  0  0  0  0  0
  -15.6410   -3.4132  -12.2752 C   0  0  0  0  0  0  0  0  0  0  0  0
  -15.8889   -2.0585  -12.1508 C   0  0  0  0  0  0  0  0  0  0  0  0
  -15.0753   -1.1006  -12.7422 C   0  0  0  0  0  0  0  0  0  0  0  0
  -13.9700   -1.5095  -13.4747 C   0  0  0  0  0  0  0  0  0  0  0  0
  -13.6788   -2.8690  -13.6151 C   0  0  0  0  0  0  0  0  0  0  0  0
  -14.5119   -3.8556  -12.9892 C   0  0  0  0  0  0  0  0  0  0  0  0
  -13.2305   -5.8753  -13.5867 N   0  0  0  0  0  0  0  0  0  0  0  0
  -12.4582   -5.8882  -12.9243 H   0  0  0  0  0  0  0  0  0  0  0  0
  -13.6465   -8.0012  -16.6150 C   0  0  0  0  0  0  0  0  0  0  0  0
  -13.2299   -9.2155  -16.0824 C   0  0  0  0  0  0  0  0  0  0  0  0
  -12.8333   -9.3934  -14.7992 N   0  0  0  0  0  0  0  0  0  0  0  0
  -12.8560   -8.2924  -14.0144 C   0  0  0  0  0  0  0  0  0  0  0  0
  -12.3721   -8.5977  -12.3884 Cl  0  0  0  0  0  0  0  0  0  0  0  0
  -13.2545   -7.0154  -14.4268 C   0  0  0  0  0  0  0  0  0  0  0  0
  -13.6278   -6.8971  -15.7717 C   0  0  0  0  0  0  0  0  0  0  0  0
  -13.9279   -6.7445  -18.6045 C   0  0  0  0  0  0  0  0  0  0  0  0
  -14.0308   -7.9963  -17.9257 O   0  0  0  0  0  0  0  0  0  0  0  0
  -15.4672    0.1968  -12.5540 O   0  0  0  0  0  0  0  0  0  0  0  0
  -15.6213    1.0180  -13.7171 C   0  0  0  0  0  0  0  0  0  0  0  0
  -16.8913    0.6491  -14.4859 C   0  0  0  0  0  0  0  0  0  0  0  0
  -18.0400    1.6017  -14.1607 C   0  0  0  0  0  0  0  0  0  0  0  0
  -18.9673    1.7916  -15.2887 N   0  0  0  0  0  0  0  0  0  0  0  0
  -19.6280    3.1187  -15.3183 C   0  0  0  0  0  0  0  0  0  0  0  0
  -20.6617    3.3181  -14.1976 C   0  0  0  0  0  0  0  0  0  0  0  0
  -21.6691    2.3028  -14.2344 O   0  0  0  0  0  0  0  0  0  0  0  0
  -21.0889    0.9945  -14.1588 C   0  0  0  0  0  0  0  0  0  0  0  0
  -20.0425    0.7702  -15.2658 C   0  0  0  0  0  0  0  0  0  0  0  0
  -12.6624   -3.3062  -14.4279 O   0  0  0  0  0  0  0  0  0  0  0  0
  -12.5084   -2.7182  -15.7298 C   0  0  0  0  0  0  0  0  0  0  0  0
  -13.2627   -3.5122  -16.8076 C   0  0  0  0  0  0  0  0  0  0  0  0
  -12.8501   -3.0684  -18.2047 C   0  0  0  0  0  0  0  0  0  0  0  0
  -11.4389   -3.1642  -18.3666 O   0  0  0  0  0  0  0  0  0  0  0  0
  -10.7342   -2.3179  -17.4606 C   0  0  0  0  0  0  0  0  0  0  0  0
  -11.0076   -2.7285  -16.0263 C   0  0  0  0  0  0  0  0  0  0  0  0
 20 21  1  0  0  0
 21 13  1  0  0  0
 13 14  1  0  0  0
 13 19  2  0  0  0
 14 15  2  0  0  0
 15 16  1  0  0  0
 16 17  1  0  0  0
 16 18  2  0  0  0
 18 11  1  0  0  0
 18 19  1  0  0  0
 11  1  1  0  0  0
 11 12  1  0  0  0
  1  2  1  0  0  0
  1 10  2  0  0  0
  2  3  2  0  0  0
  3  4  1  0  0  0
  4  5  2  0  0  0
  5  6  1  0  0  0
  5 10  1  0  0  0
  6  7  2  0  0  0
  7 22  1  0  0  0
  7  8  1  0  0  0
 22 23  1  0  0  0
 23 24  1  0  0  0
 24 25  1  0  0  0
 25 26  1  0  0  0
 26 27  1  0  0  0
 26 31  1  0  0  0
 27 28  1  0  0  0
 28 29  1  0  0  0
 29 30  1  0  0  0
 30 31  1  0  0  0
  8  9  2  0  0  0
  9 32  1  0  0  0
  9 10  1  0  0  0
 32 33  1  0  0  0
 33 34  1  0  0  0
 33 38  1  0  0  0
 34 35  1  0  0  0
 35 36  1  0  0  0
 36 37  1  0  0  0
 37 38  1  0  0  0
M  END
> <minimizedAffinity>
-7.22172

$$$$
