CHEMBL258000


 34 39  0  0  0  0  0  0  0  0999 V2000
  -14.6726   -2.4728  -12.6204 C   0  0  0  0  0  0  0  0  0  0  0  0
  -13.4039   -2.6405  -13.1808 C   0  0  0  0  0  0  0  0  0  0  0  0
  -12.8990   -1.7243  -14.0779 C   0  0  0  0  0  0  0  0  0  0  0  0
  -13.7071   -0.6365  -14.3770 C   0  0  0  0  0  0  0  0  0  0  0  0
  -13.3163    0.4968  -15.0316 N   0  0  0  0  0  0  0  0  0  0  0  0
  -14.3484    1.3669  -15.0740 C   0  0  0  0  0  0  0  0  0  0  0  0
  -14.3972    2.7131  -15.2926 C   0  0  0  0  0  0  0  0  0  0  0  0
  -15.3926    3.0556  -16.2196 C   0  0  0  0  0  0  0  0  0  0  0  0
  -16.6186    2.5950  -15.6677 C   0  0  0  0  0  0  0  0  0  0  0  0
  -16.6367    1.4429  -14.7201 C   0  0  0  0  0  0  0  0  0  0  0  0
  -15.4447    0.6833  -14.6650 C   0  0  0  0  0  0  0  0  0  0  0  0
  -15.0462   -0.4733  -13.9677 C   0  0  0  0  0  0  0  0  0  0  0  0
  -15.5299   -1.4118  -13.0335 C   0  0  0  0  0  0  0  0  0  0  0  0
  -17.8120    1.4304  -13.8574 C   0  0  0  0  0  0  0  0  0  0  0  0
  -18.5216    2.5591  -14.4340 N   0  0  0  0  0  0  0  0  0  0  0  0
  -17.8870    3.2772  -15.4790 C   0  0  0  0  0  0  0  0  0  0  0  0
  -18.3614    4.2883  -15.9420 O   0  0  0  0  0  0  0  0  0  0  0  0
  -14.7471    3.8428  -17.3286 C   0  0  0  0  0  0  0  0  0  0  0  0
  -15.0090    4.4283  -18.5665 C   0  0  0  0  0  0  0  0  0  0  0  0
  -13.7947    4.9454  -19.0392 N   0  0  0  0  0  0  0  0  0  0  0  0
  -13.4511    5.9935  -19.9800 C   0  0  0  0  0  0  0  0  0  0  0  0
  -12.7360    4.4789  -18.3867 N   0  0  0  0  0  0  0  0  0  0  0  0
  -13.2830    3.9671  -17.3063 C   0  0  0  0  0  0  0  0  0  0  0  0
  -12.4018    3.6205  -16.1685 C   0  0  0  0  0  0  0  0  0  0  0  0
  -13.2971    3.6583  -14.9652 C   0  0  0  0  0  0  0  0  0  0  0  0
  -12.3828    0.6736  -15.3746 H   0  0  0  0  0  0  0  0  0  0  0  0
  -19.3140    2.9884  -13.9653 H   0  0  0  0  0  0  0  0  0  0  0  0
  -16.2943   -4.3112  -11.7956 C   0  0  0  0  0  0  0  0  0  0  0  0
  -15.0946   -3.4087  -11.5354 C   0  0  0  0  0  0  0  0  0  0  0  0
  -14.3925   -3.4378  -10.4424 N   0  0  0  0  0  0  0  0  0  0  0  0
  -14.8900   -4.3783   -9.5392 O   0  0  0  0  0  0  0  0  0  0  0  0
  -13.8176   -5.1872   -9.0535 C   0  0  0  0  0  0  0  0  0  0  0  0
  -13.2429   -5.9996  -10.2055 C   0  0  0  0  0  0  0  0  0  0  0  0
  -12.7838   -4.2293   -8.4757 C   0  0  0  0  0  0  0  0  0  0  0  0
 28 29  1  0  0  0
 29 30  2  0  0  0
 29  1  1  0  0  0
 30 31  1  0  0  0
 31 32  1  0  0  0
 32 33  1  0  0  0
 32 34  1  0  0  0
  1  2  1  0  0  0
  1 13  2  0  0  0
  2  3  2  0  0  0
  3  4  1  0  0  0
  4  5  1  0  0  0
  4 12  2  0  0  0
  5  6  1  0  0  0
  5 26  1  0  0  0
  6  7  1  0  0  0
  6 11  2  0  0  0
  7  8  2  0  0  0
  7 25  1  0  0  0
  8  9  1  0  0  0
  8 18  1  0  0  0
  9 10  2  0  0  0
  9 16  1  0  0  0
 10 11  1  0  0  0
 10 14  1  0  0  0
 11 12  1  0  0  0
 12 13  1  0  0  0
 14 15  1  0  0  0
 15 16  1  0  0  0
 15 27  1  0  0  0
 16 17  2  0  0  0
 18 19  2  0  0  0
 18 23  1  0  0  0
 19 20  1  0  0  0
 20 21  1  0  0  0
 20 22  1  0  0  0
 22 23  2  0  0  0
 23 24  1  0  0  0
 24 25  1  0  0  0
M  END
> <minimizedAffinity>
-7.68882

$$$$
