CHEMBL4080190


 43 48  0  0  0  0  0  0  0  0999 V2000
  -15.0326    3.6696  -16.5189 N   0  0  0  0  0  0  0  0  0  0  0  0
  -16.2829    4.1417  -16.7429 N   0  0  0  0  0  0  0  0  0  0  0  0
  -17.0023    3.4972  -15.8352 C   0  0  0  0  0  0  0  0  0  0  0  0
  -16.3124    2.5715  -15.1118 N   0  0  0  0  0  0  0  0  0  0  0  0
  -15.0826    2.6802  -15.5433 C   0  0  0  0  0  0  0  0  0  0  0  0
  -14.0171    2.0139  -15.0574 N   0  0  0  0  0  0  0  0  0  0  0  0
  -14.2169    1.2060  -14.4755 H   0  0  0  0  0  0  0  0  0  0  0  0
  -13.1877    1.9220  -15.6403 H   0  0  0  0  0  0  0  0  0  0  0  0
  -11.9007    1.6140  -20.0135 C   0  0  0  0  0  0  0  0  0  0  0  0
  -11.4438    2.8961  -19.6463 C   0  0  0  0  0  0  0  0  0  0  0  0
  -12.1266    3.7140  -18.7542 C   0  0  0  0  0  0  0  0  0  0  0  0
  -11.5925    4.9005  -18.4177 N   0  0  0  0  0  0  0  0  0  0  0  0
  -12.2724    5.6673  -17.5522 C   0  0  0  0  0  0  0  0  0  0  0  0
  -13.4326    5.3568  -16.9721 N   0  0  0  0  0  0  0  0  0  0  0  0
  -13.9186    4.1247  -17.2781 C   0  0  0  0  0  0  0  0  0  0  0  0
  -13.3272    3.2596  -18.2273 C   0  0  0  0  0  0  0  0  0  0  0  0
  -13.8491    2.0263  -18.7012 C   0  0  0  0  0  0  0  0  0  0  0  0
  -13.1489    1.1911  -19.5679 C   0  0  0  0  0  0  0  0  0  0  0  0
  -11.5298    0.7964  -22.2003 C   0  0  0  0  0  0  0  0  0  0  0  0
  -11.1633    0.7926  -20.8212 O   0  0  0  0  0  0  0  0  0  0  0  0
  -13.8389    0.0420  -19.8166 O   0  0  0  0  0  0  0  0  0  0  0  0
  -13.5607   -1.1252  -19.0673 C   0  0  0  0  0  0  0  0  0  0  0  0
  -18.3155    3.7116  -15.6638 N   0  0  0  0  0  0  0  0  0  0  0  0
  -18.6471    4.6378  -15.9009 H   0  0  0  0  0  0  0  0  0  0  0  0
  -19.2828    2.8793  -15.0860 C   0  0  0  0  0  0  0  0  0  0  0  0
  -20.3112    3.4517  -14.3327 C   0  0  0  0  0  0  0  0  0  0  0  0
  -21.3701    2.6693  -13.8619 C   0  0  0  0  0  0  0  0  0  0  0  0
  -21.4318    1.2933  -14.1183 C   0  0  0  0  0  0  0  0  0  0  0  0
  -20.3820    0.7385  -14.8594 C   0  0  0  0  0  0  0  0  0  0  0  0
  -20.3942   -0.5621  -15.2005 F   0  0  0  0  0  0  0  0  0  0  0  0
  -19.3319    1.5085  -15.3402 C   0  0  0  0  0  0  0  0  0  0  0  0
  -22.5013    0.5411  -13.6824 N   0  0  0  0  0  0  0  0  0  0  0  0
  -22.4253   -0.2445  -12.4510 C   0  0  0  0  0  0  0  0  0  0  0  0
  -23.0015   -1.6586  -12.6655 C   0  0  0  0  0  0  0  0  0  0  0  0
  -24.3631   -1.6892  -13.2492 N   0  0  0  0  0  0  0  0  0  0  0  0
  -24.2889   -0.9587  -14.5427 C   0  0  0  0  0  0  0  0  0  0  0  0
  -23.7391    0.4871  -14.4664 C   0  0  0  0  0  0  0  0  0  0  0  0
  -25.4488   -1.1811  -12.3733 C   0  0  0  0  0  0  0  0  0  0  0  0
  -25.2704   -1.5474  -10.8791 C   0  0  0  0  0  0  0  0  0  0  0  0
  -26.4912   -1.2184  -10.0220 C   0  0  0  0  0  0  0  0  0  0  0  0
  -27.7512   -1.8588  -10.5819 C   0  0  0  0  0  0  0  0  0  0  0  0
  -27.9791   -1.4059  -12.0150 C   0  0  0  0  0  0  0  0  0  0  0  0
  -26.7858   -1.7561  -12.8979 C   0  0  0  0  0  0  0  0  0  0  0  0
 19 20  1  0  0  0
 20  9  1  0  0  0
  9 10  1  0  0  0
  9 18  2  0  0  0
 10 11  2  0  0  0
 11 12  1  0  0  0
 11 16  1  0  0  0
 12 13  2  0  0  0
 13 14  1  0  0  0
 14 15  2  0  0  0
 15  1  1  0  0  0
 15 16  1  0  0  0
  1  2  1  0  0  0
  1  5  1  0  0  0
  2  3  2  0  0  0
  3 23  1  0  0  0
  3  4  1  0  0  0
 23 25  1  0  0  0
 23 24  1  0  0  0
 25 26  1  0  0  0
 25 31  2  0  0  0
 26 27  2  0  0  0
 27 28  1  0  0  0
 28 32  1  0  0  0
 28 29  2  0  0  0
 32 33  1  0  0  0
 32 37  1  0  0  0
 33 34  1  0  0  0
 34 35  1  0  0  0
 35 38  1  0  0  0
 35 36  1  0  0  0
 38 39  1  0  0  0
 38 43  1  0  0  0
 39 40  1  0  0  0
 40 41  1  0  0  0
 41 42  1  0  0  0
 42 43  1  0  0  0
 36 37  1  0  0  0
 29 30  1  0  0  0
 29 31  1  0  0  0
  4  5  2  0  0  0
  5  6  1  0  0  0
  6  7  1  0  0  0
  6  8  1  0  0  0
 16 17  2  0  0  0
 17 18  1  0  0  0
 18 21  1  0  0  0
 21 22  1  0  0  0
M  END
> <minimizedAffinity>
-8.55723

$$$$
