CHEMBL3977627


 38 41  0  0  0  0  0  0  0  0999 V2000
  -25.6343   -1.7856  -12.0414 C   0  0  0  0  0  0  0  0  0  0  0  0
  -25.7947   -1.5757  -13.4167 C   0  0  0  0  0  0  0  0  0  0  0  0
  -24.7347   -1.1234  -14.2072 C   0  0  0  0  0  0  0  0  0  0  0  0
  -23.4997   -0.8477  -13.6269 C   0  0  0  0  0  0  0  0  0  0  0  0
  -23.3838   -0.9215  -12.2378 C   0  0  0  0  0  0  0  0  0  0  0  0
  -22.2467   -0.5660  -11.6222 F   0  0  0  0  0  0  0  0  0  0  0  0
  -24.4289   -1.4066  -11.4485 C   0  0  0  0  0  0  0  0  0  0  0  0
  -26.1579   -1.3042   -9.2440 O   0  0  0  0  0  0  0  0  0  0  0  0
  -26.8350   -2.0960   -9.8866 C   0  0  0  0  0  0  0  0  0  0  0  0
  -26.6173   -2.3967  -11.2231 N   0  0  0  0  0  0  0  0  0  0  0  0
  -27.9321   -2.7714   -9.3779 N   0  0  0  0  0  0  0  0  0  0  0  0
  -27.3464   -2.9047  -11.7018 H   0  0  0  0  0  0  0  0  0  0  0  0
  -28.3134   -3.5187   -9.9378 H   0  0  0  0  0  0  0  0  0  0  0  0
  -28.4987   -2.5855   -8.0931 C   0  0  0  0  0  0  0  0  0  0  0  0
  -29.1625   -3.5929   -7.3849 C   0  0  0  0  0  0  0  0  0  0  0  0
  -29.7087   -3.3435   -6.1254 C   0  0  0  0  0  0  0  0  0  0  0  0
  -29.5862   -2.0840   -5.5572 C   0  0  0  0  0  0  0  0  0  0  0  0
  -30.1219   -1.8786   -4.3486 F   0  0  0  0  0  0  0  0  0  0  0  0
  -28.9196   -1.0605   -6.2243 C   0  0  0  0  0  0  0  0  0  0  0  0
  -28.3733   -1.3223   -7.4980 C   0  0  0  0  0  0  0  0  0  0  0  0
  -28.7749    0.2938   -5.6031 C   0  0  0  0  0  0  0  0  0  0  0  0
  -29.9290    0.8644   -5.1682 F   0  0  0  0  0  0  0  0  0  0  0  0
  -27.9416    0.2700   -4.5237 F   0  0  0  0  0  0  0  0  0  0  0  0
  -28.2216    1.1925   -6.4675 F   0  0  0  0  0  0  0  0  0  0  0  0
  -22.5022   -0.4619  -14.4912 O   0  0  0  0  0  0  0  0  0  0  0  0
  -21.9998    0.8211  -14.4389 C   0  0  0  0  0  0  0  0  0  0  0  0
  -22.6585    1.9136  -13.8863 C   0  0  0  0  0  0  0  0  0  0  0  0
  -22.0505    3.1457  -13.9882 C   0  0  0  0  0  0  0  0  0  0  0  0
  -20.8321    3.3308  -14.5279 N   0  0  0  0  0  0  0  0  0  0  0  0
  -20.1625    2.2630  -14.9924 C   0  0  0  0  0  0  0  0  0  0  0  0
  -20.7135    0.9890  -14.9603 C   0  0  0  0  0  0  0  0  0  0  0  0
  -18.8753    2.4274  -15.5349 N   0  0  0  0  0  0  0  0  0  0  0  0
  -17.7143    2.0657  -14.8895 C   0  0  0  0  0  0  0  0  0  0  0  0
  -17.6012    1.5675  -13.7782 O   0  0  0  0  0  0  0  0  0  0  0  0
  -18.8129    2.8591  -16.4412 H   0  0  0  0  0  0  0  0  0  0  0  0
  -16.4381    2.3366  -15.6242 C   0  0  0  0  0  0  0  0  0  0  0  0
  -15.7442    1.2034  -16.3413 C   0  0  0  0  0  0  0  0  0  0  0  0
  -15.0509    1.9219  -15.2190 C   0  0  0  0  0  0  0  0  0  0  0  0
  8  9  2  0  0  0
  9 10  1  0  0  0
  9 11  1  0  0  0
 10  1  1  0  0  0
 10 12  1  0  0  0
  1  2  1  0  0  0
  1  7  2  0  0  0
  2  3  2  0  0  0
  3  4  1  0  0  0
  4 25  1  0  0  0
  4  5  2  0  0  0
 25 26  1  0  0  0
 26 27  1  0  0  0
 26 31  2  0  0  0
 27 28  2  0  0  0
 28 29  1  0  0  0
 29 30  2  0  0  0
 30 32  1  0  0  0
 30 31  1  0  0  0
 32 33  1  0  0  0
 32 35  1  0  0  0
 33 34  2  0  0  0
 33 36  1  0  0  0
 36 37  1  0  0  0
 36 38  1  0  0  0
 37 38  1  0  0  0
  5  6  1  0  0  0
  5  7  1  0  0  0
 11 14  1  0  0  0
 11 13  1  0  0  0
 14 15  1  0  0  0
 14 20  2  0  0  0
 15 16  2  0  0  0
 16 17  1  0  0  0
 17 18  1  0  0  0
 17 19  2  0  0  0
 19 21  1  0  0  0
 19 20  1  0  0  0
 21 22  1  0  0  0
 21 23  1  0  0  0
 21 24  1  0  0  0
M  END
> <minimizedAffinity>
-11.89150

$$$$
