CHEMBL3780632


 30 34  0  0  0  0  0  0  0  0999 V2000
  -27.9973  -10.0261   -6.4224 C   0  0  0  0  0  0  0  0  0  0  0  0
  -28.2904  -11.0574   -7.3040 C   0  0  0  0  0  0  0  0  0  0  0  0
  -29.4715  -11.1637   -7.9498 N   0  0  0  0  0  0  0  0  0  0  0  0
  -30.3866  -10.2134   -7.6878 C   0  0  0  0  0  0  0  0  0  0  0  0
  -31.6202  -10.2535   -8.3063 C   0  0  0  0  0  0  0  0  0  0  0  0
  -32.6224   -9.3689   -8.1273 N   0  0  0  0  0  0  0  0  0  0  0  0
  -32.3635   -8.3824   -7.2514 C   0  0  0  0  0  0  0  0  0  0  0  0
  -31.1639   -8.2221   -6.5519 C   0  0  0  0  0  0  0  0  0  0  0  0
  -30.1361   -9.1533   -6.7815 C   0  0  0  0  0  0  0  0  0  0  0  0
  -28.9303   -9.0694   -6.1555 N   0  0  0  0  0  0  0  0  0  0  0  0
  -24.1797   -9.6278   -4.4739 C   0  0  0  0  0  0  0  0  0  0  0  0
  -24.2751  -10.3062   -5.6856 C   0  0  0  0  0  0  0  0  0  0  0  0
  -25.5154  -10.4399   -6.3147 C   0  0  0  0  0  0  0  0  0  0  0  0
  -26.6893   -9.8999   -5.7518 C   0  0  0  0  0  0  0  0  0  0  0  0
  -26.5652   -9.2253   -4.5242 C   0  0  0  0  0  0  0  0  0  0  0  0
  -25.3247   -9.0910   -3.8919 C   0  0  0  0  0  0  0  0  0  0  0  0
  -31.0156   -7.1770   -5.6021 N   0  0  0  0  0  0  0  0  0  0  0  0
  -31.2614   -7.4646   -4.6583 H   0  0  0  0  0  0  0  0  0  0  0  0
  -30.2973   -5.9777   -5.7388 C   0  0  0  0  0  0  0  0  0  0  0  0
  -30.0673   -5.4034   -6.9946 C   0  0  0  0  0  0  0  0  0  0  0  0
  -29.2680   -4.2639   -7.1461 C   0  0  0  0  0  0  0  0  0  0  0  0
  -28.6619   -3.6535   -6.0473 C   0  0  0  0  0  0  0  0  0  0  0  0
  -28.9258   -4.2143   -4.7871 C   0  0  0  0  0  0  0  0  0  0  0  0
  -29.7339   -5.3517   -4.6293 C   0  0  0  0  0  0  0  0  0  0  0  0
  -27.8565   -2.5372   -6.1625 N   0  0  0  0  0  0  0  0  0  0  0  0
  -27.2530   -1.8646   -5.0017 C   0  0  0  0  0  0  0  0  0  0  0  0
  -27.8572   -0.4699   -4.7858 C   0  0  0  0  0  0  0  0  0  0  0  0
  -27.8005    0.3231   -5.9828 O   0  0  0  0  0  0  0  0  0  0  0  0
  -28.5347   -0.3233   -7.0351 C   0  0  0  0  0  0  0  0  0  0  0  0
  -27.9467   -1.7043   -7.3758 C   0  0  0  0  0  0  0  0  0  0  0  0
 11 12  1  0  0  0
 11 16  2  0  0  0
 12 13  2  0  0  0
 13 14  1  0  0  0
 14  1  1  0  0  0
 14 15  2  0  0  0
  1  2  1  0  0  0
  1 10  2  0  0  0
  2  3  2  0  0  0
  3  4  1  0  0  0
  4  5  1  0  0  0
  4  9  2  0  0  0
  5  6  2  0  0  0
  6  7  1  0  0  0
  7  8  2  0  0  0
  8 17  1  0  0  0
  8  9  1  0  0  0
 17 19  1  0  0  0
 17 18  1  0  0  0
 19 20  1  0  0  0
 19 24  2  0  0  0
 20 21  2  0  0  0
 21 22  1  0  0  0
 22 25  1  0  0  0
 22 23  2  0  0  0
 25 26  1  0  0  0
 25 30  1  0  0  0
 26 27  1  0  0  0
 27 28  1  0  0  0
 28 29  1  0  0  0
 29 30  1  0  0  0
 23 24  1  0  0  0
  9 10  1  0  0  0
 15 16  1  0  0  0
M  END
> <minimizedAffinity>
-8.54413

$$$$
