CHEMBL2022373


 42 47  0  0  0  0  0  0  0  0999 V2000
  -28.6209    1.4121   -5.5982 C   0  0  0  0  0  0  0  0  0  0  0  0
  -28.4648   -0.0204   -6.0190 C   0  0  0  0  0  0  0  0  0  0  0  0
  -28.0827   -0.3547   -7.2643 C   0  0  0  0  0  0  0  0  0  0  0  0
  -27.9985   -1.6948   -7.5992 N   0  0  0  0  0  0  0  0  0  0  0  0
  -27.6786   -2.3692   -8.7542 C   0  0  0  0  0  0  0  0  0  0  0  0
  -27.8378   -3.7076   -8.4268 C   0  0  0  0  0  0  0  0  0  0  0  0
  -28.2220   -3.8756   -7.1190 N   0  0  0  0  0  0  0  0  0  0  0  0
  -28.3035   -2.6473   -6.6574 C   0  0  0  0  0  0  0  0  0  0  0  0
  -28.6469   -2.2414   -5.3068 C   0  0  0  0  0  0  0  0  0  0  0  0
  -28.7358   -0.9597   -5.0391 N   0  0  0  0  0  0  0  0  0  0  0  0
  -27.2829   -1.8291  -10.0739 C   0  0  0  0  0  0  0  0  0  0  0  0
  -27.9414   -0.9544  -10.9584 C   0  0  0  0  0  0  0  0  0  0  0  0
  -27.2677   -0.7712  -12.0973 N   0  0  0  0  0  0  0  0  0  0  0  0
  -26.1610   -1.5141  -11.9282 N   0  0  0  0  0  0  0  0  0  0  0  0
  -26.1034   -2.1323  -10.7106 C   0  0  0  0  0  0  0  0  0  0  0  0
  -25.1911   -1.6089  -12.9930 C   0  0  0  0  0  0  0  0  0  0  0  0
  -24.1738   -0.5047  -12.8783 C   0  0  0  0  0  0  0  0  0  0  0  0
  -24.0084    0.0862  -11.8064 O   0  0  0  0  0  0  0  0  0  0  0  0
  -23.4927   -0.2060  -14.0507 N   0  0  0  0  0  0  0  0  0  0  0  0
  -23.9695   -0.4250  -14.9239 H   0  0  0  0  0  0  0  0  0  0  0  0
  -22.5789    0.8711  -14.0955 C   0  0  0  0  0  0  0  0  0  0  0  0
  -22.9669    2.1720  -13.7535 C   0  0  0  0  0  0  0  0  0  0  0  0
  -22.0749    3.2342  -13.9192 C   0  0  0  0  0  0  0  0  0  0  0  0
  -20.8036    3.0015  -14.4404 C   0  0  0  0  0  0  0  0  0  0  0  0
  -20.4124    1.6990  -14.7455 C   0  0  0  0  0  0  0  0  0  0  0  0
  -19.2006    1.4861  -15.2749 F   0  0  0  0  0  0  0  0  0  0  0  0
  -21.2824    0.6347  -14.5443 C   0  0  0  0  0  0  0  0  0  0  0  0
  -20.9092   -0.6132  -14.8732 F   0  0  0  0  0  0  0  0  0  0  0  0
  -28.8629   -3.2116   -4.3451 N   0  0  0  0  0  0  0  0  0  0  0  0
  -28.5756   -2.9100   -3.4165 H   0  0  0  0  0  0  0  0  0  0  0  0
  -29.5848   -4.3590   -4.4499 C   0  0  0  0  0  0  0  0  0  0  0  0
  -29.1218   -5.5904   -4.8723 C   0  0  0  0  0  0  0  0  0  0  0  0
  -30.1587   -6.5806   -4.8376 C   0  0  0  0  0  0  0  0  0  0  0  0
  -31.3441   -6.1651   -4.3907 N   0  0  0  0  0  0  0  0  0  0  0  0
  -31.2417   -4.5621   -4.0256 S   0  0  0  0  0  0  0  0  0  0  0  0
  -30.0299   -8.0032   -5.2871 C   0  0  0  0  0  0  0  0  0  0  0  0
  -30.1832   -8.1506   -6.7562 N   0  0  0  0  0  0  0  0  0  0  0  0
  -28.8603   -8.3199   -7.3921 C   0  0  0  0  0  0  0  0  0  0  0  0
  -28.9395   -8.7262   -8.8651 C   0  0  0  0  0  0  0  0  0  0  0  0
  -29.8056   -9.9653   -9.0455 C   0  0  0  0  0  0  0  0  0  0  0  0
  -31.1818   -9.6975   -8.4636 C   0  0  0  0  0  0  0  0  0  0  0  0
  -31.0779   -9.2958   -6.9952 C   0  0  0  0  0  0  0  0  0  0  0  0
  1  2  1  0  0  0
  2  3  2  0  0  0
  2 10  1  0  0  0
  3  4  1  0  0  0
  4  5  1  0  0  0
  4  8  1  0  0  0
  5 11  1  0  0  0
  5  6  2  0  0  0
 11 12  1  0  0  0
 11 15  2  0  0  0
 12 13  2  0  0  0
 13 14  1  0  0  0
 14 16  1  0  0  0
 14 15  1  0  0  0
 16 17  1  0  0  0
 17 18  2  0  0  0
 17 19  1  0  0  0
 19 21  1  0  0  0
 19 20  1  0  0  0
 21 22  1  0  0  0
 21 27  2  0  0  0
 22 23  2  0  0  0
 23 24  1  0  0  0
 24 25  2  0  0  0
 25 26  1  0  0  0
 25 27  1  0  0  0
 27 28  1  0  0  0
  6  7  1  0  0  0
  7  8  2  0  0  0
  8  9  1  0  0  0
  9 29  1  0  0  0
  9 10  2  0  0  0
 29 31  1  0  0  0
 29 30  1  0  0  0
 31 32  2  0  0  0
 31 35  1  0  0  0
 32 33  1  0  0  0
 33 36  1  0  0  0
 33 34  2  0  0  0
 36 37  1  0  0  0
 37 38  1  0  0  0
 37 42  1  0  0  0
 38 39  1  0  0  0
 39 40  1  0  0  0
 40 41  1  0  0  0
 41 42  1  0  0  0
 34 35  1  0  0  0
M  END
> <minimizedAffinity>
-10.44825

$$$$
