CHEMBL1096737


 28 31  0  0  0  0  0  0  0  0999 V2000
  -29.3085   -2.3739   -5.5474 C   0  0  0  0  0  0  0  0  0  0  0  0
  -29.2535   -1.3614   -4.6385 N   0  0  0  0  0  0  0  0  0  0  0  0
  -28.5873   -0.2353   -4.9408 C   0  0  0  0  0  0  0  0  0  0  0  0
  -27.9470    0.0552   -6.0789 N   0  0  0  0  0  0  0  0  0  0  0  0
  -28.0033   -0.9657   -6.9421 C   0  0  0  0  0  0  0  0  0  0  0  0
  -27.4538   -0.9411   -8.1913 N   0  0  0  0  0  0  0  0  0  0  0  0
  -27.6600   -2.1428   -8.8302 C   0  0  0  0  0  0  0  0  0  0  0  0
  -28.3821   -2.9403   -7.9541 C   0  0  0  0  0  0  0  0  0  0  0  0
  -28.6209   -2.1936   -6.7615 C   0  0  0  0  0  0  0  0  0  0  0  0
  -26.9760   -0.1319   -8.5610 H   0  0  0  0  0  0  0  0  0  0  0  0
  -30.0495   -3.5301   -5.2411 N   0  0  0  0  0  0  0  0  0  0  0  0
  -30.6682   -3.4041   -4.4491 H   0  0  0  0  0  0  0  0  0  0  0  0
  -28.1236   -8.7230   -5.6870 F   0  0  0  0  0  0  0  0  0  0  0  0
  -28.6057   -7.4775   -5.5771 C   0  0  0  0  0  0  0  0  0  0  0  0
  -27.9681   -6.5901   -4.7207 C   0  0  0  0  0  0  0  0  0  0  0  0
  -28.4461   -5.2849   -4.6055 C   0  0  0  0  0  0  0  0  0  0  0  0
  -29.5592   -4.8510   -5.3447 C   0  0  0  0  0  0  0  0  0  0  0  0
  -30.2125   -5.7694   -6.1767 C   0  0  0  0  0  0  0  0  0  0  0  0
  -29.7250   -7.0745   -6.3047 C   0  0  0  0  0  0  0  0  0  0  0  0
  -30.5860   -8.2798   -7.4795 Br  0  0  0  0  0  0  0  0  0  0  0  0
  -27.1930   -2.4166  -10.2308 C   0  0  0  0  0  0  0  0  0  0  0  0
  -27.3640   -1.2282  -11.1834 C   0  0  0  0  0  0  0  0  0  0  0  0
  -26.2148   -1.0900  -12.1498 C   0  0  0  0  0  0  0  0  0  0  0  0
  -26.3002   -1.6372  -13.4377 C   0  0  0  0  0  0  0  0  0  0  0  0
  -25.2487   -1.4829  -14.3422 C   0  0  0  0  0  0  0  0  0  0  0  0
  -24.1012   -0.7877  -13.9655 C   0  0  0  0  0  0  0  0  0  0  0  0
  -23.9992   -0.2569  -12.6809 C   0  0  0  0  0  0  0  0  0  0  0  0
  -25.0494   -0.4102  -11.7746 C   0  0  0  0  0  0  0  0  0  0  0  0
 13 14  1  0  0  0
 14 15  1  0  0  0
 14 19  2  0  0  0
 15 16  2  0  0  0
 16 17  1  0  0  0
 17 11  1  0  0  0
 17 18  2  0  0  0
 11  1  1  0  0  0
 11 12  1  0  0  0
  1  2  1  0  0  0
  1  9  2  0  0  0
  2  3  2  0  0  0
  3  4  1  0  0  0
  4  5  2  0  0  0
  5  6  1  0  0  0
  5  9  1  0  0  0
  6  7  1  0  0  0
  6 10  1  0  0  0
  7 21  1  0  0  0
  7  8  2  0  0  0
 21 22  1  0  0  0
 22 23  1  0  0  0
 23 24  1  0  0  0
 23 28  2  0  0  0
 24 25  2  0  0  0
 25 26  1  0  0  0
 26 27  2  0  0  0
 27 28  1  0  0  0
  8  9  1  0  0  0
 18 19  1  0  0  0
 19 20  1  0  0  0
M  END
> <minimizedAffinity>
-9.34342

$$$$
