CHEMBL3321904


 29 33  0  0  0  0  0  0  0  0999 V2000
  -26.6313   -1.8450  -10.2867 C   0  0  0  0  0  0  0  0  0  0  0  0
  -27.0572   -1.9387  -11.5318 N   0  0  0  0  0  0  0  0  0  0  0  0
  -25.9904   -1.6022  -12.3235 C   0  0  0  0  0  0  0  0  0  0  0  0
  -25.8997   -1.5477  -13.7150 C   0  0  0  0  0  0  0  0  0  0  0  0
  -24.6844   -1.1482  -14.2830 C   0  0  0  0  0  0  0  0  0  0  0  0
  -23.5561   -0.8302  -13.5034 C   0  0  0  0  0  0  0  0  0  0  0  0
  -23.6596   -0.8575  -12.1015 C   0  0  0  0  0  0  0  0  0  0  0  0
  -24.8847   -1.2658  -11.5551 C   0  0  0  0  0  0  0  0  0  0  0  0
  -25.3203   -1.4265  -10.2647 N   0  0  0  0  0  0  0  0  0  0  0  0
  -24.7774   -1.2467   -9.4353 H   0  0  0  0  0  0  0  0  0  0  0  0
  -29.8935   -3.0306   -5.4103 Cl  0  0  0  0  0  0  0  0  0  0  0  0
  -28.9587   -2.6823   -6.8109 C   0  0  0  0  0  0  0  0  0  0  0  0
  -28.3862   -1.4215   -6.9640 C   0  0  0  0  0  0  0  0  0  0  0  0
  -27.6238   -1.1337   -8.1004 C   0  0  0  0  0  0  0  0  0  0  0  0
  -27.4306   -2.1078   -9.0910 C   0  0  0  0  0  0  0  0  0  0  0  0
  -28.0059   -3.3757   -8.9144 C   0  0  0  0  0  0  0  0  0  0  0  0
  -28.7728   -3.6625   -7.7821 C   0  0  0  0  0  0  0  0  0  0  0  0
  -22.3675   -0.3593  -14.1130 N   0  0  0  0  0  0  0  0  0  0  0  0
  -22.0959   -0.8718  -14.9430 H   0  0  0  0  0  0  0  0  0  0  0  0
  -21.9993    1.0041  -14.2390 C   0  0  0  0  0  0  0  0  0  0  0  0
  -22.9061    1.9368  -13.8923 N   0  0  0  0  0  0  0  0  0  0  0  0
  -22.5180    3.2088  -13.9474 C   0  0  0  0  0  0  0  0  0  0  0  0
  -21.3071    3.6455  -14.3020 N   0  0  0  0  0  0  0  0  0  0  0  0
  -20.4160    2.7155  -14.6575 C   0  0  0  0  0  0  0  0  0  0  0  0
  -19.1349    3.1305  -14.9926 C   0  0  0  0  0  0  0  0  0  0  0  0
  -18.1418    2.2259  -15.3745 C   0  0  0  0  0  0  0  0  0  0  0  0
  -18.4308    0.8691  -15.4323 C   0  0  0  0  0  0  0  0  0  0  0  0
  -19.7057    0.4248  -15.0840 C   0  0  0  0  0  0  0  0  0  0  0  0
  -20.7095    1.3444  -14.6835 C   0  0  0  0  0  0  0  0  0  0  0  0
 11 12  1  0  0  0
 12 13  1  0  0  0
 12 17  2  0  0  0
 13 14  2  0  0  0
 14 15  1  0  0  0
 15  1  1  0  0  0
 15 16  2  0  0  0
  1  2  2  0  0  0
  1  9  1  0  0  0
  2  3  1  0  0  0
  3  4  1  0  0  0
  3  8  2  0  0  0
  4  5  2  0  0  0
  5  6  1  0  0  0
  6 18  1  0  0  0
  6  7  2  0  0  0
 18 20  1  0  0  0
 18 19  1  0  0  0
 20 21  1  0  0  0
 20 29  2  0  0  0
 21 22  2  0  0  0
 22 23  1  0  0  0
 23 24  2  0  0  0
 24 25  1  0  0  0
 24 29  1  0  0  0
 25 26  2  0  0  0
 26 27  1  0  0  0
 27 28  2  0  0  0
 28 29  1  0  0  0
  7  8  1  0  0  0
  8  9  1  0  0  0
  9 10  1  0  0  0
 16 17  1  0  0  0
M  END
> <minimizedAffinity>
-11.26153

$$$$
