CHEMBL3932553


 29 32  0  0  0  0  0  0  0  0999 V2000
  -25.7798   -1.4729  -12.0049 C   0  0  0  0  0  0  0  0  0  0  0  0
  -26.4827   -2.0149  -13.0862 C   0  0  0  0  0  0  0  0  0  0  0  0
  -26.0477   -1.8258  -14.3966 C   0  0  0  0  0  0  0  0  0  0  0  0
  -24.8927   -1.0903  -14.6422 C   0  0  0  0  0  0  0  0  0  0  0  0
  -24.1900   -0.5126  -13.5795 C   0  0  0  0  0  0  0  0  0  0  0  0
  -24.6609   -0.6656  -12.2638 C   0  0  0  0  0  0  0  0  0  0  0  0
  -28.3560   -1.0256  -10.7342 O   0  0  0  0  0  0  0  0  0  0  0  0
  -27.3979   -1.4952  -10.1297 C   0  0  0  0  0  0  0  0  0  0  0  0
  -26.1412   -1.7563  -10.6587 N   0  0  0  0  0  0  0  0  0  0  0  0
  -25.5258   -2.3687  -10.1384 H   0  0  0  0  0  0  0  0  0  0  0  0
  -27.6502   -1.8672   -8.7187 C   0  0  0  0  0  0  0  0  0  0  0  0
  -28.1036   -3.1760   -8.4684 C   0  0  0  0  0  0  0  0  0  0  0  0
  -28.5036   -3.5554   -7.1896 C   0  0  0  0  0  0  0  0  0  0  0  0
  -28.4659   -2.6202   -6.1626 C   0  0  0  0  0  0  0  0  0  0  0  0
  -28.8921   -2.9889   -4.9461 F   0  0  0  0  0  0  0  0  0  0  0  0
  -28.0166   -1.3185   -6.4010 C   0  0  0  0  0  0  0  0  0  0  0  0
  -28.0215   -0.1546   -5.1316 Cl  0  0  0  0  0  0  0  0  0  0  0  0
  -27.5975   -0.9338   -7.6795 C   0  0  0  0  0  0  0  0  0  0  0  0
  -22.9488    0.1593  -13.8535 C   0  0  0  0  0  0  0  0  0  0  0  0
  -21.9361    0.7376  -14.1609 C   0  0  0  0  0  0  0  0  0  0  0  0
  -20.7641    1.4960  -14.5391 C   0  0  0  0  0  0  0  0  0  0  0  0
  -20.8149    2.9711  -14.6606 C   0  0  0  0  0  0  0  0  0  0  0  0
  -19.6828    3.5972  -15.0135 C   0  0  0  0  0  0  0  0  0  0  0  0
  -18.5212    2.8301  -15.2560 C   0  0  0  0  0  0  0  0  0  0  0  0
  -17.3075    3.1928  -15.6071 N   0  0  0  0  0  0  0  0  0  0  0  0
  -16.5980    2.0238  -15.7011 C   0  0  0  0  0  0  0  0  0  0  0  0
  -17.3931    0.9391  -15.4024 C   0  0  0  0  0  0  0  0  0  0  0  0
  -18.6283    1.4550  -15.1126 N   0  0  0  0  0  0  0  0  0  0  0  0
  -19.7367    0.7335  -14.7518 N   0  0  0  0  0  0  0  0  0  0  0  0
  7  8  2  0  0  0
  8  9  1  0  0  0
  8 11  1  0  0  0
  9  1  1  0  0  0
  9 10  1  0  0  0
  1  2  1  0  0  0
  1  6  2  0  0  0
  2  3  2  0  0  0
  3  4  1  0  0  0
  4  5  2  0  0  0
  5 19  1  0  0  0
  5  6  1  0  0  0
 19 20  3  0  0  0
 20 21  1  0  0  0
 21 22  1  0  0  0
 21 29  2  0  0  0
 22 23  2  0  0  0
 23 24  1  0  0  0
 24 25  2  0  0  0
 24 28  1  0  0  0
 25 26  1  0  0  0
 26 27  2  0  0  0
 27 28  1  0  0  0
 28 29  1  0  0  0
 11 12  1  0  0  0
 11 18  2  0  0  0
 12 13  2  0  0  0
 13 14  1  0  0  0
 14 15  1  0  0  0
 14 16  2  0  0  0
 16 17  1  0  0  0
 16 18  1  0  0  0
M  END
> <minimizedAffinity>
-11.28261

$$$$
