CHEMBL1241683


 26 29  0  0  0  0  0  0  0  0999 V2000
  -30.6003   -8.6868   -6.7719 N   0  0  0  0  0  0  0  0  0  0  0  0
  -30.5239   -7.4114   -7.1840 N   0  0  0  0  0  0  0  0  0  0  0  0
  -29.5608   -6.8566   -6.4224 C   0  0  0  0  0  0  0  0  0  0  0  0
  -28.8982   -7.8562   -5.6413 C   0  0  0  0  0  0  0  0  0  0  0  0
  -27.8638   -7.9605   -4.7021 C   0  0  0  0  0  0  0  0  0  0  0  0
  -27.0518   -6.9138   -4.2806 N   0  0  0  0  0  0  0  0  0  0  0  0
  -27.6265   -9.1572   -4.1213 N   0  0  0  0  0  0  0  0  0  0  0  0
  -28.4096  -10.2027   -4.4461 C   0  0  0  0  0  0  0  0  0  0  0  0
  -29.4325  -10.2242   -5.3110 N   0  0  0  0  0  0  0  0  0  0  0  0
  -29.6195   -9.0211   -5.8821 C   0  0  0  0  0  0  0  0  0  0  0  0
  -27.5488   -6.0402   -4.1669 H   0  0  0  0  0  0  0  0  0  0  0  0
  -26.5364   -7.2101   -3.4568 H   0  0  0  0  0  0  0  0  0  0  0  0
  -29.4864   -5.3917   -6.3920 C   0  0  0  0  0  0  0  0  0  0  0  0
  -30.1747   -4.7610   -5.3447 C   0  0  0  0  0  0  0  0  0  0  0  0
  -30.1191   -3.3833   -5.1591 C   0  0  0  0  0  0  0  0  0  0  0  0
  -29.3657   -2.5861   -5.9919 C   0  0  0  0  0  0  0  0  0  0  0  0
  -29.3321   -1.2787   -5.7135 N   0  0  0  0  0  0  0  0  0  0  0  0
  -28.5792   -0.4989   -6.5054 C   0  0  0  0  0  0  0  0  0  0  0  0
  -28.5728    1.1568   -6.0608 Cl  0  0  0  0  0  0  0  0  0  0  0  0
  -27.8540   -0.9579   -7.5859 C   0  0  0  0  0  0  0  0  0  0  0  0
  -27.9054   -2.3222   -7.8777 C   0  0  0  0  0  0  0  0  0  0  0  0
  -28.6747   -3.1848   -7.0742 C   0  0  0  0  0  0  0  0  0  0  0  0
  -28.7582   -4.5893   -7.2806 C   0  0  0  0  0  0  0  0  0  0  0  0
  -33.0146   -8.7017   -7.3165 C   0  0  0  0  0  0  0  0  0  0  0  0
  -31.7163   -9.5129   -7.2210 C   0  0  0  0  0  0  0  0  0  0  0  0
  -31.3995  -10.1806   -8.5579 C   0  0  0  0  0  0  0  0  0  0  0  0
 24 25  1  0  0  0
 25 26  1  0  0  0
 25  1  1  0  0  0
  1  2  1  0  0  0
  1 10  1  0  0  0
  2  3  2  0  0  0
  3 13  1  0  0  0
  3  4  1  0  0  0
 13 14  1  0  0  0
 13 23  2  0  0  0
 14 15  2  0  0  0
 15 16  1  0  0  0
 16 17  1  0  0  0
 16 22  2  0  0  0
 17 18  2  0  0  0
 18 19  1  0  0  0
 18 20  1  0  0  0
 20 21  2  0  0  0
 21 22  1  0  0  0
 22 23  1  0  0  0
  4  5  1  0  0  0
  4 10  2  0  0  0
  5  6  1  0  0  0
  5  7  2  0  0  0
  6 11  1  0  0  0
  6 12  1  0  0  0
  7  8  1  0  0  0
  8  9  2  0  0  0
  9 10  1  0  0  0
M  END
> <minimizedAffinity>
-8.55013

$$$$
