CHEMBL3739633


 40 44  0  0  0  0  0  0  0  0999 V2000
  -16.6918    2.7500  -15.8197 C   0  0  0  0  0  0  0  0  0  0  0  0
  -18.0919    2.6875  -15.9188 C   0  0  0  0  0  0  0  0  0  0  0  0
  -18.7909    1.6529  -15.3052 C   0  0  0  0  0  0  0  0  0  0  0  0
  -18.1023    0.6845  -14.5753 C   0  0  0  0  0  0  0  0  0  0  0  0
  -16.7046    0.7241  -14.4489 C   0  0  0  0  0  0  0  0  0  0  0  0
  -16.0310   -0.2703  -13.7106 C   0  0  0  0  0  0  0  0  0  0  0  0
  -14.6395   -0.2600  -13.5846 C   0  0  0  0  0  0  0  0  0  0  0  0
  -13.9069    0.7294  -14.2281 C   0  0  0  0  0  0  0  0  0  0  0  0
  -14.5637    1.7329  -14.9414 C   0  0  0  0  0  0  0  0  0  0  0  0
  -15.9727    1.7635  -15.0779 C   0  0  0  0  0  0  0  0  0  0  0  0
  -15.5249    3.6415  -17.7653 N   0  0  0  0  0  0  0  0  0  0  0  0
  -15.9777    3.8884  -16.4818 C   0  0  0  0  0  0  0  0  0  0  0  0
  -15.8534    4.9377  -15.8619 O   0  0  0  0  0  0  0  0  0  0  0  0
  -15.7086    2.7602  -18.2129 H   0  0  0  0  0  0  0  0  0  0  0  0
  -11.8165    6.5435  -19.4368 C   0  0  0  0  0  0  0  0  0  0  0  0
  -13.0431    5.7880  -19.1247 C   0  0  0  0  0  0  0  0  0  0  0  0
  -13.3900    4.8309  -18.2084 C   0  0  0  0  0  0  0  0  0  0  0  0
  -14.7519    4.5447  -18.4796 C   0  0  0  0  0  0  0  0  0  0  0  0
  -15.1852    5.2896  -19.5019 N   0  0  0  0  0  0  0  0  0  0  0  0
  -14.1172    6.0692  -19.9021 O   0  0  0  0  0  0  0  0  0  0  0  0
  -14.0669   -1.3045  -12.8936 O   0  0  0  0  0  0  0  0  0  0  0  0
  -14.8618   -2.4101  -12.5971 C   0  0  0  0  0  0  0  0  0  0  0  0
  -15.5530   -2.3611  -11.4109 C   0  0  0  0  0  0  0  0  0  0  0  0
  -16.3146   -3.4662  -11.1434 C   0  0  0  0  0  0  0  0  0  0  0  0
  -16.3985   -4.5167  -11.9740 N   0  0  0  0  0  0  0  0  0  0  0  0
  -15.6825   -4.4769  -13.1116 C   0  0  0  0  0  0  0  0  0  0  0  0
  -14.8815   -3.4588  -13.4381 N   0  0  0  0  0  0  0  0  0  0  0  0
  -15.7420   -5.5400  -14.0108 N   0  0  0  0  0  0  0  0  0  0  0  0
  -16.7075   -5.7153  -14.2545 H   0  0  0  0  0  0  0  0  0  0  0  0
  -14.8979   -6.6587  -14.0721 C   0  0  0  0  0  0  0  0  0  0  0  0
  -14.8082   -7.5900  -13.0328 C   0  0  0  0  0  0  0  0  0  0  0  0
  -13.9119   -8.6552  -13.1050 C   0  0  0  0  0  0  0  0  0  0  0  0
  -13.0932   -8.8059  -14.2226 C   0  0  0  0  0  0  0  0  0  0  0  0
  -13.1895   -7.9151  -15.3002 C   0  0  0  0  0  0  0  0  0  0  0  0
  -14.1022   -6.8481  -15.2107 C   0  0  0  0  0  0  0  0  0  0  0  0
  -12.2643   -8.0030  -16.4853 C   0  0  0  0  0  0  0  0  0  0  0  0
  -12.6038   -9.4106  -17.5349 S   0  0  0  0  0  0  0  0  0  0  0  0
  -11.5366   -9.2072  -18.9402 C   0  0  0  0  0  0  0  0  0  0  0  0
  -12.1360  -10.5880  -16.8217 O   0  0  0  0  0  0  0  0  0  0  0  0
  -13.9777   -9.3577  -18.0012 O   0  0  0  0  0  0  0  0  0  0  0  0
 15 16  1  0  0  0
 16 17  2  0  0  0
 16 20  1  0  0  0
 17 18  1  0  0  0
 18 11  1  0  0  0
 18 19  2  0  0  0
 11 12  1  0  0  0
 11 14  1  0  0  0
 12 13  2  0  0  0
 12  1  1  0  0  0
  1  2  1  0  0  0
  1 10  2  0  0  0
  2  3  2  0  0  0
  3  4  1  0  0  0
  4  5  2  0  0  0
  5  6  1  0  0  0
  5 10  1  0  0  0
  6  7  2  0  0  0
  7 21  1  0  0  0
  7  8  1  0  0  0
 21 22  1  0  0  0
 22 23  1  0  0  0
 22 27  2  0  0  0
 23 24  2  0  0  0
 24 25  1  0  0  0
 25 26  2  0  0  0
 26 28  1  0  0  0
 26 27  1  0  0  0
 28 30  1  0  0  0
 28 29  1  0  0  0
 30 31  1  0  0  0
 30 35  2  0  0  0
 31 32  2  0  0  0
 32 33  1  0  0  0
 33 34  2  0  0  0
 34 36  1  0  0  0
 34 35  1  0  0  0
 36 37  1  0  0  0
 37 38  1  0  0  0
 37 39  2  0  0  0
 37 40  2  0  0  0
  8  9  2  0  0  0
  9 10  1  0  0  0
 19 20  1  0  0  0
M  END
> <minimizedAffinity>
-8.63435

$$$$
