CHEMBL3933123


 35 39  0  0  0  0  0  0  0  0999 V2000
  -29.5028   -5.1869   -7.0854 C   0  0  0  0  0  0  0  0  0  0  0  0
  -28.9095   -4.3285   -8.0182 C   0  0  0  0  0  0  0  0  0  0  0  0
  -28.4377   -3.0457   -7.6416 C   0  0  0  0  0  0  0  0  0  0  0  0
  -27.9849   -2.0441   -8.5184 C   0  0  0  0  0  0  0  0  0  0  0  0
  -27.5617   -0.8491   -8.0680 N   0  0  0  0  0  0  0  0  0  0  0  0
  -27.5674   -0.6475   -6.7567 C   0  0  0  0  0  0  0  0  0  0  0  0
  -27.9721   -1.5275   -5.8365 N   0  0  0  0  0  0  0  0  0  0  0  0
  -28.4162   -2.7017   -6.2921 C   0  0  0  0  0  0  0  0  0  0  0  0
  -28.8939   -3.5980   -5.3674 C   0  0  0  0  0  0  0  0  0  0  0  0
  -29.4968   -4.8131   -5.7297 C   0  0  0  0  0  0  0  0  0  0  0  0
  -29.2833   -7.3722   -8.0377 C   0  0  0  0  0  0  0  0  0  0  0  0
  -30.1053   -6.3657   -7.4379 O   0  0  0  0  0  0  0  0  0  0  0  0
  -28.0116   -2.3033   -9.9134 N   0  0  0  0  0  0  0  0  0  0  0  0
  -28.9585   -2.1665  -10.2576 H   0  0  0  0  0  0  0  0  0  0  0  0
  -27.0488   -1.8979  -10.8635 C   0  0  0  0  0  0  0  0  0  0  0  0
  -25.7294   -1.6006  -10.5025 C   0  0  0  0  0  0  0  0  0  0  0  0
  -24.7887   -1.2070  -11.4532 C   0  0  0  0  0  0  0  0  0  0  0  0
  -25.1418   -1.1548  -12.7996 C   0  0  0  0  0  0  0  0  0  0  0  0
  -23.9409   -0.6338  -13.9228 Cl  0  0  0  0  0  0  0  0  0  0  0  0
  -26.4332   -1.5227  -13.1890 C   0  0  0  0  0  0  0  0  0  0  0  0
  -26.9314   -1.5317  -14.8433 Cl  0  0  0  0  0  0  0  0  0  0  0  0
  -27.3754   -1.9041  -12.2256 C   0  0  0  0  0  0  0  0  0  0  0  0
  -30.1052   -5.6318   -4.7926 O   0  0  0  0  0  0  0  0  0  0  0  0
  -29.2134   -6.0693   -3.7439 C   0  0  0  0  0  0  0  0  0  0  0  0
  -28.7790   -7.4592   -3.9672 C   0  0  0  0  0  0  0  0  0  0  0  0
  -28.0352   -7.9501   -4.9300 N   0  0  0  0  0  0  0  0  0  0  0  0
  -27.9268   -9.2703   -4.5600 C   0  0  0  0  0  0  0  0  0  0  0  0
  -28.7282   -9.6263   -3.5398 N   0  0  0  0  0  0  0  0  0  0  0  0
  -29.2815   -8.4118   -3.1301 O   0  0  0  0  0  0  0  0  0  0  0  0
  -26.6737  -10.0419   -4.8248 C   0  0  0  0  0  0  0  0  0  0  0  0
  -25.5517   -9.3710   -4.0145 C   0  0  0  0  0  0  0  0  0  0  0  0
  -24.2747   -9.6561   -4.7751 C   0  0  0  0  0  0  0  0  0  0  0  0
  -24.7237  -10.4078   -6.0156 C   0  0  0  0  0  0  0  0  0  0  0  0
  -26.1214   -9.9892   -6.1971 N   0  0  0  0  0  0  0  0  0  0  0  0
  -26.8070  -10.8618   -7.1428 C   0  0  0  0  0  0  0  0  0  0  0  0
 11 12  1  0  0  0
 12  1  1  0  0  0
  1  2  1  0  0  0
  1 10  2  0  0  0
  2  3  2  0  0  0
  3  4  1  0  0  0
  3  8  1  0  0  0
  4 13  1  0  0  0
  4  5  2  0  0  0
 13 15  1  0  0  0
 13 14  1  0  0  0
 15 16  1  0  0  0
 15 22  2  0  0  0
 16 17  2  0  0  0
 17 18  1  0  0  0
 18 19  1  0  0  0
 18 20  2  0  0  0
 20 21  1  0  0  0
 20 22  1  0  0  0
  5  6  1  0  0  0
  6  7  2  0  0  0
  7  8  1  0  0  0
  8  9  2  0  0  0
  9 10  1  0  0  0
 10 23  1  0  0  0
 23 24  1  0  0  0
 24 25  1  0  0  0
 25 26  2  0  0  0
 25 29  1  0  0  0
 26 27  1  0  0  0
 27 28  2  0  0  0
 30 31  1  0  0  0
 30 34  1  0  0  0
 30 27  1  0  0  0
 31 32  1  0  0  0
 32 33  1  0  0  0
 33 34  1  0  0  0
 34 35  1  0  0  0
 28 29  1  0  0  0
M  END
> <minimizedAffinity>
-9.47621

$$$$
