CHEMBL3982995


 32 36  0  0  0  0  0  0  0  0999 V2000
  -28.3317   -2.5405   -8.2806 C   0  0  0  0  0  0  0  0  0  0  0  0
  -27.9529   -1.5074   -7.4192 C   0  0  0  0  0  0  0  0  0  0  0  0
  -27.9160   -1.7166   -6.0447 C   0  0  0  0  0  0  0  0  0  0  0  0
  -28.2712   -2.9609   -5.5260 C   0  0  0  0  0  0  0  0  0  0  0  0
  -28.6892   -4.0150   -6.3556 C   0  0  0  0  0  0  0  0  0  0  0  0
  -28.7121   -3.7786   -7.7429 C   0  0  0  0  0  0  0  0  0  0  0  0
  -29.0053   -5.2423   -5.7983 N   0  0  0  0  0  0  0  0  0  0  0  0
  -30.3875   -5.7182   -5.7067 C   0  0  0  0  0  0  0  0  0  0  0  0
  -30.4326   -7.1743   -6.1955 C   0  0  0  0  0  0  0  0  0  0  0  0
  -29.3097   -7.9902   -5.6145 C   0  0  0  0  0  0  0  0  0  0  0  0
  -28.2507   -7.4007   -5.0238 C   0  0  0  0  0  0  0  0  0  0  0  0
  -27.2196   -8.3297   -4.4829 C   0  0  0  0  0  0  0  0  0  0  0  0
  -27.2453   -9.6270   -4.5473 N   0  0  0  0  0  0  0  0  0  0  0  0
  -28.3294  -10.1689   -5.1833 C   0  0  0  0  0  0  0  0  0  0  0  0
  -28.6683  -11.4730   -5.4605 C   0  0  0  0  0  0  0  0  0  0  0  0
  -29.8914  -11.3960   -6.1400 C   0  0  0  0  0  0  0  0  0  0  0  0
  -30.3279  -10.1457   -6.2825 N   0  0  0  0  0  0  0  0  0  0  0  0
  -29.3617   -9.3811   -5.7090 N   0  0  0  0  0  0  0  0  0  0  0  0
  -28.0340   -5.9228   -4.9292 C   0  0  0  0  0  0  0  0  0  0  0  0
  -27.2339   -1.8039  -11.6768 N   0  0  0  0  0  0  0  0  0  0  0  0
  -27.1283   -1.9390  -10.3026 C   0  0  0  0  0  0  0  0  0  0  0  0
  -26.0993   -1.7419   -9.6545 O   0  0  0  0  0  0  0  0  0  0  0  0
  -28.3029   -2.3645   -9.6961 N   0  0  0  0  0  0  0  0  0  0  0  0
  -28.1627   -1.8525  -12.0761 H   0  0  0  0  0  0  0  0  0  0  0  0
  -28.8447   -3.0218  -10.2354 H   0  0  0  0  0  0  0  0  0  0  0  0
  -22.6045   -0.0593  -12.3833 C   0  0  0  0  0  0  0  0  0  0  0  0
  -23.8984   -0.6080  -12.9126 C   0  0  0  0  0  0  0  0  0  0  0  0
  -24.0435   -0.7819  -14.2928 C   0  0  0  0  0  0  0  0  0  0  0  0
  -25.2238   -1.2911  -14.8101 C   0  0  0  0  0  0  0  0  0  0  0  0
  -26.2722   -1.6291  -13.9516 C   0  0  0  0  0  0  0  0  0  0  0  0
  -26.1670   -1.4716  -12.5651 C   0  0  0  0  0  0  0  0  0  0  0  0
  -24.9643   -0.9561  -12.0519 C   0  0  0  0  0  0  0  0  0  0  0  0
 26 27  1  0  0  0
 27 28  1  0  0  0
 27 32  2  0  0  0
 28 29  2  0  0  0
 29 30  1  0  0  0
 30 31  2  0  0  0
 31 20  1  0  0  0
 31 32  1  0  0  0
 20 21  1  0  0  0
 20 24  1  0  0  0
 21 22  2  0  0  0
 21 23  1  0  0  0
 23  1  1  0  0  0
 23 25  1  0  0  0
  1  2  1  0  0  0
  1  6  2  0  0  0
  2  3  2  0  0  0
  3  4  1  0  0  0
  4  5  2  0  0  0
  5  7  1  0  0  0
  5  6  1  0  0  0
  7  8  1  0  0  0
  7 19  1  0  0  0
  8  9  1  0  0  0
  9 10  1  0  0  0
 10 11  2  0  0  0
 10 18  1  0  0  0
 11 12  1  0  0  0
 11 19  1  0  0  0
 12 13  2  0  0  0
 13 14  1  0  0  0
 14 15  2  0  0  0
 14 18  1  0  0  0
 15 16  1  0  0  0
 16 17  2  0  0  0
 17 18  1  0  0  0
M  END
> <minimizedAffinity>
-11.12348

$$$$
