CHEMBL3959956


 32 35  0  0  0  0  0  0  0  0999 V2000
  -28.4598   -2.2104   -7.9596 C   0  0  0  0  0  0  0  0  0  0  0  0
  -29.3506   -3.2457   -8.2669 C   0  0  0  0  0  0  0  0  0  0  0  0
  -29.8734   -4.0630   -7.2573 C   0  0  0  0  0  0  0  0  0  0  0  0
  -29.5323   -3.8394   -5.9183 C   0  0  0  0  0  0  0  0  0  0  0  0
  -28.5988   -2.8369   -5.6182 C   0  0  0  0  0  0  0  0  0  0  0  0
  -28.0477   -2.0395   -6.6363 C   0  0  0  0  0  0  0  0  0  0  0  0
  -30.1716   -4.6349   -4.8570 C   0  0  0  0  0  0  0  0  0  0  0  0
  -31.2249   -4.0924   -4.1967 C   0  0  0  0  0  0  0  0  0  0  0  0
  -31.8658   -4.8284   -3.1169 C   0  0  0  0  0  0  0  0  0  0  0  0
  -31.4392   -6.0495   -2.7503 C   0  0  0  0  0  0  0  0  0  0  0  0
  -30.3436   -6.6414   -3.4309 C   0  0  0  0  0  0  0  0  0  0  0  0
  -29.7488   -7.8019   -3.2737 N   0  0  0  0  0  0  0  0  0  0  0  0
  -28.7392   -7.8793   -4.1974 N   0  0  0  0  0  0  0  0  0  0  0  0
  -28.7176   -6.7640   -4.8968 C   0  0  0  0  0  0  0  0  0  0  0  0
  -27.8505   -6.4777   -5.8876 N   0  0  0  0  0  0  0  0  0  0  0  0
  -29.7361   -5.9205   -4.4607 N   0  0  0  0  0  0  0  0  0  0  0  0
  -27.0457   -7.0944   -5.9571 H   0  0  0  0  0  0  0  0  0  0  0  0
  -27.6179   -5.5147   -6.1235 H   0  0  0  0  0  0  0  0  0  0  0  0
  -26.7871   -0.7766  -10.8588 N   0  0  0  0  0  0  0  0  0  0  0  0
  -27.1292   -1.7551   -9.9349 C   0  0  0  0  0  0  0  0  0  0  0  0
  -26.7700   -2.9260   -9.9711 O   0  0  0  0  0  0  0  0  0  0  0  0
  -28.0260   -1.2974   -8.9646 N   0  0  0  0  0  0  0  0  0  0  0  0
  -27.2564    0.1121  -10.7810 H   0  0  0  0  0  0  0  0  0  0  0  0
  -28.7369   -0.6811   -9.3296 H   0  0  0  0  0  0  0  0  0  0  0  0
  -22.3593    0.0498  -12.9744 C   0  0  0  0  0  0  0  0  0  0  0  0
  -23.7472   -0.5248  -13.0331 C   0  0  0  0  0  0  0  0  0  0  0  0
  -24.1713   -1.1664  -14.2003 C   0  0  0  0  0  0  0  0  0  0  0  0
  -25.4392   -1.7276  -14.2590 C   0  0  0  0  0  0  0  0  0  0  0  0
  -26.2980   -1.6425  -13.1642 C   0  0  0  0  0  0  0  0  0  0  0  0
  -27.4420   -2.3271  -13.2727 F   0  0  0  0  0  0  0  0  0  0  0  0
  -25.9353   -0.9609  -11.9918 C   0  0  0  0  0  0  0  0  0  0  0  0
  -24.6313   -0.4262  -11.9344 C   0  0  0  0  0  0  0  0  0  0  0  0
 25 26  1  0  0  0
 26 27  1  0  0  0
 26 32  2  0  0  0
 27 28  2  0  0  0
 28 29  1  0  0  0
 29 30  1  0  0  0
 29 31  2  0  0  0
 31 19  1  0  0  0
 31 32  1  0  0  0
 19 20  1  0  0  0
 19 23  1  0  0  0
 20 21  2  0  0  0
 20 22  1  0  0  0
 22  1  1  0  0  0
 22 24  1  0  0  0
  1  2  1  0  0  0
  1  6  2  0  0  0
  2  3  2  0  0  0
  3  4  1  0  0  0
  4  7  1  0  0  0
  4  5  2  0  0  0
  7  8  2  0  0  0
  7 16  1  0  0  0
  8  9  1  0  0  0
  9 10  2  0  0  0
 10 11  1  0  0  0
 11 12  2  0  0  0
 11 16  1  0  0  0
 12 13  1  0  0  0
 13 14  2  0  0  0
 14 15  1  0  0  0
 14 16  1  0  0  0
 15 17  1  0  0  0
 15 18  1  0  0  0
  5  6  1  0  0  0
M  END
> <minimizedAffinity>
-9.80960

$$$$
