CHEMBL3909603


 34 37  0  0  0  0  0  0  0  0999 V2000
  -28.7224   -5.6334   -7.4762 C   0  0  0  0  0  0  0  0  0  0  0  0
  -28.3901   -4.5356   -8.2771 C   0  0  0  0  0  0  0  0  0  0  0  0
  -28.2235   -3.2420   -7.7229 C   0  0  0  0  0  0  0  0  0  0  0  0
  -28.0039   -2.0686   -8.4623 C   0  0  0  0  0  0  0  0  0  0  0  0
  -27.7992   -0.8724   -7.8796 N   0  0  0  0  0  0  0  0  0  0  0  0
  -27.8384   -0.8477   -6.5453 C   0  0  0  0  0  0  0  0  0  0  0  0
  -28.0533   -1.8954   -5.7452 N   0  0  0  0  0  0  0  0  0  0  0  0
  -28.2422   -3.0748   -6.3417 C   0  0  0  0  0  0  0  0  0  0  0  0
  -28.4895   -4.1837   -5.5544 C   0  0  0  0  0  0  0  0  0  0  0  0
  -28.7778   -5.4555   -6.0854 C   0  0  0  0  0  0  0  0  0  0  0  0
  -27.9807   -7.5119   -8.7569 C   0  0  0  0  0  0  0  0  0  0  0  0
  -28.9950   -6.8786   -7.9786 O   0  0  0  0  0  0  0  0  0  0  0  0
  -28.0456   -2.1335   -9.8713 N   0  0  0  0  0  0  0  0  0  0  0  0
  -28.9984   -2.0221  -10.2183 H   0  0  0  0  0  0  0  0  0  0  0  0
  -27.0577   -1.7193  -10.7809 C   0  0  0  0  0  0  0  0  0  0  0  0
  -25.7410   -1.4768  -10.3659 C   0  0  0  0  0  0  0  0  0  0  0  0
  -24.7305   -1.2668  -11.2997 C   0  0  0  0  0  0  0  0  0  0  0  0
  -25.0163   -1.2969  -12.6667 C   0  0  0  0  0  0  0  0  0  0  0  0
  -23.6905   -1.1234  -13.7606 Cl  0  0  0  0  0  0  0  0  0  0  0  0
  -26.3292   -1.4966  -13.1026 C   0  0  0  0  0  0  0  0  0  0  0  0
  -26.7495   -1.5211  -14.7786 Cl  0  0  0  0  0  0  0  0  0  0  0  0
  -27.3323   -1.7126  -12.1563 C   0  0  0  0  0  0  0  0  0  0  0  0
  -28.5984   -1.9434  -12.5518 F   0  0  0  0  0  0  0  0  0  0  0  0
  -29.1534   -6.5303   -5.2965 O   0  0  0  0  0  0  0  0  0  0  0  0
  -28.0500   -7.3311   -4.8391 C   0  0  0  0  0  0  0  0  0  0  0  0
  -28.4378   -8.7687   -4.4187 C   0  0  0  0  0  0  0  0  0  0  0  0
  -27.3470   -9.3174   -3.4675 C   0  0  0  0  0  0  0  0  0  0  0  0
  -26.0573   -9.4241   -4.1716 N   0  0  0  0  0  0  0  0  0  0  0  0
  -25.0159   -9.9296   -3.2743 C   0  0  0  0  0  0  0  0  0  0  0  0
  -26.1709  -10.3182   -5.3506 C   0  0  0  0  0  0  0  0  0  0  0  0
  -27.4171  -10.1018   -6.2290 C   0  0  0  0  0  0  0  0  0  0  0  0
  -27.4178  -10.4529   -7.4087 O   0  0  0  0  0  0  0  0  0  0  0  0
  -28.5638   -9.6704   -5.5704 N   0  0  0  0  0  0  0  0  0  0  0  0
  -29.8669   -9.8321   -6.1818 C   0  0  0  0  0  0  0  0  0  0  0  0
 11 12  1  0  0  0
 12  1  1  0  0  0
  1  2  1  0  0  0
  1 10  2  0  0  0
  2  3  2  0  0  0
  3  4  1  0  0  0
  3  8  1  0  0  0
  4 13  1  0  0  0
  4  5  2  0  0  0
 13 15  1  0  0  0
 13 14  1  0  0  0
 15 16  1  0  0  0
 15 22  2  0  0  0
 16 17  2  0  0  0
 17 18  1  0  0  0
 18 19  1  0  0  0
 18 20  2  0  0  0
 20 21  1  0  0  0
 20 22  1  0  0  0
 22 23  1  0  0  0
  5  6  1  0  0  0
  6  7  2  0  0  0
  7  8  1  0  0  0
  8  9  2  0  0  0
  9 10  1  0  0  0
 10 24  1  0  0  0
 24 25  1  0  0  0
 25 26  1  0  0  0
 26 27  1  0  0  0
 26 33  1  0  0  0
 27 28  1  0  0  0
 28 29  1  0  0  0
 28 30  1  0  0  0
 30 31  1  0  0  0
 31 32  2  0  0  0
 31 33  1  0  0  0
 33 34  1  0  0  0
M  END
> <minimizedAffinity>
-8.77822

$$$$
