CHEMBL204334


 23 26  0  0  0  0  0  0  0  0999 V2000
  -28.9263   -5.4567   -6.9604 C   0  0  0  0  0  0  0  0  0  0  0  0
  -28.6446   -5.1965   -5.6735 C   0  0  0  0  0  0  0  0  0  0  0  0
  -28.4500   -6.1428   -4.5441 C   0  0  0  0  0  0  0  0  0  0  0  0
  -28.2543   -7.3410   -4.5408 O   0  0  0  0  0  0  0  0  0  0  0  0
  -28.4732   -5.3224   -3.4326 N   0  0  0  0  0  0  0  0  0  0  0  0
  -28.4601   -3.9818   -3.7040 N   0  0  0  0  0  0  0  0  0  0  0  0
  -28.5243   -3.8585   -5.0142 C   0  0  0  0  0  0  0  0  0  0  0  0
  -28.3231   -5.6629   -2.4901 H   0  0  0  0  0  0  0  0  0  0  0  0
  -28.2744   -9.5516   -9.6635 C   0  0  0  0  0  0  0  0  0  0  0  0
  -28.8922   -8.5796   -8.7894 N   0  0  0  0  0  0  0  0  0  0  0  0
  -28.2692   -7.4548   -8.3214 C   0  0  0  0  0  0  0  0  0  0  0  0
  -29.1775   -6.7190   -7.5952 C   0  0  0  0  0  0  0  0  0  0  0  0
  -30.3782   -7.5062   -7.5198 C   0  0  0  0  0  0  0  0  0  0  0  0
  -31.6257   -7.3578   -6.8722 C   0  0  0  0  0  0  0  0  0  0  0  0
  -32.6105   -8.3445   -7.0164 C   0  0  0  0  0  0  0  0  0  0  0  0
  -32.3810   -9.4672   -7.8039 C   0  0  0  0  0  0  0  0  0  0  0  0
  -31.1604   -9.6422   -8.4592 C   0  0  0  0  0  0  0  0  0  0  0  0
  -30.1730   -8.6568   -8.2930 C   0  0  0  0  0  0  0  0  0  0  0  0
  -28.4451   -2.5712   -5.6672 C   0  0  0  0  0  0  0  0  0  0  0  0
  -27.6192   -2.2782   -6.6518 N   0  0  0  0  0  0  0  0  0  0  0  0
  -27.7656   -0.9476   -7.0035 C   0  0  0  0  0  0  0  0  0  0  0  0
  -28.7005   -0.2364   -6.2833 C   0  0  0  0  0  0  0  0  0  0  0  0
  -29.4314   -1.2621   -5.1275 S   0  0  0  0  0  0  0  0  0  0  0  0
  9 10  1  0  0  0
 10 11  1  0  0  0
 10 18  1  0  0  0
 11 12  2  0  0  0
 12  1  1  0  0  0
 12 13  1  0  0  0
  1  2  2  0  0  0
  2  3  1  0  0  0
  2  7  1  0  0  0
  3  4  2  0  0  0
  3  5  1  0  0  0
  5  6  1  0  0  0
  5  8  1  0  0  0
  6  7  2  0  0  0
  7 19  1  0  0  0
 19 20  2  0  0  0
 19 23  1  0  0  0
 20 21  1  0  0  0
 21 22  2  0  0  0
 22 23  1  0  0  0
 13 14  1  0  0  0
 13 18  2  0  0  0
 14 15  2  0  0  0
 15 16  1  0  0  0
 16 17  2  0  0  0
 17 18  1  0  0  0
M  END
> <minimizedAffinity>
-8.46808

$$$$
