CHEMBL4072731


 36 40  0  0  0  0  0  0  0  0999 V2000
  -20.7984    1.6844  -13.7454 N   0  0  0  0  0  0  0  0  0  0  0  0
  -19.7714    1.4713  -14.6502 C   0  0  0  0  0  0  0  0  0  0  0  0
  -19.7535    0.5909  -15.5031 O   0  0  0  0  0  0  0  0  0  0  0  0
  -18.7029    2.3407  -14.4725 N   0  0  0  0  0  0  0  0  0  0  0  0
  -20.7851    2.5452  -13.2191 H   0  0  0  0  0  0  0  0  0  0  0  0
  -18.5195    2.5901  -13.5121 H   0  0  0  0  0  0  0  0  0  0  0  0
  -23.1400   -1.8287  -11.2440 C   0  0  0  0  0  0  0  0  0  0  0  0
  -23.2391   -0.8656  -12.4018 C   0  0  0  0  0  0  0  0  0  0  0  0
  -22.1116   -0.0259  -12.5509 C   0  0  0  0  0  0  0  0  0  0  0  0
  -21.9403    0.8553  -13.6133 C   0  0  0  0  0  0  0  0  0  0  0  0
  -22.9513    0.9086  -14.5616 C   0  0  0  0  0  0  0  0  0  0  0  0
  -24.1101    0.1168  -14.4015 C   0  0  0  0  0  0  0  0  0  0  0  0
  -24.3088   -0.7757  -13.3184 C   0  0  0  0  0  0  0  0  0  0  0  0
  -25.5075   -1.4532  -13.1860 N   0  0  0  0  0  0  0  0  0  0  0  0
  -26.2260   -2.0489  -14.3276 C   0  0  0  0  0  0  0  0  0  0  0  0
  -27.7148   -1.6753  -14.2372 C   0  0  0  0  0  0  0  0  0  0  0  0
  -28.2890   -2.1318  -13.0007 O   0  0  0  0  0  0  0  0  0  0  0  0
  -27.6155   -1.5182  -11.8939 C   0  0  0  0  0  0  0  0  0  0  0  0
  -26.1073   -1.8095  -11.8900 C   0  0  0  0  0  0  0  0  0  0  0  0
  -17.5736    2.2190  -15.3240 C   0  0  0  0  0  0  0  0  0  0  0  0
  -16.7761    1.0706  -15.3200 C   0  0  0  0  0  0  0  0  0  0  0  0
  -15.5642    1.0446  -16.0181 C   0  0  0  0  0  0  0  0  0  0  0  0
  -15.1310    2.1426  -16.7834 C   0  0  0  0  0  0  0  0  0  0  0  0
  -16.0202    3.2240  -16.8769 C   0  0  0  0  0  0  0  0  0  0  0  0
  -17.2111    3.2848  -16.1368 C   0  0  0  0  0  0  0  0  0  0  0  0
  -13.8250    2.1264  -17.4781 C   0  0  0  0  0  0  0  0  0  0  0  0
  -13.5764    1.1932  -18.5137 C   0  0  0  0  0  0  0  0  0  0  0  0
  -12.3569    1.1697  -19.1740 C   0  0  0  0  0  0  0  0  0  0  0  0
  -11.3291    1.9954  -18.9272 N   0  0  0  0  0  0  0  0  0  0  0  0
  -11.5829    2.8630  -17.9321 C   0  0  0  0  0  0  0  0  0  0  0  0
  -10.7050    3.7974  -17.4889 N   0  0  0  0  0  0  0  0  0  0  0  0
  -11.1591    4.5386  -16.4717 N   0  0  0  0  0  0  0  0  0  0  0  0
  -12.3897    4.0509  -16.2435 C   0  0  0  0  0  0  0  0  0  0  0  0
  -13.1475    4.6567  -15.1184 C   0  0  0  0  0  0  0  0  0  0  0  0
  -12.7456    3.0011  -17.1646 C   0  0  0  0  0  0  0  0  0  0  0  0
   -9.7706    3.9576  -17.8391 H   0  0  0  0  0  0  0  0  0  0  0  0
  7  8  1  0  0  0
  8  9  1  0  0  0
  8 13  2  0  0  0
  9 10  2  0  0  0
 10  1  1  0  0  0
 10 11  1  0  0  0
  1  2  1  0  0  0
  1  5  1  0  0  0
  2  3  2  0  0  0
  2  4  1  0  0  0
  4 20  1  0  0  0
  4  6  1  0  0  0
 20 21  1  0  0  0
 20 25  2  0  0  0
 21 22  2  0  0  0
 22 23  1  0  0  0
 23 26  1  0  0  0
 23 24  2  0  0  0
 26 27  1  0  0  0
 26 35  2  0  0  0
 27 28  2  0  0  0
 28 29  1  0  0  0
 29 30  2  0  0  0
 30 31  1  0  0  0
 30 35  1  0  0  0
 31 32  1  0  0  0
 31 36  1  0  0  0
 32 33  2  0  0  0
 33 34  1  0  0  0
 33 35  1  0  0  0
 24 25  1  0  0  0
 11 12  2  0  0  0
 12 13  1  0  0  0
 13 14  1  0  0  0
 14 15  1  0  0  0
 14 19  1  0  0  0
 15 16  1  0  0  0
 16 17  1  0  0  0
 17 18  1  0  0  0
 18 19  1  0  0  0
M  END
> <minimizedAffinity>
-8.23261

$$$$
