CHEMBL467983


 32 36  0  0  0  0  0  0  0  0999 V2000
  -29.0298   -6.6474   -5.2153 C   0  0  0  0  0  0  0  0  0  0  0  0
  -27.6945   -6.6858   -4.7723 C   0  0  0  0  0  0  0  0  0  0  0  0
  -27.1423   -7.8745   -4.3077 C   0  0  0  0  0  0  0  0  0  0  0  0
  -27.9209   -9.0230   -4.2633 C   0  0  0  0  0  0  0  0  0  0  0  0
  -29.2145   -9.0081   -4.7857 C   0  0  0  0  0  0  0  0  0  0  0  0
  -29.7742   -7.8457   -5.3360 C   0  0  0  0  0  0  0  0  0  0  0  0
  -30.5121   -4.8908   -4.6605 O   0  0  0  0  0  0  0  0  0  0  0  0
  -29.6797   -5.3341   -5.4534 C   0  0  0  0  0  0  0  0  0  0  0  0
  -29.3061   -4.5387   -6.6102 C   0  0  0  0  0  0  0  0  0  0  0  0
  -28.7554   -5.0290   -7.7799 C   0  0  0  0  0  0  0  0  0  0  0  0
  -28.3986   -3.9515   -8.5453 N   0  0  0  0  0  0  0  0  0  0  0  0
  -28.3681   -2.8353   -7.7413 C   0  0  0  0  0  0  0  0  0  0  0  0
  -27.6692   -1.6320   -7.8647 C   0  0  0  0  0  0  0  0  0  0  0  0
  -27.8981   -0.6663   -6.8793 C   0  0  0  0  0  0  0  0  0  0  0  0
  -28.8778   -0.8570   -5.9048 C   0  0  0  0  0  0  0  0  0  0  0  0
  -29.2151    0.4031   -4.7801 Cl  0  0  0  0  0  0  0  0  0  0  0  0
  -29.5508   -2.0745   -5.7813 C   0  0  0  0  0  0  0  0  0  0  0  0
  -29.1911   -3.1183   -6.6528 C   0  0  0  0  0  0  0  0  0  0  0  0
  -28.0607   -3.9921   -9.4977 H   0  0  0  0  0  0  0  0  0  0  0  0
  -31.0205   -7.8866   -5.9521 N   0  0  0  0  0  0  0  0  0  0  0  0
  -31.8007   -7.5403   -5.3885 H   0  0  0  0  0  0  0  0  0  0  0  0
  -31.2081   -7.8071   -7.3925 C   0  0  0  0  0  0  0  0  0  0  0  0
  -30.3026   -8.7593   -8.1407 C   0  0  0  0  0  0  0  0  0  0  0  0
  -30.6768  -10.1116   -8.2478 C   0  0  0  0  0  0  0  0  0  0  0  0
  -29.8714  -11.0506   -8.9109 C   0  0  0  0  0  0  0  0  0  0  0  0
  -28.6723  -10.6176   -9.4974 C   0  0  0  0  0  0  0  0  0  0  0  0
  -27.6139  -11.2048  -10.2296 C   0  0  0  0  0  0  0  0  0  0  0  0
  -26.6794  -10.3206  -10.5904 N   0  0  0  0  0  0  0  0  0  0  0  0
  -27.1374   -9.1613  -10.0739 N   0  0  0  0  0  0  0  0  0  0  0  0
  -28.3244   -9.2744   -9.4098 C   0  0  0  0  0  0  0  0  0  0  0  0
  -29.0996   -8.3233   -8.7344 C   0  0  0  0  0  0  0  0  0  0  0  0
  -26.5992   -8.3234  -10.2289 H   0  0  0  0  0  0  0  0  0  0  0  0
  7  8  2  0  0  0
  8  1  1  0  0  0
  8  9  1  0  0  0
  1  2  1  0  0  0
  1  6  2  0  0  0
  2  3  2  0  0  0
  3  4  1  0  0  0
  4  5  2  0  0  0
  5  6  1  0  0  0
  6 20  1  0  0  0
 20 22  1  0  0  0
 20 21  1  0  0  0
 22 23  1  0  0  0
 23 24  1  0  0  0
 23 31  2  0  0  0
 24 25  2  0  0  0
 25 26  1  0  0  0
 26 27  1  0  0  0
 26 30  2  0  0  0
 27 28  2  0  0  0
 28 29  1  0  0  0
 29 30  1  0  0  0
 29 32  1  0  0  0
 30 31  1  0  0  0
  9 10  2  0  0  0
  9 18  1  0  0  0
 10 11  1  0  0  0
 11 12  1  0  0  0
 11 19  1  0  0  0
 12 13  1  0  0  0
 12 18  2  0  0  0
 13 14  2  0  0  0
 14 15  1  0  0  0
 15 16  1  0  0  0
 15 17  2  0  0  0
 17 18  1  0  0  0
M  END
> <minimizedAffinity>
-8.91725

$$$$
