CHEMBL3646210


 41 45  0  0  0  0  0  0  0  0999 V2000
  -22.0246    0.2000  -14.1412 C   0  0  0  0  0  0  0  0  0  0  0  0
  -21.2002   -0.8344  -14.5349 C   0  0  0  0  0  0  0  0  0  0  0  0
  -19.7256   -0.3149  -15.1576 S   0  0  0  0  0  0  0  0  0  0  0  0
  -20.0869    1.3553  -14.8826 C   0  0  0  0  0  0  0  0  0  0  0  0
  -19.2574    2.4631  -15.1626 C   0  0  0  0  0  0  0  0  0  0  0  0
  -19.8019    3.7010  -14.8790 C   0  0  0  0  0  0  0  0  0  0  0  0
  -21.0233    3.8964  -14.3496 N   0  0  0  0  0  0  0  0  0  0  0  0
  -21.8099    2.8408  -14.0551 C   0  0  0  0  0  0  0  0  0  0  0  0
  -23.0169    3.1955  -13.4643 N   0  0  0  0  0  0  0  0  0  0  0  0
  -21.3787    1.5096  -14.3301 C   0  0  0  0  0  0  0  0  0  0  0  0
  -22.9793    4.1761  -13.2049 H   0  0  0  0  0  0  0  0  0  0  0  0
  -23.3016    2.5700  -12.7210 H   0  0  0  0  0  0  0  0  0  0  0  0
  -25.7945   -0.9722  -12.4845 C   0  0  0  0  0  0  0  0  0  0  0  0
  -25.4035   -1.4255  -13.7454 C   0  0  0  0  0  0  0  0  0  0  0  0
  -24.1825   -1.0304  -14.2878 C   0  0  0  0  0  0  0  0  0  0  0  0
  -23.3477   -0.1384  -13.5986 C   0  0  0  0  0  0  0  0  0  0  0  0
  -23.8153    0.4117  -12.3993 C   0  0  0  0  0  0  0  0  0  0  0  0
  -25.0243   -0.0134  -11.8325 C   0  0  0  0  0  0  0  0  0  0  0  0
  -28.0171   -2.3465   -9.9805 N   0  0  0  0  0  0  0  0  0  0  0  0
  -26.8428   -1.8100  -10.4661 C   0  0  0  0  0  0  0  0  0  0  0  0
  -25.8489   -1.5587   -9.7966 O   0  0  0  0  0  0  0  0  0  0  0  0
  -26.9200   -1.5273  -11.8317 N   0  0  0  0  0  0  0  0  0  0  0  0
  -28.6795   -2.6878  -10.6592 H   0  0  0  0  0  0  0  0  0  0  0  0
  -27.8260   -1.2064  -12.1417 H   0  0  0  0  0  0  0  0  0  0  0  0
  -27.6316   -0.9451   -5.2514 C   0  0  0  0  0  0  0  0  0  0  0  0
  -28.0953   -1.9303   -6.2827 C   0  0  0  0  0  0  0  0  0  0  0  0
  -28.7825   -3.0832   -5.8857 C   0  0  0  0  0  0  0  0  0  0  0  0
  -29.2134   -3.9995   -6.8356 C   0  0  0  0  0  0  0  0  0  0  0  0
  -28.9634   -3.7719   -8.1868 C   0  0  0  0  0  0  0  0  0  0  0  0
  -28.2902   -2.6228   -8.6173 C   0  0  0  0  0  0  0  0  0  0  0  0
  -27.8542   -1.7058   -7.6504 C   0  0  0  0  0  0  0  0  0  0  0  0
  -17.9217    2.3020  -15.7051 C   0  0  0  0  0  0  0  0  0  0  0  0
  -17.0256    1.2080  -15.6583 C   0  0  0  0  0  0  0  0  0  0  0  0
  -15.8839    1.4426  -16.3064 N   0  0  0  0  0  0  0  0  0  0  0  0
  -16.0264    2.7039  -16.7516 N   0  0  0  0  0  0  0  0  0  0  0  0
  -17.2217    3.2691  -16.4012 C   0  0  0  0  0  0  0  0  0  0  0  0
  -14.9081    3.3465  -17.4006 C   0  0  0  0  0  0  0  0  0  0  0  0
  -15.0683    4.8478  -17.6497 C   0  0  0  0  0  0  0  0  0  0  0  0
  -14.8665    5.2804  -19.0973 C   0  0  0  0  0  0  0  0  0  0  0  0
  -14.1091    5.5444  -16.8397 O   0  0  0  0  0  0  0  0  0  0  0  0
  -13.2290    5.4129  -17.2308 H   0  0  0  0  0  0  0  0  0  0  0  0
 25 26  1  0  0  0
 26 27  1  0  0  0
 26 31  2  0  0  0
 27 28  2  0  0  0
 28 29  1  0  0  0
 29 30  2  0  0  0
 30 19  1  0  0  0
 30 31  1  0  0  0
 19 20  1  0  0  0
 19 23  1  0  0  0
 20 21  2  0  0  0
 20 22  1  0  0  0
 22 13  1  0  0  0
 22 24  1  0  0  0
 13 14  1  0  0  0
 13 18  2  0  0  0
 14 15  2  0  0  0
 15 16  1  0  0  0
 16  1  1  0  0  0
 16 17  2  0  0  0
  1  2  2  0  0  0
  1 10  1  0  0  0
  2  3  1  0  0  0
  3  4  1  0  0  0
  4  5  1  0  0  0
  4 10  2  0  0  0
  5 32  1  0  0  0
  5  6  2  0  0  0
 32 33  1  0  0  0
 32 36  2  0  0  0
 33 34  2  0  0  0
 34 35  1  0  0  0
 35 37  1  0  0  0
 35 36  1  0  0  0
 38 40  1  0  0  0
 38 39  1  0  0  0
 38 37  1  0  0  0
 40 41  1  0  0  0
  6  7  1  0  0  0
  7  8  2  0  0  0
  8  9  1  0  0  0
  8 10  1  0  0  0
  9 11  1  0  0  0
  9 12  1  0  0  0
 17 18  1  0  0  0
M  END
> <minimizedAffinity>
-10.51685

$$$$
