CHEMBL4063920


 42 46  0  0  0  0  0  0  0  0999 V2000
  -14.7382   -2.7490  -13.9186 N   0  0  0  0  0  0  0  0  0  0  0  0
  -13.8003   -2.0216  -13.2057 C   0  0  0  0  0  0  0  0  0  0  0  0
  -13.3172   -2.2711  -12.1067 O   0  0  0  0  0  0  0  0  0  0  0  0
  -15.0330   -2.3533  -14.8055 H   0  0  0  0  0  0  0  0  0  0  0  0
  -14.6217   -6.2939  -12.8071 C   0  0  0  0  0  0  0  0  0  0  0  0
  -15.9921   -6.4946  -12.5980 C   0  0  0  0  0  0  0  0  0  0  0  0
  -16.9496   -5.5760  -13.0214 C   0  0  0  0  0  0  0  0  0  0  0  0
  -16.5511   -4.3512  -13.5333 C   0  0  0  0  0  0  0  0  0  0  0  0
  -15.2016   -4.0434  -13.6109 C   0  0  0  0  0  0  0  0  0  0  0  0
  -14.2454   -5.0323  -13.3139 C   0  0  0  0  0  0  0  0  0  0  0  0
  -12.8756   -4.9499  -10.2037 N   0  0  0  0  0  0  0  0  0  0  0  0
  -12.2297   -6.0933  -10.4779 C   0  0  0  0  0  0  0  0  0  0  0  0
  -11.1118   -6.3911   -9.8236 N   0  0  0  0  0  0  0  0  0  0  0  0
  -10.7765   -7.5907  -10.2989 N   0  0  0  0  0  0  0  0  0  0  0  0
  -11.6392   -8.0910  -11.2350 C   0  0  0  0  0  0  0  0  0  0  0  0
  -11.6118   -9.3144  -11.9072 C   0  0  0  0  0  0  0  0  0  0  0  0
  -12.6205   -9.5519  -12.8304 C   0  0  0  0  0  0  0  0  0  0  0  0
  -13.5887   -8.5821  -13.0892 C   0  0  0  0  0  0  0  0  0  0  0  0
  -13.6190   -7.3247  -12.4271 C   0  0  0  0  0  0  0  0  0  0  0  0
  -12.6105   -7.1026  -11.4321 C   0  0  0  0  0  0  0  0  0  0  0  0
  -12.5267   -4.4224   -9.4116 H   0  0  0  0  0  0  0  0  0  0  0  0
  -13.8812   -4.8951  -10.3161 H   0  0  0  0  0  0  0  0  0  0  0  0
   -9.9379   -8.0294   -9.9384 H   0  0  0  0  0  0  0  0  0  0  0  0
  -13.3752   -0.7759  -13.8882 C   0  0  0  0  0  0  0  0  0  0  0  0
  -12.4046   -0.9028  -15.0709 C   0  0  0  0  0  0  0  0  0  0  0  0
  -11.9086   -0.3578  -13.7691 C   0  0  0  0  0  0  0  0  0  0  0  0
  -14.4335    0.2691  -13.9656 C   0  0  0  0  0  0  0  0  0  0  0  0
  -14.6219    0.9968  -13.0026 O   0  0  0  0  0  0  0  0  0  0  0  0
  -15.1180    0.3019  -15.1710 N   0  0  0  0  0  0  0  0  0  0  0  0
  -15.0099   -0.4985  -15.7861 H   0  0  0  0  0  0  0  0  0  0  0  0
  -16.1986    1.1830  -15.3739 C   0  0  0  0  0  0  0  0  0  0  0  0
  -17.5018    0.7357  -15.0979 C   0  0  0  0  0  0  0  0  0  0  0  0
  -18.5902    1.5937  -15.2404 C   0  0  0  0  0  0  0  0  0  0  0  0
  -20.3322    0.9796  -14.8380 Br  0  0  0  0  0  0  0  0  0  0  0  0
  -18.3987    2.9041  -15.6612 C   0  0  0  0  0  0  0  0  0  0  0  0
  -17.1061    3.3552  -15.9342 C   0  0  0  0  0  0  0  0  0  0  0  0
  -15.9999    2.5021  -15.8049 C   0  0  0  0  0  0  0  0  0  0  0  0
  -14.8081    3.0933  -16.1024 O   0  0  0  0  0  0  0  0  0  0  0  0
  -14.3707    3.1331  -17.4534 C   0  0  0  0  0  0  0  0  0  0  0  0
  -15.0233    4.0181  -18.2315 F   0  0  0  0  0  0  0  0  0  0  0  0
  -13.0583    3.4497  -17.4850 F   0  0  0  0  0  0  0  0  0  0  0  0
  -14.5234    1.8999  -17.9867 F   0  0  0  0  0  0  0  0  0  0  0  0
 11 12  1  0  0  0
 11 21  1  0  0  0
 11 22  1  0  0  0
 12 13  2  0  0  0
 12 20  1  0  0  0
 13 14  1  0  0  0
 14 15  1  0  0  0
 14 23  1  0  0  0
 15 16  1  0  0  0
 15 20  2  0  0  0
 16 17  2  0  0  0
 17 18  1  0  0  0
 18 19  2  0  0  0
 19  5  1  0  0  0
 19 20  1  0  0  0
  5  6  1  0  0  0
  5 10  2  0  0  0
  6  7  2  0  0  0
  7  8  1  0  0  0
  8  9  2  0  0  0
  9  1  1  0  0  0
  9 10  1  0  0  0
  1  2  1  0  0  0
  1  4  1  0  0  0
  2  3  2  0  0  0
  2 24  1  0  0  0
 24 27  1  0  0  0
 24 25  1  0  0  0
 24 26  1  0  0  0
 27 28  2  0  0  0
 27 29  1  0  0  0
 29 31  1  0  0  0
 29 30  1  0  0  0
 31 32  1  0  0  0
 31 37  2  0  0  0
 32 33  2  0  0  0
 33 34  1  0  0  0
 33 35  1  0  0  0
 35 36  2  0  0  0
 36 37  1  0  0  0
 37 38  1  0  0  0
 38 39  1  0  0  0
 39 40  1  0  0  0
 39 41  1  0  0  0
 39 42  1  0  0  0
 25 26  1  0  0  0
M  END
> <minimizedAffinity>
-9.61806

$$$$
