CHEMBL2007151


 38 43  0  0  0  0  0  0  0  0999 V2000
  -28.7217   -5.6651   -8.0291 C   0  0  0  0  0  0  0  0  0  0  0  0
  -29.2128   -4.9934   -6.7942 C   0  0  0  0  0  0  0  0  0  0  0  0
  -29.1187   -3.6522   -6.3996 C   0  0  0  0  0  0  0  0  0  0  0  0
  -29.7627   -3.5262   -5.1376 C   0  0  0  0  0  0  0  0  0  0  0  0
  -30.0392   -2.4713   -4.2503 C   0  0  0  0  0  0  0  0  0  0  0  0
  -29.7402   -1.1454   -4.4764 N   0  0  0  0  0  0  0  0  0  0  0  0
  -30.6673   -2.7268   -3.0973 N   0  0  0  0  0  0  0  0  0  0  0  0
  -31.0400   -4.0013   -2.8660 C   0  0  0  0  0  0  0  0  0  0  0  0
  -30.8565   -5.0863   -3.6347 N   0  0  0  0  0  0  0  0  0  0  0  0
  -30.1993   -4.7849   -4.7768 C   0  0  0  0  0  0  0  0  0  0  0  0
  -29.8844   -5.6726   -5.7887 N   0  0  0  0  0  0  0  0  0  0  0  0
  -29.3436   -0.8118   -5.3473 H   0  0  0  0  0  0  0  0  0  0  0  0
  -29.8272   -0.4685   -3.7439 H   0  0  0  0  0  0  0  0  0  0  0  0
  -28.4605   -2.6454   -7.1821 C   0  0  0  0  0  0  0  0  0  0  0  0
  -28.0810   -1.4049   -6.6337 C   0  0  0  0  0  0  0  0  0  0  0  0
  -27.4792   -0.4400   -7.4032 C   0  0  0  0  0  0  0  0  0  0  0  0
  -27.0999   -0.7198   -8.7132 C   0  0  0  0  0  0  0  0  0  0  0  0
  -27.4178   -1.9801   -9.2564 C   0  0  0  0  0  0  0  0  0  0  0  0
  -28.1154   -2.8541   -8.5017 C   0  0  0  0  0  0  0  0  0  0  0  0
  -27.0268   -2.3227  -10.5314 O   0  0  0  0  0  0  0  0  0  0  0  0
  -27.0781   -1.2271  -11.4547 C   0  0  0  0  0  0  0  0  0  0  0  0
  -25.7867   -1.0881  -12.2149 C   0  0  0  0  0  0  0  0  0  0  0  0
  -25.6845   -1.4831  -13.5513 C   0  0  0  0  0  0  0  0  0  0  0  0
  -24.4986   -1.2878  -14.2496 C   0  0  0  0  0  0  0  0  0  0  0  0
  -23.4086   -0.6861  -13.6227 C   0  0  0  0  0  0  0  0  0  0  0  0
  -23.5016   -0.2889  -12.2905 C   0  0  0  0  0  0  0  0  0  0  0  0
  -24.6845   -0.4849  -11.5870 C   0  0  0  0  0  0  0  0  0  0  0  0
  -30.2780   -7.0893   -5.8640 C   0  0  0  0  0  0  0  0  0  0  0  0
  -29.0915   -8.0439   -5.6688 C   0  0  0  0  0  0  0  0  0  0  0  0
  -29.5454   -9.5109   -5.6006 C   0  0  0  0  0  0  0  0  0  0  0  0
  -30.3795   -9.9218   -6.8320 C   0  0  0  0  0  0  0  0  0  0  0  0
  -31.5417   -8.9267   -7.0501 C   0  0  0  0  0  0  0  0  0  0  0  0
  -31.0880   -7.4625   -7.1112 C   0  0  0  0  0  0  0  0  0  0  0  0
  -30.9411  -11.2772   -6.8049 N   0  0  0  0  0  0  0  0  0  0  0  0
  -30.8675  -12.1032   -8.0030 C   0  0  0  0  0  0  0  0  0  0  0  0
  -32.3088  -12.3785   -8.3820 C   0  0  0  0  0  0  0  0  0  0  0  0
  -32.9998  -12.4659   -7.0374 C   0  0  0  0  0  0  0  0  0  0  0  0
  -32.2383  -11.4760   -6.1594 C   0  0  0  0  0  0  0  0  0  0  0  0
  1  2  1  0  0  0
  2  3  2  0  0  0
  2 11  1  0  0  0
  3 14  1  0  0  0
  3  4  1  0  0  0
 14 15  1  0  0  0
 14 19  2  0  0  0
 15 16  2  0  0  0
 16 17  1  0  0  0
 17 18  2  0  0  0
 18 20  1  0  0  0
 18 19  1  0  0  0
 20 21  1  0  0  0
 21 22  1  0  0  0
 22 23  1  0  0  0
 22 27  2  0  0  0
 23 24  2  0  0  0
 24 25  1  0  0  0
 25 26  2  0  0  0
 26 27  1  0  0  0
  4  5  1  0  0  0
  4 10  2  0  0  0
  5  6  1  0  0  0
  5  7  2  0  0  0
  6 12  1  0  0  0
  6 13  1  0  0  0
  7  8  1  0  0  0
  8  9  2  0  0  0
  9 10  1  0  0  0
 10 11  1  0  0  0
 11 28  1  0  0  0
 28 29  1  0  0  0
 28 33  1  0  0  0
 29 30  1  0  0  0
 30 31  1  0  0  0
 31 34  1  0  0  0
 31 32  1  0  0  0
 34 35  1  0  0  0
 34 38  1  0  0  0
 35 36  1  0  0  0
 36 37  1  0  0  0
 37 38  1  0  0  0
 32 33  1  0  0  0
M  END
> <minimizedAffinity>
-9.71043

$$$$
