CHEMBL354070


 20 23  0  0  0  0  0  0  0  0999 V2000
  -29.2071   -3.5013   -5.6921 C   0  0  0  0  0  0  0  0  0  0  0  0
  -29.9333   -3.9438   -6.8809 C   0  0  0  0  0  0  0  0  0  0  0  0
  -30.2426   -5.2419   -7.0267 C   0  0  0  0  0  0  0  0  0  0  0  0
  -29.8468   -6.1637   -6.0531 N   0  0  0  0  0  0  0  0  0  0  0  0
  -30.0259   -7.5385   -5.9664 C   0  0  0  0  0  0  0  0  0  0  0  0
  -29.4570   -7.8824   -4.7511 C   0  0  0  0  0  0  0  0  0  0  0  0
  -28.9175   -6.7990   -4.1105 N   0  0  0  0  0  0  0  0  0  0  0  0
  -29.1575   -5.7789   -4.9026 C   0  0  0  0  0  0  0  0  0  0  0  0
  -28.8410   -4.3964   -4.7488 C   0  0  0  0  0  0  0  0  0  0  0  0
  -28.2640    0.6224   -5.1160 C   0  0  0  0  0  0  0  0  0  0  0  0
  -27.2528   -0.3364   -5.0602 C   0  0  0  0  0  0  0  0  0  0  0  0
  -27.5587   -1.6869   -5.2388 C   0  0  0  0  0  0  0  0  0  0  0  0
  -28.8810   -2.0834   -5.4703 C   0  0  0  0  0  0  0  0  0  0  0  0
  -29.8922   -1.1154   -5.5234 C   0  0  0  0  0  0  0  0  0  0  0  0
  -29.5830    0.2338   -5.3461 C   0  0  0  0  0  0  0  0  0  0  0  0
  -30.6702   -8.3846   -6.9325 C   0  0  0  0  0  0  0  0  0  0  0  0
  -32.0146   -8.5225   -7.2333 C   0  0  0  0  0  0  0  0  0  0  0  0
  -32.3355   -9.4396   -8.2165 N   0  0  0  0  0  0  0  0  0  0  0  0
  -31.2282   -9.9663   -8.6873 C   0  0  0  0  0  0  0  0  0  0  0  0
  -29.7697   -9.4167   -7.9797 S   0  0  0  0  0  0  0  0  0  0  0  0
 10 11  1  0  0  0
 10 15  2  0  0  0
 11 12  2  0  0  0
 12 13  1  0  0  0
 13  1  1  0  0  0
 13 14  2  0  0  0
  1  2  1  0  0  0
  1  9  2  0  0  0
  2  3  2  0  0  0
  3  4  1  0  0  0
  4  5  1  0  0  0
  4  8  1  0  0  0
  5 16  1  0  0  0
  5  6  2  0  0  0
 16 17  2  0  0  0
 16 20  1  0  0  0
 17 18  1  0  0  0
 18 19  2  0  0  0
 19 20  1  0  0  0
  6  7  1  0  0  0
  7  8  2  0  0  0
  8  9  1  0  0  0
 14 15  1  0  0  0
M  END
> <minimizedAffinity>
-7.85847

$$$$
