CHEMBL203063


 27 30  0  0  0  0  0  0  0  0999 V2000
  -28.2845   -2.1193   -7.1776 C   0  0  0  0  0  0  0  0  0  0  0  0
  -27.5915   -1.1523   -6.4148 C   0  0  0  0  0  0  0  0  0  0  0  0
  -28.0694   -0.7173   -5.1798 C   0  0  0  0  0  0  0  0  0  0  0  0
  -29.2519   -1.2392   -4.6793 C   0  0  0  0  0  0  0  0  0  0  0  0
  -29.9315   -2.2281   -5.3912 C   0  0  0  0  0  0  0  0  0  0  0  0
  -29.4488   -2.7178   -6.6288 C   0  0  0  0  0  0  0  0  0  0  0  0
  -27.3367   -3.6585   -8.6982 O   0  0  0  0  0  0  0  0  0  0  0  0
  -27.7006   -2.5052   -8.5154 C   0  0  0  0  0  0  0  0  0  0  0  0
  -27.6279   -1.4840   -9.4585 N   0  0  0  0  0  0  0  0  0  0  0  0
  -28.0626   -0.6015   -9.2273 H   0  0  0  0  0  0  0  0  0  0  0  0
  -27.0964   -1.5498  -10.7671 C   0  0  0  0  0  0  0  0  0  0  0  0
  -27.8468   -1.8675  -11.9002 C   0  0  0  0  0  0  0  0  0  0  0  0
  -27.2684   -1.8201  -13.1743 C   0  0  0  0  0  0  0  0  0  0  0  0
  -25.9276   -1.4767  -13.3179 C   0  0  0  0  0  0  0  0  0  0  0  0
  -25.1709   -1.3378  -15.0438 Br  0  0  0  0  0  0  0  0  0  0  0  0
  -25.1486   -1.2156  -12.1952 C   0  0  0  0  0  0  0  0  0  0  0  0
  -25.7332   -1.2524  -10.9241 C   0  0  0  0  0  0  0  0  0  0  0  0
  -30.1713   -3.9249   -7.2011 C   0  0  0  0  0  0  0  0  0  0  0  0
  -29.7435   -5.2200   -6.6680 N   0  0  0  0  0  0  0  0  0  0  0  0
  -28.7658   -5.9968   -7.2446 C   0  0  0  0  0  0  0  0  0  0  0  0
  -28.4453   -7.0084   -6.3703 C   0  0  0  0  0  0  0  0  0  0  0  0
  -29.2380   -6.8423   -5.2048 C   0  0  0  0  0  0  0  0  0  0  0  0
  -29.3130   -7.5244   -3.9811 C   0  0  0  0  0  0  0  0  0  0  0  0
  -30.1764   -7.1244   -3.0160 N   0  0  0  0  0  0  0  0  0  0  0  0
  -30.9563   -6.0514   -3.2531 C   0  0  0  0  0  0  0  0  0  0  0  0
  -30.9571   -5.3082   -4.4254 C   0  0  0  0  0  0  0  0  0  0  0  0
  -30.0604   -5.7278   -5.4162 C   0  0  0  0  0  0  0  0  0  0  0  0
  7  8  2  0  0  0
  8  9  1  0  0  0
  8  1  1  0  0  0
  9 11  1  0  0  0
  9 10  1  0  0  0
 11 12  1  0  0  0
 11 17  2  0  0  0
 12 13  2  0  0  0
 13 14  1  0  0  0
 14 15  1  0  0  0
 14 16  2  0  0  0
 16 17  1  0  0  0
  1  2  1  0  0  0
  1  6  2  0  0  0
  2  3  2  0  0  0
  3  4  1  0  0  0
  4  5  2  0  0  0
  5  6  1  0  0  0
  6 18  1  0  0  0
 18 19  1  0  0  0
 19 20  1  0  0  0
 19 27  1  0  0  0
 20 21  2  0  0  0
 21 22  1  0  0  0
 22 23  1  0  0  0
 22 27  2  0  0  0
 23 24  2  0  0  0
 24 25  1  0  0  0
 25 26  2  0  0  0
 26 27  1  0  0  0
M  END
> <minimizedAffinity>
-9.20465

$$$$
