CHEMBL3590224


 36 40  0  0  0  0  0  0  0  0999 V2000
  -29.4764   -6.8773   -5.4077 C   0  0  0  0  0  0  0  0  0  0  0  0
  -29.4566   -7.5633   -4.2147 C   0  0  0  0  0  0  0  0  0  0  0  0
  -28.6600   -8.6553   -4.4273 N   0  0  0  0  0  0  0  0  0  0  0  0
  -28.3296   -9.6391   -3.4236 C   0  0  0  0  0  0  0  0  0  0  0  0
  -28.2072   -8.6098   -5.7293 C   0  0  0  0  0  0  0  0  0  0  0  0
  -28.6582   -7.5122   -6.3135 N   0  0  0  0  0  0  0  0  0  0  0  0
  -27.3342   -9.5900   -6.3741 C   0  0  0  0  0  0  0  0  0  0  0  0
  -27.7286  -10.2405   -7.5351 C   0  0  0  0  0  0  0  0  0  0  0  0
  -26.9450  -11.1434   -8.1795 N   0  0  0  0  0  0  0  0  0  0  0  0
  -25.7395  -11.3973   -7.6284 C   0  0  0  0  0  0  0  0  0  0  0  0
  -25.0420  -12.4437   -8.2225 N   0  0  0  0  0  0  0  0  0  0  0  0
  -25.3451  -10.7513   -6.4449 C   0  0  0  0  0  0  0  0  0  0  0  0
  -26.1407   -9.8463   -5.7916 N   0  0  0  0  0  0  0  0  0  0  0  0
  -25.4978  -12.6990   -9.0933 H   0  0  0  0  0  0  0  0  0  0  0  0
  -24.0449  -12.2576   -8.3215 H   0  0  0  0  0  0  0  0  0  0  0  0
  -24.0604  -11.0101   -5.9095 N   0  0  0  0  0  0  0  0  0  0  0  0
  -22.9408  -10.9899   -6.6874 N   0  0  0  0  0  0  0  0  0  0  0  0
  -21.8833  -11.1175   -5.8991 N   0  0  0  0  0  0  0  0  0  0  0  0
  -22.3281  -11.2942   -4.6201 C   0  0  0  0  0  0  0  0  0  0  0  0
  -21.6144  -11.5390   -3.4384 C   0  0  0  0  0  0  0  0  0  0  0  0
  -22.3319  -11.7642   -2.2574 C   0  0  0  0  0  0  0  0  0  0  0  0
  -23.7279  -11.7256   -2.2501 C   0  0  0  0  0  0  0  0  0  0  0  0
  -24.4536  -11.4431   -3.4132 C   0  0  0  0  0  0  0  0  0  0  0  0
  -23.7164  -11.2296   -4.5867 C   0  0  0  0  0  0  0  0  0  0  0  0
  -28.0565   -2.1935   -6.7853 C   0  0  0  0  0  0  0  0  0  0  0  0
  -28.0663   -1.8823   -7.9804 O   0  0  0  0  0  0  0  0  0  0  0  0
  -28.3911   -3.4683   -6.3525 N   0  0  0  0  0  0  0  0  0  0  0  0
  -28.5397   -4.5481   -7.3197 C   0  0  0  0  0  0  0  0  0  0  0  0
  -29.9268   -5.1725   -7.2111 C   0  0  0  0  0  0  0  0  0  0  0  0
  -30.2342   -5.6316   -5.7728 C   0  0  0  0  0  0  0  0  0  0  0  0
  -29.9859   -4.4700   -4.7913 C   0  0  0  0  0  0  0  0  0  0  0  0
  -28.5946   -3.8558   -4.9582 C   0  0  0  0  0  0  0  0  0  0  0  0
  -27.6441   -1.1521   -5.7325 C   0  0  0  0  0  0  0  0  0  0  0  0
  -29.9258   -0.3448   -5.5039 C   0  0  0  0  0  0  0  0  0  0  0  0
  -28.5347    0.0331   -5.7704 N   0  0  0  0  0  0  0  0  0  0  0  0
  -28.0876    1.0338   -4.8045 C   0  0  0  0  0  0  0  0  0  0  0  0
 34 35  1  0  0  0
 35 36  1  0  0  0
 35 33  1  0  0  0
 33 25  1  0  0  0
 25 26  2  0  0  0
 25 27  1  0  0  0
 27 28  1  0  0  0
 27 32  1  0  0  0
 28 29  1  0  0  0
 29 30  1  0  0  0
 30  1  1  0  0  0
 30 31  1  0  0  0
  1  2  2  0  0  0
  1  6  1  0  0  0
  2  3  1  0  0  0
  3  4  1  0  0  0
  3  5  1  0  0  0
  5  7  1  0  0  0
  5  6  2  0  0  0
  7  8  1  0  0  0
  7 13  2  0  0  0
  8  9  2  0  0  0
  9 10  1  0  0  0
 10 11  1  0  0  0
 10 12  2  0  0  0
 11 14  1  0  0  0
 11 15  1  0  0  0
 12 16  1  0  0  0
 12 13  1  0  0  0
 16 17  1  0  0  0
 16 24  1  0  0  0
 17 18  2  0  0  0
 18 19  1  0  0  0
 19 20  1  0  0  0
 19 24  2  0  0  0
 20 21  2  0  0  0
 21 22  1  0  0  0
 22 23  2  0  0  0
 23 24  1  0  0  0
 31 32  1  0  0  0
M  END
> <minimizedAffinity>
-8.84918

$$$$
