CHEMBL1083091


 33 37  0  0  0  0  0  0  0  0999 V2000
  -28.9624   -8.1242   -6.0014 C   0  0  0  0  0  0  0  0  0  0  0  0
  -29.7966   -8.2405   -7.1320 C   0  0  0  0  0  0  0  0  0  0  0  0
  -30.1391   -7.0660   -7.6621 N   0  0  0  0  0  0  0  0  0  0  0  0
  -29.5388   -6.1458   -6.8482 N   0  0  0  0  0  0  0  0  0  0  0  0
  -29.5954   -4.7302   -6.9817 C   0  0  0  0  0  0  0  0  0  0  0  0
  -30.3892   -4.2203   -8.0112 N   0  0  0  0  0  0  0  0  0  0  0  0
  -28.8648   -3.9871   -6.1243 C   0  0  0  0  0  0  0  0  0  0  0  0
  -28.1003   -4.7449   -5.0878 C   0  0  0  0  0  0  0  0  0  0  0  0
  -28.0547   -6.0316   -4.9415 N   0  0  0  0  0  0  0  0  0  0  0  0
  -28.7825   -6.7613   -5.8424 C   0  0  0  0  0  0  0  0  0  0  0  0
  -30.5787   -4.9331   -8.7201 H   0  0  0  0  0  0  0  0  0  0  0  0
  -30.0590   -3.3379   -8.3935 H   0  0  0  0  0  0  0  0  0  0  0  0
  -28.7630   -2.5253   -6.1526 C   0  0  0  0  0  0  0  0  0  0  0  0
  -29.4257   -1.7442   -5.1972 C   0  0  0  0  0  0  0  0  0  0  0  0
  -29.2555   -0.3578   -5.1840 C   0  0  0  0  0  0  0  0  0  0  0  0
  -28.4273    0.2385   -6.1297 C   0  0  0  0  0  0  0  0  0  0  0  0
  -28.2133    1.5841   -6.1411 O   0  0  0  0  0  0  0  0  0  0  0  0
  -27.7805   -0.5235   -7.0959 C   0  0  0  0  0  0  0  0  0  0  0  0
  -27.9475   -1.9074   -7.1091 C   0  0  0  0  0  0  0  0  0  0  0  0
  -28.7042    1.9852   -5.4048 H   0  0  0  0  0  0  0  0  0  0  0  0
  -26.4147  -10.2991   -4.2372 C   0  0  0  0  0  0  0  0  0  0  0  0
  -27.2755  -11.0371   -3.4149 C   0  0  0  0  0  0  0  0  0  0  0  0
  -28.6612  -10.8486   -3.4425 C   0  0  0  0  0  0  0  0  0  0  0  0
  -29.2216   -9.9029   -4.2981 C   0  0  0  0  0  0  0  0  0  0  0  0
  -28.3996   -9.1558   -5.1445 C   0  0  0  0  0  0  0  0  0  0  0  0
  -27.0117   -9.3742   -5.1063 C   0  0  0  0  0  0  0  0  0  0  0  0
  -21.2439  -12.3106   -4.3264 C   0  0  0  0  0  0  0  0  0  0  0  0
  -22.2714  -11.2868   -4.1566 N   0  0  0  0  0  0  0  0  0  0  0  0
  -23.0423  -11.1131   -5.4090 C   0  0  0  0  0  0  0  0  0  0  0  0
  -24.1668  -10.0579   -5.2809 C   0  0  0  0  0  0  0  0  0  0  0  0
  -25.0420  -10.4071   -4.1572 N   0  0  0  0  0  0  0  0  0  0  0  0
  -24.3420  -10.6210   -2.8800 C   0  0  0  0  0  0  0  0  0  0  0  0
  -23.2049  -11.6547   -3.0650 C   0  0  0  0  0  0  0  0  0  0  0  0
 27 28  1  0  0  0
 28 29  1  0  0  0
 28 33  1  0  0  0
 29 30  1  0  0  0
 30 31  1  0  0  0
 31 21  1  0  0  0
 31 32  1  0  0  0
 21 22  1  0  0  0
 21 26  2  0  0  0
 22 23  2  0  0  0
 23 24  1  0  0  0
 24 25  2  0  0  0
 25  1  1  0  0  0
 25 26  1  0  0  0
  1  2  1  0  0  0
  1 10  2  0  0  0
  2  3  2  0  0  0
  3  4  1  0  0  0
  4  5  1  0  0  0
  4 10  1  0  0  0
  5  6  1  0  0  0
  5  7  2  0  0  0
  6 11  1  0  0  0
  6 12  1  0  0  0
  7 13  1  0  0  0
  7  8  1  0  0  0
 13 14  1  0  0  0
 13 19  2  0  0  0
 14 15  2  0  0  0
 15 16  1  0  0  0
 16 17  1  0  0  0
 16 18  2  0  0  0
 17 20  1  0  0  0
 18 19  1  0  0  0
  8  9  2  0  0  0
  9 10  1  0  0  0
 32 33  1  0  0  0
M  END
> <minimizedAffinity>
-9.21659

$$$$
