CHEMBL2003817


 26 28  0  0  0  0  0  0  0  0999 V2000
  -30.8365   -7.6383   -6.6715 C   0  0  0  0  0  0  0  0  0  0  0  0
  -32.1899   -7.8786   -6.4650 C   0  0  0  0  0  0  0  0  0  0  0  0
  -32.8267   -8.7777   -7.2929 C   0  0  0  0  0  0  0  0  0  0  0  0
  -32.2167   -9.4457   -8.2905 N   0  0  0  0  0  0  0  0  0  0  0  0
  -30.9067   -9.2418   -8.4768 C   0  0  0  0  0  0  0  0  0  0  0  0
  -30.2871   -9.9500   -9.5000 C   0  0  0  0  0  0  0  0  0  0  0  0
  -28.9144   -9.8478   -9.7697 C   0  0  0  0  0  0  0  0  0  0  0  0
  -28.1414   -9.0078   -8.9670 C   0  0  0  0  0  0  0  0  0  0  0  0
  -28.7435   -8.2694   -7.9444 C   0  0  0  0  0  0  0  0  0  0  0  0
  -30.1411   -8.3544   -7.6892 C   0  0  0  0  0  0  0  0  0  0  0  0
  -29.4450   -7.7681   -4.0238 O   0  0  0  0  0  0  0  0  0  0  0  0
  -29.5708   -6.7454   -4.6926 C   0  0  0  0  0  0  0  0  0  0  0  0
  -29.0086   -5.5877   -4.2138 N   0  0  0  0  0  0  0  0  0  0  0  0
  -30.1550   -6.6540   -5.9259 N   0  0  0  0  0  0  0  0  0  0  0  0
  -28.4694   -5.7275   -3.3709 H   0  0  0  0  0  0  0  0  0  0  0  0
  -30.1147   -5.7215   -6.3235 H   0  0  0  0  0  0  0  0  0  0  0  0
  -29.1185   -4.2960   -4.7407 C   0  0  0  0  0  0  0  0  0  0  0  0
  -29.6108   -3.2653   -3.9471 C   0  0  0  0  0  0  0  0  0  0  0  0
  -29.7354   -1.9878   -4.3893 N   0  0  0  0  0  0  0  0  0  0  0  0
  -29.3760   -1.7822   -5.6751 C   0  0  0  0  0  0  0  0  0  0  0  0
  -28.9020   -2.8010   -6.4780 C   0  0  0  0  0  0  0  0  0  0  0  0
  -28.7383   -4.0639   -6.0211 N   0  0  0  0  0  0  0  0  0  0  0  0
  -28.2833  -10.6283  -10.8945 C   0  0  0  0  0  0  0  0  0  0  0  0
  -28.1647  -11.9610  -10.6411 F   0  0  0  0  0  0  0  0  0  0  0  0
  -28.9958  -10.5322  -12.0524 F   0  0  0  0  0  0  0  0  0  0  0  0
  -27.0291  -10.1910  -11.1930 F   0  0  0  0  0  0  0  0  0  0  0  0
 11 12  2  0  0  0
 12 13  1  0  0  0
 12 14  1  0  0  0
 13 17  1  0  0  0
 13 15  1  0  0  0
 17 18  1  0  0  0
 17 22  2  0  0  0
 18 19  2  0  0  0
 19 20  1  0  0  0
 20 21  2  0  0  0
 21 22  1  0  0  0
 14  1  1  0  0  0
 14 16  1  0  0  0
  1  2  1  0  0  0
  1 10  2  0  0  0
  2  3  2  0  0  0
  3  4  1  0  0  0
  4  5  2  0  0  0
  5  6  1  0  0  0
  5 10  1  0  0  0
  6  7  2  0  0  0
  7 23  1  0  0  0
  7  8  1  0  0  0
 23 24  1  0  0  0
 23 25  1  0  0  0
 23 26  1  0  0  0
  8  9  2  0  0  0
  9 10  1  0  0  0
M  END
> <minimizedAffinity>
-8.11012

$$$$
