CHEMBL1234815


 23 26  0  0  0  0  0  0  0  0999 V2000
  -31.6724   -8.7024   -7.6266 C   0  0  0  0  0  0  0  0  0  0  0  0
  -30.6302   -7.8828   -7.0593 N   0  0  0  0  0  0  0  0  0  0  0  0
  -30.6530   -6.5506   -7.2456 N   0  0  0  0  0  0  0  0  0  0  0  0
  -29.6806   -6.0898   -6.4360 C   0  0  0  0  0  0  0  0  0  0  0  0
  -28.9919   -7.1563   -5.7863 C   0  0  0  0  0  0  0  0  0  0  0  0
  -27.9732   -7.3371   -4.8454 C   0  0  0  0  0  0  0  0  0  0  0  0
  -27.2424   -6.3131   -4.2515 N   0  0  0  0  0  0  0  0  0  0  0  0
  -27.6896   -8.5941   -4.4323 N   0  0  0  0  0  0  0  0  0  0  0  0
  -28.3994   -9.6134   -4.9313 C   0  0  0  0  0  0  0  0  0  0  0  0
  -29.4113   -9.5619   -5.8068 N   0  0  0  0  0  0  0  0  0  0  0  0
  -29.6463   -8.2989   -6.2095 C   0  0  0  0  0  0  0  0  0  0  0  0
  -27.7589   -5.4558   -4.0952 H   0  0  0  0  0  0  0  0  0  0  0  0
  -26.7432   -6.6669   -3.4435 H   0  0  0  0  0  0  0  0  0  0  0  0
  -29.5918   -4.6562   -6.1727 C   0  0  0  0  0  0  0  0  0  0  0  0
  -30.3605   -4.1599   -5.1113 C   0  0  0  0  0  0  0  0  0  0  0  0
  -30.1931   -2.8561   -4.6657 C   0  0  0  0  0  0  0  0  0  0  0  0
  -29.3294   -1.9915   -5.3350 C   0  0  0  0  0  0  0  0  0  0  0  0
  -29.1783   -0.6769   -4.8831 C   0  0  0  0  0  0  0  0  0  0  0  0
  -28.5311    0.2640   -5.6751 C   0  0  0  0  0  0  0  0  0  0  0  0
  -27.9461   -0.1268   -6.8762 C   0  0  0  0  0  0  0  0  0  0  0  0
  -27.9504   -1.4739   -7.2554 C   0  0  0  0  0  0  0  0  0  0  0  0
  -28.6586   -2.4281   -6.5031 C   0  0  0  0  0  0  0  0  0  0  0  0
  -28.7569   -3.7854   -6.8794 C   0  0  0  0  0  0  0  0  0  0  0  0
  1  2  1  0  0  0
  2  3  1  0  0  0
  2 11  1  0  0  0
  3  4  2  0  0  0
  4 14  1  0  0  0
  4  5  1  0  0  0
 14 15  1  0  0  0
 14 23  2  0  0  0
 15 16  2  0  0  0
 16 17  1  0  0  0
 17 18  1  0  0  0
 17 22  2  0  0  0
 18 19  2  0  0  0
 19 20  1  0  0  0
 20 21  2  0  0  0
 21 22  1  0  0  0
 22 23  1  0  0  0
  5  6  1  0  0  0
  5 11  2  0  0  0
  6  7  1  0  0  0
  6  8  2  0  0  0
  7 12  1  0  0  0
  7 13  1  0  0  0
  8  9  1  0  0  0
  9 10  2  0  0  0
 10 11  1  0  0  0
M  END
> <minimizedAffinity>
-8.31436

$$$$
