CHEMBL214530


 43 47  0  0  0  0  0  0  0  0999 V2000
  -28.4953   -2.6308  -12.9516 C   0  0  0  0  0  0  0  0  0  0  0  0
  -27.1456   -1.9558  -12.8683 C   0  0  0  0  0  0  0  0  0  0  0  0
  -26.4990   -1.7024  -14.1006 C   0  0  0  0  0  0  0  0  0  0  0  0
  -25.2669   -1.0503  -14.1637 C   0  0  0  0  0  0  0  0  0  0  0  0
  -24.6539   -0.6542  -12.9825 C   0  0  0  0  0  0  0  0  0  0  0  0
  -25.2681   -0.9404  -11.7517 C   0  0  0  0  0  0  0  0  0  0  0  0
  -26.5189   -1.5873  -11.6479 C   0  0  0  0  0  0  0  0  0  0  0  0
  -27.0802   -1.8318  -10.2860 C   0  0  0  0  0  0  0  0  0  0  0  0
  -27.3556   -3.1294   -9.8140 C   0  0  0  0  0  0  0  0  0  0  0  0
  -27.8750   -3.3570   -8.5266 C   0  0  0  0  0  0  0  0  0  0  0  0
  -28.1035   -2.3144   -7.6402 C   0  0  0  0  0  0  0  0  0  0  0  0
  -28.5026   -2.5490   -6.3837 N   0  0  0  0  0  0  0  0  0  0  0  0
  -28.6874   -1.4941   -5.5695 C   0  0  0  0  0  0  0  0  0  0  0  0
  -28.5647   -0.2234   -5.9529 N   0  0  0  0  0  0  0  0  0  0  0  0
  -28.1285   -0.0148   -7.2037 C   0  0  0  0  0  0  0  0  0  0  0  0
  -27.8763   -1.0256   -8.1051 C   0  0  0  0  0  0  0  0  0  0  0  0
  -27.4050   -0.7872   -9.4142 C   0  0  0  0  0  0  0  0  0  0  0  0
  -28.9763   -1.6789   -4.2291 N   0  0  0  0  0  0  0  0  0  0  0  0
  -29.8965   -1.2821   -4.0738 H   0  0  0  0  0  0  0  0  0  0  0  0
  -28.7810   -3.0104   -3.7010 C   0  0  0  0  0  0  0  0  0  0  0  0
  -30.1042   -3.6110   -3.1830 C   0  0  0  0  0  0  0  0  0  0  0  0
  -30.6939   -4.4685   -4.3034 C   0  0  0  0  0  0  0  0  0  0  0  0
  -30.5909   -5.9273   -4.1754 N   0  0  0  0  0  0  0  0  0  0  0  0
  -29.2949   -6.4436   -3.6834 C   0  0  0  0  0  0  0  0  0  0  0  0
  -28.1390   -6.4720   -4.7069 C   0  0  0  0  0  0  0  0  0  0  0  0
  -28.5227   -7.0411   -5.9662 O   0  0  0  0  0  0  0  0  0  0  0  0
  -29.6829   -6.3827   -6.4814 C   0  0  0  0  0  0  0  0  0  0  0  0
  -30.8565   -6.5411   -5.5011 C   0  0  0  0  0  0  0  0  0  0  0  0
  -23.3218    0.0079  -12.9447 C   0  0  0  0  0  0  0  0  0  0  0  0
  -22.6324   -0.1977  -11.9564 O   0  0  0  0  0  0  0  0  0  0  0  0
  -23.0152    0.8438  -14.0065 N   0  0  0  0  0  0  0  0  0  0  0  0
  -23.7582    1.0550  -14.6550 H   0  0  0  0  0  0  0  0  0  0  0  0
  -21.8191    1.6159  -14.1385 C   0  0  0  0  0  0  0  0  0  0  0  0
  -21.8202    2.9944  -13.8688 C   0  0  0  0  0  0  0  0  0  0  0  0
  -20.6813    3.7713  -14.0396 C   0  0  0  0  0  0  0  0  0  0  0  0
  -19.5088    3.1846  -14.4879 C   0  0  0  0  0  0  0  0  0  0  0  0
  -19.4477    1.8017  -14.7470 C   0  0  0  0  0  0  0  0  0  0  0  0
  -20.6112    1.0017  -14.5539 C   0  0  0  0  0  0  0  0  0  0  0  0
  -20.5686   -0.4884  -14.8115 C   0  0  0  0  0  0  0  0  0  0  0  0
  -18.1347    1.2314  -15.2417 C   0  0  0  0  0  0  0  0  0  0  0  0
  -18.2154   -0.0747  -15.6291 F   0  0  0  0  0  0  0  0  0  0  0  0
  -17.6430    1.9004  -16.3217 F   0  0  0  0  0  0  0  0  0  0  0  0
  -17.1556    1.2669  -14.2946 F   0  0  0  0  0  0  0  0  0  0  0  0
  1  2  1  0  0  0
  2  3  1  0  0  0
  2  7  2  0  0  0
  3  4  2  0  0  0
  4  5  1  0  0  0
  5 29  1  0  0  0
  5  6  2  0  0  0
 29 30  2  0  0  0
 29 31  1  0  0  0
 31 33  1  0  0  0
 31 32  1  0  0  0
 33 34  1  0  0  0
 33 38  2  0  0  0
 34 35  2  0  0  0
 35 36  1  0  0  0
 36 37  2  0  0  0
 37 40  1  0  0  0
 37 38  1  0  0  0
 40 41  1  0  0  0
 40 42  1  0  0  0
 40 43  1  0  0  0
 38 39  1  0  0  0
  6  7  1  0  0  0
  7  8  1  0  0  0
  8  9  1  0  0  0
  8 17  2  0  0  0
  9 10  2  0  0  0
 10 11  1  0  0  0
 11 12  1  0  0  0
 11 16  2  0  0  0
 12 13  2  0  0  0
 13 18  1  0  0  0
 13 14  1  0  0  0
 18 20  1  0  0  0
 18 19  1  0  0  0
 20 21  1  0  0  0
 21 22  1  0  0  0
 22 23  1  0  0  0
 23 24  1  0  0  0
 23 28  1  0  0  0
 24 25  1  0  0  0
 25 26  1  0  0  0
 26 27  1  0  0  0
 27 28  1  0  0  0
 14 15  2  0  0  0
 15 16  1  0  0  0
 16 17  1  0  0  0
M  END
> <minimizedAffinity>
-9.89048

$$$$
