CHEMBL1991078


 36 40  0  0  0  0  0  0  0  0999 V2000
  -29.0944   -4.2900   -5.5852 C   0  0  0  0  0  0  0  0  0  0  0  0
  -29.1602   -3.8315   -4.3330 N   0  0  0  0  0  0  0  0  0  0  0  0
  -28.5529   -2.6382   -4.4047 N   0  0  0  0  0  0  0  0  0  0  0  0
  -28.3810   -2.1943   -5.6851 C   0  0  0  0  0  0  0  0  0  0  0  0
  -28.1489   -0.9184   -6.1963 C   0  0  0  0  0  0  0  0  0  0  0  0
  -27.9614   -0.8188   -7.5776 C   0  0  0  0  0  0  0  0  0  0  0  0
  -27.9141   -1.9530   -8.4060 C   0  0  0  0  0  0  0  0  0  0  0  0
  -28.2032   -3.2237   -7.8545 C   0  0  0  0  0  0  0  0  0  0  0  0
  -28.5014   -3.3351   -6.4765 C   0  0  0  0  0  0  0  0  0  0  0  0
  -28.3568   -2.1411   -3.5437 H   0  0  0  0  0  0  0  0  0  0  0  0
  -27.5745   -1.7749   -9.8095 C   0  0  0  0  0  0  0  0  0  0  0  0
  -26.6848   -2.5109  -10.5621 C   0  0  0  0  0  0  0  0  0  0  0  0
  -26.7006   -1.9081  -11.7834 N   0  0  0  0  0  0  0  0  0  0  0  0
  -27.5226   -0.8417  -11.7949 N   0  0  0  0  0  0  0  0  0  0  0  0
  -28.0777   -0.7615  -10.5935 N   0  0  0  0  0  0  0  0  0  0  0  0
  -25.8897   -2.2189  -12.9519 C   0  0  0  0  0  0  0  0  0  0  0  0
  -24.6320   -1.3871  -13.0041 C   0  0  0  0  0  0  0  0  0  0  0  0
  -24.2906   -0.6773  -14.1668 C   0  0  0  0  0  0  0  0  0  0  0  0
  -23.1239    0.0854  -14.2167 C   0  0  0  0  0  0  0  0  0  0  0  0
  -22.2983    0.1690  -13.1010 C   0  0  0  0  0  0  0  0  0  0  0  0
  -22.6348   -0.5134  -11.9334 C   0  0  0  0  0  0  0  0  0  0  0  0
  -23.7962   -1.2904  -11.8836 C   0  0  0  0  0  0  0  0  0  0  0  0
  -29.2069   -6.6894   -5.8730 C   0  0  0  0  0  0  0  0  0  0  0  0
  -28.0744   -6.9340   -5.4395 O   0  0  0  0  0  0  0  0  0  0  0  0
  -29.7796   -5.4458   -5.8825 N   0  0  0  0  0  0  0  0  0  0  0  0
  -30.7585   -5.3842   -5.6396 H   0  0  0  0  0  0  0  0  0  0  0  0
  -31.7928   -9.8857   -7.2150 C   0  0  0  0  0  0  0  0  0  0  0  0
  -32.2308   -8.5555   -7.1581 C   0  0  0  0  0  0  0  0  0  0  0  0
  -31.3675   -7.5293   -6.7639 C   0  0  0  0  0  0  0  0  0  0  0  0
  -30.0484   -7.8093   -6.3957 C   0  0  0  0  0  0  0  0  0  0  0  0
  -29.6055   -9.1362   -6.4481 C   0  0  0  0  0  0  0  0  0  0  0  0
  -30.4622  -10.1740   -6.8617 C   0  0  0  0  0  0  0  0  0  0  0  0
  -33.4357  -11.4256   -6.4474 C   0  0  0  0  0  0  0  0  0  0  0  0
  -32.6374  -10.9220   -7.5145 O   0  0  0  0  0  0  0  0  0  0  0  0
  -29.8668  -11.4083   -6.7982 O   0  0  0  0  0  0  0  0  0  0  0  0
  -29.9328  -12.1032   -5.5593 C   0  0  0  0  0  0  0  0  0  0  0  0
 33 34  1  0  0  0
 34 27  1  0  0  0
 27 28  1  0  0  0
 27 32  2  0  0  0
 28 29  2  0  0  0
 29 30  1  0  0  0
 30 23  1  0  0  0
 30 31  2  0  0  0
 23 24  2  0  0  0
 23 25  1  0  0  0
 25  1  1  0  0  0
 25 26  1  0  0  0
  1  2  2  0  0  0
  1  9  1  0  0  0
  2  3  1  0  0  0
  3  4  1  0  0  0
  3 10  1  0  0  0
  4  5  1  0  0  0
  4  9  2  0  0  0
  5  6  2  0  0  0
  6  7  1  0  0  0
  7 11  1  0  0  0
  7  8  2  0  0  0
 11 12  2  0  0  0
 11 15  1  0  0  0
 12 13  1  0  0  0
 13 16  1  0  0  0
 13 14  1  0  0  0
 16 17  1  0  0  0
 17 18  1  0  0  0
 17 22  2  0  0  0
 18 19  2  0  0  0
 19 20  1  0  0  0
 20 21  2  0  0  0
 21 22  1  0  0  0
 14 15  2  0  0  0
  8  9  1  0  0  0
 31 32  1  0  0  0
 32 35  1  0  0  0
 35 36  1  0  0  0
M  END
> <minimizedAffinity>
-9.44984

$$$$
