CHEMBL401054


 34 38  0  0  0  0  0  0  0  0999 V2000
  -11.9183   -1.9403  -13.3656 C   0  0  0  0  0  0  0  0  0  0  0  0
  -11.7542   -0.6821  -12.7779 C   0  0  0  0  0  0  0  0  0  0  0  0
  -12.2829    0.4714  -13.3331 C   0  0  0  0  0  0  0  0  0  0  0  0
  -12.0132    1.6301  -12.7235 N   0  0  0  0  0  0  0  0  0  0  0  0
  -12.4114    2.7635  -13.3284 C   0  0  0  0  0  0  0  0  0  0  0  0
  -13.1350    2.8189  -14.5099 C   0  0  0  0  0  0  0  0  0  0  0  0
  -13.5607    1.6145  -15.0816 C   0  0  0  0  0  0  0  0  0  0  0  0
  -13.0415    0.3904  -14.5218 C   0  0  0  0  0  0  0  0  0  0  0  0
  -13.2016   -0.8995  -15.1079 C   0  0  0  0  0  0  0  0  0  0  0  0
  -12.6347   -2.0521  -14.5603 C   0  0  0  0  0  0  0  0  0  0  0  0
  -11.8606   -3.5487  -11.6063 C   0  0  0  0  0  0  0  0  0  0  0  0
  -11.2338   -2.9449  -12.7289 O   0  0  0  0  0  0  0  0  0  0  0  0
  -13.3129    4.1115  -15.0881 C   0  0  0  0  0  0  0  0  0  0  0  0
  -13.5571    5.1297  -15.5837 N   0  0  0  0  0  0  0  0  0  0  0  0
  -14.3590    1.5232  -16.2574 N   0  0  0  0  0  0  0  0  0  0  0  0
  -13.9802    0.8412  -16.9082 H   0  0  0  0  0  0  0  0  0  0  0  0
  -15.8337    1.5867  -16.3470 C   0  0  0  0  0  0  0  0  0  0  0  0
  -16.3494    2.9930  -16.5221 C   0  0  0  0  0  0  0  0  0  0  0  0
  -16.6569    2.2260  -15.2572 C   0  0  0  0  0  0  0  0  0  0  0  0
  -18.1354    2.1148  -14.9589 C   0  0  0  0  0  0  0  0  0  0  0  0
  -18.9630    3.1703  -14.5587 C   0  0  0  0  0  0  0  0  0  0  0  0
  -20.3494    2.9981  -14.4422 C   0  0  0  0  0  0  0  0  0  0  0  0
  -20.9342    1.7607  -14.7107 C   0  0  0  0  0  0  0  0  0  0  0  0
  -20.1339    0.6870  -15.0673 C   0  0  0  0  0  0  0  0  0  0  0  0
  -18.7551    0.8669  -15.1855 C   0  0  0  0  0  0  0  0  0  0  0  0
  -12.7051   -3.2869  -15.1115 O   0  0  0  0  0  0  0  0  0  0  0  0
  -13.9221   -3.9523  -15.4425 C   0  0  0  0  0  0  0  0  0  0  0  0
  -14.5314   -4.3769  -14.0945 C   0  0  0  0  0  0  0  0  0  0  0  0
  -15.8769   -3.8496  -13.7959 N   0  0  0  0  0  0  0  0  0  0  0  0
  -15.8020   -2.8594  -12.6867 C   0  0  0  0  0  0  0  0  0  0  0  0
  -15.6570   -3.4559  -11.2698 C   0  0  0  0  0  0  0  0  0  0  0  0
  -16.5958   -4.5037  -11.0090 O   0  0  0  0  0  0  0  0  0  0  0  0
  -16.5215   -5.5163  -12.0187 C   0  0  0  0  0  0  0  0  0  0  0  0
  -16.8317   -4.9056  -13.3910 C   0  0  0  0  0  0  0  0  0  0  0  0
 11 12  1  0  0  0
 12  1  1  0  0  0
  1  2  1  0  0  0
  1 10  2  0  0  0
  2  3  2  0  0  0
  3  4  1  0  0  0
  3  8  1  0  0  0
  4  5  2  0  0  0
  5  6  1  0  0  0
  6 13  1  0  0  0
  6  7  2  0  0  0
 13 14  3  0  0  0
  7 15  1  0  0  0
  7  8  1  0  0  0
 15 17  1  0  0  0
 15 16  1  0  0  0
 17 18  1  0  0  0
 17 19  1  0  0  0
 18 19  1  0  0  0
 19 20  1  0  0  0
 20 21  1  0  0  0
 20 25  2  0  0  0
 21 22  2  0  0  0
 22 23  1  0  0  0
 23 24  2  0  0  0
 24 25  1  0  0  0
  8  9  2  0  0  0
  9 10  1  0  0  0
 10 26  1  0  0  0
 26 27  1  0  0  0
 27 28  1  0  0  0
 28 29  1  0  0  0
 29 30  1  0  0  0
 29 34  1  0  0  0
 30 31  1  0  0  0
 31 32  1  0  0  0
 32 33  1  0  0  0
 33 34  1  0  0  0
M  END
> <minimizedAffinity>
-7.59554

$$$$
