CHEMBL3905323


 38 41  0  0  0  0  0  0  0  0999 V2000
  -15.2578   -2.8925  -11.9226 C   0  0  0  0  0  0  0  0  0  0  0  0
  -16.3115   -3.7894  -11.7211 C   0  0  0  0  0  0  0  0  0  0  0  0
  -16.0629   -5.1455  -11.4903 C   0  0  0  0  0  0  0  0  0  0  0  0
  -14.7582   -5.6282  -11.4839 C   0  0  0  0  0  0  0  0  0  0  0  0
  -13.6931   -4.7472  -11.6830 C   0  0  0  0  0  0  0  0  0  0  0  0
  -13.9547   -3.3973  -11.9270 C   0  0  0  0  0  0  0  0  0  0  0  0
  -12.9200   -2.5661  -12.1347 F   0  0  0  0  0  0  0  0  0  0  0  0
  -15.9897   -1.4913  -14.3194 O   0  0  0  0  0  0  0  0  0  0  0  0
  -15.8266   -0.8921  -13.2623 C   0  0  0  0  0  0  0  0  0  0  0  0
  -15.4439   -1.4929  -12.0813 N   0  0  0  0  0  0  0  0  0  0  0  0
  -16.0537    0.4658  -13.1260 N   0  0  0  0  0  0  0  0  0  0  0  0
  -15.5745   -0.9671  -11.2257 H   0  0  0  0  0  0  0  0  0  0  0  0
  -15.5176    0.9592  -12.4233 H   0  0  0  0  0  0  0  0  0  0  0  0
  -16.7174    1.2680  -14.0953 C   0  0  0  0  0  0  0  0  0  0  0  0
  -18.1087    1.4537  -14.0689 C   0  0  0  0  0  0  0  0  0  0  0  0
  -18.7688    2.2635  -15.0060 C   0  0  0  0  0  0  0  0  0  0  0  0
  -18.0074    2.9283  -15.9740 C   0  0  0  0  0  0  0  0  0  0  0  0
  -16.6198    2.7624  -16.0142 C   0  0  0  0  0  0  0  0  0  0  0  0
  -15.9795    1.9352  -15.0837 C   0  0  0  0  0  0  0  0  0  0  0  0
  -14.2657    1.7389  -15.2028 Cl  0  0  0  0  0  0  0  0  0  0  0  0
  -20.2719    2.4137  -14.9588 C   0  0  0  0  0  0  0  0  0  0  0  0
  -20.7292    3.0397  -13.8394 F   0  0  0  0  0  0  0  0  0  0  0  0
  -20.7514    3.1353  -16.0093 F   0  0  0  0  0  0  0  0  0  0  0  0
  -20.9152    1.2144  -15.0037 F   0  0  0  0  0  0  0  0  0  0  0  0
  -14.6188   -6.9673  -11.2027 O   0  0  0  0  0  0  0  0  0  0  0  0
  -13.8516   -7.7601  -12.0253 C   0  0  0  0  0  0  0  0  0  0  0  0
  -12.7113   -8.4395  -11.6078 C   0  0  0  0  0  0  0  0  0  0  0  0
  -12.0660   -9.2236  -12.5347 C   0  0  0  0  0  0  0  0  0  0  0  0
  -12.4494   -9.3230  -13.8201 N   0  0  0  0  0  0  0  0  0  0  0  0
  -13.5099   -8.6112  -14.2380 C   0  0  0  0  0  0  0  0  0  0  0  0
  -14.2392   -7.8148  -13.3649 C   0  0  0  0  0  0  0  0  0  0  0  0
  -13.9076   -8.6696  -15.5820 N   0  0  0  0  0  0  0  0  0  0  0  0
  -13.3567   -7.9016  -16.5886 C   0  0  0  0  0  0  0  0  0  0  0  0
  -12.4819   -7.0558  -16.4820 O   0  0  0  0  0  0  0  0  0  0  0  0
  -14.6547   -9.3012  -15.8135 H   0  0  0  0  0  0  0  0  0  0  0  0
  -13.8999   -8.1275  -17.9611 C   0  0  0  0  0  0  0  0  0  0  0  0
  -13.2643   -9.1703  -18.8512 C   0  0  0  0  0  0  0  0  0  0  0  0
  -13.2601   -7.7267  -19.2647 C   0  0  0  0  0  0  0  0  0  0  0  0
  8  9  2  0  0  0
  9 10  1  0  0  0
  9 11  1  0  0  0
 10  1  1  0  0  0
 10 12  1  0  0  0
  1  2  1  0  0  0
  1  6  2  0  0  0
  2  3  2  0  0  0
  3  4  1  0  0  0
  4 25  1  0  0  0
  4  5  2  0  0  0
 25 26  1  0  0  0
 26 27  1  0  0  0
 26 31  2  0  0  0
 27 28  2  0  0  0
 28 29  1  0  0  0
 29 30  2  0  0  0
 30 32  1  0  0  0
 30 31  1  0  0  0
 32 33  1  0  0  0
 32 35  1  0  0  0
 33 34  2  0  0  0
 33 36  1  0  0  0
 36 37  1  0  0  0
 36 38  1  0  0  0
 37 38  1  0  0  0
  5  6  1  0  0  0
  6  7  1  0  0  0
 11 14  1  0  0  0
 11 13  1  0  0  0
 14 15  1  0  0  0
 14 19  2  0  0  0
 15 16  2  0  0  0
 16 21  1  0  0  0
 16 17  1  0  0  0
 21 22  1  0  0  0
 21 23  1  0  0  0
 21 24  1  0  0  0
 17 18  2  0  0  0
 18 19  1  0  0  0
 19 20  1  0  0  0
M  END
> <minimizedAffinity>
-9.35451

$$$$
