CHEMBL4556899


 27 30  0  0  0  0  0  0  0  0999 V2000
  -22.5652    0.2904  -13.7626 C   0  0  0  0  0  0  0  0  0  0  0  0
  -22.6304   -0.1518  -12.4308 C   0  0  0  0  0  0  0  0  0  0  0  0
  -23.6471   -1.0090  -11.9936 C   0  0  0  0  0  0  0  0  0  0  0  0
  -24.6438   -1.4381  -12.8802 C   0  0  0  0  0  0  0  0  0  0  0  0
  -24.6044   -0.9838  -14.2015 C   0  0  0  0  0  0  0  0  0  0  0  0
  -23.5778   -0.1440  -14.6376 C   0  0  0  0  0  0  0  0  0  0  0  0
  -19.5256    2.9469  -15.0517 C   0  0  0  0  0  0  0  0  0  0  0  0
  -19.3116    1.5931  -15.2325 C   0  0  0  0  0  0  0  0  0  0  0  0
  -20.3034    0.7083  -14.8115 C   0  0  0  0  0  0  0  0  0  0  0  0
  -21.4890    1.1861  -14.2308 C   0  0  0  0  0  0  0  0  0  0  0  0
  -21.5908    2.5753  -14.1226 C   0  0  0  0  0  0  0  0  0  0  0  0
  -20.6505    3.4615  -14.5221 N   0  0  0  0  0  0  0  0  0  0  0  0
  -17.4141    3.0803  -15.9874 C   0  0  0  0  0  0  0  0  0  0  0  0
  -18.5142    3.8018  -15.4371 O   0  0  0  0  0  0  0  0  0  0  0  0
  -25.7322   -2.3752  -12.4416 C   0  0  0  0  0  0  0  0  0  0  0  0
  -26.5174   -1.8331  -11.3481 N   0  0  0  0  0  0  0  0  0  0  0  0
  -26.4272   -2.1588  -10.0275 C   0  0  0  0  0  0  0  0  0  0  0  0
  -27.5382   -1.5679   -9.4665 C   0  0  0  0  0  0  0  0  0  0  0  0
  -28.2357   -0.9041  -10.4421 N   0  0  0  0  0  0  0  0  0  0  0  0
  -27.5967   -1.0678  -11.5945 N   0  0  0  0  0  0  0  0  0  0  0  0
  -27.9645   -1.6932   -8.0879 C   0  0  0  0  0  0  0  0  0  0  0  0
  -28.4219   -2.9270   -7.6089 C   0  0  0  0  0  0  0  0  0  0  0  0
  -28.7932   -3.0730   -6.2706 C   0  0  0  0  0  0  0  0  0  0  0  0
  -28.7085   -1.9879   -5.3981 C   0  0  0  0  0  0  0  0  0  0  0  0
  -28.2518   -0.7477   -5.8549 C   0  0  0  0  0  0  0  0  0  0  0  0
  -28.1301    0.4233   -4.9256 C   0  0  0  0  0  0  0  0  0  0  0  0
  -27.8950   -0.6061   -7.2039 C   0  0  0  0  0  0  0  0  0  0  0  0
 13 14  1  0  0  0
 14  7  1  0  0  0
  7  8  1  0  0  0
  7 12  2  0  0  0
  8  9  2  0  0  0
  9 10  1  0  0  0
 10  1  1  0  0  0
 10 11  2  0  0  0
  1  2  1  0  0  0
  1  6  2  0  0  0
  2  3  2  0  0  0
  3  4  1  0  0  0
  4 15  1  0  0  0
  4  5  2  0  0  0
 15 16  1  0  0  0
 16 17  1  0  0  0
 16 20  1  0  0  0
 17 18  2  0  0  0
 18 21  1  0  0  0
 18 19  1  0  0  0
 21 22  1  0  0  0
 21 27  2  0  0  0
 22 23  2  0  0  0
 23 24  1  0  0  0
 24 25  2  0  0  0
 25 26  1  0  0  0
 25 27  1  0  0  0
 19 20  2  0  0  0
  5  6  1  0  0  0
 11 12  1  0  0  0
M  END
> <minimizedAffinity>
-10.36571

$$$$
