CHEMBL3904460


 37 40  0  0  0  0  0  0  0  0999 V2000
  -12.2525   -2.3935  -13.2797 C   0  0  0  0  0  0  0  0  0  0  0  0
  -11.8432   -1.0412  -13.1945 C   0  0  0  0  0  0  0  0  0  0  0  0
  -12.5189    0.0071  -13.7733 C   0  0  0  0  0  0  0  0  0  0  0  0
  -12.0142    1.2317  -13.6125 N   0  0  0  0  0  0  0  0  0  0  0  0
  -12.6694    2.2220  -14.2140 C   0  0  0  0  0  0  0  0  0  0  0  0
  -13.7815    2.0831  -14.9305 N   0  0  0  0  0  0  0  0  0  0  0  0
  -14.2817    0.8382  -15.0734 C   0  0  0  0  0  0  0  0  0  0  0  0
  -13.6605   -0.2757  -14.5062 C   0  0  0  0  0  0  0  0  0  0  0  0
  -14.0895   -1.6233  -14.6244 C   0  0  0  0  0  0  0  0  0  0  0  0
  -13.4137   -2.6836  -14.0018 C   0  0  0  0  0  0  0  0  0  0  0  0
  -15.4663    0.6531  -15.8367 N   0  0  0  0  0  0  0  0  0  0  0  0
  -15.6111   -0.3359  -15.9988 H   0  0  0  0  0  0  0  0  0  0  0  0
  -16.6656    1.3558  -15.6176 C   0  0  0  0  0  0  0  0  0  0  0  0
  -16.7008    2.7438  -15.7370 C   0  0  0  0  0  0  0  0  0  0  0  0
  -17.9117    3.4247  -15.5983 C   0  0  0  0  0  0  0  0  0  0  0  0
  -19.0956    2.7256  -15.3344 C   0  0  0  0  0  0  0  0  0  0  0  0
  -20.5574    3.6376  -15.2500 Cl  0  0  0  0  0  0  0  0  0  0  0  0
  -19.0735    1.3386  -15.1576 C   0  0  0  0  0  0  0  0  0  0  0  0
  -20.2826    0.4793  -14.9290 C   0  0  0  0  0  0  0  0  0  0  0  0
  -17.8419    0.6799  -15.2680 C   0  0  0  0  0  0  0  0  0  0  0  0
  -14.0497   -3.8626  -14.2450 O   0  0  0  0  0  0  0  0  0  0  0  0
  -13.9556   -4.5314  -15.4877 C   0  0  0  0  0  0  0  0  0  0  0  0
  -11.5102   -3.4023  -12.6923 O   0  0  0  0  0  0  0  0  0  0  0  0
  -11.2332   -3.1743  -11.3037 C   0  0  0  0  0  0  0  0  0  0  0  0
  -13.3259   -4.7993  -10.0263 N   0  0  0  0  0  0  0  0  0  0  0  0
  -13.1733   -4.4171   -8.6167 C   0  0  0  0  0  0  0  0  0  0  0  0
  -11.9290   -3.5261   -8.4404 C   0  0  0  0  0  0  0  0  0  0  0  0
  -10.7506   -4.0657   -9.0764 O   0  0  0  0  0  0  0  0  0  0  0  0
  -10.9641   -4.4284  -10.4690 C   0  0  0  0  0  0  0  0  0  0  0  0
  -12.1139   -5.4386  -10.5698 C   0  0  0  0  0  0  0  0  0  0  0  0
  -14.4655   -4.6785  -10.7972 C   0  0  0  0  0  0  0  0  0  0  0  0
  -15.0243   -5.7670  -11.2240 N   0  0  0  0  0  0  0  0  0  0  0  0
  -15.9096   -2.6325  -10.4945 C   0  0  0  0  0  0  0  0  0  0  0  0
  -14.7697   -3.3568  -11.0107 N   0  0  0  0  0  0  0  0  0  0  0  0
  -14.5300   -3.0568  -11.9467 H   0  0  0  0  0  0  0  0  0  0  0  0
  -16.0880   -5.7448  -12.0157 C   0  0  0  0  0  0  0  0  0  0  0  0
  -17.0319   -5.7140  -12.6941 N   0  0  0  0  0  0  0  0  0  0  0  0
 33 34  1  0  0  0
 34 31  1  0  0  0
 34 35  1  0  0  0
 31 32  2  0  0  0
 31 25  1  0  0  0
 32 36  1  0  0  0
 36 37  3  0  0  0
 25 26  1  0  0  0
 25 30  1  0  0  0
 26 27  1  0  0  0
 27 28  1  0  0  0
 28 29  1  0  0  0
 29 24  1  0  0  0
 29 30  1  0  0  0
 24 23  1  0  0  0
 23  1  1  0  0  0
  1  2  1  0  0  0
  1 10  2  0  0  0
  2  3  2  0  0  0
  3  4  1  0  0  0
  3  8  1  0  0  0
  4  5  2  0  0  0
  5  6  1  0  0  0
  6  7  2  0  0  0
  7 11  1  0  0  0
  7  8  1  0  0  0
 11 13  1  0  0  0
 11 12  1  0  0  0
 13 14  1  0  0  0
 13 20  2  0  0  0
 14 15  2  0  0  0
 15 16  1  0  0  0
 16 17  1  0  0  0
 16 18  2  0  0  0
 18 19  1  0  0  0
 18 20  1  0  0  0
  8  9  2  0  0  0
  9 10  1  0  0  0
 10 21  1  0  0  0
 21 22  1  0  0  0
M  END
> <minimizedAffinity>
-7.56161

$$$$
