CHEMBL2031912


 42 47  0  0  0  0  0  0  0  0999 V2000
  -26.1393   -1.0007  -10.6156 N   0  0  0  0  0  0  0  0  0  0  0  0
  -24.9098   -1.5142  -11.0367 C   0  0  0  0  0  0  0  0  0  0  0  0
  -24.2845   -2.3951  -10.4524 O   0  0  0  0  0  0  0  0  0  0  0  0
  -26.4904   -0.1740  -11.1035 H   0  0  0  0  0  0  0  0  0  0  0  0
  -28.5754   -2.5048   -7.4201 C   0  0  0  0  0  0  0  0  0  0  0  0
  -28.4014   -3.2438   -8.5930 C   0  0  0  0  0  0  0  0  0  0  0  0
  -27.5675   -2.7696   -9.6223 C   0  0  0  0  0  0  0  0  0  0  0  0
  -26.9628   -1.5155   -9.5715 C   0  0  0  0  0  0  0  0  0  0  0  0
  -27.2241   -0.7228   -8.4300 C   0  0  0  0  0  0  0  0  0  0  0  0
  -28.0042   -1.2298   -7.3737 C   0  0  0  0  0  0  0  0  0  0  0  0
  -28.1734   -0.4625   -6.2797 F   0  0  0  0  0  0  0  0  0  0  0  0
  -29.2460   -2.9605   -6.3013 O   0  0  0  0  0  0  0  0  0  0  0  0
  -30.3369   -8.0141   -6.5353 C   0  0  0  0  0  0  0  0  0  0  0  0
  -30.7443   -6.9494   -7.3239 C   0  0  0  0  0  0  0  0  0  0  0  0
  -30.1939   -5.6918   -7.1179 C   0  0  0  0  0  0  0  0  0  0  0  0
  -29.3301   -5.4337   -6.0360 C   0  0  0  0  0  0  0  0  0  0  0  0
  -28.8797   -4.1420   -5.6709 C   0  0  0  0  0  0  0  0  0  0  0  0
  -27.9505   -4.0058   -4.6363 C   0  0  0  0  0  0  0  0  0  0  0  0
  -27.5616   -5.1407   -3.9592 C   0  0  0  0  0  0  0  0  0  0  0  0
  -28.0360   -6.3767   -4.2252 N   0  0  0  0  0  0  0  0  0  0  0  0
  -28.9107   -6.5238   -5.2355 C   0  0  0  0  0  0  0  0  0  0  0  0
  -29.4219   -7.7916   -5.5033 C   0  0  0  0  0  0  0  0  0  0  0  0
  -31.7824   -9.4420   -7.7130 C   0  0  0  0  0  0  0  0  0  0  0  0
  -30.7867   -9.2963   -6.6985 O   0  0  0  0  0  0  0  0  0  0  0  0
  -24.3584   -0.9447  -12.3098 C   0  0  0  0  0  0  0  0  0  0  0  0
  -24.7723   -1.0782  -13.6084 C   0  0  0  0  0  0  0  0  0  0  0  0
  -24.0633   -0.1956  -14.4461 N   0  0  0  0  0  0  0  0  0  0  0  0
  -23.7982   -0.2221  -15.8754 C   0  0  0  0  0  0  0  0  0  0  0  0
  -23.1289    0.4835  -13.6394 N   0  0  0  0  0  0  0  0  0  0  0  0
  -23.1873   -0.0256  -12.3550 C   0  0  0  0  0  0  0  0  0  0  0  0
  -22.4764    0.2158  -11.3902 O   0  0  0  0  0  0  0  0  0  0  0  0
  -22.1118    1.2761  -14.1881 C   0  0  0  0  0  0  0  0  0  0  0  0
  -22.2316    2.6669  -14.2453 C   0  0  0  0  0  0  0  0  0  0  0  0
  -21.1821    3.4311  -14.7608 C   0  0  0  0  0  0  0  0  0  0  0  0
  -20.0331    2.8053  -15.2477 C   0  0  0  0  0  0  0  0  0  0  0  0
  -19.9123    1.4176  -15.1866 C   0  0  0  0  0  0  0  0  0  0  0  0
  -20.9417    0.6552  -14.6376 C   0  0  0  0  0  0  0  0  0  0  0  0
  -25.9001   -2.0037  -14.0838 C   0  0  0  0  0  0  0  0  0  0  0  0
  -26.9860   -1.4848  -15.0211 C   0  0  0  0  0  0  0  0  0  0  0  0
  -28.1769   -1.1820  -14.1263 C   0  0  0  0  0  0  0  0  0  0  0  0
  -27.9981   -1.9029  -12.9078 O   0  0  0  0  0  0  0  0  0  0  0  0
  -26.7414   -2.5942  -12.9524 C   0  0  0  0  0  0  0  0  0  0  0  0
 23 24  1  0  0  0
 24 13  1  0  0  0
 13 14  1  0  0  0
 13 22  2  0  0  0
 14 15  2  0  0  0
 15 16  1  0  0  0
 16 17  1  0  0  0
 16 21  2  0  0  0
 17 12  1  0  0  0
 17 18  2  0  0  0
 12  5  1  0  0  0
  5  6  1  0  0  0
  5 10  2  0  0  0
  6  7  2  0  0  0
  7  8  1  0  0  0
  8  1  1  0  0  0
  8  9  2  0  0  0
  1  2  1  0  0  0
  1  4  1  0  0  0
  2  3  2  0  0  0
  2 25  1  0  0  0
 25 26  2  0  0  0
 25 30  1  0  0  0
 26 38  1  0  0  0
 26 27  1  0  0  0
 38 39  1  0  0  0
 38 42  1  0  0  0
 39 40  1  0  0  0
 40 41  1  0  0  0
 41 42  1  0  0  0
 27 28  1  0  0  0
 27 29  1  0  0  0
 29 32  1  0  0  0
 29 30  1  0  0  0
 32 33  1  0  0  0
 32 37  2  0  0  0
 33 34  2  0  0  0
 34 35  1  0  0  0
 35 36  2  0  0  0
 36 37  1  0  0  0
 30 31  2  0  0  0
  9 10  1  0  0  0
 10 11  1  0  0  0
 18 19  1  0  0  0
 19 20  2  0  0  0
 20 21  1  0  0  0
 21 22  1  0  0  0
M  END
> <minimizedAffinity>
-5.87192

$$$$
