CHEMBL3922242


 40 44  0  0  0  0  0  0  0  0999 V2000
  -17.6553    2.4347  -15.6308 C   0  0  0  0  0  0  0  0  0  0  0  0
  -17.4602    3.8147  -15.5494 C   0  0  0  0  0  0  0  0  0  0  0  0
  -16.3242    4.4179  -16.0963 C   0  0  0  0  0  0  0  0  0  0  0  0
  -15.3555    3.6256  -16.6989 C   0  0  0  0  0  0  0  0  0  0  0  0
  -15.4696    2.2336  -16.6656 C   0  0  0  0  0  0  0  0  0  0  0  0
  -16.6358    1.6372  -16.1486 C   0  0  0  0  0  0  0  0  0  0  0  0
  -20.0337    2.4833  -14.9546 C   0  0  0  0  0  0  0  0  0  0  0  0
  -20.2270    3.6863  -15.0997 O   0  0  0  0  0  0  0  0  0  0  0  0
  -18.8456    1.8059  -15.2107 N   0  0  0  0  0  0  0  0  0  0  0  0
  -18.8414    0.7987  -15.1688 H   0  0  0  0  0  0  0  0  0  0  0  0
  -23.2643   -0.0105  -13.5733 C   0  0  0  0  0  0  0  0  0  0  0  0
  -23.3815    1.3901  -13.5177 C   0  0  0  0  0  0  0  0  0  0  0  0
  -22.3478    2.2300  -13.9545 C   0  0  0  0  0  0  0  0  0  0  0  0
  -21.1750    1.6756  -14.4622 C   0  0  0  0  0  0  0  0  0  0  0  0
  -21.0256    0.2865  -14.4947 C   0  0  0  0  0  0  0  0  0  0  0  0
  -22.0537   -0.5431  -14.0574 C   0  0  0  0  0  0  0  0  0  0  0  0
  -25.3012   -1.3903  -14.3226 C   0  0  0  0  0  0  0  0  0  0  0  0
  -24.3946   -0.9607  -13.1494 C   0  0  0  0  0  0  0  0  0  0  0  0
  -25.2923   -0.2818  -12.0936 C   0  0  0  0  0  0  0  0  0  0  0  0
  -23.7787   -2.2401  -12.5413 C   0  0  0  0  0  0  0  0  0  0  0  0
  -14.4069    1.3504  -17.1999 C   0  0  0  0  0  0  0  0  0  0  0  0
  -14.1694    1.3819  -18.4066 O   0  0  0  0  0  0  0  0  0  0  0  0
  -13.6244    0.4288  -16.3252 C   0  0  0  0  0  0  0  0  0  0  0  0
  -12.8246   -0.6175  -16.8214 C   0  0  0  0  0  0  0  0  0  0  0  0
  -12.1896   -1.5355  -15.9607 C   0  0  0  0  0  0  0  0  0  0  0  0
  -12.2089   -1.2528  -14.5846 C   0  0  0  0  0  0  0  0  0  0  0  0
  -11.7253   -1.7896  -13.3425 C   0  0  0  0  0  0  0  0  0  0  0  0
  -11.2290   -0.7249  -12.6800 N   0  0  0  0  0  0  0  0  0  0  0  0
  -12.1511    0.2108  -12.9803 N   0  0  0  0  0  0  0  0  0  0  0  0
  -12.7593   -0.0405  -14.1842 C   0  0  0  0  0  0  0  0  0  0  0  0
  -13.6206    0.7245  -14.9600 C   0  0  0  0  0  0  0  0  0  0  0  0
  -12.2055    1.0464  -12.4182 H   0  0  0  0  0  0  0  0  0  0  0  0
  -12.4067   -2.7264  -12.4553 C   0  0  0  0  0  0  0  0  0  0  0  0
  -12.8887   -3.9273  -12.8353 C   0  0  0  0  0  0  0  0  0  0  0  0
  -14.1924   -4.4365  -12.3469 C   0  0  0  0  0  0  0  0  0  0  0  0
  -14.6701   -5.6668  -12.7897 C   0  0  0  0  0  0  0  0  0  0  0  0
  -15.9904   -6.0265  -12.5058 C   0  0  0  0  0  0  0  0  0  0  0  0
  -16.8017   -5.1490  -11.7989 C   0  0  0  0  0  0  0  0  0  0  0  0
  -16.2527   -3.9469  -11.3927 C   0  0  0  0  0  0  0  0  0  0  0  0
  -14.9738   -3.5790  -11.6447 N   0  0  0  0  0  0  0  0  0  0  0  0
 17 18  1  0  0  0
 18 19  1  0  0  0
 18 20  1  0  0  0
 18 11  1  0  0  0
 11 12  1  0  0  0
 11 16  2  0  0  0
 12 13  2  0  0  0
 13 14  1  0  0  0
 14  7  1  0  0  0
 14 15  2  0  0  0
  7  8  2  0  0  0
  7  9  1  0  0  0
  9  1  1  0  0  0
  9 10  1  0  0  0
  1  2  1  0  0  0
  1  6  2  0  0  0
  2  3  2  0  0  0
  3  4  1  0  0  0
  4  5  2  0  0  0
  5 21  1  0  0  0
  5  6  1  0  0  0
 21 22  2  0  0  0
 21 23  1  0  0  0
 23 24  1  0  0  0
 23 31  2  0  0  0
 24 25  2  0  0  0
 25 26  1  0  0  0
 26 27  1  0  0  0
 26 30  2  0  0  0
 27 33  1  0  0  0
 27 28  2  0  0  0
 33 34  2  0  0  0
 34 35  1  0  0  0
 35 36  1  0  0  0
 35 40  2  0  0  0
 36 37  2  0  0  0
 37 38  1  0  0  0
 38 39  2  0  0  0
 39 40  1  0  0  0
 28 29  1  0  0  0
 29 30  1  0  0  0
 29 32  1  0  0  0
 30 31  1  0  0  0
 15 16  1  0  0  0
M  END
> <minimizedAffinity>
-10.90628

$$$$
