CHEMBL3109350


 32 36  0  0  0  0  0  0  0  0999 V2000
  -15.3950   -1.1837  -13.3576 C   0  0  0  0  0  0  0  0  0  0  0  0
  -14.1370   -0.6259  -13.5193 C   0  0  0  0  0  0  0  0  0  0  0  0
  -14.0220    0.5259  -14.2772 C   0  0  0  0  0  0  0  0  0  0  0  0
  -15.1634    1.0982  -14.8488 C   0  0  0  0  0  0  0  0  0  0  0  0
  -15.0401    2.2777  -15.5968 C   0  0  0  0  0  0  0  0  0  0  0  0
  -16.1609    2.8709  -16.1607 C   0  0  0  0  0  0  0  0  0  0  0  0
  -17.4132    2.2988  -15.9643 C   0  0  0  0  0  0  0  0  0  0  0  0
  -17.5489    1.1274  -15.2059 C   0  0  0  0  0  0  0  0  0  0  0  0
  -16.4208    0.4868  -14.6399 C   0  0  0  0  0  0  0  0  0  0  0  0
  -16.5125   -0.6530  -13.9063 N   0  0  0  0  0  0  0  0  0  0  0  0
  -15.1570   -6.4158  -13.0192 C   0  0  0  0  0  0  0  0  0  0  0  0
  -14.9704   -5.5809  -14.2050 C   0  0  0  0  0  0  0  0  0  0  0  0
  -15.1063   -4.2583  -14.1076 C   0  0  0  0  0  0  0  0  0  0  0  0
  -15.4157   -3.6744  -12.8761 N   0  0  0  0  0  0  0  0  0  0  0  0
  -15.5712   -2.3528  -12.5092 C   0  0  0  0  0  0  0  0  0  0  0  0
  -15.8730   -2.4045  -11.1543 C   0  0  0  0  0  0  0  0  0  0  0  0
  -15.8797   -3.6880  -10.6791 N   0  0  0  0  0  0  0  0  0  0  0  0
  -15.5980   -4.4390  -11.7206 C   0  0  0  0  0  0  0  0  0  0  0  0
  -15.4589   -5.8533  -11.8337 C   0  0  0  0  0  0  0  0  0  0  0  0
  -15.0820   -7.7916  -13.1355 O   0  0  0  0  0  0  0  0  0  0  0  0
  -13.9673   -8.3190  -13.8648 C   0  0  0  0  0  0  0  0  0  0  0  0
  -13.1780   -9.2473  -12.9560 C   0  0  0  0  0  0  0  0  0  0  0  0
  -11.1347   -9.3893  -11.8010 C   0  0  0  0  0  0  0  0  0  0  0  0
  -11.8063   -8.8547  -12.9355 O   0  0  0  0  0  0  0  0  0  0  0  0
  -18.7666    0.5415  -14.9447 O   0  0  0  0  0  0  0  0  0  0  0  0
  -19.9606    1.2386  -15.3071 C   0  0  0  0  0  0  0  0  0  0  0  0
  -20.6651    1.7413  -14.0308 C   0  0  0  0  0  0  0  0  0  0  0  0
  -21.6522    0.7260  -13.4596 C   0  0  0  0  0  0  0  0  0  0  0  0
  -22.9948    1.1602  -14.0095 C   0  0  0  0  0  0  0  0  0  0  0  0
  -22.9306    2.6246  -13.9878 N   0  0  0  0  0  0  0  0  0  0  0  0
  -21.5347    2.9787  -14.2924 C   0  0  0  0  0  0  0  0  0  0  0  0
  -23.1480    2.9428  -13.0448 H   0  0  0  0  0  0  0  0  0  0  0  0
 23 24  1  0  0  0
 24 22  1  0  0  0
 22 21  1  0  0  0
 21 20  1  0  0  0
 20 11  1  0  0  0
 11 12  1  0  0  0
 11 19  2  0  0  0
 12 13  2  0  0  0
 13 14  1  0  0  0
 14 15  1  0  0  0
 14 18  1  0  0  0
 15  1  1  0  0  0
 15 16  2  0  0  0
  1  2  1  0  0  0
  1 10  2  0  0  0
  2  3  2  0  0  0
  3  4  1  0  0  0
  4  5  1  0  0  0
  4  9  2  0  0  0
  5  6  2  0  0  0
  6  7  1  0  0  0
  7  8  2  0  0  0
  8 25  1  0  0  0
  8  9  1  0  0  0
 25 26  1  0  0  0
 26 27  1  0  0  0
 27 28  1  0  0  0
 27 31  1  0  0  0
 28 29  1  0  0  0
 29 30  1  0  0  0
 30 31  1  0  0  0
 30 32  1  0  0  0
  9 10  1  0  0  0
 16 17  1  0  0  0
 17 18  2  0  0  0
 18 19  1  0  0  0
M  END
> <minimizedAffinity>
-8.18846

$$$$
