CHEMBL3964556


 33 37  0  0  0  0  0  0  0  0999 V2000
  -29.5940   -7.3229   -5.6945 C   0  0  0  0  0  0  0  0  0  0  0  0
  -29.1093   -8.6056   -5.9529 C   0  0  0  0  0  0  0  0  0  0  0  0
  -27.8683   -9.0348   -5.4369 C   0  0  0  0  0  0  0  0  0  0  0  0
  -27.3034  -10.2940   -5.6823 C   0  0  0  0  0  0  0  0  0  0  0  0
  -26.1338  -10.6685   -5.1324 N   0  0  0  0  0  0  0  0  0  0  0  0
  -25.5202   -9.7766   -4.3532 C   0  0  0  0  0  0  0  0  0  0  0  0
  -25.9620   -8.5475   -4.0694 N   0  0  0  0  0  0  0  0  0  0  0  0
  -27.1286   -8.1865   -4.6111 C   0  0  0  0  0  0  0  0  0  0  0  0
  -27.6235   -6.9160   -4.3518 C   0  0  0  0  0  0  0  0  0  0  0  0
  -28.8287   -6.4555   -4.8987 C   0  0  0  0  0  0  0  0  0  0  0  0
  -31.4425   -7.6501   -7.1622 C   0  0  0  0  0  0  0  0  0  0  0  0
  -30.7953   -6.8582   -6.1684 O   0  0  0  0  0  0  0  0  0  0  0  0
  -27.9767  -11.2022   -6.5481 N   0  0  0  0  0  0  0  0  0  0  0  0
  -28.7615  -11.6148   -6.0533 H   0  0  0  0  0  0  0  0  0  0  0  0
  -28.2632  -10.9227   -7.9008 C   0  0  0  0  0  0  0  0  0  0  0  0
  -29.3999  -11.4658   -8.5072 C   0  0  0  0  0  0  0  0  0  0  0  0
  -29.6466  -11.2874   -9.8682 C   0  0  0  0  0  0  0  0  0  0  0  0
  -28.7506  -10.5498  -10.6409 C   0  0  0  0  0  0  0  0  0  0  0  0
  -29.0703  -10.4232  -12.3325 Cl  0  0  0  0  0  0  0  0  0  0  0  0
  -27.6370   -9.9542  -10.0354 C   0  0  0  0  0  0  0  0  0  0  0  0
  -26.4967   -9.0099  -10.9288 Cl  0  0  0  0  0  0  0  0  0  0  0  0
  -27.4033  -10.1322   -8.6679 C   0  0  0  0  0  0  0  0  0  0  0  0
  -29.2792   -5.1650   -4.7625 O   0  0  0  0  0  0  0  0  0  0  0  0
  -28.6763   -4.1493   -5.5829 C   0  0  0  0  0  0  0  0  0  0  0  0
  -29.6886   -3.5016   -6.5269 C   0  0  0  0  0  0  0  0  0  0  0  0
  -30.3573   -2.4649   -5.7945 O   0  0  0  0  0  0  0  0  0  0  0  0
  -29.4159   -1.9576   -4.8387 C   0  0  0  0  0  0  0  0  0  0  0  0
  -28.7185   -0.7184   -5.3965 C   0  0  0  0  0  0  0  0  0  0  0  0
  -27.2925   -0.9364   -4.9323 C   0  0  0  0  0  0  0  0  0  0  0  0
  -27.0740   -2.3483   -5.0764 O   0  0  0  0  0  0  0  0  0  0  0  0
  -28.3016   -2.9863   -4.6715 C   0  0  0  0  0  0  0  0  0  0  0  0
  -29.2436    0.5157   -4.9143 O   0  0  0  0  0  0  0  0  0  0  0  0
  -30.3046    1.0046   -5.7312 C   0  0  0  0  0  0  0  0  0  0  0  0
 11 12  1  0  0  0
 12  1  1  0  0  0
  1  2  1  0  0  0
  1 10  2  0  0  0
  2  3  2  0  0  0
  3  4  1  0  0  0
  3  8  1  0  0  0
  4 13  1  0  0  0
  4  5  2  0  0  0
 13 15  1  0  0  0
 13 14  1  0  0  0
 15 16  1  0  0  0
 15 22  2  0  0  0
 16 17  2  0  0  0
 17 18  1  0  0  0
 18 19  1  0  0  0
 18 20  2  0  0  0
 20 21  1  0  0  0
 20 22  1  0  0  0
  5  6  1  0  0  0
  6  7  2  0  0  0
  7  8  1  0  0  0
  8  9  2  0  0  0
  9 10  1  0  0  0
 10 23  1  0  0  0
 24 25  1  0  0  0
 24 31  1  0  0  0
 24 23  1  0  0  0
 25 26  1  0  0  0
 26 27  1  0  0  0
 27 28  1  0  0  0
 27 31  1  0  0  0
 28 32  1  0  0  0
 28 29  1  0  0  0
 32 33  1  0  0  0
 29 30  1  0  0  0
 30 31  1  0  0  0
M  END
> <minimizedAffinity>
-7.74295

$$$$
