CHEMBL461392


 30 33  0  0  0  0  0  0  0  0999 V2000
  -15.3229   -1.4470  -13.2739 N   0  0  0  0  0  0  0  0  0  0  0  0
  -15.5148   -0.7216  -14.4282 C   0  0  0  0  0  0  0  0  0  0  0  0
  -15.7847    0.5577  -14.0013 C   0  0  0  0  0  0  0  0  0  0  0  0
  -15.8276    0.5645  -12.6322 N   0  0  0  0  0  0  0  0  0  0  0  0
  -15.5546   -0.6577  -12.1991 N   0  0  0  0  0  0  0  0  0  0  0  0
  -14.1389   -5.5152  -12.9137 C   0  0  0  0  0  0  0  0  0  0  0  0
  -13.2030   -4.4725  -12.8225 C   0  0  0  0  0  0  0  0  0  0  0  0
  -13.5851   -3.1315  -12.9354 C   0  0  0  0  0  0  0  0  0  0  0  0
  -14.9254   -2.7984  -13.1376 C   0  0  0  0  0  0  0  0  0  0  0  0
  -15.8837   -3.8156  -13.1920 C   0  0  0  0  0  0  0  0  0  0  0  0
  -15.4897   -5.1545  -13.0850 C   0  0  0  0  0  0  0  0  0  0  0  0
  -14.7562   -7.9389  -13.5307 C   0  0  0  0  0  0  0  0  0  0  0  0
  -13.7323   -6.9971  -12.8572 C   0  0  0  0  0  0  0  0  0  0  0  0
  -13.6063   -7.4411  -11.3834 C   0  0  0  0  0  0  0  0  0  0  0  0
  -12.3789   -7.2073  -13.5675 C   0  0  0  0  0  0  0  0  0  0  0  0
  -16.0456    1.7438  -14.8044 C   0  0  0  0  0  0  0  0  0  0  0  0
  -14.9267    2.2886  -15.4713 C   0  0  0  0  0  0  0  0  0  0  0  0
  -15.0454    3.3922  -16.3119 C   0  0  0  0  0  0  0  0  0  0  0  0
  -16.2870    3.9812  -16.4869 C   0  0  0  0  0  0  0  0  0  0  0  0
  -17.4038    3.4613  -15.8258 C   0  0  0  0  0  0  0  0  0  0  0  0
  -17.3302    2.3169  -15.0060 C   0  0  0  0  0  0  0  0  0  0  0  0
  -18.4815    1.8530  -14.3267 N   0  0  0  0  0  0  0  0  0  0  0  0
  -18.2253    1.3620  -13.4763 H   0  0  0  0  0  0  0  0  0  0  0  0
  -19.4526    1.0619  -15.0777 C   0  0  0  0  0  0  0  0  0  0  0  0
  -20.8408    1.3470  -14.5607 C   0  0  0  0  0  0  0  0  0  0  0  0
  -21.2760    2.6649  -14.3774 C   0  0  0  0  0  0  0  0  0  0  0  0
  -22.5625    2.8830  -13.9131 C   0  0  0  0  0  0  0  0  0  0  0  0
  -23.4288    1.8942  -13.6098 N   0  0  0  0  0  0  0  0  0  0  0  0
  -22.9859    0.6284  -13.7767 C   0  0  0  0  0  0  0  0  0  0  0  0
  -21.7208    0.3069  -14.2400 C   0  0  0  0  0  0  0  0  0  0  0  0
 12 13  1  0  0  0
 13 14  1  0  0  0
 13 15  1  0  0  0
 13  6  1  0  0  0
  6  7  1  0  0  0
  6 11  2  0  0  0
  7  8  2  0  0  0
  8  9  1  0  0  0
  9  1  1  0  0  0
  9 10  2  0  0  0
  1  2  1  0  0  0
  1  5  1  0  0  0
  2  3  2  0  0  0
  3 16  1  0  0  0
  3  4  1  0  0  0
 16 17  1  0  0  0
 16 21  2  0  0  0
 17 18  2  0  0  0
 18 19  1  0  0  0
 19 20  2  0  0  0
 20 21  1  0  0  0
 21 22  1  0  0  0
 22 24  1  0  0  0
 22 23  1  0  0  0
 24 25  1  0  0  0
 25 26  1  0  0  0
 25 30  2  0  0  0
 26 27  2  0  0  0
 27 28  1  0  0  0
 28 29  2  0  0  0
 29 30  1  0  0  0
  4  5  2  0  0  0
 10 11  1  0  0  0
M  END
> <minimizedAffinity>
-8.31707

$$$$
