CHEMBL271512


 42 46  0  0  0  0  0  0  0  0999 V2000
  -26.3796  -10.6030   -6.2997 C   0  0  0  0  0  0  0  0  0  0  0  0
  -25.7241  -10.8082   -7.4872 C   0  0  0  0  0  0  0  0  0  0  0  0
  -26.5488  -10.4080   -8.4925 N   0  0  0  0  0  0  0  0  0  0  0  0
  -26.2590  -10.5574   -9.7896 N   0  0  0  0  0  0  0  0  0  0  0  0
  -27.1755  -10.1161  -10.5829 C   0  0  0  0  0  0  0  0  0  0  0  0
  -28.3449   -9.5140  -10.2126 N   0  0  0  0  0  0  0  0  0  0  0  0
  -28.6419   -9.3560   -8.9548 C   0  0  0  0  0  0  0  0  0  0  0  0
  -27.6930   -9.8524   -7.9763 C   0  0  0  0  0  0  0  0  0  0  0  0
  -27.6331   -9.9466   -6.5795 C   0  0  0  0  0  0  0  0  0  0  0  0
  -24.5623  -11.1307   -3.2719 C   0  0  0  0  0  0  0  0  0  0  0  0
  -25.4662  -12.0717   -3.1295 N   0  0  0  0  0  0  0  0  0  0  0  0
  -26.2812  -11.9902   -4.2339 N   0  0  0  0  0  0  0  0  0  0  0  0
  -25.8008  -11.0239   -4.9926 C   0  0  0  0  0  0  0  0  0  0  0  0
  -24.6849  -10.4458   -4.4397 O   0  0  0  0  0  0  0  0  0  0  0  0
  -23.5163  -10.7867   -2.4998 N   0  0  0  0  0  0  0  0  0  0  0  0
  -23.1548   -9.8534   -2.6593 H   0  0  0  0  0  0  0  0  0  0  0  0
  -22.4990  -11.8057   -2.2880 C   0  0  0  0  0  0  0  0  0  0  0  0
  -21.3019  -11.5648   -3.2130 C   0  0  0  0  0  0  0  0  0  0  0  0
  -21.5786  -11.9021   -4.6772 C   0  0  0  0  0  0  0  0  0  0  0  0
  -21.7163  -10.9382   -6.8807 C   0  0  0  0  0  0  0  0  0  0  0  0
  -21.9121  -10.7126   -5.4564 N   0  0  0  0  0  0  0  0  0  0  0  0
  -22.8778  -10.4306   -5.2979 H   0  0  0  0  0  0  0  0  0  0  0  0
  -28.5705   -9.4572   -5.4897 C   0  0  0  0  0  0  0  0  0  0  0  0
  -29.3651  -10.5868   -4.8344 C   0  0  0  0  0  0  0  0  0  0  0  0
  -27.9393   -8.4932   -4.4891 C   0  0  0  0  0  0  0  0  0  0  0  0
  -29.8046   -8.7023   -8.6236 N   0  0  0  0  0  0  0  0  0  0  0  0
  -30.6602   -8.9814   -9.0722 H   0  0  0  0  0  0  0  0  0  0  0  0
  -29.9620   -7.6318   -7.7238 C   0  0  0  0  0  0  0  0  0  0  0  0
  -29.1769   -6.4730   -7.7872 C   0  0  0  0  0  0  0  0  0  0  0  0
  -29.3891   -5.3993   -6.9068 C   0  0  0  0  0  0  0  0  0  0  0  0
  -30.3587   -5.5291   -5.9103 C   0  0  0  0  0  0  0  0  0  0  0  0
  -30.6031   -4.5305   -5.0474 F   0  0  0  0  0  0  0  0  0  0  0  0
  -31.1148   -6.6900   -5.7899 C   0  0  0  0  0  0  0  0  0  0  0  0
  -30.9154   -7.7232   -6.7003 C   0  0  0  0  0  0  0  0  0  0  0  0
  -31.6656   -8.8306   -6.5928 F   0  0  0  0  0  0  0  0  0  0  0  0
  -28.6008   -4.1532   -7.1253 C   0  0  0  0  0  0  0  0  0  0  0  0
  -28.2206   -3.8660   -8.2574 O   0  0  0  0  0  0  0  0  0  0  0  0
  -28.3637   -3.3516   -6.0275 N   0  0  0  0  0  0  0  0  0  0  0  0
  -28.7350   -3.6208   -5.1218 H   0  0  0  0  0  0  0  0  0  0  0  0
  -27.7101   -2.0875   -6.1341 C   0  0  0  0  0  0  0  0  0  0  0  0
  -27.4613   -1.2385   -4.9206 C   0  0  0  0  0  0  0  0  0  0  0  0
  -28.4844   -0.8150   -5.9321 C   0  0  0  0  0  0  0  0  0  0  0  0
 20 21  1  0  0  0
 21 19  1  0  0  0
 21 22  1  0  0  0
 19 18  1  0  0  0
 18 17  1  0  0  0
 17 15  1  0  0  0
 15 10  1  0  0  0
 15 16  1  0  0  0
 10 11  2  0  0  0
 10 14  1  0  0  0
 11 12  1  0  0  0
 12 13  2  0  0  0
 13  1  1  0  0  0
 13 14  1  0  0  0
  1  2  2  0  0  0
  1  9  1  0  0  0
  2  3  1  0  0  0
  3  4  1  0  0  0
  3  8  1  0  0  0
  4  5  2  0  0  0
  5  6  1  0  0  0
  6  7  2  0  0  0
  7 26  1  0  0  0
  7  8  1  0  0  0
 26 28  1  0  0  0
 26 27  1  0  0  0
 28 29  1  0  0  0
 28 34  2  0  0  0
 29 30  2  0  0  0
 30 36  1  0  0  0
 30 31  1  0  0  0
 36 37  2  0  0  0
 36 38  1  0  0  0
 38 40  1  0  0  0
 38 39  1  0  0  0
 40 41  1  0  0  0
 40 42  1  0  0  0
 41 42  1  0  0  0
 31 32  1  0  0  0
 31 33  2  0  0  0
 33 34  1  0  0  0
 34 35  1  0  0  0
  8  9  2  0  0  0
  9 23  1  0  0  0
 23 24  1  0  0  0
 23 25  1  0  0  0
M  END
> <minimizedAffinity>
-7.96954

$$$$
