CHEMBL505698


 31 34  0  0  0  0  0  0  0  0999 V2000
  -20.3675    1.1982  -15.0505 C   0  0  0  0  0  0  0  0  0  0  0  0
  -20.5472    2.5703  -15.2328 C   0  0  0  0  0  0  0  0  0  0  0  0
  -19.4670    3.4421  -15.0728 C   0  0  0  0  0  0  0  0  0  0  0  0
  -18.1953    2.9437  -14.7820 C   0  0  0  0  0  0  0  0  0  0  0  0
  -17.9924    1.5666  -14.6490 C   0  0  0  0  0  0  0  0  0  0  0  0
  -19.0855    0.6988  -14.7753 C   0  0  0  0  0  0  0  0  0  0  0  0
  -16.6468    1.0427  -14.3840 C   0  0  0  0  0  0  0  0  0  0  0  0
  -16.2661    0.6434  -12.9902 C   0  0  0  0  0  0  0  0  0  0  0  0
  -15.1297    0.1515  -12.5979 N   0  0  0  0  0  0  0  0  0  0  0  0
  -14.1926   -0.0081  -13.5764 C   0  0  0  0  0  0  0  0  0  0  0  0
  -12.9030   -0.4843  -13.5310 C   0  0  0  0  0  0  0  0  0  0  0  0
  -12.4310   -0.3881  -14.8469 C   0  0  0  0  0  0  0  0  0  0  0  0
  -13.3362    0.1071  -15.6909 N   0  0  0  0  0  0  0  0  0  0  0  0
  -14.4414    0.3265  -14.9128 N   0  0  0  0  0  0  0  0  0  0  0  0
  -15.6974    0.8511  -15.3274 C   0  0  0  0  0  0  0  0  0  0  0  0
  -15.8473    1.1363  -16.6876 N   0  0  0  0  0  0  0  0  0  0  0  0
  -14.9386    1.2405  -17.1433 H   0  0  0  0  0  0  0  0  0  0  0  0
  -16.4783    1.9157  -16.8733 H   0  0  0  0  0  0  0  0  0  0  0  0
  -23.3273   -0.7435  -14.2288 N   0  0  0  0  0  0  0  0  0  0  0  0
  -22.2620    0.1090  -13.9768 C   0  0  0  0  0  0  0  0  0  0  0  0
  -22.0157    0.6413  -12.8997 O   0  0  0  0  0  0  0  0  0  0  0  0
  -21.4978    0.3431  -15.1161 N   0  0  0  0  0  0  0  0  0  0  0  0
  -23.2854   -1.2838  -15.0808 H   0  0  0  0  0  0  0  0  0  0  0  0
  -22.0305    0.3707  -15.9738 H   0  0  0  0  0  0  0  0  0  0  0  0
  -28.0166   -2.2143  -13.4868 C   0  0  0  0  0  0  0  0  0  0  0  0
  -26.6807   -1.7778  -12.9535 C   0  0  0  0  0  0  0  0  0  0  0  0
  -26.4889   -1.6897  -11.5709 C   0  0  0  0  0  0  0  0  0  0  0  0
  -25.2625   -1.2844  -11.0630 C   0  0  0  0  0  0  0  0  0  0  0  0
  -24.2172   -0.9685  -11.9298 C   0  0  0  0  0  0  0  0  0  0  0  0
  -24.3687   -1.0580  -13.3164 C   0  0  0  0  0  0  0  0  0  0  0  0
  -25.6165   -1.4633  -13.8211 C   0  0  0  0  0  0  0  0  0  0  0  0
 25 26  1  0  0  0
 26 27  1  0  0  0
 26 31  2  0  0  0
 27 28  2  0  0  0
 28 29  1  0  0  0
 29 30  2  0  0  0
 30 19  1  0  0  0
 30 31  1  0  0  0
 19 20  1  0  0  0
 19 23  1  0  0  0
 20 21  2  0  0  0
 20 22  1  0  0  0
 22  1  1  0  0  0
 22 24  1  0  0  0
  1  2  1  0  0  0
  1  6  2  0  0  0
  2  3  2  0  0  0
  3  4  1  0  0  0
  4  5  2  0  0  0
  5  7  1  0  0  0
  5  6  1  0  0  0
  7  8  1  0  0  0
  7 15  2  0  0  0
  8  9  2  0  0  0
  9 10  1  0  0  0
 10 11  2  0  0  0
 10 14  1  0  0  0
 11 12  1  0  0  0
 12 13  2  0  0  0
 13 14  1  0  0  0
 14 15  1  0  0  0
 15 16  1  0  0  0
 16 17  1  0  0  0
 16 18  1  0  0  0
M  END
> <minimizedAffinity>
-10.33242

$$$$
