CHEMBL4446129


 32 36  0  0  0  0  0  0  0  0999 V2000
  -16.0578    1.7786  -14.9957 C   0  0  0  0  0  0  0  0  0  0  0  0
  -15.0290    2.4144  -15.6574 C   0  0  0  0  0  0  0  0  0  0  0  0
  -15.5716    3.4610  -16.3604 N   0  0  0  0  0  0  0  0  0  0  0  0
  -16.9108    3.5268  -16.1939 N   0  0  0  0  0  0  0  0  0  0  0  0
  -17.2312    2.4980  -15.3923 C   0  0  0  0  0  0  0  0  0  0  0  0
  -18.6357    2.2439  -15.0422 C   0  0  0  0  0  0  0  0  0  0  0  0
  -19.2040    0.9700  -15.1972 C   0  0  0  0  0  0  0  0  0  0  0  0
  -20.5244    0.7208  -14.8140 C   0  0  0  0  0  0  0  0  0  0  0  0
  -21.3022    1.7564  -14.3064 C   0  0  0  0  0  0  0  0  0  0  0  0
  -22.9284    1.4490  -13.8384 Cl  0  0  0  0  0  0  0  0  0  0  0  0
  -20.7706    3.0379  -14.1802 C   0  0  0  0  0  0  0  0  0  0  0  0
  -19.4418    3.2800  -14.5466 C   0  0  0  0  0  0  0  0  0  0  0  0
  -14.8798    4.3887  -17.1858 C   0  0  0  0  0  0  0  0  0  0  0  0
  -13.7192    5.0292  -16.7255 C   0  0  0  0  0  0  0  0  0  0  0  0
  -13.0270    5.9087  -17.5580 C   0  0  0  0  0  0  0  0  0  0  0  0
  -13.4939    6.1641  -18.8449 C   0  0  0  0  0  0  0  0  0  0  0  0
  -14.6564    5.5447  -19.3028 C   0  0  0  0  0  0  0  0  0  0  0  0
  -15.3493    4.6552  -18.4791 C   0  0  0  0  0  0  0  0  0  0  0  0
  -16.3236    0.7994  -12.9050 O   0  0  0  0  0  0  0  0  0  0  0  0
  -15.9498    0.6694  -14.0608 C   0  0  0  0  0  0  0  0  0  0  0  0
  -15.3671   -0.4676  -14.5835 N   0  0  0  0  0  0  0  0  0  0  0  0
  -14.8683   -0.4328  -15.4554 H   0  0  0  0  0  0  0  0  0  0  0  0
  -15.1965   -1.6350  -13.8827 C   0  0  0  0  0  0  0  0  0  0  0  0
  -16.2073   -2.4045  -13.5614 N   0  0  0  0  0  0  0  0  0  0  0  0
  -15.7273   -3.5499  -12.9428 C   0  0  0  0  0  0  0  0  0  0  0  0
  -16.4882   -4.6721  -12.5578 C   0  0  0  0  0  0  0  0  0  0  0  0
  -15.8526   -5.7659  -11.9550 C   0  0  0  0  0  0  0  0  0  0  0  0
  -14.4825   -5.7414  -11.7179 C   0  0  0  0  0  0  0  0  0  0  0  0
  -13.7214   -7.0923  -10.9697 Cl  0  0  0  0  0  0  0  0  0  0  0  0
  -13.7044   -4.6419  -12.0803 C   0  0  0  0  0  0  0  0  0  0  0  0
  -14.3518   -3.5654  -12.7023 C   0  0  0  0  0  0  0  0  0  0  0  0
  -13.6718   -2.1087  -13.2915 S   0  0  0  0  0  0  0  0  0  0  0  0
 19 20  2  0  0  0
 20 21  1  0  0  0
 20  1  1  0  0  0
 21 23  1  0  0  0
 21 22  1  0  0  0
 23 24  2  0  0  0
 23 32  1  0  0  0
 24 25  1  0  0  0
 25 26  1  0  0  0
 25 31  2  0  0  0
 26 27  2  0  0  0
 27 28  1  0  0  0
 28 29  1  0  0  0
 28 30  2  0  0  0
 30 31  1  0  0  0
 31 32  1  0  0  0
  1  2  2  0  0  0
  1  5  1  0  0  0
  2  3  1  0  0  0
  3 13  1  0  0  0
  3  4  1  0  0  0
 13 14  1  0  0  0
 13 18  2  0  0  0
 14 15  2  0  0  0
 15 16  1  0  0  0
 16 17  2  0  0  0
 17 18  1  0  0  0
  4  5  2  0  0  0
  5  6  1  0  0  0
  6  7  1  0  0  0
  6 12  2  0  0  0
  7  8  2  0  0  0
  8  9  1  0  0  0
  9 10  1  0  0  0
  9 11  2  0  0  0
 11 12  1  0  0  0
M  END
> <minimizedAffinity>
-9.93066

$$$$
