CHEMBL348218


 31 36  0  0  0  0  0  0  0  0999 V2000
  -11.4451   -4.1907  -19.6939 C   0  0  0  0  0  0  0  0  0  0  0  0
  -12.0304   -3.9413  -18.3384 C   0  0  0  0  0  0  0  0  0  0  0  0
  -12.1391   -2.6412  -17.8431 C   0  0  0  0  0  0  0  0  0  0  0  0
  -12.8017   -2.3537  -16.6718 C   0  0  0  0  0  0  0  0  0  0  0  0
  -13.3766   -3.4286  -15.9505 C   0  0  0  0  0  0  0  0  0  0  0  0
  -13.2261   -4.7603  -16.4016 C   0  0  0  0  0  0  0  0  0  0  0  0
  -12.5263   -5.0234  -17.5916 C   0  0  0  0  0  0  0  0  0  0  0  0
  -13.8332   -5.4767  -15.4068 C   0  0  0  0  0  0  0  0  0  0  0  0
  -13.5273   -6.7897  -14.9617 C   0  0  0  0  0  0  0  0  0  0  0  0
  -13.7570   -7.0478  -13.5351 C   0  0  0  0  0  0  0  0  0  0  0  0
  -14.2472   -5.9940  -12.7381 C   0  0  0  0  0  0  0  0  0  0  0  0
  -15.1858   -5.3467  -13.5414 C   0  0  0  0  0  0  0  0  0  0  0  0
  -14.6349   -4.7259  -14.5999 C   0  0  0  0  0  0  0  0  0  0  0  0
  -14.0271   -3.4645  -14.7111 N   0  0  0  0  0  0  0  0  0  0  0  0
  -16.4981   -5.3290  -12.8841 C   0  0  0  0  0  0  0  0  0  0  0  0
  -15.9720   -4.9231  -11.5413 C   0  0  0  0  0  0  0  0  0  0  0  0
  -16.4421   -3.7195  -11.0026 C   0  0  0  0  0  0  0  0  0  0  0  0
  -15.5410   -2.9218  -10.3264 C   0  0  0  0  0  0  0  0  0  0  0  0
  -14.2302   -3.3835  -10.1251 C   0  0  0  0  0  0  0  0  0  0  0  0
  -13.7779   -4.6381  -10.6399 C   0  0  0  0  0  0  0  0  0  0  0  0
  -14.6324   -5.4489  -11.4118 C   0  0  0  0  0  0  0  0  0  0  0  0
  -13.8550   -8.4837  -13.4069 C   0  0  0  0  0  0  0  0  0  0  0  0
  -14.2083   -9.2160  -12.4926 O   0  0  0  0  0  0  0  0  0  0  0  0
  -13.6320   -8.9797  -14.7125 N   0  0  0  0  0  0  0  0  0  0  0  0
  -13.3771   -7.9959  -15.7597 C   0  0  0  0  0  0  0  0  0  0  0  0
  -14.0103   -9.8902  -14.9374 H   0  0  0  0  0  0  0  0  0  0  0  0
  -13.6405   -2.6860  -13.5254 C   0  0  0  0  0  0  0  0  0  0  0  0
  -13.9449   -1.1920  -13.4615 C   0  0  0  0  0  0  0  0  0  0  0  0
  -15.4355   -0.8840  -13.3248 C   0  0  0  0  0  0  0  0  0  0  0  0
  -15.6315    0.0281  -12.2472 O   0  0  0  0  0  0  0  0  0  0  0  0
  -15.3560   -0.4148  -11.4262 H   0  0  0  0  0  0  0  0  0  0  0  0
  1  2  1  0  0  0
  2  3  1  0  0  0
  2  7  2  0  0  0
  3  4  2  0  0  0
  4  5  1  0  0  0
  5  6  2  0  0  0
  5 14  1  0  0  0
  6  7  1  0  0  0
  6  8  1  0  0  0
  8  9  1  0  0  0
  8 13  2  0  0  0
  9 10  2  0  0  0
  9 25  1  0  0  0
 10 11  1  0  0  0
 10 22  1  0  0  0
 11 12  2  0  0  0
 11 21  1  0  0  0
 12 13  1  0  0  0
 12 15  1  0  0  0
 13 14  1  0  0  0
 14 27  1  0  0  0
 27 28  1  0  0  0
 28 29  1  0  0  0
 29 30  1  0  0  0
 30 31  1  0  0  0
 15 16  1  0  0  0
 16 17  1  0  0  0
 16 21  2  0  0  0
 17 18  2  0  0  0
 18 19  1  0  0  0
 19 20  2  0  0  0
 20 21  1  0  0  0
 22 23  2  0  0  0
 22 24  1  0  0  0
 24 25  1  0  0  0
 24 26  1  0  0  0
M  END
> <minimizedAffinity>
-7.77538

$$$$
