CHEMBL480356


 38 41  0  0  0  0  0  0  0  0999 V2000
  -26.3470   -8.8117   -4.2176 C   0  0  0  0  0  0  0  0  0  0  0  0
  -27.4925   -8.8332   -4.9195 C   0  0  0  0  0  0  0  0  0  0  0  0
  -27.9753   -9.9731   -5.7816 C   0  0  0  0  0  0  0  0  0  0  0  0
  -27.4176  -11.0083   -6.0797 O   0  0  0  0  0  0  0  0  0  0  0  0
  -29.2447   -9.6053   -6.1887 N   0  0  0  0  0  0  0  0  0  0  0  0
  -29.5856   -8.3425   -5.7245 C   0  0  0  0  0  0  0  0  0  0  0  0
  -30.7665   -7.6857   -5.9959 C   0  0  0  0  0  0  0  0  0  0  0  0
  -30.9142   -6.3991   -5.4796 C   0  0  0  0  0  0  0  0  0  0  0  0
  -29.8904   -5.7926   -4.7100 C   0  0  0  0  0  0  0  0  0  0  0  0
  -28.6954   -6.5061   -4.4357 C   0  0  0  0  0  0  0  0  0  0  0  0
  -28.5600   -7.7912   -4.9542 C   0  0  0  0  0  0  0  0  0  0  0  0
  -29.8094  -10.1970   -6.7798 H   0  0  0  0  0  0  0  0  0  0  0  0
  -23.9576  -12.4660   -2.0620 C   0  0  0  0  0  0  0  0  0  0  0  0
  -24.2934  -11.5718   -3.2115 C   0  0  0  0  0  0  0  0  0  0  0  0
  -25.2829  -10.6294   -3.0709 N   0  0  0  0  0  0  0  0  0  0  0  0
  -25.4104   -9.8844   -4.2149 C   0  0  0  0  0  0  0  0  0  0  0  0
  -24.5029  -10.3835   -5.1334 C   0  0  0  0  0  0  0  0  0  0  0  0
  -24.2976   -9.8866   -6.5204 C   0  0  0  0  0  0  0  0  0  0  0  0
  -23.7734  -11.4600   -4.4946 C   0  0  0  0  0  0  0  0  0  0  0  0
  -25.8205  -10.4831   -2.2253 H   0  0  0  0  0  0  0  0  0  0  0  0
  -22.6739  -12.2912   -5.1287 C   0  0  0  0  0  0  0  0  0  0  0  0
  -21.3773  -11.5129   -5.3723 C   0  0  0  0  0  0  0  0  0  0  0  0
  -21.2048  -11.0979   -6.8046 C   0  0  0  0  0  0  0  0  0  0  0  0
  -21.6016  -11.7011   -7.7803 O   0  0  0  0  0  0  0  0  0  0  0  0
  -20.5636   -9.8949   -6.9176 O   0  0  0  0  0  0  0  0  0  0  0  0
  -20.2948   -9.5218   -6.0511 H   0  0  0  0  0  0  0  0  0  0  0  0
  -30.1370   -4.3710   -4.2785 C   0  0  0  0  0  0  0  0  0  0  0  0
  -31.1795   -4.0722   -3.6979 O   0  0  0  0  0  0  0  0  0  0  0  0
  -29.1653   -3.4319   -4.5893 N   0  0  0  0  0  0  0  0  0  0  0  0
  -28.1899   -3.6961   -4.5419 H   0  0  0  0  0  0  0  0  0  0  0  0
  -29.4039   -2.1252   -4.1253 N   0  0  0  0  0  0  0  0  0  0  0  0
  -30.3010   -2.0417   -3.6259 H   0  0  0  0  0  0  0  0  0  0  0  0
  -29.2039   -1.0779   -5.0554 C   0  0  0  0  0  0  0  0  0  0  0  0
  -28.0575   -0.9354   -5.8509 C   0  0  0  0  0  0  0  0  0  0  0  0
  -27.8692    0.2038   -6.6457 C   0  0  0  0  0  0  0  0  0  0  0  0
  -28.8227    1.2183   -6.6535 C   0  0  0  0  0  0  0  0  0  0  0  0
  -29.9719    1.0895   -5.8815 C   0  0  0  0  0  0  0  0  0  0  0  0
  -30.1567   -0.0476   -5.0899 C   0  0  0  0  0  0  0  0  0  0  0  0
 13 14  1  0  0  0
 14 15  1  0  0  0
 14 19  2  0  0  0
 15 16  1  0  0  0
 15 20  1  0  0  0
 16  1  1  0  0  0
 16 17  2  0  0  0
  1  2  2  0  0  0
  2  3  1  0  0  0
  2 11  1  0  0  0
  3  4  2  0  0  0
  3  5  1  0  0  0
  5  6  1  0  0  0
  5 12  1  0  0  0
  6  7  1  0  0  0
  6 11  2  0  0  0
  7  8  2  0  0  0
  8  9  1  0  0  0
  9 27  1  0  0  0
  9 10  2  0  0  0
 27 28  2  0  0  0
 27 29  1  0  0  0
 29 31  1  0  0  0
 29 30  1  0  0  0
 31 33  1  0  0  0
 31 32  1  0  0  0
 33 34  1  0  0  0
 33 38  2  0  0  0
 34 35  2  0  0  0
 35 36  1  0  0  0
 36 37  2  0  0  0
 37 38  1  0  0  0
 10 11  1  0  0  0
 17 18  1  0  0  0
 17 19  1  0  0  0
 19 21  1  0  0  0
 21 22  1  0  0  0
 22 23  1  0  0  0
 23 24  2  0  0  0
 23 25  1  0  0  0
 25 26  1  0  0  0
M  END
> <minimizedAffinity>
-8.66941

$$$$
