CHEMBL4758393


 34 37  0  0  0  0  0  0  0  0999 V2000
  -29.2556   -7.9853   -6.4402 C   0  0  0  0  0  0  0  0  0  0  0  0
  -28.7259   -7.3769   -7.5720 C   0  0  0  0  0  0  0  0  0  0  0  0
  -28.7540   -5.9863   -7.7190 C   0  0  0  0  0  0  0  0  0  0  0  0
  -29.3258   -5.1697   -6.7394 C   0  0  0  0  0  0  0  0  0  0  0  0
  -29.9615   -5.7825   -5.6587 C   0  0  0  0  0  0  0  0  0  0  0  0
  -29.9373   -7.1752   -5.5204 C   0  0  0  0  0  0  0  0  0  0  0  0
  -29.2616   -3.7548   -6.7577 N   0  0  0  0  0  0  0  0  0  0  0  0
  -28.4792   -2.9705   -5.9252 C   0  0  0  0  0  0  0  0  0  0  0  0
  -27.6644   -3.3954   -5.1109 O   0  0  0  0  0  0  0  0  0  0  0  0
  -29.9250   -3.2877   -7.3668 H   0  0  0  0  0  0  0  0  0  0  0  0
  -28.6594   -1.5021   -5.9907 C   0  0  0  0  0  0  0  0  0  0  0  0
  -28.1011   -0.7123   -6.9952 C   0  0  0  0  0  0  0  0  0  0  0  0
  -27.2596   -1.2379   -7.8984 F   0  0  0  0  0  0  0  0  0  0  0  0
  -28.4154    0.6463   -7.1021 C   0  0  0  0  0  0  0  0  0  0  0  0
  -29.2946    1.2340   -6.1924 C   0  0  0  0  0  0  0  0  0  0  0  0
  -29.8348    0.4644   -5.1663 C   0  0  0  0  0  0  0  0  0  0  0  0
  -29.5139   -0.8888   -5.0689 C   0  0  0  0  0  0  0  0  0  0  0  0
  -30.0465   -1.5736   -4.0462 F   0  0  0  0  0  0  0  0  0  0  0  0
  -29.1388   -9.3772   -6.2582 N   0  0  0  0  0  0  0  0  0  0  0  0
  -29.9882   -9.8091   -5.9079 H   0  0  0  0  0  0  0  0  0  0  0  0
  -24.3289  -10.8942   -6.9231 C   0  0  0  0  0  0  0  0  0  0  0  0
  -25.1436  -11.5101   -7.8914 C   0  0  0  0  0  0  0  0  0  0  0  0
  -26.5155  -11.3192   -7.9446 C   0  0  0  0  0  0  0  0  0  0  0  0
  -27.1942  -11.8486   -8.9666 N   0  0  0  0  0  0  0  0  0  0  0  0
  -28.4955  -11.5552   -9.0327 C   0  0  0  0  0  0  0  0  0  0  0  0
  -29.1681  -10.7833   -8.1796 N   0  0  0  0  0  0  0  0  0  0  0  0
  -28.4785  -10.2682   -7.1442 C   0  0  0  0  0  0  0  0  0  0  0  0
  -27.1143  -10.5367   -6.9575 C   0  0  0  0  0  0  0  0  0  0  0  0
  -26.3248  -10.0328   -5.9005 C   0  0  0  0  0  0  0  0  0  0  0  0
  -24.9355  -10.1939   -5.8766 C   0  0  0  0  0  0  0  0  0  0  0  0
  -22.4564  -12.0611   -7.7813 C   0  0  0  0  0  0  0  0  0  0  0  0
  -22.9626  -10.9758   -6.9959 O   0  0  0  0  0  0  0  0  0  0  0  0
  -24.3853   -9.5735   -4.7930 O   0  0  0  0  0  0  0  0  0  0  0  0
  -25.2056   -9.1406   -3.7234 C   0  0  0  0  0  0  0  0  0  0  0  0
 31 32  1  0  0  0
 32 21  1  0  0  0
 21 22  1  0  0  0
 21 30  2  0  0  0
 22 23  2  0  0  0
 23 24  1  0  0  0
 23 28  1  0  0  0
 24 25  2  0  0  0
 25 26  1  0  0  0
 26 27  2  0  0  0
 27 19  1  0  0  0
 27 28  1  0  0  0
 19  1  1  0  0  0
 19 20  1  0  0  0
  1  2  1  0  0  0
  1  6  2  0  0  0
  2  3  2  0  0  0
  3  4  1  0  0  0
  4  7  1  0  0  0
  4  5  2  0  0  0
  7  8  1  0  0  0
  7 10  1  0  0  0
  8  9  2  0  0  0
  8 11  1  0  0  0
 11 12  1  0  0  0
 11 17  2  0  0  0
 12 13  1  0  0  0
 12 14  2  0  0  0
 14 15  1  0  0  0
 15 16  2  0  0  0
 16 17  1  0  0  0
 17 18  1  0  0  0
  5  6  1  0  0  0
 28 29  2  0  0  0
 29 30  1  0  0  0
 30 33  1  0  0  0
 33 34  1  0  0  0
M  END
> <minimizedAffinity>
-8.42890

$$$$
