CHEMBL3774953


 26 28  0  0  0  0  0  0  0  0999 V2000
  -27.8330   -2.4471   -5.4155 C   0  0  0  0  0  0  0  0  0  0  0  0
  -28.0884   -3.3471   -4.3623 C   0  0  0  0  0  0  0  0  0  0  0  0
  -28.7918   -4.5303   -4.5382 C   0  0  0  0  0  0  0  0  0  0  0  0
  -28.9251   -5.3595   -3.4973 N   0  0  0  0  0  0  0  0  0  0  0  0
  -29.5915   -6.4960   -3.7229 C   0  0  0  0  0  0  0  0  0  0  0  0
  -30.1310   -6.8774   -4.8821 N   0  0  0  0  0  0  0  0  0  0  0  0
  -30.0036   -6.0264   -5.9168 C   0  0  0  0  0  0  0  0  0  0  0  0
  -29.3185   -4.8063   -5.7975 C   0  0  0  0  0  0  0  0  0  0  0  0
  -29.1385   -3.8721   -6.8436 C   0  0  0  0  0  0  0  0  0  0  0  0
  -28.3832   -2.7061   -6.6740 C   0  0  0  0  0  0  0  0  0  0  0  0
  -27.8348   -0.1304   -4.9440 C   0  0  0  0  0  0  0  0  0  0  0  0
  -27.0857   -1.3152   -5.2174 O   0  0  0  0  0  0  0  0  0  0  0  0
  -30.5546   -6.3890   -7.1734 N   0  0  0  0  0  0  0  0  0  0  0  0
  -30.4466   -5.6127   -7.8239 H   0  0  0  0  0  0  0  0  0  0  0  0
  -30.3367   -7.6354   -7.8169 C   0  0  0  0  0  0  0  0  0  0  0  0
  -29.1054   -7.9408   -8.4150 C   0  0  0  0  0  0  0  0  0  0  0  0
  -28.0809   -7.0721   -8.3530 F   0  0  0  0  0  0  0  0  0  0  0  0
  -28.8770   -9.1565   -9.0519 C   0  0  0  0  0  0  0  0  0  0  0  0
  -29.8856  -10.1171   -9.0958 C   0  0  0  0  0  0  0  0  0  0  0  0
  -31.1115   -9.8503   -8.4867 C   0  0  0  0  0  0  0  0  0  0  0  0
  -32.0988  -10.7975   -8.5187 O   0  0  0  0  0  0  0  0  0  0  0  0
  -31.3393   -8.6224   -7.8448 C   0  0  0  0  0  0  0  0  0  0  0  0
  -32.8728   -8.3056   -7.0932 Cl  0  0  0  0  0  0  0  0  0  0  0  0
  -31.7893  -11.5743   -9.0125 H   0  0  0  0  0  0  0  0  0  0  0  0
  -28.2925   -1.9999   -7.8375 O   0  0  0  0  0  0  0  0  0  0  0  0
  -27.5340   -2.4936   -8.9313 C   0  0  0  0  0  0  0  0  0  0  0  0
 11 12  1  0  0  0
 12  1  1  0  0  0
  1  2  1  0  0  0
  1 10  2  0  0  0
  2  3  2  0  0  0
  3  4  1  0  0  0
  3  8  1  0  0  0
  4  5  2  0  0  0
  5  6  1  0  0  0
  6  7  2  0  0  0
  7 13  1  0  0  0
  7  8  1  0  0  0
 13 15  1  0  0  0
 13 14  1  0  0  0
 15 16  1  0  0  0
 15 22  2  0  0  0
 16 17  1  0  0  0
 16 18  2  0  0  0
 18 19  1  0  0  0
 19 20  2  0  0  0
 20 21  1  0  0  0
 20 22  1  0  0  0
 21 24  1  0  0  0
 22 23  1  0  0  0
  8  9  2  0  0  0
  9 10  1  0  0  0
 10 25  1  0  0  0
 25 26  1  0  0  0
M  END
> <minimizedAffinity>
-8.09103

$$$$
