CHEMBL3979172


 33 36  0  0  0  0  0  0  0  0999 V2000
  -29.8788   -9.4390   -7.4509 N   0  0  0  0  0  0  0  0  0  0  0  0
  -29.4752   -8.2142   -6.7948 C   0  0  0  0  0  0  0  0  0  0  0  0
  -29.4556   -8.2881   -5.4027 C   0  0  0  0  0  0  0  0  0  0  0  0
  -29.7314   -7.1695   -4.6466 C   0  0  0  0  0  0  0  0  0  0  0  0
  -29.8129   -5.9204   -5.2024 C   0  0  0  0  0  0  0  0  0  0  0  0
  -30.2739   -4.9916   -4.3710 N   0  0  0  0  0  0  0  0  0  0  0  0
  -30.1610   -3.7176   -4.7692 C   0  0  0  0  0  0  0  0  0  0  0  0
  -29.5132   -3.3740   -5.9392 C   0  0  0  0  0  0  0  0  0  0  0  0
  -29.1744   -4.3404   -6.8700 N   0  0  0  0  0  0  0  0  0  0  0  0
  -29.4061   -5.6892   -6.5402 C   0  0  0  0  0  0  0  0  0  0  0  0
  -29.3175   -6.9086   -7.3518 C   0  0  0  0  0  0  0  0  0  0  0  0
  -29.0516   -1.9799   -6.0091 C   0  0  0  0  0  0  0  0  0  0  0  0
  -28.1536   -1.3897   -6.9387 C   0  0  0  0  0  0  0  0  0  0  0  0
  -27.6880   -0.1969   -6.5439 N   0  0  0  0  0  0  0  0  0  0  0  0
  -28.2711   -0.0137   -5.3483 N   0  0  0  0  0  0  0  0  0  0  0  0
  -28.1958    1.2690   -4.6849 C   0  0  0  0  0  0  0  0  0  0  0  0
  -28.9649   -1.1165   -4.9212 C   0  0  0  0  0  0  0  0  0  0  0  0
  -28.8459  -10.5595  -10.8985 C   0  0  0  0  0  0  0  0  0  0  0  0
  -27.7968  -11.4323  -10.6032 C   0  0  0  0  0  0  0  0  0  0  0  0
  -27.4396  -11.6544   -9.2796 C   0  0  0  0  0  0  0  0  0  0  0  0
  -28.1698  -11.0478   -8.2487 C   0  0  0  0  0  0  0  0  0  0  0  0
  -29.2439  -10.1705   -8.4927 C   0  0  0  0  0  0  0  0  0  0  0  0
  -29.5594   -9.9360   -9.8471 C   0  0  0  0  0  0  0  0  0  0  0  0
  -28.2231   -9.7352  -13.0544 C   0  0  0  0  0  0  0  0  0  0  0  0
  -29.2352  -10.2332  -12.1760 O   0  0  0  0  0  0  0  0  0  0  0  0
  -26.4077  -12.4591   -8.8713 O   0  0  0  0  0  0  0  0  0  0  0  0
  -25.2112  -11.7913   -8.4792 C   0  0  0  0  0  0  0  0  0  0  0  0
  -31.3953   -9.5473   -7.3798 C   0  0  0  0  0  0  0  0  0  0  0  0
  -31.9926  -10.8919   -6.8522 C   0  0  0  0  0  0  0  0  0  0  0  0
  -31.0770  -11.6664   -5.8988 C   0  0  0  0  0  0  0  0  0  0  0  0
  -33.2528  -10.6196   -6.1156 N   0  0  0  0  0  0  0  0  0  0  0  0
  -33.0376  -10.2025   -5.2074 H   0  0  0  0  0  0  0  0  0  0  0  0
  -33.7169  -11.5028   -5.9006 H   0  0  0  0  0  0  0  0  0  0  0  0
 24 25  1  0  0  0
 25 18  1  0  0  0
 18 19  1  0  0  0
 18 23  2  0  0  0
 19 20  2  0  0  0
 20 26  1  0  0  0
 20 21  1  0  0  0
 26 27  1  0  0  0
 21 22  2  0  0  0
 22  1  1  0  0  0
 22 23  1  0  0  0
  1 28  1  0  0  0
  1  2  1  0  0  0
 28 29  1  0  0  0
 29 30  1  0  0  0
 29 31  1  0  0  0
 31 32  1  0  0  0
 31 33  1  0  0  0
  2  3  1  0  0  0
  2 11  2  0  0  0
  3  4  2  0  0  0
  4  5  1  0  0  0
  5  6  1  0  0  0
  5 10  2  0  0  0
  6  7  2  0  0  0
  7  8  1  0  0  0
  8 12  1  0  0  0
  8  9  2  0  0  0
 12 13  1  0  0  0
 12 17  2  0  0  0
 13 14  2  0  0  0
 14 15  1  0  0  0
 15 16  1  0  0  0
 15 17  1  0  0  0
  9 10  1  0  0  0
 10 11  1  0  0  0
M  END
> <minimizedAffinity>
-7.63937

$$$$
