CHEMBL393001


 24 26  0  0  0  0  0  0  0  0999 V2000
  -29.3994   -6.5666   -4.3198 C   0  0  0  0  0  0  0  0  0  0  0  0
  -29.5638   -7.1124   -3.1270 N   0  0  0  0  0  0  0  0  0  0  0  0
  -29.1741   -8.4196   -3.2431 N   0  0  0  0  0  0  0  0  0  0  0  0
  -28.7585   -8.6829   -4.4707 N   0  0  0  0  0  0  0  0  0  0  0  0
  -28.9129   -7.5394   -5.1638 N   0  0  0  0  0  0  0  0  0  0  0  0
  -30.8089   -4.7534   -4.7281 O   0  0  0  0  0  0  0  0  0  0  0  0
  -29.6667   -5.1757   -4.6066 C   0  0  0  0  0  0  0  0  0  0  0  0
  -28.5097   -4.4131   -4.7735 N   0  0  0  0  0  0  0  0  0  0  0  0
  -27.6394   -4.9348   -4.7590 H   0  0  0  0  0  0  0  0  0  0  0  0
  -28.4475   -3.0501   -5.1415 C   0  0  0  0  0  0  0  0  0  0  0  0
  -28.6614   -2.0060   -4.2381 C   0  0  0  0  0  0  0  0  0  0  0  0
  -28.7017   -0.6779   -4.6742 C   0  0  0  0  0  0  0  0  0  0  0  0
  -28.5171   -0.3840   -6.0206 C   0  0  0  0  0  0  0  0  0  0  0  0
  -28.6465    1.2419   -6.5658 Cl  0  0  0  0  0  0  0  0  0  0  0  0
  -28.2400   -1.4059   -6.9252 C   0  0  0  0  0  0  0  0  0  0  0  0
  -28.1864   -2.7353   -6.4838 C   0  0  0  0  0  0  0  0  0  0  0  0
  -28.4700   -7.4558   -6.5451 C   0  0  0  0  0  0  0  0  0  0  0  0
  -29.5796   -7.0459   -7.5300 C   0  0  0  0  0  0  0  0  0  0  0  0
  -30.6899   -8.0644   -7.6427 C   0  0  0  0  0  0  0  0  0  0  0  0
  -30.4837   -9.2847   -8.2944 C   0  0  0  0  0  0  0  0  0  0  0  0
  -31.5349  -10.1893   -8.3689 C   0  0  0  0  0  0  0  0  0  0  0  0
  -32.7571   -9.9635   -7.8463 N   0  0  0  0  0  0  0  0  0  0  0  0
  -32.9368   -8.7844   -7.2159 C   0  0  0  0  0  0  0  0  0  0  0  0
  -31.9490   -7.8170   -7.0887 C   0  0  0  0  0  0  0  0  0  0  0  0
  6  7  2  0  0  0
  7  8  1  0  0  0
  7  1  1  0  0  0
  8 10  1  0  0  0
  8  9  1  0  0  0
 10 11  1  0  0  0
 10 16  2  0  0  0
 11 12  2  0  0  0
 12 13  1  0  0  0
 13 14  1  0  0  0
 13 15  2  0  0  0
 15 16  1  0  0  0
  1  2  2  0  0  0
  1  5  1  0  0  0
  2  3  1  0  0  0
  3  4  2  0  0  0
  4  5  1  0  0  0
  5 17  1  0  0  0
 17 18  1  0  0  0
 18 19  1  0  0  0
 19 20  1  0  0  0
 19 24  2  0  0  0
 20 21  2  0  0  0
 21 22  1  0  0  0
 22 23  2  0  0  0
 23 24  1  0  0  0
M  END
> <minimizedAffinity>
-7.91284

$$$$
