CHEMBL1988153


 26 29  0  0  0  0  0  0  0  0999 V2000
  -28.2549   -8.8644   -7.6656 C   0  0  0  0  0  0  0  0  0  0  0  0
  -28.9844   -7.7292   -7.3732 C   0  0  0  0  0  0  0  0  0  0  0  0
  -29.1743   -7.5211   -5.9585 C   0  0  0  0  0  0  0  0  0  0  0  0
  -29.8859   -6.5282   -5.2450 C   0  0  0  0  0  0  0  0  0  0  0  0
  -29.9817   -6.7077   -3.8646 C   0  0  0  0  0  0  0  0  0  0  0  0
  -29.3348   -7.6595   -3.1603 N   0  0  0  0  0  0  0  0  0  0  0  0
  -28.5762   -8.5511   -3.8296 C   0  0  0  0  0  0  0  0  0  0  0  0
  -28.5237   -8.5170   -5.2240 C   0  0  0  0  0  0  0  0  0  0  0  0
  -27.6997   -9.6250   -6.2433 S   0  0  0  0  0  0  0  0  0  0  0  0
  -28.8472  -10.2953  -12.2620 C   0  0  0  0  0  0  0  0  0  0  0  0
  -28.1533  -10.0616  -10.9842 C   0  0  0  0  0  0  0  0  0  0  0  0
  -26.8964  -10.2515  -10.6534 N   0  0  0  0  0  0  0  0  0  0  0  0
  -26.7735   -9.8347   -9.3429 N   0  0  0  0  0  0  0  0  0  0  0  0
  -27.9649   -9.4197   -8.9566 C   0  0  0  0  0  0  0  0  0  0  0  0
  -28.8982   -9.5499   -9.9624 O   0  0  0  0  0  0  0  0  0  0  0  0
  -30.4928   -5.4946   -5.9334 O   0  0  0  0  0  0  0  0  0  0  0  0
  -29.8948   -4.2519   -5.9214 C   0  0  0  0  0  0  0  0  0  0  0  0
  -28.9548   -3.8369   -6.8692 C   0  0  0  0  0  0  0  0  0  0  0  0
  -28.3025   -2.6123   -6.7218 C   0  0  0  0  0  0  0  0  0  0  0  0
  -28.6285   -1.7556   -5.6610 C   0  0  0  0  0  0  0  0  0  0  0  0
  -29.6565   -2.1311   -4.7803 C   0  0  0  0  0  0  0  0  0  0  0  0
  -30.2845   -3.3745   -4.9093 C   0  0  0  0  0  0  0  0  0  0  0  0
  -27.8808   -0.4605   -5.4536 C   0  0  0  0  0  0  0  0  0  0  0  0
  -27.6401    0.2187   -6.6102 F   0  0  0  0  0  0  0  0  0  0  0  0
  -28.5473    0.4047   -4.6430 F   0  0  0  0  0  0  0  0  0  0  0  0
  -26.6613   -0.6524   -4.8769 F   0  0  0  0  0  0  0  0  0  0  0  0
 10 11  1  0  0  0
 11 12  2  0  0  0
 11 15  1  0  0  0
 12 13  1  0  0  0
 13 14  2  0  0  0
 14  1  1  0  0  0
 14 15  1  0  0  0
  1  2  2  0  0  0
  1  9  1  0  0  0
  2  3  1  0  0  0
  3  4  1  0  0  0
  3  8  2  0  0  0
  4 16  1  0  0  0
  4  5  2  0  0  0
 16 17  1  0  0  0
 17 18  1  0  0  0
 17 22  2  0  0  0
 18 19  2  0  0  0
 19 20  1  0  0  0
 20 23  1  0  0  0
 20 21  2  0  0  0
 23 24  1  0  0  0
 23 25  1  0  0  0
 23 26  1  0  0  0
 21 22  1  0  0  0
  5  6  1  0  0  0
  6  7  2  0  0  0
  7  8  1  0  0  0
  8  9  1  0  0  0
M  END
> <minimizedAffinity>
-8.74214

$$$$
