CHEMBL206567


 31 34  0  0  0  0  0  0  0  0999 V2000
  -26.8012   11.3915  -15.9101 C   0  0  0  0  0  0  0  0  0  0  0  0
  -28.1186   10.8758  -15.8661 C   0  0  0  0  0  0  0  0  0  0  0  0
  -28.4240    9.6159  -16.3752 C   0  0  0  0  0  0  0  0  0  0  0  0
  -27.4229    8.8427  -16.9437 C   0  0  0  0  0  0  0  0  0  0  0  0
  -26.1300    9.3545  -17.0473 C   0  0  0  0  0  0  0  0  0  0  0  0
  -25.7994   10.6324  -16.5510 C   0  0  0  0  0  0  0  0  0  0  0  0
  -24.4036   11.0709  -16.8711 C   0  0  0  0  0  0  0  0  0  0  0  0
  -23.7823   11.5843  -15.9474 O   0  0  0  0  0  0  0  0  0  0  0  0
  -23.9425   10.9378  -18.1710 N   0  0  0  0  0  0  0  0  0  0  0  0
  -24.5960   10.6551  -18.8880 H   0  0  0  0  0  0  0  0  0  0  0  0
  -22.6862   11.3967  -18.6490 C   0  0  0  0  0  0  0  0  0  0  0  0
  -22.5271   12.2249  -19.7655 C   0  0  0  0  0  0  0  0  0  0  0  0
  -21.2513   12.5467  -20.2462 C   0  0  0  0  0  0  0  0  0  0  0  0
  -20.1215   12.0529  -19.6082 C   0  0  0  0  0  0  0  0  0  0  0  0
  -18.5634   12.3935  -20.2441 Cl  0  0  0  0  0  0  0  0  0  0  0  0
  -20.2578   11.2759  -18.4635 C   0  0  0  0  0  0  0  0  0  0  0  0
  -21.5349   10.9581  -17.9802 C   0  0  0  0  0  0  0  0  0  0  0  0
  -26.5563   12.6589  -15.1322 C   0  0  0  0  0  0  0  0  0  0  0  0
  -29.2874   12.3688  -10.6820 C   0  0  0  0  0  0  0  0  0  0  0  0
  -27.8939   12.3610  -10.4799 C   0  0  0  0  0  0  0  0  0  0  0  0
  -27.0382   12.3393  -11.5842 C   0  0  0  0  0  0  0  0  0  0  0  0
  -25.6747   12.4090  -11.6212 N   0  0  0  0  0  0  0  0  0  0  0  0
  -25.3671   12.4122  -12.8963 C   0  0  0  0  0  0  0  0  0  0  0  0
  -26.4844   12.4015  -13.6929 N   0  0  0  0  0  0  0  0  0  0  0  0
  -27.5717   12.2665  -12.8625 C   0  0  0  0  0  0  0  0  0  0  0  0
  -28.9397   12.1247  -13.0878 C   0  0  0  0  0  0  0  0  0  0  0  0
  -29.8064   12.1931  -11.9789 C   0  0  0  0  0  0  0  0  0  0  0  0
  -29.5270   12.4666   -8.3262 C   0  0  0  0  0  0  0  0  0  0  0  0
  -30.1399   12.5351   -9.6184 O   0  0  0  0  0  0  0  0  0  0  0  0
  -31.1085   12.0994  -12.3906 O   0  0  0  0  0  0  0  0  0  0  0  0
  -31.5662   10.9543  -13.0860 C   0  0  0  0  0  0  0  0  0  0  0  0
 28 29  1  0  0  0
 29 19  1  0  0  0
 19 20  1  0  0  0
 19 27  2  0  0  0
 20 21  2  0  0  0
 21 22  1  0  0  0
 21 25  1  0  0  0
 22 23  2  0  0  0
 23 24  1  0  0  0
 24 18  1  0  0  0
 24 25  1  0  0  0
 18  1  1  0  0  0
  1  2  1  0  0  0
  1  6  2  0  0  0
  2  3  2  0  0  0
  3  4  1  0  0  0
  4  5  2  0  0  0
  5  6  1  0  0  0
  6  7  1  0  0  0
  7  8  2  0  0  0
  7  9  1  0  0  0
  9 11  1  0  0  0
  9 10  1  0  0  0
 11 12  1  0  0  0
 11 17  2  0  0  0
 12 13  2  0  0  0
 13 14  1  0  0  0
 14 15  1  0  0  0
 14 16  2  0  0  0
 16 17  1  0  0  0
 25 26  2  0  0  0
 26 27  1  0  0  0
 27 30  1  0  0  0
 30 31  1  0  0  0
M  END
> <minimizedAffinity>
-5.36180

$$$$
