CHEMBL4590038


 36 39  0  0  0  0  0  0  0  0999 V2000
  -27.0342   -2.9162   -9.3182 N   0  0  0  0  0  0  0  0  0  0  0  0
  -27.5249   -2.1636  -10.3810 C   0  0  0  0  0  0  0  0  0  0  0  0
  -28.7060   -1.8742  -10.5535 O   0  0  0  0  0  0  0  0  0  0  0  0
  -26.0324   -3.0428   -9.1709 H   0  0  0  0  0  0  0  0  0  0  0  0
  -30.5312   -4.4672   -4.9349 C   0  0  0  0  0  0  0  0  0  0  0  0
  -30.5962   -3.3937   -4.0177 C   0  0  0  0  0  0  0  0  0  0  0  0
  -29.8860   -2.2043   -4.2285 C   0  0  0  0  0  0  0  0  0  0  0  0
  -29.1298   -2.1208   -5.3758 C   0  0  0  0  0  0  0  0  0  0  0  0
  -29.0823   -3.1718   -6.2859 C   0  0  0  0  0  0  0  0  0  0  0  0
  -29.7744   -4.3579   -6.1003 C   0  0  0  0  0  0  0  0  0  0  0  0
  -28.2027   -2.7559   -7.3718 C   0  0  0  0  0  0  0  0  0  0  0  0
  -27.9004   -3.4677   -8.4105 N   0  0  0  0  0  0  0  0  0  0  0  0
  -27.7312   -1.3471   -7.0018 C   0  0  0  0  0  0  0  0  0  0  0  0
  -26.9773   -0.6743   -7.6721 O   0  0  0  0  0  0  0  0  0  0  0  0
  -28.3374   -1.0528   -5.7981 N   0  0  0  0  0  0  0  0  0  0  0  0
  -28.2120   -0.1792   -5.3060 H   0  0  0  0  0  0  0  0  0  0  0  0
  -31.8866   -5.5037   -3.3044 C   0  0  0  0  0  0  0  0  0  0  0  0
  -31.2827   -5.5597   -4.5938 O   0  0  0  0  0  0  0  0  0  0  0  0
  -26.5095   -1.6726  -11.3631 C   0  0  0  0  0  0  0  0  0  0  0  0
  -25.3665   -0.9899  -10.9523 C   0  0  0  0  0  0  0  0  0  0  0  0
  -24.4275   -0.5554  -11.8941 C   0  0  0  0  0  0  0  0  0  0  0  0
  -24.5872   -0.7997  -13.2626 C   0  0  0  0  0  0  0  0  0  0  0  0
  -25.7252   -1.5029  -13.6735 C   0  0  0  0  0  0  0  0  0  0  0  0
  -26.6764   -1.9411  -12.7306 C   0  0  0  0  0  0  0  0  0  0  0  0
  -23.6601   -0.3591  -14.2438 N   0  0  0  0  0  0  0  0  0  0  0  0
  -22.4501    0.2674  -13.9832 C   0  0  0  0  0  0  0  0  0  0  0  0
  -21.9819    0.4516  -12.8650 O   0  0  0  0  0  0  0  0  0  0  0  0
  -21.8233    0.7188  -15.1411 N   0  0  0  0  0  0  0  0  0  0  0  0
  -23.8427   -0.6174  -15.2024 H   0  0  0  0  0  0  0  0  0  0  0  0
  -22.4553    1.0573  -15.8514 H   0  0  0  0  0  0  0  0  0  0  0  0
  -20.5834    1.4021  -15.0349 C   0  0  0  0  0  0  0  0  0  0  0  0
  -20.5327    2.7956  -14.9020 C   0  0  0  0  0  0  0  0  0  0  0  0
  -19.3071    3.4632  -14.8969 C   0  0  0  0  0  0  0  0  0  0  0  0
  -18.1245    2.7414  -15.0341 C   0  0  0  0  0  0  0  0  0  0  0  0
  -18.1676    1.3510  -15.1455 C   0  0  0  0  0  0  0  0  0  0  0  0
  -19.3935    0.6772  -15.1203 C   0  0  0  0  0  0  0  0  0  0  0  0
 17 18  1  0  0  0
 18  5  1  0  0  0
  5  6  1  0  0  0
  5 10  2  0  0  0
  6  7  2  0  0  0
  7  8  1  0  0  0
  8  9  2  0  0  0
  8 15  1  0  0  0
  9 10  1  0  0  0
  9 11  1  0  0  0
 11 12  2  0  0  0
 11 13  1  0  0  0
 12  1  1  0  0  0
  1  2  1  0  0  0
  1  4  1  0  0  0
  2  3  2  0  0  0
  2 19  1  0  0  0
 19 20  1  0  0  0
 19 24  2  0  0  0
 20 21  2  0  0  0
 21 22  1  0  0  0
 22 25  1  0  0  0
 22 23  2  0  0  0
 25 26  1  0  0  0
 25 29  1  0  0  0
 26 27  2  0  0  0
 26 28  1  0  0  0
 28 31  1  0  0  0
 28 30  1  0  0  0
 31 32  1  0  0  0
 31 36  2  0  0  0
 32 33  2  0  0  0
 33 34  1  0  0  0
 34 35  2  0  0  0
 35 36  1  0  0  0
 23 24  1  0  0  0
 13 14  2  0  0  0
 13 15  1  0  0  0
 15 16  1  0  0  0
M  END
> <minimizedAffinity>
-10.76019

$$$$
