CHEMBL202643


 27 30  0  0  0  0  0  0  0  0999 V2000
  -28.1997   -2.1578   -7.0816 C   0  0  0  0  0  0  0  0  0  0  0  0
  -27.6304   -1.0172   -6.4710 C   0  0  0  0  0  0  0  0  0  0  0  0
  -28.1237   -0.5108   -5.2674 C   0  0  0  0  0  0  0  0  0  0  0  0
  -29.2083   -1.1208   -4.6568 C   0  0  0  0  0  0  0  0  0  0  0  0
  -29.7874   -2.2456   -5.2421 C   0  0  0  0  0  0  0  0  0  0  0  0
  -29.3050   -2.7879   -6.4577 C   0  0  0  0  0  0  0  0  0  0  0  0
  -27.2578   -1.5130   -9.2570 N   0  0  0  0  0  0  0  0  0  0  0  0
  -27.6731   -2.5560   -8.4400 C   0  0  0  0  0  0  0  0  0  0  0  0
  -27.6695   -3.7431   -8.7457 O   0  0  0  0  0  0  0  0  0  0  0  0
  -27.1779   -0.5975   -8.8355 H   0  0  0  0  0  0  0  0  0  0  0  0
  -23.5074   -1.6812  -12.4558 C   0  0  0  0  0  0  0  0  0  0  0  0
  -24.9864   -1.6845  -12.1978 C   0  0  0  0  0  0  0  0  0  0  0  0
  -25.8929   -1.8270  -13.2504 C   0  0  0  0  0  0  0  0  0  0  0  0
  -27.2634   -1.8029  -12.9980 C   0  0  0  0  0  0  0  0  0  0  0  0
  -27.7432   -1.6680  -11.6899 C   0  0  0  0  0  0  0  0  0  0  0  0
  -26.8576   -1.5777  -10.6161 C   0  0  0  0  0  0  0  0  0  0  0  0
  -25.4785   -1.5538  -10.8868 C   0  0  0  0  0  0  0  0  0  0  0  0
  -30.0588   -3.9865   -7.0072 C   0  0  0  0  0  0  0  0  0  0  0  0
  -30.0181   -5.1692   -6.1136 N   0  0  0  0  0  0  0  0  0  0  0  0
  -30.8252   -5.2151   -4.9685 C   0  0  0  0  0  0  0  0  0  0  0  0
  -30.6897   -6.0945   -3.9587 C   0  0  0  0  0  0  0  0  0  0  0  0
  -29.5944   -7.0606   -4.0915 C   0  0  0  0  0  0  0  0  0  0  0  0
  -29.1686   -7.9894   -3.2898 N   0  0  0  0  0  0  0  0  0  0  0  0
  -28.0930   -8.5300   -3.9862 C   0  0  0  0  0  0  0  0  0  0  0  0
  -27.8152   -8.0230   -5.1570 N   0  0  0  0  0  0  0  0  0  0  0  0
  -28.7567   -7.0461   -5.2911 C   0  0  0  0  0  0  0  0  0  0  0  0
  -28.9951   -6.1238   -6.2250 C   0  0  0  0  0  0  0  0  0  0  0  0
 11 12  1  0  0  0
 12 13  1  0  0  0
 12 17  2  0  0  0
 13 14  2  0  0  0
 14 15  1  0  0  0
 15 16  2  0  0  0
 16  7  1  0  0  0
 16 17  1  0  0  0
  7  8  1  0  0  0
  7 10  1  0  0  0
  8  9  2  0  0  0
  8  1  1  0  0  0
  1  2  1  0  0  0
  1  6  2  0  0  0
  2  3  2  0  0  0
  3  4  1  0  0  0
  4  5  2  0  0  0
  5  6  1  0  0  0
  6 18  1  0  0  0
 18 19  1  0  0  0
 19 20  1  0  0  0
 19 27  1  0  0  0
 20 21  2  0  0  0
 21 22  1  0  0  0
 22 23  2  0  0  0
 22 26  1  0  0  0
 23 24  1  0  0  0
 24 25  2  0  0  0
 25 26  1  0  0  0
 26 27  2  0  0  0
M  END
> <minimizedAffinity>
-9.69973

$$$$
