CHEMBL74143


 29 32  0  0  0  0  0  0  0  0999 V2000
  -14.0687    0.8259  -18.8674 N   0  0  0  0  0  0  0  0  0  0  0  0
  -14.1078    0.5343  -17.5010 C   0  0  0  0  0  0  0  0  0  0  0  0
  -13.3107   -0.4793  -16.9860 C   0  0  0  0  0  0  0  0  0  0  0  0
  -13.4258   -0.8658  -15.6504 C   0  0  0  0  0  0  0  0  0  0  0  0
  -14.3935   -0.2951  -14.7972 C   0  0  0  0  0  0  0  0  0  0  0  0
  -14.5585   -0.6746  -13.4527 C   0  0  0  0  0  0  0  0  0  0  0  0
  -15.5012   -0.1093  -12.6696 N   0  0  0  0  0  0  0  0  0  0  0  0
  -16.3222    0.8474  -13.1756 N   0  0  0  0  0  0  0  0  0  0  0  0
  -16.2201    1.2576  -14.4610 C   0  0  0  0  0  0  0  0  0  0  0  0
  -15.2581    0.6952  -15.3233 C   0  0  0  0  0  0  0  0  0  0  0  0
  -15.0957    1.0880  -16.6786 C   0  0  0  0  0  0  0  0  0  0  0  0
  -13.1853    0.6090  -19.3126 H   0  0  0  0  0  0  0  0  0  0  0  0
  -14.4080    1.7478  -19.1070 H   0  0  0  0  0  0  0  0  0  0  0  0
  -17.1239    2.2588  -14.9248 N   0  0  0  0  0  0  0  0  0  0  0  0
  -16.8739    2.4835  -15.8853 H   0  0  0  0  0  0  0  0  0  0  0  0
  -18.5260    2.1664  -14.7396 C   0  0  0  0  0  0  0  0  0  0  0  0
  -19.2690    3.2940  -14.3486 C   0  0  0  0  0  0  0  0  0  0  0  0
  -20.6402    3.2132  -14.1163 C   0  0  0  0  0  0  0  0  0  0  0  0
  -21.2981    2.0063  -14.3198 C   0  0  0  0  0  0  0  0  0  0  0  0
  -22.9814    1.8903  -13.9883 Cl  0  0  0  0  0  0  0  0  0  0  0  0
  -20.5967    0.8956  -14.7854 C   0  0  0  0  0  0  0  0  0  0  0  0
  -19.2159    0.9788  -15.0116 C   0  0  0  0  0  0  0  0  0  0  0  0
  -13.7139   -1.7175  -12.7580 C   0  0  0  0  0  0  0  0  0  0  0  0
  -14.5089   -2.8508  -12.1513 C   0  0  0  0  0  0  0  0  0  0  0  0
  -15.6430   -3.3548  -12.7987 C   0  0  0  0  0  0  0  0  0  0  0  0
  -16.3604   -4.3750  -12.1939 C   0  0  0  0  0  0  0  0  0  0  0  0
  -16.0206   -4.9332  -11.0130 N   0  0  0  0  0  0  0  0  0  0  0  0
  -14.9120   -4.4512  -10.4142 C   0  0  0  0  0  0  0  0  0  0  0  0
  -14.1321   -3.4292  -10.9360 C   0  0  0  0  0  0  0  0  0  0  0  0
  1  2  1  0  0  0
  1 12  1  0  0  0
  1 13  1  0  0  0
  2  3  1  0  0  0
  2 11  2  0  0  0
  3  4  2  0  0  0
  4  5  1  0  0  0
  5  6  1  0  0  0
  5 10  2  0  0  0
  6 23  1  0  0  0
  6  7  2  0  0  0
 23 24  1  0  0  0
 24 25  1  0  0  0
 24 29  2  0  0  0
 25 26  2  0  0  0
 26 27  1  0  0  0
 27 28  2  0  0  0
 28 29  1  0  0  0
  7  8  1  0  0  0
  8  9  2  0  0  0
  9 14  1  0  0  0
  9 10  1  0  0  0
 14 16  1  0  0  0
 14 15  1  0  0  0
 16 17  1  0  0  0
 16 22  2  0  0  0
 17 18  2  0  0  0
 18 19  1  0  0  0
 19 20  1  0  0  0
 19 21  2  0  0  0
 21 22  1  0  0  0
 10 11  1  0  0  0
M  END
> <minimizedAffinity>
-8.34267

$$$$
