CHEMBL223220


 40 45  0  0  0  0  0  0  0  0999 V2000
  -14.1276   -5.6220  -11.6960 C   0  0  0  0  0  0  0  0  0  0  0  0
  -12.9150   -6.0534  -11.3169 N   0  0  0  0  0  0  0  0  0  0  0  0
  -12.8550   -7.3455  -11.7365 N   0  0  0  0  0  0  0  0  0  0  0  0
  -13.9725   -7.7620  -12.4139 C   0  0  0  0  0  0  0  0  0  0  0  0
  -14.8968   -6.7181  -12.1911 C   0  0  0  0  0  0  0  0  0  0  0  0
  -15.9389   -6.7023  -13.2484 C   0  0  0  0  0  0  0  0  0  0  0  0
  -14.9077   -7.0740  -14.3010 C   0  0  0  0  0  0  0  0  0  0  0  0
  -14.3140   -6.1316  -15.1392 C   0  0  0  0  0  0  0  0  0  0  0  0
  -13.1871   -6.4927  -15.8570 C   0  0  0  0  0  0  0  0  0  0  0  0
  -12.8000   -7.8401  -15.8529 C   0  0  0  0  0  0  0  0  0  0  0  0
  -13.1302   -8.6348  -14.7336 C   0  0  0  0  0  0  0  0  0  0  0  0
  -14.0890   -8.1319  -13.8617 C   0  0  0  0  0  0  0  0  0  0  0  0
  -11.9688   -7.8283  -11.6470 H   0  0  0  0  0  0  0  0  0  0  0  0
  -14.6261   -1.7879  -12.7672 C   0  0  0  0  0  0  0  0  0  0  0  0
  -15.5871   -2.0994  -11.8202 C   0  0  0  0  0  0  0  0  0  0  0  0
  -15.5089   -3.4566  -11.3718 C   0  0  0  0  0  0  0  0  0  0  0  0
  -14.4596   -4.1507  -11.9476 C   0  0  0  0  0  0  0  0  0  0  0  0
  -13.6412   -3.1617  -13.0961 S   0  0  0  0  0  0  0  0  0  0  0  0
  -14.2996   -0.4240  -13.3259 C   0  0  0  0  0  0  0  0  0  0  0  0
  -17.1028    1.1536  -15.1507 N   0  0  0  0  0  0  0  0  0  0  0  0
  -16.3628    0.6624  -14.0939 C   0  0  0  0  0  0  0  0  0  0  0  0
  -16.7047    0.7514  -12.9159 O   0  0  0  0  0  0  0  0  0  0  0  0
  -15.1577    0.0312  -14.4297 N   0  0  0  0  0  0  0  0  0  0  0  0
  -14.4872    0.0836  -15.7411 C   0  0  0  0  0  0  0  0  0  0  0  0
  -16.7409    1.0236  -16.0780 H   0  0  0  0  0  0  0  0  0  0  0  0
  -21.9368    0.7270  -14.2652 C   0  0  0  0  0  0  0  0  0  0  0  0
  -20.7664    1.5848  -14.6471 C   0  0  0  0  0  0  0  0  0  0  0  0
  -20.9320    2.9471  -14.9049 C   0  0  0  0  0  0  0  0  0  0  0  0
  -19.8358    3.7266  -15.2733 C   0  0  0  0  0  0  0  0  0  0  0  0
  -18.5620    3.1566  -15.3822 C   0  0  0  0  0  0  0  0  0  0  0  0
  -18.3633    1.8023  -15.1165 C   0  0  0  0  0  0  0  0  0  0  0  0
  -19.4805    1.0236  -14.7597 C   0  0  0  0  0  0  0  0  0  0  0  0
  -12.3705   -8.4025  -17.1974 C   0  0  0  0  0  0  0  0  0  0  0  0
  -12.7423   -9.8315  -17.3372 N   0  0  0  0  0  0  0  0  0  0  0  0
  -13.9178  -10.0692  -18.2066 C   0  0  0  0  0  0  0  0  0  0  0  0
  -14.3166  -11.5585  -18.2213 C   0  0  0  0  0  0  0  0  0  0  0  0
  -13.2554  -12.4639  -18.6873 N   0  0  0  0  0  0  0  0  0  0  0  0
  -13.0895  -12.3860  -20.1353 C   0  0  0  0  0  0  0  0  0  0  0  0
  -12.0060  -12.1493  -17.9601 C   0  0  0  0  0  0  0  0  0  0  0  0
  -11.6276  -10.6444  -17.8621 C   0  0  0  0  0  0  0  0  0  0  0  0
 26 27  1  0  0  0
 27 28  1  0  0  0
 27 32  2  0  0  0
 28 29  2  0  0  0
 29 30  1  0  0  0
 30 31  2  0  0  0
 31 20  1  0  0  0
 31 32  1  0  0  0
 20 21  1  0  0  0
 20 25  1  0  0  0
 21 22  2  0  0  0
 21 23  1  0  0  0
 23 24  1  0  0  0
 23 19  1  0  0  0
 19 14  1  0  0  0
 14 15  2  0  0  0
 14 18  1  0  0  0
 15 16  1  0  0  0
 16 17  2  0  0  0
 17  1  1  0  0  0
 17 18  1  0  0  0
  1  2  2  0  0  0
  1  5  1  0  0  0
  2  3  1  0  0  0
  3  4  1  0  0  0
  3 13  1  0  0  0
  4  5  2  0  0  0
  4 12  1  0  0  0
  5  6  1  0  0  0
  6  7  1  0  0  0
  7  8  1  0  0  0
  7 12  2  0  0  0
  8  9  2  0  0  0
  9 10  1  0  0  0
 10 33  1  0  0  0
 10 11  2  0  0  0
 33 34  1  0  0  0
 34 35  1  0  0  0
 34 40  1  0  0  0
 35 36  1  0  0  0
 36 37  1  0  0  0
 37 38  1  0  0  0
 37 39  1  0  0  0
 39 40  1  0  0  0
 11 12  1  0  0  0
M  END
> <minimizedAffinity>
-9.89644

$$$$
