CHEMBL3818193


 32 35  0  0  0  0  0  0  0  0999 V2000
  -27.5327   10.9210  -15.1698 C   0  0  0  0  0  0  0  0  0  0  0  0
  -28.0799    9.9802  -15.9456 N   0  0  0  0  0  0  0  0  0  0  0  0
  -27.2577    9.3942  -16.8357 C   0  0  0  0  0  0  0  0  0  0  0  0
  -25.9217    9.7014  -16.9633 C   0  0  0  0  0  0  0  0  0  0  0  0
  -25.4296   10.6580  -16.1042 C   0  0  0  0  0  0  0  0  0  0  0  0
  -26.2437   11.2736  -15.2386 N   0  0  0  0  0  0  0  0  0  0  0  0
  -28.3482   11.5270  -14.2113 N   0  0  0  0  0  0  0  0  0  0  0  0
  -27.7936   11.7157  -13.3867 H   0  0  0  0  0  0  0  0  0  0  0  0
  -32.3952   10.6674  -13.4330 C   0  0  0  0  0  0  0  0  0  0  0  0
  -31.4097   10.0044  -12.7044 C   0  0  0  0  0  0  0  0  0  0  0  0
  -30.0657   10.2866  -12.9611 C   0  0  0  0  0  0  0  0  0  0  0  0
  -29.6934   11.2154  -13.9462 C   0  0  0  0  0  0  0  0  0  0  0  0
  -30.7004   11.8851  -14.6514 C   0  0  0  0  0  0  0  0  0  0  0  0
  -32.0480   11.6009  -14.4128 C   0  0  0  0  0  0  0  0  0  0  0  0
  -34.1021    8.6163  -13.3108 N   0  0  0  0  0  0  0  0  0  0  0  0
  -34.1008   10.2906  -13.1598 S   0  0  0  0  0  0  0  0  0  0  0  0
  -34.8874   10.7918  -14.2581 O   0  0  0  0  0  0  0  0  0  0  0  0
  -34.4293   10.5631  -11.7789 O   0  0  0  0  0  0  0  0  0  0  0  0
  -34.7958    8.3378  -14.0067 H   0  0  0  0  0  0  0  0  0  0  0  0
  -34.2329    8.1819  -12.3990 H   0  0  0  0  0  0  0  0  0  0  0  0
  -24.0399   10.9262  -16.0973 N   0  0  0  0  0  0  0  0  0  0  0  0
  -23.5670   10.3582  -15.4037 H   0  0  0  0  0  0  0  0  0  0  0  0
  -23.2056   11.2165  -17.2088 C   0  0  0  0  0  0  0  0  0  0  0  0
  -21.8509   10.8501  -17.2525 C   0  0  0  0  0  0  0  0  0  0  0  0
  -21.0146   11.1552  -18.3321 C   0  0  0  0  0  0  0  0  0  0  0  0
  -21.6114   11.7698  -19.4292 C   0  0  0  0  0  0  0  0  0  0  0  0
  -21.0953   12.2205  -20.6118 N   0  0  0  0  0  0  0  0  0  0  0  0
  -22.0234   12.6579  -21.4820 N   0  0  0  0  0  0  0  0  0  0  0  0
  -23.1651   12.5432  -20.7964 C   0  0  0  0  0  0  0  0  0  0  0  0
  -22.9723   12.0416  -19.4897 C   0  0  0  0  0  0  0  0  0  0  0  0
  -23.7816   11.7728  -18.3668 C   0  0  0  0  0  0  0  0  0  0  0  0
  -20.1203   12.2536  -20.8853 H   0  0  0  0  0  0  0  0  0  0  0  0
 15 16  1  0  0  0
 15 19  1  0  0  0
 15 20  1  0  0  0
 16 17  2  0  0  0
 16 18  2  0  0  0
 16  9  1  0  0  0
  9 10  1  0  0  0
  9 14  2  0  0  0
 10 11  2  0  0  0
 11 12  1  0  0  0
 12  7  1  0  0  0
 12 13  2  0  0  0
  7  1  1  0  0  0
  7  8  1  0  0  0
  1  2  1  0  0  0
  1  6  2  0  0  0
  2  3  2  0  0  0
  3  4  1  0  0  0
  4  5  2  0  0  0
  5 21  1  0  0  0
  5  6  1  0  0  0
 21 23  1  0  0  0
 21 22  1  0  0  0
 23 24  1  0  0  0
 23 31  2  0  0  0
 24 25  2  0  0  0
 25 26  1  0  0  0
 26 27  1  0  0  0
 26 30  2  0  0  0
 27 28  1  0  0  0
 27 32  1  0  0  0
 28 29  2  0  0  0
 29 30  1  0  0  0
 30 31  1  0  0  0
 13 14  1  0  0  0
M  END
> <minimizedAffinity>
-6.63662

$$$$
