CHEMBL3932577


 35 38  0  0  0  0  0  0  0  0999 V2000
  -28.0424   -2.2843   -8.1691 N   0  0  0  0  0  0  0  0  0  0  0  0
  -27.4761   -2.0068   -9.4557 C   0  0  0  0  0  0  0  0  0  0  0  0
  -28.3048   -1.9974  -10.5779 C   0  0  0  0  0  0  0  0  0  0  0  0
  -27.8344   -1.8048  -11.8628 C   0  0  0  0  0  0  0  0  0  0  0  0
  -26.5200   -1.5076  -12.0853 C   0  0  0  0  0  0  0  0  0  0  0  0
  -26.2724   -1.4045  -13.3882 N   0  0  0  0  0  0  0  0  0  0  0  0
  -25.0785   -0.9263  -13.7149 C   0  0  0  0  0  0  0  0  0  0  0  0
  -24.1575   -0.5208  -12.7645 C   0  0  0  0  0  0  0  0  0  0  0  0
  -24.3832   -0.7317  -11.4105 N   0  0  0  0  0  0  0  0  0  0  0  0
  -25.6107   -1.2800  -11.0295 C   0  0  0  0  0  0  0  0  0  0  0  0
  -26.1156   -1.6261   -9.7024 C   0  0  0  0  0  0  0  0  0  0  0  0
  -23.0436    0.2462  -13.2943 C   0  0  0  0  0  0  0  0  0  0  0  0
  -22.9613    1.6335  -13.5732 C   0  0  0  0  0  0  0  0  0  0  0  0
  -21.9184    1.9474  -14.3528 N   0  0  0  0  0  0  0  0  0  0  0  0
  -21.3373    0.7603  -14.5924 N   0  0  0  0  0  0  0  0  0  0  0  0
  -20.0416    0.6833  -15.2245 C   0  0  0  0  0  0  0  0  0  0  0  0
  -22.0598   -0.2936  -14.1098 C   0  0  0  0  0  0  0  0  0  0  0  0
  -28.5259   -3.5267   -7.6325 C   0  0  0  0  0  0  0  0  0  0  0  0
  -28.2059   -4.7822   -8.1808 C   0  0  0  0  0  0  0  0  0  0  0  0
  -28.7943   -5.9567   -7.6729 C   0  0  0  0  0  0  0  0  0  0  0  0
  -29.6878   -5.8964   -6.6002 C   0  0  0  0  0  0  0  0  0  0  0  0
  -29.9948   -4.6744   -6.0279 C   0  0  0  0  0  0  0  0  0  0  0  0
  -29.4454   -3.5105   -6.5588 C   0  0  0  0  0  0  0  0  0  0  0  0
  -28.6023   -7.2395   -8.1174 O   0  0  0  0  0  0  0  0  0  0  0  0
  -29.6810   -8.1481   -7.9898 C   0  0  0  0  0  0  0  0  0  0  0  0
  -30.8444   -4.5196   -4.9669 O   0  0  0  0  0  0  0  0  0  0  0  0
  -31.1657   -5.7547   -4.3291 C   0  0  0  0  0  0  0  0  0  0  0  0
  -28.6945   -1.1337   -7.4433 C   0  0  0  0  0  0  0  0  0  0  0  0
  -27.7355   -0.2699   -6.5789 C   0  0  0  0  0  0  0  0  0  0  0  0
  -27.1866   -1.1119   -5.5408 O   0  0  0  0  0  0  0  0  0  0  0  0
  -27.8658   -1.2241   -4.8528 H   0  0  0  0  0  0  0  0  0  0  0  0
  -28.3458    0.9882   -5.9384 C   0  0  0  0  0  0  0  0  0  0  0  0
  -30.5926    1.6895   -6.5318 C   0  0  0  0  0  0  0  0  0  0  0  0
  -29.1889    1.6689   -6.9298 N   0  0  0  0  0  0  0  0  0  0  0  0
  -28.8459    2.6235   -7.0778 H   0  0  0  0  0  0  0  0  0  0  0  0
 33 34  1  0  0  0
 34 32  1  0  0  0
 34 35  1  0  0  0
 32 29  1  0  0  0
 29 30  1  0  0  0
 29 28  1  0  0  0
 30 31  1  0  0  0
 28  1  1  0  0  0
  1 18  1  0  0  0
  1  2  1  0  0  0
 18 19  1  0  0  0
 18 23  2  0  0  0
 19 20  2  0  0  0
 20 24  1  0  0  0
 20 21  1  0  0  0
 24 25  1  0  0  0
 21 22  2  0  0  0
 22 26  1  0  0  0
 22 23  1  0  0  0
 26 27  1  0  0  0
  2  3  1  0  0  0
  2 11  2  0  0  0
  3  4  2  0  0  0
  4  5  1  0  0  0
  5  6  1  0  0  0
  5 10  2  0  0  0
  6  7  2  0  0  0
  7  8  1  0  0  0
  8 12  1  0  0  0
  8  9  2  0  0  0
 12 13  1  0  0  0
 12 17  2  0  0  0
 13 14  2  0  0  0
 14 15  1  0  0  0
 15 16  1  0  0  0
 15 17  1  0  0  0
  9 10  1  0  0  0
 10 11  1  0  0  0
M  END
> <minimizedAffinity>
-8.01604

$$$$
