CHEMBL4293912


 29 32  0  0  0  0  0  0  0  0999 V2000
  -28.3049   -8.6128   -7.3374 C   0  0  0  0  0  0  0  0  0  0  0  0
  -27.9525   -9.4757   -6.4290 N   0  0  0  0  0  0  0  0  0  0  0  0
  -28.0583   -9.1431   -5.0800 C   0  0  0  0  0  0  0  0  0  0  0  0
  -29.0352   -8.3641   -4.4195 C   0  0  0  0  0  0  0  0  0  0  0  0
  -28.8924   -8.4269   -3.0899 N   0  0  0  0  0  0  0  0  0  0  0  0
  -27.8093   -9.1978   -2.9240 N   0  0  0  0  0  0  0  0  0  0  0  0
  -27.2513   -9.6489   -4.0930 C   0  0  0  0  0  0  0  0  0  0  0  0
  -26.0415  -10.4924   -4.1411 C   0  0  0  0  0  0  0  0  0  0  0  0
  -29.9242   -7.5688   -5.0481 N   0  0  0  0  0  0  0  0  0  0  0  0
  -29.4953   -6.7404   -6.0912 C   0  0  0  0  0  0  0  0  0  0  0  0
  -29.8667   -5.4503   -5.9746 N   0  0  0  0  0  0  0  0  0  0  0  0
  -29.4377   -4.5795   -6.8898 C   0  0  0  0  0  0  0  0  0  0  0  0
  -28.6615   -4.9181   -7.9240 N   0  0  0  0  0  0  0  0  0  0  0  0
  -28.2628   -6.2037   -7.9886 C   0  0  0  0  0  0  0  0  0  0  0  0
  -28.6878   -7.1858   -7.1208 C   0  0  0  0  0  0  0  0  0  0  0  0
  -27.4934   -9.3773   -1.9781 H   0  0  0  0  0  0  0  0  0  0  0  0
  -30.4711   -6.9935   -4.4141 H   0  0  0  0  0  0  0  0  0  0  0  0
  -28.6102  -10.3938  -12.8791 C   0  0  0  0  0  0  0  0  0  0  0  0
  -28.5059   -9.9761  -11.4419 C   0  0  0  0  0  0  0  0  0  0  0  0
  -27.2867   -9.5512  -10.9055 C   0  0  0  0  0  0  0  0  0  0  0  0
  -27.2066   -9.1217   -9.5775 C   0  0  0  0  0  0  0  0  0  0  0  0
  -28.3415   -9.1412   -8.7544 C   0  0  0  0  0  0  0  0  0  0  0  0
  -29.5604   -9.5753   -9.2907 C   0  0  0  0  0  0  0  0  0  0  0  0
  -29.6409   -9.9912  -10.6231 C   0  0  0  0  0  0  0  0  0  0  0  0
  -29.7697   -3.2525   -6.7913 N   0  0  0  0  0  0  0  0  0  0  0  0
  -30.7712   -3.1143   -6.7859 H   0  0  0  0  0  0  0  0  0  0  0  0
  -28.9082   -2.3166   -6.0987 C   0  0  0  0  0  0  0  0  0  0  0  0
  -28.0482   -1.6111   -7.1487 C   0  0  0  0  0  0  0  0  0  0  0  0
  -29.7019   -1.2963   -5.2910 C   0  0  0  0  0  0  0  0  0  0  0  0
 18 19  1  0  0  0
 19 20  1  0  0  0
 19 24  2  0  0  0
 20 21  2  0  0  0
 21 22  1  0  0  0
 22  1  1  0  0  0
 22 23  2  0  0  0
  1  2  2  0  0  0
  1 15  1  0  0  0
  2  3  1  0  0  0
  3  4  1  0  0  0
  3  7  2  0  0  0
  4  5  2  0  0  0
  4  9  1  0  0  0
  5  6  1  0  0  0
  6  7  1  0  0  0
  6 16  1  0  0  0
  7  8  1  0  0  0
  9 10  1  0  0  0
  9 17  1  0  0  0
 10 11  1  0  0  0
 10 15  2  0  0  0
 11 12  2  0  0  0
 12 25  1  0  0  0
 12 13  1  0  0  0
 25 27  1  0  0  0
 25 26  1  0  0  0
 27 28  1  0  0  0
 27 29  1  0  0  0
 13 14  2  0  0  0
 14 15  1  0  0  0
 23 24  1  0  0  0
M  END
> <minimizedAffinity>
-7.86586

$$$$
