CHEMBL238720


 28 30  0  0  0  0  0  0  0  0999 V2000
  -28.8881   -2.6673   -5.1185 C   0  0  0  0  0  0  0  0  0  0  0  0
  -28.3737   -2.3514   -6.4717 C   0  0  0  0  0  0  0  0  0  0  0  0
  -27.5759   -1.2918   -6.6461 N   0  0  0  0  0  0  0  0  0  0  0  0
  -27.1728   -1.3477   -7.9609 O   0  0  0  0  0  0  0  0  0  0  0  0
  -27.7282   -2.4293   -8.5782 C   0  0  0  0  0  0  0  0  0  0  0  0
  -28.5349   -3.0913   -7.6758 C   0  0  0  0  0  0  0  0  0  0  0  0
  -29.3425   -4.2709   -7.8865 C   0  0  0  0  0  0  0  0  0  0  0  0
  -30.5196   -4.1652   -8.2233 O   0  0  0  0  0  0  0  0  0  0  0  0
  -28.7212   -5.4721   -7.5694 N   0  0  0  0  0  0  0  0  0  0  0  0
  -27.9252   -5.4044   -6.9457 H   0  0  0  0  0  0  0  0  0  0  0  0
  -29.4092   -6.7040   -7.6212 C   0  0  0  0  0  0  0  0  0  0  0  0
  -28.9649   -7.7491   -8.4338 C   0  0  0  0  0  0  0  0  0  0  0  0
  -29.7045   -8.9305   -8.5355 C   0  0  0  0  0  0  0  0  0  0  0  0
  -30.9168   -9.0776   -7.8488 C   0  0  0  0  0  0  0  0  0  0  0  0
  -31.3355   -8.0344   -7.0074 C   0  0  0  0  0  0  0  0  0  0  0  0
  -30.5704   -6.8690   -6.8674 C   0  0  0  0  0  0  0  0  0  0  0  0
  -31.7513  -10.3308   -8.0586 C   0  0  0  0  0  0  0  0  0  0  0  0
  -30.9269  -11.4815   -8.6384 C   0  0  0  0  0  0  0  0  0  0  0  0
  -32.4510  -10.7603   -6.7656 C   0  0  0  0  0  0  0  0  0  0  0  0
  -27.4007   -2.6615   -9.8673 N   0  0  0  0  0  0  0  0  0  0  0  0
  -27.3946   -3.6133  -10.2293 H   0  0  0  0  0  0  0  0  0  0  0  0
  -27.5981   -1.6188  -10.8625 C   0  0  0  0  0  0  0  0  0  0  0  0
  -26.3928   -1.5436  -11.7634 C   0  0  0  0  0  0  0  0  0  0  0  0
  -25.1085   -1.4062  -11.2281 C   0  0  0  0  0  0  0  0  0  0  0  0
  -24.0274   -1.3945  -12.0993 C   0  0  0  0  0  0  0  0  0  0  0  0
  -24.1399   -1.5109  -13.4387 N   0  0  0  0  0  0  0  0  0  0  0  0
  -25.3814   -1.6530  -13.9357 C   0  0  0  0  0  0  0  0  0  0  0  0
  -26.5236   -1.6828  -13.1490 C   0  0  0  0  0  0  0  0  0  0  0  0
  1  2  1  0  0  0
  2  3  2  0  0  0
  2  6  1  0  0  0
  3  4  1  0  0  0
  4  5  1  0  0  0
  5 20  1  0  0  0
  5  6  2  0  0  0
 20 22  1  0  0  0
 20 21  1  0  0  0
 22 23  1  0  0  0
 23 24  1  0  0  0
 23 28  2  0  0  0
 24 25  2  0  0  0
 25 26  1  0  0  0
 26 27  2  0  0  0
 27 28  1  0  0  0
  6  7  1  0  0  0
  7  8  2  0  0  0
  7  9  1  0  0  0
  9 11  1  0  0  0
  9 10  1  0  0  0
 11 12  1  0  0  0
 11 16  2  0  0  0
 12 13  2  0  0  0
 13 14  1  0  0  0
 14 17  1  0  0  0
 14 15  2  0  0  0
 17 18  1  0  0  0
 17 19  1  0  0  0
 15 16  1  0  0  0
M  END
> <minimizedAffinity>
-8.79804

$$$$
