CHEMBL3976542


 38 41  0  0  0  0  0  0  0  0999 V2000
  -27.9834   -2.1740  -13.4185 C   0  0  0  0  0  0  0  0  0  0  0  0
  -26.5269   -1.8082  -13.3138 C   0  0  0  0  0  0  0  0  0  0  0  0
  -25.9296   -1.2283  -14.4511 C   0  0  0  0  0  0  0  0  0  0  0  0
  -24.5958   -0.8287  -14.4457 C   0  0  0  0  0  0  0  0  0  0  0  0
  -23.8586   -0.9028  -13.2725 C   0  0  0  0  0  0  0  0  0  0  0  0
  -24.4277   -1.5130  -12.1519 C   0  0  0  0  0  0  0  0  0  0  0  0
  -25.7410   -2.0146  -12.1563 C   0  0  0  0  0  0  0  0  0  0  0  0
  -26.2731   -2.7299  -11.0366 N   0  0  0  0  0  0  0  0  0  0  0  0
  -27.1280   -2.1812  -10.0909 C   0  0  0  0  0  0  0  0  0  0  0  0
  -27.5699   -1.0350  -10.1236 O   0  0  0  0  0  0  0  0  0  0  0  0
  -27.4118   -3.0399   -9.0305 N   0  0  0  0  0  0  0  0  0  0  0  0
  -25.9147   -3.6569  -10.8574 H   0  0  0  0  0  0  0  0  0  0  0  0
  -26.6256   -3.5955   -8.7130 H   0  0  0  0  0  0  0  0  0  0  0  0
  -28.2453   -2.5457   -7.9811 C   0  0  0  0  0  0  0  0  0  0  0  0
  -28.0411   -1.2714   -7.4300 C   0  0  0  0  0  0  0  0  0  0  0  0
  -28.7286   -0.8625   -6.2745 C   0  0  0  0  0  0  0  0  0  0  0  0
  -29.6458   -1.7475   -5.6848 C   0  0  0  0  0  0  0  0  0  0  0  0
  -29.8954   -2.9960   -6.2623 C   0  0  0  0  0  0  0  0  0  0  0  0
  -29.2119   -3.3774   -7.4162 C   0  0  0  0  0  0  0  0  0  0  0  0
  -29.4240   -4.5989   -7.9290 F   0  0  0  0  0  0  0  0  0  0  0  0
  -28.4608    0.4857   -5.6467 C   0  0  0  0  0  0  0  0  0  0  0  0
  -28.1689    1.4660   -6.5453 F   0  0  0  0  0  0  0  0  0  0  0  0
  -29.5303    0.9428   -4.9359 F   0  0  0  0  0  0  0  0  0  0  0  0
  -27.4193    0.4566   -4.7697 F   0  0  0  0  0  0  0  0  0  0  0  0
  -22.5596   -0.4467  -13.1441 O   0  0  0  0  0  0  0  0  0  0  0  0
  -22.2389    0.8055  -13.6321 C   0  0  0  0  0  0  0  0  0  0  0  0
  -23.0060    1.9371  -13.3787 C   0  0  0  0  0  0  0  0  0  0  0  0
  -22.6398    3.1089  -13.9997 C   0  0  0  0  0  0  0  0  0  0  0  0
  -21.5450    3.2253  -14.7715 N   0  0  0  0  0  0  0  0  0  0  0  0
  -20.7520    2.1543  -14.9448 C   0  0  0  0  0  0  0  0  0  0  0  0
  -21.0663    0.9200  -14.3869 C   0  0  0  0  0  0  0  0  0  0  0  0
  -19.5793    2.2843  -15.7127 N   0  0  0  0  0  0  0  0  0  0  0  0
  -18.3980    2.8144  -15.2278 C   0  0  0  0  0  0  0  0  0  0  0  0
  -18.1861    3.2572  -14.1073 O   0  0  0  0  0  0  0  0  0  0  0  0
  -19.6187    1.9864  -16.6730 H   0  0  0  0  0  0  0  0  0  0  0  0
  -17.2486    2.8811  -16.1800 C   0  0  0  0  0  0  0  0  0  0  0  0
  -16.1469    1.8512  -16.0785 C   0  0  0  0  0  0  0  0  0  0  0  0
  -15.8368    3.3070  -15.8810 C   0  0  0  0  0  0  0  0  0  0  0  0
  1  2  1  0  0  0
  2  3  1  0  0  0
  2  7  2  0  0  0
  3  4  2  0  0  0
  4  5  1  0  0  0
  5 25  1  0  0  0
  5  6  2  0  0  0
 25 26  1  0  0  0
 26 27  1  0  0  0
 26 31  2  0  0  0
 27 28  2  0  0  0
 28 29  1  0  0  0
 29 30  2  0  0  0
 30 32  1  0  0  0
 30 31  1  0  0  0
 32 33  1  0  0  0
 32 35  1  0  0  0
 33 34  2  0  0  0
 33 36  1  0  0  0
 36 37  1  0  0  0
 36 38  1  0  0  0
 37 38  1  0  0  0
  6  7  1  0  0  0
  7  8  1  0  0  0
  8  9  1  0  0  0
  8 12  1  0  0  0
  9 10  2  0  0  0
  9 11  1  0  0  0
 11 14  1  0  0  0
 11 13  1  0  0  0
 14 15  1  0  0  0
 14 19  2  0  0  0
 15 16  2  0  0  0
 16 21  1  0  0  0
 16 17  1  0  0  0
 21 22  1  0  0  0
 21 23  1  0  0  0
 21 24  1  0  0  0
 17 18  2  0  0  0
 18 19  1  0  0  0
 19 20  1  0  0  0
M  END
> <minimizedAffinity>
-11.57405

$$$$
