CHEMBL201865


 33 37  0  0  0  0  0  0  0  0999 V2000
  -29.4986   -6.6457   -5.4320 C   0  0  0  0  0  0  0  0  0  0  0  0
  -29.4965   -8.0070   -5.8548 C   0  0  0  0  0  0  0  0  0  0  0  0
  -29.0022   -8.3675   -7.1477 C   0  0  0  0  0  0  0  0  0  0  0  0
  -29.1083   -9.6384   -7.7753 C   0  0  0  0  0  0  0  0  0  0  0  0
  -28.5051   -9.9408   -9.0005 C   0  0  0  0  0  0  0  0  0  0  0  0
  -27.7925   -8.9670   -9.6794 C   0  0  0  0  0  0  0  0  0  0  0  0
  -27.7376   -7.6776   -9.1579 C   0  0  0  0  0  0  0  0  0  0  0  0
  -28.3595   -7.3763   -7.9212 C   0  0  0  0  0  0  0  0  0  0  0  0
  -28.3867   -6.0441   -7.4602 C   0  0  0  0  0  0  0  0  0  0  0  0
  -27.9227   -4.9650   -8.1611 O   0  0  0  0  0  0  0  0  0  0  0  0
  -28.2114   -3.8581   -7.4321 C   0  0  0  0  0  0  0  0  0  0  0  0
  -28.7857   -4.2046   -6.2297 C   0  0  0  0  0  0  0  0  0  0  0  0
  -28.9436   -5.6304   -6.2422 C   0  0  0  0  0  0  0  0  0  0  0  0
  -29.1462   -3.1627   -5.2955 C   0  0  0  0  0  0  0  0  0  0  0  0
  -29.6583   -3.3805   -4.2079 O   0  0  0  0  0  0  0  0  0  0  0  0
  -28.8929   -1.7544   -5.7225 C   0  0  0  0  0  0  0  0  0  0  0  0
  -29.2367   -0.7211   -4.8392 C   0  0  0  0  0  0  0  0  0  0  0  0
  -29.0681    0.6116   -5.2155 C   0  0  0  0  0  0  0  0  0  0  0  0
  -28.5578    0.9216   -6.4747 C   0  0  0  0  0  0  0  0  0  0  0  0
  -28.2004   -0.0994   -7.3603 C   0  0  0  0  0  0  0  0  0  0  0  0
  -28.3563   -1.4417   -6.9846 C   0  0  0  0  0  0  0  0  0  0  0  0
  -27.9554   -2.5332   -7.9311 C   0  0  0  0  0  0  0  0  0  0  0  0
  -27.4749   -2.2565   -9.0202 O   0  0  0  0  0  0  0  0  0  0  0  0
  -30.0666   -6.3329   -4.1130 C   0  0  0  0  0  0  0  0  0  0  0  0
  -29.4375   -6.3709   -3.0704 O   0  0  0  0  0  0  0  0  0  0  0  0
  -32.0067   -5.4107   -3.1871 C   0  0  0  0  0  0  0  0  0  0  0  0
  -31.3938   -6.1002   -4.2749 O   0  0  0  0  0  0  0  0  0  0  0  0
  -30.0095   -8.8938   -4.9166 O   0  0  0  0  0  0  0  0  0  0  0  0
  -29.1242   -9.9055   -4.4422 C   0  0  0  0  0  0  0  0  0  0  0  0
  -27.9088   -9.3584   -3.6789 C   0  0  0  0  0  0  0  0  0  0  0  0
  -26.6937   -9.4258   -4.5253 N   0  0  0  0  0  0  0  0  0  0  0  0
  -25.4759   -9.1009   -3.7764 C   0  0  0  0  0  0  0  0  0  0  0  0
  -26.5573  -10.7382   -5.1519 C   0  0  0  0  0  0  0  0  0  0  0  0
 26 27  1  0  0  0
 27 24  1  0  0  0
 24 25  2  0  0  0
 24  1  1  0  0  0
  1  2  1  0  0  0
  1 13  2  0  0  0
  2 28  1  0  0  0
  2  3  2  0  0  0
 28 29  1  0  0  0
 29 30  1  0  0  0
 30 31  1  0  0  0
 31 32  1  0  0  0
 31 33  1  0  0  0
  3  4  1  0  0  0
  3  8  1  0  0  0
  4  5  2  0  0  0
  5  6  1  0  0  0
  6  7  2  0  0  0
  7  8  1  0  0  0
  8  9  2  0  0  0
  9 10  1  0  0  0
  9 13  1  0  0  0
 10 11  1  0  0  0
 11 12  2  0  0  0
 11 22  1  0  0  0
 12 13  1  0  0  0
 12 14  1  0  0  0
 14 15  2  0  0  0
 14 16  1  0  0  0
 16 17  1  0  0  0
 16 21  2  0  0  0
 17 18  2  0  0  0
 18 19  1  0  0  0
 19 20  2  0  0  0
 20 21  1  0  0  0
 21 22  1  0  0  0
 22 23  2  0  0  0
M  END
> <minimizedAffinity>
-8.17820

$$$$
