CHEMBL473825


 43 47  0  0  0  0  0  0  0  0999 V2000
  -26.9173   -1.7941   -9.5962 N   0  0  0  0  0  0  0  0  0  0  0  0
  -27.3796   -1.3888  -10.8355 C   0  0  0  0  0  0  0  0  0  0  0  0
  -28.5477   -1.0973  -11.0890 O   0  0  0  0  0  0  0  0  0  0  0  0
  -25.9342   -2.0244   -9.5393 H   0  0  0  0  0  0  0  0  0  0  0  0
  -29.8726   -2.5656   -4.7530 C   0  0  0  0  0  0  0  0  0  0  0  0
  -29.1597   -2.4020   -6.0672 C   0  0  0  0  0  0  0  0  0  0  0  0
  -28.5060   -1.1775   -6.2881 C   0  0  0  0  0  0  0  0  0  0  0  0
  -27.7844   -0.9367   -7.4529 C   0  0  0  0  0  0  0  0  0  0  0  0
  -27.6620   -1.9306   -8.4079 C   0  0  0  0  0  0  0  0  0  0  0  0
  -28.3232   -3.1459   -8.1987 C   0  0  0  0  0  0  0  0  0  0  0  0
  -29.1388   -3.3886   -7.0752 C   0  0  0  0  0  0  0  0  0  0  0  0
  -29.8986   -4.5716   -6.9601 N   0  0  0  0  0  0  0  0  0  0  0  0
  -30.8865   -4.4687   -6.7793 H   0  0  0  0  0  0  0  0  0  0  0  0
  -29.6585   -5.8620   -7.4502 C   0  0  0  0  0  0  0  0  0  0  0  0
  -28.4731   -6.1937   -7.9806 N   0  0  0  0  0  0  0  0  0  0  0  0
  -28.2934   -7.4541   -8.4250 C   0  0  0  0  0  0  0  0  0  0  0  0
  -29.2422   -8.4506   -8.3658 C   0  0  0  0  0  0  0  0  0  0  0  0
  -30.4380   -7.9981   -7.8323 C   0  0  0  0  0  0  0  0  0  0  0  0
  -30.6695   -6.7382   -7.3749 N   0  0  0  0  0  0  0  0  0  0  0  0
  -28.9878   -9.8336   -8.7993 C   0  0  0  0  0  0  0  0  0  0  0  0
  -28.1498  -10.1355   -9.8876 C   0  0  0  0  0  0  0  0  0  0  0  0
  -27.9013  -11.4583  -10.2553 C   0  0  0  0  0  0  0  0  0  0  0  0
  -28.4987  -12.4648   -9.5215 C   0  0  0  0  0  0  0  0  0  0  0  0
  -29.3177  -12.2342   -8.4770 N   0  0  0  0  0  0  0  0  0  0  0  0
  -29.5430  -10.9381   -8.1482 C   0  0  0  0  0  0  0  0  0  0  0  0
  -26.3635   -1.3228  -11.8809 C   0  0  0  0  0  0  0  0  0  0  0  0
  -26.5461   -1.6404  -13.2127 C   0  0  0  0  0  0  0  0  0  0  0  0
  -25.3644   -1.4608  -13.9823 C   0  0  0  0  0  0  0  0  0  0  0  0
  -24.3104   -0.9836  -13.2256 C   0  0  0  0  0  0  0  0  0  0  0  0
  -24.7603   -0.8066  -11.5832 S   0  0  0  0  0  0  0  0  0  0  0  0
  -22.9741   -0.6507  -13.7114 C   0  0  0  0  0  0  0  0  0  0  0  0
  -22.1635   -1.5340  -13.9785 O   0  0  0  0  0  0  0  0  0  0  0  0
  -22.7504    0.7024  -13.8931 N   0  0  0  0  0  0  0  0  0  0  0  0
  -23.5213    1.3228  -13.6882 H   0  0  0  0  0  0  0  0  0  0  0  0
  -21.5800    1.3285  -14.3735 C   0  0  0  0  0  0  0  0  0  0  0  0
  -20.4909    0.6025  -14.8633 C   0  0  0  0  0  0  0  0  0  0  0  0
  -19.3279    1.2559  -15.2711 C   0  0  0  0  0  0  0  0  0  0  0  0
  -19.2416    2.6403  -15.1844 C   0  0  0  0  0  0  0  0  0  0  0  0
  -20.3231    3.3762  -14.6988 C   0  0  0  0  0  0  0  0  0  0  0  0
  -21.5179    2.7413  -14.3307 C   0  0  0  0  0  0  0  0  0  0  0  0
  -22.5547    3.5191  -13.7622 N   0  0  0  0  0  0  0  0  0  0  0  0
  -22.4910    4.4948  -14.0461 H   0  0  0  0  0  0  0  0  0  0  0  0
  -23.4766    3.1569  -13.9768 H   0  0  0  0  0  0  0  0  0  0  0  0
  5  6  1  0  0  0
  6  7  1  0  0  0
  6 11  2  0  0  0
  7  8  2  0  0  0
  8  9  1  0  0  0
  9  1  1  0  0  0
  9 10  2  0  0  0
  1  2  1  0  0  0
  1  4  1  0  0  0
  2  3  2  0  0  0
  2 26  1  0  0  0
 26 27  2  0  0  0
 26 30  1  0  0  0
 27 28  1  0  0  0
 28 29  2  0  0  0
 29 31  1  0  0  0
 29 30  1  0  0  0
 31 32  2  0  0  0
 31 33  1  0  0  0
 33 35  1  0  0  0
 33 34  1  0  0  0
 35 36  1  0  0  0
 35 40  2  0  0  0
 36 37  2  0  0  0
 37 38  1  0  0  0
 38 39  2  0  0  0
 39 40  1  0  0  0
 40 41  1  0  0  0
 41 42  1  0  0  0
 41 43  1  0  0  0
 10 11  1  0  0  0
 11 12  1  0  0  0
 12 14  1  0  0  0
 12 13  1  0  0  0
 14 15  1  0  0  0
 14 19  2  0  0  0
 15 16  2  0  0  0
 16 17  1  0  0  0
 17 20  1  0  0  0
 17 18  2  0  0  0
 20 21  1  0  0  0
 20 25  2  0  0  0
 21 22  2  0  0  0
 22 23  1  0  0  0
 23 24  2  0  0  0
 24 25  1  0  0  0
 18 19  1  0  0  0
M  END
> <minimizedAffinity>
-11.54490

$$$$
