CHEMBL3676359


 39 41  0  0  0  0  0  0  0  0999 V2000
  -13.7366   -3.6679  -12.6747 C   0  0  0  0  0  0  0  0  0  0  0  0
  -13.9414   -2.4165  -13.2558 C   0  0  0  0  0  0  0  0  0  0  0  0
  -13.5233   -2.1720  -14.5798 C   0  0  0  0  0  0  0  0  0  0  0  0
  -13.6051   -0.9246  -15.2175 C   0  0  0  0  0  0  0  0  0  0  0  0
  -13.2073   -0.7496  -16.4909 N   0  0  0  0  0  0  0  0  0  0  0  0
  -12.6987   -1.8137  -17.1171 C   0  0  0  0  0  0  0  0  0  0  0  0
  -12.5500   -3.0359  -16.5961 N   0  0  0  0  0  0  0  0  0  0  0  0
  -12.9657   -3.2118  -15.3378 C   0  0  0  0  0  0  0  0  0  0  0  0
  -12.8359   -4.4680  -14.7567 C   0  0  0  0  0  0  0  0  0  0  0  0
  -13.2355   -4.7264  -13.4411 C   0  0  0  0  0  0  0  0  0  0  0  0
  -15.0320   -4.1851  -10.6700 C   0  0  0  0  0  0  0  0  0  0  0  0
  -15.0288   -4.5774   -9.5073 O   0  0  0  0  0  0  0  0  0  0  0  0
  -13.8661   -3.7749  -11.2778 N   0  0  0  0  0  0  0  0  0  0  0  0
  -13.0714   -4.1582  -10.7731 H   0  0  0  0  0  0  0  0  0  0  0  0
  -16.7682   -5.3386  -11.9417 C   0  0  0  0  0  0  0  0  0  0  0  0
  -16.2709   -4.1789  -11.4950 C   0  0  0  0  0  0  0  0  0  0  0  0
  -14.0816    0.2088  -14.4968 N   0  0  0  0  0  0  0  0  0  0  0  0
  -13.3112    0.8660  -14.3711 H   0  0  0  0  0  0  0  0  0  0  0  0
  -15.2733    0.8898  -14.8448 C   0  0  0  0  0  0  0  0  0  0  0  0
  -15.2156    2.1425  -15.4673 C   0  0  0  0  0  0  0  0  0  0  0  0
  -16.3805    2.8709  -15.7165 C   0  0  0  0  0  0  0  0  0  0  0  0
  -16.2089    4.4250  -16.4503 Cl  0  0  0  0  0  0  0  0  0  0  0  0
  -17.6237    2.3366  -15.3593 C   0  0  0  0  0  0  0  0  0  0  0  0
  -19.0963    3.2158  -15.5666 Cl  0  0  0  0  0  0  0  0  0  0  0  0
  -17.6993    1.0611  -14.7948 C   0  0  0  0  0  0  0  0  0  0  0  0
  -16.5293    0.3479  -14.5495 C   0  0  0  0  0  0  0  0  0  0  0  0
  -16.6102   -0.8684  -13.9887 F   0  0  0  0  0  0  0  0  0  0  0  0
  -13.0395   -6.0196  -13.0191 O   0  0  0  0  0  0  0  0  0  0  0  0
  -12.4690   -6.9009  -13.9948 C   0  0  0  0  0  0  0  0  0  0  0  0
  -13.3347   -8.1546  -14.1650 C   0  0  0  0  0  0  0  0  0  0  0  0
  -13.7253   -8.3505  -15.5593 N   0  0  0  0  0  0  0  0  0  0  0  0
  -13.1844   -9.3879  -16.2959 C   0  0  0  0  0  0  0  0  0  0  0  0
  -12.5434  -10.2931  -15.7802 O   0  0  0  0  0  0  0  0  0  0  0  0
  -14.2104   -7.5916  -16.0229 H   0  0  0  0  0  0  0  0  0  0  0  0
  -13.4546   -9.3440  -17.7689 C   0  0  0  0  0  0  0  0  0  0  0  0
  -13.2204   -7.6935  -18.3938 S   0  0  0  0  0  0  0  0  0  0  0  0
  -12.9991   -7.8378  -20.1543 C   0  0  0  0  0  0  0  0  0  0  0  0
  -14.4756   -6.9939  -18.1847 O   0  0  0  0  0  0  0  0  0  0  0  0
  -11.9962   -7.1648  -17.8198 O   0  0  0  0  0  0  0  0  0  0  0  0
 15 16  2  0  0  0
 16 11  1  0  0  0
 11 12  2  0  0  0
 11 13  1  0  0  0
 13  1  1  0  0  0
 13 14  1  0  0  0
  1  2  1  0  0  0
  1 10  2  0  0  0
  2  3  2  0  0  0
  3  4  1  0  0  0
  3  8  1  0  0  0
  4 17  1  0  0  0
  4  5  2  0  0  0
 17 19  1  0  0  0
 17 18  1  0  0  0
 19 20  1  0  0  0
 19 26  2  0  0  0
 20 21  2  0  0  0
 21 22  1  0  0  0
 21 23  1  0  0  0
 23 24  1  0  0  0
 23 25  2  0  0  0
 25 26  1  0  0  0
 26 27  1  0  0  0
  5  6  1  0  0  0
  6  7  2  0  0  0
  7  8  1  0  0  0
  8  9  2  0  0  0
  9 10  1  0  0  0
 10 28  1  0  0  0
 28 29  1  0  0  0
 29 30  1  0  0  0
 30 31  1  0  0  0
 31 32  1  0  0  0
 31 34  1  0  0  0
 32 33  2  0  0  0
 32 35  1  0  0  0
 35 36  1  0  0  0
 36 37  1  0  0  0
 36 38  2  0  0  0
 36 39  2  0  0  0
M  END
> <minimizedAffinity>
-7.56631

$$$$
