CHEMBL3917570


 39 42  0  0  0  0  0  0  0  0999 V2000
  -27.2364   -1.7346   -4.9946 C   0  0  0  0  0  0  0  0  0  0  0  0
  -27.9971   -2.9836   -5.3441 C   0  0  0  0  0  0  0  0  0  0  0  0
  -28.1341   -3.9451   -4.3160 C   0  0  0  0  0  0  0  0  0  0  0  0
  -28.9000   -5.0998   -4.4832 C   0  0  0  0  0  0  0  0  0  0  0  0
  -29.5045   -5.3275   -5.7091 C   0  0  0  0  0  0  0  0  0  0  0  0
  -29.3501   -4.4014   -6.7484 C   0  0  0  0  0  0  0  0  0  0  0  0
  -28.5890   -3.2265   -6.6013 C   0  0  0  0  0  0  0  0  0  0  0  0
  -28.3976   -2.3214   -7.6890 N   0  0  0  0  0  0  0  0  0  0  0  0
  -27.7953   -2.6282   -8.9066 C   0  0  0  0  0  0  0  0  0  0  0  0
  -27.3912   -3.7365   -9.2414 O   0  0  0  0  0  0  0  0  0  0  0  0
  -27.6122   -1.5055   -9.7137 N   0  0  0  0  0  0  0  0  0  0  0  0
  -28.6884   -1.3675   -7.5443 H   0  0  0  0  0  0  0  0  0  0  0  0
  -27.4395   -0.6533   -9.2015 H   0  0  0  0  0  0  0  0  0  0  0  0
  -26.9521   -1.6187  -10.9707 C   0  0  0  0  0  0  0  0  0  0  0  0
  -27.7249   -1.8099  -12.1188 C   0  0  0  0  0  0  0  0  0  0  0  0
  -27.1198   -1.7951  -13.3794 C   0  0  0  0  0  0  0  0  0  0  0  0
  -25.7377   -1.6557  -13.4915 C   0  0  0  0  0  0  0  0  0  0  0  0
  -25.2035   -1.5468  -14.7156 F   0  0  0  0  0  0  0  0  0  0  0  0
  -24.9361   -1.5804  -12.3532 C   0  0  0  0  0  0  0  0  0  0  0  0
  -25.5561   -1.5150  -11.0960 C   0  0  0  0  0  0  0  0  0  0  0  0
  -23.5764   -1.4714  -12.3499 O   0  0  0  0  0  0  0  0  0  0  0  0
  -22.9904   -0.2142  -12.6792 C   0  0  0  0  0  0  0  0  0  0  0  0
  -23.8440    0.8292  -12.6632 F   0  0  0  0  0  0  0  0  0  0  0  0
  -21.9607    0.0366  -11.8420 F   0  0  0  0  0  0  0  0  0  0  0  0
  -22.4892   -0.2994  -13.9353 F   0  0  0  0  0  0  0  0  0  0  0  0
  -29.0381   -6.0705   -3.5136 O   0  0  0  0  0  0  0  0  0  0  0  0
  -28.6442   -7.3700   -3.8258 C   0  0  0  0  0  0  0  0  0  0  0  0
  -27.3869   -7.5335   -4.3669 C   0  0  0  0  0  0  0  0  0  0  0  0
  -27.0388   -8.8316   -4.6802 C   0  0  0  0  0  0  0  0  0  0  0  0
  -27.8525   -9.8605   -4.4442 N   0  0  0  0  0  0  0  0  0  0  0  0
  -29.0527   -9.5935   -3.9327 C   0  0  0  0  0  0  0  0  0  0  0  0
  -29.5075   -8.3814   -3.6251 N   0  0  0  0  0  0  0  0  0  0  0  0
  -25.7780   -9.0697   -5.2680 N   0  0  0  0  0  0  0  0  0  0  0  0
  -24.7199   -9.6558   -4.5963 C   0  0  0  0  0  0  0  0  0  0  0  0
  -24.6969  -10.0587   -3.4427 O   0  0  0  0  0  0  0  0  0  0  0  0
  -25.6507   -8.8162   -6.2332 H   0  0  0  0  0  0  0  0  0  0  0  0
  -23.4807   -9.7843   -5.4283 C   0  0  0  0  0  0  0  0  0  0  0  0
  -23.3119  -10.9590   -6.3705 C   0  0  0  0  0  0  0  0  0  0  0  0
  -22.5062  -10.8941   -5.1065 C   0  0  0  0  0  0  0  0  0  0  0  0
  1  2  1  0  0  0
  2  3  1  0  0  0
  2  7  2  0  0  0
  3  4  2  0  0  0
  4 26  1  0  0  0
  4  5  1  0  0  0
 26 27  1  0  0  0
 27 28  1  0  0  0
 27 32  2  0  0  0
 28 29  2  0  0  0
 29 33  1  0  0  0
 29 30  1  0  0  0
 33 34  1  0  0  0
 33 36  1  0  0  0
 34 35  2  0  0  0
 34 37  1  0  0  0
 37 38  1  0  0  0
 37 39  1  0  0  0
 38 39  1  0  0  0
 30 31  2  0  0  0
 31 32  1  0  0  0
  5  6  2  0  0  0
  6  7  1  0  0  0
  7  8  1  0  0  0
  8  9  1  0  0  0
  8 12  1  0  0  0
  9 10  2  0  0  0
  9 11  1  0  0  0
 11 14  1  0  0  0
 11 13  1  0  0  0
 14 15  1  0  0  0
 14 20  2  0  0  0
 15 16  2  0  0  0
 16 17  1  0  0  0
 17 18  1  0  0  0
 17 19  2  0  0  0
 19 21  1  0  0  0
 19 20  1  0  0  0
 21 22  1  0  0  0
 22 23  1  0  0  0
 22 24  1  0  0  0
 22 25  1  0  0  0
M  END
> <minimizedAffinity>
-9.84446

$$$$
