CHEMBL372744


 33 36  0  0  0  0  0  0  0  0999 V2000
  -14.5791   -2.0124  -13.4861 C   0  0  0  0  0  0  0  0  0  0  0  0
  -13.2031   -1.8700  -13.3052 C   0  0  0  0  0  0  0  0  0  0  0  0
  -12.5031   -2.7440  -12.4696 C   0  0  0  0  0  0  0  0  0  0  0  0
  -13.1689   -3.7244  -11.7222 C   0  0  0  0  0  0  0  0  0  0  0  0
  -14.5685   -3.7724  -11.8211 C   0  0  0  0  0  0  0  0  0  0  0  0
  -15.2703   -2.9412  -12.7129 C   0  0  0  0  0  0  0  0  0  0  0  0
  -12.4146   -4.6984  -10.9031 C   0  0  0  0  0  0  0  0  0  0  0  0
  -12.0276   -4.4103   -9.5901 C   0  0  0  0  0  0  0  0  0  0  0  0
  -12.2486   -3.2197   -8.7050 C   0  0  0  0  0  0  0  0  0  0  0  0
  -11.1212   -5.6844   -8.8881 S   0  0  0  0  0  0  0  0  0  0  0  0
  -11.2569   -6.6467  -10.2698 C   0  0  0  0  0  0  0  0  0  0  0  0
  -10.6970   -7.8677  -10.2622 N   0  0  0  0  0  0  0  0  0  0  0  0
  -10.8767   -8.5174  -11.4067 C   0  0  0  0  0  0  0  0  0  0  0  0
  -11.5119   -8.0710  -12.4947 N   0  0  0  0  0  0  0  0  0  0  0  0
  -12.0455   -6.8331  -12.4757 C   0  0  0  0  0  0  0  0  0  0  0  0
  -12.6404   -6.4544  -13.6738 N   0  0  0  0  0  0  0  0  0  0  0  0
  -11.9539   -6.0401  -11.3062 C   0  0  0  0  0  0  0  0  0  0  0  0
  -12.3846   -7.1212  -14.3954 H   0  0  0  0  0  0  0  0  0  0  0  0
  -12.4760   -5.4844  -13.9158 H   0  0  0  0  0  0  0  0  0  0  0  0
  -16.8062    0.2955  -15.1775 N   0  0  0  0  0  0  0  0  0  0  0  0
  -16.1463   -0.2686  -14.1042 C   0  0  0  0  0  0  0  0  0  0  0  0
  -16.2556    0.0920  -12.9403 O   0  0  0  0  0  0  0  0  0  0  0  0
  -15.2552   -1.2712  -14.4888 N   0  0  0  0  0  0  0  0  0  0  0  0
  -16.4949    0.0221  -16.0979 H   0  0  0  0  0  0  0  0  0  0  0  0
  -14.7242   -1.0586  -15.3191 H   0  0  0  0  0  0  0  0  0  0  0  0
  -21.4962    1.6064  -14.3382 C   0  0  0  0  0  0  0  0  0  0  0  0
  -20.0913    1.9833  -14.7105 C   0  0  0  0  0  0  0  0  0  0  0  0
  -19.7915    3.3096  -15.0384 C   0  0  0  0  0  0  0  0  0  0  0  0
  -18.4869    3.6686  -15.3485 C   0  0  0  0  0  0  0  0  0  0  0  0
  -17.4788    2.7073  -15.3545 C   0  0  0  0  0  0  0  0  0  0  0  0
  -16.2332    3.1622  -15.5325 F   0  0  0  0  0  0  0  0  0  0  0  0
  -17.7557    1.3538  -15.0973 C   0  0  0  0  0  0  0  0  0  0  0  0
  -19.0687    1.0146  -14.7433 C   0  0  0  0  0  0  0  0  0  0  0  0
 26 27  1  0  0  0
 27 28  1  0  0  0
 27 33  2  0  0  0
 28 29  2  0  0  0
 29 30  1  0  0  0
 30 31  1  0  0  0
 30 32  2  0  0  0
 32 20  1  0  0  0
 32 33  1  0  0  0
 20 21  1  0  0  0
 20 24  1  0  0  0
 21 22  2  0  0  0
 21 23  1  0  0  0
 23  1  1  0  0  0
 23 25  1  0  0  0
  1  2  1  0  0  0
  1  6  2  0  0  0
  2  3  2  0  0  0
  3  4  1  0  0  0
  4  7  1  0  0  0
  4  5  2  0  0  0
  7  8  2  0  0  0
  7 17  1  0  0  0
  8  9  1  0  0  0
  8 10  1  0  0  0
 10 11  1  0  0  0
 11 12  1  0  0  0
 11 17  2  0  0  0
 12 13  2  0  0  0
 13 14  1  0  0  0
 14 15  2  0  0  0
 15 16  1  0  0  0
 15 17  1  0  0  0
 16 18  1  0  0  0
 16 19  1  0  0  0
  5  6  1  0  0  0
M  END
> <minimizedAffinity>
-8.62700

$$$$
