CHEMBL328029


 22 25  0  0  0  0  0  0  0  0999 V2000
  -28.0556   -7.7667   -5.3015 O   0  0  0  0  0  0  0  0  0  0  0  0
  -28.3254   -6.5868   -5.2142 C   0  0  0  0  0  0  0  0  0  0  0  0
  -28.0332   -5.7762   -4.1301 N   0  0  0  0  0  0  0  0  0  0  0  0
  -28.5411   -4.4964   -4.2961 C   0  0  0  0  0  0  0  0  0  0  0  0
  -28.4460   -3.4606   -3.3873 C   0  0  0  0  0  0  0  0  0  0  0  0
  -29.0491   -2.2522   -3.7306 C   0  0  0  0  0  0  0  0  0  0  0  0
  -29.7218   -2.1135   -4.9590 C   0  0  0  0  0  0  0  0  0  0  0  0
  -29.7986   -3.1803   -5.8702 C   0  0  0  0  0  0  0  0  0  0  0  0
  -29.1973   -4.3794   -5.5279 C   0  0  0  0  0  0  0  0  0  0  0  0
  -29.0632   -5.6927   -6.1872 C   0  0  0  0  0  0  0  0  0  0  0  0
  -29.4777   -6.0205   -7.4230 C   0  0  0  0  0  0  0  0  0  0  0  0
  -27.5392   -6.1195   -3.3218 H   0  0  0  0  0  0  0  0  0  0  0  0
  -29.2227   -7.2885   -8.0029 C   0  0  0  0  0  0  0  0  0  0  0  0
  -29.9837   -8.4366   -8.1373 C   0  0  0  0  0  0  0  0  0  0  0  0
  -29.2322   -9.3645   -8.9012 C   0  0  0  0  0  0  0  0  0  0  0  0
  -28.0113   -8.7770   -9.1604 C   0  0  0  0  0  0  0  0  0  0  0  0
  -28.0076   -7.5221   -8.6100 N   0  0  0  0  0  0  0  0  0  0  0  0
  -26.9029   -9.3820   -9.9491 C   0  0  0  0  0  0  0  0  0  0  0  0
  -27.4600  -10.5231  -10.8228 C   0  0  0  0  0  0  0  0  0  0  0  0
  -28.4016  -11.4480  -10.0274 C   0  0  0  0  0  0  0  0  0  0  0  0
  -29.6200  -10.6951   -9.4548 C   0  0  0  0  0  0  0  0  0  0  0  0
  -27.2573   -6.8504   -8.6944 H   0  0  0  0  0  0  0  0  0  0  0  0
  1  2  2  0  0  0
  2  3  1  0  0  0
  2 10  1  0  0  0
  3  4  1  0  0  0
  3 12  1  0  0  0
  4  5  1  0  0  0
  4  9  2  0  0  0
  5  6  2  0  0  0
  6  7  1  0  0  0
  7  8  2  0  0  0
  8  9  1  0  0  0
  9 10  1  0  0  0
 10 11  2  0  0  0
 11 13  1  0  0  0
 13 14  2  0  0  0
 13 17  1  0  0  0
 14 15  1  0  0  0
 15 16  2  0  0  0
 15 21  1  0  0  0
 16 17  1  0  0  0
 16 18  1  0  0  0
 17 22  1  0  0  0
 18 19  1  0  0  0
 19 20  1  0  0  0
 20 21  1  0  0  0
M  END
> <minimizedAffinity>
-8.58917

$$$$
