CHEMBL3221554


 30 32  0  0  0  0  0  0  0  0999 V2000
  -28.3766   -6.2574   -6.8893 N   0  0  0  0  0  0  0  0  0  0  0  0
  -27.4536   -6.1075   -7.3231 H   0  0  0  0  0  0  0  0  0  0  0  0
  -28.8313   -5.3542   -5.8845 C   0  0  0  0  0  0  0  0  0  0  0  0
  -29.3756   -5.8758   -4.7445 N   0  0  0  0  0  0  0  0  0  0  0  0
  -29.8108   -5.0950   -3.7405 C   0  0  0  0  0  0  0  0  0  0  0  0
  -29.6879   -3.7507   -3.8163 N   0  0  0  0  0  0  0  0  0  0  0  0
  -29.1441   -3.1665   -4.9181 C   0  0  0  0  0  0  0  0  0  0  0  0
  -28.9916   -1.7806   -4.9407 C   0  0  0  0  0  0  0  0  0  0  0  0
  -28.4308   -1.1126   -6.0524 C   0  0  0  0  0  0  0  0  0  0  0  0
  -28.0183   -1.9227   -7.1838 C   0  0  0  0  0  0  0  0  0  0  0  0
  -28.1754   -3.3167   -7.1194 C   0  0  0  0  0  0  0  0  0  0  0  0
  -28.7212   -3.9444   -6.0034 C   0  0  0  0  0  0  0  0  0  0  0  0
  -28.3045    0.2589   -6.0145 O   0  0  0  0  0  0  0  0  0  0  0  0
  -28.8721    1.0927   -5.0236 C   0  0  0  0  0  0  0  0  0  0  0  0
  -27.4686   -1.5313   -8.3714 O   0  0  0  0  0  0  0  0  0  0  0  0
  -27.4202   -2.0537   -9.6430 C   0  0  0  0  0  0  0  0  0  0  0  0
  -30.8983   -9.3635   -8.3346 C   0  0  0  0  0  0  0  0  0  0  0  0
  -31.4216   -8.3022   -7.5780 C   0  0  0  0  0  0  0  0  0  0  0  0
  -30.5950   -7.2694   -7.1252 C   0  0  0  0  0  0  0  0  0  0  0  0
  -29.2235   -7.2954   -7.3908 C   0  0  0  0  0  0  0  0  0  0  0  0
  -28.7041   -8.3438   -8.1813 C   0  0  0  0  0  0  0  0  0  0  0  0
  -29.5218   -9.3711   -8.6687 C   0  0  0  0  0  0  0  0  0  0  0  0
  -28.8924  -10.4296   -9.5480 C   0  0  0  0  0  0  0  0  0  0  0  0
  -32.1259  -11.4168   -7.9303 C   0  0  0  0  0  0  0  0  0  0  0  0
  -32.8841  -12.2881   -8.3358 O   0  0  0  0  0  0  0  0  0  0  0  0
  -31.7728  -10.4028   -8.7545 N   0  0  0  0  0  0  0  0  0  0  0  0
  -32.1489  -10.3768   -9.7145 H   0  0  0  0  0  0  0  0  0  0  0  0
  -31.6588  -11.4444   -6.6564 O   0  0  0  0  0  0  0  0  0  0  0  0
  -29.4095  -12.1206   -6.2410 C   0  0  0  0  0  0  0  0  0  0  0  0
  -30.8856  -12.4653   -6.1438 C   0  0  0  0  0  0  0  0  0  0  0  0
 29 30  1  0  0  0
 30 28  1  0  0  0
 28 24  1  0  0  0
 24 25  2  0  0  0
 24 26  1  0  0  0
 26 17  1  0  0  0
 26 27  1  0  0  0
 17 18  1  0  0  0
 17 22  2  0  0  0
 18 19  2  0  0  0
 19 20  1  0  0  0
 20  1  1  0  0  0
 20 21  2  0  0  0
  1  3  1  0  0  0
  1  2  1  0  0  0
  3  4  1  0  0  0
  3 12  2  0  0  0
  4  5  2  0  0  0
  5  6  1  0  0  0
  6  7  2  0  0  0
  7  8  1  0  0  0
  7 12  1  0  0  0
  8  9  2  0  0  0
  9 13  1  0  0  0
  9 10  1  0  0  0
 13 14  1  0  0  0
 10 15  1  0  0  0
 10 11  2  0  0  0
 15 16  1  0  0  0
 11 12  1  0  0  0
 21 22  1  0  0  0
 22 23  1  0  0  0
M  END
> <minimizedAffinity>
-7.67460

$$$$
