CHEMBL270550


 36 40  0  0  0  0  0  0  0  0999 V2000
  -23.0220   -0.8095  -13.5588 C   0  0  0  0  0  0  0  0  0  0  0  0
  -22.9761   -1.0310  -12.1847 C   0  0  0  0  0  0  0  0  0  0  0  0
  -24.1198   -1.4629  -11.4936 C   0  0  0  0  0  0  0  0  0  0  0  0
  -25.3396   -1.6686  -12.1549 C   0  0  0  0  0  0  0  0  0  0  0  0
  -25.3627   -1.4481  -13.5467 C   0  0  0  0  0  0  0  0  0  0  0  0
  -24.2246   -1.0043  -14.2361 C   0  0  0  0  0  0  0  0  0  0  0  0
  -26.4706   -1.6449  -14.3386 O   0  0  0  0  0  0  0  0  0  0  0  0
  -27.6862   -1.6268  -13.5904 C   0  0  0  0  0  0  0  0  0  0  0  0
  -27.6059   -2.5490  -12.3843 C   0  0  0  0  0  0  0  0  0  0  0  0
  -26.5368   -2.1078  -11.4776 N   0  0  0  0  0  0  0  0  0  0  0  0
  -26.7143   -1.9630  -10.0954 C   0  0  0  0  0  0  0  0  0  0  0  0
  -25.9527   -1.3242   -9.3714 O   0  0  0  0  0  0  0  0  0  0  0  0
  -27.8364   -2.5982   -9.5822 N   0  0  0  0  0  0  0  0  0  0  0  0
  -28.0283   -3.5086   -9.9813 H   0  0  0  0  0  0  0  0  0  0  0  0
  -28.2428   -2.4471   -8.2270 C   0  0  0  0  0  0  0  0  0  0  0  0
  -28.3429   -1.1807   -7.6356 C   0  0  0  0  0  0  0  0  0  0  0  0
  -28.7265   -1.0473   -6.2979 C   0  0  0  0  0  0  0  0  0  0  0  0
  -29.0130   -2.1783   -5.5367 C   0  0  0  0  0  0  0  0  0  0  0  0
  -28.9305   -3.4446   -6.1166 C   0  0  0  0  0  0  0  0  0  0  0  0
  -28.5626   -3.5773   -7.4594 C   0  0  0  0  0  0  0  0  0  0  0  0
  -28.4402   -5.1681   -8.1271 Cl  0  0  0  0  0  0  0  0  0  0  0  0
  -21.8502   -0.3654  -14.1511 O   0  0  0  0  0  0  0  0  0  0  0  0
  -17.7723    2.5532  -15.0380 C   0  0  0  0  0  0  0  0  0  0  0  0
  -18.9066    3.3676  -14.8877 C   0  0  0  0  0  0  0  0  0  0  0  0
  -20.1738    2.8554  -14.6595 C   0  0  0  0  0  0  0  0  0  0  0  0
  -21.1719    3.7288  -14.4540 N   0  0  0  0  0  0  0  0  0  0  0  0
  -22.4037    3.2418  -14.2036 C   0  0  0  0  0  0  0  0  0  0  0  0
  -22.6925    1.9000  -14.1343 C   0  0  0  0  0  0  0  0  0  0  0  0
  -21.6468    0.9956  -14.2899 C   0  0  0  0  0  0  0  0  0  0  0  0
  -20.3485    1.4630  -14.6208 C   0  0  0  0  0  0  0  0  0  0  0  0
  -19.2350    0.6383  -14.9012 C   0  0  0  0  0  0  0  0  0  0  0  0
  -17.9478    1.1671  -15.1060 C   0  0  0  0  0  0  0  0  0  0  0  0
  -16.3513    4.0498  -16.1997 C   0  0  0  0  0  0  0  0  0  0  0  0
  -16.5196    3.1029  -15.1387 O   0  0  0  0  0  0  0  0  0  0  0  0
  -17.0219    0.1881  -15.3370 O   0  0  0  0  0  0  0  0  0  0  0  0
  -16.1698   -0.2403  -14.2874 C   0  0  0  0  0  0  0  0  0  0  0  0
 33 34  1  0  0  0
 34 23  1  0  0  0
 23 24  1  0  0  0
 23 32  2  0  0  0
 24 25  2  0  0  0
 25 26  1  0  0  0
 25 30  1  0  0  0
 26 27  2  0  0  0
 27 28  1  0  0  0
 28 29  2  0  0  0
 29 22  1  0  0  0
 29 30  1  0  0  0
 22  1  1  0  0  0
  1  2  1  0  0  0
  1  6  2  0  0  0
  2  3  2  0  0  0
  3  4  1  0  0  0
  4  5  2  0  0  0
  4 10  1  0  0  0
  5  6  1  0  0  0
  5  7  1  0  0  0
  7  8  1  0  0  0
  8  9  1  0  0  0
  9 10  1  0  0  0
 10 11  1  0  0  0
 11 12  2  0  0  0
 11 13  1  0  0  0
 13 15  1  0  0  0
 13 14  1  0  0  0
 15 16  1  0  0  0
 15 20  2  0  0  0
 16 17  2  0  0  0
 17 18  1  0  0  0
 18 19  2  0  0  0
 19 20  1  0  0  0
 20 21  1  0  0  0
 30 31  2  0  0  0
 31 32  1  0  0  0
 32 35  1  0  0  0
 35 36  1  0  0  0
M  END
> <minimizedAffinity>
-10.62468

$$$$
