CHEMBL222828


 30 32  0  0  0  0  0  0  0  0999 V2000
  -30.6354   -8.1141   -6.6525 C   0  0  0  0  0  0  0  0  0  0  0  0
  -31.9352   -7.7711   -6.5104 N   0  0  0  0  0  0  0  0  0  0  0  0
  -32.7968   -8.4201   -7.3000 C   0  0  0  0  0  0  0  0  0  0  0  0
  -32.4861   -9.3704   -8.1922 N   0  0  0  0  0  0  0  0  0  0  0  0
  -31.1887   -9.7110   -8.2828 C   0  0  0  0  0  0  0  0  0  0  0  0
  -30.9243  -10.7851   -9.1296 N   0  0  0  0  0  0  0  0  0  0  0  0
  -30.2075   -9.1096   -7.5088 C   0  0  0  0  0  0  0  0  0  0  0  0
  -31.7363  -10.9862   -9.7034 H   0  0  0  0  0  0  0  0  0  0  0  0
  -30.0569  -10.6589   -9.6519 H   0  0  0  0  0  0  0  0  0  0  0  0
  -28.7843   -9.4439   -7.6337 C   0  0  0  0  0  0  0  0  0  0  0  0
  -28.1551   -9.2532   -8.7511 N   0  0  0  0  0  0  0  0  0  0  0  0
  -26.8125   -9.6343   -8.6038 O   0  0  0  0  0  0  0  0  0  0  0  0
  -26.6917  -10.3164   -7.3513 C   0  0  0  0  0  0  0  0  0  0  0  0
  -25.2531  -10.8197   -7.1828 C   0  0  0  0  0  0  0  0  0  0  0  0
  -24.6531  -10.5289   -5.8632 N   0  0  0  0  0  0  0  0  0  0  0  0
  -23.3964   -9.7861   -5.9840 C   0  0  0  0  0  0  0  0  0  0  0  0
  -25.5981   -9.7639   -5.0447 C   0  0  0  0  0  0  0  0  0  0  0  0
  -29.6772   -7.4212   -5.9185 O   0  0  0  0  0  0  0  0  0  0  0  0
  -29.5805   -0.0555   -5.3498 C   0  0  0  0  0  0  0  0  0  0  0  0
  -29.4211   -1.5154   -5.5567 C   0  0  0  0  0  0  0  0  0  0  0  0
  -29.7059   -2.5868   -4.7338 C   0  0  0  0  0  0  0  0  0  0  0  0
  -29.4981   -3.7820   -5.4800 C   0  0  0  0  0  0  0  0  0  0  0  0
  -29.6955   -5.1544   -5.2261 C   0  0  0  0  0  0  0  0  0  0  0  0
  -30.1508   -5.5573   -4.0289 F   0  0  0  0  0  0  0  0  0  0  0  0
  -29.4451   -6.0948   -6.2327 C   0  0  0  0  0  0  0  0  0  0  0  0
  -28.9179   -5.6800   -7.4577 C   0  0  0  0  0  0  0  0  0  0  0  0
  -28.7036   -4.3244   -7.7345 C   0  0  0  0  0  0  0  0  0  0  0  0
  -29.0165   -3.3997   -6.7318 C   0  0  0  0  0  0  0  0  0  0  0  0
  -28.9433   -2.0253   -6.7390 N   0  0  0  0  0  0  0  0  0  0  0  0
  -28.6334   -1.4737   -7.5271 H   0  0  0  0  0  0  0  0  0  0  0  0
 19 20  1  0  0  0
 20 21  2  0  0  0
 20 29  1  0  0  0
 21 22  1  0  0  0
 22 23  1  0  0  0
 22 28  2  0  0  0
 23 24  1  0  0  0
 23 25  2  0  0  0
 25 18  1  0  0  0
 25 26  1  0  0  0
 18  1  1  0  0  0
  1  2  1  0  0  0
  1  7  2  0  0  0
  2  3  2  0  0  0
  3  4  1  0  0  0
  4  5  2  0  0  0
  5  6  1  0  0  0
  5  7  1  0  0  0
  6  8  1  0  0  0
  6  9  1  0  0  0
  7 10  1  0  0  0
 10 11  2  0  0  0
 11 12  1  0  0  0
 12 13  1  0  0  0
 13 14  1  0  0  0
 14 15  1  0  0  0
 15 16  1  0  0  0
 15 17  1  0  0  0
 26 27  2  0  0  0
 27 28  1  0  0  0
 28 29  1  0  0  0
 29 30  1  0  0  0
M  END
> <minimizedAffinity>
-7.38576

$$$$
