CHEMBL3918309


 31 34  0  0  0  0  0  0  0  0999 V2000
  -28.8250   -6.6138   -7.5012 C   0  0  0  0  0  0  0  0  0  0  0  0
  -27.5824   -8.7754   -4.7871 C   0  0  0  0  0  0  0  0  0  0  0  0
  -28.3942   -9.8407   -4.7539 N   0  0  0  0  0  0  0  0  0  0  0  0
  -29.4325   -9.8316   -5.6188 C   0  0  0  0  0  0  0  0  0  0  0  0
  -29.6603   -8.8418   -6.5523 C   0  0  0  0  0  0  0  0  0  0  0  0
  -30.9236   -9.0431   -7.6942 Cl  0  0  0  0  0  0  0  0  0  0  0  0
  -28.7893   -7.7703   -6.5181 C   0  0  0  0  0  0  0  0  0  0  0  0
  -27.7631   -7.7347   -5.6240 N   0  0  0  0  0  0  0  0  0  0  0  0
  -26.4738   -8.8248   -3.9403 N   0  0  0  0  0  0  0  0  0  0  0  0
  -26.6274   -8.1979   -3.1614 H   0  0  0  0  0  0  0  0  0  0  0  0
  -22.4381  -11.3640   -3.0304 C   0  0  0  0  0  0  0  0  0  0  0  0
  -23.5144  -10.6514   -3.6745 N   0  0  0  0  0  0  0  0  0  0  0  0
  -24.6275  -10.1315   -3.0800 C   0  0  0  0  0  0  0  0  0  0  0  0
  -25.3276   -9.5168   -4.0882 C   0  0  0  0  0  0  0  0  0  0  0  0
  -24.5597   -9.7269   -5.2494 C   0  0  0  0  0  0  0  0  0  0  0  0
  -23.4508  -10.4247   -4.9955 N   0  0  0  0  0  0  0  0  0  0  0  0
  -29.7264   -5.4443   -7.0780 C   0  0  0  0  0  0  0  0  0  0  0  0
  -29.0151   -4.1025   -6.9722 C   0  0  0  0  0  0  0  0  0  0  0  0
  -28.5677   -3.5086   -8.1714 C   0  0  0  0  0  0  0  0  0  0  0  0
  -28.0014   -2.2336   -8.1925 C   0  0  0  0  0  0  0  0  0  0  0  0
  -27.8643   -1.5271   -7.0042 C   0  0  0  0  0  0  0  0  0  0  0  0
  -28.2846   -2.1060   -5.8134 C   0  0  0  0  0  0  0  0  0  0  0  0
  -28.8802   -3.3945   -5.7540 C   0  0  0  0  0  0  0  0  0  0  0  0
  -29.4215   -3.8644   -4.3939 C   0  0  0  0  0  0  0  0  0  0  0  0
  -30.9416   -3.7315   -4.1955 C   0  0  0  0  0  0  0  0  0  0  0  0
  -30.0160   -2.8850   -3.3892 C   0  0  0  0  0  0  0  0  0  0  0  0
  -28.7344   -5.0746   -3.8150 C   0  0  0  0  0  0  0  0  0  0  0  0
  -27.3713   -5.0588   -3.8605 N   0  0  0  0  0  0  0  0  0  0  0  0
  -29.3604   -6.0136   -3.3422 O   0  0  0  0  0  0  0  0  0  0  0  0
  -26.8516   -4.2915   -4.2576 H   0  0  0  0  0  0  0  0  0  0  0  0
  -26.8798   -5.8692   -3.5116 H   0  0  0  0  0  0  0  0  0  0  0  0
 11 12  1  0  0  0
 12 13  1  0  0  0
 12 16  1  0  0  0
 13 14  2  0  0  0
 14  9  1  0  0  0
 14 15  1  0  0  0
  9  2  1  0  0  0
  9 10  1  0  0  0
  2  3  1  0  0  0
  2  8  2  0  0  0
  3  4  2  0  0  0
  4  5  1  0  0  0
  5  6  1  0  0  0
  5  7  2  0  0  0
  7  1  1  0  0  0
  7  8  1  0  0  0
  1 17  1  0  0  0
 17 18  1  0  0  0
 18 19  1  0  0  0
 18 23  2  0  0  0
 19 20  2  0  0  0
 20 21  1  0  0  0
 21 22  2  0  0  0
 22 23  1  0  0  0
 23 24  1  0  0  0
 24 27  1  0  0  0
 24 25  1  0  0  0
 24 26  1  0  0  0
 27 28  1  0  0  0
 27 29  2  0  0  0
 28 30  1  0  0  0
 28 31  1  0  0  0
 25 26  1  0  0  0
 15 16  2  0  0  0
M  END
> <minimizedAffinity>
-7.92429

$$$$
