CHEMBL3780052


 29 32  0  0  0  0  0  0  0  0999 V2000
  -28.0895   -2.2467   -8.5082 C   0  0  0  0  0  0  0  0  0  0  0  0
  -28.2538   -3.5407   -8.8380 N   0  0  0  0  0  0  0  0  0  0  0  0
  -28.4353   -4.4778   -7.8663 N   0  0  0  0  0  0  0  0  0  0  0  0
  -28.4580   -4.1468   -6.5562 C   0  0  0  0  0  0  0  0  0  0  0  0
  -28.2436   -2.8058   -6.1516 C   0  0  0  0  0  0  0  0  0  0  0  0
  -28.2324   -2.3698   -4.8012 C   0  0  0  0  0  0  0  0  0  0  0  0
  -27.9672   -1.0431   -4.4496 C   0  0  0  0  0  0  0  0  0  0  0  0
  -27.7150   -0.1078   -5.4398 C   0  0  0  0  0  0  0  0  0  0  0  0
  -27.7491   -0.4936   -6.7790 C   0  0  0  0  0  0  0  0  0  0  0  0
  -28.0190   -1.8308   -7.1634 C   0  0  0  0  0  0  0  0  0  0  0  0
  -28.8148   -5.1593   -5.6171 N   0  0  0  0  0  0  0  0  0  0  0  0
  -28.1045   -5.2554   -4.9022 H   0  0  0  0  0  0  0  0  0  0  0  0
  -29.2146   -6.4722   -5.9915 C   0  0  0  0  0  0  0  0  0  0  0  0
  -28.4115   -7.5890   -5.7219 C   0  0  0  0  0  0  0  0  0  0  0  0
  -28.8529   -8.8742   -6.0285 C   0  0  0  0  0  0  0  0  0  0  0  0
  -30.1204   -9.0683   -6.5772 C   0  0  0  0  0  0  0  0  0  0  0  0
  -30.9593   -7.9777   -6.7993 C   0  0  0  0  0  0  0  0  0  0  0  0
  -30.5063   -6.6864   -6.4900 C   0  0  0  0  0  0  0  0  0  0  0  0
  -32.2335   -8.0435   -7.2972 O   0  0  0  0  0  0  0  0  0  0  0  0
  -32.8678   -9.3163   -7.2616 C   0  0  0  0  0  0  0  0  0  0  0  0
  -28.1250   -1.2941   -9.6846 C   0  0  0  0  0  0  0  0  0  0  0  0
  -25.1236   -1.6483  -12.7960 C   0  0  0  0  0  0  0  0  0  0  0  0
  -26.4759   -1.7234  -13.1260 C   0  0  0  0  0  0  0  0  0  0  0  0
  -27.4594   -1.6296  -12.1295 C   0  0  0  0  0  0  0  0  0  0  0  0
  -27.1028   -1.4755  -10.7849 C   0  0  0  0  0  0  0  0  0  0  0  0
  -25.7402   -1.3677  -10.4665 C   0  0  0  0  0  0  0  0  0  0  0  0
  -24.7641   -1.4572  -11.4609 C   0  0  0  0  0  0  0  0  0  0  0  0
  -22.9294   -0.9421  -13.3601 C   0  0  0  0  0  0  0  0  0  0  0  0
  -24.0734   -1.7292  -13.6670 O   0  0  0  0  0  0  0  0  0  0  0  0
 28 29  1  0  0  0
 29 22  1  0  0  0
 22 23  1  0  0  0
 22 27  2  0  0  0
 23 24  2  0  0  0
 24 25  1  0  0  0
 25 21  1  0  0  0
 25 26  2  0  0  0
 21  1  1  0  0  0
  1  2  1  0  0  0
  1 10  2  0  0  0
  2  3  2  0  0  0
  3  4  1  0  0  0
  4 11  1  0  0  0
  4  5  2  0  0  0
 11 13  1  0  0  0
 11 12  1  0  0  0
 13 14  1  0  0  0
 13 18  2  0  0  0
 14 15  2  0  0  0
 15 16  1  0  0  0
 16 17  2  0  0  0
 17 19  1  0  0  0
 17 18  1  0  0  0
 19 20  1  0  0  0
  5  6  1  0  0  0
  5 10  1  0  0  0
  6  7  2  0  0  0
  7  8  1  0  0  0
  8  9  2  0  0  0
  9 10  1  0  0  0
 26 27  1  0  0  0
M  END
> <minimizedAffinity>
-8.64862

$$$$
