CHEMBL3799843


 33 36  0  0  0  0  0  0  0  0999 V2000
  -28.4539   -8.5454   -7.6372 C   0  0  0  0  0  0  0  0  0  0  0  0
  -29.0567   -7.3964   -7.1222 C   0  0  0  0  0  0  0  0  0  0  0  0
  -29.2773   -7.2261   -5.7347 C   0  0  0  0  0  0  0  0  0  0  0  0
  -29.7767   -6.0527   -5.1465 C   0  0  0  0  0  0  0  0  0  0  0  0
  -29.8899   -5.9097   -3.8144 N   0  0  0  0  0  0  0  0  0  0  0  0
  -29.5169   -6.9508   -3.0693 C   0  0  0  0  0  0  0  0  0  0  0  0
  -29.0858   -8.1316   -3.5236 N   0  0  0  0  0  0  0  0  0  0  0  0
  -28.9579   -8.2470   -4.8480 C   0  0  0  0  0  0  0  0  0  0  0  0
  -28.4478   -9.4220   -5.3705 C   0  0  0  0  0  0  0  0  0  0  0  0
  -28.1332   -9.5817   -6.7378 C   0  0  0  0  0  0  0  0  0  0  0  0
  -28.9932   -9.4495   -9.8175 C   0  0  0  0  0  0  0  0  0  0  0  0
  -28.1283   -8.7065   -8.9559 O   0  0  0  0  0  0  0  0  0  0  0  0
  -30.1783   -4.9913   -5.9989 N   0  0  0  0  0  0  0  0  0  0  0  0
  -31.1858   -4.9998   -6.0826 H   0  0  0  0  0  0  0  0  0  0  0  0
  -29.6207   -3.6939   -6.0079 C   0  0  0  0  0  0  0  0  0  0  0  0
  -29.9488   -2.7745   -4.9918 C   0  0  0  0  0  0  0  0  0  0  0  0
  -30.7477   -3.1384   -3.9770 F   0  0  0  0  0  0  0  0  0  0  0  0
  -29.4293   -1.4880   -4.9699 C   0  0  0  0  0  0  0  0  0  0  0  0
  -28.5460   -1.0877   -5.9637 C   0  0  0  0  0  0  0  0  0  0  0  0
  -28.1958   -1.9885   -6.9747 C   0  0  0  0  0  0  0  0  0  0  0  0
  -27.3212   -1.5911   -7.9502 O   0  0  0  0  0  0  0  0  0  0  0  0
  -28.7177   -3.2910   -7.0202 C   0  0  0  0  0  0  0  0  0  0  0  0
  -28.3460   -4.2286   -8.1390 C   0  0  0  0  0  0  0  0  0  0  0  0
  -27.0654   -0.6667   -7.7953 H   0  0  0  0  0  0  0  0  0  0  0  0
  -27.4894  -10.7199   -7.2195 O   0  0  0  0  0  0  0  0  0  0  0  0
  -26.0575  -10.6349   -7.1285 C   0  0  0  0  0  0  0  0  0  0  0  0
  -25.4339  -11.2061   -5.8428 C   0  0  0  0  0  0  0  0  0  0  0  0
  -24.5822  -10.2046   -5.0576 C   0  0  0  0  0  0  0  0  0  0  0  0
  -23.3270   -9.7756   -5.8243 C   0  0  0  0  0  0  0  0  0  0  0  0
  -22.5119  -10.9108   -6.2888 N   0  0  0  0  0  0  0  0  0  0  0  0
  -21.4277  -10.4149   -7.1502 C   0  0  0  0  0  0  0  0  0  0  0  0
  -23.2735  -11.9478   -6.9859 C   0  0  0  0  0  0  0  0  0  0  0  0
  -24.5214  -12.3932   -6.2108 C   0  0  0  0  0  0  0  0  0  0  0  0
 11 12  1  0  0  0
 12  1  1  0  0  0
  1  2  1  0  0  0
  1 10  2  0  0  0
  2  3  2  0  0  0
  3  4  1  0  0  0
  3  8  1  0  0  0
  4 13  1  0  0  0
  4  5  2  0  0  0
 13 15  1  0  0  0
 13 14  1  0  0  0
 15 16  1  0  0  0
 15 22  2  0  0  0
 16 17  1  0  0  0
 16 18  2  0  0  0
 18 19  1  0  0  0
 19 20  2  0  0  0
 20 21  1  0  0  0
 20 22  1  0  0  0
 21 24  1  0  0  0
 22 23  1  0  0  0
  5  6  1  0  0  0
  6  7  2  0  0  0
  7  8  1  0  0  0
  8  9  2  0  0  0
  9 10  1  0  0  0
 10 25  1  0  0  0
 25 26  1  0  0  0
 26 27  1  0  0  0
 27 28  1  0  0  0
 27 33  1  0  0  0
 28 29  1  0  0  0
 29 30  1  0  0  0
 30 31  1  0  0  0
 30 32  1  0  0  0
 32 33  1  0  0  0
M  END
> <minimizedAffinity>
-8.10480

$$$$
