CHEMBL179517


 35 38  0  0  0  0  0  0  0  0999 V2000
  -16.0345    0.8330  -14.7458 C   0  0  0  0  0  0  0  0  0  0  0  0
  -16.0033   -0.0618  -13.7946 N   0  0  0  0  0  0  0  0  0  0  0  0
  -14.9649   -0.1244  -12.9204 C   0  0  0  0  0  0  0  0  0  0  0  0
  -13.9226    0.6347  -12.9178 N   0  0  0  0  0  0  0  0  0  0  0  0
  -13.9288    1.5564  -13.8872 N   0  0  0  0  0  0  0  0  0  0  0  0
  -12.9226    2.4488  -14.0569 C   0  0  0  0  0  0  0  0  0  0  0  0
  -13.2044    3.2587  -15.1398 C   0  0  0  0  0  0  0  0  0  0  0  0
  -14.4882    2.8010  -15.6681 C   0  0  0  0  0  0  0  0  0  0  0  0
  -14.9021    1.7423  -14.8305 C   0  0  0  0  0  0  0  0  0  0  0  0
  -12.3006    4.3482  -15.5460 C   0  0  0  0  0  0  0  0  0  0  0  0
  -11.1830    4.1506  -16.0171 O   0  0  0  0  0  0  0  0  0  0  0  0
  -12.8287    5.6044  -15.3582 N   0  0  0  0  0  0  0  0  0  0  0  0
  -13.7240    5.6704  -14.8943 H   0  0  0  0  0  0  0  0  0  0  0  0
  -12.1331    6.8408  -15.6786 C   0  0  0  0  0  0  0  0  0  0  0  0
  -12.1458    7.0574  -17.1933 C   0  0  0  0  0  0  0  0  0  0  0  0
  -12.8153    8.3656  -17.6395 C   0  0  0  0  0  0  0  0  0  0  0  0
  -13.1102    8.3809  -19.0887 N   0  0  0  0  0  0  0  0  0  0  0  0
  -14.1169    9.3771  -19.4908 C   0  0  0  0  0  0  0  0  0  0  0  0
  -15.4443    8.6619  -19.3653 C   0  0  0  0  0  0  0  0  0  0  0  0
  -15.1123    7.2985  -19.9297 C   0  0  0  0  0  0  0  0  0  0  0  0
  -13.6498    7.0781  -19.5449 C   0  0  0  0  0  0  0  0  0  0  0  0
  -15.2236    3.3441  -16.8822 C   0  0  0  0  0  0  0  0  0  0  0  0
  -15.9147    4.6750  -16.5767 C   0  0  0  0  0  0  0  0  0  0  0  0
  -14.3816    3.4824  -18.1569 C   0  0  0  0  0  0  0  0  0  0  0  0
  -17.1434    0.8574  -15.5737 N   0  0  0  0  0  0  0  0  0  0  0  0
  -17.0860    0.4276  -16.4846 H   0  0  0  0  0  0  0  0  0  0  0  0
  -22.2499    3.2132  -14.3325 C   0  0  0  0  0  0  0  0  0  0  0  0
  -20.9255    2.5953  -14.6662 C   0  0  0  0  0  0  0  0  0  0  0  0
  -19.8180    3.4022  -14.9356 C   0  0  0  0  0  0  0  0  0  0  0  0
  -18.5777    2.8260  -15.2381 C   0  0  0  0  0  0  0  0  0  0  0  0
  -18.3928    1.4344  -15.2481 C   0  0  0  0  0  0  0  0  0  0  0  0
  -19.5155    0.6273  -15.0072 C   0  0  0  0  0  0  0  0  0  0  0  0
  -20.7643    1.2094  -14.7257 C   0  0  0  0  0  0  0  0  0  0  0  0
  -21.8610    0.4220  -14.5112 O   0  0  0  0  0  0  0  0  0  0  0  0
  -21.6293   -0.5031  -14.6918 H   0  0  0  0  0  0  0  0  0  0  0  0
 27 28  1  0  0  0
 28 29  1  0  0  0
 28 33  2  0  0  0
 29 30  2  0  0  0
 30 31  1  0  0  0
 31 25  1  0  0  0
 31 32  2  0  0  0
 25  1  1  0  0  0
 25 26  1  0  0  0
  1  2  2  0  0  0
  1  9  1  0  0  0
  2  3  1  0  0  0
  3  4  2  0  0  0
  4  5  1  0  0  0
  5  6  1  0  0  0
  5  9  1  0  0  0
  6  7  2  0  0  0
  7 10  1  0  0  0
  7  8  1  0  0  0
 10 11  2  0  0  0
 10 12  1  0  0  0
 12 14  1  0  0  0
 12 13  1  0  0  0
 14 15  1  0  0  0
 15 16  1  0  0  0
 16 17  1  0  0  0
 17 18  1  0  0  0
 17 21  1  0  0  0
 18 19  1  0  0  0
 19 20  1  0  0  0
 20 21  1  0  0  0
  8 22  1  0  0  0
  8  9  2  0  0  0
 22 23  1  0  0  0
 22 24  1  0  0  0
 32 33  1  0  0  0
 33 34  1  0  0  0
 34 35  1  0  0  0
M  END
> <minimizedAffinity>
-7.53652

$$$$
