CHEMBL3604205


 22 25  0  0  0  0  0  0  0  0999 V2000
  -28.5619   -7.8503   -4.3171 C   0  0  0  0  0  0  0  0  0  0  0  0
  -27.6059   -6.8849   -4.6014 C   0  0  0  0  0  0  0  0  0  0  0  0
  -27.9216   -5.5251   -4.4782 C   0  0  0  0  0  0  0  0  0  0  0  0
  -29.1982   -5.0808   -4.0876 C   0  0  0  0  0  0  0  0  0  0  0  0
  -30.1534   -6.0731   -3.7880 C   0  0  0  0  0  0  0  0  0  0  0  0
  -29.8251   -7.4389   -3.8976 C   0  0  0  0  0  0  0  0  0  0  0  0
  -31.5360   -5.7204   -3.3174 C   0  0  0  0  0  0  0  0  0  0  0  0
  -31.8892   -4.2908   -3.6657 C   0  0  0  0  0  0  0  0  0  0  0  0
  -30.7470   -3.3654   -3.2917 C   0  0  0  0  0  0  0  0  0  0  0  0
  -29.4933   -3.6891   -3.9883 N   0  0  0  0  0  0  0  0  0  0  0  0
  -28.8391   -2.6497   -4.7049 C   0  0  0  0  0  0  0  0  0  0  0  0
  -28.3308   -1.6408   -3.9586 N   0  0  0  0  0  0  0  0  0  0  0  0
  -27.6915   -0.6498   -4.5784 C   0  0  0  0  0  0  0  0  0  0  0  0
  -27.4598   -0.5660   -5.8851 N   0  0  0  0  0  0  0  0  0  0  0  0
  -27.9527   -1.5464   -6.6370 C   0  0  0  0  0  0  0  0  0  0  0  0
  -27.7006   -1.4776   -8.0020 C   0  0  0  0  0  0  0  0  0  0  0  0
  -28.1656   -2.4415   -8.8954 C   0  0  0  0  0  0  0  0  0  0  0  0
  -28.9473   -3.4807   -8.4242 C   0  0  0  0  0  0  0  0  0  0  0  0
  -29.2433   -3.5477   -7.0635 C   0  0  0  0  0  0  0  0  0  0  0  0
  -28.6986   -2.6288   -6.1205 C   0  0  0  0  0  0  0  0  0  0  0  0
  -27.4023   -9.7716   -3.5491 C   0  0  0  0  0  0  0  0  0  0  0  0
  -28.3906   -9.2040   -4.4001 O   0  0  0  0  0  0  0  0  0  0  0  0
 21 22  1  0  0  0
 22  1  1  0  0  0
  1  2  1  0  0  0
  1  6  2  0  0  0
  2  3  2  0  0  0
  3  4  1  0  0  0
  4  5  2  0  0  0
  4 10  1  0  0  0
  5  6  1  0  0  0
  5  7  1  0  0  0
  7  8  1  0  0  0
  8  9  1  0  0  0
  9 10  1  0  0  0
 10 11  1  0  0  0
 11 12  1  0  0  0
 11 20  2  0  0  0
 12 13  2  0  0  0
 13 14  1  0  0  0
 14 15  2  0  0  0
 15 16  1  0  0  0
 15 20  1  0  0  0
 16 17  2  0  0  0
 17 18  1  0  0  0
 18 19  2  0  0  0
 19 20  1  0  0  0
M  END
> <minimizedAffinity>
-7.88142

$$$$
