CHEMBL3976183


 43 48  0  0  0  0  0  0  0  0999 V2000
  -28.0298   -2.6303   -8.6218 N   0  0  0  0  0  0  0  0  0  0  0  0
  -27.2638   -2.0787   -9.7755 C   0  0  0  0  0  0  0  0  0  0  0  0
  -27.9801   -2.1586  -10.9714 C   0  0  0  0  0  0  0  0  0  0  0  0
  -27.4649   -1.8839  -12.1632 C   0  0  0  0  0  0  0  0  0  0  0  0
  -26.2143   -1.4324  -12.2847 C   0  0  0  0  0  0  0  0  0  0  0  0
  -25.8298   -1.3226  -13.5394 N   0  0  0  0  0  0  0  0  0  0  0  0
  -24.6765   -0.8174  -13.8892 C   0  0  0  0  0  0  0  0  0  0  0  0
  -23.8038   -0.2699  -12.9393 C   0  0  0  0  0  0  0  0  0  0  0  0
  -24.1342   -0.4753  -11.5687 N   0  0  0  0  0  0  0  0  0  0  0  0
  -25.3632   -1.1038  -11.2115 C   0  0  0  0  0  0  0  0  0  0  0  0
  -25.9063   -1.4623   -9.8675 C   0  0  0  0  0  0  0  0  0  0  0  0
  -22.7009    0.5698  -13.6528 C   0  0  0  0  0  0  0  0  0  0  0  0
  -21.6735   -0.0590  -14.4107 C   0  0  0  0  0  0  0  0  0  0  0  0
  -20.8880    0.8306  -14.9974 N   0  0  0  0  0  0  0  0  0  0  0  0
  -21.3290    2.0222  -14.6836 N   0  0  0  0  0  0  0  0  0  0  0  0
  -20.6699    3.1926  -15.2475 C   0  0  0  0  0  0  0  0  0  0  0  0
  -22.4230    1.9325  -13.8616 C   0  0  0  0  0  0  0  0  0  0  0  0
  -28.0649   -1.2471   -5.0501 C   0  0  0  0  0  0  0  0  0  0  0  0
  -28.5996    0.0305   -5.2426 C   0  0  0  0  0  0  0  0  0  0  0  0
  -28.9238    0.4858   -6.5123 C   0  0  0  0  0  0  0  0  0  0  0  0
  -28.7234   -0.3588   -7.6326 C   0  0  0  0  0  0  0  0  0  0  0  0
  -28.1384   -1.6577   -7.5087 C   0  0  0  0  0  0  0  0  0  0  0  0
  -27.8213   -2.0685   -6.1714 C   0  0  0  0  0  0  0  0  0  0  0  0
  -28.4913   -2.7310   -3.1572 C   0  0  0  0  0  0  0  0  0  0  0  0
  -27.8014   -1.7202   -3.7936 O   0  0  0  0  0  0  0  0  0  0  0  0
  -29.4532    1.7345   -6.6000 O   0  0  0  0  0  0  0  0  0  0  0  0
  -30.7839    2.0604   -6.7236 C   0  0  0  0  0  0  0  0  0  0  0  0
  -27.8957   -4.0718   -8.3487 C   0  0  0  0  0  0  0  0  0  0  0  0
  -29.1735   -4.9109   -7.9305 C   0  0  0  0  0  0  0  0  0  0  0  0
  -29.8181   -4.6264   -6.5684 C   0  0  0  0  0  0  0  0  0  0  0  0
  -30.3695   -5.8719   -5.9369 N   0  0  0  0  0  0  0  0  0  0  0  0
  -30.1753   -5.8607   -4.4818 C   0  0  0  0  0  0  0  0  0  0  0  0
  -28.7758   -6.3842   -4.2725 C   0  0  0  0  0  0  0  0  0  0  0  0
  -28.6724   -7.5414   -5.2726 C   0  0  0  0  0  0  0  0  0  0  0  0
  -29.7447   -7.1685   -6.3268 C   0  0  0  0  0  0  0  0  0  0  0  0
  -28.7847   -8.9788   -4.5948 C   0  0  0  0  0  0  0  0  0  0  0  0
  -27.5749   -9.2202   -3.6723 C   0  0  0  0  0  0  0  0  0  0  0  0
  -26.2915   -9.3841   -4.5253 C   0  0  0  0  0  0  0  0  0  0  0  0
  -25.0909   -9.4954   -3.5882 C   0  0  0  0  0  0  0  0  0  0  0  0
  -26.3597  -10.5321   -5.3643 O   0  0  0  0  0  0  0  0  0  0  0  0
  -27.5045  -10.5541   -6.2239 C   0  0  0  0  0  0  0  0  0  0  0  0
  -27.3413   -9.7261   -7.5046 C   0  0  0  0  0  0  0  0  0  0  0  0
  -28.8302  -10.2556   -5.4841 C   0  0  0  0  0  0  0  0  0  0  0  0
 24 25  1  0  0  0
 25 18  1  0  0  0
 18 19  1  0  0  0
 18 23  2  0  0  0
 19 20  2  0  0  0
 20 26  1  0  0  0
 20 21  1  0  0  0
 26 27  1  0  0  0
 21 22  2  0  0  0
 22  1  1  0  0  0
 22 23  1  0  0  0
  1 28  1  0  0  0
  1  2  1  0  0  0
 28 29  1  0  0  0
 29 30  1  0  0  0
 30 31  1  0  0  0
 31 32  1  0  0  0
 31 35  1  0  0  0
 32 33  1  0  0  0
 33 34  1  0  0  0
 34 36  1  0  0  0
 34 35  1  0  0  0
 36 37  1  0  0  0
 36 43  1  0  0  0
 37 38  1  0  0  0
 38 39  1  0  0  0
 38 40  1  0  0  0
 40 41  1  0  0  0
 41 43  1  0  0  0
 41 42  1  0  0  0
  2  3  1  0  0  0
  2 11  2  0  0  0
  3  4  2  0  0  0
  4  5  1  0  0  0
  5  6  1  0  0  0
  5 10  2  0  0  0
  6  7  2  0  0  0
  7  8  1  0  0  0
  8 12  1  0  0  0
  8  9  2  0  0  0
 12 13  1  0  0  0
 12 17  2  0  0  0
 13 14  2  0  0  0
 14 15  1  0  0  0
 15 16  1  0  0  0
 15 17  1  0  0  0
  9 10  1  0  0  0
 10 11  1  0  0  0
M  END
> <minimizedAffinity>
-8.85993

$$$$
