CHEMBL24137


 32 35  0  0  0  0  0  0  0  0999 V2000
  -30.7543   -7.8639   -6.4477 C   0  0  0  0  0  0  0  0  0  0  0  0
  -29.9421   -8.9520   -6.7432 C   0  0  0  0  0  0  0  0  0  0  0  0
  -28.6853   -9.1246   -6.1236 C   0  0  0  0  0  0  0  0  0  0  0  0
  -27.7670  -10.1165   -6.4898 C   0  0  0  0  0  0  0  0  0  0  0  0
  -26.5841  -10.2538   -5.8614 N   0  0  0  0  0  0  0  0  0  0  0  0
  -26.3205   -9.3908   -4.8810 C   0  0  0  0  0  0  0  0  0  0  0  0
  -27.1022   -8.3819   -4.4858 N   0  0  0  0  0  0  0  0  0  0  0  0
  -28.2730   -8.2459   -5.1187 C   0  0  0  0  0  0  0  0  0  0  0  0
  -29.1182   -7.2013   -4.7816 C   0  0  0  0  0  0  0  0  0  0  0  0
  -30.3554   -7.0056   -5.4149 C   0  0  0  0  0  0  0  0  0  0  0  0
  -32.8135   -8.7281   -7.3415 C   0  0  0  0  0  0  0  0  0  0  0  0
  -31.9339   -7.6347   -7.0925 O   0  0  0  0  0  0  0  0  0  0  0  0
  -28.0582  -10.9549   -7.5979 N   0  0  0  0  0  0  0  0  0  0  0  0
  -27.6693  -11.8848   -7.4624 H   0  0  0  0  0  0  0  0  0  0  0  0
  -28.0106  -10.5472   -8.9438 C   0  0  0  0  0  0  0  0  0  0  0  0
  -26.9055   -9.8532   -9.4534 C   0  0  0  0  0  0  0  0  0  0  0  0
  -26.8345   -9.5210  -10.8055 C   0  0  0  0  0  0  0  0  0  0  0  0
  -27.8829   -9.8681  -11.6550 C   0  0  0  0  0  0  0  0  0  0  0  0
  -27.7652   -9.5146  -13.3339 Cl  0  0  0  0  0  0  0  0  0  0  0  0
  -29.0164  -10.5066  -11.1591 C   0  0  0  0  0  0  0  0  0  0  0  0
  -29.0750  -10.8320   -9.8102 C   0  0  0  0  0  0  0  0  0  0  0  0
  -30.1612  -11.4570   -9.3304 F   0  0  0  0  0  0  0  0  0  0  0  0
  -31.0542   -5.9339   -4.9236 O   0  0  0  0  0  0  0  0  0  0  0  0
  -30.4096   -5.1179   -3.9442 C   0  0  0  0  0  0  0  0  0  0  0  0
  -30.5899   -3.6113   -4.1583 C   0  0  0  0  0  0  0  0  0  0  0  0
  -30.0229   -3.1660   -5.5118 C   0  0  0  0  0  0  0  0  0  0  0  0
  -28.6183   -3.5585   -5.7292 N   0  0  0  0  0  0  0  0  0  0  0  0
  -27.6499   -2.4531   -5.5627 C   0  0  0  0  0  0  0  0  0  0  0  0
  -27.7542   -1.3844   -6.6608 C   0  0  0  0  0  0  0  0  0  0  0  0
  -27.5482   -1.9610   -7.9563 O   0  0  0  0  0  0  0  0  0  0  0  0
  -28.4809   -3.0221   -8.2040 C   0  0  0  0  0  0  0  0  0  0  0  0
  -28.4393   -4.0981   -7.1004 C   0  0  0  0  0  0  0  0  0  0  0  0
 11 12  1  0  0  0
 12  1  1  0  0  0
  1  2  1  0  0  0
  1 10  2  0  0  0
  2  3  2  0  0  0
  3  4  1  0  0  0
  3  8  1  0  0  0
  4 13  1  0  0  0
  4  5  2  0  0  0
 13 15  1  0  0  0
 13 14  1  0  0  0
 15 16  1  0  0  0
 15 21  2  0  0  0
 16 17  2  0  0  0
 17 18  1  0  0  0
 18 19  1  0  0  0
 18 20  2  0  0  0
 20 21  1  0  0  0
 21 22  1  0  0  0
  5  6  1  0  0  0
  6  7  2  0  0  0
  7  8  1  0  0  0
  8  9  2  0  0  0
  9 10  1  0  0  0
 10 23  1  0  0  0
 23 24  1  0  0  0
 24 25  1  0  0  0
 25 26  1  0  0  0
 26 27  1  0  0  0
 27 28  1  0  0  0
 27 32  1  0  0  0
 28 29  1  0  0  0
 29 30  1  0  0  0
 30 31  1  0  0  0
 31 32  1  0  0  0
M  END
> <minimizedAffinity>
-7.56076

$$$$
