CHEMBL3948270


 33 36  0  0  0  0  0  0  0  0999 V2000
  -29.6551  -10.1417   -7.3232 N   0  0  0  0  0  0  0  0  0  0  0  0
  -29.5845   -8.7892   -6.7917 C   0  0  0  0  0  0  0  0  0  0  0  0
  -29.8038   -7.8130   -7.7117 C   0  0  0  0  0  0  0  0  0  0  0  0
  -29.7094   -6.5356   -7.2882 C   0  0  0  0  0  0  0  0  0  0  0  0
  -29.3151   -6.1344   -6.0263 C   0  0  0  0  0  0  0  0  0  0  0  0
  -28.3869   -5.2974   -6.2830 N   0  0  0  0  0  0  0  0  0  0  0  0
  -28.8587   -4.1158   -6.1612 C   0  0  0  0  0  0  0  0  0  0  0  0
  -29.0956   -3.6928   -4.9329 C   0  0  0  0  0  0  0  0  0  0  0  0
  -29.2404   -5.0217   -4.0918 N   0  0  0  0  0  0  0  0  0  0  0  0
  -29.2945   -6.5756   -4.8306 C   0  0  0  0  0  0  0  0  0  0  0  0
  -29.3669   -8.2521   -5.3440 C   0  0  0  0  0  0  0  0  0  0  0  0
  -28.9463   -1.9733   -5.1641 C   0  0  0  0  0  0  0  0  0  0  0  0
  -27.7886   -1.0589   -4.6641 C   0  0  0  0  0  0  0  0  0  0  0  0
  -27.8705    0.2553   -4.9417 N   0  0  0  0  0  0  0  0  0  0  0  0
  -29.0216    0.3740   -5.6198 N   0  0  0  0  0  0  0  0  0  0  0  0
  -29.3587    1.6904   -6.2114 C   0  0  0  0  0  0  0  0  0  0  0  0
  -29.6956   -0.8997   -5.7036 C   0  0  0  0  0  0  0  0  0  0  0  0
  -28.6742  -10.7098  -10.8260 C   0  0  0  0  0  0  0  0  0  0  0  0
  -27.3047  -10.8601  -10.7063 C   0  0  0  0  0  0  0  0  0  0  0  0
  -26.7692  -11.0990   -9.4456 C   0  0  0  0  0  0  0  0  0  0  0  0
  -27.5854  -11.0086   -8.3188 C   0  0  0  0  0  0  0  0  0  0  0  0
  -28.9273  -10.6781   -8.4187 C   0  0  0  0  0  0  0  0  0  0  0  0
  -29.4685  -10.8900   -9.6896 C   0  0  0  0  0  0  0  0  0  0  0  0
  -28.1091   -9.6815  -12.8825 C   0  0  0  0  0  0  0  0  0  0  0  0
  -29.1036  -10.2688  -12.0531 O   0  0  0  0  0  0  0  0  0  0  0  0
  -25.4585  -11.3715   -9.1771 O   0  0  0  0  0  0  0  0  0  0  0  0
  -25.1661  -11.4197   -7.7910 C   0  0  0  0  0  0  0  0  0  0  0  0
  -30.6553  -11.1254   -6.5813 C   0  0  0  0  0  0  0  0  0  0  0  0
  -32.0643  -11.3034   -7.2304 C   0  0  0  0  0  0  0  0  0  0  0  0
  -32.2357  -12.4546   -8.1756 C   0  0  0  0  0  0  0  0  0  0  0  0
  -33.0938  -10.5092   -7.1531 N   0  0  0  0  0  0  0  0  0  0  0  0
  -32.8383   -9.3472   -6.4400 O   0  0  0  0  0  0  0  0  0  0  0  0
  -33.6913   -8.8784   -6.5389 H   0  0  0  0  0  0  0  0  0  0  0  0
 24 25  1  0  0  0
 25 18  1  0  0  0
 18 19  1  0  0  0
 18 23  2  0  0  0
 19 20  2  0  0  0
 20 26  1  0  0  0
 20 21  1  0  0  0
 26 27  1  0  0  0
 21 22  2  0  0  0
 22  1  1  0  0  0
 22 23  1  0  0  0
  1 28  1  0  0  0
  1  2  1  0  0  0
 28 29  1  0  0  0
 29 30  1  0  0  0
 29 31  2  0  0  0
 31 32  1  0  0  0
 32 33  1  0  0  0
  2  3  1  0  0  0
  2 11  2  0  0  0
  3  4  2  0  0  0
  4  5  1  0  0  0
  5  6  1  0  0  0
  5 10  2  0  0  0
  6  7  2  0  0  0
  7  8  1  0  0  0
  8 12  1  0  0  0
  8  9  2  0  0  0
 12 13  1  0  0  0
 12 17  2  0  0  0
 13 14  2  0  0  0
 14 15  1  0  0  0
 15 16  1  0  0  0
 15 17  1  0  0  0
  9 10  1  0  0  0
 10 11  1  0  0  0
M  END
> <minimizedAffinity>
-8.26272

$$$$
