CHEMBL3780971


 32 36  0  0  0  0  0  0  0  0999 V2000
  -27.8668   -9.9269   -8.0955 C   0  0  0  0  0  0  0  0  0  0  0  0
  -27.1487  -10.8916   -7.3991 C   0  0  0  0  0  0  0  0  0  0  0  0
  -27.1025  -10.9605   -6.0516 N   0  0  0  0  0  0  0  0  0  0  0  0
  -27.7993  -10.0165   -5.3866 C   0  0  0  0  0  0  0  0  0  0  0  0
  -27.8173  -10.0089   -4.0066 C   0  0  0  0  0  0  0  0  0  0  0  0
  -28.4723   -9.1169   -3.2326 N   0  0  0  0  0  0  0  0  0  0  0  0
  -29.1550   -8.1639   -3.8956 C   0  0  0  0  0  0  0  0  0  0  0  0
  -29.2200   -8.0539   -5.2862 C   0  0  0  0  0  0  0  0  0  0  0  0
  -28.5292   -9.0070   -6.0545 C   0  0  0  0  0  0  0  0  0  0  0  0
  -28.5568   -8.9688   -7.4179 N   0  0  0  0  0  0  0  0  0  0  0  0
  -28.0504   -9.8029  -12.4087 C   0  0  0  0  0  0  0  0  0  0  0  0
  -26.9562   -9.2708  -11.7342 C   0  0  0  0  0  0  0  0  0  0  0  0
  -26.8991   -9.3191  -10.3354 C   0  0  0  0  0  0  0  0  0  0  0  0
  -27.9302   -9.8960   -9.5695 C   0  0  0  0  0  0  0  0  0  0  0  0
  -29.0206  -10.4358  -10.2694 C   0  0  0  0  0  0  0  0  0  0  0  0
  -29.0801  -10.3871  -11.6697 C   0  0  0  0  0  0  0  0  0  0  0  0
  -27.1545   -9.3063  -14.5522 C   0  0  0  0  0  0  0  0  0  0  0  0
  -28.2253   -9.8151  -13.7646 O   0  0  0  0  0  0  0  0  0  0  0  0
  -29.9416   -7.0130   -5.9164 N   0  0  0  0  0  0  0  0  0  0  0  0
  -30.6148   -7.3516   -6.6019 H   0  0  0  0  0  0  0  0  0  0  0  0
  -29.7106   -5.6292   -5.9237 C   0  0  0  0  0  0  0  0  0  0  0  0
  -28.9875   -4.9904   -6.9317 C   0  0  0  0  0  0  0  0  0  0  0  0
  -28.7261   -3.6139   -6.8752 C   0  0  0  0  0  0  0  0  0  0  0  0
  -29.1638   -2.8192   -5.8080 C   0  0  0  0  0  0  0  0  0  0  0  0
  -29.8789   -3.4764   -4.7980 C   0  0  0  0  0  0  0  0  0  0  0  0
  -30.1531   -4.8523   -4.8540 C   0  0  0  0  0  0  0  0  0  0  0  0
  -28.9352   -1.4559   -5.7933 N   0  0  0  0  0  0  0  0  0  0  0  0
  -29.6539   -0.5601   -4.8888 C   0  0  0  0  0  0  0  0  0  0  0  0
  -30.1284    0.6610   -5.6813 C   0  0  0  0  0  0  0  0  0  0  0  0
  -28.9850    1.3323   -6.4410 C   0  0  0  0  0  0  0  0  0  0  0  0
  -28.2077    0.3236   -7.2877 C   0  0  0  0  0  0  0  0  0  0  0  0
  -27.7624   -0.8739   -6.4499 C   0  0  0  0  0  0  0  0  0  0  0  0
 17 18  1  0  0  0
 18 11  1  0  0  0
 11 12  1  0  0  0
 11 16  2  0  0  0
 12 13  2  0  0  0
 13 14  1  0  0  0
 14  1  1  0  0  0
 14 15  2  0  0  0
  1  2  1  0  0  0
  1 10  2  0  0  0
  2  3  2  0  0  0
  3  4  1  0  0  0
  4  5  1  0  0  0
  4  9  2  0  0  0
  5  6  2  0  0  0
  6  7  1  0  0  0
  7  8  2  0  0  0
  8 19  1  0  0  0
  8  9  1  0  0  0
 19 21  1  0  0  0
 19 20  1  0  0  0
 21 22  1  0  0  0
 21 26  2  0  0  0
 22 23  2  0  0  0
 23 24  1  0  0  0
 24 27  1  0  0  0
 24 25  2  0  0  0
 27 28  1  0  0  0
 27 32  1  0  0  0
 28 29  1  0  0  0
 29 30  1  0  0  0
 30 31  1  0  0  0
 31 32  1  0  0  0
 25 26  1  0  0  0
  9 10  1  0  0  0
 15 16  1  0  0  0
M  END
> <minimizedAffinity>
-8.58758

$$$$
