CHEMBL3986404


 34 38  0  0  0  0  0  0  0  0999 V2000
  -27.9065   -9.0803   -7.3040 C   0  0  0  0  0  0  0  0  0  0  0  0
  -28.5970   -7.9334   -6.9071 C   0  0  0  0  0  0  0  0  0  0  0  0
  -28.9674   -7.7132   -5.5675 C   0  0  0  0  0  0  0  0  0  0  0  0
  -29.6880   -6.5864   -5.1330 C   0  0  0  0  0  0  0  0  0  0  0  0
  -29.9596   -6.3714   -3.8368 N   0  0  0  0  0  0  0  0  0  0  0  0
  -29.5631   -7.3262   -2.9877 C   0  0  0  0  0  0  0  0  0  0  0  0
  -28.9011   -8.4516   -3.3003 N   0  0  0  0  0  0  0  0  0  0  0  0
  -28.5961   -8.6361   -4.5885 C   0  0  0  0  0  0  0  0  0  0  0  0
  -27.8791   -9.7682   -4.9822 C   0  0  0  0  0  0  0  0  0  0  0  0
  -27.5071   -9.9999   -6.3163 C   0  0  0  0  0  0  0  0  0  0  0  0
  -28.7196   -9.4167   -9.5250 C   0  0  0  0  0  0  0  0  0  0  0  0
  -27.6215   -9.3662   -8.6134 O   0  0  0  0  0  0  0  0  0  0  0  0
  -30.1875   -5.6874   -6.1027 N   0  0  0  0  0  0  0  0  0  0  0  0
  -31.1597   -5.8915   -6.3247 H   0  0  0  0  0  0  0  0  0  0  0  0
  -29.8273   -4.3489   -6.3514 C   0  0  0  0  0  0  0  0  0  0  0  0
  -30.1434   -3.3176   -5.4695 C   0  0  0  0  0  0  0  0  0  0  0  0
  -29.5977   -2.0401   -5.6363 C   0  0  0  0  0  0  0  0  0  0  0  0
  -28.7354   -1.7728   -6.7051 C   0  0  0  0  0  0  0  0  0  0  0  0
  -28.0315   -0.1957   -6.7867 Cl  0  0  0  0  0  0  0  0  0  0  0  0
  -28.4413   -2.7747   -7.6333 C   0  0  0  0  0  0  0  0  0  0  0  0
  -27.4203   -2.4944   -8.9981 Cl  0  0  0  0  0  0  0  0  0  0  0  0
  -28.9836   -4.0498   -7.4419 C   0  0  0  0  0  0  0  0  0  0  0  0
  -28.6751   -5.0422   -8.2974 F   0  0  0  0  0  0  0  0  0  0  0  0
  -26.7714  -11.0950   -6.7160 O   0  0  0  0  0  0  0  0  0  0  0  0
  -25.3402  -10.9876   -6.6445 C   0  0  0  0  0  0  0  0  0  0  0  0
  -24.7088  -11.7442   -7.8080 C   0  0  0  0  0  0  0  0  0  0  0  0
  -23.3598  -12.1473   -7.2745 C   0  0  0  0  0  0  0  0  0  0  0  0
  -22.3387  -11.1828   -7.5717 O   0  0  0  0  0  0  0  0  0  0  0  0
  -21.4553  -11.2134   -6.4391 C   0  0  0  0  0  0  0  0  0  0  0  0
  -22.3807  -11.3006   -5.2365 C   0  0  0  0  0  0  0  0  0  0  0  0
  -23.5238  -12.1700   -5.7654 C   0  0  0  0  0  0  0  0  0  0  0  0
  -24.8022  -11.5859   -5.4505 O   0  0  0  0  0  0  0  0  0  0  0  0
  -21.6933  -11.8581   -4.1179 O   0  0  0  0  0  0  0  0  0  0  0  0
  -22.1571  -11.3312   -2.8788 C   0  0  0  0  0  0  0  0  0  0  0  0
 11 12  1  0  0  0
 12  1  1  0  0  0
  1  2  1  0  0  0
  1 10  2  0  0  0
  2  3  2  0  0  0
  3  4  1  0  0  0
  3  8  1  0  0  0
  4 13  1  0  0  0
  4  5  2  0  0  0
 13 15  1  0  0  0
 13 14  1  0  0  0
 15 16  1  0  0  0
 15 22  2  0  0  0
 16 17  2  0  0  0
 17 18  1  0  0  0
 18 19  1  0  0  0
 18 20  2  0  0  0
 20 21  1  0  0  0
 20 22  1  0  0  0
 22 23  1  0  0  0
  5  6  1  0  0  0
  6  7  2  0  0  0
  7  8  1  0  0  0
  8  9  2  0  0  0
  9 10  1  0  0  0
 10 24  1  0  0  0
 24 25  1  0  0  0
 25 26  1  0  0  0
 25 32  1  0  0  0
 26 27  1  0  0  0
 27 28  1  0  0  0
 27 31  1  0  0  0
 28 29  1  0  0  0
 29 30  1  0  0  0
 30 33  1  0  0  0
 30 31  1  0  0  0
 33 34  1  0  0  0
 31 32  1  0  0  0
M  END
> <minimizedAffinity>
-8.09458

$$$$
