CHEMBL4443752


 43 47  0  0  0  0  0  0  0  0999 V2000
  -24.9181   -1.3367  -12.8651 C   0  0  0  0  0  0  0  0  0  0  0  0
  -24.5035   -1.2194  -11.5342 C   0  0  0  0  0  0  0  0  0  0  0  0
  -25.3862   -1.5142  -10.4869 C   0  0  0  0  0  0  0  0  0  0  0  0
  -26.7056   -1.8751  -10.7501 C   0  0  0  0  0  0  0  0  0  0  0  0
  -27.1630   -1.7579  -12.0817 C   0  0  0  0  0  0  0  0  0  0  0  0
  -26.2710   -1.5122  -13.1293 C   0  0  0  0  0  0  0  0  0  0  0  0
  -26.7313   -1.4834  -14.3877 F   0  0  0  0  0  0  0  0  0  0  0  0
  -27.5892   -2.3368   -9.7660 N   0  0  0  0  0  0  0  0  0  0  0  0
  -28.2828   -2.9820  -10.1216 H   0  0  0  0  0  0  0  0  0  0  0  0
  -27.6858   -2.3102   -8.3673 C   0  0  0  0  0  0  0  0  0  0  0  0
  -27.5100   -1.0480   -7.8993 N   0  0  0  0  0  0  0  0  0  0  0  0
  -28.1075   -0.6925   -6.7356 C   0  0  0  0  0  0  0  0  0  0  0  0
  -29.0302   -1.4542   -6.0884 C   0  0  0  0  0  0  0  0  0  0  0  0
  -29.1974   -2.7157   -6.5494 C   0  0  0  0  0  0  0  0  0  0  0  0
  -30.0245   -3.5565   -5.7711 N   0  0  0  0  0  0  0  0  0  0  0  0
  -29.2767   -4.5767   -5.2312 C   0  0  0  0  0  0  0  0  0  0  0  0
  -28.6206   -5.4078   -6.0439 C   0  0  0  0  0  0  0  0  0  0  0  0
  -28.3375   -4.7552   -7.5143 C   0  0  0  0  0  0  0  0  0  0  0  0
  -28.0211   -5.3800   -8.5175 O   0  0  0  0  0  0  0  0  0  0  0  0
  -28.4181   -3.2355   -7.5860 C   0  0  0  0  0  0  0  0  0  0  0  0
  -30.6160   -4.0394   -6.4723 H   0  0  0  0  0  0  0  0  0  0  0  0
  -28.9764   -6.7847   -5.5391 C   0  0  0  0  0  0  0  0  0  0  0  0
  -29.1862   -6.9027   -4.1594 C   0  0  0  0  0  0  0  0  0  0  0  0
  -29.0084   -8.1325   -3.5250 C   0  0  0  0  0  0  0  0  0  0  0  0
  -28.6526   -9.2549   -4.2616 C   0  0  0  0  0  0  0  0  0  0  0  0
  -28.3923  -10.4004   -3.6203 F   0  0  0  0  0  0  0  0  0  0  0  0
  -28.5258   -9.1945   -5.6423 C   0  0  0  0  0  0  0  0  0  0  0  0
  -28.6887   -7.9612   -6.2946 C   0  0  0  0  0  0  0  0  0  0  0  0
  -24.0519   -1.2436  -13.9338 O   0  0  0  0  0  0  0  0  0  0  0  0
  -21.1598    1.0197  -14.2712 C   0  0  0  0  0  0  0  0  0  0  0  0
  -21.8832   -0.1651  -14.3522 C   0  0  0  0  0  0  0  0  0  0  0  0
  -23.2311   -0.1361  -14.0054 C   0  0  0  0  0  0  0  0  0  0  0  0
  -23.8228    1.0930  -13.7305 C   0  0  0  0  0  0  0  0  0  0  0  0
  -23.0089    2.2124  -13.6582 C   0  0  0  0  0  0  0  0  0  0  0  0
  -21.6760    2.1853  -13.8506 N   0  0  0  0  0  0  0  0  0  0  0  0
  -19.2978    2.1970  -15.2563 C   0  0  0  0  0  0  0  0  0  0  0  0
  -19.9326    3.1973  -15.5776 O   0  0  0  0  0  0  0  0  0  0  0  0
  -19.8178    1.0824  -14.6287 N   0  0  0  0  0  0  0  0  0  0  0  0
  -19.2036    0.5716  -14.0109 H   0  0  0  0  0  0  0  0  0  0  0  0
  -17.8281    2.0623  -15.5940 C   0  0  0  0  0  0  0  0  0  0  0  0
  -17.3044    0.7512  -15.0593 C   0  0  0  0  0  0  0  0  0  0  0  0
  -16.0485    0.3151  -13.0605 C   0  0  0  0  0  0  0  0  0  0  0  0
  -15.9376    0.9395  -14.4209 C   0  0  0  0  0  0  0  0  0  0  0  0
 42 43  1  0  0  0
 43 41  1  0  0  0
 41 40  1  0  0  0
 40 36  1  0  0  0
 36 37  2  0  0  0
 36 38  1  0  0  0
 38 30  1  0  0  0
 38 39  1  0  0  0
 30 31  1  0  0  0
 30 35  2  0  0  0
 31 32  2  0  0  0
 32 29  1  0  0  0
 32 33  1  0  0  0
 29  1  1  0  0  0
  1  2  1  0  0  0
  1  6  2  0  0  0
  2  3  2  0  0  0
  3  4  1  0  0  0
  4  8  1  0  0  0
  4  5  2  0  0  0
  8 10  1  0  0  0
  8  9  1  0  0  0
 10 11  1  0  0  0
 10 20  2  0  0  0
 11 12  2  0  0  0
 12 13  1  0  0  0
 13 14  2  0  0  0
 14 15  1  0  0  0
 14 20  1  0  0  0
 15 16  1  0  0  0
 15 21  1  0  0  0
 16 17  2  0  0  0
 17 22  1  0  0  0
 17 18  1  0  0  0
 22 23  1  0  0  0
 22 28  2  0  0  0
 23 24  2  0  0  0
 24 25  1  0  0  0
 25 26  1  0  0  0
 25 27  2  0  0  0
 27 28  1  0  0  0
 18 19  2  0  0  0
 18 20  1  0  0  0
  5  6  1  0  0  0
  6  7  1  0  0  0
 33 34  2  0  0  0
 34 35  1  0  0  0
M  END
> <minimizedAffinity>
-10.63452

$$$$
