CHEMBL2403367


 27 30  0  0  0  0  0  0  0  0999 V2000
  -16.6619    1.6063  -15.6047 C   0  0  0  0  0  0  0  0  0  0  0  0
  -16.6878    2.9631  -15.9869 C   0  0  0  0  0  0  0  0  0  0  0  0
  -17.8554    3.7219  -15.8787 C   0  0  0  0  0  0  0  0  0  0  0  0
  -18.9639    3.0909  -15.3597 C   0  0  0  0  0  0  0  0  0  0  0  0
  -18.9471    1.7597  -14.9304 C   0  0  0  0  0  0  0  0  0  0  0  0
  -17.7971    0.9975  -15.0547 C   0  0  0  0  0  0  0  0  0  0  0  0
  -20.3087    1.4684  -14.4578 C   0  0  0  0  0  0  0  0  0  0  0  0
  -20.7420    0.2918  -13.9749 C   0  0  0  0  0  0  0  0  0  0  0  0
  -21.1188    2.7315  -14.6613 C   0  0  0  0  0  0  0  0  0  0  0  0
  -22.2832    2.9525  -14.3917 O   0  0  0  0  0  0  0  0  0  0  0  0
  -20.2277    3.6428  -15.1998 N   0  0  0  0  0  0  0  0  0  0  0  0
  -20.5006    4.5825  -15.4424 H   0  0  0  0  0  0  0  0  0  0  0  0
  -22.1134    0.0442  -13.7423 C   0  0  0  0  0  0  0  0  0  0  0  0
  -22.8596    0.0468  -12.5835 C   0  0  0  0  0  0  0  0  0  0  0  0
  -24.1517   -0.4361  -12.9055 C   0  0  0  0  0  0  0  0  0  0  0  0
  -24.1724   -0.6409  -14.2615 C   0  0  0  0  0  0  0  0  0  0  0  0
  -22.9392   -0.3370  -14.7768 N   0  0  0  0  0  0  0  0  0  0  0  0
  -25.3074   -1.1996  -15.0203 C   0  0  0  0  0  0  0  0  0  0  0  0
  -26.5344   -1.4595  -14.1205 C   0  0  0  0  0  0  0  0  0  0  0  0
  -26.4275   -1.3575  -12.6487 N   0  0  0  0  0  0  0  0  0  0  0  0
  -27.5777   -1.6758  -11.9315 C   0  0  0  0  0  0  0  0  0  0  0  0
  -27.5738   -1.5280  -10.4250 C   0  0  0  0  0  0  0  0  0  0  0  0
  -28.6074   -2.0699  -12.4860 O   0  0  0  0  0  0  0  0  0  0  0  0
  -25.2659   -0.7497  -11.9890 C   0  0  0  0  0  0  0  0  0  0  0  0
  -22.6565   -0.4638  -15.7398 H   0  0  0  0  0  0  0  0  0  0  0  0
  -14.7958    1.2747  -17.0108 C   0  0  0  0  0  0  0  0  0  0  0  0
  -15.4542    0.9842  -15.7821 O   0  0  0  0  0  0  0  0  0  0  0  0
 26 27  1  0  0  0
 27  1  1  0  0  0
  1  2  1  0  0  0
  1  6  2  0  0  0
  2  3  2  0  0  0
  3  4  1  0  0  0
  4  5  2  0  0  0
  4 11  1  0  0  0
  5  6  1  0  0  0
  5  7  1  0  0  0
  7  8  2  0  0  0
  7  9  1  0  0  0
  8 13  1  0  0  0
 13 14  2  0  0  0
 13 17  1  0  0  0
 14 15  1  0  0  0
 15 16  2  0  0  0
 15 24  1  0  0  0
 16 17  1  0  0  0
 16 18  1  0  0  0
 17 25  1  0  0  0
 18 19  1  0  0  0
 19 20  1  0  0  0
 20 21  1  0  0  0
 20 24  1  0  0  0
 21 22  1  0  0  0
 21 23  2  0  0  0
  9 10  2  0  0  0
  9 11  1  0  0  0
 11 12  1  0  0  0
M  END
> <minimizedAffinity>
-9.37785

$$$$
