CHEMBL204700


 30 33  0  0  0  0  0  0  0  0999 V2000
  -22.0896    0.3152  -14.1314 C   0  0  0  0  0  0  0  0  0  0  0  0
  -20.8716    0.3536  -14.7700 C   0  0  0  0  0  0  0  0  0  0  0  0
  -20.2471    1.5682  -14.9616 C   0  0  0  0  0  0  0  0  0  0  0  0
  -20.8586    2.7092  -14.6279 N   0  0  0  0  0  0  0  0  0  0  0  0
  -22.0944    2.5904  -14.1242 C   0  0  0  0  0  0  0  0  0  0  0  0
  -22.7462    1.4476  -13.8435 N   0  0  0  0  0  0  0  0  0  0  0  0
  -18.9523    1.5665  -15.4492 N   0  0  0  0  0  0  0  0  0  0  0  0
  -18.0084    0.5138  -15.0451 C   0  0  0  0  0  0  0  0  0  0  0  0
  -16.7270    1.0697  -14.3730 C   0  0  0  0  0  0  0  0  0  0  0  0
  -16.1290    2.2654  -15.0408 N   0  0  0  0  0  0  0  0  0  0  0  0
  -17.2286    3.2572  -15.0320 C   0  0  0  0  0  0  0  0  0  0  0  0
  -18.4144    2.8470  -15.9198 C   0  0  0  0  0  0  0  0  0  0  0  0
  -15.6077    1.8895  -16.3834 C   0  0  0  0  0  0  0  0  0  0  0  0
  -14.1896    2.3746  -16.7731 C   0  0  0  0  0  0  0  0  0  0  0  0
  -13.4105    3.0026  -15.6120 C   0  0  0  0  0  0  0  0  0  0  0  0
  -12.1042    2.4434  -15.2297 N   0  0  0  0  0  0  0  0  0  0  0  0
  -12.1396    0.9869  -14.9607 C   0  0  0  0  0  0  0  0  0  0  0  0
  -12.9327    0.5951  -13.7018 C   0  0  0  0  0  0  0  0  0  0  0  0
  -12.4000    1.2401  -12.5377 O   0  0  0  0  0  0  0  0  0  0  0  0
  -12.4031    2.6629  -12.6931 C   0  0  0  0  0  0  0  0  0  0  0  0
  -11.6480    3.1069  -13.9699 C   0  0  0  0  0  0  0  0  0  0  0  0
  -22.6720   -0.8913  -13.7044 N   0  0  0  0  0  0  0  0  0  0  0  0
  -22.2181   -1.6607  -14.1813 H   0  0  0  0  0  0  0  0  0  0  0  0
  -26.0848   -1.2758  -12.1712 C   0  0  0  0  0  0  0  0  0  0  0  0
  -26.1440   -1.5325  -13.5194 C   0  0  0  0  0  0  0  0  0  0  0  0
  -24.9606   -1.3487  -14.1929 N   0  0  0  0  0  0  0  0  0  0  0  0
  -23.9829   -1.0186  -13.3737 C   0  0  0  0  0  0  0  0  0  0  0  0
  -24.5011   -0.7868  -11.7424 S   0  0  0  0  0  0  0  0  0  0  0  0
  -28.0701   -1.4787  -10.5402 N   0  0  0  0  0  0  0  0  0  0  0  0
  -27.1724   -1.4035  -11.2623 C   0  0  0  0  0  0  0  0  0  0  0  0
 29 30  3  0  0  0
 30 24  1  0  0  0
 24 25  2  0  0  0
 24 28  1  0  0  0
 25 26  1  0  0  0
 26 27  2  0  0  0
 27 22  1  0  0  0
 27 28  1  0  0  0
 22  1  1  0  0  0
 22 23  1  0  0  0
  1  2  1  0  0  0
  1  6  2  0  0  0
  2  3  2  0  0  0
  3  7  1  0  0  0
  3  4  1  0  0  0
  7  8  1  0  0  0
  7 12  1  0  0  0
  8  9  1  0  0  0
  9 10  1  0  0  0
 10 13  1  0  0  0
 10 11  1  0  0  0
 13 14  1  0  0  0
 14 15  1  0  0  0
 15 16  1  0  0  0
 16 17  1  0  0  0
 16 21  1  0  0  0
 17 18  1  0  0  0
 18 19  1  0  0  0
 19 20  1  0  0  0
 20 21  1  0  0  0
 11 12  1  0  0  0
  4  5  2  0  0  0
  5  6  1  0  0  0
M  END
> <minimizedAffinity>
-7.16332

$$$$
