CHEMBL3593293


 39 43  0  0  0  0  0  0  0  0999 V2000
  -26.3562   -1.8630  -10.8125 C   0  0  0  0  0  0  0  0  0  0  0  0
  -26.9920   -0.8586  -11.3742 N   0  0  0  0  0  0  0  0  0  0  0  0
  -26.1785   -0.1483  -12.2134 C   0  0  0  0  0  0  0  0  0  0  0  0
  -24.8707   -0.5759  -12.2797 C   0  0  0  0  0  0  0  0  0  0  0  0
  -24.6801   -1.9249  -11.2241 S   0  0  0  0  0  0  0  0  0  0  0  0
  -23.7758   -0.0227  -13.0783 C   0  0  0  0  0  0  0  0  0  0  0  0
  -22.8238   -0.8852  -13.6519 C   0  0  0  0  0  0  0  0  0  0  0  0
  -21.7508   -0.3817  -14.3923 C   0  0  0  0  0  0  0  0  0  0  0  0
  -21.6173    0.9932  -14.5563 C   0  0  0  0  0  0  0  0  0  0  0  0
  -22.5481    1.8607  -13.9923 C   0  0  0  0  0  0  0  0  0  0  0  0
  -23.6175    1.3593  -13.2540 C   0  0  0  0  0  0  0  0  0  0  0  0
  -20.5703    1.5365  -15.3464 N   0  0  0  0  0  0  0  0  0  0  0  0
  -20.7835    1.7232  -16.3265 H   0  0  0  0  0  0  0  0  0  0  0  0
  -19.6892    2.8273  -14.6963 S   0  0  0  0  0  0  0  0  0  0  0  0
  -20.3032    4.0255  -15.2228 O   0  0  0  0  0  0  0  0  0  0  0  0
  -19.5565    2.6361  -13.2672 O   0  0  0  0  0  0  0  0  0  0  0  0
  -18.0841    2.6744  -15.4501 C   0  0  0  0  0  0  0  0  0  0  0  0
  -17.4000    3.8208  -15.8722 C   0  0  0  0  0  0  0  0  0  0  0  0
  -16.0957    3.7029  -16.3560 C   0  0  0  0  0  0  0  0  0  0  0  0
  -15.4796    2.4508  -16.4139 C   0  0  0  0  0  0  0  0  0  0  0  0
  -16.1683    1.3095  -16.0010 C   0  0  0  0  0  0  0  0  0  0  0  0
  -17.4714    1.4188  -15.5146 C   0  0  0  0  0  0  0  0  0  0  0  0
  -26.9161   -2.7980  -10.0049 N   0  0  0  0  0  0  0  0  0  0  0  0
  -27.2614   -3.6603  -10.4050 H   0  0  0  0  0  0  0  0  0  0  0  0
  -28.5912   -3.2600   -6.7544 C   0  0  0  0  0  0  0  0  0  0  0  0
  -28.1039   -3.5393   -8.0114 C   0  0  0  0  0  0  0  0  0  0  0  0
  -27.5309   -2.5413   -8.7687 C   0  0  0  0  0  0  0  0  0  0  0  0
  -27.5249   -1.2762   -8.3252 N   0  0  0  0  0  0  0  0  0  0  0  0
  -28.0254   -1.0655   -7.0879 C   0  0  0  0  0  0  0  0  0  0  0  0
  -28.0142    0.3393   -6.5693 C   0  0  0  0  0  0  0  0  0  0  0  0
  -28.5260   -2.0146   -6.2683 N   0  0  0  0  0  0  0  0  0  0  0  0
  -30.4208   -6.4846   -4.5855 N   0  0  0  0  0  0  0  0  0  0  0  0
  -29.7922   -6.6347   -5.9306 C   0  0  0  0  0  0  0  0  0  0  0  0
  -28.6033   -5.6749   -6.2340 C   0  0  0  0  0  0  0  0  0  0  0  0
  -29.0551   -4.3113   -5.9906 N   0  0  0  0  0  0  0  0  0  0  0  0
  -29.5942   -4.0609   -4.6508 C   0  0  0  0  0  0  0  0  0  0  0  0
  -30.7430   -5.0544   -4.3670 C   0  0  0  0  0  0  0  0  0  0  0  0
  -28.9127   -8.3989   -3.9518 C   0  0  0  0  0  0  0  0  0  0  0  0
  -29.5600   -7.0763   -3.5541 C   0  0  0  0  0  0  0  0  0  0  0  0
 38 39  1  0  0  0
 39 32  1  0  0  0
 32 33  1  0  0  0
 32 37  1  0  0  0
 33 34  1  0  0  0
 34 35  1  0  0  0
 35 25  1  0  0  0
 35 36  1  0  0  0
 25 26  1  0  0  0
 25 31  2  0  0  0
 26 27  2  0  0  0
 27 23  1  0  0  0
 27 28  1  0  0  0
 23  1  1  0  0  0
 23 24  1  0  0  0
  1  2  2  0  0  0
  1  5  1  0  0  0
  2  3  1  0  0  0
  3  4  2  0  0  0
  4  6  1  0  0  0
  4  5  1  0  0  0
  6  7  1  0  0  0
  6 11  2  0  0  0
  7  8  2  0  0  0
  8  9  1  0  0  0
  9 12  1  0  0  0
  9 10  2  0  0  0
 12 14  1  0  0  0
 12 13  1  0  0  0
 14 15  2  0  0  0
 14 16  2  0  0  0
 14 17  1  0  0  0
 17 18  1  0  0  0
 17 22  2  0  0  0
 18 19  2  0  0  0
 19 20  1  0  0  0
 20 21  2  0  0  0
 21 22  1  0  0  0
 10 11  1  0  0  0
 28 29  2  0  0  0
 29 30  1  0  0  0
 29 31  1  0  0  0
 36 37  1  0  0  0
M  END
> <minimizedAffinity>
-10.08314

$$$$
