CHEMBL2018768


 35 37  0  0  0  0  0  0  0  0999 V2000
  -16.1277    2.4093  -15.9074 C   0  0  0  0  0  0  0  0  0  0  0  0
  -14.7935    2.2083  -15.4990 C   0  0  0  0  0  0  0  0  0  0  0  0
  -14.4111    1.1795  -14.6513 C   0  0  0  0  0  0  0  0  0  0  0  0
  -13.1132    1.0021  -14.3897 N   0  0  0  0  0  0  0  0  0  0  0  0
  -12.7970   -0.0429  -13.6182 C   0  0  0  0  0  0  0  0  0  0  0  0
  -13.6517   -0.9300  -13.1048 N   0  0  0  0  0  0  0  0  0  0  0  0
  -14.9526   -0.7378  -13.3816 C   0  0  0  0  0  0  0  0  0  0  0  0
  -15.4022    0.3488  -14.1464 C   0  0  0  0  0  0  0  0  0  0  0  0
  -16.7581    0.6408  -14.4059 C   0  0  0  0  0  0  0  0  0  0  0  0
  -17.1321    1.6536  -15.2934 C   0  0  0  0  0  0  0  0  0  0  0  0
  -15.9057   -1.6772  -12.9360 N   0  0  0  0  0  0  0  0  0  0  0  0
  -16.8390   -1.2823  -12.9759 H   0  0  0  0  0  0  0  0  0  0  0  0
  -15.8760   -3.0778  -12.9877 C   0  0  0  0  0  0  0  0  0  0  0  0
  -16.2716   -3.7920  -11.8532 C   0  0  0  0  0  0  0  0  0  0  0  0
  -16.0651   -5.1686  -11.7615 C   0  0  0  0  0  0  0  0  0  0  0  0
  -15.4314   -5.8655  -12.7924 C   0  0  0  0  0  0  0  0  0  0  0  0
  -15.0891   -5.1649  -13.9584 C   0  0  0  0  0  0  0  0  0  0  0  0
  -14.3124   -5.9577  -15.2872 Cl  0  0  0  0  0  0  0  0  0  0  0  0
  -15.2976   -3.7857  -14.0452 C   0  0  0  0  0  0  0  0  0  0  0  0
  -15.0920   -7.2302  -12.6737 N   0  0  0  0  0  0  0  0  0  0  0  0
  -13.9965   -7.7352  -12.0293 C   0  0  0  0  0  0  0  0  0  0  0  0
  -13.1457   -7.1096  -11.4130 O   0  0  0  0  0  0  0  0  0  0  0  0
  -15.5959   -7.8909  -13.2537 H   0  0  0  0  0  0  0  0  0  0  0  0
  -13.9499   -9.0826  -12.2086 O   0  0  0  0  0  0  0  0  0  0  0  0
  -12.6826   -9.5277  -12.6973 C   0  0  0  0  0  0  0  0  0  0  0  0
  -18.4901    1.7471  -15.3831 O   0  0  0  0  0  0  0  0  0  0  0  0
  -19.1705    2.7815  -14.6999 C   0  0  0  0  0  0  0  0  0  0  0  0
  -16.4450    3.3168  -16.8894 O   0  0  0  0  0  0  0  0  0  0  0  0
  -15.5627    4.4593  -17.0292 C   0  0  0  0  0  0  0  0  0  0  0  0
  -15.2929    4.8093  -18.5130 C   0  0  0  0  0  0  0  0  0  0  0  0
  -13.9045    4.6884  -19.0100 N   0  0  0  0  0  0  0  0  0  0  0  0
  -14.2660    7.2086  -19.0576 C   0  0  0  0  0  0  0  0  0  0  0  0
  -13.2919    6.0339  -19.0506 C   0  0  0  0  0  0  0  0  0  0  0  0
  -13.0937    3.6786  -18.3249 C   0  0  0  0  0  0  0  0  0  0  0  0
  -13.0635    2.2965  -18.9700 C   0  0  0  0  0  0  0  0  0  0  0  0
 32 33  1  0  0  0
 33 31  1  0  0  0
 31 34  1  0  0  0
 31 30  1  0  0  0
 34 35  1  0  0  0
 30 29  1  0  0  0
 29 28  1  0  0  0
 28  1  1  0  0  0
  1  2  1  0  0  0
  1 10  2  0  0  0
  2  3  2  0  0  0
  3  4  1  0  0  0
  3  8  1  0  0  0
  4  5  2  0  0  0
  5  6  1  0  0  0
  6  7  2  0  0  0
  7 11  1  0  0  0
  7  8  1  0  0  0
 11 13  1  0  0  0
 11 12  1  0  0  0
 13 14  1  0  0  0
 13 19  2  0  0  0
 14 15  2  0  0  0
 15 16  1  0  0  0
 16 20  1  0  0  0
 16 17  2  0  0  0
 20 21  1  0  0  0
 20 23  1  0  0  0
 21 22  2  0  0  0
 21 24  1  0  0  0
 24 25  1  0  0  0
 17 18  1  0  0  0
 17 19  1  0  0  0
  8  9  2  0  0  0
  9 10  1  0  0  0
 10 26  1  0  0  0
 26 27  1  0  0  0
M  END
> <minimizedAffinity>
-6.53487

$$$$
