CHEMBL4166319


 39 43  0  0  0  0  0  0  0  0999 V2000
  -28.1500   -9.8151  -12.2192 C   0  0  0  0  0  0  0  0  0  0  0  0
  -29.4244   -9.8623  -11.6099 C   0  0  0  0  0  0  0  0  0  0  0  0
  -29.5686   -9.7599  -10.2130 C   0  0  0  0  0  0  0  0  0  0  0  0
  -28.4308   -9.6247   -9.4351 C   0  0  0  0  0  0  0  0  0  0  0  0
  -27.1778   -9.5692  -10.0607 C   0  0  0  0  0  0  0  0  0  0  0  0
  -27.0068   -9.6453  -11.4284 C   0  0  0  0  0  0  0  0  0  0  0  0
  -26.1570   -9.4594   -9.1238 N   0  0  0  0  0  0  0  0  0  0  0  0
  -26.6636   -9.4514   -7.8378 C   0  0  0  0  0  0  0  0  0  0  0  0
  -26.0266   -9.4982   -6.7979 O   0  0  0  0  0  0  0  0  0  0  0  0
  -28.1642   -9.4673   -7.9949 C   0  0  0  0  0  0  0  0  0  0  0  0
  -28.9569   -9.3088   -6.9135 C   0  0  0  0  0  0  0  0  0  0  0  0
  -25.1695   -9.4805   -9.3214 H   0  0  0  0  0  0  0  0  0  0  0  0
  -30.4044   -9.6309   -6.9835 C   0  0  0  0  0  0  0  0  0  0  0  0
  -30.8130  -10.9388   -6.6856 C   0  0  0  0  0  0  0  0  0  0  0  0
  -32.1658  -11.2870   -6.7005 C   0  0  0  0  0  0  0  0  0  0  0  0
  -33.1298  -10.3328   -7.0084 C   0  0  0  0  0  0  0  0  0  0  0  0
  -32.7420   -9.0307   -7.3103 C   0  0  0  0  0  0  0  0  0  0  0  0
  -31.3868   -8.6904   -7.3076 C   0  0  0  0  0  0  0  0  0  0  0  0
  -27.9434   -9.9733  -13.6795 C   0  0  0  0  0  0  0  0  0  0  0  0
  -28.6703  -10.6518  -14.3860 O   0  0  0  0  0  0  0  0  0  0  0  0
  -26.7129   -9.2492  -15.5302 C   0  0  0  0  0  0  0  0  0  0  0  0
  -26.8823   -9.2410  -14.1119 O   0  0  0  0  0  0  0  0  0  0  0  0
  -28.5039   -8.9867   -5.6257 N   0  0  0  0  0  0  0  0  0  0  0  0
  -27.4781   -8.9027   -5.6057 H   0  0  0  0  0  0  0  0  0  0  0  0
  -29.0144   -7.8647   -4.8871 C   0  0  0  0  0  0  0  0  0  0  0  0
  -29.4106   -8.0603   -3.5521 C   0  0  0  0  0  0  0  0  0  0  0  0
  -30.0543   -7.0457   -2.8355 C   0  0  0  0  0  0  0  0  0  0  0  0
  -30.3184   -5.8415   -3.4753 C   0  0  0  0  0  0  0  0  0  0  0  0
  -29.8851   -5.5973   -4.7792 C   0  0  0  0  0  0  0  0  0  0  0  0
  -29.2079   -6.5957   -5.4656 C   0  0  0  0  0  0  0  0  0  0  0  0
  -30.2938   -4.3056   -5.1809 N   0  0  0  0  0  0  0  0  0  0  0  0
  -30.1341   -3.5866   -6.3628 C   0  0  0  0  0  0  0  0  0  0  0  0
  -30.7065   -2.5009   -6.5060 O   0  0  0  0  0  0  0  0  0  0  0  0
  -31.1581   -3.7495   -4.1302 C   0  0  0  0  0  0  0  0  0  0  0  0
  -31.0612   -4.6712   -2.9134 C   0  0  0  0  0  0  0  0  0  0  0  0
  -29.2353   -4.1913   -7.4422 C   0  0  0  0  0  0  0  0  0  0  0  0
  -28.0332   -3.4097   -7.8267 N   0  0  0  0  0  0  0  0  0  0  0  0
  -28.2349   -2.6729   -9.0740 C   0  0  0  0  0  0  0  0  0  0  0  0
  -27.7152   -2.4658   -6.7487 C   0  0  0  0  0  0  0  0  0  0  0  0
 21 22  1  0  0  0
 22 19  1  0  0  0
 19 20  2  0  0  0
 19  1  1  0  0  0
  1  2  1  0  0  0
  1  6  2  0  0  0
  2  3  2  0  0  0
  3  4  1  0  0  0
  4  5  2  0  0  0
  4 10  1  0  0  0
  5  6  1  0  0  0
  5  7  1  0  0  0
  7  8  1  0  0  0
  7 12  1  0  0  0
  8  9  2  0  0  0
  8 10  1  0  0  0
 10 11  2  0  0  0
 11 23  1  0  0  0
 11 13  1  0  0  0
 23 25  1  0  0  0
 23 24  1  0  0  0
 25 26  1  0  0  0
 25 30  2  0  0  0
 26 27  2  0  0  0
 27 28  1  0  0  0
 28 29  2  0  0  0
 28 35  1  0  0  0
 29 30  1  0  0  0
 29 31  1  0  0  0
 31 32  1  0  0  0
 31 34  1  0  0  0
 32 33  2  0  0  0
 32 36  1  0  0  0
 36 37  1  0  0  0
 37 38  1  0  0  0
 37 39  1  0  0  0
 34 35  1  0  0  0
 13 14  1  0  0  0
 13 18  2  0  0  0
 14 15  2  0  0  0
 15 16  1  0  0  0
 16 17  2  0  0  0
 17 18  1  0  0  0
M  END
> <minimizedAffinity>
-5.47272

$$$$
