CHEMBL3892632


 35 38  0  0  0  0  0  0  0  0999 V2000
  -29.6948   -6.2001   -6.2624 N   0  0  0  0  0  0  0  0  0  0  0  0
  -28.9331   -5.0614   -6.7213 C   0  0  0  0  0  0  0  0  0  0  0  0
  -28.6373   -4.0386   -5.8232 C   0  0  0  0  0  0  0  0  0  0  0  0
  -28.2596   -2.7774   -6.2468 C   0  0  0  0  0  0  0  0  0  0  0  0
  -28.0103   -2.5099   -7.5568 C   0  0  0  0  0  0  0  0  0  0  0  0
  -27.7706   -1.2152   -7.7687 N   0  0  0  0  0  0  0  0  0  0  0  0
  -27.2991   -0.8977   -8.9740 C   0  0  0  0  0  0  0  0  0  0  0  0
  -27.0357   -1.8539   -9.9329 C   0  0  0  0  0  0  0  0  0  0  0  0
  -27.3965   -3.1762   -9.7517 N   0  0  0  0  0  0  0  0  0  0  0  0
  -27.9612   -3.5374   -8.5196 C   0  0  0  0  0  0  0  0  0  0  0  0
  -28.5189   -4.8092   -8.0732 C   0  0  0  0  0  0  0  0  0  0  0  0
  -26.2296   -1.4007  -11.0564 C   0  0  0  0  0  0  0  0  0  0  0  0
  -26.4859   -1.4536  -12.4511 C   0  0  0  0  0  0  0  0  0  0  0  0
  -25.4055   -1.1622  -13.1889 N   0  0  0  0  0  0  0  0  0  0  0  0
  -24.4546   -0.9318  -12.2681 N   0  0  0  0  0  0  0  0  0  0  0  0
  -23.2238   -0.2667  -12.6246 C   0  0  0  0  0  0  0  0  0  0  0  0
  -24.8549   -1.2412  -10.9992 C   0  0  0  0  0  0  0  0  0  0  0  0
  -30.1135   -7.3350   -7.0486 C   0  0  0  0  0  0  0  0  0  0  0  0
  -31.4573   -7.7938   -7.0089 C   0  0  0  0  0  0  0  0  0  0  0  0
  -31.8563   -8.9957   -7.6029 C   0  0  0  0  0  0  0  0  0  0  0  0
  -30.9416   -9.7053   -8.3766 C   0  0  0  0  0  0  0  0  0  0  0  0
  -29.6317   -9.2425   -8.5049 C   0  0  0  0  0  0  0  0  0  0  0  0
  -29.2208   -8.0843   -7.8227 C   0  0  0  0  0  0  0  0  0  0  0  0
  -33.0989   -9.5655   -7.4962 O   0  0  0  0  0  0  0  0  0  0  0  0
  -33.2059  -10.7452   -6.7018 C   0  0  0  0  0  0  0  0  0  0  0  0
  -28.6429   -9.8676   -9.2176 O   0  0  0  0  0  0  0  0  0  0  0  0
  -27.4695   -9.1033   -9.4732 C   0  0  0  0  0  0  0  0  0  0  0  0
  -29.3565   -6.6553   -4.8517 C   0  0  0  0  0  0  0  0  0  0  0  0
  -30.3808   -6.3808   -3.7437 C   0  0  0  0  0  0  0  0  0  0  0  0
  -30.2471   -6.8540   -2.5289 N   0  0  0  0  0  0  0  0  0  0  0  0
  -29.0641   -7.5803   -2.3690 O   0  0  0  0  0  0  0  0  0  0  0  0
  -29.1408   -7.8825   -1.4421 H   0  0  0  0  0  0  0  0  0  0  0  0
  -31.6868   -5.6337   -4.0458 C   0  0  0  0  0  0  0  0  0  0  0  0
  -30.9403   -3.5787   -3.1119 C   0  0  0  0  0  0  0  0  0  0  0  0
  -31.5116   -4.2285   -4.2419 O   0  0  0  0  0  0  0  0  0  0  0  0
 34 35  1  0  0  0
 35 33  1  0  0  0
 33 29  1  0  0  0
 29 28  1  0  0  0
 29 30  2  0  0  0
 28  1  1  0  0  0
  1 18  1  0  0  0
  1  2  1  0  0  0
 18 19  1  0  0  0
 18 23  2  0  0  0
 19 20  2  0  0  0
 20 24  1  0  0  0
 20 21  1  0  0  0
 24 25  1  0  0  0
 21 22  2  0  0  0
 22 26  1  0  0  0
 22 23  1  0  0  0
 26 27  1  0  0  0
  2  3  1  0  0  0
  2 11  2  0  0  0
  3  4  2  0  0  0
  4  5  1  0  0  0
  5  6  1  0  0  0
  5 10  2  0  0  0
  6  7  2  0  0  0
  7  8  1  0  0  0
  8 12  1  0  0  0
  8  9  2  0  0  0
 12 13  1  0  0  0
 12 17  2  0  0  0
 13 14  2  0  0  0
 14 15  1  0  0  0
 15 16  1  0  0  0
 15 17  1  0  0  0
  9 10  1  0  0  0
 10 11  1  0  0  0
 30 31  1  0  0  0
 31 32  1  0  0  0
M  END
> <minimizedAffinity>
-7.99060

$$$$
