CHEMBL598022


 38 40  0  0  0  0  0  0  0  0999 V2000
  -30.5738   -4.2361   -4.4170 N   0  0  0  0  0  0  0  0  0  0  0  0
  -30.0440   -3.0520   -3.9047 C   0  0  0  0  0  0  0  0  0  0  0  0
  -30.2658   -2.6348   -2.7697 O   0  0  0  0  0  0  0  0  0  0  0  0
  -29.1631   -2.2623   -4.7947 C   0  0  0  0  0  0  0  0  0  0  0  0
  -28.6095   -1.0734   -4.3060 C   0  0  0  0  0  0  0  0  0  0  0  0
  -27.7733   -0.3209   -5.1205 C   0  0  0  0  0  0  0  0  0  0  0  0
  -27.5214   -0.7396   -6.4255 C   0  0  0  0  0  0  0  0  0  0  0  0
  -28.0916   -1.9224   -6.9583 C   0  0  0  0  0  0  0  0  0  0  0  0
  -27.9106   -2.3410   -8.3107 C   0  0  0  0  0  0  0  0  0  0  0  0
  -28.5304   -3.5227   -8.7459 C   0  0  0  0  0  0  0  0  0  0  0  0
  -29.3137   -4.2884   -7.8942 C   0  0  0  0  0  0  0  0  0  0  0  0
  -29.4982   -3.8764   -6.5812 C   0  0  0  0  0  0  0  0  0  0  0  0
  -28.9191   -2.6972   -6.1035 C   0  0  0  0  0  0  0  0  0  0  0  0
  -30.3312   -4.7206   -5.7005 C   0  0  0  0  0  0  0  0  0  0  0  0
  -30.7575   -5.7866   -6.1277 O   0  0  0  0  0  0  0  0  0  0  0  0
  -27.2215   -1.5285   -9.2136 N   0  0  0  0  0  0  0  0  0  0  0  0
  -26.2136   -1.4671   -9.0768 H   0  0  0  0  0  0  0  0  0  0  0  0
  -27.6351   -1.4973  -10.6134 C   0  0  0  0  0  0  0  0  0  0  0  0
  -26.4226   -1.6864  -11.5225 C   0  0  0  0  0  0  0  0  0  0  0  0
  -25.1796   -1.8120  -10.7467 N   0  0  0  0  0  0  0  0  0  0  0  0
  -25.0847   -2.7682  -10.4046 H   0  0  0  0  0  0  0  0  0  0  0  0
  -24.0565   -1.4942  -11.6305 C   0  0  0  0  0  0  0  0  0  0  0  0
  -23.9764    0.0082  -11.9426 C   0  0  0  0  0  0  0  0  0  0  0  0
  -23.5941    0.2741  -13.3432 N   0  0  0  0  0  0  0  0  0  0  0  0
  -22.1448    0.4305  -13.4937 C   0  0  0  0  0  0  0  0  0  0  0  0
  -24.0626   -0.8192  -14.1961 C   0  0  0  0  0  0  0  0  0  0  0  0
  -31.4330   -5.0296   -3.5482 C   0  0  0  0  0  0  0  0  0  0  0  0
  -30.9581   -6.4695   -3.3822 C   0  0  0  0  0  0  0  0  0  0  0  0
  -29.4432   -6.5716   -3.2770 C   0  0  0  0  0  0  0  0  0  0  0  0
  -28.9780   -7.8977   -3.8575 C   0  0  0  0  0  0  0  0  0  0  0  0
  -27.9894   -7.6636   -4.9857 C   0  0  0  0  0  0  0  0  0  0  0  0
  -28.0274   -8.8318   -5.9560 C   0  0  0  0  0  0  0  0  0  0  0  0
  -29.4402   -9.0282   -6.4773 C   0  0  0  0  0  0  0  0  0  0  0  0
  -29.5473   -8.5261   -7.9076 C   0  0  0  0  0  0  0  0  0  0  0  0
  -30.3960   -9.4787   -8.7371 C   0  0  0  0  0  0  0  0  0  0  0  0
  -29.5068  -10.4466   -9.5052 C   0  0  0  0  0  0  0  0  0  0  0  0
  -27.0366  -10.6781   -9.8433 C   0  0  0  0  0  0  0  0  0  0  0  0
  -28.2348   -9.7545   -9.9775 C   0  0  0  0  0  0  0  0  0  0  0  0
 37 38  1  0  0  0
 38 36  1  0  0  0
 36 35  1  0  0  0
 35 34  1  0  0  0
 34 33  1  0  0  0
 33 32  1  0  0  0
 32 31  1  0  0  0
 31 30  1  0  0  0
 30 29  1  0  0  0
 29 28  1  0  0  0
 28 27  1  0  0  0
 27  1  1  0  0  0
  1  2  1  0  0  0
  1 14  1  0  0  0
  2  3  2  0  0  0
  2  4  1  0  0  0
  4  5  1  0  0  0
  4 13  2  0  0  0
  5  6  2  0  0  0
  6  7  1  0  0  0
  7  8  2  0  0  0
  8  9  1  0  0  0
  8 13  1  0  0  0
  9 16  1  0  0  0
  9 10  2  0  0  0
 16 18  1  0  0  0
 16 17  1  0  0  0
 18 19  1  0  0  0
 19 20  1  0  0  0
 20 22  1  0  0  0
 20 21  1  0  0  0
 22 23  1  0  0  0
 23 24  1  0  0  0
 24 25  1  0  0  0
 24 26  1  0  0  0
 10 11  1  0  0  0
 11 12  2  0  0  0
 12 13  1  0  0  0
 12 14  1  0  0  0
 14 15  2  0  0  0
M  END
> <minimizedAffinity>
-7.35256

$$$$
