CHEMBL3965482


 36 39  0  0  0  0  0  0  0  0999 V2000
  -28.9256   -6.6313   -4.5762 N   0  0  0  0  0  0  0  0  0  0  0  0
  -28.5777   -5.4475   -5.4080 C   0  0  0  0  0  0  0  0  0  0  0  0
  -27.8498   -4.4631   -4.7395 C   0  0  0  0  0  0  0  0  0  0  0  0
  -27.5817   -3.2541   -5.2434 C   0  0  0  0  0  0  0  0  0  0  0  0
  -27.8900   -2.9426   -6.5128 C   0  0  0  0  0  0  0  0  0  0  0  0
  -27.6578   -1.6803   -6.8293 N   0  0  0  0  0  0  0  0  0  0  0  0
  -27.7349   -1.2425   -8.0720 C   0  0  0  0  0  0  0  0  0  0  0  0
  -27.8910   -2.1418   -9.1178 C   0  0  0  0  0  0  0  0  0  0  0  0
  -28.3140   -3.4545   -8.7979 N   0  0  0  0  0  0  0  0  0  0  0  0
  -28.3799   -3.8658   -7.4418 C   0  0  0  0  0  0  0  0  0  0  0  0
  -28.8215   -5.1681   -6.8513 C   0  0  0  0  0  0  0  0  0  0  0  0
  -27.2147   -1.5781  -10.4031 C   0  0  0  0  0  0  0  0  0  0  0  0
  -27.7174   -1.1907  -11.6410 C   0  0  0  0  0  0  0  0  0  0  0  0
  -26.6895   -1.1238  -12.5425 N   0  0  0  0  0  0  0  0  0  0  0  0
  -25.5476   -1.4074  -11.9295 N   0  0  0  0  0  0  0  0  0  0  0  0
  -25.8111   -1.6242  -10.6365 C   0  0  0  0  0  0  0  0  0  0  0  0
  -24.2536   -1.7112  -12.6109 C   0  0  0  0  0  0  0  0  0  0  0  0
  -23.8684   -0.7757  -13.7736 C   0  0  0  0  0  0  0  0  0  0  0  0
  -23.0946   -1.6985  -11.5824 C   0  0  0  0  0  0  0  0  0  0  0  0
  -28.5691   -8.0025   -4.9038 C   0  0  0  0  0  0  0  0  0  0  0  0
  -27.3287   -8.5392   -4.5149 C   0  0  0  0  0  0  0  0  0  0  0  0
  -26.9395   -9.8426   -4.9156 C   0  0  0  0  0  0  0  0  0  0  0  0
  -27.8026  -10.6232   -5.6821 C   0  0  0  0  0  0  0  0  0  0  0  0
  -29.0548  -10.1285   -6.0691 C   0  0  0  0  0  0  0  0  0  0  0  0
  -29.4140   -8.8298   -5.7000 C   0  0  0  0  0  0  0  0  0  0  0  0
  -25.7409  -10.3838   -4.5806 O   0  0  0  0  0  0  0  0  0  0  0  0
  -24.6209   -9.6735   -4.2183 C   0  0  0  0  0  0  0  0  0  0  0  0
  -29.9563  -10.8754   -6.7635 O   0  0  0  0  0  0  0  0  0  0  0  0
  -31.3129  -10.6287   -6.8567 C   0  0  0  0  0  0  0  0  0  0  0  0
  -29.8979   -6.4468   -3.4441 C   0  0  0  0  0  0  0  0  0  0  0  0
  -31.3499   -5.8402   -3.7220 C   0  0  0  0  0  0  0  0  0  0  0  0
  -31.9292   -6.5776   -4.7734 O   0  0  0  0  0  0  0  0  0  0  0  0
  -31.3709   -6.4432   -5.5827 H   0  0  0  0  0  0  0  0  0  0  0  0
  -31.4811   -4.3399   -4.0445 C   0  0  0  0  0  0  0  0  0  0  0  0
  -30.3500   -2.7237   -2.7887 C   0  0  0  0  0  0  0  0  0  0  0  0
  -31.4312   -3.6305   -2.8111 O   0  0  0  0  0  0  0  0  0  0  0  0
 35 36  1  0  0  0
 36 34  1  0  0  0
 34 31  1  0  0  0
 31 32  1  0  0  0
 31 30  1  0  0  0
 32 33  1  0  0  0
 30  1  1  0  0  0
  1 20  1  0  0  0
  1  2  1  0  0  0
 20 21  1  0  0  0
 20 25  2  0  0  0
 21 22  2  0  0  0
 22 26  1  0  0  0
 22 23  1  0  0  0
 26 27  1  0  0  0
 23 24  2  0  0  0
 24 28  1  0  0  0
 24 25  1  0  0  0
 28 29  1  0  0  0
  2  3  1  0  0  0
  2 11  2  0  0  0
  3  4  2  0  0  0
  4  5  1  0  0  0
  5  6  1  0  0  0
  5 10  2  0  0  0
  6  7  2  0  0  0
  7  8  1  0  0  0
  8 12  1  0  0  0
  8  9  2  0  0  0
 12 13  1  0  0  0
 12 16  2  0  0  0
 13 14  2  0  0  0
 14 15  1  0  0  0
 15 17  1  0  0  0
 15 16  1  0  0  0
 17 18  1  0  0  0
 17 19  1  0  0  0
  9 10  1  0  0  0
 10 11  1  0  0  0
M  END
> <minimizedAffinity>
-8.06074

$$$$
