CHEMBL272449


 37 41  0  0  0  0  0  0  0  0999 V2000
  -29.8968   -5.7315   -6.2662 C   0  0  0  0  0  0  0  0  0  0  0  0
  -29.5743   -5.4927   -7.5972 C   0  0  0  0  0  0  0  0  0  0  0  0
  -28.9458   -4.3008   -7.9542 C   0  0  0  0  0  0  0  0  0  0  0  0
  -28.5849   -3.3327   -6.9883 C   0  0  0  0  0  0  0  0  0  0  0  0
  -27.9788   -2.0877   -7.2857 C   0  0  0  0  0  0  0  0  0  0  0  0
  -27.4861   -1.2653   -6.2572 C   0  0  0  0  0  0  0  0  0  0  0  0
  -27.6563   -1.6234   -4.9266 C   0  0  0  0  0  0  0  0  0  0  0  0
  -28.3414   -2.7933   -4.6140 C   0  0  0  0  0  0  0  0  0  0  0  0
  -28.8060   -3.6501   -5.6241 C   0  0  0  0  0  0  0  0  0  0  0  0
  -29.4761   -4.8338   -5.2852 C   0  0  0  0  0  0  0  0  0  0  0  0
  -27.8012   -1.5689   -8.6689 C   0  0  0  0  0  0  0  0  0  0  0  0
  -28.5543   -0.6671   -9.0292 O   0  0  0  0  0  0  0  0  0  0  0  0
  -26.8558   -2.2136   -9.4573 N   0  0  0  0  0  0  0  0  0  0  0  0
  -26.4573   -3.0695   -9.0948 H   0  0  0  0  0  0  0  0  0  0  0  0
  -26.5511   -1.8845  -10.7956 C   0  0  0  0  0  0  0  0  0  0  0  0
  -27.4719   -2.0239  -11.8375 C   0  0  0  0  0  0  0  0  0  0  0  0
  -27.0858   -1.8310  -13.1663 C   0  0  0  0  0  0  0  0  0  0  0  0
  -25.7800   -1.4614  -13.4539 C   0  0  0  0  0  0  0  0  0  0  0  0
  -25.2797   -1.3161  -15.0922 Cl  0  0  0  0  0  0  0  0  0  0  0  0
  -24.8739   -1.2249  -12.4229 C   0  0  0  0  0  0  0  0  0  0  0  0
  -25.2609   -1.4208  -11.0899 C   0  0  0  0  0  0  0  0  0  0  0  0
  -30.5582   -6.8419   -5.8014 O   0  0  0  0  0  0  0  0  0  0  0  0
  -27.4499  -10.7271   -6.4189 C   0  0  0  0  0  0  0  0  0  0  0  0
  -28.5705  -10.9467   -7.2314 C   0  0  0  0  0  0  0  0  0  0  0  0
  -29.6294  -10.0475   -7.2928 C   0  0  0  0  0  0  0  0  0  0  0  0
  -30.6996  -10.3428   -8.0496 N   0  0  0  0  0  0  0  0  0  0  0  0
  -31.7484   -9.4861   -8.0394 C   0  0  0  0  0  0  0  0  0  0  0  0
  -31.7696   -8.3184   -7.3103 C   0  0  0  0  0  0  0  0  0  0  0  0
  -32.8654   -7.5512   -7.3304 F   0  0  0  0  0  0  0  0  0  0  0  0
  -30.6369   -7.9783   -6.5826 C   0  0  0  0  0  0  0  0  0  0  0  0
  -29.5395   -8.8632   -6.5330 C   0  0  0  0  0  0  0  0  0  0  0  0
  -28.3832   -8.6130   -5.7574 C   0  0  0  0  0  0  0  0  0  0  0  0
  -27.3380   -9.5365   -5.6866 C   0  0  0  0  0  0  0  0  0  0  0  0
  -25.5531  -11.6519   -7.5063 C   0  0  0  0  0  0  0  0  0  0  0  0
  -26.5267  -11.7426   -6.4696 O   0  0  0  0  0  0  0  0  0  0  0  0
  -26.1981   -9.3414   -4.9605 O   0  0  0  0  0  0  0  0  0  0  0  0
  -26.1669   -9.7501   -3.6023 C   0  0  0  0  0  0  0  0  0  0  0  0
 34 35  1  0  0  0
 35 23  1  0  0  0
 23 24  1  0  0  0
 23 33  2  0  0  0
 24 25  2  0  0  0
 25 26  1  0  0  0
 25 31  1  0  0  0
 26 27  2  0  0  0
 27 28  1  0  0  0
 28 29  1  0  0  0
 28 30  2  0  0  0
 30 22  1  0  0  0
 30 31  1  0  0  0
 22  1  1  0  0  0
  1  2  1  0  0  0
  1 10  2  0  0  0
  2  3  2  0  0  0
  3  4  1  0  0  0
  4  5  1  0  0  0
  4  9  2  0  0  0
  5 11  1  0  0  0
  5  6  2  0  0  0
 11 12  2  0  0  0
 11 13  1  0  0  0
 13 15  1  0  0  0
 13 14  1  0  0  0
 15 16  1  0  0  0
 15 21  2  0  0  0
 16 17  2  0  0  0
 17 18  1  0  0  0
 18 19  1  0  0  0
 18 20  2  0  0  0
 20 21  1  0  0  0
  6  7  1  0  0  0
  7  8  2  0  0  0
  8  9  1  0  0  0
  9 10  1  0  0  0
 31 32  2  0  0  0
 32 33  1  0  0  0
 33 36  1  0  0  0
 36 37  1  0  0  0
M  END
> <minimizedAffinity>
-10.03767

$$$$
