CHEMBL3676364


 41 43  0  0  0  0  0  0  0  0999 V2000
  -17.4806    1.6552  -14.4182 C   0  0  0  0  0  0  0  0  0  0  0  0
  -16.8966    0.7226  -13.5592 C   0  0  0  0  0  0  0  0  0  0  0  0
  -15.5528    0.3206  -13.7376 C   0  0  0  0  0  0  0  0  0  0  0  0
  -14.9297   -0.7343  -13.0466 C   0  0  0  0  0  0  0  0  0  0  0  0
  -13.6264   -1.0290  -13.2069 N   0  0  0  0  0  0  0  0  0  0  0  0
  -12.9531   -0.3000  -14.0980 C   0  0  0  0  0  0  0  0  0  0  0  0
  -13.4522    0.6929  -14.8404 N   0  0  0  0  0  0  0  0  0  0  0  0
  -14.7435    0.9862  -14.6659 C   0  0  0  0  0  0  0  0  0  0  0  0
  -15.3088    2.0001  -15.4256 C   0  0  0  0  0  0  0  0  0  0  0  0
  -16.6601    2.3541  -15.3163 C   0  0  0  0  0  0  0  0  0  0  0  0
  -19.7180    0.9005  -14.9731 C   0  0  0  0  0  0  0  0  0  0  0  0
  -19.3739   -0.1210  -15.5514 O   0  0  0  0  0  0  0  0  0  0  0  0
  -18.8778    1.8055  -14.3501 N   0  0  0  0  0  0  0  0  0  0  0  0
  -19.2663    2.3007  -13.5549 H   0  0  0  0  0  0  0  0  0  0  0  0
  -21.9774    0.5178  -14.0686 C   0  0  0  0  0  0  0  0  0  0  0  0
  -21.1454    1.2721  -14.8291 C   0  0  0  0  0  0  0  0  0  0  0  0
  -15.6936   -1.5459  -12.1789 N   0  0  0  0  0  0  0  0  0  0  0  0
  -16.5919   -1.1245  -11.9596 H   0  0  0  0  0  0  0  0  0  0  0  0
  -15.6858   -2.9537  -12.0798 C   0  0  0  0  0  0  0  0  0  0  0  0
  -16.0946   -3.7431  -13.1646 C   0  0  0  0  0  0  0  0  0  0  0  0
  -15.7684   -5.0988  -13.2147 C   0  0  0  0  0  0  0  0  0  0  0  0
  -15.0732   -5.6954  -12.1618 C   0  0  0  0  0  0  0  0  0  0  0  0
  -14.4894   -7.4831  -12.4210 Br  0  0  0  0  0  0  0  0  0  0  0  0
  -14.7735   -4.9567  -11.0151 C   0  0  0  0  0  0  0  0  0  0  0  0
  -13.9619   -5.6525   -9.6547 Cl  0  0  0  0  0  0  0  0  0  0  0  0
  -15.0824   -3.5905  -10.9902 C   0  0  0  0  0  0  0  0  0  0  0  0
  -14.7558   -2.8485   -9.9125 F   0  0  0  0  0  0  0  0  0  0  0  0
  -16.9996    3.4342  -16.0855 O   0  0  0  0  0  0  0  0  0  0  0  0
  -16.0001    4.4256  -16.3244 C   0  0  0  0  0  0  0  0  0  0  0  0
  -15.5369    4.5316  -17.7801 C   0  0  0  0  0  0  0  0  0  0  0  0
  -14.1448    4.8868  -17.8651 N   0  0  0  0  0  0  0  0  0  0  0  0
  -13.6854    6.1230  -18.2461 C   0  0  0  0  0  0  0  0  0  0  0  0
  -14.4214    7.0682  -18.5154 O   0  0  0  0  0  0  0  0  0  0  0  0
  -13.4532    4.1379  -17.7745 H   0  0  0  0  0  0  0  0  0  0  0  0
  -12.1763    6.2136  -18.3998 C   0  0  0  0  0  0  0  0  0  0  0  0
  -11.4104    6.2380  -17.0702 C   0  0  0  0  0  0  0  0  0  0  0  0
  -12.2397    6.4262  -15.8464 N   0  0  0  0  0  0  0  0  0  0  0  0
  -12.1628    5.3027  -14.8945 C   0  0  0  0  0  0  0  0  0  0  0  0
  -11.7484    3.9603  -15.4810 C   0  0  0  0  0  0  0  0  0  0  0  0
  -11.9326    7.7411  -15.2535 C   0  0  0  0  0  0  0  0  0  0  0  0
  -12.3826    8.9435  -16.0761 C   0  0  0  0  0  0  0  0  0  0  0  0
 15 16  2  0  0  0
 16 11  1  0  0  0
 11 12  2  0  0  0
 11 13  1  0  0  0
 13  1  1  0  0  0
 13 14  1  0  0  0
  1  2  1  0  0  0
  1 10  2  0  0  0
  2  3  2  0  0  0
  3  4  1  0  0  0
  3  8  1  0  0  0
  4 17  1  0  0  0
  4  5  2  0  0  0
 17 19  1  0  0  0
 17 18  1  0  0  0
 19 20  1  0  0  0
 19 26  2  0  0  0
 20 21  2  0  0  0
 21 22  1  0  0  0
 22 23  1  0  0  0
 22 24  2  0  0  0
 24 25  1  0  0  0
 24 26  1  0  0  0
 26 27  1  0  0  0
  5  6  1  0  0  0
  6  7  2  0  0  0
  7  8  1  0  0  0
  8  9  2  0  0  0
  9 10  1  0  0  0
 10 28  1  0  0  0
 28 29  1  0  0  0
 29 30  1  0  0  0
 30 31  1  0  0  0
 31 32  1  0  0  0
 31 34  1  0  0  0
 32 33  2  0  0  0
 32 35  1  0  0  0
 35 36  1  0  0  0
 36 37  1  0  0  0
 37 38  1  0  0  0
 37 40  1  0  0  0
 38 39  1  0  0  0
 40 41  1  0  0  0
M  END
> <minimizedAffinity>
-7.11502

$$$$
