CHEMBL3644547


 29 32  0  0  0  0  0  0  0  0999 V2000
  -20.0020    1.3068  -15.3198 C   0  0  0  0  0  0  0  0  0  0  0  0
  -19.8215    2.6873  -15.4220 C   0  0  0  0  0  0  0  0  0  0  0  0
  -18.5479    3.2508  -15.5322 C   0  0  0  0  0  0  0  0  0  0  0  0
  -17.3902    2.4722  -15.5035 C   0  0  0  0  0  0  0  0  0  0  0  0
  -17.5809    1.0936  -15.3002 C   0  0  0  0  0  0  0  0  0  0  0  0
  -18.8644    0.5106  -15.2036 C   0  0  0  0  0  0  0  0  0  0  0  0
  -16.1463    3.0447  -15.6808 N   0  0  0  0  0  0  0  0  0  0  0  0
  -14.8985    2.3738  -15.3294 C   0  0  0  0  0  0  0  0  0  0  0  0
  -14.0686    2.1424  -16.5938 C   0  0  0  0  0  0  0  0  0  0  0  0
  -13.9691    3.3876  -17.4418 C   0  0  0  0  0  0  0  0  0  0  0  0
  -13.0023    3.4849  -18.4450 C   0  0  0  0  0  0  0  0  0  0  0  0
  -12.9699    4.6302  -19.2249 C   0  0  0  0  0  0  0  0  0  0  0  0
  -13.8189    5.6682  -19.0744 N   0  0  0  0  0  0  0  0  0  0  0  0
  -14.7594    5.5447  -18.1107 C   0  0  0  0  0  0  0  0  0  0  0  0
  -14.8921    4.4351  -17.2799 C   0  0  0  0  0  0  0  0  0  0  0  0
  -15.9928    4.3933  -16.2472 C   0  0  0  0  0  0  0  0  0  0  0  0
  -23.1753   -0.2963  -14.4097 N   0  0  0  0  0  0  0  0  0  0  0  0
  -21.9850    0.3798  -14.1952 C   0  0  0  0  0  0  0  0  0  0  0  0
  -21.5688    0.6856  -13.0817 O   0  0  0  0  0  0  0  0  0  0  0  0
  -21.2967    0.7140  -15.3528 N   0  0  0  0  0  0  0  0  0  0  0  0
  -23.4639   -0.4489  -15.3636 H   0  0  0  0  0  0  0  0  0  0  0  0
  -21.8481    0.8606  -16.1867 H   0  0  0  0  0  0  0  0  0  0  0  0
  -27.6157   -2.0642  -13.0332 C   0  0  0  0  0  0  0  0  0  0  0  0
  -26.2109   -1.6557  -12.6998 C   0  0  0  0  0  0  0  0  0  0  0  0
  -25.7675   -1.7529  -11.3768 C   0  0  0  0  0  0  0  0  0  0  0  0
  -24.4742   -1.3798  -11.0507 C   0  0  0  0  0  0  0  0  0  0  0  0
  -23.6183   -0.9057  -12.0431 C   0  0  0  0  0  0  0  0  0  0  0  0
  -24.0284   -0.7863  -13.3782 C   0  0  0  0  0  0  0  0  0  0  0  0
  -25.3343   -1.1774  -13.6984 C   0  0  0  0  0  0  0  0  0  0  0  0
 23 24  1  0  0  0
 24 25  1  0  0  0
 24 29  2  0  0  0
 25 26  2  0  0  0
 26 27  1  0  0  0
 27 28  2  0  0  0
 28 17  1  0  0  0
 28 29  1  0  0  0
 17 18  1  0  0  0
 17 21  1  0  0  0
 18 19  2  0  0  0
 18 20  1  0  0  0
 20  1  1  0  0  0
 20 22  1  0  0  0
  1  2  1  0  0  0
  1  6  2  0  0  0
  2  3  2  0  0  0
  3  4  1  0  0  0
  4  7  1  0  0  0
  4  5  2  0  0  0
  7  8  1  0  0  0
  7 16  1  0  0  0
  8  9  1  0  0  0
  9 10  1  0  0  0
 10 11  1  0  0  0
 10 15  2  0  0  0
 11 12  2  0  0  0
 12 13  1  0  0  0
 13 14  2  0  0  0
 14 15  1  0  0  0
 15 16  1  0  0  0
  5  6  1  0  0  0
M  END
> <minimizedAffinity>
-9.45603

$$$$
