CHEMBL4099624


 37 41  0  0  0  0  0  0  0  0999 V2000
  -15.7662    0.2513  -13.3376 N   0  0  0  0  0  0  0  0  0  0  0  0
  -15.2698   -1.0439  -13.4099 C   0  0  0  0  0  0  0  0  0  0  0  0
  -14.5545   -1.4735  -14.3092 O   0  0  0  0  0  0  0  0  0  0  0  0
  -15.7104   -1.8605  -12.3725 N   0  0  0  0  0  0  0  0  0  0  0  0
  -16.4111    0.4674  -12.5944 H   0  0  0  0  0  0  0  0  0  0  0  0
  -16.6512   -1.6783  -12.0573 H   0  0  0  0  0  0  0  0  0  0  0  0
  -17.9555    1.1861  -15.1291 C   0  0  0  0  0  0  0  0  0  0  0  0
  -16.5392    1.6879  -15.1878 C   0  0  0  0  0  0  0  0  0  0  0  0
  -16.2208    2.6209  -16.2081 C   0  0  0  0  0  0  0  0  0  0  0  0
  -14.9299    3.1192  -16.4141 C   0  0  0  0  0  0  0  0  0  0  0  0
  -13.9622    2.7281  -15.4959 C   0  0  0  0  0  0  0  0  0  0  0  0
  -14.2565    1.8322  -14.4667 C   0  0  0  0  0  0  0  0  0  0  0  0
  -15.5240    1.2599  -14.3159 C   0  0  0  0  0  0  0  0  0  0  0  0
  -14.5780    3.8848  -17.5136 N   0  0  0  0  0  0  0  0  0  0  0  0
  -13.9099    3.2797  -18.6733 C   0  0  0  0  0  0  0  0  0  0  0  0
  -13.0090    4.3279  -19.3591 C   0  0  0  0  0  0  0  0  0  0  0  0
  -13.7468    5.5516  -19.7458 N   0  0  0  0  0  0  0  0  0  0  0  0
  -12.8419    6.5169  -20.3629 C   0  0  0  0  0  0  0  0  0  0  0  0
  -14.3848    6.1274  -18.5386 C   0  0  0  0  0  0  0  0  0  0  0  0
  -15.3187    5.1209  -17.8251 C   0  0  0  0  0  0  0  0  0  0  0  0
  -15.2804   -3.2157  -12.3261 C   0  0  0  0  0  0  0  0  0  0  0  0
  -14.0086   -3.5631  -11.8670 C   0  0  0  0  0  0  0  0  0  0  0  0
  -13.5263   -4.8698  -12.0173 C   0  0  0  0  0  0  0  0  0  0  0  0
  -14.3134   -5.8859  -12.5896 C   0  0  0  0  0  0  0  0  0  0  0  0
  -15.6372   -5.5407  -12.9022 C   0  0  0  0  0  0  0  0  0  0  0  0
  -16.1139   -4.2217  -12.8005 C   0  0  0  0  0  0  0  0  0  0  0  0
  -13.7674   -7.2447  -12.8097 C   0  0  0  0  0  0  0  0  0  0  0  0
  -13.4299   -8.0686  -11.7098 C   0  0  0  0  0  0  0  0  0  0  0  0
  -12.9058   -9.3385  -11.9014 C   0  0  0  0  0  0  0  0  0  0  0  0
  -12.6815   -9.9083  -13.0958 N   0  0  0  0  0  0  0  0  0  0  0  0
  -13.0019   -9.1050  -14.1250 C   0  0  0  0  0  0  0  0  0  0  0  0
  -12.8597   -9.4505  -15.4319 N   0  0  0  0  0  0  0  0  0  0  0  0
  -13.2188   -8.4885  -16.2906 N   0  0  0  0  0  0  0  0  0  0  0  0
  -13.5952   -7.4722  -15.4951 C   0  0  0  0  0  0  0  0  0  0  0  0
  -14.0108   -6.2149  -16.1695 C   0  0  0  0  0  0  0  0  0  0  0  0
  -13.5178   -7.8090  -14.0965 C   0  0  0  0  0  0  0  0  0  0  0  0
  -12.5111  -10.3302  -15.7901 H   0  0  0  0  0  0  0  0  0  0  0  0
  7  8  1  0  0  0
  8  9  1  0  0  0
  8 13  2  0  0  0
  9 10  2  0  0  0
 10 14  1  0  0  0
 10 11  1  0  0  0
 14 15  1  0  0  0
 14 20  1  0  0  0
 15 16  1  0  0  0
 16 17  1  0  0  0
 17 18  1  0  0  0
 17 19  1  0  0  0
 19 20  1  0  0  0
 11 12  2  0  0  0
 12 13  1  0  0  0
 13  1  1  0  0  0
  1  2  1  0  0  0
  1  5  1  0  0  0
  2  3  2  0  0  0
  2  4  1  0  0  0
  4 21  1  0  0  0
  4  6  1  0  0  0
 21 22  1  0  0  0
 21 26  2  0  0  0
 22 23  2  0  0  0
 23 24  1  0  0  0
 24 27  1  0  0  0
 24 25  2  0  0  0
 27 28  1  0  0  0
 27 36  2  0  0  0
 28 29  2  0  0  0
 29 30  1  0  0  0
 30 31  2  0  0  0
 31 32  1  0  0  0
 31 36  1  0  0  0
 32 33  1  0  0  0
 32 37  1  0  0  0
 33 34  2  0  0  0
 34 35  1  0  0  0
 34 36  1  0  0  0
 25 26  1  0  0  0
M  END
> <minimizedAffinity>
-8.07060

$$$$
