CHEMBL3909183


 44 48  0  0  0  0  0  0  0  0999 V2000
  -19.0684    2.7932  -15.1843 N   0  0  0  0  0  0  0  0  0  0  0  0
  -19.8710    1.7660  -14.7032 C   0  0  0  0  0  0  0  0  0  0  0  0
  -19.4898    0.6146  -14.5179 O   0  0  0  0  0  0  0  0  0  0  0  0
  -21.1767    2.1723  -14.4346 N   0  0  0  0  0  0  0  0  0  0  0  0
  -19.3530    3.7304  -14.9371 H   0  0  0  0  0  0  0  0  0  0  0  0
  -21.5449    2.8320  -15.1061 H   0  0  0  0  0  0  0  0  0  0  0  0
  -22.0824    1.1931  -13.9393 C   0  0  0  0  0  0  0  0  0  0  0  0
  -21.9550    0.7093  -12.6299 C   0  0  0  0  0  0  0  0  0  0  0  0
  -22.7408   -0.3545  -12.1763 C   0  0  0  0  0  0  0  0  0  0  0  0
  -23.6319   -0.9856  -13.0458 C   0  0  0  0  0  0  0  0  0  0  0  0
  -23.7999   -0.4526  -14.3297 C   0  0  0  0  0  0  0  0  0  0  0  0
  -24.6695   -1.0181  -15.1811 F   0  0  0  0  0  0  0  0  0  0  0  0
  -23.0515    0.6447  -14.7760 C   0  0  0  0  0  0  0  0  0  0  0  0
  -24.4010   -2.0793  -12.6933 O   0  0  0  0  0  0  0  0  0  0  0  0
  -25.6707   -1.8893  -12.1763 C   0  0  0  0  0  0  0  0  0  0  0  0
  -26.8110   -1.7796  -12.9670 C   0  0  0  0  0  0  0  0  0  0  0  0
  -28.0212   -1.6365  -12.3281 C   0  0  0  0  0  0  0  0  0  0  0  0
  -28.1512   -1.5536  -10.9935 N   0  0  0  0  0  0  0  0  0  0  0  0
  -27.0493   -1.5894  -10.2249 C   0  0  0  0  0  0  0  0  0  0  0  0
  -25.7821   -1.7564  -10.7867 C   0  0  0  0  0  0  0  0  0  0  0  0
  -27.1807   -1.4679   -8.8291 N   0  0  0  0  0  0  0  0  0  0  0  0
  -27.8406   -2.3994   -8.0376 C   0  0  0  0  0  0  0  0  0  0  0  0
  -28.3886   -3.4219   -8.4035 O   0  0  0  0  0  0  0  0  0  0  0  0
  -26.7920   -0.6514   -8.3911 H   0  0  0  0  0  0  0  0  0  0  0  0
  -27.8995   -2.1145   -6.5711 C   0  0  0  0  0  0  0  0  0  0  0  0
  -28.9871   -1.2133   -6.0321 C   0  0  0  0  0  0  0  0  0  0  0  0
  -27.5427   -0.8343   -5.8671 C   0  0  0  0  0  0  0  0  0  0  0  0
  -15.5637    1.4330  -15.3606 C   0  0  0  0  0  0  0  0  0  0  0  0
  -16.9250    1.5701  -15.0646 C   0  0  0  0  0  0  0  0  0  0  0  0
  -17.7192    2.5987  -15.5938 C   0  0  0  0  0  0  0  0  0  0  0  0
  -17.1522    3.4619  -16.5328 C   0  0  0  0  0  0  0  0  0  0  0  0
  -15.7862    3.3512  -16.8615 C   0  0  0  0  0  0  0  0  0  0  0  0
  -15.0023    2.3480  -16.2566 C   0  0  0  0  0  0  0  0  0  0  0  0
  -11.7482   -1.4217  -14.3961 C   0  0  0  0  0  0  0  0  0  0  0  0
  -13.2592   -1.2900  -14.3935 C   0  0  0  0  0  0  0  0  0  0  0  0
  -13.7994   -0.3496  -15.4508 C   0  0  0  0  0  0  0  0  0  0  0  0
  -14.7751    0.4251  -14.7428 N   0  0  0  0  0  0  0  0  0  0  0  0
  -14.6659    0.1809  -13.3797 C   0  0  0  0  0  0  0  0  0  0  0  0
  -15.3246    0.6419  -12.4630 O   0  0  0  0  0  0  0  0  0  0  0  0
  -13.6739   -0.7336  -13.1463 O   0  0  0  0  0  0  0  0  0  0  0  0
  -15.1266    4.3001  -17.8327 C   0  0  0  0  0  0  0  0  0  0  0  0
  -15.7707    4.4000  -19.0273 F   0  0  0  0  0  0  0  0  0  0  0  0
  -15.0495    5.5682  -17.3408 F   0  0  0  0  0  0  0  0  0  0  0  0
  -13.8464    3.9381  -18.1242 F   0  0  0  0  0  0  0  0  0  0  0  0
 34 35  1  0  0  0
 35 36  1  0  0  0
 35 40  1  0  0  0
 36 37  1  0  0  0
 37 28  1  0  0  0
 37 38  1  0  0  0
 28 29  1  0  0  0
 28 33  2  0  0  0
 29 30  2  0  0  0
 30  1  1  0  0  0
 30 31  1  0  0  0
  1  2  1  0  0  0
  1  5  1  0  0  0
  2  3  2  0  0  0
  2  4  1  0  0  0
  4  7  1  0  0  0
  4  6  1  0  0  0
  7  8  1  0  0  0
  7 13  2  0  0  0
  8  9  2  0  0  0
  9 10  1  0  0  0
 10 14  1  0  0  0
 10 11  2  0  0  0
 14 15  1  0  0  0
 15 16  1  0  0  0
 15 20  2  0  0  0
 16 17  2  0  0  0
 17 18  1  0  0  0
 18 19  2  0  0  0
 19 21  1  0  0  0
 19 20  1  0  0  0
 21 22  1  0  0  0
 21 24  1  0  0  0
 22 23  2  0  0  0
 22 25  1  0  0  0
 25 26  1  0  0  0
 25 27  1  0  0  0
 26 27  1  0  0  0
 11 12  1  0  0  0
 11 13  1  0  0  0
 31 32  2  0  0  0
 32 41  1  0  0  0
 32 33  1  0  0  0
 41 42  1  0  0  0
 41 43  1  0  0  0
 41 44  1  0  0  0
 38 39  2  0  0  0
 38 40  1  0  0  0
M  END
> <minimizedAffinity>
-10.15995

$$$$
