CHEMBL1277253


 33 36  0  0  0  0  0  0  0  0999 V2000
  -27.8781   -2.9771   -5.6437 C   0  0  0  0  0  0  0  0  0  0  0  0
  -27.5384   -1.8068   -4.9596 C   0  0  0  0  0  0  0  0  0  0  0  0
  -27.6574   -0.5788   -5.5796 C   0  0  0  0  0  0  0  0  0  0  0  0
  -28.0093   -0.5303   -6.9221 C   0  0  0  0  0  0  0  0  0  0  0  0
  -28.1621   -1.6964   -7.6896 C   0  0  0  0  0  0  0  0  0  0  0  0
  -28.1421   -2.9339   -7.0252 C   0  0  0  0  0  0  0  0  0  0  0  0
  -28.3148   -1.6388   -9.1091 N   0  0  0  0  0  0  0  0  0  0  0  0
  -27.2274   -1.5698   -9.9772 C   0  0  0  0  0  0  0  0  0  0  0  0
  -26.0621   -1.5771   -9.5952 O   0  0  0  0  0  0  0  0  0  0  0  0
  -27.5783   -1.4886  -11.3155 N   0  0  0  0  0  0  0  0  0  0  0  0
  -29.1934   -1.9558   -9.4920 H   0  0  0  0  0  0  0  0  0  0  0  0
  -28.5113   -1.1694  -11.5303 H   0  0  0  0  0  0  0  0  0  0  0  0
  -26.6194   -1.4438  -12.3710 C   0  0  0  0  0  0  0  0  0  0  0  0
  -25.2995   -1.0062  -12.1826 C   0  0  0  0  0  0  0  0  0  0  0  0
  -24.4143   -0.8667  -13.2531 C   0  0  0  0  0  0  0  0  0  0  0  0
  -24.8231   -1.2074  -14.5340 C   0  0  0  0  0  0  0  0  0  0  0  0
  -26.1092   -1.7073  -14.7342 C   0  0  0  0  0  0  0  0  0  0  0  0
  -27.0034   -1.8305  -13.6586 C   0  0  0  0  0  0  0  0  0  0  0  0
  -27.9303   -4.1988   -4.9923 O   0  0  0  0  0  0  0  0  0  0  0  0
  -30.7216   -7.8663   -7.1558 C   0  0  0  0  0  0  0  0  0  0  0  0
  -31.3896   -7.3547   -6.0317 C   0  0  0  0  0  0  0  0  0  0  0  0
  -30.8768   -6.3208   -5.2676 C   0  0  0  0  0  0  0  0  0  0  0  0
  -31.6478   -5.8185   -4.2982 N   0  0  0  0  0  0  0  0  0  0  0  0
  -31.1797   -4.7500   -3.6494 C   0  0  0  0  0  0  0  0  0  0  0  0
  -30.0058   -4.1624   -3.8668 N   0  0  0  0  0  0  0  0  0  0  0  0
  -29.2061   -4.7433   -4.7877 C   0  0  0  0  0  0  0  0  0  0  0  0
  -29.6041   -5.8317   -5.5678 C   0  0  0  0  0  0  0  0  0  0  0  0
  -28.8577   -6.4353   -6.6037 C   0  0  0  0  0  0  0  0  0  0  0  0
  -29.4170   -7.4302   -7.4204 C   0  0  0  0  0  0  0  0  0  0  0  0
  -32.6436   -9.1889   -7.5986 C   0  0  0  0  0  0  0  0  0  0  0  0
  -31.3232   -8.7848   -7.9779 O   0  0  0  0  0  0  0  0  0  0  0  0
  -28.5559   -7.8178   -8.4081 O   0  0  0  0  0  0  0  0  0  0  0  0
  -27.8437   -9.0374   -8.2792 C   0  0  0  0  0  0  0  0  0  0  0  0
 30 31  1  0  0  0
 31 20  1  0  0  0
 20 21  1  0  0  0
 20 29  2  0  0  0
 21 22  2  0  0  0
 22 23  1  0  0  0
 22 27  1  0  0  0
 23 24  2  0  0  0
 24 25  1  0  0  0
 25 26  2  0  0  0
 26 19  1  0  0  0
 26 27  1  0  0  0
 19  1  1  0  0  0
  1  2  1  0  0  0
  1  6  2  0  0  0
  2  3  2  0  0  0
  3  4  1  0  0  0
  4  5  2  0  0  0
  5  7  1  0  0  0
  5  6  1  0  0  0
  7  8  1  0  0  0
  7 11  1  0  0  0
  8  9  2  0  0  0
  8 10  1  0  0  0
 10 13  1  0  0  0
 10 12  1  0  0  0
 13 14  1  0  0  0
 13 18  2  0  0  0
 14 15  2  0  0  0
 15 16  1  0  0  0
 16 17  2  0  0  0
 17 18  1  0  0  0
 27 28  2  0  0  0
 28 29  1  0  0  0
 29 32  1  0  0  0
 32 33  1  0  0  0
M  END
> <minimizedAffinity>
-9.88484

$$$$
