CHEMBL514942


 32 36  0  0  0  0  0  0  0  0999 V2000
  -27.4780   -2.6136   -9.9924 N   0  0  0  0  0  0  0  0  0  0  0  0
  -28.2256   -3.0446  -10.5248 H   0  0  0  0  0  0  0  0  0  0  0  0
  -29.0970   -5.8907   -6.4778 C   0  0  0  0  0  0  0  0  0  0  0  0
  -29.1176   -4.5908   -5.9361 C   0  0  0  0  0  0  0  0  0  0  0  0
  -28.7006   -3.4745   -6.6478 C   0  0  0  0  0  0  0  0  0  0  0  0
  -28.8229   -2.2649   -6.0925 N   0  0  0  0  0  0  0  0  0  0  0  0
  -28.4475   -1.2202   -6.8406 C   0  0  0  0  0  0  0  0  0  0  0  0
  -27.9736   -1.2716   -8.0883 N   0  0  0  0  0  0  0  0  0  0  0  0
  -27.8652   -2.4939   -8.6377 C   0  0  0  0  0  0  0  0  0  0  0  0
  -28.1968   -3.6623   -7.9326 C   0  0  0  0  0  0  0  0  0  0  0  0
  -28.0554   -4.9750   -8.4377 C   0  0  0  0  0  0  0  0  0  0  0  0
  -28.5201   -6.0898   -7.7350 C   0  0  0  0  0  0  0  0  0  0  0  0
  -29.8814   -6.7114   -4.4034 C   0  0  0  0  0  0  0  0  0  0  0  0
  -29.6025   -6.9600   -5.7836 O   0  0  0  0  0  0  0  0  0  0  0  0
  -28.3299   -7.2432   -8.4400 O   0  0  0  0  0  0  0  0  0  0  0  0
  -29.3652   -8.2086   -8.5046 C   0  0  0  0  0  0  0  0  0  0  0  0
  -26.6341   -1.7810  -10.7556 C   0  0  0  0  0  0  0  0  0  0  0  0
  -25.5392   -1.1403  -10.1548 C   0  0  0  0  0  0  0  0  0  0  0  0
  -24.5786   -0.4829  -10.9238 C   0  0  0  0  0  0  0  0  0  0  0  0
  -24.6787   -0.4399  -12.3176 C   0  0  0  0  0  0  0  0  0  0  0  0
  -25.7959   -1.0407  -12.9177 C   0  0  0  0  0  0  0  0  0  0  0  0
  -26.7728   -1.7061  -12.1556 C   0  0  0  0  0  0  0  0  0  0  0  0
  -27.9530   -2.3038  -12.8796 C   0  0  0  0  0  0  0  0  0  0  0  0
  -23.5905    0.1636  -13.1023 C   0  0  0  0  0  0  0  0  0  0  0  0
  -23.4430    1.4617  -13.2794 N   0  0  0  0  0  0  0  0  0  0  0  0
  -22.2910    1.7217  -13.9997 C   0  0  0  0  0  0  0  0  0  0  0  0
  -21.7905    2.9976  -14.3325 C   0  0  0  0  0  0  0  0  0  0  0  0
  -20.6054    3.1112  -15.0672 C   0  0  0  0  0  0  0  0  0  0  0  0
  -19.9160    1.9727  -15.4730 C   0  0  0  0  0  0  0  0  0  0  0  0
  -20.3923    0.6968  -15.1561 C   0  0  0  0  0  0  0  0  0  0  0  0
  -21.5814    0.5952  -14.4146 C   0  0  0  0  0  0  0  0  0  0  0  0
  -22.3982   -0.8128  -13.8694 S   0  0  0  0  0  0  0  0  0  0  0  0
 13 14  1  0  0  0
 14  3  1  0  0  0
  3  4  1  0  0  0
  3 12  2  0  0  0
  4  5  2  0  0  0
  5  6  1  0  0  0
  5 10  1  0  0  0
  6  7  2  0  0  0
  7  8  1  0  0  0
  8  9  2  0  0  0
  9  1  1  0  0  0
  9 10  1  0  0  0
  1 17  1  0  0  0
  1  2  1  0  0  0
 17 18  1  0  0  0
 17 22  2  0  0  0
 18 19  2  0  0  0
 19 20  1  0  0  0
 20 24  1  0  0  0
 20 21  2  0  0  0
 24 25  2  0  0  0
 24 32  1  0  0  0
 25 26  1  0  0  0
 26 27  1  0  0  0
 26 31  2  0  0  0
 27 28  2  0  0  0
 28 29  1  0  0  0
 29 30  2  0  0  0
 30 31  1  0  0  0
 31 32  1  0  0  0
 21 22  1  0  0  0
 22 23  1  0  0  0
 10 11  2  0  0  0
 11 12  1  0  0  0
 12 15  1  0  0  0
 15 16  1  0  0  0
M  END
> <minimizedAffinity>
-9.49154

$$$$
