CHEMBL218632


 37 40  0  0  0  0  0  0  0  0999 V2000
  -13.8515   -2.1513  -13.8425 C   0  0  0  0  0  0  0  0  0  0  0  0
  -14.9333   -1.3526  -13.4259 C   0  0  0  0  0  0  0  0  0  0  0  0
  -15.2128   -0.1560  -14.0879 C   0  0  0  0  0  0  0  0  0  0  0  0
  -14.3351    0.3009  -15.0771 C   0  0  0  0  0  0  0  0  0  0  0  0
  -13.2209   -0.4503  -15.4438 C   0  0  0  0  0  0  0  0  0  0  0  0
  -12.9815   -1.6973  -14.8524 C   0  0  0  0  0  0  0  0  0  0  0  0
  -11.8343   -2.5277  -15.3538 C   0  0  0  0  0  0  0  0  0  0  0  0
  -16.4886    0.5961  -13.9024 C   0  0  0  0  0  0  0  0  0  0  0  0
  -16.7206    1.0351  -12.7752 O   0  0  0  0  0  0  0  0  0  0  0  0
  -17.3337    0.7214  -14.9913 N   0  0  0  0  0  0  0  0  0  0  0  0
  -17.1805    0.1040  -15.7781 H   0  0  0  0  0  0  0  0  0  0  0  0
  -18.5251    1.4863  -14.9967 C   0  0  0  0  0  0  0  0  0  0  0  0
  -18.5678    2.8215  -15.4082 C   0  0  0  0  0  0  0  0  0  0  0  0
  -19.7489    3.5590  -15.3388 C   0  0  0  0  0  0  0  0  0  0  0  0
  -20.9115    2.9676  -14.8523 C   0  0  0  0  0  0  0  0  0  0  0  0
  -20.9017    1.6222  -14.4557 C   0  0  0  0  0  0  0  0  0  0  0  0
  -19.7081    0.8802  -14.5624 C   0  0  0  0  0  0  0  0  0  0  0  0
  -22.1413    0.9822  -13.8847 C   0  0  0  0  0  0  0  0  0  0  0  0
  -21.9213    0.2947  -12.7287 F   0  0  0  0  0  0  0  0  0  0  0  0
  -23.1130    1.8917  -13.5992 F   0  0  0  0  0  0  0  0  0  0  0  0
  -22.7061    0.0895  -14.7448 F   0  0  0  0  0  0  0  0  0  0  0  0
  -13.6041   -3.3900  -13.2687 O   0  0  0  0  0  0  0  0  0  0  0  0
  -14.7997   -4.7514  -11.6735 C   0  0  0  0  0  0  0  0  0  0  0  0
  -15.9879   -5.4668  -11.4151 C   0  0  0  0  0  0  0  0  0  0  0  0
  -16.9896   -5.5900  -12.3762 C   0  0  0  0  0  0  0  0  0  0  0  0
  -16.7735   -5.0214  -13.6108 C   0  0  0  0  0  0  0  0  0  0  0  0
  -15.6484   -4.3565  -13.9267 N   0  0  0  0  0  0  0  0  0  0  0  0
  -14.7046   -4.1928  -12.9569 C   0  0  0  0  0  0  0  0  0  0  0  0
  -11.9422   -5.5383   -9.5713 C   0  0  0  0  0  0  0  0  0  0  0  0
  -11.8467   -4.5381   -8.6906 N   0  0  0  0  0  0  0  0  0  0  0  0
  -12.7590   -3.5564   -8.7846 C   0  0  0  0  0  0  0  0  0  0  0  0
  -13.7631   -3.5357   -9.7221 C   0  0  0  0  0  0  0  0  0  0  0  0
  -13.7966   -4.6006  -10.5985 C   0  0  0  0  0  0  0  0  0  0  0  0
  -12.8682   -5.5905  -10.5383 N   0  0  0  0  0  0  0  0  0  0  0  0
  -10.8569   -7.4751  -10.4989 C   0  0  0  0  0  0  0  0  0  0  0  0
  -11.0404   -6.5731   -9.3874 N   0  0  0  0  0  0  0  0  0  0  0  0
  -10.1936   -6.1518   -9.0223 H   0  0  0  0  0  0  0  0  0  0  0  0
 35 36  1  0  0  0
 36 29  1  0  0  0
 36 37  1  0  0  0
 29 30  1  0  0  0
 29 34  2  0  0  0
 30 31  2  0  0  0
 31 32  1  0  0  0
 32 33  2  0  0  0
 33 23  1  0  0  0
 33 34  1  0  0  0
 23 24  1  0  0  0
 23 28  2  0  0  0
 24 25  2  0  0  0
 25 26  1  0  0  0
 26 27  2  0  0  0
 27 28  1  0  0  0
 28 22  1  0  0  0
 22  1  1  0  0  0
  1  2  1  0  0  0
  1  6  2  0  0  0
  2  3  2  0  0  0
  3  8  1  0  0  0
  3  4  1  0  0  0
  8  9  2  0  0  0
  8 10  1  0  0  0
 10 12  1  0  0  0
 10 11  1  0  0  0
 12 13  1  0  0  0
 12 17  2  0  0  0
 13 14  2  0  0  0
 14 15  1  0  0  0
 15 16  2  0  0  0
 16 18  1  0  0  0
 16 17  1  0  0  0
 18 19  1  0  0  0
 18 20  1  0  0  0
 18 21  1  0  0  0
  4  5  2  0  0  0
  5  6  1  0  0  0
  6  7  1  0  0  0
M  END
> <minimizedAffinity>
-9.88918

$$$$
