CHEMBL427047


 39 43  0  0  0  0  0  0  0  0999 V2000
  -13.8043    2.0856  -15.2844 C   0  0  0  0  0  0  0  0  0  0  0  0
  -13.3835    2.0588  -16.6032 C   0  0  0  0  0  0  0  0  0  0  0  0
  -14.2957    2.4740  -17.5390 C   0  0  0  0  0  0  0  0  0  0  0  0
  -15.5234    2.9082  -17.2248 N   0  0  0  0  0  0  0  0  0  0  0  0
  -15.8785    2.8702  -15.9354 C   0  0  0  0  0  0  0  0  0  0  0  0
  -15.0567    2.4509  -14.9541 N   0  0  0  0  0  0  0  0  0  0  0  0
  -12.8306    0.3894  -13.7994 C   0  0  0  0  0  0  0  0  0  0  0  0
  -12.1729   -0.0096  -12.8393 O   0  0  0  0  0  0  0  0  0  0  0  0
  -12.8832    1.7155  -14.2564 N   0  0  0  0  0  0  0  0  0  0  0  0
  -12.0767    2.7698  -13.7002 C   0  0  0  0  0  0  0  0  0  0  0  0
  -11.3613    3.6523  -14.5139 C   0  0  0  0  0  0  0  0  0  0  0  0
  -10.6965    4.7543  -13.9644 C   0  0  0  0  0  0  0  0  0  0  0  0
  -10.6974    4.9640  -12.5879 C   0  0  0  0  0  0  0  0  0  0  0  0
  -11.3487    4.0712  -11.7505 C   0  0  0  0  0  0  0  0  0  0  0  0
  -12.0224    2.9757  -12.3043 C   0  0  0  0  0  0  0  0  0  0  0  0
  -13.5930   -0.4832  -14.5994 O   0  0  0  0  0  0  0  0  0  0  0  0
  -15.9531   -0.3852  -12.8079 C   0  0  0  0  0  0  0  0  0  0  0  0
  -15.3168   -1.6560  -13.2975 C   0  0  0  0  0  0  0  0  0  0  0  0
  -15.9766   -2.8684  -13.0412 C   0  0  0  0  0  0  0  0  0  0  0  0
  -15.5212   -4.0658  -13.5942 C   0  0  0  0  0  0  0  0  0  0  0  0
  -14.4048   -4.0719  -14.4263 C   0  0  0  0  0  0  0  0  0  0  0  0
  -13.7145   -2.8828  -14.6983 C   0  0  0  0  0  0  0  0  0  0  0  0
  -12.5512   -2.9121  -15.6474 C   0  0  0  0  0  0  0  0  0  0  0  0
  -14.1678   -1.6836  -14.1100 C   0  0  0  0  0  0  0  0  0  0  0  0
  -17.1238    3.4006  -15.6272 N   0  0  0  0  0  0  0  0  0  0  0  0
  -17.2463    4.2895  -16.0928 H   0  0  0  0  0  0  0  0  0  0  0  0
  -18.3098    2.7480  -15.2714 C   0  0  0  0  0  0  0  0  0  0  0  0
  -19.3582    3.4885  -14.7320 C   0  0  0  0  0  0  0  0  0  0  0  0
  -20.5202    2.8587  -14.2672 C   0  0  0  0  0  0  0  0  0  0  0  0
  -20.7024    1.4719  -14.3573 C   0  0  0  0  0  0  0  0  0  0  0  0
  -19.6909    0.7664  -15.0072 C   0  0  0  0  0  0  0  0  0  0  0  0
  -18.4969    1.3820  -15.4221 C   0  0  0  0  0  0  0  0  0  0  0  0
  -21.8586    0.8837  -13.8732 N   0  0  0  0  0  0  0  0  0  0  0  0
  -23.0808    1.6569  -13.6043 C   0  0  0  0  0  0  0  0  0  0  0  0
  -23.8549    0.9716  -12.4521 C   0  0  0  0  0  0  0  0  0  0  0  0
  -24.1913   -0.4431  -12.7444 N   0  0  0  0  0  0  0  0  0  0  0  0
  -24.8354   -1.0598  -11.5868 C   0  0  0  0  0  0  0  0  0  0  0  0
  -22.9541   -1.1802  -13.1002 C   0  0  0  0  0  0  0  0  0  0  0  0
  -22.1648   -0.5116  -14.2505 C   0  0  0  0  0  0  0  0  0  0  0  0
 17 18  1  0  0  0
 18 19  1  0  0  0
 18 24  2  0  0  0
 19 20  2  0  0  0
 20 21  1  0  0  0
 21 22  2  0  0  0
 22 23  1  0  0  0
 22 24  1  0  0  0
 24 16  1  0  0  0
 16  7  1  0  0  0
  7  8  2  0  0  0
  7  9  1  0  0  0
  9 10  1  0  0  0
  9  1  1  0  0  0
 10 11  1  0  0  0
 10 15  2  0  0  0
 11 12  2  0  0  0
 12 13  1  0  0  0
 13 14  2  0  0  0
 14 15  1  0  0  0
  1  2  1  0  0  0
  1  6  2  0  0  0
  2  3  2  0  0  0
  3  4  1  0  0  0
  4  5  2  0  0  0
  5 25  1  0  0  0
  5  6  1  0  0  0
 25 27  1  0  0  0
 25 26  1  0  0  0
 27 28  1  0  0  0
 27 32  2  0  0  0
 28 29  2  0  0  0
 29 30  1  0  0  0
 30 33  1  0  0  0
 30 31  2  0  0  0
 33 34  1  0  0  0
 33 39  1  0  0  0
 34 35  1  0  0  0
 35 36  1  0  0  0
 36 37  1  0  0  0
 36 38  1  0  0  0
 38 39  1  0  0  0
 31 32  1  0  0  0
M  END
> <minimizedAffinity>
-8.73691

$$$$
