CHEMBL286160


 27 29  0  0  0  0  0  0  0  0999 V2000
  -29.2714   -9.4812   -7.0348 C   0  0  0  0  0  0  0  0  0  0  0  0
  -29.5071   -9.1592   -5.6805 C   0  0  0  0  0  0  0  0  0  0  0  0
  -29.3386   -7.8856   -5.1511 C   0  0  0  0  0  0  0  0  0  0  0  0
  -29.5320   -7.6878   -3.8408 N   0  0  0  0  0  0  0  0  0  0  0  0
  -29.3847   -6.4358   -3.3862 C   0  0  0  0  0  0  0  0  0  0  0  0
  -29.0965   -5.3730   -4.1351 N   0  0  0  0  0  0  0  0  0  0  0  0
  -28.9099   -5.5776   -5.4515 C   0  0  0  0  0  0  0  0  0  0  0  0
  -28.9746   -6.8606   -6.0199 C   0  0  0  0  0  0  0  0  0  0  0  0
  -28.7360   -7.1610   -7.3827 C   0  0  0  0  0  0  0  0  0  0  0  0
  -28.8674   -8.4593   -7.9013 C   0  0  0  0  0  0  0  0  0  0  0  0
  -28.6797   -4.4534   -6.2741 N   0  0  0  0  0  0  0  0  0  0  0  0
  -27.9960   -4.6556   -7.0013 H   0  0  0  0  0  0  0  0  0  0  0  0
  -28.5849   -3.1220   -5.8048 C   0  0  0  0  0  0  0  0  0  0  0  0
  -27.3572   -2.5902   -5.3888 C   0  0  0  0  0  0  0  0  0  0  0  0
  -27.2543   -1.2561   -4.9962 C   0  0  0  0  0  0  0  0  0  0  0  0
  -28.3869   -0.4459   -5.0016 C   0  0  0  0  0  0  0  0  0  0  0  0
  -28.2426    1.2143   -4.5785 Cl  0  0  0  0  0  0  0  0  0  0  0  0
  -29.6285   -0.9681   -5.3502 C   0  0  0  0  0  0  0  0  0  0  0  0
  -29.7167   -2.3019   -5.7357 C   0  0  0  0  0  0  0  0  0  0  0  0
  -30.9142   -2.8019   -6.0853 F   0  0  0  0  0  0  0  0  0  0  0  0
  -28.4000   -8.5295   -9.1823 O   0  0  0  0  0  0  0  0  0  0  0  0
  -27.1818   -9.2036   -9.4577 C   0  0  0  0  0  0  0  0  0  0  0  0
  -29.4562  -10.8246   -7.2418 O   0  0  0  0  0  0  0  0  0  0  0  0
  -30.4292  -11.2207   -8.1843 C   0  0  0  0  0  0  0  0  0  0  0  0
  -31.8382  -11.2421   -7.6127 C   0  0  0  0  0  0  0  0  0  0  0  0
  -32.7850   -9.0711   -7.4365 C   0  0  0  0  0  0  0  0  0  0  0  0
  -32.5291  -10.1799   -8.2755 O   0  0  0  0  0  0  0  0  0  0  0  0
 26 27  1  0  0  0
 27 25  1  0  0  0
 25 24  1  0  0  0
 24 23  1  0  0  0
 23  1  1  0  0  0
  1  2  1  0  0  0
  1 10  2  0  0  0
  2  3  2  0  0  0
  3  4  1  0  0  0
  3  8  1  0  0  0
  4  5  2  0  0  0
  5  6  1  0  0  0
  6  7  2  0  0  0
  7 11  1  0  0  0
  7  8  1  0  0  0
 11 13  1  0  0  0
 11 12  1  0  0  0
 13 14  1  0  0  0
 13 19  2  0  0  0
 14 15  2  0  0  0
 15 16  1  0  0  0
 16 17  1  0  0  0
 16 18  2  0  0  0
 18 19  1  0  0  0
 19 20  1  0  0  0
  8  9  2  0  0  0
  9 10  1  0  0  0
 10 21  1  0  0  0
 21 22  1  0  0  0
M  END
> <minimizedAffinity>
-7.14115

$$$$
