CHEMBL2047242


 25 28  0  0  0  0  0  0  0  0999 V2000
  -31.7497   -5.7236   -2.7147 N   0  0  0  0  0  0  0  0  0  0  0  0
  -31.0293   -5.1811   -3.7571 C   0  0  0  0  0  0  0  0  0  0  0  0
  -30.6377   -3.9120   -3.6411 N   0  0  0  0  0  0  0  0  0  0  0  0
  -29.9495   -3.4534   -4.6946 C   0  0  0  0  0  0  0  0  0  0  0  0
  -29.6170   -4.1896   -5.8283 C   0  0  0  0  0  0  0  0  0  0  0  0
  -30.0544   -5.4915   -5.8408 C   0  0  0  0  0  0  0  0  0  0  0  0
  -30.7516   -5.9870   -4.7911 N   0  0  0  0  0  0  0  0  0  0  0  0
  -28.9237   -3.3323   -6.7686 C   0  0  0  0  0  0  0  0  0  0  0  0
  -28.4310   -3.5671   -8.0416 C   0  0  0  0  0  0  0  0  0  0  0  0
  -27.8132   -2.5128   -8.7254 C   0  0  0  0  0  0  0  0  0  0  0  0
  -27.7003   -1.2397   -8.1426 C   0  0  0  0  0  0  0  0  0  0  0  0
  -28.2087   -0.9929   -6.8677 C   0  0  0  0  0  0  0  0  0  0  0  0
  -28.8149   -2.0428   -6.1980 C   0  0  0  0  0  0  0  0  0  0  0  0
  -29.4635   -2.0186   -4.8304 C   0  0  0  0  0  0  0  0  0  0  0  0
  -31.5572   -5.2257   -1.8590 H   0  0  0  0  0  0  0  0  0  0  0  0
  -31.6397   -6.7301   -2.7095 H   0  0  0  0  0  0  0  0  0  0  0  0
  -29.7820   -6.3398   -6.9368 N   0  0  0  0  0  0  0  0  0  0  0  0
  -28.7846   -6.5059   -7.0012 H   0  0  0  0  0  0  0  0  0  0  0  0
  -30.5764   -7.4382   -7.3316 C   0  0  0  0  0  0  0  0  0  0  0  0
  -31.9195   -7.5185   -6.9426 C   0  0  0  0  0  0  0  0  0  0  0  0
  -32.6959   -8.6338   -7.2770 C   0  0  0  0  0  0  0  0  0  0  0  0
  -32.1290   -9.6945   -7.9841 C   0  0  0  0  0  0  0  0  0  0  0  0
  -30.7884   -9.6373   -8.3489 C   0  0  0  0  0  0  0  0  0  0  0  0
  -30.0720  -10.9538   -9.1948 Cl  0  0  0  0  0  0  0  0  0  0  0  0
  -30.0167   -8.5245   -8.0214 C   0  0  0  0  0  0  0  0  0  0  0  0
  1  2  1  0  0  0
  1 15  1  0  0  0
  1 16  1  0  0  0
  2  3  1  0  0  0
  2  7  2  0  0  0
  3  4  2  0  0  0
  4  5  1  0  0  0
  4 14  1  0  0  0
  5  6  2  0  0  0
  5  8  1  0  0  0
  6 17  1  0  0  0
  6  7  1  0  0  0
 17 19  1  0  0  0
 17 18  1  0  0  0
 19 20  1  0  0  0
 19 25  2  0  0  0
 20 21  2  0  0  0
 21 22  1  0  0  0
 22 23  2  0  0  0
 23 24  1  0  0  0
 23 25  1  0  0  0
  8  9  1  0  0  0
  8 13  2  0  0  0
  9 10  2  0  0  0
 10 11  1  0  0  0
 11 12  2  0  0  0
 12 13  1  0  0  0
 13 14  1  0  0  0
M  END
> <minimizedAffinity>
-9.07588

$$$$
