CHEMBL3694654


 39 42  0  0  0  0  0  0  0  0999 V2000
  -23.5660    0.1527  -12.8068 C   0  0  0  0  0  0  0  0  0  0  0  0
  -22.2249   -0.4374  -12.9223 C   0  0  0  0  0  0  0  0  0  0  0  0
  -21.2163    0.2673  -13.4592 C   0  0  0  0  0  0  0  0  0  0  0  0
  -21.4490    1.5512  -13.9590 N   0  0  0  0  0  0  0  0  0  0  0  0
  -20.6127    2.4552  -14.6155 C   0  0  0  0  0  0  0  0  0  0  0  0
  -21.4087    3.5802  -14.7770 C   0  0  0  0  0  0  0  0  0  0  0  0
  -22.6820    3.3902  -14.3184 N   0  0  0  0  0  0  0  0  0  0  0  0
  -22.6977    2.1627  -13.8542 C   0  0  0  0  0  0  0  0  0  0  0  0
  -23.7621    1.4112  -13.2723 C   0  0  0  0  0  0  0  0  0  0  0  0
  -26.7886   -1.7591  -10.9151 C   0  0  0  0  0  0  0  0  0  0  0  0
  -25.7101   -1.2497  -10.2219 C   0  0  0  0  0  0  0  0  0  0  0  0
  -24.6529   -0.6593  -10.8048 N   0  0  0  0  0  0  0  0  0  0  0  0
  -24.6890   -0.5708  -12.1473 C   0  0  0  0  0  0  0  0  0  0  0  0
  -25.6884   -1.0402  -12.9150 N   0  0  0  0  0  0  0  0  0  0  0  0
  -26.7166   -1.6288  -12.2898 C   0  0  0  0  0  0  0  0  0  0  0  0
  -27.7556   -2.0627  -13.1126 N   0  0  0  0  0  0  0  0  0  0  0  0
  -27.4535   -1.9782  -14.0785 H   0  0  0  0  0  0  0  0  0  0  0  0
  -28.0337   -3.0110  -12.8620 H   0  0  0  0  0  0  0  0  0  0  0  0
  -27.9298   -2.4197  -10.1964 C   0  0  0  0  0  0  0  0  0  0  0  0
  -27.9163   -1.4468   -7.9573 C   0  0  0  0  0  0  0  0  0  0  0  0
  -27.6754   -2.6508   -8.7582 N   0  0  0  0  0  0  0  0  0  0  0  0
  -28.5318   -3.7400   -8.2782 C   0  0  0  0  0  0  0  0  0  0  0  0
  -19.2312    2.2197  -15.0639 C   0  0  0  0  0  0  0  0  0  0  0  0
  -18.5125    3.2285  -15.7153 C   0  0  0  0  0  0  0  0  0  0  0  0
  -17.2112    3.0142  -16.1564 C   0  0  0  0  0  0  0  0  0  0  0  0
  -16.5715    1.8125  -15.8774 C   0  0  0  0  0  0  0  0  0  0  0  0
  -17.2146    0.8093  -15.1500 C   0  0  0  0  0  0  0  0  0  0  0  0
  -18.5589    1.0108  -14.7749 C   0  0  0  0  0  0  0  0  0  0  0  0
  -16.5593   -0.3885  -14.7656 N   0  0  0  0  0  0  0  0  0  0  0  0
  -15.9974   -0.6464  -13.5329 C   0  0  0  0  0  0  0  0  0  0  0  0
  -15.9664    0.1006  -12.5603 O   0  0  0  0  0  0  0  0  0  0  0  0
  -15.3904   -1.8793  -13.4677 N   0  0  0  0  0  0  0  0  0  0  0  0
  -16.5293   -1.1316  -15.4467 H   0  0  0  0  0  0  0  0  0  0  0  0
  -15.8076   -2.6185  -14.0154 H   0  0  0  0  0  0  0  0  0  0  0  0
  -14.7603   -2.2679  -12.1961 C   0  0  0  0  0  0  0  0  0  0  0  0
  -15.6289   -3.0860  -11.2275 C   0  0  0  0  0  0  0  0  0  0  0  0
  -14.9168   -4.0414  -10.5869 F   0  0  0  0  0  0  0  0  0  0  0  0
  -16.1364   -2.2702  -10.2679 F   0  0  0  0  0  0  0  0  0  0  0  0
  -16.6752   -3.6767  -11.8405 F   0  0  0  0  0  0  0  0  0  0  0  0
 20 21  1  0  0  0
 21 22  1  0  0  0
 21 19  1  0  0  0
 19 10  1  0  0  0
 10 11  1  0  0  0
 10 15  2  0  0  0
 11 12  2  0  0  0
 12 13  1  0  0  0
 13  1  1  0  0  0
 13 14  2  0  0  0
  1  2  1  0  0  0
  1  9  2  0  0  0
  2  3  2  0  0  0
  3  4  1  0  0  0
  4  5  1  0  0  0
  4  8  1  0  0  0
  5 23  1  0  0  0
  5  6  2  0  0  0
 23 24  1  0  0  0
 23 28  2  0  0  0
 24 25  2  0  0  0
 25 26  1  0  0  0
 26 27  2  0  0  0
 27 29  1  0  0  0
 27 28  1  0  0  0
 29 30  1  0  0  0
 29 33  1  0  0  0
 30 31  2  0  0  0
 30 32  1  0  0  0
 32 35  1  0  0  0
 32 34  1  0  0  0
 35 36  1  0  0  0
 36 37  1  0  0  0
 36 38  1  0  0  0
 36 39  1  0  0  0
  6  7  1  0  0  0
  7  8  2  0  0  0
  8  9  1  0  0  0
 14 15  1  0  0  0
 15 16  1  0  0  0
 16 17  1  0  0  0
 16 18  1  0  0  0
M  END
> <minimizedAffinity>
-8.86169

$$$$
