CHEMBL3702666


 31 34  0  0  0  0  0  0  0  0999 V2000
  -25.4020   -0.7762  -15.8326 C   0  0  0  0  0  0  0  0  0  0  0  0
  -25.6951   -0.9851  -14.3672 C   0  0  0  0  0  0  0  0  0  0  0  0
  -26.7295   -1.8823  -14.0206 C   0  0  0  0  0  0  0  0  0  0  0  0
  -27.0210   -2.1785  -12.6866 C   0  0  0  0  0  0  0  0  0  0  0  0
  -26.2864   -1.5577  -11.6825 C   0  0  0  0  0  0  0  0  0  0  0  0
  -25.2710   -0.6480  -12.0222 C   0  0  0  0  0  0  0  0  0  0  0  0
  -24.9408   -0.3513  -13.3529 C   0  0  0  0  0  0  0  0  0  0  0  0
  -23.8625    0.4861  -13.6645 N   0  0  0  0  0  0  0  0  0  0  0  0
  -24.1394    1.9155  -13.9036 C   0  0  0  0  0  0  0  0  0  0  0  0
  -22.8894    2.7135  -13.5393 C   0  0  0  0  0  0  0  0  0  0  0  0
  -21.6362    2.0962  -14.1033 C   0  0  0  0  0  0  0  0  0  0  0  0
  -20.5161    2.8519  -14.0477 N   0  0  0  0  0  0  0  0  0  0  0  0
  -19.3889    2.2734  -14.4866 C   0  0  0  0  0  0  0  0  0  0  0  0
  -19.2797    1.0339  -14.9867 N   0  0  0  0  0  0  0  0  0  0  0  0
  -20.4205    0.3189  -15.0230 C   0  0  0  0  0  0  0  0  0  0  0  0
  -21.6381    0.7901  -14.5760 C   0  0  0  0  0  0  0  0  0  0  0  0
  -22.8883   -0.0408  -14.6363 C   0  0  0  0  0  0  0  0  0  0  0  0
  -26.5563   -1.7522  -10.2341 C   0  0  0  0  0  0  0  0  0  0  0  0
  -25.6692   -1.3994   -9.4580 O   0  0  0  0  0  0  0  0  0  0  0  0
  -27.7434   -2.3812   -9.8853 N   0  0  0  0  0  0  0  0  0  0  0  0
  -28.2921   -2.7930  -10.6298 H   0  0  0  0  0  0  0  0  0  0  0  0
  -28.1244   -2.7016   -8.5561 C   0  0  0  0  0  0  0  0  0  0  0  0
  -28.2724   -4.0186   -8.1072 C   0  0  0  0  0  0  0  0  0  0  0  0
  -28.7135   -4.2980   -6.8140 C   0  0  0  0  0  0  0  0  0  0  0  0
  -29.0124   -3.2574   -5.9417 C   0  0  0  0  0  0  0  0  0  0  0  0
  -28.8540   -1.9274   -6.3532 C   0  0  0  0  0  0  0  0  0  0  0  0
  -28.3861   -1.6571   -7.6581 C   0  0  0  0  0  0  0  0  0  0  0  0
  -29.2057   -0.7962   -5.4183 C   0  0  0  0  0  0  0  0  0  0  0  0
  -28.9559   -1.0723   -4.1073 F   0  0  0  0  0  0  0  0  0  0  0  0
  -28.5175    0.3452   -5.6959 F   0  0  0  0  0  0  0  0  0  0  0  0
  -30.5248   -0.4617   -5.4810 F   0  0  0  0  0  0  0  0  0  0  0  0
  1  2  1  0  0  0
  2  3  1  0  0  0
  2  7  2  0  0  0
  3  4  2  0  0  0
  4  5  1  0  0  0
  5 18  1  0  0  0
  5  6  2  0  0  0
 18 19  2  0  0  0
 18 20  1  0  0  0
 20 22  1  0  0  0
 20 21  1  0  0  0
 22 23  1  0  0  0
 22 27  2  0  0  0
 23 24  2  0  0  0
 24 25  1  0  0  0
 25 26  2  0  0  0
 26 28  1  0  0  0
 26 27  1  0  0  0
 28 29  1  0  0  0
 28 30  1  0  0  0
 28 31  1  0  0  0
  6  7  1  0  0  0
  7  8  1  0  0  0
  8  9  1  0  0  0
  8 17  1  0  0  0
  9 10  1  0  0  0
 10 11  1  0  0  0
 11 12  1  0  0  0
 11 16  2  0  0  0
 12 13  2  0  0  0
 13 14  1  0  0  0
 14 15  2  0  0  0
 15 16  1  0  0  0
 16 17  1  0  0  0
M  END
> <minimizedAffinity>
-7.41129

$$$$
