CHEMBL3909565


 36 39  0  0  0  0  0  0  0  0999 V2000
  -27.5427   -1.9215   -9.3644 C   0  0  0  0  0  0  0  0  0  0  0  0
  -27.5239   -0.8965   -8.4323 C   0  0  0  0  0  0  0  0  0  0  0  0
  -28.0196   -1.0399   -7.1767 N   0  0  0  0  0  0  0  0  0  0  0  0
  -28.5236   -2.2550   -6.8699 C   0  0  0  0  0  0  0  0  0  0  0  0
  -29.0383   -2.5053   -5.6087 C   0  0  0  0  0  0  0  0  0  0  0  0
  -29.5689   -3.7603   -5.2792 C   0  0  0  0  0  0  0  0  0  0  0  0
  -29.5953   -4.8099   -6.2089 C   0  0  0  0  0  0  0  0  0  0  0  0
  -29.0547   -4.5422   -7.4684 C   0  0  0  0  0  0  0  0  0  0  0  0
  -28.5436   -3.2978   -7.8186 C   0  0  0  0  0  0  0  0  0  0  0  0
  -28.0654   -3.1308   -9.0654 N   0  0  0  0  0  0  0  0  0  0  0  0
  -25.4490   -1.6651  -12.2740 N   0  0  0  0  0  0  0  0  0  0  0  0
  -25.6116   -1.9568  -10.9521 C   0  0  0  0  0  0  0  0  0  0  0  0
  -26.9562   -1.7972  -10.6787 C   0  0  0  0  0  0  0  0  0  0  0  0
  -27.5206   -1.4283  -11.9158 C   0  0  0  0  0  0  0  0  0  0  0  0
  -26.6113   -1.3485  -12.8932 N   0  0  0  0  0  0  0  0  0  0  0  0
  -24.1987   -1.6316  -13.0168 C   0  0  0  0  0  0  0  0  0  0  0  0
  -21.7590    1.1179  -14.0255 C   0  0  0  0  0  0  0  0  0  0  0  0
  -22.5144   -0.0985  -13.9274 N   0  0  0  0  0  0  0  0  0  0  0  0
  -23.5467   -0.2644  -13.0342 C   0  0  0  0  0  0  0  0  0  0  0  0
  -23.9707    0.6557  -12.3368 O   0  0  0  0  0  0  0  0  0  0  0  0
  -22.2216   -0.9147  -14.4730 H   0  0  0  0  0  0  0  0  0  0  0  0
  -30.1599   -6.0648   -5.8664 N   0  0  0  0  0  0  0  0  0  0  0  0
  -30.4150   -7.1300   -6.7715 C   0  0  0  0  0  0  0  0  0  0  0  0
  -29.4011   -7.5687   -7.6432 C   0  0  0  0  0  0  0  0  0  0  0  0
  -29.5980   -8.6441   -8.5129 C   0  0  0  0  0  0  0  0  0  0  0  0
  -30.8271   -9.3048   -8.5246 C   0  0  0  0  0  0  0  0  0  0  0  0
  -31.8516   -8.8983   -7.6749 C   0  0  0  0  0  0  0  0  0  0  0  0
  -31.6440   -7.8062   -6.8218 C   0  0  0  0  0  0  0  0  0  0  0  0
  -28.6682   -9.1527   -9.3793 O   0  0  0  0  0  0  0  0  0  0  0  0
  -28.9522  -10.4247   -9.9501 C   0  0  0  0  0  0  0  0  0  0  0  0
  -33.0859   -9.4795   -7.5690 O   0  0  0  0  0  0  0  0  0  0  0  0
  -33.1979  -10.6007   -6.6991 C   0  0  0  0  0  0  0  0  0  0  0  0
  -30.4161   -6.3359   -4.4265 C   0  0  0  0  0  0  0  0  0  0  0  0
  -29.3751   -7.2776   -3.7934 C   0  0  0  0  0  0  0  0  0  0  0  0
  -29.3257   -7.1812   -2.3722 O   0  0  0  0  0  0  0  0  0  0  0  0
  -28.7616   -6.4142   -2.1659 H   0  0  0  0  0  0  0  0  0  0  0  0
 17 18  1  0  0  0
 18 19  1  0  0  0
 18 21  1  0  0  0
 19 20  2  0  0  0
 19 16  1  0  0  0
 16 11  1  0  0  0
 11 12  1  0  0  0
 11 15  1  0  0  0
 12 13  2  0  0  0
 13  1  1  0  0  0
 13 14  1  0  0  0
  1  2  1  0  0  0
  1 10  2  0  0  0
  2  3  2  0  0  0
  3  4  1  0  0  0
  4  5  1  0  0  0
  4  9  2  0  0  0
  5  6  2  0  0  0
  6  7  1  0  0  0
  7 22  1  0  0  0
  7  8  2  0  0  0
 22 33  1  0  0  0
 22 23  1  0  0  0
 33 34  1  0  0  0
 34 35  1  0  0  0
 35 36  1  0  0  0
 23 24  1  0  0  0
 23 28  2  0  0  0
 24 25  2  0  0  0
 25 29  1  0  0  0
 25 26  1  0  0  0
 29 30  1  0  0  0
 26 27  2  0  0  0
 27 31  1  0  0  0
 27 28  1  0  0  0
 31 32  1  0  0  0
  8  9  1  0  0  0
  9 10  1  0  0  0
 14 15  2  0  0  0
M  END
> <minimizedAffinity>
-9.26701

$$$$
