CHEMBL185140


 29 32  0  0  0  0  0  0  0  0999 V2000
  -27.5772   11.7611  -14.9970 C   0  0  0  0  0  0  0  0  0  0  0  0
  -27.1609   10.9013  -15.9934 C   0  0  0  0  0  0  0  0  0  0  0  0
  -25.8490   10.5623  -15.7653 N   0  0  0  0  0  0  0  0  0  0  0  0
  -25.3997   11.1764  -14.6154 C   0  0  0  0  0  0  0  0  0  0  0  0
  -24.1531   11.1278  -13.9653 C   0  0  0  0  0  0  0  0  0  0  0  0
  -23.9862   11.8703  -12.7936 C   0  0  0  0  0  0  0  0  0  0  0  0
  -25.0317   12.6255  -12.2728 C   0  0  0  0  0  0  0  0  0  0  0  0
  -26.2710   12.6587  -12.9130 C   0  0  0  0  0  0  0  0  0  0  0  0
  -26.4672   11.9259  -14.1064 C   0  0  0  0  0  0  0  0  0  0  0  0
  -28.9407   12.3723  -14.8735 C   0  0  0  0  0  0  0  0  0  0  0  0
  -29.5518   12.1957  -13.4828 C   0  0  0  0  0  0  0  0  0  0  0  0
  -31.6124   11.7028  -14.6143 O   0  0  0  0  0  0  0  0  0  0  0  0
  -30.9724   11.6715  -13.5666 C   0  0  0  0  0  0  0  0  0  0  0  0
  -31.4319   11.1858  -12.3498 N   0  0  0  0  0  0  0  0  0  0  0  0
  -30.8694   11.3885  -11.5335 H   0  0  0  0  0  0  0  0  0  0  0  0
  -32.6931   10.5863  -12.1230 C   0  0  0  0  0  0  0  0  0  0  0  0
  -33.7815   11.2720  -11.5907 C   0  0  0  0  0  0  0  0  0  0  0  0
  -34.9565   10.5761  -11.3577 C   0  0  0  0  0  0  0  0  0  0  0  0
  -35.1201    9.2655  -11.6303 N   0  0  0  0  0  0  0  0  0  0  0  0
  -34.0639    8.6286  -12.1749 C   0  0  0  0  0  0  0  0  0  0  0  0
  -32.8483    9.2394  -12.4506 C   0  0  0  0  0  0  0  0  0  0  0  0
  -25.0490    9.7253  -16.6578 C   0  0  0  0  0  0  0  0  0  0  0  0
  -24.0221   10.5328  -17.4160 C   0  0  0  0  0  0  0  0  0  0  0  0
  -24.3977   11.3218  -18.5156 C   0  0  0  0  0  0  0  0  0  0  0  0
  -23.4350   11.9872  -19.2772 C   0  0  0  0  0  0  0  0  0  0  0  0
  -22.0911   11.8906  -18.9291 C   0  0  0  0  0  0  0  0  0  0  0  0
  -20.8987   12.6557  -19.9049 Cl  0  0  0  0  0  0  0  0  0  0  0  0
  -21.7056   11.1648  -17.8046 C   0  0  0  0  0  0  0  0  0  0  0  0
  -22.6681   10.4903  -17.0480 C   0  0  0  0  0  0  0  0  0  0  0  0
 12 13  2  0  0  0
 13 11  1  0  0  0
 13 14  1  0  0  0
 11 10  1  0  0  0
 10  1  1  0  0  0
  1  2  2  0  0  0
  1  9  1  0  0  0
  2  3  1  0  0  0
  3 22  1  0  0  0
  3  4  1  0  0  0
 22 23  1  0  0  0
 23 24  1  0  0  0
 23 29  2  0  0  0
 24 25  2  0  0  0
 25 26  1  0  0  0
 26 27  1  0  0  0
 26 28  2  0  0  0
 28 29  1  0  0  0
  4  5  1  0  0  0
  4  9  2  0  0  0
  5  6  2  0  0  0
  6  7  1  0  0  0
  7  8  2  0  0  0
  8  9  1  0  0  0
 14 16  1  0  0  0
 14 15  1  0  0  0
 16 17  1  0  0  0
 16 21  2  0  0  0
 17 18  2  0  0  0
 18 19  1  0  0  0
 19 20  2  0  0  0
 20 21  1  0  0  0
M  END
> <minimizedAffinity>
-5.60406

$$$$
