CHEMBL3934547


 30 34  0  0  0  0  0  0  0  0999 V2000
  -30.3757   -5.8176   -7.2629 N   0  0  0  0  0  0  0  0  0  0  0  0
  -29.8753   -6.5164   -6.2033 C   0  0  0  0  0  0  0  0  0  0  0  0
  -29.8661   -6.1492   -4.8693 C   0  0  0  0  0  0  0  0  0  0  0  0
  -29.3640   -7.2848   -4.1860 C   0  0  0  0  0  0  0  0  0  0  0  0
  -29.1266   -8.3118   -5.0061 N   0  0  0  0  0  0  0  0  0  0  0  0
  -29.3850   -7.8198   -6.2517 N   0  0  0  0  0  0  0  0  0  0  0  0
  -30.9636   -5.0115   -7.0318 H   0  0  0  0  0  0  0  0  0  0  0  0
  -30.7680   -6.3326   -8.0480 H   0  0  0  0  0  0  0  0  0  0  0  0
  -29.2700   -8.6366   -7.4075 C   0  0  0  0  0  0  0  0  0  0  0  0
  -30.2937   -9.5438   -7.7097 C   0  0  0  0  0  0  0  0  0  0  0  0
  -30.3083  -10.2080   -8.9485 C   0  0  0  0  0  0  0  0  0  0  0  0
  -29.2369  -10.0209   -9.8367 C   0  0  0  0  0  0  0  0  0  0  0  0
  -29.0139  -10.5591  -11.0806 N   0  0  0  0  0  0  0  0  0  0  0  0
  -27.8374  -10.1035  -11.4489 C   0  0  0  0  0  0  0  0  0  0  0  0
  -27.3029   -9.2699  -10.5067 N   0  0  0  0  0  0  0  0  0  0  0  0
  -28.1920   -9.1822   -9.4700 C   0  0  0  0  0  0  0  0  0  0  0  0
  -28.1709   -8.4633   -8.2719 C   0  0  0  0  0  0  0  0  0  0  0  0
  -26.4050   -8.8138  -10.5640 H   0  0  0  0  0  0  0  0  0  0  0  0
  -30.4074   -4.8985   -4.3613 C   0  0  0  0  0  0  0  0  0  0  0  0
  -31.3886   -4.9089   -3.6103 O   0  0  0  0  0  0  0  0  0  0  0  0
  -29.7291   -3.6862   -4.7269 C   0  0  0  0  0  0  0  0  0  0  0  0
  -28.4299   -3.2681   -4.5169 C   0  0  0  0  0  0  0  0  0  0  0  0
  -28.3302   -1.9432   -5.0038 C   0  0  0  0  0  0  0  0  0  0  0  0
  -27.3170   -0.9820   -4.9784 C   0  0  0  0  0  0  0  0  0  0  0  0
  -27.7421    0.3259   -4.7755 C   0  0  0  0  0  0  0  0  0  0  0  0
  -29.0080    0.7091   -5.2055 C   0  0  0  0  0  0  0  0  0  0  0  0
  -29.9122   -0.2277   -5.7158 C   0  0  0  0  0  0  0  0  0  0  0  0
  -29.5908   -1.5572   -5.4416 C   0  0  0  0  0  0  0  0  0  0  0  0
  -30.3465   -2.7024   -5.4803 N   0  0  0  0  0  0  0  0  0  0  0  0
  -31.3026   -2.7531   -5.8134 H   0  0  0  0  0  0  0  0  0  0  0  0
  1  2  1  0  0  0
  1  7  1  0  0  0
  1  8  1  0  0  0
  2  3  2  0  0  0
  2  6  1  0  0  0
  3 19  1  0  0  0
  3  4  1  0  0  0
 19 20  2  0  0  0
 19 21  1  0  0  0
 21 22  2  0  0  0
 21 29  1  0  0  0
 22 23  1  0  0  0
 23 24  1  0  0  0
 23 28  2  0  0  0
 24 25  2  0  0  0
 25 26  1  0  0  0
 26 27  2  0  0  0
 27 28  1  0  0  0
 28 29  1  0  0  0
 29 30  1  0  0  0
  4  5  2  0  0  0
  5  6  1  0  0  0
  6  9  1  0  0  0
  9 10  1  0  0  0
  9 17  2  0  0  0
 10 11  2  0  0  0
 11 12  1  0  0  0
 12 13  1  0  0  0
 12 16  2  0  0  0
 13 14  2  0  0  0
 14 15  1  0  0  0
 15 16  1  0  0  0
 15 18  1  0  0  0
 16 17  1  0  0  0
M  END
> <minimizedAffinity>
-8.96185

$$$$
