CHEMBL3918956


 38 42  0  0  0  0  0  0  0  0999 V2000
  -28.6726   -9.8445   -5.4133 N   0  0  0  0  0  0  0  0  0  0  0  0
  -28.5188   -8.4932   -4.9512 C   0  0  0  0  0  0  0  0  0  0  0  0
  -28.9983   -8.2278   -3.6722 C   0  0  0  0  0  0  0  0  0  0  0  0
  -29.5238   -6.9812   -3.3881 C   0  0  0  0  0  0  0  0  0  0  0  0
  -29.4760   -5.9466   -4.2916 C   0  0  0  0  0  0  0  0  0  0  0  0
  -30.2247   -4.8920   -3.9318 N   0  0  0  0  0  0  0  0  0  0  0  0
  -30.1300   -3.7944   -4.6934 C   0  0  0  0  0  0  0  0  0  0  0  0
  -29.2479   -3.6984   -5.7479 C   0  0  0  0  0  0  0  0  0  0  0  0
  -28.5578   -4.8102   -6.1908 N   0  0  0  0  0  0  0  0  0  0  0  0
  -28.7202   -6.0158   -5.4775 C   0  0  0  0  0  0  0  0  0  0  0  0
  -28.2742   -7.3599   -5.7970 C   0  0  0  0  0  0  0  0  0  0  0  0
  -29.0311   -2.3334   -6.2466 C   0  0  0  0  0  0  0  0  0  0  0  0
  -27.9714   -1.8256   -7.0532 C   0  0  0  0  0  0  0  0  0  0  0  0
  -27.8878   -0.4877   -7.0388 N   0  0  0  0  0  0  0  0  0  0  0  0
  -28.8718   -0.1207   -6.2016 N   0  0  0  0  0  0  0  0  0  0  0  0
  -29.2238    1.2729   -6.0459 C   0  0  0  0  0  0  0  0  0  0  0  0
  -29.4828   -1.1892   -5.6002 C   0  0  0  0  0  0  0  0  0  0  0  0
  -31.1835  -11.2984   -7.8329 C   0  0  0  0  0  0  0  0  0  0  0  0
  -30.3876  -11.5185   -8.9601 C   0  0  0  0  0  0  0  0  0  0  0  0
  -29.0448  -11.1951   -8.9136 C   0  0  0  0  0  0  0  0  0  0  0  0
  -28.5189  -10.6165   -7.7575 C   0  0  0  0  0  0  0  0  0  0  0  0
  -29.2642  -10.4329   -6.5655 C   0  0  0  0  0  0  0  0  0  0  0  0
  -30.6141  -10.8064   -6.6326 C   0  0  0  0  0  0  0  0  0  0  0  0
  -33.1688  -11.4227   -6.5353 C   0  0  0  0  0  0  0  0  0  0  0  0
  -32.5358  -11.5459   -7.8120 O   0  0  0  0  0  0  0  0  0  0  0  0
  -28.1698  -11.3593   -9.9550 O   0  0  0  0  0  0  0  0  0  0  0  0
  -26.9165  -10.7027   -9.7765 C   0  0  0  0  0  0  0  0  0  0  0  0
  -28.0126  -10.8061   -4.4616 C   0  0  0  0  0  0  0  0  0  0  0  0
  -26.5070  -10.5885   -4.3233 C   0  0  0  0  0  0  0  0  0  0  0  0
  -25.8487  -10.1444   -5.4130 N   0  0  0  0  0  0  0  0  0  0  0  0
  -24.5044  -10.1878   -5.3336 C   0  0  0  0  0  0  0  0  0  0  0  0
  -23.8139  -10.6659   -4.2496 C   0  0  0  0  0  0  0  0  0  0  0  0
  -24.5854  -11.0043   -3.1749 C   0  0  0  0  0  0  0  0  0  0  0  0
  -25.9231  -10.9665   -3.1806 N   0  0  0  0  0  0  0  0  0  0  0  0
  -23.7290   -9.7783   -6.4026 O   0  0  0  0  0  0  0  0  0  0  0  0
  -22.4619  -10.4257   -6.4595 C   0  0  0  0  0  0  0  0  0  0  0  0
  -23.9283  -11.4322   -2.0412 O   0  0  0  0  0  0  0  0  0  0  0  0
  -24.7276  -12.3260   -1.2694 C   0  0  0  0  0  0  0  0  0  0  0  0
 24 25  1  0  0  0
 25 18  1  0  0  0
 18 19  1  0  0  0
 18 23  2  0  0  0
 19 20  2  0  0  0
 20 26  1  0  0  0
 20 21  1  0  0  0
 26 27  1  0  0  0
 21 22  2  0  0  0
 22  1  1  0  0  0
 22 23  1  0  0  0
  1 28  1  0  0  0
  1  2  1  0  0  0
 28 29  1  0  0  0
 29 30  1  0  0  0
 29 34  2  0  0  0
 30 31  2  0  0  0
 31 35  1  0  0  0
 31 32  1  0  0  0
 35 36  1  0  0  0
 32 33  2  0  0  0
 33 37  1  0  0  0
 33 34  1  0  0  0
 37 38  1  0  0  0
  2  3  1  0  0  0
  2 11  2  0  0  0
  3  4  2  0  0  0
  4  5  1  0  0  0
  5  6  1  0  0  0
  5 10  2  0  0  0
  6  7  2  0  0  0
  7  8  1  0  0  0
  8 12  1  0  0  0
  8  9  2  0  0  0
 12 13  1  0  0  0
 12 17  2  0  0  0
 13 14  2  0  0  0
 14 15  1  0  0  0
 15 16  1  0  0  0
 15 17  1  0  0  0
  9 10  1  0  0  0
 10 11  1  0  0  0
M  END
> <minimizedAffinity>
-8.08091

$$$$
