CHEMBL250836


 25 28  0  0  0  0  0  0  0  0999 V2000
  -28.3694   -4.6979   -5.0167 C   0  0  0  0  0  0  0  0  0  0  0  0
  -27.3833   -5.0588   -4.2262 N   0  0  0  0  0  0  0  0  0  0  0  0
  -27.3994   -6.4352   -4.1830 N   0  0  0  0  0  0  0  0  0  0  0  0
  -28.4187   -7.0355   -4.9031 C   0  0  0  0  0  0  0  0  0  0  0  0
  -28.7078   -8.2122   -4.9342 O   0  0  0  0  0  0  0  0  0  0  0  0
  -29.0426   -5.8829   -5.5969 C   0  0  0  0  0  0  0  0  0  0  0  0
  -29.9239   -5.9258   -6.6045 C   0  0  0  0  0  0  0  0  0  0  0  0
  -26.7642   -6.9493   -3.5827 H   0  0  0  0  0  0  0  0  0  0  0  0
  -30.4863   -7.1175   -7.1240 C   0  0  0  0  0  0  0  0  0  0  0  0
  -31.7327   -7.5821   -6.7825 C   0  0  0  0  0  0  0  0  0  0  0  0
  -31.8720   -8.8189   -7.3530 N   0  0  0  0  0  0  0  0  0  0  0  0
  -32.9933   -9.7001   -7.1210 C   0  0  0  0  0  0  0  0  0  0  0  0
  -30.7640   -9.1263   -8.1194 C   0  0  0  0  0  0  0  0  0  0  0  0
  -30.4517  -10.2679   -8.8700 C   0  0  0  0  0  0  0  0  0  0  0  0
  -29.2206  -10.3010   -9.5334 C   0  0  0  0  0  0  0  0  0  0  0  0
  -28.3386   -9.2286   -9.4508 C   0  0  0  0  0  0  0  0  0  0  0  0
  -26.8324   -9.3006  -10.2851 Cl  0  0  0  0  0  0  0  0  0  0  0  0
  -28.6467   -8.0963   -8.6938 C   0  0  0  0  0  0  0  0  0  0  0  0
  -29.8789   -8.0474   -8.0090 C   0  0  0  0  0  0  0  0  0  0  0  0
  -30.1527   -2.7901   -3.1543 C   0  0  0  0  0  0  0  0  0  0  0  0
  -29.4892   -2.4723   -4.4433 C   0  0  0  0  0  0  0  0  0  0  0  0
  -29.6440   -1.1923   -4.9630 N   0  0  0  0  0  0  0  0  0  0  0  0
  -29.0304   -1.0498   -6.1231 N   0  0  0  0  0  0  0  0  0  0  0  0
  -28.2784   -2.4462   -6.6267 S   0  0  0  0  0  0  0  0  0  0  0  0
  -28.7046   -3.3213   -5.2157 C   0  0  0  0  0  0  0  0  0  0  0  0
 20 21  1  0  0  0
 21 22  1  0  0  0
 21 25  2  0  0  0
 22 23  2  0  0  0
 23 24  1  0  0  0
 24 25  1  0  0  0
 25  1  1  0  0  0
  1  2  2  0  0  0
  1  6  1  0  0  0
  2  3  1  0  0  0
  3  4  1  0  0  0
  3  8  1  0  0  0
  4  5  2  0  0  0
  4  6  1  0  0  0
  6  7  2  0  0  0
  7  9  1  0  0  0
  9 10  2  0  0  0
  9 19  1  0  0  0
 10 11  1  0  0  0
 11 12  1  0  0  0
 11 13  1  0  0  0
 13 14  1  0  0  0
 13 19  2  0  0  0
 14 15  2  0  0  0
 15 16  1  0  0  0
 16 17  1  0  0  0
 16 18  2  0  0  0
 18 19  1  0  0  0
M  END
> <minimizedAffinity>
-8.43612

$$$$
