CHEMBL3323604


 29 33  0  0  0  0  0  0  0  0999 V2000
  -23.4374    0.1888  -13.3754 C   0  0  0  0  0  0  0  0  0  0  0  0
  -24.4612   -0.2785  -14.0689 N   0  0  0  0  0  0  0  0  0  0  0  0
  -25.2520   -0.9524  -13.1709 C   0  0  0  0  0  0  0  0  0  0  0  0
  -26.4662   -1.6236  -13.3649 C   0  0  0  0  0  0  0  0  0  0  0  0
  -27.0689   -2.2460  -12.2611 C   0  0  0  0  0  0  0  0  0  0  0  0
  -26.4906   -2.1976  -10.9825 C   0  0  0  0  0  0  0  0  0  0  0  0
  -25.2689   -1.5343  -10.7907 C   0  0  0  0  0  0  0  0  0  0  0  0
  -24.6925   -0.9216  -11.9037 C   0  0  0  0  0  0  0  0  0  0  0  0
  -23.5393   -0.2016  -12.0601 N   0  0  0  0  0  0  0  0  0  0  0  0
  -22.8666   -0.0045  -11.3355 H   0  0  0  0  0  0  0  0  0  0  0  0
  -18.8316    3.3311  -15.5546 Cl  0  0  0  0  0  0  0  0  0  0  0  0
  -20.1575    2.4343  -14.9257 C   0  0  0  0  0  0  0  0  0  0  0  0
  -21.2305    3.1045  -14.3427 C   0  0  0  0  0  0  0  0  0  0  0  0
  -22.3102    2.3780  -13.8311 C   0  0  0  0  0  0  0  0  0  0  0  0
  -22.3226    0.9763  -13.9003 C   0  0  0  0  0  0  0  0  0  0  0  0
  -21.2383    0.3199  -14.5000 C   0  0  0  0  0  0  0  0  0  0  0  0
  -20.1559    1.0443  -15.0068 C   0  0  0  0  0  0  0  0  0  0  0  0
  -27.1419   -2.8709   -9.9235 N   0  0  0  0  0  0  0  0  0  0  0  0
  -26.8076   -3.8245   -9.8598 H   0  0  0  0  0  0  0  0  0  0  0  0
  -27.6361   -2.3367   -8.7050 C   0  0  0  0  0  0  0  0  0  0  0  0
  -27.4739   -0.9722   -8.4403 C   0  0  0  0  0  0  0  0  0  0  0  0
  -28.0111   -0.4438   -7.2865 C   0  0  0  0  0  0  0  0  0  0  0  0
  -28.7116   -1.1638   -6.3927 N   0  0  0  0  0  0  0  0  0  0  0  0
  -28.8981   -2.4688   -6.6407 C   0  0  0  0  0  0  0  0  0  0  0  0
  -29.6542   -3.1910   -5.7280 C   0  0  0  0  0  0  0  0  0  0  0  0
  -29.9026   -4.5546   -5.8860 C   0  0  0  0  0  0  0  0  0  0  0  0
  -29.3722   -5.2237   -6.9773 C   0  0  0  0  0  0  0  0  0  0  0  0
  -28.6143   -4.5205   -7.9143 C   0  0  0  0  0  0  0  0  0  0  0  0
  -28.3732   -3.1278   -7.7787 C   0  0  0  0  0  0  0  0  0  0  0  0
 11 12  1  0  0  0
 12 13  1  0  0  0
 12 17  2  0  0  0
 13 14  2  0  0  0
 14 15  1  0  0  0
 15  1  1  0  0  0
 15 16  2  0  0  0
  1  2  2  0  0  0
  1  9  1  0  0  0
  2  3  1  0  0  0
  3  4  1  0  0  0
  3  8  2  0  0  0
  4  5  2  0  0  0
  5  6  1  0  0  0
  6 18  1  0  0  0
  6  7  2  0  0  0
 18 20  1  0  0  0
 18 19  1  0  0  0
 20 21  1  0  0  0
 20 29  2  0  0  0
 21 22  2  0  0  0
 22 23  1  0  0  0
 23 24  2  0  0  0
 24 25  1  0  0  0
 24 29  1  0  0  0
 25 26  2  0  0  0
 26 27  1  0  0  0
 27 28  2  0  0  0
 28 29  1  0  0  0
  7  8  1  0  0  0
  8  9  1  0  0  0
  9 10  1  0  0  0
 16 17  1  0  0  0
M  END
> <minimizedAffinity>
-10.93404

$$$$
