CHEMBL1993877


 19 21  0  0  0  0  0  0  0  0999 V2000
  -29.2192   -4.7896   -6.3497 C   0  0  0  0  0  0  0  0  0  0  0  0
  -28.7499   -3.4973   -6.2775 C   0  0  0  0  0  0  0  0  0  0  0  0
  -29.3675   -2.8815   -5.2128 N   0  0  0  0  0  0  0  0  0  0  0  0
  -30.2361   -3.7701   -4.6176 C   0  0  0  0  0  0  0  0  0  0  0  0
  -31.0170   -3.5144   -3.5498 N   0  0  0  0  0  0  0  0  0  0  0  0
  -31.7398   -4.5896   -3.1968 C   0  0  0  0  0  0  0  0  0  0  0  0
  -31.7570   -5.8111   -3.7633 N   0  0  0  0  0  0  0  0  0  0  0  0
  -30.9560   -6.0319   -4.8246 C   0  0  0  0  0  0  0  0  0  0  0  0
  -30.9597   -7.2979   -5.3629 N   0  0  0  0  0  0  0  0  0  0  0  0
  -30.1579   -4.9789   -5.3011 C   0  0  0  0  0  0  0  0  0  0  0  0
  -31.6527   -7.9381   -5.0047 H   0  0  0  0  0  0  0  0  0  0  0  0
  -30.4806   -7.4885   -6.2278 H   0  0  0  0  0  0  0  0  0  0  0  0
  -29.1304   -1.5197   -4.7734 C   0  0  0  0  0  0  0  0  0  0  0  0
  -29.9809   -0.4672   -5.4907 C   0  0  0  0  0  0  0  0  0  0  0  0
  -29.2324    0.8506   -5.2986 C   0  0  0  0  0  0  0  0  0  0  0  0
  -27.8114    0.4894   -4.8693 C   0  0  0  0  0  0  0  0  0  0  0  0
  -27.7007   -1.0244   -5.0059 C   0  0  0  0  0  0  0  0  0  0  0  0
  -28.4649   -6.5792   -8.1139 C   0  0  0  0  0  0  0  0  0  0  0  0
  -28.8032   -5.7467   -7.3170 C   0  0  0  0  0  0  0  0  0  0  0  0
 18 19  3  0  0  0
 19  1  1  0  0  0
  1  2  2  0  0  0
  1 10  1  0  0  0
  2  3  1  0  0  0
  3 13  1  0  0  0
  3  4  1  0  0  0
 13 14  1  0  0  0
 13 17  1  0  0  0
 14 15  1  0  0  0
 15 16  1  0  0  0
 16 17  1  0  0  0
  4  5  1  0  0  0
  4 10  2  0  0  0
  5  6  2  0  0  0
  6  7  1  0  0  0
  7  8  2  0  0  0
  8  9  1  0  0  0
  8 10  1  0  0  0
  9 11  1  0  0  0
  9 12  1  0  0  0
M  END
> <minimizedAffinity>
-7.29210

$$$$
