CHEMBL3656032


 42 46  0  0  0  0  0  0  0  0999 V2000
  -26.6431   -9.6144   -3.6320 C   0  0  0  0  0  0  0  0  0  0  0  0
  -27.4824  -10.7164   -3.5018 C   0  0  0  0  0  0  0  0  0  0  0  0
  -28.8467  -10.5117   -3.6195 C   0  0  0  0  0  0  0  0  0  0  0  0
  -29.4156   -9.2986   -3.7882 N   0  0  0  0  0  0  0  0  0  0  0  0
  -28.5761   -8.2365   -3.8355 C   0  0  0  0  0  0  0  0  0  0  0  0
  -27.1968   -8.3480   -3.7581 C   0  0  0  0  0  0  0  0  0  0  0  0
  -29.2350   -6.9471   -3.9737 C   0  0  0  0  0  0  0  0  0  0  0  0
  -28.7529   -5.6556   -3.8790 C   0  0  0  0  0  0  0  0  0  0  0  0
  -29.8235   -4.7407   -4.1046 C   0  0  0  0  0  0  0  0  0  0  0  0
  -30.9569   -5.5224   -4.2526 C   0  0  0  0  0  0  0  0  0  0  0  0
  -30.5802   -6.8402   -4.2378 N   0  0  0  0  0  0  0  0  0  0  0  0
  -31.1829   -7.6446   -4.3641 H   0  0  0  0  0  0  0  0  0  0  0  0
  -29.6890   -3.2846   -4.0786 C   0  0  0  0  0  0  0  0  0  0  0  0
  -29.7057   -2.7049   -2.9898 O   0  0  0  0  0  0  0  0  0  0  0  0
  -29.4900   -2.5898   -5.2721 N   0  0  0  0  0  0  0  0  0  0  0  0
  -29.2826   -3.1786   -6.5964 C   0  0  0  0  0  0  0  0  0  0  0  0
  -28.0159   -2.6517   -7.2680 C   0  0  0  0  0  0  0  0  0  0  0  0
  -27.9477   -1.1309   -7.2511 C   0  0  0  0  0  0  0  0  0  0  0  0
  -28.1282   -0.5922   -5.8313 C   0  0  0  0  0  0  0  0  0  0  0  0
  -28.1250    0.8330   -5.8658 O   0  0  0  0  0  0  0  0  0  0  0  0
  -29.4296   -1.1297   -5.2184 C   0  0  0  0  0  0  0  0  0  0  0  0
  -28.8619    1.1265   -6.4257 H   0  0  0  0  0  0  0  0  0  0  0  0
  -25.2686   -9.6581   -3.5987 O   0  0  0  0  0  0  0  0  0  0  0  0
  -24.6549  -10.8135   -6.9957 C   0  0  0  0  0  0  0  0  0  0  0  0
  -23.2955  -11.1603   -6.9437 C   0  0  0  0  0  0  0  0  0  0  0  0
  -22.6019  -11.1114   -5.7360 C   0  0  0  0  0  0  0  0  0  0  0  0
  -23.2551  -10.6814   -4.5882 C   0  0  0  0  0  0  0  0  0  0  0  0
  -22.5783  -10.7218   -3.4320 F   0  0  0  0  0  0  0  0  0  0  0  0
  -24.5688  -10.2043   -4.6504 C   0  0  0  0  0  0  0  0  0  0  0  0
  -25.2849  -10.3125   -5.8504 C   0  0  0  0  0  0  0  0  0  0  0  0
  -26.4076  -10.0988   -8.5380 N   0  0  0  0  0  0  0  0  0  0  0  0
  -25.3543  -10.9664   -8.3019 C   0  0  0  0  0  0  0  0  0  0  0  0
  -24.9314  -11.8313   -9.0584 O   0  0  0  0  0  0  0  0  0  0  0  0
  -26.5323   -9.3184   -7.9092 H   0  0  0  0  0  0  0  0  0  0  0  0
  -27.0825   -9.0912  -13.3176 C   0  0  0  0  0  0  0  0  0  0  0  0
  -27.6086   -9.6529  -12.0282 C   0  0  0  0  0  0  0  0  0  0  0  0
  -28.8867  -10.2165  -11.9729 C   0  0  0  0  0  0  0  0  0  0  0  0
  -29.3811  -10.7025  -10.7657 C   0  0  0  0  0  0  0  0  0  0  0  0
  -28.5950  -10.6547   -9.6147 C   0  0  0  0  0  0  0  0  0  0  0  0
  -29.1843  -11.0172   -8.4677 F   0  0  0  0  0  0  0  0  0  0  0  0
  -27.2905  -10.1453   -9.6485 C   0  0  0  0  0  0  0  0  0  0  0  0
  -26.8216   -9.6133  -10.8616 C   0  0  0  0  0  0  0  0  0  0  0  0
 35 36  1  0  0  0
 36 37  1  0  0  0
 36 42  2  0  0  0
 37 38  2  0  0  0
 38 39  1  0  0  0
 39 40  1  0  0  0
 39 41  2  0  0  0
 41 31  1  0  0  0
 41 42  1  0  0  0
 31 32  1  0  0  0
 31 34  1  0  0  0
 32 33  2  0  0  0
 32 24  1  0  0  0
 24 25  1  0  0  0
 24 30  2  0  0  0
 25 26  2  0  0  0
 26 27  1  0  0  0
 27 28  1  0  0  0
 27 29  2  0  0  0
 29 23  1  0  0  0
 29 30  1  0  0  0
 23  1  1  0  0  0
  1  2  1  0  0  0
  1  6  2  0  0  0
  2  3  2  0  0  0
  3  4  1  0  0  0
  4  5  2  0  0  0
  5  7  1  0  0  0
  5  6  1  0  0  0
  7  8  2  0  0  0
  7 11  1  0  0  0
  8  9  1  0  0  0
  9 13  1  0  0  0
  9 10  2  0  0  0
 13 14  2  0  0  0
 13 15  1  0  0  0
 15 16  1  0  0  0
 15 21  1  0  0  0
 16 17  1  0  0  0
 17 18  1  0  0  0
 18 19  1  0  0  0
 19 20  1  0  0  0
 19 21  1  0  0  0
 20 22  1  0  0  0
 10 11  1  0  0  0
 11 12  1  0  0  0
M  END
> <minimizedAffinity>
-10.03532

$$$$
