CHEMBL2430258


 35 39  0  0  0  0  0  0  0  0999 V2000
  -27.9353   -8.0024   -8.8077 C   0  0  0  0  0  0  0  0  0  0  0  0
  -28.6051   -7.2087   -7.7417 C   0  0  0  0  0  0  0  0  0  0  0  0
  -28.4703   -5.8262   -7.6905 N   0  0  0  0  0  0  0  0  0  0  0  0
  -29.2217   -5.3115   -6.6659 C   0  0  0  0  0  0  0  0  0  0  0  0
  -29.8324   -6.3868   -6.0455 C   0  0  0  0  0  0  0  0  0  0  0  0
  -29.4749   -7.5943   -6.7257 C   0  0  0  0  0  0  0  0  0  0  0  0
  -30.7283   -6.2915   -4.8680 C   0  0  0  0  0  0  0  0  0  0  0  0
  -30.9521   -4.8868   -4.3407 C   0  0  0  0  0  0  0  0  0  0  0  0
  -30.2861   -3.7122   -5.0625 C   0  0  0  0  0  0  0  0  0  0  0  0
  -29.3826   -3.9379   -6.2779 C   0  0  0  0  0  0  0  0  0  0  0  0
  -28.8408   -2.8375   -6.8720 C   0  0  0  0  0  0  0  0  0  0  0  0
  -27.9320   -2.7616   -8.0923 C   0  0  0  0  0  0  0  0  0  0  0  0
  -27.5056   -3.6674   -8.7842 O   0  0  0  0  0  0  0  0  0  0  0  0
  -27.6647   -1.4150   -8.2869 N   0  0  0  0  0  0  0  0  0  0  0  0
  -28.2930   -0.6194   -7.3394 C   0  0  0  0  0  0  0  0  0  0  0  0
  -28.2235    0.7654   -7.2515 C   0  0  0  0  0  0  0  0  0  0  0  0
  -28.9250    1.3942   -6.2240 C   0  0  0  0  0  0  0  0  0  0  0  0
  -29.6662    0.6275   -5.3303 C   0  0  0  0  0  0  0  0  0  0  0  0
  -30.3449    1.2352   -4.3443 F   0  0  0  0  0  0  0  0  0  0  0  0
  -29.7254   -0.7561   -5.4259 C   0  0  0  0  0  0  0  0  0  0  0  0
  -29.0272   -1.4059   -6.4464 C   0  0  0  0  0  0  0  0  0  0  0  0
  -27.9210   -5.2766   -8.3447 H   0  0  0  0  0  0  0  0  0  0  0  0
  -27.0823   -1.0780   -9.0389 H   0  0  0  0  0  0  0  0  0  0  0  0
  -30.0150   -8.9215   -6.3930 C   0  0  0  0  0  0  0  0  0  0  0  0
  -31.1474   -9.2675   -6.7237 O   0  0  0  0  0  0  0  0  0  0  0  0
  -29.2156   -9.7358   -5.6306 N   0  0  0  0  0  0  0  0  0  0  0  0
  -28.5144   -9.2751   -5.0635 H   0  0  0  0  0  0  0  0  0  0  0  0
  -29.7468  -10.9855   -5.0915 C   0  0  0  0  0  0  0  0  0  0  0  0
  -28.6401  -11.7871   -4.3809 C   0  0  0  0  0  0  0  0  0  0  0  0
  -27.3925  -11.0747   -4.6055 N   0  0  0  0  0  0  0  0  0  0  0  0
  -26.7195  -10.5531   -3.4093 C   0  0  0  0  0  0  0  0  0  0  0  0
  -25.7700   -9.4390   -3.8742 C   0  0  0  0  0  0  0  0  0  0  0  0
  -24.8192   -9.9307   -4.8352 O   0  0  0  0  0  0  0  0  0  0  0  0
  -25.4889  -10.5362   -5.9555 C   0  0  0  0  0  0  0  0  0  0  0  0
  -26.4163  -11.6793   -5.5057 C   0  0  0  0  0  0  0  0  0  0  0  0
  1  2  1  0  0  0
  2  3  1  0  0  0
  2  6  2  0  0  0
  3  4  1  0  0  0
  3 22  1  0  0  0
  4  5  2  0  0  0
  4 10  1  0  0  0
  5  6  1  0  0  0
  5  7  1  0  0  0
  6 24  1  0  0  0
 24 25  2  0  0  0
 24 26  1  0  0  0
 26 28  1  0  0  0
 26 27  1  0  0  0
 28 29  1  0  0  0
 29 30  1  0  0  0
 30 31  1  0  0  0
 30 35  1  0  0  0
 31 32  1  0  0  0
 32 33  1  0  0  0
 33 34  1  0  0  0
 34 35  1  0  0  0
  7  8  1  0  0  0
  8  9  1  0  0  0
  9 10  1  0  0  0
 10 11  2  0  0  0
 11 12  1  0  0  0
 11 21  1  0  0  0
 12 13  2  0  0  0
 12 14  1  0  0  0
 14 15  1  0  0  0
 14 23  1  0  0  0
 15 16  1  0  0  0
 15 21  2  0  0  0
 16 17  2  0  0  0
 17 18  1  0  0  0
 18 19  1  0  0  0
 18 20  2  0  0  0
 20 21  1  0  0  0
M  END
> <minimizedAffinity>
-8.45440

$$$$
