CHEMBL2113065


 38 45  0  0  0  0  0  0  0  0999 V2000
  -13.6832   -3.7171  -10.3983 C   0  0  0  0  0  0  0  0  0  0  0  0
  -14.0978   -3.5108  -11.8626 C   0  0  0  0  0  0  0  0  0  0  0  0
  -13.7279   -2.1254  -12.1265 O   0  0  0  0  0  0  0  0  0  0  0  0
  -14.4740   -1.7092  -13.2751 C   0  0  0  0  0  0  0  0  0  0  0  0
  -15.7582   -2.5800  -13.3293 C   0  0  0  0  0  0  0  0  0  0  0  0
  -15.6374   -3.4760  -12.0914 C   0  0  0  0  0  0  0  0  0  0  0  0
  -16.3214   -2.8045  -11.0053 O   0  0  0  0  0  0  0  0  0  0  0  0
  -13.5714   -1.8968  -14.3878 N   0  0  0  0  0  0  0  0  0  0  0  0
  -13.3215   -1.0796  -15.5020 C   0  0  0  0  0  0  0  0  0  0  0  0
  -13.2523    0.3223  -15.5760 C   0  0  0  0  0  0  0  0  0  0  0  0
  -12.9963    0.9223  -16.8142 C   0  0  0  0  0  0  0  0  0  0  0  0
  -12.8585    0.1622  -17.9689 C   0  0  0  0  0  0  0  0  0  0  0  0
  -12.9368   -1.2325  -17.9239 C   0  0  0  0  0  0  0  0  0  0  0  0
  -13.1314   -1.8946  -16.6923 C   0  0  0  0  0  0  0  0  0  0  0  0
  -13.2072   -3.2520  -16.2963 C   0  0  0  0  0  0  0  0  0  0  0  0
  -13.3214   -4.4136  -17.0963 C   0  0  0  0  0  0  0  0  0  0  0  0
  -13.5973   -5.5851  -16.3424 C   0  0  0  0  0  0  0  0  0  0  0  0
  -13.5797   -5.4006  -14.9609 C   0  0  0  0  0  0  0  0  0  0  0  0
  -13.8885   -6.3424  -13.9756 C   0  0  0  0  0  0  0  0  0  0  0  0
  -14.5641   -7.5703  -13.9051 C   0  0  0  0  0  0  0  0  0  0  0  0
  -14.4148   -8.3521  -12.7614 C   0  0  0  0  0  0  0  0  0  0  0  0
  -13.4974   -7.9832  -11.7802 C   0  0  0  0  0  0  0  0  0  0  0  0
  -12.9451   -6.6973  -11.7502 C   0  0  0  0  0  0  0  0  0  0  0  0
  -13.3496   -5.8053  -12.7516 C   0  0  0  0  0  0  0  0  0  0  0  0
  -13.3716   -4.3826  -12.8114 N   0  0  0  0  0  0  0  0  0  0  0  0
  -13.3732   -4.2727  -14.1773 C   0  0  0  0  0  0  0  0  0  0  0  0
  -13.3219   -3.1092  -14.9147 C   0  0  0  0  0  0  0  0  0  0  0  0
  -13.7485   -6.7543  -17.1956 C   0  0  0  0  0  0  0  0  0  0  0  0
  -13.5821   -6.1171  -18.4930 N   0  0  0  0  0  0  0  0  0  0  0  0
  -13.3264   -4.7403  -18.4799 C   0  0  0  0  0  0  0  0  0  0  0  0
  -13.1553   -4.1152  -19.5053 O   0  0  0  0  0  0  0  0  0  0  0  0
  -16.0892   -1.8606  -11.0309 H   0  0  0  0  0  0  0  0  0  0  0  0
  -13.6341   -6.6000  -19.3708 H   0  0  0  0  0  0  0  0  0  0  0  0
  -16.3512   -4.8387  -12.2376 C   0  0  0  0  0  0  0  0  0  0  0  0
  -16.9611   -5.1061  -13.4343 N   0  0  0  0  0  0  0  0  0  0  0  0
  -16.3268   -5.7160  -11.3764 O   0  0  0  0  0  0  0  0  0  0  0  0
  -17.4581   -5.9855  -13.4950 H   0  0  0  0  0  0  0  0  0  0  0  0
  -17.2633   -4.3858  -14.0709 H   0  0  0  0  0  0  0  0  0  0  0  0
  2  1  1  0  0  0
  2  3  1  0  0  0
  2  6  1  0  0  0
  2 25  1  0  0  0
  3  4  1  0  0  0
  4  5  1  0  0  0
  4  8  1  0  0  0
  5  6  1  0  0  0
  6 34  1  0  0  0
  6  7  1  0  0  0
  7 32  1  0  0  0
 34 35  1  0  0  0
 34 36  2  0  0  0
 35 37  1  0  0  0
 35 38  1  0  0  0
  8  9  1  0  0  0
  8 27  1  0  0  0
  9 10  1  0  0  0
  9 14  2  0  0  0
 10 11  2  0  0  0
 11 12  1  0  0  0
 12 13  2  0  0  0
 13 14  1  0  0  0
 14 15  1  0  0  0
 15 16  1  0  0  0
 15 27  2  0  0  0
 16 17  2  0  0  0
 16 30  1  0  0  0
 17 18  1  0  0  0
 17 28  1  0  0  0
 18 19  1  0  0  0
 18 26  2  0  0  0
 19 20  1  0  0  0
 19 24  2  0  0  0
 20 21  2  0  0  0
 21 22  1  0  0  0
 22 23  2  0  0  0
 23 24  1  0  0  0
 24 25  1  0  0  0
 25 26  1  0  0  0
 26 27  1  0  0  0
 28 29  1  0  0  0
 29 30  1  0  0  0
 29 33  1  0  0  0
 30 31  2  0  0  0
M  END
> <minimizedAffinity>
-8.54240

$$$$
