CHEMBL1914686


 32 34  0  0  0  0  0  0  0  0999 V2000
  -24.7952   -0.9244  -12.7550 C   0  0  0  0  0  0  0  0  0  0  0  0
  -23.8452   -0.4524  -11.8339 C   0  0  0  0  0  0  0  0  0  0  0  0
  -22.5811   -0.0471  -12.2470 C   0  0  0  0  0  0  0  0  0  0  0  0
  -22.2465   -0.0864  -13.6033 C   0  0  0  0  0  0  0  0  0  0  0  0
  -23.1878   -0.4941  -14.5041 N   0  0  0  0  0  0  0  0  0  0  0  0
  -24.4337   -0.9259  -14.1214 C   0  0  0  0  0  0  0  0  0  0  0  0
  -25.2257   -1.2747  -14.9814 O   0  0  0  0  0  0  0  0  0  0  0  0
  -22.9529   -0.4989  -15.5241 H   0  0  0  0  0  0  0  0  0  0  0  0
  -20.9279    0.3526  -14.1276 C   0  0  0  0  0  0  0  0  0  0  0  0
  -20.5028    1.5887  -14.4821 C   0  0  0  0  0  0  0  0  0  0  0  0
  -21.1148    2.9421  -14.4036 C   0  0  0  0  0  0  0  0  0  0  0  0
  -22.2041    3.2317  -13.9348 O   0  0  0  0  0  0  0  0  0  0  0  0
  -20.2526    3.8768  -14.8622 N   0  0  0  0  0  0  0  0  0  0  0  0
  -19.0712    3.2166  -15.2471 C   0  0  0  0  0  0  0  0  0  0  0  0
  -17.9132    3.7885  -15.7717 C   0  0  0  0  0  0  0  0  0  0  0  0
  -16.8409    2.9361  -16.0908 C   0  0  0  0  0  0  0  0  0  0  0  0
  -16.9421    1.5469  -15.8783 C   0  0  0  0  0  0  0  0  0  0  0  0
  -15.9055    0.7323  -16.1906 F   0  0  0  0  0  0  0  0  0  0  0  0
  -18.1164    0.9958  -15.3418 C   0  0  0  0  0  0  0  0  0  0  0  0
  -19.1702    1.8594  -15.0335 C   0  0  0  0  0  0  0  0  0  0  0  0
  -20.4218    4.8948  -14.8942 H   0  0  0  0  0  0  0  0  0  0  0  0
  -26.3909   -1.4683  -10.8890 N   0  0  0  0  0  0  0  0  0  0  0  0
  -26.1165   -1.3928  -12.2234 C   0  0  0  0  0  0  0  0  0  0  0  0
  -27.0022   -1.6542  -13.0293 O   0  0  0  0  0  0  0  0  0  0  0  0
  -25.6950   -1.1789  -10.1916 H   0  0  0  0  0  0  0  0  0  0  0  0
  -27.7088   -1.8687  -10.4272 C   0  0  0  0  0  0  0  0  0  0  0  0
  -27.9857   -1.4176   -8.9803 C   0  0  0  0  0  0  0  0  0  0  0  0
  -27.5718   -2.4033   -7.9463 N   0  0  0  0  0  0  0  0  0  0  0  0
  -27.9082   -0.3760   -6.4728 C   0  0  0  0  0  0  0  0  0  0  0  0
  -27.7675   -1.8990   -6.5610 C   0  0  0  0  0  0  0  0  0  0  0  0
  -28.1815   -3.7360   -8.2061 C   0  0  0  0  0  0  0  0  0  0  0  0
  -29.6597   -3.8517   -7.8007 C   0  0  0  0  0  0  0  0  0  0  0  0
 29 30  1  0  0  0
 30 28  1  0  0  0
 28 31  1  0  0  0
 28 27  1  0  0  0
 31 32  1  0  0  0
 27 26  1  0  0  0
 26 22  1  0  0  0
 22 23  1  0  0  0
 22 25  1  0  0  0
 23 24  2  0  0  0
 23  1  1  0  0  0
  1  2  2  0  0  0
  1  6  1  0  0  0
  2  3  1  0  0  0
  3  4  2  0  0  0
  4  9  1  0  0  0
  4  5  1  0  0  0
  9 10  2  0  0  0
 10 11  1  0  0  0
 10 20  1  0  0  0
 11 12  2  0  0  0
 11 13  1  0  0  0
 13 14  1  0  0  0
 13 21  1  0  0  0
 14 15  1  0  0  0
 14 20  2  0  0  0
 15 16  2  0  0  0
 16 17  1  0  0  0
 17 18  1  0  0  0
 17 19  2  0  0  0
 19 20  1  0  0  0
  5  6  1  0  0  0
  5  8  1  0  0  0
  6  7  2  0  0  0
M  END
> <minimizedAffinity>
-9.72330

$$$$
