CHEMBL3660283


 36 39  0  0  0  0  0  0  0  0999 V2000
  -15.1277   -0.8321  -13.8752 C   0  0  0  0  0  0  0  0  0  0  0  0
  -15.3797   -0.1104  -15.0470 C   0  0  0  0  0  0  0  0  0  0  0  0
  -16.2031    1.0145  -15.0244 C   0  0  0  0  0  0  0  0  0  0  0  0
  -16.8397    1.3942  -13.8413 C   0  0  0  0  0  0  0  0  0  0  0  0
  -16.5980    0.6674  -12.6699 C   0  0  0  0  0  0  0  0  0  0  0  0
  -15.7626   -0.4601  -12.6886 C   0  0  0  0  0  0  0  0  0  0  0  0
  -13.6203   -4.1250  -13.7585 N   0  0  0  0  0  0  0  0  0  0  0  0
  -14.6383   -3.1918  -13.8375 C   0  0  0  0  0  0  0  0  0  0  0  0
  -15.8306   -3.4563  -13.9330 O   0  0  0  0  0  0  0  0  0  0  0  0
  -14.1698   -1.8793  -13.8781 N   0  0  0  0  0  0  0  0  0  0  0  0
  -12.6772   -3.7820  -13.8506 H   0  0  0  0  0  0  0  0  0  0  0  0
  -13.3731   -1.7490  -14.4829 H   0  0  0  0  0  0  0  0  0  0  0  0
  -13.2351   -8.4048  -16.2184 C   0  0  0  0  0  0  0  0  0  0  0  0
  -13.6373   -7.6463  -14.9862 C   0  0  0  0  0  0  0  0  0  0  0  0
  -14.2415   -8.3238  -13.9226 C   0  0  0  0  0  0  0  0  0  0  0  0
  -14.5867   -7.6333  -12.7688 C   0  0  0  0  0  0  0  0  0  0  0  0
  -14.3493   -6.2641  -12.6751 C   0  0  0  0  0  0  0  0  0  0  0  0
  -14.5834   -5.7124  -11.4783 F   0  0  0  0  0  0  0  0  0  0  0  0
  -13.8061   -5.5380  -13.7461 C   0  0  0  0  0  0  0  0  0  0  0  0
  -13.4202   -6.2557  -14.8910 C   0  0  0  0  0  0  0  0  0  0  0  0
  -17.6601    2.5009  -13.7337 O   0  0  0  0  0  0  0  0  0  0  0  0
  -18.9339    2.4530  -14.2704 C   0  0  0  0  0  0  0  0  0  0  0  0
  -19.3423    3.2265  -15.3471 C   0  0  0  0  0  0  0  0  0  0  0  0
  -20.6522    3.1242  -15.7668 C   0  0  0  0  0  0  0  0  0  0  0  0
  -21.5389    2.2634  -15.2298 N   0  0  0  0  0  0  0  0  0  0  0  0
  -21.1160    1.4668  -14.2211 C   0  0  0  0  0  0  0  0  0  0  0  0
  -19.8228    1.5322  -13.7052 C   0  0  0  0  0  0  0  0  0  0  0  0
  -22.1229    0.5165  -13.7501 C   0  0  0  0  0  0  0  0  0  0  0  0
  -22.1038   -0.0762  -12.5027 C   0  0  0  0  0  0  0  0  0  0  0  0
  -23.4367   -1.1203  -12.2457 S   0  0  0  0  0  0  0  0  0  0  0  0
  -24.0911   -0.7909  -13.7945 C   0  0  0  0  0  0  0  0  0  0  0  0
  -23.2920    0.1017  -14.4825 C   0  0  0  0  0  0  0  0  0  0  0  0
  -25.3223   -1.3950  -14.2688 C   0  0  0  0  0  0  0  0  0  0  0  0
  -25.6499   -1.5115  -15.4433 O   0  0  0  0  0  0  0  0  0  0  0  0
  -26.1239   -1.8446  -13.2660 O   0  0  0  0  0  0  0  0  0  0  0  0
  -25.7263   -1.6712  -12.3910 H   0  0  0  0  0  0  0  0  0  0  0  0
 13 14  1  0  0  0
 14 15  1  0  0  0
 14 20  2  0  0  0
 15 16  2  0  0  0
 16 17  1  0  0  0
 17 18  1  0  0  0
 17 19  2  0  0  0
 19  7  1  0  0  0
 19 20  1  0  0  0
  7  8  1  0  0  0
  7 11  1  0  0  0
  8  9  2  0  0  0
  8 10  1  0  0  0
 10  1  1  0  0  0
 10 12  1  0  0  0
  1  2  1  0  0  0
  1  6  2  0  0  0
  2  3  2  0  0  0
  3  4  1  0  0  0
  4 21  1  0  0  0
  4  5  2  0  0  0
 21 22  1  0  0  0
 22 23  1  0  0  0
 22 27  2  0  0  0
 23 24  2  0  0  0
 24 25  1  0  0  0
 25 26  2  0  0  0
 26 28  1  0  0  0
 26 27  1  0  0  0
 28 29  2  0  0  0
 28 32  1  0  0  0
 29 30  1  0  0  0
 30 31  1  0  0  0
 31 33  1  0  0  0
 31 32  2  0  0  0
 33 34  2  0  0  0
 33 35  1  0  0  0
 35 36  1  0  0  0
  5  6  1  0  0  0
M  END
> <minimizedAffinity>
-7.67906

$$$$
