CHEMBL467164


 33 37  0  0  0  0  0  0  0  0999 V2000
  -30.5176   -8.3559   -6.5960 C   0  0  0  0  0  0  0  0  0  0  0  0
  -31.6933   -7.6596   -6.9453 C   0  0  0  0  0  0  0  0  0  0  0  0
  -32.8779   -8.3393   -7.2152 C   0  0  0  0  0  0  0  0  0  0  0  0
  -32.8930   -9.7258   -7.1839 C   0  0  0  0  0  0  0  0  0  0  0  0
  -31.7265  -10.4318   -6.8771 C   0  0  0  0  0  0  0  0  0  0  0  0
  -30.5102   -9.7759   -6.6055 C   0  0  0  0  0  0  0  0  0  0  0  0
  -29.2635   -7.5805   -6.3178 C   0  0  0  0  0  0  0  0  0  0  0  0
  -28.3236   -7.6743   -7.1086 O   0  0  0  0  0  0  0  0  0  0  0  0
  -28.4877   -2.9152   -5.6957 C   0  0  0  0  0  0  0  0  0  0  0  0
  -28.3783   -2.6057   -4.3423 C   0  0  0  0  0  0  0  0  0  0  0  0
  -28.5965   -3.5788   -3.3590 C   0  0  0  0  0  0  0  0  0  0  0  0
  -28.8966   -4.8797   -3.7788 C   0  0  0  0  0  0  0  0  0  0  0  0
  -29.1638   -6.0061   -3.0379 N   0  0  0  0  0  0  0  0  0  0  0  0
  -29.3611   -7.0765   -3.8643 C   0  0  0  0  0  0  0  0  0  0  0  0
  -29.2013   -6.6617   -5.1764 C   0  0  0  0  0  0  0  0  0  0  0  0
  -28.9757   -5.2415   -5.1250 C   0  0  0  0  0  0  0  0  0  0  0  0
  -28.8008   -4.2238   -6.0899 C   0  0  0  0  0  0  0  0  0  0  0  0
  -29.1981   -6.0349   -2.0278 H   0  0  0  0  0  0  0  0  0  0  0  0
  -28.0286   -2.6100   -8.0107 C   0  0  0  0  0  0  0  0  0  0  0  0
  -28.3018   -2.0438   -6.7355 O   0  0  0  0  0  0  0  0  0  0  0  0
  -29.3725  -10.5261   -6.2125 N   0  0  0  0  0  0  0  0  0  0  0  0
  -28.6301   -9.8688   -5.9313 H   0  0  0  0  0  0  0  0  0  0  0  0
  -28.8233  -11.4734   -7.1848 C   0  0  0  0  0  0  0  0  0  0  0  0
  -28.3204  -10.8393   -8.4677 C   0  0  0  0  0  0  0  0  0  0  0  0
  -27.0645  -10.2168   -8.4166 C   0  0  0  0  0  0  0  0  0  0  0  0
  -26.5008   -9.6272   -9.5494 C   0  0  0  0  0  0  0  0  0  0  0  0
  -27.1391   -9.6567  -10.7737 C   0  0  0  0  0  0  0  0  0  0  0  0
  -26.5287   -9.0815  -11.8259 N   0  0  0  0  0  0  0  0  0  0  0  0
  -27.1328   -9.1480  -13.0268 C   0  0  0  0  0  0  0  0  0  0  0  0
  -28.3455   -9.7739  -13.2358 C   0  0  0  0  0  0  0  0  0  0  0  0
  -28.9873  -10.3519  -12.1390 C   0  0  0  0  0  0  0  0  0  0  0  0
  -28.3894  -10.3021  -10.8643 C   0  0  0  0  0  0  0  0  0  0  0  0
  -28.9789  -10.8772   -9.7063 C   0  0  0  0  0  0  0  0  0  0  0  0
 19 20  1  0  0  0
 20  9  1  0  0  0
  9 10  1  0  0  0
  9 17  2  0  0  0
 10 11  2  0  0  0
 11 12  1  0  0  0
 12 13  1  0  0  0
 12 16  2  0  0  0
 13 14  1  0  0  0
 13 18  1  0  0  0
 14 15  2  0  0  0
 15  7  1  0  0  0
 15 16  1  0  0  0
  7  8  2  0  0  0
  7  1  1  0  0  0
  1  2  1  0  0  0
  1  6  2  0  0  0
  2  3  2  0  0  0
  3  4  1  0  0  0
  4  5  2  0  0  0
  5  6  1  0  0  0
  6 21  1  0  0  0
 21 23  1  0  0  0
 21 22  1  0  0  0
 23 24  1  0  0  0
 24 25  1  0  0  0
 24 33  2  0  0  0
 25 26  2  0  0  0
 26 27  1  0  0  0
 27 28  1  0  0  0
 27 32  2  0  0  0
 28 29  2  0  0  0
 29 30  1  0  0  0
 30 31  2  0  0  0
 31 32  1  0  0  0
 32 33  1  0  0  0
 16 17  1  0  0  0
M  END
> <minimizedAffinity>
-8.96436

$$$$
