CHEMBL403823


 37 42  0  0  0  0  0  0  0  0999 V2000
  -28.6953   -8.2936   -8.3498 C   0  0  0  0  0  0  0  0  0  0  0  0
  -27.8205   -7.5210   -9.1052 C   0  0  0  0  0  0  0  0  0  0  0  0
  -27.5486   -6.2084   -8.7469 C   0  0  0  0  0  0  0  0  0  0  0  0
  -28.2300   -5.6501   -7.6618 C   0  0  0  0  0  0  0  0  0  0  0  0
  -29.2338   -6.3743   -6.9897 C   0  0  0  0  0  0  0  0  0  0  0  0
  -29.4155   -7.7368   -7.2853 C   0  0  0  0  0  0  0  0  0  0  0  0
  -29.8153   -5.3848   -6.2196 C   0  0  0  0  0  0  0  0  0  0  0  0
  -30.9348   -5.4403   -5.3923 C   0  0  0  0  0  0  0  0  0  0  0  0
  -31.3224   -4.0854   -4.7254 C   0  0  0  0  0  0  0  0  0  0  0  0
  -30.3264   -2.8686   -4.8941 C   0  0  0  0  0  0  0  0  0  0  0  0
  -29.1850   -3.6444   -4.7294 C   0  0  0  0  0  0  0  0  0  0  0  0
  -28.9477   -4.3945   -5.9133 C   0  0  0  0  0  0  0  0  0  0  0  0
  -28.1715   -4.3789   -7.0877 N   0  0  0  0  0  0  0  0  0  0  0  0
  -28.3324   -3.0065   -3.6966 C   0  0  0  0  0  0  0  0  0  0  0  0
  -27.5854   -2.2623   -4.6880 C   0  0  0  0  0  0  0  0  0  0  0  0
  -28.4105   -1.1333   -4.9537 C   0  0  0  0  0  0  0  0  0  0  0  0
  -27.5827   -0.1622   -5.2030 N   0  0  0  0  0  0  0  0  0  0  0  0
  -28.3243    0.8228   -4.8721 N   0  0  0  0  0  0  0  0  0  0  0  0
  -27.4464    1.9724   -4.6723 C   0  0  0  0  0  0  0  0  0  0  0  0
  -29.6759    0.3524   -5.0537 C   0  0  0  0  0  0  0  0  0  0  0  0
  -30.0059   -1.1122   -4.9818 C   0  0  0  0  0  0  0  0  0  0  0  0
  -31.9835   -4.7094   -3.4927 C   0  0  0  0  0  0  0  0  0  0  0  0
  -32.2554   -4.2853   -2.3724 O   0  0  0  0  0  0  0  0  0  0  0  0
  -32.1635   -6.1210   -3.7248 N   0  0  0  0  0  0  0  0  0  0  0  0
  -31.3652   -6.6891   -4.7641 C   0  0  0  0  0  0  0  0  0  0  0  0
  -32.4417   -6.7316   -2.9632 H   0  0  0  0  0  0  0  0  0  0  0  0
  -28.5401  -10.1443  -10.0933 C   0  0  0  0  0  0  0  0  0  0  0  0
  -28.8782   -9.7309   -8.6747 C   0  0  0  0  0  0  0  0  0  0  0  0
  -29.2760  -10.5308   -7.7304 N   0  0  0  0  0  0  0  0  0  0  0  0
  -29.4214  -11.8430   -8.1908 O   0  0  0  0  0  0  0  0  0  0  0  0
  -30.5267  -12.4660   -7.5272 C   0  0  0  0  0  0  0  0  0  0  0  0
  -30.8356  -11.7539   -6.2141 C   0  0  0  0  0  0  0  0  0  0  0  0
  -31.7169  -12.3720   -8.4735 C   0  0  0  0  0  0  0  0  0  0  0  0
  -27.6671   -3.1547   -7.7092 C   0  0  0  0  0  0  0  0  0  0  0  0
  -28.3238   -2.4053   -8.8598 C   0  0  0  0  0  0  0  0  0  0  0  0
  -28.6322   -0.9668   -8.4790 C   0  0  0  0  0  0  0  0  0  0  0  0
  -27.3670   -2.4212  -10.0681 C   0  0  0  0  0  0  0  0  0  0  0  0
 27 28  1  0  0  0
 28 29  2  0  0  0
 28  1  1  0  0  0
 29 30  1  0  0  0
 30 31  1  0  0  0
 31 32  1  0  0  0
 31 33  1  0  0  0
  1  2  1  0  0  0
  1  6  2  0  0  0
  2  3  2  0  0  0
  3  4  1  0  0  0
  4  5  2  0  0  0
  4 13  1  0  0  0
  5  6  1  0  0  0
  5  7  1  0  0  0
  7  8  1  0  0  0
  7 12  2  0  0  0
  8  9  2  0  0  0
  8 25  1  0  0  0
  9 10  1  0  0  0
  9 22  1  0  0  0
 10 11  2  0  0  0
 10 21  1  0  0  0
 11 12  1  0  0  0
 11 14  1  0  0  0
 12 13  1  0  0  0
 13 34  1  0  0  0
 34 35  1  0  0  0
 35 36  1  0  0  0
 35 37  1  0  0  0
 14 15  1  0  0  0
 15 16  1  0  0  0
 16 17  2  0  0  0
 16 21  1  0  0  0
 17 18  1  0  0  0
 18 19  1  0  0  0
 18 20  1  0  0  0
 20 21  2  0  0  0
 22 23  2  0  0  0
 22 24  1  0  0  0
 24 25  1  0  0  0
 24 26  1  0  0  0
M  END
> <minimizedAffinity>
-4.48561

$$$$
