CHEMBL599247


 26 30  0  0  0  0  0  0  0  0999 V2000
  -12.1940    6.1305  -15.0655 O   0  0  0  0  0  0  0  0  0  0  0  0
  -12.7140    5.0185  -15.1322 C   0  0  0  0  0  0  0  0  0  0  0  0
  -13.5399    4.5820  -16.3281 C   0  0  0  0  0  0  0  0  0  0  0  0
  -14.7592    3.8060  -15.9387 C   0  0  0  0  0  0  0  0  0  0  0  0
  -16.0840    4.3847  -16.1648 C   0  0  0  0  0  0  0  0  0  0  0  0
  -17.2484    3.8532  -15.9194 N   0  0  0  0  0  0  0  0  0  0  0  0
  -17.1877    2.5735  -15.3870 C   0  0  0  0  0  0  0  0  0  0  0  0
  -17.9679    1.1586  -14.6747 C   0  0  0  0  0  0  0  0  0  0  0  0
  -18.7217    2.1088  -15.0789 C   0  0  0  0  0  0  0  0  0  0  0  0
  -17.1916    1.4458  -14.6586 N   0  0  0  0  0  0  0  0  0  0  0  0
  -16.0118    1.9686  -15.0083 N   0  0  0  0  0  0  0  0  0  0  0  0
  -14.8044    2.5576  -15.3973 C   0  0  0  0  0  0  0  0  0  0  0  0
  -13.4339    1.9597  -15.1391 C   0  0  0  0  0  0  0  0  0  0  0  0
  -13.1377    0.6476  -15.5330 C   0  0  0  0  0  0  0  0  0  0  0  0
  -11.8732    0.0823  -15.3218 C   0  0  0  0  0  0  0  0  0  0  0  0
  -10.8674    0.8153  -14.7056 C   0  0  0  0  0  0  0  0  0  0  0  0
  -11.1214    2.1204  -14.2961 C   0  0  0  0  0  0  0  0  0  0  0  0
  -12.3862    2.6898  -14.5214 C   0  0  0  0  0  0  0  0  0  0  0  0
  -12.5659    4.0418  -14.1669 N   0  0  0  0  0  0  0  0  0  0  0  0
  -12.5080    4.3024  -13.1906 H   0  0  0  0  0  0  0  0  0  0  0  0
  -20.4415    1.5790  -14.7623 C   0  0  0  0  0  0  0  0  0  0  0  0
  -21.4491    2.5391  -14.4116 C   0  0  0  0  0  0  0  0  0  0  0  0
  -22.7061    2.2776  -13.7228 C   0  0  0  0  0  0  0  0  0  0  0  0
  -23.2150    1.0032  -13.5760 C   0  0  0  0  0  0  0  0  0  0  0  0
  -22.4857    0.0030  -14.1978 C   0  0  0  0  0  0  0  0  0  0  0  0
  -21.0915    0.2656  -14.6916 C   0  0  0  0  0  0  0  0  0  0  0  0
  1  2  2  0  0  0
  2  3  1  0  0  0
  2 19  1  0  0  0
  3  4  1  0  0  0
  4  5  1  0  0  0
  4 12  2  0  0  0
  5  6  2  0  0  0
  6  7  1  0  0  0
  7  8  2  0  0  0
  7 11  1  0  0  0
  8  9  1  0  0  0
  9 21  1  0  0  0
  9 10  2  0  0  0
 21 22  1  0  0  0
 21 26  2  0  0  0
 22 23  2  0  0  0
 23 24  1  0  0  0
 24 25  2  0  0  0
 25 26  1  0  0  0
 10 11  1  0  0  0
 11 12  1  0  0  0
 12 13  1  0  0  0
 13 14  1  0  0  0
 13 18  2  0  0  0
 14 15  2  0  0  0
 15 16  1  0  0  0
 16 17  2  0  0  0
 17 18  1  0  0  0
 18 19  1  0  0  0
 19 20  1  0  0  0
M  END
> <minimizedAffinity>
-9.43385

$$$$
