CHEMBL4794619


 79 85  0  0  0  0  0  0  0  0999 V2000
  -23.4339   -5.9474  -14.7648 C   0  0  0  0  0  0  0  0  0  0  0  0
  -24.1635   -7.0491  -13.9943 C   0  0  0  0  0  0  0  0  0  0  0  0
  -24.8537   -8.0559  -14.9110 C   0  0  0  0  0  0  0  0  0  0  0  0
  -25.8910   -8.9064  -14.1710 C   0  0  0  0  0  0  0  0  0  0  0  0
  -26.0498   -8.5470  -12.6897 C   0  0  0  0  0  0  0  0  0  0  0  0
  -27.1067   -9.3956  -12.0134 C   0  0  0  0  0  0  0  0  0  0  0  0
  -28.0327   -9.9099  -12.6231 O   0  0  0  0  0  0  0  0  0  0  0  0
  -26.9244   -9.5324  -10.6538 N   0  0  0  0  0  0  0  0  0  0  0  0
  -26.1432   -9.0519  -10.2300 H   0  0  0  0  0  0  0  0  0  0  0  0
  -27.9123  -10.1638   -9.7601 C   0  0  0  0  0  0  0  0  0  0  0  0
  -28.4293   -9.0804   -8.7453 C   0  0  0  0  0  0  0  0  0  0  0  0
  -27.8337   -8.0127   -8.5811 O   0  0  0  0  0  0  0  0  0  0  0  0
  -29.6140   -9.3095   -8.0485 N   0  0  0  0  0  0  0  0  0  0  0  0
  -30.4123  -10.5357   -7.9625 C   0  0  0  0  0  0  0  0  0  0  0  0
  -31.8440  -10.0427   -7.7415 C   0  0  0  0  0  0  0  0  0  0  0  0
  -32.4384   -9.7073   -8.9896 O   0  0  0  0  0  0  0  0  0  0  0  0
  -31.6652   -8.7873   -6.9071 C   0  0  0  0  0  0  0  0  0  0  0  0
  -30.3464   -8.1861   -7.4245 C   0  0  0  0  0  0  0  0  0  0  0  0
  -31.8014   -9.1335   -9.4505 H   0  0  0  0  0  0  0  0  0  0  0  0
  -29.6226   -7.4580   -6.2751 C   0  0  0  0  0  0  0  0  0  0  0  0
  -28.4013   -7.4110   -6.1544 O   0  0  0  0  0  0  0  0  0  0  0  0
  -30.4973   -6.8609   -5.3980 N   0  0  0  0  0  0  0  0  0  0  0  0
  -31.3703   -6.5437   -5.8244 H   0  0  0  0  0  0  0  0  0  0  0  0
  -30.0385   -6.1137   -4.2589 C   0  0  0  0  0  0  0  0  0  0  0  0
  -29.9290   -4.6570   -4.6161 C   0  0  0  0  0  0  0  0  0  0  0  0
  -30.3934   -4.2062   -5.8544 C   0  0  0  0  0  0  0  0  0  0  0  0
  -30.2883   -2.8579   -6.2040 C   0  0  0  0  0  0  0  0  0  0  0  0
  -29.6749   -1.9279   -5.3532 C   0  0  0  0  0  0  0  0  0  0  0  0
  -29.1922   -2.3953   -4.1194 C   0  0  0  0  0  0  0  0  0  0  0  0
  -29.3177   -3.7419   -3.7538 C   0  0  0  0  0  0  0  0  0  0  0  0
  -29.5259   -0.5193   -5.7670 C   0  0  0  0  0  0  0  0  0  0  0  0
  -30.6835    0.6666   -5.2745 S   0  0  0  0  0  0  0  0  0  0  0  0
  -29.8032    1.8736   -6.0985 C   0  0  0  0  0  0  0  0  0  0  0  0
  -28.7306    1.4726   -6.7366 N   0  0  0  0  0  0  0  0  0  0  0  0
  -28.5593    0.1056   -6.5558 C   0  0  0  0  0  0  0  0  0  0  0  0
  -27.3634   -0.5099   -7.1959 C   0  0  0  0  0  0  0  0  0  0  0  0
  -27.4518  -11.5819   -9.2056 C   0  0  0  0  0  0  0  0  0  0  0  0
  -28.6907  -12.4611   -8.9208 C   0  0  0  0  0  0  0  0  0  0  0  0
  -26.6229  -12.3236  -10.2882 C   0  0  0  0  0  0  0  0  0  0  0  0
  -26.6085  -11.5924   -7.9129 C   0  0  0  0  0  0  0  0  0  0  0  0
  -22.2253   -5.3801  -14.0322 C   0  0  0  0  0  0  0  0  0  0  0  0
  -21.0350   -5.2267  -14.9682 C   0  0  0  0  0  0  0  0  0  0  0  0
  -19.8681   -4.5771  -14.2518 C   0  0  0  0  0  0  0  0  0  0  0  0
  -18.6313   -5.4575  -14.2975 C   0  0  0  0  0  0  0  0  0  0  0  0
  -17.6717   -5.2929  -13.1092 C   0  0  0  0  0  0  0  0  0  0  0  0
  -12.8677   -2.0405  -14.7087 C   0  0  0  0  0  0  0  0  0  0  0  0
  -11.9289   -3.0339  -15.1221 C   0  0  0  0  0  0  0  0  0  0  0  0
  -12.2557   -4.3638  -15.3308 C   0  0  0  0  0  0  0  0  0  0  0  0
  -13.5256   -4.8049  -15.0164 C   0  0  0  0  0  0  0  0  0  0  0  0
  -14.4432   -3.8738  -14.5328 C   0  0  0  0  0  0  0  0  0  0  0  0
  -14.2037   -2.4933  -14.4772 C   0  0  0  0  0  0  0  0  0  0  0  0
  -15.5320   -1.9849  -14.3152 C   0  0  0  0  0  0  0  0  0  0  0  0
  -15.9686   -0.7745  -14.7214 N   0  0  0  0  0  0  0  0  0  0  0  0
  -16.4138   -2.9086  -13.9390 N   0  0  0  0  0  0  0  0  0  0  0  0
  -15.7262   -4.0689  -14.0295 N   0  0  0  0  0  0  0  0  0  0  0  0
  -16.2743   -5.3124  -13.6739 C   0  0  0  0  0  0  0  0  0  0  0  0
  -15.6123   -6.3284  -13.8079 O   0  0  0  0  0  0  0  0  0  0  0  0
  -16.8963   -0.8835  -15.1344 H   0  0  0  0  0  0  0  0  0  0  0  0
  -16.1374   -0.1065  -13.9756 H   0  0  0  0  0  0  0  0  0  0  0  0
  -11.1659    1.9086  -14.1235 C   0  0  0  0  0  0  0  0  0  0  0  0
  -11.4904    1.4419  -15.3931 C   0  0  0  0  0  0  0  0  0  0  0  0
  -12.0917    0.1916  -15.5521 C   0  0  0  0  0  0  0  0  0  0  0  0
  -12.3639   -0.6632  -14.4614 C   0  0  0  0  0  0  0  0  0  0  0  0
  -11.9839   -0.1894  -13.1929 C   0  0  0  0  0  0  0  0  0  0  0  0
  -11.3738    1.0746  -13.0239 C   0  0  0  0  0  0  0  0  0  0  0  0
  -10.6969    5.4770  -14.5699 N   0  0  0  0  0  0  0  0  0  0  0  0
  -11.2570    4.2285  -14.7728 C   0  0  0  0  0  0  0  0  0  0  0  0
  -12.1903    3.9924  -15.5306 O   0  0  0  0  0  0  0  0  0  0  0  0
  -10.7030    3.2416  -13.9524 N   0  0  0  0  0  0  0  0  0  0  0  0
  -10.0634    5.5748  -13.7941 H   0  0  0  0  0  0  0  0  0  0  0  0
  -10.5535    3.5378  -13.0007 H   0  0  0  0  0  0  0  0  0  0  0  0
  -12.2544    7.5866  -18.7726 C   0  0  0  0  0  0  0  0  0  0  0  0
  -11.8520    7.7059  -17.3302 C   0  0  0  0  0  0  0  0  0  0  0  0
  -11.8153    8.9662  -16.7256 C   0  0  0  0  0  0  0  0  0  0  0  0
  -11.4718    9.0800  -15.3852 C   0  0  0  0  0  0  0  0  0  0  0  0
  -11.1470    7.9452  -14.6455 C   0  0  0  0  0  0  0  0  0  0  0  0
  -10.9705    8.1348  -13.3336 F   0  0  0  0  0  0  0  0  0  0  0  0
  -11.1088    6.6693  -15.2343 C   0  0  0  0  0  0  0  0  0  0  0  0
  -11.4997    6.5640  -16.5796 C   0  0  0  0  0  0  0  0  0  0  0  0
 72 73  1  0  0  0
 73 74  1  0  0  0
 73 79  2  0  0  0
 74 75  2  0  0  0
 75 76  1  0  0  0
 76 77  1  0  0  0
 76 78  2  0  0  0
 78 66  1  0  0  0
 78 79  1  0  0  0
 66 67  1  0  0  0
 66 70  1  0  0  0
 67 68  2  0  0  0
 67 69  1  0  0  0
 69 60  1  0  0  0
 69 71  1  0  0  0
 60 61  1  0  0  0
 60 65  2  0  0  0
 61 62  2  0  0  0
 62 63  1  0  0  0
 63 46  1  0  0  0
 63 64  2  0  0  0
 46 47  1  0  0  0
 46 51  2  0  0  0
 47 48  2  0  0  0
 48 49  1  0  0  0
 49 50  2  0  0  0
 50 51  1  0  0  0
 50 55  1  0  0  0
 51 52  1  0  0  0
 52 53  1  0  0  0
 52 54  2  0  0  0
 53 58  1  0  0  0
 53 59  1  0  0  0
 54 55  1  0  0  0
 55 56  1  0  0  0
 56 57  2  0  0  0
 56 45  1  0  0  0
 45 44  1  0  0  0
 44 43  1  0  0  0
 43 42  1  0  0  0
 42 41  1  0  0  0
 41  1  1  0  0  0
  1  2  1  0  0  0
  2  3  1  0  0  0
  3  4  1  0  0  0
  4  5  1  0  0  0
  5  6  1  0  0  0
  6  7  2  0  0  0
  6  8  1  0  0  0
  8  9  1  0  0  0
 10 37  1  0  0  0
 10 11  1  0  0  0
 10  8  1  0  0  0
 11 12  2  0  0  0
 11 13  1  0  0  0
 13 14  1  0  0  0
 13 18  1  0  0  0
 14 15  1  0  0  0
 15 16  1  0  0  0
 15 17  1  0  0  0
 16 19  1  0  0  0
 17 18  1  0  0  0
 18 20  1  0  0  0
 20 21  2  0  0  0
 20 22  1  0  0  0
 22 24  1  0  0  0
 22 23  1  0  0  0
 24 25  1  0  0  0
 25 26  1  0  0  0
 25 30  2  0  0  0
 26 27  2  0  0  0
 27 28  1  0  0  0
 28 31  1  0  0  0
 28 29  2  0  0  0
 31 32  1  0  0  0
 31 35  2  0  0  0
 32 33  1  0  0  0
 33 34  2  0  0  0
 34 35  1  0  0  0
 35 36  1  0  0  0
 29 30  1  0  0  0
 37 38  1  0  0  0
 37 39  1  0  0  0
 37 40  1  0  0  0
 64 65  1  0  0  0
M  END
> <minimizedAffinity>
7.62020

$$$$
