CHEMBL1681961


 28 29  0  0  0  0  0  0  0  0999 V2000
  -15.6455   -4.8287  -12.5608 C   0  0  0  0  0  0  0  0  0  0  0  0
  -15.6979   -3.9740  -13.6663 C   0  0  0  0  0  0  0  0  0  0  0  0
  -15.7731   -2.5871  -13.4972 C   0  0  0  0  0  0  0  0  0  0  0  0
  -15.8106   -2.0331  -12.2178 C   0  0  0  0  0  0  0  0  0  0  0  0
  -15.7801   -2.8924  -11.1148 C   0  0  0  0  0  0  0  0  0  0  0  0
  -15.7301   -2.4131   -9.8626 F   0  0  0  0  0  0  0  0  0  0  0  0
  -15.7360   -4.2799  -11.2799 C   0  0  0  0  0  0  0  0  0  0  0  0
  -13.2549   -9.0906  -12.5284 C   0  0  0  0  0  0  0  0  0  0  0  0
  -14.4174   -8.2484  -12.6796 N   0  0  0  0  0  0  0  0  0  0  0  0
  -14.2649   -6.8859  -12.5177 C   0  0  0  0  0  0  0  0  0  0  0  0
  -13.1888   -6.3814  -12.2236 O   0  0  0  0  0  0  0  0  0  0  0  0
  -15.4654   -6.2247  -12.6782 N   0  0  0  0  0  0  0  0  0  0  0  0
  -15.1075   -8.5344  -13.3585 H   0  0  0  0  0  0  0  0  0  0  0  0
  -16.2854   -6.8050  -12.5718 H   0  0  0  0  0  0  0  0  0  0  0  0
  -15.7656   -0.6576  -12.1691 O   0  0  0  0  0  0  0  0  0  0  0  0
  -14.9696    0.0163  -13.0802 C   0  0  0  0  0  0  0  0  0  0  0  0
  -13.6295   -0.1212  -12.9739 N   0  0  0  0  0  0  0  0  0  0  0  0
  -12.9156    0.4780  -13.9294 C   0  0  0  0  0  0  0  0  0  0  0  0
  -13.4073    1.2156  -14.9343 N   0  0  0  0  0  0  0  0  0  0  0  0
  -14.7424    1.3797  -14.9706 C   0  0  0  0  0  0  0  0  0  0  0  0
  -15.1924    2.2639  -15.9489 N   0  0  0  0  0  0  0  0  0  0  0  0
  -15.5891    0.8070  -14.0357 C   0  0  0  0  0  0  0  0  0  0  0  0
  -14.4527    2.4417  -16.6182 H   0  0  0  0  0  0  0  0  0  0  0  0
  -16.0765    1.9616  -16.3578 H   0  0  0  0  0  0  0  0  0  0  0  0
  -17.0437    0.9973  -14.0427 C   0  0  0  0  0  0  0  0  0  0  0  0
  -17.7742    0.6459  -15.0549 N   0  0  0  0  0  0  0  0  0  0  0  0
  -19.1125    0.9682  -14.7881 O   0  0  0  0  0  0  0  0  0  0  0  0
  -19.2729    2.3751  -14.9362 C   0  0  0  0  0  0  0  0  0  0  0  0
  8  9  1  0  0  0
  9 10  1  0  0  0
  9 13  1  0  0  0
 10 11  2  0  0  0
 10 12  1  0  0  0
 12  1  1  0  0  0
 12 14  1  0  0  0
  1  2  1  0  0  0
  1  7  2  0  0  0
  2  3  2  0  0  0
  3  4  1  0  0  0
  4 15  1  0  0  0
  4  5  2  0  0  0
 15 16  1  0  0  0
 16 17  1  0  0  0
 16 22  2  0  0  0
 17 18  2  0  0  0
 18 19  1  0  0  0
 19 20  2  0  0  0
 20 21  1  0  0  0
 20 22  1  0  0  0
 21 23  1  0  0  0
 21 24  1  0  0  0
 22 25  1  0  0  0
 25 26  2  0  0  0
 26 27  1  0  0  0
 27 28  1  0  0  0
  5  6  1  0  0  0
  5  7  1  0  0  0
M  END
> <minimizedAffinity>
-6.75729

$$$$
