CHEMBL3660289


 43 47  0  0  0  0  0  0  0  0999 V2000
  -31.3049  -10.2339   -7.9154 C   0  0  0  0  0  0  0  0  0  0  0  0
  -31.6725  -11.3732   -8.6274 C   0  0  0  0  0  0  0  0  0  0  0  0
  -30.7939  -12.4389   -8.6507 C   0  0  0  0  0  0  0  0  0  0  0  0
  -29.6305  -12.4655   -7.9690 N   0  0  0  0  0  0  0  0  0  0  0  0
  -29.3291  -11.3678   -7.2306 C   0  0  0  0  0  0  0  0  0  0  0  0
  -30.1276  -10.2352   -7.1799 C   0  0  0  0  0  0  0  0  0  0  0  0
  -28.0859  -11.4761   -6.4819 C   0  0  0  0  0  0  0  0  0  0  0  0
  -27.8062  -11.3574   -5.1319 C   0  0  0  0  0  0  0  0  0  0  0  0
  -26.4167  -11.5906   -4.9270 C   0  0  0  0  0  0  0  0  0  0  0  0
  -25.8706  -11.7537   -6.1890 C   0  0  0  0  0  0  0  0  0  0  0  0
  -26.8912  -11.7605   -7.1019 N   0  0  0  0  0  0  0  0  0  0  0  0
  -26.8117  -11.9298   -8.0979 H   0  0  0  0  0  0  0  0  0  0  0  0
  -25.7419  -11.6093   -3.6265 C   0  0  0  0  0  0  0  0  0  0  0  0
  -26.3656  -11.9361   -2.6238 O   0  0  0  0  0  0  0  0  0  0  0  0
  -24.3768  -11.3023   -3.5897 N   0  0  0  0  0  0  0  0  0  0  0  0
  -23.6870  -11.3305   -2.3011 C   0  0  0  0  0  0  0  0  0  0  0  0
  -22.6403  -12.4447   -2.2598 C   0  0  0  0  0  0  0  0  0  0  0  0
  -21.7072  -12.4071   -3.4720 C   0  0  0  0  0  0  0  0  0  0  0  0
  -20.7999  -11.3096   -3.3802 O   0  0  0  0  0  0  0  0  0  0  0  0
  -22.4885  -12.3359   -4.7781 C   0  0  0  0  0  0  0  0  0  0  0  0
  -23.5011  -11.1996   -4.7572 C   0  0  0  0  0  0  0  0  0  0  0  0
  -21.3019  -10.4786   -3.3545 H   0  0  0  0  0  0  0  0  0  0  0  0
  -32.0690   -9.0888   -7.8591 O   0  0  0  0  0  0  0  0  0  0  0  0
  -30.6225   -5.7756   -5.7681 C   0  0  0  0  0  0  0  0  0  0  0  0
  -31.6830   -6.5455   -5.2710 C   0  0  0  0  0  0  0  0  0  0  0  0
  -32.1574   -7.6455   -5.9929 C   0  0  0  0  0  0  0  0  0  0  0  0
  -31.5605   -7.9868   -7.2053 C   0  0  0  0  0  0  0  0  0  0  0  0
  -30.4676   -7.2470   -7.6718 C   0  0  0  0  0  0  0  0  0  0  0  0
  -30.0377   -6.1083   -6.9880 C   0  0  0  0  0  0  0  0  0  0  0  0
  -29.3665   -2.5175   -4.8090 N   0  0  0  0  0  0  0  0  0  0  0  0
  -29.9080   -3.4812   -5.6439 C   0  0  0  0  0  0  0  0  0  0  0  0
  -30.2873   -3.2932   -6.7922 O   0  0  0  0  0  0  0  0  0  0  0  0
  -30.0706   -4.7111   -5.0078 N   0  0  0  0  0  0  0  0  0  0  0  0
  -29.2693   -2.7572   -3.8343 H   0  0  0  0  0  0  0  0  0  0  0  0
  -30.4313   -4.6232   -4.0696 H   0  0  0  0  0  0  0  0  0  0  0  0
  -31.2600    1.8611   -6.1676 C   0  0  0  0  0  0  0  0  0  0  0  0
  -30.0722    0.9914   -5.8689 C   0  0  0  0  0  0  0  0  0  0  0  0
  -28.7833    1.5138   -6.0143 C   0  0  0  0  0  0  0  0  0  0  0  0
  -27.6788    0.7282   -5.7152 C   0  0  0  0  0  0  0  0  0  0  0  0
  -27.8499   -0.5836   -5.2818 C   0  0  0  0  0  0  0  0  0  0  0  0
  -26.7389   -1.2145   -4.8846 F   0  0  0  0  0  0  0  0  0  0  0  0
  -29.1242   -1.1637   -5.1769 C   0  0  0  0  0  0  0  0  0  0  0  0
  -30.2365   -0.3461   -5.4499 C   0  0  0  0  0  0  0  0  0  0  0  0
 36 37  1  0  0  0
 37 38  1  0  0  0
 37 43  2  0  0  0
 38 39  2  0  0  0
 39 40  1  0  0  0
 40 41  1  0  0  0
 40 42  2  0  0  0
 42 30  1  0  0  0
 42 43  1  0  0  0
 30 31  1  0  0  0
 30 34  1  0  0  0
 31 32  2  0  0  0
 31 33  1  0  0  0
 33 24  1  0  0  0
 33 35  1  0  0  0
 24 25  1  0  0  0
 24 29  2  0  0  0
 25 26  2  0  0  0
 26 27  1  0  0  0
 27 23  1  0  0  0
 27 28  2  0  0  0
 23  1  1  0  0  0
  1  2  1  0  0  0
  1  6  2  0  0  0
  2  3  2  0  0  0
  3  4  1  0  0  0
  4  5  2  0  0  0
  5  7  1  0  0  0
  5  6  1  0  0  0
  7  8  2  0  0  0
  7 11  1  0  0  0
  8  9  1  0  0  0
  9 13  1  0  0  0
  9 10  2  0  0  0
 13 14  2  0  0  0
 13 15  1  0  0  0
 15 16  1  0  0  0
 15 21  1  0  0  0
 16 17  1  0  0  0
 17 18  1  0  0  0
 18 19  1  0  0  0
 18 20  1  0  0  0
 19 22  1  0  0  0
 20 21  1  0  0  0
 10 11  1  0  0  0
 11 12  1  0  0  0
 28 29  1  0  0  0
M  END
> <minimizedAffinity>
-8.71430

$$$$
