CHEMBL496575


 34 38  0  0  0  0  0  0  0  0999 V2000
  -27.7039   -1.8534   -9.1143 C   0  0  0  0  0  0  0  0  0  0  0  0
  -28.6245   -1.0660   -9.7736 C   0  0  0  0  0  0  0  0  0  0  0  0
  -28.2535   -0.6217  -11.0107 C   0  0  0  0  0  0  0  0  0  0  0  0
  -27.1062   -0.9854  -11.5847 N   0  0  0  0  0  0  0  0  0  0  0  0
  -26.3005   -1.8306  -10.9193 C   0  0  0  0  0  0  0  0  0  0  0  0
  -26.5401   -2.2499   -9.6706 N   0  0  0  0  0  0  0  0  0  0  0  0
  -27.9210   -1.5326   -6.5256 C   0  0  0  0  0  0  0  0  0  0  0  0
  -28.2002   -2.3007   -5.4666 N   0  0  0  0  0  0  0  0  0  0  0  0
  -28.3677   -3.5288   -5.9713 N   0  0  0  0  0  0  0  0  0  0  0  0
  -28.6423   -4.5558   -5.1353 N   0  0  0  0  0  0  0  0  0  0  0  0
  -28.8224   -5.6731   -5.7589 C   0  0  0  0  0  0  0  0  0  0  0  0
  -28.7666   -5.8822   -7.2245 C   0  0  0  0  0  0  0  0  0  0  0  0
  -28.4800   -4.8144   -7.9792 C   0  0  0  0  0  0  0  0  0  0  0  0
  -28.2550   -3.5681   -7.3453 C   0  0  0  0  0  0  0  0  0  0  0  0
  -27.9414   -2.2797   -7.7432 C   0  0  0  0  0  0  0  0  0  0  0  0
  -27.6769   -0.0655   -6.3391 C   0  0  0  0  0  0  0  0  0  0  0  0
  -28.3310    0.5416   -5.1020 C   0  0  0  0  0  0  0  0  0  0  0  0
  -30.0110    1.5585   -6.6608 C   0  0  0  0  0  0  0  0  0  0  0  0
  -29.8136    0.8186   -5.3494 C   0  0  0  0  0  0  0  0  0  0  0  0
  -25.1887   -2.3442  -11.5747 N   0  0  0  0  0  0  0  0  0  0  0  0
  -25.3060   -3.3116  -11.8404 H   0  0  0  0  0  0  0  0  0  0  0  0
  -24.2114   -1.6052  -12.2544 C   0  0  0  0  0  0  0  0  0  0  0  0
  -23.1241   -1.0844  -11.5625 C   0  0  0  0  0  0  0  0  0  0  0  0
  -22.2317   -0.2163  -12.2029 C   0  0  0  0  0  0  0  0  0  0  0  0
  -22.3829    0.1481  -13.5507 C   0  0  0  0  0  0  0  0  0  0  0  0
  -23.4521   -0.4157  -14.2436 C   0  0  0  0  0  0  0  0  0  0  0  0
  -24.3435   -1.2784  -13.6087 C   0  0  0  0  0  0  0  0  0  0  0  0
  -21.4592    0.9750  -14.1585 N   0  0  0  0  0  0  0  0  0  0  0  0
  -20.5696    0.4747  -15.2158 C   0  0  0  0  0  0  0  0  0  0  0  0
  -19.2515    1.2775  -15.1674 C   0  0  0  0  0  0  0  0  0  0  0  0
  -19.4690    2.7367  -15.3093 N   0  0  0  0  0  0  0  0  0  0  0  0
  -18.2001    3.4492  -15.1980 C   0  0  0  0  0  0  0  0  0  0  0  0
  -20.4166    3.1955  -14.2637 C   0  0  0  0  0  0  0  0  0  0  0  0
  -21.7506    2.4137  -14.2824 C   0  0  0  0  0  0  0  0  0  0  0  0
 18 19  1  0  0  0
 19 17  1  0  0  0
 17 16  1  0  0  0
 16  7  1  0  0  0
  7  8  2  0  0  0
  7 15  1  0  0  0
  8  9  1  0  0  0
  9 10  1  0  0  0
  9 14  1  0  0  0
 10 11  2  0  0  0
 11 12  1  0  0  0
 12 13  2  0  0  0
 13 14  1  0  0  0
 14 15  2  0  0  0
 15  1  1  0  0  0
  1  2  1  0  0  0
  1  6  2  0  0  0
  2  3  2  0  0  0
  3  4  1  0  0  0
  4  5  2  0  0  0
  5 20  1  0  0  0
  5  6  1  0  0  0
 20 22  1  0  0  0
 20 21  1  0  0  0
 22 23  1  0  0  0
 22 27  2  0  0  0
 23 24  2  0  0  0
 24 25  1  0  0  0
 25 28  1  0  0  0
 25 26  2  0  0  0
 28 29  1  0  0  0
 28 34  1  0  0  0
 29 30  1  0  0  0
 30 31  1  0  0  0
 31 32  1  0  0  0
 31 33  1  0  0  0
 33 34  1  0  0  0
 26 27  1  0  0  0
M  END
> <minimizedAffinity>
-9.82048

$$$$
