CHEMBL2071217


 35 39  0  0  0  0  0  0  0  0999 V2000
  -28.4763   -2.9892   -6.9656 C   0  0  0  0  0  0  0  0  0  0  0  0
  -28.2950   -3.0990   -8.2951 N   0  0  0  0  0  0  0  0  0  0  0  0
  -27.8645   -2.0281   -8.9826 C   0  0  0  0  0  0  0  0  0  0  0  0
  -27.4867   -0.8806   -8.4000 N   0  0  0  0  0  0  0  0  0  0  0  0
  -27.6279   -0.8016   -7.0637 C   0  0  0  0  0  0  0  0  0  0  0  0
  -28.1487   -1.8159   -6.2964 C   0  0  0  0  0  0  0  0  0  0  0  0
  -28.3239   -1.6258   -4.5968 Cl  0  0  0  0  0  0  0  0  0  0  0  0
  -29.1533   -4.0247   -6.2925 N   0  0  0  0  0  0  0  0  0  0  0  0
  -29.0300   -3.9073   -5.2852 H   0  0  0  0  0  0  0  0  0  0  0  0
  -28.4238   -6.3401   -5.5518 C   0  0  0  0  0  0  0  0  0  0  0  0
  -29.5289   -7.4292   -5.5173 C   0  0  0  0  0  0  0  0  0  0  0  0
  -29.3562   -8.2654   -6.7678 C   0  0  0  0  0  0  0  0  0  0  0  0
  -29.7141   -7.4955   -7.8061 C   0  0  0  0  0  0  0  0  0  0  0  0
  -30.1543   -6.1557   -7.2420 C   0  0  0  0  0  0  0  0  0  0  0  0
  -30.7752   -6.6467   -5.9335 C   0  0  0  0  0  0  0  0  0  0  0  0
  -28.8869   -5.4027   -6.7341 C   0  0  0  0  0  0  0  0  0  0  0  0
  -29.0351   -6.1650   -3.2064 N   0  0  0  0  0  0  0  0  0  0  0  0
  -28.2227   -5.6854   -4.2007 C   0  0  0  0  0  0  0  0  0  0  0  0
  -27.4432   -4.7688   -3.9725 O   0  0  0  0  0  0  0  0  0  0  0  0
  -28.9990   -5.6480   -2.3343 H   0  0  0  0  0  0  0  0  0  0  0  0
  -29.9101   -6.6229   -3.4259 H   0  0  0  0  0  0  0  0  0  0  0  0
  -27.9647   -2.1414  -10.3760 N   0  0  0  0  0  0  0  0  0  0  0  0
  -28.9293   -1.9248  -10.6026 H   0  0  0  0  0  0  0  0  0  0  0  0
  -26.9931   -1.8886  -11.2793 C   0  0  0  0  0  0  0  0  0  0  0  0
  -27.0557   -1.8463  -12.6856 C   0  0  0  0  0  0  0  0  0  0  0  0
  -25.8518   -1.6806  -13.2428 N   0  0  0  0  0  0  0  0  0  0  0  0
  -25.0164   -1.6041  -12.1778 N   0  0  0  0  0  0  0  0  0  0  0  0
  -25.6721   -1.6741  -10.9757 C   0  0  0  0  0  0  0  0  0  0  0  0
  -23.5753   -1.6441  -12.3889 C   0  0  0  0  0  0  0  0  0  0  0  0
  -23.0358   -0.3809  -13.0089 C   0  0  0  0  0  0  0  0  0  0  0  0
  -21.9789   -0.4369  -13.9299 C   0  0  0  0  0  0  0  0  0  0  0  0
  -21.5050    0.7283  -14.5362 C   0  0  0  0  0  0  0  0  0  0  0  0
  -22.0840    1.9594  -14.2337 C   0  0  0  0  0  0  0  0  0  0  0  0
  -23.1413    2.0272  -13.3303 C   0  0  0  0  0  0  0  0  0  0  0  0
  -23.6184    0.8639  -12.7256 C   0  0  0  0  0  0  0  0  0  0  0  0
 17 18  1  0  0  0
 17 20  1  0  0  0
 17 21  1  0  0  0
 18 19  2  0  0  0
 18 10  1  0  0  0
 10 11  1  0  0  0
 10 16  1  0  0  0
 11 12  1  0  0  0
 11 15  1  0  0  0
 12 13  2  0  0  0
 13 14  1  0  0  0
 14 15  1  0  0  0
 14 16  1  0  0  0
 16  8  1  0  0  0
  8  1  1  0  0  0
  8  9  1  0  0  0
  1  2  1  0  0  0
  1  6  2  0  0  0
  2  3  2  0  0  0
  3 22  1  0  0  0
  3  4  1  0  0  0
 22 24  1  0  0  0
 22 23  1  0  0  0
 24 25  1  0  0  0
 24 28  2  0  0  0
 25 26  2  0  0  0
 26 27  1  0  0  0
 27 29  1  0  0  0
 27 28  1  0  0  0
 29 30  1  0  0  0
 30 31  1  0  0  0
 30 35  2  0  0  0
 31 32  2  0  0  0
 32 33  1  0  0  0
 33 34  2  0  0  0
 34 35  1  0  0  0
  4  5  2  0  0  0
  5  6  1  0  0  0
  6  7  1  0  0  0
M  END
> <minimizedAffinity>
-10.11774

$$$$
