CHEMBL270978


 35 39  0  0  0  0  0  0  0  0999 V2000
  -30.0320   -5.5016   -6.2218 C   0  0  0  0  0  0  0  0  0  0  0  0
  -30.1520   -5.1427   -7.5576 C   0  0  0  0  0  0  0  0  0  0  0  0
  -29.4850   -4.0039   -8.0173 C   0  0  0  0  0  0  0  0  0  0  0  0
  -28.8372   -3.0962   -7.1366 C   0  0  0  0  0  0  0  0  0  0  0  0
  -28.0884   -1.9410   -7.5120 C   0  0  0  0  0  0  0  0  0  0  0  0
  -27.5011   -1.1251   -6.5230 C   0  0  0  0  0  0  0  0  0  0  0  0
  -27.6364   -1.4190   -5.1728 C   0  0  0  0  0  0  0  0  0  0  0  0
  -28.3322   -2.5564   -4.7906 C   0  0  0  0  0  0  0  0  0  0  0  0
  -28.9093   -3.4042   -5.7452 C   0  0  0  0  0  0  0  0  0  0  0  0
  -29.4939   -4.6011   -5.3078 C   0  0  0  0  0  0  0  0  0  0  0  0
  -27.7297   -1.5494   -8.9106 C   0  0  0  0  0  0  0  0  0  0  0  0
  -28.3334   -0.5919   -9.3877 O   0  0  0  0  0  0  0  0  0  0  0  0
  -26.7740   -2.2970   -9.5697 N   0  0  0  0  0  0  0  0  0  0  0  0
  -26.3543   -3.1021   -9.1313 H   0  0  0  0  0  0  0  0  0  0  0  0
  -26.3439   -1.9557  -10.8339 C   0  0  0  0  0  0  0  0  0  0  0  0
  -25.1251   -1.5045  -11.2804 C   0  0  0  0  0  0  0  0  0  0  0  0
  -25.3051   -1.3242  -12.6737 C   0  0  0  0  0  0  0  0  0  0  0  0
  -24.3492   -0.8200  -13.6830 C   0  0  0  0  0  0  0  0  0  0  0  0
  -26.5408   -1.6636  -13.0522 N   0  0  0  0  0  0  0  0  0  0  0  0
  -27.1924   -2.0449  -11.8947 O   0  0  0  0  0  0  0  0  0  0  0  0
  -30.3293   -6.7436   -5.7294 O   0  0  0  0  0  0  0  0  0  0  0  0
  -29.1865  -10.3342   -9.4167 C   0  0  0  0  0  0  0  0  0  0  0  0
  -30.5661  -10.2350   -9.1985 C   0  0  0  0  0  0  0  0  0  0  0  0
  -31.1138   -9.3972   -8.2392 C   0  0  0  0  0  0  0  0  0  0  0  0
  -32.4502   -9.4022   -8.1224 N   0  0  0  0  0  0  0  0  0  0  0  0
  -33.0177   -8.6033   -7.2001 C   0  0  0  0  0  0  0  0  0  0  0  0
  -32.3022   -7.7411   -6.4001 C   0  0  0  0  0  0  0  0  0  0  0  0
  -30.9160   -7.7052   -6.5427 C   0  0  0  0  0  0  0  0  0  0  0  0
  -30.2677   -8.6013   -7.4424 C   0  0  0  0  0  0  0  0  0  0  0  0
  -28.8651   -8.7606   -7.6419 C   0  0  0  0  0  0  0  0  0  0  0  0
  -28.3285   -9.5284   -8.6797 C   0  0  0  0  0  0  0  0  0  0  0  0
  -28.7390  -10.7686  -11.6728 C   0  0  0  0  0  0  0  0  0  0  0  0
  -28.6603  -11.2200  -10.3199 O   0  0  0  0  0  0  0  0  0  0  0  0
  -26.9710   -9.4265   -8.8181 O   0  0  0  0  0  0  0  0  0  0  0  0
  -26.1904  -10.2762   -7.9773 C   0  0  0  0  0  0  0  0  0  0  0  0
 32 33  1  0  0  0
 33 22  1  0  0  0
 22 23  1  0  0  0
 22 31  2  0  0  0
 23 24  2  0  0  0
 24 25  1  0  0  0
 24 29  1  0  0  0
 25 26  2  0  0  0
 26 27  1  0  0  0
 27 28  2  0  0  0
 28 21  1  0  0  0
 28 29  1  0  0  0
 21  1  1  0  0  0
  1  2  1  0  0  0
  1 10  2  0  0  0
  2  3  2  0  0  0
  3  4  1  0  0  0
  4  5  1  0  0  0
  4  9  2  0  0  0
  5 11  1  0  0  0
  5  6  2  0  0  0
 11 12  2  0  0  0
 11 13  1  0  0  0
 13 15  1  0  0  0
 13 14  1  0  0  0
 15 16  2  0  0  0
 15 20  1  0  0  0
 16 17  1  0  0  0
 17 18  1  0  0  0
 17 19  2  0  0  0
 19 20  1  0  0  0
  6  7  1  0  0  0
  7  8  2  0  0  0
  8  9  1  0  0  0
  9 10  1  0  0  0
 29 30  2  0  0  0
 30 31  1  0  0  0
 31 34  1  0  0  0
 34 35  1  0  0  0
M  END
> <minimizedAffinity>
-9.73869

$$$$
