CHEMBL255974


 38 42  0  0  0  0  0  0  0  0999 V2000
  -13.5767   -4.0486  -14.6103 C   0  0  0  0  0  0  0  0  0  0  0  0
  -12.6491   -3.7046  -15.5603 C   0  0  0  0  0  0  0  0  0  0  0  0
  -12.7390   -2.3637  -15.7679 N   0  0  0  0  0  0  0  0  0  0  0  0
  -11.9967   -1.7126  -16.6750 N   0  0  0  0  0  0  0  0  0  0  0  0
  -12.1838   -0.4354  -16.6830 C   0  0  0  0  0  0  0  0  0  0  0  0
  -13.0173    0.2629  -15.8627 N   0  0  0  0  0  0  0  0  0  0  0  0
  -13.7550   -0.3545  -14.9816 C   0  0  0  0  0  0  0  0  0  0  0  0
  -13.6653   -1.8006  -14.9219 C   0  0  0  0  0  0  0  0  0  0  0  0
  -14.2536   -2.8398  -14.1792 C   0  0  0  0  0  0  0  0  0  0  0  0
  -13.7685   -7.2249  -12.9353 C   0  0  0  0  0  0  0  0  0  0  0  0
  -14.3127   -7.5608  -14.0842 N   0  0  0  0  0  0  0  0  0  0  0  0
  -14.3111   -6.4211  -14.8521 N   0  0  0  0  0  0  0  0  0  0  0  0
  -13.7528   -5.4604  -14.1408 C   0  0  0  0  0  0  0  0  0  0  0  0
  -13.3547   -5.9189  -12.9007 O   0  0  0  0  0  0  0  0  0  0  0  0
  -13.5650   -8.0541  -11.7151 C   0  0  0  0  0  0  0  0  0  0  0  0
  -12.2722  -10.0009  -12.3128 C   0  0  0  0  0  0  0  0  0  0  0  0
  -13.6016   -9.4926  -12.0168 N   0  0  0  0  0  0  0  0  0  0  0  0
  -13.9914   -9.9871  -11.2131 H   0  0  0  0  0  0  0  0  0  0  0  0
  -15.2934   -2.8589  -13.0665 C   0  0  0  0  0  0  0  0  0  0  0  0
  -16.4341   -3.8279  -13.3885 C   0  0  0  0  0  0  0  0  0  0  0  0
  -14.8089   -3.0545  -11.6385 C   0  0  0  0  0  0  0  0  0  0  0  0
  -14.5840    0.4051  -14.1815 N   0  0  0  0  0  0  0  0  0  0  0  0
  -14.8049   -0.0650  -13.3083 H   0  0  0  0  0  0  0  0  0  0  0  0
  -15.7198    1.1057  -14.6688 C   0  0  0  0  0  0  0  0  0  0  0  0
  -17.0027    0.5312  -14.6969 C   0  0  0  0  0  0  0  0  0  0  0  0
  -18.1086    1.2330  -15.2105 C   0  0  0  0  0  0  0  0  0  0  0  0
  -17.9053    2.5230  -15.7167 C   0  0  0  0  0  0  0  0  0  0  0  0
  -18.9242    3.2351  -16.2206 F   0  0  0  0  0  0  0  0  0  0  0  0
  -16.6431    3.1035  -15.7200 C   0  0  0  0  0  0  0  0  0  0  0  0
  -15.5657    2.3917  -15.2051 C   0  0  0  0  0  0  0  0  0  0  0  0
  -14.3515    2.9613  -15.2039 F   0  0  0  0  0  0  0  0  0  0  0  0
  -19.4485    0.5762  -15.1816 C   0  0  0  0  0  0  0  0  0  0  0  0
  -19.5712   -0.5698  -15.6048 O   0  0  0  0  0  0  0  0  0  0  0  0
  -20.5034    1.3057  -14.6601 N   0  0  0  0  0  0  0  0  0  0  0  0
  -20.3395    2.2520  -14.3323 H   0  0  0  0  0  0  0  0  0  0  0  0
  -21.8239    0.7734  -14.5303 C   0  0  0  0  0  0  0  0  0  0  0  0
  -22.8428    1.4498  -13.6514 C   0  0  0  0  0  0  0  0  0  0  0  0
  -22.2624    0.1283  -13.2425 C   0  0  0  0  0  0  0  0  0  0  0  0
 16 17  1  0  0  0
 17 15  1  0  0  0
 17 18  1  0  0  0
 15 10  1  0  0  0
 10 11  2  0  0  0
 10 14  1  0  0  0
 11 12  1  0  0  0
 12 13  2  0  0  0
 13  1  1  0  0  0
 13 14  1  0  0  0
  1  2  2  0  0  0
  1  9  1  0  0  0
  2  3  1  0  0  0
  3  4  1  0  0  0
  3  8  1  0  0  0
  4  5  2  0  0  0
  5  6  1  0  0  0
  6  7  2  0  0  0
  7 22  1  0  0  0
  7  8  1  0  0  0
 22 24  1  0  0  0
 22 23  1  0  0  0
 24 25  1  0  0  0
 24 30  2  0  0  0
 25 26  2  0  0  0
 26 32  1  0  0  0
 26 27  1  0  0  0
 32 33  2  0  0  0
 32 34  1  0  0  0
 34 36  1  0  0  0
 34 35  1  0  0  0
 36 37  1  0  0  0
 36 38  1  0  0  0
 37 38  1  0  0  0
 27 28  1  0  0  0
 27 29  2  0  0  0
 29 30  1  0  0  0
 30 31  1  0  0  0
  8  9  2  0  0  0
  9 19  1  0  0  0
 19 20  1  0  0  0
 19 21  1  0  0  0
M  END
> <minimizedAffinity>
-7.97965

$$$$
