CHEMBL403439


 36 39  0  0  0  0  0  0  0  0999 V2000
  -28.8458   -4.5899   -6.0056 C   0  0  0  0  0  0  0  0  0  0  0  0
  -28.1786   -3.4111   -5.6467 C   0  0  0  0  0  0  0  0  0  0  0  0
  -27.9118   -2.4035   -6.5749 C   0  0  0  0  0  0  0  0  0  0  0  0
  -28.2475   -2.5606   -7.9171 C   0  0  0  0  0  0  0  0  0  0  0  0
  -28.9602   -3.6993   -8.2921 C   0  0  0  0  0  0  0  0  0  0  0  0
  -29.2814   -4.6837   -7.3415 C   0  0  0  0  0  0  0  0  0  0  0  0
  -31.6352   -3.6607   -4.2427 N   0  0  0  0  0  0  0  0  0  0  0  0
  -31.2495   -4.8127   -3.6705 C   0  0  0  0  0  0  0  0  0  0  0  0
  -31.9392   -5.3194   -2.6494 N   0  0  0  0  0  0  0  0  0  0  0  0
  -31.3075   -6.4728   -2.3872 N   0  0  0  0  0  0  0  0  0  0  0  0
  -30.2416   -6.7172   -3.1968 C   0  0  0  0  0  0  0  0  0  0  0  0
  -29.4772   -7.8231   -3.1419 N   0  0  0  0  0  0  0  0  0  0  0  0
  -28.4879   -7.8162   -4.0517 C   0  0  0  0  0  0  0  0  0  0  0  0
  -28.2419   -6.7917   -4.9541 C   0  0  0  0  0  0  0  0  0  0  0  0
  -29.0697   -5.6434   -4.9958 C   0  0  0  0  0  0  0  0  0  0  0  0
  -30.1353   -5.6254   -4.0559 C   0  0  0  0  0  0  0  0  0  0  0  0
  -32.5470   -3.3246   -3.9503 H   0  0  0  0  0  0  0  0  0  0  0  0
  -31.4734   -3.5284   -5.2348 H   0  0  0  0  0  0  0  0  0  0  0  0
  -31.6514   -7.0703   -1.6472 H   0  0  0  0  0  0  0  0  0  0  0  0
  -27.9064   -1.5985   -8.8957 N   0  0  0  0  0  0  0  0  0  0  0  0
  -27.1751   -1.8818  -10.0352 C   0  0  0  0  0  0  0  0  0  0  0  0
  -26.8725   -3.0117  -10.4111 O   0  0  0  0  0  0  0  0  0  0  0  0
  -26.7877   -0.7335  -10.7064 N   0  0  0  0  0  0  0  0  0  0  0  0
  -28.4549   -0.7508   -8.9246 H   0  0  0  0  0  0  0  0  0  0  0  0
  -26.5757    0.0475  -10.1010 H   0  0  0  0  0  0  0  0  0  0  0  0
  -26.0928   -0.8101  -11.9345 C   0  0  0  0  0  0  0  0  0  0  0  0
  -26.6682   -1.4132  -13.0592 C   0  0  0  0  0  0  0  0  0  0  0  0
  -25.9670   -1.4762  -14.2619 C   0  0  0  0  0  0  0  0  0  0  0  0
  -24.6791   -0.9584  -14.3352 C   0  0  0  0  0  0  0  0  0  0  0  0
  -24.0303   -1.0363  -15.5034 F   0  0  0  0  0  0  0  0  0  0  0  0
  -24.0739   -0.3741  -13.2252 C   0  0  0  0  0  0  0  0  0  0  0  0
  -24.8044   -0.2779  -12.0236 C   0  0  0  0  0  0  0  0  0  0  0  0
  -22.6564    0.1092  -13.2845 C   0  0  0  0  0  0  0  0  0  0  0  0
  -21.8415   -0.5736  -14.1310 F   0  0  0  0  0  0  0  0  0  0  0  0
  -22.5801    1.4149  -13.6703 F   0  0  0  0  0  0  0  0  0  0  0  0
  -22.0499    0.0568  -12.0637 F   0  0  0  0  0  0  0  0  0  0  0  0
  7  8  1  0  0  0
  7 17  1  0  0  0
  7 18  1  0  0  0
  8  9  2  0  0  0
  8 16  1  0  0  0
  9 10  1  0  0  0
 10 11  1  0  0  0
 10 19  1  0  0  0
 11 12  1  0  0  0
 11 16  2  0  0  0
 12 13  2  0  0  0
 13 14  1  0  0  0
 14 15  2  0  0  0
 15  1  1  0  0  0
 15 16  1  0  0  0
  1  2  1  0  0  0
  1  6  2  0  0  0
  2  3  2  0  0  0
  3  4  1  0  0  0
  4 20  1  0  0  0
  4  5  2  0  0  0
 20 21  1  0  0  0
 20 24  1  0  0  0
 21 22  2  0  0  0
 21 23  1  0  0  0
 23 26  1  0  0  0
 23 25  1  0  0  0
 26 27  1  0  0  0
 26 32  2  0  0  0
 27 28  2  0  0  0
 28 29  1  0  0  0
 29 30  1  0  0  0
 29 31  2  0  0  0
 31 33  1  0  0  0
 31 32  1  0  0  0
 33 34  1  0  0  0
 33 35  1  0  0  0
 33 36  1  0  0  0
  5  6  1  0  0  0
M  END
> <minimizedAffinity>
-9.85175

$$$$
