CHEMBL2113199


 39 43  0  0  0  0  0  0  0  0999 V2000
  -28.7409   -5.3610   -7.4538 C   0  0  0  0  0  0  0  0  0  0  0  0
  -28.3601   -4.3700   -8.3483 C   0  0  0  0  0  0  0  0  0  0  0  0
  -28.1976   -3.0362   -7.9597 C   0  0  0  0  0  0  0  0  0  0  0  0
  -27.9144   -2.0065   -8.8614 C   0  0  0  0  0  0  0  0  0  0  0  0
  -27.6531   -0.7614   -8.4256 N   0  0  0  0  0  0  0  0  0  0  0  0
  -27.6855   -0.5586   -7.1090 C   0  0  0  0  0  0  0  0  0  0  0  0
  -28.0122   -1.4581   -6.1776 N   0  0  0  0  0  0  0  0  0  0  0  0
  -28.2754   -2.6943   -6.6055 C   0  0  0  0  0  0  0  0  0  0  0  0
  -28.5943   -3.6908   -5.6936 C   0  0  0  0  0  0  0  0  0  0  0  0
  -28.8395   -5.0209   -6.0873 C   0  0  0  0  0  0  0  0  0  0  0  0
  -30.2269   -7.2605   -7.7033 C   0  0  0  0  0  0  0  0  0  0  0  0
  -28.9518   -6.6424   -7.8789 O   0  0  0  0  0  0  0  0  0  0  0  0
  -27.8717   -2.2808  -10.2546 N   0  0  0  0  0  0  0  0  0  0  0  0
  -28.7930   -2.2148  -10.6919 H   0  0  0  0  0  0  0  0  0  0  0  0
  -26.8512   -1.8840  -11.1158 C   0  0  0  0  0  0  0  0  0  0  0  0
  -25.6165   -1.5335  -10.7677 C   0  0  0  0  0  0  0  0  0  0  0  0
  -24.6039   -1.0095  -11.6976 C   0  0  0  0  0  0  0  0  0  0  0  0
  -23.5611   -0.5499  -11.2565 O   0  0  0  0  0  0  0  0  0  0  0  0
  -24.9387   -1.0341  -13.1517 C   0  0  0  0  0  0  0  0  0  0  0  0
  -26.1481   -1.4593  -13.5314 C   0  0  0  0  0  0  0  0  0  0  0  0
  -27.1896   -1.8970  -12.5805 C   0  0  0  0  0  0  0  0  0  0  0  0
  -28.2915   -2.2611  -12.9781 O   0  0  0  0  0  0  0  0  0  0  0  0
  -24.0649   -0.5867  -14.1242 O   0  0  0  0  0  0  0  0  0  0  0  0
  -22.6621   -0.7071  -13.8523 C   0  0  0  0  0  0  0  0  0  0  0  0
  -22.0118    0.6100  -14.2122 C   0  0  0  0  0  0  0  0  0  0  0  0
  -20.7600    0.6330  -14.8272 C   0  0  0  0  0  0  0  0  0  0  0  0
  -20.1610    1.8616  -15.0888 C   0  0  0  0  0  0  0  0  0  0  0  0
  -20.8263    3.0306  -14.7413 C   0  0  0  0  0  0  0  0  0  0  0  0
  -22.0721    2.9227  -14.1482 C   0  0  0  0  0  0  0  0  0  0  0  0
  -22.6755    1.7459  -13.8750 N   0  0  0  0  0  0  0  0  0  0  0  0
  -29.1301   -5.8414   -5.0177 O   0  0  0  0  0  0  0  0  0  0  0  0
  -28.0593   -6.6697   -4.5906 C   0  0  0  0  0  0  0  0  0  0  0  0
  -28.4597   -8.1316   -4.4617 C   0  0  0  0  0  0  0  0  0  0  0  0
  -27.6467   -8.9287   -5.4976 C   0  0  0  0  0  0  0  0  0  0  0  0
  -26.9189  -10.0813   -4.9492 N   0  0  0  0  0  0  0  0  0  0  0  0
  -26.3548   -9.8335   -3.6148 C   0  0  0  0  0  0  0  0  0  0  0  0
  -25.0325   -9.1431   -3.8778 C   0  0  0  0  0  0  0  0  0  0  0  0
  -24.5004   -9.9196   -5.0649 C   0  0  0  0  0  0  0  0  0  0  0  0
  -25.7495  -10.4169   -5.7939 C   0  0  0  0  0  0  0  0  0  0  0  0
 11 12  1  0  0  0
 12  1  1  0  0  0
  1  2  1  0  0  0
  1 10  2  0  0  0
  2  3  2  0  0  0
  3  4  1  0  0  0
  3  8  1  0  0  0
  4 13  1  0  0  0
  4  5  2  0  0  0
 13 15  1  0  0  0
 13 14  1  0  0  0
 15 16  2  0  0  0
 15 21  1  0  0  0
 16 17  1  0  0  0
 17 18  2  0  0  0
 17 19  1  0  0  0
 19 23  1  0  0  0
 19 20  2  0  0  0
 23 24  1  0  0  0
 24 25  1  0  0  0
 25 26  1  0  0  0
 25 30  2  0  0  0
 26 27  2  0  0  0
 27 28  1  0  0  0
 28 29  2  0  0  0
 29 30  1  0  0  0
 20 21  1  0  0  0
 21 22  2  0  0  0
  5  6  1  0  0  0
  6  7  2  0  0  0
  7  8  1  0  0  0
  8  9  2  0  0  0
  9 10  1  0  0  0
 10 31  1  0  0  0
 31 32  1  0  0  0
 32 33  1  0  0  0
 33 34  1  0  0  0
 34 35  1  0  0  0
 35 36  1  0  0  0
 35 39  1  0  0  0
 36 37  1  0  0  0
 37 38  1  0  0  0
 38 39  1  0  0  0
M  END
> <minimizedAffinity>
-9.41197

$$$$
