CHEMBL3648077


 41 43  0  0  0  0  0  0  0  0999 V2000
  -29.7277   -4.6031   -4.9696 C   0  0  0  0  0  0  0  0  0  0  0  0
  -30.4320   -3.8986   -5.9572 C   0  0  0  0  0  0  0  0  0  0  0  0
  -29.9192   -2.7312   -6.5264 C   0  0  0  0  0  0  0  0  0  0  0  0
  -28.6751   -2.2656   -6.1131 C   0  0  0  0  0  0  0  0  0  0  0  0
  -27.9955   -2.8968   -5.0725 C   0  0  0  0  0  0  0  0  0  0  0  0
  -28.5263   -4.0567   -4.4960 C   0  0  0  0  0  0  0  0  0  0  0  0
  -27.9688   -0.8793   -6.9132 S   0  0  0  0  0  0  0  0  0  0  0  0
  -26.5523   -0.8028   -6.6792 O   0  0  0  0  0  0  0  0  0  0  0  0
  -28.3822   -1.0257   -8.5190 N   0  0  0  0  0  0  0  0  0  0  0  0
  -28.7765    0.6125   -6.3781 C   0  0  0  0  0  0  0  0  0  0  0  0
  -29.5080    0.4132   -5.0464 C   0  0  0  0  0  0  0  0  0  0  0  0
  -30.6763    1.3892   -5.0458 C   0  0  0  0  0  0  0  0  0  0  0  0
  -30.8095    1.9172   -6.4690 C   0  0  0  0  0  0  0  0  0  0  0  0
  -29.8706    1.0859   -7.3289 C   0  0  0  0  0  0  0  0  0  0  0  0
  -27.6779   -2.1301   -9.5776 S   0  0  0  0  0  0  0  0  0  0  0  0
  -27.1446   -3.2198   -8.7778 O   0  0  0  0  0  0  0  0  0  0  0  0
  -28.5396   -2.3936  -10.7130 O   0  0  0  0  0  0  0  0  0  0  0  0
  -26.2659   -1.1954  -10.1852 C   0  0  0  0  0  0  0  0  0  0  0  0
  -26.3462   -1.0475  -11.7063 C   0  0  0  0  0  0  0  0  0  0  0  0
  -24.6994   -1.0024  -12.6389 Si  0  0  0  0  0  0  0  0  0  0  0  0
  -23.9126    0.6854  -12.4456 C   0  0  0  0  0  0  0  0  0  0  0  0
  -23.5752   -2.3371  -11.9620 C   0  0  0  0  0  0  0  0  0  0  0  0
  -25.0308   -1.3260  -14.4604 C   0  0  0  0  0  0  0  0  0  0  0  0
  -30.1424   -5.8622   -4.5082 N   0  0  0  0  0  0  0  0  0  0  0  0
  -31.1405   -6.0200   -4.4391 H   0  0  0  0  0  0  0  0  0  0  0  0
  -28.1643   -8.4896   -5.9042 C   0  0  0  0  0  0  0  0  0  0  0  0
  -28.9599   -7.4016   -5.8202 N   0  0  0  0  0  0  0  0  0  0  0  0
  -29.4441   -7.0631   -4.6162 C   0  0  0  0  0  0  0  0  0  0  0  0
  -29.2704   -7.8078   -3.5105 N   0  0  0  0  0  0  0  0  0  0  0  0
  -28.4675   -8.8761   -3.6121 C   0  0  0  0  0  0  0  0  0  0  0  0
  -27.8264   -9.2261   -4.7730 C   0  0  0  0  0  0  0  0  0  0  0  0
  -26.5764  -10.6374   -4.7535 Br  0  0  0  0  0  0  0  0  0  0  0  0
  -27.6015   -8.8276   -7.1594 N   0  0  0  0  0  0  0  0  0  0  0  0
  -27.0195   -8.0275   -7.4084 H   0  0  0  0  0  0  0  0  0  0  0  0
  -29.5185  -10.2501   -7.8373 C   0  0  0  0  0  0  0  0  0  0  0  0
  -28.5577   -9.1305   -8.2575 C   0  0  0  0  0  0  0  0  0  0  0  0
  -27.7627   -9.5076   -9.5647 C   0  0  0  0  0  0  0  0  0  0  0  0
  -26.6079  -10.4927   -9.3292 C   0  0  0  0  0  0  0  0  0  0  0  0
  -28.6930  -10.0897  -10.6409 C   0  0  0  0  0  0  0  0  0  0  0  0
  -27.2123   -8.3008  -10.1272 O   0  0  0  0  0  0  0  0  0  0  0  0
  -26.4144   -8.0835   -9.6163 H   0  0  0  0  0  0  0  0  0  0  0  0
 35 36  1  0  0  0
 36 33  1  0  0  0
 36 37  1  0  0  0
 33 26  1  0  0  0
 33 34  1  0  0  0
 26 27  1  0  0  0
 26 31  2  0  0  0
 27 28  2  0  0  0
 28 24  1  0  0  0
 28 29  1  0  0  0
 24  1  1  0  0  0
 24 25  1  0  0  0
  1  2  1  0  0  0
  1  6  2  0  0  0
  2  3  2  0  0  0
  3  4  1  0  0  0
  4  7  1  0  0  0
  4  5  2  0  0  0
  7  8  2  0  0  0
  7  9  2  0  0  0
  7 10  1  0  0  0
  9 15  1  0  0  0
 15 16  2  0  0  0
 15 17  2  0  0  0
 15 18  1  0  0  0
 18 19  1  0  0  0
 19 20  1  0  0  0
 20 21  1  0  0  0
 20 22  1  0  0  0
 20 23  1  0  0  0
 10 11  1  0  0  0
 10 14  1  0  0  0
 11 12  1  0  0  0
 12 13  1  0  0  0
 13 14  1  0  0  0
  5  6  1  0  0  0
 29 30  2  0  0  0
 30 31  1  0  0  0
 31 32  1  0  0  0
 37 38  1  0  0  0
 37 39  1  0  0  0
 37 40  1  0  0  0
 40 41  1  0  0  0
M  END
> <minimizedAffinity>
-7.48279

$$$$
