CHEMBL502621


 43 48  0  0  0  0  0  0  0  0999 V2000
  -29.0822   -8.3349   -3.9281 C   0  0  0  0  0  0  0  0  0  0  0  0
  -30.2329   -7.6094   -4.2261 C   0  0  0  0  0  0  0  0  0  0  0  0
  -30.1395   -6.2928   -4.6040 C   0  0  0  0  0  0  0  0  0  0  0  0
  -28.9048   -5.6835   -4.7983 C   0  0  0  0  0  0  0  0  0  0  0  0
  -27.7324   -6.4437   -4.6135 C   0  0  0  0  0  0  0  0  0  0  0  0
  -27.8343   -7.7690   -4.1806 C   0  0  0  0  0  0  0  0  0  0  0  0
  -26.7074   -8.4691   -3.9699 F   0  0  0  0  0  0  0  0  0  0  0  0
  -28.8394   -4.3363   -5.1891 N   0  0  0  0  0  0  0  0  0  0  0  0
  -27.9240   -3.4088   -4.7105 C   0  0  0  0  0  0  0  0  0  0  0  0
  -27.0541   -3.6035   -3.8691 O   0  0  0  0  0  0  0  0  0  0  0  0
  -28.0102   -2.1795   -5.3191 N   0  0  0  0  0  0  0  0  0  0  0  0
  -27.0233   -1.1620   -5.0527 C   0  0  0  0  0  0  0  0  0  0  0  0
  -27.4574   -0.0368   -5.9614 C   0  0  0  0  0  0  0  0  0  0  0  0
  -28.8917   -0.1845   -5.9192 N   0  0  0  0  0  0  0  0  0  0  0  0
  -29.2027   -1.5362   -5.6640 C   0  0  0  0  0  0  0  0  0  0  0  0
  -30.2819   -2.1170   -5.8075 O   0  0  0  0  0  0  0  0  0  0  0  0
  -29.4547   -4.0078   -5.9230 H   0  0  0  0  0  0  0  0  0  0  0  0
  -29.8064    0.7494   -6.4136 C   0  0  0  0  0  0  0  0  0  0  0  0
  -30.7525    1.2897   -5.5369 C   0  0  0  0  0  0  0  0  0  0  0  0
  -31.7395    2.1467   -5.9959 C   0  0  0  0  0  0  0  0  0  0  0  0
  -31.7943    2.4487   -7.3603 C   0  0  0  0  0  0  0  0  0  0  0  0
  -30.8506    1.9388   -8.2311 C   0  0  0  0  0  0  0  0  0  0  0  0
  -29.8309    1.1124   -7.7613 C   0  0  0  0  0  0  0  0  0  0  0  0
  -29.1850   -9.5834   -3.3693 O   0  0  0  0  0  0  0  0  0  0  0  0
  -28.0945  -11.6274   -7.3230 C   0  0  0  0  0  0  0  0  0  0  0  0
  -27.0901  -12.2766   -6.6327 C   0  0  0  0  0  0  0  0  0  0  0  0
  -27.0465  -11.9052   -5.2577 C   0  0  0  0  0  0  0  0  0  0  0  0
  -26.1333  -12.3347   -4.3571 N   0  0  0  0  0  0  0  0  0  0  0  0
  -26.2596  -11.8408   -3.1168 C   0  0  0  0  0  0  0  0  0  0  0  0
  -27.2172  -10.9265   -2.7227 C   0  0  0  0  0  0  0  0  0  0  0  0
  -28.1713  -10.4887   -3.6407 C   0  0  0  0  0  0  0  0  0  0  0  0
  -28.0641  -11.0229   -4.9227 C   0  0  0  0  0  0  0  0  0  0  0  0
  -29.1134  -10.8121   -6.2251 S   0  0  0  0  0  0  0  0  0  0  0  0
  -27.1296   -9.9912  -11.7547 C   0  0  0  0  0  0  0  0  0  0  0  0
  -26.6919   -9.1150  -10.5725 C   0  0  0  0  0  0  0  0  0  0  0  0
  -26.5408  -10.1271   -9.4589 C   0  0  0  0  0  0  0  0  0  0  0  0
  -27.6746  -11.0160   -9.6516 N   0  0  0  0  0  0  0  0  0  0  0  0
  -28.4175  -11.7257   -8.7290 C   0  0  0  0  0  0  0  0  0  0  0  0
  -29.3527  -12.4658   -9.1169 O   0  0  0  0  0  0  0  0  0  0  0  0
  -28.0112  -11.0632  -11.0608 C   0  0  0  0  0  0  0  0  0  0  0  0
  -29.0455   -9.9234  -13.2447 C   0  0  0  0  0  0  0  0  0  0  0  0
  -27.8137   -9.2463  -12.8254 N   0  0  0  0  0  0  0  0  0  0  0  0
  -26.9587   -9.0281  -13.9928 C   0  0  0  0  0  0  0  0  0  0  0  0
 41 42  1  0  0  0
 42 43  1  0  0  0
 34 35  1  0  0  0
 34 40  1  0  0  0
 34 42  1  0  0  0
 35 36  1  0  0  0
 36 37  1  0  0  0
 37 38  1  0  0  0
 37 40  1  0  0  0
 38 39  2  0  0  0
 38 25  1  0  0  0
 25 26  2  0  0  0
 25 33  1  0  0  0
 26 27  1  0  0  0
 27 28  1  0  0  0
 27 32  2  0  0  0
 28 29  2  0  0  0
 29 30  1  0  0  0
 30 31  2  0  0  0
 31 24  1  0  0  0
 31 32  1  0  0  0
 24  1  1  0  0  0
  1  2  1  0  0  0
  1  6  2  0  0  0
  2  3  2  0  0  0
  3  4  1  0  0  0
  4  8  1  0  0  0
  4  5  2  0  0  0
  8  9  1  0  0  0
  8 17  1  0  0  0
  9 10  2  0  0  0
  9 11  1  0  0  0
 11 12  1  0  0  0
 11 15  1  0  0  0
 12 13  1  0  0  0
 13 14  1  0  0  0
 14 18  1  0  0  0
 14 15  1  0  0  0
 18 19  1  0  0  0
 18 23  2  0  0  0
 19 20  2  0  0  0
 20 21  1  0  0  0
 21 22  2  0  0  0
 22 23  1  0  0  0
 15 16  2  0  0  0
  5  6  1  0  0  0
  6  7  1  0  0  0
 32 33  1  0  0  0
M  END
> <minimizedAffinity>
-3.94437

$$$$
