CHEMBL461391


 30 33  0  0  0  0  0  0  0  0999 V2000
  -27.5332   -2.1296   -9.6034 N   0  0  0  0  0  0  0  0  0  0  0  0
  -28.3092   -3.1711   -9.1682 C   0  0  0  0  0  0  0  0  0  0  0  0
  -28.2705   -3.0991   -7.7982 C   0  0  0  0  0  0  0  0  0  0  0  0
  -27.5070   -2.0227   -7.4322 N   0  0  0  0  0  0  0  0  0  0  0  0
  -27.0741   -1.4295   -8.5347 N   0  0  0  0  0  0  0  0  0  0  0  0
  -25.3723   -1.0771  -12.4420 C   0  0  0  0  0  0  0  0  0  0  0  0
  -26.2138   -1.4141  -13.5177 C   0  0  0  0  0  0  0  0  0  0  0  0
  -27.4883   -1.9482  -13.3074 C   0  0  0  0  0  0  0  0  0  0  0  0
  -27.9512   -2.1703  -12.0141 C   0  0  0  0  0  0  0  0  0  0  0  0
  -27.1465   -1.8182  -10.9275 C   0  0  0  0  0  0  0  0  0  0  0  0
  -25.8938   -1.2248  -11.1466 C   0  0  0  0  0  0  0  0  0  0  0  0
  -23.7681    0.8352  -12.1757 C   0  0  0  0  0  0  0  0  0  0  0  0
  -23.9228   -0.6133  -12.6676 C   0  0  0  0  0  0  0  0  0  0  0  0
  -23.5475   -0.6896  -14.1654 C   0  0  0  0  0  0  0  0  0  0  0  0
  -22.8921   -1.4955  -11.9199 C   0  0  0  0  0  0  0  0  0  0  0  0
  -28.8748   -4.0118   -6.8434 C   0  0  0  0  0  0  0  0  0  0  0  0
  -29.7581   -4.9779   -7.3688 C   0  0  0  0  0  0  0  0  0  0  0  0
  -30.3482   -5.9386   -6.5531 C   0  0  0  0  0  0  0  0  0  0  0  0
  -30.0397   -5.9636   -5.2023 C   0  0  0  0  0  0  0  0  0  0  0  0
  -29.1902   -4.9947   -4.6614 C   0  0  0  0  0  0  0  0  0  0  0  0
  -28.6295   -3.9708   -5.4482 C   0  0  0  0  0  0  0  0  0  0  0  0
  -27.8212   -2.9655   -4.8749 N   0  0  0  0  0  0  0  0  0  0  0  0
  -26.9898   -3.3832   -4.4549 H   0  0  0  0  0  0  0  0  0  0  0  0
  -28.4560   -1.9903   -3.9871 C   0  0  0  0  0  0  0  0  0  0  0  0
  -28.8131   -0.7216   -4.7255 C   0  0  0  0  0  0  0  0  0  0  0  0
  -27.8402    0.2353   -5.0377 C   0  0  0  0  0  0  0  0  0  0  0  0
  -28.1989    1.3214   -5.8222 C   0  0  0  0  0  0  0  0  0  0  0  0
  -29.4419    1.5169   -6.3109 N   0  0  0  0  0  0  0  0  0  0  0  0
  -30.3663    0.5841   -6.0024 C   0  0  0  0  0  0  0  0  0  0  0  0
  -30.1053   -0.5342   -5.2247 C   0  0  0  0  0  0  0  0  0  0  0  0
 12 13  1  0  0  0
 13 14  1  0  0  0
 13 15  1  0  0  0
 13  6  1  0  0  0
  6  7  1  0  0  0
  6 11  2  0  0  0
  7  8  2  0  0  0
  8  9  1  0  0  0
  9 10  2  0  0  0
 10  1  1  0  0  0
 10 11  1  0  0  0
  1  2  1  0  0  0
  1  5  1  0  0  0
  2  3  2  0  0  0
  3 16  1  0  0  0
  3  4  1  0  0  0
 16 17  1  0  0  0
 16 21  2  0  0  0
 17 18  2  0  0  0
 18 19  1  0  0  0
 19 20  2  0  0  0
 20 21  1  0  0  0
 21 22  1  0  0  0
 22 24  1  0  0  0
 22 23  1  0  0  0
 24 25  1  0  0  0
 25 26  1  0  0  0
 25 30  2  0  0  0
 26 27  2  0  0  0
 27 28  1  0  0  0
 28 29  2  0  0  0
 29 30  1  0  0  0
  4  5  2  0  0  0
M  END
> <minimizedAffinity>
-9.65537

$$$$
