CHEMBL1974664


 28 31  0  0  0  0  0  0  0  0999 V2000
  -29.4373   -4.0207   -6.9606 N   0  0  0  0  0  0  0  0  0  0  0  0
  -29.8214   -3.3508   -7.6297 H   0  0  0  0  0  0  0  0  0  0  0  0
  -28.3210   -3.4448   -6.2780 C   0  0  0  0  0  0  0  0  0  0  0  0
  -27.8939   -2.1830   -6.5266 N   0  0  0  0  0  0  0  0  0  0  0  0
  -27.8183   -1.3750   -5.4561 C   0  0  0  0  0  0  0  0  0  0  0  0
  -28.2561   -1.6589   -4.2111 N   0  0  0  0  0  0  0  0  0  0  0  0
  -28.4727   -2.9924   -4.0591 C   0  0  0  0  0  0  0  0  0  0  0  0
  -27.9559   -3.8997   -5.0109 C   0  0  0  0  0  0  0  0  0  0  0  0
  -28.1109   -5.1084   -4.3530 N   0  0  0  0  0  0  0  0  0  0  0  0
  -29.4091   -5.0673   -3.8881 C   0  0  0  0  0  0  0  0  0  0  0  0
  -30.3761   -6.0649   -3.8757 C   0  0  0  0  0  0  0  0  0  0  0  0
  -31.6687   -5.6405   -3.5843 C   0  0  0  0  0  0  0  0  0  0  0  0
  -31.9277   -4.3224   -3.1942 C   0  0  0  0  0  0  0  0  0  0  0  0
  -30.9066   -3.3556   -3.1159 C   0  0  0  0  0  0  0  0  0  0  0  0
  -29.6196   -3.7228   -3.5506 C   0  0  0  0  0  0  0  0  0  0  0  0
  -27.3859   -5.4444   -3.7371 H   0  0  0  0  0  0  0  0  0  0  0  0
  -30.2362   -6.1537   -7.3495 C   0  0  0  0  0  0  0  0  0  0  0  0
  -29.2695   -5.2989   -7.3755 N   0  0  0  0  0  0  0  0  0  0  0  0
  -29.0213  -10.0909   -8.5891 C   0  0  0  0  0  0  0  0  0  0  0  0
  -28.2015   -8.9769   -8.7410 C   0  0  0  0  0  0  0  0  0  0  0  0
  -28.6379   -7.7161   -8.3683 C   0  0  0  0  0  0  0  0  0  0  0  0
  -29.9169   -7.5237   -7.8350 C   0  0  0  0  0  0  0  0  0  0  0  0
  -30.7852   -8.6188   -7.7482 C   0  0  0  0  0  0  0  0  0  0  0  0
  -30.3330   -9.9051   -8.1049 C   0  0  0  0  0  0  0  0  0  0  0  0
  -28.0031  -11.4457  -10.2507 C   0  0  0  0  0  0  0  0  0  0  0  0
  -28.5950  -11.3419   -8.9553 O   0  0  0  0  0  0  0  0  0  0  0  0
  -31.2909  -10.8845   -7.9449 O   0  0  0  0  0  0  0  0  0  0  0  0
  -32.3500  -10.6094   -7.0321 C   0  0  0  0  0  0  0  0  0  0  0  0
 25 26  1  0  0  0
 26 19  1  0  0  0
 19 20  1  0  0  0
 19 24  2  0  0  0
 20 21  2  0  0  0
 21 22  1  0  0  0
 22 17  1  0  0  0
 22 23  2  0  0  0
 17 18  2  0  0  0
 18  1  1  0  0  0
  1  3  1  0  0  0
  1  2  1  0  0  0
  3  4  1  0  0  0
  3  8  2  0  0  0
  4  5  2  0  0  0
  5  6  1  0  0  0
  6  7  2  0  0  0
  7  8  1  0  0  0
  7 15  1  0  0  0
  8  9  1  0  0  0
  9 10  1  0  0  0
  9 16  1  0  0  0
 10 11  1  0  0  0
 10 15  2  0  0  0
 11 12  2  0  0  0
 12 13  1  0  0  0
 13 14  2  0  0  0
 14 15  1  0  0  0
 23 24  1  0  0  0
 24 27  1  0  0  0
 27 28  1  0  0  0
M  END
> <minimizedAffinity>
-7.74098

$$$$
