CHEMBL3739569


 42 46  0  0  0  0  0  0  0  0999 V2000
  -29.7142   -5.8607   -6.9625 C   0  0  0  0  0  0  0  0  0  0  0  0
  -30.4730   -6.0966   -5.8201 C   0  0  0  0  0  0  0  0  0  0  0  0
  -30.0642   -7.0929   -4.9295 C   0  0  0  0  0  0  0  0  0  0  0  0
  -28.9642   -7.9171   -5.2384 C   0  0  0  0  0  0  0  0  0  0  0  0
  -28.5075   -8.9681   -4.4289 C   0  0  0  0  0  0  0  0  0  0  0  0
  -28.8664  -10.1762   -4.9913 C   0  0  0  0  0  0  0  0  0  0  0  0
  -28.5763  -10.3301   -6.3441 C   0  0  0  0  0  0  0  0  0  0  0  0
  -28.2478   -9.1951   -7.1099 C   0  0  0  0  0  0  0  0  0  0  0  0
  -28.5718   -7.9380   -6.5805 C   0  0  0  0  0  0  0  0  0  0  0  0
  -28.7847   -6.8106   -7.3836 C   0  0  0  0  0  0  0  0  0  0  0  0
  -26.9429   -8.9402   -4.1954 C   0  0  0  0  0  0  0  0  0  0  0  0
  -26.3282   -7.8797   -4.2008 O   0  0  0  0  0  0  0  0  0  0  0  0
  -26.3503  -10.1974   -4.0196 N   0  0  0  0  0  0  0  0  0  0  0  0
  -26.9827  -10.9806   -3.9462 H   0  0  0  0  0  0  0  0  0  0  0  0
  -24.9717  -10.5493   -3.9993 C   0  0  0  0  0  0  0  0  0  0  0  0
  -24.1099  -10.4868   -5.0956 C   0  0  0  0  0  0  0  0  0  0  0  0
  -22.7630  -10.8587   -4.9521 C   0  0  0  0  0  0  0  0  0  0  0  0
  -21.9449  -10.7972   -6.0125 F   0  0  0  0  0  0  0  0  0  0  0  0
  -22.2485  -11.2965   -3.7431 C   0  0  0  0  0  0  0  0  0  0  0  0
  -23.1123  -11.3790   -2.6597 C   0  0  0  0  0  0  0  0  0  0  0  0
  -22.6490  -11.8145   -1.4792 F   0  0  0  0  0  0  0  0  0  0  0  0
  -24.4567  -11.0192   -2.7781 C   0  0  0  0  0  0  0  0  0  0  0  0
  -30.0191   -4.7515   -7.7112 O   0  0  0  0  0  0  0  0  0  0  0  0
  -27.5257   -2.3797   -8.4269 C   0  0  0  0  0  0  0  0  0  0  0  0
  -27.5624   -1.5055   -7.4090 N   0  0  0  0  0  0  0  0  0  0  0  0
  -28.5125   -1.6897   -6.4758 C   0  0  0  0  0  0  0  0  0  0  0  0
  -29.4096   -2.7253   -6.5045 C   0  0  0  0  0  0  0  0  0  0  0  0
  -29.2417   -3.6227   -7.5347 C   0  0  0  0  0  0  0  0  0  0  0  0
  -28.3294   -3.4470   -8.5054 N   0  0  0  0  0  0  0  0  0  0  0  0
  -26.6066   -2.0782   -9.4300 N   0  0  0  0  0  0  0  0  0  0  0  0
  -25.7937   -1.6558   -9.0035 H   0  0  0  0  0  0  0  0  0  0  0  0
  -25.6322   -1.5521  -12.9783 C   0  0  0  0  0  0  0  0  0  0  0  0
  -26.8711   -1.6450  -13.6221 C   0  0  0  0  0  0  0  0  0  0  0  0
  -28.0249   -1.8912  -12.8836 C   0  0  0  0  0  0  0  0  0  0  0  0
  -27.9536   -2.0460  -11.4977 C   0  0  0  0  0  0  0  0  0  0  0  0
  -26.7397   -1.9303  -10.8167 C   0  0  0  0  0  0  0  0  0  0  0  0
  -25.5867   -1.6762  -11.5808 C   0  0  0  0  0  0  0  0  0  0  0  0
  -24.3906   -1.2705  -13.7854 C   0  0  0  0  0  0  0  0  0  0  0  0
  -22.0150    0.2260  -14.1476 C   0  0  0  0  0  0  0  0  0  0  0  0
  -23.2332   -0.2186  -12.9158 S   0  0  0  0  0  0  0  0  0  0  0  0
  -22.5430   -0.9582  -11.8820 O   0  0  0  0  0  0  0  0  0  0  0  0
  -23.9460    1.0050  -12.5853 O   0  0  0  0  0  0  0  0  0  0  0  0
 39 40  1  0  0  0
 40 41  2  0  0  0
 40 42  2  0  0  0
 40 38  1  0  0  0
 38 32  1  0  0  0
 32 33  1  0  0  0
 32 37  2  0  0  0
 33 34  2  0  0  0
 34 35  1  0  0  0
 35 36  2  0  0  0
 36 30  1  0  0  0
 36 37  1  0  0  0
 30 24  1  0  0  0
 30 31  1  0  0  0
 24 25  1  0  0  0
 24 29  2  0  0  0
 25 26  2  0  0  0
 26 27  1  0  0  0
 27 28  2  0  0  0
 28 23  1  0  0  0
 28 29  1  0  0  0
 23  1  1  0  0  0
  1  2  1  0  0  0
  1 10  2  0  0  0
  2  3  2  0  0  0
  3  4  1  0  0  0
  4  5  1  0  0  0
  4  9  2  0  0  0
  5 11  1  0  0  0
  5  6  2  0  0  0
 11 12  2  0  0  0
 11 13  1  0  0  0
 13 15  1  0  0  0
 13 14  1  0  0  0
 15 16  1  0  0  0
 15 22  2  0  0  0
 16 17  2  0  0  0
 17 18  1  0  0  0
 17 19  1  0  0  0
 19 20  2  0  0  0
 20 21  1  0  0  0
 20 22  1  0  0  0
  6  7  1  0  0  0
  7  8  2  0  0  0
  8  9  1  0  0  0
  9 10  1  0  0  0
M  END
> <minimizedAffinity>
-10.20618

$$$$
