CHEMBL3696076


 44 47  0  0  0  0  0  0  0  0999 V2000
  -28.5276   -4.6363   -6.0292 C   0  0  0  0  0  0  0  0  0  0  0  0
  -28.4134   -4.1153   -4.7998 N   0  0  0  0  0  0  0  0  0  0  0  0
  -28.8846   -5.2117   -3.6722 S   0  0  0  0  0  0  0  0  0  0  0  0
  -29.2454   -6.4475   -4.7796 C   0  0  0  0  0  0  0  0  0  0  0  0
  -28.9684   -6.0220   -6.0680 C   0  0  0  0  0  0  0  0  0  0  0  0
  -27.5067   -2.0654   -9.3041 C   0  0  0  0  0  0  0  0  0  0  0  0
  -27.5522   -3.4534   -9.4643 C   0  0  0  0  0  0  0  0  0  0  0  0
  -27.9173   -4.2760   -8.4024 C   0  0  0  0  0  0  0  0  0  0  0  0
  -28.2313   -3.7307   -7.1510 C   0  0  0  0  0  0  0  0  0  0  0  0
  -28.1610   -2.3383   -6.9890 C   0  0  0  0  0  0  0  0  0  0  0  0
  -27.7872   -1.5094   -8.0570 C   0  0  0  0  0  0  0  0  0  0  0  0
  -25.7961   -0.2199  -11.9024 N   0  0  0  0  0  0  0  0  0  0  0  0
  -25.9163   -1.0568  -10.8154 C   0  0  0  0  0  0  0  0  0  0  0  0
  -24.9895   -1.6470  -10.2733 O   0  0  0  0  0  0  0  0  0  0  0  0
  -27.2350   -1.2200  -10.4065 N   0  0  0  0  0  0  0  0  0  0  0  0
  -26.5832    0.3784  -12.1128 H   0  0  0  0  0  0  0  0  0  0  0  0
  -27.9173   -1.2068  -11.1501 H   0  0  0  0  0  0  0  0  0  0  0  0
  -20.9178    0.5925  -14.8214 C   0  0  0  0  0  0  0  0  0  0  0  0
  -22.1865    0.3804  -14.0560 C   0  0  0  0  0  0  0  0  0  0  0  0
  -22.7677    1.4360  -13.3622 C   0  0  0  0  0  0  0  0  0  0  0  0
  -23.9477    1.2453  -12.6471 C   0  0  0  0  0  0  0  0  0  0  0  0
  -24.5950    0.0063  -12.6194 C   0  0  0  0  0  0  0  0  0  0  0  0
  -24.0141   -1.0587  -13.3176 C   0  0  0  0  0  0  0  0  0  0  0  0
  -22.8160   -0.8689  -14.0258 C   0  0  0  0  0  0  0  0  0  0  0  0
  -29.7870   -7.6414   -4.3228 N   0  0  0  0  0  0  0  0  0  0  0  0
  -28.9936   -8.7665   -4.2708 C   0  0  0  0  0  0  0  0  0  0  0  0
  -27.8424   -8.8462   -4.6871 O   0  0  0  0  0  0  0  0  0  0  0  0
  -29.6410   -9.8370   -3.7116 N   0  0  0  0  0  0  0  0  0  0  0  0
  -30.7549   -7.8092   -4.5848 H   0  0  0  0  0  0  0  0  0  0  0  0
  -30.5012   -9.6701   -3.2106 H   0  0  0  0  0  0  0  0  0  0  0  0
  -28.9533  -11.1057   -3.5303 C   0  0  0  0  0  0  0  0  0  0  0  0
  -29.7161  -12.3069   -4.1042 C   0  0  0  0  0  0  0  0  0  0  0  0
  -29.8722  -12.2395   -5.6297 C   0  0  0  0  0  0  0  0  0  0  0  0
  -30.7292  -11.1336   -6.0950 N   0  0  0  0  0  0  0  0  0  0  0  0
  -32.1510  -11.5504   -6.1674 C   0  0  0  0  0  0  0  0  0  0  0  0
  -32.4760  -12.4590   -7.3677 C   0  0  0  0  0  0  0  0  0  0  0  0
  -32.1028  -11.8436   -8.6057 O   0  0  0  0  0  0  0  0  0  0  0  0
  -30.7101  -11.5022   -8.6051 C   0  0  0  0  0  0  0  0  0  0  0  0
  -30.3586  -10.5867   -7.4207 C   0  0  0  0  0  0  0  0  0  0  0  0
  -29.0978   -6.9246   -7.1970 C   0  0  0  0  0  0  0  0  0  0  0  0
  -28.0116   -7.6969   -7.4924 N   0  0  0  0  0  0  0  0  0  0  0  0
  -30.1480   -7.0638   -7.8185 O   0  0  0  0  0  0  0  0  0  0  0  0
  -27.2120   -7.7690   -6.8755 H   0  0  0  0  0  0  0  0  0  0  0  0
  -28.1266   -8.4139   -8.1963 H   0  0  0  0  0  0  0  0  0  0  0  0
 18 19  1  0  0  0
 19 20  1  0  0  0
 19 24  2  0  0  0
 20 21  2  0  0  0
 21 22  1  0  0  0
 22 12  1  0  0  0
 22 23  2  0  0  0
 12 13  1  0  0  0
 12 16  1  0  0  0
 13 14  2  0  0  0
 13 15  1  0  0  0
 15  6  1  0  0  0
 15 17  1  0  0  0
  6  7  1  0  0  0
  6 11  2  0  0  0
  7  8  2  0  0  0
  8  9  1  0  0  0
  9  1  1  0  0  0
  9 10  2  0  0  0
  1  2  2  0  0  0
  1  5  1  0  0  0
  2  3  1  0  0  0
  3  4  1  0  0  0
  4 25  1  0  0  0
  4  5  2  0  0  0
 25 26  1  0  0  0
 25 29  1  0  0  0
 26 27  2  0  0  0
 26 28  1  0  0  0
 28 31  1  0  0  0
 28 30  1  0  0  0
 31 32  1  0  0  0
 32 33  1  0  0  0
 33 34  1  0  0  0
 34 35  1  0  0  0
 34 39  1  0  0  0
 35 36  1  0  0  0
 36 37  1  0  0  0
 37 38  1  0  0  0
 38 39  1  0  0  0
  5 40  1  0  0  0
 40 41  1  0  0  0
 40 42  2  0  0  0
 41 43  1  0  0  0
 41 44  1  0  0  0
 10 11  1  0  0  0
 23 24  1  0  0  0
M  END
> <minimizedAffinity>
-8.09730

$$$$
