CHEMBL329201


 22 25  0  0  0  0  0  0  0  0999 V2000
  -29.8984   -3.6813   -4.9755 C   0  0  0  0  0  0  0  0  0  0  0  0
  -30.8479   -4.2456   -4.0966 C   0  0  0  0  0  0  0  0  0  0  0  0
  -31.1649   -5.5050   -4.3988 N   0  0  0  0  0  0  0  0  0  0  0  0
  -30.4198   -5.7824   -5.4954 N   0  0  0  0  0  0  0  0  0  0  0  0
  -30.4037   -6.9707   -6.2184 C   0  0  0  0  0  0  0  0  0  0  0  0
  -29.6119   -7.1041   -7.2946 C   0  0  0  0  0  0  0  0  0  0  0  0
  -28.7801   -5.9013   -7.6081 C   0  0  0  0  0  0  0  0  0  0  0  0
  -28.7785   -4.7759   -6.9588 N   0  0  0  0  0  0  0  0  0  0  0  0
  -29.6179   -4.6979   -5.8745 C   0  0  0  0  0  0  0  0  0  0  0  0
  -27.6991    1.4604   -4.9826 F   0  0  0  0  0  0  0  0  0  0  0  0
  -28.2244    0.2288   -4.9948 C   0  0  0  0  0  0  0  0  0  0  0  0
  -29.5517    0.0550   -5.3618 C   0  0  0  0  0  0  0  0  0  0  0  0
  -30.1006   -1.2285   -5.3671 C   0  0  0  0  0  0  0  0  0  0  0  0
  -29.3295   -2.3416   -4.9971 C   0  0  0  0  0  0  0  0  0  0  0  0
  -27.9849   -2.1418   -4.6415 C   0  0  0  0  0  0  0  0  0  0  0  0
  -27.4348   -0.8570   -4.6387 C   0  0  0  0  0  0  0  0  0  0  0  0
  -29.5620   -8.3198   -8.1024 C   0  0  0  0  0  0  0  0  0  0  0  0
  -28.4552   -8.5882   -8.9094 C   0  0  0  0  0  0  0  0  0  0  0  0
  -28.4574   -9.7517   -9.6612 C   0  0  0  0  0  0  0  0  0  0  0  0
  -29.4716  -10.6420   -9.6596 N   0  0  0  0  0  0  0  0  0  0  0  0
  -30.5328  -10.3584   -8.8755 C   0  0  0  0  0  0  0  0  0  0  0  0
  -30.6251   -9.2233   -8.0869 C   0  0  0  0  0  0  0  0  0  0  0  0
 10 11  1  0  0  0
 11 12  1  0  0  0
 11 16  2  0  0  0
 12 13  2  0  0  0
 13 14  1  0  0  0
 14  1  1  0  0  0
 14 15  2  0  0  0
  1  2  1  0  0  0
  1  9  2  0  0  0
  2  3  2  0  0  0
  3  4  1  0  0  0
  4  5  1  0  0  0
  4  9  1  0  0  0
  5  6  2  0  0  0
  6 17  1  0  0  0
  6  7  1  0  0  0
 17 18  1  0  0  0
 17 22  2  0  0  0
 18 19  2  0  0  0
 19 20  1  0  0  0
 20 21  2  0  0  0
 21 22  1  0  0  0
  7  8  2  0  0  0
  8  9  1  0  0  0
 15 16  1  0  0  0
M  END
> <minimizedAffinity>
-8.48430

$$$$
