CHEMBL4161287


 38 42  0  0  0  0  0  0  0  0999 V2000
  -25.1492   -1.3519  -12.3958 C   0  0  0  0  0  0  0  0  0  0  0  0
  -24.2670   -2.1488  -12.0435 O   0  0  0  0  0  0  0  0  0  0  0  0
  -24.8966   -0.1581  -13.0660 N   0  0  0  0  0  0  0  0  0  0  0  0
  -25.6698    0.4746  -13.2123 H   0  0  0  0  0  0  0  0  0  0  0  0
  -23.6159    0.3333  -13.4124 C   0  0  0  0  0  0  0  0  0  0  0  0
  -23.2397    1.6760  -13.2883 C   0  0  0  0  0  0  0  0  0  0  0  0
  -21.9841    2.1133  -13.7029 C   0  0  0  0  0  0  0  0  0  0  0  0
  -21.0426    1.2373  -14.2650 C   0  0  0  0  0  0  0  0  0  0  0  0
  -21.4084   -0.1089  -14.3542 C   0  0  0  0  0  0  0  0  0  0  0  0
  -22.6688   -0.5655  -13.9225 C   0  0  0  0  0  0  0  0  0  0  0  0
  -19.6981    1.7400  -14.6514 C   0  0  0  0  0  0  0  0  0  0  0  0
  -19.4847    3.1216  -14.8450 C   0  0  0  0  0  0  0  0  0  0  0  0
  -18.3200    3.5935  -15.4497 C   0  0  0  0  0  0  0  0  0  0  0  0
  -17.3213    2.6885  -15.7820 C   0  0  0  0  0  0  0  0  0  0  0  0
  -16.1244    3.0756  -16.5663 C   0  0  0  0  0  0  0  0  0  0  0  0
  -16.2319    3.9667  -17.4030 O   0  0  0  0  0  0  0  0  0  0  0  0
  -14.9562    2.3826  -16.3269 N   0  0  0  0  0  0  0  0  0  0  0  0
  -15.1063    1.1749  -15.8951 C   0  0  0  0  0  0  0  0  0  0  0  0
  -16.2873    0.5271  -15.6378 N   0  0  0  0  0  0  0  0  0  0  0  0
  -17.4083    1.3419  -15.4190 C   0  0  0  0  0  0  0  0  0  0  0  0
  -18.6211    0.8638  -14.9190 C   0  0  0  0  0  0  0  0  0  0  0  0
  -16.2624   -0.3626  -15.1557 H   0  0  0  0  0  0  0  0  0  0  0  0
  -26.6297   -1.6923  -12.0680 C   0  0  0  0  0  0  0  0  0  0  0  0
  -27.8354   -0.8439  -12.6060 C   0  0  0  0  0  0  0  0  0  0  0  0
  -27.9426   -1.7971  -13.7946 C   0  0  0  0  0  0  0  0  0  0  0  0
  -27.1996   -2.8521  -12.9551 C   0  0  0  0  0  0  0  0  0  0  0  0
  -27.8434   -2.2050   -9.9179 N   0  0  0  0  0  0  0  0  0  0  0  0
  -26.6510   -1.7965  -10.5125 C   0  0  0  0  0  0  0  0  0  0  0  0
  -25.6321   -1.4828   -9.8778 O   0  0  0  0  0  0  0  0  0  0  0  0
  -28.6281   -2.3972  -10.5284 H   0  0  0  0  0  0  0  0  0  0  0  0
  -28.5019   -2.8627   -4.2362 C   0  0  0  0  0  0  0  0  0  0  0  0
  -28.3675   -2.6533   -5.7178 C   0  0  0  0  0  0  0  0  0  0  0  0
  -28.6456   -3.7176   -6.5779 C   0  0  0  0  0  0  0  0  0  0  0  0
  -28.4935   -3.5755   -7.9609 C   0  0  0  0  0  0  0  0  0  0  0  0
  -28.0603   -2.3728   -8.5267 C   0  0  0  0  0  0  0  0  0  0  0  0
  -27.8248   -1.2897   -7.6746 C   0  0  0  0  0  0  0  0  0  0  0  0
  -27.9637   -1.4348   -6.2823 C   0  0  0  0  0  0  0  0  0  0  0  0
  -27.6005   -0.0688   -5.2861 Cl  0  0  0  0  0  0  0  0  0  0  0  0
 31 32  1  0  0  0
 32 33  1  0  0  0
 32 37  2  0  0  0
 33 34  2  0  0  0
 34 35  1  0  0  0
 35 27  1  0  0  0
 35 36  2  0  0  0
 27 28  1  0  0  0
 27 30  1  0  0  0
 28 29  2  0  0  0
 28 23  1  0  0  0
 23  1  1  0  0  0
 23 24  1  0  0  0
 23 26  1  0  0  0
  1  2  2  0  0  0
  1  3  1  0  0  0
  3  5  1  0  0  0
  3  4  1  0  0  0
  5  6  1  0  0  0
  5 10  2  0  0  0
  6  7  2  0  0  0
  7  8  1  0  0  0
  8 11  1  0  0  0
  8  9  2  0  0  0
 11 12  1  0  0  0
 11 21  2  0  0  0
 12 13  2  0  0  0
 13 14  1  0  0  0
 14 15  1  0  0  0
 14 20  2  0  0  0
 15 16  2  0  0  0
 15 17  1  0  0  0
 17 18  2  0  0  0
 18 19  1  0  0  0
 19 20  1  0  0  0
 19 22  1  0  0  0
 20 21  1  0  0  0
  9 10  1  0  0  0
 24 25  1  0  0  0
 25 26  1  0  0  0
 36 37  1  0  0  0
 37 38  1  0  0  0
M  END
> <minimizedAffinity>
-10.92144

$$$$
