CHEMBL245769


 35 39  0  0  0  0  0  0  0  0999 V2000
  -27.8630   -1.6851   -7.7126 C   0  0  0  0  0  0  0  0  0  0  0  0
  -27.9674   -0.4326   -7.0833 C   0  0  0  0  0  0  0  0  0  0  0  0
  -28.7407   -0.2359   -5.9250 C   0  0  0  0  0  0  0  0  0  0  0  0
  -29.4527   -1.2886   -5.3582 C   0  0  0  0  0  0  0  0  0  0  0  0
  -29.3814   -2.5022   -6.0019 C   0  0  0  0  0  0  0  0  0  0  0  0
  -28.6101   -2.7306   -7.1789 C   0  0  0  0  0  0  0  0  0  0  0  0
  -28.6837   -4.1896   -7.6574 C   0  0  0  0  0  0  0  0  0  0  0  0
  -29.5766   -4.7202   -6.5886 C   0  0  0  0  0  0  0  0  0  0  0  0
  -29.9731   -3.7491   -5.6635 C   0  0  0  0  0  0  0  0  0  0  0  0
  -30.7655   -4.1976   -4.7028 N   0  0  0  0  0  0  0  0  0  0  0  0
  -30.8822   -5.5110   -5.0334 N   0  0  0  0  0  0  0  0  0  0  0  0
  -30.1689   -5.8782   -6.1580 C   0  0  0  0  0  0  0  0  0  0  0  0
  -31.4474   -6.1022   -4.4377 H   0  0  0  0  0  0  0  0  0  0  0  0
  -30.0671   -7.2446   -6.7300 C   0  0  0  0  0  0  0  0  0  0  0  0
  -31.1469   -7.9238   -7.2522 C   0  0  0  0  0  0  0  0  0  0  0  0
  -30.7207   -9.4895   -7.7998 S   0  0  0  0  0  0  0  0  0  0  0  0
  -29.0959   -9.2756   -7.3252 C   0  0  0  0  0  0  0  0  0  0  0  0
  -28.8735   -8.0234   -6.7975 C   0  0  0  0  0  0  0  0  0  0  0  0
  -28.1064  -10.2896   -7.4589 C   0  0  0  0  0  0  0  0  0  0  0  0
  -27.1988  -11.2087   -7.6366 C   0  0  0  0  0  0  0  0  0  0  0  0
  -26.1408  -12.2801   -7.8437 C   0  0  0  0  0  0  0  0  0  0  0  0
  -24.9860  -11.7220   -8.4562 O   0  0  0  0  0  0  0  0  0  0  0  0
  -23.9100  -11.5529   -7.6236 C   0  0  0  0  0  0  0  0  0  0  0  0
  -23.9060  -10.8112   -6.4379 C   0  0  0  0  0  0  0  0  0  0  0  0
  -22.7393  -10.7042   -5.6780 C   0  0  0  0  0  0  0  0  0  0  0  0
  -21.5722  -11.3409   -6.0940 C   0  0  0  0  0  0  0  0  0  0  0  0
  -21.5717  -12.0872   -7.2709 C   0  0  0  0  0  0  0  0  0  0  0  0
  -22.7373  -12.1922   -8.0320 C   0  0  0  0  0  0  0  0  0  0  0  0
  -27.3470   -1.5196  -10.1390 C   0  0  0  0  0  0  0  0  0  0  0  0
  -28.3250   -0.8719  -10.5066 O   0  0  0  0  0  0  0  0  0  0  0  0
  -27.0412   -1.8954   -8.8410 N   0  0  0  0  0  0  0  0  0  0  0  0
  -26.1194   -2.2881   -8.6890 H   0  0  0  0  0  0  0  0  0  0  0  0
  -26.3086   -1.9791  -11.1624 C   0  0  0  0  0  0  0  0  0  0  0  0
  -26.5569   -1.5910  -13.4746 C   0  0  0  0  0  0  0  0  0  0  0  0
  -26.1131   -1.0571  -12.2276 O   0  0  0  0  0  0  0  0  0  0  0  0
 34 35  1  0  0  0
 35 33  1  0  0  0
 33 29  1  0  0  0
 29 30  2  0  0  0
 29 31  1  0  0  0
 31  1  1  0  0  0
 31 32  1  0  0  0
  1  2  1  0  0  0
  1  6  2  0  0  0
  2  3  2  0  0  0
  3  4  1  0  0  0
  4  5  2  0  0  0
  5  6  1  0  0  0
  5  9  1  0  0  0
  6  7  1  0  0  0
  7  8  1  0  0  0
  8  9  1  0  0  0
  8 12  2  0  0  0
  9 10  2  0  0  0
 10 11  1  0  0  0
 11 12  1  0  0  0
 11 13  1  0  0  0
 12 14  1  0  0  0
 14 15  2  0  0  0
 14 18  1  0  0  0
 15 16  1  0  0  0
 16 17  1  0  0  0
 17 19  1  0  0  0
 17 18  2  0  0  0
 19 20  3  0  0  0
 20 21  1  0  0  0
 21 22  1  0  0  0
 22 23  1  0  0  0
 23 24  1  0  0  0
 23 28  2  0  0  0
 24 25  2  0  0  0
 25 26  1  0  0  0
 26 27  2  0  0  0
 27 28  1  0  0  0
M  END
> <minimizedAffinity>
-8.47115

$$$$
