CHEMBL1095154


 38 42  0  0  0  0  0  0  0  0999 V2000
  -15.0769    1.0659  -16.3121 C   0  0  0  0  0  0  0  0  0  0  0  0
  -16.0181    2.0694  -16.5378 C   0  0  0  0  0  0  0  0  0  0  0  0
  -16.8163    2.2038  -15.4578 N   0  0  0  0  0  0  0  0  0  0  0  0
  -16.3937    1.2835  -14.5558 C   0  0  0  0  0  0  0  0  0  0  0  0
  -16.9116    0.9894  -13.2939 C   0  0  0  0  0  0  0  0  0  0  0  0
  -16.2691    0.0084  -12.5221 C   0  0  0  0  0  0  0  0  0  0  0  0
  -15.1066   -0.6579  -13.0080 C   0  0  0  0  0  0  0  0  0  0  0  0
  -14.6258   -0.3543  -14.2870 C   0  0  0  0  0  0  0  0  0  0  0  0
  -15.3029    0.6067  -15.0386 C   0  0  0  0  0  0  0  0  0  0  0  0
  -14.0510    0.5627  -17.2781 C   0  0  0  0  0  0  0  0  0  0  0  0
  -14.2168    0.2935  -19.7655 N   0  0  0  0  0  0  0  0  0  0  0  0
  -14.1773    1.2510  -18.6590 C   0  0  0  0  0  0  0  0  0  0  0  0
  -13.2528   -0.0622  -19.9642 H   0  0  0  0  0  0  0  0  0  0  0  0
  -14.8388   -0.5124  -19.5288 H   0  0  0  0  0  0  0  0  0  0  0  0
  -17.9079    3.1794  -15.3083 C   0  0  0  0  0  0  0  0  0  0  0  0
  -19.1936    2.4428  -15.0282 C   0  0  0  0  0  0  0  0  0  0  0  0
  -20.2053    3.0245  -14.2496 C   0  0  0  0  0  0  0  0  0  0  0  0
  -21.3350    2.2800  -13.8824 C   0  0  0  0  0  0  0  0  0  0  0  0
  -21.4575    0.9279  -14.2671 C   0  0  0  0  0  0  0  0  0  0  0  0
  -20.4598    0.3792  -15.0994 C   0  0  0  0  0  0  0  0  0  0  0  0
  -19.3546    1.1296  -15.4849 C   0  0  0  0  0  0  0  0  0  0  0  0
  -22.5695    0.0679  -13.7497 C   0  0  0  0  0  0  0  0  0  0  0  0
  -23.6428   -0.3460  -14.5709 C   0  0  0  0  0  0  0  0  0  0  0  0
  -24.6963   -1.1029  -14.0393 C   0  0  0  0  0  0  0  0  0  0  0  0
  -24.7077   -1.4403  -12.6857 C   0  0  0  0  0  0  0  0  0  0  0  0
  -23.6624   -1.0337  -11.8592 C   0  0  0  0  0  0  0  0  0  0  0  0
  -22.6023   -0.2961  -12.3844 C   0  0  0  0  0  0  0  0  0  0  0  0
  -14.4354   -1.5834  -12.2746 O   0  0  0  0  0  0  0  0  0  0  0  0
  -15.0409   -2.6682  -11.6829 C   0  0  0  0  0  0  0  0  0  0  0  0
  -15.9118   -3.4379  -12.6760 C   0  0  0  0  0  0  0  0  0  0  0  0
  -15.5007   -4.8897  -12.6558 C   0  0  0  0  0  0  0  0  0  0  0  0
  -14.6087   -5.3648  -11.6822 C   0  0  0  0  0  0  0  0  0  0  0  0
  -14.1935   -6.7003  -11.6993 C   0  0  0  0  0  0  0  0  0  0  0  0
  -14.6643   -7.5758  -12.6867 C   0  0  0  0  0  0  0  0  0  0  0  0
  -14.2608   -8.8599  -12.7238 O   0  0  0  0  0  0  0  0  0  0  0  0
  -15.5620   -7.1110  -13.6529 C   0  0  0  0  0  0  0  0  0  0  0  0
  -15.9825   -5.7792  -13.6368 C   0  0  0  0  0  0  0  0  0  0  0  0
  -13.6314   -9.2188  -12.0824 H   0  0  0  0  0  0  0  0  0  0  0  0
 11 12  1  0  0  0
 11 13  1  0  0  0
 11 14  1  0  0  0
 12 10  1  0  0  0
 10  1  1  0  0  0
  1  2  2  0  0  0
  1  9  1  0  0  0
  2  3  1  0  0  0
  3 15  1  0  0  0
  3  4  1  0  0  0
 15 16  1  0  0  0
 16 17  1  0  0  0
 16 21  2  0  0  0
 17 18  2  0  0  0
 18 19  1  0  0  0
 19 22  1  0  0  0
 19 20  2  0  0  0
 22 23  1  0  0  0
 22 27  2  0  0  0
 23 24  2  0  0  0
 24 25  1  0  0  0
 25 26  2  0  0  0
 26 27  1  0  0  0
 20 21  1  0  0  0
  4  5  1  0  0  0
  4  9  2  0  0  0
  5  6  2  0  0  0
  6  7  1  0  0  0
  7 28  1  0  0  0
  7  8  2  0  0  0
 28 29  1  0  0  0
 29 30  1  0  0  0
 30 31  1  0  0  0
 31 32  1  0  0  0
 31 37  2  0  0  0
 32 33  2  0  0  0
 33 34  1  0  0  0
 34 35  1  0  0  0
 34 36  2  0  0  0
 35 38  1  0  0  0
 36 37  1  0  0  0
  8  9  1  0  0  0
M  END
> <minimizedAffinity>
-10.58621

$$$$
