CHEMBL3948354


 42 46  0  0  0  0  0  0  0  0999 V2000
  -29.1001   -5.4021   -7.2683 C   0  0  0  0  0  0  0  0  0  0  0  0
  -28.7138   -4.3091   -8.0370 C   0  0  0  0  0  0  0  0  0  0  0  0
  -28.3363   -3.0837   -7.4432 C   0  0  0  0  0  0  0  0  0  0  0  0
  -28.0105   -1.9344   -8.1803 C   0  0  0  0  0  0  0  0  0  0  0  0
  -27.5647   -0.8152   -7.5966 N   0  0  0  0  0  0  0  0  0  0  0  0
  -27.4943   -0.8294   -6.2623 C   0  0  0  0  0  0  0  0  0  0  0  0
  -27.8374   -1.8443   -5.4601 N   0  0  0  0  0  0  0  0  0  0  0  0
  -28.2507   -2.9727   -6.0549 C   0  0  0  0  0  0  0  0  0  0  0  0
  -28.5819   -4.0893   -5.2907 C   0  0  0  0  0  0  0  0  0  0  0  0
  -28.9804   -5.3072   -5.8694 C   0  0  0  0  0  0  0  0  0  0  0  0
  -28.6474   -7.5462   -8.2927 C   0  0  0  0  0  0  0  0  0  0  0  0
  -29.5611   -6.5620   -7.8205 O   0  0  0  0  0  0  0  0  0  0  0  0
  -28.2102   -1.9463   -9.5800 N   0  0  0  0  0  0  0  0  0  0  0  0
  -29.0924   -1.4889   -9.8073 H   0  0  0  0  0  0  0  0  0  0  0  0
  -27.2722   -1.9089  -10.6196 C   0  0  0  0  0  0  0  0  0  0  0  0
  -25.9369   -1.6601  -10.3044 C   0  0  0  0  0  0  0  0  0  0  0  0
  -24.9986   -1.4037  -11.3045 C   0  0  0  0  0  0  0  0  0  0  0  0
  -25.3729   -1.3386  -12.6501 C   0  0  0  0  0  0  0  0  0  0  0  0
  -26.7015   -1.6453  -12.9746 C   0  0  0  0  0  0  0  0  0  0  0  0
  -27.2535   -1.6037  -14.6149 Cl  0  0  0  0  0  0  0  0  0  0  0  0
  -27.6389   -1.9193  -11.9691 C   0  0  0  0  0  0  0  0  0  0  0  0
  -24.4709   -0.9221  -13.6711 N   0  0  0  0  0  0  0  0  0  0  0  0
  -23.3403   -0.1638  -13.4495 C   0  0  0  0  0  0  0  0  0  0  0  0
  -22.9437    0.1883  -12.3424 O   0  0  0  0  0  0  0  0  0  0  0  0
  -22.7124    0.2257  -14.6268 N   0  0  0  0  0  0  0  0  0  0  0  0
  -24.7793   -1.0627  -14.6195 H   0  0  0  0  0  0  0  0  0  0  0  0
  -23.3371    0.4189  -15.3955 H   0  0  0  0  0  0  0  0  0  0  0  0
  -21.5577    1.0438  -14.5385 C   0  0  0  0  0  0  0  0  0  0  0  0
  -21.6541    2.3818  -14.1340 C   0  0  0  0  0  0  0  0  0  0  0  0
  -20.5457    3.2234  -14.2026 C   0  0  0  0  0  0  0  0  0  0  0  0
  -19.3328    2.7287  -14.6726 C   0  0  0  0  0  0  0  0  0  0  0  0
  -19.2207    1.3849  -15.0352 C   0  0  0  0  0  0  0  0  0  0  0  0
  -20.3255    0.5327  -14.9448 C   0  0  0  0  0  0  0  0  0  0  0  0
  -29.2002   -6.3135   -4.9453 O   0  0  0  0  0  0  0  0  0  0  0  0
  -28.0512   -7.1234   -4.6689 C   0  0  0  0  0  0  0  0  0  0  0  0
  -28.3730   -8.6306   -4.6270 C   0  0  0  0  0  0  0  0  0  0  0  0
  -27.1535   -9.4676   -4.4928 N   0  0  0  0  0  0  0  0  0  0  0  0
  -25.9708   -8.6808   -4.1021 C   0  0  0  0  0  0  0  0  0  0  0  0
  -24.7109   -9.5417   -4.0696 C   0  0  0  0  0  0  0  0  0  0  0  0
  -24.8769  -10.7181   -3.1234 C   0  0  0  0  0  0  0  0  0  0  0  0
  -26.1468  -11.4906   -3.4630 C   0  0  0  0  0  0  0  0  0  0  0  0
  -27.3716  -10.5702   -3.5418 C   0  0  0  0  0  0  0  0  0  0  0  0
 11 12  1  0  0  0
 12  1  1  0  0  0
  1  2  1  0  0  0
  1 10  2  0  0  0
  2  3  2  0  0  0
  3  4  1  0  0  0
  3  8  1  0  0  0
  4 13  1  0  0  0
  4  5  2  0  0  0
 13 15  1  0  0  0
 13 14  1  0  0  0
 15 16  1  0  0  0
 15 21  2  0  0  0
 16 17  2  0  0  0
 17 18  1  0  0  0
 18 22  1  0  0  0
 18 19  2  0  0  0
 22 23  1  0  0  0
 22 26  1  0  0  0
 23 24  2  0  0  0
 23 25  1  0  0  0
 25 28  1  0  0  0
 25 27  1  0  0  0
 28 29  1  0  0  0
 28 33  2  0  0  0
 29 30  2  0  0  0
 30 31  1  0  0  0
 31 32  2  0  0  0
 32 33  1  0  0  0
 19 20  1  0  0  0
 19 21  1  0  0  0
  5  6  1  0  0  0
  6  7  2  0  0  0
  7  8  1  0  0  0
  8  9  2  0  0  0
  9 10  1  0  0  0
 10 34  1  0  0  0
 34 35  1  0  0  0
 35 36  1  0  0  0
 36 37  1  0  0  0
 37 38  1  0  0  0
 37 42  1  0  0  0
 38 39  1  0  0  0
 39 40  1  0  0  0
 40 41  1  0  0  0
 41 42  1  0  0  0
M  END
> <minimizedAffinity>
-10.63415

$$$$
