CHEMBL369747


 35 38  0  0  0  0  0  0  0  0999 V2000
  -28.1753   -2.6130   -5.2462 C   0  0  0  0  0  0  0  0  0  0  0  0
  -27.7666   -1.3165   -5.5330 C   0  0  0  0  0  0  0  0  0  0  0  0
  -27.6633   -0.9079   -6.8645 C   0  0  0  0  0  0  0  0  0  0  0  0
  -27.8740   -1.8037   -7.9197 C   0  0  0  0  0  0  0  0  0  0  0  0
  -28.1081   -3.1482   -7.6110 C   0  0  0  0  0  0  0  0  0  0  0  0
  -28.2611   -3.5498   -6.2775 C   0  0  0  0  0  0  0  0  0  0  0  0
  -27.9205   -1.4115   -9.2784 N   0  0  0  0  0  0  0  0  0  0  0  0
  -26.8994   -1.5644  -10.1933 C   0  0  0  0  0  0  0  0  0  0  0  0
  -25.8541   -2.1720  -10.0008 O   0  0  0  0  0  0  0  0  0  0  0  0
  -27.1619   -0.9062  -11.3905 N   0  0  0  0  0  0  0  0  0  0  0  0
  -28.7707   -0.9847   -9.6098 H   0  0  0  0  0  0  0  0  0  0  0  0
  -27.6156   -0.0071  -11.2792 H   0  0  0  0  0  0  0  0  0  0  0  0
  -26.2118   -0.9714  -12.4515 C   0  0  0  0  0  0  0  0  0  0  0  0
  -24.9489   -0.3790  -12.3073 C   0  0  0  0  0  0  0  0  0  0  0  0
  -24.0547   -0.3674  -13.3756 C   0  0  0  0  0  0  0  0  0  0  0  0
  -22.5144    0.3791  -13.1930 Cl  0  0  0  0  0  0  0  0  0  0  0  0
  -24.4011   -0.9476  -14.5920 C   0  0  0  0  0  0  0  0  0  0  0  0
  -25.6460   -1.5664  -14.7362 C   0  0  0  0  0  0  0  0  0  0  0  0
  -26.5426   -1.5937  -13.6630 C   0  0  0  0  0  0  0  0  0  0  0  0
  -28.0899   -2.3259  -13.8961 Cl  0  0  0  0  0  0  0  0  0  0  0  0
  -28.5556   -3.0428   -3.9995 O   0  0  0  0  0  0  0  0  0  0  0  0
  -29.0833   -8.2802   -4.2076 C   0  0  0  0  0  0  0  0  0  0  0  0
  -30.2965   -7.6532   -3.9070 C   0  0  0  0  0  0  0  0  0  0  0  0
  -30.4146   -6.2744   -3.7740 C   0  0  0  0  0  0  0  0  0  0  0  0
  -31.6264   -5.7983   -3.4585 N   0  0  0  0  0  0  0  0  0  0  0  0
  -31.7720   -4.4709   -3.3073 C   0  0  0  0  0  0  0  0  0  0  0  0
  -30.7530   -3.5685   -3.4951 C   0  0  0  0  0  0  0  0  0  0  0  0
  -29.4935   -4.0547   -3.8539 C   0  0  0  0  0  0  0  0  0  0  0  0
  -29.2790   -5.4585   -3.9629 C   0  0  0  0  0  0  0  0  0  0  0  0
  -28.0461   -6.1190   -4.2450 C   0  0  0  0  0  0  0  0  0  0  0  0
  -27.9611   -7.4988   -4.4525 C   0  0  0  0  0  0  0  0  0  0  0  0
  -29.3740  -10.2244   -5.4894 C   0  0  0  0  0  0  0  0  0  0  0  0
  -28.9622   -9.6461   -4.2508 O   0  0  0  0  0  0  0  0  0  0  0  0
  -26.7189   -7.9380   -4.8248 O   0  0  0  0  0  0  0  0  0  0  0  0
  -25.9526   -8.5718   -3.8014 C   0  0  0  0  0  0  0  0  0  0  0  0
 32 33  1  0  0  0
 33 22  1  0  0  0
 22 23  1  0  0  0
 22 31  2  0  0  0
 23 24  2  0  0  0
 24 25  1  0  0  0
 24 29  1  0  0  0
 25 26  2  0  0  0
 26 27  1  0  0  0
 27 28  2  0  0  0
 28 21  1  0  0  0
 28 29  1  0  0  0
 21  1  1  0  0  0
  1  2  1  0  0  0
  1  6  2  0  0  0
  2  3  2  0  0  0
  3  4  1  0  0  0
  4  7  1  0  0  0
  4  5  2  0  0  0
  7  8  1  0  0  0
  7 11  1  0  0  0
  8  9  2  0  0  0
  8 10  1  0  0  0
 10 13  1  0  0  0
 10 12  1  0  0  0
 13 14  1  0  0  0
 13 19  2  0  0  0
 14 15  2  0  0  0
 15 16  1  0  0  0
 15 17  1  0  0  0
 17 18  2  0  0  0
 18 19  1  0  0  0
 19 20  1  0  0  0
  5  6  1  0  0  0
 29 30  2  0  0  0
 30 31  1  0  0  0
 31 34  1  0  0  0
 34 35  1  0  0  0
M  END
> <minimizedAffinity>
-8.97795

$$$$
