CHEMBL250842


 25 27  0  0  0  0  0  0  0  0999 V2000
  -28.4088   -2.1455   -7.0741 C   0  0  0  0  0  0  0  0  0  0  0  0
  -27.8999   -0.6874   -6.3057 S   0  0  0  0  0  0  0  0  0  0  0  0
  -28.9720   -0.9066   -5.0024 C   0  0  0  0  0  0  0  0  0  0  0  0
  -29.6940   -2.0696   -5.1240 C   0  0  0  0  0  0  0  0  0  0  0  0
  -29.3541   -2.8050   -6.2984 C   0  0  0  0  0  0  0  0  0  0  0  0
  -27.6723   -3.7279   -8.6627 O   0  0  0  0  0  0  0  0  0  0  0  0
  -27.8434   -2.5460   -8.3687 C   0  0  0  0  0  0  0  0  0  0  0  0
  -27.4791   -1.4869   -9.1957 N   0  0  0  0  0  0  0  0  0  0  0  0
  -27.5450   -0.5701   -8.7709 H   0  0  0  0  0  0  0  0  0  0  0  0
  -26.9242   -1.5427  -10.4889 C   0  0  0  0  0  0  0  0  0  0  0  0
  -25.5586   -1.4201  -10.7528 C   0  0  0  0  0  0  0  0  0  0  0  0
  -25.0848   -1.4448  -12.0701 C   0  0  0  0  0  0  0  0  0  0  0  0
  -25.9774   -1.5893  -13.1279 C   0  0  0  0  0  0  0  0  0  0  0  0
  -25.3994   -1.5674  -14.7481 Cl  0  0  0  0  0  0  0  0  0  0  0  0
  -27.3378   -1.7454  -12.8790 C   0  0  0  0  0  0  0  0  0  0  0  0
  -27.8073   -1.7367  -11.5613 C   0  0  0  0  0  0  0  0  0  0  0  0
  -29.9266   -3.9935   -6.6361 N   0  0  0  0  0  0  0  0  0  0  0  0
  -30.2317   -4.1274   -7.6052 H   0  0  0  0  0  0  0  0  0  0  0  0
  -29.6175   -5.2468   -5.9572 C   0  0  0  0  0  0  0  0  0  0  0  0
  -29.8462   -6.4542   -6.8350 C   0  0  0  0  0  0  0  0  0  0  0  0
  -28.8346   -6.8759   -7.7113 C   0  0  0  0  0  0  0  0  0  0  0  0
  -29.0285   -8.0288   -8.4595 C   0  0  0  0  0  0  0  0  0  0  0  0
  -30.1402   -8.7894   -8.3919 N   0  0  0  0  0  0  0  0  0  0  0  0
  -31.1016   -8.3746   -7.5394 C   0  0  0  0  0  0  0  0  0  0  0  0
  -31.0002   -7.2404   -6.7487 C   0  0  0  0  0  0  0  0  0  0  0  0
  6  7  2  0  0  0
  7  8  1  0  0  0
  7  1  1  0  0  0
  8 10  1  0  0  0
  8  9  1  0  0  0
 10 11  1  0  0  0
 10 16  2  0  0  0
 11 12  2  0  0  0
 12 13  1  0  0  0
 13 14  1  0  0  0
 13 15  2  0  0  0
 15 16  1  0  0  0
  1  2  1  0  0  0
  1  5  2  0  0  0
  2  3  1  0  0  0
  3  4  2  0  0  0
  4  5  1  0  0  0
  5 17  1  0  0  0
 17 19  1  0  0  0
 17 18  1  0  0  0
 19 20  1  0  0  0
 20 21  1  0  0  0
 20 25  2  0  0  0
 21 22  2  0  0  0
 22 23  1  0  0  0
 23 24  2  0  0  0
 24 25  1  0  0  0
M  END
> <minimizedAffinity>
-7.94024

$$$$
