CHEMBL3656082


 49 53  0  0  0  0  0  0  0  0999 V2000
  -29.1630   -4.7332   -4.0450 C   0  0  0  0  0  0  0  0  0  0  0  0
  -30.4428   -4.9803   -3.5559 C   0  0  0  0  0  0  0  0  0  0  0  0
  -30.8080   -6.2944   -3.3204 C   0  0  0  0  0  0  0  0  0  0  0  0
  -30.0157   -7.3555   -3.5831 N   0  0  0  0  0  0  0  0  0  0  0  0
  -28.7980   -7.0935   -4.1162 C   0  0  0  0  0  0  0  0  0  0  0  0
  -28.3413   -5.8055   -4.3675 C   0  0  0  0  0  0  0  0  0  0  0  0
  -27.9938   -8.2760   -4.4042 C   0  0  0  0  0  0  0  0  0  0  0  0
  -27.5209   -9.2873   -3.5864 C   0  0  0  0  0  0  0  0  0  0  0  0
  -26.7542  -10.2042   -4.3676 C   0  0  0  0  0  0  0  0  0  0  0  0
  -26.8077   -9.7192   -5.6637 C   0  0  0  0  0  0  0  0  0  0  0  0
  -27.5517   -8.5703   -5.6763 N   0  0  0  0  0  0  0  0  0  0  0  0
  -27.7584   -7.9955   -6.4839 H   0  0  0  0  0  0  0  0  0  0  0  0
  -26.0326  -11.4099   -3.9604 C   0  0  0  0  0  0  0  0  0  0  0  0
  -25.8900  -12.3749   -4.7055 O   0  0  0  0  0  0  0  0  0  0  0  0
  -25.5154  -11.3720   -2.6830 N   0  0  0  0  0  0  0  0  0  0  0  0
  -25.6377  -10.5475   -2.1125 H   0  0  0  0  0  0  0  0  0  0  0  0
  -24.7381  -12.4555   -2.1294 C   0  0  0  0  0  0  0  0  0  0  0  0
  -23.3075  -12.0311   -1.7823 C   0  0  0  0  0  0  0  0  0  0  0  0
  -22.7207  -10.9872   -2.7370 C   0  0  0  0  0  0  0  0  0  0  0  0
  -21.8352  -11.6445   -3.7768 C   0  0  0  0  0  0  0  0  0  0  0  0
  -20.9487  -12.4257   -3.4286 O   0  0  0  0  0  0  0  0  0  0  0  0
  -22.1327  -11.4152   -5.0996 N   0  0  0  0  0  0  0  0  0  0  0  0
  -21.4428  -12.1331   -6.1603 C   0  0  0  0  0  0  0  0  0  0  0  0
  -21.8880  -11.4674   -7.4593 C   0  0  0  0  0  0  0  0  0  0  0  0
  -23.2082  -10.7981   -7.0924 C   0  0  0  0  0  0  0  0  0  0  0  0
  -24.2755  -11.7422   -7.1786 O   0  0  0  0  0  0  0  0  0  0  0  0
  -22.9926  -10.3694   -5.6434 C   0  0  0  0  0  0  0  0  0  0  0  0
  -24.1484  -12.3995   -6.4705 H   0  0  0  0  0  0  0  0  0  0  0  0
  -28.6594   -3.4739   -4.2836 O   0  0  0  0  0  0  0  0  0  0  0  0
  -28.2386   -1.9425   -8.1567 C   0  0  0  0  0  0  0  0  0  0  0  0
  -28.7716   -3.2239   -7.9815 C   0  0  0  0  0  0  0  0  0  0  0  0
  -28.9452   -3.7525   -6.7013 C   0  0  0  0  0  0  0  0  0  0  0  0
  -28.5300   -3.0284   -5.5828 C   0  0  0  0  0  0  0  0  0  0  0  0
  -28.0030   -1.7441   -5.7550 C   0  0  0  0  0  0  0  0  0  0  0  0
  -27.8325   -1.2091   -7.0412 C   0  0  0  0  0  0  0  0  0  0  0  0
  -27.0710   -0.8830  -11.4239 N   0  0  0  0  0  0  0  0  0  0  0  0
  -27.0432   -1.5565  -10.2165 C   0  0  0  0  0  0  0  0  0  0  0  0
  -26.1475   -2.3165   -9.8511 O   0  0  0  0  0  0  0  0  0  0  0  0
  -28.1892   -1.3600   -9.4527 N   0  0  0  0  0  0  0  0  0  0  0  0
  -27.9326   -0.4295  -11.6740 H   0  0  0  0  0  0  0  0  0  0  0  0
  -29.0460   -1.3943   -9.9828 H   0  0  0  0  0  0  0  0  0  0  0  0
  -22.4489    0.3404  -12.7423 C   0  0  0  0  0  0  0  0  0  0  0  0
  -23.7673   -0.3046  -13.0640 C   0  0  0  0  0  0  0  0  0  0  0  0
  -23.9681   -0.8654  -14.3289 C   0  0  0  0  0  0  0  0  0  0  0  0
  -25.1712   -1.4911  -14.6265 C   0  0  0  0  0  0  0  0  0  0  0  0
  -26.1835   -1.5472  -13.6733 C   0  0  0  0  0  0  0  0  0  0  0  0
  -27.2482   -2.2904  -14.0004 F   0  0  0  0  0  0  0  0  0  0  0  0
  -26.0458   -0.9413  -12.4155 C   0  0  0  0  0  0  0  0  0  0  0  0
  -24.8071   -0.3460  -12.1106 C   0  0  0  0  0  0  0  0  0  0  0  0
 42 43  1  0  0  0
 43 44  1  0  0  0
 43 49  2  0  0  0
 44 45  2  0  0  0
 45 46  1  0  0  0
 46 47  1  0  0  0
 46 48  2  0  0  0
 48 36  1  0  0  0
 48 49  1  0  0  0
 36 37  1  0  0  0
 36 40  1  0  0  0
 37 38  2  0  0  0
 37 39  1  0  0  0
 39 30  1  0  0  0
 39 41  1  0  0  0
 30 31  1  0  0  0
 30 35  2  0  0  0
 31 32  2  0  0  0
 32 33  1  0  0  0
 33 29  1  0  0  0
 33 34  2  0  0  0
 29  1  1  0  0  0
  1  2  1  0  0  0
  1  6  2  0  0  0
  2  3  2  0  0  0
  3  4  1  0  0  0
  4  5  2  0  0  0
  5  7  1  0  0  0
  5  6  1  0  0  0
  7  8  2  0  0  0
  7 11  1  0  0  0
  8  9  1  0  0  0
  9 13  1  0  0  0
  9 10  2  0  0  0
 13 14  2  0  0  0
 13 15  1  0  0  0
 15 17  1  0  0  0
 15 16  1  0  0  0
 17 18  1  0  0  0
 18 19  1  0  0  0
 19 20  1  0  0  0
 20 21  2  0  0  0
 20 22  1  0  0  0
 22 23  1  0  0  0
 22 27  1  0  0  0
 23 24  1  0  0  0
 24 25  1  0  0  0
 25 26  1  0  0  0
 25 27  1  0  0  0
 26 28  1  0  0  0
 10 11  1  0  0  0
 11 12  1  0  0  0
 34 35  1  0  0  0
M  END
> <minimizedAffinity>
-10.60964

$$$$
