CHEMBL4083050


 32 35  0  0  0  0  0  0  0  0999 V2000
  -15.0606   -2.2458  -12.7645 C   0  0  0  0  0  0  0  0  0  0  0  0
  -13.6720   -2.3021  -12.8695 C   0  0  0  0  0  0  0  0  0  0  0  0
  -12.9052   -3.0075  -11.9410 C   0  0  0  0  0  0  0  0  0  0  0  0
  -13.4756   -3.6132  -10.8107 C   0  0  0  0  0  0  0  0  0  0  0  0
  -14.8444   -3.3803  -10.6210 C   0  0  0  0  0  0  0  0  0  0  0  0
  -15.6396   -2.7390  -11.5964 C   0  0  0  0  0  0  0  0  0  0  0  0
  -12.6208   -4.4069   -9.9000 C   0  0  0  0  0  0  0  0  0  0  0  0
  -12.2803   -3.8979   -8.6201 C   0  0  0  0  0  0  0  0  0  0  0  0
  -11.4201   -4.5835   -7.7783 C   0  0  0  0  0  0  0  0  0  0  0  0
  -10.8693   -5.7748   -8.0533 N   0  0  0  0  0  0  0  0  0  0  0  0
  -11.2143   -6.2446   -9.2645 C   0  0  0  0  0  0  0  0  0  0  0  0
  -10.7856   -7.4312   -9.7662 N   0  0  0  0  0  0  0  0  0  0  0  0
  -11.2204   -7.6888  -11.0067 N   0  0  0  0  0  0  0  0  0  0  0  0
  -11.9263   -6.5872  -11.3306 C   0  0  0  0  0  0  0  0  0  0  0  0
  -12.0278   -5.6587  -10.2354 C   0  0  0  0  0  0  0  0  0  0  0  0
  -10.1802   -8.0954   -9.3001 H   0  0  0  0  0  0  0  0  0  0  0  0
  -12.4589   -6.5222  -12.7254 C   0  0  0  0  0  0  0  0  0  0  0  0
  -13.8866   -6.4593  -12.7507 O   0  0  0  0  0  0  0  0  0  0  0  0
  -14.1791   -7.2437  -12.2503 H   0  0  0  0  0  0  0  0  0  0  0  0
  -17.2191   -0.1420  -14.8506 N   0  0  0  0  0  0  0  0  0  0  0  0
  -16.3653   -0.4310  -13.7985 C   0  0  0  0  0  0  0  0  0  0  0  0
  -16.0655    0.3802  -12.9293 O   0  0  0  0  0  0  0  0  0  0  0  0
  -15.8734   -1.7306  -13.8167 N   0  0  0  0  0  0  0  0  0  0  0  0
  -17.3667   -0.8535  -15.5502 H   0  0  0  0  0  0  0  0  0  0  0  0
  -15.8066   -2.1935  -14.7120 H   0  0  0  0  0  0  0  0  0  0  0  0
  -21.3947    2.5105  -14.3475 C   0  0  0  0  0  0  0  0  0  0  0  0
  -19.9577    2.4042  -14.7804 C   0  0  0  0  0  0  0  0  0  0  0  0
  -19.3240    3.5173  -15.3454 C   0  0  0  0  0  0  0  0  0  0  0  0
  -17.9987    3.4316  -15.7446 C   0  0  0  0  0  0  0  0  0  0  0  0
  -17.3009    2.2335  -15.5831 C   0  0  0  0  0  0  0  0  0  0  0  0
  -17.9010    1.0972  -15.0283 C   0  0  0  0  0  0  0  0  0  0  0  0
  -19.2397    1.1985  -14.6209 C   0  0  0  0  0  0  0  0  0  0  0  0
 26 27  1  0  0  0
 27 28  1  0  0  0
 27 32  2  0  0  0
 28 29  2  0  0  0
 29 30  1  0  0  0
 30 31  2  0  0  0
 31 20  1  0  0  0
 31 32  1  0  0  0
 20 21  1  0  0  0
 20 24  1  0  0  0
 21 22  2  0  0  0
 21 23  1  0  0  0
 23  1  1  0  0  0
 23 25  1  0  0  0
  1  2  1  0  0  0
  1  6  2  0  0  0
  2  3  2  0  0  0
  3  4  1  0  0  0
  4  7  1  0  0  0
  4  5  2  0  0  0
  7  8  1  0  0  0
  7 15  2  0  0  0
  8  9  2  0  0  0
  9 10  1  0  0  0
 10 11  2  0  0  0
 11 12  1  0  0  0
 11 15  1  0  0  0
 12 13  1  0  0  0
 12 16  1  0  0  0
 13 14  2  0  0  0
 14 17  1  0  0  0
 14 15  1  0  0  0
 17 18  1  0  0  0
 18 19  1  0  0  0
  5  6  1  0  0  0
M  END
> <minimizedAffinity>
-8.96145

$$$$
