CHEMBL212962


 27 31  0  0  0  0  0  0  0  0999 V2000
  -29.9040   -7.0508   -7.1452 C   0  0  0  0  0  0  0  0  0  0  0  0
  -28.6807   -7.0255   -7.8126 C   0  0  0  0  0  0  0  0  0  0  0  0
  -28.3896   -7.9678   -8.7992 C   0  0  0  0  0  0  0  0  0  0  0  0
  -29.2819   -9.0014   -9.1500 C   0  0  0  0  0  0  0  0  0  0  0  0
  -30.4563   -9.0965   -8.3930 C   0  0  0  0  0  0  0  0  0  0  0  0
  -30.7700   -8.1224   -7.4125 C   0  0  0  0  0  0  0  0  0  0  0  0
  -28.8471  -10.0137  -10.1860 C   0  0  0  0  0  0  0  0  0  0  0  0
  -27.8632   -9.6308  -11.1214 N   0  0  0  0  0  0  0  0  0  0  0  0
  -26.6311   -9.9477  -10.6072 N   0  0  0  0  0  0  0  0  0  0  0  0
  -26.9806  -10.9548   -9.8041 C   0  0  0  0  0  0  0  0  0  0  0  0
  -28.3564  -11.3211   -9.9850 C   0  0  0  0  0  0  0  0  0  0  0  0
  -28.7006  -12.4540   -9.0640 C   0  0  0  0  0  0  0  0  0  0  0  0
  -27.7781  -12.0220   -7.9403 C   0  0  0  0  0  0  0  0  0  0  0  0
  -28.1431  -12.0419   -6.6018 C   0  0  0  0  0  0  0  0  0  0  0  0
  -27.4517  -11.2013   -5.7362 C   0  0  0  0  0  0  0  0  0  0  0  0
  -26.3743  -10.4138   -6.1881 C   0  0  0  0  0  0  0  0  0  0  0  0
  -25.9694  -10.4339   -7.5345 C   0  0  0  0  0  0  0  0  0  0  0  0
  -26.6815  -11.2333   -8.4027 C   0  0  0  0  0  0  0  0  0  0  0  0
  -27.9248   -8.8381  -11.7467 H   0  0  0  0  0  0  0  0  0  0  0  0
  -30.2657   -5.9117   -6.2057 C   0  0  0  0  0  0  0  0  0  0  0  0
  -28.7582   -2.4739   -3.2963 C   0  0  0  0  0  0  0  0  0  0  0  0
  -29.2102   -3.8640   -3.2790 N   0  0  0  0  0  0  0  0  0  0  0  0
  -30.5901   -3.9675   -3.7816 C   0  0  0  0  0  0  0  0  0  0  0  0
  -31.0588   -5.4357   -3.9021 C   0  0  0  0  0  0  0  0  0  0  0  0
  -30.2086   -6.2786   -4.7735 N   0  0  0  0  0  0  0  0  0  0  0  0
  -28.8265   -6.1756   -4.2466 C   0  0  0  0  0  0  0  0  0  0  0  0
  -28.2990   -4.7276   -4.0545 C   0  0  0  0  0  0  0  0  0  0  0  0
 21 22  1  0  0  0
 22 23  1  0  0  0
 22 27  1  0  0  0
 23 24  1  0  0  0
 24 25  1  0  0  0
 25 20  1  0  0  0
 25 26  1  0  0  0
 20  1  1  0  0  0
  1  2  1  0  0  0
  1  6  2  0  0  0
  2  3  2  0  0  0
  3  4  1  0  0  0
  4  7  1  0  0  0
  4  5  2  0  0  0
  7  8  1  0  0  0
  7 11  2  0  0  0
  8  9  1  0  0  0
  8 19  1  0  0  0
  9 10  2  0  0  0
 10 11  1  0  0  0
 10 18  1  0  0  0
 11 12  1  0  0  0
 12 13  1  0  0  0
 13 14  1  0  0  0
 13 18  2  0  0  0
 14 15  2  0  0  0
 15 16  1  0  0  0
 16 17  2  0  0  0
 17 18  1  0  0  0
  5  6  1  0  0  0
 26 27  1  0  0  0
M  END
> <minimizedAffinity>
-7.83621

$$$$
