CHEMBL3133751


 47 51  0  0  0  0  0  0  0  0999 V2000
  -29.6579   -7.5616   -4.6356 N   0  0  0  0  0  0  0  0  0  0  0  0
  -30.5319   -7.9837   -4.9354 H   0  0  0  0  0  0  0  0  0  0  0  0
  -26.8021  -10.5927   -7.6148 C   0  0  0  0  0  0  0  0  0  0  0  0
  -26.6152  -10.9313   -6.2696 C   0  0  0  0  0  0  0  0  0  0  0  0
  -27.2023  -10.2327   -5.2312 C   0  0  0  0  0  0  0  0  0  0  0  0
  -26.9965  -10.6851   -3.9965 N   0  0  0  0  0  0  0  0  0  0  0  0
  -27.6531  -10.0640   -3.0166 C   0  0  0  0  0  0  0  0  0  0  0  0
  -28.4952   -9.0377   -3.1702 N   0  0  0  0  0  0  0  0  0  0  0  0
  -28.6855   -8.5765   -4.4208 C   0  0  0  0  0  0  0  0  0  0  0  0
  -28.0123   -9.1314   -5.5221 C   0  0  0  0  0  0  0  0  0  0  0  0
  -28.1711   -8.7346   -6.8650 C   0  0  0  0  0  0  0  0  0  0  0  0
  -27.6437   -9.5042   -7.9050 C   0  0  0  0  0  0  0  0  0  0  0  0
  -24.9026  -11.8092   -8.4681 C   0  0  0  0  0  0  0  0  0  0  0  0
  -26.2247  -11.2902   -8.6417 O   0  0  0  0  0  0  0  0  0  0  0  0
  -28.0451   -9.0723   -9.1416 O   0  0  0  0  0  0  0  0  0  0  0  0
  -29.3853   -9.4163   -9.5150 C   0  0  0  0  0  0  0  0  0  0  0  0
  -29.5456  -10.9488   -9.5901 C   0  0  0  0  0  0  0  0  0  0  0  0
  -30.8024  -11.3719   -8.8231 C   0  0  0  0  0  0  0  0  0  0  0  0
  -30.8130  -11.1782   -7.3614 N   0  0  0  0  0  0  0  0  0  0  0  0
  -31.5341  -12.3203   -6.7310 C   0  0  0  0  0  0  0  0  0  0  0  0
  -33.0592  -12.2975   -6.9658 C   0  0  0  0  0  0  0  0  0  0  0  0
  -33.6384  -11.0653   -6.5185 O   0  0  0  0  0  0  0  0  0  0  0  0
  -33.0119   -9.9448   -7.1584 C   0  0  0  0  0  0  0  0  0  0  0  0
  -31.4928   -9.9411   -6.9157 C   0  0  0  0  0  0  0  0  0  0  0  0
  -29.4113   -6.3113   -5.2399 C   0  0  0  0  0  0  0  0  0  0  0  0
  -30.2477   -5.8388   -6.2455 C   0  0  0  0  0  0  0  0  0  0  0  0
  -29.9371   -4.6565   -6.9347 C   0  0  0  0  0  0  0  0  0  0  0  0
  -28.8089   -3.9050   -6.6272 C   0  0  0  0  0  0  0  0  0  0  0  0
  -28.0396   -4.2999   -5.5269 C   0  0  0  0  0  0  0  0  0  0  0  0
  -28.3514   -5.4841   -4.8407 C   0  0  0  0  0  0  0  0  0  0  0  0
  -28.3764   -2.7761   -7.3928 N   0  0  0  0  0  0  0  0  0  0  0  0
  -27.8868   -2.8383   -8.6977 C   0  0  0  0  0  0  0  0  0  0  0  0
  -27.8411   -3.8504   -9.3900 O   0  0  0  0  0  0  0  0  0  0  0  0
  -27.4192   -1.6129   -9.1558 N   0  0  0  0  0  0  0  0  0  0  0  0
  -28.4246   -1.8766   -6.9535 H   0  0  0  0  0  0  0  0  0  0  0  0
  -26.9777   -1.0504   -8.4474 H   0  0  0  0  0  0  0  0  0  0  0  0
  -26.8312   -1.5361  -10.4579 C   0  0  0  0  0  0  0  0  0  0  0  0
  -27.6485   -1.5377  -11.5748 C   0  0  0  0  0  0  0  0  0  0  0  0
  -27.0816   -1.4649  -12.8550 C   0  0  0  0  0  0  0  0  0  0  0  0
  -25.6897   -1.4114  -13.0231 C   0  0  0  0  0  0  0  0  0  0  0  0
  -25.1172   -1.4075  -14.6513 Cl  0  0  0  0  0  0  0  0  0  0  0  0
  -24.8464   -1.3822  -11.9091 C   0  0  0  0  0  0  0  0  0  0  0  0
  -25.4357   -1.4558  -10.6334 C   0  0  0  0  0  0  0  0  0  0  0  0
  -23.3461   -1.2552  -11.9831 C   0  0  0  0  0  0  0  0  0  0  0  0
  -22.7685   -1.6099  -13.1617 F   0  0  0  0  0  0  0  0  0  0  0  0
  -22.9276    0.0233  -11.7547 F   0  0  0  0  0  0  0  0  0  0  0  0
  -22.7218   -2.0157  -11.0372 F   0  0  0  0  0  0  0  0  0  0  0  0
 13 14  1  0  0  0
 14  3  1  0  0  0
  3  4  1  0  0  0
  3 12  2  0  0  0
  4  5  2  0  0  0
  5  6  1  0  0  0
  5 10  1  0  0  0
  6  7  2  0  0  0
  7  8  1  0  0  0
  8  9  2  0  0  0
  9  1  1  0  0  0
  9 10  1  0  0  0
  1 25  1  0  0  0
  1  2  1  0  0  0
 25 26  1  0  0  0
 25 30  2  0  0  0
 26 27  2  0  0  0
 27 28  1  0  0  0
 28 31  1  0  0  0
 28 29  2  0  0  0
 31 32  1  0  0  0
 31 35  1  0  0  0
 32 33  2  0  0  0
 32 34  1  0  0  0
 34 37  1  0  0  0
 34 36  1  0  0  0
 37 38  1  0  0  0
 37 43  2  0  0  0
 38 39  2  0  0  0
 39 40  1  0  0  0
 40 41  1  0  0  0
 40 42  2  0  0  0
 42 44  1  0  0  0
 42 43  1  0  0  0
 44 45  1  0  0  0
 44 46  1  0  0  0
 44 47  1  0  0  0
 29 30  1  0  0  0
 10 11  2  0  0  0
 11 12  1  0  0  0
 12 15  1  0  0  0
 15 16  1  0  0  0
 16 17  1  0  0  0
 17 18  1  0  0  0
 18 19  1  0  0  0
 19 20  1  0  0  0
 19 24  1  0  0  0
 20 21  1  0  0  0
 21 22  1  0  0  0
 22 23  1  0  0  0
 23 24  1  0  0  0
M  END
> <minimizedAffinity>
-9.05162

$$$$
