CHEMBL4540917


 37 40  0  0  0  0  0  0  0  0999 V2000
  -26.5182   -1.7341  -11.2248 C   0  0  0  0  0  0  0  0  0  0  0  0
  -25.2701   -1.2457  -10.8452 C   0  0  0  0  0  0  0  0  0  0  0  0
  -24.3383   -0.8626  -11.8164 C   0  0  0  0  0  0  0  0  0  0  0  0
  -24.6136   -0.9690  -13.1822 C   0  0  0  0  0  0  0  0  0  0  0  0
  -25.8631   -1.4736  -13.5662 C   0  0  0  0  0  0  0  0  0  0  0  0
  -26.8040   -1.8582  -12.5931 C   0  0  0  0  0  0  0  0  0  0  0  0
  -23.6951   -0.5816  -14.1934 N   0  0  0  0  0  0  0  0  0  0  0  0
  -22.5355    0.1488  -13.9890 C   0  0  0  0  0  0  0  0  0  0  0  0
  -22.1004    0.4873  -12.8942 O   0  0  0  0  0  0  0  0  0  0  0  0
  -21.9241    0.5200  -15.1832 N   0  0  0  0  0  0  0  0  0  0  0  0
  -23.8314   -0.9696  -15.1162 H   0  0  0  0  0  0  0  0  0  0  0  0
  -22.5678    0.7215  -15.9345 H   0  0  0  0  0  0  0  0  0  0  0  0
  -20.7389    1.2985  -15.1467 C   0  0  0  0  0  0  0  0  0  0  0  0
  -20.7893    2.6993  -15.1370 C   0  0  0  0  0  0  0  0  0  0  0  0
  -19.6146    3.4526  -15.1968 C   0  0  0  0  0  0  0  0  0  0  0  0
  -18.3866    2.8035  -15.2757 C   0  0  0  0  0  0  0  0  0  0  0  0
  -16.9390    3.7253  -15.3999 Cl  0  0  0  0  0  0  0  0  0  0  0  0
  -18.3242    1.4099  -15.2645 C   0  0  0  0  0  0  0  0  0  0  0  0
  -19.4998    0.6551  -15.1741 C   0  0  0  0  0  0  0  0  0  0  0  0
  -27.0683   -3.0142   -9.2052 N   0  0  0  0  0  0  0  0  0  0  0  0
  -27.5284   -2.1771  -10.2178 C   0  0  0  0  0  0  0  0  0  0  0  0
  -28.6861   -1.7803  -10.3291 O   0  0  0  0  0  0  0  0  0  0  0  0
  -26.0803   -3.2440   -9.0995 H   0  0  0  0  0  0  0  0  0  0  0  0
  -30.6312   -4.4574   -4.8635 C   0  0  0  0  0  0  0  0  0  0  0  0
  -30.6566   -3.3982   -3.9253 C   0  0  0  0  0  0  0  0  0  0  0  0
  -29.9222   -2.2183   -4.1241 C   0  0  0  0  0  0  0  0  0  0  0  0
  -29.1672   -2.1338   -5.2729 C   0  0  0  0  0  0  0  0  0  0  0  0
  -29.1478   -3.1792   -6.1920 C   0  0  0  0  0  0  0  0  0  0  0  0
  -29.8648   -4.3464   -6.0236 C   0  0  0  0  0  0  0  0  0  0  0  0
  -28.2491   -2.7859   -7.2675 C   0  0  0  0  0  0  0  0  0  0  0  0
  -27.9575   -3.5162   -8.2947 N   0  0  0  0  0  0  0  0  0  0  0  0
  -27.7415   -1.3933   -6.8929 C   0  0  0  0  0  0  0  0  0  0  0  0
  -26.9648   -0.7439   -7.5565 O   0  0  0  0  0  0  0  0  0  0  0  0
  -28.3466   -1.0891   -5.6873 N   0  0  0  0  0  0  0  0  0  0  0  0
  -28.1971   -0.2204   -5.1927 H   0  0  0  0  0  0  0  0  0  0  0  0
  -31.9852   -5.5190   -3.2279 C   0  0  0  0  0  0  0  0  0  0  0  0
  -31.3944   -5.5430   -4.5248 O   0  0  0  0  0  0  0  0  0  0  0  0
 36 37  1  0  0  0
 37 24  1  0  0  0
 24 25  1  0  0  0
 24 29  2  0  0  0
 25 26  2  0  0  0
 26 27  1  0  0  0
 27 28  2  0  0  0
 27 34  1  0  0  0
 28 29  1  0  0  0
 28 30  1  0  0  0
 30 31  2  0  0  0
 30 32  1  0  0  0
 31 20  1  0  0  0
 20 21  1  0  0  0
 20 23  1  0  0  0
 21 22  2  0  0  0
 21  1  1  0  0  0
  1  2  1  0  0  0
  1  6  2  0  0  0
  2  3  2  0  0  0
  3  4  1  0  0  0
  4  7  1  0  0  0
  4  5  2  0  0  0
  7  8  1  0  0  0
  7 11  1  0  0  0
  8  9  2  0  0  0
  8 10  1  0  0  0
 10 13  1  0  0  0
 10 12  1  0  0  0
 13 14  1  0  0  0
 13 19  2  0  0  0
 14 15  2  0  0  0
 15 16  1  0  0  0
 16 17  1  0  0  0
 16 18  2  0  0  0
 18 19  1  0  0  0
  5  6  1  0  0  0
 32 33  2  0  0  0
 32 34  1  0  0  0
 34 35  1  0  0  0
M  END
> <minimizedAffinity>
-10.95500

$$$$
