CHEMBL494084


 33 36  0  0  0  0  0  0  0  0999 V2000
  -30.6559   -9.5204   -8.3514 C   0  0  0  0  0  0  0  0  0  0  0  0
  -32.0334   -9.7906   -8.3389 C   0  0  0  0  0  0  0  0  0  0  0  0
  -32.8935   -9.0728   -7.5036 C   0  0  0  0  0  0  0  0  0  0  0  0
  -32.3953   -8.0595   -6.6865 C   0  0  0  0  0  0  0  0  0  0  0  0
  -31.0257   -7.7738   -6.6787 C   0  0  0  0  0  0  0  0  0  0  0  0
  -30.1502   -8.5100   -7.5132 C   0  0  0  0  0  0  0  0  0  0  0  0
  -28.6853   -8.1817   -7.3613 C   0  0  0  0  0  0  0  0  0  0  0  0
  -28.4234   -8.0167   -5.8601 C   0  0  0  0  0  0  0  0  0  0  0  0
  -29.1164   -6.8659   -5.2608 N   0  0  0  0  0  0  0  0  0  0  0  0
  -30.4627   -6.6341   -5.8445 C   0  0  0  0  0  0  0  0  0  0  0  0
  -29.4947   -9.7411  -10.4861 N   0  0  0  0  0  0  0  0  0  0  0  0
  -29.7594  -10.3042   -9.2555 C   0  0  0  0  0  0  0  0  0  0  0  0
  -29.2996  -11.3851   -8.9055 O   0  0  0  0  0  0  0  0  0  0  0  0
  -29.8439   -8.8216  -10.7200 H   0  0  0  0  0  0  0  0  0  0  0  0
  -28.5670  -10.3626  -11.4156 C   0  0  0  0  0  0  0  0  0  0  0  0
  -27.1083  -10.0833  -11.0519 C   0  0  0  0  0  0  0  0  0  0  0  0
  -27.0082   -9.0568  -13.1780 C   0  0  0  0  0  0  0  0  0  0  0  0
  -26.6402   -8.9612  -11.8083 O   0  0  0  0  0  0  0  0  0  0  0  0
  -28.3241   -5.6238   -5.3266 C   0  0  0  0  0  0  0  0  0  0  0  0
  -28.9931   -4.3795   -4.7833 C   0  0  0  0  0  0  0  0  0  0  0  0
  -29.8303   -4.4988   -3.6621 C   0  0  0  0  0  0  0  0  0  0  0  0
  -30.3734   -3.3560   -3.1142 C   0  0  0  0  0  0  0  0  0  0  0  0
  -30.1274   -2.1179   -3.5817 N   0  0  0  0  0  0  0  0  0  0  0  0
  -29.3370   -1.9935   -4.6591 C   0  0  0  0  0  0  0  0  0  0  0  0
  -29.0606   -0.7165   -5.1247 C   0  0  0  0  0  0  0  0  0  0  0  0
  -28.2764   -0.4355   -6.2670 C   0  0  0  0  0  0  0  0  0  0  0  0
  -27.7824   -1.5110   -6.9996 C   0  0  0  0  0  0  0  0  0  0  0  0
  -28.0237   -2.8146   -6.5172 C   0  0  0  0  0  0  0  0  0  0  0  0
  -28.7672   -3.0830   -5.3342 C   0  0  0  0  0  0  0  0  0  0  0  0
  -28.2576    0.9134   -6.4550 O   0  0  0  0  0  0  0  0  0  0  0  0
  -29.4080    1.6691   -6.7359 C   0  0  0  0  0  0  0  0  0  0  0  0
  -27.2837   -1.5342   -8.2726 O   0  0  0  0  0  0  0  0  0  0  0  0
  -27.9600   -2.2555   -9.2884 C   0  0  0  0  0  0  0  0  0  0  0  0
 17 18  1  0  0  0
 18 16  1  0  0  0
 16 15  1  0  0  0
 15 11  1  0  0  0
 11 12  1  0  0  0
 11 14  1  0  0  0
 12 13  2  0  0  0
 12  1  1  0  0  0
  1  2  1  0  0  0
  1  6  2  0  0  0
  2  3  2  0  0  0
  3  4  1  0  0  0
  4  5  2  0  0  0
  5  6  1  0  0  0
  5 10  1  0  0  0
  6  7  1  0  0  0
  7  8  1  0  0  0
  8  9  1  0  0  0
  9 19  1  0  0  0
  9 10  1  0  0  0
 19 20  1  0  0  0
 20 21  1  0  0  0
 20 29  2  0  0  0
 21 22  2  0  0  0
 22 23  1  0  0  0
 23 24  2  0  0  0
 24 25  1  0  0  0
 24 29  1  0  0  0
 25 26  2  0  0  0
 26 30  1  0  0  0
 26 27  1  0  0  0
 30 31  1  0  0  0
 27 32  1  0  0  0
 27 28  2  0  0  0
 32 33  1  0  0  0
 28 29  1  0  0  0
M  END
> <minimizedAffinity>
-8.81044

$$$$
