CHEMBL3287313


 46 50  0  0  0  0  0  0  0  0999 V2000
  -29.3996   11.2988  -14.0379 C   0  0  0  0  0  0  0  0  0  0  0  0
  -30.1331   12.2219  -14.7868 C   0  0  0  0  0  0  0  0  0  0  0  0
  -31.5300   12.2148  -14.7406 C   0  0  0  0  0  0  0  0  0  0  0  0
  -32.2040   11.2806  -13.9468 C   0  0  0  0  0  0  0  0  0  0  0  0
  -31.4550   10.3582  -13.2112 C   0  0  0  0  0  0  0  0  0  0  0  0
  -32.0746    9.4860  -12.4008 F   0  0  0  0  0  0  0  0  0  0  0  0
  -30.0582   10.3420  -13.2679 C   0  0  0  0  0  0  0  0  0  0  0  0
  -27.2808   10.8838  -15.0755 C   0  0  0  0  0  0  0  0  0  0  0  0
  -27.7701   10.2439  -16.0041 O   0  0  0  0  0  0  0  0  0  0  0  0
  -27.9930   11.4094  -14.0030 N   0  0  0  0  0  0  0  0  0  0  0  0
  -27.6041   12.2728  -13.6370 H   0  0  0  0  0  0  0  0  0  0  0  0
  -25.8203   11.1998  -15.1207 C   0  0  0  0  0  0  0  0  0  0  0  0
  -25.2820   12.2934  -14.1971 C   0  0  0  0  0  0  0  0  0  0  0  0
  -25.0208   10.8622  -13.8563 C   0  0  0  0  0  0  0  0  0  0  0  0
  -24.3148   12.0429  -16.8165 N   0  0  0  0  0  0  0  0  0  0  0  0
  -25.1253   10.9911  -16.4341 C   0  0  0  0  0  0  0  0  0  0  0  0
  -25.3019    9.9333  -17.0221 O   0  0  0  0  0  0  0  0  0  0  0  0
  -24.2205   12.8095  -16.1564 H   0  0  0  0  0  0  0  0  0  0  0  0
  -21.3443   11.7034  -19.0152 C   0  0  0  0  0  0  0  0  0  0  0  0
  -21.8552   12.1088  -20.2471 C   0  0  0  0  0  0  0  0  0  0  0  0
  -23.1796   12.5296  -20.3456 C   0  0  0  0  0  0  0  0  0  0  0  0
  -24.0043   12.5326  -19.2196 C   0  0  0  0  0  0  0  0  0  0  0  0
  -23.5177   12.1111  -17.9813 C   0  0  0  0  0  0  0  0  0  0  0  0
  -22.1748   11.7202  -17.8850 C   0  0  0  0  0  0  0  0  0  0  0  0
  -19.2269   11.1408  -19.9366 C   0  0  0  0  0  0  0  0  0  0  0  0
  -20.0663   11.2642  -18.7924 O   0  0  0  0  0  0  0  0  0  0  0  0
  -33.5729   11.2869  -13.7666 O   0  0  0  0  0  0  0  0  0  0  0  0
  -34.2998   10.1860  -14.1947 C   0  0  0  0  0  0  0  0  0  0  0  0
  -34.6140   10.1041  -15.5260 C   0  0  0  0  0  0  0  0  0  0  0  0
  -35.3267    8.9852  -15.8823 C   0  0  0  0  0  0  0  0  0  0  0  0
  -35.7112    8.0288  -15.0108 N   0  0  0  0  0  0  0  0  0  0  0  0
  -35.3888    8.2233  -13.7249 C   0  0  0  0  0  0  0  0  0  0  0  0
  -34.6940    9.2808  -13.2894 N   0  0  0  0  0  0  0  0  0  0  0  0
  -35.7761    7.2490  -12.8016 N   0  0  0  0  0  0  0  0  0  0  0  0
  -36.7804    7.2603  -12.6965 H   0  0  0  0  0  0  0  0  0  0  0  0
  -35.0520    6.8401  -11.6673 C   0  0  0  0  0  0  0  0  0  0  0  0
  -34.2324    7.7223  -10.9519 C   0  0  0  0  0  0  0  0  0  0  0  0
  -33.4759    7.2850   -9.8703 C   0  0  0  0  0  0  0  0  0  0  0  0
  -33.5286    5.9502   -9.4812 C   0  0  0  0  0  0  0  0  0  0  0  0
  -34.3665    5.0450  -10.1469 C   0  0  0  0  0  0  0  0  0  0  0  0
  -35.1275    5.5067  -11.2386 C   0  0  0  0  0  0  0  0  0  0  0  0
  -34.3769    3.5846   -9.7766 C   0  0  0  0  0  0  0  0  0  0  0  0
  -32.8301    3.0471   -9.0564 S   0  0  0  0  0  0  0  0  0  0  0  0
  -33.2914    2.1859   -7.5711 C   0  0  0  0  0  0  0  0  0  0  0  0
  -32.2659    2.0517   -9.9525 O   0  0  0  0  0  0  0  0  0  0  0  0
  -32.0279    4.1967   -8.6779 O   0  0  0  0  0  0  0  0  0  0  0  0
 25 26  1  0  0  0
 26 19  1  0  0  0
 19 20  1  0  0  0
 19 24  2  0  0  0
 20 21  2  0  0  0
 21 22  1  0  0  0
 22 23  2  0  0  0
 23 15  1  0  0  0
 23 24  1  0  0  0
 15 16  1  0  0  0
 15 18  1  0  0  0
 16 17  2  0  0  0
 16 12  1  0  0  0
 12  8  1  0  0  0
 12 13  1  0  0  0
 12 14  1  0  0  0
  8  9  2  0  0  0
  8 10  1  0  0  0
 10  1  1  0  0  0
 10 11  1  0  0  0
  1  2  1  0  0  0
  1  7  2  0  0  0
  2  3  2  0  0  0
  3  4  1  0  0  0
  4 27  1  0  0  0
  4  5  2  0  0  0
 27 28  1  0  0  0
 28 29  1  0  0  0
 28 33  2  0  0  0
 29 30  2  0  0  0
 30 31  1  0  0  0
 31 32  2  0  0  0
 32 34  1  0  0  0
 32 33  1  0  0  0
 34 36  1  0  0  0
 34 35  1  0  0  0
 36 37  1  0  0  0
 36 41  2  0  0  0
 37 38  2  0  0  0
 38 39  1  0  0  0
 39 40  2  0  0  0
 40 42  1  0  0  0
 40 41  1  0  0  0
 42 43  1  0  0  0
 43 44  1  0  0  0
 43 45  2  0  0  0
 43 46  2  0  0  0
  5  6  1  0  0  0
  5  7  1  0  0  0
 13 14  1  0  0  0
M  END
> <minimizedAffinity>
-3.11482

$$$$
