CHEMBL2178352


 37 42  0  0  0  0  0  0  0  0999 V2000
  -28.5195   -2.8281   -8.3178 C   0  0  0  0  0  0  0  0  0  0  0  0
  -28.1425   -2.1404   -7.2183 N   0  0  0  0  0  0  0  0  0  0  0  0
  -28.2301   -2.7393   -6.0018 C   0  0  0  0  0  0  0  0  0  0  0  0
  -28.6764   -4.0485   -5.9169 C   0  0  0  0  0  0  0  0  0  0  0  0
  -28.8865   -4.8879   -4.8655 N   0  0  0  0  0  0  0  0  0  0  0  0
  -29.2780   -6.0354   -5.3865 C   0  0  0  0  0  0  0  0  0  0  0  0
  -29.3537   -5.9517   -6.7689 N   0  0  0  0  0  0  0  0  0  0  0  0
  -28.9824   -4.6696   -7.1080 C   0  0  0  0  0  0  0  0  0  0  0  0
  -28.9227   -4.1156   -8.3270 N   0  0  0  0  0  0  0  0  0  0  0  0
  -29.7817   -6.9874   -7.6883 C   0  0  0  0  0  0  0  0  0  0  0  0
  -31.0171   -7.7681   -7.2347 C   0  0  0  0  0  0  0  0  0  0  0  0
  -30.9625   -9.0945   -7.9868 C   0  0  0  0  0  0  0  0  0  0  0  0
  -29.5548   -9.2247   -8.5626 C   0  0  0  0  0  0  0  0  0  0  0  0
  -28.7431   -8.0705   -7.9862 C   0  0  0  0  0  0  0  0  0  0  0  0
  -28.4702   -2.1011   -9.5108 N   0  0  0  0  0  0  0  0  0  0  0  0
  -29.3673   -2.1713   -9.9740 H   0  0  0  0  0  0  0  0  0  0  0  0
  -25.2055   -1.2236  -12.1204 C   0  0  0  0  0  0  0  0  0  0  0  0
  -25.0366   -1.3157  -10.7374 C   0  0  0  0  0  0  0  0  0  0  0  0
  -26.0936   -1.6256   -9.8814 C   0  0  0  0  0  0  0  0  0  0  0  0
  -27.3787   -1.8563  -10.3567 C   0  0  0  0  0  0  0  0  0  0  0  0
  -27.5732   -1.7504  -11.7354 C   0  0  0  0  0  0  0  0  0  0  0  0
  -26.5047   -1.4430  -12.5990 C   0  0  0  0  0  0  0  0  0  0  0  0
  -21.2484    1.6808  -14.6851 C   0  0  0  0  0  0  0  0  0  0  0  0
  -22.0037    0.4819  -14.3365 N   0  0  0  0  0  0  0  0  0  0  0  0
  -21.9493    0.2377  -12.8772 C   0  0  0  0  0  0  0  0  0  0  0  0
  -22.7510   -1.0179  -12.4751 C   0  0  0  0  0  0  0  0  0  0  0  0
  -24.1458   -0.8860  -12.9305 N   0  0  0  0  0  0  0  0  0  0  0  0
  -24.2827   -0.6210  -14.3672 C   0  0  0  0  0  0  0  0  0  0  0  0
  -23.4211    0.6109  -14.7506 C   0  0  0  0  0  0  0  0  0  0  0  0
  -29.5615   -7.1723   -4.7098 N   0  0  0  0  0  0  0  0  0  0  0  0
  -30.5038   -7.4098   -4.4309 H   0  0  0  0  0  0  0  0  0  0  0  0
  -28.6109   -8.1591   -4.3771 C   0  0  0  0  0  0  0  0  0  0  0  0
  -27.2329   -7.9445   -4.5233 C   0  0  0  0  0  0  0  0  0  0  0  0
  -26.3079   -8.9376   -4.2003 C   0  0  0  0  0  0  0  0  0  0  0  0
  -26.7491  -10.1800   -3.7580 C   0  0  0  0  0  0  0  0  0  0  0  0
  -28.1161  -10.4273   -3.6440 C   0  0  0  0  0  0  0  0  0  0  0  0
  -29.0405   -9.4233   -3.9511 C   0  0  0  0  0  0  0  0  0  0  0  0
 23 24  1  0  0  0
 24 25  1  0  0  0
 24 29  1  0  0  0
 25 26  1  0  0  0
 26 27  1  0  0  0
 27 17  1  0  0  0
 27 28  1  0  0  0
 17 18  1  0  0  0
 17 22  2  0  0  0
 18 19  2  0  0  0
 19 20  1  0  0  0
 20 15  1  0  0  0
 20 21  2  0  0  0
 15  1  1  0  0  0
 15 16  1  0  0  0
  1  2  1  0  0  0
  1  9  2  0  0  0
  2  3  2  0  0  0
  3  4  1  0  0  0
  4  5  1  0  0  0
  4  8  2  0  0  0
  5  6  2  0  0  0
  6 30  1  0  0  0
  6  7  1  0  0  0
 30 32  1  0  0  0
 30 31  1  0  0  0
 32 33  1  0  0  0
 32 37  2  0  0  0
 33 34  2  0  0  0
 34 35  1  0  0  0
 35 36  2  0  0  0
 36 37  1  0  0  0
  7 10  1  0  0  0
  7  8  1  0  0  0
 10 11  1  0  0  0
 10 14  1  0  0  0
 11 12  1  0  0  0
 12 13  1  0  0  0
 13 14  1  0  0  0
  8  9  1  0  0  0
 21 22  1  0  0  0
 28 29  1  0  0  0
M  END
> <minimizedAffinity>
-8.63907

$$$$
