CHEMBL3287319


 49 53  0  0  0  0  0  0  0  0999 V2000
  -24.2775   -1.2392  -13.1033 C   0  0  0  0  0  0  0  0  0  0  0  0
  -24.2087   -0.4307  -14.2357 C   0  0  0  0  0  0  0  0  0  0  0  0
  -23.1086    0.3988  -14.4473 C   0  0  0  0  0  0  0  0  0  0  0  0
  -22.0790    0.4866  -13.5117 C   0  0  0  0  0  0  0  0  0  0  0  0
  -22.2066   -0.2227  -12.3115 C   0  0  0  0  0  0  0  0  0  0  0  0
  -23.2950   -1.0849  -12.1253 C   0  0  0  0  0  0  0  0  0  0  0  0
  -23.3523   -1.8167  -10.9970 F   0  0  0  0  0  0  0  0  0  0  0  0
  -20.9202    1.2658  -13.7479 N   0  0  0  0  0  0  0  0  0  0  0  0
  -19.9712    1.0073  -14.7255 C   0  0  0  0  0  0  0  0  0  0  0  0
  -19.9459    0.0657  -15.5055 O   0  0  0  0  0  0  0  0  0  0  0  0
  -20.7410    2.0419  -13.1171 H   0  0  0  0  0  0  0  0  0  0  0  0
  -18.8645    2.0056  -14.8381 C   0  0  0  0  0  0  0  0  0  0  0  0
  -19.1241    3.3657  -14.1933 C   0  0  0  0  0  0  0  0  0  0  0  0
  -19.0394    3.2730  -15.6820 C   0  0  0  0  0  0  0  0  0  0  0  0
  -17.4931    1.4096  -14.8795 C   0  0  0  0  0  0  0  0  0  0  0  0
  -17.0016    1.2568  -15.9883 O   0  0  0  0  0  0  0  0  0  0  0  0
  -16.9352    1.0276  -13.6627 N   0  0  0  0  0  0  0  0  0  0  0  0
  -17.5375    1.0749  -12.8447 H   0  0  0  0  0  0  0  0  0  0  0  0
  -15.6732    0.3835  -13.5327 C   0  0  0  0  0  0  0  0  0  0  0  0
  -14.4740    1.0589  -13.7304 C   0  0  0  0  0  0  0  0  0  0  0  0
  -13.2538    0.3883  -13.7053 C   0  0  0  0  0  0  0  0  0  0  0  0
  -13.1968   -0.9759  -13.4330 C   0  0  0  0  0  0  0  0  0  0  0  0
  -11.6296   -1.6928  -13.4989 Cl  0  0  0  0  0  0  0  0  0  0  0  0
  -14.3710   -1.6773  -13.1392 C   0  0  0  0  0  0  0  0  0  0  0  0
  -15.6135   -0.9782  -13.1912 C   0  0  0  0  0  0  0  0  0  0  0  0
  -14.3893   -3.1373  -12.7649 C   0  0  0  0  0  0  0  0  0  0  0  0
  -13.9031   -4.0116  -13.6867 F   0  0  0  0  0  0  0  0  0  0  0  0
  -13.6633   -3.3751  -11.6337 F   0  0  0  0  0  0  0  0  0  0  0  0
  -15.6491   -3.5779  -12.4837 F   0  0  0  0  0  0  0  0  0  0  0  0
  -25.2839   -2.1679  -12.9078 O   0  0  0  0  0  0  0  0  0  0  0  0
  -27.2973   -2.5258   -9.9838 C   0  0  0  0  0  0  0  0  0  0  0  0
  -28.1544   -1.5005  -10.0616 N   0  0  0  0  0  0  0  0  0  0  0  0
  -27.9761   -0.6380  -11.0852 C   0  0  0  0  0  0  0  0  0  0  0  0
  -27.0087   -0.7813  -12.0520 C   0  0  0  0  0  0  0  0  0  0  0  0
  -26.2111   -1.8849  -11.9065 C   0  0  0  0  0  0  0  0  0  0  0  0
  -26.3016   -2.7171  -10.8575 N   0  0  0  0  0  0  0  0  0  0  0  0
  -27.4698   -3.4526   -8.9500 N   0  0  0  0  0  0  0  0  0  0  0  0
  -27.5195   -4.3783   -9.3560 H   0  0  0  0  0  0  0  0  0  0  0  0
  -28.8847   -2.1387   -5.7469 C   0  0  0  0  0  0  0  0  0  0  0  0
  -30.0623   -2.8887   -5.6712 C   0  0  0  0  0  0  0  0  0  0  0  0
  -30.3848   -3.7985   -6.6802 C   0  0  0  0  0  0  0  0  0  0  0  0
  -29.5276   -3.9779   -7.7694 C   0  0  0  0  0  0  0  0  0  0  0  0
  -28.3258   -3.2715   -7.8464 C   0  0  0  0  0  0  0  0  0  0  0  0
  -28.0346   -2.3358   -6.8431 C   0  0  0  0  0  0  0  0  0  0  0  0
  -28.5349   -1.1187   -4.6995 C   0  0  0  0  0  0  0  0  0  0  0  0
  -30.3093    0.9161   -5.5540 C   0  0  0  0  0  0  0  0  0  0  0  0
  -28.5843    0.5474   -5.3463 S   0  0  0  0  0  0  0  0  0  0  0  0
  -27.9524    0.5802   -6.6515 O   0  0  0  0  0  0  0  0  0  0  0  0
  -28.0958    1.4215   -4.2908 O   0  0  0  0  0  0  0  0  0  0  0  0
 46 47  1  0  0  0
 47 48  2  0  0  0
 47 49  2  0  0  0
 47 45  1  0  0  0
 45 39  1  0  0  0
 39 40  1  0  0  0
 39 44  2  0  0  0
 40 41  2  0  0  0
 41 42  1  0  0  0
 42 43  2  0  0  0
 43 37  1  0  0  0
 43 44  1  0  0  0
 37 31  1  0  0  0
 37 38  1  0  0  0
 31 32  1  0  0  0
 31 36  2  0  0  0
 32 33  2  0  0  0
 33 34  1  0  0  0
 34 35  2  0  0  0
 35 30  1  0  0  0
 35 36  1  0  0  0
 30  1  1  0  0  0
  1  2  1  0  0  0
  1  6  2  0  0  0
  2  3  2  0  0  0
  3  4  1  0  0  0
  4  8  1  0  0  0
  4  5  2  0  0  0
  8  9  1  0  0  0
  8 11  1  0  0  0
  9 10  2  0  0  0
  9 12  1  0  0  0
 12 15  1  0  0  0
 12 13  1  0  0  0
 12 14  1  0  0  0
 15 16  2  0  0  0
 15 17  1  0  0  0
 17 19  1  0  0  0
 17 18  1  0  0  0
 19 20  1  0  0  0
 19 25  2  0  0  0
 20 21  2  0  0  0
 21 22  1  0  0  0
 22 23  1  0  0  0
 22 24  2  0  0  0
 24 26  1  0  0  0
 24 25  1  0  0  0
 26 27  1  0  0  0
 26 28  1  0  0  0
 26 29  1  0  0  0
 13 14  1  0  0  0
  5  6  1  0  0  0
  6  7  1  0  0  0
M  END
> <minimizedAffinity>
-10.77880

$$$$
