CHEMBL1241679


 23 25  0  0  0  0  0  0  0  0999 V2000
  -29.8484   -3.4040   -4.9765 N   0  0  0  0  0  0  0  0  0  0  0  0
  -30.1308   -4.6568   -5.3912 N   0  0  0  0  0  0  0  0  0  0  0  0
  -29.4467   -4.7944   -6.5419 C   0  0  0  0  0  0  0  0  0  0  0  0
  -28.7867   -3.5744   -6.9004 C   0  0  0  0  0  0  0  0  0  0  0  0
  -27.9871   -3.0638   -7.9337 C   0  0  0  0  0  0  0  0  0  0  0  0
  -27.6186   -3.7502   -9.0845 N   0  0  0  0  0  0  0  0  0  0  0  0
  -27.5257   -1.8017   -7.8379 N   0  0  0  0  0  0  0  0  0  0  0  0
  -27.8600   -1.0730   -6.7557 C   0  0  0  0  0  0  0  0  0  0  0  0
  -28.6255   -1.4425   -5.7182 N   0  0  0  0  0  0  0  0  0  0  0  0
  -29.0603   -2.7095   -5.8523 C   0  0  0  0  0  0  0  0  0  0  0  0
  -28.3276   -4.3740   -9.4528 H   0  0  0  0  0  0  0  0  0  0  0  0
  -27.2073   -3.1145   -9.7600 H   0  0  0  0  0  0  0  0  0  0  0  0
  -29.4547   -6.0883   -7.2345 C   0  0  0  0  0  0  0  0  0  0  0  0
  -28.2971   -6.5952   -7.8355 C   0  0  0  0  0  0  0  0  0  0  0  0
  -28.3158   -7.8061   -8.5293 C   0  0  0  0  0  0  0  0  0  0  0  0
  -29.4838   -8.5614   -8.5713 C   0  0  0  0  0  0  0  0  0  0  0  0
  -30.6340   -8.1038   -7.9214 C   0  0  0  0  0  0  0  0  0  0  0  0
  -30.6243   -6.8647   -7.2688 C   0  0  0  0  0  0  0  0  0  0  0  0
  -31.8123   -8.9176   -7.9041 C   0  0  0  0  0  0  0  0  0  0  0  0
  -32.7764   -9.5667   -7.9060 N   0  0  0  0  0  0  0  0  0  0  0  0
  -31.4403   -3.8396   -3.1313 C   0  0  0  0  0  0  0  0  0  0  0  0
  -30.3336   -2.9392   -3.6806 C   0  0  0  0  0  0  0  0  0  0  0  0
  -29.1873   -2.8109   -2.6752 C   0  0  0  0  0  0  0  0  0  0  0  0
 21 22  1  0  0  0
 22 23  1  0  0  0
 22  1  1  0  0  0
  1  2  1  0  0  0
  1 10  1  0  0  0
  2  3  2  0  0  0
  3 13  1  0  0  0
  3  4  1  0  0  0
 13 14  1  0  0  0
 13 18  2  0  0  0
 14 15  2  0  0  0
 15 16  1  0  0  0
 16 17  2  0  0  0
 17 19  1  0  0  0
 17 18  1  0  0  0
 19 20  3  0  0  0
  4  5  1  0  0  0
  4 10  2  0  0  0
  5  6  1  0  0  0
  5  7  2  0  0  0
  6 11  1  0  0  0
  6 12  1  0  0  0
  7  8  1  0  0  0
  8  9  2  0  0  0
  9 10  1  0  0  0
M  END
> <minimizedAffinity>
-7.91248

$$$$
