CHEMBL4532084


 44 47  0  0  0  0  0  0  0  0999 V2000
  -22.8813   -0.6677  -12.5075 C   0  0  0  0  0  0  0  0  0  0  0  0
  -21.8708   -0.2999  -13.3927 C   0  0  0  0  0  0  0  0  0  0  0  0
  -21.8222    0.9935  -13.9409 C   0  0  0  0  0  0  0  0  0  0  0  0
  -20.7962    1.4381  -14.7817 C   0  0  0  0  0  0  0  0  0  0  0  0
  -20.7464    2.7064  -15.2174 N   0  0  0  0  0  0  0  0  0  0  0  0
  -21.7346    3.5173  -14.8349 C   0  0  0  0  0  0  0  0  0  0  0  0
  -22.7783    3.1880  -14.0655 N   0  0  0  0  0  0  0  0  0  0  0  0
  -22.8124    1.9292  -13.6177 C   0  0  0  0  0  0  0  0  0  0  0  0
  -23.8611    1.5300  -12.8011 C   0  0  0  0  0  0  0  0  0  0  0  0
  -23.9324    0.2411  -12.2511 C   0  0  0  0  0  0  0  0  0  0  0  0
  -19.7798    0.5228  -15.1781 N   0  0  0  0  0  0  0  0  0  0  0  0
  -20.0821    0.0240  -16.0085 H   0  0  0  0  0  0  0  0  0  0  0  0
  -18.4035    0.8451  -15.2119 C   0  0  0  0  0  0  0  0  0  0  0  0
  -17.4602   -0.0344  -14.6705 C   0  0  0  0  0  0  0  0  0  0  0  0
  -16.1161    0.3202  -14.5864 C   0  0  0  0  0  0  0  0  0  0  0  0
  -15.6781    1.5664  -15.0499 C   0  0  0  0  0  0  0  0  0  0  0  0
  -14.2428    1.9516  -14.8378 C   0  0  0  0  0  0  0  0  0  0  0  0
  -16.6112    2.4168  -15.6640 C   0  0  0  0  0  0  0  0  0  0  0  0
  -16.1099    4.1088  -16.3684 Br  0  0  0  0  0  0  0  0  0  0  0  0
  -17.9612    2.0543  -15.7542 C   0  0  0  0  0  0  0  0  0  0  0  0
  -23.4337   -2.9786  -12.7280 C   0  0  0  0  0  0  0  0  0  0  0  0
  -22.8674   -1.9196  -11.9534 O   0  0  0  0  0  0  0  0  0  0  0  0
  -25.0646    0.0455  -11.4771 O   0  0  0  0  0  0  0  0  0  0  0  0
  -26.0531   -0.7585  -12.0979 C   0  0  0  0  0  0  0  0  0  0  0  0
  -26.7074   -1.8166  -11.2146 C   0  0  0  0  0  0  0  0  0  0  0  0
  -26.5105   -1.5012   -9.8174 O   0  0  0  0  0  0  0  0  0  0  0  0
  -27.6243   -1.8830   -9.0086 C   0  0  0  0  0  0  0  0  0  0  0  0
  -27.6922   -1.1208   -7.6944 C   0  0  0  0  0  0  0  0  0  0  0  0
  -27.5467   -2.1008   -6.6633 O   0  0  0  0  0  0  0  0  0  0  0  0
  -27.2559   -1.5365   -5.3918 C   0  0  0  0  0  0  0  0  0  0  0  0
  -28.5535   -0.9534   -4.8289 C   0  0  0  0  0  0  0  0  0  0  0  0
  -29.6062   -1.9445   -4.6999 N   0  0  0  0  0  0  0  0  0  0  0  0
  -29.6452   -2.8186   -3.6355 C   0  0  0  0  0  0  0  0  0  0  0  0
  -28.8033   -2.8180   -2.7404 O   0  0  0  0  0  0  0  0  0  0  0  0
  -30.3232   -1.9655   -5.4153 H   0  0  0  0  0  0  0  0  0  0  0  0
  -30.7917   -3.8010   -3.6494 C   0  0  0  0  0  0  0  0  0  0  0  0
  -30.5443   -4.8871   -4.5714 N   0  0  0  0  0  0  0  0  0  0  0  0
  -31.0817   -6.1404   -4.5610 C   0  0  0  0  0  0  0  0  0  0  0  0
  -30.5727   -6.8526   -5.5418 N   0  0  0  0  0  0  0  0  0  0  0  0
  -29.7029   -5.9671   -6.1339 C   0  0  0  0  0  0  0  0  0  0  0  0
  -29.6366   -4.7506   -5.5618 N   0  0  0  0  0  0  0  0  0  0  0  0
  -28.9118   -6.2984   -7.3114 N   0  0  0  0  0  0  0  0  0  0  0  0
  -28.4729   -5.3524   -7.9838 O   0  0  0  0  0  0  0  0  0  0  0  0
  -28.7239   -7.4995   -7.5658 O   0  0  0  0  0  0  0  0  0  0  0  0
 21 22  1  0  0  0
 22  1  1  0  0  0
  1  2  1  0  0  0
  1 10  2  0  0  0
  2  3  2  0  0  0
  3  4  1  0  0  0
  3  8  1  0  0  0
  4 11  1  0  0  0
  4  5  2  0  0  0
 11 13  1  0  0  0
 11 12  1  0  0  0
 13 14  1  0  0  0
 13 20  2  0  0  0
 14 15  2  0  0  0
 15 16  1  0  0  0
 16 17  1  0  0  0
 16 18  2  0  0  0
 18 19  1  0  0  0
 18 20  1  0  0  0
  5  6  1  0  0  0
  6  7  2  0  0  0
  7  8  1  0  0  0
  8  9  2  0  0  0
  9 10  1  0  0  0
 10 23  1  0  0  0
 23 24  1  0  0  0
 24 25  1  0  0  0
 25 26  1  0  0  0
 26 27  1  0  0  0
 27 28  1  0  0  0
 28 29  1  0  0  0
 29 30  1  0  0  0
 30 31  1  0  0  0
 31 32  1  0  0  0
 32 33  1  0  0  0
 32 35  1  0  0  0
 33 34  2  0  0  0
 33 36  1  0  0  0
 36 37  1  0  0  0
 37 38  1  0  0  0
 37 41  1  0  0  0
 38 39  2  0  0  0
 39 40  1  0  0  0
 40 42  1  0  0  0
 40 41  2  0  0  0
 42 43  2  0  0  0
 42 44  1  0  0  0
M  CHG 1  42   1
M  CHG 1  44  -1
M  END
> <minimizedAffinity>
-8.30961

$$$$
