CHEMBL3914330


 39 42  0  0  0  0  0  0  0  0999 V2000
  -30.5665   -4.6414   -8.0025 C   0  0  0  0  0  0  0  0  0  0  0  0
  -29.6580   -4.5222   -6.8090 C   0  0  0  0  0  0  0  0  0  0  0  0
  -29.8582   -5.4640   -5.7735 C   0  0  0  0  0  0  0  0  0  0  0  0
  -29.0088   -5.5427   -4.6677 C   0  0  0  0  0  0  0  0  0  0  0  0
  -27.9845   -4.6139   -4.5664 C   0  0  0  0  0  0  0  0  0  0  0  0
  -27.1588   -4.6306   -3.5094 F   0  0  0  0  0  0  0  0  0  0  0  0
  -27.7932   -3.6475   -5.5551 C   0  0  0  0  0  0  0  0  0  0  0  0
  -28.6105   -3.5787   -6.6968 C   0  0  0  0  0  0  0  0  0  0  0  0
  -28.4176   -2.5752   -7.6966 N   0  0  0  0  0  0  0  0  0  0  0  0
  -27.8114   -2.7681   -8.9342 C   0  0  0  0  0  0  0  0  0  0  0  0
  -27.4919   -3.8607   -9.4017 O   0  0  0  0  0  0  0  0  0  0  0  0
  -27.5440   -1.5723   -9.5959 N   0  0  0  0  0  0  0  0  0  0  0  0
  -28.8551   -1.6797   -7.5423 H   0  0  0  0  0  0  0  0  0  0  0  0
  -27.3345   -0.7921   -8.9880 H   0  0  0  0  0  0  0  0  0  0  0  0
  -26.8786   -1.5828  -10.8542 C   0  0  0  0  0  0  0  0  0  0  0  0
  -27.6428   -1.6197  -12.0206 C   0  0  0  0  0  0  0  0  0  0  0  0
  -27.0163   -1.5213  -13.2672 C   0  0  0  0  0  0  0  0  0  0  0  0
  -25.6212   -1.4393  -13.3668 C   0  0  0  0  0  0  0  0  0  0  0  0
  -24.9580   -1.2851  -14.9543 Cl  0  0  0  0  0  0  0  0  0  0  0  0
  -24.8272   -1.4642  -12.2124 C   0  0  0  0  0  0  0  0  0  0  0  0
  -25.4800   -1.5214  -10.9596 C   0  0  0  0  0  0  0  0  0  0  0  0
  -23.3134   -1.4162  -12.2511 C   0  0  0  0  0  0  0  0  0  0  0  0
  -22.7788   -0.0125  -12.4982 C   0  0  0  0  0  0  0  0  0  0  0  0
  -22.7631   -1.8485  -11.0728 F   0  0  0  0  0  0  0  0  0  0  0  0
  -22.7712   -2.2444  -13.1918 F   0  0  0  0  0  0  0  0  0  0  0  0
  -29.1782   -6.4414   -3.6398 O   0  0  0  0  0  0  0  0  0  0  0  0
  -28.6941   -7.7363   -3.8287 C   0  0  0  0  0  0  0  0  0  0  0  0
  -27.4777   -7.8592   -4.4728 C   0  0  0  0  0  0  0  0  0  0  0  0
  -27.0157   -9.1501   -4.6384 C   0  0  0  0  0  0  0  0  0  0  0  0
  -27.6996  -10.2037   -4.1807 N   0  0  0  0  0  0  0  0  0  0  0  0
  -28.8722   -9.9777   -3.5899 C   0  0  0  0  0  0  0  0  0  0  0  0
  -29.4230   -8.7819   -3.4016 N   0  0  0  0  0  0  0  0  0  0  0  0
  -25.8013   -9.3577   -5.3197 N   0  0  0  0  0  0  0  0  0  0  0  0
  -24.6385   -9.7742   -4.6983 C   0  0  0  0  0  0  0  0  0  0  0  0
  -24.4651   -9.9536   -3.5012 O   0  0  0  0  0  0  0  0  0  0  0  0
  -25.7938   -9.2266   -6.3170 H   0  0  0  0  0  0  0  0  0  0  0  0
  -23.4629  -10.0345   -5.5820 C   0  0  0  0  0  0  0  0  0  0  0  0
  -23.4188  -11.3024   -6.4010 C   0  0  0  0  0  0  0  0  0  0  0  0
  -22.3615  -11.0382   -5.3677 C   0  0  0  0  0  0  0  0  0  0  0  0
  1  2  1  0  0  0
  2  3  1  0  0  0
  2  8  2  0  0  0
  3  4  2  0  0  0
  4 26  1  0  0  0
  4  5  1  0  0  0
 26 27  1  0  0  0
 27 28  1  0  0  0
 27 32  2  0  0  0
 28 29  2  0  0  0
 29 33  1  0  0  0
 29 30  1  0  0  0
 33 34  1  0  0  0
 33 36  1  0  0  0
 34 35  2  0  0  0
 34 37  1  0  0  0
 37 38  1  0  0  0
 37 39  1  0  0  0
 38 39  1  0  0  0
 30 31  2  0  0  0
 31 32  1  0  0  0
  5  6  1  0  0  0
  5  7  2  0  0  0
  7  8  1  0  0  0
  8  9  1  0  0  0
  9 10  1  0  0  0
  9 13  1  0  0  0
 10 11  2  0  0  0
 10 12  1  0  0  0
 12 15  1  0  0  0
 12 14  1  0  0  0
 15 16  1  0  0  0
 15 21  2  0  0  0
 16 17  2  0  0  0
 17 18  1  0  0  0
 18 19  1  0  0  0
 18 20  2  0  0  0
 20 22  1  0  0  0
 20 21  1  0  0  0
 22 23  1  0  0  0
 22 24  1  0  0  0
 22 25  1  0  0  0
M  END
> <minimizedAffinity>
-9.77381

$$$$
