CHEMBL3694703


 38 41  0  0  0  0  0  0  0  0999 V2000
  -29.5201   -7.1546   -6.1631 C   0  0  0  0  0  0  0  0  0  0  0  0
  -28.4207   -7.0366   -5.1674 C   0  0  0  0  0  0  0  0  0  0  0  0
  -28.0644   -5.8189   -4.6989 C   0  0  0  0  0  0  0  0  0  0  0  0
  -28.9005   -4.7276   -4.9994 N   0  0  0  0  0  0  0  0  0  0  0  0
  -29.0104   -3.4311   -4.4489 C   0  0  0  0  0  0  0  0  0  0  0  0
  -30.1463   -3.7510   -3.6915 C   0  0  0  0  0  0  0  0  0  0  0  0
  -30.9975   -4.4993   -4.4920 N   0  0  0  0  0  0  0  0  0  0  0  0
  -30.1962   -5.0010   -5.4249 C   0  0  0  0  0  0  0  0  0  0  0  0
  -30.3533   -6.0968   -6.3142 C   0  0  0  0  0  0  0  0  0  0  0  0
  -29.8253   -9.5356   -8.9391 C   0  0  0  0  0  0  0  0  0  0  0  0
  -29.4611   -8.4358   -8.2509 N   0  0  0  0  0  0  0  0  0  0  0  0
  -29.7792   -8.4018   -6.9382 C   0  0  0  0  0  0  0  0  0  0  0  0
  -30.4056   -9.3913   -6.2727 N   0  0  0  0  0  0  0  0  0  0  0  0
  -30.7475  -10.4703   -6.9981 C   0  0  0  0  0  0  0  0  0  0  0  0
  -30.4525  -10.6352   -8.3327 C   0  0  0  0  0  0  0  0  0  0  0  0
  -30.9572  -11.7109   -9.0955 N   0  0  0  0  0  0  0  0  0  0  0  0
  -31.0534  -12.5717   -8.5655 H   0  0  0  0  0  0  0  0  0  0  0  0
  -30.3801  -11.8418   -9.9285 H   0  0  0  0  0  0  0  0  0  0  0  0
  -28.2729  -10.1413  -10.7048 C   0  0  0  0  0  0  0  0  0  0  0  0
  -29.5865   -9.6480  -10.3364 N   0  0  0  0  0  0  0  0  0  0  0  0
  -29.7767   -8.7281  -10.7327 H   0  0  0  0  0  0  0  0  0  0  0  0
  -29.0102   -2.1779   -5.2943 C   0  0  0  0  0  0  0  0  0  0  0  0
  -29.5538   -0.9774   -4.8248 C   0  0  0  0  0  0  0  0  0  0  0  0
  -29.2694    0.2237   -5.4647 C   0  0  0  0  0  0  0  0  0  0  0  0
  -28.4521    0.2588   -6.5986 C   0  0  0  0  0  0  0  0  0  0  0  0
  -27.9345   -0.9202   -7.1275 C   0  0  0  0  0  0  0  0  0  0  0  0
  -28.2343   -2.1286   -6.4896 C   0  0  0  0  0  0  0  0  0  0  0  0
  -27.0784   -0.9386   -8.2782 N   0  0  0  0  0  0  0  0  0  0  0  0
  -27.3182   -1.6234   -9.4663 C   0  0  0  0  0  0  0  0  0  0  0  0
  -28.3118   -2.2679   -9.7576 O   0  0  0  0  0  0  0  0  0  0  0  0
  -26.2511   -1.5634  -10.3318 N   0  0  0  0  0  0  0  0  0  0  0  0
  -26.2211   -0.4181   -8.2112 H   0  0  0  0  0  0  0  0  0  0  0  0
  -25.6875   -0.7189  -10.3139 H   0  0  0  0  0  0  0  0  0  0  0  0
  -26.3600   -2.2642  -11.6213 C   0  0  0  0  0  0  0  0  0  0  0  0
  -25.9120   -1.4849  -12.8685 C   0  0  0  0  0  0  0  0  0  0  0  0
  -26.9180   -1.3414  -13.7612 F   0  0  0  0  0  0  0  0  0  0  0  0
  -25.5251   -0.2345  -12.5104 F   0  0  0  0  0  0  0  0  0  0  0  0
  -24.8673   -2.0627  -13.4932 F   0  0  0  0  0  0  0  0  0  0  0  0
 19 20  1  0  0  0
 20 10  1  0  0  0
 20 21  1  0  0  0
 10 11  1  0  0  0
 10 15  2  0  0  0
 11 12  2  0  0  0
 12  1  1  0  0  0
 12 13  1  0  0  0
  1  2  1  0  0  0
  1  9  2  0  0  0
  2  3  2  0  0  0
  3  4  1  0  0  0
  4  5  1  0  0  0
  4  8  1  0  0  0
  5 22  1  0  0  0
  5  6  2  0  0  0
 22 23  1  0  0  0
 22 27  2  0  0  0
 23 24  2  0  0  0
 24 25  1  0  0  0
 25 26  2  0  0  0
 26 28  1  0  0  0
 26 27  1  0  0  0
 28 29  1  0  0  0
 28 32  1  0  0  0
 29 30  2  0  0  0
 29 31  1  0  0  0
 31 34  1  0  0  0
 31 33  1  0  0  0
 34 35  1  0  0  0
 35 36  1  0  0  0
 35 37  1  0  0  0
 35 38  1  0  0  0
  6  7  1  0  0  0
  7  8  2  0  0  0
  8  9  1  0  0  0
 13 14  2  0  0  0
 14 15  1  0  0  0
 15 16  1  0  0  0
 16 17  1  0  0  0
 16 18  1  0  0  0
M  END
> <minimizedAffinity>
-9.60795

$$$$
