CHEMBL3809588


 34 37  0  0  0  0  0  0  0  0999 V2000
  -24.5174   -0.5240  -11.9232 C   0  0  0  0  0  0  0  0  0  0  0  0
  -23.3546   -1.2005  -12.2786 C   0  0  0  0  0  0  0  0  0  0  0  0
  -22.3691   -0.5420  -13.0081 C   0  0  0  0  0  0  0  0  0  0  0  0
  -22.5166    0.8103  -13.3529 C   0  0  0  0  0  0  0  0  0  0  0  0
  -23.7001    1.4722  -12.9976 C   0  0  0  0  0  0  0  0  0  0  0  0
  -24.7134    0.7978  -12.3151 C   0  0  0  0  0  0  0  0  0  0  0  0
  -27.4729   -2.3796  -10.9045 N   0  0  0  0  0  0  0  0  0  0  0  0
  -26.5668   -1.8274  -11.7599 C   0  0  0  0  0  0  0  0  0  0  0  0
  -26.7270   -1.9956  -12.9682 O   0  0  0  0  0  0  0  0  0  0  0  0
  -25.5185   -1.1585  -11.1879 N   0  0  0  0  0  0  0  0  0  0  0  0
  -28.1920   -2.9191  -11.3629 H   0  0  0  0  0  0  0  0  0  0  0  0
  -25.3019   -1.4434  -10.2387 H   0  0  0  0  0  0  0  0  0  0  0  0
  -28.0946   -2.5613   -7.4328 C   0  0  0  0  0  0  0  0  0  0  0  0
  -28.2942   -3.0633   -8.6967 C   0  0  0  0  0  0  0  0  0  0  0  0
  -27.5480   -2.2207   -9.5404 C   0  0  0  0  0  0  0  0  0  0  0  0
  -26.9301   -1.2687   -8.8324 N   0  0  0  0  0  0  0  0  0  0  0  0
  -27.2847   -1.4737   -7.5163 O   0  0  0  0  0  0  0  0  0  0  0  0
  -29.9482   -2.3981   -5.8226 C   0  0  0  0  0  0  0  0  0  0  0  0
  -28.5556   -3.0046   -6.0768 C   0  0  0  0  0  0  0  0  0  0  0  0
  -27.5625   -2.4958   -5.0171 C   0  0  0  0  0  0  0  0  0  0  0  0
  -28.6536   -4.5361   -5.9657 C   0  0  0  0  0  0  0  0  0  0  0  0
  -21.4580    1.5135  -14.0684 C   0  0  0  0  0  0  0  0  0  0  0  0
  -20.3030    1.0802  -14.6912 C   0  0  0  0  0  0  0  0  0  0  0  0
  -19.6614    2.2517  -15.1696 C   0  0  0  0  0  0  0  0  0  0  0  0
  -20.3926    3.3300  -14.9057 N   0  0  0  0  0  0  0  0  0  0  0  0
  -21.4637    2.8663  -14.2677 N   0  0  0  0  0  0  0  0  0  0  0  0
  -22.1766    3.5372  -13.9946 H   0  0  0  0  0  0  0  0  0  0  0  0
  -18.4540    2.2682  -15.8319 N   0  0  0  0  0  0  0  0  0  0  0  0
  -17.2559    1.9502  -15.2358 C   0  0  0  0  0  0  0  0  0  0  0  0
  -17.0493    1.6045  -14.0818 O   0  0  0  0  0  0  0  0  0  0  0  0
  -18.4750    2.5269  -16.8044 H   0  0  0  0  0  0  0  0  0  0  0  0
  -16.0874    2.0911  -16.1611 C   0  0  0  0  0  0  0  0  0  0  0  0
  -15.2372    0.8808  -16.4836 C   0  0  0  0  0  0  0  0  0  0  0  0
  -14.6916    1.9600  -15.5952 C   0  0  0  0  0  0  0  0  0  0  0  0
 18 19  1  0  0  0
 19 20  1  0  0  0
 19 21  1  0  0  0
 19 13  1  0  0  0
 13 14  2  0  0  0
 13 17  1  0  0  0
 14 15  1  0  0  0
 15  7  1  0  0  0
 15 16  2  0  0  0
  7  8  1  0  0  0
  7 11  1  0  0  0
  8  9  2  0  0  0
  8 10  1  0  0  0
 10  1  1  0  0  0
 10 12  1  0  0  0
  1  2  1  0  0  0
  1  6  2  0  0  0
  2  3  2  0  0  0
  3  4  1  0  0  0
  4 22  1  0  0  0
  4  5  2  0  0  0
 22 23  2  0  0  0
 22 26  1  0  0  0
 23 24  1  0  0  0
 24 28  1  0  0  0
 24 25  2  0  0  0
 28 29  1  0  0  0
 28 31  1  0  0  0
 29 30  2  0  0  0
 29 32  1  0  0  0
 32 33  1  0  0  0
 32 34  1  0  0  0
 33 34  1  0  0  0
 25 26  1  0  0  0
 26 27  1  0  0  0
  5  6  1  0  0  0
 16 17  1  0  0  0
M  END
> <minimizedAffinity>
-9.95057

$$$$
