CHEMBL3917187


 31 33  0  0  0  0  0  0  0  0999 V2000
  -14.0183   -1.7117  -13.4349 C   0  0  0  0  0  0  0  0  0  0  0  0
  -12.9725   -0.7805  -13.5109 C   0  0  0  0  0  0  0  0  0  0  0  0
  -13.2117    0.5644  -13.7882 C   0  0  0  0  0  0  0  0  0  0  0  0
  -14.5075    0.9973  -14.0501 C   0  0  0  0  0  0  0  0  0  0  0  0
  -15.5620    0.0773  -14.0949 C   0  0  0  0  0  0  0  0  0  0  0  0
  -15.3167   -1.2672  -13.7739 C   0  0  0  0  0  0  0  0  0  0  0  0
  -13.9594   -3.5326  -11.7240 C   0  0  0  0  0  0  0  0  0  0  0  0
  -14.3376   -2.8641  -10.7662 O   0  0  0  0  0  0  0  0  0  0  0  0
  -13.7996   -3.0431  -13.0250 N   0  0  0  0  0  0  0  0  0  0  0  0
  -13.6247   -3.7420  -13.7376 H   0  0  0  0  0  0  0  0  0  0  0  0
  -15.8337   -6.1518  -12.3776 C   0  0  0  0  0  0  0  0  0  0  0  0
  -14.4497   -6.0832  -11.8335 C   0  0  0  0  0  0  0  0  0  0  0  0
  -13.6401   -7.1953  -11.4880 C   0  0  0  0  0  0  0  0  0  0  0  0
  -12.4479   -6.6874  -11.0368 C   0  0  0  0  0  0  0  0  0  0  0  0
  -12.4535   -5.3338  -11.0844 O   0  0  0  0  0  0  0  0  0  0  0  0
  -13.6785   -4.9504  -11.5697 C   0  0  0  0  0  0  0  0  0  0  0  0
  -16.8631    0.5544  -14.4719 C   0  0  0  0  0  0  0  0  0  0  0  0
  -17.9233    1.0745  -14.7302 C   0  0  0  0  0  0  0  0  0  0  0  0
  -19.1714    1.7700  -14.8593 C   0  0  0  0  0  0  0  0  0  0  0  0
  -19.2158    3.1375  -15.1125 C   0  0  0  0  0  0  0  0  0  0  0  0
  -20.3484    3.8847  -15.0461 N   0  0  0  0  0  0  0  0  0  0  0  0
  -21.4737    3.2508  -14.6232 C   0  0  0  0  0  0  0  0  0  0  0  0
  -21.5212    1.8960  -14.3266 C   0  0  0  0  0  0  0  0  0  0  0  0
  -20.3662    1.1308  -14.5356 C   0  0  0  0  0  0  0  0  0  0  0  0
  -22.6976    1.3135  -13.6192 C   0  0  0  0  0  0  0  0  0  0  0  0
  -23.6751    2.0466  -13.4920 O   0  0  0  0  0  0  0  0  0  0  0  0
  -22.6589    0.0142  -13.0853 N   0  0  0  0  0  0  0  0  0  0  0  0
  -23.8937   -0.9125  -13.1303 S   0  0  0  0  0  0  0  0  0  0  0  0
  -25.0029   -0.4947  -11.8038 C   0  0  0  0  0  0  0  0  0  0  0  0
  -23.3325   -2.5123  -12.5917 C   0  0  0  0  0  0  0  0  0  0  0  0
  -24.7031   -1.1438  -14.3111 O   0  0  0  0  0  0  0  0  0  0  0  0
 11 12  1  0  0  0
 12 13  1  0  0  0
 12 16  2  0  0  0
 13 14  2  0  0  0
 14 15  1  0  0  0
 15 16  1  0  0  0
 16  7  1  0  0  0
  7  8  2  0  0  0
  7  9  1  0  0  0
  9  1  1  0  0  0
  9 10  1  0  0  0
  1  2  1  0  0  0
  1  6  2  0  0  0
  2  3  2  0  0  0
  3  4  1  0  0  0
  4  5  2  0  0  0
  5 17  1  0  0  0
  5  6  1  0  0  0
 17 18  3  0  0  0
 18 19  1  0  0  0
 19 20  1  0  0  0
 19 24  2  0  0  0
 20 21  2  0  0  0
 21 22  1  0  0  0
 22 23  2  0  0  0
 23 25  1  0  0  0
 23 24  1  0  0  0
 25 26  2  0  0  0
 25 27  1  0  0  0
 27 28  2  0  0  0
 28 29  1  0  0  0
 28 30  1  0  0  0
 28 31  2  0  0  0
M  END
> <minimizedAffinity>
-9.17547

$$$$
