CHEMBL4170942


 32 34  0  0  0  0  0  0  0  0999 V2000
  -13.5858   -3.4274  -11.0996 C   0  0  0  0  0  0  0  0  0  0  0  0
  -14.9141   -3.1095  -10.8011 C   0  0  0  0  0  0  0  0  0  0  0  0
  -15.7356   -2.4598  -11.7234 C   0  0  0  0  0  0  0  0  0  0  0  0
  -15.2629   -2.0902  -12.9813 C   0  0  0  0  0  0  0  0  0  0  0  0
  -13.9218   -2.3412  -13.2804 C   0  0  0  0  0  0  0  0  0  0  0  0
  -13.0952   -2.9983  -12.3479 C   0  0  0  0  0  0  0  0  0  0  0  0
  -11.4979   -6.0911   -9.7368 C   0  0  0  0  0  0  0  0  0  0  0  0
  -11.2797   -5.7290   -8.4135 C   0  0  0  0  0  0  0  0  0  0  0  0
  -11.8375   -4.5511   -7.9449 C   0  0  0  0  0  0  0  0  0  0  0  0
  -12.6194   -3.7845   -8.8019 C   0  0  0  0  0  0  0  0  0  0  0  0
  -12.7824   -4.1955  -10.1248 C   0  0  0  0  0  0  0  0  0  0  0  0
  -12.1768   -5.3170  -10.6043 N   0  0  0  0  0  0  0  0  0  0  0  0
  -11.7500   -8.0681  -11.1149 C   0  0  0  0  0  0  0  0  0  0  0  0
  -12.8764   -7.8054  -11.5275 O   0  0  0  0  0  0  0  0  0  0  0  0
  -11.0118   -7.2964  -10.2502 N   0  0  0  0  0  0  0  0  0  0  0  0
  -10.0032   -7.3530  -10.2844 H   0  0  0  0  0  0  0  0  0  0  0  0
  -11.6816  -10.2177  -12.2755 C   0  0  0  0  0  0  0  0  0  0  0  0
  -11.0226   -9.2751  -11.5873 C   0  0  0  0  0  0  0  0  0  0  0  0
  -16.0812   -1.4811  -13.9688 N   0  0  0  0  0  0  0  0  0  0  0  0
  -16.4993   -0.1609  -13.9523 C   0  0  0  0  0  0  0  0  0  0  0  0
  -16.2105    0.6611  -13.0939 O   0  0  0  0  0  0  0  0  0  0  0  0
  -17.3172    0.1423  -15.0325 N   0  0  0  0  0  0  0  0  0  0  0  0
  -16.3248   -2.0342  -14.7754 H   0  0  0  0  0  0  0  0  0  0  0  0
  -18.0059   -0.5733  -15.2015 H   0  0  0  0  0  0  0  0  0  0  0  0
  -17.7554    1.4866  -15.2110 C   0  0  0  0  0  0  0  0  0  0  0  0
  -19.0729    1.8810  -14.8772 C   0  0  0  0  0  0  0  0  0  0  0  0
  -20.1129    0.9601  -14.2924 C   0  0  0  0  0  0  0  0  0  0  0  0
  -19.4779    3.2037  -15.1287 C   0  0  0  0  0  0  0  0  0  0  0  0
  -18.5926    4.1335  -15.6612 C   0  0  0  0  0  0  0  0  0  0  0  0
  -17.2898    3.7527  -15.9648 C   0  0  0  0  0  0  0  0  0  0  0  0
  -16.8553    2.4325  -15.7513 C   0  0  0  0  0  0  0  0  0  0  0  0
  -15.4795    2.0532  -16.2280 C   0  0  0  0  0  0  0  0  0  0  0  0
 17 18  2  0  0  0
 18 13  1  0  0  0
 13 14  2  0  0  0
 13 15  1  0  0  0
 15  7  1  0  0  0
 15 16  1  0  0  0
  7  8  1  0  0  0
  7 12  2  0  0  0
  8  9  2  0  0  0
  9 10  1  0  0  0
 10 11  2  0  0  0
 11  1  1  0  0  0
 11 12  1  0  0  0
  1  2  1  0  0  0
  1  6  2  0  0  0
  2  3  2  0  0  0
  3  4  1  0  0  0
  4 19  1  0  0  0
  4  5  2  0  0  0
 19 20  1  0  0  0
 19 23  1  0  0  0
 20 21  2  0  0  0
 20 22  1  0  0  0
 22 25  1  0  0  0
 22 24  1  0  0  0
 25 26  1  0  0  0
 25 31  2  0  0  0
 26 27  1  0  0  0
 26 28  2  0  0  0
 28 29  1  0  0  0
 29 30  2  0  0  0
 30 31  1  0  0  0
 31 32  1  0  0  0
  5  6  1  0  0  0
M  END
> <minimizedAffinity>
-8.57703

$$$$
