CHEMBL3671512


 37 39  0  0  0  0  0  0  0  0999 V2000
  -30.0801   -4.3014   -5.7704 C   0  0  0  0  0  0  0  0  0  0  0  0
  -29.5796   -3.0011   -5.5525 C   0  0  0  0  0  0  0  0  0  0  0  0
  -28.8227   -2.3140   -6.4819 C   0  0  0  0  0  0  0  0  0  0  0  0
  -28.3953   -1.0914   -6.1601 N   0  0  0  0  0  0  0  0  0  0  0  0
  -27.6999   -0.4422   -7.0927 C   0  0  0  0  0  0  0  0  0  0  0  0
  -27.4153   -0.9003   -8.3103 N   0  0  0  0  0  0  0  0  0  0  0  0
  -27.8551   -2.1362   -8.6239 C   0  0  0  0  0  0  0  0  0  0  0  0
  -28.5656   -2.9208   -7.7066 C   0  0  0  0  0  0  0  0  0  0  0  0
  -29.0676   -4.2173   -7.9573 C   0  0  0  0  0  0  0  0  0  0  0  0
  -29.8230   -4.9207   -7.0078 C   0  0  0  0  0  0  0  0  0  0  0  0
  -30.3773   -6.1901   -7.3284 N   0  0  0  0  0  0  0  0  0  0  0  0
  -29.6459   -7.3606   -7.4564 C   0  0  0  0  0  0  0  0  0  0  0  0
  -28.4929   -7.5346   -7.0723 O   0  0  0  0  0  0  0  0  0  0  0  0
  -31.3809   -6.2044   -7.4654 H   0  0  0  0  0  0  0  0  0  0  0  0
  -30.3823   -8.4722   -8.1200 C   0  0  0  0  0  0  0  0  0  0  0  0
  -31.6179   -8.7876   -7.7013 C   0  0  0  0  0  0  0  0  0  0  0  0
  -27.6450   -2.6087   -9.9449 N   0  0  0  0  0  0  0  0  0  0  0  0
  -27.5879   -3.6247   -9.9701 H   0  0  0  0  0  0  0  0  0  0  0  0
  -26.7652   -1.9865  -10.8566 C   0  0  0  0  0  0  0  0  0  0  0  0
  -25.4773   -1.6042  -10.4516 C   0  0  0  0  0  0  0  0  0  0  0  0
  -24.5516   -1.1140  -11.3743 C   0  0  0  0  0  0  0  0  0  0  0  0
  -24.9231   -0.9849  -12.7069 C   0  0  0  0  0  0  0  0  0  0  0  0
  -23.6398   -0.4106  -13.9701 Br  0  0  0  0  0  0  0  0  0  0  0  0
  -26.2149   -1.2961  -13.1232 C   0  0  0  0  0  0  0  0  0  0  0  0
  -27.1260   -1.7915  -12.1931 C   0  0  0  0  0  0  0  0  0  0  0  0
  -28.3629   -2.1188  -12.5993 F   0  0  0  0  0  0  0  0  0  0  0  0
  -30.7885   -4.9983   -4.7979 O   0  0  0  0  0  0  0  0  0  0  0  0
  -29.9916   -5.3360   -3.6411 C   0  0  0  0  0  0  0  0  0  0  0  0
  -29.6615   -6.8275   -3.5188 C   0  0  0  0  0  0  0  0  0  0  0  0
  -26.6048   -8.5647   -4.5816 N   0  0  0  0  0  0  0  0  0  0  0  0
  -27.8091   -8.4091   -3.9285 C   0  0  0  0  0  0  0  0  0  0  0  0
  -28.3058   -9.2546   -3.1931 O   0  0  0  0  0  0  0  0  0  0  0  0
  -28.3834   -7.1740   -4.1493 N   0  0  0  0  0  0  0  0  0  0  0  0
  -26.2420   -7.7935   -5.1222 H   0  0  0  0  0  0  0  0  0  0  0  0
  -28.1944   -6.7642   -5.0521 H   0  0  0  0  0  0  0  0  0  0  0  0
  -24.8879   -9.8351   -3.5254 C   0  0  0  0  0  0  0  0  0  0  0  0
  -25.8388   -9.6977   -4.4538 C   0  0  0  0  0  0  0  0  0  0  0  0
 36 37  2  0  0  0
 37 30  1  0  0  0
 30 31  1  0  0  0
 30 34  1  0  0  0
 31 32  2  0  0  0
 31 33  1  0  0  0
 33 29  1  0  0  0
 33 35  1  0  0  0
 29 28  1  0  0  0
 28 27  1  0  0  0
 27  1  1  0  0  0
  1  2  1  0  0  0
  1 10  2  0  0  0
  2  3  2  0  0  0
  3  4  1  0  0  0
  3  8  1  0  0  0
  4  5  2  0  0  0
  5  6  1  0  0  0
  6  7  2  0  0  0
  7 17  1  0  0  0
  7  8  1  0  0  0
 17 19  1  0  0  0
 17 18  1  0  0  0
 19 20  1  0  0  0
 19 25  2  0  0  0
 20 21  2  0  0  0
 21 22  1  0  0  0
 22 23  1  0  0  0
 22 24  2  0  0  0
 24 25  1  0  0  0
 25 26  1  0  0  0
  8  9  2  0  0  0
  9 10  1  0  0  0
 10 11  1  0  0  0
 11 12  1  0  0  0
 11 14  1  0  0  0
 12 13  2  0  0  0
 12 15  1  0  0  0
 15 16  2  0  0  0
M  END
> <minimizedAffinity>
-8.87943

$$$$
