CHEMBL271310


 42 46  0  0  0  0  0  0  0  0999 V2000
  -13.7593   -4.5587  -13.6228 C   0  0  0  0  0  0  0  0  0  0  0  0
  -14.0796   -5.9354  -13.2996 C   0  0  0  0  0  0  0  0  0  0  0  0
  -14.9722   -5.9330  -12.2545 C   0  0  0  0  0  0  0  0  0  0  0  0
  -15.1945   -4.6405  -11.8937 N   0  0  0  0  0  0  0  0  0  0  0  0
  -16.0500   -4.2757  -10.9272 N   0  0  0  0  0  0  0  0  0  0  0  0
  -16.1355   -2.9995  -10.7564 C   0  0  0  0  0  0  0  0  0  0  0  0
  -15.4355   -2.0442  -11.4327 N   0  0  0  0  0  0  0  0  0  0  0  0
  -14.5765   -2.3749  -12.3569 C   0  0  0  0  0  0  0  0  0  0  0  0
  -14.4487   -3.7881  -12.6720 C   0  0  0  0  0  0  0  0  0  0  0  0
  -13.6167   -7.1992  -13.9597 C   0  0  0  0  0  0  0  0  0  0  0  0
  -12.7618   -8.0438  -13.4165 N   0  0  0  0  0  0  0  0  0  0  0  0
  -12.5557   -9.0540  -14.3245 N   0  0  0  0  0  0  0  0  0  0  0  0
  -13.3074   -8.7749  -15.3634 C   0  0  0  0  0  0  0  0  0  0  0  0
  -14.0261   -7.6240  -15.2060 O   0  0  0  0  0  0  0  0  0  0  0  0
  -13.5111   -9.4630  -16.5003 N   0  0  0  0  0  0  0  0  0  0  0  0
  -13.7676  -10.4378  -16.4104 H   0  0  0  0  0  0  0  0  0  0  0  0
  -12.7076   -9.1170  -17.6684 C   0  0  0  0  0  0  0  0  0  0  0  0
  -13.5958   -8.6134  -18.8099 C   0  0  0  0  0  0  0  0  0  0  0  0
  -13.9380   -7.1232  -18.7012 C   0  0  0  0  0  0  0  0  0  0  0  0
  -14.0962   -6.4231  -19.9864 N   0  0  0  0  0  0  0  0  0  0  0  0
  -14.5183   -5.0288  -19.8158 C   0  0  0  0  0  0  0  0  0  0  0  0
  -12.8363   -6.4625  -20.7352 C   0  0  0  0  0  0  0  0  0  0  0  0
  -11.5117   -4.7077  -14.8019 C   0  0  0  0  0  0  0  0  0  0  0  0
  -12.9327   -4.1468  -14.8343 C   0  0  0  0  0  0  0  0  0  0  0  0
  -13.6048   -4.3247  -16.1953 C   0  0  0  0  0  0  0  0  0  0  0  0
  -13.8614   -1.3841  -12.9865 N   0  0  0  0  0  0  0  0  0  0  0  0
  -13.2065   -0.8690  -12.4212 H   0  0  0  0  0  0  0  0  0  0  0  0
  -14.3149   -0.5979  -14.0705 C   0  0  0  0  0  0  0  0  0  0  0  0
  -15.5134    0.1234  -14.0184 C   0  0  0  0  0  0  0  0  0  0  0  0
  -15.9173    0.9499  -15.0774 C   0  0  0  0  0  0  0  0  0  0  0  0
  -15.1127    1.0316  -16.2128 C   0  0  0  0  0  0  0  0  0  0  0  0
  -15.4509    1.8093  -17.2506 F   0  0  0  0  0  0  0  0  0  0  0  0
  -13.9194    0.3128  -16.2986 C   0  0  0  0  0  0  0  0  0  0  0  0
  -13.5307   -0.4847  -15.2265 C   0  0  0  0  0  0  0  0  0  0  0  0
  -12.3678   -1.1497  -15.3111 F   0  0  0  0  0  0  0  0  0  0  0  0
  -17.1784    1.7230  -14.9017 C   0  0  0  0  0  0  0  0  0  0  0  0
  -17.1683    2.9398  -15.0524 O   0  0  0  0  0  0  0  0  0  0  0  0
  -18.3204    1.0195  -14.5761 N   0  0  0  0  0  0  0  0  0  0  0  0
  -18.2666    0.0174  -14.4329 H   0  0  0  0  0  0  0  0  0  0  0  0
  -19.5762    1.6696  -14.3723 C   0  0  0  0  0  0  0  0  0  0  0  0
  -20.8554    0.8842  -14.4371 C   0  0  0  0  0  0  0  0  0  0  0  0
  -20.5343    1.8812  -15.5117 C   0  0  0  0  0  0  0  0  0  0  0  0
 23 24  1  0  0  0
 24 25  1  0  0  0
 24  1  1  0  0  0
  1  2  1  0  0  0
  1  9  2  0  0  0
  2 10  1  0  0  0
  2  3  2  0  0  0
 10 11  2  0  0  0
 10 14  1  0  0  0
 11 12  1  0  0  0
 12 13  2  0  0  0
 13 15  1  0  0  0
 13 14  1  0  0  0
 15 17  1  0  0  0
 15 16  1  0  0  0
 17 18  1  0  0  0
 18 19  1  0  0  0
 19 20  1  0  0  0
 20 21  1  0  0  0
 20 22  1  0  0  0
  3  4  1  0  0  0
  4  5  1  0  0  0
  4  9  1  0  0  0
  5  6  2  0  0  0
  6  7  1  0  0  0
  7  8  2  0  0  0
  8 26  1  0  0  0
  8  9  1  0  0  0
 26 28  1  0  0  0
 26 27  1  0  0  0
 28 29  1  0  0  0
 28 34  2  0  0  0
 29 30  2  0  0  0
 30 36  1  0  0  0
 30 31  1  0  0  0
 36 37  2  0  0  0
 36 38  1  0  0  0
 38 40  1  0  0  0
 38 39  1  0  0  0
 40 41  1  0  0  0
 40 42  1  0  0  0
 41 42  1  0  0  0
 31 32  1  0  0  0
 31 33  2  0  0  0
 33 34  1  0  0  0
 34 35  1  0  0  0
M  END
> <minimizedAffinity>
-7.16437

$$$$
