CHEMBL1956896


 32 36  0  0  0  0  0  0  0  0999 V2000
  -28.7167   -8.6890   -9.3452 N   0  0  0  0  0  0  0  0  0  0  0  0
  -28.6191   -8.7036   -7.9675 C   0  0  0  0  0  0  0  0  0  0  0  0
  -27.8982   -9.6962   -7.4405 N   0  0  0  0  0  0  0  0  0  0  0  0
  -27.7732   -9.8041   -6.0939 C   0  0  0  0  0  0  0  0  0  0  0  0
  -28.3940   -8.8372   -5.2932 C   0  0  0  0  0  0  0  0  0  0  0  0
  -28.5584   -8.5849   -3.9013 C   0  0  0  0  0  0  0  0  0  0  0  0
  -29.3491   -7.4625   -3.7698 C   0  0  0  0  0  0  0  0  0  0  0  0
  -29.6603   -7.0190   -5.0334 N   0  0  0  0  0  0  0  0  0  0  0  0
  -29.0977   -7.8516   -5.9678 C   0  0  0  0  0  0  0  0  0  0  0  0
  -29.2324   -7.7309   -7.2998 N   0  0  0  0  0  0  0  0  0  0  0  0
  -27.9261   -9.1887   -9.7340 H   0  0  0  0  0  0  0  0  0  0  0  0
  -28.8782   -7.7476   -9.6691 H   0  0  0  0  0  0  0  0  0  0  0  0
  -27.0289  -10.8664   -5.5604 N   0  0  0  0  0  0  0  0  0  0  0  0
  -27.3741  -11.7856   -5.7860 H   0  0  0  0  0  0  0  0  0  0  0  0
  -25.6905  -10.8353   -5.1451 C   0  0  0  0  0  0  0  0  0  0  0  0
  -25.3941  -10.7629   -3.7775 C   0  0  0  0  0  0  0  0  0  0  0  0
  -24.0796  -10.6611   -3.3156 C   0  0  0  0  0  0  0  0  0  0  0  0
  -23.0265  -10.6509   -4.2363 C   0  0  0  0  0  0  0  0  0  0  0  0
  -23.2991  -10.7283   -5.5966 C   0  0  0  0  0  0  0  0  0  0  0  0
  -21.8849  -10.7285   -6.8504 Br  0  0  0  0  0  0  0  0  0  0  0  0
  -24.6143  -10.8068   -6.0518 C   0  0  0  0  0  0  0  0  0  0  0  0
  -30.5594   -5.9209   -5.3495 C   0  0  0  0  0  0  0  0  0  0  0  0
  -29.9281   -4.5606   -5.1794 C   0  0  0  0  0  0  0  0  0  0  0  0
  -30.3118   -3.7684   -4.0896 C   0  0  0  0  0  0  0  0  0  0  0  0
  -29.7847   -2.4894   -3.9181 C   0  0  0  0  0  0  0  0  0  0  0  0
  -28.9598   -1.9260   -4.8959 C   0  0  0  0  0  0  0  0  0  0  0  0
  -28.5187   -0.6035   -4.7769 C   0  0  0  0  0  0  0  0  0  0  0  0
  -28.0282    0.0659   -5.8941 C   0  0  0  0  0  0  0  0  0  0  0  0
  -27.8034   -0.6318   -7.0772 C   0  0  0  0  0  0  0  0  0  0  0  0
  -28.0241   -2.0103   -7.1285 C   0  0  0  0  0  0  0  0  0  0  0  0
  -28.6566   -2.6648   -6.0595 C   0  0  0  0  0  0  0  0  0  0  0  0
  -29.0777   -4.0041   -6.1506 C   0  0  0  0  0  0  0  0  0  0  0  0
  1  2  1  0  0  0
  1 11  1  0  0  0
  1 12  1  0  0  0
  2  3  1  0  0  0
  2 10  2  0  0  0
  3  4  2  0  0  0
  4 13  1  0  0  0
  4  5  1  0  0  0
 13 15  1  0  0  0
 13 14  1  0  0  0
 15 16  1  0  0  0
 15 21  2  0  0  0
 16 17  2  0  0  0
 17 18  1  0  0  0
 18 19  2  0  0  0
 19 20  1  0  0  0
 19 21  1  0  0  0
  5  6  1  0  0  0
  5  9  2  0  0  0
  6  7  2  0  0  0
  7  8  1  0  0  0
  8 22  1  0  0  0
  8  9  1  0  0  0
 22 23  1  0  0  0
 23 24  1  0  0  0
 23 32  2  0  0  0
 24 25  2  0  0  0
 25 26  1  0  0  0
 26 27  1  0  0  0
 26 31  2  0  0  0
 27 28  2  0  0  0
 28 29  1  0  0  0
 29 30  2  0  0  0
 30 31  1  0  0  0
 31 32  1  0  0  0
  9 10  1  0  0  0
M  END
> <minimizedAffinity>
-9.21429

$$$$
