CHEMBL380243


 40 45  0  0  0  0  0  0  0  0999 V2000
  -19.9605    2.2897  -15.2383 C   0  0  0  0  0  0  0  0  0  0  0  0
  -20.7538    3.4312  -14.9318 C   0  0  0  0  0  0  0  0  0  0  0  0
  -21.9358    3.3335  -14.1998 C   0  0  0  0  0  0  0  0  0  0  0  0
  -22.3514    2.0800  -13.8140 C   0  0  0  0  0  0  0  0  0  0  0  0
  -21.5932    0.9335  -14.1824 C   0  0  0  0  0  0  0  0  0  0  0  0
  -20.4021    1.0118  -14.8623 C   0  0  0  0  0  0  0  0  0  0  0  0
  -22.3364   -0.1843  -13.7075 C   0  0  0  0  0  0  0  0  0  0  0  0
  -22.2692   -1.5035  -13.8091 N   0  0  0  0  0  0  0  0  0  0  0  0
  -23.3995   -1.8883  -13.1539 N   0  0  0  0  0  0  0  0  0  0  0  0
  -24.1572   -0.8450  -12.6564 C   0  0  0  0  0  0  0  0  0  0  0  0
  -23.4753    0.2774  -13.0369 C   0  0  0  0  0  0  0  0  0  0  0  0
  -23.6032    1.7561  -12.9968 C   0  0  0  0  0  0  0  0  0  0  0  0
  -23.6120   -2.8779  -13.0971 H   0  0  0  0  0  0  0  0  0  0  0  0
  -25.3970   -0.9806  -11.9645 C   0  0  0  0  0  0  0  0  0  0  0  0
  -26.5661   -0.2942  -12.2125 C   0  0  0  0  0  0  0  0  0  0  0  0
  -27.6568   -0.7866  -11.4445 C   0  0  0  0  0  0  0  0  0  0  0  0
  -27.2848   -1.8490  -10.6447 C   0  0  0  0  0  0  0  0  0  0  0  0
  -25.5892   -2.0865  -10.6739 S   0  0  0  0  0  0  0  0  0  0  0  0
  -28.1563   -2.6666   -9.7527 C   0  0  0  0  0  0  0  0  0  0  0  0
  -28.1932   -2.2813   -8.3336 N   0  0  0  0  0  0  0  0  0  0  0  0
  -27.6362   -1.0169   -7.8601 C   0  0  0  0  0  0  0  0  0  0  0  0
  -28.9116   -3.1711   -7.5357 C   0  0  0  0  0  0  0  0  0  0  0  0
  -29.3202   -4.2321   -8.0108 O   0  0  0  0  0  0  0  0  0  0  0  0
  -29.1372   -2.7609   -6.2428 N   0  0  0  0  0  0  0  0  0  0  0  0
  -28.9862   -1.7857   -6.0449 H   0  0  0  0  0  0  0  0  0  0  0  0
  -29.8414   -3.4805   -5.2540 C   0  0  0  0  0  0  0  0  0  0  0  0
  -30.2285   -4.8145   -5.3999 C   0  0  0  0  0  0  0  0  0  0  0  0
  -31.0140   -5.4385   -4.4286 C   0  0  0  0  0  0  0  0  0  0  0  0
  -31.3955   -4.7344   -3.2913 C   0  0  0  0  0  0  0  0  0  0  0  0
  -32.4112   -5.4824   -2.1243 Cl  0  0  0  0  0  0  0  0  0  0  0  0
  -30.9660   -3.4225   -3.1031 C   0  0  0  0  0  0  0  0  0  0  0  0
  -30.1834   -2.7988   -4.0785 C   0  0  0  0  0  0  0  0  0  0  0  0
  -18.6388    2.4685  -15.9580 C   0  0  0  0  0  0  0  0  0  0  0  0
  -14.2337    1.7861  -17.6726 C   0  0  0  0  0  0  0  0  0  0  0  0
  -14.9660    2.3123  -16.5257 N   0  0  0  0  0  0  0  0  0  0  0  0
  -15.8332    3.4322  -16.9262 C   0  0  0  0  0  0  0  0  0  0  0  0
  -16.6660    3.9581  -15.7357 C   0  0  0  0  0  0  0  0  0  0  0  0
  -17.5321    2.9388  -15.1022 N   0  0  0  0  0  0  0  0  0  0  0  0
  -16.6588    1.8018  -14.7216 C   0  0  0  0  0  0  0  0  0  0  0  0
  -15.7588    1.2578  -15.8650 C   0  0  0  0  0  0  0  0  0  0  0  0
 34 35  1  0  0  0
 35 36  1  0  0  0
 35 40  1  0  0  0
 36 37  1  0  0  0
 37 38  1  0  0  0
 38 33  1  0  0  0
 38 39  1  0  0  0
 33  1  1  0  0  0
  1  2  1  0  0  0
  1  6  2  0  0  0
  2  3  2  0  0  0
  3  4  1  0  0  0
  4  5  2  0  0  0
  4 12  1  0  0  0
  5  6  1  0  0  0
  5  7  1  0  0  0
  7  8  2  0  0  0
  7 11  1  0  0  0
  8  9  1  0  0  0
  9 10  1  0  0  0
  9 13  1  0  0  0
 10 14  1  0  0  0
 10 11  2  0  0  0
 14 15  2  0  0  0
 14 18  1  0  0  0
 15 16  1  0  0  0
 16 17  2  0  0  0
 17 19  1  0  0  0
 17 18  1  0  0  0
 19 20  1  0  0  0
 20 21  1  0  0  0
 20 22  1  0  0  0
 22 23  2  0  0  0
 22 24  1  0  0  0
 24 26  1  0  0  0
 24 25  1  0  0  0
 26 27  1  0  0  0
 26 32  2  0  0  0
 27 28  2  0  0  0
 28 29  1  0  0  0
 29 30  1  0  0  0
 29 31  2  0  0  0
 31 32  1  0  0  0
 11 12  1  0  0  0
 39 40  1  0  0  0
M  END
> <minimizedAffinity>
-9.35164

$$$$
