CHEMBL3800526


 40 45  0  0  0  0  0  0  0  0999 V2000
  -28.7723   -2.8122   -4.3110 N   0  0  0  0  0  0  0  0  0  0  0  0
  -27.9785   -3.0684   -3.7308 H   0  0  0  0  0  0  0  0  0  0  0  0
  -29.8699   -3.7029   -4.1618 C   0  0  0  0  0  0  0  0  0  0  0  0
  -30.8391   -3.4516   -3.2561 N   0  0  0  0  0  0  0  0  0  0  0  0
  -31.8073   -4.3801   -3.1369 C   0  0  0  0  0  0  0  0  0  0  0  0
  -31.9195   -5.4938   -3.8551 N   0  0  0  0  0  0  0  0  0  0  0  0
  -30.9069   -5.7634   -4.6687 C   0  0  0  0  0  0  0  0  0  0  0  0
  -30.9066   -7.0064   -5.2574 C   0  0  0  0  0  0  0  0  0  0  0  0
  -29.8524   -7.4688   -6.0475 C   0  0  0  0  0  0  0  0  0  0  0  0
  -28.7764   -6.6147   -6.2719 C   0  0  0  0  0  0  0  0  0  0  0  0
  -28.7717   -5.3364   -5.7361 C   0  0  0  0  0  0  0  0  0  0  0  0
  -29.8228   -4.9074   -4.8833 C   0  0  0  0  0  0  0  0  0  0  0  0
  -29.8841   -8.7402   -6.5695 N   0  0  0  0  0  0  0  0  0  0  0  0
  -29.2169   -9.8348   -5.8699 C   0  0  0  0  0  0  0  0  0  0  0  0
  -28.0427  -10.3887   -6.6840 C   0  0  0  0  0  0  0  0  0  0  0  0
  -28.4787  -10.8029   -8.0309 N   0  0  0  0  0  0  0  0  0  0  0  0
  -27.3754  -11.4399   -8.7506 C   0  0  0  0  0  0  0  0  0  0  0  0
  -27.8411  -11.9159  -10.1226 C   0  0  0  0  0  0  0  0  0  0  0  0
  -28.3956  -10.7529  -10.9353 C   0  0  0  0  0  0  0  0  0  0  0  0
  -29.5030  -10.0450  -10.1594 C   0  0  0  0  0  0  0  0  0  0  0  0
  -29.0312   -9.6260   -8.7555 C   0  0  0  0  0  0  0  0  0  0  0  0
  -30.2177   -8.9584   -7.9869 C   0  0  0  0  0  0  0  0  0  0  0  0
  -27.8264   -0.9401   -7.1185 C   0  0  0  0  0  0  0  0  0  0  0  0
  -28.3883   -2.0950   -6.6243 C   0  0  0  0  0  0  0  0  0  0  0  0
  -28.4053   -1.9325   -5.2289 C   0  0  0  0  0  0  0  0  0  0  0  0
  -27.9253   -0.7272   -4.8783 N   0  0  0  0  0  0  0  0  0  0  0  0
  -27.6079   -0.1411   -6.0344 N   0  0  0  0  0  0  0  0  0  0  0  0
  -27.1946    0.7873   -6.0033 H   0  0  0  0  0  0  0  0  0  0  0  0
  -27.5021   -0.5827   -8.5238 C   0  0  0  0  0  0  0  0  0  0  0  0
  -27.9092   -1.6077   -9.5833 C   0  0  0  0  0  0  0  0  0  0  0  0
  -24.6608   -1.5497  -11.6291 C   0  0  0  0  0  0  0  0  0  0  0  0
  -25.5449   -1.5771  -10.5473 C   0  0  0  0  0  0  0  0  0  0  0  0
  -26.9359   -1.6338  -10.7449 C   0  0  0  0  0  0  0  0  0  0  0  0
  -27.4326   -1.6566  -12.0538 C   0  0  0  0  0  0  0  0  0  0  0  0
  -26.5583   -1.5969  -13.1429 C   0  0  0  0  0  0  0  0  0  0  0  0
  -25.1778   -1.5749  -12.9236 C   0  0  0  0  0  0  0  0  0  0  0  0
  -22.6569   -0.4801  -12.3625 C   0  0  0  0  0  0  0  0  0  0  0  0
  -23.2988   -1.4463  -11.5304 O   0  0  0  0  0  0  0  0  0  0  0  0
  -26.9503   -1.5580  -14.4548 O   0  0  0  0  0  0  0  0  0  0  0  0
  -25.9439   -1.1646  -15.3831 C   0  0  0  0  0  0  0  0  0  0  0  0
 37 38  1  0  0  0
 38 31  1  0  0  0
 31 32  1  0  0  0
 31 36  2  0  0  0
 32 33  2  0  0  0
 33 30  1  0  0  0
 33 34  1  0  0  0
 30 29  1  0  0  0
 29 23  1  0  0  0
 23 24  2  0  0  0
 23 27  1  0  0  0
 24 25  1  0  0  0
 25  1  1  0  0  0
 25 26  2  0  0  0
  1  3  1  0  0  0
  1  2  1  0  0  0
  3  4  1  0  0  0
  3 12  2  0  0  0
  4  5  2  0  0  0
  5  6  1  0  0  0
  6  7  2  0  0  0
  7  8  1  0  0  0
  7 12  1  0  0  0
  8  9  2  0  0  0
  9 13  1  0  0  0
  9 10  1  0  0  0
 13 14  1  0  0  0
 13 22  1  0  0  0
 14 15  1  0  0  0
 15 16  1  0  0  0
 16 17  1  0  0  0
 16 21  1  0  0  0
 17 18  1  0  0  0
 18 19  1  0  0  0
 19 20  1  0  0  0
 20 21  1  0  0  0
 21 22  1  0  0  0
 10 11  2  0  0  0
 11 12  1  0  0  0
 26 27  1  0  0  0
 27 28  1  0  0  0
 34 35  2  0  0  0
 35 39  1  0  0  0
 35 36  1  0  0  0
 39 40  1  0  0  0
M  END
> <minimizedAffinity>
-9.87584

$$$$
