CHEMBL467805


 31 35  0  0  0  0  0  0  0  0999 V2000
  -25.5950   -1.5274  -13.1372 C   0  0  0  0  0  0  0  0  0  0  0  0
  -26.0418   -1.3481  -14.4620 C   0  0  0  0  0  0  0  0  0  0  0  0
  -27.3433   -1.6818  -14.8240 C   0  0  0  0  0  0  0  0  0  0  0  0
  -28.2037   -2.2100  -13.8725 C   0  0  0  0  0  0  0  0  0  0  0  0
  -27.7849   -2.3514  -12.5460 C   0  0  0  0  0  0  0  0  0  0  0  0
  -26.4821   -2.0090  -12.1361 C   0  0  0  0  0  0  0  0  0  0  0  0
  -23.4696   -2.4396  -12.7326 O   0  0  0  0  0  0  0  0  0  0  0  0
  -24.1297   -1.4123  -12.8833 C   0  0  0  0  0  0  0  0  0  0  0  0
  -23.4749   -0.0929  -12.8676 C   0  0  0  0  0  0  0  0  0  0  0  0
  -24.0658    0.9341  -12.2229 N   0  0  0  0  0  0  0  0  0  0  0  0
  -23.4316    2.0179  -12.6792 N   0  0  0  0  0  0  0  0  0  0  0  0
  -22.4736    1.7445  -13.6129 C   0  0  0  0  0  0  0  0  0  0  0  0
  -21.7636    2.5769  -14.4806 C   0  0  0  0  0  0  0  0  0  0  0  0
  -20.7941    1.9725  -15.2834 C   0  0  0  0  0  0  0  0  0  0  0  0
  -20.5047    0.6139  -15.1610 C   0  0  0  0  0  0  0  0  0  0  0  0
  -21.2707   -0.2116  -14.3268 C   0  0  0  0  0  0  0  0  0  0  0  0
  -22.3244    0.3602  -13.5876 C   0  0  0  0  0  0  0  0  0  0  0  0
  -23.7322    2.9254  -12.3422 H   0  0  0  0  0  0  0  0  0  0  0  0
  -26.0959   -2.1014  -10.7830 N   0  0  0  0  0  0  0  0  0  0  0  0
  -25.0914   -2.2395  -10.6854 H   0  0  0  0  0  0  0  0  0  0  0  0
  -26.6202   -1.1389   -9.8186 C   0  0  0  0  0  0  0  0  0  0  0  0
  -27.4799   -1.7742   -8.7437 C   0  0  0  0  0  0  0  0  0  0  0  0
  -27.8744   -3.1125   -8.9017 C   0  0  0  0  0  0  0  0  0  0  0  0
  -28.6781   -3.7471   -7.9486 C   0  0  0  0  0  0  0  0  0  0  0  0
  -29.0333   -3.0766   -6.7694 C   0  0  0  0  0  0  0  0  0  0  0  0
  -29.8611   -3.6666   -5.8083 C   0  0  0  0  0  0  0  0  0  0  0  0
  -30.1070   -3.1312   -4.5945 N   0  0  0  0  0  0  0  0  0  0  0  0
  -29.5151   -1.9469   -4.3335 C   0  0  0  0  0  0  0  0  0  0  0  0
  -28.7637   -1.2312   -5.2548 C   0  0  0  0  0  0  0  0  0  0  0  0
  -28.5332   -1.7915   -6.5208 C   0  0  0  0  0  0  0  0  0  0  0  0
  -27.7948   -1.1295   -7.5331 C   0  0  0  0  0  0  0  0  0  0  0  0
  7  8  2  0  0  0
  8  1  1  0  0  0
  8  9  1  0  0  0
  1  2  1  0  0  0
  1  6  2  0  0  0
  2  3  2  0  0  0
  3  4  1  0  0  0
  4  5  2  0  0  0
  5  6  1  0  0  0
  6 19  1  0  0  0
 19 21  1  0  0  0
 19 20  1  0  0  0
 21 22  1  0  0  0
 22 23  1  0  0  0
 22 31  2  0  0  0
 23 24  2  0  0  0
 24 25  1  0  0  0
 25 26  1  0  0  0
 25 30  2  0  0  0
 26 27  2  0  0  0
 27 28  1  0  0  0
 28 29  2  0  0  0
 29 30  1  0  0  0
 30 31  1  0  0  0
  9 10  2  0  0  0
  9 17  1  0  0  0
 10 11  1  0  0  0
 11 12  1  0  0  0
 11 18  1  0  0  0
 12 13  1  0  0  0
 12 17  2  0  0  0
 13 14  2  0  0  0
 14 15  1  0  0  0
 15 16  2  0  0  0
 16 17  1  0  0  0
M  END
> <minimizedAffinity>
-9.40259

$$$$
