CHEMBL178607


 37 40  0  0  0  0  0  0  0  0999 V2000
  -26.2273  -10.7691   -6.6020 C   0  0  0  0  0  0  0  0  0  0  0  0
  -25.0044  -10.7689   -6.1402 N   0  0  0  0  0  0  0  0  0  0  0  0
  -24.6467   -9.9759   -5.0926 C   0  0  0  0  0  0  0  0  0  0  0  0
  -25.4172   -9.1694   -4.4499 N   0  0  0  0  0  0  0  0  0  0  0  0
  -26.6826   -9.1527   -4.9026 N   0  0  0  0  0  0  0  0  0  0  0  0
  -27.6479   -8.3631   -4.3713 C   0  0  0  0  0  0  0  0  0  0  0  0
  -28.8119   -8.5490   -5.0658 C   0  0  0  0  0  0  0  0  0  0  0  0
  -28.5323   -9.5152   -6.1158 C   0  0  0  0  0  0  0  0  0  0  0  0
  -27.1804   -9.8836   -5.9515 C   0  0  0  0  0  0  0  0  0  0  0  0
  -29.9965   -7.8989   -4.7800 N   0  0  0  0  0  0  0  0  0  0  0  0
  -30.4414   -6.7417   -5.3981 C   0  0  0  0  0  0  0  0  0  0  0  0
  -29.9186   -6.1273   -6.3163 O   0  0  0  0  0  0  0  0  0  0  0  0
  -30.4993   -8.1285   -3.9394 H   0  0  0  0  0  0  0  0  0  0  0  0
  -31.5305   -6.2767   -4.7155 O   0  0  0  0  0  0  0  0  0  0  0  0
  -31.1963   -5.5886   -3.4983 C   0  0  0  0  0  0  0  0  0  0  0  0
  -31.6424   -4.1297   -3.4704 C   0  0  0  0  0  0  0  0  0  0  0  0
  -30.4487   -3.1771   -3.2340 C   0  0  0  0  0  0  0  0  0  0  0  0
  -29.4742   -3.1089   -4.3414 N   0  0  0  0  0  0  0  0  0  0  0  0
  -30.1250   -2.8017   -5.6272 C   0  0  0  0  0  0  0  0  0  0  0  0
  -29.1195   -2.7664   -6.7798 C   0  0  0  0  0  0  0  0  0  0  0  0
  -27.9998   -1.7725   -6.5081 C   0  0  0  0  0  0  0  0  0  0  0  0
  -27.3639   -2.0634   -5.1550 C   0  0  0  0  0  0  0  0  0  0  0  0
  -28.4177   -2.1226   -4.0443 C   0  0  0  0  0  0  0  0  0  0  0  0
  -29.5278  -10.0394   -7.1408 C   0  0  0  0  0  0  0  0  0  0  0  0
  -30.7871  -10.6379   -6.4987 C   0  0  0  0  0  0  0  0  0  0  0  0
  -29.9409   -8.9939   -8.1806 C   0  0  0  0  0  0  0  0  0  0  0  0
  -26.5148  -11.6283   -7.6481 N   0  0  0  0  0  0  0  0  0  0  0  0
  -26.2738  -12.6013   -7.5546 H   0  0  0  0  0  0  0  0  0  0  0  0
  -28.6621  -10.0398  -12.7523 C   0  0  0  0  0  0  0  0  0  0  0  0
  -28.1149  -10.4332  -11.4103 C   0  0  0  0  0  0  0  0  0  0  0  0
  -28.6311  -11.5412  -10.7363 C   0  0  0  0  0  0  0  0  0  0  0  0
  -28.1064  -11.9267   -9.4974 C   0  0  0  0  0  0  0  0  0  0  0  0
  -27.0356  -11.2391   -8.9051 C   0  0  0  0  0  0  0  0  0  0  0  0
  -26.5445  -10.1044   -9.5658 C   0  0  0  0  0  0  0  0  0  0  0  0
  -27.0863   -9.7100  -10.7997 C   0  0  0  0  0  0  0  0  0  0  0  0
  -26.6180   -8.5950  -11.4396 O   0  0  0  0  0  0  0  0  0  0  0  0
  -25.9955   -8.1322  -10.8566 H   0  0  0  0  0  0  0  0  0  0  0  0
 29 30  1  0  0  0
 30 31  1  0  0  0
 30 35  2  0  0  0
 31 32  2  0  0  0
 32 33  1  0  0  0
 33 27  1  0  0  0
 33 34  2  0  0  0
 27  1  1  0  0  0
 27 28  1  0  0  0
  1  2  2  0  0  0
  1  9  1  0  0  0
  2  3  1  0  0  0
  3  4  2  0  0  0
  4  5  1  0  0  0
  5  6  1  0  0  0
  5  9  1  0  0  0
  6  7  2  0  0  0
  7 10  1  0  0  0
  7  8  1  0  0  0
 10 11  1  0  0  0
 10 13  1  0  0  0
 11 12  2  0  0  0
 11 14  1  0  0  0
 14 15  1  0  0  0
 15 16  1  0  0  0
 16 17  1  0  0  0
 17 18  1  0  0  0
 18 19  1  0  0  0
 18 23  1  0  0  0
 19 20  1  0  0  0
 20 21  1  0  0  0
 21 22  1  0  0  0
 22 23  1  0  0  0
  8 24  1  0  0  0
  8  9  2  0  0  0
 24 25  1  0  0  0
 24 26  1  0  0  0
 34 35  1  0  0  0
 35 36  1  0  0  0
 36 37  1  0  0  0
M  END
> <minimizedAffinity>
-8.54037

$$$$
