CHEMBL4438721


 31 33  0  0  0  0  0  0  0  0999 V2000
  -25.7318   -1.6462  -11.8667 C   0  0  0  0  0  0  0  0  0  0  0  0
  -26.6694   -1.9116  -12.8700 C   0  0  0  0  0  0  0  0  0  0  0  0
  -26.3567   -1.7220  -14.2082 C   0  0  0  0  0  0  0  0  0  0  0  0
  -25.1184   -1.2023  -14.5597 C   0  0  0  0  0  0  0  0  0  0  0  0
  -24.1894   -0.8220  -13.5861 C   0  0  0  0  0  0  0  0  0  0  0  0
  -24.4927   -1.0684  -12.2252 C   0  0  0  0  0  0  0  0  0  0  0  0
  -27.2420   -1.6569   -9.8679 C   0  0  0  0  0  0  0  0  0  0  0  0
  -28.2659   -1.2451  -10.4094 O   0  0  0  0  0  0  0  0  0  0  0  0
  -26.0344   -1.9390  -10.5124 N   0  0  0  0  0  0  0  0  0  0  0  0
  -25.3339   -2.4330   -9.9717 H   0  0  0  0  0  0  0  0  0  0  0  0
  -27.3006   -1.9929   -8.3759 C   0  0  0  0  0  0  0  0  0  0  0  0
  -28.5675   -3.2492   -8.0287 S   0  0  0  0  0  0  0  0  0  0  0  0
  -28.8806   -3.0490   -6.2997 C   0  0  0  0  0  0  0  0  0  0  0  0
  -29.1513   -1.4977   -5.7015 S   0  0  0  0  0  0  0  0  0  0  0  0
  -29.0560   -8.3880   -4.3992 C   0  0  0  0  0  0  0  0  0  0  0  0
  -29.1955   -6.9331   -4.3875 N   0  0  0  0  0  0  0  0  0  0  0  0
  -27.8957   -6.2788   -4.6182 C   0  0  0  0  0  0  0  0  0  0  0  0
  -28.0141   -4.7409   -4.5964 C   0  0  0  0  0  0  0  0  0  0  0  0
  -29.0188   -4.2347   -5.5566 N   0  0  0  0  0  0  0  0  0  0  0  0
  -30.3112   -4.9488   -5.4324 C   0  0  0  0  0  0  0  0  0  0  0  0
  -30.1495   -6.4851   -5.4197 C   0  0  0  0  0  0  0  0  0  0  0  0
  -22.9674   -0.1962  -13.9618 N   0  0  0  0  0  0  0  0  0  0  0  0
  -22.7051    1.1720  -13.8703 C   0  0  0  0  0  0  0  0  0  0  0  0
  -23.4677    2.0394  -13.4586 O   0  0  0  0  0  0  0  0  0  0  0  0
  -22.1711   -0.7784  -14.2134 H   0  0  0  0  0  0  0  0  0  0  0  0
  -21.3198    1.5936  -14.2639 C   0  0  0  0  0  0  0  0  0  0  0  0
  -20.4450    0.6492  -14.8091 C   0  0  0  0  0  0  0  0  0  0  0  0
  -19.1939    1.0738  -15.2402 C   0  0  0  0  0  0  0  0  0  0  0  0
  -18.8592    2.4159  -15.1123 C   0  0  0  0  0  0  0  0  0  0  0  0
  -19.7824    3.2808  -14.5453 C   0  0  0  0  0  0  0  0  0  0  0  0
  -21.0153    2.9062  -14.1106 N   0  0  0  0  0  0  0  0  0  0  0  0
 15 16  1  0  0  0
 16 17  1  0  0  0
 16 21  1  0  0  0
 17 18  1  0  0  0
 18 19  1  0  0  0
 19 13  1  0  0  0
 19 20  1  0  0  0
 13 14  2  0  0  0
 13 12  1  0  0  0
 12 11  1  0  0  0
 11  7  1  0  0  0
  7  8  2  0  0  0
  7  9  1  0  0  0
  9  1  1  0  0  0
  9 10  1  0  0  0
  1  2  1  0  0  0
  1  6  2  0  0  0
  2  3  2  0  0  0
  3  4  1  0  0  0
  4  5  2  0  0  0
  5 22  1  0  0  0
  5  6  1  0  0  0
 22 23  1  0  0  0
 22 25  1  0  0  0
 23 24  2  0  0  0
 23 26  1  0  0  0
 26 27  1  0  0  0
 26 31  2  0  0  0
 27 28  2  0  0  0
 28 29  1  0  0  0
 29 30  2  0  0  0
 30 31  1  0  0  0
 20 21  1  0  0  0
M  END
> <minimizedAffinity>
-9.46392

$$$$
