CHEMBL297769


 29 32  0  0  0  0  0  0  0  0999 V2000
  -29.3483   -5.3205   -5.3352 C   0  0  0  0  0  0  0  0  0  0  0  0
  -28.3198   -5.9066   -4.7049 N   0  0  0  0  0  0  0  0  0  0  0  0
  -28.1426   -7.2251   -4.8770 C   0  0  0  0  0  0  0  0  0  0  0  0
  -28.9931   -8.0001   -5.6193 C   0  0  0  0  0  0  0  0  0  0  0  0
  -30.0195   -7.3273   -6.2490 C   0  0  0  0  0  0  0  0  0  0  0  0
  -30.1649   -5.9849   -6.1612 N   0  0  0  0  0  0  0  0  0  0  0  0
  -31.0032   -8.0857   -6.9546 N   0  0  0  0  0  0  0  0  0  0  0  0
  -32.3602   -8.0564   -6.6795 C   0  0  0  0  0  0  0  0  0  0  0  0
  -32.9404   -8.9694   -7.5263 C   0  0  0  0  0  0  0  0  0  0  0  0
  -32.0057   -9.5309   -8.3268 N   0  0  0  0  0  0  0  0  0  0  0  0
  -30.8323   -8.9962   -8.0058 C   0  0  0  0  0  0  0  0  0  0  0  0
  -29.5735   -9.3491   -8.6872 C   0  0  0  0  0  0  0  0  0  0  0  0
  -28.5597   -8.4217   -8.9632 C   0  0  0  0  0  0  0  0  0  0  0  0
  -27.3247   -8.8336   -9.4717 C   0  0  0  0  0  0  0  0  0  0  0  0
  -27.1200  -10.1683   -9.8015 C   0  0  0  0  0  0  0  0  0  0  0  0
  -28.1523  -11.0890   -9.6348 C   0  0  0  0  0  0  0  0  0  0  0  0
  -29.3688  -10.6812   -9.0795 C   0  0  0  0  0  0  0  0  0  0  0  0
  -29.6389   -3.9838   -5.0574 N   0  0  0  0  0  0  0  0  0  0  0  0
  -30.5737   -3.9038   -4.6898 H   0  0  0  0  0  0  0  0  0  0  0  0
  -28.3407    0.7835   -4.8273 C   0  0  0  0  0  0  0  0  0  0  0  0
  -28.4101   -0.5097   -5.5856 C   0  0  0  0  0  0  0  0  0  0  0  0
  -27.9191   -0.5968   -6.8967 C   0  0  0  0  0  0  0  0  0  0  0  0
  -27.9939   -1.7996   -7.6069 C   0  0  0  0  0  0  0  0  0  0  0  0
  -28.5471   -2.9171   -6.9677 C   0  0  0  0  0  0  0  0  0  0  0  0
  -29.0765   -2.8533   -5.6692 C   0  0  0  0  0  0  0  0  0  0  0  0
  -28.9740   -1.6440   -4.9772 C   0  0  0  0  0  0  0  0  0  0  0  0
  -27.4402   -1.9534   -8.9997 C   0  0  0  0  0  0  0  0  0  0  0  0
  -27.0873   -3.2998   -9.2863 O   0  0  0  0  0  0  0  0  0  0  0  0
  -26.5030   -3.5890   -8.5640 H   0  0  0  0  0  0  0  0  0  0  0  0
 20 21  1  0  0  0
 21 22  1  0  0  0
 21 26  2  0  0  0
 22 23  2  0  0  0
 23 27  1  0  0  0
 23 24  1  0  0  0
 27 28  1  0  0  0
 28 29  1  0  0  0
 24 25  2  0  0  0
 25 18  1  0  0  0
 25 26  1  0  0  0
 18  1  1  0  0  0
 18 19  1  0  0  0
  1  2  1  0  0  0
  1  6  2  0  0  0
  2  3  2  0  0  0
  3  4  1  0  0  0
  4  5  2  0  0  0
  5  7  1  0  0  0
  5  6  1  0  0  0
  7  8  1  0  0  0
  7 11  1  0  0  0
  8  9  2  0  0  0
  9 10  1  0  0  0
 10 11  2  0  0  0
 11 12  1  0  0  0
 12 13  1  0  0  0
 12 17  2  0  0  0
 13 14  2  0  0  0
 14 15  1  0  0  0
 15 16  2  0  0  0
 16 17  1  0  0  0
M  END
> <minimizedAffinity>
-9.07169

$$$$
