CHEMBL3297891


 23 26  0  0  0  0  0  0  0  0999 V2000
  -28.4652   -6.3139   -6.8442 N   0  0  0  0  0  0  0  0  0  0  0  0
  -27.9219   -6.6453   -6.0647 H   0  0  0  0  0  0  0  0  0  0  0  0
  -32.8843   -8.2717   -7.0215 C   0  0  0  0  0  0  0  0  0  0  0  0
  -31.4725   -8.2651   -7.5359 C   0  0  0  0  0  0  0  0  0  0  0  0
  -30.6464   -7.3019   -7.0829 N   0  0  0  0  0  0  0  0  0  0  0  0
  -29.3192   -7.2588   -7.4557 C   0  0  0  0  0  0  0  0  0  0  0  0
  -28.9059   -8.2254   -8.3680 C   0  0  0  0  0  0  0  0  0  0  0  0
  -27.7037   -8.5854   -9.0478 C   0  0  0  0  0  0  0  0  0  0  0  0
  -28.0045   -9.6875   -9.8176 C   0  0  0  0  0  0  0  0  0  0  0  0
  -27.2425  -10.5356  -10.7502 C   0  0  0  0  0  0  0  0  0  0  0  0
  -29.3116  -10.0286   -9.6546 O   0  0  0  0  0  0  0  0  0  0  0  0
  -29.8580   -9.1513   -8.7709 C   0  0  0  0  0  0  0  0  0  0  0  0
  -31.1386   -9.2419   -8.3860 N   0  0  0  0  0  0  0  0  0  0  0  0
  -28.6903   -4.9125   -6.8739 C   0  0  0  0  0  0  0  0  0  0  0  0
  -28.3982   -4.2138   -8.0583 C   0  0  0  0  0  0  0  0  0  0  0  0
  -28.3213   -2.8260   -8.0872 C   0  0  0  0  0  0  0  0  0  0  0  0
  -28.4450   -2.1174   -6.9069 C   0  0  0  0  0  0  0  0  0  0  0  0
  -28.8124   -2.7940   -5.7321 C   0  0  0  0  0  0  0  0  0  0  0  0
  -28.9714   -2.0615   -4.5621 C   0  0  0  0  0  0  0  0  0  0  0  0
  -29.8929   -2.4832   -3.6076 C   0  0  0  0  0  0  0  0  0  0  0  0
  -30.3596   -3.7902   -3.6570 C   0  0  0  0  0  0  0  0  0  0  0  0
  -29.8522   -4.6662   -4.6279 C   0  0  0  0  0  0  0  0  0  0  0  0
  -29.1218   -4.1726   -5.7398 C   0  0  0  0  0  0  0  0  0  0  0  0
  3  4  1  0  0  0
  4  5  1  0  0  0
  4 13  2  0  0  0
  5  6  2  0  0  0
  6  1  1  0  0  0
  6  7  1  0  0  0
  1 14  1  0  0  0
  1  2  1  0  0  0
 14 15  1  0  0  0
 14 23  2  0  0  0
 15 16  2  0  0  0
 16 17  1  0  0  0
 17 18  2  0  0  0
 18 19  1  0  0  0
 18 23  1  0  0  0
 19 20  2  0  0  0
 20 21  1  0  0  0
 21 22  2  0  0  0
 22 23  1  0  0  0
  7  8  1  0  0  0
  7 12  2  0  0  0
  8  9  2  0  0  0
  9 10  1  0  0  0
  9 11  1  0  0  0
 11 12  1  0  0  0
 12 13  1  0  0  0
M  END
> <minimizedAffinity>
-8.51923

$$$$
