CHEMBL595143


 39 44  0  0  0  0  0  0  0  0999 V2000
  -29.2193   -5.4071   -7.2185 C   0  0  0  0  0  0  0  0  0  0  0  0
  -28.8423   -4.3528   -8.0555 C   0  0  0  0  0  0  0  0  0  0  0  0
  -28.4913   -3.0891   -7.5307 C   0  0  0  0  0  0  0  0  0  0  0  0
  -28.1949   -1.9496   -8.2907 C   0  0  0  0  0  0  0  0  0  0  0  0
  -27.7826   -0.7861   -7.7448 N   0  0  0  0  0  0  0  0  0  0  0  0
  -27.7723   -0.7362   -6.4131 C   0  0  0  0  0  0  0  0  0  0  0  0
  -28.1196   -1.7285   -5.5850 N   0  0  0  0  0  0  0  0  0  0  0  0
  -28.4624   -2.8968   -6.1443 C   0  0  0  0  0  0  0  0  0  0  0  0
  -28.8024   -3.9604   -5.3166 C   0  0  0  0  0  0  0  0  0  0  0  0
  -29.1487   -5.2215   -5.8256 C   0  0  0  0  0  0  0  0  0  0  0  0
  -28.7582   -7.5947   -8.1131 C   0  0  0  0  0  0  0  0  0  0  0  0
  -29.6819   -6.6045   -7.6856 O   0  0  0  0  0  0  0  0  0  0  0  0
  -28.3698   -2.0014   -9.6847 O   0  0  0  0  0  0  0  0  0  0  0  0
  -27.2914   -1.6408  -10.4773 C   0  0  0  0  0  0  0  0  0  0  0  0
  -25.9966   -1.7801   -9.9687 C   0  0  0  0  0  0  0  0  0  0  0  0
  -24.8838   -1.2905  -10.6929 C   0  0  0  0  0  0  0  0  0  0  0  0
  -25.0473   -0.6638  -11.9404 C   0  0  0  0  0  0  0  0  0  0  0  0
  -26.3472   -0.6606  -12.4789 C   0  0  0  0  0  0  0  0  0  0  0  0
  -27.4442   -1.1628  -11.7753 C   0  0  0  0  0  0  0  0  0  0  0  0
  -23.9208    0.0299  -12.6298 C   0  0  0  0  0  0  0  0  0  0  0  0
  -23.7613    1.3332  -12.7674 N   0  0  0  0  0  0  0  0  0  0  0  0
  -22.6749    1.6136  -13.6103 C   0  0  0  0  0  0  0  0  0  0  0  0
  -22.2097    2.8798  -14.0315 C   0  0  0  0  0  0  0  0  0  0  0  0
  -21.1419    2.9766  -14.9402 C   0  0  0  0  0  0  0  0  0  0  0  0
  -20.5201    1.8331  -15.4298 C   0  0  0  0  0  0  0  0  0  0  0  0
  -20.9318    0.5711  -15.0049 C   0  0  0  0  0  0  0  0  0  0  0  0
  -22.0047    0.4890  -14.1009 C   0  0  0  0  0  0  0  0  0  0  0  0
  -22.7062   -0.9119  -13.4287 S   0  0  0  0  0  0  0  0  0  0  0  0
  -29.3899   -6.1658   -4.8439 O   0  0  0  0  0  0  0  0  0  0  0  0
  -28.2551   -6.9592   -4.4774 C   0  0  0  0  0  0  0  0  0  0  0  0
  -28.6665   -8.3401   -3.9614 C   0  0  0  0  0  0  0  0  0  0  0  0
  -28.2239   -9.4365   -4.9515 C   0  0  0  0  0  0  0  0  0  0  0  0
  -26.7669   -9.4822   -5.1497 N   0  0  0  0  0  0  0  0  0  0  0  0
  -26.0360   -9.8697   -3.9308 C   0  0  0  0  0  0  0  0  0  0  0  0
  -24.5089   -9.8920   -4.1574 C   0  0  0  0  0  0  0  0  0  0  0  0
  -24.0674  -10.7712   -5.2556 N   0  0  0  0  0  0  0  0  0  0  0  0
  -24.2044  -12.1806   -4.8966 C   0  0  0  0  0  0  0  0  0  0  0  0
  -24.8407  -10.4373   -6.4700 C   0  0  0  0  0  0  0  0  0  0  0  0
  -26.3794  -10.3470   -6.2790 C   0  0  0  0  0  0  0  0  0  0  0  0
 11 12  1  0  0  0
 12  1  1  0  0  0
  1  2  1  0  0  0
  1 10  2  0  0  0
  2  3  2  0  0  0
  3  4  1  0  0  0
  3  8  1  0  0  0
  4 13  1  0  0  0
  4  5  2  0  0  0
 13 14  1  0  0  0
 14 15  1  0  0  0
 14 19  2  0  0  0
 15 16  2  0  0  0
 16 17  1  0  0  0
 17 20  1  0  0  0
 17 18  2  0  0  0
 20 21  2  0  0  0
 20 28  1  0  0  0
 21 22  1  0  0  0
 22 23  1  0  0  0
 22 27  2  0  0  0
 23 24  2  0  0  0
 24 25  1  0  0  0
 25 26  2  0  0  0
 26 27  1  0  0  0
 27 28  1  0  0  0
 18 19  1  0  0  0
  5  6  1  0  0  0
  6  7  2  0  0  0
  7  8  1  0  0  0
  8  9  2  0  0  0
  9 10  1  0  0  0
 10 29  1  0  0  0
 29 30  1  0  0  0
 30 31  1  0  0  0
 31 32  1  0  0  0
 32 33  1  0  0  0
 33 34  1  0  0  0
 33 39  1  0  0  0
 34 35  1  0  0  0
 35 36  1  0  0  0
 36 37  1  0  0  0
 36 38  1  0  0  0
 38 39  1  0  0  0
M  END
> <minimizedAffinity>
-9.24376

$$$$
