CHEMBL2069625


 23 25  0  0  0  0  0  0  0  0999 V2000
  -27.7376   -0.1672   -6.7909 C   0  0  0  0  0  0  0  0  0  0  0  0
  -28.0446   -1.5228   -7.2762 C   0  0  0  0  0  0  0  0  0  0  0  0
  -28.5268   -2.4103   -6.3596 O   0  0  0  0  0  0  0  0  0  0  0  0
  -28.7108   -3.5715   -7.0651 C   0  0  0  0  0  0  0  0  0  0  0  0
  -28.4024   -3.4728   -8.3444 N   0  0  0  0  0  0  0  0  0  0  0  0
  -27.9623   -2.1698   -8.4920 C   0  0  0  0  0  0  0  0  0  0  0  0
  -29.2092   -4.7170   -6.3059 C   0  0  0  0  0  0  0  0  0  0  0  0
  -30.2080   -4.5704   -5.3320 C   0  0  0  0  0  0  0  0  0  0  0  0
  -30.6714   -5.6724   -4.6078 C   0  0  0  0  0  0  0  0  0  0  0  0
  -30.1374   -6.9355   -4.8490 C   0  0  0  0  0  0  0  0  0  0  0  0
  -29.1451   -7.0986   -5.8115 C   0  0  0  0  0  0  0  0  0  0  0  0
  -28.6829   -5.9954   -6.5368 C   0  0  0  0  0  0  0  0  0  0  0  0
  -27.4976   -1.6442   -9.8077 C   0  0  0  0  0  0  0  0  0  0  0  0
  -26.0707   -1.6804   -9.8906 O   0  0  0  0  0  0  0  0  0  0  0  0
  -25.5112   -1.6210  -11.1370 C   0  0  0  0  0  0  0  0  0  0  0  0
  -24.1496   -1.6070  -11.4315 C   0  0  0  0  0  0  0  0  0  0  0  0
  -23.7235   -1.5762  -12.7631 C   0  0  0  0  0  0  0  0  0  0  0  0
  -24.6547   -1.5610  -13.8036 C   0  0  0  0  0  0  0  0  0  0  0  0
  -26.0263   -1.5523  -13.5261 C   0  0  0  0  0  0  0  0  0  0  0  0
  -26.4385   -1.5869  -12.1849 C   0  0  0  0  0  0  0  0  0  0  0  0
  -27.0607   -1.6075  -14.6209 C   0  0  0  0  0  0  0  0  0  0  0  0
  -26.6040   -0.9918  -15.8182 O   0  0  0  0  0  0  0  0  0  0  0  0
  -26.3893   -0.0715  -15.5898 H   0  0  0  0  0  0  0  0  0  0  0  0
  1  2  1  0  0  0
  2  3  1  0  0  0
  2  6  2  0  0  0
  3  4  1  0  0  0
  4  7  1  0  0  0
  4  5  2  0  0  0
  7  8  1  0  0  0
  7 12  2  0  0  0
  8  9  2  0  0  0
  9 10  1  0  0  0
 10 11  2  0  0  0
 11 12  1  0  0  0
  5  6  1  0  0  0
  6 13  1  0  0  0
 13 14  1  0  0  0
 14 15  1  0  0  0
 15 16  1  0  0  0
 15 20  2  0  0  0
 16 17  2  0  0  0
 17 18  1  0  0  0
 18 19  2  0  0  0
 19 21  1  0  0  0
 19 20  1  0  0  0
 21 22  1  0  0  0
 22 23  1  0  0  0
M  END
> <minimizedAffinity>
-8.38883

$$$$
