CHEMBL197592


 31 34  0  0  0  0  0  0  0  0999 V2000
  -12.8207   -3.7782  -12.1401 C   0  0  0  0  0  0  0  0  0  0  0  0
  -14.1734   -3.9392  -12.4331 C   0  0  0  0  0  0  0  0  0  0  0  0
  -14.8309   -3.0897  -13.3255 C   0  0  0  0  0  0  0  0  0  0  0  0
  -14.1987   -1.9674  -13.8584 C   0  0  0  0  0  0  0  0  0  0  0  0
  -12.8713   -1.7359  -13.5008 C   0  0  0  0  0  0  0  0  0  0  0  0
  -12.1819   -2.6524  -12.6844 C   0  0  0  0  0  0  0  0  0  0  0  0
  -12.1342   -3.3353   -9.0784 C   0  0  0  0  0  0  0  0  0  0  0  0
  -11.8731   -4.5321   -9.9411 C   0  0  0  0  0  0  0  0  0  0  0  0
  -11.1198   -5.8723   -9.1826 S   0  0  0  0  0  0  0  0  0  0  0  0
  -11.1840   -6.8062  -10.5903 C   0  0  0  0  0  0  0  0  0  0  0  0
  -10.7303   -8.0680  -10.5428 N   0  0  0  0  0  0  0  0  0  0  0  0
  -10.8327   -8.6926  -11.7105 C   0  0  0  0  0  0  0  0  0  0  0  0
  -11.2919   -8.1824  -12.8560 N   0  0  0  0  0  0  0  0  0  0  0  0
  -11.7216   -6.9058  -12.8739 C   0  0  0  0  0  0  0  0  0  0  0  0
  -12.1446   -6.4744  -14.1248 N   0  0  0  0  0  0  0  0  0  0  0  0
  -11.7085   -6.1355  -11.6813 C   0  0  0  0  0  0  0  0  0  0  0  0
  -12.1293   -4.7731  -11.2902 C   0  0  0  0  0  0  0  0  0  0  0  0
  -11.8853   -7.1443  -14.8402 H   0  0  0  0  0  0  0  0  0  0  0  0
  -11.9540   -5.5045  -14.3366 H   0  0  0  0  0  0  0  0  0  0  0  0
  -14.8292   -1.0692  -14.7508 N   0  0  0  0  0  0  0  0  0  0  0  0
  -15.8175   -0.1694  -14.4055 C   0  0  0  0  0  0  0  0  0  0  0  0
  -16.2312    0.0160  -13.2662 O   0  0  0  0  0  0  0  0  0  0  0  0
  -16.3551    0.4798  -15.5131 N   0  0  0  0  0  0  0  0  0  0  0  0
  -14.4789   -1.0260  -15.6956 H   0  0  0  0  0  0  0  0  0  0  0  0
  -16.4086   -0.0925  -16.3422 H   0  0  0  0  0  0  0  0  0  0  0  0
  -17.4332    1.3761  -15.3065 C   0  0  0  0  0  0  0  0  0  0  0  0
  -18.7136    0.9025  -14.9940 C   0  0  0  0  0  0  0  0  0  0  0  0
  -19.8029    1.7703  -14.9798 C   0  0  0  0  0  0  0  0  0  0  0  0
  -19.6126    3.1183  -15.2708 C   0  0  0  0  0  0  0  0  0  0  0  0
  -18.3291    3.6038  -15.5295 C   0  0  0  0  0  0  0  0  0  0  0  0
  -17.2317    2.7390  -15.5215 C   0  0  0  0  0  0  0  0  0  0  0  0
  7  8  1  0  0  0
  8  9  1  0  0  0
  8 17  2  0  0  0
  9 10  1  0  0  0
 10 11  1  0  0  0
 10 16  2  0  0  0
 11 12  2  0  0  0
 12 13  1  0  0  0
 13 14  2  0  0  0
 14 15  1  0  0  0
 14 16  1  0  0  0
 15 18  1  0  0  0
 15 19  1  0  0  0
 16 17  1  0  0  0
 17  1  1  0  0  0
  1  2  1  0  0  0
  1  6  2  0  0  0
  2  3  2  0  0  0
  3  4  1  0  0  0
  4 20  1  0  0  0
  4  5  2  0  0  0
 20 21  1  0  0  0
 20 24  1  0  0  0
 21 22  2  0  0  0
 21 23  1  0  0  0
 23 26  1  0  0  0
 23 25  1  0  0  0
 26 27  1  0  0  0
 26 31  2  0  0  0
 27 28  2  0  0  0
 28 29  1  0  0  0
 29 30  2  0  0  0
 30 31  1  0  0  0
  5  6  1  0  0  0
M  END
> <minimizedAffinity>
-7.71332

$$$$
