CHEMBL3656106


 42 45  0  0  0  0  0  0  0  0999 V2000
  -27.8246   -2.1499   -8.6973 C   0  0  0  0  0  0  0  0  0  0  0  0
  -28.7266   -3.1591   -8.3835 C   0  0  0  0  0  0  0  0  0  0  0  0
  -29.1159   -3.3550   -7.0639 C   0  0  0  0  0  0  0  0  0  0  0  0
  -28.6430   -2.4746   -6.1051 C   0  0  0  0  0  0  0  0  0  0  0  0
  -27.7577   -1.4771   -6.5047 C   0  0  0  0  0  0  0  0  0  0  0  0
  -27.3196   -1.3009   -7.7767 N   0  0  0  0  0  0  0  0  0  0  0  0
  -26.1656   -1.6319  -11.9781 C   0  0  0  0  0  0  0  0  0  0  0  0
  -27.5146   -1.5729  -12.2878 C   0  0  0  0  0  0  0  0  0  0  0  0
  -28.2414   -1.8265  -11.1458 N   0  0  0  0  0  0  0  0  0  0  0  0
  -27.3886   -1.9747  -10.0765 C   0  0  0  0  0  0  0  0  0  0  0  0
  -26.1071   -1.9273  -10.5937 C   0  0  0  0  0  0  0  0  0  0  0  0
  -29.2497   -1.8619  -11.0698 H   0  0  0  0  0  0  0  0  0  0  0  0
  -23.9327   -0.7982  -12.2639 N   0  0  0  0  0  0  0  0  0  0  0  0
  -24.9979   -1.4327  -12.8394 C   0  0  0  0  0  0  0  0  0  0  0  0
  -24.9806   -1.8275  -14.0042 O   0  0  0  0  0  0  0  0  0  0  0  0
  -23.9134   -0.6590  -11.2619 H   0  0  0  0  0  0  0  0  0  0  0  0
  -22.7090   -0.5992  -13.0156 C   0  0  0  0  0  0  0  0  0  0  0  0
  -22.6492    0.7936  -13.6169 C   0  0  0  0  0  0  0  0  0  0  0  0
  -23.4783    1.6750  -13.4179 O   0  0  0  0  0  0  0  0  0  0  0  0
  -20.9945    2.2511  -14.4159 C   0  0  0  0  0  0  0  0  0  0  0  0
  -21.5310    0.9292  -14.3926 O   0  0  0  0  0  0  0  0  0  0  0  0
  -29.9943   -4.3438   -6.6552 O   0  0  0  0  0  0  0  0  0  0  0  0
  -29.5112   -5.6121   -6.4018 C   0  0  0  0  0  0  0  0  0  0  0  0
  -29.1853   -6.0500   -5.1244 C   0  0  0  0  0  0  0  0  0  0  0  0
  -28.5852   -7.2955   -4.9317 C   0  0  0  0  0  0  0  0  0  0  0  0
  -28.3549   -8.1669   -5.9932 C   0  0  0  0  0  0  0  0  0  0  0  0
  -28.7974   -7.7846   -7.2631 C   0  0  0  0  0  0  0  0  0  0  0  0
  -29.3714   -6.5053   -7.4676 C   0  0  0  0  0  0  0  0  0  0  0  0
  -27.6789   -9.4174   -5.8189 N   0  0  0  0  0  0  0  0  0  0  0  0
  -26.4877   -9.5745   -5.1140 C   0  0  0  0  0  0  0  0  0  0  0  0
  -25.8756   -8.6813   -4.5581 O   0  0  0  0  0  0  0  0  0  0  0  0
  -26.0293  -10.8915   -5.0972 N   0  0  0  0  0  0  0  0  0  0  0  0
  -28.0948  -10.2298   -6.2418 H   0  0  0  0  0  0  0  0  0  0  0  0
  -26.1520  -11.3907   -5.9701 H   0  0  0  0  0  0  0  0  0  0  0  0
  -24.7965  -11.1476   -4.4201 C   0  0  0  0  0  0  0  0  0  0  0  0
  -24.7937  -11.5925   -3.0920 C   0  0  0  0  0  0  0  0  0  0  0  0
  -23.5906  -11.8150   -2.4063 C   0  0  0  0  0  0  0  0  0  0  0  0
  -23.6040  -12.3157   -0.9869 C   0  0  0  0  0  0  0  0  0  0  0  0
  -22.3729  -11.5691   -3.0547 C   0  0  0  0  0  0  0  0  0  0  0  0
  -22.3680  -11.1250   -4.3803 C   0  0  0  0  0  0  0  0  0  0  0  0
  -23.5740  -10.9342   -5.0584 C   0  0  0  0  0  0  0  0  0  0  0  0
  -23.5472  -10.4797   -6.3211 F   0  0  0  0  0  0  0  0  0  0  0  0
 20 21  1  0  0  0
 21 18  1  0  0  0
 18 19  2  0  0  0
 18 17  1  0  0  0
 17 13  1  0  0  0
 13 14  1  0  0  0
 13 16  1  0  0  0
 14 15  2  0  0  0
 14  7  1  0  0  0
  7  8  2  0  0  0
  7 11  1  0  0  0
  8  9  1  0  0  0
  9 10  1  0  0  0
  9 12  1  0  0  0
 10  1  1  0  0  0
 10 11  2  0  0  0
  1  2  1  0  0  0
  1  6  2  0  0  0
  2  3  2  0  0  0
  3 22  1  0  0  0
  3  4  1  0  0  0
 22 23  1  0  0  0
 23 24  1  0  0  0
 23 28  2  0  0  0
 24 25  2  0  0  0
 25 26  1  0  0  0
 26 29  1  0  0  0
 26 27  2  0  0  0
 29 30  1  0  0  0
 29 33  1  0  0  0
 30 31  2  0  0  0
 30 32  1  0  0  0
 32 35  1  0  0  0
 32 34  1  0  0  0
 35 36  1  0  0  0
 35 41  2  0  0  0
 36 37  2  0  0  0
 37 38  1  0  0  0
 37 39  1  0  0  0
 39 40  2  0  0  0
 40 41  1  0  0  0
 41 42  1  0  0  0
 27 28  1  0  0  0
  4  5  2  0  0  0
  5  6  1  0  0  0
M  END
> <minimizedAffinity>
-9.67745

$$$$
