CHEMBL3984969


 30 34  0  0  0  0  0  0  0  0999 V2000
  -28.8316   -5.7823   -6.0967 C   0  0  0  0  0  0  0  0  0  0  0  0
  -28.8469   -4.7079   -5.1884 C   0  0  0  0  0  0  0  0  0  0  0  0
  -28.6186   -3.4068   -5.5792 C   0  0  0  0  0  0  0  0  0  0  0  0
  -28.3044   -3.1006   -6.8567 C   0  0  0  0  0  0  0  0  0  0  0  0
  -28.2653   -1.7911   -7.1868 N   0  0  0  0  0  0  0  0  0  0  0  0
  -27.9562   -1.3701   -8.4203 C   0  0  0  0  0  0  0  0  0  0  0  0
  -27.5499   -2.2933   -9.3755 C   0  0  0  0  0  0  0  0  0  0  0  0
  -27.6179   -3.6618   -9.0718 N   0  0  0  0  0  0  0  0  0  0  0  0
  -28.0628   -4.1020   -7.8236 C   0  0  0  0  0  0  0  0  0  0  0  0
  -28.3445   -5.4903   -7.4462 C   0  0  0  0  0  0  0  0  0  0  0  0
  -26.9182   -1.6497  -10.5752 C   0  0  0  0  0  0  0  0  0  0  0  0
  -27.4697   -1.5426  -11.8401 C   0  0  0  0  0  0  0  0  0  0  0  0
  -26.5365   -1.0863  -12.7012 N   0  0  0  0  0  0  0  0  0  0  0  0
  -25.4084   -0.8987  -12.0357 N   0  0  0  0  0  0  0  0  0  0  0  0
  -24.1684   -0.4104  -12.6472 C   0  0  0  0  0  0  0  0  0  0  0  0
  -25.5870   -1.2574  -10.7412 C   0  0  0  0  0  0  0  0  0  0  0  0
  -29.5327   -6.9849   -5.6059 N   0  0  0  0  0  0  0  0  0  0  0  0
  -27.4450  -10.1767   -5.6476 C   0  0  0  0  0  0  0  0  0  0  0  0
  -27.4913  -10.4772   -4.2686 C   0  0  0  0  0  0  0  0  0  0  0  0
  -28.2469   -9.7163   -3.3937 C   0  0  0  0  0  0  0  0  0  0  0  0
  -28.9722   -8.6279   -3.8539 C   0  0  0  0  0  0  0  0  0  0  0  0
  -29.0085   -8.2817   -5.2206 C   0  0  0  0  0  0  0  0  0  0  0  0
  -28.2517   -9.0824   -6.1250 C   0  0  0  0  0  0  0  0  0  0  0  0
  -25.5890  -11.8832   -5.9199 C   0  0  0  0  0  0  0  0  0  0  0  0
  -26.5152  -10.9062   -6.4952 N   0  0  0  0  0  0  0  0  0  0  0  0
  -26.3253  -10.5575   -7.8944 C   0  0  0  0  0  0  0  0  0  0  0  0
  -30.9744   -6.9779   -5.9833 C   0  0  0  0  0  0  0  0  0  0  0  0
  -31.4258   -7.5979   -7.3531 C   0  0  0  0  0  0  0  0  0  0  0  0
  -32.7557   -8.3385   -7.0779 C   0  0  0  0  0  0  0  0  0  0  0  0
  -31.6476   -9.0563   -7.7760 C   0  0  0  0  0  0  0  0  0  0  0  0
 24 25  1  0  0  0
 25 26  1  0  0  0
 25 18  1  0  0  0
 18 19  1  0  0  0
 18 23  2  0  0  0
 19 20  2  0  0  0
 20 21  1  0  0  0
 21 22  2  0  0  0
 22 17  1  0  0  0
 22 23  1  0  0  0
 17 27  1  0  0  0
 17  1  1  0  0  0
 27 28  1  0  0  0
 28 29  1  0  0  0
 28 30  1  0  0  0
 29 30  1  0  0  0
  1  2  1  0  0  0
  1 10  2  0  0  0
  2  3  2  0  0  0
  3  4  1  0  0  0
  4  5  1  0  0  0
  4  9  2  0  0  0
  5  6  2  0  0  0
  6  7  1  0  0  0
  7 11  1  0  0  0
  7  8  2  0  0  0
 11 12  1  0  0  0
 11 16  2  0  0  0
 12 13  2  0  0  0
 13 14  1  0  0  0
 14 15  1  0  0  0
 14 16  1  0  0  0
  8  9  1  0  0  0
  9 10  1  0  0  0
M  END
> <minimizedAffinity>
-7.39101

$$$$
