CHEMBL3945369


 35 39  0  0  0  0  0  0  0  0999 V2000
  -29.1902   -3.1063   -6.7271 N   0  0  0  0  0  0  0  0  0  0  0  0
  -28.2253   -2.7055   -7.7752 C   0  0  0  0  0  0  0  0  0  0  0  0
  -27.8747   -1.3958   -7.7497 C   0  0  0  0  0  0  0  0  0  0  0  0
  -27.2021   -0.9298   -8.8000 C   0  0  0  0  0  0  0  0  0  0  0  0
  -26.9170   -1.6516   -9.9566 C   0  0  0  0  0  0  0  0  0  0  0  0
  -27.2442   -0.7655  -10.9006 N   0  0  0  0  0  0  0  0  0  0  0  0
  -26.2332   -0.4146  -11.6134 C   0  0  0  0  0  0  0  0  0  0  0  0
  -25.3616   -1.2760  -12.1052 C   0  0  0  0  0  0  0  0  0  0  0  0
  -25.6240   -2.6258  -11.5686 N   0  0  0  0  0  0  0  0  0  0  0  0
  -26.6431   -2.8882  -10.2247 C   0  0  0  0  0  0  0  0  0  0  0  0
  -27.5871   -3.5055   -8.9326 C   0  0  0  0  0  0  0  0  0  0  0  0
  -24.2625   -0.3852  -12.9654 C   0  0  0  0  0  0  0  0  0  0  0  0
  -24.0598    1.1132  -12.9099 C   0  0  0  0  0  0  0  0  0  0  0  0
  -23.0099    1.5908  -13.5958 N   0  0  0  0  0  0  0  0  0  0  0  0
  -22.4638    0.4968  -14.1419 N   0  0  0  0  0  0  0  0  0  0  0  0
  -21.1856    0.6318  -14.8503 C   0  0  0  0  0  0  0  0  0  0  0  0
  -23.1930   -0.6649  -13.8257 C   0  0  0  0  0  0  0  0  0  0  0  0
  -30.2721   -6.7429   -7.1373 C   0  0  0  0  0  0  0  0  0  0  0  0
  -30.7644   -6.9839   -5.8645 C   0  0  0  0  0  0  0  0  0  0  0  0
  -30.8574   -5.9478   -4.9582 C   0  0  0  0  0  0  0  0  0  0  0  0
  -30.4200   -4.6650   -5.3038 C   0  0  0  0  0  0  0  0  0  0  0  0
  -29.8200   -4.3807   -6.5353 C   0  0  0  0  0  0  0  0  0  0  0  0
  -29.9028   -5.4250   -7.4940 C   0  0  0  0  0  0  0  0  0  0  0  0
  -31.3493   -6.0829   -3.6873 O   0  0  0  0  0  0  0  0  0  0  0  0
  -31.9707   -4.9068   -3.1743 C   0  0  0  0  0  0  0  0  0  0  0  0
  -30.0691   -7.7301   -8.0787 O   0  0  0  0  0  0  0  0  0  0  0  0
  -30.1080   -9.0813   -7.5819 C   0  0  0  0  0  0  0  0  0  0  0  0
  -30.9050   -9.9782   -8.5327 C   0  0  0  0  0  0  0  0  0  0  0  0
  -32.8560   -9.9824   -7.1282 C   0  0  0  0  0  0  0  0  0  0  0  0
  -32.3393   -9.6695   -8.4528 N   0  0  0  0  0  0  0  0  0  0  0  0
  -32.4898   -8.6780   -8.6424 H   0  0  0  0  0  0  0  0  0  0  0  0
  -29.9338   -1.8641   -6.2057 C   0  0  0  0  0  0  0  0  0  0  0  0
  -29.5480   -1.3196   -4.8227 C   0  0  0  0  0  0  0  0  0  0  0  0
  -28.3409   -0.4029   -4.5748 C   0  0  0  0  0  0  0  0  0  0  0  0
  -28.3062   -1.8145   -4.0763 C   0  0  0  0  0  0  0  0  0  0  0  0
 29 30  1  0  0  0
 30 28  1  0  0  0
 30 31  1  0  0  0
 28 27  1  0  0  0
 27 26  1  0  0  0
 26 18  1  0  0  0
 18 19  1  0  0  0
 18 23  2  0  0  0
 19 20  2  0  0  0
 20 24  1  0  0  0
 20 21  1  0  0  0
 24 25  1  0  0  0
 21 22  2  0  0  0
 22  1  1  0  0  0
 22 23  1  0  0  0
  1 32  1  0  0  0
  1  2  1  0  0  0
 32 33  1  0  0  0
 33 34  1  0  0  0
 33 35  1  0  0  0
 34 35  1  0  0  0
  2  3  1  0  0  0
  2 11  2  0  0  0
  3  4  2  0  0  0
  4  5  1  0  0  0
  5  6  1  0  0  0
  5 10  2  0  0  0
  6  7  2  0  0  0
  7  8  1  0  0  0
  8 12  1  0  0  0
  8  9  2  0  0  0
 12 13  1  0  0  0
 12 17  2  0  0  0
 13 14  2  0  0  0
 14 15  1  0  0  0
 15 16  1  0  0  0
 15 17  1  0  0  0
  9 10  1  0  0  0
 10 11  1  0  0  0
M  END
> <minimizedAffinity>
-6.90409

$$$$
