CHEMBL1271616


 23 25  0  0  0  0  0  0  0  0999 V2000
  -22.7765    1.0438  -14.2218 C   0  0  0  0  0  0  0  0  0  0  0  0
  -23.5079    1.8776  -13.6848 O   0  0  0  0  0  0  0  0  0  0  0  0
  -23.1713   -0.2365  -14.5582 N   0  0  0  0  0  0  0  0  0  0  0  0
  -22.4877   -0.9472  -14.8019 H   0  0  0  0  0  0  0  0  0  0  0  0
  -24.4837   -0.7730  -14.3824 C   0  0  0  0  0  0  0  0  0  0  0  0
  -25.3636   -0.9663  -15.4566 C   0  0  0  0  0  0  0  0  0  0  0  0
  -26.6633   -1.4169  -15.2432 C   0  0  0  0  0  0  0  0  0  0  0  0
  -27.0924   -1.6907  -13.9538 C   0  0  0  0  0  0  0  0  0  0  0  0
  -26.2091   -1.5421  -12.8723 C   0  0  0  0  0  0  0  0  0  0  0  0
  -26.6337   -1.8171  -11.5677 C   0  0  0  0  0  0  0  0  0  0  0  0
  -25.7496   -1.6699  -10.5074 C   0  0  0  0  0  0  0  0  0  0  0  0
  -24.4639   -1.2528  -10.7912 C   0  0  0  0  0  0  0  0  0  0  0  0
  -24.0162   -0.9598  -12.0352 N   0  0  0  0  0  0  0  0  0  0  0  0
  -24.8798   -1.0971  -13.0732 C   0  0  0  0  0  0  0  0  0  0  0  0
  -17.3880    2.9502  -15.3526 C   0  0  0  0  0  0  0  0  0  0  0  0
  -18.7540    2.4185  -15.0338 C   0  0  0  0  0  0  0  0  0  0  0  0
  -19.0501    1.0514  -15.1080 C   0  0  0  0  0  0  0  0  0  0  0  0
  -20.3440    0.5776  -14.8356 C   0  0  0  0  0  0  0  0  0  0  0  0
  -21.3649    1.4691  -14.4792 C   0  0  0  0  0  0  0  0  0  0  0  0
  -21.0487    2.8410  -14.3976 C   0  0  0  0  0  0  0  0  0  0  0  0
  -21.9553    3.8149  -14.0593 O   0  0  0  0  0  0  0  0  0  0  0  0
  -19.7646    3.3083  -14.6700 C   0  0  0  0  0  0  0  0  0  0  0  0
  -22.8274    3.3752  -13.9316 H   0  0  0  0  0  0  0  0  0  0  0  0
 15 16  1  0  0  0
 16 17  1  0  0  0
 16 22  2  0  0  0
 17 18  2  0  0  0
 18 19  1  0  0  0
 19  1  1  0  0  0
 19 20  2  0  0  0
  1  2  2  0  0  0
  1  3  1  0  0  0
  3  5  1  0  0  0
  3  4  1  0  0  0
  5  6  1  0  0  0
  5 14  2  0  0  0
  6  7  2  0  0  0
  7  8  1  0  0  0
  8  9  2  0  0  0
  9 10  1  0  0  0
  9 14  1  0  0  0
 10 11  2  0  0  0
 11 12  1  0  0  0
 12 13  2  0  0  0
 13 14  1  0  0  0
 20 21  1  0  0  0
 20 22  1  0  0  0
 21 23  1  0  0  0
M  END
> <minimizedAffinity>
-9.23465

$$$$
