CHEMBL3977186


 36 39  0  0  0  0  0  0  0  0999 V2000
  -14.8515    1.1805  -15.9014 C   0  0  0  0  0  0  0  0  0  0  0  0
  -14.0109    2.0317  -16.5293 N   0  0  0  0  0  0  0  0  0  0  0  0
  -14.4966    3.2219  -16.9448 C   0  0  0  0  0  0  0  0  0  0  0  0
  -15.7472    3.7051  -16.8221 N   0  0  0  0  0  0  0  0  0  0  0  0
  -16.5382    2.8314  -16.1833 C   0  0  0  0  0  0  0  0  0  0  0  0
  -17.8700    3.0142  -15.9278 N   0  0  0  0  0  0  0  0  0  0  0  0
  -18.3907    1.9190  -15.2675 C   0  0  0  0  0  0  0  0  0  0  0  0
  -17.3389    1.0289  -15.1069 C   0  0  0  0  0  0  0  0  0  0  0  0
  -16.1755    1.5927  -15.6916 C   0  0  0  0  0  0  0  0  0  0  0  0
  -18.3864    3.8283  -16.2240 H   0  0  0  0  0  0  0  0  0  0  0  0
  -19.7904    1.7939  -14.8634 C   0  0  0  0  0  0  0  0  0  0  0  0
  -20.3998    0.5318  -14.8425 C   0  0  0  0  0  0  0  0  0  0  0  0
  -21.7144    0.3722  -14.3943 C   0  0  0  0  0  0  0  0  0  0  0  0
  -22.4399    1.4777  -13.9596 C   0  0  0  0  0  0  0  0  0  0  0  0
  -21.8565    2.7436  -14.0143 C   0  0  0  0  0  0  0  0  0  0  0  0
  -20.5391    2.9033  -14.4570 C   0  0  0  0  0  0  0  0  0  0  0  0
  -23.7292    1.4438  -13.5080 O   0  0  0  0  0  0  0  0  0  0  0  0
  -24.0118    0.4676  -12.5039 C   0  0  0  0  0  0  0  0  0  0  0  0
  -24.6192   -0.7579  -13.1799 C   0  0  0  0  0  0  0  0  0  0  0  0
  -25.9808   -1.1121  -12.5799 C   0  0  0  0  0  0  0  0  0  0  0  0
  -25.8535   -1.6890  -11.1885 C   0  0  0  0  0  0  0  0  0  0  0  0
  -24.8681   -1.5630  -10.4682 O   0  0  0  0  0  0  0  0  0  0  0  0
  -26.9628   -2.3903  -10.7850 N   0  0  0  0  0  0  0  0  0  0  0  0
  -26.9134   -2.9615   -9.4966 O   0  0  0  0  0  0  0  0  0  0  0  0
  -27.7922   -2.5548  -11.3426 H   0  0  0  0  0  0  0  0  0  0  0  0
  -26.0303   -2.6733   -9.1755 H   0  0  0  0  0  0  0  0  0  0  0  0
  -14.4485   -0.0918  -15.5029 N   0  0  0  0  0  0  0  0  0  0  0  0
  -15.2178   -0.7330  -15.6988 H   0  0  0  0  0  0  0  0  0  0  0  0
  -12.4831   -0.4092  -14.0301 C   0  0  0  0  0  0  0  0  0  0  0  0
  -14.0056   -0.2492  -14.1145 C   0  0  0  0  0  0  0  0  0  0  0  0
  -14.6907   -1.4998  -13.5724 C   0  0  0  0  0  0  0  0  0  0  0  0
  -14.5525   -2.7311  -14.2277 C   0  0  0  0  0  0  0  0  0  0  0  0
  -15.1100   -3.8893  -13.6806 C   0  0  0  0  0  0  0  0  0  0  0  0
  -15.8160   -3.8307  -12.4793 C   0  0  0  0  0  0  0  0  0  0  0  0
  -15.9911   -2.6096  -11.8360 C   0  0  0  0  0  0  0  0  0  0  0  0
  -15.4378   -1.4520  -12.3803 C   0  0  0  0  0  0  0  0  0  0  0  0
 29 30  1  0  0  0
 30 27  1  0  0  0
 30 31  1  0  0  0
 27  1  1  0  0  0
 27 28  1  0  0  0
  1  2  1  0  0  0
  1  9  2  0  0  0
  2  3  2  0  0  0
  3  4  1  0  0  0
  4  5  2  0  0  0
  5  6  1  0  0  0
  5  9  1  0  0  0
  6  7  1  0  0  0
  6 10  1  0  0  0
  7 11  1  0  0  0
  7  8  2  0  0  0
 11 12  1  0  0  0
 11 16  2  0  0  0
 12 13  2  0  0  0
 13 14  1  0  0  0
 14 17  1  0  0  0
 14 15  2  0  0  0
 17 18  1  0  0  0
 18 19  1  0  0  0
 19 20  1  0  0  0
 20 21  1  0  0  0
 21 22  2  0  0  0
 21 23  1  0  0  0
 23 24  1  0  0  0
 23 25  1  0  0  0
 24 26  1  0  0  0
 15 16  1  0  0  0
  8  9  1  0  0  0
 31 32  1  0  0  0
 31 36  2  0  0  0
 32 33  2  0  0  0
 33 34  1  0  0  0
 34 35  2  0  0  0
 35 36  1  0  0  0
M  END
> <minimizedAffinity>
-9.45909

$$$$
