CHEMBL3586072


 34 36  0  0  0  0  0  0  0  0999 V2000
  -24.1473   -0.0621  -12.9810 C   0  0  0  0  0  0  0  0  0  0  0  0
  -24.4830    0.2165  -11.6502 C   0  0  0  0  0  0  0  0  0  0  0  0
  -25.5264   -0.4417  -10.9966 C   0  0  0  0  0  0  0  0  0  0  0  0
  -26.3022   -1.3900  -11.6499 C   0  0  0  0  0  0  0  0  0  0  0  0
  -25.9988   -1.6830  -12.9818 C   0  0  0  0  0  0  0  0  0  0  0  0
  -24.9310   -1.0290  -13.6360 C   0  0  0  0  0  0  0  0  0  0  0  0
  -20.8637    2.0408  -14.6708 C   0  0  0  0  0  0  0  0  0  0  0  0
  -20.8571    0.6587  -14.7342 C   0  0  0  0  0  0  0  0  0  0  0  0
  -21.9538   -0.0263  -14.2149 C   0  0  0  0  0  0  0  0  0  0  0  0
  -23.0279    0.6629  -13.6217 C   0  0  0  0  0  0  0  0  0  0  0  0
  -22.9268    2.0567  -13.6289 C   0  0  0  0  0  0  0  0  0  0  0  0
  -21.8848    2.7672  -14.1361 N   0  0  0  0  0  0  0  0  0  0  0  0
  -17.3549    2.6204  -15.9454 C   0  0  0  0  0  0  0  0  0  0  0  0
  -18.5706    2.0413  -15.4464 N   0  0  0  0  0  0  0  0  0  0  0  0
  -19.6920    2.8047  -15.2077 C   0  0  0  0  0  0  0  0  0  0  0  0
  -19.7509    4.0122  -15.4101 O   0  0  0  0  0  0  0  0  0  0  0  0
  -18.6431    1.0460  -15.2526 H   0  0  0  0  0  0  0  0  0  0  0  0
  -27.3711   -2.0812  -11.0135 N   0  0  0  0  0  0  0  0  0  0  0  0
  -27.5263   -2.2271   -9.6452 C   0  0  0  0  0  0  0  0  0  0  0  0
  -26.8215   -1.6933   -8.7915 O   0  0  0  0  0  0  0  0  0  0  0  0
  -28.5582   -3.0910   -9.3143 N   0  0  0  0  0  0  0  0  0  0  0  0
  -28.1371   -2.3841  -11.5957 H   0  0  0  0  0  0  0  0  0  0  0  0
  -28.6866   -3.8500   -9.9699 H   0  0  0  0  0  0  0  0  0  0  0  0
  -28.8288   -3.3825   -7.9519 C   0  0  0  0  0  0  0  0  0  0  0  0
  -28.9075   -4.7157   -7.5516 C   0  0  0  0  0  0  0  0  0  0  0  0
  -29.0792   -5.0187   -6.2005 C   0  0  0  0  0  0  0  0  0  0  0  0
  -29.0775   -6.8263   -5.6424 Br  0  0  0  0  0  0  0  0  0  0  0  0
  -29.2194   -4.0081   -5.2482 C   0  0  0  0  0  0  0  0  0  0  0  0
  -29.1751   -2.6638   -5.6407 C   0  0  0  0  0  0  0  0  0  0  0  0
  -28.9750   -2.3633   -6.9987 C   0  0  0  0  0  0  0  0  0  0  0  0
  -29.3254   -1.5508   -4.6324 C   0  0  0  0  0  0  0  0  0  0  0  0
  -29.8517   -1.9658   -3.4453 F   0  0  0  0  0  0  0  0  0  0  0  0
  -28.1441   -0.9505   -4.3237 F   0  0  0  0  0  0  0  0  0  0  0  0
  -30.1489   -0.5589   -5.0726 F   0  0  0  0  0  0  0  0  0  0  0  0
 13 14  1  0  0  0
 14 15  1  0  0  0
 14 17  1  0  0  0
 15 16  2  0  0  0
 15  7  1  0  0  0
  7  8  1  0  0  0
  7 12  2  0  0  0
  8  9  2  0  0  0
  9 10  1  0  0  0
 10  1  1  0  0  0
 10 11  2  0  0  0
  1  2  1  0  0  0
  1  6  2  0  0  0
  2  3  2  0  0  0
  3  4  1  0  0  0
  4 18  1  0  0  0
  4  5  2  0  0  0
 18 19  1  0  0  0
 18 22  1  0  0  0
 19 20  2  0  0  0
 19 21  1  0  0  0
 21 24  1  0  0  0
 21 23  1  0  0  0
 24 25  1  0  0  0
 24 30  2  0  0  0
 25 26  2  0  0  0
 26 27  1  0  0  0
 26 28  1  0  0  0
 28 29  2  0  0  0
 29 31  1  0  0  0
 29 30  1  0  0  0
 31 32  1  0  0  0
 31 33  1  0  0  0
 31 34  1  0  0  0
  5  6  1  0  0  0
 11 12  1  0  0  0
M  END
> <minimizedAffinity>
-11.56243

$$$$
