CHEMBL2023117


 35 38  0  0  0  0  0  0  0  0999 V2000
  -28.5019   -2.5665   -7.8098 C   0  0  0  0  0  0  0  0  0  0  0  0
  -29.2725   -3.6446   -8.2996 C   0  0  0  0  0  0  0  0  0  0  0  0
  -29.6001   -4.7532   -7.5171 C   0  0  0  0  0  0  0  0  0  0  0  0
  -29.1060   -4.8509   -6.2226 C   0  0  0  0  0  0  0  0  0  0  0  0
  -28.3483   -3.7838   -5.7173 C   0  0  0  0  0  0  0  0  0  0  0  0
  -28.0372   -2.6369   -6.4859 C   0  0  0  0  0  0  0  0  0  0  0  0
  -27.1903   -1.7718   -5.8436 O   0  0  0  0  0  0  0  0  0  0  0  0
  -27.6241   -1.0654   -4.6819 C   0  0  0  0  0  0  0  0  0  0  0  0
  -28.2041   -1.4583   -8.7924 C   0  0  0  0  0  0  0  0  0  0  0  0
  -27.3538   -1.0441  -11.0804 N   0  0  0  0  0  0  0  0  0  0  0  0
  -27.2296   -1.7735   -9.9120 C   0  0  0  0  0  0  0  0  0  0  0  0
  -26.4327   -2.7019   -9.7390 O   0  0  0  0  0  0  0  0  0  0  0  0
  -28.1433   -0.4207  -11.2028 H   0  0  0  0  0  0  0  0  0  0  0  0
  -24.6895   -1.0692  -13.4168 N   0  0  0  0  0  0  0  0  0  0  0  0
  -25.1611   -0.7811  -12.1728 C   0  0  0  0  0  0  0  0  0  0  0  0
  -26.4757   -1.1674  -12.1440 C   0  0  0  0  0  0  0  0  0  0  0  0
  -26.7067   -1.6779  -13.4430 C   0  0  0  0  0  0  0  0  0  0  0  0
  -25.6163   -1.6257  -14.2212 N   0  0  0  0  0  0  0  0  0  0  0  0
  -22.6040    0.1600  -12.9570 C   0  0  0  0  0  0  0  0  0  0  0  0
  -23.3525   -0.7729  -13.8915 C   0  0  0  0  0  0  0  0  0  0  0  0
  -29.4105   -5.8769   -5.3340 O   0  0  0  0  0  0  0  0  0  0  0  0
  -28.6643   -7.0476   -5.2487 C   0  0  0  0  0  0  0  0  0  0  0  0
  -27.5467   -7.1858   -4.4287 C   0  0  0  0  0  0  0  0  0  0  0  0
  -26.9204   -8.4125   -4.3824 C   0  0  0  0  0  0  0  0  0  0  0  0
  -27.3239   -9.4930   -5.0718 N   0  0  0  0  0  0  0  0  0  0  0  0
  -28.4189   -9.3725   -5.8151 C   0  0  0  0  0  0  0  0  0  0  0  0
  -28.8205  -10.5366   -6.4533 C   0  0  0  0  0  0  0  0  0  0  0  0
  -29.9805  -10.6109   -7.2261 C   0  0  0  0  0  0  0  0  0  0  0  0
  -30.7223   -9.4407   -7.4161 C   0  0  0  0  0  0  0  0  0  0  0  0
  -30.3179   -8.2460   -6.7760 C   0  0  0  0  0  0  0  0  0  0  0  0
  -29.1579   -8.1848   -5.9632 C   0  0  0  0  0  0  0  0  0  0  0  0
  -30.3832  -11.7911   -7.7943 O   0  0  0  0  0  0  0  0  0  0  0  0
  -29.5645  -12.2994   -8.8502 C   0  0  0  0  0  0  0  0  0  0  0  0
  -31.8883   -9.3161   -8.1404 O   0  0  0  0  0  0  0  0  0  0  0  0
  -33.0923   -9.1452   -7.3987 C   0  0  0  0  0  0  0  0  0  0  0  0
 19 20  1  0  0  0
 20 14  1  0  0  0
 14 15  1  0  0  0
 14 18  1  0  0  0
 15 16  2  0  0  0
 16 10  1  0  0  0
 16 17  1  0  0  0
 10 11  1  0  0  0
 10 13  1  0  0  0
 11 12  2  0  0  0
 11  9  1  0  0  0
  9  1  1  0  0  0
  1  2  1  0  0  0
  1  6  2  0  0  0
  2  3  2  0  0  0
  3  4  1  0  0  0
  4 21  1  0  0  0
  4  5  2  0  0  0
 21 22  1  0  0  0
 22 23  1  0  0  0
 22 31  2  0  0  0
 23 24  2  0  0  0
 24 25  1  0  0  0
 25 26  2  0  0  0
 26 27  1  0  0  0
 26 31  1  0  0  0
 27 28  2  0  0  0
 28 32  1  0  0  0
 28 29  1  0  0  0
 32 33  1  0  0  0
 29 34  1  0  0  0
 29 30  2  0  0  0
 34 35  1  0  0  0
 30 31  1  0  0  0
  5  6  1  0  0  0
  6  7  1  0  0  0
  7  8  1  0  0  0
 17 18  2  0  0  0
M  END
> <minimizedAffinity>
-7.91720

$$$$
