CHEMBL3972979


 40 44  0  0  0  0  0  0  0  0999 V2000
  -25.6360  -10.4002   -3.5184 C   0  0  0  0  0  0  0  0  0  0  0  0
  -26.7179  -11.1136   -3.0304 C   0  0  0  0  0  0  0  0  0  0  0  0
  -27.9879  -10.6741   -3.1614 N   0  0  0  0  0  0  0  0  0  0  0  0
  -28.1417   -9.5107   -3.8200 C   0  0  0  0  0  0  0  0  0  0  0  0
  -29.4129   -9.0744   -4.0978 C   0  0  0  0  0  0  0  0  0  0  0  0
  -29.6281   -7.9376   -4.8840 C   0  0  0  0  0  0  0  0  0  0  0  0
  -28.5929   -7.1125   -5.3351 C   0  0  0  0  0  0  0  0  0  0  0  0
  -27.2982   -7.5624   -4.9981 C   0  0  0  0  0  0  0  0  0  0  0  0
  -27.0513   -8.7512   -4.2972 C   0  0  0  0  0  0  0  0  0  0  0  0
  -25.7898   -9.1957   -4.1265 N   0  0  0  0  0  0  0  0  0  0  0  0
  -22.3969  -11.7969   -4.1903 N   0  0  0  0  0  0  0  0  0  0  0  0
  -23.5452  -11.1936   -4.6193 C   0  0  0  0  0  0  0  0  0  0  0  0
  -24.2962  -10.9413   -3.4955 C   0  0  0  0  0  0  0  0  0  0  0  0
  -23.4980  -11.4016   -2.4264 C   0  0  0  0  0  0  0  0  0  0  0  0
  -22.3373  -11.9159   -2.8423 N   0  0  0  0  0  0  0  0  0  0  0  0
  -21.3480  -12.3494   -5.0228 C   0  0  0  0  0  0  0  0  0  0  0  0
  -20.5966   -9.7095   -7.6691 C   0  0  0  0  0  0  0  0  0  0  0  0
  -20.7140  -10.4503   -6.4431 N   0  0  0  0  0  0  0  0  0  0  0  0
  -21.2642  -11.7105   -6.3942 C   0  0  0  0  0  0  0  0  0  0  0  0
  -21.5978  -12.3235   -7.4062 O   0  0  0  0  0  0  0  0  0  0  0  0
  -20.4766   -9.9973   -5.5577 H   0  0  0  0  0  0  0  0  0  0  0  0
  -28.7707   -5.9751   -6.1665 N   0  0  0  0  0  0  0  0  0  0  0  0
  -28.6656   -4.6233   -5.6799 C   0  0  0  0  0  0  0  0  0  0  0  0
  -28.3368   -3.5821   -6.5715 C   0  0  0  0  0  0  0  0  0  0  0  0
  -28.2272   -2.2553   -6.1476 C   0  0  0  0  0  0  0  0  0  0  0  0
  -28.4631   -1.9374   -4.8103 C   0  0  0  0  0  0  0  0  0  0  0  0
  -28.8100   -2.9343   -3.9027 C   0  0  0  0  0  0  0  0  0  0  0  0
  -28.8933   -4.2665   -4.3382 C   0  0  0  0  0  0  0  0  0  0  0  0
  -27.9137   -1.1842   -6.9415 O   0  0  0  0  0  0  0  0  0  0  0  0
  -28.0067    0.1041   -6.3451 C   0  0  0  0  0  0  0  0  0  0  0  0
  -29.0992   -2.7396   -2.5773 O   0  0  0  0  0  0  0  0  0  0  0  0
  -30.4756   -2.7349   -2.2097 C   0  0  0  0  0  0  0  0  0  0  0  0
  -28.9976   -6.0299   -7.6624 C   0  0  0  0  0  0  0  0  0  0  0  0
  -28.4780   -7.2684   -8.3758 C   0  0  0  0  0  0  0  0  0  0  0  0
  -29.3941   -8.4774   -8.5763 C   0  0  0  0  0  0  0  0  0  0  0  0
  -28.5836   -9.6442   -9.0126 N   0  0  0  0  0  0  0  0  0  0  0  0
  -29.0662  -10.9599   -8.5505 C   0  0  0  0  0  0  0  0  0  0  0  0
  -28.4957  -11.0983   -7.1574 C   0  0  0  0  0  0  0  0  0  0  0  0
  -27.0946  -10.5463   -7.3343 C   0  0  0  0  0  0  0  0  0  0  0  0
  -27.1974   -9.5764   -8.5148 C   0  0  0  0  0  0  0  0  0  0  0  0
 17 18  1  0  0  0
 18 19  1  0  0  0
 18 21  1  0  0  0
 19 20  2  0  0  0
 19 16  1  0  0  0
 16 11  1  0  0  0
 11 12  1  0  0  0
 11 15  1  0  0  0
 12 13  2  0  0  0
 13  1  1  0  0  0
 13 14  1  0  0  0
  1  2  1  0  0  0
  1 10  2  0  0  0
  2  3  2  0  0  0
  3  4  1  0  0  0
  4  5  1  0  0  0
  4  9  2  0  0  0
  5  6  2  0  0  0
  6  7  1  0  0  0
  7 22  1  0  0  0
  7  8  2  0  0  0
 22 33  1  0  0  0
 22 23  1  0  0  0
 33 34  1  0  0  0
 34 35  1  0  0  0
 35 36  1  0  0  0
 36 37  1  0  0  0
 36 40  1  0  0  0
 37 38  1  0  0  0
 38 39  1  0  0  0
 39 40  1  0  0  0
 23 24  1  0  0  0
 23 28  2  0  0  0
 24 25  2  0  0  0
 25 29  1  0  0  0
 25 26  1  0  0  0
 29 30  1  0  0  0
 26 27  2  0  0  0
 27 31  1  0  0  0
 27 28  1  0  0  0
 31 32  1  0  0  0
  8  9  1  0  0  0
  9 10  1  0  0  0
 14 15  2  0  0  0
M  END
> <minimizedAffinity>
-7.10257

$$$$
