CHEMBL1940180


 35 40  0  0  0  0  0  0  0  0999 V2000
  -12.1067   -0.0058  -16.6550 C   0  0  0  0  0  0  0  0  0  0  0  0
  -12.7371    1.1013  -15.7816 C   0  0  0  0  0  0  0  0  0  0  0  0
  -11.7137    1.5928  -14.7331 C   0  0  0  0  0  0  0  0  0  0  0  0
  -13.9819    0.5487  -15.0552 C   0  0  0  0  0  0  0  0  0  0  0  0
  -13.8496   -0.5502  -14.1794 C   0  0  0  0  0  0  0  0  0  0  0  0
  -14.9261   -1.1047  -13.4684 C   0  0  0  0  0  0  0  0  0  0  0  0
  -16.1834   -0.5259  -13.6728 C   0  0  0  0  0  0  0  0  0  0  0  0
  -16.3603    0.5572  -14.5330 C   0  0  0  0  0  0  0  0  0  0  0  0
  -15.2702    1.1003  -15.2178 C   0  0  0  0  0  0  0  0  0  0  0  0
  -15.5361    2.2690  -16.1034 C   0  0  0  0  0  0  0  0  0  0  0  0
  -16.6629    2.7385  -16.2148 O   0  0  0  0  0  0  0  0  0  0  0  0
  -14.3887    2.7988  -16.8054 C   0  0  0  0  0  0  0  0  0  0  0  0
  -13.1257    2.2631  -16.6626 C   0  0  0  0  0  0  0  0  0  0  0  0
  -12.2743    2.9806  -17.4645 N   0  0  0  0  0  0  0  0  0  0  0  0
  -12.9682    3.9793  -18.1128 C   0  0  0  0  0  0  0  0  0  0  0  0
  -12.5227    4.9533  -19.0145 C   0  0  0  0  0  0  0  0  0  0  0  0
  -13.4718    5.8586  -19.5150 C   0  0  0  0  0  0  0  0  0  0  0  0
  -14.8115    5.7874  -19.1246 C   0  0  0  0  0  0  0  0  0  0  0  0
  -15.2367    4.8056  -18.2248 C   0  0  0  0  0  0  0  0  0  0  0  0
  -14.2993    3.8884  -17.7101 C   0  0  0  0  0  0  0  0  0  0  0  0
  -11.2819    2.8144  -17.5684 H   0  0  0  0  0  0  0  0  0  0  0  0
  -14.7420   -2.1709  -12.6114 N   0  0  0  0  0  0  0  0  0  0  0  0
  -13.7384   -3.1995  -12.8649 C   0  0  0  0  0  0  0  0  0  0  0  0
  -14.4252   -4.5426  -13.0413 C   0  0  0  0  0  0  0  0  0  0  0  0
  -15.3590   -4.9086  -11.8782 C   0  0  0  0  0  0  0  0  0  0  0  0
  -16.2762   -3.7236  -11.5122 C   0  0  0  0  0  0  0  0  0  0  0  0
  -15.5820   -2.3695  -11.4298 C   0  0  0  0  0  0  0  0  0  0  0  0
  -14.7873   -5.5742  -10.6970 N   0  0  0  0  0  0  0  0  0  0  0  0
  -14.2971   -4.8084   -9.5462 C   0  0  0  0  0  0  0  0  0  0  0  0
  -12.7746   -4.5675   -9.4805 C   0  0  0  0  0  0  0  0  0  0  0  0
  -12.0199   -5.7558   -9.7373 O   0  0  0  0  0  0  0  0  0  0  0  0
  -12.3891   -6.3091  -11.0027 C   0  0  0  0  0  0  0  0  0  0  0  0
  -13.8746   -6.6885  -11.0096 C   0  0  0  0  0  0  0  0  0  0  0  0
  -13.0565    6.8721  -20.4378 C   0  0  0  0  0  0  0  0  0  0  0  0
  -12.7213    7.6945  -21.1879 N   0  0  0  0  0  0  0  0  0  0  0  0
  1  2  1  0  0  0
  2  3  1  0  0  0
  2  4  1  0  0  0
  2 13  1  0  0  0
  4  5  1  0  0  0
  4  9  2  0  0  0
  5  6  2  0  0  0
  6 22  1  0  0  0
  6  7  1  0  0  0
 22 23  1  0  0  0
 22 27  1  0  0  0
 23 24  1  0  0  0
 24 25  1  0  0  0
 25 28  1  0  0  0
 25 26  1  0  0  0
 28 29  1  0  0  0
 28 33  1  0  0  0
 29 30  1  0  0  0
 30 31  1  0  0  0
 31 32  1  0  0  0
 32 33  1  0  0  0
 26 27  1  0  0  0
  7  8  2  0  0  0
  8  9  1  0  0  0
  9 10  1  0  0  0
 10 11  2  0  0  0
 10 12  1  0  0  0
 12 13  2  0  0  0
 12 20  1  0  0  0
 13 14  1  0  0  0
 14 15  1  0  0  0
 14 21  1  0  0  0
 15 16  1  0  0  0
 15 20  2  0  0  0
 16 17  2  0  0  0
 17 34  1  0  0  0
 17 18  1  0  0  0
 34 35  3  0  0  0
 18 19  2  0  0  0
 19 20  1  0  0  0
M  END
> <minimizedAffinity>
-7.83229

$$$$
