CHEMBL3967761


 37 41  0  0  0  0  0  0  0  0999 V2000
  -27.3472   -1.6401   -9.4725 C   0  0  0  0  0  0  0  0  0  0  0  0
  -28.2145   -1.3246  -10.5189 C   0  0  0  0  0  0  0  0  0  0  0  0
  -27.7549   -1.3346  -11.8188 C   0  0  0  0  0  0  0  0  0  0  0  0
  -26.4174   -1.4533  -12.1076 C   0  0  0  0  0  0  0  0  0  0  0  0
  -26.1494   -1.6448  -13.4049 N   0  0  0  0  0  0  0  0  0  0  0  0
  -24.8731   -1.5078  -13.7810 C   0  0  0  0  0  0  0  0  0  0  0  0
  -23.9051   -1.0611  -12.8934 C   0  0  0  0  0  0  0  0  0  0  0  0
  -24.1413   -1.0374  -11.5391 N   0  0  0  0  0  0  0  0  0  0  0  0
  -25.4421   -1.3238  -11.0938 C   0  0  0  0  0  0  0  0  0  0  0  0
  -25.9547   -1.5205   -9.7473 C   0  0  0  0  0  0  0  0  0  0  0  0
  -22.8578   -0.2463  -13.5301 C   0  0  0  0  0  0  0  0  0  0  0  0
  -21.7440   -0.5162  -14.3514 C   0  0  0  0  0  0  0  0  0  0  0  0
  -21.1640    0.5966  -14.8337 N   0  0  0  0  0  0  0  0  0  0  0  0
  -21.8890    1.6072  -14.3028 N   0  0  0  0  0  0  0  0  0  0  0  0
  -22.9986    1.1307  -13.6577 C   0  0  0  0  0  0  0  0  0  0  0  0
  -21.4606    3.0074  -14.4566 C   0  0  0  0  0  0  0  0  0  0  0  0
  -20.9703    3.3306  -15.8765 C   0  0  0  0  0  0  0  0  0  0  0  0
  -19.7137    2.5236  -16.2011 C   0  0  0  0  0  0  0  0  0  0  0  0
  -18.6272    2.7071  -15.2237 N   0  0  0  0  0  0  0  0  0  0  0  0
  -17.5918    1.6910  -15.4676 C   0  0  0  0  0  0  0  0  0  0  0  0
  -19.0453    2.6315  -13.8187 C   0  0  0  0  0  0  0  0  0  0  0  0
  -20.3151    3.4298  -13.5181 C   0  0  0  0  0  0  0  0  0  0  0  0
  -27.9859   -2.2698   -8.3408 N   0  0  0  0  0  0  0  0  0  0  0  0
  -28.9132   -0.1798   -5.3598 C   0  0  0  0  0  0  0  0  0  0  0  0
  -28.7138   -1.0863   -4.3181 C   0  0  0  0  0  0  0  0  0  0  0  0
  -28.2344   -2.3623   -4.5934 C   0  0  0  0  0  0  0  0  0  0  0  0
  -27.9342   -2.7217   -5.9141 C   0  0  0  0  0  0  0  0  0  0  0  0
  -28.1042   -1.8403   -6.9942 C   0  0  0  0  0  0  0  0  0  0  0  0
  -28.5912   -0.5543   -6.6857 C   0  0  0  0  0  0  0  0  0  0  0  0
  -30.6629    1.3627   -5.9049 C   0  0  0  0  0  0  0  0  0  0  0  0
  -29.4520    1.0748   -5.2006 O   0  0  0  0  0  0  0  0  0  0  0  0
  -28.0452   -3.3628   -3.6774 O   0  0  0  0  0  0  0  0  0  0  0  0
  -27.8564   -4.6784   -4.1850 C   0  0  0  0  0  0  0  0  0  0  0  0
  -27.9214   -3.7715   -8.5510 C   0  0  0  0  0  0  0  0  0  0  0  0
  -29.0811   -4.5937   -7.9612 C   0  0  0  0  0  0  0  0  0  0  0  0
  -28.6500   -5.8723   -7.4977 O   0  0  0  0  0  0  0  0  0  0  0  0
  -29.2703   -6.5284   -7.8614 H   0  0  0  0  0  0  0  0  0  0  0  0
 30 31  1  0  0  0
 31 24  1  0  0  0
 24 25  1  0  0  0
 24 29  2  0  0  0
 25 26  2  0  0  0
 26 32  1  0  0  0
 26 27  1  0  0  0
 32 33  1  0  0  0
 27 28  2  0  0  0
 28 23  1  0  0  0
 28 29  1  0  0  0
 23 34  1  0  0  0
 23  1  1  0  0  0
 34 35  1  0  0  0
 35 36  1  0  0  0
 36 37  1  0  0  0
  1  2  1  0  0  0
  1 10  2  0  0  0
  2  3  2  0  0  0
  3  4  1  0  0  0
  4  5  1  0  0  0
  4  9  2  0  0  0
  5  6  2  0  0  0
  6  7  1  0  0  0
  7 11  1  0  0  0
  7  8  2  0  0  0
 11 12  1  0  0  0
 11 15  2  0  0  0
 12 13  2  0  0  0
 13 14  1  0  0  0
 14 16  1  0  0  0
 14 15  1  0  0  0
 16 17  1  0  0  0
 16 22  1  0  0  0
 17 18  1  0  0  0
 18 19  1  0  0  0
 19 20  1  0  0  0
 19 21  1  0  0  0
 21 22  1  0  0  0
  8  9  1  0  0  0
  9 10  1  0  0  0
M  END
> <minimizedAffinity>
-8.07969

$$$$
