CHEMBL4445843


 32 35  0  0  0  0  0  0  0  0999 V2000
  -27.7049   -1.8471   -9.1435 C   0  0  0  0  0  0  0  0  0  0  0  0
  -27.6068   -0.8651   -8.1466 C   0  0  0  0  0  0  0  0  0  0  0  0
  -28.1458   -1.0874   -6.8771 C   0  0  0  0  0  0  0  0  0  0  0  0
  -28.7660   -2.3026   -6.5991 C   0  0  0  0  0  0  0  0  0  0  0  0
  -28.8732   -3.2821   -7.5885 C   0  0  0  0  0  0  0  0  0  0  0  0
  -28.3419   -3.0609   -8.8621 C   0  0  0  0  0  0  0  0  0  0  0  0
  -27.7699   -1.5644  -11.4544 O   0  0  0  0  0  0  0  0  0  0  0  0
  -27.0590   -1.5755  -10.4547 C   0  0  0  0  0  0  0  0  0  0  0  0
  -25.6900   -1.3831  -10.4352 N   0  0  0  0  0  0  0  0  0  0  0  0
  -25.1768   -1.4840   -9.5722 H   0  0  0  0  0  0  0  0  0  0  0  0
  -24.9495   -1.1490  -11.5823 C   0  0  0  0  0  0  0  0  0  0  0  0
  -24.7601   -1.9302  -12.7376 C   0  0  0  0  0  0  0  0  0  0  0  0
  -23.9553   -1.3455  -13.6257 N   0  0  0  0  0  0  0  0  0  0  0  0
  -23.5939   -0.1737  -13.0432 N   0  0  0  0  0  0  0  0  0  0  0  0
  -24.2035   -0.0172  -11.8114 C   0  0  0  0  0  0  0  0  0  0  0  0
  -22.6854    0.7089  -13.6940 C   0  0  0  0  0  0  0  0  0  0  0  0
  -21.5765    0.1749  -14.3730 C   0  0  0  0  0  0  0  0  0  0  0  0
  -20.6649    1.0197  -15.0082 C   0  0  0  0  0  0  0  0  0  0  0  0
  -20.8498    2.3993  -14.9683 C   0  0  0  0  0  0  0  0  0  0  0  0
  -21.9466    2.9370  -14.2964 C   0  0  0  0  0  0  0  0  0  0  0  0
  -22.8667    2.0972  -13.6614 C   0  0  0  0  0  0  0  0  0  0  0  0
  -29.3040   -2.5628   -5.3109 N   0  0  0  0  0  0  0  0  0  0  0  0
  -30.2954   -2.7987   -5.2599 H   0  0  0  0  0  0  0  0  0  0  0  0
  -28.4166   -3.5398   -4.2516 S   0  0  0  0  0  0  0  0  0  0  0  0
  -27.0296   -3.3967   -4.6404 O   0  0  0  0  0  0  0  0  0  0  0  0
  -28.8464   -3.2619   -2.8981 O   0  0  0  0  0  0  0  0  0  0  0  0
  -28.9141   -5.1850   -4.6908 C   0  0  0  0  0  0  0  0  0  0  0  0
  -30.2585   -5.4427   -4.9777 C   0  0  0  0  0  0  0  0  0  0  0  0
  -30.6514   -6.7389   -5.3111 C   0  0  0  0  0  0  0  0  0  0  0  0
  -29.7038   -7.7630   -5.3707 C   0  0  0  0  0  0  0  0  0  0  0  0
  -28.3612   -7.4973   -5.0939 C   0  0  0  0  0  0  0  0  0  0  0  0
  -27.9614   -6.2063   -4.7494 C   0  0  0  0  0  0  0  0  0  0  0  0
  7  8  2  0  0  0
  8  9  1  0  0  0
  8  1  1  0  0  0
  9 11  1  0  0  0
  9 10  1  0  0  0
 11 12  1  0  0  0
 11 15  2  0  0  0
 12 13  2  0  0  0
 13 14  1  0  0  0
 14 16  1  0  0  0
 14 15  1  0  0  0
 16 17  1  0  0  0
 16 21  2  0  0  0
 17 18  2  0  0  0
 18 19  1  0  0  0
 19 20  2  0  0  0
 20 21  1  0  0  0
  1  2  1  0  0  0
  1  6  2  0  0  0
  2  3  2  0  0  0
  3  4  1  0  0  0
  4 22  1  0  0  0
  4  5  2  0  0  0
 22 24  1  0  0  0
 22 23  1  0  0  0
 24 25  2  0  0  0
 24 26  2  0  0  0
 24 27  1  0  0  0
 27 28  1  0  0  0
 27 32  2  0  0  0
 28 29  2  0  0  0
 29 30  1  0  0  0
 30 31  2  0  0  0
 31 32  1  0  0  0
  5  6  1  0  0  0
M  END
> <minimizedAffinity>
-10.14547

$$$$
