CHEMBL3963649


 31 34  0  0  0  0  0  0  0  0999 V2000
  -18.8396    1.7487  -15.4583 C   0  0  0  0  0  0  0  0  0  0  0  0
  -19.5624    2.9333  -15.5287 C   0  0  0  0  0  0  0  0  0  0  0  0
  -20.7991    3.0056  -14.9317 C   0  0  0  0  0  0  0  0  0  0  0  0
  -21.4306    1.9047  -14.4154 C   0  0  0  0  0  0  0  0  0  0  0  0
  -22.4987    2.2503  -13.6766 N   0  0  0  0  0  0  0  0  0  0  0  0
  -23.3132    1.2728  -13.2855 C   0  0  0  0  0  0  0  0  0  0  0  0
  -23.1528   -0.0219  -13.7144 C   0  0  0  0  0  0  0  0  0  0  0  0
  -21.9757   -0.4155  -14.3368 N   0  0  0  0  0  0  0  0  0  0  0  0
  -21.0087    0.5943  -14.6463 C   0  0  0  0  0  0  0  0  0  0  0  0
  -19.5942    0.5694  -15.1327 C   0  0  0  0  0  0  0  0  0  0  0  0
  -24.3831   -0.8461  -13.5371 C   0  0  0  0  0  0  0  0  0  0  0  0
  -25.2926   -1.2976  -14.5424 C   0  0  0  0  0  0  0  0  0  0  0  0
  -26.5081   -1.6208  -14.0715 N   0  0  0  0  0  0  0  0  0  0  0  0
  -26.4278   -1.3378  -12.7621 N   0  0  0  0  0  0  0  0  0  0  0  0
  -27.5467   -1.6050  -11.8819 C   0  0  0  0  0  0  0  0  0  0  0  0
  -25.2209   -0.7798  -12.4185 C   0  0  0  0  0  0  0  0  0  0  0  0
  -17.4044    1.9621  -15.4436 N   0  0  0  0  0  0  0  0  0  0  0  0
  -15.3364   -0.2573  -13.2186 C   0  0  0  0  0  0  0  0  0  0  0  0
  -14.2986   -0.6208  -14.0619 C   0  0  0  0  0  0  0  0  0  0  0  0
  -14.2396   -0.0879  -15.3490 C   0  0  0  0  0  0  0  0  0  0  0  0
  -15.2342    0.7901  -15.8274 C   0  0  0  0  0  0  0  0  0  0  0  0
  -16.3587    1.1024  -15.0153 C   0  0  0  0  0  0  0  0  0  0  0  0
  -16.3385    0.6029  -13.6929 C   0  0  0  0  0  0  0  0  0  0  0  0
  -15.5651   -2.0736  -11.7044 C   0  0  0  0  0  0  0  0  0  0  0  0
  -15.4816   -0.6675  -11.9204 O   0  0  0  0  0  0  0  0  0  0  0  0
  -15.1133    1.4343  -17.0409 O   0  0  0  0  0  0  0  0  0  0  0  0
  -14.1275    0.9302  -17.9454 C   0  0  0  0  0  0  0  0  0  0  0  0
  -17.1328    3.4459  -15.4928 C   0  0  0  0  0  0  0  0  0  0  0  0
  -16.3500    3.9935  -16.7043 C   0  0  0  0  0  0  0  0  0  0  0  0
  -15.6811    5.2258  -16.4422 O   0  0  0  0  0  0  0  0  0  0  0  0
  -16.2706    5.9365  -16.7500 H   0  0  0  0  0  0  0  0  0  0  0  0
 24 25  1  0  0  0
 25 18  1  0  0  0
 18 19  1  0  0  0
 18 23  2  0  0  0
 19 20  2  0  0  0
 20 21  1  0  0  0
 21 26  1  0  0  0
 21 22  2  0  0  0
 26 27  1  0  0  0
 22 17  1  0  0  0
 22 23  1  0  0  0
 17 28  1  0  0  0
 17  1  1  0  0  0
 28 29  1  0  0  0
 29 30  1  0  0  0
 30 31  1  0  0  0
  1  2  1  0  0  0
  1 10  2  0  0  0
  2  3  2  0  0  0
  3  4  1  0  0  0
  4  5  1  0  0  0
  4  9  2  0  0  0
  5  6  2  0  0  0
  6  7  1  0  0  0
  7 11  1  0  0  0
  7  8  2  0  0  0
 11 12  1  0  0  0
 11 16  2  0  0  0
 12 13  2  0  0  0
 13 14  1  0  0  0
 14 15  1  0  0  0
 14 16  1  0  0  0
  8  9  1  0  0  0
  9 10  1  0  0  0
M  END
> <minimizedAffinity>
-8.56797

$$$$
