CHEMBL2348997


 34 38  0  0  0  0  0  0  0  0999 V2000
  -28.2514   -2.8273   -6.2896 C   0  0  0  0  0  0  0  0  0  0  0  0
  -27.8340   -1.5447   -5.9147 C   0  0  0  0  0  0  0  0  0  0  0  0
  -27.6023   -0.5531   -6.8624 C   0  0  0  0  0  0  0  0  0  0  0  0
  -27.7532   -0.8381   -8.2124 C   0  0  0  0  0  0  0  0  0  0  0  0
  -28.1086   -2.1288   -8.6146 C   0  0  0  0  0  0  0  0  0  0  0  0
  -28.3301   -3.1381   -7.6607 C   0  0  0  0  0  0  0  0  0  0  0  0
  -29.5796   -4.7902   -5.5249 C   0  0  0  0  0  0  0  0  0  0  0  0
  -30.1844   -4.9491   -6.5814 O   0  0  0  0  0  0  0  0  0  0  0  0
  -28.6218   -3.7983   -5.3178 N   0  0  0  0  0  0  0  0  0  0  0  0
  -28.0309   -3.8643   -4.5050 H   0  0  0  0  0  0  0  0  0  0  0  0
  -27.7807   -7.3295   -4.7347 C   0  0  0  0  0  0  0  0  0  0  0  0
  -29.0344   -6.8544   -4.0949 C   0  0  0  0  0  0  0  0  0  0  0  0
  -29.5397   -7.5234   -3.0543 N   0  0  0  0  0  0  0  0  0  0  0  0
  -30.6815   -6.8493   -2.6938 O   0  0  0  0  0  0  0  0  0  0  0  0
  -30.8707   -5.7782   -3.5110 C   0  0  0  0  0  0  0  0  0  0  0  0
  -32.0795   -4.9902   -3.2115 C   0  0  0  0  0  0  0  0  0  0  0  0
  -29.8475   -5.7197   -4.4360 C   0  0  0  0  0  0  0  0  0  0  0  0
  -28.1683   -2.4647   -9.9982 O   0  0  0  0  0  0  0  0  0  0  0  0
  -27.1984   -1.9697  -10.8724 C   0  0  0  0  0  0  0  0  0  0  0  0
  -27.6918   -2.0319  -12.2723 C   0  0  0  0  0  0  0  0  0  0  0  0
  -26.8044   -1.7320  -13.2336 C   0  0  0  0  0  0  0  0  0  0  0  0
  -25.5065   -1.3092  -12.8663 C   0  0  0  0  0  0  0  0  0  0  0  0
  -24.4692   -0.9617  -13.5920 N   0  0  0  0  0  0  0  0  0  0  0  0
  -23.4933   -0.6170  -12.7019 C   0  0  0  0  0  0  0  0  0  0  0  0
  -23.9369   -0.7668  -11.4081 C   0  0  0  0  0  0  0  0  0  0  0  0
  -25.2252   -1.2183  -11.5169 N   0  0  0  0  0  0  0  0  0  0  0  0
  -26.0346   -1.5521  -10.4756 N   0  0  0  0  0  0  0  0  0  0  0  0
  -22.2404   -0.1816  -13.0640 N   0  0  0  0  0  0  0  0  0  0  0  0
  -22.0104    1.0394  -13.6676 C   0  0  0  0  0  0  0  0  0  0  0  0
  -22.8336    1.8981  -13.9636 O   0  0  0  0  0  0  0  0  0  0  0  0
  -21.4650   -0.7942  -12.8743 H   0  0  0  0  0  0  0  0  0  0  0  0
  -20.5601    1.3055  -13.9682 C   0  0  0  0  0  0  0  0  0  0  0  0
  -20.1913    2.2442  -15.0972 C   0  0  0  0  0  0  0  0  0  0  0  0
  -19.9557    0.7699  -15.2487 C   0  0  0  0  0  0  0  0  0  0  0  0
 11 12  1  0  0  0
 12 13  2  0  0  0
 12 17  1  0  0  0
 13 14  1  0  0  0
 14 15  1  0  0  0
 15 16  1  0  0  0
 15 17  2  0  0  0
 17  7  1  0  0  0
  7  8  2  0  0  0
  7  9  1  0  0  0
  9  1  1  0  0  0
  9 10  1  0  0  0
  1  2  1  0  0  0
  1  6  2  0  0  0
  2  3  2  0  0  0
  3  4  1  0  0  0
  4  5  2  0  0  0
  5 18  1  0  0  0
  5  6  1  0  0  0
 18 19  1  0  0  0
 19 20  1  0  0  0
 19 27  2  0  0  0
 20 21  2  0  0  0
 21 22  1  0  0  0
 22 23  2  0  0  0
 22 26  1  0  0  0
 23 24  1  0  0  0
 24 28  1  0  0  0
 24 25  2  0  0  0
 28 29  1  0  0  0
 28 31  1  0  0  0
 29 30  2  0  0  0
 29 32  1  0  0  0
 32 33  1  0  0  0
 32 34  1  0  0  0
 33 34  1  0  0  0
 25 26  1  0  0  0
 26 27  1  0  0  0
M  END
> <minimizedAffinity>
-10.26202

$$$$
