CHEMBL387604


 40 43  0  0  0  0  0  0  0  0999 V2000
  -28.4391   -3.1786   -5.1616 C   0  0  0  0  0  0  0  0  0  0  0  0
  -29.1656   -3.7457   -6.2015 C   0  0  0  0  0  0  0  0  0  0  0  0
  -29.1281   -3.1739   -7.4767 C   0  0  0  0  0  0  0  0  0  0  0  0
  -28.3744   -2.0190   -7.7304 C   0  0  0  0  0  0  0  0  0  0  0  0
  -27.6668   -1.4365   -6.6708 C   0  0  0  0  0  0  0  0  0  0  0  0
  -27.7257   -1.9976   -5.3887 C   0  0  0  0  0  0  0  0  0  0  0  0
  -28.2709   -1.4173   -9.0057 N   0  0  0  0  0  0  0  0  0  0  0  0
  -27.3445   -1.7556   -9.9678 C   0  0  0  0  0  0  0  0  0  0  0  0
  -26.5372   -2.6769   -9.8717 O   0  0  0  0  0  0  0  0  0  0  0  0
  -27.3964   -0.9230  -11.0810 N   0  0  0  0  0  0  0  0  0  0  0  0
  -29.0077   -0.7897   -9.2886 H   0  0  0  0  0  0  0  0  0  0  0  0
  -27.5302    0.0555  -10.8515 H   0  0  0  0  0  0  0  0  0  0  0  0
  -26.4535   -1.1672  -12.1153 C   0  0  0  0  0  0  0  0  0  0  0  0
  -25.1499   -0.6645  -12.0197 C   0  0  0  0  0  0  0  0  0  0  0  0
  -24.2959   -0.6722  -13.1305 C   0  0  0  0  0  0  0  0  0  0  0  0
  -24.7613   -1.2256  -14.3356 C   0  0  0  0  0  0  0  0  0  0  0  0
  -26.0364   -1.7966  -14.4103 C   0  0  0  0  0  0  0  0  0  0  0  0
  -26.8670   -1.7834  -13.2941 C   0  0  0  0  0  0  0  0  0  0  0  0
  -28.1112   -2.2760  -13.3903 F   0  0  0  0  0  0  0  0  0  0  0  0
  -22.9241   -0.0486  -13.0455 C   0  0  0  0  0  0  0  0  0  0  0  0
  -22.0524   -0.5013  -13.9883 F   0  0  0  0  0  0  0  0  0  0  0  0
  -22.9660    1.3043  -13.2016 F   0  0  0  0  0  0  0  0  0  0  0  0
  -22.3238   -0.2653  -11.8431 F   0  0  0  0  0  0  0  0  0  0  0  0
  -28.5104   -3.8287   -3.9502 O   0  0  0  0  0  0  0  0  0  0  0  0
  -27.9385   -9.4756   -5.0560 C   0  0  0  0  0  0  0  0  0  0  0  0
  -29.0392   -9.2106   -4.3948 N   0  0  0  0  0  0  0  0  0  0  0  0
  -28.9969   -7.8829   -4.1152 C   0  0  0  0  0  0  0  0  0  0  0  0
  -29.9612   -7.1966   -3.4691 N   0  0  0  0  0  0  0  0  0  0  0  0
  -29.7371   -5.8695   -3.3933 C   0  0  0  0  0  0  0  0  0  0  0  0
  -28.6447   -5.1971   -3.9477 C   0  0  0  0  0  0  0  0  0  0  0  0
  -27.6047   -5.9305   -4.5234 C   0  0  0  0  0  0  0  0  0  0  0  0
  -27.8372   -7.3015   -4.6096 C   0  0  0  0  0  0  0  0  0  0  0  0
  -27.1418   -8.3577   -5.1407 N   0  0  0  0  0  0  0  0  0  0  0  0
  -26.2360   -8.3096   -5.5816 H   0  0  0  0  0  0  0  0  0  0  0  0
  -27.2557  -10.7385   -6.9627 C   0  0  0  0  0  0  0  0  0  0  0  0
  -27.2716   -9.8541   -7.8063 O   0  0  0  0  0  0  0  0  0  0  0  0
  -27.5814  -10.6635   -5.6333 N   0  0  0  0  0  0  0  0  0  0  0  0
  -27.4640  -11.5062   -5.0958 H   0  0  0  0  0  0  0  0  0  0  0  0
  -26.0461  -12.0983   -8.4141 C   0  0  0  0  0  0  0  0  0  0  0  0
  -26.8497  -12.0117   -7.2338 O   0  0  0  0  0  0  0  0  0  0  0  0
 39 40  1  0  0  0
 40 35  1  0  0  0
 35 36  2  0  0  0
 35 37  1  0  0  0
 37 25  1  0  0  0
 37 38  1  0  0  0
 25 26  2  0  0  0
 25 33  1  0  0  0
 26 27  1  0  0  0
 27 28  1  0  0  0
 27 32  2  0  0  0
 28 29  2  0  0  0
 29 30  1  0  0  0
 30 24  1  0  0  0
 30 31  2  0  0  0
 24  1  1  0  0  0
  1  2  1  0  0  0
  1  6  2  0  0  0
  2  3  2  0  0  0
  3  4  1  0  0  0
  4  7  1  0  0  0
  4  5  2  0  0  0
  7  8  1  0  0  0
  7 11  1  0  0  0
  8  9  2  0  0  0
  8 10  1  0  0  0
 10 13  1  0  0  0
 10 12  1  0  0  0
 13 14  1  0  0  0
 13 18  2  0  0  0
 14 15  2  0  0  0
 15 20  1  0  0  0
 15 16  1  0  0  0
 20 21  1  0  0  0
 20 22  1  0  0  0
 20 23  1  0  0  0
 16 17  2  0  0  0
 17 18  1  0  0  0
 18 19  1  0  0  0
  5  6  1  0  0  0
 31 32  1  0  0  0
 32 33  1  0  0  0
 33 34  1  0  0  0
M  END
> <minimizedAffinity>
-10.12601

$$$$
