CHEMBL3355010


 35 37  0  0  0  0  0  0  0  0999 V2000
  -29.3191   -7.0956   -5.9571 C   0  0  0  0  0  0  0  0  0  0  0  0
  -28.6159   -6.8271   -7.1402 C   0  0  0  0  0  0  0  0  0  0  0  0
  -28.6534   -5.5483   -7.7169 C   0  0  0  0  0  0  0  0  0  0  0  0
  -29.3852   -4.5150   -7.1144 C   0  0  0  0  0  0  0  0  0  0  0  0
  -30.0735   -4.7997   -5.9325 C   0  0  0  0  0  0  0  0  0  0  0  0
  -30.7889   -3.8371   -5.3320 F   0  0  0  0  0  0  0  0  0  0  0  0
  -30.0494   -6.0661   -5.3561 C   0  0  0  0  0  0  0  0  0  0  0  0
  -29.8606   -9.6350   -5.9309 C   0  0  0  0  0  0  0  0  0  0  0  0
  -29.7451  -10.8316   -5.3149 C   0  0  0  0  0  0  0  0  0  0  0  0
  -29.0312  -10.9348   -4.0237 C   0  0  0  0  0  0  0  0  0  0  0  0
  -28.9038  -12.0143   -3.4553 O   0  0  0  0  0  0  0  0  0  0  0  0
  -28.5221   -9.7681   -3.5216 N   0  0  0  0  0  0  0  0  0  0  0  0
  -28.6416   -8.5474   -4.1455 C   0  0  0  0  0  0  0  0  0  0  0  0
  -29.2898   -8.4294   -5.3183 C   0  0  0  0  0  0  0  0  0  0  0  0
  -28.0162   -9.8474   -2.6494 H   0  0  0  0  0  0  0  0  0  0  0  0
  -30.4752   -9.4075   -7.1425 O   0  0  0  0  0  0  0  0  0  0  0  0
  -32.6155   -8.3425   -7.1209 C   0  0  0  0  0  0  0  0  0  0  0  0
  -31.8778   -9.6627   -7.2228 C   0  0  0  0  0  0  0  0  0  0  0  0
  -29.5273   -3.1568   -7.7524 C   0  0  0  0  0  0  0  0  0  0  0  0
  -28.2645   -2.6036   -8.3723 C   0  0  0  0  0  0  0  0  0  0  0  0
  -27.3018   -2.3100   -7.6526 O   0  0  0  0  0  0  0  0  0  0  0  0
  -28.2924   -2.4593   -9.7427 N   0  0  0  0  0  0  0  0  0  0  0  0
  -29.1740   -2.2509  -10.1971 H   0  0  0  0  0  0  0  0  0  0  0  0
  -27.1442   -2.0148  -10.3563 C   0  0  0  0  0  0  0  0  0  0  0  0
  -26.7498   -1.9725  -11.6688 C   0  0  0  0  0  0  0  0  0  0  0  0
  -25.3892   -1.5813  -11.6259 C   0  0  0  0  0  0  0  0  0  0  0  0
  -25.0125   -1.3353  -10.3599 N   0  0  0  0  0  0  0  0  0  0  0  0
  -26.1347   -1.5593   -9.5736 O   0  0  0  0  0  0  0  0  0  0  0  0
  -24.4336   -1.4211  -12.7959 C   0  0  0  0  0  0  0  0  0  0  0  0
  -23.3666   -2.5411  -12.8133 C   0  0  0  0  0  0  0  0  0  0  0  0
  -25.2096   -1.5372  -14.1329 C   0  0  0  0  0  0  0  0  0  0  0  0
  -23.7305   -0.0429  -12.7289 C   0  0  0  0  0  0  0  0  0  0  0  0
  -24.4679    0.8994  -12.0959 F   0  0  0  0  0  0  0  0  0  0  0  0
  -22.5413   -0.1014  -12.0837 F   0  0  0  0  0  0  0  0  0  0  0  0
  -23.4719    0.4496  -13.9666 F   0  0  0  0  0  0  0  0  0  0  0  0
 17 18  1  0  0  0
 18 16  1  0  0  0
 16  8  1  0  0  0
  8  9  2  0  0  0
  8 14  1  0  0  0
  9 10  1  0  0  0
 10 11  2  0  0  0
 10 12  1  0  0  0
 12 13  1  0  0  0
 12 15  1  0  0  0
 13 14  2  0  0  0
 14  1  1  0  0  0
  1  2  1  0  0  0
  1  7  2  0  0  0
  2  3  2  0  0  0
  3  4  1  0  0  0
  4 19  1  0  0  0
  4  5  2  0  0  0
 19 20  1  0  0  0
 20 21  2  0  0  0
 20 22  1  0  0  0
 22 24  1  0  0  0
 22 23  1  0  0  0
 24 25  2  0  0  0
 24 28  1  0  0  0
 25 26  1  0  0  0
 26 29  1  0  0  0
 26 27  2  0  0  0
 29 30  1  0  0  0
 29 31  1  0  0  0
 29 32  1  0  0  0
 32 33  1  0  0  0
 32 34  1  0  0  0
 32 35  1  0  0  0
 27 28  1  0  0  0
  5  6  1  0  0  0
  5  7  1  0  0  0
M  END
> <minimizedAffinity>
-9.68817

$$$$
