CHEMBL256116


 29 32  0  0  0  0  0  0  0  0999 V2000
  -15.6231    1.8746  -15.2947 C   0  0  0  0  0  0  0  0  0  0  0  0
  -15.3768    0.9040  -14.4832 N   0  0  0  0  0  0  0  0  0  0  0  0
  -14.1235    0.8871  -13.9176 C   0  0  0  0  0  0  0  0  0  0  0  0
  -13.1830    1.7677  -14.0740 N   0  0  0  0  0  0  0  0  0  0  0  0
  -13.4976    2.7745  -14.9056 N   0  0  0  0  0  0  0  0  0  0  0  0
  -12.6931    3.8305  -15.2263 C   0  0  0  0  0  0  0  0  0  0  0  0
  -13.3557    4.5980  -16.1598 C   0  0  0  0  0  0  0  0  0  0  0  0
  -14.6484    4.0308  -16.3605 C   0  0  0  0  0  0  0  0  0  0  0  0
  -15.7381    4.5380  -17.2379 C   0  0  0  0  0  0  0  0  0  0  0  0
  -14.6758    2.8892  -15.5731 C   0  0  0  0  0  0  0  0  0  0  0  0
  -16.8070    2.0585  -15.9752 O   0  0  0  0  0  0  0  0  0  0  0  0
  -23.7046    0.6973  -13.9753 C   0  0  0  0  0  0  0  0  0  0  0  0
  -22.2824    1.0877  -14.1246 C   0  0  0  0  0  0  0  0  0  0  0  0
  -21.1498    0.3183  -14.3183 C   0  0  0  0  0  0  0  0  0  0  0  0
  -20.0728    1.2011  -14.5934 C   0  0  0  0  0  0  0  0  0  0  0  0
  -18.7414    1.0694  -15.0007 C   0  0  0  0  0  0  0  0  0  0  0  0
  -18.2007   -0.1409  -15.2042 F   0  0  0  0  0  0  0  0  0  0  0  0
  -18.0243    2.2230  -15.2943 C   0  0  0  0  0  0  0  0  0  0  0  0
  -18.6328    3.4584  -15.1147 C   0  0  0  0  0  0  0  0  0  0  0  0
  -19.9030    3.6483  -14.6772 N   0  0  0  0  0  0  0  0  0  0  0  0
  -20.5650    2.4942  -14.4684 C   0  0  0  0  0  0  0  0  0  0  0  0
  -21.8893    2.4069  -14.1354 N   0  0  0  0  0  0  0  0  0  0  0  0
  -22.4863    3.2122  -14.0149 H   0  0  0  0  0  0  0  0  0  0  0  0
  -12.8844    5.7090  -16.7772 O   0  0  0  0  0  0  0  0  0  0  0  0
  -11.7280    6.2754  -16.1389 C   0  0  0  0  0  0  0  0  0  0  0  0
  -12.1525    7.2935  -15.0740 C   0  0  0  0  0  0  0  0  0  0  0  0
  -11.0388    7.5935  -14.0811 C   0  0  0  0  0  0  0  0  0  0  0  0
  -12.5634    8.5143  -15.6855 O   0  0  0  0  0  0  0  0  0  0  0  0
  -11.8291    8.8039  -16.2557 H   0  0  0  0  0  0  0  0  0  0  0  0
 12 13  1  0  0  0
 13 14  2  0  0  0
 13 22  1  0  0  0
 14 15  1  0  0  0
 15 16  1  0  0  0
 15 21  2  0  0  0
 16 17  1  0  0  0
 16 18  2  0  0  0
 18 11  1  0  0  0
 18 19  1  0  0  0
 11  1  1  0  0  0
  1  2  2  0  0  0
  1 10  1  0  0  0
  2  3  1  0  0  0
  3  4  2  0  0  0
  4  5  1  0  0  0
  5  6  1  0  0  0
  5 10  1  0  0  0
  6  7  2  0  0  0
  7 24  1  0  0  0
  7  8  1  0  0  0
 24 25  1  0  0  0
 25 26  1  0  0  0
 26 27  1  0  0  0
 26 28  1  0  0  0
 28 29  1  0  0  0
  8  9  1  0  0  0
  8 10  2  0  0  0
 19 20  2  0  0  0
 20 21  1  0  0  0
 21 22  1  0  0  0
 22 23  1  0  0  0
M  END
> <minimizedAffinity>
-7.51018

$$$$
