CHEMBL70034


 31 34  0  0  0  0  0  0  0  0999 V2000
  -14.4515   -4.5714  -14.2419 C   0  0  0  0  0  0  0  0  0  0  0  0
  -15.7448   -4.3627  -13.7465 C   0  0  0  0  0  0  0  0  0  0  0  0
  -16.1647   -3.0832  -13.3747 C   0  0  0  0  0  0  0  0  0  0  0  0
  -15.2640   -2.0171  -13.3985 C   0  0  0  0  0  0  0  0  0  0  0  0
  -14.0099   -2.1970  -13.9735 C   0  0  0  0  0  0  0  0  0  0  0  0
  -13.6287   -3.4566  -14.4350 C   0  0  0  0  0  0  0  0  0  0  0  0
  -13.2133   -7.6341  -15.7546 N   0  0  0  0  0  0  0  0  0  0  0  0
  -13.6931   -6.3490  -15.8148 C   0  0  0  0  0  0  0  0  0  0  0  0
  -13.9566   -5.9137  -14.5265 C   0  0  0  0  0  0  0  0  0  0  0  0
  -13.6544   -7.0119  -13.6436 C   0  0  0  0  0  0  0  0  0  0  0  0
  -13.7092   -7.2810  -12.2596 C   0  0  0  0  0  0  0  0  0  0  0  0
  -14.1960   -6.4132  -11.2895 N   0  0  0  0  0  0  0  0  0  0  0  0
  -13.2780   -8.4718  -11.8011 N   0  0  0  0  0  0  0  0  0  0  0  0
  -12.8277   -9.3693  -12.6929 C   0  0  0  0  0  0  0  0  0  0  0  0
  -12.7504   -9.2491  -14.0243 N   0  0  0  0  0  0  0  0  0  0  0  0
  -13.1791   -8.0461  -14.4452 C   0  0  0  0  0  0  0  0  0  0  0  0
  -14.9814   -5.8524  -11.5972 H   0  0  0  0  0  0  0  0  0  0  0  0
  -14.3158   -6.8908  -10.4060 H   0  0  0  0  0  0  0  0  0  0  0  0
  -13.7936   -8.4632  -18.0220 C   0  0  0  0  0  0  0  0  0  0  0  0
  -12.7533   -8.4169  -16.9008 C   0  0  0  0  0  0  0  0  0  0  0  0
  -11.4100   -7.8965  -17.4141 C   0  0  0  0  0  0  0  0  0  0  0  0
  -15.5284   -0.7516  -12.9309 O   0  0  0  0  0  0  0  0  0  0  0  0
  -15.6565    0.2922  -13.8176 C   0  0  0  0  0  0  0  0  0  0  0  0
  -14.6162    1.1457  -14.1944 C   0  0  0  0  0  0  0  0  0  0  0  0
  -14.8705    2.2285  -15.0379 C   0  0  0  0  0  0  0  0  0  0  0  0
  -16.1515    2.4278  -15.5659 C   0  0  0  0  0  0  0  0  0  0  0  0
  -17.1656    1.5094  -15.2592 C   0  0  0  0  0  0  0  0  0  0  0  0
  -16.9186    0.4476  -14.3878 C   0  0  0  0  0  0  0  0  0  0  0  0
  -16.4444    3.6124  -16.4454 C   0  0  0  0  0  0  0  0  0  0  0  0
  -16.4501    4.8083  -15.6808 O   0  0  0  0  0  0  0  0  0  0  0  0
  -16.8898    4.6027  -14.8379 H   0  0  0  0  0  0  0  0  0  0  0  0
 19 20  1  0  0  0
 20 21  1  0  0  0
 20  7  1  0  0  0
  7  8  1  0  0  0
  7 16  1  0  0  0
  8  9  2  0  0  0
  9  1  1  0  0  0
  9 10  1  0  0  0
  1  2  1  0  0  0
  1  6  2  0  0  0
  2  3  2  0  0  0
  3  4  1  0  0  0
  4 22  1  0  0  0
  4  5  2  0  0  0
 22 23  1  0  0  0
 23 24  1  0  0  0
 23 28  2  0  0  0
 24 25  2  0  0  0
 25 26  1  0  0  0
 26 29  1  0  0  0
 26 27  2  0  0  0
 29 30  1  0  0  0
 30 31  1  0  0  0
 27 28  1  0  0  0
  5  6  1  0  0  0
 10 11  1  0  0  0
 10 16  2  0  0  0
 11 12  1  0  0  0
 11 13  2  0  0  0
 12 17  1  0  0  0
 12 18  1  0  0  0
 13 14  1  0  0  0
 14 15  2  0  0  0
 15 16  1  0  0  0
M  END
> <minimizedAffinity>
-7.30776

$$$$
