CHEMBL3974963


 41 43  0  0  0  0  0  0  0  0999 V2000
  -22.2396    1.2856  -14.0746 C   0  0  0  0  0  0  0  0  0  0  0  0
  -22.4107    2.6527  -14.2433 C   0  0  0  0  0  0  0  0  0  0  0  0
  -21.3884    3.5296  -14.4307 N   0  0  0  0  0  0  0  0  0  0  0  0
  -20.1347    3.0281  -14.4780 C   0  0  0  0  0  0  0  0  0  0  0  0
  -19.1455    3.9316  -14.8572 N   0  0  0  0  0  0  0  0  0  0  0  0
  -19.8628    1.6623  -14.3073 C   0  0  0  0  0  0  0  0  0  0  0  0
  -20.9320    0.7894  -14.0776 C   0  0  0  0  0  0  0  0  0  0  0  0
  -19.5059    4.8782  -14.7977 H   0  0  0  0  0  0  0  0  0  0  0  0
  -18.2489    3.7894  -14.4120 H   0  0  0  0  0  0  0  0  0  0  0  0
  -23.4258    0.3961  -13.9178 C   0  0  0  0  0  0  0  0  0  0  0  0
  -23.8388   -0.1545  -14.9362 O   0  0  0  0  0  0  0  0  0  0  0  0
  -24.7642   -1.1698  -12.3940 S   0  0  0  0  0  0  0  0  0  0  0  0
  -23.5794   -2.5041  -12.2782 C   0  0  0  0  0  0  0  0  0  0  0  0
  -25.8379   -1.6244  -13.2570 O   0  0  0  0  0  0  0  0  0  0  0  0
  -23.9655    0.1302  -12.6395 N   0  0  0  0  0  0  0  0  0  0  0  0
  -25.4434   -1.0973  -10.7274 C   0  0  0  0  0  0  0  0  0  0  0  0
  -26.6223   -2.0587  -10.5279 C   0  0  0  0  0  0  0  0  0  0  0  0
  -27.5204   -1.6356   -9.3574 C   0  0  0  0  0  0  0  0  0  0  0  0
  -28.1824   -2.8308   -8.6571 C   0  0  0  0  0  0  0  0  0  0  0  0
  -28.3259   -2.5859   -7.1686 C   0  0  0  0  0  0  0  0  0  0  0  0
  -29.2204   -3.0377   -6.4681 O   0  0  0  0  0  0  0  0  0  0  0  0
  -27.5053   -1.3202   -5.3801 C   0  0  0  0  0  0  0  0  0  0  0  0
  -27.3147   -1.7882   -6.7176 O   0  0  0  0  0  0  0  0  0  0  0  0
  -18.5177    1.1581  -14.3558 C   0  0  0  0  0  0  0  0  0  0  0  0
  -17.3803    0.7463  -14.3501 C   0  0  0  0  0  0  0  0  0  0  0  0
  -16.0416    0.2286  -14.3379 C   0  0  0  0  0  0  0  0  0  0  0  0
  -15.0136    0.9547  -14.9463 C   0  0  0  0  0  0  0  0  0  0  0  0
  -13.7221    0.4340  -14.9746 C   0  0  0  0  0  0  0  0  0  0  0  0
  -13.4626   -0.8197  -14.4237 C   0  0  0  0  0  0  0  0  0  0  0  0
  -14.4653   -1.5655  -13.8012 C   0  0  0  0  0  0  0  0  0  0  0  0
  -15.7606   -1.0214  -13.7499 C   0  0  0  0  0  0  0  0  0  0  0  0
  -14.2066   -2.8563  -13.2693 N   0  0  0  0  0  0  0  0  0  0  0  0
  -14.2926   -3.2186  -11.9172 C   0  0  0  0  0  0  0  0  0  0  0  0
  -14.6618   -2.4679  -11.0193 O   0  0  0  0  0  0  0  0  0  0  0  0
  -13.9970   -3.6112  -13.9144 H   0  0  0  0  0  0  0  0  0  0  0  0
  -13.9697   -4.6091  -11.6389 C   0  0  0  0  0  0  0  0  0  0  0  0
  -12.7169   -4.9082  -11.1830 O   0  0  0  0  0  0  0  0  0  0  0  0
  -12.6351   -6.2581  -11.0818 C   0  0  0  0  0  0  0  0  0  0  0  0
  -13.8321   -6.8403  -11.4328 C   0  0  0  0  0  0  0  0  0  0  0  0
  -14.7058   -5.7857  -11.7962 C   0  0  0  0  0  0  0  0  0  0  0  0
  -16.0965   -5.9418  -12.3081 C   0  0  0  0  0  0  0  0  0  0  0  0
 22 23  1  0  0  0
 23 20  1  0  0  0
 20 21  2  0  0  0
 20 19  1  0  0  0
 19 18  1  0  0  0
 18 17  1  0  0  0
 17 16  1  0  0  0
 16 12  1  0  0  0
 12 13  1  0  0  0
 12 14  2  0  0  0
 12 15  2  0  0  0
 15 10  1  0  0  0
 10 11  2  0  0  0
 10  1  1  0  0  0
  1  2  1  0  0  0
  1  7  2  0  0  0
  2  3  2  0  0  0
  3  4  1  0  0  0
  4  5  1  0  0  0
  4  6  2  0  0  0
  5  8  1  0  0  0
  5  9  1  0  0  0
  6 24  1  0  0  0
  6  7  1  0  0  0
 24 25  3  0  0  0
 25 26  1  0  0  0
 26 27  1  0  0  0
 26 31  2  0  0  0
 27 28  2  0  0  0
 28 29  1  0  0  0
 29 30  2  0  0  0
 30 32  1  0  0  0
 30 31  1  0  0  0
 32 33  1  0  0  0
 32 35  1  0  0  0
 33 34  2  0  0  0
 33 36  1  0  0  0
 36 37  1  0  0  0
 36 40  2  0  0  0
 37 38  1  0  0  0
 38 39  2  0  0  0
 39 40  1  0  0  0
 40 41  1  0  0  0
M  END
> <minimizedAffinity>
-9.32536

$$$$
