CHEMBL3593288


 40 44  0  0  0  0  0  0  0  0999 V2000
  -30.0520    1.1723   -6.5763 C   0  0  0  0  0  0  0  0  0  0  0  0
  -28.6899    1.3619   -6.4974 C   0  0  0  0  0  0  0  0  0  0  0  0
  -27.9922    0.3844   -5.8552 N   0  0  0  0  0  0  0  0  0  0  0  0
  -28.7715   -0.5980   -5.4625 C   0  0  0  0  0  0  0  0  0  0  0  0
  -30.4477   -0.3079   -5.7932 S   0  0  0  0  0  0  0  0  0  0  0  0
  -32.7700    3.7206   -8.6892 C   0  0  0  0  0  0  0  0  0  0  0  0
  -32.5477    2.4091   -9.0950 C   0  0  0  0  0  0  0  0  0  0  0  0
  -31.6872    1.5866   -8.3706 C   0  0  0  0  0  0  0  0  0  0  0  0
  -31.0191    2.0548   -7.2289 C   0  0  0  0  0  0  0  0  0  0  0  0
  -31.2438    3.3729   -6.8226 C   0  0  0  0  0  0  0  0  0  0  0  0
  -32.1051    4.2032   -7.5562 C   0  0  0  0  0  0  0  0  0  0  0  0
  -35.3912    5.2842  -10.7337 N   0  0  0  0  0  0  0  0  0  0  0  0
  -34.8003    4.2966   -9.9997 C   0  0  0  0  0  0  0  0  0  0  0  0
  -35.3916    3.2156   -9.9425 O   0  0  0  0  0  0  0  0  0  0  0  0
  -33.6119    4.5982   -9.3934 N   0  0  0  0  0  0  0  0  0  0  0  0
  -36.2654    4.9980  -11.1525 H   0  0  0  0  0  0  0  0  0  0  0  0
  -33.3527    5.5798   -9.4075 H   0  0  0  0  0  0  0  0  0  0  0  0
  -34.8719    8.6511  -11.6461 C   0  0  0  0  0  0  0  0  0  0  0  0
  -35.7453    7.6133  -11.4298 C   0  0  0  0  0  0  0  0  0  0  0  0
  -34.9201    6.5397  -11.0220 C   0  0  0  0  0  0  0  0  0  0  0  0
  -33.6391    6.9174  -10.9649 N   0  0  0  0  0  0  0  0  0  0  0  0
  -33.6087    8.2396  -11.3628 O   0  0  0  0  0  0  0  0  0  0  0  0
  -33.7627   10.5569  -12.7626 C   0  0  0  0  0  0  0  0  0  0  0  0
  -35.0293   10.0505  -12.0959 C   0  0  0  0  0  0  0  0  0  0  0  0
  -28.3381   -1.7441   -4.8765 N   0  0  0  0  0  0  0  0  0  0  0  0
  -27.6312   -1.7034   -4.1553 H   0  0  0  0  0  0  0  0  0  0  0  0
  -29.0810   -2.9380   -4.7840 C   0  0  0  0  0  0  0  0  0  0  0  0
  -28.8189   -4.0297   -5.5870 C   0  0  0  0  0  0  0  0  0  0  0  0
  -29.6418   -5.1340   -5.5610 C   0  0  0  0  0  0  0  0  0  0  0  0
  -30.6850   -5.1578   -4.7242 N   0  0  0  0  0  0  0  0  0  0  0  0
  -30.8591   -4.0898   -3.9186 C   0  0  0  0  0  0  0  0  0  0  0  0
  -32.0241   -4.1335   -2.9790 C   0  0  0  0  0  0  0  0  0  0  0  0
  -30.0928   -2.9764   -3.9058 N   0  0  0  0  0  0  0  0  0  0  0  0
  -29.4367   -6.1499   -6.4937 N   0  0  0  0  0  0  0  0  0  0  0  0
  -30.5455   -7.0883   -6.7539 C   0  0  0  0  0  0  0  0  0  0  0  0
  -29.9919   -8.3762   -7.3973 C   0  0  0  0  0  0  0  0  0  0  0  0
  -29.2516   -8.0981   -8.6462 N   0  0  0  0  0  0  0  0  0  0  0  0
  -28.7191   -9.3374   -9.2046 C   0  0  0  0  0  0  0  0  0  0  0  0
  -28.1625   -7.1324   -8.3578 C   0  0  0  0  0  0  0  0  0  0  0  0
  -28.6691   -5.8198   -7.7006 C   0  0  0  0  0  0  0  0  0  0  0  0
 23 24  1  0  0  0
 24 18  1  0  0  0
 18 19  2  0  0  0
 18 22  1  0  0  0
 19 20  1  0  0  0
 20 12  1  0  0  0
 20 21  2  0  0  0
 12 13  1  0  0  0
 12 16  1  0  0  0
 13 14  2  0  0  0
 13 15  1  0  0  0
 15  6  1  0  0  0
 15 17  1  0  0  0
  6  7  1  0  0  0
  6 11  2  0  0  0
  7  8  2  0  0  0
  8  9  1  0  0  0
  9  1  1  0  0  0
  9 10  2  0  0  0
  1  2  2  0  0  0
  1  5  1  0  0  0
  2  3  1  0  0  0
  3  4  2  0  0  0
  4 25  1  0  0  0
  4  5  1  0  0  0
 25 27  1  0  0  0
 25 26  1  0  0  0
 27 28  1  0  0  0
 27 33  2  0  0  0
 28 29  2  0  0  0
 29 34  1  0  0  0
 29 30  1  0  0  0
 34 35  1  0  0  0
 34 40  1  0  0  0
 35 36  1  0  0  0
 36 37  1  0  0  0
 37 38  1  0  0  0
 37 39  1  0  0  0
 39 40  1  0  0  0
 30 31  2  0  0  0
 31 32  1  0  0  0
 31 33  1  0  0  0
 10 11  1  0  0  0
 21 22  1  0  0  0
M  END
> <minimizedAffinity>
-4.73595

$$$$
