CHEMBL3954396


 36 39  0  0  0  0  0  0  0  0999 V2000
  -29.9519   -6.2976   -5.9175 N   0  0  0  0  0  0  0  0  0  0  0  0
  -29.4218   -5.0000   -6.2495 C   0  0  0  0  0  0  0  0  0  0  0  0
  -29.6416   -3.8675   -5.4705 C   0  0  0  0  0  0  0  0  0  0  0  0
  -29.1446   -2.6035   -5.7897 C   0  0  0  0  0  0  0  0  0  0  0  0
  -28.5156   -2.3840   -6.9862 C   0  0  0  0  0  0  0  0  0  0  0  0
  -28.1929   -1.1177   -7.2911 N   0  0  0  0  0  0  0  0  0  0  0  0
  -27.6507   -0.9318   -8.5093 C   0  0  0  0  0  0  0  0  0  0  0  0
  -27.4162   -1.9727   -9.3932 C   0  0  0  0  0  0  0  0  0  0  0  0
  -27.7226   -3.2586   -9.0668 N   0  0  0  0  0  0  0  0  0  0  0  0
  -28.2896   -3.4655   -7.8511 C   0  0  0  0  0  0  0  0  0  0  0  0
  -28.6895   -4.7479   -7.4382 C   0  0  0  0  0  0  0  0  0  0  0  0
  -26.8178   -1.7208  -10.6893 C   0  0  0  0  0  0  0  0  0  0  0  0
  -27.3914   -1.6918  -11.9820 C   0  0  0  0  0  0  0  0  0  0  0  0
  -26.5032   -1.3808  -12.9321 N   0  0  0  0  0  0  0  0  0  0  0  0
  -25.3597   -1.1953  -12.2441 N   0  0  0  0  0  0  0  0  0  0  0  0
  -24.1690   -0.7734  -12.9385 C   0  0  0  0  0  0  0  0  0  0  0  0
  -25.4903   -1.4161  -10.9083 C   0  0  0  0  0  0  0  0  0  0  0  0
  -29.7385   -9.0307   -8.6230 C   0  0  0  0  0  0  0  0  0  0  0  0
  -31.0023   -9.5766   -8.5917 C   0  0  0  0  0  0  0  0  0  0  0  0
  -31.9238   -9.0920   -7.6706 C   0  0  0  0  0  0  0  0  0  0  0  0
  -31.5763   -8.0196   -6.8099 C   0  0  0  0  0  0  0  0  0  0  0  0
  -32.5415   -7.5505   -6.0054 F   0  0  0  0  0  0  0  0  0  0  0  0
  -30.2822   -7.4177   -6.7837 C   0  0  0  0  0  0  0  0  0  0  0  0
  -29.3889   -8.0148   -7.7100 C   0  0  0  0  0  0  0  0  0  0  0  0
  -28.0898   -7.7274   -7.7414 F   0  0  0  0  0  0  0  0  0  0  0  0
  -29.1012  -10.2674  -10.5567 C   0  0  0  0  0  0  0  0  0  0  0  0
  -28.7302   -9.4399   -9.4601 O   0  0  0  0  0  0  0  0  0  0  0  0
  -33.1134   -9.7706   -7.7362 O   0  0  0  0  0  0  0  0  0  0  0  0
  -33.3776  -10.7598   -6.7559 C   0  0  0  0  0  0  0  0  0  0  0  0
  -30.3574   -6.3931   -4.4737 C   0  0  0  0  0  0  0  0  0  0  0  0
  -29.3307   -7.1170   -3.5729 C   0  0  0  0  0  0  0  0  0  0  0  0
  -29.5058   -8.5699   -3.4075 N   0  0  0  0  0  0  0  0  0  0  0  0
  -30.3744   -8.8267   -3.8817 H   0  0  0  0  0  0  0  0  0  0  0  0
  -28.4297   -9.4218   -3.9395 C   0  0  0  0  0  0  0  0  0  0  0  0
  -28.8808  -10.4093   -5.0201 C   0  0  0  0  0  0  0  0  0  0  0  0
  -27.3532   -8.4999   -4.5216 C   0  0  0  0  0  0  0  0  0  0  0  0
 26 27  1  0  0  0
 27 18  1  0  0  0
 18 19  1  0  0  0
 18 24  2  0  0  0
 19 20  2  0  0  0
 20 28  1  0  0  0
 20 21  1  0  0  0
 28 29  1  0  0  0
 21 22  1  0  0  0
 21 23  2  0  0  0
 23  1  1  0  0  0
 23 24  1  0  0  0
  1 30  1  0  0  0
  1  2  1  0  0  0
 30 31  1  0  0  0
 31 32  1  0  0  0
 32 34  1  0  0  0
 32 33  1  0  0  0
 34 35  1  0  0  0
 34 36  1  0  0  0
  2  3  1  0  0  0
  2 11  2  0  0  0
  3  4  2  0  0  0
  4  5  1  0  0  0
  5  6  1  0  0  0
  5 10  2  0  0  0
  6  7  2  0  0  0
  7  8  1  0  0  0
  8 12  1  0  0  0
  8  9  2  0  0  0
 12 13  1  0  0  0
 12 17  2  0  0  0
 13 14  2  0  0  0
 14 15  1  0  0  0
 15 16  1  0  0  0
 15 17  1  0  0  0
  9 10  1  0  0  0
 10 11  1  0  0  0
 24 25  1  0  0  0
M  END
> <minimizedAffinity>
-8.68645

$$$$
