CHEMBL184604


 32 35  0  0  0  0  0  0  0  0999 V2000
  -17.0509    1.6059  -14.5680 C   0  0  0  0  0  0  0  0  0  0  0  0
  -15.9037    1.9143  -15.3304 C   0  0  0  0  0  0  0  0  0  0  0  0
  -15.8689    2.9431  -16.2886 C   0  0  0  0  0  0  0  0  0  0  0  0
  -17.0538    3.6375  -16.5038 C   0  0  0  0  0  0  0  0  0  0  0  0
  -18.2204    3.3036  -15.8063 C   0  0  0  0  0  0  0  0  0  0  0  0
  -18.2397    2.3143  -14.8135 C   0  0  0  0  0  0  0  0  0  0  0  0
  -14.6465    3.1442  -17.0897 C   0  0  0  0  0  0  0  0  0  0  0  0
  -14.5356    2.5857  -18.3861 C   0  0  0  0  0  0  0  0  0  0  0  0
  -13.6320    3.0838  -19.3431 C   0  0  0  0  0  0  0  0  0  0  0  0
  -12.8620    4.2010  -19.0517 C   0  0  0  0  0  0  0  0  0  0  0  0
  -12.9320    4.6871  -17.7606 C   0  0  0  0  0  0  0  0  0  0  0  0
  -13.7081    4.1091  -16.7545 C   0  0  0  0  0  0  0  0  0  0  0  0
  -13.4595    4.8651  -15.4964 C   0  0  0  0  0  0  0  0  0  0  0  0
  -13.0344    6.1483  -15.9848 N   0  0  0  0  0  0  0  0  0  0  0  0
  -12.6236    6.0515  -17.3014 C   0  0  0  0  0  0  0  0  0  0  0  0
  -12.2978    6.9726  -18.0292 O   0  0  0  0  0  0  0  0  0  0  0  0
  -13.5981    6.9660  -15.7923 H   0  0  0  0  0  0  0  0  0  0  0  0
  -19.3980    2.0784  -14.0278 N   0  0  0  0  0  0  0  0  0  0  0  0
  -20.2727    1.0081  -14.1540 C   0  0  0  0  0  0  0  0  0  0  0  0
  -20.0616    0.0043  -14.8291 O   0  0  0  0  0  0  0  0  0  0  0  0
  -21.4547    1.2357  -13.4627 N   0  0  0  0  0  0  0  0  0  0  0  0
  -19.5570    2.6781  -13.2343 H   0  0  0  0  0  0  0  0  0  0  0  0
  -21.7306    2.1987  -13.3835 H   0  0  0  0  0  0  0  0  0  0  0  0
  -22.4933    0.2685  -13.4062 C   0  0  0  0  0  0  0  0  0  0  0  0
  -22.6176   -0.6300  -12.3525 C   0  0  0  0  0  0  0  0  0  0  0  0
  -23.6141   -1.6056  -12.3617 C   0  0  0  0  0  0  0  0  0  0  0  0
  -24.4779   -1.7107  -13.4485 C   0  0  0  0  0  0  0  0  0  0  0  0
  -24.3800   -0.8093  -14.5142 C   0  0  0  0  0  0  0  0  0  0  0  0
  -25.2813   -0.9387  -15.7026 C   0  0  0  0  0  0  0  0  0  0  0  0
  -23.3885    0.1918  -14.4794 C   0  0  0  0  0  0  0  0  0  0  0  0
  -15.3728    0.3544  -13.2352 C   0  0  0  0  0  0  0  0  0  0  0  0
  -16.8593    0.5939  -13.4651 C   0  0  0  0  0  0  0  0  0  0  0  0
 31 32  1  0  0  0
 32  1  1  0  0  0
  1  2  1  0  0  0
  1  6  2  0  0  0
  2  3  2  0  0  0
  3  7  1  0  0  0
  3  4  1  0  0  0
  7  8  1  0  0  0
  7 12  2  0  0  0
  8  9  2  0  0  0
  9 10  1  0  0  0
 10 11  2  0  0  0
 11 12  1  0  0  0
 11 15  1  0  0  0
 12 13  1  0  0  0
 13 14  1  0  0  0
 14 15  1  0  0  0
 14 17  1  0  0  0
 15 16  2  0  0  0
  4  5  2  0  0  0
  5  6  1  0  0  0
  6 18  1  0  0  0
 18 19  1  0  0  0
 18 22  1  0  0  0
 19 20  2  0  0  0
 19 21  1  0  0  0
 21 24  1  0  0  0
 21 23  1  0  0  0
 24 25  1  0  0  0
 24 30  2  0  0  0
 25 26  2  0  0  0
 26 27  1  0  0  0
 27 28  2  0  0  0
 28 29  1  0  0  0
 28 30  1  0  0  0
M  END
> <minimizedAffinity>
-8.44142

$$$$
