CHEMBL3353355


 40 46  0  0  0  0  0  0  0  0999 V2000
  -14.1411    0.5587  -13.9831 C   0  0  0  0  0  0  0  0  0  0  0  0
  -15.2982   -0.2379  -13.8964 C   0  0  0  0  0  0  0  0  0  0  0  0
  -16.5400    0.1662  -14.4130 C   0  0  0  0  0  0  0  0  0  0  0  0
  -16.6352    1.4117  -15.0559 C   0  0  0  0  0  0  0  0  0  0  0  0
  -17.6804    2.2167  -15.6120 C   0  0  0  0  0  0  0  0  0  0  0  0
  -17.1782    3.3358  -16.1619 N   0  0  0  0  0  0  0  0  0  0  0  0
  -15.8583    3.2613  -15.9231 N   0  0  0  0  0  0  0  0  0  0  0  0
  -15.4736    2.1589  -15.2116 C   0  0  0  0  0  0  0  0  0  0  0  0
  -14.2263    1.7661  -14.6994 C   0  0  0  0  0  0  0  0  0  0  0  0
  -15.2692    4.0178  -16.2514 H   0  0  0  0  0  0  0  0  0  0  0  0
  -13.1360   -3.0880  -17.0627 C   0  0  0  0  0  0  0  0  0  0  0  0
  -12.8884   -4.3722  -16.5359 C   0  0  0  0  0  0  0  0  0  0  0  0
  -12.3674   -4.5406  -15.2558 C   0  0  0  0  0  0  0  0  0  0  0  0
  -12.1344   -3.3963  -14.5260 C   0  0  0  0  0  0  0  0  0  0  0  0
  -12.4127   -2.0987  -14.9918 C   0  0  0  0  0  0  0  0  0  0  0  0
  -12.8811   -1.9425  -16.2918 C   0  0  0  0  0  0  0  0  0  0  0  0
  -12.0373   -1.1363  -13.8964 C   0  0  0  0  0  0  0  0  0  0  0  0
  -11.5501    0.2532  -14.1786 C   0  0  0  0  0  0  0  0  0  0  0  0
  -12.8401    0.0539  -13.4021 C   0  0  0  0  0  0  0  0  0  0  0  0
  -11.4111   -2.0243  -12.8369 C   0  0  0  0  0  0  0  0  0  0  0  0
  -10.8986   -1.6249  -11.7995 O   0  0  0  0  0  0  0  0  0  0  0  0
  -11.5567   -3.3264  -13.2582 N   0  0  0  0  0  0  0  0  0  0  0  0
  -11.2247   -4.1129  -12.7208 H   0  0  0  0  0  0  0  0  0  0  0  0
  -13.1908   -2.0845  -19.2231 C   0  0  0  0  0  0  0  0  0  0  0  0
  -13.6323   -3.1055  -18.3387 O   0  0  0  0  0  0  0  0  0  0  0  0
  -19.0932    1.9335  -15.5033 C   0  0  0  0  0  0  0  0  0  0  0  0
  -19.7452    1.7902  -14.3338 C   0  0  0  0  0  0  0  0  0  0  0  0
  -21.1202    1.2907  -14.1296 C   0  0  0  0  0  0  0  0  0  0  0  0
  -21.3474   -0.0654  -14.3984 C   0  0  0  0  0  0  0  0  0  0  0  0
  -22.6248   -0.6282  -14.2939 C   0  0  0  0  0  0  0  0  0  0  0  0
  -23.7202    0.1433  -13.8936 C   0  0  0  0  0  0  0  0  0  0  0  0
  -23.4906    1.4945  -13.5834 C   0  0  0  0  0  0  0  0  0  0  0  0
  -22.2058    2.0625  -13.6993 C   0  0  0  0  0  0  0  0  0  0  0  0
  -25.1157   -0.4475  -13.9344 C   0  0  0  0  0  0  0  0  0  0  0  0
  -25.4310   -1.6535  -13.1726 N   0  0  0  0  0  0  0  0  0  0  0  0
  -26.8439   -2.0134  -13.0505 C   0  0  0  0  0  0  0  0  0  0  0  0
  -27.5393   -1.4496  -11.8023 C   0  0  0  0  0  0  0  0  0  0  0  0
  -26.8144   -1.7487  -10.6024 O   0  0  0  0  0  0  0  0  0  0  0  0
  -25.4635   -1.2778  -10.6769 C   0  0  0  0  0  0  0  0  0  0  0  0
  -24.7314   -1.8483  -11.9001 C   0  0  0  0  0  0  0  0  0  0  0  0
 24 25  1  0  0  0
 25 11  1  0  0  0
 11 12  1  0  0  0
 11 16  2  0  0  0
 12 13  2  0  0  0
 13 14  1  0  0  0
 14 15  2  0  0  0
 14 22  1  0  0  0
 15 16  1  0  0  0
 17 15  1  0  0  0
 17 18  1  0  0  0
 17 19  1  0  0  0
 17 20  1  0  0  0
 18 19  1  0  0  0
 19  1  1  0  0  0
  1  2  1  0  0  0
  1  9  2  0  0  0
  2  3  2  0  0  0
  3  4  1  0  0  0
  4  5  1  0  0  0
  4  8  2  0  0  0
  5 26  1  0  0  0
  5  6  2  0  0  0
 26 27  2  0  0  0
 27 28  1  0  0  0
 28 29  1  0  0  0
 28 33  2  0  0  0
 29 30  2  0  0  0
 30 31  1  0  0  0
 31 34  1  0  0  0
 31 32  2  0  0  0
 34 35  1  0  0  0
 35 36  1  0  0  0
 35 40  1  0  0  0
 36 37  1  0  0  0
 37 38  1  0  0  0
 38 39  1  0  0  0
 39 40  1  0  0  0
 32 33  1  0  0  0
  6  7  1  0  0  0
  7  8  1  0  0  0
  7 10  1  0  0  0
  8  9  1  0  0  0
 20 21  2  0  0  0
 20 22  1  0  0  0
 22 23  1  0  0  0
M  END
> <minimizedAffinity>
-8.53695

$$$$
