CHEMBL383077


 31 34  0  0  0  0  0  0  0  0999 V2000
  -13.8795    0.7458  -16.2000 C   0  0  0  0  0  0  0  0  0  0  0  0
  -13.3763    1.3704  -17.2060 N   0  0  0  0  0  0  0  0  0  0  0  0
  -12.0163    1.5556  -17.2008 C   0  0  0  0  0  0  0  0  0  0  0  0
  -11.1777    1.1402  -16.2968 N   0  0  0  0  0  0  0  0  0  0  0  0
  -11.7438    0.4901  -15.2731 N   0  0  0  0  0  0  0  0  0  0  0  0
  -11.0927   -0.0628  -14.2333 C   0  0  0  0  0  0  0  0  0  0  0  0
  -11.9982   -0.6486  -13.3851 C   0  0  0  0  0  0  0  0  0  0  0  0
  -13.3099   -0.4410  -13.9521 C   0  0  0  0  0  0  0  0  0  0  0  0
  -14.6762   -0.8479  -13.5034 C   0  0  0  0  0  0  0  0  0  0  0  0
  -13.0774    0.2630  -15.1298 C   0  0  0  0  0  0  0  0  0  0  0  0
  -15.2195    0.4490  -16.0487 O   0  0  0  0  0  0  0  0  0  0  0  0
  -21.8514    3.2047  -14.5778 C   0  0  0  0  0  0  0  0  0  0  0  0
  -20.4075    2.8707  -14.6196 C   0  0  0  0  0  0  0  0  0  0  0  0
  -19.7506    1.6761  -14.4050 C   0  0  0  0  0  0  0  0  0  0  0  0
  -18.4122    1.8329  -14.8602 C   0  0  0  0  0  0  0  0  0  0  0  0
  -17.3350    0.9526  -15.0679 C   0  0  0  0  0  0  0  0  0  0  0  0
  -17.4648   -0.3539  -14.7871 F   0  0  0  0  0  0  0  0  0  0  0  0
  -16.1623    1.4286  -15.6598 C   0  0  0  0  0  0  0  0  0  0  0  0
  -16.0322    2.7706  -16.0202 C   0  0  0  0  0  0  0  0  0  0  0  0
  -17.0740    3.6754  -15.7747 C   0  0  0  0  0  0  0  0  0  0  0  0
  -18.2578    3.1721  -15.2231 C   0  0  0  0  0  0  0  0  0  0  0  0
  -19.4575    3.7993  -14.9696 N   0  0  0  0  0  0  0  0  0  0  0  0
  -19.6371    4.7785  -15.1453 H   0  0  0  0  0  0  0  0  0  0  0  0
  -11.6332   -1.3051  -12.2336 O   0  0  0  0  0  0  0  0  0  0  0  0
  -11.6690   -2.7430  -12.4112 C   0  0  0  0  0  0  0  0  0  0  0  0
  -12.4015   -3.4332  -11.2719 C   0  0  0  0  0  0  0  0  0  0  0  0
  -13.6700   -4.0972  -11.8060 C   0  0  0  0  0  0  0  0  0  0  0  0
  -15.0567   -3.9307  -10.7022 S   0  0  0  0  0  0  0  0  0  0  0  0
  -16.4418   -4.4776  -11.6760 C   0  0  0  0  0  0  0  0  0  0  0  0
  -14.8850   -4.8758   -9.6140 O   0  0  0  0  0  0  0  0  0  0  0  0
  -15.2446   -2.5196  -10.4438 O   0  0  0  0  0  0  0  0  0  0  0  0
 12 13  1  0  0  0
 13 14  2  0  0  0
 13 22  1  0  0  0
 14 15  1  0  0  0
 15 16  1  0  0  0
 15 21  2  0  0  0
 16 17  1  0  0  0
 16 18  2  0  0  0
 18 11  1  0  0  0
 18 19  1  0  0  0
 11  1  1  0  0  0
  1  2  2  0  0  0
  1 10  1  0  0  0
  2  3  1  0  0  0
  3  4  2  0  0  0
  4  5  1  0  0  0
  5  6  1  0  0  0
  5 10  1  0  0  0
  6  7  2  0  0  0
  7 24  1  0  0  0
  7  8  1  0  0  0
 24 25  1  0  0  0
 25 26  1  0  0  0
 26 27  1  0  0  0
 27 28  1  0  0  0
 28 29  1  0  0  0
 28 30  2  0  0  0
 28 31  2  0  0  0
  8  9  1  0  0  0
  8 10  2  0  0  0
 19 20  2  0  0  0
 20 21  1  0  0  0
 21 22  1  0  0  0
 22 23  1  0  0  0
M  END
> <minimizedAffinity>
-7.62231

$$$$
