CHEMBL3668018


 34 39  0  0  0  0  0  0  0  0999 V2000
  -14.2665    3.4285  -16.8064 C   0  0  0  0  0  0  0  0  0  0  0  0
  -14.0074    2.0764  -17.1249 C   0  0  0  0  0  0  0  0  0  0  0  0
  -15.0026    1.2517  -16.8092 N   0  0  0  0  0  0  0  0  0  0  0  0
  -15.9675    2.0660  -16.3313 N   0  0  0  0  0  0  0  0  0  0  0  0
  -17.2217    1.6882  -15.8728 C   0  0  0  0  0  0  0  0  0  0  0  0
  -18.0990    2.6152  -15.4576 C   0  0  0  0  0  0  0  0  0  0  0  0
  -17.6132    4.0238  -15.5446 C   0  0  0  0  0  0  0  0  0  0  0  0
  -16.4369    4.4083  -15.9450 N   0  0  0  0  0  0  0  0  0  0  0  0
  -15.5768    3.4128  -16.3453 C   0  0  0  0  0  0  0  0  0  0  0  0
  -14.0443    7.7147  -19.8146 C   0  0  0  0  0  0  0  0  0  0  0  0
  -14.8864    6.6194  -19.8458 C   0  0  0  0  0  0  0  0  0  0  0  0
  -14.6862    5.5761  -18.9429 C   0  0  0  0  0  0  0  0  0  0  0  0
  -13.6678    5.6185  -17.9508 C   0  0  0  0  0  0  0  0  0  0  0  0
  -13.4236    4.6199  -16.9562 C   0  0  0  0  0  0  0  0  0  0  0  0
  -12.3477    4.7935  -16.0791 C   0  0  0  0  0  0  0  0  0  0  0  0
  -11.5608    5.9192  -16.1995 C   0  0  0  0  0  0  0  0  0  0  0  0
  -11.7770    6.8874  -17.1058 N   0  0  0  0  0  0  0  0  0  0  0  0
  -12.8033    6.7395  -17.9555 C   0  0  0  0  0  0  0  0  0  0  0  0
  -13.0078    7.7570  -18.8829 C   0  0  0  0  0  0  0  0  0  0  0  0
  -19.4255    2.2725  -14.9639 C   0  0  0  0  0  0  0  0  0  0  0  0
  -20.2957    3.2827  -14.5414 C   0  0  0  0  0  0  0  0  0  0  0  0
  -21.5732    2.9591  -14.0782 C   0  0  0  0  0  0  0  0  0  0  0  0
  -21.9907    1.6274  -14.0497 C   0  0  0  0  0  0  0  0  0  0  0  0
  -21.1079    0.6171  -14.4327 C   0  0  0  0  0  0  0  0  0  0  0  0
  -19.8297    0.9374  -14.8949 C   0  0  0  0  0  0  0  0  0  0  0  0
  -23.2333    1.2057  -13.6581 O   0  0  0  0  0  0  0  0  0  0  0  0
  -23.2401    0.3517  -12.5069 C   0  0  0  0  0  0  0  0  0  0  0  0
  -24.6913   -0.0416  -12.1904 C   0  0  0  0  0  0  0  0  0  0  0  0
  -24.9291   -1.4984  -12.1202 N   0  0  0  0  0  0  0  0  0  0  0  0
  -25.2612   -2.0415  -13.4608 C   0  0  0  0  0  0  0  0  0  0  0  0
  -26.6741   -1.6709  -13.9570 C   0  0  0  0  0  0  0  0  0  0  0  0
  -27.6893   -2.0174  -13.0050 O   0  0  0  0  0  0  0  0  0  0  0  0
  -27.4166   -1.4392  -11.7231 C   0  0  0  0  0  0  0  0  0  0  0  0
  -26.0366   -1.8801  -11.2135 C   0  0  0  0  0  0  0  0  0  0  0  0
 10 11  1  0  0  0
 10 19  2  0  0  0
 11 12  2  0  0  0
 12 13  1  0  0  0
 13 14  1  0  0  0
 13 18  2  0  0  0
 14  1  1  0  0  0
 14 15  2  0  0  0
  1  2  1  0  0  0
  1  9  2  0  0  0
  2  3  2  0  0  0
  3  4  1  0  0  0
  4  5  1  0  0  0
  4  9  1  0  0  0
  5  6  2  0  0  0
  6 20  1  0  0  0
  6  7  1  0  0  0
 20 21  1  0  0  0
 20 25  2  0  0  0
 21 22  2  0  0  0
 22 23  1  0  0  0
 23 26  1  0  0  0
 23 24  2  0  0  0
 26 27  1  0  0  0
 27 28  1  0  0  0
 28 29  1  0  0  0
 29 30  1  0  0  0
 29 34  1  0  0  0
 30 31  1  0  0  0
 31 32  1  0  0  0
 32 33  1  0  0  0
 33 34  1  0  0  0
 24 25  1  0  0  0
  7  8  2  0  0  0
  8  9  1  0  0  0
 15 16  1  0  0  0
 16 17  2  0  0  0
 17 18  1  0  0  0
 18 19  1  0  0  0
M  END
> <minimizedAffinity>
-9.24792

$$$$
