CHEMBL3628806


 35 38  0  0  0  0  0  0  0  0999 V2000
  -28.5512   10.8267  -15.6023 C   0  0  0  0  0  0  0  0  0  0  0  0
  -28.1755    9.8458  -16.5177 C   0  0  0  0  0  0  0  0  0  0  0  0
  -26.8360    9.6722  -16.8496 C   0  0  0  0  0  0  0  0  0  0  0  0
  -25.8401   10.4940  -16.3074 C   0  0  0  0  0  0  0  0  0  0  0  0
  -26.2473   11.5522  -15.4782 C   0  0  0  0  0  0  0  0  0  0  0  0
  -25.0828   12.6575  -14.8218 Cl  0  0  0  0  0  0  0  0  0  0  0  0
  -27.5900   11.7245  -15.1216 C   0  0  0  0  0  0  0  0  0  0  0  0
  -24.4557   10.2443  -16.5478 N   0  0  0  0  0  0  0  0  0  0  0  0
  -23.6527   10.9790  -17.4024 C   0  0  0  0  0  0  0  0  0  0  0  0
  -24.0239   11.9637  -18.0365 O   0  0  0  0  0  0  0  0  0  0  0  0
  -22.3766   10.4550  -17.5443 N   0  0  0  0  0  0  0  0  0  0  0  0
  -24.0847    9.3872  -16.1602 H   0  0  0  0  0  0  0  0  0  0  0  0
  -22.3239    9.4497  -17.4769 H   0  0  0  0  0  0  0  0  0  0  0  0
  -21.4540   11.0721  -18.4294 C   0  0  0  0  0  0  0  0  0  0  0  0
  -20.1217   11.1969  -18.0299 C   0  0  0  0  0  0  0  0  0  0  0  0
  -19.1680   11.7015  -18.9181 C   0  0  0  0  0  0  0  0  0  0  0  0
  -19.5493   12.1340  -20.1885 C   0  0  0  0  0  0  0  0  0  0  0  0
  -20.8865   12.0515  -20.5704 C   0  0  0  0  0  0  0  0  0  0  0  0
  -21.4086   12.6589  -22.2841 Br  0  0  0  0  0  0  0  0  0  0  0  0
  -21.8381   11.5170  -19.7028 C   0  0  0  0  0  0  0  0  0  0  0  0
  -29.8603   10.9379  -15.1754 O   0  0  0  0  0  0  0  0  0  0  0  0
  -33.7753   10.7478  -11.8988 C   0  0  0  0  0  0  0  0  0  0  0  0
  -32.6230   11.2357  -11.2620 C   0  0  0  0  0  0  0  0  0  0  0  0
  -31.4044   11.3624  -11.9076 C   0  0  0  0  0  0  0  0  0  0  0  0
  -30.3591   11.7688  -11.1806 N   0  0  0  0  0  0  0  0  0  0  0  0
  -29.1881   11.8793  -11.8122 C   0  0  0  0  0  0  0  0  0  0  0  0
  -28.9807   11.6508  -13.1067 N   0  0  0  0  0  0  0  0  0  0  0  0
  -30.0457   11.2133  -13.8137 C   0  0  0  0  0  0  0  0  0  0  0  0
  -31.3222   11.0414  -13.2628 C   0  0  0  0  0  0  0  0  0  0  0  0
  -32.4852   10.5887  -13.9338 C   0  0  0  0  0  0  0  0  0  0  0  0
  -33.7167   10.4610  -13.2680 C   0  0  0  0  0  0  0  0  0  0  0  0
  -35.7188   11.7091  -10.9234 C   0  0  0  0  0  0  0  0  0  0  0  0
  -34.9432   10.5450  -11.2100 O   0  0  0  0  0  0  0  0  0  0  0  0
  -34.7143   10.0343  -14.1018 O   0  0  0  0  0  0  0  0  0  0  0  0
  -35.4545   10.9729  -14.8688 C   0  0  0  0  0  0  0  0  0  0  0  0
 32 33  1  0  0  0
 33 22  1  0  0  0
 22 23  1  0  0  0
 22 31  2  0  0  0
 23 24  2  0  0  0
 24 25  1  0  0  0
 24 29  1  0  0  0
 25 26  2  0  0  0
 26 27  1  0  0  0
 27 28  2  0  0  0
 28 21  1  0  0  0
 28 29  1  0  0  0
 21  1  1  0  0  0
  1  2  1  0  0  0
  1  7  2  0  0  0
  2  3  2  0  0  0
  3  4  1  0  0  0
  4  8  1  0  0  0
  4  5  2  0  0  0
  8  9  1  0  0  0
  8 12  1  0  0  0
  9 10  2  0  0  0
  9 11  1  0  0  0
 11 14  1  0  0  0
 11 13  1  0  0  0
 14 15  1  0  0  0
 14 20  2  0  0  0
 15 16  2  0  0  0
 16 17  1  0  0  0
 17 18  2  0  0  0
 18 19  1  0  0  0
 18 20  1  0  0  0
  5  6  1  0  0  0
  5  7  1  0  0  0
 29 30  2  0  0  0
 30 31  1  0  0  0
 31 34  1  0  0  0
 34 35  1  0  0  0
M  END
> <minimizedAffinity>
-6.59480

$$$$
