CHEMBL1683648


 29 31  0  0  0  0  0  0  0  0999 V2000
  -30.1827    0.7670   -5.4514 C   0  0  0  0  0  0  0  0  0  0  0  0
  -29.0331   -0.0867   -4.9712 C   0  0  0  0  0  0  0  0  0  0  0  0
  -27.8109    0.0358   -5.5418 C   0  0  0  0  0  0  0  0  0  0  0  0
  -27.6216   -0.7040   -6.8713 C   0  0  0  0  0  0  0  0  0  0  0  0
  -28.7018   -1.7899   -7.0302 C   0  0  0  0  0  0  0  0  0  0  0  0
  -28.9458   -2.5052   -5.6674 C   0  0  0  0  0  0  0  0  0  0  0  0
  -29.4604   -1.5001   -4.6063 C   0  0  0  0  0  0  0  0  0  0  0  0
  -29.7945   -3.7404   -5.8548 C   0  0  0  0  0  0  0  0  0  0  0  0
  -30.0893   -4.6055   -4.8004 C   0  0  0  0  0  0  0  0  0  0  0  0
  -29.8760   -4.2060   -3.5133 O   0  0  0  0  0  0  0  0  0  0  0  0
  -30.4455   -5.9368   -5.0450 C   0  0  0  0  0  0  0  0  0  0  0  0
  -30.5777   -6.3880   -6.3696 C   0  0  0  0  0  0  0  0  0  0  0  0
  -30.6342   -5.4235   -7.3830 C   0  0  0  0  0  0  0  0  0  0  0  0
  -30.1112   -4.1649   -7.1410 C   0  0  0  0  0  0  0  0  0  0  0  0
  -29.7581   -3.5045   -8.2893 O   0  0  0  0  0  0  0  0  0  0  0  0
  -28.5011   -2.8044   -8.1702 C   0  0  0  0  0  0  0  0  0  0  0  0
  -27.3474   -3.8171   -8.0103 C   0  0  0  0  0  0  0  0  0  0  0  0
  -28.3070   -2.1068   -9.5232 C   0  0  0  0  0  0  0  0  0  0  0  0
  -30.6792   -4.4455   -3.0190 H   0  0  0  0  0  0  0  0  0  0  0  0
  -30.2098   -7.8201   -6.8050 C   0  0  0  0  0  0  0  0  0  0  0  0
  -29.2284   -7.8572   -7.9886 C   0  0  0  0  0  0  0  0  0  0  0  0
  -29.5110   -8.6124   -5.6742 C   0  0  0  0  0  0  0  0  0  0  0  0
  -31.5856   -8.5448   -7.0889 C   0  0  0  0  0  0  0  0  0  0  0  0
  -31.6996   -9.5269   -8.2750 C   0  0  0  0  0  0  0  0  0  0  0  0
  -31.3134  -10.9779   -7.9970 C   0  0  0  0  0  0  0  0  0  0  0  0
  -30.2926  -11.5406   -8.9860 C   0  0  0  0  0  0  0  0  0  0  0  0
  -28.8810  -11.4856   -8.4053 C   0  0  0  0  0  0  0  0  0  0  0  0
  -27.8639  -11.0600   -9.4452 C   0  0  0  0  0  0  0  0  0  0  0  0
  -28.7969  -10.4632  -11.0473 Br  0  0  0  0  0  0  0  0  0  0  0  0
  1  2  1  0  0  0
  2  3  2  0  0  0
  2  7  1  0  0  0
  3  4  1  0  0  0
  4  5  1  0  0  0
  5  6  1  0  0  0
  5 16  1  0  0  0
  6  7  1  0  0  0
  6  8  1  0  0  0
  8  9  1  0  0  0
  8 14  2  0  0  0
  9 10  1  0  0  0
  9 11  2  0  0  0
 10 19  1  0  0  0
 11 12  1  0  0  0
 12 20  1  0  0  0
 12 13  2  0  0  0
 20 21  1  0  0  0
 20 22  1  0  0  0
 20 23  1  0  0  0
 23 24  1  0  0  0
 24 25  1  0  0  0
 25 26  1  0  0  0
 26 27  1  0  0  0
 27 28  1  0  0  0
 28 29  1  0  0  0
 13 14  1  0  0  0
 14 15  1  0  0  0
 15 16  1  0  0  0
 16 17  1  0  0  0
 16 18  1  0  0  0
M  END
> <minimizedAffinity>
-7.25042

$$$$
