CHEMBL513680


 31 35  0  0  0  0  0  0  0  0999 V2000
  -27.5563   -1.3360  -11.6369 C   0  0  0  0  0  0  0  0  0  0  0  0
  -28.5393   -1.9696  -12.4342 C   0  0  0  0  0  0  0  0  0  0  0  0
  -28.2815   -2.3377  -13.7529 C   0  0  0  0  0  0  0  0  0  0  0  0
  -27.0424   -2.0585  -14.3035 C   0  0  0  0  0  0  0  0  0  0  0  0
  -26.0479   -1.4804  -13.5095 C   0  0  0  0  0  0  0  0  0  0  0  0
  -26.2480   -1.1599  -12.1453 C   0  0  0  0  0  0  0  0  0  0  0  0
  -28.0412   -0.9274  -10.2817 C   0  0  0  0  0  0  0  0  0  0  0  0
  -28.6154    0.1639  -10.1810 O   0  0  0  0  0  0  0  0  0  0  0  0
  -28.4641   -4.9551   -7.7127 C   0  0  0  0  0  0  0  0  0  0  0  0
  -28.0743   -3.5854   -7.9599 N   0  0  0  0  0  0  0  0  0  0  0  0
  -27.9193   -3.1658   -9.2287 N   0  0  0  0  0  0  0  0  0  0  0  0
  -27.8877   -1.8245   -9.1325 C   0  0  0  0  0  0  0  0  0  0  0  0
  -27.8282   -1.4149   -7.7619 C   0  0  0  0  0  0  0  0  0  0  0  0
  -27.7652   -0.1807   -7.0837 C   0  0  0  0  0  0  0  0  0  0  0  0
  -27.8715   -0.1628   -5.6894 C   0  0  0  0  0  0  0  0  0  0  0  0
  -28.0728   -1.3433   -4.9768 C   0  0  0  0  0  0  0  0  0  0  0  0
  -28.1564   -2.5775   -5.6304 C   0  0  0  0  0  0  0  0  0  0  0  0
  -28.0103   -2.5823   -7.0244 C   0  0  0  0  0  0  0  0  0  0  0  0
  -25.1090   -0.7417  -11.4652 N   0  0  0  0  0  0  0  0  0  0  0  0
  -25.1494    0.1792  -11.0441 H   0  0  0  0  0  0  0  0  0  0  0  0
  -23.7610   -1.2186  -11.7148 C   0  0  0  0  0  0  0  0  0  0  0  0
  -23.0341   -0.3140  -12.6692 C   0  0  0  0  0  0  0  0  0  0  0  0
  -22.1906   -0.8557  -13.6544 C   0  0  0  0  0  0  0  0  0  0  0  0
  -21.4985   -0.0295  -14.5455 C   0  0  0  0  0  0  0  0  0  0  0  0
  -21.6863    1.3600  -14.4534 C   0  0  0  0  0  0  0  0  0  0  0  0
  -21.1765    2.5014  -15.0996 C   0  0  0  0  0  0  0  0  0  0  0  0
  -21.7378    3.6370  -14.6693 N   0  0  0  0  0  0  0  0  0  0  0  0
  -22.6089    3.2170  -13.7350 N   0  0  0  0  0  0  0  0  0  0  0  0
  -22.5762    1.8672  -13.5108 C   0  0  0  0  0  0  0  0  0  0  0  0
  -23.2502    1.0698  -12.5896 C   0  0  0  0  0  0  0  0  0  0  0  0
  -23.2092    3.8986  -13.2873 H   0  0  0  0  0  0  0  0  0  0  0  0
  9 10  1  0  0  0
 10 11  1  0  0  0
 10 18  1  0  0  0
 11 12  2  0  0  0
 12  7  1  0  0  0
 12 13  1  0  0  0
  7  8  2  0  0  0
  7  1  1  0  0  0
  1  2  1  0  0  0
  1  6  2  0  0  0
  2  3  2  0  0  0
  3  4  1  0  0  0
  4  5  2  0  0  0
  5  6  1  0  0  0
  6 19  1  0  0  0
 19 21  1  0  0  0
 19 20  1  0  0  0
 21 22  1  0  0  0
 22 23  1  0  0  0
 22 30  2  0  0  0
 23 24  2  0  0  0
 24 25  1  0  0  0
 25 26  1  0  0  0
 25 29  2  0  0  0
 26 27  2  0  0  0
 27 28  1  0  0  0
 28 29  1  0  0  0
 28 31  1  0  0  0
 29 30  1  0  0  0
 13 14  1  0  0  0
 13 18  2  0  0  0
 14 15  2  0  0  0
 15 16  1  0  0  0
 16 17  2  0  0  0
 17 18  1  0  0  0
M  END
> <minimizedAffinity>
-8.49015

$$$$
