CHEMBL4558790


 30 32  0  0  0  0  0  0  0  0999 V2000
  -16.3195    1.3047  -14.6315 C   0  0  0  0  0  0  0  0  0  0  0  0
  -15.0827    1.7471  -14.9149 N   0  0  0  0  0  0  0  0  0  0  0  0
  -14.0639    1.1626  -14.2748 C   0  0  0  0  0  0  0  0  0  0  0  0
  -14.2392    0.1669  -13.3522 C   0  0  0  0  0  0  0  0  0  0  0  0
  -15.5422   -0.2363  -13.1188 C   0  0  0  0  0  0  0  0  0  0  0  0
  -16.5960    0.3189  -13.7633 N   0  0  0  0  0  0  0  0  0  0  0  0
  -15.7210   -1.3041  -12.2057 N   0  0  0  0  0  0  0  0  0  0  0  0
  -16.3199   -1.0443  -11.4306 H   0  0  0  0  0  0  0  0  0  0  0  0
  -15.7049   -2.6775  -12.4936 C   0  0  0  0  0  0  0  0  0  0  0  0
  -16.1108   -3.6186  -11.5393 C   0  0  0  0  0  0  0  0  0  0  0  0
  -16.1022   -4.9856  -11.8227 C   0  0  0  0  0  0  0  0  0  0  0  0
  -15.6524   -5.4317  -13.0683 C   0  0  0  0  0  0  0  0  0  0  0  0
  -15.2699   -4.5006  -14.0403 C   0  0  0  0  0  0  0  0  0  0  0  0
  -15.3014   -3.1311  -13.7549 C   0  0  0  0  0  0  0  0  0  0  0  0
  -15.6018   -6.8743  -13.4173 C   0  0  0  0  0  0  0  0  0  0  0  0
  -15.1275   -7.7180  -12.6761 O   0  0  0  0  0  0  0  0  0  0  0  0
  -16.1823   -7.1737  -14.5983 O   0  0  0  0  0  0  0  0  0  0  0  0
  -16.6589   -6.4409  -15.0249 H   0  0  0  0  0  0  0  0  0  0  0  0
  -17.6008    2.1310  -15.5316 S   0  0  0  0  0  0  0  0  0  0  0  0
  -18.6185    2.9143  -14.2346 C   0  0  0  0  0  0  0  0  0  0  0  0
  -20.0530    3.0817  -14.7502 C   0  0  0  0  0  0  0  0  0  0  0  0
  -20.4492    4.0463  -15.4051 O   0  0  0  0  0  0  0  0  0  0  0  0
  -23.0960    0.1801  -13.8357 C   0  0  0  0  0  0  0  0  0  0  0  0
  -21.8813   -0.2439  -14.3922 C   0  0  0  0  0  0  0  0  0  0  0  0
  -20.8676    0.6804  -14.6850 C   0  0  0  0  0  0  0  0  0  0  0  0
  -21.0697    2.0392  -14.4262 C   0  0  0  0  0  0  0  0  0  0  0  0
  -22.2956    2.4615  -13.8844 C   0  0  0  0  0  0  0  0  0  0  0  0
  -23.3016    1.5378  -13.5838 C   0  0  0  0  0  0  0  0  0  0  0  0
  -24.9577   -1.5462  -13.2957 N   0  0  0  0  0  0  0  0  0  0  0  0
  -24.1277   -0.7735  -13.5390 C   0  0  0  0  0  0  0  0  0  0  0  0
 29 30  3  0  0  0
 30 23  1  0  0  0
 23 24  1  0  0  0
 23 28  2  0  0  0
 24 25  2  0  0  0
 25 26  1  0  0  0
 26 21  1  0  0  0
 26 27  2  0  0  0
 21 22  2  0  0  0
 21 20  1  0  0  0
 20 19  1  0  0  0
 19  1  1  0  0  0
  1  2  1  0  0  0
  1  6  2  0  0  0
  2  3  2  0  0  0
  3  4  1  0  0  0
  4  5  2  0  0  0
  5  7  1  0  0  0
  5  6  1  0  0  0
  7  9  1  0  0  0
  7  8  1  0  0  0
  9 10  1  0  0  0
  9 14  2  0  0  0
 10 11  2  0  0  0
 11 12  1  0  0  0
 12 15  1  0  0  0
 12 13  2  0  0  0
 15 16  2  0  0  0
 15 17  1  0  0  0
 17 18  1  0  0  0
 13 14  1  0  0  0
 27 28  1  0  0  0
M  END
> <minimizedAffinity>
-8.96060

$$$$
