CHEMBL3975807


 29 31  0  0  0  0  0  0  0  0999 V2000
  -23.0771   -0.6769  -13.5807 C   0  0  0  0  0  0  0  0  0  0  0  0
  -23.2140   -0.4088  -12.2174 C   0  0  0  0  0  0  0  0  0  0  0  0
  -24.4157   -0.6822  -11.5552 C   0  0  0  0  0  0  0  0  0  0  0  0
  -25.5157   -1.1689  -12.2685 C   0  0  0  0  0  0  0  0  0  0  0  0
  -25.4129   -1.3208  -13.6591 C   0  0  0  0  0  0  0  0  0  0  0  0
  -24.1964   -1.0846  -14.3082 C   0  0  0  0  0  0  0  0  0  0  0  0
  -26.8059   -1.5195  -11.6094 C   0  0  0  0  0  0  0  0  0  0  0  0
  -27.8095   -1.7077  -12.2911 O   0  0  0  0  0  0  0  0  0  0  0  0
  -26.8133   -1.6827  -10.1321 C   0  0  0  0  0  0  0  0  0  0  0  0
  -27.9739   -1.8202   -9.4683 C   0  0  0  0  0  0  0  0  0  0  0  0
  -27.9990   -1.9438   -8.0097 C   0  0  0  0  0  0  0  0  0  0  0  0
  -27.6520   -0.8621   -7.1921 C   0  0  0  0  0  0  0  0  0  0  0  0
  -27.7102   -0.9852   -5.7998 C   0  0  0  0  0  0  0  0  0  0  0  0
  -28.1214   -2.1851   -5.2199 C   0  0  0  0  0  0  0  0  0  0  0  0
  -28.4683   -3.2607   -6.0358 C   0  0  0  0  0  0  0  0  0  0  0  0
  -29.0429   -4.8834   -5.2539 Br  0  0  0  0  0  0  0  0  0  0  0  0
  -28.4052   -3.1479   -7.4255 C   0  0  0  0  0  0  0  0  0  0  0  0
  -21.9068   -0.5126  -14.2906 O   0  0  0  0  0  0  0  0  0  0  0  0
  -19.6674    2.3155  -15.0253 C   0  0  0  0  0  0  0  0  0  0  0  0
  -20.1048    1.0000  -14.9813 C   0  0  0  0  0  0  0  0  0  0  0  0
  -21.3659    0.7453  -14.4514 C   0  0  0  0  0  0  0  0  0  0  0  0
  -22.1806    1.8159  -14.0931 C   0  0  0  0  0  0  0  0  0  0  0  0
  -21.6729    3.1013  -14.2104 C   0  0  0  0  0  0  0  0  0  0  0  0
  -20.4247    3.3824  -14.6453 N   0  0  0  0  0  0  0  0  0  0  0  0
  -16.5999    4.3587  -15.8871 C   0  0  0  0  0  0  0  0  0  0  0  0
  -17.8964    3.9258  -15.4392 N   0  0  0  0  0  0  0  0  0  0  0  0
  -18.2706    2.6007  -15.4846 C   0  0  0  0  0  0  0  0  0  0  0  0
  -17.5287    1.6996  -15.8600 O   0  0  0  0  0  0  0  0  0  0  0  0
  -18.5778    4.5871  -15.0769 H   0  0  0  0  0  0  0  0  0  0  0  0
 25 26  1  0  0  0
 26 27  1  0  0  0
 26 29  1  0  0  0
 27 28  2  0  0  0
 27 19  1  0  0  0
 19 20  1  0  0  0
 19 24  2  0  0  0
 20 21  2  0  0  0
 21 18  1  0  0  0
 21 22  1  0  0  0
 18  1  1  0  0  0
  1  2  1  0  0  0
  1  6  2  0  0  0
  2  3  2  0  0  0
  3  4  1  0  0  0
  4  7  1  0  0  0
  4  5  2  0  0  0
  7  8  2  0  0  0
  7  9  1  0  0  0
  9 10  2  0  0  0
 10 11  1  0  0  0
 11 12  1  0  0  0
 11 17  2  0  0  0
 12 13  2  0  0  0
 13 14  1  0  0  0
 14 15  2  0  0  0
 15 16  1  0  0  0
 15 17  1  0  0  0
  5  6  1  0  0  0
 22 23  2  0  0  0
 23 24  1  0  0  0
M  END
> <minimizedAffinity>
-10.89196

$$$$
