CHEMBL3974693


 38 42  0  0  0  0  0  0  0  0999 V2000
  -28.6792   -9.7275   -5.3885 N   0  0  0  0  0  0  0  0  0  0  0  0
  -28.6688   -8.3166   -5.0435 C   0  0  0  0  0  0  0  0  0  0  0  0
  -29.0514   -8.0380   -3.7302 C   0  0  0  0  0  0  0  0  0  0  0  0
  -29.5791   -6.8033   -3.4041 C   0  0  0  0  0  0  0  0  0  0  0  0
  -29.5827   -5.7636   -4.2910 C   0  0  0  0  0  0  0  0  0  0  0  0
  -30.2629   -4.6879   -3.8804 N   0  0  0  0  0  0  0  0  0  0  0  0
  -30.1478   -3.5831   -4.6248 C   0  0  0  0  0  0  0  0  0  0  0  0
  -29.3143   -3.5231   -5.7222 C   0  0  0  0  0  0  0  0  0  0  0  0
  -28.7134   -4.6591   -6.2259 N   0  0  0  0  0  0  0  0  0  0  0  0
  -28.8987   -5.8513   -5.5293 C   0  0  0  0  0  0  0  0  0  0  0  0
  -28.4926   -7.2019   -5.9129 C   0  0  0  0  0  0  0  0  0  0  0  0
  -28.9825   -2.1868   -6.2048 C   0  0  0  0  0  0  0  0  0  0  0  0
  -27.9095   -1.7702   -7.0357 C   0  0  0  0  0  0  0  0  0  0  0  0
  -27.7847   -0.4383   -7.0994 N   0  0  0  0  0  0  0  0  0  0  0  0
  -28.7797    0.0032   -6.3117 N   0  0  0  0  0  0  0  0  0  0  0  0
  -29.2024    1.3831   -6.3720 C   0  0  0  0  0  0  0  0  0  0  0  0
  -29.3960   -1.0025   -5.6163 C   0  0  0  0  0  0  0  0  0  0  0  0
  -31.0785  -11.2809   -7.8435 C   0  0  0  0  0  0  0  0  0  0  0  0
  -30.2075  -11.6434   -8.8673 C   0  0  0  0  0  0  0  0  0  0  0  0
  -28.8492  -11.3390   -8.7723 C   0  0  0  0  0  0  0  0  0  0  0  0
  -28.3748  -10.6692   -7.6241 C   0  0  0  0  0  0  0  0  0  0  0  0
  -29.2291  -10.3000   -6.5622 C   0  0  0  0  0  0  0  0  0  0  0  0
  -30.5843  -10.6319   -6.7005 C   0  0  0  0  0  0  0  0  0  0  0  0
  -33.1519  -11.1231   -6.6741 C   0  0  0  0  0  0  0  0  0  0  0  0
  -32.4294  -11.5192   -7.8364 O   0  0  0  0  0  0  0  0  0  0  0  0
  -27.9105  -11.6612   -9.7301 O   0  0  0  0  0  0  0  0  0  0  0  0
  -26.9298  -10.6482  -10.0271 C   0  0  0  0  0  0  0  0  0  0  0  0
  -27.3360   -9.8801  -11.2835 C   0  0  0  0  0  0  0  0  0  0  0  0
  -26.5396   -8.7099  -11.4390 O   0  0  0  0  0  0  0  0  0  0  0  0
  -26.6369   -8.2049  -10.6116 H   0  0  0  0  0  0  0  0  0  0  0  0
  -28.8371  -10.4871   -4.0854 C   0  0  0  0  0  0  0  0  0  0  0  0
  -27.7650  -11.5064   -3.6647 C   0  0  0  0  0  0  0  0  0  0  0  0
  -26.3578  -11.4097   -4.2910 C   0  0  0  0  0  0  0  0  0  0  0  0
  -25.5170  -10.4157   -3.5744 N   0  0  0  0  0  0  0  0  0  0  0  0
  -24.9727   -9.3611   -4.4519 C   0  0  0  0  0  0  0  0  0  0  0  0
  -23.6971   -9.9587   -5.0183 C   0  0  0  0  0  0  0  0  0  0  0  0
  -23.1500  -10.7803   -3.8659 C   0  0  0  0  0  0  0  0  0  0  0  0
  -24.3291  -10.9767   -2.9208 C   0  0  0  0  0  0  0  0  0  0  0  0
 24 25  1  0  0  0
 25 18  1  0  0  0
 18 19  1  0  0  0
 18 23  2  0  0  0
 19 20  2  0  0  0
 20 26  1  0  0  0
 20 21  1  0  0  0
 26 27  1  0  0  0
 27 28  1  0  0  0
 28 29  1  0  0  0
 29 30  1  0  0  0
 21 22  2  0  0  0
 22  1  1  0  0  0
 22 23  1  0  0  0
  1 31  1  0  0  0
  1  2  1  0  0  0
 31 32  1  0  0  0
 32 33  1  0  0  0
 33 34  1  0  0  0
 34 35  1  0  0  0
 34 38  1  0  0  0
 35 36  1  0  0  0
 36 37  1  0  0  0
 37 38  1  0  0  0
  2  3  1  0  0  0
  2 11  2  0  0  0
  3  4  2  0  0  0
  4  5  1  0  0  0
  5  6  1  0  0  0
  5 10  2  0  0  0
  6  7  2  0  0  0
  7  8  1  0  0  0
  8 12  1  0  0  0
  8  9  2  0  0  0
 12 13  1  0  0  0
 12 17  2  0  0  0
 13 14  2  0  0  0
 14 15  1  0  0  0
 15 16  1  0  0  0
 15 17  1  0  0  0
  9 10  1  0  0  0
 10 11  1  0  0  0
M  END
> <minimizedAffinity>
-7.99011

$$$$
