CHEMBL45405


 28 31  0  0  0  0  0  0  0  0999 V2000
  -27.3902   -8.5231   -4.7865 C   0  0  0  0  0  0  0  0  0  0  0  0
  -26.7382   -9.4743   -4.1070 N   0  0  0  0  0  0  0  0  0  0  0  0
  -26.4709  -10.6347   -4.7211 C   0  0  0  0  0  0  0  0  0  0  0  0
  -26.8341  -10.8973   -6.0126 C   0  0  0  0  0  0  0  0  0  0  0  0
  -27.4636   -9.8597   -6.6611 C   0  0  0  0  0  0  0  0  0  0  0  0
  -27.7694   -8.6876   -6.0591 N   0  0  0  0  0  0  0  0  0  0  0  0
  -27.7271   -9.9815   -8.0544 N   0  0  0  0  0  0  0  0  0  0  0  0
  -26.7986  -10.3171   -9.0168 C   0  0  0  0  0  0  0  0  0  0  0  0
  -27.5023  -10.4470  -10.1857 C   0  0  0  0  0  0  0  0  0  0  0  0
  -28.8134  -10.1199   -9.9944 N   0  0  0  0  0  0  0  0  0  0  0  0
  -28.9401   -9.7805   -8.7189 C   0  0  0  0  0  0  0  0  0  0  0  0
  -30.1809   -9.2116   -8.1624 C   0  0  0  0  0  0  0  0  0  0  0  0
  -30.3259   -7.8569   -7.8355 C   0  0  0  0  0  0  0  0  0  0  0  0
  -31.4911   -7.3807   -7.2439 C   0  0  0  0  0  0  0  0  0  0  0  0
  -32.5527   -8.2544   -7.0537 C   0  0  0  0  0  0  0  0  0  0  0  0
  -32.4746   -9.5793   -7.4471 N   0  0  0  0  0  0  0  0  0  0  0  0
  -33.4702  -10.3510   -7.2916 O   0  0  0  0  0  0  0  0  0  0  0  0
  -31.2912  -10.0433   -7.9941 C   0  0  0  0  0  0  0  0  0  0  0  0
  -27.6383   -7.2672   -4.2321 N   0  0  0  0  0  0  0  0  0  0  0  0
  -27.1505   -7.1752   -3.3502 H   0  0  0  0  0  0  0  0  0  0  0  0
  -32.0754   -5.3522   -3.1559 C   0  0  0  0  0  0  0  0  0  0  0  0
  -30.8440   -5.3392   -4.0094 C   0  0  0  0  0  0  0  0  0  0  0  0
  -30.6420   -4.3870   -5.0064 C   0  0  0  0  0  0  0  0  0  0  0  0
  -29.4721   -4.4075   -5.7742 C   0  0  0  0  0  0  0  0  0  0  0  0
  -29.2579   -3.3926   -6.8586 C   0  0  0  0  0  0  0  0  0  0  0  0
  -28.4929   -5.3836   -5.5114 C   0  0  0  0  0  0  0  0  0  0  0  0
  -28.6577   -6.3369   -4.4924 C   0  0  0  0  0  0  0  0  0  0  0  0
  -29.8594   -6.3064   -3.7809 C   0  0  0  0  0  0  0  0  0  0  0  0
 21 22  1  0  0  0
 22 23  1  0  0  0
 22 28  2  0  0  0
 23 24  2  0  0  0
 24 25  1  0  0  0
 24 26  1  0  0  0
 26 27  2  0  0  0
 27 19  1  0  0  0
 27 28  1  0  0  0
 19  1  1  0  0  0
 19 20  1  0  0  0
  1  2  1  0  0  0
  1  6  2  0  0  0
  2  3  2  0  0  0
  3  4  1  0  0  0
  4  5  2  0  0  0
  5  7  1  0  0  0
  5  6  1  0  0  0
  7  8  1  0  0  0
  7 11  1  0  0  0
  8  9  2  0  0  0
  9 10  1  0  0  0
 10 11  2  0  0  0
 11 12  1  0  0  0
 12 13  1  0  0  0
 12 18  2  0  0  0
 13 14  2  0  0  0
 14 15  1  0  0  0
 15 16  2  0  0  0
 16 17  1  0  0  0
 16 18  1  0  0  0
M  CHG 1  16   1
M  CHG 1  17  -1
M  END
> <minimizedAffinity>
-8.13699

$$$$
