CHEMBL1986590


 22 25  0  0  0  0  0  0  0  0999 V2000
  -27.5242   -4.1515   -4.5044 O   0  0  0  0  0  0  0  0  0  0  0  0
  -28.0269   -3.0613   -4.7044 C   0  0  0  0  0  0  0  0  0  0  0  0
  -27.3870   -1.8450   -4.5507 N   0  0  0  0  0  0  0  0  0  0  0  0
  -28.2093   -0.7854   -4.9110 C   0  0  0  0  0  0  0  0  0  0  0  0
  -27.8679    0.5501   -4.8853 C   0  0  0  0  0  0  0  0  0  0  0  0
  -28.8429    1.4652   -5.2788 C   0  0  0  0  0  0  0  0  0  0  0  0
  -30.1213    1.0244   -5.6738 C   0  0  0  0  0  0  0  0  0  0  0  0
  -30.4442   -0.3415   -5.6928 C   0  0  0  0  0  0  0  0  0  0  0  0
  -29.4679   -1.2480   -5.3166 C   0  0  0  0  0  0  0  0  0  0  0  0
  -29.4138   -2.7126   -5.1982 C   0  0  0  0  0  0  0  0  0  0  0  0
  -30.3913   -3.5997   -5.4521 C   0  0  0  0  0  0  0  0  0  0  0  0
  -26.4352   -1.7760   -4.2311 H   0  0  0  0  0  0  0  0  0  0  0  0
  -30.2964   -4.9977   -5.1895 C   0  0  0  0  0  0  0  0  0  0  0  0
  -30.7507   -5.6272   -4.0529 C   0  0  0  0  0  0  0  0  0  0  0  0
  -30.6157   -6.9790   -4.2506 N   0  0  0  0  0  0  0  0  0  0  0  0
  -30.0355   -7.2320   -5.4751 C   0  0  0  0  0  0  0  0  0  0  0  0
  -29.7320   -8.4479   -6.1010 C   0  0  0  0  0  0  0  0  0  0  0  0
  -29.1575   -8.3957   -7.3755 C   0  0  0  0  0  0  0  0  0  0  0  0
  -28.8962   -7.1766   -7.9966 C   0  0  0  0  0  0  0  0  0  0  0  0
  -29.2150   -5.9716   -7.3614 C   0  0  0  0  0  0  0  0  0  0  0  0
  -29.7998   -5.9958   -6.0787 C   0  0  0  0  0  0  0  0  0  0  0  0
  -30.9327   -7.6940   -3.6118 H   0  0  0  0  0  0  0  0  0  0  0  0
  1  2  2  0  0  0
  2  3  1  0  0  0
  2 10  1  0  0  0
  3  4  1  0  0  0
  3 12  1  0  0  0
  4  5  1  0  0  0
  4  9  2  0  0  0
  5  6  2  0  0  0
  6  7  1  0  0  0
  7  8  2  0  0  0
  8  9  1  0  0  0
  9 10  1  0  0  0
 10 11  2  0  0  0
 11 13  1  0  0  0
 13 14  2  0  0  0
 13 21  1  0  0  0
 14 15  1  0  0  0
 15 16  1  0  0  0
 15 22  1  0  0  0
 16 17  1  0  0  0
 16 21  2  0  0  0
 17 18  2  0  0  0
 18 19  1  0  0  0
 19 20  2  0  0  0
 20 21  1  0  0  0
M  END
> <minimizedAffinity>
-8.45981

$$$$
