CHEMBL3660270


 42 45  0  0  0  0  0  0  0  0999 V2000
  -14.9496    0.5559  -16.4882 O   0  0  0  0  0  0  0  0  0  0  0  0
  -12.0754   -0.8905  -13.8217 C   0  0  0  0  0  0  0  0  0  0  0  0
  -12.9118    0.1575  -13.4207 C   0  0  0  0  0  0  0  0  0  0  0  0
  -13.8923    0.6507  -14.2809 C   0  0  0  0  0  0  0  0  0  0  0  0
  -14.0083    0.1361  -15.5728 C   0  0  0  0  0  0  0  0  0  0  0  0
  -13.1761   -0.9137  -15.9740 C   0  0  0  0  0  0  0  0  0  0  0  0
  -12.1917   -1.4115  -15.1103 C   0  0  0  0  0  0  0  0  0  0  0  0
  -10.7015   -2.8028  -11.0710 N   0  0  0  0  0  0  0  0  0  0  0  0
  -11.6572   -2.3950  -11.9812 C   0  0  0  0  0  0  0  0  0  0  0  0
  -12.8065   -2.8255  -12.0438 O   0  0  0  0  0  0  0  0  0  0  0  0
  -11.1674   -1.4719  -12.8996 N   0  0  0  0  0  0  0  0  0  0  0  0
   -9.7518   -2.5053  -11.2398 H   0  0  0  0  0  0  0  0  0  0  0  0
  -10.2524   -1.6961  -13.2620 H   0  0  0  0  0  0  0  0  0  0  0  0
  -11.3429   -3.6440   -6.2380 C   0  0  0  0  0  0  0  0  0  0  0  0
  -11.1976   -4.1660   -7.6384 C   0  0  0  0  0  0  0  0  0  0  0  0
  -11.1973   -5.5455   -7.8694 C   0  0  0  0  0  0  0  0  0  0  0  0
  -11.0995   -6.0307   -9.1666 C   0  0  0  0  0  0  0  0  0  0  0  0
  -10.9845   -5.1455  -10.2362 C   0  0  0  0  0  0  0  0  0  0  0  0
  -11.0414   -5.6954  -11.4559 F   0  0  0  0  0  0  0  0  0  0  0  0
  -10.9138   -3.7583  -10.0401 C   0  0  0  0  0  0  0  0  0  0  0  0
  -11.0579   -3.2788   -8.7261 C   0  0  0  0  0  0  0  0  0  0  0  0
  -15.6801    1.6950  -16.2330 C   0  0  0  0  0  0  0  0  0  0  0  0
  -15.2287    2.9836  -16.4978 C   0  0  0  0  0  0  0  0  0  0  0  0
  -16.0517    4.0438  -16.1642 C   0  0  0  0  0  0  0  0  0  0  0  0
  -17.2889    3.9013  -15.6431 N   0  0  0  0  0  0  0  0  0  0  0  0
  -17.7309    2.6352  -15.4543 C   0  0  0  0  0  0  0  0  0  0  0  0
  -16.9639    1.5121  -15.7358 C   0  0  0  0  0  0  0  0  0  0  0  0
  -19.0925    2.5388  -14.9413 C   0  0  0  0  0  0  0  0  0  0  0  0
  -19.9176    1.4493  -14.7232 C   0  0  0  0  0  0  0  0  0  0  0  0
  -21.1848    1.9076  -14.2500 C   0  0  0  0  0  0  0  0  0  0  0  0
  -21.0722    3.2858  -14.1663 C   0  0  0  0  0  0  0  0  0  0  0  0
  -19.8199    3.6530  -14.5824 N   0  0  0  0  0  0  0  0  0  0  0  0
  -19.4569    4.5969  -14.6409 H   0  0  0  0  0  0  0  0  0  0  0  0
  -22.3861    1.1493  -13.9090 C   0  0  0  0  0  0  0  0  0  0  0  0
  -23.3808    1.6661  -13.4089 O   0  0  0  0  0  0  0  0  0  0  0  0
  -22.3048   -0.2043  -14.1614 N   0  0  0  0  0  0  0  0  0  0  0  0
  -21.4435   -0.5928  -14.5118 H   0  0  0  0  0  0  0  0  0  0  0  0
  -23.3823   -1.1155  -13.8407 C   0  0  0  0  0  0  0  0  0  0  0  0
  -23.1961   -1.7982  -12.4878 C   0  0  0  0  0  0  0  0  0  0  0  0
  -24.1943   -1.3637  -11.4206 C   0  0  0  0  0  0  0  0  0  0  0  0
  -25.0348   -0.3291  -11.9083 O   0  0  0  0  0  0  0  0  0  0  0  0
  -24.5255    0.5075  -11.8228 H   0  0  0  0  0  0  0  0  0  0  0  0
 14 15  1  0  0  0
 15 16  1  0  0  0
 15 21  2  0  0  0
 16 17  2  0  0  0
 17 18  1  0  0  0
 18 19  1  0  0  0
 18 20  2  0  0  0
 20  8  1  0  0  0
 20 21  1  0  0  0
  8  9  1  0  0  0
  8 12  1  0  0  0
  9 10  2  0  0  0
  9 11  1  0  0  0
 11  2  1  0  0  0
 11 13  1  0  0  0
  2  3  1  0  0  0
  2  7  2  0  0  0
  3  4  2  0  0  0
  4  5  1  0  0  0
  5  1  1  0  0  0
  5  6  2  0  0  0
  1 22  1  0  0  0
 22 23  1  0  0  0
 22 27  2  0  0  0
 23 24  2  0  0  0
 24 25  1  0  0  0
 25 26  2  0  0  0
 26 28  1  0  0  0
 26 27  1  0  0  0
 28 29  2  0  0  0
 28 32  1  0  0  0
 29 30  1  0  0  0
 30 34  1  0  0  0
 30 31  2  0  0  0
 34 35  2  0  0  0
 34 36  1  0  0  0
 36 38  1  0  0  0
 36 37  1  0  0  0
 38 39  1  0  0  0
 39 40  1  0  0  0
 40 41  1  0  0  0
 41 42  1  0  0  0
 31 32  1  0  0  0
 32 33  1  0  0  0
  6  7  1  0  0  0
M  END
> <minimizedAffinity>
-8.60745

$$$$
