CHEMBL2071270


 32 35  0  0  0  0  0  0  0  0999 V2000
  -29.2020   -8.7301   -6.1600 C   0  0  0  0  0  0  0  0  0  0  0  0
  -28.0469   -8.6589   -5.4832 N   0  0  0  0  0  0  0  0  0  0  0  0
  -26.9916   -9.3877   -5.8747 C   0  0  0  0  0  0  0  0  0  0  0  0
  -27.0211  -10.1950   -6.9403 N   0  0  0  0  0  0  0  0  0  0  0  0
  -28.1889  -10.2678   -7.6103 C   0  0  0  0  0  0  0  0  0  0  0  0
  -29.3233   -9.5736   -7.2510 C   0  0  0  0  0  0  0  0  0  0  0  0
  -30.7802   -9.7632   -8.1403 Cl  0  0  0  0  0  0  0  0  0  0  0  0
  -30.2472   -7.9479   -5.7138 N   0  0  0  0  0  0  0  0  0  0  0  0
  -30.7232   -8.3175   -4.8944 H   0  0  0  0  0  0  0  0  0  0  0  0
  -30.8169   -5.5624   -4.8281 C   0  0  0  0  0  0  0  0  0  0  0  0
  -29.8412   -4.3681   -5.0677 C   0  0  0  0  0  0  0  0  0  0  0  0
  -30.2609   -3.6846   -6.3552 C   0  0  0  0  0  0  0  0  0  0  0  0
  -29.9743   -4.5262   -7.3636 C   0  0  0  0  0  0  0  0  0  0  0  0
  -29.3442   -5.7688   -6.7481 C   0  0  0  0  0  0  0  0  0  0  0  0
  -28.5906   -5.0363   -5.6308 C   0  0  0  0  0  0  0  0  0  0  0  0
  -30.4777   -6.5285   -5.9974 C   0  0  0  0  0  0  0  0  0  0  0  0
  -31.7509   -5.6054   -2.5373 N   0  0  0  0  0  0  0  0  0  0  0  0
  -30.8470   -6.1050   -3.4160 C   0  0  0  0  0  0  0  0  0  0  0  0
  -30.0859   -6.9992   -3.0488 O   0  0  0  0  0  0  0  0  0  0  0  0
  -31.6123   -5.9113   -1.5812 H   0  0  0  0  0  0  0  0  0  0  0  0
  -32.0415   -4.6387   -2.6503 H   0  0  0  0  0  0  0  0  0  0  0  0
  -25.8880   -9.3217   -5.0189 N   0  0  0  0  0  0  0  0  0  0  0  0
  -26.1945   -8.8741   -4.1633 H   0  0  0  0  0  0  0  0  0  0  0  0
  -24.8139  -10.1308   -5.0011 C   0  0  0  0  0  0  0  0  0  0  0  0
  -24.4410  -11.1205   -4.0725 C   0  0  0  0  0  0  0  0  0  0  0  0
  -23.2447  -11.6494   -4.3569 N   0  0  0  0  0  0  0  0  0  0  0  0
  -22.8587  -10.9747   -5.4564 N   0  0  0  0  0  0  0  0  0  0  0  0
  -23.7982  -10.1007   -5.9240 C   0  0  0  0  0  0  0  0  0  0  0  0
  -21.5225  -11.1718   -5.9839 C   0  0  0  0  0  0  0  0  0  0  0  0
  -21.3008  -10.4369   -7.2970 C   0  0  0  0  0  0  0  0  0  0  0  0
  -20.4202   -9.3286   -7.1215 O   0  0  0  0  0  0  0  0  0  0  0  0
  -20.9414   -8.6294   -6.6823 H   0  0  0  0  0  0  0  0  0  0  0  0
 17 18  1  0  0  0
 17 20  1  0  0  0
 17 21  1  0  0  0
 18 19  2  0  0  0
 18 10  1  0  0  0
 10 11  1  0  0  0
 10 16  1  0  0  0
 11 12  1  0  0  0
 11 15  1  0  0  0
 12 13  2  0  0  0
 13 14  1  0  0  0
 14 15  1  0  0  0
 14 16  1  0  0  0
 16  8  1  0  0  0
  8  1  1  0  0  0
  8  9  1  0  0  0
  1  2  1  0  0  0
  1  6  2  0  0  0
  2  3  2  0  0  0
  3 22  1  0  0  0
  3  4  1  0  0  0
 22 24  1  0  0  0
 22 23  1  0  0  0
 24 25  1  0  0  0
 24 28  2  0  0  0
 25 26  2  0  0  0
 26 27  1  0  0  0
 27 29  1  0  0  0
 27 28  1  0  0  0
 29 30  1  0  0  0
 30 31  1  0  0  0
 31 32  1  0  0  0
  4  5  2  0  0  0
  5  6  1  0  0  0
  6  7  1  0  0  0
M  END
> <minimizedAffinity>
-7.84626

$$$$
