CHEMBL223129


 36 39  0  0  0  0  0  0  0  0999 V2000
  -22.9124   -0.5502  -13.7418 C   0  0  0  0  0  0  0  0  0  0  0  0
  -24.0945   -0.7576  -14.4616 C   0  0  0  0  0  0  0  0  0  0  0  0
  -25.2730   -1.1646  -13.8461 C   0  0  0  0  0  0  0  0  0  0  0  0
  -25.3064   -1.5240  -12.5007 C   0  0  0  0  0  0  0  0  0  0  0  0
  -24.1114   -1.4446  -11.7832 C   0  0  0  0  0  0  0  0  0  0  0  0
  -22.9420   -0.9492  -12.3950 C   0  0  0  0  0  0  0  0  0  0  0  0
  -20.3528    3.2552  -14.9281 N   0  0  0  0  0  0  0  0  0  0  0  0
  -21.5079    3.7302  -14.4573 N   0  0  0  0  0  0  0  0  0  0  0  0
  -22.1529    2.6460  -14.0652 C   0  0  0  0  0  0  0  0  0  0  0  0
  -23.3057    2.7452  -13.4026 N   0  0  0  0  0  0  0  0  0  0  0  0
  -21.4739    1.4301  -14.4400 C   0  0  0  0  0  0  0  0  0  0  0  0
  -21.7043    0.0234  -14.3559 C   0  0  0  0  0  0  0  0  0  0  0  0
  -20.7063   -0.8277  -14.8878 C   0  0  0  0  0  0  0  0  0  0  0  0
  -19.5349   -0.3336  -15.4557 C   0  0  0  0  0  0  0  0  0  0  0  0
  -19.2916    1.0297  -15.5146 C   0  0  0  0  0  0  0  0  0  0  0  0
  -20.2819    1.8924  -15.0148 C   0  0  0  0  0  0  0  0  0  0  0  0
  -23.6446    3.6724  -13.1463 H   0  0  0  0  0  0  0  0  0  0  0  0
  -23.7056    1.9991  -12.8678 H   0  0  0  0  0  0  0  0  0  0  0  0
  -19.3369    4.1608  -15.2574 O   0  0  0  0  0  0  0  0  0  0  0  0
  -18.0782    3.6100  -14.8479 C   0  0  0  0  0  0  0  0  0  0  0  0
  -17.0713    3.7455  -15.9784 C   0  0  0  0  0  0  0  0  0  0  0  0
  -14.7430    4.0920  -15.9425 C   0  0  0  0  0  0  0  0  0  0  0  0
  -16.0127    4.6104  -15.5714 O   0  0  0  0  0  0  0  0  0  0  0  0
  -26.5066   -1.9199  -11.8597 N   0  0  0  0  0  0  0  0  0  0  0  0
  -26.6921   -1.8846  -10.4776 C   0  0  0  0  0  0  0  0  0  0  0  0
  -25.8569   -1.4492   -9.6855 O   0  0  0  0  0  0  0  0  0  0  0  0
  -27.8913   -2.3775  -10.0416 N   0  0  0  0  0  0  0  0  0  0  0  0
  -27.3115   -2.0908  -12.4299 H   0  0  0  0  0  0  0  0  0  0  0  0
  -28.2268   -3.1747  -10.5668 H   0  0  0  0  0  0  0  0  0  0  0  0
  -28.1680   -2.3932   -8.6500 C   0  0  0  0  0  0  0  0  0  0  0  0
  -28.8297   -3.4837   -8.0878 C   0  0  0  0  0  0  0  0  0  0  0  0
  -29.2347   -3.4557   -6.7509 C   0  0  0  0  0  0  0  0  0  0  0  0
  -28.9991   -2.3167   -5.9792 C   0  0  0  0  0  0  0  0  0  0  0  0
  -28.2947   -1.2454   -6.5249 C   0  0  0  0  0  0  0  0  0  0  0  0
  -28.0609    0.1800   -5.5876 Cl  0  0  0  0  0  0  0  0  0  0  0  0
  -27.8481   -1.2860   -7.8487 C   0  0  0  0  0  0  0  0  0  0  0  0
 22 23  1  0  0  0
 23 21  1  0  0  0
 21 20  1  0  0  0
 20 19  1  0  0  0
 19  7  1  0  0  0
  7  8  1  0  0  0
  7 16  1  0  0  0
  8  9  2  0  0  0
  9 10  1  0  0  0
  9 11  1  0  0  0
 10 17  1  0  0  0
 10 18  1  0  0  0
 11 12  1  0  0  0
 11 16  2  0  0  0
 12  1  1  0  0  0
 12 13  2  0  0  0
  1  2  1  0  0  0
  1  6  2  0  0  0
  2  3  2  0  0  0
  3  4  1  0  0  0
  4 24  1  0  0  0
  4  5  2  0  0  0
 24 25  1  0  0  0
 24 28  1  0  0  0
 25 26  2  0  0  0
 25 27  1  0  0  0
 27 30  1  0  0  0
 27 29  1  0  0  0
 30 31  1  0  0  0
 30 36  2  0  0  0
 31 32  2  0  0  0
 32 33  1  0  0  0
 33 34  2  0  0  0
 34 35  1  0  0  0
 34 36  1  0  0  0
  5  6  1  0  0  0
 13 14  1  0  0  0
 14 15  2  0  0  0
 15 16  1  0  0  0
M  END
> <minimizedAffinity>
-9.63930

$$$$
