CHEMBL234010


 25 27  0  0  0  0  0  0  0  0999 V2000
  -28.5465   -9.9318   -3.5473 C   0  0  0  0  0  0  0  0  0  0  0  0
  -28.6441   -8.6735   -4.3269 C   0  0  0  0  0  0  0  0  0  0  0  0
  -28.9176   -7.3684   -3.8578 C   0  0  0  0  0  0  0  0  0  0  0  0
  -29.0117   -6.5818   -4.9900 C   0  0  0  0  0  0  0  0  0  0  0  0
  -28.7438   -7.4284   -6.0423 N   0  0  0  0  0  0  0  0  0  0  0  0
  -28.4924   -8.6952   -5.6542 N   0  0  0  0  0  0  0  0  0  0  0  0
  -29.3732   -5.1931   -5.1536 C   0  0  0  0  0  0  0  0  0  0  0  0
  -30.5388   -4.8733   -5.3556 O   0  0  0  0  0  0  0  0  0  0  0  0
  -28.3025   -4.3124   -5.1628 N   0  0  0  0  0  0  0  0  0  0  0  0
  -27.3774   -4.7209   -5.1542 H   0  0  0  0  0  0  0  0  0  0  0  0
  -28.3907   -2.9258   -5.4301 C   0  0  0  0  0  0  0  0  0  0  0  0
  -28.9155   -2.0040   -4.5176 C   0  0  0  0  0  0  0  0  0  0  0  0
  -29.0563   -0.6559   -4.8552 C   0  0  0  0  0  0  0  0  0  0  0  0
  -28.6591   -0.2152   -6.1108 C   0  0  0  0  0  0  0  0  0  0  0  0
  -28.8679    1.4371   -6.5381 Cl  0  0  0  0  0  0  0  0  0  0  0  0
  -28.0972   -1.1100   -7.0195 C   0  0  0  0  0  0  0  0  0  0  0  0
  -27.9548   -2.4610   -6.6772 C   0  0  0  0  0  0  0  0  0  0  0  0
  -28.7292   -7.1118   -7.4653 C   0  0  0  0  0  0  0  0  0  0  0  0
  -29.1548   -8.2854   -8.3515 C   0  0  0  0  0  0  0  0  0  0  0  0
  -30.5249   -8.8053   -7.9968 C   0  0  0  0  0  0  0  0  0  0  0  0
  -30.8374  -10.1610   -8.1516 C   0  0  0  0  0  0  0  0  0  0  0  0
  -32.1076  -10.5940   -7.8045 C   0  0  0  0  0  0  0  0  0  0  0  0
  -33.0753   -9.7822   -7.3264 N   0  0  0  0  0  0  0  0  0  0  0  0
  -32.7556   -8.4772   -7.1928 C   0  0  0  0  0  0  0  0  0  0  0  0
  -31.5141   -7.9482   -7.5119 C   0  0  0  0  0  0  0  0  0  0  0  0
  1  2  1  0  0  0
  2  3  1  0  0  0
  2  6  2  0  0  0
  3  4  2  0  0  0
  4  7  1  0  0  0
  4  5  1  0  0  0
  7  8  2  0  0  0
  7  9  1  0  0  0
  9 11  1  0  0  0
  9 10  1  0  0  0
 11 12  1  0  0  0
 11 17  2  0  0  0
 12 13  2  0  0  0
 13 14  1  0  0  0
 14 15  1  0  0  0
 14 16  2  0  0  0
 16 17  1  0  0  0
  5 18  1  0  0  0
  5  6  1  0  0  0
 18 19  1  0  0  0
 19 20  1  0  0  0
 20 21  1  0  0  0
 20 25  2  0  0  0
 21 22  2  0  0  0
 22 23  1  0  0  0
 23 24  2  0  0  0
 24 25  1  0  0  0
M  END
> <minimizedAffinity>
-7.67028

$$$$
