CHEMBL4763773


 43 47  0  0  0  0  0  0  0  0999 V2000
  -29.5899   -4.0528   -5.2885 N   0  0  0  0  0  0  0  0  0  0  0  0
  -30.5987   -3.9728   -5.2937 H   0  0  0  0  0  0  0  0  0  0  0  0
  -28.0383   -1.5017   -7.5366 C   0  0  0  0  0  0  0  0  0  0  0  0
  -28.6267   -2.1002   -6.4187 C   0  0  0  0  0  0  0  0  0  0  0  0
  -29.0015   -3.4561   -6.4276 C   0  0  0  0  0  0  0  0  0  0  0  0
  -28.8814   -4.1821   -7.5935 C   0  0  0  0  0  0  0  0  0  0  0  0
  -28.2611   -3.6079   -8.7022 C   0  0  0  0  0  0  0  0  0  0  0  0
  -27.8029   -2.2761   -8.6991 C   0  0  0  0  0  0  0  0  0  0  0  0
  -27.2189   -1.8169   -9.8812 N   0  0  0  0  0  0  0  0  0  0  0  0
  -25.7723   -1.6235   -9.9360 C   0  0  0  0  0  0  0  0  0  0  0  0
  -25.5279   -0.4810  -10.9087 C   0  0  0  0  0  0  0  0  0  0  0  0
  -26.0264   -0.7944  -12.3377 C   0  0  0  0  0  0  0  0  0  0  0  0
  -27.5003   -1.2899  -12.2473 C   0  0  0  0  0  0  0  0  0  0  0  0
  -27.7718   -2.3267  -11.1436 C   0  0  0  0  0  0  0  0  0  0  0  0
  -25.1860   -1.7269  -13.1371 N   0  0  0  0  0  0  0  0  0  0  0  0
  -23.8713   -2.0684  -12.5468 C   0  0  0  0  0  0  0  0  0  0  0  0
  -22.8368   -0.9199  -12.5434 C   0  0  0  0  0  0  0  0  0  0  0  0
  -22.5508   -0.4175  -13.8969 N   0  0  0  0  0  0  0  0  0  0  0  0
  -21.6730    0.7524  -13.8306 C   0  0  0  0  0  0  0  0  0  0  0  0
  -23.8038   -0.0968  -14.6049 C   0  0  0  0  0  0  0  0  0  0  0  0
  -24.9074   -1.1919  -14.5007 C   0  0  0  0  0  0  0  0  0  0  0  0
  -28.4056    0.7868   -6.8690 C   0  0  0  0  0  0  0  0  0  0  0  0
  -27.6296   -0.1905   -7.5493 O   0  0  0  0  0  0  0  0  0  0  0  0
  -29.3427   -5.3717   -4.8860 C   0  0  0  0  0  0  0  0  0  0  0  0
  -30.4023   -6.1256   -4.5629 N   0  0  0  0  0  0  0  0  0  0  0  0
  -30.1540   -7.3948   -4.1895 C   0  0  0  0  0  0  0  0  0  0  0  0
  -28.9001   -7.9734   -4.1983 C   0  0  0  0  0  0  0  0  0  0  0  0
  -27.8890   -7.1177   -4.5722 C   0  0  0  0  0  0  0  0  0  0  0  0
  -28.0837   -5.8365   -4.9059 N   0  0  0  0  0  0  0  0  0  0  0  0
  -28.5888   -9.3768   -3.7933 C   0  0  0  0  0  0  0  0  0  0  0  0
  -28.0171  -10.2467   -4.9120 C   0  0  0  0  0  0  0  0  0  0  0  0
  -28.9752  -10.3933   -6.0594 C   0  0  0  0  0  0  0  0  0  0  0  0
  -28.7040   -9.7911   -7.2898 C   0  0  0  0  0  0  0  0  0  0  0  0
  -27.6033   -9.0291   -7.3823 F   0  0  0  0  0  0  0  0  0  0  0  0
  -29.5460   -9.9802   -8.3888 C   0  0  0  0  0  0  0  0  0  0  0  0
  -30.7032  -10.7566   -8.2344 C   0  0  0  0  0  0  0  0  0  0  0  0
  -31.0137  -11.3413   -7.0042 C   0  0  0  0  0  0  0  0  0  0  0  0
  -30.1450  -11.1423   -5.9266 C   0  0  0  0  0  0  0  0  0  0  0  0
  -30.4305  -11.6894   -4.7337 F   0  0  0  0  0  0  0  0  0  0  0  0
  -29.3662   -9.4963   -9.6570 O   0  0  0  0  0  0  0  0  0  0  0  0
  -29.0421  -10.4390  -10.6723 C   0  0  0  0  0  0  0  0  0  0  0  0
  -32.1038  -12.1272   -6.7483 O   0  0  0  0  0  0  0  0  0  0  0  0
  -33.3040  -11.4703   -6.3625 C   0  0  0  0  0  0  0  0  0  0  0  0
 22 23  1  0  0  0
 23  3  1  0  0  0
  3  4  1  0  0  0
  3  8  2  0  0  0
  4  5  2  0  0  0
  5  1  1  0  0  0
  5  6  1  0  0  0
  1 24  1  0  0  0
  1  2  1  0  0  0
 24 25  1  0  0  0
 24 29  2  0  0  0
 25 26  2  0  0  0
 26 27  1  0  0  0
 27 30  1  0  0  0
 27 28  2  0  0  0
 30 31  1  0  0  0
 31 32  1  0  0  0
 32 33  1  0  0  0
 32 38  2  0  0  0
 33 34  1  0  0  0
 33 35  2  0  0  0
 35 40  1  0  0  0
 35 36  1  0  0  0
 40 41  1  0  0  0
 36 37  2  0  0  0
 37 42  1  0  0  0
 37 38  1  0  0  0
 42 43  1  0  0  0
 38 39  1  0  0  0
 28 29  1  0  0  0
  6  7  2  0  0  0
  7  8  1  0  0  0
  8  9  1  0  0  0
  9 10  1  0  0  0
  9 14  1  0  0  0
 10 11  1  0  0  0
 11 12  1  0  0  0
 12 15  1  0  0  0
 12 13  1  0  0  0
 15 16  1  0  0  0
 15 21  1  0  0  0
 16 17  1  0  0  0
 17 18  1  0  0  0
 18 19  1  0  0  0
 18 20  1  0  0  0
 20 21  1  0  0  0
 13 14  1  0  0  0
M  END
> <minimizedAffinity>
-7.49313

$$$$
