CHEMBL346200


 24 26  0  0  0  0  0  0  0  0999 V2000
  -13.8113    3.7135  -16.0011 C   0  0  0  0  0  0  0  0  0  0  0  0
  -13.7959    2.7159  -15.0074 C   0  0  0  0  0  0  0  0  0  0  0  0
  -14.9065    1.9419  -14.7071 C   0  0  0  0  0  0  0  0  0  0  0  0
  -14.7891    0.9599  -13.8063 N   0  0  0  0  0  0  0  0  0  0  0  0
  -15.8741    0.2144  -13.5848 C   0  0  0  0  0  0  0  0  0  0  0  0
  -17.0571    0.3567  -14.1843 N   0  0  0  0  0  0  0  0  0  0  0  0
  -17.1633    1.3420  -15.0969 C   0  0  0  0  0  0  0  0  0  0  0  0
  -16.0971    2.1977  -15.3876 C   0  0  0  0  0  0  0  0  0  0  0  0
  -16.1553    3.2769  -16.2978 C   0  0  0  0  0  0  0  0  0  0  0  0
  -15.0231    4.0300  -16.6224 C   0  0  0  0  0  0  0  0  0  0  0  0
  -11.5368    4.1598  -15.5076 C   0  0  0  0  0  0  0  0  0  0  0  0
  -12.6695    4.3853  -16.3517 O   0  0  0  0  0  0  0  0  0  0  0  0
  -18.3845    1.4871  -15.8106 N   0  0  0  0  0  0  0  0  0  0  0  0
  -18.4465    0.7513  -16.5126 H   0  0  0  0  0  0  0  0  0  0  0  0
  -19.6378    1.6988  -15.1942 C   0  0  0  0  0  0  0  0  0  0  0  0
  -20.4396    0.6175  -14.8085 C   0  0  0  0  0  0  0  0  0  0  0  0
  -21.6919    0.8330  -14.2381 C   0  0  0  0  0  0  0  0  0  0  0  0
  -22.1396    2.1327  -14.0455 C   0  0  0  0  0  0  0  0  0  0  0  0
  -23.3552    2.3384  -13.5218 F   0  0  0  0  0  0  0  0  0  0  0  0
  -21.3519    3.2257  -14.3842 C   0  0  0  0  0  0  0  0  0  0  0  0
  -20.1033    2.9987  -14.9486 C   0  0  0  0  0  0  0  0  0  0  0  0
  -19.3396    4.0477  -15.2929 F   0  0  0  0  0  0  0  0  0  0  0  0
  -15.3124    4.9798  -17.5591 O   0  0  0  0  0  0  0  0  0  0  0  0
  -15.1285    4.6993  -18.9347 C   0  0  0  0  0  0  0  0  0  0  0  0
 11 12  1  0  0  0
 12  1  1  0  0  0
  1  2  1  0  0  0
  1 10  2  0  0  0
  2  3  2  0  0  0
  3  4  1  0  0  0
  3  8  1  0  0  0
  4  5  2  0  0  0
  5  6  1  0  0  0
  6  7  2  0  0  0
  7 13  1  0  0  0
  7  8  1  0  0  0
 13 15  1  0  0  0
 13 14  1  0  0  0
 15 16  1  0  0  0
 15 21  2  0  0  0
 16 17  2  0  0  0
 17 18  1  0  0  0
 18 19  1  0  0  0
 18 20  2  0  0  0
 20 21  1  0  0  0
 21 22  1  0  0  0
  8  9  2  0  0  0
  9 10  1  0  0  0
 10 23  1  0  0  0
 23 24  1  0  0  0
M  END
> <minimizedAffinity>
-7.05438

$$$$
