CHEMBL256767


 38 42  0  0  0  0  0  0  0  0999 V2000
  -28.6258   -7.6744   -3.9926 C   0  0  0  0  0  0  0  0  0  0  0  0
  -27.8812   -6.9947   -4.9637 C   0  0  0  0  0  0  0  0  0  0  0  0
  -28.3936   -5.8416   -5.5751 C   0  0  0  0  0  0  0  0  0  0  0  0
  -29.6654   -5.3724   -5.2348 C   0  0  0  0  0  0  0  0  0  0  0  0
  -30.3752   -6.0279   -4.2305 C   0  0  0  0  0  0  0  0  0  0  0  0
  -31.5579   -5.5482   -3.8175 F   0  0  0  0  0  0  0  0  0  0  0  0
  -29.8707   -7.1709   -3.6176 C   0  0  0  0  0  0  0  0  0  0  0  0
  -28.0309   -8.7723   -3.3366 N   0  0  0  0  0  0  0  0  0  0  0  0
  -27.8472   -8.6524   -2.3432 H   0  0  0  0  0  0  0  0  0  0  0  0
  -27.7512  -10.0195   -3.8427 C   0  0  0  0  0  0  0  0  0  0  0  0
  -26.6474  -11.1222   -3.2323 S   0  0  0  0  0  0  0  0  0  0  0  0
  -27.0309  -10.1638   -6.7042 O   0  0  0  0  0  0  0  0  0  0  0  0
  -28.1362  -10.4912   -6.2729 C   0  0  0  0  0  0  0  0  0  0  0  0
  -28.4963  -10.4179   -4.9359 N   0  0  0  0  0  0  0  0  0  0  0  0
  -29.4037  -10.7828   -4.6782 H   0  0  0  0  0  0  0  0  0  0  0  0
  -29.2715  -10.9206   -7.1854 C   0  0  0  0  0  0  0  0  0  0  0  0
  -30.4698  -10.0037   -7.2931 C   0  0  0  0  0  0  0  0  0  0  0  0
  -31.7554  -10.5697   -7.2021 C   0  0  0  0  0  0  0  0  0  0  0  0
  -32.8968   -9.7673   -7.1509 C   0  0  0  0  0  0  0  0  0  0  0  0
  -32.7746   -8.3838   -7.1848 C   0  0  0  0  0  0  0  0  0  0  0  0
  -31.5099   -7.8042   -7.2792 C   0  0  0  0  0  0  0  0  0  0  0  0
  -30.3614   -8.6084   -7.3277 C   0  0  0  0  0  0  0  0  0  0  0  0
  -30.2478   -4.2426   -5.7598 O   0  0  0  0  0  0  0  0  0  0  0  0
  -29.6397   -3.0151   -5.6119 C   0  0  0  0  0  0  0  0  0  0  0  0
  -29.5905   -2.3151   -4.4094 C   0  0  0  0  0  0  0  0  0  0  0  0
  -28.9754   -1.0797   -4.3782 C   0  0  0  0  0  0  0  0  0  0  0  0
  -28.3512   -0.4978   -5.4169 N   0  0  0  0  0  0  0  0  0  0  0  0
  -28.3137   -1.2246   -6.5651 C   0  0  0  0  0  0  0  0  0  0  0  0
  -27.6330   -0.8319   -7.7506 C   0  0  0  0  0  0  0  0  0  0  0  0
  -27.7043   -1.7739   -8.7627 C   0  0  0  0  0  0  0  0  0  0  0  0
  -28.6828   -3.0966   -8.2803 S   0  0  0  0  0  0  0  0  0  0  0  0
  -28.9363   -2.4646   -6.7015 C   0  0  0  0  0  0  0  0  0  0  0  0
  -27.0676   -1.7283  -10.0836 C   0  0  0  0  0  0  0  0  0  0  0  0
  -27.8944   -1.7602  -11.1462 N   0  0  0  0  0  0  0  0  0  0  0  0
  -27.3109   -1.6577  -12.3533 C   0  0  0  0  0  0  0  0  0  0  0  0
  -25.9550   -1.5243  -12.5329 C   0  0  0  0  0  0  0  0  0  0  0  0
  -25.2019   -1.5070  -11.3816 C   0  0  0  0  0  0  0  0  0  0  0  0
  -25.7281   -1.6066  -10.1479 N   0  0  0  0  0  0  0  0  0  0  0  0
 12 13  2  0  0  0
 13 16  1  0  0  0
 13 14  1  0  0  0
 16 17  1  0  0  0
 17 18  1  0  0  0
 17 22  2  0  0  0
 18 19  2  0  0  0
 19 20  1  0  0  0
 20 21  2  0  0  0
 21 22  1  0  0  0
 14 10  1  0  0  0
 14 15  1  0  0  0
 10 11  2  0  0  0
 10  8  1  0  0  0
  8  1  1  0  0  0
  8  9  1  0  0  0
  1  2  1  0  0  0
  1  7  2  0  0  0
  2  3  2  0  0  0
  3  4  1  0  0  0
  4 23  1  0  0  0
  4  5  2  0  0  0
 23 24  1  0  0  0
 24 25  1  0  0  0
 24 32  2  0  0  0
 25 26  2  0  0  0
 26 27  1  0  0  0
 27 28  2  0  0  0
 28 29  1  0  0  0
 28 32  1  0  0  0
 29 30  2  0  0  0
 30 33  1  0  0  0
 30 31  1  0  0  0
 33 34  1  0  0  0
 33 38  2  0  0  0
 34 35  2  0  0  0
 35 36  1  0  0  0
 36 37  2  0  0  0
 37 38  1  0  0  0
 31 32  1  0  0  0
  5  6  1  0  0  0
  5  7  1  0  0  0
M  END
> <minimizedAffinity>
-9.11063

$$$$
