CHEMBL3960128


 42 47  0  0  0  0  0  0  0  0999 V2000
  -35.0872    7.8022  -11.2702 C   0  0  0  0  0  0  0  0  0  0  0  0
  -34.0039    7.7679  -10.4327 C   0  0  0  0  0  0  0  0  0  0  0  0
  -33.7024    6.6156   -9.8108 C   0  0  0  0  0  0  0  0  0  0  0  0
  -34.3063    5.4351  -10.0980 C   0  0  0  0  0  0  0  0  0  0  0  0
  -33.3073    4.6693  -10.1598 N   0  0  0  0  0  0  0  0  0  0  0  0
  -33.0323    4.1074   -9.0382 C   0  0  0  0  0  0  0  0  0  0  0  0
  -33.7659    3.0675   -8.8270 C   0  0  0  0  0  0  0  0  0  0  0  0
  -35.0925    3.4038   -9.7183 N   0  0  0  0  0  0  0  0  0  0  0  0
  -35.4329    4.9414  -10.5511 C   0  0  0  0  0  0  0  0  0  0  0  0
  -35.8057    6.4501  -11.3882 C   0  0  0  0  0  0  0  0  0  0  0  0
  -32.5320    2.1332   -7.8929 C   0  0  0  0  0  0  0  0  0  0  0  0
  -32.2475    2.3648   -6.3636 C   0  0  0  0  0  0  0  0  0  0  0  0
  -31.1119    1.9090   -5.7750 N   0  0  0  0  0  0  0  0  0  0  0  0
  -30.3854    1.3808   -6.7859 N   0  0  0  0  0  0  0  0  0  0  0  0
  -31.1624    1.6580   -8.0534 C   0  0  0  0  0  0  0  0  0  0  0  0
  -29.0014    0.6514   -6.4800 C   0  0  0  0  0  0  0  0  0  0  0  0
  -28.0469    0.5287   -7.7328 C   0  0  0  0  0  0  0  0  0  0  0  0
  -28.1678    1.4742   -5.4572 C   0  0  0  0  0  0  0  0  0  0  0  0
  -29.2041   -0.8228   -5.9377 C   0  0  0  0  0  0  0  0  0  0  0  0
  -29.9552   -1.0496   -4.9882 O   0  0  0  0  0  0  0  0  0  0  0  0
  -28.6679   -1.9413   -6.5681 N   0  0  0  0  0  0  0  0  0  0  0  0
  -27.7592   -1.9779   -7.7024 C   0  0  0  0  0  0  0  0  0  0  0  0
  -28.3472   -2.8766   -8.7912 C   0  0  0  0  0  0  0  0  0  0  0  0
  -28.5429   -4.2566   -8.3070 N   0  0  0  0  0  0  0  0  0  0  0  0
  -29.4033   -4.2184   -7.0999 C   0  0  0  0  0  0  0  0  0  0  0  0
  -28.8460   -3.2870   -5.9967 C   0  0  0  0  0  0  0  0  0  0  0  0
  -27.6313   -4.6297   -8.0358 H   0  0  0  0  0  0  0  0  0  0  0  0
  -35.3382    9.1231  -11.8604 N   0  0  0  0  0  0  0  0  0  0  0  0
  -34.9289    9.8032  -15.6708 C   0  0  0  0  0  0  0  0  0  0  0  0
  -33.7074   10.3910  -15.6532 C   0  0  0  0  0  0  0  0  0  0  0  0
  -33.0029   10.5494  -14.4587 C   0  0  0  0  0  0  0  0  0  0  0  0
  -33.5236   10.0772  -13.2465 C   0  0  0  0  0  0  0  0  0  0  0  0
  -34.8051    9.5177  -13.1737 C   0  0  0  0  0  0  0  0  0  0  0  0
  -35.3976    9.3273  -14.4648 C   0  0  0  0  0  0  0  0  0  0  0  0
  -35.8113    8.3956  -17.3374 C   0  0  0  0  0  0  0  0  0  0  0  0
  -35.7731    9.6796  -16.7374 O   0  0  0  0  0  0  0  0  0  0  0  0
  -31.8127   11.2266  -14.3983 O   0  0  0  0  0  0  0  0  0  0  0  0
  -31.7344   12.1702  -13.3294 C   0  0  0  0  0  0  0  0  0  0  0  0
  -35.5455   10.2085  -10.7987 C   0  0  0  0  0  0  0  0  0  0  0  0
  -34.5408   11.2898  -10.9117 C   0  0  0  0  0  0  0  0  0  0  0  0
  -33.2888   11.4542  -10.0152 C   0  0  0  0  0  0  0  0  0  0  0  0
  -34.2689   12.5856  -10.2073 C   0  0  0  0  0  0  0  0  0  0  0  0
 35 36  1  0  0  0
 36 29  1  0  0  0
 29 30  1  0  0  0
 29 34  2  0  0  0
 30 31  2  0  0  0
 31 37  1  0  0  0
 31 32  1  0  0  0
 37 38  1  0  0  0
 32 33  2  0  0  0
 33 28  1  0  0  0
 33 34  1  0  0  0
 28 39  1  0  0  0
 28  1  1  0  0  0
 39 40  1  0  0  0
 40 41  1  0  0  0
 40 42  1  0  0  0
 41 42  1  0  0  0
  1  2  1  0  0  0
  1 10  2  0  0  0
  2  3  2  0  0  0
  3  4  1  0  0  0
  4  5  1  0  0  0
  4  9  2  0  0  0
  5  6  2  0  0  0
  6  7  1  0  0  0
  7 11  1  0  0  0
  7  8  2  0  0  0
 11 12  1  0  0  0
 11 15  2  0  0  0
 12 13  2  0  0  0
 13 14  1  0  0  0
 14 16  1  0  0  0
 14 15  1  0  0  0
 16 17  1  0  0  0
 16 18  1  0  0  0
 16 19  1  0  0  0
 19 20  2  0  0  0
 19 21  1  0  0  0
 21 22  1  0  0  0
 21 26  1  0  0  0
 22 23  1  0  0  0
 23 24  1  0  0  0
 24 25  1  0  0  0
 24 27  1  0  0  0
 25 26  1  0  0  0
  8  9  1  0  0  0
  9 10  1  0  0  0
M  END
> <minimizedAffinity>
-0.34517

$$$$
