CHEMBL78257


 25 25  0  0  0  0  0  0  0  0999 V2000
  -30.2673   -6.6655   -6.7827 C   0  0  0  0  0  0  0  0  0  0  0  0
  -30.5251   -5.4862   -7.3936 C   0  0  0  0  0  0  0  0  0  0  0  0
  -29.7347   -4.2592   -7.1856 C   0  0  0  0  0  0  0  0  0  0  0  0
  -30.0266   -3.3880   -6.1168 C   0  0  0  0  0  0  0  0  0  0  0  0
  -29.2936   -2.2079   -5.9723 C   0  0  0  0  0  0  0  0  0  0  0  0
  -29.5403   -1.3118   -4.9693 O   0  0  0  0  0  0  0  0  0  0  0  0
  -28.2764   -1.9008   -6.8685 C   0  0  0  0  0  0  0  0  0  0  0  0
  -27.5501   -0.7483   -6.7351 O   0  0  0  0  0  0  0  0  0  0  0  0
  -27.9893   -2.7613   -7.9182 C   0  0  0  0  0  0  0  0  0  0  0  0
  -26.9952   -2.4526   -8.8010 O   0  0  0  0  0  0  0  0  0  0  0  0
  -28.7118   -3.9379   -8.0877 C   0  0  0  0  0  0  0  0  0  0  0  0
  -30.3300   -1.6023   -4.4803 H   0  0  0  0  0  0  0  0  0  0  0  0
  -27.9332   -0.3118   -5.9462 H   0  0  0  0  0  0  0  0  0  0  0  0
  -26.6530   -1.5882   -8.4920 H   0  0  0  0  0  0  0  0  0  0  0  0
  -30.5606   -8.8825   -7.8908 C   0  0  0  0  0  0  0  0  0  0  0  0
  -31.0446   -7.9101   -7.0571 C   0  0  0  0  0  0  0  0  0  0  0  0
  -32.2868   -7.9694   -6.4406 N   0  0  0  0  0  0  0  0  0  0  0  0
  -32.7580   -8.8722   -6.3929 H   0  0  0  0  0  0  0  0  0  0  0  0
  -32.4092   -7.4140   -5.5938 H   0  0  0  0  0  0  0  0  0  0  0  0
  -32.0099  -11.2041   -8.3842 N   0  0  0  0  0  0  0  0  0  0  0  0
  -31.3528  -10.1515   -8.1604 C   0  0  0  0  0  0  0  0  0  0  0  0
  -29.2108   -8.6731   -8.5577 C   0  0  0  0  0  0  0  0  0  0  0  0
  -28.0911   -8.4993   -9.1108 N   0  0  0  0  0  0  0  0  0  0  0  0
  -29.1141   -6.7181   -5.7940 C   0  0  0  0  0  0  0  0  0  0  0  0
  -28.1573   -6.7618   -4.9739 N   0  0  0  0  0  0  0  0  0  0  0  0
 20 21  3  0  0  0
 21 15  1  0  0  0
 15 22  1  0  0  0
 15 16  2  0  0  0
 22 23  3  0  0  0
 16 17  1  0  0  0
 16  1  1  0  0  0
 17 18  1  0  0  0
 17 19  1  0  0  0
  1 24  1  0  0  0
  1  2  2  0  0  0
 24 25  3  0  0  0
  2  3  1  0  0  0
  3  4  1  0  0  0
  3 11  2  0  0  0
  4  5  2  0  0  0
  5  6  1  0  0  0
  5  7  1  0  0  0
  6 12  1  0  0  0
  7  8  1  0  0  0
  7  9  2  0  0  0
  8 13  1  0  0  0
  9 10  1  0  0  0
  9 11  1  0  0  0
 10 14  1  0  0  0
M  END
> <minimizedAffinity>
-6.70925

$$$$
