CHEMBL3706815


 36 39  0  0  0  0  0  0  0  0999 V2000
  -28.0854  -10.4378   -5.6782 C   0  0  0  0  0  0  0  0  0  0  0  0
  -27.0638  -10.8617   -4.9149 N   0  0  0  0  0  0  0  0  0  0  0  0
  -26.7853  -10.1569   -3.8183 C   0  0  0  0  0  0  0  0  0  0  0  0
  -27.4303   -9.0675   -3.4040 N   0  0  0  0  0  0  0  0  0  0  0  0
  -28.4376   -8.6427   -4.1940 C   0  0  0  0  0  0  0  0  0  0  0  0
  -29.0762   -7.4617   -3.8526 C   0  0  0  0  0  0  0  0  0  0  0  0
  -30.0389   -6.8181   -4.6778 C   0  0  0  0  0  0  0  0  0  0  0  0
  -30.5133   -7.5169   -5.7853 C   0  0  0  0  0  0  0  0  0  0  0  0
  -29.8996   -8.7422   -6.0978 C   0  0  0  0  0  0  0  0  0  0  0  0
  -28.8237   -9.2844   -5.3368 C   0  0  0  0  0  0  0  0  0  0  0  0
  -28.3929  -11.1269   -6.8704 N   0  0  0  0  0  0  0  0  0  0  0  0
  -28.0555  -12.0938   -6.7929 H   0  0  0  0  0  0  0  0  0  0  0  0
  -27.1377   -9.9756  -10.8095 C   0  0  0  0  0  0  0  0  0  0  0  0
  -27.7516  -11.1443  -10.5662 C   0  0  0  0  0  0  0  0  0  0  0  0
  -28.3576  -11.4716   -9.2715 C   0  0  0  0  0  0  0  0  0  0  0  0
  -29.0857  -12.4526   -9.1431 O   0  0  0  0  0  0  0  0  0  0  0  0
  -28.0256  -10.6100   -8.1077 C   0  0  0  0  0  0  0  0  0  0  0  0
  -27.4163   -9.4392   -8.3328 C   0  0  0  0  0  0  0  0  0  0  0  0
  -27.0069   -8.9911   -9.6820 C   0  0  0  0  0  0  0  0  0  0  0  0
  -26.5684   -7.8600   -9.8439 O   0  0  0  0  0  0  0  0  0  0  0  0
  -26.6503   -9.5757  -12.0475 O   0  0  0  0  0  0  0  0  0  0  0  0
  -27.6348   -9.2144  -13.0236 C   0  0  0  0  0  0  0  0  0  0  0  0
  -28.7992  -10.2012  -13.0092 C   0  0  0  0  0  0  0  0  0  0  0  0
  -26.5101   -9.2577  -15.6135 C   0  0  0  0  0  0  0  0  0  0  0  0
  -27.0294   -9.2377  -14.4178 C   0  0  0  0  0  0  0  0  0  0  0  0
  -31.4674   -7.2900   -6.7240 O   0  0  0  0  0  0  0  0  0  0  0  0
  -32.3697   -8.2482   -7.2243 C   0  0  0  0  0  0  0  0  0  0  0  0
  -30.4101   -5.5034   -4.3876 O   0  0  0  0  0  0  0  0  0  0  0  0
  -29.4198   -4.5592   -4.8729 C   0  0  0  0  0  0  0  0  0  0  0  0
  -29.6755   -3.8811   -6.2116 C   0  0  0  0  0  0  0  0  0  0  0  0
  -28.7801   -2.6090   -6.2730 C   0  0  0  0  0  0  0  0  0  0  0  0
  -28.6879   -1.8456   -5.0184 N   0  0  0  0  0  0  0  0  0  0  0  0
  -29.7925   -0.8872   -4.8593 C   0  0  0  0  0  0  0  0  0  0  0  0
  -29.3269    0.3674   -5.5678 C   0  0  0  0  0  0  0  0  0  0  0  0
  -27.8811    0.4459   -5.1313 C   0  0  0  0  0  0  0  0  0  0  0  0
  -27.4539   -1.0156   -4.9891 C   0  0  0  0  0  0  0  0  0  0  0  0
 24 25  3  0  0  0
 25 22  1  0  0  0
 22 23  1  0  0  0
 22 21  1  0  0  0
 21 13  1  0  0  0
 13 14  2  0  0  0
 13 19  1  0  0  0
 14 15  1  0  0  0
 15 16  2  0  0  0
 15 17  1  0  0  0
 17 11  1  0  0  0
 17 18  2  0  0  0
 11  1  1  0  0  0
 11 12  1  0  0  0
  1  2  1  0  0  0
  1 10  2  0  0  0
  2  3  2  0  0  0
  3  4  1  0  0  0
  4  5  2  0  0  0
  5  6  1  0  0  0
  5 10  1  0  0  0
  6  7  2  0  0  0
  7 28  1  0  0  0
  7  8  1  0  0  0
 28 29  1  0  0  0
 29 30  1  0  0  0
 30 31  1  0  0  0
 31 32  1  0  0  0
 32 33  1  0  0  0
 32 36  1  0  0  0
 33 34  1  0  0  0
 34 35  1  0  0  0
 35 36  1  0  0  0
  8 26  1  0  0  0
  8  9  2  0  0  0
 26 27  1  0  0  0
  9 10  1  0  0  0
 18 19  1  0  0  0
 19 20  2  0  0  0
M  END
> <minimizedAffinity>
-7.53708

$$$$
