CHEMBL3958721


 37 41  0  0  0  0  0  0  0  0999 V2000
  -14.7050    0.0006  -13.3739 C   0  0  0  0  0  0  0  0  0  0  0  0
  -15.5127    0.9665  -13.9696 C   0  0  0  0  0  0  0  0  0  0  0  0
  -15.0851    1.6706  -15.1069 C   0  0  0  0  0  0  0  0  0  0  0  0
  -15.9170    2.5728  -15.7978 C   0  0  0  0  0  0  0  0  0  0  0  0
  -15.5868    3.0281  -17.0121 N   0  0  0  0  0  0  0  0  0  0  0  0
  -14.3916    2.6464  -17.4789 C   0  0  0  0  0  0  0  0  0  0  0  0
  -13.4674    1.9195  -16.8294 N   0  0  0  0  0  0  0  0  0  0  0  0
  -13.8174    1.4200  -15.6286 C   0  0  0  0  0  0  0  0  0  0  0  0
  -12.9437    0.6412  -14.8565 C   0  0  0  0  0  0  0  0  0  0  0  0
  -13.3486   -0.0314  -13.6843 C   0  0  0  0  0  0  0  0  0  0  0  0
  -15.8567   -2.0228  -13.2892 C   0  0  0  0  0  0  0  0  0  0  0  0
  -15.2734   -0.9341  -12.5459 O   0  0  0  0  0  0  0  0  0  0  0  0
  -17.1189    2.9912  -15.1535 N   0  0  0  0  0  0  0  0  0  0  0  0
  -17.2219    3.9914  -15.2974 H   0  0  0  0  0  0  0  0  0  0  0  0
  -18.3704    2.3554  -15.0413 C   0  0  0  0  0  0  0  0  0  0  0  0
  -18.5561    0.9949  -15.2793 C   0  0  0  0  0  0  0  0  0  0  0  0
  -19.8067    0.3940  -15.0898 C   0  0  0  0  0  0  0  0  0  0  0  0
  -20.8837    1.1446  -14.6170 C   0  0  0  0  0  0  0  0  0  0  0  0
  -22.5411    0.2515  -14.3802 Br  0  0  0  0  0  0  0  0  0  0  0  0
  -20.7050    2.4986  -14.3284 C   0  0  0  0  0  0  0  0  0  0  0  0
  -21.9759    3.5015  -13.7194 Cl  0  0  0  0  0  0  0  0  0  0  0  0
  -19.4516    3.0919  -14.5277 C   0  0  0  0  0  0  0  0  0  0  0  0
  -12.3347   -0.6450  -12.9906 O   0  0  0  0  0  0  0  0  0  0  0  0
  -11.8389   -1.9351  -13.3942 C   0  0  0  0  0  0  0  0  0  0  0  0
  -12.4999   -2.5743  -14.6207 C   0  0  0  0  0  0  0  0  0  0  0  0
  -12.9145   -3.9184  -14.3449 O   0  0  0  0  0  0  0  0  0  0  0  0
  -12.5598   -4.2484  -13.0050 C   0  0  0  0  0  0  0  0  0  0  0  0
  -13.8195   -4.6198  -12.2089 C   0  0  0  0  0  0  0  0  0  0  0  0
  -13.5779   -3.9260  -10.8744 C   0  0  0  0  0  0  0  0  0  0  0  0
  -12.9083   -2.6990  -11.2288 O   0  0  0  0  0  0  0  0  0  0  0  0
  -12.0078   -3.0090  -12.3069 C   0  0  0  0  0  0  0  0  0  0  0  0
  -14.2564   -6.0179  -12.1979 N   0  0  0  0  0  0  0  0  0  0  0  0
  -14.4380   -6.2959  -11.2364 H   0  0  0  0  0  0  0  0  0  0  0  0
  -15.4820   -6.3094  -12.8861 C   0  0  0  0  0  0  0  0  0  0  0  0
  -16.5823   -6.0801  -12.1448 F   0  0  0  0  0  0  0  0  0  0  0  0
  -15.5710   -5.5781  -14.0131 F   0  0  0  0  0  0  0  0  0  0  0  0
  -15.4795   -7.6129  -13.2311 F   0  0  0  0  0  0  0  0  0  0  0  0
 11 12  1  0  0  0
 12  1  1  0  0  0
  1  2  1  0  0  0
  1 10  2  0  0  0
  2  3  2  0  0  0
  3  4  1  0  0  0
  3  8  1  0  0  0
  4 13  1  0  0  0
  4  5  2  0  0  0
 13 15  1  0  0  0
 13 14  1  0  0  0
 15 16  1  0  0  0
 15 22  2  0  0  0
 16 17  2  0  0  0
 17 18  1  0  0  0
 18 19  1  0  0  0
 18 20  2  0  0  0
 20 21  1  0  0  0
 20 22  1  0  0  0
  5  6  1  0  0  0
  6  7  2  0  0  0
  7  8  1  0  0  0
  8  9  2  0  0  0
  9 10  1  0  0  0
 10 23  1  0  0  0
 23 24  1  0  0  0
 24 25  1  0  0  0
 24 31  1  0  0  0
 25 26  1  0  0  0
 26 27  1  0  0  0
 27 28  1  0  0  0
 27 31  1  0  0  0
 28 32  1  0  0  0
 28 29  1  0  0  0
 32 34  1  0  0  0
 32 33  1  0  0  0
 34 35  1  0  0  0
 34 36  1  0  0  0
 34 37  1  0  0  0
 29 30  1  0  0  0
 30 31  1  0  0  0
M  END
> <minimizedAffinity>
-8.11735

$$$$
