CHEMBL206145


 33 37  0  0  0  0  0  0  0  0999 V2000
  -30.1017   -7.5721   -6.0982 C   0  0  0  0  0  0  0  0  0  0  0  0
  -31.1711   -7.4945   -6.8176 N   0  0  0  0  0  0  0  0  0  0  0  0
  -31.4253   -8.5474   -7.6560 C   0  0  0  0  0  0  0  0  0  0  0  0
  -30.7373   -9.6409   -7.7640 N   0  0  0  0  0  0  0  0  0  0  0  0
  -29.6387   -9.6856   -6.9864 N   0  0  0  0  0  0  0  0  0  0  0  0
  -28.7516  -10.7133   -6.9281 C   0  0  0  0  0  0  0  0  0  0  0  0
  -27.6931  -10.3197   -6.1358 C   0  0  0  0  0  0  0  0  0  0  0  0
  -28.0295   -9.0560   -5.5620 C   0  0  0  0  0  0  0  0  0  0  0  0
  -27.2558   -8.2621   -4.5690 C   0  0  0  0  0  0  0  0  0  0  0  0
  -29.2324   -8.6916   -6.1557 C   0  0  0  0  0  0  0  0  0  0  0  0
  -29.6767   -6.6151   -5.2017 O   0  0  0  0  0  0  0  0  0  0  0  0
  -28.2464    0.5851   -4.9147 C   0  0  0  0  0  0  0  0  0  0  0  0
  -28.3080   -0.8767   -5.1535 C   0  0  0  0  0  0  0  0  0  0  0  0
  -28.2724   -1.9395   -4.2744 C   0  0  0  0  0  0  0  0  0  0  0  0
  -28.5668   -3.1212   -5.0088 C   0  0  0  0  0  0  0  0  0  0  0  0
  -28.8040   -4.4610   -4.6578 C   0  0  0  0  0  0  0  0  0  0  0  0
  -28.7429   -4.8490   -3.3743 F   0  0  0  0  0  0  0  0  0  0  0  0
  -29.1960   -5.3658   -5.6478 C   0  0  0  0  0  0  0  0  0  0  0  0
  -29.3042   -4.9765   -6.9831 C   0  0  0  0  0  0  0  0  0  0  0  0
  -29.0216   -3.6608   -7.3615 C   0  0  0  0  0  0  0  0  0  0  0  0
  -28.6885   -2.7513   -6.3495 C   0  0  0  0  0  0  0  0  0  0  0  0
  -28.4661   -1.3947   -6.4156 N   0  0  0  0  0  0  0  0  0  0  0  0
  -28.5133   -0.8502   -7.2658 H   0  0  0  0  0  0  0  0  0  0  0  0
  -26.5344  -11.0187   -5.9529 O   0  0  0  0  0  0  0  0  0  0  0  0
  -25.6962  -10.9617   -7.1185 C   0  0  0  0  0  0  0  0  0  0  0  0
  -24.3196  -11.5899   -6.9059 C   0  0  0  0  0  0  0  0  0  0  0  0
  -23.2442  -10.5096   -6.5894 C   0  0  0  0  0  0  0  0  0  0  0  0
  -21.8393  -11.1101   -6.4622 C   0  0  0  0  0  0  0  0  0  0  0  0
  -21.7153  -12.0214   -5.2368 C   0  0  0  0  0  0  0  0  0  0  0  0
  -22.1930  -11.4222   -3.9779 N   0  0  0  0  0  0  0  0  0  0  0  0
  -22.3133  -12.4658   -2.9537 C   0  0  0  0  0  0  0  0  0  0  0  0
  -23.4641  -10.6944   -4.0842 C   0  0  0  0  0  0  0  0  0  0  0  0
  -23.4883   -9.7426   -5.2784 C   0  0  0  0  0  0  0  0  0  0  0  0
 12 13  1  0  0  0
 13 14  2  0  0  0
 13 22  1  0  0  0
 14 15  1  0  0  0
 15 16  1  0  0  0
 15 21  2  0  0  0
 16 17  1  0  0  0
 16 18  2  0  0  0
 18 11  1  0  0  0
 18 19  1  0  0  0
 11  1  1  0  0  0
  1  2  2  0  0  0
  1 10  1  0  0  0
  2  3  1  0  0  0
  3  4  2  0  0  0
  4  5  1  0  0  0
  5  6  1  0  0  0
  5 10  1  0  0  0
  6  7  2  0  0  0
  7 24  1  0  0  0
  7  8  1  0  0  0
 24 25  1  0  0  0
 25 26  1  0  0  0
 26 27  1  0  0  0
 27 28  1  0  0  0
 27 33  1  0  0  0
 28 29  1  0  0  0
 29 30  1  0  0  0
 30 31  1  0  0  0
 30 32  1  0  0  0
 32 33  1  0  0  0
  8  9  1  0  0  0
  8 10  2  0  0  0
 19 20  2  0  0  0
 20 21  1  0  0  0
 21 22  1  0  0  0
 22 23  1  0  0  0
M  END
> <minimizedAffinity>
-8.46640

$$$$
