CHEMBL148471


 26 31  0  0  0  0  0  0  0  0999 V2000
  -30.3139   -2.8238   -2.6447 O   0  0  0  0  0  0  0  0  0  0  0  0
  -30.4962   -3.6744   -3.5064 C   0  0  0  0  0  0  0  0  0  0  0  0
  -31.1416   -4.8771   -3.2337 N   0  0  0  0  0  0  0  0  0  0  0  0
  -31.2099   -5.8309   -4.3215 C   0  0  0  0  0  0  0  0  0  0  0  0
  -30.5399   -5.0535   -5.3732 C   0  0  0  0  0  0  0  0  0  0  0  0
  -30.1710   -5.5328   -6.6095 C   0  0  0  0  0  0  0  0  0  0  0  0
  -29.0682   -4.9472   -7.2338 C   0  0  0  0  0  0  0  0  0  0  0  0
  -28.8228   -3.6263   -6.9223 C   0  0  0  0  0  0  0  0  0  0  0  0
  -28.1592   -2.6170   -7.5576 N   0  0  0  0  0  0  0  0  0  0  0  0
  -28.3761   -1.4104   -6.8687 C   0  0  0  0  0  0  0  0  0  0  0  0
  -28.0360   -0.0901   -7.2188 C   0  0  0  0  0  0  0  0  0  0  0  0
  -28.3616    0.9340   -6.3179 C   0  0  0  0  0  0  0  0  0  0  0  0
  -29.0011    0.6623   -5.1127 C   0  0  0  0  0  0  0  0  0  0  0  0
  -29.3651   -0.6454   -4.7884 C   0  0  0  0  0  0  0  0  0  0  0  0
  -29.0664   -1.6952   -5.6757 C   0  0  0  0  0  0  0  0  0  0  0  0
  -29.3443   -3.0425   -5.7960 C   0  0  0  0  0  0  0  0  0  0  0  0
  -30.1095   -3.8060   -4.8741 C   0  0  0  0  0  0  0  0  0  0  0  0
  -28.2921   -6.0074   -7.9723 C   0  0  0  0  0  0  0  0  0  0  0  0
  -29.2434   -7.2034   -7.8796 C   0  0  0  0  0  0  0  0  0  0  0  0
  -29.1384   -8.4947   -8.3662 C   0  0  0  0  0  0  0  0  0  0  0  0
  -30.2608   -9.3331   -8.2728 C   0  0  0  0  0  0  0  0  0  0  0  0
  -31.4694   -8.8734   -7.7211 C   0  0  0  0  0  0  0  0  0  0  0  0
  -31.5360   -7.6077   -7.1515 C   0  0  0  0  0  0  0  0  0  0  0  0
  -30.3938   -6.8231   -7.1705 C   0  0  0  0  0  0  0  0  0  0  0  0
  -31.3756   -5.0998   -2.2791 H   0  0  0  0  0  0  0  0  0  0  0  0
  -27.7268   -2.6753   -8.4650 H   0  0  0  0  0  0  0  0  0  0  0  0
  1  2  2  0  0  0
  2  3  1  0  0  0
  2 17  1  0  0  0
  3  4  1  0  0  0
  3 25  1  0  0  0
  4  5  1  0  0  0
  5  6  1  0  0  0
  5 17  2  0  0  0
  6  7  2  0  0  0
  6 24  1  0  0  0
  7  8  1  0  0  0
  7 18  1  0  0  0
  8  9  1  0  0  0
  8 16  2  0  0  0
  9 10  1  0  0  0
  9 26  1  0  0  0
 10 11  1  0  0  0
 10 15  2  0  0  0
 11 12  2  0  0  0
 12 13  1  0  0  0
 13 14  2  0  0  0
 14 15  1  0  0  0
 15 16  1  0  0  0
 16 17  1  0  0  0
 18 19  1  0  0  0
 19 20  1  0  0  0
 19 24  2  0  0  0
 20 21  2  0  0  0
 21 22  1  0  0  0
 22 23  2  0  0  0
 23 24  1  0  0  0
M  END
> <minimizedAffinity>
-11.23335

$$$$
