CHEMBL407063


 47 51  0  0  0  0  0  0  0  0999 V2000
  -12.7383   -1.2789  -19.5485 C   0  0  0  0  0  0  0  0  0  0  0  0
  -11.5340   -1.0518  -19.5848 O   0  0  0  0  0  0  0  0  0  0  0  0
  -13.7280   -0.3254  -19.3915 N   0  0  0  0  0  0  0  0  0  0  0  0
  -14.6816   -0.6440  -19.2984 H   0  0  0  0  0  0  0  0  0  0  0  0
  -12.8806   -2.9763  -22.1624 C   0  0  0  0  0  0  0  0  0  0  0  0
  -13.2723   -3.4674  -20.7972 C   0  0  0  0  0  0  0  0  0  0  0  0
  -13.7262   -4.7916  -20.6978 C   0  0  0  0  0  0  0  0  0  0  0  0
  -14.0196   -5.3739  -19.4602 C   0  0  0  0  0  0  0  0  0  0  0  0
  -13.8777   -4.6538  -18.2772 C   0  0  0  0  0  0  0  0  0  0  0  0
  -13.4728   -3.3164  -18.3677 C   0  0  0  0  0  0  0  0  0  0  0  0
  -13.1841   -2.7087  -19.6143 C   0  0  0  0  0  0  0  0  0  0  0  0
  -14.1105   -5.2008  -16.9888 N   0  0  0  0  0  0  0  0  0  0  0  0
  -13.7978   -6.4882  -16.5754 C   0  0  0  0  0  0  0  0  0  0  0  0
  -13.3011   -7.3724  -17.2659 O   0  0  0  0  0  0  0  0  0  0  0  0
  -14.5685   -4.5887  -16.3271 H   0  0  0  0  0  0  0  0  0  0  0  0
  -14.1235   -6.8446  -15.1646 C   0  0  0  0  0  0  0  0  0  0  0  0
  -13.6222   -7.9836  -14.5328 C   0  0  0  0  0  0  0  0  0  0  0  0
  -14.0205   -8.2659  -13.2281 C   0  0  0  0  0  0  0  0  0  0  0  0
  -13.5492   -9.3642  -12.6249 F   0  0  0  0  0  0  0  0  0  0  0  0
  -14.9033   -7.4392  -12.5360 C   0  0  0  0  0  0  0  0  0  0  0  0
  -15.4159   -6.2925  -13.1527 C   0  0  0  0  0  0  0  0  0  0  0  0
  -15.0264   -6.0126  -14.4743 C   0  0  0  0  0  0  0  0  0  0  0  0
  -16.3585   -5.3621  -12.4285 C   0  0  0  0  0  0  0  0  0  0  0  0
  -17.6510   -5.7894  -12.4341 F   0  0  0  0  0  0  0  0  0  0  0  0
  -16.0222   -5.2100  -11.1180 F   0  0  0  0  0  0  0  0  0  0  0  0
  -16.3743   -4.1112  -12.9619 F   0  0  0  0  0  0  0  0  0  0  0  0
  -13.5272    1.0674  -19.2559 C   0  0  0  0  0  0  0  0  0  0  0  0
  -12.8479    1.8751  -20.1385 C   0  0  0  0  0  0  0  0  0  0  0  0
  -12.6557    3.1943  -19.9432 N   0  0  0  0  0  0  0  0  0  0  0  0
  -13.1471    3.7562  -18.8257 C   0  0  0  0  0  0  0  0  0  0  0  0
  -13.8289    3.0645  -17.9021 N   0  0  0  0  0  0  0  0  0  0  0  0
  -14.0101    1.7437  -18.1491 C   0  0  0  0  0  0  0  0  0  0  0  0
  -12.9189    5.1122  -18.5837 N   0  0  0  0  0  0  0  0  0  0  0  0
  -12.3673    5.2455  -17.7496 H   0  0  0  0  0  0  0  0  0  0  0  0
  -13.7711    6.1744  -18.9271 C   0  0  0  0  0  0  0  0  0  0  0  0
  -14.8515    5.9944  -19.7916 C   0  0  0  0  0  0  0  0  0  0  0  0
  -15.6301    7.0751  -20.1992 C   0  0  0  0  0  0  0  0  0  0  0  0
  -15.3645    8.3825  -19.7740 C   0  0  0  0  0  0  0  0  0  0  0  0
  -14.3191    8.5478  -18.8576 C   0  0  0  0  0  0  0  0  0  0  0  0
  -13.5352    7.4579  -18.4331 C   0  0  0  0  0  0  0  0  0  0  0  0
  -16.1599    9.4117  -20.2385 N   0  0  0  0  0  0  0  0  0  0  0  0
  -15.7255   10.8121  -20.2151 C   0  0  0  0  0  0  0  0  0  0  0  0
  -16.9829   11.7156  -20.1220 C   0  0  0  0  0  0  0  0  0  0  0  0
  -17.9585   11.4752  -21.2144 N   0  0  0  0  0  0  0  0  0  0  0  0
  -19.1573   12.2871  -21.0194 C   0  0  0  0  0  0  0  0  0  0  0  0
  -18.3168   10.0368  -21.2470 C   0  0  0  0  0  0  0  0  0  0  0  0
  -17.0799    9.1187  -21.3568 C   0  0  0  0  0  0  0  0  0  0  0  0
  5  6  1  0  0  0
  6  7  1  0  0  0
  6 11  2  0  0  0
  7  8  2  0  0  0
  8  9  1  0  0  0
  9 12  1  0  0  0
  9 10  2  0  0  0
 12 13  1  0  0  0
 12 15  1  0  0  0
 13 14  2  0  0  0
 13 16  1  0  0  0
 16 17  1  0  0  0
 16 22  2  0  0  0
 17 18  2  0  0  0
 18 19  1  0  0  0
 18 20  1  0  0  0
 20 21  2  0  0  0
 21 23  1  0  0  0
 21 22  1  0  0  0
 23 24  1  0  0  0
 23 25  1  0  0  0
 23 26  1  0  0  0
 10 11  1  0  0  0
 11  1  1  0  0  0
  1  2  2  0  0  0
  1  3  1  0  0  0
  3 27  1  0  0  0
  3  4  1  0  0  0
 27 28  1  0  0  0
 27 32  2  0  0  0
 28 29  2  0  0  0
 29 30  1  0  0  0
 30 33  1  0  0  0
 30 31  2  0  0  0
 33 35  1  0  0  0
 33 34  1  0  0  0
 35 36  1  0  0  0
 35 40  2  0  0  0
 36 37  2  0  0  0
 37 38  1  0  0  0
 38 41  1  0  0  0
 38 39  2  0  0  0
 41 42  1  0  0  0
 41 47  1  0  0  0
 42 43  1  0  0  0
 43 44  1  0  0  0
 44 45  1  0  0  0
 44 46  1  0  0  0
 46 47  1  0  0  0
 39 40  1  0  0  0
 31 32  1  0  0  0
M  END
> <minimizedAffinity>
-7.64511

$$$$
