CHEMBL3934487


 36 41  0  0  0  0  0  0  0  0999 V2000
  -28.2030  -10.0775   -5.3204 N   0  0  0  0  0  0  0  0  0  0  0  0
  -28.8086   -8.7673   -5.4621 C   0  0  0  0  0  0  0  0  0  0  0  0
  -29.9318   -8.7216   -6.2878 C   0  0  0  0  0  0  0  0  0  0  0  0
  -30.2709   -7.5599   -6.9540 C   0  0  0  0  0  0  0  0  0  0  0  0
  -29.5974   -6.3870   -6.7171 C   0  0  0  0  0  0  0  0  0  0  0  0
  -29.9248   -5.4128   -7.5847 N   0  0  0  0  0  0  0  0  0  0  0  0
  -29.4221   -4.2029   -7.3308 C   0  0  0  0  0  0  0  0  0  0  0  0
  -28.6793   -3.9402   -6.1953 C   0  0  0  0  0  0  0  0  0  0  0  0
  -28.2503   -4.9563   -5.3679 N   0  0  0  0  0  0  0  0  0  0  0  0
  -28.6768   -6.2559   -5.6619 C   0  0  0  0  0  0  0  0  0  0  0  0
  -28.2602   -7.5094   -5.0683 C   0  0  0  0  0  0  0  0  0  0  0  0
  -28.5036   -2.5310   -5.8756 C   0  0  0  0  0  0  0  0  0  0  0  0
  -27.4116   -1.8839   -5.2319 C   0  0  0  0  0  0  0  0  0  0  0  0
  -27.6954   -0.6328   -4.8491 N   0  0  0  0  0  0  0  0  0  0  0  0
  -28.9720   -0.4715   -5.2354 N   0  0  0  0  0  0  0  0  0  0  0  0
  -29.5724    0.8420   -5.2528 C   0  0  0  0  0  0  0  0  0  0  0  0
  -29.5418   -1.6298   -5.6901 C   0  0  0  0  0  0  0  0  0  0  0  0
  -24.4767  -10.0773   -5.0308 C   0  0  0  0  0  0  0  0  0  0  0  0
  -24.2945  -10.6935   -3.7984 C   0  0  0  0  0  0  0  0  0  0  0  0
  -25.3986  -11.1878   -3.1074 C   0  0  0  0  0  0  0  0  0  0  0  0
  -26.6796  -11.0736   -3.6648 C   0  0  0  0  0  0  0  0  0  0  0  0
  -26.9128  -10.4121   -4.8730 C   0  0  0  0  0  0  0  0  0  0  0  0
  -25.7764   -9.9448   -5.5673 C   0  0  0  0  0  0  0  0  0  0  0  0
  -22.5442  -10.4316   -6.4076 C   0  0  0  0  0  0  0  0  0  0  0  0
  -23.4611   -9.5291   -5.7910 O   0  0  0  0  0  0  0  0  0  0  0  0
  -25.3762  -11.7673   -1.8663 O   0  0  0  0  0  0  0  0  0  0  0  0
  -24.1303  -12.2808   -1.4130 C   0  0  0  0  0  0  0  0  0  0  0  0
  -28.9260  -11.0093   -6.2740 C   0  0  0  0  0  0  0  0  0  0  0  0
  -28.2616  -11.6998   -7.4912 C   0  0  0  0  0  0  0  0  0  0  0  0
  -29.0125  -11.8888   -8.7619 N   0  0  0  0  0  0  0  0  0  0  0  0
  -27.9987  -12.0848   -9.8663 C   0  0  0  0  0  0  0  0  0  0  0  0
  -28.0927  -10.6136  -10.1608 C   0  0  0  0  0  0  0  0  0  0  0  0
  -27.0007   -9.6730   -9.7538 C   0  0  0  0  0  0  0  0  0  0  0  0
  -26.6506   -9.4683  -11.1535 O   0  0  0  0  0  0  0  0  0  0  0  0
  -27.8860  -10.1414  -11.5605 C   0  0  0  0  0  0  0  0  0  0  0  0
  -29.3936  -10.5859   -9.4199 C   0  0  0  0  0  0  0  0  0  0  0  0
 24 25  1  0  0  0
 25 18  1  0  0  0
 18 19  1  0  0  0
 18 23  2  0  0  0
 19 20  2  0  0  0
 20 26  1  0  0  0
 20 21  1  0  0  0
 26 27  1  0  0  0
 21 22  2  0  0  0
 22  1  1  0  0  0
 22 23  1  0  0  0
  1 28  1  0  0  0
  1  2  1  0  0  0
 28 29  1  0  0  0
 29 30  1  0  0  0
 30 31  1  0  0  0
 30 36  1  0  0  0
 31 32  1  0  0  0
 32 33  1  0  0  0
 32 35  1  0  0  0
 32 36  1  0  0  0
 33 34  1  0  0  0
 34 35  1  0  0  0
  2  3  1  0  0  0
  2 11  2  0  0  0
  3  4  2  0  0  0
  4  5  1  0  0  0
  5  6  1  0  0  0
  5 10  2  0  0  0
  6  7  2  0  0  0
  7  8  1  0  0  0
  8 12  1  0  0  0
  8  9  2  0  0  0
 12 13  1  0  0  0
 12 17  2  0  0  0
 13 14  2  0  0  0
 14 15  1  0  0  0
 15 16  1  0  0  0
 15 17  1  0  0  0
  9 10  1  0  0  0
 10 11  1  0  0  0
M  END
> <minimizedAffinity>
-8.21936

$$$$
