CHEMBL3973966


 47 49  0  0  0  0  0  0  0  0999 V2000
  -29.0821   -6.9505   -3.7951 O   0  0  0  0  0  0  0  0  0  0  0  0
  -26.5564   -9.5352   -4.5719 C   0  0  0  0  0  0  0  0  0  0  0  0
  -27.0745   -8.2852   -4.2546 C   0  0  0  0  0  0  0  0  0  0  0  0
  -28.4604   -8.1381   -4.1495 C   0  0  0  0  0  0  0  0  0  0  0  0
  -29.2753   -9.2294   -4.4316 C   0  0  0  0  0  0  0  0  0  0  0  0
  -28.6670  -10.4381   -4.7465 C   0  0  0  0  0  0  0  0  0  0  0  0
  -27.3279  -10.6262   -4.8178 N   0  0  0  0  0  0  0  0  0  0  0  0
  -24.5076   -9.6187   -5.9181 N   0  0  0  0  0  0  0  0  0  0  0  0
  -25.0670   -9.7072   -4.6551 C   0  0  0  0  0  0  0  0  0  0  0  0
  -24.4028   -9.9009   -3.6458 O   0  0  0  0  0  0  0  0  0  0  0  0
  -25.1051   -9.3666   -6.7004 H   0  0  0  0  0  0  0  0  0  0  0  0
  -23.0852   -9.7860   -6.1177 C   0  0  0  0  0  0  0  0  0  0  0  0
  -22.7593  -10.9209   -7.0877 C   0  0  0  0  0  0  0  0  0  0  0  0
  -23.8695  -11.9730   -7.1033 C   0  0  0  0  0  0  0  0  0  0  0  0
  -24.6033  -11.9859   -8.4397 C   0  0  0  0  0  0  0  0  0  0  0  0
  -26.0874  -11.6713   -8.2523 C   0  0  0  0  0  0  0  0  0  0  0  0
  -26.5249  -10.5612   -9.2040 C   0  0  0  0  0  0  0  0  0  0  0  0
  -27.9884  -10.1739   -9.0073 C   0  0  0  0  0  0  0  0  0  0  0  0
  -29.2120   -8.1132   -8.5230 O   0  0  0  0  0  0  0  0  0  0  0  0
  -28.1608   -8.6567   -8.9177 C   0  0  0  0  0  0  0  0  0  0  0  0
  -27.0723   -7.9335   -9.3058 N   0  0  0  0  0  0  0  0  0  0  0  0
  -27.0454   -6.5265   -9.2919 O   0  0  0  0  0  0  0  0  0  0  0  0
  -26.2166   -8.3878   -9.6122 H   0  0  0  0  0  0  0  0  0  0  0  0
  -27.9190   -6.2414   -8.9586 H   0  0  0  0  0  0  0  0  0  0  0  0
  -28.9121   -5.8480   -4.6106 C   0  0  0  0  0  0  0  0  0  0  0  0
  -29.5226   -5.8260   -5.8547 C   0  0  0  0  0  0  0  0  0  0  0  0
  -29.3454   -4.7170   -6.6974 C   0  0  0  0  0  0  0  0  0  0  0  0
  -28.6097   -3.5894   -6.3487 C   0  0  0  0  0  0  0  0  0  0  0  0
  -28.0543   -3.5914   -5.0387 C   0  0  0  0  0  0  0  0  0  0  0  0
  -28.1993   -4.7177   -4.2031 C   0  0  0  0  0  0  0  0  0  0  0  0
  -28.4009   -2.4635   -7.2330 N   0  0  0  0  0  0  0  0  0  0  0  0
  -27.8439   -2.5899   -8.4925 C   0  0  0  0  0  0  0  0  0  0  0  0
  -27.4880   -3.6777   -8.9860 O   0  0  0  0  0  0  0  0  0  0  0  0
  -27.6962   -1.4347   -9.2348 N   0  0  0  0  0  0  0  0  0  0  0  0
  -28.6265   -1.5546   -6.8837 H   0  0  0  0  0  0  0  0  0  0  0  0
  -27.6169   -0.5631   -8.7267 H   0  0  0  0  0  0  0  0  0  0  0  0
  -27.0810   -1.5086  -10.5245 C   0  0  0  0  0  0  0  0  0  0  0  0
  -27.8551   -1.3871  -11.6785 C   0  0  0  0  0  0  0  0  0  0  0  0
  -27.2669   -1.4435  -12.9482 C   0  0  0  0  0  0  0  0  0  0  0  0
  -25.8901   -1.6167  -13.0877 C   0  0  0  0  0  0  0  0  0  0  0  0
  -25.3156   -1.7656  -14.7160 Cl  0  0  0  0  0  0  0  0  0  0  0  0
  -25.0707   -1.6854  -11.9506 C   0  0  0  0  0  0  0  0  0  0  0  0
  -25.6912   -1.6809  -10.6691 C   0  0  0  0  0  0  0  0  0  0  0  0
  -23.5679   -1.6482  -12.0545 C   0  0  0  0  0  0  0  0  0  0  0  0
  -23.0521   -2.5739  -12.9061 F   0  0  0  0  0  0  0  0  0  0  0  0
  -23.1117   -0.4530  -12.5261 F   0  0  0  0  0  0  0  0  0  0  0  0
  -22.9142   -1.8495  -10.8753 F   0  0  0  0  0  0  0  0  0  0  0  0
 19 20  2  0  0  0
 20 18  1  0  0  0
 20 21  1  0  0  0
 18 17  1  0  0  0
 17 16  1  0  0  0
 16 15  1  0  0  0
 15 14  1  0  0  0
 14 13  1  0  0  0
 13 12  1  0  0  0
 12  8  1  0  0  0
  8  9  1  0  0  0
  8 11  1  0  0  0
  9 10  2  0  0  0
  9  2  1  0  0  0
  2  3  1  0  0  0
  2  7  2  0  0  0
  3  4  2  0  0  0
  4  1  1  0  0  0
  4  5  1  0  0  0
  1 25  1  0  0  0
 25 26  1  0  0  0
 25 30  2  0  0  0
 26 27  2  0  0  0
 27 28  1  0  0  0
 28 31  1  0  0  0
 28 29  2  0  0  0
 31 32  1  0  0  0
 31 35  1  0  0  0
 32 33  2  0  0  0
 32 34  1  0  0  0
 34 37  1  0  0  0
 34 36  1  0  0  0
 37 38  1  0  0  0
 37 43  2  0  0  0
 38 39  2  0  0  0
 39 40  1  0  0  0
 40 41  1  0  0  0
 40 42  2  0  0  0
 42 44  1  0  0  0
 42 43  1  0  0  0
 44 45  1  0  0  0
 44 46  1  0  0  0
 44 47  1  0  0  0
 29 30  1  0  0  0
  5  6  2  0  0  0
  6  7  1  0  0  0
 21 22  1  0  0  0
 21 23  1  0  0  0
 22 24  1  0  0  0
M  END
> <minimizedAffinity>
-9.41588

$$$$
