CHEMBL196636


 36 39  0  0  0  0  0  0  0  0999 V2000
  -29.5862   -6.2372   -4.7403 C   0  0  0  0  0  0  0  0  0  0  0  0
  -29.4342   -7.2027   -3.7486 C   0  0  0  0  0  0  0  0  0  0  0  0
  -28.7436   -8.3855   -3.9923 C   0  0  0  0  0  0  0  0  0  0  0  0
  -28.3370   -8.7440   -5.2774 C   0  0  0  0  0  0  0  0  0  0  0  0
  -28.6538   -7.8484   -6.3109 C   0  0  0  0  0  0  0  0  0  0  0  0
  -29.2303   -6.5852   -6.0437 C   0  0  0  0  0  0  0  0  0  0  0  0
  -27.5796  -10.0001   -5.4990 C   0  0  0  0  0  0  0  0  0  0  0  0
  -28.1768  -11.1236   -6.1000 C   0  0  0  0  0  0  0  0  0  0  0  0
  -27.1140  -12.4656   -6.1235 S   0  0  0  0  0  0  0  0  0  0  0  0
  -25.8501  -11.5879   -5.4319 C   0  0  0  0  0  0  0  0  0  0  0  0
  -24.6695  -12.1987   -5.2416 N   0  0  0  0  0  0  0  0  0  0  0  0
  -23.7736  -11.4053   -4.6653 C   0  0  0  0  0  0  0  0  0  0  0  0
  -23.9554  -10.1435   -4.2636 N   0  0  0  0  0  0  0  0  0  0  0  0
  -25.1592   -9.5682   -4.4524 C   0  0  0  0  0  0  0  0  0  0  0  0
  -25.2595   -8.2792   -3.9409 N   0  0  0  0  0  0  0  0  0  0  0  0
  -26.1930  -10.2854   -5.0989 C   0  0  0  0  0  0  0  0  0  0  0  0
  -24.4538   -8.0937   -3.3521 H   0  0  0  0  0  0  0  0  0  0  0  0
  -26.1543   -8.0922   -3.5042 H   0  0  0  0  0  0  0  0  0  0  0  0
  -29.5920  -11.3060   -6.6373 C   0  0  0  0  0  0  0  0  0  0  0  0
  -29.7380  -11.5898   -8.1403 C   0  0  0  0  0  0  0  0  0  0  0  0
  -28.8312  -10.7817   -8.9898 N   0  0  0  0  0  0  0  0  0  0  0  0
  -28.2834  -11.5390  -10.1146 C   0  0  0  0  0  0  0  0  0  0  0  0
  -29.5509   -9.6061   -9.4909 C   0  0  0  0  0  0  0  0  0  0  0  0
  -29.9829   -2.6076   -4.4699 N   0  0  0  0  0  0  0  0  0  0  0  0
  -29.5329   -3.7974   -5.0234 C   0  0  0  0  0  0  0  0  0  0  0  0
  -28.7296   -3.8471   -5.9487 O   0  0  0  0  0  0  0  0  0  0  0  0
  -30.0671   -4.9338   -4.4287 N   0  0  0  0  0  0  0  0  0  0  0  0
  -30.7375   -2.6500   -3.8020 H   0  0  0  0  0  0  0  0  0  0  0  0
  -30.9984   -4.8650   -4.0448 H   0  0  0  0  0  0  0  0  0  0  0  0
  -30.8209    1.8211   -6.5554 C   0  0  0  0  0  0  0  0  0  0  0  0
  -29.9056    0.8659   -5.8513 C   0  0  0  0  0  0  0  0  0  0  0  0
  -28.5922    1.2529   -5.5658 C   0  0  0  0  0  0  0  0  0  0  0  0
  -27.7394    0.3804   -4.9069 C   0  0  0  0  0  0  0  0  0  0  0  0
  -28.1897   -0.8855   -4.5359 C   0  0  0  0  0  0  0  0  0  0  0  0
  -29.4957   -1.3153   -4.8228 C   0  0  0  0  0  0  0  0  0  0  0  0
  -30.3524   -0.4190   -5.4693 C   0  0  0  0  0  0  0  0  0  0  0  0
 30 31  1  0  0  0
 31 32  1  0  0  0
 31 36  2  0  0  0
 32 33  2  0  0  0
 33 34  1  0  0  0
 34 35  2  0  0  0
 35 24  1  0  0  0
 35 36  1  0  0  0
 24 25  1  0  0  0
 24 28  1  0  0  0
 25 26  2  0  0  0
 25 27  1  0  0  0
 27  1  1  0  0  0
 27 29  1  0  0  0
  1  2  1  0  0  0
  1  6  2  0  0  0
  2  3  2  0  0  0
  3  4  1  0  0  0
  4  7  1  0  0  0
  4  5  2  0  0  0
  7  8  2  0  0  0
  7 16  1  0  0  0
  8 19  1  0  0  0
  8  9  1  0  0  0
 19 20  1  0  0  0
 20 21  1  0  0  0
 21 22  1  0  0  0
 21 23  1  0  0  0
  9 10  1  0  0  0
 10 11  1  0  0  0
 10 16  2  0  0  0
 11 12  2  0  0  0
 12 13  1  0  0  0
 13 14  2  0  0  0
 14 15  1  0  0  0
 14 16  1  0  0  0
 15 17  1  0  0  0
 15 18  1  0  0  0
  5  6  1  0  0  0
M  END
> <minimizedAffinity>
-8.15945

$$$$
