CHEMBL3690526


 35 38  0  0  0  0  0  0  0  0999 V2000
  -30.0791   -7.0115   -5.8019 C   0  0  0  0  0  0  0  0  0  0  0  0
  -28.7602   -6.9615   -5.1209 C   0  0  0  0  0  0  0  0  0  0  0  0
  -28.2467   -5.7688   -4.7392 C   0  0  0  0  0  0  0  0  0  0  0  0
  -29.0755   -4.6411   -4.8172 N   0  0  0  0  0  0  0  0  0  0  0  0
  -28.9726   -3.3282   -4.3156 C   0  0  0  0  0  0  0  0  0  0  0  0
  -29.9824   -3.4933   -3.3545 C   0  0  0  0  0  0  0  0  0  0  0  0
  -31.0209   -4.2101   -3.9311 N   0  0  0  0  0  0  0  0  0  0  0  0
  -30.4474   -4.8266   -4.9529 C   0  0  0  0  0  0  0  0  0  0  0  0
  -30.8658   -5.9120   -5.7550 C   0  0  0  0  0  0  0  0  0  0  0  0
  -31.8727  -11.3810   -8.8229 N   0  0  0  0  0  0  0  0  0  0  0  0
  -31.4962  -10.3713   -7.9368 C   0  0  0  0  0  0  0  0  0  0  0  0
  -30.2407  -10.3120   -7.3654 C   0  0  0  0  0  0  0  0  0  0  0  0
  -29.7817   -9.2779   -6.6294 N   0  0  0  0  0  0  0  0  0  0  0  0
  -30.6041   -8.2174   -6.4975 C   0  0  0  0  0  0  0  0  0  0  0  0
  -31.8359   -8.1436   -7.0295 N   0  0  0  0  0  0  0  0  0  0  0  0
  -32.2316   -9.2128   -7.7596 C   0  0  0  0  0  0  0  0  0  0  0  0
  -31.4178  -12.2760   -8.6639 H   0  0  0  0  0  0  0  0  0  0  0  0
  -32.8751  -11.4788   -8.9557 H   0  0  0  0  0  0  0  0  0  0  0  0
  -28.9743   -2.1072   -5.2014 C   0  0  0  0  0  0  0  0  0  0  0  0
  -29.5357   -0.8991   -4.7732 C   0  0  0  0  0  0  0  0  0  0  0  0
  -29.2706    0.2861   -5.4634 C   0  0  0  0  0  0  0  0  0  0  0  0
  -28.4577    0.2843   -6.5994 C   0  0  0  0  0  0  0  0  0  0  0  0
  -27.9206   -0.9029   -7.0908 C   0  0  0  0  0  0  0  0  0  0  0  0
  -28.1995   -2.0932   -6.3924 C   0  0  0  0  0  0  0  0  0  0  0  0
  -27.0869   -0.9605   -8.2399 N   0  0  0  0  0  0  0  0  0  0  0  0
  -27.3579   -1.6182   -9.4164 C   0  0  0  0  0  0  0  0  0  0  0  0
  -28.3743   -2.2384   -9.7025 O   0  0  0  0  0  0  0  0  0  0  0  0
  -26.2976   -1.5873  -10.3037 N   0  0  0  0  0  0  0  0  0  0  0  0
  -26.1909   -0.5025   -8.1746 H   0  0  0  0  0  0  0  0  0  0  0  0
  -25.7324   -0.7521  -10.2936 H   0  0  0  0  0  0  0  0  0  0  0  0
  -26.4378   -2.2837  -11.5919 C   0  0  0  0  0  0  0  0  0  0  0  0
  -26.0422   -1.4866  -12.8448 C   0  0  0  0  0  0  0  0  0  0  0  0
  -27.0580   -1.4001  -13.7334 F   0  0  0  0  0  0  0  0  0  0  0  0
  -25.7164   -0.2141  -12.5007 F   0  0  0  0  0  0  0  0  0  0  0  0
  -24.9722   -2.0150  -13.4738 F   0  0  0  0  0  0  0  0  0  0  0  0
 10 11  1  0  0  0
 10 17  1  0  0  0
 10 18  1  0  0  0
 11 12  1  0  0  0
 11 16  2  0  0  0
 12 13  2  0  0  0
 13 14  1  0  0  0
 14  1  1  0  0  0
 14 15  2  0  0  0
  1  2  1  0  0  0
  1  9  2  0  0  0
  2  3  2  0  0  0
  3  4  1  0  0  0
  4  5  1  0  0  0
  4  8  1  0  0  0
  5 19  1  0  0  0
  5  6  2  0  0  0
 19 20  1  0  0  0
 19 24  2  0  0  0
 20 21  2  0  0  0
 21 22  1  0  0  0
 22 23  2  0  0  0
 23 25  1  0  0  0
 23 24  1  0  0  0
 25 26  1  0  0  0
 25 29  1  0  0  0
 26 27  2  0  0  0
 26 28  1  0  0  0
 28 31  1  0  0  0
 28 30  1  0  0  0
 31 32  1  0  0  0
 32 33  1  0  0  0
 32 34  1  0  0  0
 32 35  1  0  0  0
  6  7  1  0  0  0
  7  8  2  0  0  0
  8  9  1  0  0  0
 15 16  1  0  0  0
M  END
> <minimizedAffinity>
-9.64857

$$$$
