CHEMBL4241638


 21 23  0  0  0  0  0  0  0  0999 V2000
  -29.8389   -4.5586   -4.0896 N   0  0  0  0  0  0  0  0  0  0  0  0
  -29.3853   -5.8430   -4.4700 C   0  0  0  0  0  0  0  0  0  0  0  0
  -29.0831   -6.7405   -3.4787 N   0  0  0  0  0  0  0  0  0  0  0  0
  -28.7304   -7.9956   -3.7842 C   0  0  0  0  0  0  0  0  0  0  0  0
  -28.6145   -8.5343   -4.9927 N   0  0  0  0  0  0  0  0  0  0  0  0
  -28.8473   -7.6333   -5.9528 C   0  0  0  0  0  0  0  0  0  0  0  0
  -28.7594   -7.9680   -7.2659 O   0  0  0  0  0  0  0  0  0  0  0  0
  -28.9897   -6.8487   -7.9811 C   0  0  0  0  0  0  0  0  0  0  0  0
  -29.2107   -5.7655   -7.1552 C   0  0  0  0  0  0  0  0  0  0  0  0
  -29.3917   -4.3811   -7.6576 C   0  0  0  0  0  0  0  0  0  0  0  0
  -29.1927   -6.2912   -5.8062 C   0  0  0  0  0  0  0  0  0  0  0  0
  -29.2379   -3.3201   -4.3967 C   0  0  0  0  0  0  0  0  0  0  0  0
  -27.8583   -3.2116   -4.6299 C   0  0  0  0  0  0  0  0  0  0  0  0
  -27.2920   -2.0395   -5.1440 C   0  0  0  0  0  0  0  0  0  0  0  0
  -28.0934   -0.9347   -5.4129 C   0  0  0  0  0  0  0  0  0  0  0  0
  -29.4447   -0.9840   -5.0759 C   0  0  0  0  0  0  0  0  0  0  0  0
  -30.0077   -2.1590   -4.5626 C   0  0  0  0  0  0  0  0  0  0  0  0
  -27.6851    0.2227   -6.0141 O   0  0  0  0  0  0  0  0  0  0  0  0
  -28.7098    1.0781   -6.5072 C   0  0  0  0  0  0  0  0  0  0  0  0
  -32.0430   -5.6754   -3.9380 C   0  0  0  0  0  0  0  0  0  0  0  0
  -31.1747   -4.5143   -3.4632 C   0  0  0  0  0  0  0  0  0  0  0  0
 20 21  1  0  0  0
 21  1  1  0  0  0
  1 12  1  0  0  0
  1  2  1  0  0  0
 12 13  1  0  0  0
 12 17  2  0  0  0
 13 14  2  0  0  0
 14 15  1  0  0  0
 15 18  1  0  0  0
 15 16  2  0  0  0
 18 19  1  0  0  0
 16 17  1  0  0  0
  2  3  1  0  0  0
  2 11  2  0  0  0
  3  4  2  0  0  0
  4  5  1  0  0  0
  5  6  2  0  0  0
  6  7  1  0  0  0
  6 11  1  0  0  0
  7  8  1  0  0  0
  8  9  2  0  0  0
  9 10  1  0  0  0
  9 11  1  0  0  0
M  END
> <minimizedAffinity>
-7.00870

$$$$
