CHEMBL459729


 39 43  0  0  0  0  0  0  0  0999 V2000
  -31.5767   -5.6893   -3.5787 C   0  0  0  0  0  0  0  0  0  0  0  0
  -30.6349   -5.3729   -4.7026 C   0  0  0  0  0  0  0  0  0  0  0  0
  -29.8638   -4.1817   -4.7063 C   0  0  0  0  0  0  0  0  0  0  0  0
  -28.9659   -3.8785   -5.7443 C   0  0  0  0  0  0  0  0  0  0  0  0
  -28.8822   -4.7438   -6.8572 C   0  0  0  0  0  0  0  0  0  0  0  0
  -29.6118   -5.9279   -6.8207 C   0  0  0  0  0  0  0  0  0  0  0  0
  -29.6918   -6.9884   -7.6876 N   0  0  0  0  0  0  0  0  0  0  0  0
  -30.4183   -7.9833   -7.0817 C   0  0  0  0  0  0  0  0  0  0  0  0
  -30.9512   -7.5440   -5.9552 N   0  0  0  0  0  0  0  0  0  0  0  0
  -30.4486   -6.2745   -5.7711 C   0  0  0  0  0  0  0  0  0  0  0  0
  -29.2222   -7.0625   -8.5774 H   0  0  0  0  0  0  0  0  0  0  0  0
  -30.4555   -9.2591   -7.6994 C   0  0  0  0  0  0  0  0  0  0  0  0
  -29.3288   -9.9875   -7.9300 C   0  0  0  0  0  0  0  0  0  0  0  0
  -29.4741  -11.3073   -8.5436 C   0  0  0  0  0  0  0  0  0  0  0  0
  -30.6740  -11.7999   -8.8759 C   0  0  0  0  0  0  0  0  0  0  0  0
  -31.7972  -11.0524   -8.6819 N   0  0  0  0  0  0  0  0  0  0  0  0
  -31.7952   -9.7879   -8.1447 C   0  0  0  0  0  0  0  0  0  0  0  0
  -32.8270   -9.1300   -8.0840 O   0  0  0  0  0  0  0  0  0  0  0  0
  -32.7063  -11.4030   -8.9580 H   0  0  0  0  0  0  0  0  0  0  0  0
  -28.0029   -9.6179   -7.6392 N   0  0  0  0  0  0  0  0  0  0  0  0
  -27.3833   -9.8757   -8.4071 H   0  0  0  0  0  0  0  0  0  0  0  0
  -27.3873  -10.0063   -6.3541 C   0  0  0  0  0  0  0  0  0  0  0  0
  -26.4769  -11.2213   -6.4939 C   0  0  0  0  0  0  0  0  0  0  0  0
  -25.0933  -10.8370   -6.2777 N   0  0  0  0  0  0  0  0  0  0  0  0
  -24.0147  -11.2150   -7.0244 C   0  0  0  0  0  0  0  0  0  0  0  0
  -22.9433  -10.5311   -6.5063 C   0  0  0  0  0  0  0  0  0  0  0  0
  -21.3336  -10.5634   -7.0193 Cl  0  0  0  0  0  0  0  0  0  0  0  0
  -23.4737   -9.7703   -5.4496 C   0  0  0  0  0  0  0  0  0  0  0  0
  -24.7892   -9.9628   -5.2961 N   0  0  0  0  0  0  0  0  0  0  0  0
  -28.0038   -2.6906   -5.7348 C   0  0  0  0  0  0  0  0  0  0  0  0
  -28.1330   -1.6890   -4.5769 C   0  0  0  0  0  0  0  0  0  0  0  0
  -28.9198   -0.4214   -4.8999 C   0  0  0  0  0  0  0  0  0  0  0  0
  -28.4411    0.1946   -6.1458 N   0  0  0  0  0  0  0  0  0  0  0  0
  -28.7053   -0.7361   -7.2577 C   0  0  0  0  0  0  0  0  0  0  0  0
  -27.8730   -2.0076   -7.1052 C   0  0  0  0  0  0  0  0  0  0  0  0
  -29.0864    1.4988   -6.4069 C   0  0  0  0  0  0  0  0  0  0  0  0
  -30.5954    1.4967   -6.1196 C   0  0  0  0  0  0  0  0  0  0  0  0
  -31.3689    2.2203   -7.2067 C   0  0  0  0  0  0  0  0  0  0  0  0
  -32.6438    1.7478   -7.2372 F   0  0  0  0  0  0  0  0  0  0  0  0
  1  2  1  0  0  0
  2  3  1  0  0  0
  2 10  2  0  0  0
  3  4  2  0  0  0
  4 30  1  0  0  0
  4  5  1  0  0  0
 30 31  1  0  0  0
 30 35  1  0  0  0
 31 32  1  0  0  0
 32 33  1  0  0  0
 33 36  1  0  0  0
 33 34  1  0  0  0
 36 37  1  0  0  0
 37 38  1  0  0  0
 38 39  1  0  0  0
 34 35  1  0  0  0
  5  6  2  0  0  0
  6  7  1  0  0  0
  6 10  1  0  0  0
  7  8  1  0  0  0
  7 11  1  0  0  0
  8 12  1  0  0  0
  8  9  2  0  0  0
 12 13  2  0  0  0
 12 17  1  0  0  0
 13 20  1  0  0  0
 13 14  1  0  0  0
 20 22  1  0  0  0
 20 21  1  0  0  0
 22 23  1  0  0  0
 23 24  1  0  0  0
 24 25  1  0  0  0
 24 29  1  0  0  0
 25 26  2  0  0  0
 26 27  1  0  0  0
 26 28  1  0  0  0
 28 29  2  0  0  0
 14 15  2  0  0  0
 15 16  1  0  0  0
 16 17  1  0  0  0
 16 19  1  0  0  0
 17 18  2  0  0  0
  9 10  1  0  0  0
M  END
> <minimizedAffinity>
-9.38649

$$$$
