CHEMBL273062


 34 38  0  0  0  0  0  0  0  0999 V2000
  -16.2206    1.2855  -15.5003 C   0  0  0  0  0  0  0  0  0  0  0  0
  -16.9404    0.1680  -15.0898 C   0  0  0  0  0  0  0  0  0  0  0  0
  -18.3215    0.2528  -14.8622 C   0  0  0  0  0  0  0  0  0  0  0  0
  -19.0247    1.4803  -14.9758 C   0  0  0  0  0  0  0  0  0  0  0  0
  -20.4181    1.6835  -14.7355 C   0  0  0  0  0  0  0  0  0  0  0  0
  -20.9893    2.9633  -14.8867 C   0  0  0  0  0  0  0  0  0  0  0  0
  -20.2167    4.0507  -15.2684 C   0  0  0  0  0  0  0  0  0  0  0  0
  -18.8658    3.8673  -15.5300 C   0  0  0  0  0  0  0  0  0  0  0  0
  -18.2664    2.6059  -15.4019 C   0  0  0  0  0  0  0  0  0  0  0  0
  -16.9019    2.4823  -15.7095 C   0  0  0  0  0  0  0  0  0  0  0  0
  -21.4080    0.6113  -14.4114 C   0  0  0  0  0  0  0  0  0  0  0  0
  -21.1410   -0.5251  -14.7920 O   0  0  0  0  0  0  0  0  0  0  0  0
  -22.5815    0.9968  -13.7874 N   0  0  0  0  0  0  0  0  0  0  0  0
  -22.7446    1.9901  -13.6861 H   0  0  0  0  0  0  0  0  0  0  0  0
  -23.6541    0.1434  -13.4307 C   0  0  0  0  0  0  0  0  0  0  0  0
  -24.2349   -0.7847  -14.3023 C   0  0  0  0  0  0  0  0  0  0  0  0
  -25.3499   -1.5355  -13.9122 C   0  0  0  0  0  0  0  0  0  0  0  0
  -25.8811   -1.3720  -12.6387 C   0  0  0  0  0  0  0  0  0  0  0  0
  -27.2859   -2.2536  -12.1777 Cl  0  0  0  0  0  0  0  0  0  0  0  0
  -25.2871   -0.4903  -11.7418 C   0  0  0  0  0  0  0  0  0  0  0  0
  -24.1709    0.2585  -12.1336 C   0  0  0  0  0  0  0  0  0  0  0  0
  -14.8623    1.0963  -15.6499 O   0  0  0  0  0  0  0  0  0  0  0  0
  -12.2339    5.5348  -15.9578 C   0  0  0  0  0  0  0  0  0  0  0  0
  -13.1569    4.9620  -16.8181 C   0  0  0  0  0  0  0  0  0  0  0  0
  -13.7884    3.7760  -16.4578 C   0  0  0  0  0  0  0  0  0  0  0  0
  -13.4547    3.0946  -15.2656 C   0  0  0  0  0  0  0  0  0  0  0  0
  -13.9653    1.8315  -14.8945 C   0  0  0  0  0  0  0  0  0  0  0  0
  -13.6403    1.2757  -13.6614 C   0  0  0  0  0  0  0  0  0  0  0  0
  -12.7658    1.9694  -12.8522 C   0  0  0  0  0  0  0  0  0  0  0  0
  -12.1999    3.1443  -13.2005 N   0  0  0  0  0  0  0  0  0  0  0  0
  -12.5297    3.6940  -14.3853 C   0  0  0  0  0  0  0  0  0  0  0  0
  -11.9370    4.8946  -14.7517 C   0  0  0  0  0  0  0  0  0  0  0  0
  -12.0902    7.5047  -17.2424 C   0  0  0  0  0  0  0  0  0  0  0  0
  -11.5525    6.6944  -16.2015 O   0  0  0  0  0  0  0  0  0  0  0  0
 33 34  1  0  0  0
 34 23  1  0  0  0
 23 24  1  0  0  0
 23 32  2  0  0  0
 24 25  2  0  0  0
 25 26  1  0  0  0
 26 27  1  0  0  0
 26 31  2  0  0  0
 27 22  1  0  0  0
 27 28  2  0  0  0
 22  1  1  0  0  0
  1  2  1  0  0  0
  1 10  2  0  0  0
  2  3  2  0  0  0
  3  4  1  0  0  0
  4  5  1  0  0  0
  4  9  2  0  0  0
  5 11  1  0  0  0
  5  6  2  0  0  0
 11 12  2  0  0  0
 11 13  1  0  0  0
 13 15  1  0  0  0
 13 14  1  0  0  0
 15 16  1  0  0  0
 15 21  2  0  0  0
 16 17  2  0  0  0
 17 18  1  0  0  0
 18 19  1  0  0  0
 18 20  2  0  0  0
 20 21  1  0  0  0
  6  7  1  0  0  0
  7  8  2  0  0  0
  8  9  1  0  0  0
  9 10  1  0  0  0
 28 29  1  0  0  0
 29 30  2  0  0  0
 30 31  1  0  0  0
 31 32  1  0  0  0
M  END
> <minimizedAffinity>
-9.34582

$$$$
