CHEMBL3740582


 35 40  0  0  0  0  0  0  0  0999 V2000
  -27.6458   -8.1698   -9.1957 C   0  0  0  0  0  0  0  0  0  0  0  0
  -28.2142   -7.1954   -8.2213 C   0  0  0  0  0  0  0  0  0  0  0  0
  -27.8997   -5.8752   -8.3880 N   0  0  0  0  0  0  0  0  0  0  0  0
  -28.5240   -5.0720   -7.4677 C   0  0  0  0  0  0  0  0  0  0  0  0
  -29.2747   -5.9207   -6.6401 C   0  0  0  0  0  0  0  0  0  0  0  0
  -29.0697   -7.2900   -7.1206 C   0  0  0  0  0  0  0  0  0  0  0  0
  -27.3110   -5.5217   -9.1298 H   0  0  0  0  0  0  0  0  0  0  0  0
  -29.6663   -8.5427   -6.6577 C   0  0  0  0  0  0  0  0  0  0  0  0
  -30.7682   -9.0545   -7.2724 N   0  0  0  0  0  0  0  0  0  0  0  0
  -31.4041  -10.3299   -6.9343 N   0  0  0  0  0  0  0  0  0  0  0  0
  -30.9070  -11.2024   -6.0094 C   0  0  0  0  0  0  0  0  0  0  0  0
  -31.6417  -12.4604   -5.7085 C   0  0  0  0  0  0  0  0  0  0  0  0
  -29.7090  -10.7507   -5.4024 C   0  0  0  0  0  0  0  0  0  0  0  0
  -28.8993  -11.3666   -4.5157 N   0  0  0  0  0  0  0  0  0  0  0  0
  -27.8865  -10.4881   -4.2851 N   0  0  0  0  0  0  0  0  0  0  0  0
  -28.1583   -9.2492   -4.8100 C   0  0  0  0  0  0  0  0  0  0  0  0
  -29.1737   -9.4421   -5.7062 C   0  0  0  0  0  0  0  0  0  0  0  0
  -26.6986  -10.8702   -3.6007 C   0  0  0  0  0  0  0  0  0  0  0  0
  -25.5506  -10.0746   -3.6900 C   0  0  0  0  0  0  0  0  0  0  0  0
  -24.3837  -10.4467   -3.0132 C   0  0  0  0  0  0  0  0  0  0  0  0
  -24.3682  -11.6027   -2.2336 C   0  0  0  0  0  0  0  0  0  0  0  0
  -25.5091  -12.3869   -2.1190 C   0  0  0  0  0  0  0  0  0  0  0  0
  -26.6768  -12.0218   -2.7968 C   0  0  0  0  0  0  0  0  0  0  0  0
  -28.3172   -3.6122   -7.5310 C   0  0  0  0  0  0  0  0  0  0  0  0
  -28.0974   -2.8570   -6.3733 C   0  0  0  0  0  0  0  0  0  0  0  0
  -27.8071   -1.4918   -6.4509 C   0  0  0  0  0  0  0  0  0  0  0  0
  -27.7921   -0.8487   -7.6855 C   0  0  0  0  0  0  0  0  0  0  0  0
  -28.0703   -1.5691   -8.8431 C   0  0  0  0  0  0  0  0  0  0  0  0
  -28.3209   -2.9423   -8.7677 C   0  0  0  0  0  0  0  0  0  0  0  0
  -30.0629   -5.4297   -5.4897 C   0  0  0  0  0  0  0  0  0  0  0  0
  -29.7034   -4.2688   -4.7958 C   0  0  0  0  0  0  0  0  0  0  0  0
  -30.4726   -3.7773   -3.7354 C   0  0  0  0  0  0  0  0  0  0  0  0
  -31.5628   -4.5025   -3.2735 C   0  0  0  0  0  0  0  0  0  0  0  0
  -31.9015   -5.6978   -3.8982 C   0  0  0  0  0  0  0  0  0  0  0  0
  -31.1872   -6.1308   -5.0227 C   0  0  0  0  0  0  0  0  0  0  0  0
  1  2  1  0  0  0
  2  3  1  0  0  0
  2  6  2  0  0  0
  3  4  1  0  0  0
  3  7  1  0  0  0
  4 24  1  0  0  0
  4  5  2  0  0  0
 24 25  1  0  0  0
 24 29  2  0  0  0
 25 26  2  0  0  0
 26 27  1  0  0  0
 27 28  2  0  0  0
 28 29  1  0  0  0
  5 30  1  0  0  0
  5  6  1  0  0  0
 30 31  1  0  0  0
 30 35  2  0  0  0
 31 32  2  0  0  0
 32 33  1  0  0  0
 33 34  2  0  0  0
 34 35  1  0  0  0
  6  8  1  0  0  0
  8  9  2  0  0  0
  8 17  1  0  0  0
  9 10  1  0  0  0
 10 11  2  0  0  0
 11 12  1  0  0  0
 11 13  1  0  0  0
 13 14  2  0  0  0
 13 17  1  0  0  0
 14 15  1  0  0  0
 15 18  1  0  0  0
 15 16  1  0  0  0
 18 19  1  0  0  0
 18 23  2  0  0  0
 19 20  2  0  0  0
 20 21  1  0  0  0
 21 22  2  0  0  0
 22 23  1  0  0  0
 16 17  2  0  0  0
M  END
> <minimizedAffinity>
-9.78344

$$$$
