CHEMBL256972


 36 39  0  0  0  0  0  0  0  0999 V2000
  -29.0219   -7.7719   -5.4618 C   0  0  0  0  0  0  0  0  0  0  0  0
  -29.4551   -9.0971   -5.5212 C   0  0  0  0  0  0  0  0  0  0  0  0
  -28.6348  -10.1172   -5.0371 C   0  0  0  0  0  0  0  0  0  0  0  0
  -27.3894   -9.8291   -4.4604 C   0  0  0  0  0  0  0  0  0  0  0  0
  -27.0183   -8.4984   -4.2927 C   0  0  0  0  0  0  0  0  0  0  0  0
  -27.8346   -7.4822   -4.7908 C   0  0  0  0  0  0  0  0  0  0  0  0
  -27.4526   -6.2077   -4.6206 F   0  0  0  0  0  0  0  0  0  0  0  0
  -26.6227  -10.9414   -4.0680 N   0  0  0  0  0  0  0  0  0  0  0  0
  -26.9048  -11.3446   -3.1724 H   0  0  0  0  0  0  0  0  0  0  0  0
  -25.6533  -11.6814   -4.7046 C   0  0  0  0  0  0  0  0  0  0  0  0
  -24.3233  -12.4568   -4.0580 S   0  0  0  0  0  0  0  0  0  0  0  0
  -25.7797  -11.7192   -6.0887 N   0  0  0  0  0  0  0  0  0  0  0  0
  -25.0892  -10.9677   -7.0327 C   0  0  0  0  0  0  0  0  0  0  0  0
  -24.3016  -10.0657   -6.7338 O   0  0  0  0  0  0  0  0  0  0  0  0
  -26.4299  -12.4219   -6.4183 H   0  0  0  0  0  0  0  0  0  0  0  0
  -25.3523  -11.3593   -8.4725 C   0  0  0  0  0  0  0  0  0  0  0  0
  -26.6691  -10.8693   -9.0163 C   0  0  0  0  0  0  0  0  0  0  0  0
  -27.5043  -11.7198   -9.7562 C   0  0  0  0  0  0  0  0  0  0  0  0
  -28.7573  -11.2839  -10.1897 C   0  0  0  0  0  0  0  0  0  0  0  0
  -29.1928   -9.9969   -9.8833 C   0  0  0  0  0  0  0  0  0  0  0  0
  -28.3743   -9.1433   -9.1483 C   0  0  0  0  0  0  0  0  0  0  0  0
  -27.1184   -9.5767   -8.7143 C   0  0  0  0  0  0  0  0  0  0  0  0
  -29.7156   -6.7130   -6.0053 O   0  0  0  0  0  0  0  0  0  0  0  0
  -28.8763   -2.1712   -5.4836 C   0  0  0  0  0  0  0  0  0  0  0  0
  -29.7830   -2.2349   -4.4446 C   0  0  0  0  0  0  0  0  0  0  0  0
  -30.3590   -3.5253   -4.2883 C   0  0  0  0  0  0  0  0  0  0  0  0
  -31.2871   -3.8458   -3.3482 N   0  0  0  0  0  0  0  0  0  0  0  0
  -31.7336   -5.1125   -3.3767 C   0  0  0  0  0  0  0  0  0  0  0  0
  -31.2973   -6.0883   -4.2502 C   0  0  0  0  0  0  0  0  0  0  0  0
  -30.2755   -5.7817   -5.1526 C   0  0  0  0  0  0  0  0  0  0  0  0
  -29.8465   -4.4452   -5.2017 C   0  0  0  0  0  0  0  0  0  0  0  0
  -28.7141   -3.6907   -6.2548 S   0  0  0  0  0  0  0  0  0  0  0  0
  -28.0976   -1.0404   -5.9487 C   0  0  0  0  0  0  0  0  0  0  0  0
  -27.8285   -0.7655   -7.1122 O   0  0  0  0  0  0  0  0  0  0  0  0
  -28.2329    1.0073   -4.8037 C   0  0  0  0  0  0  0  0  0  0  0  0
  -27.6807   -0.3071   -4.8746 O   0  0  0  0  0  0  0  0  0  0  0  0
 35 36  1  0  0  0
 36 33  1  0  0  0
 33 34  2  0  0  0
 33 24  1  0  0  0
 24 25  2  0  0  0
 24 32  1  0  0  0
 25 26  1  0  0  0
 26 27  1  0  0  0
 26 31  2  0  0  0
 27 28  2  0  0  0
 28 29  1  0  0  0
 29 30  2  0  0  0
 30 23  1  0  0  0
 30 31  1  0  0  0
 23  1  1  0  0  0
  1  2  1  0  0  0
  1  6  2  0  0  0
  2  3  2  0  0  0
  3  4  1  0  0  0
  4  8  1  0  0  0
  4  5  2  0  0  0
  8 10  1  0  0  0
  8  9  1  0  0  0
 10 11  2  0  0  0
 10 12  1  0  0  0
 12 13  1  0  0  0
 12 15  1  0  0  0
 13 14  2  0  0  0
 13 16  1  0  0  0
 16 17  1  0  0  0
 17 18  1  0  0  0
 17 22  2  0  0  0
 18 19  2  0  0  0
 19 20  1  0  0  0
 20 21  2  0  0  0
 21 22  1  0  0  0
  5  6  1  0  0  0
  6  7  1  0  0  0
 31 32  1  0  0  0
M  END
> <minimizedAffinity>
-7.72681

$$$$
