CHEMBL4104515


 30 34  0  0  0  0  0  0  0  0999 V2000
  -28.8515   -6.1110   -7.2748 C   0  0  0  0  0  0  0  0  0  0  0  0
  -28.5883   -5.0929   -8.1531 N   0  0  0  0  0  0  0  0  0  0  0  0
  -28.3968   -3.7969   -7.7617 C   0  0  0  0  0  0  0  0  0  0  0  0
  -28.1008   -2.7392   -8.7747 C   0  0  0  0  0  0  0  0  0  0  0  0
  -28.4491   -3.4677   -6.4433 N   0  0  0  0  0  0  0  0  0  0  0  0
  -28.6670   -4.4474   -5.5424 C   0  0  0  0  0  0  0  0  0  0  0  0
  -28.6683   -4.3397   -4.1705 C   0  0  0  0  0  0  0  0  0  0  0  0
  -28.8407   -5.6155   -3.6983 C   0  0  0  0  0  0  0  0  0  0  0  0
  -28.9651   -6.4961   -4.7206 N   0  0  0  0  0  0  0  0  0  0  0  0
  -29.1059   -7.9281   -4.4471 C   0  0  0  0  0  0  0  0  0  0  0  0
  -28.8658   -5.7677   -5.8823 C   0  0  0  0  0  0  0  0  0  0  0  0
  -32.4365   -9.8681   -7.1920 C   0  0  0  0  0  0  0  0  0  0  0  0
  -32.5471   -8.4714   -7.1675 C   0  0  0  0  0  0  0  0  0  0  0  0
  -31.4318   -7.6607   -7.3774 C   0  0  0  0  0  0  0  0  0  0  0  0
  -30.1724   -8.2383   -7.5999 C   0  0  0  0  0  0  0  0  0  0  0  0
  -30.0563   -9.6444   -7.6700 C   0  0  0  0  0  0  0  0  0  0  0  0
  -31.1844  -10.4489   -7.4622 C   0  0  0  0  0  0  0  0  0  0  0  0
  -28.7347  -10.3108   -7.9936 C   0  0  0  0  0  0  0  0  0  0  0  0
  -27.5511   -9.3292   -8.0376 C   0  0  0  0  0  0  0  0  0  0  0  0
  -27.9764   -8.0059   -8.6632 C   0  0  0  0  0  0  0  0  0  0  0  0
  -29.0172   -7.4326   -7.8153 N   0  0  0  0  0  0  0  0  0  0  0  0
  -33.5555  -11.9038   -6.4651 C   0  0  0  0  0  0  0  0  0  0  0  0
  -33.5478  -10.6157   -6.9633 O   0  0  0  0  0  0  0  0  0  0  0  0
  -28.4830   -3.1094   -3.3313 C   0  0  0  0  0  0  0  0  0  0  0  0
  -28.5883   -1.8793   -4.1908 C   0  0  0  0  0  0  0  0  0  0  0  0
  -29.8556   -1.4050   -4.5790 C   0  0  0  0  0  0  0  0  0  0  0  0
  -29.9690   -0.2677   -5.3791 C   0  0  0  0  0  0  0  0  0  0  0  0
  -28.8207    0.4122   -5.7923 C   0  0  0  0  0  0  0  0  0  0  0  0
  -27.5586   -0.0472   -5.4027 C   0  0  0  0  0  0  0  0  0  0  0  0
  -27.4389   -1.1872   -4.6026 C   0  0  0  0  0  0  0  0  0  0  0  0
 22 23  1  0  0  0
 23 12  1  0  0  0
 12 13  1  0  0  0
 12 17  2  0  0  0
 13 14  2  0  0  0
 14 15  1  0  0  0
 15 16  2  0  0  0
 15 21  1  0  0  0
 16 17  1  0  0  0
 16 18  1  0  0  0
 18 19  1  0  0  0
 19 20  1  0  0  0
 20 21  1  0  0  0
 21  1  1  0  0  0
  1  2  1  0  0  0
  1 11  2  0  0  0
  2  3  2  0  0  0
  3  4  1  0  0  0
  3  5  1  0  0  0
  5  6  2  0  0  0
  6  7  1  0  0  0
  6 11  1  0  0  0
  7 24  1  0  0  0
  7  8  2  0  0  0
 24 25  1  0  0  0
 25 26  1  0  0  0
 25 30  2  0  0  0
 26 27  2  0  0  0
 27 28  1  0  0  0
 28 29  2  0  0  0
 29 30  1  0  0  0
  8  9  1  0  0  0
  9 10  1  0  0  0
  9 11  1  0  0  0
M  END
> <minimizedAffinity>
-9.82151

$$$$
