CHEMBL3288517


 34 38  0  0  0  0  0  0  0  0999 V2000
  -29.4083   -6.6944   -6.7096 C   0  0  0  0  0  0  0  0  0  0  0  0
  -28.6844   -6.2813   -7.8377 C   0  0  0  0  0  0  0  0  0  0  0  0
  -28.3112   -4.9426   -8.0284 C   0  0  0  0  0  0  0  0  0  0  0  0
  -28.7467   -3.9192   -7.1564 C   0  0  0  0  0  0  0  0  0  0  0  0
  -28.5108   -2.5236   -7.3146 C   0  0  0  0  0  0  0  0  0  0  0  0
  -29.0107   -1.6028   -6.3734 C   0  0  0  0  0  0  0  0  0  0  0  0
  -29.7372   -2.0342   -5.2720 C   0  0  0  0  0  0  0  0  0  0  0  0
  -29.9493   -3.3941   -5.0875 C   0  0  0  0  0  0  0  0  0  0  0  0
  -29.4639   -4.3342   -6.0088 C   0  0  0  0  0  0  0  0  0  0  0  0
  -29.7038   -5.6982   -5.7736 C   0  0  0  0  0  0  0  0  0  0  0  0
  -27.1306   -7.9481   -4.4785 N   0  0  0  0  0  0  0  0  0  0  0  0
  -27.8925   -9.0029   -4.8066 C   0  0  0  0  0  0  0  0  0  0  0  0
  -27.6091  -10.1985   -4.3005 N   0  0  0  0  0  0  0  0  0  0  0  0
  -28.5727  -10.9843   -4.7824 N   0  0  0  0  0  0  0  0  0  0  0  0
  -29.4753  -10.3455   -5.5870 C   0  0  0  0  0  0  0  0  0  0  0  0
  -30.6099  -10.8494   -6.2276 C   0  0  0  0  0  0  0  0  0  0  0  0
  -31.3413   -9.9673   -7.0102 C   0  0  0  0  0  0  0  0  0  0  0  0
  -30.9349   -8.6428   -7.1506 C   0  0  0  0  0  0  0  0  0  0  0  0
  -29.7871   -8.1128   -6.5014 C   0  0  0  0  0  0  0  0  0  0  0  0
  -29.0444   -9.0154   -5.6708 C   0  0  0  0  0  0  0  0  0  0  0  0
  -26.4481   -8.1221   -3.7489 H   0  0  0  0  0  0  0  0  0  0  0  0
  -27.5545   -7.0312   -4.4113 H   0  0  0  0  0  0  0  0  0  0  0  0
  -28.5689  -11.9626   -4.5202 H   0  0  0  0  0  0  0  0  0  0  0  0
  -27.7005   -1.9159   -8.4051 C   0  0  0  0  0  0  0  0  0  0  0  0
  -27.1226   -0.8650   -8.1525 O   0  0  0  0  0  0  0  0  0  0  0  0
  -27.7369   -2.5448   -9.6398 N   0  0  0  0  0  0  0  0  0  0  0  0
  -28.3851   -3.3149   -9.7438 H   0  0  0  0  0  0  0  0  0  0  0  0
  -27.0864   -2.1072  -10.8179 C   0  0  0  0  0  0  0  0  0  0  0  0
  -27.7476   -1.8894  -12.0309 C   0  0  0  0  0  0  0  0  0  0  0  0
  -27.0372   -1.5603  -13.1864 C   0  0  0  0  0  0  0  0  0  0  0  0
  -25.6519   -1.4266  -13.1399 C   0  0  0  0  0  0  0  0  0  0  0  0
  -24.9945   -1.5892  -11.9235 C   0  0  0  0  0  0  0  0  0  0  0  0
  -23.1129   -1.3989  -11.8521 Br  0  0  0  0  0  0  0  0  0  0  0  0
  -25.7015   -1.9129  -10.7625 C   0  0  0  0  0  0  0  0  0  0  0  0
 11 12  1  0  0  0
 11 21  1  0  0  0
 11 22  1  0  0  0
 12 13  2  0  0  0
 12 20  1  0  0  0
 13 14  1  0  0  0
 14 15  1  0  0  0
 14 23  1  0  0  0
 15 16  1  0  0  0
 15 20  2  0  0  0
 16 17  2  0  0  0
 17 18  1  0  0  0
 18 19  2  0  0  0
 19  1  1  0  0  0
 19 20  1  0  0  0
  1  2  1  0  0  0
  1 10  2  0  0  0
  2  3  2  0  0  0
  3  4  1  0  0  0
  4  5  1  0  0  0
  4  9  2  0  0  0
  5 24  1  0  0  0
  5  6  2  0  0  0
 24 25  2  0  0  0
 24 26  1  0  0  0
 26 28  1  0  0  0
 26 27  1  0  0  0
 28 29  1  0  0  0
 28 34  2  0  0  0
 29 30  2  0  0  0
 30 31  1  0  0  0
 31 32  2  0  0  0
 32 33  1  0  0  0
 32 34  1  0  0  0
  6  7  1  0  0  0
  7  8  2  0  0  0
  8  9  1  0  0  0
  9 10  1  0  0  0
M  END
> <minimizedAffinity>
-10.31160

$$$$
