CHEMBL3946490


 41 43  0  0  0  0  0  0  0  0999 V2000
  -15.6544   -0.1548  -14.3087 C   0  0  0  0  0  0  0  0  0  0  0  0
  -14.5930    0.2788  -15.0964 C   0  0  0  0  0  0  0  0  0  0  0  0
  -13.3487   -0.2462  -15.0388 N   0  0  0  0  0  0  0  0  0  0  0  0
  -13.1699   -1.2728  -14.1701 C   0  0  0  0  0  0  0  0  0  0  0  0
  -14.1761   -1.7913  -13.3585 C   0  0  0  0  0  0  0  0  0  0  0  0
  -15.4424   -1.2046  -13.4179 C   0  0  0  0  0  0  0  0  0  0  0  0
  -18.0178    0.9816  -14.4969 C   0  0  0  0  0  0  0  0  0  0  0  0
  -16.9351    0.4470  -14.4409 C   0  0  0  0  0  0  0  0  0  0  0  0
  -21.6834    1.6329  -14.2603 C   0  0  0  0  0  0  0  0  0  0  0  0
  -21.6991    3.0048  -14.5305 C   0  0  0  0  0  0  0  0  0  0  0  0
  -20.5201    3.6970  -14.8092 C   0  0  0  0  0  0  0  0  0  0  0  0
  -19.3133    3.0185  -14.8137 C   0  0  0  0  0  0  0  0  0  0  0  0
  -19.2728    1.6557  -14.5008 C   0  0  0  0  0  0  0  0  0  0  0  0
  -20.4561    0.9647  -14.2095 C   0  0  0  0  0  0  0  0  0  0  0  0
  -23.1197    0.0797  -12.9755 C   0  0  0  0  0  0  0  0  0  0  0  0
  -22.3514   -0.0753  -12.0268 O   0  0  0  0  0  0  0  0  0  0  0  0
  -22.8732    0.8914  -14.0738 N   0  0  0  0  0  0  0  0  0  0  0  0
  -23.6503    1.1006  -14.6930 H   0  0  0  0  0  0  0  0  0  0  0  0
  -26.7972   -1.6671  -10.0840 C   0  0  0  0  0  0  0  0  0  0  0  0
  -26.2204   -1.4713  -11.4565 C   0  0  0  0  0  0  0  0  0  0  0  0
  -26.8850   -1.9486  -12.5903 C   0  0  0  0  0  0  0  0  0  0  0  0
  -26.3351   -1.7575  -13.8608 C   0  0  0  0  0  0  0  0  0  0  0  0
  -25.1166   -1.0948  -14.0042 C   0  0  0  0  0  0  0  0  0  0  0  0
  -24.6338   -0.9221  -15.2437 F   0  0  0  0  0  0  0  0  0  0  0  0
  -24.4295   -0.6187  -12.8922 C   0  0  0  0  0  0  0  0  0  0  0  0
  -24.9961   -0.8092  -11.6175 C   0  0  0  0  0  0  0  0  0  0  0  0
  -13.8916   -2.9723  -12.5035 C   0  0  0  0  0  0  0  0  0  0  0  0
  -14.0819   -2.8307  -11.2954 O   0  0  0  0  0  0  0  0  0  0  0  0
  -13.5025   -4.2087  -13.0561 N   0  0  0  0  0  0  0  0  0  0  0  0
  -13.0507   -5.3673  -12.1357 S   0  0  0  0  0  0  0  0  0  0  0  0
  -12.1287   -5.2060  -11.0305 O   0  0  0  0  0  0  0  0  0  0  0  0
  -14.5240   -6.1584  -11.4815 C   0  0  0  0  0  0  0  0  0  0  0  0
  -15.6625   -6.1556  -12.5004 C   0  0  0  0  0  0  0  0  0  0  0  0
  -16.8602   -5.3419  -12.0418 C   0  0  0  0  0  0  0  0  0  0  0  0
  -16.5193   -4.5814  -10.8944 O   0  0  0  0  0  0  0  0  0  0  0  0
  -16.1376   -5.1883  -10.2348 H   0  0  0  0  0  0  0  0  0  0  0  0
  -12.3423   -6.6273  -13.2090 C   0  0  0  0  0  0  0  0  0  0  0  0
  -12.7186   -6.4318  -14.6753 C   0  0  0  0  0  0  0  0  0  0  0  0
  -13.5247   -7.5885  -15.2522 C   0  0  0  0  0  0  0  0  0  0  0  0
  -14.7624   -7.1007  -15.7518 O   0  0  0  0  0  0  0  0  0  0  0  0
  -15.2699   -6.7535  -14.9998 H   0  0  0  0  0  0  0  0  0  0  0  0
 19 20  1  0  0  0
 20 21  1  0  0  0
 20 26  2  0  0  0
 21 22  2  0  0  0
 22 23  1  0  0  0
 23 24  1  0  0  0
 23 25  2  0  0  0
 25 15  1  0  0  0
 25 26  1  0  0  0
 15 16  2  0  0  0
 15 17  1  0  0  0
 17  9  1  0  0  0
 17 18  1  0  0  0
  9 10  1  0  0  0
  9 14  2  0  0  0
 10 11  2  0  0  0
 11 12  1  0  0  0
 12 13  2  0  0  0
 13  7  1  0  0  0
 13 14  1  0  0  0
  7  8  3  0  0  0
  8  1  1  0  0  0
  1  2  1  0  0  0
  1  6  2  0  0  0
  2  3  2  0  0  0
  3  4  1  0  0  0
  4  5  2  0  0  0
  5 27  1  0  0  0
  5  6  1  0  0  0
 27 28  2  0  0  0
 27 29  1  0  0  0
 29 30  2  0  0  0
 30 31  2  0  0  0
 30 32  1  0  0  0
 30 37  1  0  0  0
 32 33  1  0  0  0
 33 34  1  0  0  0
 34 35  1  0  0  0
 35 36  1  0  0  0
 37 38  1  0  0  0
 38 39  1  0  0  0
 39 40  1  0  0  0
 40 41  1  0  0  0
M  END
> <minimizedAffinity>
-9.99242

$$$$
