CHEMBL375890


 36 41  0  0  0  0  0  0  0  0999 V2000
  -22.5186    1.2334  -13.9677 C   0  0  0  0  0  0  0  0  0  0  0  0
  -22.4708    2.6539  -13.9510 C   0  0  0  0  0  0  0  0  0  0  0  0
  -21.3459    3.3622  -14.3707 C   0  0  0  0  0  0  0  0  0  0  0  0
  -20.2582    2.6208  -14.7532 C   0  0  0  0  0  0  0  0  0  0  0  0
  -20.2430    1.1999  -14.7188 C   0  0  0  0  0  0  0  0  0  0  0  0
  -21.3821    0.5000  -14.3505 C   0  0  0  0  0  0  0  0  0  0  0  0
  -18.8737    0.6049  -15.1007 C   0  0  0  0  0  0  0  0  0  0  0  0
  -18.1744    1.8953  -15.3722 C   0  0  0  0  0  0  0  0  0  0  0  0
  -16.9151    2.4133  -15.7060 C   0  0  0  0  0  0  0  0  0  0  0  0
  -16.9534    3.7627  -15.7847 N   0  0  0  0  0  0  0  0  0  0  0  0
  -18.2327    4.0863  -15.4638 N   0  0  0  0  0  0  0  0  0  0  0  0
  -18.9641    2.9931  -15.1912 C   0  0  0  0  0  0  0  0  0  0  0  0
  -18.5029    5.0637  -15.4465 H   0  0  0  0  0  0  0  0  0  0  0  0
  -15.6615    1.6294  -15.9211 C   0  0  0  0  0  0  0  0  0  0  0  0
  -14.7881    1.8149  -16.9730 C   0  0  0  0  0  0  0  0  0  0  0  0
  -13.6692    0.9269  -16.9037 C   0  0  0  0  0  0  0  0  0  0  0  0
  -13.7451    0.0903  -15.8135 C   0  0  0  0  0  0  0  0  0  0  0  0
  -15.1276    0.4013  -14.8661 S   0  0  0  0  0  0  0  0  0  0  0  0
  -12.8149   -0.9229  -15.4560 C   0  0  0  0  0  0  0  0  0  0  0  0
  -12.0908   -1.8220  -15.1240 C   0  0  0  0  0  0  0  0  0  0  0  0
  -11.2219   -2.9179  -14.6823 C   0  0  0  0  0  0  0  0  0  0  0  0
  -12.0105   -4.0646  -14.3617 O   0  0  0  0  0  0  0  0  0  0  0  0
  -13.1771   -3.8203  -13.6850 C   0  0  0  0  0  0  0  0  0  0  0  0
  -13.2784   -3.3098  -12.3901 C   0  0  0  0  0  0  0  0  0  0  0  0
  -14.5316   -3.1114  -11.8037 C   0  0  0  0  0  0  0  0  0  0  0  0
  -15.6928   -3.4214  -12.5091 C   0  0  0  0  0  0  0  0  0  0  0  0
  -15.6012   -3.9275  -13.8037 C   0  0  0  0  0  0  0  0  0  0  0  0
  -14.3481   -4.1267  -14.3902 C   0  0  0  0  0  0  0  0  0  0  0  0
  -23.8079    0.5241  -13.5913 C   0  0  0  0  0  0  0  0  0  0  0  0
  -27.1141   -1.7301  -10.9762 C   0  0  0  0  0  0  0  0  0  0  0  0
  -25.9329   -1.9584  -11.8037 N   0  0  0  0  0  0  0  0  0  0  0  0
  -26.1571   -1.4854  -13.1793 C   0  0  0  0  0  0  0  0  0  0  0  0
  -24.8929   -1.6559  -14.0514 C   0  0  0  0  0  0  0  0  0  0  0  0
  -23.7000   -0.9465  -13.5379 N   0  0  0  0  0  0  0  0  0  0  0  0
  -23.4893   -1.4043  -12.1427 C   0  0  0  0  0  0  0  0  0  0  0  0
  -24.7393   -1.3129  -11.2242 C   0  0  0  0  0  0  0  0  0  0  0  0
 30 31  1  0  0  0
 31 32  1  0  0  0
 31 36  1  0  0  0
 32 33  1  0  0  0
 33 34  1  0  0  0
 34 29  1  0  0  0
 34 35  1  0  0  0
 29  1  1  0  0  0
  1  2  1  0  0  0
  1  6  2  0  0  0
  2  3  2  0  0  0
  3  4  1  0  0  0
  4  5  2  0  0  0
  4 12  1  0  0  0
  5  6  1  0  0  0
  5  7  1  0  0  0
  7  8  1  0  0  0
  8  9  1  0  0  0
  8 12  2  0  0  0
  9 14  1  0  0  0
  9 10  2  0  0  0
 14 15  2  0  0  0
 14 18  1  0  0  0
 15 16  1  0  0  0
 16 17  2  0  0  0
 17 19  1  0  0  0
 17 18  1  0  0  0
 19 20  3  0  0  0
 20 21  1  0  0  0
 21 22  1  0  0  0
 22 23  1  0  0  0
 23 24  1  0  0  0
 23 28  2  0  0  0
 24 25  2  0  0  0
 25 26  1  0  0  0
 26 27  2  0  0  0
 27 28  1  0  0  0
 10 11  1  0  0  0
 11 12  1  0  0  0
 11 13  1  0  0  0
 35 36  1  0  0  0
M  END
> <minimizedAffinity>
-9.74882

$$$$
