CHEMBL3983201


 39 43  0  0  0  0  0  0  0  0999 V2000
  -28.5219   -5.4601   -5.0209 C   0  0  0  0  0  0  0  0  0  0  0  0
  -27.9023   -6.6144   -4.5279 C   0  0  0  0  0  0  0  0  0  0  0  0
  -28.3646   -7.9087   -4.8753 C   0  0  0  0  0  0  0  0  0  0  0  0
  -27.8377   -9.1237   -4.4159 C   0  0  0  0  0  0  0  0  0  0  0  0
  -28.3150  -10.3156   -4.8318 N   0  0  0  0  0  0  0  0  0  0  0  0
  -29.3252  -10.2999   -5.6996 C   0  0  0  0  0  0  0  0  0  0  0  0
  -29.9058   -9.2069   -6.1935 N   0  0  0  0  0  0  0  0  0  0  0  0
  -29.4178   -8.0368   -5.7784 C   0  0  0  0  0  0  0  0  0  0  0  0
  -29.9961   -6.8926   -6.2848 C   0  0  0  0  0  0  0  0  0  0  0  0
  -29.5986   -5.6000   -5.8994 C   0  0  0  0  0  0  0  0  0  0  0  0
  -28.4416   -3.6520   -3.4516 C   0  0  0  0  0  0  0  0  0  0  0  0
  -27.9222   -4.3076   -4.6008 O   0  0  0  0  0  0  0  0  0  0  0  0
  -26.7686   -9.1169   -3.4814 N   0  0  0  0  0  0  0  0  0  0  0  0
  -27.1373   -9.2477   -2.5450 H   0  0  0  0  0  0  0  0  0  0  0  0
  -25.5440   -9.7789   -3.7030 C   0  0  0  0  0  0  0  0  0  0  0  0
  -25.0306  -10.6566   -2.7342 C   0  0  0  0  0  0  0  0  0  0  0  0
  -23.7843  -11.2578   -2.8977 C   0  0  0  0  0  0  0  0  0  0  0  0
  -23.0318  -10.9929   -4.0407 C   0  0  0  0  0  0  0  0  0  0  0  0
  -21.4773  -11.7331   -4.1640 Cl  0  0  0  0  0  0  0  0  0  0  0  0
  -23.5447  -10.1432   -5.0278 C   0  0  0  0  0  0  0  0  0  0  0  0
  -22.6705   -9.7755   -6.4713 Cl  0  0  0  0  0  0  0  0  0  0  0  0
  -24.8008   -9.5466   -4.8619 C   0  0  0  0  0  0  0  0  0  0  0  0
  -30.2236   -4.4828   -6.3969 O   0  0  0  0  0  0  0  0  0  0  0  0
  -29.9726   -4.2559   -7.7948 C   0  0  0  0  0  0  0  0  0  0  0  0
  -29.0391   -3.1265   -8.0340 C   0  0  0  0  0  0  0  0  0  0  0  0
  -28.7110   -2.1068   -7.1697 C   0  0  0  0  0  0  0  0  0  0  0  0
  -27.5645   -1.0702   -7.9016 S   0  0  0  0  0  0  0  0  0  0  0  0
  -27.5936   -2.0427   -9.3279 C   0  0  0  0  0  0  0  0  0  0  0  0
  -28.3764   -3.0950   -9.2519 N   0  0  0  0  0  0  0  0  0  0  0  0
  -26.7632   -1.7285  -10.4959 C   0  0  0  0  0  0  0  0  0  0  0  0
  -27.3095   -1.8452  -11.7847 C   0  0  0  0  0  0  0  0  0  0  0  0
  -26.5378   -1.5790  -12.9201 C   0  0  0  0  0  0  0  0  0  0  0  0
  -25.2011   -1.1782  -12.7869 C   0  0  0  0  0  0  0  0  0  0  0  0
  -24.6668   -1.0199  -11.5008 C   0  0  0  0  0  0  0  0  0  0  0  0
  -25.4389   -1.2898  -10.3698 C   0  0  0  0  0  0  0  0  0  0  0  0
  -24.3292   -0.9233  -13.9901 C   0  0  0  0  0  0  0  0  0  0  0  0
  -24.9166   -1.2530  -15.1732 F   0  0  0  0  0  0  0  0  0  0  0  0
  -23.9654    0.3839  -14.1020 F   0  0  0  0  0  0  0  0  0  0  0  0
  -23.1664   -1.6314  -13.9400 F   0  0  0  0  0  0  0  0  0  0  0  0
 11 12  1  0  0  0
 12  1  1  0  0  0
  1  2  1  0  0  0
  1 10  2  0  0  0
  2  3  2  0  0  0
  3  4  1  0  0  0
  3  8  1  0  0  0
  4 13  1  0  0  0
  4  5  2  0  0  0
 13 15  1  0  0  0
 13 14  1  0  0  0
 15 16  1  0  0  0
 15 22  2  0  0  0
 16 17  2  0  0  0
 17 18  1  0  0  0
 18 19  1  0  0  0
 18 20  2  0  0  0
 20 21  1  0  0  0
 20 22  1  0  0  0
  5  6  1  0  0  0
  6  7  2  0  0  0
  7  8  1  0  0  0
  8  9  2  0  0  0
  9 10  1  0  0  0
 10 23  1  0  0  0
 23 24  1  0  0  0
 24 25  1  0  0  0
 25 26  2  0  0  0
 25 29  1  0  0  0
 26 27  1  0  0  0
 27 28  1  0  0  0
 28 30  1  0  0  0
 28 29  2  0  0  0
 30 31  1  0  0  0
 30 35  2  0  0  0
 31 32  2  0  0  0
 32 33  1  0  0  0
 33 36  1  0  0  0
 33 34  2  0  0  0
 36 37  1  0  0  0
 36 38  1  0  0  0
 36 39  1  0  0  0
 34 35  1  0  0  0
M  END
> <minimizedAffinity>
-9.39940

$$$$
