CHEMBL101461


 28 31  0  0  0  0  0  0  0  0999 V2000
  -27.7409   -9.4239   -5.9406 C   0  0  0  0  0  0  0  0  0  0  0  0
  -28.7045   -8.4657   -5.9620 O   0  0  0  0  0  0  0  0  0  0  0  0
  -28.3068   -7.5416   -5.0399 C   0  0  0  0  0  0  0  0  0  0  0  0
  -27.1842   -7.8484   -4.4181 N   0  0  0  0  0  0  0  0  0  0  0  0
  -26.8165   -9.0560   -4.9794 C   0  0  0  0  0  0  0  0  0  0  0  0
  -29.1597   -6.3730   -4.9101 C   0  0  0  0  0  0  0  0  0  0  0  0
  -30.4467   -6.4891   -4.4092 C   0  0  0  0  0  0  0  0  0  0  0  0
  -31.2947   -5.4461   -4.2506 N   0  0  0  0  0  0  0  0  0  0  0  0
  -30.8277   -4.2234   -4.6118 C   0  0  0  0  0  0  0  0  0  0  0  0
  -29.5529   -3.9605   -5.1196 C   0  0  0  0  0  0  0  0  0  0  0  0
  -28.7231   -5.0862   -5.2610 C   0  0  0  0  0  0  0  0  0  0  0  0
  -29.0963   -2.5962   -5.4731 C   0  0  0  0  0  0  0  0  0  0  0  0
  -28.3659   -2.3454   -6.6500 C   0  0  0  0  0  0  0  0  0  0  0  0
  -27.9459   -1.0545   -6.9923 C   0  0  0  0  0  0  0  0  0  0  0  0
  -28.2560    0.0212   -6.1690 C   0  0  0  0  0  0  0  0  0  0  0  0
  -28.9783   -0.1936   -5.0006 C   0  0  0  0  0  0  0  0  0  0  0  0
  -29.3864   -1.4872   -4.6558 C   0  0  0  0  0  0  0  0  0  0  0  0
  -25.6155   -9.7787   -4.6010 C   0  0  0  0  0  0  0  0  0  0  0  0
  -24.4964   -9.8427   -5.4457 C   0  0  0  0  0  0  0  0  0  0  0  0
  -23.3224  -10.4687   -5.0251 C   0  0  0  0  0  0  0  0  0  0  0  0
  -23.2648  -11.0677   -3.7684 C   0  0  0  0  0  0  0  0  0  0  0  0
  -24.3893  -11.0643   -2.9454 C   0  0  0  0  0  0  0  0  0  0  0  0
  -25.5611  -10.4268   -3.3613 C   0  0  0  0  0  0  0  0  0  0  0  0
  -27.6184  -11.6197   -8.9210 C   0  0  0  0  0  0  0  0  0  0  0  0
  -27.3566  -10.3678   -8.1280 C   0  0  0  0  0  0  0  0  0  0  0  0
  -26.8228   -9.3916   -8.6485 O   0  0  0  0  0  0  0  0  0  0  0  0
  -27.8172  -10.4690   -6.8305 N   0  0  0  0  0  0  0  0  0  0  0  0
  -28.2983  -11.3068   -6.5334 H   0  0  0  0  0  0  0  0  0  0  0  0
 24 25  1  0  0  0
 25 26  2  0  0  0
 25 27  1  0  0  0
 27  1  1  0  0  0
 27 28  1  0  0  0
  1  2  1  0  0  0
  1  5  2  0  0  0
  2  3  1  0  0  0
  3  6  1  0  0  0
  3  4  2  0  0  0
  6  7  1  0  0  0
  6 11  2  0  0  0
  7  8  2  0  0  0
  8  9  1  0  0  0
  9 10  2  0  0  0
 10 12  1  0  0  0
 10 11  1  0  0  0
 12 13  1  0  0  0
 12 17  2  0  0  0
 13 14  2  0  0  0
 14 15  1  0  0  0
 15 16  2  0  0  0
 16 17  1  0  0  0
  4  5  1  0  0  0
  5 18  1  0  0  0
 18 19  1  0  0  0
 18 23  2  0  0  0
 19 20  2  0  0  0
 20 21  1  0  0  0
 21 22  2  0  0  0
 22 23  1  0  0  0
M  END
> <minimizedAffinity>
-8.32658

$$$$
