CHEMBL2386794


 45 49  0  0  0  0  0  0  0  0999 V2000
  -26.8494   -2.0282  -11.1866 C   0  0  0  0  0  0  0  0  0  0  0  0
  -25.6223   -1.4206  -11.1685 C   0  0  0  0  0  0  0  0  0  0  0  0
  -25.3304   -1.0638  -12.5103 C   0  0  0  0  0  0  0  0  0  0  0  0
  -26.3292   -1.4446  -13.3234 N   0  0  0  0  0  0  0  0  0  0  0  0
  -27.2160   -2.0413  -12.5080 N   0  0  0  0  0  0  0  0  0  0  0  0
  -28.0621   -2.4075  -12.9223 H   0  0  0  0  0  0  0  0  0  0  0  0
  -24.1197   -0.3884  -12.9771 C   0  0  0  0  0  0  0  0  0  0  0  0
  -24.0043    0.9975  -12.8170 C   0  0  0  0  0  0  0  0  0  0  0  0
  -22.8720    1.6818  -13.2491 C   0  0  0  0  0  0  0  0  0  0  0  0
  -21.8342    0.9947  -13.8566 C   0  0  0  0  0  0  0  0  0  0  0  0
  -21.9302   -0.3935  -14.0245 C   0  0  0  0  0  0  0  0  0  0  0  0
  -23.0693   -1.0827  -13.5867 C   0  0  0  0  0  0  0  0  0  0  0  0
  -20.6765    1.6336  -14.3104 N   0  0  0  0  0  0  0  0  0  0  0  0
  -20.5541    2.8671  -14.8983 C   0  0  0  0  0  0  0  0  0  0  0  0
  -21.4648    3.6514  -15.1552 O   0  0  0  0  0  0  0  0  0  0  0  0
  -19.2749    3.2761  -15.1614 N   0  0  0  0  0  0  0  0  0  0  0  0
  -19.8080    1.1203  -14.2005 H   0  0  0  0  0  0  0  0  0  0  0  0
  -19.2041    4.2360  -15.4689 H   0  0  0  0  0  0  0  0  0  0  0  0
  -18.1264    2.5379  -15.0315 C   0  0  0  0  0  0  0  0  0  0  0  0
  -17.0445    2.5735  -15.9287 C   0  0  0  0  0  0  0  0  0  0  0  0
  -16.1218    1.7067  -15.3895 C   0  0  0  0  0  0  0  0  0  0  0  0
  -16.6330    1.1696  -14.2522 O   0  0  0  0  0  0  0  0  0  0  0  0
  -17.8791    1.6953  -14.0212 N   0  0  0  0  0  0  0  0  0  0  0  0
  -14.7445    1.2830  -15.7970 C   0  0  0  0  0  0  0  0  0  0  0  0
  -14.7569    0.9181  -17.2907 C   0  0  0  0  0  0  0  0  0  0  0  0
  -13.7136    2.4041  -15.5678 C   0  0  0  0  0  0  0  0  0  0  0  0
  -14.3410    0.0579  -14.9611 C   0  0  0  0  0  0  0  0  0  0  0  0
  -27.5677   -1.9028   -8.8208 C   0  0  0  0  0  0  0  0  0  0  0  0
  -27.0091   -0.8398   -8.6188 O   0  0  0  0  0  0  0  0  0  0  0  0
  -27.5627   -2.5393  -10.1146 N   0  0  0  0  0  0  0  0  0  0  0  0
  -28.1644   -3.3375  -10.2742 H   0  0  0  0  0  0  0  0  0  0  0  0
  -29.8515   -3.9222   -5.8195 C   0  0  0  0  0  0  0  0  0  0  0  0
  -29.7535   -4.4294   -7.1250 C   0  0  0  0  0  0  0  0  0  0  0  0
  -29.0102   -3.7626   -8.0946 C   0  0  0  0  0  0  0  0  0  0  0  0
  -28.3750   -2.5605   -7.7737 C   0  0  0  0  0  0  0  0  0  0  0  0
  -28.5113   -2.0081   -6.4965 C   0  0  0  0  0  0  0  0  0  0  0  0
  -29.2345   -2.6984   -5.5189 C   0  0  0  0  0  0  0  0  0  0  0  0
  -30.6216   -4.6894   -4.7588 C   0  0  0  0  0  0  0  0  0  0  0  0
  -27.9248   -8.6193   -5.3766 C   0  0  0  0  0  0  0  0  0  0  0  0
  -28.3139   -7.5939   -4.4129 N   0  0  0  0  0  0  0  0  0  0  0  0
  -27.9294   -6.2546   -4.8806 C   0  0  0  0  0  0  0  0  0  0  0  0
  -28.3577   -5.1723   -3.8645 C   0  0  0  0  0  0  0  0  0  0  0  0
  -29.8145   -5.1229   -3.6039 N   0  0  0  0  0  0  0  0  0  0  0  0
  -30.2206   -6.4907   -3.1811 C   0  0  0  0  0  0  0  0  0  0  0  0
  -29.7590   -7.6404   -4.1225 C   0  0  0  0  0  0  0  0  0  0  0  0
 39 40  1  0  0  0
 40 41  1  0  0  0
 40 45  1  0  0  0
 41 42  1  0  0  0
 42 43  1  0  0  0
 43 38  1  0  0  0
 43 44  1  0  0  0
 38 32  1  0  0  0
 32 33  1  0  0  0
 32 37  2  0  0  0
 33 34  2  0  0  0
 34 35  1  0  0  0
 35 28  1  0  0  0
 35 36  2  0  0  0
 28 29  2  0  0  0
 28 30  1  0  0  0
 30  1  1  0  0  0
 30 31  1  0  0  0
  1  2  2  0  0  0
  1  5  1  0  0  0
  2  3  1  0  0  0
  3  7  1  0  0  0
  3  4  2  0  0  0
  7  8  1  0  0  0
  7 12  2  0  0  0
  8  9  2  0  0  0
  9 10  1  0  0  0
 10 13  1  0  0  0
 10 11  2  0  0  0
 13 14  1  0  0  0
 13 17  1  0  0  0
 14 15  2  0  0  0
 14 16  1  0  0  0
 16 19  1  0  0  0
 16 18  1  0  0  0
 19 20  1  0  0  0
 19 23  2  0  0  0
 20 21  2  0  0  0
 21 24  1  0  0  0
 21 22  1  0  0  0
 24 25  1  0  0  0
 24 26  1  0  0  0
 24 27  1  0  0  0
 22 23  1  0  0  0
 11 12  1  0  0  0
  4  5  1  0  0  0
  5  6  1  0  0  0
 36 37  1  0  0  0
 44 45  1  0  0  0
M  END
> <minimizedAffinity>
-11.55133

$$$$
