CHEMBL518676


 39 44  0  0  0  0  0  0  0  0999 V2000
  -29.4631   -5.0870   -5.6398 C   0  0  0  0  0  0  0  0  0  0  0  0
  -28.5043   -5.3036   -4.6454 C   0  0  0  0  0  0  0  0  0  0  0  0
  -27.9374   -6.5678   -4.4881 C   0  0  0  0  0  0  0  0  0  0  0  0
  -28.2346   -7.5932   -5.3893 C   0  0  0  0  0  0  0  0  0  0  0  0
  -29.1346   -7.3553   -6.4283 C   0  0  0  0  0  0  0  0  0  0  0  0
  -29.7403   -6.1082   -6.5454 C   0  0  0  0  0  0  0  0  0  0  0  0
  -30.6314   -5.9146   -7.5297 F   0  0  0  0  0  0  0  0  0  0  0  0
  -27.6686   -8.8530   -5.1321 N   0  0  0  0  0  0  0  0  0  0  0  0
  -26.8863   -8.8528   -4.4738 H   0  0  0  0  0  0  0  0  0  0  0  0
  -28.0309  -10.1055   -5.5984 C   0  0  0  0  0  0  0  0  0  0  0  0
  -28.9913  -11.1962   -4.7447 S   0  0  0  0  0  0  0  0  0  0  0  0
  -27.5447  -10.3722   -6.8873 N   0  0  0  0  0  0  0  0  0  0  0  0
  -26.1389  -10.5707   -7.1850 C   0  0  0  0  0  0  0  0  0  0  0  0
  -26.1025  -10.9142   -8.6582 C   0  0  0  0  0  0  0  0  0  0  0  0
  -27.3255  -10.3514   -9.1695 N   0  0  0  0  0  0  0  0  0  0  0  0
  -28.2424  -10.1755   -8.1135 C   0  0  0  0  0  0  0  0  0  0  0  0
  -29.4447   -9.9532   -8.1891 O   0  0  0  0  0  0  0  0  0  0  0  0
  -27.5863  -10.1504  -10.5468 C   0  0  0  0  0  0  0  0  0  0  0  0
  -28.6983  -10.7340  -11.1642 C   0  0  0  0  0  0  0  0  0  0  0  0
  -28.9693  -10.5193  -12.5199 C   0  0  0  0  0  0  0  0  0  0  0  0
  -28.1316   -9.7088  -13.2772 C   0  0  0  0  0  0  0  0  0  0  0  0
  -27.0272   -9.1099  -12.6783 C   0  0  0  0  0  0  0  0  0  0  0  0
  -26.7600   -9.3239  -11.3230 C   0  0  0  0  0  0  0  0  0  0  0  0
  -30.1694   -3.9163   -5.7981 O   0  0  0  0  0  0  0  0  0  0  0  0
  -27.6318   -1.7756   -8.9926 C   0  0  0  0  0  0  0  0  0  0  0  0
  -27.3320   -0.8520   -8.0166 C   0  0  0  0  0  0  0  0  0  0  0  0
  -28.0243   -1.1110   -6.7979 C   0  0  0  0  0  0  0  0  0  0  0  0
  -27.9620   -0.3398   -5.6773 N   0  0  0  0  0  0  0  0  0  0  0  0
  -28.7205   -0.7470   -4.6436 C   0  0  0  0  0  0  0  0  0  0  0  0
  -29.5009   -1.8848   -4.6271 C   0  0  0  0  0  0  0  0  0  0  0  0
  -29.4895   -2.7210   -5.7432 C   0  0  0  0  0  0  0  0  0  0  0  0
  -28.7823   -2.2788   -6.8698 C   0  0  0  0  0  0  0  0  0  0  0  0
  -28.6888   -2.9846   -8.4293 S   0  0  0  0  0  0  0  0  0  0  0  0
  -24.5800   -1.6770  -12.9150 C   0  0  0  0  0  0  0  0  0  0  0  0
  -25.7572   -1.6572  -12.0913 N   0  0  0  0  0  0  0  0  0  0  0  0
  -27.0498   -1.7089  -12.5228 C   0  0  0  0  0  0  0  0  0  0  0  0
  -27.8851   -1.7720  -11.5081 N   0  0  0  0  0  0  0  0  0  0  0  0
  -27.1013   -1.7151  -10.3819 C   0  0  0  0  0  0  0  0  0  0  0  0
  -25.7686   -1.6296  -10.7277 C   0  0  0  0  0  0  0  0  0  0  0  0
 34 35  1  0  0  0
 35 36  1  0  0  0
 35 39  1  0  0  0
 36 37  2  0  0  0
 37 38  1  0  0  0
 38 25  1  0  0  0
 38 39  2  0  0  0
 25 26  2  0  0  0
 25 33  1  0  0  0
 26 27  1  0  0  0
 27 28  1  0  0  0
 27 32  2  0  0  0
 28 29  2  0  0  0
 29 30  1  0  0  0
 30 31  2  0  0  0
 31 24  1  0  0  0
 31 32  1  0  0  0
 24  1  1  0  0  0
  1  2  1  0  0  0
  1  6  2  0  0  0
  2  3  2  0  0  0
  3  4  1  0  0  0
  4  8  1  0  0  0
  4  5  2  0  0  0
  8 10  1  0  0  0
  8  9  1  0  0  0
 10 11  2  0  0  0
 10 12  1  0  0  0
 12 13  1  0  0  0
 12 16  1  0  0  0
 13 14  1  0  0  0
 14 15  1  0  0  0
 15 18  1  0  0  0
 15 16  1  0  0  0
 18 19  1  0  0  0
 18 23  2  0  0  0
 19 20  2  0  0  0
 20 21  1  0  0  0
 21 22  2  0  0  0
 22 23  1  0  0  0
 16 17  2  0  0  0
  5  6  1  0  0  0
  6  7  1  0  0  0
 32 33  1  0  0  0
M  END
> <minimizedAffinity>
-9.26787

$$$$
