CHEMBL2031902


 37 41  0  0  0  0  0  0  0  0999 V2000
  -15.5234   -1.6180  -12.4912 C   0  0  0  0  0  0  0  0  0  0  0  0
  -15.8558   -0.2823  -12.4254 C   0  0  0  0  0  0  0  0  0  0  0  0
  -15.3833    0.6631  -13.2802 N   0  0  0  0  0  0  0  0  0  0  0  0
  -14.4351    0.2880  -14.1557 C   0  0  0  0  0  0  0  0  0  0  0  0
  -13.9434   -0.9605  -14.2009 N   0  0  0  0  0  0  0  0  0  0  0  0
  -14.5010   -1.8803  -13.3740 C   0  0  0  0  0  0  0  0  0  0  0  0
  -14.0570    1.2744  -15.0781 N   0  0  0  0  0  0  0  0  0  0  0  0
  -14.7527    1.6177  -16.2103 C   0  0  0  0  0  0  0  0  0  0  0  0
  -15.7737    1.0486  -16.5845 O   0  0  0  0  0  0  0  0  0  0  0  0
  -13.1654    1.7138  -14.8710 H   0  0  0  0  0  0  0  0  0  0  0  0
  -14.1968    2.7442  -17.0198 C   0  0  0  0  0  0  0  0  0  0  0  0
  -13.6405    2.6848  -18.2549 C   0  0  0  0  0  0  0  0  0  0  0  0
  -13.2735    1.4582  -19.0412 C   0  0  0  0  0  0  0  0  0  0  0  0
  -13.4134    3.9548  -18.8069 N   0  0  0  0  0  0  0  0  0  0  0  0
  -12.4544    4.2667  -19.8619 C   0  0  0  0  0  0  0  0  0  0  0  0
  -13.5903    4.8735  -17.7600 N   0  0  0  0  0  0  0  0  0  0  0  0
  -14.1368    4.2024  -16.6603 C   0  0  0  0  0  0  0  0  0  0  0  0
  -14.5237    4.6416  -15.5917 O   0  0  0  0  0  0  0  0  0  0  0  0
  -13.6065    6.2784  -17.9678 C   0  0  0  0  0  0  0  0  0  0  0  0
  -12.5558    7.0473  -17.4618 C   0  0  0  0  0  0  0  0  0  0  0  0
  -12.5107    8.4287  -17.6793 C   0  0  0  0  0  0  0  0  0  0  0  0
  -13.5352    9.0606  -18.3802 C   0  0  0  0  0  0  0  0  0  0  0  0
  -14.5890    8.3051  -18.8921 C   0  0  0  0  0  0  0  0  0  0  0  0
  -14.6158    6.9158  -18.7080 C   0  0  0  0  0  0  0  0  0  0  0  0
  -16.1129   -2.6598  -11.8300 O   0  0  0  0  0  0  0  0  0  0  0  0
  -14.4945   -7.5471  -12.6076 C   0  0  0  0  0  0  0  0  0  0  0  0
  -15.0651   -6.6276  -13.4731 C   0  0  0  0  0  0  0  0  0  0  0  0
  -15.2485   -5.3168  -13.0651 C   0  0  0  0  0  0  0  0  0  0  0  0
  -14.9963   -4.9062  -11.7427 C   0  0  0  0  0  0  0  0  0  0  0  0
  -15.3630   -3.6475  -11.2019 C   0  0  0  0  0  0  0  0  0  0  0  0
  -14.9148   -3.2954   -9.9284 C   0  0  0  0  0  0  0  0  0  0  0  0
  -14.2049   -4.2316   -9.2035 C   0  0  0  0  0  0  0  0  0  0  0  0
  -13.9450   -5.4802   -9.6426 N   0  0  0  0  0  0  0  0  0  0  0  0
  -14.3404   -5.8198  -10.8830 C   0  0  0  0  0  0  0  0  0  0  0  0
  -14.1030   -7.1210  -11.3353 C   0  0  0  0  0  0  0  0  0  0  0  0
  -13.0005   -9.3751  -12.4872 C   0  0  0  0  0  0  0  0  0  0  0  0
  -14.2611   -8.8596  -12.9177 O   0  0  0  0  0  0  0  0  0  0  0  0
 36 37  1  0  0  0
 37 26  1  0  0  0
 26 27  1  0  0  0
 26 35  2  0  0  0
 27 28  2  0  0  0
 28 29  1  0  0  0
 29 30  1  0  0  0
 29 34  2  0  0  0
 30 25  1  0  0  0
 30 31  2  0  0  0
 25  1  1  0  0  0
  1  2  1  0  0  0
  1  6  2  0  0  0
  2  3  2  0  0  0
  3  4  1  0  0  0
  4  7  1  0  0  0
  4  5  2  0  0  0
  7  8  1  0  0  0
  7 10  1  0  0  0
  8  9  2  0  0  0
  8 11  1  0  0  0
 11 12  2  0  0  0
 11 17  1  0  0  0
 12 13  1  0  0  0
 12 14  1  0  0  0
 14 15  1  0  0  0
 14 16  1  0  0  0
 16 19  1  0  0  0
 16 17  1  0  0  0
 19 20  1  0  0  0
 19 24  2  0  0  0
 20 21  2  0  0  0
 21 22  1  0  0  0
 22 23  2  0  0  0
 23 24  1  0  0  0
 17 18  2  0  0  0
  5  6  1  0  0  0
 31 32  1  0  0  0
 32 33  2  0  0  0
 33 34  1  0  0  0
 34 35  1  0  0  0
M  END
> <minimizedAffinity>
-8.06040

$$$$
