CHEMBL1614709


 37 41  0  0  0  0  0  0  0  0999 V2000
  -17.1755    2.3947  -15.5826 C   0  0  0  0  0  0  0  0  0  0  0  0
  -16.3404    3.0735  -16.3892 N   0  0  0  0  0  0  0  0  0  0  0  0
  -15.0173    2.8965  -16.1624 C   0  0  0  0  0  0  0  0  0  0  0  0
  -14.4976    2.0769  -15.1851 C   0  0  0  0  0  0  0  0  0  0  0  0
  -13.1749    1.9382  -15.0276 F   0  0  0  0  0  0  0  0  0  0  0  0
  -15.4089    1.3719  -14.4302 C   0  0  0  0  0  0  0  0  0  0  0  0
  -16.7258    1.5443  -14.6484 N   0  0  0  0  0  0  0  0  0  0  0  0
  -18.5467    2.6143  -15.7582 N   0  0  0  0  0  0  0  0  0  0  0  0
  -18.7020    3.5591  -16.0771 H   0  0  0  0  0  0  0  0  0  0  0  0
  -22.9006    2.9442  -13.4874 C   0  0  0  0  0  0  0  0  0  0  0  0
  -21.8219    2.0215  -13.9986 C   0  0  0  0  0  0  0  0  0  0  0  0
  -20.6711    2.6405  -14.5183 C   0  0  0  0  0  0  0  0  0  0  0  0
  -19.6540    1.9585  -15.1865 C   0  0  0  0  0  0  0  0  0  0  0  0
  -19.7844    0.5731  -15.2433 C   0  0  0  0  0  0  0  0  0  0  0  0
  -20.9140   -0.0759  -14.7041 C   0  0  0  0  0  0  0  0  0  0  0  0
  -21.9567    0.6256  -14.0701 C   0  0  0  0  0  0  0  0  0  0  0  0
  -23.0987   -0.0030  -13.5965 N   0  0  0  0  0  0  0  0  0  0  0  0
  -23.8407   -0.9729  -14.4201 C   0  0  0  0  0  0  0  0  0  0  0  0
  -25.3141   -1.0313  -13.9293 C   0  0  0  0  0  0  0  0  0  0  0  0
  -25.4444   -1.3076  -12.4755 N   0  0  0  0  0  0  0  0  0  0  0  0
  -26.8418   -1.2386  -12.0579 C   0  0  0  0  0  0  0  0  0  0  0  0
  -24.6254   -0.3347  -11.7142 C   0  0  0  0  0  0  0  0  0  0  0  0
  -23.1477   -0.3696  -12.1673 C   0  0  0  0  0  0  0  0  0  0  0  0
  -14.9786    0.4857  -13.3934 N   0  0  0  0  0  0  0  0  0  0  0  0
  -14.0070    0.7222  -13.1576 H   0  0  0  0  0  0  0  0  0  0  0  0
  -15.1053   -0.9221  -13.8051 C   0  0  0  0  0  0  0  0  0  0  0  0
  -13.7734   -1.5961  -14.2767 C   0  0  0  0  0  0  0  0  0  0  0  0
  -13.8519   -2.9815  -13.5886 C   0  0  0  0  0  0  0  0  0  0  0  0
  -15.0853   -3.7134  -14.0820 C   0  0  0  0  0  0  0  0  0  0  0  0
  -16.1514   -3.1160  -13.5216 C   0  0  0  0  0  0  0  0  0  0  0  0
  -15.6314   -1.9217  -12.7283 C   0  0  0  0  0  0  0  0  0  0  0  0
  -14.3705   -2.5978  -12.1936 C   0  0  0  0  0  0  0  0  0  0  0  0
  -12.5005   -0.8859  -13.8309 C   0  0  0  0  0  0  0  0  0  0  0  0
  -11.4545   -0.9468  -14.7045 N   0  0  0  0  0  0  0  0  0  0  0  0
  -12.3546   -0.3215  -12.7496 O   0  0  0  0  0  0  0  0  0  0  0  0
  -11.6290   -1.0574  -15.6943 H   0  0  0  0  0  0  0  0  0  0  0  0
  -10.6483   -0.3903  -14.4466 H   0  0  0  0  0  0  0  0  0  0  0  0
 10 11  1  0  0  0
 11 12  1  0  0  0
 11 16  2  0  0  0
 12 13  2  0  0  0
 13  8  1  0  0  0
 13 14  1  0  0  0
  8  1  1  0  0  0
  8  9  1  0  0  0
  1  2  1  0  0  0
  1  7  2  0  0  0
  2  3  2  0  0  0
  3  4  1  0  0  0
  4  5  1  0  0  0
  4  6  2  0  0  0
  6 24  1  0  0  0
  6  7  1  0  0  0
 24 25  1  0  0  0
 26 27  1  0  0  0
 26 31  1  0  0  0
 26 24  1  0  0  0
 27 33  1  0  0  0
 27 28  1  0  0  0
 33 34  1  0  0  0
 33 35  2  0  0  0
 34 36  1  0  0  0
 34 37  1  0  0  0
 28 29  1  0  0  0
 28 32  1  0  0  0
 29 30  2  0  0  0
 30 31  1  0  0  0
 31 32  1  0  0  0
 14 15  2  0  0  0
 15 16  1  0  0  0
 16 17  1  0  0  0
 17 18  1  0  0  0
 17 23  1  0  0  0
 18 19  1  0  0  0
 19 20  1  0  0  0
 20 21  1  0  0  0
 20 22  1  0  0  0
 22 23  1  0  0  0
M  END
> <minimizedAffinity>
-8.11459

$$$$
