CHEMBL466943


 31 35  0  0  0  0  0  0  0  0999 V2000
  -26.8574   -1.7932  -11.5255 C   0  0  0  0  0  0  0  0  0  0  0  0
  -28.1991   -2.0627  -11.8691 C   0  0  0  0  0  0  0  0  0  0  0  0
  -28.5979   -2.1467  -13.1997 C   0  0  0  0  0  0  0  0  0  0  0  0
  -27.6680   -1.9332  -14.2053 C   0  0  0  0  0  0  0  0  0  0  0  0
  -26.3327   -1.6743  -13.8813 C   0  0  0  0  0  0  0  0  0  0  0  0
  -25.8927   -1.5865  -12.5463 C   0  0  0  0  0  0  0  0  0  0  0  0
  -26.4938   -1.6023  -10.0801 C   0  0  0  0  0  0  0  0  0  0  0  0
  -25.5756   -0.8276   -9.7955 O   0  0  0  0  0  0  0  0  0  0  0  0
  -28.8444   -5.1478   -7.7901 C   0  0  0  0  0  0  0  0  0  0  0  0
  -28.3323   -3.8177   -8.0199 N   0  0  0  0  0  0  0  0  0  0  0  0
  -27.5545   -3.5949   -9.0918 N   0  0  0  0  0  0  0  0  0  0  0  0
  -27.2837   -2.2768   -9.0417 C   0  0  0  0  0  0  0  0  0  0  0  0
  -27.8778   -1.6772   -7.8883 C   0  0  0  0  0  0  0  0  0  0  0  0
  -27.9351   -0.3817   -7.3367 C   0  0  0  0  0  0  0  0  0  0  0  0
  -28.6949   -0.1651   -6.1803 C   0  0  0  0  0  0  0  0  0  0  0  0
  -29.3900   -1.2123   -5.5779 C   0  0  0  0  0  0  0  0  0  0  0  0
  -29.3461   -2.5054   -6.1053 C   0  0  0  0  0  0  0  0  0  0  0  0
  -28.5789   -2.7050   -7.2614 C   0  0  0  0  0  0  0  0  0  0  0  0
  -24.5169   -1.4788  -12.2502 N   0  0  0  0  0  0  0  0  0  0  0  0
  -24.3411   -0.6248  -11.7058 H   0  0  0  0  0  0  0  0  0  0  0  0
  -23.5364   -1.5884  -13.3263 C   0  0  0  0  0  0  0  0  0  0  0  0
  -22.8099   -0.2851  -13.5963 C   0  0  0  0  0  0  0  0  0  0  0  0
  -23.4798    0.9135  -13.3209 C   0  0  0  0  0  0  0  0  0  0  0  0
  -22.9100    2.1469  -13.6493 C   0  0  0  0  0  0  0  0  0  0  0  0
  -21.6642    2.2387  -14.2432 C   0  0  0  0  0  0  0  0  0  0  0  0
  -21.1841    3.4575  -14.5489 N   0  0  0  0  0  0  0  0  0  0  0  0
  -19.9556    3.5326  -15.1008 C   0  0  0  0  0  0  0  0  0  0  0  0
  -19.1611    2.4325  -15.3574 C   0  0  0  0  0  0  0  0  0  0  0  0
  -19.6722    1.1714  -15.0582 C   0  0  0  0  0  0  0  0  0  0  0  0
  -20.9550    1.0469  -14.4981 C   0  0  0  0  0  0  0  0  0  0  0  0
  -21.5412   -0.2057  -14.1926 C   0  0  0  0  0  0  0  0  0  0  0  0
  9 10  1  0  0  0
 10 11  1  0  0  0
 10 18  1  0  0  0
 11 12  2  0  0  0
 12  7  1  0  0  0
 12 13  1  0  0  0
  7  8  2  0  0  0
  7  1  1  0  0  0
  1  2  1  0  0  0
  1  6  2  0  0  0
  2  3  2  0  0  0
  3  4  1  0  0  0
  4  5  2  0  0  0
  5  6  1  0  0  0
  6 19  1  0  0  0
 19 21  1  0  0  0
 19 20  1  0  0  0
 21 22  1  0  0  0
 22 23  1  0  0  0
 22 31  2  0  0  0
 23 24  2  0  0  0
 24 25  1  0  0  0
 25 26  1  0  0  0
 25 30  2  0  0  0
 26 27  2  0  0  0
 27 28  1  0  0  0
 28 29  2  0  0  0
 29 30  1  0  0  0
 30 31  1  0  0  0
 13 14  1  0  0  0
 13 18  2  0  0  0
 14 15  2  0  0  0
 15 16  1  0  0  0
 16 17  2  0  0  0
 17 18  1  0  0  0
M  END
> <minimizedAffinity>
-10.11588

$$$$
