CHEMBL3814773


 49 53  0  0  0  0  0  0  0  0999 V2000
  -13.7843    0.1004  -14.3087 C   0  0  0  0  0  0  0  0  0  0  0  0
  -14.6194   -0.1217  -13.2099 C   0  0  0  0  0  0  0  0  0  0  0  0
  -15.9803    0.1915  -13.2801 C   0  0  0  0  0  0  0  0  0  0  0  0
  -16.5085    0.7849  -14.4290 C   0  0  0  0  0  0  0  0  0  0  0  0
  -15.6836    1.0414  -15.5190 C   0  0  0  0  0  0  0  0  0  0  0  0
  -14.3271    0.7170  -15.4469 C   0  0  0  0  0  0  0  0  0  0  0  0
  -13.5608    1.0502  -16.4965 F   0  0  0  0  0  0  0  0  0  0  0  0
  -17.8736    1.0989  -14.4298 N   0  0  0  0  0  0  0  0  0  0  0  0
  -18.4627    2.0340  -15.2619 C   0  0  0  0  0  0  0  0  0  0  0  0
  -17.9183    2.6816  -16.1457 O   0  0  0  0  0  0  0  0  0  0  0  0
  -18.4059    0.8156  -13.6169 H   0  0  0  0  0  0  0  0  0  0  0  0
  -19.9147    2.2541  -14.9746 C   0  0  0  0  0  0  0  0  0  0  0  0
  -20.6786    3.3950  -15.6443 C   0  0  0  0  0  0  0  0  0  0  0  0
  -20.2921    3.5364  -14.2098 C   0  0  0  0  0  0  0  0  0  0  0  0
  -20.6665    0.9998  -14.6544 C   0  0  0  0  0  0  0  0  0  0  0  0
  -20.3474   -0.0228  -15.2441 O   0  0  0  0  0  0  0  0  0  0  0  0
  -21.6705    1.1527  -13.7123 N   0  0  0  0  0  0  0  0  0  0  0  0
  -21.7447    2.0594  -13.2592 H   0  0  0  0  0  0  0  0  0  0  0  0
  -22.6000    0.1613  -13.3314 C   0  0  0  0  0  0  0  0  0  0  0  0
  -22.5553   -0.4806  -12.0910 C   0  0  0  0  0  0  0  0  0  0  0  0
  -23.5222   -1.4255  -11.7349 C   0  0  0  0  0  0  0  0  0  0  0  0
  -24.5313   -1.7376  -12.6315 C   0  0  0  0  0  0  0  0  0  0  0  0
  -25.4749   -2.6199  -12.2815 F   0  0  0  0  0  0  0  0  0  0  0  0
  -24.5762   -1.1428  -13.8904 C   0  0  0  0  0  0  0  0  0  0  0  0
  -23.5999   -0.2002  -14.2412 C   0  0  0  0  0  0  0  0  0  0  0  0
  -12.4589   -0.2490  -14.1242 O   0  0  0  0  0  0  0  0  0  0  0  0
  -10.9287   -4.8344  -13.9186 N   0  0  0  0  0  0  0  0  0  0  0  0
  -11.1307   -3.6007  -14.5305 C   0  0  0  0  0  0  0  0  0  0  0  0
  -10.7793   -3.5858  -15.8252 N   0  0  0  0  0  0  0  0  0  0  0  0
  -11.1083   -2.5001  -16.5166 C   0  0  0  0  0  0  0  0  0  0  0  0
  -11.7410   -1.4287  -16.0287 N   0  0  0  0  0  0  0  0  0  0  0  0
  -11.9790   -1.4181  -14.7018 C   0  0  0  0  0  0  0  0  0  0  0  0
  -11.7492   -2.5209  -13.8943 C   0  0  0  0  0  0  0  0  0  0  0  0
  -10.3372   -5.4115  -14.5018 H   0  0  0  0  0  0  0  0  0  0  0  0
  -10.6062   -4.7313  -12.9566 H   0  0  0  0  0  0  0  0  0  0  0  0
  -12.1289   -2.5797  -12.4612 C   0  0  0  0  0  0  0  0  0  0  0  0
  -11.2404   -2.4921  -11.5156 N   0  0  0  0  0  0  0  0  0  0  0  0
  -11.8204   -2.6601  -10.2443 O   0  0  0  0  0  0  0  0  0  0  0  0
  -11.9963   -4.0760  -10.0243 C   0  0  0  0  0  0  0  0  0  0  0  0
  -13.4412   -4.4234   -9.6058 C   0  0  0  0  0  0  0  0  0  0  0  0
  -14.2696   -3.2630   -9.7230 O   0  0  0  0  0  0  0  0  0  0  0  0
  -14.7345   -3.3221  -10.5758 H   0  0  0  0  0  0  0  0  0  0  0  0
  -13.9686   -5.6048  -10.4516 C   0  0  0  0  0  0  0  0  0  0  0  0
  -13.3319   -5.8723  -11.7577 N   0  0  0  0  0  0  0  0  0  0  0  0
  -14.2421   -5.8792  -12.9250 C   0  0  0  0  0  0  0  0  0  0  0  0
  -15.1223   -7.1390  -13.0971 C   0  0  0  0  0  0  0  0  0  0  0  0
  -14.3955   -8.3655  -12.9400 O   0  0  0  0  0  0  0  0  0  0  0  0
  -13.6500   -8.3680  -11.7200 C   0  0  0  0  0  0  0  0  0  0  0  0
  -12.6562   -7.1953  -11.7150 C   0  0  0  0  0  0  0  0  0  0  0  0
 27 28  1  0  0  0
 27 34  1  0  0  0
 27 35  1  0  0  0
 28 29  1  0  0  0
 28 33  2  0  0  0
 29 30  2  0  0  0
 30 31  1  0  0  0
 31 32  2  0  0  0
 32 26  1  0  0  0
 32 33  1  0  0  0
 26  1  1  0  0  0
  1  2  1  0  0  0
  1  6  2  0  0  0
  2  3  2  0  0  0
  3  4  1  0  0  0
  4  8  1  0  0  0
  4  5  2  0  0  0
  8  9  1  0  0  0
  8 11  1  0  0  0
  9 10  2  0  0  0
  9 12  1  0  0  0
 12 15  1  0  0  0
 12 13  1  0  0  0
 12 14  1  0  0  0
 15 16  2  0  0  0
 15 17  1  0  0  0
 17 19  1  0  0  0
 17 18  1  0  0  0
 19 20  1  0  0  0
 19 25  2  0  0  0
 20 21  2  0  0  0
 21 22  1  0  0  0
 22 23  1  0  0  0
 22 24  2  0  0  0
 24 25  1  0  0  0
 13 14  1  0  0  0
  5  6  1  0  0  0
  6  7  1  0  0  0
 33 36  1  0  0  0
 36 37  2  0  0  0
 37 38  1  0  0  0
 38 39  1  0  0  0
 39 40  1  0  0  0
 40 41  1  0  0  0
 40 43  1  0  0  0
 41 42  1  0  0  0
 43 44  1  0  0  0
 44 45  1  0  0  0
 44 49  1  0  0  0
 45 46  1  0  0  0
 46 47  1  0  0  0
 47 48  1  0  0  0
 48 49  1  0  0  0
M  END
> <minimizedAffinity>
-9.34258

$$$$
