CHEMBL4104034


 36 40  0  0  0  0  0  0  0  0999 V2000
  -27.7859   -1.6648   -9.1687 N   0  0  0  0  0  0  0  0  0  0  0  0
  -27.0308   -1.8809  -10.3150 C   0  0  0  0  0  0  0  0  0  0  0  0
  -26.5581   -2.9706  -10.6460 O   0  0  0  0  0  0  0  0  0  0  0  0
  -26.8158   -0.7368  -11.0616 N   0  0  0  0  0  0  0  0  0  0  0  0
  -28.2412   -0.7677   -9.0763 H   0  0  0  0  0  0  0  0  0  0  0  0
  -26.7273    0.1059  -10.5114 H   0  0  0  0  0  0  0  0  0  0  0  0
  -28.5609   -4.5906   -6.1283 C   0  0  0  0  0  0  0  0  0  0  0  0
  -28.6124   -4.8982   -7.4814 C   0  0  0  0  0  0  0  0  0  0  0  0
  -28.4402   -3.9318   -8.4709 C   0  0  0  0  0  0  0  0  0  0  0  0
  -28.0406   -2.6329   -8.1666 C   0  0  0  0  0  0  0  0  0  0  0  0
  -27.8673   -2.3246   -6.8097 C   0  0  0  0  0  0  0  0  0  0  0  0
  -28.1420   -3.2845   -5.8104 C   0  0  0  0  0  0  0  0  0  0  0  0
  -31.4538   -3.2573   -4.4493 C   0  0  0  0  0  0  0  0  0  0  0  0
  -31.0949   -4.5969   -3.9062 C   0  0  0  0  0  0  0  0  0  0  0  0
  -31.8824   -5.0798   -2.9317 N   0  0  0  0  0  0  0  0  0  0  0  0
  -31.3255   -6.2562   -2.6192 N   0  0  0  0  0  0  0  0  0  0  0  0
  -30.2268   -6.5632   -3.3543 C   0  0  0  0  0  0  0  0  0  0  0  0
  -29.5081   -7.6931   -3.2114 N   0  0  0  0  0  0  0  0  0  0  0  0
  -28.4720   -7.7621   -4.0693 C   0  0  0  0  0  0  0  0  0  0  0  0
  -28.1372   -6.8011   -5.0075 C   0  0  0  0  0  0  0  0  0  0  0  0
  -28.9026   -5.6162   -5.1247 C   0  0  0  0  0  0  0  0  0  0  0  0
  -30.0174   -5.5042   -4.2395 C   0  0  0  0  0  0  0  0  0  0  0  0
  -31.7367   -6.8157   -1.8844 H   0  0  0  0  0  0  0  0  0  0  0  0
  -25.9960   -0.8034  -12.2247 C   0  0  0  0  0  0  0  0  0  0  0  0
  -26.4018   -1.6079  -13.2863 C   0  0  0  0  0  0  0  0  0  0  0  0
  -25.6461   -1.6381  -14.4556 C   0  0  0  0  0  0  0  0  0  0  0  0
  -24.4707   -0.8865  -14.5561 C   0  0  0  0  0  0  0  0  0  0  0  0
  -24.0364   -0.0552  -13.5150 C   0  0  0  0  0  0  0  0  0  0  0  0
  -24.8197   -0.0369  -12.3469 C   0  0  0  0  0  0  0  0  0  0  0  0
  -22.9446    0.7752  -13.7133 N   0  0  0  0  0  0  0  0  0  0  0  0
  -22.9911    2.1846  -13.2981 C   0  0  0  0  0  0  0  0  0  0  0  0
  -22.0998    3.0256  -14.2423 C   0  0  0  0  0  0  0  0  0  0  0  0
  -20.6995    2.5426  -14.2734 N   0  0  0  0  0  0  0  0  0  0  0  0
  -19.8944    3.3682  -15.1687 C   0  0  0  0  0  0  0  0  0  0  0  0
  -20.6964    1.1248  -14.7054 C   0  0  0  0  0  0  0  0  0  0  0  0
  -21.5809    0.2203  -13.8060 C   0  0  0  0  0  0  0  0  0  0  0  0
 13 14  1  0  0  0
 14 15  2  0  0  0
 14 22  1  0  0  0
 15 16  1  0  0  0
 16 17  1  0  0  0
 16 23  1  0  0  0
 17 18  1  0  0  0
 17 22  2  0  0  0
 18 19  2  0  0  0
 19 20  1  0  0  0
 20 21  2  0  0  0
 21  7  1  0  0  0
 21 22  1  0  0  0
  7  8  1  0  0  0
  7 12  2  0  0  0
  8  9  2  0  0  0
  9 10  1  0  0  0
 10  1  1  0  0  0
 10 11  2  0  0  0
  1  2  1  0  0  0
  1  5  1  0  0  0
  2  3  2  0  0  0
  2  4  1  0  0  0
  4 24  1  0  0  0
  4  6  1  0  0  0
 24 25  1  0  0  0
 24 29  2  0  0  0
 25 26  2  0  0  0
 26 27  1  0  0  0
 27 28  2  0  0  0
 28 30  1  0  0  0
 28 29  1  0  0  0
 30 31  1  0  0  0
 30 36  1  0  0  0
 31 32  1  0  0  0
 32 33  1  0  0  0
 33 34  1  0  0  0
 33 35  1  0  0  0
 35 36  1  0  0  0
 11 12  1  0  0  0
M  END
> <minimizedAffinity>
-9.80970

$$$$
