CHEMBL220406


 38 44  0  0  0  0  0  0  0  0999 V2000
  -13.2716   -4.2911  -17.1661 N   0  0  0  0  0  0  0  0  0  0  0  0
  -13.1517   -2.8897  -17.3096 C   0  0  0  0  0  0  0  0  0  0  0  0
  -12.8123   -2.0776  -18.4116 C   0  0  0  0  0  0  0  0  0  0  0  0
  -12.6413   -0.6903  -18.2133 C   0  0  0  0  0  0  0  0  0  0  0  0
  -12.8460   -0.1109  -16.9665 C   0  0  0  0  0  0  0  0  0  0  0  0
  -13.1944   -0.9261  -15.8857 C   0  0  0  0  0  0  0  0  0  0  0  0
  -13.3153   -2.3139  -16.0439 C   0  0  0  0  0  0  0  0  0  0  0  0
  -13.4525   -3.4157  -15.2270 C   0  0  0  0  0  0  0  0  0  0  0  0
  -13.2005   -3.3636  -13.8475 C   0  0  0  0  0  0  0  0  0  0  0  0
  -12.8320   -4.5843  -13.2507 C   0  0  0  0  0  0  0  0  0  0  0  0
  -12.8370   -5.8195  -13.9305 C   0  0  0  0  0  0  0  0  0  0  0  0
  -13.6935   -5.8148  -15.0832 C   0  0  0  0  0  0  0  0  0  0  0  0
  -13.5939   -4.6265  -15.8457 C   0  0  0  0  0  0  0  0  0  0  0  0
  -15.0747   -6.5445  -14.7811 C   0  0  0  0  0  0  0  0  0  0  0  0
  -15.3053   -6.9160  -13.2538 C   0  0  0  0  0  0  0  0  0  0  0  0
  -14.0717   -7.6103  -12.7971 C   0  0  0  0  0  0  0  0  0  0  0  0
  -13.9554   -8.8688  -12.3757 N   0  0  0  0  0  0  0  0  0  0  0  0
  -12.6337   -9.1179  -12.5586 N   0  0  0  0  0  0  0  0  0  0  0  0
  -12.1236  -10.4506  -12.3467 C   0  0  0  0  0  0  0  0  0  0  0  0
  -11.9581   -8.0836  -13.1620 C   0  0  0  0  0  0  0  0  0  0  0  0
  -12.8407   -7.0332  -13.1530 C   0  0  0  0  0  0  0  0  0  0  0  0
  -12.6166   -4.3301  -11.8525 C   0  0  0  0  0  0  0  0  0  0  0  0
  -12.3377   -5.0388  -10.8960 O   0  0  0  0  0  0  0  0  0  0  0  0
  -12.8854   -2.9706  -11.7003 N   0  0  0  0  0  0  0  0  0  0  0  0
  -13.1943   -2.2486  -12.9080 C   0  0  0  0  0  0  0  0  0  0  0  0
  -12.8934   -2.5718  -10.7740 H   0  0  0  0  0  0  0  0  0  0  0  0
  -12.7272    1.2538  -16.6629 N   0  0  0  0  0  0  0  0  0  0  0  0
  -13.6783    2.2548  -16.6904 C   0  0  0  0  0  0  0  0  0  0  0  0
  -14.8339    2.1043  -17.0595 O   0  0  0  0  0  0  0  0  0  0  0  0
  -11.8099    1.5647  -16.3646 H   0  0  0  0  0  0  0  0  0  0  0  0
  -13.1697    3.5529  -16.2167 C   0  0  0  0  0  0  0  0  0  0  0  0
  -12.5202    3.8142  -15.0240 C   0  0  0  0  0  0  0  0  0  0  0  0
  -12.1334    5.1793  -14.8854 C   0  0  0  0  0  0  0  0  0  0  0  0
  -12.5125    5.9347  -15.9713 C   0  0  0  0  0  0  0  0  0  0  0  0
  -13.3319    4.9975  -17.1412 S   0  0  0  0  0  0  0  0  0  0  0  0
  -12.8738   -5.2337  -18.2065 C   0  0  0  0  0  0  0  0  0  0  0  0
  -14.7628   -5.0445  -19.9342 C   0  0  0  0  0  0  0  0  0  0  0  0
  -14.0440   -5.9291  -18.9263 C   0  0  0  0  0  0  0  0  0  0  0  0
 37 38  1  0  0  0
 38 36  1  0  0  0
 36  1  1  0  0  0
  1  2  1  0  0  0
  1 13  1  0  0  0
  2  3  1  0  0  0
  2  7  2  0  0  0
  3  4  2  0  0  0
  4  5  1  0  0  0
  5 27  1  0  0  0
  5  6  2  0  0  0
 27 28  1  0  0  0
 27 30  1  0  0  0
 28 29  2  0  0  0
 28 31  1  0  0  0
 31 32  2  0  0  0
 31 35  1  0  0  0
 32 33  1  0  0  0
 33 34  2  0  0  0
 34 35  1  0  0  0
  6  7  1  0  0  0
  7  8  1  0  0  0
  8  9  1  0  0  0
  8 13  2  0  0  0
  9 10  2  0  0  0
  9 25  1  0  0  0
 10 11  1  0  0  0
 10 22  1  0  0  0
 11 12  2  0  0  0
 11 21  1  0  0  0
 12 13  1  0  0  0
 12 14  1  0  0  0
 14 15  1  0  0  0
 15 16  1  0  0  0
 16 17  2  0  0  0
 16 21  1  0  0  0
 17 18  1  0  0  0
 18 19  1  0  0  0
 18 20  1  0  0  0
 20 21  2  0  0  0
 22 23  2  0  0  0
 22 24  1  0  0  0
 24 25  1  0  0  0
 24 26  1  0  0  0
M  END
> <minimizedAffinity>
-6.59262

$$$$
