CHEMBL256246


 36 39  0  0  0  0  0  0  0  0999 V2000
  -13.5316   -3.5361  -10.8335 C   0  0  0  0  0  0  0  0  0  0  0  0
  -14.9243   -3.4655  -10.7385 C   0  0  0  0  0  0  0  0  0  0  0  0
  -15.6970   -2.8840  -11.7490 C   0  0  0  0  0  0  0  0  0  0  0  0
  -15.1115   -2.4227  -12.9295 C   0  0  0  0  0  0  0  0  0  0  0  0
  -13.7364   -2.5741  -13.0907 C   0  0  0  0  0  0  0  0  0  0  0  0
  -12.9587   -3.0946  -12.0440 C   0  0  0  0  0  0  0  0  0  0  0  0
  -12.2673   -6.5408  -11.9790 N   0  0  0  0  0  0  0  0  0  0  0  0
  -11.7783   -6.4162  -10.7379 C   0  0  0  0  0  0  0  0  0  0  0  0
  -10.9850   -7.3630  -10.2442 N   0  0  0  0  0  0  0  0  0  0  0  0
  -10.6979   -6.9321   -9.0158 N   0  0  0  0  0  0  0  0  0  0  0  0
  -11.2674   -5.7347   -8.6959 C   0  0  0  0  0  0  0  0  0  0  0  0
  -11.1908   -4.9988   -7.5263 C   0  0  0  0  0  0  0  0  0  0  0  0
  -11.8368   -3.8230   -7.4542 N   0  0  0  0  0  0  0  0  0  0  0  0
  -12.5441   -3.4133   -8.5311 C   0  0  0  0  0  0  0  0  0  0  0  0
  -12.6991   -4.0962   -9.7506 C   0  0  0  0  0  0  0  0  0  0  0  0
  -12.0008   -5.3359   -9.8181 C   0  0  0  0  0  0  0  0  0  0  0  0
  -12.1087   -7.4362  -12.4297 H   0  0  0  0  0  0  0  0  0  0  0  0
  -13.1472   -6.1128  -12.2407 H   0  0  0  0  0  0  0  0  0  0  0  0
  -10.0973   -7.5071   -8.4358 H   0  0  0  0  0  0  0  0  0  0  0  0
  -15.8685   -1.8449  -13.9719 N   0  0  0  0  0  0  0  0  0  0  0  0
  -16.2376   -0.5135  -13.9816 C   0  0  0  0  0  0  0  0  0  0  0  0
  -15.8071    0.3259  -13.1979 O   0  0  0  0  0  0  0  0  0  0  0  0
  -17.1764   -0.2347  -14.9665 N   0  0  0  0  0  0  0  0  0  0  0  0
  -15.8602   -2.3027  -14.8722 H   0  0  0  0  0  0  0  0  0  0  0  0
  -17.8633   -0.9708  -15.0874 H   0  0  0  0  0  0  0  0  0  0  0  0
  -17.6970    1.0844  -15.0319 C   0  0  0  0  0  0  0  0  0  0  0  0
  -18.9813    1.3697  -14.5530 C   0  0  0  0  0  0  0  0  0  0  0  0
  -19.5918    2.6011  -14.8242 C   0  0  0  0  0  0  0  0  0  0  0  0
  -18.8688    3.5643  -15.5539 C   0  0  0  0  0  0  0  0  0  0  0  0
  -17.5580    3.3080  -15.9715 C   0  0  0  0  0  0  0  0  0  0  0  0
  -16.9748    2.0763  -15.6924 C   0  0  0  0  0  0  0  0  0  0  0  0
  -15.7420    1.8108  -16.1525 F   0  0  0  0  0  0  0  0  0  0  0  0
  -21.0147    2.8657  -14.4040 C   0  0  0  0  0  0  0  0  0  0  0  0
  -21.6930    1.7469  -14.0280 F   0  0  0  0  0  0  0  0  0  0  0  0
  -21.0880    3.7176  -13.3436 F   0  0  0  0  0  0  0  0  0  0  0  0
  -21.7535    3.4385  -15.3939 F   0  0  0  0  0  0  0  0  0  0  0  0
  7  8  1  0  0  0
  7 17  1  0  0  0
  7 18  1  0  0  0
  8  9  2  0  0  0
  8 16  1  0  0  0
  9 10  1  0  0  0
 10 11  1  0  0  0
 10 19  1  0  0  0
 11 12  1  0  0  0
 11 16  2  0  0  0
 12 13  2  0  0  0
 13 14  1  0  0  0
 14 15  2  0  0  0
 15  1  1  0  0  0
 15 16  1  0  0  0
  1  2  1  0  0  0
  1  6  2  0  0  0
  2  3  2  0  0  0
  3  4  1  0  0  0
  4 20  1  0  0  0
  4  5  2  0  0  0
 20 21  1  0  0  0
 20 24  1  0  0  0
 21 22  2  0  0  0
 21 23  1  0  0  0
 23 26  1  0  0  0
 23 25  1  0  0  0
 26 27  1  0  0  0
 26 31  2  0  0  0
 27 28  2  0  0  0
 28 33  1  0  0  0
 28 29  1  0  0  0
 33 34  1  0  0  0
 33 35  1  0  0  0
 33 36  1  0  0  0
 29 30  2  0  0  0
 30 31  1  0  0  0
 31 32  1  0  0  0
  5  6  1  0  0  0
M  END
> <minimizedAffinity>
-9.96358

$$$$
