CHEMBL2086740


 33 37  0  0  0  0  0  0  0  0999 V2000
  -27.2425   -9.7725   -5.1288 C   0  0  0  0  0  0  0  0  0  0  0  0
  -27.7959  -10.5635   -6.0857 C   0  0  0  0  0  0  0  0  0  0  0  0
  -27.2854  -11.9041   -6.5799 C   0  0  0  0  0  0  0  0  0  0  0  0
  -26.2438  -12.4638   -6.3090 O   0  0  0  0  0  0  0  0  0  0  0  0
  -28.3051  -12.4166   -7.3842 N   0  0  0  0  0  0  0  0  0  0  0  0
  -29.3652  -11.5256   -7.5051 C   0  0  0  0  0  0  0  0  0  0  0  0
  -30.5246  -11.6797   -8.2510 C   0  0  0  0  0  0  0  0  0  0  0  0
  -31.4381  -10.6165   -8.2613 C   0  0  0  0  0  0  0  0  0  0  0  0
  -31.1496   -9.4213   -7.5806 C   0  0  0  0  0  0  0  0  0  0  0  0
  -29.9341   -9.2801   -6.9051 C   0  0  0  0  0  0  0  0  0  0  0  0
  -29.0906  -10.3602   -6.7908 C   0  0  0  0  0  0  0  0  0  0  0  0
  -28.2384  -13.3121   -7.8488 H   0  0  0  0  0  0  0  0  0  0  0  0
  -27.9884   -8.6384   -4.6724 C   0  0  0  0  0  0  0  0  0  0  0  0
  -29.0224   -8.5611   -3.8577 N   0  0  0  0  0  0  0  0  0  0  0  0
  -29.3436   -7.2288   -3.7819 C   0  0  0  0  0  0  0  0  0  0  0  0
  -30.3753   -6.5981   -3.0747 C   0  0  0  0  0  0  0  0  0  0  0  0
  -30.5333   -5.2148   -3.2156 C   0  0  0  0  0  0  0  0  0  0  0  0
  -29.6502   -4.4710   -4.0022 C   0  0  0  0  0  0  0  0  0  0  0  0
  -28.5756   -5.0770   -4.6661 C   0  0  0  0  0  0  0  0  0  0  0  0
  -28.4677   -6.4641   -4.5434 C   0  0  0  0  0  0  0  0  0  0  0  0
  -27.6058   -7.3827   -5.0904 N   0  0  0  0  0  0  0  0  0  0  0  0
  -26.8395   -7.1781   -5.7151 H   0  0  0  0  0  0  0  0  0  0  0  0
  -21.9904  -11.0563   -2.9706 C   0  0  0  0  0  0  0  0  0  0  0  0
  -23.3432  -10.6966   -3.5179 C   0  0  0  0  0  0  0  0  0  0  0  0
  -24.5060  -10.9348   -2.7794 C   0  0  0  0  0  0  0  0  0  0  0  0
  -25.7621  -10.5803   -3.2912 C   0  0  0  0  0  0  0  0  0  0  0  0
  -25.8850   -9.9674   -4.5480 C   0  0  0  0  0  0  0  0  0  0  0  0
  -24.7206   -9.7545   -5.2978 C   0  0  0  0  0  0  0  0  0  0  0  0
  -23.4635  -10.1154   -4.7863 C   0  0  0  0  0  0  0  0  0  0  0  0
  -32.1168   -8.2975   -7.6095 C   0  0  0  0  0  0  0  0  0  0  0  0
  -31.7592   -7.1350   -7.5799 O   0  0  0  0  0  0  0  0  0  0  0  0
  -33.4098   -8.6682   -7.7329 O   0  0  0  0  0  0  0  0  0  0  0  0
  -33.5983   -9.6236   -7.8307 H   0  0  0  0  0  0  0  0  0  0  0  0
 23 24  1  0  0  0
 24 25  1  0  0  0
 24 29  2  0  0  0
 25 26  2  0  0  0
 26 27  1  0  0  0
 27  1  1  0  0  0
 27 28  2  0  0  0
  1  2  2  0  0  0
  1 13  1  0  0  0
  2  3  1  0  0  0
  2 11  1  0  0  0
  3  4  2  0  0  0
  3  5  1  0  0  0
  5  6  1  0  0  0
  5 12  1  0  0  0
  6  7  1  0  0  0
  6 11  2  0  0  0
  7  8  2  0  0  0
  8  9  1  0  0  0
  9 30  1  0  0  0
  9 10  2  0  0  0
 30 31  2  0  0  0
 30 32  1  0  0  0
 32 33  1  0  0  0
 10 11  1  0  0  0
 13 14  2  0  0  0
 13 21  1  0  0  0
 14 15  1  0  0  0
 15 16  1  0  0  0
 15 20  2  0  0  0
 16 17  2  0  0  0
 17 18  1  0  0  0
 18 19  2  0  0  0
 19 20  1  0  0  0
 20 21  1  0  0  0
 21 22  1  0  0  0
 28 29  1  0  0  0
M  END
> <minimizedAffinity>
-7.57178

$$$$
