CHEMBL1981133


 33 37  0  0  0  0  0  0  0  0999 V2000
  -14.9978    0.4927  -16.0830 O   0  0  0  0  0  0  0  0  0  0  0  0
  -15.8184    1.5921  -16.0156 C   0  0  0  0  0  0  0  0  0  0  0  0
  -15.4698    2.8940  -16.3540 C   0  0  0  0  0  0  0  0  0  0  0  0
  -16.3063    3.9506  -16.2890 N   0  0  0  0  0  0  0  0  0  0  0  0
  -17.5641    3.6937  -15.8627 C   0  0  0  0  0  0  0  0  0  0  0  0
  -18.0501    2.4412  -15.4762 C   0  0  0  0  0  0  0  0  0  0  0  0
  -17.1258    1.3792  -15.5625 C   0  0  0  0  0  0  0  0  0  0  0  0
  -19.4448    2.2653  -15.0038 C   0  0  0  0  0  0  0  0  0  0  0  0
  -20.2617    3.3728  -14.7024 C   0  0  0  0  0  0  0  0  0  0  0  0
  -21.5733    3.2177  -14.2405 C   0  0  0  0  0  0  0  0  0  0  0  0
  -22.1067    1.9379  -14.0445 C   0  0  0  0  0  0  0  0  0  0  0  0
  -23.3927    1.7185  -13.5431 C   0  0  0  0  0  0  0  0  0  0  0  0
  -23.9334    0.4968  -13.3302 N   0  0  0  0  0  0  0  0  0  0  0  0
  -23.1601   -0.5637  -13.6398 C   0  0  0  0  0  0  0  0  0  0  0  0
  -21.8753   -0.4618  -14.1506 C   0  0  0  0  0  0  0  0  0  0  0  0
  -21.3257    0.8101  -14.3507 C   0  0  0  0  0  0  0  0  0  0  0  0
  -20.0142    0.9886  -14.8373 C   0  0  0  0  0  0  0  0  0  0  0  0
  -13.8846    0.5263  -15.1769 C   0  0  0  0  0  0  0  0  0  0  0  0
  -14.0823    0.8452  -12.7233 N   0  0  0  0  0  0  0  0  0  0  0  0
  -14.2160   -0.1345  -13.8199 C   0  0  0  0  0  0  0  0  0  0  0  0
  -14.6997    1.6339  -12.9226 H   0  0  0  0  0  0  0  0  0  0  0  0
  -13.1377    1.2253  -12.7095 H   0  0  0  0  0  0  0  0  0  0  0  0
  -13.2722   -1.3479  -13.6499 C   0  0  0  0  0  0  0  0  0  0  0  0
  -13.8968   -2.6857  -13.8884 C   0  0  0  0  0  0  0  0  0  0  0  0
  -13.6973   -3.4845  -14.9966 C   0  0  0  0  0  0  0  0  0  0  0  0
  -14.4686   -4.6056  -14.8663 N   0  0  0  0  0  0  0  0  0  0  0  0
  -15.1990   -4.5452  -13.7070 C   0  0  0  0  0  0  0  0  0  0  0  0
  -16.1378   -5.4474  -13.1867 C   0  0  0  0  0  0  0  0  0  0  0  0
  -16.7411   -5.1265  -11.9683 C   0  0  0  0  0  0  0  0  0  0  0  0
  -16.4082   -3.9557  -11.2914 C   0  0  0  0  0  0  0  0  0  0  0  0
  -15.4656   -3.0664  -11.8233 C   0  0  0  0  0  0  0  0  0  0  0  0
  -14.8505   -3.3602  -13.0579 C   0  0  0  0  0  0  0  0  0  0  0  0
  -14.5054   -5.3656  -15.5303 H   0  0  0  0  0  0  0  0  0  0  0  0
 19 20  1  0  0  0
 19 21  1  0  0  0
 19 22  1  0  0  0
 20 18  1  0  0  0
 20 23  1  0  0  0
 18  1  1  0  0  0
  1  2  1  0  0  0
  2  3  1  0  0  0
  2  7  2  0  0  0
  3  4  2  0  0  0
  4  5  1  0  0  0
  5  6  2  0  0  0
  6  8  1  0  0  0
  6  7  1  0  0  0
  8  9  1  0  0  0
  8 17  2  0  0  0
  9 10  2  0  0  0
 10 11  1  0  0  0
 11 12  1  0  0  0
 11 16  2  0  0  0
 12 13  2  0  0  0
 13 14  1  0  0  0
 14 15  2  0  0  0
 15 16  1  0  0  0
 16 17  1  0  0  0
 23 24  1  0  0  0
 24 25  2  0  0  0
 24 32  1  0  0  0
 25 26  1  0  0  0
 26 27  1  0  0  0
 26 33  1  0  0  0
 27 28  1  0  0  0
 27 32  2  0  0  0
 28 29  2  0  0  0
 29 30  1  0  0  0
 30 31  2  0  0  0
 31 32  1  0  0  0
M  END
> <minimizedAffinity>
-9.97588

$$$$
