CHEMBL3961887


 34 37  0  0  0  0  0  0  0  0999 V2000
  -28.6830   -6.0945   -5.7654 C   0  0  0  0  0  0  0  0  0  0  0  0
  -28.6218   -4.7539   -5.7336 C   0  0  0  0  0  0  0  0  0  0  0  0
  -27.7624   -4.3623   -4.5737 C   0  0  0  0  0  0  0  0  0  0  0  0
  -27.3692   -3.2446   -4.2909 O   0  0  0  0  0  0  0  0  0  0  0  0
  -27.4145   -5.4858   -3.9339 N   0  0  0  0  0  0  0  0  0  0  0  0
  -27.7888   -6.5510   -4.6580 C   0  0  0  0  0  0  0  0  0  0  0  0
  -27.3865   -7.6871   -4.4760 O   0  0  0  0  0  0  0  0  0  0  0  0
  -26.7140   -5.5134   -3.2125 H   0  0  0  0  0  0  0  0  0  0  0  0
  -29.0271   -3.7105   -6.6118 C   0  0  0  0  0  0  0  0  0  0  0  0
  -28.6496   -3.7834   -7.9395 C   0  0  0  0  0  0  0  0  0  0  0  0
  -28.1497   -2.5396   -8.2472 N   0  0  0  0  0  0  0  0  0  0  0  0
  -28.5311   -1.6266   -7.2760 C   0  0  0  0  0  0  0  0  0  0  0  0
  -28.2084   -0.2677   -7.1223 C   0  0  0  0  0  0  0  0  0  0  0  0
  -28.7188    0.4110   -6.0159 C   0  0  0  0  0  0  0  0  0  0  0  0
  -29.5274   -0.2425   -5.0923 C   0  0  0  0  0  0  0  0  0  0  0  0
  -29.7609   -1.6211   -5.1971 C   0  0  0  0  0  0  0  0  0  0  0  0
  -29.2349   -2.3360   -6.2947 C   0  0  0  0  0  0  0  0  0  0  0  0
  -27.0523   -2.2909   -9.1731 C   0  0  0  0  0  0  0  0  0  0  0  0
  -27.4183   -1.6261  -10.5070 C   0  0  0  0  0  0  0  0  0  0  0  0
  -26.4390   -1.9285  -11.5785 N   0  0  0  0  0  0  0  0  0  0  0  0
  -27.0634   -1.8772  -12.9087 C   0  0  0  0  0  0  0  0  0  0  0  0
  -25.3313   -0.9730  -11.5245 C   0  0  0  0  0  0  0  0  0  0  0  0
  -31.3763   -8.2387   -7.4238 C   0  0  0  0  0  0  0  0  0  0  0  0
  -30.7569   -7.3026   -6.5729 C   0  0  0  0  0  0  0  0  0  0  0  0
  -29.3875   -7.0258   -6.6646 C   0  0  0  0  0  0  0  0  0  0  0  0
  -28.6469   -7.6983   -7.6472 C   0  0  0  0  0  0  0  0  0  0  0  0
  -29.2317   -8.6473   -8.4888 C   0  0  0  0  0  0  0  0  0  0  0  0
  -30.6086   -8.9090   -8.3976 C   0  0  0  0  0  0  0  0  0  0  0  0
  -32.9774   -9.8168   -6.6041 C   0  0  0  0  0  0  0  0  0  0  0  0
  -32.6913   -8.6037   -7.2876 O   0  0  0  0  0  0  0  0  0  0  0  0
  -28.5229   -9.3287   -9.4468 O   0  0  0  0  0  0  0  0  0  0  0  0
  -27.1540   -8.9454   -9.5813 C   0  0  0  0  0  0  0  0  0  0  0  0
  -31.0674   -9.8903   -9.2452 O   0  0  0  0  0  0  0  0  0  0  0  0
  -30.8614  -11.2376   -8.8449 C   0  0  0  0  0  0  0  0  0  0  0  0
 29 30  1  0  0  0
 30 23  1  0  0  0
 23 24  1  0  0  0
 23 28  2  0  0  0
 24 25  2  0  0  0
 25  1  1  0  0  0
 25 26  1  0  0  0
  1  2  2  0  0  0
  1  6  1  0  0  0
  2  9  1  0  0  0
  2  3  1  0  0  0
  9 10  2  0  0  0
  9 17  1  0  0  0
 10 11  1  0  0  0
 11 18  1  0  0  0
 11 12  1  0  0  0
 18 19  1  0  0  0
 19 20  1  0  0  0
 20 21  1  0  0  0
 20 22  1  0  0  0
 12 13  1  0  0  0
 12 17  2  0  0  0
 13 14  2  0  0  0
 14 15  1  0  0  0
 15 16  2  0  0  0
 16 17  1  0  0  0
  3  4  2  0  0  0
  3  5  1  0  0  0
  5  6  1  0  0  0
  5  8  1  0  0  0
  6  7  2  0  0  0
 26 27  2  0  0  0
 27 31  1  0  0  0
 27 28  1  0  0  0
 31 32  1  0  0  0
 28 33  1  0  0  0
 33 34  1  0  0  0
M  END
> <minimizedAffinity>
-8.66840

$$$$
