CHEMBL469272


 32 36  0  0  0  0  0  0  0  0999 V2000
  -28.3666   -1.0257   -5.7467 C   0  0  0  0  0  0  0  0  0  0  0  0
  -29.0370   -0.1421   -4.8752 C   0  0  0  0  0  0  0  0  0  0  0  0
  -29.5626    1.0624   -5.3310 C   0  0  0  0  0  0  0  0  0  0  0  0
  -29.3787    1.4261   -6.6535 C   0  0  0  0  0  0  0  0  0  0  0  0
  -28.6534    0.5957   -7.5125 C   0  0  0  0  0  0  0  0  0  0  0  0
  -28.0995   -0.6251   -7.0798 C   0  0  0  0  0  0  0  0  0  0  0  0
  -27.8895   -2.3454   -5.2158 C   0  0  0  0  0  0  0  0  0  0  0  0
  -26.6779   -2.5656   -5.1743 O   0  0  0  0  0  0  0  0  0  0  0  0
  -29.4640   -7.2468   -7.9005 C   0  0  0  0  0  0  0  0  0  0  0  0
  -29.7580   -6.4976   -6.6340 C   0  0  0  0  0  0  0  0  0  0  0  0
  -30.8023   -6.8834   -5.7938 C   0  0  0  0  0  0  0  0  0  0  0  0
  -31.1067   -6.1620   -4.6337 C   0  0  0  0  0  0  0  0  0  0  0  0
  -30.3519   -5.0138   -4.3613 C   0  0  0  0  0  0  0  0  0  0  0  0
  -30.4442   -4.1239   -3.3178 N   0  0  0  0  0  0  0  0  0  0  0  0
  -29.5481   -3.1069   -3.4855 C   0  0  0  0  0  0  0  0  0  0  0  0
  -28.8547   -3.3100   -4.6712 C   0  0  0  0  0  0  0  0  0  0  0  0
  -29.3174   -4.5729   -5.1877 C   0  0  0  0  0  0  0  0  0  0  0  0
  -28.9938   -5.3643   -6.3116 C   0  0  0  0  0  0  0  0  0  0  0  0
  -31.0983   -4.2014   -2.5554 H   0  0  0  0  0  0  0  0  0  0  0  0
  -27.4302   -1.4688   -7.9967 N   0  0  0  0  0  0  0  0  0  0  0  0
  -26.5012   -1.0794   -8.2142 H   0  0  0  0  0  0  0  0  0  0  0  0
  -28.1367   -1.8289   -9.2283 C   0  0  0  0  0  0  0  0  0  0  0  0
  -27.2355   -1.6663  -10.4341 C   0  0  0  0  0  0  0  0  0  0  0  0
  -27.7783   -1.6585  -11.7298 C   0  0  0  0  0  0  0  0  0  0  0  0
  -26.9563   -1.6065  -12.8660 C   0  0  0  0  0  0  0  0  0  0  0  0
  -25.5646   -1.5432  -12.6901 C   0  0  0  0  0  0  0  0  0  0  0  0
  -24.4277   -1.5037  -13.5281 C   0  0  0  0  0  0  0  0  0  0  0  0
  -23.2831   -1.4125  -12.8445 N   0  0  0  0  0  0  0  0  0  0  0  0
  -23.6906   -1.3913  -11.5619 N   0  0  0  0  0  0  0  0  0  0  0  0
  -25.0448   -1.5181  -11.4027 C   0  0  0  0  0  0  0  0  0  0  0  0
  -25.8413   -1.6006  -10.2575 C   0  0  0  0  0  0  0  0  0  0  0  0
  -22.9936   -1.2794  -10.8350 H   0  0  0  0  0  0  0  0  0  0  0  0
  9 10  1  0  0  0
 10 11  1  0  0  0
 10 18  2  0  0  0
 11 12  2  0  0  0
 12 13  1  0  0  0
 13 14  1  0  0  0
 13 17  2  0  0  0
 14 15  1  0  0  0
 14 19  1  0  0  0
 15 16  2  0  0  0
 16  7  1  0  0  0
 16 17  1  0  0  0
  7  8  2  0  0  0
  7  1  1  0  0  0
  1  2  1  0  0  0
  1  6  2  0  0  0
  2  3  2  0  0  0
  3  4  1  0  0  0
  4  5  2  0  0  0
  5  6  1  0  0  0
  6 20  1  0  0  0
 20 22  1  0  0  0
 20 21  1  0  0  0
 22 23  1  0  0  0
 23 24  1  0  0  0
 23 31  2  0  0  0
 24 25  2  0  0  0
 25 26  1  0  0  0
 26 27  1  0  0  0
 26 30  2  0  0  0
 27 28  2  0  0  0
 28 29  1  0  0  0
 29 30  1  0  0  0
 29 32  1  0  0  0
 30 31  1  0  0  0
 17 18  1  0  0  0
M  END
> <minimizedAffinity>
-10.13429

$$$$
