CHEMBL4086603


 35 38  0  0  0  0  0  0  0  0999 V2000
  -26.5248   -1.9906  -10.4912 C   0  0  0  0  0  0  0  0  0  0  0  0
  -27.4259   -1.0428  -10.6527 N   0  0  0  0  0  0  0  0  0  0  0  0
  -28.2684   -1.1809   -9.5911 C   0  0  0  0  0  0  0  0  0  0  0  0
  -27.8632   -2.2317   -8.8042 C   0  0  0  0  0  0  0  0  0  0  0  0
  -26.7239   -2.7482   -9.3706 O   0  0  0  0  0  0  0  0  0  0  0  0
  -28.3759   -2.8725   -7.6080 C   0  0  0  0  0  0  0  0  0  0  0  0
  -28.6031   -2.1430   -6.4469 C   0  0  0  0  0  0  0  0  0  0  0  0
  -29.0487   -2.7826   -5.2955 C   0  0  0  0  0  0  0  0  0  0  0  0
  -29.2633   -4.1792   -5.2611 C   0  0  0  0  0  0  0  0  0  0  0  0
  -29.1301   -4.9285   -6.4546 C   0  0  0  0  0  0  0  0  0  0  0  0
  -28.6569   -4.2498   -7.6011 C   0  0  0  0  0  0  0  0  0  0  0  0
  -29.5260   -6.3531   -6.5566 C   0  0  0  0  0  0  0  0  0  0  0  0
  -30.7804   -6.7717   -7.0018 C   0  0  0  0  0  0  0  0  0  0  0  0
  -31.0923   -8.1308   -6.9810 C   0  0  0  0  0  0  0  0  0  0  0  0
  -30.1461   -9.0416   -6.5330 C   0  0  0  0  0  0  0  0  0  0  0  0
  -28.9203   -8.5543   -6.1234 C   0  0  0  0  0  0  0  0  0  0  0  0
  -28.5970   -7.2433   -6.1231 N   0  0  0  0  0  0  0  0  0  0  0  0
  -29.6509   -4.8417   -3.9439 C   0  0  0  0  0  0  0  0  0  0  0  0
  -31.1371   -4.6747   -3.6724 C   0  0  0  0  0  0  0  0  0  0  0  0
  -32.3701   -4.5360   -3.4470 N   0  0  0  0  0  0  0  0  0  0  0  0
  -25.4913   -2.3510  -11.2714 N   0  0  0  0  0  0  0  0  0  0  0  0
  -25.1083   -3.2849  -11.1655 H   0  0  0  0  0  0  0  0  0  0  0  0
  -23.5933   -0.3189  -13.7652 C   0  0  0  0  0  0  0  0  0  0  0  0
  -24.4177   -0.4095  -14.8808 C   0  0  0  0  0  0  0  0  0  0  0  0
  -25.5866   -1.1744  -14.8086 C   0  0  0  0  0  0  0  0  0  0  0  0
  -25.9412   -1.8282  -13.6181 C   0  0  0  0  0  0  0  0  0  0  0  0
  -25.1046   -1.7283  -12.4816 C   0  0  0  0  0  0  0  0  0  0  0  0
  -23.9140   -0.9940  -12.5902 C   0  0  0  0  0  0  0  0  0  0  0  0
  -22.1013    0.6429  -13.8040 S   0  0  0  0  0  0  0  0  0  0  0  0
  -21.3831    0.2581  -15.0029 O   0  0  0  0  0  0  0  0  0  0  0  0
  -21.4847    0.5270  -12.4976 O   0  0  0  0  0  0  0  0  0  0  0  0
  -21.5160    3.2472  -14.3942 C   0  0  0  0  0  0  0  0  0  0  0  0
  -22.6663    2.3272  -14.0264 C   0  0  0  0  0  0  0  0  0  0  0  0
  -27.0783   -2.5871  -13.4544 O   0  0  0  0  0  0  0  0  0  0  0  0
  -28.2935   -2.0454  -13.9653 C   0  0  0  0  0  0  0  0  0  0  0  0
 32 33  1  0  0  0
 33 29  1  0  0  0
 29 30  2  0  0  0
 29 31  2  0  0  0
 29 23  1  0  0  0
 23 24  1  0  0  0
 23 28  2  0  0  0
 24 25  2  0  0  0
 25 26  1  0  0  0
 26 34  1  0  0  0
 26 27  2  0  0  0
 34 35  1  0  0  0
 27 21  1  0  0  0
 27 28  1  0  0  0
 21  1  1  0  0  0
 21 22  1  0  0  0
  1  2  2  0  0  0
  1  5  1  0  0  0
  2  3  1  0  0  0
  3  4  2  0  0  0
  4  6  1  0  0  0
  4  5  1  0  0  0
  6  7  1  0  0  0
  6 11  2  0  0  0
  7  8  2  0  0  0
  8  9  1  0  0  0
  9 18  1  0  0  0
  9 10  2  0  0  0
 18 19  1  0  0  0
 19 20  3  0  0  0
 10 12  1  0  0  0
 10 11  1  0  0  0
 12 13  1  0  0  0
 12 17  2  0  0  0
 13 14  2  0  0  0
 14 15  1  0  0  0
 15 16  2  0  0  0
 16 17  1  0  0  0
M  END
> <minimizedAffinity>
-7.95111

$$$$
