CHEMBL3934764


 45 49  0  0  0  0  0  0  0  0999 V2000
  -21.7842    0.9179  -14.3380 C   0  0  0  0  0  0  0  0  0  0  0  0
  -22.6737    1.9424  -14.0166 C   0  0  0  0  0  0  0  0  0  0  0  0
  -22.2009    3.2378  -13.9360 C   0  0  0  0  0  0  0  0  0  0  0  0
  -20.9376    3.6207  -14.1891 N   0  0  0  0  0  0  0  0  0  0  0  0
  -20.0818    2.6276  -14.5485 C   0  0  0  0  0  0  0  0  0  0  0  0
  -18.7057    2.8109  -14.8628 C   0  0  0  0  0  0  0  0  0  0  0  0
  -18.0592    1.6260  -15.1451 C   0  0  0  0  0  0  0  0  0  0  0  0
  -19.1420    0.3025  -15.1016 S   0  0  0  0  0  0  0  0  0  0  0  0
  -20.4648    1.2905  -14.6321 C   0  0  0  0  0  0  0  0  0  0  0  0
  -16.6420    1.4570  -15.4316 C   0  0  0  0  0  0  0  0  0  0  0  0
  -16.0798    2.0343  -16.3529 O   0  0  0  0  0  0  0  0  0  0  0  0
  -15.9745    0.5938  -14.5803 N   0  0  0  0  0  0  0  0  0  0  0  0
  -16.5512   -0.0024  -14.0042 H   0  0  0  0  0  0  0  0  0  0  0  0
  -14.5968    0.2112  -14.7854 C   0  0  0  0  0  0  0  0  0  0  0  0
  -13.8946   -0.2538  -13.5083 C   0  0  0  0  0  0  0  0  0  0  0  0
  -13.6046   -1.7605  -13.5428 C   0  0  0  0  0  0  0  0  0  0  0  0
  -14.1135   -2.4885  -12.3758 N   0  0  0  0  0  0  0  0  0  0  0  0
  -15.5520   -2.2771  -12.1258 C   0  0  0  0  0  0  0  0  0  0  0  0
  -15.9685   -2.9825  -10.8167 C   0  0  0  0  0  0  0  0  0  0  0  0
  -15.7598   -4.4444  -10.8293 N   0  0  0  0  0  0  0  0  0  0  0  0
  -16.7323   -5.1041  -11.6967 C   0  0  0  0  0  0  0  0  0  0  0  0
  -14.3680   -4.7263  -11.2432 C   0  0  0  0  0  0  0  0  0  0  0  0
  -13.8519   -3.9376  -12.4780 C   0  0  0  0  0  0  0  0  0  0  0  0
  -22.1506   -0.4058  -14.4427 O   0  0  0  0  0  0  0  0  0  0  0  0
  -25.5402   -1.7041  -12.3824 C   0  0  0  0  0  0  0  0  0  0  0  0
  -24.3202   -1.5060  -11.7279 C   0  0  0  0  0  0  0  0  0  0  0  0
  -23.2015   -1.0811  -12.4495 C   0  0  0  0  0  0  0  0  0  0  0  0
  -23.2993   -0.8406  -13.8254 C   0  0  0  0  0  0  0  0  0  0  0  0
  -24.5286   -0.9861  -14.4669 C   0  0  0  0  0  0  0  0  0  0  0  0
  -25.6263   -1.4589  -13.7530 C   0  0  0  0  0  0  0  0  0  0  0  0
  -26.7971   -1.6122  -14.3831 F   0  0  0  0  0  0  0  0  0  0  0  0
  -27.9242   -2.3906   -9.7413 N   0  0  0  0  0  0  0  0  0  0  0  0
  -26.7198   -1.9799  -10.2920 C   0  0  0  0  0  0  0  0  0  0  0  0
  -25.7737   -1.4990   -9.6825 O   0  0  0  0  0  0  0  0  0  0  0  0
  -26.7111   -2.0943  -11.6783 N   0  0  0  0  0  0  0  0  0  0  0  0
  -28.6618   -2.6315  -10.3836 H   0  0  0  0  0  0  0  0  0  0  0  0
  -27.5743   -1.7854  -12.1115 H   0  0  0  0  0  0  0  0  0  0  0  0
  -28.0120    0.2320   -5.5298 C   0  0  0  0  0  0  0  0  0  0  0  0
  -28.2719   -1.0458   -6.2756 C   0  0  0  0  0  0  0  0  0  0  0  0
  -28.7706   -2.1541   -5.5857 C   0  0  0  0  0  0  0  0  0  0  0  0
  -29.0463   -3.3308   -6.2681 C   0  0  0  0  0  0  0  0  0  0  0  0
  -28.8124   -3.4145   -7.6390 C   0  0  0  0  0  0  0  0  0  0  0  0
  -29.2375   -4.5376   -8.2315 F   0  0  0  0  0  0  0  0  0  0  0  0
  -28.2576   -2.3448   -8.3587 C   0  0  0  0  0  0  0  0  0  0  0  0
  -28.0163   -1.1470   -7.6606 C   0  0  0  0  0  0  0  0  0  0  0  0
 38 39  1  0  0  0
 39 40  1  0  0  0
 39 45  2  0  0  0
 40 41  2  0  0  0
 41 42  1  0  0  0
 42 43  1  0  0  0
 42 44  2  0  0  0
 44 32  1  0  0  0
 44 45  1  0  0  0
 32 33  1  0  0  0
 32 36  1  0  0  0
 33 34  2  0  0  0
 33 35  1  0  0  0
 35 25  1  0  0  0
 35 37  1  0  0  0
 25 26  1  0  0  0
 25 30  2  0  0  0
 26 27  2  0  0  0
 27 28  1  0  0  0
 28 24  1  0  0  0
 28 29  2  0  0  0
 24  1  1  0  0  0
  1  2  1  0  0  0
  1  9  2  0  0  0
  2  3  2  0  0  0
  3  4  1  0  0  0
  4  5  2  0  0  0
  5  6  1  0  0  0
  5  9  1  0  0  0
  6  7  2  0  0  0
  7 10  1  0  0  0
  7  8  1  0  0  0
 10 11  2  0  0  0
 10 12  1  0  0  0
 12 14  1  0  0  0
 12 13  1  0  0  0
 14 15  1  0  0  0
 15 16  1  0  0  0
 16 17  1  0  0  0
 17 18  1  0  0  0
 17 23  1  0  0  0
 18 19  1  0  0  0
 19 20  1  0  0  0
 20 21  1  0  0  0
 20 22  1  0  0  0
 22 23  1  0  0  0
  8  9  1  0  0  0
 29 30  1  0  0  0
 30 31  1  0  0  0
M  END
> <minimizedAffinity>
-11.93932

$$$$
