CHEMBL3671517


 36 38  0  0  0  0  0  0  0  0999 V2000
  -14.1220   -2.8134  -12.7557 C   0  0  0  0  0  0  0  0  0  0  0  0
  -14.4755   -1.6092  -13.3682 C   0  0  0  0  0  0  0  0  0  0  0  0
  -13.9578   -1.2742  -14.6366 C   0  0  0  0  0  0  0  0  0  0  0  0
  -14.1190   -0.0291  -15.2599 C   0  0  0  0  0  0  0  0  0  0  0  0
  -13.5872    0.2282  -16.4700 N   0  0  0  0  0  0  0  0  0  0  0  0
  -12.8685   -0.7390  -17.0422 C   0  0  0  0  0  0  0  0  0  0  0  0
  -12.6119   -1.9382  -16.5148 N   0  0  0  0  0  0  0  0  0  0  0  0
  -13.1447   -2.1966  -15.3174 C   0  0  0  0  0  0  0  0  0  0  0  0
  -12.8541   -3.4125  -14.7087 C   0  0  0  0  0  0  0  0  0  0  0  0
  -13.3459   -3.7522  -13.4441 C   0  0  0  0  0  0  0  0  0  0  0  0
  -15.4155   -3.7614  -10.9099 C   0  0  0  0  0  0  0  0  0  0  0  0
  -15.4173   -4.1455   -9.7444 O   0  0  0  0  0  0  0  0  0  0  0  0
  -14.3995   -2.9624  -11.3838 N   0  0  0  0  0  0  0  0  0  0  0  0
  -13.5976   -3.0366  -10.7652 H   0  0  0  0  0  0  0  0  0  0  0  0
  -16.7695   -5.4668  -12.0137 C   0  0  0  0  0  0  0  0  0  0  0  0
  -16.4674   -4.1698  -11.8797 C   0  0  0  0  0  0  0  0  0  0  0  0
  -14.7811    1.0279  -14.5798 N   0  0  0  0  0  0  0  0  0  0  0  0
  -14.6216    0.9751  -13.5773 H   0  0  0  0  0  0  0  0  0  0  0  0
  -16.0983    1.4459  -14.8850 C   0  0  0  0  0  0  0  0  0  0  0  0
  -17.2038    0.6570  -14.5339 C   0  0  0  0  0  0  0  0  0  0  0  0
  -18.5057    1.1260  -14.7165 C   0  0  0  0  0  0  0  0  0  0  0  0
  -18.7102    2.3835  -15.2793 C   0  0  0  0  0  0  0  0  0  0  0  0
  -20.4693    3.0558  -15.4356 Br  0  0  0  0  0  0  0  0  0  0  0  0
  -17.6302    3.1554  -15.6998 C   0  0  0  0  0  0  0  0  0  0  0  0
  -16.3365    2.6757  -15.5085 C   0  0  0  0  0  0  0  0  0  0  0  0
  -15.2964    3.4323  -15.8941 F   0  0  0  0  0  0  0  0  0  0  0  0
  -12.9489   -4.9833  -12.9818 O   0  0  0  0  0  0  0  0  0  0  0  0
  -11.7717   -4.9756  -12.1657 C   0  0  0  0  0  0  0  0  0  0  0  0
  -12.0110   -5.7424  -10.8623 C   0  0  0  0  0  0  0  0  0  0  0  0
  -12.9220   -6.8599  -11.0610 N   0  0  0  0  0  0  0  0  0  0  0  0
  -12.4586   -8.0732  -11.5354 C   0  0  0  0  0  0  0  0  0  0  0  0
  -11.2635   -8.3410  -11.6414 O   0  0  0  0  0  0  0  0  0  0  0  0
  -13.9078   -6.6646  -11.2026 H   0  0  0  0  0  0  0  0  0  0  0  0
  -13.5636   -9.0684  -11.8873 C   0  0  0  0  0  0  0  0  0  0  0  0
  -14.4567   -8.4889  -12.8356 O   0  0  0  0  0  0  0  0  0  0  0  0
  -13.8656   -8.4116  -14.1277 C   0  0  0  0  0  0  0  0  0  0  0  0
 15 16  2  0  0  0
 16 11  1  0  0  0
 11 12  2  0  0  0
 11 13  1  0  0  0
 13  1  1  0  0  0
 13 14  1  0  0  0
  1  2  1  0  0  0
  1 10  2  0  0  0
  2  3  2  0  0  0
  3  4  1  0  0  0
  3  8  1  0  0  0
  4 17  1  0  0  0
  4  5  2  0  0  0
 17 19  1  0  0  0
 17 18  1  0  0  0
 19 20  1  0  0  0
 19 25  2  0  0  0
 20 21  2  0  0  0
 21 22  1  0  0  0
 22 23  1  0  0  0
 22 24  2  0  0  0
 24 25  1  0  0  0
 25 26  1  0  0  0
  5  6  1  0  0  0
  6  7  2  0  0  0
  7  8  1  0  0  0
  8  9  2  0  0  0
  9 10  1  0  0  0
 10 27  1  0  0  0
 27 28  1  0  0  0
 28 29  1  0  0  0
 29 30  1  0  0  0
 30 31  1  0  0  0
 30 33  1  0  0  0
 31 32  2  0  0  0
 31 34  1  0  0  0
 34 35  1  0  0  0
 35 36  1  0  0  0
M  END
> <minimizedAffinity>
-7.46598

$$$$
