CHEMBL365937


 28 30  0  0  0  0  0  0  0  0999 V2000
  -27.3732   11.2180  -15.2385 C   0  0  0  0  0  0  0  0  0  0  0  0
  -27.5322   10.4184  -16.2927 N   0  0  0  0  0  0  0  0  0  0  0  0
  -28.8009   10.1782  -16.6096 C   0  0  0  0  0  0  0  0  0  0  0  0
  -29.8752   10.6562  -15.9860 N   0  0  0  0  0  0  0  0  0  0  0  0
  -29.6081   11.4155  -14.9301 C   0  0  0  0  0  0  0  0  0  0  0  0
  -28.3769   11.7305  -14.5393 N   0  0  0  0  0  0  0  0  0  0  0  0
  -23.5900   11.5801  -15.1477 C   0  0  0  0  0  0  0  0  0  0  0  0
  -23.4885   12.1403  -13.8732 C   0  0  0  0  0  0  0  0  0  0  0  0
  -24.5366   12.4590  -13.0798 N   0  0  0  0  0  0  0  0  0  0  0  0
  -25.7673   12.1610  -13.5632 C   0  0  0  0  0  0  0  0  0  0  0  0
  -26.0147   11.5485  -14.7926 C   0  0  0  0  0  0  0  0  0  0  0  0
  -24.8833   11.2547  -15.5682 C   0  0  0  0  0  0  0  0  0  0  0  0
  -22.4388   11.2428  -15.8814 N   0  0  0  0  0  0  0  0  0  0  0  0
  -21.7211   11.9583  -15.7725 H   0  0  0  0  0  0  0  0  0  0  0  0
  -22.6427   10.8997  -17.2924 C   0  0  0  0  0  0  0  0  0  0  0  0
  -22.2971   12.0990  -18.1723 C   0  0  0  0  0  0  0  0  0  0  0  0
  -24.0139   11.0204  -19.4694 O   0  0  0  0  0  0  0  0  0  0  0  0
  -23.2763   12.2266  -19.3305 C   0  0  0  0  0  0  0  0  0  0  0  0
  -24.6425   11.1482  -20.2010 H   0  0  0  0  0  0  0  0  0  0  0  0
  -30.6837   11.9233  -14.2060 N   0  0  0  0  0  0  0  0  0  0  0  0
  -30.7101   12.9314  -14.2076 H   0  0  0  0  0  0  0  0  0  0  0  0
  -31.8402   11.2460  -13.7915 C   0  0  0  0  0  0  0  0  0  0  0  0
  -31.7583   10.3037  -12.7598 C   0  0  0  0  0  0  0  0  0  0  0  0
  -32.8727    9.5392  -12.3983 C   0  0  0  0  0  0  0  0  0  0  0  0
  -34.0871    9.7156  -13.0592 C   0  0  0  0  0  0  0  0  0  0  0  0
  -34.1843   10.6569  -14.0785 C   0  0  0  0  0  0  0  0  0  0  0  0
  -35.6770   10.8880  -14.9001 Cl  0  0  0  0  0  0  0  0  0  0  0  0
  -33.0723   11.4097  -14.4448 C   0  0  0  0  0  0  0  0  0  0  0  0
 17 18  1  0  0  0
 17 19  1  0  0  0
 18 16  1  0  0  0
 16 15  1  0  0  0
 15 13  1  0  0  0
 13  7  1  0  0  0
 13 14  1  0  0  0
  7  8  1  0  0  0
  7 12  2  0  0  0
  8  9  2  0  0  0
  9 10  1  0  0  0
 10 11  2  0  0  0
 11  1  1  0  0  0
 11 12  1  0  0  0
  1  2  1  0  0  0
  1  6  2  0  0  0
  2  3  2  0  0  0
  3  4  1  0  0  0
  4  5  2  0  0  0
  5 20  1  0  0  0
  5  6  1  0  0  0
 20 22  1  0  0  0
 20 21  1  0  0  0
 22 23  1  0  0  0
 22 28  2  0  0  0
 23 24  2  0  0  0
 24 25  1  0  0  0
 25 26  2  0  0  0
 26 27  1  0  0  0
 26 28  1  0  0  0
M  END
> <minimizedAffinity>
-5.47462

$$$$
