CHEMBL498347


 34 38  0  0  0  0  0  0  0  0999 V2000
  -25.3250   -1.1555  -12.0130 C   0  0  0  0  0  0  0  0  0  0  0  0
  -26.5585   -1.2868  -12.6808 C   0  0  0  0  0  0  0  0  0  0  0  0
  -27.7368   -1.7006  -12.0477 C   0  0  0  0  0  0  0  0  0  0  0  0
  -27.6350   -1.9742  -10.6898 C   0  0  0  0  0  0  0  0  0  0  0  0
  -28.5475   -2.4078   -9.7676 N   0  0  0  0  0  0  0  0  0  0  0  0
  -27.9343   -2.4764   -8.5373 C   0  0  0  0  0  0  0  0  0  0  0  0
  -26.6577   -2.1365   -8.6457 N   0  0  0  0  0  0  0  0  0  0  0  0
  -26.4566   -1.8387   -9.9726 C   0  0  0  0  0  0  0  0  0  0  0  0
  -25.2870   -1.4329  -10.6368 C   0  0  0  0  0  0  0  0  0  0  0  0
  -29.5093   -2.6659   -9.9522 H   0  0  0  0  0  0  0  0  0  0  0  0
  -28.6938   -2.8616   -7.3892 C   0  0  0  0  0  0  0  0  0  0  0  0
  -29.0204   -4.1661   -7.2080 C   0  0  0  0  0  0  0  0  0  0  0  0
  -28.5736   -5.1948   -8.0299 N   0  0  0  0  0  0  0  0  0  0  0  0
  -29.8899   -4.5446   -6.0594 C   0  0  0  0  0  0  0  0  0  0  0  0
  -30.3394   -5.8544   -5.8162 C   0  0  0  0  0  0  0  0  0  0  0  0
  -30.0141   -6.8596   -6.6456 F   0  0  0  0  0  0  0  0  0  0  0  0
  -31.1581   -6.1637   -4.7331 C   0  0  0  0  0  0  0  0  0  0  0  0
  -31.5477   -5.1520   -3.8716 C   0  0  0  0  0  0  0  0  0  0  0  0
  -32.3408   -5.4381   -2.8320 F   0  0  0  0  0  0  0  0  0  0  0  0
  -31.1361   -3.8421   -4.0760 C   0  0  0  0  0  0  0  0  0  0  0  0
  -30.3139   -3.5473   -5.1664 C   0  0  0  0  0  0  0  0  0  0  0  0
  -29.9117   -2.2250   -5.3612 N   0  0  0  0  0  0  0  0  0  0  0  0
  -29.1150   -1.8235   -6.3931 C   0  0  0  0  0  0  0  0  0  0  0  0
  -28.7472   -0.6504   -6.4682 O   0  0  0  0  0  0  0  0  0  0  0  0
  -28.2643   -4.8536   -8.9493 H   0  0  0  0  0  0  0  0  0  0  0  0
  -29.2016   -5.9917   -8.1030 H   0  0  0  0  0  0  0  0  0  0  0  0
  -30.1913   -1.4988   -4.7139 H   0  0  0  0  0  0  0  0  0  0  0  0
  -21.2680    1.5058  -14.7863 C   0  0  0  0  0  0  0  0  0  0  0  0
  -21.9957    0.3522  -14.2618 N   0  0  0  0  0  0  0  0  0  0  0  0
  -22.0309    0.3951  -12.7790 C   0  0  0  0  0  0  0  0  0  0  0  0
  -22.8690   -0.7507  -12.1590 C   0  0  0  0  0  0  0  0  0  0  0  0
  -24.2257   -0.6931  -12.7203 N   0  0  0  0  0  0  0  0  0  0  0  0
  -24.2403   -0.8026  -14.1906 C   0  0  0  0  0  0  0  0  0  0  0  0
  -23.3815    0.3353  -14.7895 C   0  0  0  0  0  0  0  0  0  0  0  0
 28 29  1  0  0  0
 29 30  1  0  0  0
 29 34  1  0  0  0
 30 31  1  0  0  0
 31 32  1  0  0  0
 32  1  1  0  0  0
 32 33  1  0  0  0
  1  2  1  0  0  0
  1  9  2  0  0  0
  2  3  2  0  0  0
  3  4  1  0  0  0
  4  5  1  0  0  0
  4  8  2  0  0  0
  5  6  1  0  0  0
  5 10  1  0  0  0
  6 11  1  0  0  0
  6  7  2  0  0  0
 11 12  2  0  0  0
 11 23  1  0  0  0
 12 13  1  0  0  0
 12 14  1  0  0  0
 13 25  1  0  0  0
 13 26  1  0  0  0
 14 15  1  0  0  0
 14 21  2  0  0  0
 15 16  1  0  0  0
 15 17  2  0  0  0
 17 18  1  0  0  0
 18 19  1  0  0  0
 18 20  2  0  0  0
 20 21  1  0  0  0
 21 22  1  0  0  0
 22 23  1  0  0  0
 22 27  1  0  0  0
 23 24  2  0  0  0
  7  8  1  0  0  0
  8  9  1  0  0  0
 33 34  1  0  0  0
M  END
> <minimizedAffinity>
-9.88779

$$$$
