CHEMBL2335379


 31 34  0  0  0  0  0  0  0  0999 V2000
  -29.1165   -3.6282   -6.0954 C   0  0  0  0  0  0  0  0  0  0  0  0
  -29.4084   -4.9454   -5.9401 N   0  0  0  0  0  0  0  0  0  0  0  0
  -28.9977   -5.8395   -6.8440 C   0  0  0  0  0  0  0  0  0  0  0  0
  -29.3536   -7.1517   -6.5881 N   0  0  0  0  0  0  0  0  0  0  0  0
  -28.3233   -5.5795   -7.9700 N   0  0  0  0  0  0  0  0  0  0  0  0
  -28.0666   -4.2718   -8.1188 C   0  0  0  0  0  0  0  0  0  0  0  0
  -27.3961   -3.7180   -9.1787 N   0  0  0  0  0  0  0  0  0  0  0  0
  -27.3974   -2.3421   -9.0707 C   0  0  0  0  0  0  0  0  0  0  0  0
  -27.9555   -2.0420   -7.8382 C   0  0  0  0  0  0  0  0  0  0  0  0
  -28.4238   -3.2513   -7.2550 C   0  0  0  0  0  0  0  0  0  0  0  0
  -30.1644   -7.1495   -5.9818 H   0  0  0  0  0  0  0  0  0  0  0  0
  -29.4222   -7.6696   -7.4508 H   0  0  0  0  0  0  0  0  0  0  0  0
  -27.0098   -4.2656   -9.9343 H   0  0  0  0  0  0  0  0  0  0  0  0
  -29.5478   -2.7006   -5.1316 N   0  0  0  0  0  0  0  0  0  0  0  0
  -30.4449   -2.9366   -4.7265 H   0  0  0  0  0  0  0  0  0  0  0  0
  -30.0421    0.8981   -5.8898 C   0  0  0  0  0  0  0  0  0  0  0  0
  -28.9116    1.4662   -5.3004 C   0  0  0  0  0  0  0  0  0  0  0  0
  -27.9790    0.6533   -4.6626 C   0  0  0  0  0  0  0  0  0  0  0  0
  -28.1861   -0.7240   -4.6039 C   0  0  0  0  0  0  0  0  0  0  0  0
  -29.3259   -1.3087   -5.1737 C   0  0  0  0  0  0  0  0  0  0  0  0
  -30.2435   -0.4850   -5.8361 C   0  0  0  0  0  0  0  0  0  0  0  0
  -31.7889    2.4367   -7.1115 C   0  0  0  0  0  0  0  0  0  0  0  0
  -30.9963    1.7397   -6.5478 C   0  0  0  0  0  0  0  0  0  0  0  0
  -26.8601   -1.4072  -10.1190 C   0  0  0  0  0  0  0  0  0  0  0  0
  -26.6746   -2.0473  -11.4966 C   0  0  0  0  0  0  0  0  0  0  0  0
  -25.3498   -1.6797  -12.1197 C   0  0  0  0  0  0  0  0  0  0  0  0
  -24.1840   -1.6524  -11.3532 C   0  0  0  0  0  0  0  0  0  0  0  0
  -22.9878   -1.2743  -11.9593 C   0  0  0  0  0  0  0  0  0  0  0  0
  -22.9826   -0.9429  -13.3077 C   0  0  0  0  0  0  0  0  0  0  0  0
  -24.1793   -1.0115  -14.0003 C   0  0  0  0  0  0  0  0  0  0  0  0
  -25.3544   -1.3746  -13.4385 N   0  0  0  0  0  0  0  0  0  0  0  0
 22 23  3  0  0  0
 23 16  1  0  0  0
 16 17  1  0  0  0
 16 21  2  0  0  0
 17 18  2  0  0  0
 18 19  1  0  0  0
 19 20  2  0  0  0
 20 14  1  0  0  0
 20 21  1  0  0  0
 14  1  1  0  0  0
 14 15  1  0  0  0
  1  2  1  0  0  0
  1 10  2  0  0  0
  2  3  2  0  0  0
  3  4  1  0  0  0
  3  5  1  0  0  0
  4 11  1  0  0  0
  4 12  1  0  0  0
  5  6  2  0  0  0
  6  7  1  0  0  0
  6 10  1  0  0  0
  7  8  1  0  0  0
  7 13  1  0  0  0
  8 24  1  0  0  0
  8  9  2  0  0  0
 24 25  1  0  0  0
 25 26  1  0  0  0
 26 27  1  0  0  0
 26 31  2  0  0  0
 27 28  2  0  0  0
 28 29  1  0  0  0
 29 30  2  0  0  0
 30 31  1  0  0  0
  9 10  1  0  0  0
M  END
> <minimizedAffinity>
-9.75613

$$$$
