CHEMBL243088


 28 30  0  0  0  0  0  0  0  0999 V2000
  -15.5577   -0.0610  -14.6793 C   0  0  0  0  0  0  0  0  0  0  0  0
  -14.2303    0.2926  -14.5250 C   0  0  0  0  0  0  0  0  0  0  0  0
  -13.5222   -0.3922  -13.5714 C   0  0  0  0  0  0  0  0  0  0  0  0
  -14.0511   -1.3752  -12.8351 N   0  0  0  0  0  0  0  0  0  0  0  0
  -15.3414   -1.6701  -13.0397 C   0  0  0  0  0  0  0  0  0  0  0  0
  -16.1155   -1.0138  -13.9137 N   0  0  0  0  0  0  0  0  0  0  0  0
  -16.3185    0.6782  -15.6256 N   0  0  0  0  0  0  0  0  0  0  0  0
  -16.2405    0.2443  -16.5483 H   0  0  0  0  0  0  0  0  0  0  0  0
  -17.6090    2.7783  -15.5456 C   0  0  0  0  0  0  0  0  0  0  0  0
  -18.7913    3.4659  -15.2162 C   0  0  0  0  0  0  0  0  0  0  0  0
  -19.9371    2.7687  -14.8432 C   0  0  0  0  0  0  0  0  0  0  0  0
  -19.9172    1.3819  -14.8254 C   0  0  0  0  0  0  0  0  0  0  0  0
  -18.7391    0.6950  -15.1273 C   0  0  0  0  0  0  0  0  0  0  0  0
  -17.5543    1.3633  -15.4751 C   0  0  0  0  0  0  0  0  0  0  0  0
  -15.5063    3.2049  -16.5901 O   0  0  0  0  0  0  0  0  0  0  0  0
  -16.4611    3.6315  -15.9674 C   0  0  0  0  0  0  0  0  0  0  0  0
  -16.5803    4.9279  -15.6071 O   0  0  0  0  0  0  0  0  0  0  0  0
  -17.4763    5.1351  -15.2695 H   0  0  0  0  0  0  0  0  0  0  0  0
  -15.9389   -2.7039  -12.3147 N   0  0  0  0  0  0  0  0  0  0  0  0
  -16.6001   -3.1941  -12.9010 H   0  0  0  0  0  0  0  0  0  0  0  0
  -15.3203   -3.5129  -11.3422 C   0  0  0  0  0  0  0  0  0  0  0  0
  -15.1363   -3.0099  -10.0487 C   0  0  0  0  0  0  0  0  0  0  0  0
  -14.4562   -3.7578   -9.0805 C   0  0  0  0  0  0  0  0  0  0  0  0
  -13.9751   -5.0312   -9.3859 C   0  0  0  0  0  0  0  0  0  0  0  0
  -14.1907   -5.5484  -10.6569 C   0  0  0  0  0  0  0  0  0  0  0  0
  -13.7613   -6.7953  -11.0091 O   0  0  0  0  0  0  0  0  0  0  0  0
  -14.8491   -4.8023  -11.6246 C   0  0  0  0  0  0  0  0  0  0  0  0
  -13.2964   -7.1818  -10.2455 H   0  0  0  0  0  0  0  0  0  0  0  0
 15 16  2  0  0  0
 16 17  1  0  0  0
 16  9  1  0  0  0
 17 18  1  0  0  0
  9 10  1  0  0  0
  9 14  2  0  0  0
 10 11  2  0  0  0
 11 12  1  0  0  0
 12 13  2  0  0  0
 13 14  1  0  0  0
 14  7  1  0  0  0
  7  1  1  0  0  0
  7  8  1  0  0  0
  1  2  1  0  0  0
  1  6  2  0  0  0
  2  3  2  0  0  0
  3  4  1  0  0  0
  4  5  2  0  0  0
  5 19  1  0  0  0
  5  6  1  0  0  0
 19 21  1  0  0  0
 19 20  1  0  0  0
 21 22  1  0  0  0
 21 27  2  0  0  0
 22 23  2  0  0  0
 23 24  1  0  0  0
 24 25  2  0  0  0
 25 26  1  0  0  0
 25 27  1  0  0  0
 26 28  1  0  0  0
M  END
> <minimizedAffinity>
-7.99669

$$$$
