CHEMBL1289925


 30 34  0  0  0  0  0  0  0  0999 V2000
  -14.2161   -2.2408  -12.6559 O   0  0  0  0  0  0  0  0  0  0  0  0
  -15.8473    2.1064  -15.8445 C   0  0  0  0  0  0  0  0  0  0  0  0
  -14.9618    2.0540  -16.9086 C   0  0  0  0  0  0  0  0  0  0  0  0
  -13.8384    0.7843  -16.7833 S   0  0  0  0  0  0  0  0  0  0  0  0
  -14.4902    0.2618  -15.2819 C   0  0  0  0  0  0  0  0  0  0  0  0
  -14.0505   -0.8336  -14.5160 C   0  0  0  0  0  0  0  0  0  0  0  0
  -14.6930   -1.1275  -13.3120 C   0  0  0  0  0  0  0  0  0  0  0  0
  -15.7747   -0.3621  -12.8940 C   0  0  0  0  0  0  0  0  0  0  0  0
  -16.1901    0.7421  -13.6465 C   0  0  0  0  0  0  0  0  0  0  0  0
  -15.5571    1.0698  -14.8746 C   0  0  0  0  0  0  0  0  0  0  0  0
  -19.3245    3.4131  -15.3581 C   0  0  0  0  0  0  0  0  0  0  0  0
  -18.1758    2.5663  -15.5425 N   0  0  0  0  0  0  0  0  0  0  0  0
  -16.9166    3.1018  -15.7328 C   0  0  0  0  0  0  0  0  0  0  0  0
  -16.7060    4.3071  -15.7720 O   0  0  0  0  0  0  0  0  0  0  0  0
  -18.2597    1.5859  -15.3149 H   0  0  0  0  0  0  0  0  0  0  0  0
  -15.0234   -3.3444  -12.5008 C   0  0  0  0  0  0  0  0  0  0  0  0
  -15.9210   -3.4908  -11.4448 C   0  0  0  0  0  0  0  0  0  0  0  0
  -16.6832   -4.6394  -11.3750 C   0  0  0  0  0  0  0  0  0  0  0  0
  -16.6131   -5.6746  -12.2324 N   0  0  0  0  0  0  0  0  0  0  0  0
  -15.6855   -5.5587  -13.2214 C   0  0  0  0  0  0  0  0  0  0  0  0
  -15.4190   -6.5516  -14.2072 C   0  0  0  0  0  0  0  0  0  0  0  0
  -14.4187   -6.1841  -15.0833 C   0  0  0  0  0  0  0  0  0  0  0  0
  -13.8115   -4.6274  -14.7089 S   0  0  0  0  0  0  0  0  0  0  0  0
  -14.8819   -4.4314  -13.3791 C   0  0  0  0  0  0  0  0  0  0  0  0
  -13.8798   -6.9315  -16.2083 C   0  0  0  0  0  0  0  0  0  0  0  0
  -14.1951   -6.5505  -17.4245 N   0  0  0  0  0  0  0  0  0  0  0  0
  -13.5717   -7.5330  -18.3379 C   0  0  0  0  0  0  0  0  0  0  0  0
  -12.7028   -8.4502  -17.4832 C   0  0  0  0  0  0  0  0  0  0  0  0
  -13.0302   -8.0234  -16.1376 N   0  0  0  0  0  0  0  0  0  0  0  0
  -13.1246   -9.0303  -15.1017 C   0  0  0  0  0  0  0  0  0  0  0  0
 11 12  1  0  0  0
 12 13  1  0  0  0
 12 15  1  0  0  0
 13 14  2  0  0  0
 13  2  1  0  0  0
  2  3  2  0  0  0
  2 10  1  0  0  0
  3  4  1  0  0  0
  4  5  1  0  0  0
  5  6  1  0  0  0
  5 10  2  0  0  0
  6  7  2  0  0  0
  7  1  1  0  0  0
  7  8  1  0  0  0
  1 16  1  0  0  0
 16 17  1  0  0  0
 16 24  2  0  0  0
 17 18  2  0  0  0
 18 19  1  0  0  0
 19 20  2  0  0  0
 20 21  1  0  0  0
 20 24  1  0  0  0
 21 22  2  0  0  0
 22 25  1  0  0  0
 22 23  1  0  0  0
 25 26  2  0  0  0
 25 29  1  0  0  0
 26 27  1  0  0  0
 27 28  1  0  0  0
 28 29  1  0  0  0
 29 30  1  0  0  0
 23 24  1  0  0  0
  8  9  2  0  0  0
  9 10  1  0  0  0
M  END
> <minimizedAffinity>
-7.86205

$$$$
