CHEMBL4472616


 45 50  0  0  0  0  0  0  0  0999 V2000
  -28.4362  -10.0159   -4.4491 C   0  0  0  0  0  0  0  0  0  0  0  0
  -29.1339  -10.1080   -5.6588 C   0  0  0  0  0  0  0  0  0  0  0  0
  -29.9770   -9.0622   -6.0990 C   0  0  0  0  0  0  0  0  0  0  0  0
  -30.1599   -7.9079   -5.3292 C   0  0  0  0  0  0  0  0  0  0  0  0
  -29.5539   -7.8686   -4.0683 C   0  0  0  0  0  0  0  0  0  0  0  0
  -28.7101   -8.9135   -3.6296 C   0  0  0  0  0  0  0  0  0  0  0  0
  -25.7146  -10.3283   -5.4748 O   0  0  0  0  0  0  0  0  0  0  0  0
  -26.1176  -10.9912   -4.5330 C   0  0  0  0  0  0  0  0  0  0  0  0
  -27.4210  -10.9304   -4.0340 N   0  0  0  0  0  0  0  0  0  0  0  0
  -25.3158  -11.8552   -3.7874 N   0  0  0  0  0  0  0  0  0  0  0  0
  -27.5933  -11.4113   -3.1636 H   0  0  0  0  0  0  0  0  0  0  0  0
  -25.7671  -12.4817   -3.1336 H   0  0  0  0  0  0  0  0  0  0  0  0
  -23.9048  -12.0160   -3.9030 C   0  0  0  0  0  0  0  0  0  0  0  0
  -23.1981  -11.8825   -5.1047 C   0  0  0  0  0  0  0  0  0  0  0  0
  -21.7999  -12.0400   -5.1599 C   0  0  0  0  0  0  0  0  0  0  0  0
  -21.0935  -12.3272   -3.9823 C   0  0  0  0  0  0  0  0  0  0  0  0
  -21.7806  -12.4571   -2.7753 C   0  0  0  0  0  0  0  0  0  0  0  0
  -23.1684  -12.3016   -2.7451 C   0  0  0  0  0  0  0  0  0  0  0  0
  -23.8029  -12.4183   -1.5678 F   0  0  0  0  0  0  0  0  0  0  0  0
  -21.0552  -11.8803   -6.4656 C   0  0  0  0  0  0  0  0  0  0  0  0
  -21.6833  -12.4353   -7.5370 F   0  0  0  0  0  0  0  0  0  0  0  0
  -20.8286  -10.5769   -6.7866 F   0  0  0  0  0  0  0  0  0  0  0  0
  -19.8260  -12.4629   -6.4146 F   0  0  0  0  0  0  0  0  0  0  0  0
  -30.7757   -6.7393   -5.7873 O   0  0  0  0  0  0  0  0  0  0  0  0
  -30.9803   -5.6763   -4.9040 C   0  0  0  0  0  0  0  0  0  0  0  0
  -31.8730   -5.9145   -3.9087 N   0  0  0  0  0  0  0  0  0  0  0  0
  -32.0879   -4.9539   -3.0337 C   0  0  0  0  0  0  0  0  0  0  0  0
  -31.4585   -3.7879   -3.0276 N   0  0  0  0  0  0  0  0  0  0  0  0
  -30.5592   -3.5691   -3.9812 C   0  0  0  0  0  0  0  0  0  0  0  0
  -30.0128   -2.3039   -3.9019 C   0  0  0  0  0  0  0  0  0  0  0  0
  -29.0433   -1.8771   -4.7847 C   0  0  0  0  0  0  0  0  0  0  0  0
  -28.4984   -2.7784   -5.6665 C   0  0  0  0  0  0  0  0  0  0  0  0
  -29.1550   -3.9909   -5.9191 C   0  0  0  0  0  0  0  0  0  0  0  0
  -30.1970   -4.4709   -5.0048 C   0  0  0  0  0  0  0  0  0  0  0  0
  -28.8730   -4.6415   -7.1029 O   0  0  0  0  0  0  0  0  0  0  0  0
  -28.0774   -3.8825   -8.0676 C   0  0  0  0  0  0  0  0  0  0  0  0
  -27.7203   -2.4412   -7.7090 C   0  0  0  0  0  0  0  0  0  0  0  0
  -27.3775   -2.3843   -6.3444 O   0  0  0  0  0  0  0  0  0  0  0  0
  -28.7049   -0.5583   -4.9328 O   0  0  0  0  0  0  0  0  0  0  0  0
  -29.5448    0.1052   -5.8964 C   0  0  0  0  0  0  0  0  0  0  0  0
  -28.7309    1.0085   -6.8274 C   0  0  0  0  0  0  0  0  0  0  0  0
  -29.6769    1.8687   -7.6580 C   0  0  0  0  0  0  0  0  0  0  0  0
  -30.5617    2.6067   -6.8155 O   0  0  0  0  0  0  0  0  0  0  0  0
  -31.4003    1.7589   -6.0328 C   0  0  0  0  0  0  0  0  0  0  0  0
  -30.5683    0.9007   -5.1046 C   0  0  0  0  0  0  0  0  0  0  0  0
  7  8  2  0  0  0
  8  9  1  0  0  0
  8 10  1  0  0  0
  9  1  1  0  0  0
  9 11  1  0  0  0
  1  2  1  0  0  0
  1  6  2  0  0  0
  2  3  2  0  0  0
  3  4  1  0  0  0
  4 24  1  0  0  0
  4  5  2  0  0  0
 24 25  1  0  0  0
 25 26  1  0  0  0
 25 34  2  0  0  0
 26 27  2  0  0  0
 27 28  1  0  0  0
 28 29  2  0  0  0
 29 30  1  0  0  0
 29 34  1  0  0  0
 30 31  2  0  0  0
 31 39  1  0  0  0
 31 32  1  0  0  0
 39 40  1  0  0  0
 40 41  1  0  0  0
 40 45  1  0  0  0
 41 42  1  0  0  0
 42 43  1  0  0  0
 43 44  1  0  0  0
 44 45  1  0  0  0
 32 33  2  0  0  0
 32 38  1  0  0  0
 33 34  1  0  0  0
 33 35  1  0  0  0
 35 36  1  0  0  0
 36 37  1  0  0  0
 37 38  1  0  0  0
  5  6  1  0  0  0
 10 13  1  0  0  0
 10 12  1  0  0  0
 13 14  1  0  0  0
 13 18  2  0  0  0
 14 15  2  0  0  0
 15 20  1  0  0  0
 15 16  1  0  0  0
 20 21  1  0  0  0
 20 22  1  0  0  0
 20 23  1  0  0  0
 16 17  2  0  0  0
 17 18  1  0  0  0
 18 19  1  0  0  0
M  END
> <minimizedAffinity>
-7.86910

$$$$
