CHEMBL1979690


 34 38  0  0  0  0  0  0  0  0999 V2000
  -15.4435   -0.2304  -13.0739 C   0  0  0  0  0  0  0  0  0  0  0  0
  -14.3821    0.5760  -12.9655 N   0  0  0  0  0  0  0  0  0  0  0  0
  -14.3375    1.6200  -13.8248 C   0  0  0  0  0  0  0  0  0  0  0  0
  -15.3051    1.8906  -14.7678 C   0  0  0  0  0  0  0  0  0  0  0  0
  -15.1927    3.2772  -15.7731 Cl  0  0  0  0  0  0  0  0  0  0  0  0
  -16.3324    0.9689  -14.8519 C   0  0  0  0  0  0  0  0  0  0  0  0
  -16.3699   -0.0858  -14.0305 N   0  0  0  0  0  0  0  0  0  0  0  0
  -15.5918   -1.2488  -12.1382 N   0  0  0  0  0  0  0  0  0  0  0  0
  -16.2209   -0.9951  -11.3951 H   0  0  0  0  0  0  0  0  0  0  0  0
  -14.1342   -5.2269  -12.5585 C   0  0  0  0  0  0  0  0  0  0  0  0
  -13.3045   -4.1045  -12.6941 C   0  0  0  0  0  0  0  0  0  0  0  0
  -13.7742   -2.7978  -12.5109 C   0  0  0  0  0  0  0  0  0  0  0  0
  -15.1063   -2.5631  -12.1756 C   0  0  0  0  0  0  0  0  0  0  0  0
  -15.9259   -3.6851  -11.9951 C   0  0  0  0  0  0  0  0  0  0  0  0
  -15.4551   -4.9876  -12.1858 C   0  0  0  0  0  0  0  0  0  0  0  0
  -11.7185  -10.2271  -12.2482 C   0  0  0  0  0  0  0  0  0  0  0  0
  -12.4301   -9.1363  -12.9092 N   0  0  0  0  0  0  0  0  0  0  0  0
  -13.7352   -8.8981  -12.2466 C   0  0  0  0  0  0  0  0  0  0  0  0
  -14.4973   -7.6804  -12.8203 C   0  0  0  0  0  0  0  0  0  0  0  0
  -13.6258   -6.5002  -12.7279 N   0  0  0  0  0  0  0  0  0  0  0  0
  -12.3599   -6.6761  -13.4582 C   0  0  0  0  0  0  0  0  0  0  0  0
  -11.6178   -7.8954  -12.8677 C   0  0  0  0  0  0  0  0  0  0  0  0
  -17.3913    1.1240  -15.7723 N   0  0  0  0  0  0  0  0  0  0  0  0
  -17.0388    1.3227  -16.7021 H   0  0  0  0  0  0  0  0  0  0  0  0
  -18.6762    1.6550  -15.5112 C   0  0  0  0  0  0  0  0  0  0  0  0
  -18.9081    3.0400  -15.5417 C   0  0  0  0  0  0  0  0  0  0  0  0
  -20.0981    3.6108  -15.0704 C   0  0  0  0  0  0  0  0  0  0  0  0
  -21.0714    2.7328  -14.5955 C   0  0  0  0  0  0  0  0  0  0  0  0
  -22.2839    2.9508  -13.9965 N   0  0  0  0  0  0  0  0  0  0  0  0
  -22.9881    1.8287  -13.7608 N   0  0  0  0  0  0  0  0  0  0  0  0
  -22.1645    0.8584  -14.1681 C   0  0  0  0  0  0  0  0  0  0  0  0
  -20.9292    1.3522  -14.6448 C   0  0  0  0  0  0  0  0  0  0  0  0
  -19.7147    0.8008  -15.0989 C   0  0  0  0  0  0  0  0  0  0  0  0
  -22.6804    3.8386  -13.7099 H   0  0  0  0  0  0  0  0  0  0  0  0
 16 17  1  0  0  0
 17 18  1  0  0  0
 17 22  1  0  0  0
 18 19  1  0  0  0
 19 20  1  0  0  0
 20 10  1  0  0  0
 20 21  1  0  0  0
 10 11  1  0  0  0
 10 15  2  0  0  0
 11 12  2  0  0  0
 12 13  1  0  0  0
 13  8  1  0  0  0
 13 14  2  0  0  0
  8  1  1  0  0  0
  8  9  1  0  0  0
  1  2  1  0  0  0
  1  7  2  0  0  0
  2  3  2  0  0  0
  3  4  1  0  0  0
  4  5  1  0  0  0
  4  6  2  0  0  0
  6 23  1  0  0  0
  6  7  1  0  0  0
 23 25  1  0  0  0
 23 24  1  0  0  0
 25 26  1  0  0  0
 25 33  2  0  0  0
 26 27  2  0  0  0
 27 28  1  0  0  0
 28 29  1  0  0  0
 28 32  2  0  0  0
 29 30  1  0  0  0
 29 34  1  0  0  0
 30 31  2  0  0  0
 31 32  1  0  0  0
 32 33  1  0  0  0
 14 15  1  0  0  0
 21 22  1  0  0  0
M  END
> <minimizedAffinity>
-9.50491

$$$$
