CHEMBL77933


 30 33  0  0  0  0  0  0  0  0999 V2000
  -27.6401   -2.0133   -8.3575 C   0  0  0  0  0  0  0  0  0  0  0  0
  -27.8820   -3.2930   -8.7154 N   0  0  0  0  0  0  0  0  0  0  0  0
  -28.6720   -4.0935   -7.9559 N   0  0  0  0  0  0  0  0  0  0  0  0
  -29.1781   -3.6369   -6.7895 C   0  0  0  0  0  0  0  0  0  0  0  0
  -28.9309   -2.3282   -6.3365 C   0  0  0  0  0  0  0  0  0  0  0  0
  -29.3518   -1.8289   -5.0768 C   0  0  0  0  0  0  0  0  0  0  0  0
  -29.1110   -0.5090   -4.6903 C   0  0  0  0  0  0  0  0  0  0  0  0
  -28.4657    0.3561   -5.5601 C   0  0  0  0  0  0  0  0  0  0  0  0
  -28.0032   -0.1195   -6.7867 C   0  0  0  0  0  0  0  0  0  0  0  0
  -28.1937   -1.4678   -7.1816 C   0  0  0  0  0  0  0  0  0  0  0  0
  -26.7584   -1.2419   -9.1531 N   0  0  0  0  0  0  0  0  0  0  0  0
  -26.8300   -0.2599   -8.9136 H   0  0  0  0  0  0  0  0  0  0  0  0
  -24.7405   -1.6948  -12.2760 C   0  0  0  0  0  0  0  0  0  0  0  0
  -25.7632   -1.8732  -13.2132 C   0  0  0  0  0  0  0  0  0  0  0  0
  -27.0948   -1.8525  -12.8002 C   0  0  0  0  0  0  0  0  0  0  0  0
  -28.4690   -2.0730  -14.0808 Br  0  0  0  0  0  0  0  0  0  0  0  0
  -27.4296   -1.6603  -11.4571 C   0  0  0  0  0  0  0  0  0  0  0  0
  -26.4261   -1.5101  -10.4966 C   0  0  0  0  0  0  0  0  0  0  0  0
  -25.0875   -1.5123  -10.9275 C   0  0  0  0  0  0  0  0  0  0  0  0
  -23.0529   -0.9675  -13.8201 F   0  0  0  0  0  0  0  0  0  0  0  0
  -23.2884   -1.6762  -12.6805 C   0  0  0  0  0  0  0  0  0  0  0  0
  -22.7881   -2.9214  -12.9068 F   0  0  0  0  0  0  0  0  0  0  0  0
  -22.4901   -1.1187  -11.7274 F   0  0  0  0  0  0  0  0  0  0  0  0
  -30.1125   -4.6027   -6.0978 C   0  0  0  0  0  0  0  0  0  0  0  0
  -29.4662   -5.9413   -5.8180 C   0  0  0  0  0  0  0  0  0  0  0  0
  -29.9737   -7.1123   -6.3975 C   0  0  0  0  0  0  0  0  0  0  0  0
  -29.3852   -8.3255   -6.0769 C   0  0  0  0  0  0  0  0  0  0  0  0
  -28.3313   -8.4500   -5.2438 N   0  0  0  0  0  0  0  0  0  0  0  0
  -27.8431   -7.3096   -4.7128 C   0  0  0  0  0  0  0  0  0  0  0  0
  -28.3638   -6.0494   -4.9691 C   0  0  0  0  0  0  0  0  0  0  0  0
 20 21  1  0  0  0
 21 22  1  0  0  0
 21 23  1  0  0  0
 21 13  1  0  0  0
 13 14  1  0  0  0
 13 19  2  0  0  0
 14 15  2  0  0  0
 15 16  1  0  0  0
 15 17  1  0  0  0
 17 18  2  0  0  0
 18 11  1  0  0  0
 18 19  1  0  0  0
 11  1  1  0  0  0
 11 12  1  0  0  0
  1  2  1  0  0  0
  1 10  2  0  0  0
  2  3  2  0  0  0
  3  4  1  0  0  0
  4 24  1  0  0  0
  4  5  2  0  0  0
 24 25  1  0  0  0
 25 26  1  0  0  0
 25 30  2  0  0  0
 26 27  2  0  0  0
 27 28  1  0  0  0
 28 29  2  0  0  0
 29 30  1  0  0  0
  5  6  1  0  0  0
  5 10  1  0  0  0
  6  7  2  0  0  0
  7  8  1  0  0  0
  8  9  2  0  0  0
  9 10  1  0  0  0
M  END
> <minimizedAffinity>
-9.91511

$$$$
