CHEMBL223943


 29 33  0  0  0  0  0  0  0  0999 V2000
  -29.2742   -4.2899   -6.8524 C   0  0  0  0  0  0  0  0  0  0  0  0
  -30.3319   -3.4624   -6.9959 N   0  0  0  0  0  0  0  0  0  0  0  0
  -30.8602   -3.5394   -5.7303 N   0  0  0  0  0  0  0  0  0  0  0  0
  -29.9156   -3.9782   -4.8109 C   0  0  0  0  0  0  0  0  0  0  0  0
  -28.7645   -3.7550   -5.5944 C   0  0  0  0  0  0  0  0  0  0  0  0
  -27.5965   -3.8839   -4.6801 C   0  0  0  0  0  0  0  0  0  0  0  0
  -28.0911   -5.1640   -4.0584 C   0  0  0  0  0  0  0  0  0  0  0  0
  -27.2946   -6.2957   -4.1325 C   0  0  0  0  0  0  0  0  0  0  0  0
  -27.9569   -7.5050   -4.3049 C   0  0  0  0  0  0  0  0  0  0  0  0
  -29.3525   -7.5791   -4.0012 C   0  0  0  0  0  0  0  0  0  0  0  0
  -30.1438   -6.4222   -3.8677 C   0  0  0  0  0  0  0  0  0  0  0  0
  -29.5256   -5.1903   -4.0169 C   0  0  0  0  0  0  0  0  0  0  0  0
  -31.5735   -2.8455   -5.5572 H   0  0  0  0  0  0  0  0  0  0  0  0
  -29.0267   -7.8611   -8.1744 C   0  0  0  0  0  0  0  0  0  0  0  0
  -28.6398   -6.5621   -7.9200 C   0  0  0  0  0  0  0  0  0  0  0  0
  -29.6399   -5.7420   -7.2501 C   0  0  0  0  0  0  0  0  0  0  0  0
  -30.7578   -6.5126   -7.0212 C   0  0  0  0  0  0  0  0  0  0  0  0
  -30.6529   -8.0901   -7.7438 S   0  0  0  0  0  0  0  0  0  0  0  0
  -26.7913  -10.7091  -10.0537 C   0  0  0  0  0  0  0  0  0  0  0  0
  -27.5249   -9.7251   -9.2711 C   0  0  0  0  0  0  0  0  0  0  0  0
  -28.1572   -8.8670   -8.6964 C   0  0  0  0  0  0  0  0  0  0  0  0
  -27.2921   -8.5157   -5.2306 C   0  0  0  0  0  0  0  0  0  0  0  0
  -26.5740   -9.6223   -4.6248 N   0  0  0  0  0  0  0  0  0  0  0  0
  -26.0673  -10.5247   -5.6611 C   0  0  0  0  0  0  0  0  0  0  0  0
  -25.2929  -11.6748   -4.9999 C   0  0  0  0  0  0  0  0  0  0  0  0
  -24.1204  -11.2400   -4.2101 N   0  0  0  0  0  0  0  0  0  0  0  0
  -23.0581  -10.7322   -5.0776 C   0  0  0  0  0  0  0  0  0  0  0  0
  -24.5509  -10.2134   -3.2355 C   0  0  0  0  0  0  0  0  0  0  0  0
  -25.4355   -9.0920   -3.8290 C   0  0  0  0  0  0  0  0  0  0  0  0
 19 20  1  0  0  0
 20 21  3  0  0  0
 21 14  1  0  0  0
 14 15  2  0  0  0
 14 18  1  0  0  0
 15 16  1  0  0  0
 16  1  1  0  0  0
 16 17  2  0  0  0
  1  2  2  0  0  0
  1  5  1  0  0  0
  2  3  1  0  0  0
  3  4  1  0  0  0
  3 13  1  0  0  0
  4  5  2  0  0  0
  4 12  1  0  0  0
  5  6  1  0  0  0
  6  7  1  0  0  0
  7  8  1  0  0  0
  7 12  2  0  0  0
  8  9  2  0  0  0
  9 22  1  0  0  0
  9 10  1  0  0  0
 22 23  1  0  0  0
 23 24  1  0  0  0
 23 29  1  0  0  0
 24 25  1  0  0  0
 25 26  1  0  0  0
 26 27  1  0  0  0
 26 28  1  0  0  0
 28 29  1  0  0  0
 10 11  2  0  0  0
 11 12  1  0  0  0
 17 18  1  0  0  0
M  END
> <minimizedAffinity>
-7.05475

$$$$
