CHEMBL3690461


 33 36  0  0  0  0  0  0  0  0999 V2000
  -29.8373   -3.7964   -4.6157 C   0  0  0  0  0  0  0  0  0  0  0  0
  -31.2241   -3.7516   -4.3960 C   0  0  0  0  0  0  0  0  0  0  0  0
  -31.8798   -4.7854   -3.7391 C   0  0  0  0  0  0  0  0  0  0  0  0
  -31.1608   -5.8884   -3.2904 C   0  0  0  0  0  0  0  0  0  0  0  0
  -29.7839   -5.9815   -3.5049 C   0  0  0  0  0  0  0  0  0  0  0  0
  -29.1284   -4.9260   -4.1674 C   0  0  0  0  0  0  0  0  0  0  0  0
  -27.4557   -2.1767   -9.1049 C   0  0  0  0  0  0  0  0  0  0  0  0
  -27.8995   -3.5354   -8.7569 C   0  0  0  0  0  0  0  0  0  0  0  0
  -28.4635   -3.7850   -7.5610 C   0  0  0  0  0  0  0  0  0  0  0  0
  -28.6514   -2.7403   -6.6529 N   0  0  0  0  0  0  0  0  0  0  0  0
  -29.2225   -2.7030   -5.3835 C   0  0  0  0  0  0  0  0  0  0  0  0
  -29.0493   -1.3824   -4.9833 C   0  0  0  0  0  0  0  0  0  0  0  0
  -28.4426   -0.6197   -5.9351 N   0  0  0  0  0  0  0  0  0  0  0  0
  -28.2278   -1.4421   -6.9344 C   0  0  0  0  0  0  0  0  0  0  0  0
  -27.6395   -1.1848   -8.2023 C   0  0  0  0  0  0  0  0  0  0  0  0
  -23.4174   -1.3927  -11.6564 C   0  0  0  0  0  0  0  0  0  0  0  0
  -24.9142   -1.4834  -11.6560 C   0  0  0  0  0  0  0  0  0  0  0  0
  -25.6338   -1.3109  -12.8319 C   0  0  0  0  0  0  0  0  0  0  0  0
  -27.0184   -1.3925  -12.7849 C   0  0  0  0  0  0  0  0  0  0  0  0
  -27.6417   -1.6541  -11.5692 C   0  0  0  0  0  0  0  0  0  0  0  0
  -26.8622   -1.8468  -10.4311 C   0  0  0  0  0  0  0  0  0  0  0  0
  -25.5088   -1.7432  -10.4631 N   0  0  0  0  0  0  0  0  0  0  0  0
  -29.0199   -7.0995   -3.0928 N   0  0  0  0  0  0  0  0  0  0  0  0
  -28.2860   -7.9324   -3.9138 C   0  0  0  0  0  0  0  0  0  0  0  0
  -28.1301   -7.8308   -5.1249 O   0  0  0  0  0  0  0  0  0  0  0  0
  -27.7150   -8.9827   -3.2262 N   0  0  0  0  0  0  0  0  0  0  0  0
  -28.9958   -7.2967   -2.1034 H   0  0  0  0  0  0  0  0  0  0  0  0
  -27.4788   -8.8239   -2.2575 H   0  0  0  0  0  0  0  0  0  0  0  0
  -26.8574   -9.9116   -3.9766 C   0  0  0  0  0  0  0  0  0  0  0  0
  -25.3441   -9.6733   -3.8677 C   0  0  0  0  0  0  0  0  0  0  0  0
  -25.0482   -8.3685   -3.6638 F   0  0  0  0  0  0  0  0  0  0  0  0
  -24.8493  -10.3548   -2.8030 F   0  0  0  0  0  0  0  0  0  0  0  0
  -24.6726  -10.0946   -4.9581 F   0  0  0  0  0  0  0  0  0  0  0  0
 16 17  1  0  0  0
 17 18  1  0  0  0
 17 22  2  0  0  0
 18 19  2  0  0  0
 19 20  1  0  0  0
 20 21  2  0  0  0
 21  7  1  0  0  0
 21 22  1  0  0  0
  7  8  1  0  0  0
  7 15  2  0  0  0
  8  9  2  0  0  0
  9 10  1  0  0  0
 10 11  1  0  0  0
 10 14  1  0  0  0
 11  1  1  0  0  0
 11 12  2  0  0  0
  1  2  1  0  0  0
  1  6  2  0  0  0
  2  3  2  0  0  0
  3  4  1  0  0  0
  4  5  2  0  0  0
  5 23  1  0  0  0
  5  6  1  0  0  0
 23 24  1  0  0  0
 23 27  1  0  0  0
 24 25  2  0  0  0
 24 26  1  0  0  0
 26 29  1  0  0  0
 26 28  1  0  0  0
 29 30  1  0  0  0
 30 31  1  0  0  0
 30 32  1  0  0  0
 30 33  1  0  0  0
 12 13  1  0  0  0
 13 14  2  0  0  0
 14 15  1  0  0  0
M  END
> <minimizedAffinity>
-10.30869

$$$$
