CHEMBL4069070


 31 34  0  0  0  0  0  0  0  0999 V2000
  -29.2924   -6.2111   -7.6086 C   0  0  0  0  0  0  0  0  0  0  0  0
  -28.3367   -6.4352   -6.5686 C   0  0  0  0  0  0  0  0  0  0  0  0
  -28.6191   -7.2982   -5.5024 C   0  0  0  0  0  0  0  0  0  0  0  0
  -29.9245   -7.7454   -5.3160 C   0  0  0  0  0  0  0  0  0  0  0  0
  -30.8678   -7.3495   -6.2892 C   0  0  0  0  0  0  0  0  0  0  0  0
  -32.1446   -7.8284   -6.5533 N   0  0  0  0  0  0  0  0  0  0  0  0
  -31.7671   -8.9471   -7.2537 C   0  0  0  0  0  0  0  0  0  0  0  0
  -32.1113  -10.1811   -6.8942 N   0  0  0  0  0  0  0  0  0  0  0  0
  -31.1975  -11.0568   -7.2945 C   0  0  0  0  0  0  0  0  0  0  0  0
  -31.1465  -12.2141   -6.5478 N   0  0  0  0  0  0  0  0  0  0  0  0
  -30.3210  -10.8608   -8.2904 N   0  0  0  0  0  0  0  0  0  0  0  0
  -30.1516   -9.6052   -8.7913 C   0  0  0  0  0  0  0  0  0  0  0  0
  -29.5716   -9.5775  -10.0616 N   0  0  0  0  0  0  0  0  0  0  0  0
  -30.7023   -8.5297   -8.0671 C   0  0  0  0  0  0  0  0  0  0  0  0
  -30.3984   -7.1288   -7.6182 C   0  0  0  0  0  0  0  0  0  0  0  0
  -32.8268   -7.2163   -6.9728 H   0  0  0  0  0  0  0  0  0  0  0  0
  -31.9816  -12.3188   -6.0130 H   0  0  0  0  0  0  0  0  0  0  0  0
  -30.7705  -12.9864   -7.0615 H   0  0  0  0  0  0  0  0  0  0  0  0
  -29.4195  -10.5631  -10.2879 H   0  0  0  0  0  0  0  0  0  0  0  0
  -30.2595   -9.1993  -10.7084 H   0  0  0  0  0  0  0  0  0  0  0  0
  -29.8784   -4.4333   -7.5609 S   0  0  0  0  0  0  0  0  0  0  0  0
  -30.5074   -3.5209   -3.5966 C   0  0  0  0  0  0  0  0  0  0  0  0
  -29.4534   -2.6526   -3.3185 C   0  0  0  0  0  0  0  0  0  0  0  0
  -28.5634   -2.2961   -4.3336 C   0  0  0  0  0  0  0  0  0  0  0  0
  -28.7201   -2.8128   -5.6211 C   0  0  0  0  0  0  0  0  0  0  0  0
  -29.7864   -3.7054   -5.9233 C   0  0  0  0  0  0  0  0  0  0  0  0
  -30.6693   -4.0283   -4.8999 C   0  0  0  0  0  0  0  0  0  0  0  0
  -32.2104   -5.0831   -3.0221 C   0  0  0  0  0  0  0  0  0  0  0  0
  -31.4421   -3.9370   -2.6723 O   0  0  0  0  0  0  0  0  0  0  0  0
  -27.8496   -2.4767   -6.6555 O   0  0  0  0  0  0  0  0  0  0  0  0
  -27.8921   -1.1366   -7.1371 C   0  0  0  0  0  0  0  0  0  0  0  0
 28 29  1  0  0  0
 29 22  1  0  0  0
 22 23  1  0  0  0
 22 27  2  0  0  0
 23 24  2  0  0  0
 24 25  1  0  0  0
 25 30  1  0  0  0
 25 26  2  0  0  0
 30 31  1  0  0  0
 26 21  1  0  0  0
 26 27  1  0  0  0
 21  1  1  0  0  0
  1  2  1  0  0  0
  1 15  2  0  0  0
  2  3  2  0  0  0
  3  4  1  0  0  0
  4  5  2  0  0  0
  5  6  1  0  0  0
  5 15  1  0  0  0
  6  7  1  0  0  0
  6 16  1  0  0  0
  7  8  1  0  0  0
  7 14  2  0  0  0
  8  9  2  0  0  0
  9 10  1  0  0  0
  9 11  1  0  0  0
 10 17  1  0  0  0
 10 18  1  0  0  0
 11 12  2  0  0  0
 12 13  1  0  0  0
 12 14  1  0  0  0
 13 19  1  0  0  0
 13 20  1  0  0  0
 14 15  1  0  0  0
M  END
> <minimizedAffinity>
-7.91429

$$$$
