CHEMBL256920


 34 37  0  0  0  0  0  0  0  0999 V2000
  -23.3223   -0.8065  -13.4585 C   0  0  0  0  0  0  0  0  0  0  0  0
  -24.5429   -1.1936  -14.0153 C   0  0  0  0  0  0  0  0  0  0  0  0
  -25.5384   -1.7467  -13.2047 C   0  0  0  0  0  0  0  0  0  0  0  0
  -25.3726   -1.8173  -11.8152 C   0  0  0  0  0  0  0  0  0  0  0  0
  -24.1786   -1.3651  -11.2564 C   0  0  0  0  0  0  0  0  0  0  0  0
  -23.1707   -0.8548  -12.0748 C   0  0  0  0  0  0  0  0  0  0  0  0
  -22.0305   -0.4353  -11.5057 F   0  0  0  0  0  0  0  0  0  0  0  0
  -26.4342   -2.3818  -11.0781 N   0  0  0  0  0  0  0  0  0  0  0  0
  -26.4569   -3.4033  -11.0743 H   0  0  0  0  0  0  0  0  0  0  0  0
  -27.5398   -1.8119  -10.4780 C   0  0  0  0  0  0  0  0  0  0  0  0
  -28.2388   -0.3205  -10.7726 S   0  0  0  0  0  0  0  0  0  0  0  0
  -28.1866   -2.6211   -9.5553 N   0  0  0  0  0  0  0  0  0  0  0  0
  -28.0652   -2.6143   -8.1816 C   0  0  0  0  0  0  0  0  0  0  0  0
  -27.2778   -1.8721   -7.5802 O   0  0  0  0  0  0  0  0  0  0  0  0
  -28.8066   -3.2991   -9.9835 H   0  0  0  0  0  0  0  0  0  0  0  0
  -28.9432   -3.5984   -7.4319 C   0  0  0  0  0  0  0  0  0  0  0  0
  -28.9407   -3.3861   -5.9410 C   0  0  0  0  0  0  0  0  0  0  0  0
  -29.6750   -2.3378   -5.3718 C   0  0  0  0  0  0  0  0  0  0  0  0
  -29.7154   -2.1726   -3.9848 C   0  0  0  0  0  0  0  0  0  0  0  0
  -29.0224   -3.0520   -3.1557 C   0  0  0  0  0  0  0  0  0  0  0  0
  -28.2872   -4.0961   -3.7091 C   0  0  0  0  0  0  0  0  0  0  0  0
  -28.2492   -4.2668   -5.0950 C   0  0  0  0  0  0  0  0  0  0  0  0
  -22.2441   -0.3804  -14.2028 O   0  0  0  0  0  0  0  0  0  0  0  0
  -18.3515    1.8893  -15.3128 C   0  0  0  0  0  0  0  0  0  0  0  0
  -19.0308    3.0317  -14.9601 C   0  0  0  0  0  0  0  0  0  0  0  0
  -20.3791    2.7695  -14.5838 C   0  0  0  0  0  0  0  0  0  0  0  0
  -21.2677    3.7208  -14.1897 N   0  0  0  0  0  0  0  0  0  0  0  0
  -22.4984    3.2790  -13.8836 C   0  0  0  0  0  0  0  0  0  0  0  0
  -22.8995    1.9596  -13.9221 C   0  0  0  0  0  0  0  0  0  0  0  0
  -21.9626    0.9727  -14.2407 C   0  0  0  0  0  0  0  0  0  0  0  0
  -20.6866    1.4093  -14.6320 C   0  0  0  0  0  0  0  0  0  0  0  0
  -19.3316    0.4992  -15.1758 S   0  0  0  0  0  0  0  0  0  0  0  0
  -16.3112    3.5190  -16.1522 C   0  0  0  0  0  0  0  0  0  0  0  0
  -16.6701    1.7821  -15.8085 S   0  0  0  0  0  0  0  0  0  0  0  0
 33 34  1  0  0  0
 34 24  1  0  0  0
 24 25  2  0  0  0
 24 32  1  0  0  0
 25 26  1  0  0  0
 26 27  1  0  0  0
 26 31  2  0  0  0
 27 28  2  0  0  0
 28 29  1  0  0  0
 29 30  2  0  0  0
 30 23  1  0  0  0
 30 31  1  0  0  0
 23  1  1  0  0  0
  1  2  1  0  0  0
  1  6  2  0  0  0
  2  3  2  0  0  0
  3  4  1  0  0  0
  4  8  1  0  0  0
  4  5  2  0  0  0
  8 10  1  0  0  0
  8  9  1  0  0  0
 10 11  2  0  0  0
 10 12  1  0  0  0
 12 13  1  0  0  0
 12 15  1  0  0  0
 13 14  2  0  0  0
 13 16  1  0  0  0
 16 17  1  0  0  0
 17 18  1  0  0  0
 17 22  2  0  0  0
 18 19  2  0  0  0
 19 20  1  0  0  0
 20 21  2  0  0  0
 21 22  1  0  0  0
  5  6  1  0  0  0
  6  7  1  0  0  0
 31 32  1  0  0  0
M  END
> <minimizedAffinity>
-9.80790

$$$$
