CHEMBL3676377


 39 41  0  0  0  0  0  0  0  0999 V2000
  -29.3995   -5.6469   -7.2463 C   0  0  0  0  0  0  0  0  0  0  0  0
  -28.8721   -4.6520   -8.0741 C   0  0  0  0  0  0  0  0  0  0  0  0
  -28.4512   -3.4211   -7.5313 C   0  0  0  0  0  0  0  0  0  0  0  0
  -27.9971   -2.3368   -8.3014 C   0  0  0  0  0  0  0  0  0  0  0  0
  -27.5718   -1.1930   -7.7412 N   0  0  0  0  0  0  0  0  0  0  0  0
  -27.6508   -1.1194   -6.4092 C   0  0  0  0  0  0  0  0  0  0  0  0
  -28.0955   -2.0785   -5.5856 N   0  0  0  0  0  0  0  0  0  0  0  0
  -28.4861   -3.2271   -6.1450 C   0  0  0  0  0  0  0  0  0  0  0  0
  -28.9664   -4.2611   -5.3379 C   0  0  0  0  0  0  0  0  0  0  0  0
  -29.4147   -5.4817   -5.8637 C   0  0  0  0  0  0  0  0  0  0  0  0
  -29.4806   -7.8503   -8.3045 C   0  0  0  0  0  0  0  0  0  0  0  0
  -30.1407   -8.8547   -8.5471 O   0  0  0  0  0  0  0  0  0  0  0  0
  -30.0967   -6.7025   -7.8705 N   0  0  0  0  0  0  0  0  0  0  0  0
  -31.0104   -6.9252   -7.4951 H   0  0  0  0  0  0  0  0  0  0  0  0
  -27.3897   -8.6632   -9.2671 C   0  0  0  0  0  0  0  0  0  0  0  0
  -27.9960   -7.8315   -8.4119 C   0  0  0  0  0  0  0  0  0  0  0  0
  -28.0335   -2.4284   -9.7111 N   0  0  0  0  0  0  0  0  0  0  0  0
  -28.9887   -2.4818  -10.0574 H   0  0  0  0  0  0  0  0  0  0  0  0
  -27.1360   -1.8707  -10.6452 C   0  0  0  0  0  0  0  0  0  0  0  0
  -25.8412   -1.4921  -10.2786 C   0  0  0  0  0  0  0  0  0  0  0  0
  -24.8909   -1.1660  -11.2490 C   0  0  0  0  0  0  0  0  0  0  0  0
  -25.2273   -1.2014  -12.6051 C   0  0  0  0  0  0  0  0  0  0  0  0
  -23.8316   -0.8819  -13.8529 Br  0  0  0  0  0  0  0  0  0  0  0  0
  -26.5345   -1.5106  -12.9917 C   0  0  0  0  0  0  0  0  0  0  0  0
  -27.0311   -1.5277  -14.6478 Cl  0  0  0  0  0  0  0  0  0  0  0  0
  -27.4702   -1.8486  -12.0089 C   0  0  0  0  0  0  0  0  0  0  0  0
  -28.7230   -2.1909  -12.3612 F   0  0  0  0  0  0  0  0  0  0  0  0
  -29.9272   -6.3722   -4.9466 O   0  0  0  0  0  0  0  0  0  0  0  0
  -29.0483   -6.7196   -3.8641 C   0  0  0  0  0  0  0  0  0  0  0  0
  -28.5873   -8.1938   -3.9511 C   0  0  0  0  0  0  0  0  0  0  0  0
  -29.3512   -8.9454   -5.0399 C   0  0  0  0  0  0  0  0  0  0  0  0
  -27.1512   -8.2795   -4.2281 N   0  0  0  0  0  0  0  0  0  0  0  0
  -26.3700   -9.3123   -3.7519 C   0  0  0  0  0  0  0  0  0  0  0  0
  -26.8328  -10.3227   -3.2320 O   0  0  0  0  0  0  0  0  0  0  0  0
  -26.6319   -7.4289   -4.4380 H   0  0  0  0  0  0  0  0  0  0  0  0
  -24.8594   -9.1059   -3.9510 C   0  0  0  0  0  0  0  0  0  0  0  0
  -24.2283  -10.2604   -4.6478 N   0  0  0  0  0  0  0  0  0  0  0  0
  -23.4449   -9.8130   -5.8074 C   0  0  0  0  0  0  0  0  0  0  0  0
  -23.3268  -10.9496   -3.7126 C   0  0  0  0  0  0  0  0  0  0  0  0
 15 16  2  0  0  0
 16 11  1  0  0  0
 11 12  2  0  0  0
 11 13  1  0  0  0
 13  1  1  0  0  0
 13 14  1  0  0  0
  1  2  1  0  0  0
  1 10  2  0  0  0
  2  3  2  0  0  0
  3  4  1  0  0  0
  3  8  1  0  0  0
  4 17  1  0  0  0
  4  5  2  0  0  0
 17 19  1  0  0  0
 17 18  1  0  0  0
 19 20  1  0  0  0
 19 26  2  0  0  0
 20 21  2  0  0  0
 21 22  1  0  0  0
 22 23  1  0  0  0
 22 24  2  0  0  0
 24 25  1  0  0  0
 24 26  1  0  0  0
 26 27  1  0  0  0
  5  6  1  0  0  0
  6  7  2  0  0  0
  7  8  1  0  0  0
  8  9  2  0  0  0
  9 10  1  0  0  0
 10 28  1  0  0  0
 28 29  1  0  0  0
 29 30  1  0  0  0
 30 31  1  0  0  0
 30 32  1  0  0  0
 32 33  1  0  0  0
 32 35  1  0  0  0
 33 34  2  0  0  0
 33 36  1  0  0  0
 36 37  1  0  0  0
 37 38  1  0  0  0
 37 39  1  0  0  0
M  END
> <minimizedAffinity>
-8.53809

$$$$
