CHEMBL3947408


 34 37  0  0  0  0  0  0  0  0999 V2000
  -28.2292   11.3812  -15.6628 C   0  0  0  0  0  0  0  0  0  0  0  0
  -26.8924   11.0485  -15.8263 C   0  0  0  0  0  0  0  0  0  0  0  0
  -25.9085   11.4406  -14.8977 C   0  0  0  0  0  0  0  0  0  0  0  0
  -24.5604   11.0950  -15.0342 C   0  0  0  0  0  0  0  0  0  0  0  0
  -23.6473   11.4151  -14.1034 N   0  0  0  0  0  0  0  0  0  0  0  0
  -24.0877   12.1148  -13.0523 C   0  0  0  0  0  0  0  0  0  0  0  0
  -25.3453   12.5247  -12.8447 N   0  0  0  0  0  0  0  0  0  0  0  0
  -26.2512   12.1762  -13.7657 C   0  0  0  0  0  0  0  0  0  0  0  0
  -27.5855   12.5434  -13.6231 C   0  0  0  0  0  0  0  0  0  0  0  0
  -28.5781   12.1632  -14.5492 C   0  0  0  0  0  0  0  0  0  0  0  0
  -29.0758    9.8343  -17.3490 C   0  0  0  0  0  0  0  0  0  0  0  0
  -29.1941   10.9985  -16.5429 O   0  0  0  0  0  0  0  0  0  0  0  0
  -24.1556   10.3943  -16.2067 N   0  0  0  0  0  0  0  0  0  0  0  0
  -24.8991    9.7633  -16.4892 H   0  0  0  0  0  0  0  0  0  0  0  0
  -23.4779   10.9737  -17.2912 C   0  0  0  0  0  0  0  0  0  0  0  0
  -24.1969   11.5739  -18.3322 C   0  0  0  0  0  0  0  0  0  0  0  0
  -23.5346   12.0756  -19.4575 C   0  0  0  0  0  0  0  0  0  0  0  0
  -22.1472   11.9843  -19.5422 C   0  0  0  0  0  0  0  0  0  0  0  0
  -21.3939   12.5489  -20.9886 Cl  0  0  0  0  0  0  0  0  0  0  0  0
  -21.4158   11.4292  -18.4839 C   0  0  0  0  0  0  0  0  0  0  0  0
  -19.6922   11.2934  -18.5145 Cl  0  0  0  0  0  0  0  0  0  0  0  0
  -22.0808   10.9395  -17.3515 C   0  0  0  0  0  0  0  0  0  0  0  0
  -29.8232   12.6366  -14.2110 O   0  0  0  0  0  0  0  0  0  0  0  0
  -30.2703   12.4265  -12.8730 C   0  0  0  0  0  0  0  0  0  0  0  0
  -31.7768   12.1502  -12.8267 C   0  0  0  0  0  0  0  0  0  0  0  0
  -32.0527   10.8468  -12.0298 C   0  0  0  0  0  0  0  0  0  0  0  0
  -33.4657   10.6115  -11.6507 N   0  0  0  0  0  0  0  0  0  0  0  0
  -34.2084    9.9741  -12.7440 C   0  0  0  0  0  0  0  0  0  0  0  0
  -33.8942   10.3690  -14.1934 C   0  0  0  0  0  0  0  0  0  0  0  0
  -33.5883   11.8403  -14.4029 C   0  0  0  0  0  0  0  0  0  0  0  0
  -32.2053   12.0980  -14.1952 O   0  0  0  0  0  0  0  0  0  0  0  0
  -34.1146   11.7696  -10.9902 C   0  0  0  0  0  0  0  0  0  0  0  0
  -35.6304   11.6229  -10.7871 C   0  0  0  0  0  0  0  0  0  0  0  0
  -33.5036   12.0589   -9.6031 C   0  0  0  0  0  0  0  0  0  0  0  0
 11 12  1  0  0  0
 12  1  1  0  0  0
  1  2  1  0  0  0
  1 10  2  0  0  0
  2  3  2  0  0  0
  3  4  1  0  0  0
  3  8  1  0  0  0
  4 13  1  0  0  0
  4  5  2  0  0  0
 13 15  1  0  0  0
 13 14  1  0  0  0
 15 16  1  0  0  0
 15 22  2  0  0  0
 16 17  2  0  0  0
 17 18  1  0  0  0
 18 19  1  0  0  0
 18 20  2  0  0  0
 20 21  1  0  0  0
 20 22  1  0  0  0
  5  6  1  0  0  0
  6  7  2  0  0  0
  7  8  1  0  0  0
  8  9  2  0  0  0
  9 10  1  0  0  0
 10 23  1  0  0  0
 23 24  1  0  0  0
 24 25  1  0  0  0
 25 26  1  0  0  0
 25 31  1  0  0  0
 26 27  1  0  0  0
 27 32  1  0  0  0
 27 28  1  0  0  0
 32 33  1  0  0  0
 32 34  1  0  0  0
 28 29  1  0  0  0
 29 30  1  0  0  0
 30 31  1  0  0  0
M  END
> <minimizedAffinity>
-6.02220

$$$$
