CHEMBL566010


 39 43  0  0  0  0  0  0  0  0999 V2000
  -17.3234    1.5185  -14.5848 C   0  0  0  0  0  0  0  0  0  0  0  0
  -16.5762    1.5162  -15.7622 C   0  0  0  0  0  0  0  0  0  0  0  0
  -15.4095    0.7593  -15.8534 C   0  0  0  0  0  0  0  0  0  0  0  0
  -14.9748    0.0014  -14.7670 C   0  0  0  0  0  0  0  0  0  0  0  0
  -15.7076    0.0339  -13.5793 C   0  0  0  0  0  0  0  0  0  0  0  0
  -15.3522   -0.7057  -12.5185 F   0  0  0  0  0  0  0  0  0  0  0  0
  -16.8545    0.8164  -13.4713 C   0  0  0  0  0  0  0  0  0  0  0  0
  -19.7819    1.7042  -14.9219 C   0  0  0  0  0  0  0  0  0  0  0  0
  -19.9559    0.6674  -15.5624 O   0  0  0  0  0  0  0  0  0  0  0  0
  -18.5626    2.1684  -14.4686 N   0  0  0  0  0  0  0  0  0  0  0  0
  -18.5958    2.9516  -13.8108 H   0  0  0  0  0  0  0  0  0  0  0  0
  -20.9798    2.5792  -14.6165 C   0  0  0  0  0  0  0  0  0  0  0  0
  -23.1366    2.5580  -13.6017 O   0  0  0  0  0  0  0  0  0  0  0  0
  -22.1653    1.9028  -13.9758 C   0  0  0  0  0  0  0  0  0  0  0  0
  -22.0382    0.5297  -13.8752 N   0  0  0  0  0  0  0  0  0  0  0  0
  -21.1261    0.1249  -14.0505 H   0  0  0  0  0  0  0  0  0  0  0  0
  -23.0248   -0.3482  -13.3745 C   0  0  0  0  0  0  0  0  0  0  0  0
  -24.1135   -0.7907  -14.1308 C   0  0  0  0  0  0  0  0  0  0  0  0
  -25.0875   -1.6148  -13.5653 C   0  0  0  0  0  0  0  0  0  0  0  0
  -24.9693   -2.0199  -12.2380 C   0  0  0  0  0  0  0  0  0  0  0  0
  -23.8695   -1.6143  -11.4874 C   0  0  0  0  0  0  0  0  0  0  0  0
  -22.8936   -0.7912  -12.0542 C   0  0  0  0  0  0  0  0  0  0  0  0
  -13.8913   -0.7978  -15.0277 O   0  0  0  0  0  0  0  0  0  0  0  0
  -12.9546   -1.0436  -14.0572 C   0  0  0  0  0  0  0  0  0  0  0  0
  -11.8811   -0.1947  -13.7880 C   0  0  0  0  0  0  0  0  0  0  0  0
  -10.9724   -0.5568  -12.8146 C   0  0  0  0  0  0  0  0  0  0  0  0
  -10.9860   -1.7171  -12.1384 N   0  0  0  0  0  0  0  0  0  0  0  0
  -12.0014   -2.5651  -12.4479 C   0  0  0  0  0  0  0  0  0  0  0  0
  -12.1550   -3.8607  -11.8965 C   0  0  0  0  0  0  0  0  0  0  0  0
  -13.3265   -4.4827  -12.2755 C   0  0  0  0  0  0  0  0  0  0  0  0
  -14.1447   -3.5567  -13.4630 S   0  0  0  0  0  0  0  0  0  0  0  0
  -13.0014   -2.2663  -13.3672 C   0  0  0  0  0  0  0  0  0  0  0  0
  -13.8690   -5.7615  -11.8316 C   0  0  0  0  0  0  0  0  0  0  0  0
  -14.4760   -5.8923  -10.7686 O   0  0  0  0  0  0  0  0  0  0  0  0
  -13.6668   -6.8544  -12.6766 N   0  0  0  0  0  0  0  0  0  0  0  0
  -14.2065   -8.1670  -12.3684 C   0  0  0  0  0  0  0  0  0  0  0  0
  -13.1194   -9.1217  -12.8369 C   0  0  0  0  0  0  0  0  0  0  0  0
  -12.5455   -8.4275  -14.0632 C   0  0  0  0  0  0  0  0  0  0  0  0
  -12.7030   -6.9429  -13.7638 C   0  0  0  0  0  0  0  0  0  0  0  0
 13 14  2  0  0  0
 14 12  1  0  0  0
 14 15  1  0  0  0
 12  8  1  0  0  0
  8  9  2  0  0  0
  8 10  1  0  0  0
 10  1  1  0  0  0
 10 11  1  0  0  0
  1  2  1  0  0  0
  1  7  2  0  0  0
  2  3  2  0  0  0
  3  4  1  0  0  0
  4 23  1  0  0  0
  4  5  2  0  0  0
 23 24  1  0  0  0
 24 25  1  0  0  0
 24 32  2  0  0  0
 25 26  2  0  0  0
 26 27  1  0  0  0
 27 28  2  0  0  0
 28 29  1  0  0  0
 28 32  1  0  0  0
 29 30  2  0  0  0
 30 33  1  0  0  0
 30 31  1  0  0  0
 33 34  2  0  0  0
 33 35  1  0  0  0
 35 36  1  0  0  0
 35 39  1  0  0  0
 36 37  1  0  0  0
 37 38  1  0  0  0
 38 39  1  0  0  0
 31 32  1  0  0  0
  5  6  1  0  0  0
  5  7  1  0  0  0
 15 17  1  0  0  0
 15 16  1  0  0  0
 17 18  1  0  0  0
 17 22  2  0  0  0
 18 19  2  0  0  0
 19 20  1  0  0  0
 20 21  2  0  0  0
 21 22  1  0  0  0
M  END
> <minimizedAffinity>
-9.66985

$$$$
