CHEMBL4104599


 42 46  0  0  0  0  0  0  0  0999 V2000
  -28.8202   -3.1094   -6.6406 N   0  0  0  0  0  0  0  0  0  0  0  0
  -28.2178   -3.2496   -5.4059 C   0  0  0  0  0  0  0  0  0  0  0  0
  -27.0192   -3.1245   -5.1834 O   0  0  0  0  0  0  0  0  0  0  0  0
  -29.8126   -2.9403   -6.6503 H   0  0  0  0  0  0  0  0  0  0  0  0
  -26.7033   -1.8541  -10.0684 C   0  0  0  0  0  0  0  0  0  0  0  0
  -27.1181   -3.1877   -9.9335 C   0  0  0  0  0  0  0  0  0  0  0  0
  -27.7541   -3.6431   -8.7736 C   0  0  0  0  0  0  0  0  0  0  0  0
  -28.1313   -2.7291   -7.7972 C   0  0  0  0  0  0  0  0  0  0  0  0
  -27.8657   -1.3751   -7.9700 C   0  0  0  0  0  0  0  0  0  0  0  0
  -27.1163   -0.9533   -9.0678 C   0  0  0  0  0  0  0  0  0  0  0  0
  -28.5717   -2.4057  -12.8569 N   0  0  0  0  0  0  0  0  0  0  0  0
  -27.4226   -1.8973  -13.3200 C   0  0  0  0  0  0  0  0  0  0  0  0
  -27.2557   -1.7405  -14.6309 N   0  0  0  0  0  0  0  0  0  0  0  0
  -26.0299   -1.2459  -14.7398 N   0  0  0  0  0  0  0  0  0  0  0  0
  -25.3751   -1.0700  -13.5479 C   0  0  0  0  0  0  0  0  0  0  0  0
  -24.0866   -0.5936  -13.2970 C   0  0  0  0  0  0  0  0  0  0  0  0
  -23.6949   -0.4958  -11.9689 C   0  0  0  0  0  0  0  0  0  0  0  0
  -24.5632   -0.8734  -10.9452 C   0  0  0  0  0  0  0  0  0  0  0  0
  -25.8646   -1.3877  -11.1921 C   0  0  0  0  0  0  0  0  0  0  0  0
  -26.2762   -1.4744  -12.5576 C   0  0  0  0  0  0  0  0  0  0  0  0
  -29.2115   -2.7571  -13.5552 H   0  0  0  0  0  0  0  0  0  0  0  0
  -28.5722   -2.9654  -12.0086 H   0  0  0  0  0  0  0  0  0  0  0  0
  -25.6625   -1.0697  -15.6669 H   0  0  0  0  0  0  0  0  0  0  0  0
  -29.1465   -3.5652   -4.2589 C   0  0  0  0  0  0  0  0  0  0  0  0
  -30.1620   -2.4747   -3.9027 C   0  0  0  0  0  0  0  0  0  0  0  0
  -29.0871   -2.8093   -2.9205 C   0  0  0  0  0  0  0  0  0  0  0  0
  -29.5682   -5.0106   -4.1647 C   0  0  0  0  0  0  0  0  0  0  0  0
  -30.6454   -5.2933   -3.6552 O   0  0  0  0  0  0  0  0  0  0  0  0
  -28.6865   -5.8959   -4.7466 N   0  0  0  0  0  0  0  0  0  0  0  0
  -27.8636   -5.5108   -5.1947 H   0  0  0  0  0  0  0  0  0  0  0  0
  -28.7617   -7.2989   -4.6456 C   0  0  0  0  0  0  0  0  0  0  0  0
  -28.4171   -7.9174   -3.4328 C   0  0  0  0  0  0  0  0  0  0  0  0
  -28.4780   -9.3065   -3.2907 C   0  0  0  0  0  0  0  0  0  0  0  0
  -28.9339  -10.0816   -4.3488 C   0  0  0  0  0  0  0  0  0  0  0  0
  -29.1149  -11.9515   -4.1410 Br  0  0  0  0  0  0  0  0  0  0  0  0
  -29.2725   -9.4836   -5.5606 C   0  0  0  0  0  0  0  0  0  0  0  0
  -29.1411   -8.0970   -5.7386 C   0  0  0  0  0  0  0  0  0  0  0  0
  -29.5924   -7.6756   -6.9559 O   0  0  0  0  0  0  0  0  0  0  0  0
  -30.9240   -7.2232   -7.1057 C   0  0  0  0  0  0  0  0  0  0  0  0
  -31.6170   -7.1516   -5.9483 F   0  0  0  0  0  0  0  0  0  0  0  0
  -30.9107   -5.9916   -7.6579 F   0  0  0  0  0  0  0  0  0  0  0  0
  -31.5844   -8.0558   -7.9406 F   0  0  0  0  0  0  0  0  0  0  0  0
 11 12  1  0  0  0
 11 21  1  0  0  0
 11 22  1  0  0  0
 12 13  2  0  0  0
 12 20  1  0  0  0
 13 14  1  0  0  0
 14 15  1  0  0  0
 14 23  1  0  0  0
 15 16  1  0  0  0
 15 20  2  0  0  0
 16 17  2  0  0  0
 17 18  1  0  0  0
 18 19  2  0  0  0
 19  5  1  0  0  0
 19 20  1  0  0  0
  5  6  1  0  0  0
  5 10  2  0  0  0
  6  7  2  0  0  0
  7  8  1  0  0  0
  8  1  1  0  0  0
  8  9  2  0  0  0
  1  2  1  0  0  0
  1  4  1  0  0  0
  2  3  2  0  0  0
  2 24  1  0  0  0
 24 27  1  0  0  0
 24 25  1  0  0  0
 24 26  1  0  0  0
 27 28  2  0  0  0
 27 29  1  0  0  0
 29 31  1  0  0  0
 29 30  1  0  0  0
 31 32  1  0  0  0
 31 37  2  0  0  0
 32 33  2  0  0  0
 33 34  1  0  0  0
 34 35  1  0  0  0
 34 36  2  0  0  0
 36 37  1  0  0  0
 37 38  1  0  0  0
 38 39  1  0  0  0
 39 40  1  0  0  0
 39 41  1  0  0  0
 39 42  1  0  0  0
 25 26  1  0  0  0
  9 10  1  0  0  0
M  END
> <minimizedAffinity>
-8.27222

$$$$
