CHEMBL3895469


 29 32  0  0  0  0  0  0  0  0999 V2000
  -17.7298    1.2236  -15.1582 C   0  0  0  0  0  0  0  0  0  0  0  0
  -17.7333    2.5806  -15.4923 C   0  0  0  0  0  0  0  0  0  0  0  0
  -18.9218    3.3034  -15.5504 C   0  0  0  0  0  0  0  0  0  0  0  0
  -20.1345    2.6787  -15.2361 C   0  0  0  0  0  0  0  0  0  0  0  0
  -20.1728    1.3220  -14.9139 C   0  0  0  0  0  0  0  0  0  0  0  0
  -18.9684    0.5803  -14.9340 C   0  0  0  0  0  0  0  0  0  0  0  0
  -15.8750    0.3232  -13.7549 C   0  0  0  0  0  0  0  0  0  0  0  0
  -16.3173    0.7251  -12.6781 O   0  0  0  0  0  0  0  0  0  0  0  0
  -16.5013    0.5173  -14.9944 N   0  0  0  0  0  0  0  0  0  0  0  0
  -16.1590   -0.0196  -15.7839 H   0  0  0  0  0  0  0  0  0  0  0  0
  -10.8500    0.2753  -13.8829 C   0  0  0  0  0  0  0  0  0  0  0  0
  -12.1512   -0.4704  -13.7570 C   0  0  0  0  0  0  0  0  0  0  0  0
  -12.1577   -1.8591  -13.5986 C   0  0  0  0  0  0  0  0  0  0  0  0
  -13.3729   -2.5426  -13.4777 C   0  0  0  0  0  0  0  0  0  0  0  0
  -14.5810   -1.8478  -13.5174 C   0  0  0  0  0  0  0  0  0  0  0  0
  -15.7181   -2.5494  -13.3856 F   0  0  0  0  0  0  0  0  0  0  0  0
  -14.6137   -0.4690  -13.6847 C   0  0  0  0  0  0  0  0  0  0  0  0
  -13.3778    0.2139  -13.7998 C   0  0  0  0  0  0  0  0  0  0  0  0
  -21.4389    0.7548  -14.4816 C   0  0  0  0  0  0  0  0  0  0  0  0
  -22.4611    0.2517  -14.0728 C   0  0  0  0  0  0  0  0  0  0  0  0
  -23.7287   -0.3748  -13.6899 C   0  0  0  0  0  0  0  0  0  0  0  0
  -24.6342   -0.9028  -14.7498 C   0  0  0  0  0  0  0  0  0  0  0  0
  -25.7734   -1.4802  -14.3677 C   0  0  0  0  0  0  0  0  0  0  0  0
  -26.0786   -1.5645  -12.9938 C   0  0  0  0  0  0  0  0  0  0  0  0
  -27.1181   -2.0762  -12.3760 N   0  0  0  0  0  0  0  0  0  0  0  0
  -26.8799   -1.8770  -11.0437 C   0  0  0  0  0  0  0  0  0  0  0  0
  -25.6749   -1.2326  -10.8543 C   0  0  0  0  0  0  0  0  0  0  0  0
  -25.1514   -1.0296  -12.1069 N   0  0  0  0  0  0  0  0  0  0  0  0
  -23.9448   -0.4184  -12.4147 N   0  0  0  0  0  0  0  0  0  0  0  0
 11 12  1  0  0  0
 12 13  1  0  0  0
 12 18  2  0  0  0
 13 14  2  0  0  0
 14 15  1  0  0  0
 15 16  1  0  0  0
 15 17  2  0  0  0
 17  7  1  0  0  0
 17 18  1  0  0  0
  7  8  2  0  0  0
  7  9  1  0  0  0
  9  1  1  0  0  0
  9 10  1  0  0  0
  1  2  1  0  0  0
  1  6  2  0  0  0
  2  3  2  0  0  0
  3  4  1  0  0  0
  4  5  2  0  0  0
  5 19  1  0  0  0
  5  6  1  0  0  0
 19 20  3  0  0  0
 20 21  1  0  0  0
 21 22  1  0  0  0
 21 29  2  0  0  0
 22 23  2  0  0  0
 23 24  1  0  0  0
 24 25  2  0  0  0
 24 28  1  0  0  0
 25 26  1  0  0  0
 26 27  2  0  0  0
 27 28  1  0  0  0
 28 29  1  0  0  0
M  END
> <minimizedAffinity>
-10.37649

$$$$
