CHEMBL3935851


 34 37  0  0  0  0  0  0  0  0999 V2000
  -28.1791   11.5672  -15.5861 C   0  0  0  0  0  0  0  0  0  0  0  0
  -26.8505   11.1658  -15.7318 C   0  0  0  0  0  0  0  0  0  0  0  0
  -25.8551   11.5510  -14.8177 C   0  0  0  0  0  0  0  0  0  0  0  0
  -24.4917   11.2628  -14.9905 C   0  0  0  0  0  0  0  0  0  0  0  0
  -23.5716   11.5948  -14.0732 N   0  0  0  0  0  0  0  0  0  0  0  0
  -24.0237   12.2599  -13.0034 C   0  0  0  0  0  0  0  0  0  0  0  0
  -25.2966   12.6060  -12.7555 N   0  0  0  0  0  0  0  0  0  0  0  0
  -26.2119   12.2483  -13.6647 C   0  0  0  0  0  0  0  0  0  0  0  0
  -27.5586   12.5660  -13.4813 C   0  0  0  0  0  0  0  0  0  0  0  0
  -28.5593   12.2421  -14.4222 C   0  0  0  0  0  0  0  0  0  0  0  0
  -29.0469    9.9293  -17.0174 C   0  0  0  0  0  0  0  0  0  0  0  0
  -29.0880   11.2873  -16.5650 O   0  0  0  0  0  0  0  0  0  0  0  0
  -24.0704   10.6812  -16.2088 N   0  0  0  0  0  0  0  0  0  0  0  0
  -24.8482   10.2316  -16.6865 H   0  0  0  0  0  0  0  0  0  0  0  0
  -23.0466   11.0923  -17.0839 C   0  0  0  0  0  0  0  0  0  0  0  0
  -21.7081   10.7666  -16.8540 C   0  0  0  0  0  0  0  0  0  0  0  0
  -20.7406   10.9813  -17.8394 C   0  0  0  0  0  0  0  0  0  0  0  0
  -21.1015   11.5362  -19.0729 C   0  0  0  0  0  0  0  0  0  0  0  0
  -19.7423   11.6738  -20.3925 Br  0  0  0  0  0  0  0  0  0  0  0  0
  -22.4250   11.9187  -19.3060 C   0  0  0  0  0  0  0  0  0  0  0  0
  -22.9331   12.6445  -20.7905 Cl  0  0  0  0  0  0  0  0  0  0  0  0
  -23.3822   11.6828  -18.3142 C   0  0  0  0  0  0  0  0  0  0  0  0
  -24.6717   11.9973  -18.5366 F   0  0  0  0  0  0  0  0  0  0  0  0
  -29.8091   12.6559  -14.0440 O   0  0  0  0  0  0  0  0  0  0  0  0
  -30.4243   12.0685  -12.8842 C   0  0  0  0  0  0  0  0  0  0  0  0
  -31.3383   10.9133  -13.3558 C   0  0  0  0  0  0  0  0  0  0  0  0
  -32.3287   11.3587  -14.4570 C   0  0  0  0  0  0  0  0  0  0  0  0
  -33.3638   12.2601  -13.9176 N   0  0  0  0  0  0  0  0  0  0  0  0
  -34.3060   12.6579  -14.9674 C   0  0  0  0  0  0  0  0  0  0  0  0
  -34.1128   11.5952  -12.8199 C   0  0  0  0  0  0  0  0  0  0  0  0
  -33.2145   10.9324  -11.7700 C   0  0  0  0  0  0  0  0  0  0  0  0
  -33.5527   10.8036  -10.5952 O   0  0  0  0  0  0  0  0  0  0  0  0
  -32.0572   10.3447  -12.2188 N   0  0  0  0  0  0  0  0  0  0  0  0
  -31.4917    9.9620  -11.4702 H   0  0  0  0  0  0  0  0  0  0  0  0
 11 12  1  0  0  0
 12  1  1  0  0  0
  1  2  1  0  0  0
  1 10  2  0  0  0
  2  3  2  0  0  0
  3  4  1  0  0  0
  3  8  1  0  0  0
  4 13  1  0  0  0
  4  5  2  0  0  0
 13 15  1  0  0  0
 13 14  1  0  0  0
 15 16  1  0  0  0
 15 22  2  0  0  0
 16 17  2  0  0  0
 17 18  1  0  0  0
 18 19  1  0  0  0
 18 20  2  0  0  0
 20 21  1  0  0  0
 20 22  1  0  0  0
 22 23  1  0  0  0
  5  6  1  0  0  0
  6  7  2  0  0  0
  7  8  1  0  0  0
  8  9  2  0  0  0
  9 10  1  0  0  0
 10 24  1  0  0  0
 24 25  1  0  0  0
 25 26  1  0  0  0
 26 27  1  0  0  0
 26 33  1  0  0  0
 27 28  1  0  0  0
 28 29  1  0  0  0
 28 30  1  0  0  0
 30 31  1  0  0  0
 31 32  2  0  0  0
 31 33  1  0  0  0
 33 34  1  0  0  0
M  END
> <minimizedAffinity>
-5.61341

$$$$
