CHEMBL2348989


 40 44  0  0  0  0  0  0  0  0999 V2000
  -15.2906    0.3264  -14.5625 C   0  0  0  0  0  0  0  0  0  0  0  0
  -14.1708    1.1693  -14.5491 C   0  0  0  0  0  0  0  0  0  0  0  0
  -14.2218    2.4507  -15.0973 C   0  0  0  0  0  0  0  0  0  0  0  0
  -15.3928    2.8981  -15.6883 C   0  0  0  0  0  0  0  0  0  0  0  0
  -16.4935    2.0498  -15.7780 C   0  0  0  0  0  0  0  0  0  0  0  0
  -16.4586    0.7643  -15.2088 C   0  0  0  0  0  0  0  0  0  0  0  0
  -15.8825   -0.3337  -11.7580 O   0  0  0  0  0  0  0  0  0  0  0  0
  -15.5431   -1.1724  -12.5881 C   0  0  0  0  0  0  0  0  0  0  0  0
  -15.2785   -0.9457  -13.9340 N   0  0  0  0  0  0  0  0  0  0  0  0
  -15.2171   -1.7496  -14.5452 H   0  0  0  0  0  0  0  0  0  0  0  0
  -15.4730   -2.5824  -12.1214 C   0  0  0  0  0  0  0  0  0  0  0  0
  -16.3117   -3.5214  -12.7383 C   0  0  0  0  0  0  0  0  0  0  0  0
  -16.3210   -4.8484  -12.3129 C   0  0  0  0  0  0  0  0  0  0  0  0
  -15.4883   -5.2460  -11.2673 C   0  0  0  0  0  0  0  0  0  0  0  0
  -14.6429   -4.3200  -10.6347 C   0  0  0  0  0  0  0  0  0  0  0  0
  -14.6512   -2.9772  -11.0610 C   0  0  0  0  0  0  0  0  0  0  0  0
  -13.7221   -4.7486   -9.5185 C   0  0  0  0  0  0  0  0  0  0  0  0
  -14.3501   -5.4299   -8.5214 F   0  0  0  0  0  0  0  0  0  0  0  0
  -12.7314   -5.5692   -9.9662 F   0  0  0  0  0  0  0  0  0  0  0  0
  -13.0967   -3.6973   -8.9236 F   0  0  0  0  0  0  0  0  0  0  0  0
  -17.7116    2.5149  -16.3288 O   0  0  0  0  0  0  0  0  0  0  0  0
  -18.9038    2.2599  -15.6509 C   0  0  0  0  0  0  0  0  0  0  0  0
  -19.4512    3.5446  -15.1523 C   0  0  0  0  0  0  0  0  0  0  0  0
  -20.6061    3.4783  -14.4729 C   0  0  0  0  0  0  0  0  0  0  0  0
  -21.2191    2.2203  -14.2710 C   0  0  0  0  0  0  0  0  0  0  0  0
  -22.3196    1.8786  -13.6391 N   0  0  0  0  0  0  0  0  0  0  0  0
  -22.4266    0.5236  -13.7833 C   0  0  0  0  0  0  0  0  0  0  0  0
  -21.3791    0.0287  -14.5263 C   0  0  0  0  0  0  0  0  0  0  0  0
  -20.5923    1.1132  -14.8148 N   0  0  0  0  0  0  0  0  0  0  0  0
  -19.4211    1.0816  -15.5073 N   0  0  0  0  0  0  0  0  0  0  0  0
  -23.4418   -0.2376  -13.2419 N   0  0  0  0  0  0  0  0  0  0  0  0
  -24.4464   -0.8244  -13.9890 C   0  0  0  0  0  0  0  0  0  0  0  0
  -24.5404   -0.8137  -15.2131 O   0  0  0  0  0  0  0  0  0  0  0  0
  -23.4487   -0.3258  -12.2363 H   0  0  0  0  0  0  0  0  0  0  0  0
  -25.5288   -1.5333  -13.1781 C   0  0  0  0  0  0  0  0  0  0  0  0
  -26.8681   -1.5941  -13.9166 C   0  0  0  0  0  0  0  0  0  0  0  0
  -27.9077   -2.3060  -13.0606 C   0  0  0  0  0  0  0  0  0  0  0  0
  -28.0254   -1.6677  -11.7887 O   0  0  0  0  0  0  0  0  0  0  0  0
  -26.8088   -1.7226  -11.0425 C   0  0  0  0  0  0  0  0  0  0  0  0
  -25.7085   -0.9587  -11.7719 C   0  0  0  0  0  0  0  0  0  0  0  0
  7  8  2  0  0  0
  8  9  1  0  0  0
  8 11  1  0  0  0
  9  1  1  0  0  0
  9 10  1  0  0  0
  1  2  1  0  0  0
  1  6  2  0  0  0
  2  3  2  0  0  0
  3  4  1  0  0  0
  4  5  2  0  0  0
  5 21  1  0  0  0
  5  6  1  0  0  0
 21 22  1  0  0  0
 22 23  1  0  0  0
 22 30  2  0  0  0
 23 24  2  0  0  0
 24 25  1  0  0  0
 25 26  2  0  0  0
 25 29  1  0  0  0
 26 27  1  0  0  0
 27 31  1  0  0  0
 27 28  2  0  0  0
 31 32  1  0  0  0
 31 34  1  0  0  0
 32 33  2  0  0  0
 32 35  1  0  0  0
 35 36  1  0  0  0
 35 40  1  0  0  0
 36 37  1  0  0  0
 37 38  1  0  0  0
 38 39  1  0  0  0
 39 40  1  0  0  0
 28 29  1  0  0  0
 29 30  1  0  0  0
 11 12  1  0  0  0
 11 16  2  0  0  0
 12 13  2  0  0  0
 13 14  1  0  0  0
 14 15  2  0  0  0
 15 17  1  0  0  0
 15 16  1  0  0  0
 17 18  1  0  0  0
 17 19  1  0  0  0
 17 20  1  0  0  0
M  END
> <minimizedAffinity>
-10.85835

$$$$
