CHEMBL526507


 43 48  0  0  0  0  0  0  0  0999 V2000
  -15.0570   -1.3125  -13.7415 C   0  0  0  0  0  0  0  0  0  0  0  0
  -14.6305   -2.5211  -14.1856 C   0  0  0  0  0  0  0  0  0  0  0  0
  -14.0376   -2.7363  -15.4315 N   0  0  0  0  0  0  0  0  0  0  0  0
  -14.8182   -3.7128  -13.3137 C   0  0  0  0  0  0  0  0  0  0  0  0
  -14.4189   -5.0033  -13.6952 C   0  0  0  0  0  0  0  0  0  0  0  0
  -14.7061   -6.1223  -12.8977 C   0  0  0  0  0  0  0  0  0  0  0  0
  -15.3526   -5.9496  -11.6703 C   0  0  0  0  0  0  0  0  0  0  0  0
  -15.7130   -4.6667  -11.2515 C   0  0  0  0  0  0  0  0  0  0  0  0
  -15.4512   -3.5652  -12.0720 C   0  0  0  0  0  0  0  0  0  0  0  0
  -15.8157   -2.2929  -11.6296 N   0  0  0  0  0  0  0  0  0  0  0  0
  -15.6109   -1.1559  -12.3566 C   0  0  0  0  0  0  0  0  0  0  0  0
  -15.8759   -0.0538  -11.8757 O   0  0  0  0  0  0  0  0  0  0  0  0
  -14.1715   -1.9211  -16.0462 H   0  0  0  0  0  0  0  0  0  0  0  0
  -14.3740   -3.5690  -15.9042 H   0  0  0  0  0  0  0  0  0  0  0  0
  -16.2198   -2.1632  -10.7117 H   0  0  0  0  0  0  0  0  0  0  0  0
  -14.6734    3.2827  -17.5273 C   0  0  0  0  0  0  0  0  0  0  0  0
  -15.8815    3.6280  -16.8906 C   0  0  0  0  0  0  0  0  0  0  0  0
  -16.4716    2.8524  -15.8854 C   0  0  0  0  0  0  0  0  0  0  0  0
  -15.7845    1.7017  -15.5211 C   0  0  0  0  0  0  0  0  0  0  0  0
  -16.0570    0.7161  -14.6133 N   0  0  0  0  0  0  0  0  0  0  0  0
  -15.0201   -0.1868  -14.6187 C   0  0  0  0  0  0  0  0  0  0  0  0
  -14.1021    0.1761  -15.5030 N   0  0  0  0  0  0  0  0  0  0  0  0
  -14.5761    1.3272  -16.0850 C   0  0  0  0  0  0  0  0  0  0  0  0
  -14.0171    2.1138  -17.1079 C   0  0  0  0  0  0  0  0  0  0  0  0
  -16.9022    0.6274  -14.0586 H   0  0  0  0  0  0  0  0  0  0  0  0
  -12.2919    7.2732  -20.6195 C   0  0  0  0  0  0  0  0  0  0  0  0
  -13.0578    6.0533  -20.3742 N   0  0  0  0  0  0  0  0  0  0  0  0
  -12.2150    5.0471  -19.6821 C   0  0  0  0  0  0  0  0  0  0  0  0
  -12.9916    3.7615  -19.3050 C   0  0  0  0  0  0  0  0  0  0  0  0
  -14.1474    4.1393  -18.4811 N   0  0  0  0  0  0  0  0  0  0  0  0
  -15.0497    5.0874  -19.1588 C   0  0  0  0  0  0  0  0  0  0  0  0
  -14.2513    6.3534  -19.5465 C   0  0  0  0  0  0  0  0  0  0  0  0
  -14.2844   -7.4575  -13.4054 C   0  0  0  0  0  0  0  0  0  0  0  0
  -14.5782   -8.4653  -12.7724 O   0  0  0  0  0  0  0  0  0  0  0  0
  -13.5337   -7.4803  -14.5592 N   0  0  0  0  0  0  0  0  0  0  0  0
  -13.1891   -6.6229  -14.9654 H   0  0  0  0  0  0  0  0  0  0  0  0
  -13.0027   -8.7203  -15.0878 C   0  0  0  0  0  0  0  0  0  0  0  0
  -13.2258   -8.8278  -16.5753 C   0  0  0  0  0  0  0  0  0  0  0  0
  -13.2175  -10.0796  -17.2099 C   0  0  0  0  0  0  0  0  0  0  0  0
  -13.4376  -10.1805  -18.5849 C   0  0  0  0  0  0  0  0  0  0  0  0
  -13.6759   -9.0333  -19.3394 C   0  0  0  0  0  0  0  0  0  0  0  0
  -13.6988   -7.7856  -18.7193 C   0  0  0  0  0  0  0  0  0  0  0  0
  -13.4753   -7.6826  -17.3447 C   0  0  0  0  0  0  0  0  0  0  0  0
 26 27  1  0  0  0
 27 28  1  0  0  0
 27 32  1  0  0  0
 28 29  1  0  0  0
 29 30  1  0  0  0
 30 16  1  0  0  0
 30 31  1  0  0  0
 16 17  1  0  0  0
 16 24  2  0  0  0
 17 18  2  0  0  0
 18 19  1  0  0  0
 19 20  1  0  0  0
 19 23  2  0  0  0
 20 21  1  0  0  0
 20 25  1  0  0  0
 21  1  1  0  0  0
 21 22  2  0  0  0
  1  2  2  0  0  0
  1 11  1  0  0  0
  2  3  1  0  0  0
  2  4  1  0  0  0
  3 13  1  0  0  0
  3 14  1  0  0  0
  4  5  1  0  0  0
  4  9  2  0  0  0
  5  6  2  0  0  0
  6 33  1  0  0  0
  6  7  1  0  0  0
 33 34  2  0  0  0
 33 35  1  0  0  0
 35 37  1  0  0  0
 35 36  1  0  0  0
 37 38  1  0  0  0
 38 39  1  0  0  0
 38 43  2  0  0  0
 39 40  2  0  0  0
 40 41  1  0  0  0
 41 42  2  0  0  0
 42 43  1  0  0  0
  7  8  2  0  0  0
  8  9  1  0  0  0
  9 10  1  0  0  0
 10 11  1  0  0  0
 10 15  1  0  0  0
 11 12  2  0  0  0
 22 23  1  0  0  0
 23 24  1  0  0  0
 31 32  1  0  0  0
M  END
> <minimizedAffinity>
-8.78762

$$$$
