CHEMBL3926026


 43 47  0  0  0  0  0  0  0  0999 V2000
  -14.9781    2.5887  -15.8719 C   0  0  0  0  0  0  0  0  0  0  0  0
  -14.7841    3.9727  -15.8708 C   0  0  0  0  0  0  0  0  0  0  0  0
  -13.6314    4.4929  -15.3187 C   0  0  0  0  0  0  0  0  0  0  0  0
  -12.6815    3.7762  -14.7003 N   0  0  0  0  0  0  0  0  0  0  0  0
  -12.9134    2.4401  -14.6112 C   0  0  0  0  0  0  0  0  0  0  0  0
  -12.0598    1.5213  -13.9433 C   0  0  0  0  0  0  0  0  0  0  0  0
  -12.5262    0.2245  -13.9811 C   0  0  0  0  0  0  0  0  0  0  0  0
  -13.9938    0.1246  -14.8608 S   0  0  0  0  0  0  0  0  0  0  0  0
  -14.0303    1.8181  -15.1725 C   0  0  0  0  0  0  0  0  0  0  0  0
  -11.8920   -0.9339  -13.3678 C   0  0  0  0  0  0  0  0  0  0  0  0
  -11.3257   -0.8797  -12.2744 O   0  0  0  0  0  0  0  0  0  0  0  0
  -11.9783   -2.1121  -14.0785 N   0  0  0  0  0  0  0  0  0  0  0  0
  -12.5293   -2.1187  -14.9289 H   0  0  0  0  0  0  0  0  0  0  0  0
  -11.4926   -3.3738  -13.5716 C   0  0  0  0  0  0  0  0  0  0  0  0
  -12.4695   -4.5178  -13.8339 C   0  0  0  0  0  0  0  0  0  0  0  0
  -13.7119   -4.0949  -14.6341 C   0  0  0  0  0  0  0  0  0  0  0  0
  -14.9605   -4.0544  -13.8468 N   0  0  0  0  0  0  0  0  0  0  0  0
  -15.6450   -5.3585  -13.8621 C   0  0  0  0  0  0  0  0  0  0  0  0
  -16.9334   -5.3397  -13.0418 C   0  0  0  0  0  0  0  0  0  0  0  0
  -16.6653   -4.9050  -11.6094 C   0  0  0  0  0  0  0  0  0  0  0  0
  -15.9289   -3.5721  -11.6008 C   0  0  0  0  0  0  0  0  0  0  0  0
  -14.6674   -3.6283  -12.4657 C   0  0  0  0  0  0  0  0  0  0  0  0
  -16.0702    1.9792  -16.4663 O   0  0  0  0  0  0  0  0  0  0  0  0
  -19.7942    2.1864  -14.5681 C   0  0  0  0  0  0  0  0  0  0  0  0
  -19.3385    3.2822  -15.3089 C   0  0  0  0  0  0  0  0  0  0  0  0
  -18.1193    3.2253  -15.9836 C   0  0  0  0  0  0  0  0  0  0  0  0
  -17.3088    2.0944  -15.8675 C   0  0  0  0  0  0  0  0  0  0  0  0
  -17.7691    0.9894  -15.1451 C   0  0  0  0  0  0  0  0  0  0  0  0
  -19.0010    1.0408  -14.4741 C   0  0  0  0  0  0  0  0  0  0  0  0
  -23.1104    1.2043  -13.4820 N   0  0  0  0  0  0  0  0  0  0  0  0
  -21.8354    1.0370  -13.9937 C   0  0  0  0  0  0  0  0  0  0  0  0
  -21.3573   -0.0242  -14.3615 O   0  0  0  0  0  0  0  0  0  0  0  0
  -21.0856    2.2133  -13.9796 N   0  0  0  0  0  0  0  0  0  0  0  0
  -23.3148    2.0847  -13.0357 H   0  0  0  0  0  0  0  0  0  0  0  0
  -21.1714    2.7446  -13.1254 H   0  0  0  0  0  0  0  0  0  0  0  0
  -26.0296   -1.4285  -10.4658 C   0  0  0  0  0  0  0  0  0  0  0  0
  -25.4944   -1.1517  -11.8416 C   0  0  0  0  0  0  0  0  0  0  0  0
  -25.8963   -1.9542  -12.9139 C   0  0  0  0  0  0  0  0  0  0  0  0
  -25.4312   -1.6836  -14.1938 C   0  0  0  0  0  0  0  0  0  0  0  0
  -24.5511   -0.6252  -14.4094 C   0  0  0  0  0  0  0  0  0  0  0  0
  -24.2688   -0.3529  -15.6894 F   0  0  0  0  0  0  0  0  0  0  0  0
  -24.0748    0.1637  -13.3494 C   0  0  0  0  0  0  0  0  0  0  0  0
  -24.5873   -0.0944  -12.0660 C   0  0  0  0  0  0  0  0  0  0  0  0
 36 37  1  0  0  0
 37 38  1  0  0  0
 37 43  2  0  0  0
 38 39  2  0  0  0
 39 40  1  0  0  0
 40 41  1  0  0  0
 40 42  2  0  0  0
 42 30  1  0  0  0
 42 43  1  0  0  0
 30 31  1  0  0  0
 30 34  1  0  0  0
 31 32  2  0  0  0
 31 33  1  0  0  0
 33 24  1  0  0  0
 33 35  1  0  0  0
 24 25  1  0  0  0
 24 29  2  0  0  0
 25 26  2  0  0  0
 26 27  1  0  0  0
 27 23  1  0  0  0
 27 28  2  0  0  0
 23  1  1  0  0  0
  1  2  1  0  0  0
  1  9  2  0  0  0
  2  3  2  0  0  0
  3  4  1  0  0  0
  4  5  2  0  0  0
  5  6  1  0  0  0
  5  9  1  0  0  0
  6  7  2  0  0  0
  7 10  1  0  0  0
  7  8  1  0  0  0
 10 11  2  0  0  0
 10 12  1  0  0  0
 12 14  1  0  0  0
 12 13  1  0  0  0
 14 15  1  0  0  0
 15 16  1  0  0  0
 16 17  1  0  0  0
 17 18  1  0  0  0
 17 22  1  0  0  0
 18 19  1  0  0  0
 19 20  1  0  0  0
 20 21  1  0  0  0
 21 22  1  0  0  0
  8  9  1  0  0  0
 28 29  1  0  0  0
M  END
> <minimizedAffinity>
-10.10878

$$$$
