CHEMBL2113183


 29 31  0  0  0  0  0  0  0  0999 V2000
  -29.2587   -8.8672   -8.3496 C   0  0  0  0  0  0  0  0  0  0  0  0
  -29.4923   -9.9387   -7.4508 C   0  0  0  0  0  0  0  0  0  0  0  0
  -29.3130   -9.8544   -6.0700 C   0  0  0  0  0  0  0  0  0  0  0  0
  -29.4909  -10.9348   -5.3012 N   0  0  0  0  0  0  0  0  0  0  0  0
  -29.2799  -10.7888   -3.9860 C   0  0  0  0  0  0  0  0  0  0  0  0
  -28.9467   -9.6551   -3.3637 N   0  0  0  0  0  0  0  0  0  0  0  0
  -28.7974   -8.5663   -4.1376 C   0  0  0  0  0  0  0  0  0  0  0  0
  -28.9370   -8.6196   -5.5421 C   0  0  0  0  0  0  0  0  0  0  0  0
  -28.6862   -7.5485   -6.4201 C   0  0  0  0  0  0  0  0  0  0  0  0
  -28.8366   -7.6431   -7.8168 C   0  0  0  0  0  0  0  0  0  0  0  0
  -28.5078   -7.3137   -3.5221 N   0  0  0  0  0  0  0  0  0  0  0  0
  -27.5392   -7.0511   -3.7109 H   0  0  0  0  0  0  0  0  0  0  0  0
  -29.3457   -6.2057   -3.5796 C   0  0  0  0  0  0  0  0  0  0  0  0
  -30.6597   -6.2206   -3.3476 C   0  0  0  0  0  0  0  0  0  0  0  0
  -31.4934   -5.0221   -3.3979 C   0  0  0  0  0  0  0  0  0  0  0  0
  -32.6856   -5.0610   -3.1489 O   0  0  0  0  0  0  0  0  0  0  0  0
  -30.8363   -3.7567   -3.7393 C   0  0  0  0  0  0  0  0  0  0  0  0
  -29.5247   -3.6504   -3.9657 C   0  0  0  0  0  0  0  0  0  0  0  0
  -28.6657   -4.8856   -3.8666 C   0  0  0  0  0  0  0  0  0  0  0  0
  -27.4425   -4.8730   -4.0088 O   0  0  0  0  0  0  0  0  0  0  0  0
  -29.0575   -2.3811   -4.2778 O   0  0  0  0  0  0  0  0  0  0  0  0
  -29.6302   -1.6790   -5.3693 C   0  0  0  0  0  0  0  0  0  0  0  0
  -28.4009   -6.4859   -8.3901 O   0  0  0  0  0  0  0  0  0  0  0  0
  -28.5862   -5.2135   -7.8036 C   0  0  0  0  0  0  0  0  0  0  0  0
  -29.4649   -9.2819   -9.6425 O   0  0  0  0  0  0  0  0  0  0  0  0
  -28.8405  -10.4760  -10.0658 C   0  0  0  0  0  0  0  0  0  0  0  0
  -27.7955  -10.2788  -11.1564 C   0  0  0  0  0  0  0  0  0  0  0  0
  -26.3874  -11.0758   -9.4107 C   0  0  0  0  0  0  0  0  0  0  0  0
  -26.5507  -10.1435  -10.4619 O   0  0  0  0  0  0  0  0  0  0  0  0
 28 29  1  0  0  0
 29 27  1  0  0  0
 27 26  1  0  0  0
 26 25  1  0  0  0
 25  1  1  0  0  0
  1  2  1  0  0  0
  1 10  2  0  0  0
  2  3  2  0  0  0
  3  4  1  0  0  0
  3  8  1  0  0  0
  4  5  2  0  0  0
  5  6  1  0  0  0
  6  7  2  0  0  0
  7 11  1  0  0  0
  7  8  1  0  0  0
 11 13  1  0  0  0
 11 12  1  0  0  0
 13 14  2  0  0  0
 13 19  1  0  0  0
 14 15  1  0  0  0
 15 16  2  0  0  0
 15 17  1  0  0  0
 17 18  2  0  0  0
 18 21  1  0  0  0
 18 19  1  0  0  0
 21 22  1  0  0  0
 19 20  2  0  0  0
  8  9  2  0  0  0
  9 10  1  0  0  0
 10 23  1  0  0  0
 23 24  1  0  0  0
M  END
> <minimizedAffinity>
-7.10896

$$$$
