CHEMBL379088


 44 49  0  0  0  0  0  0  0  0999 V2000
  -29.4759   -4.2971   -4.2528 C   0  0  0  0  0  0  0  0  0  0  0  0
  -30.5607   -3.4527   -4.3956 C   0  0  0  0  0  0  0  0  0  0  0  0
  -30.1608   -2.1075   -4.6927 C   0  0  0  0  0  0  0  0  0  0  0  0
  -28.7869   -1.9643   -4.7192 C   0  0  0  0  0  0  0  0  0  0  0  0
  -28.0045   -3.4185   -4.2894 S   0  0  0  0  0  0  0  0  0  0  0  0
  -29.3236  -10.8207   -7.2241 C   0  0  0  0  0  0  0  0  0  0  0  0
  -29.1226  -11.2773   -5.8991 C   0  0  0  0  0  0  0  0  0  0  0  0
  -29.1043  -10.3879   -4.8234 C   0  0  0  0  0  0  0  0  0  0  0  0
  -29.2481   -9.0495   -5.1146 C   0  0  0  0  0  0  0  0  0  0  0  0
  -29.3706   -8.5491   -6.4314 C   0  0  0  0  0  0  0  0  0  0  0  0
  -29.4296   -9.4379   -7.4867 C   0  0  0  0  0  0  0  0  0  0  0  0
  -29.4300   -7.0155   -6.5079 C   0  0  0  0  0  0  0  0  0  0  0  0
  -29.4218   -6.7500   -5.0432 C   0  0  0  0  0  0  0  0  0  0  0  0
  -29.3116   -7.9157   -4.2678 C   0  0  0  0  0  0  0  0  0  0  0  0
  -29.2994   -7.7066   -2.9622 N   0  0  0  0  0  0  0  0  0  0  0  0
  -29.3781   -6.3573   -2.9068 N   0  0  0  0  0  0  0  0  0  0  0  0
  -29.4532   -5.7213   -4.1374 C   0  0  0  0  0  0  0  0  0  0  0  0
  -29.3420   -5.9086   -1.9986 H   0  0  0  0  0  0  0  0  0  0  0  0
  -29.4880  -11.8202   -8.3530 C   0  0  0  0  0  0  0  0  0  0  0  0
  -26.7135   -9.0434  -11.0799 C   0  0  0  0  0  0  0  0  0  0  0  0
  -26.8342  -10.3771  -10.5019 N   0  0  0  0  0  0  0  0  0  0  0  0
  -26.8695  -10.3152   -9.0323 C   0  0  0  0  0  0  0  0  0  0  0  0
  -27.0188  -11.7273   -8.4234 C   0  0  0  0  0  0  0  0  0  0  0  0
  -28.2457  -12.4378   -8.8436 N   0  0  0  0  0  0  0  0  0  0  0  0
  -28.2480  -12.4637  -10.3287 C   0  0  0  0  0  0  0  0  0  0  0  0
  -28.0244  -11.0847  -11.0126 C   0  0  0  0  0  0  0  0  0  0  0  0
  -27.9553   -0.8130   -5.1878 C   0  0  0  0  0  0  0  0  0  0  0  0
  -28.2427   -0.2530   -6.5083 N   0  0  0  0  0  0  0  0  0  0  0  0
  -28.9418    1.0084   -6.6959 C   0  0  0  0  0  0  0  0  0  0  0  0
  -27.7232   -1.0084   -7.5684 C   0  0  0  0  0  0  0  0  0  0  0  0
  -27.1470   -2.0692   -7.3671 O   0  0  0  0  0  0  0  0  0  0  0  0
  -27.9038   -0.4370   -8.8109 N   0  0  0  0  0  0  0  0  0  0  0  0
  -28.1626    0.5343   -8.8227 H   0  0  0  0  0  0  0  0  0  0  0  0
  -27.5151   -0.9640  -10.0526 C   0  0  0  0  0  0  0  0  0  0  0  0
  -28.4133   -1.3475  -11.0447 C   0  0  0  0  0  0  0  0  0  0  0  0
  -27.9453   -1.9296  -12.2196 C   0  0  0  0  0  0  0  0  0  0  0  0
  -26.5773   -2.1141  -12.4069 C   0  0  0  0  0  0  0  0  0  0  0  0
  -25.6603   -1.6798  -11.4452 C   0  0  0  0  0  0  0  0  0  0  0  0
  -26.1360   -1.1145  -10.2662 C   0  0  0  0  0  0  0  0  0  0  0  0
  -24.3573   -1.9444  -11.7328 O   0  0  0  0  0  0  0  0  0  0  0  0
  -23.5807   -0.9979  -12.4546 C   0  0  0  0  0  0  0  0  0  0  0  0
  -23.4403   -1.2711  -13.7683 F   0  0  0  0  0  0  0  0  0  0  0  0
  -24.1407    0.2247  -12.3285 F   0  0  0  0  0  0  0  0  0  0  0  0
  -22.3450   -0.9534  -11.9075 F   0  0  0  0  0  0  0  0  0  0  0  0
 20 21  1  0  0  0
 21 22  1  0  0  0
 21 26  1  0  0  0
 22 23  1  0  0  0
 23 24  1  0  0  0
 24 19  1  0  0  0
 24 25  1  0  0  0
 19  6  1  0  0  0
  6  7  1  0  0  0
  6 11  2  0  0  0
  7  8  2  0  0  0
  8  9  1  0  0  0
  9 10  2  0  0  0
  9 14  1  0  0  0
 10 11  1  0  0  0
 10 12  1  0  0  0
 12 13  1  0  0  0
 13 14  1  0  0  0
 13 17  2  0  0  0
 14 15  2  0  0  0
 15 16  1  0  0  0
 16 17  1  0  0  0
 16 18  1  0  0  0
 17  1  1  0  0  0
  1  2  2  0  0  0
  1  5  1  0  0  0
  2  3  1  0  0  0
  3  4  2  0  0  0
  4 27  1  0  0  0
  4  5  1  0  0  0
 27 28  1  0  0  0
 28 29  1  0  0  0
 28 30  1  0  0  0
 30 31  2  0  0  0
 30 32  1  0  0  0
 32 34  1  0  0  0
 32 33  1  0  0  0
 34 35  1  0  0  0
 34 39  2  0  0  0
 35 36  2  0  0  0
 36 37  1  0  0  0
 37 38  2  0  0  0
 38 40  1  0  0  0
 38 39  1  0  0  0
 40 41  1  0  0  0
 41 42  1  0  0  0
 41 43  1  0  0  0
 41 44  1  0  0  0
 25 26  1  0  0  0
M  END
> <minimizedAffinity>
-9.05927

$$$$
