CHEMBL1290137


 28 30  0  0  0  0  0  0  0  0999 V2000
  -25.7166   -1.7548  -11.1727 C   0  0  0  0  0  0  0  0  0  0  0  0
  -26.7177   -1.7362  -12.1207 C   0  0  0  0  0  0  0  0  0  0  0  0
  -28.0125   -1.6016  -11.7753 N   0  0  0  0  0  0  0  0  0  0  0  0
  -28.3156   -1.4797  -10.4547 N   0  0  0  0  0  0  0  0  0  0  0  0
  -27.3319   -1.5416   -9.5335 C   0  0  0  0  0  0  0  0  0  0  0  0
  -26.0398   -1.6731   -9.8738 N   0  0  0  0  0  0  0  0  0  0  0  0
  -24.3589   -1.8020  -11.5709 N   0  0  0  0  0  0  0  0  0  0  0  0
  -23.7828   -2.2491  -10.8677 H   0  0  0  0  0  0  0  0  0  0  0  0
  -22.3350    1.0560  -13.9864 C   0  0  0  0  0  0  0  0  0  0  0  0
  -23.2429    1.4724  -13.0206 C   0  0  0  0  0  0  0  0  0  0  0  0
  -23.9002    0.5338  -12.2161 C   0  0  0  0  0  0  0  0  0  0  0  0
  -23.6507   -0.8393  -12.3279 C   0  0  0  0  0  0  0  0  0  0  0  0
  -22.7552   -1.2502  -13.3242 C   0  0  0  0  0  0  0  0  0  0  0  0
  -22.0987   -0.3113  -14.1377 C   0  0  0  0  0  0  0  0  0  0  0  0
  -21.6478    1.8786  -14.8397 O   0  0  0  0  0  0  0  0  0  0  0  0
  -19.2527    1.7802  -14.8748 C   0  0  0  0  0  0  0  0  0  0  0  0
  -20.4689    2.4849  -14.3063 C   0  0  0  0  0  0  0  0  0  0  0  0
  -27.6663   -1.4222   -8.1825 N   0  0  0  0  0  0  0  0  0  0  0  0
  -27.6553   -0.4630   -7.8702 H   0  0  0  0  0  0  0  0  0  0  0  0
  -28.3507   -2.3411   -7.3737 C   0  0  0  0  0  0  0  0  0  0  0  0
  -28.7437   -3.5762   -7.9017 C   0  0  0  0  0  0  0  0  0  0  0  0
  -29.5077   -4.4769   -7.1436 C   0  0  0  0  0  0  0  0  0  0  0  0
  -29.8851   -4.1574   -5.8400 C   0  0  0  0  0  0  0  0  0  0  0  0
  -29.4892   -2.9352   -5.3026 C   0  0  0  0  0  0  0  0  0  0  0  0
  -28.7436   -2.0366   -6.0639 C   0  0  0  0  0  0  0  0  0  0  0  0
  -30.6325   -4.9312   -4.9973 O   0  0  0  0  0  0  0  0  0  0  0  0
  -31.1818   -4.2885   -3.8508 C   0  0  0  0  0  0  0  0  0  0  0  0
  -32.0942   -5.2778   -3.1492 C   0  0  0  0  0  0  0  0  0  0  0  0
 16 17  1  0  0  0
 17 15  1  0  0  0
 15  9  1  0  0  0
  9 10  1  0  0  0
  9 14  2  0  0  0
 10 11  2  0  0  0
 11 12  1  0  0  0
 12  7  1  0  0  0
 12 13  2  0  0  0
  7  1  1  0  0  0
  7  8  1  0  0  0
  1  2  1  0  0  0
  1  6  2  0  0  0
  2  3  2  0  0  0
  3  4  1  0  0  0
  4  5  2  0  0  0
  5 18  1  0  0  0
  5  6  1  0  0  0
 18 20  1  0  0  0
 18 19  1  0  0  0
 20 21  1  0  0  0
 20 25  2  0  0  0
 21 22  2  0  0  0
 22 23  1  0  0  0
 23 26  1  0  0  0
 23 24  2  0  0  0
 26 27  1  0  0  0
 27 28  1  0  0  0
 24 25  1  0  0  0
 13 14  1  0  0  0
M  END
> <minimizedAffinity>
-8.38972

$$$$
