CHEMBL1271838


 23 25  0  0  0  0  0  0  0  0999 V2000
  -18.3139    2.1668  -14.9554 C   0  0  0  0  0  0  0  0  0  0  0  0
  -18.0982    1.6999  -13.8370 O   0  0  0  0  0  0  0  0  0  0  0  0
  -19.5801    2.2888  -15.5105 N   0  0  0  0  0  0  0  0  0  0  0  0
  -19.6692    2.5067  -16.4921 H   0  0  0  0  0  0  0  0  0  0  0  0
  -20.7798    1.9361  -14.8378 C   0  0  0  0  0  0  0  0  0  0  0  0
  -21.6838    2.8547  -14.3134 C   0  0  0  0  0  0  0  0  0  0  0  0
  -22.8012    2.5306  -13.6175 N   0  0  0  0  0  0  0  0  0  0  0  0
  -23.0503    1.2348  -13.4047 C   0  0  0  0  0  0  0  0  0  0  0  0
  -24.1541    0.8877  -12.6416 C   0  0  0  0  0  0  0  0  0  0  0  0
  -24.4623   -0.4451  -12.3675 C   0  0  0  0  0  0  0  0  0  0  0  0
  -23.6561   -1.4572  -12.8756 C   0  0  0  0  0  0  0  0  0  0  0  0
  -22.5431   -1.1333  -13.6532 C   0  0  0  0  0  0  0  0  0  0  0  0
  -22.2247    0.2119  -13.9181 C   0  0  0  0  0  0  0  0  0  0  0  0
  -21.0891    0.5871  -14.6639 C   0  0  0  0  0  0  0  0  0  0  0  0
  -13.9440    0.8608  -17.0672 C   0  0  0  0  0  0  0  0  0  0  0  0
  -14.9795    1.9128  -16.7828 C   0  0  0  0  0  0  0  0  0  0  0  0
  -14.8056    3.2250  -17.2306 C   0  0  0  0  0  0  0  0  0  0  0  0
  -15.7637    4.2002  -16.9498 C   0  0  0  0  0  0  0  0  0  0  0  0
  -16.9106    3.8807  -16.2137 C   0  0  0  0  0  0  0  0  0  0  0  0
  -17.1164    2.5725  -15.7607 C   0  0  0  0  0  0  0  0  0  0  0  0
  -16.1373    1.5953  -16.0554 C   0  0  0  0  0  0  0  0  0  0  0  0
  -16.2469    0.2841  -15.6549 O   0  0  0  0  0  0  0  0  0  0  0  0
  -17.0734    0.1922  -15.1293 H   0  0  0  0  0  0  0  0  0  0  0  0
 15 16  1  0  0  0
 16 17  1  0  0  0
 16 21  2  0  0  0
 17 18  2  0  0  0
 18 19  1  0  0  0
 19 20  2  0  0  0
 20  1  1  0  0  0
 20 21  1  0  0  0
  1  2  2  0  0  0
  1  3  1  0  0  0
  3  5  1  0  0  0
  3  4  1  0  0  0
  5  6  1  0  0  0
  5 14  2  0  0  0
  6  7  2  0  0  0
  7  8  1  0  0  0
  8  9  1  0  0  0
  8 13  2  0  0  0
  9 10  2  0  0  0
 10 11  1  0  0  0
 11 12  2  0  0  0
 12 13  1  0  0  0
 13 14  1  0  0  0
 21 22  1  0  0  0
 22 23  1  0  0  0
M  END
> <minimizedAffinity>
-8.58566

$$$$
