CHEMBL1278234


 30 33  0  0  0  0  0  0  0  0999 V2000
  -29.5158   -5.6936   -3.7998 C   0  0  0  0  0  0  0  0  0  0  0  0
  -29.4502   -5.8808   -5.2791 C   0  0  0  0  0  0  0  0  0  0  0  0
  -29.5280   -4.9040   -6.2696 C   0  0  0  0  0  0  0  0  0  0  0  0
  -29.4113   -5.5355   -7.4847 N   0  0  0  0  0  0  0  0  0  0  0  0
  -29.2501   -6.8763   -7.2876 C   0  0  0  0  0  0  0  0  0  0  0  0
  -29.2763   -7.1341   -5.9392 C   0  0  0  0  0  0  0  0  0  0  0  0
  -29.1300   -8.4714   -5.3924 C   0  0  0  0  0  0  0  0  0  0  0  0
  -29.2027   -8.6894   -4.1854 O   0  0  0  0  0  0  0  0  0  0  0  0
  -28.8978   -9.4784   -6.3332 N   0  0  0  0  0  0  0  0  0  0  0  0
  -28.9189   -9.2936   -7.7948 C   0  0  0  0  0  0  0  0  0  0  0  0
  -29.0684   -7.8688   -8.3617 C   0  0  0  0  0  0  0  0  0  0  0  0
  -29.4315   -5.0784   -8.3924 H   0  0  0  0  0  0  0  0  0  0  0  0
  -29.6865   -3.5014   -6.1559 C   0  0  0  0  0  0  0  0  0  0  0  0
  -28.8665   -2.5818   -5.6306 C   0  0  0  0  0  0  0  0  0  0  0  0
  -27.5074   -2.6807   -4.9856 C   0  0  0  0  0  0  0  0  0  0  0  0
  -26.8347   -3.6785   -4.7934 O   0  0  0  0  0  0  0  0  0  0  0  0
  -27.1716   -1.3776   -4.6448 N   0  0  0  0  0  0  0  0  0  0  0  0
  -28.1753   -0.4816   -5.0035 C   0  0  0  0  0  0  0  0  0  0  0  0
  -28.1868    0.8868   -4.8168 C   0  0  0  0  0  0  0  0  0  0  0  0
  -29.3141    1.5854   -5.2600 C   0  0  0  0  0  0  0  0  0  0  0  0
  -30.3796    0.9049   -5.8663 C   0  0  0  0  0  0  0  0  0  0  0  0
  -31.4493    1.5962   -6.2808 F   0  0  0  0  0  0  0  0  0  0  0  0
  -30.3557   -0.4727   -6.0492 C   0  0  0  0  0  0  0  0  0  0  0  0
  -29.2364   -1.1584   -5.6094 C   0  0  0  0  0  0  0  0  0  0  0  0
  -26.3051   -1.1377   -4.1901 H   0  0  0  0  0  0  0  0  0  0  0  0
  -28.7716  -10.8440   -5.8313 C   0  0  0  0  0  0  0  0  0  0  0  0
  -27.3473  -11.4080   -6.0154 C   0  0  0  0  0  0  0  0  0  0  0  0
  -26.2710  -10.4930   -5.5798 N   0  0  0  0  0  0  0  0  0  0  0  0
  -26.0123  -10.6162   -4.1413 C   0  0  0  0  0  0  0  0  0  0  0  0
  -25.0413  -10.7950   -6.3199 C   0  0  0  0  0  0  0  0  0  0  0  0
  1  2  1  0  0  0
  2  3  2  0  0  0
  2  6  1  0  0  0
  3 13  1  0  0  0
  3  4  1  0  0  0
 13 14  2  0  0  0
 14 15  1  0  0  0
 14 24  1  0  0  0
 15 16  2  0  0  0
 15 17  1  0  0  0
 17 18  1  0  0  0
 17 25  1  0  0  0
 18 19  1  0  0  0
 18 24  2  0  0  0
 19 20  2  0  0  0
 20 21  1  0  0  0
 21 22  1  0  0  0
 21 23  2  0  0  0
 23 24  1  0  0  0
  4  5  1  0  0  0
  4 12  1  0  0  0
  5  6  2  0  0  0
  5 11  1  0  0  0
  6  7  1  0  0  0
  7  8  2  0  0  0
  7  9  1  0  0  0
  9 26  1  0  0  0
  9 10  1  0  0  0
 26 27  1  0  0  0
 27 28  1  0  0  0
 28 29  1  0  0  0
 28 30  1  0  0  0
 10 11  1  0  0  0
M  END
> <minimizedAffinity>
-7.49294

$$$$
