CHEMBL3287220


 28 31  0  0  0  0  0  0  0  0999 V2000
  -28.4670   -7.6848   -4.6386 C   0  0  0  0  0  0  0  0  0  0  0  0
  -28.4264   -8.1562   -5.9215 N   0  0  0  0  0  0  0  0  0  0  0  0
  -28.8571   -7.4103   -6.9848 C   0  0  0  0  0  0  0  0  0  0  0  0
  -28.8093   -7.9910   -8.3590 C   0  0  0  0  0  0  0  0  0  0  0  0
  -29.3261   -6.1402   -6.7857 N   0  0  0  0  0  0  0  0  0  0  0  0
  -29.3609   -5.6613   -5.5163 C   0  0  0  0  0  0  0  0  0  0  0  0
  -29.7343   -4.4212   -5.0501 C   0  0  0  0  0  0  0  0  0  0  0  0
  -29.5376   -4.4713   -3.6712 C   0  0  0  0  0  0  0  0  0  0  0  0
  -29.0663   -5.6895   -3.3089 N   0  0  0  0  0  0  0  0  0  0  0  0
  -28.9576   -6.3984   -4.4463 C   0  0  0  0  0  0  0  0  0  0  0  0
  -28.8184   -5.9966   -2.3427 H   0  0  0  0  0  0  0  0  0  0  0  0
  -28.0087   -8.4923   -3.5619 N   0  0  0  0  0  0  0  0  0  0  0  0
  -28.4563   -8.3976   -2.6359 H   0  0  0  0  0  0  0  0  0  0  0  0
  -24.6254  -11.0446   -3.7795 C   0  0  0  0  0  0  0  0  0  0  0  0
  -24.4894   -9.6615   -3.9911 C   0  0  0  0  0  0  0  0  0  0  0  0
  -25.6026   -8.8317   -3.9518 C   0  0  0  0  0  0  0  0  0  0  0  0
  -26.8829   -9.3553   -3.6876 C   0  0  0  0  0  0  0  0  0  0  0  0
  -27.0211  -10.7352   -3.4792 C   0  0  0  0  0  0  0  0  0  0  0  0
  -25.9013  -11.5749   -3.5405 C   0  0  0  0  0  0  0  0  0  0  0  0
  -22.2358  -11.4668   -3.7619 C   0  0  0  0  0  0  0  0  0  0  0  0
  -23.5541  -11.8789   -3.7714 O   0  0  0  0  0  0  0  0  0  0  0  0
  -30.2173   -3.2458   -5.8457 C   0  0  0  0  0  0  0  0  0  0  0  0
  -29.3795   -2.0188   -5.5778 C   0  0  0  0  0  0  0  0  0  0  0  0
  -29.9907   -0.7606   -5.4228 C   0  0  0  0  0  0  0  0  0  0  0  0
  -29.2187    0.3744   -5.1580 C   0  0  0  0  0  0  0  0  0  0  0  0
  -27.8307    0.2660   -5.0457 C   0  0  0  0  0  0  0  0  0  0  0  0
  -27.2127   -0.9781   -5.1977 C   0  0  0  0  0  0  0  0  0  0  0  0
  -27.9817   -2.1175   -5.4612 C   0  0  0  0  0  0  0  0  0  0  0  0
 20 21  1  0  0  0
 21 14  1  0  0  0
 14 15  1  0  0  0
 14 19  2  0  0  0
 15 16  2  0  0  0
 16 17  1  0  0  0
 17 12  1  0  0  0
 17 18  2  0  0  0
 12  1  1  0  0  0
 12 13  1  0  0  0
  1  2  1  0  0  0
  1 10  2  0  0  0
  2  3  2  0  0  0
  3  4  1  0  0  0
  3  5  1  0  0  0
  5  6  2  0  0  0
  6  7  1  0  0  0
  6 10  1  0  0  0
  7 22  1  0  0  0
  7  8  2  0  0  0
 22 23  1  0  0  0
 23 24  1  0  0  0
 23 28  2  0  0  0
 24 25  2  0  0  0
 25 26  1  0  0  0
 26 27  2  0  0  0
 27 28  1  0  0  0
  8  9  1  0  0  0
  9 10  1  0  0  0
  9 11  1  0  0  0
 18 19  1  0  0  0
M  END
> <minimizedAffinity>
-8.62948

$$$$
