CHEMBL4453429


 38 41  0  0  0  0  0  0  0  0999 V2000
  -29.0010   -3.8489   -4.2489 C   0  0  0  0  0  0  0  0  0  0  0  0
  -28.6854   -5.2058   -4.1609 C   0  0  0  0  0  0  0  0  0  0  0  0
  -28.7786   -6.0544   -5.2840 C   0  0  0  0  0  0  0  0  0  0  0  0
  -28.3717   -7.3994   -5.2877 C   0  0  0  0  0  0  0  0  0  0  0  0
  -28.3630   -8.1378   -6.4111 N   0  0  0  0  0  0  0  0  0  0  0  0
  -28.8161   -7.5429   -7.5194 C   0  0  0  0  0  0  0  0  0  0  0  0
  -29.2720   -6.2895   -7.6157 N   0  0  0  0  0  0  0  0  0  0  0  0
  -29.2330   -5.5430   -6.5078 C   0  0  0  0  0  0  0  0  0  0  0  0
  -29.6328   -4.2206   -6.5508 C   0  0  0  0  0  0  0  0  0  0  0  0
  -29.5128   -3.3548   -5.4555 C   0  0  0  0  0  0  0  0  0  0  0  0
  -30.0427   -2.7018   -2.4499 C   0  0  0  0  0  0  0  0  0  0  0  0
  -28.8507   -3.0192   -3.1721 O   0  0  0  0  0  0  0  0  0  0  0  0
  -27.9439   -7.9854   -4.0776 N   0  0  0  0  0  0  0  0  0  0  0  0
  -28.6599   -7.9419   -3.3587 H   0  0  0  0  0  0  0  0  0  0  0  0
  -27.0168   -9.0253   -3.8831 C   0  0  0  0  0  0  0  0  0  0  0  0
  -25.6369   -8.7978   -3.9160 C   0  0  0  0  0  0  0  0  0  0  0  0
  -24.7411   -9.7850   -3.4945 C   0  0  0  0  0  0  0  0  0  0  0  0
  -25.2219  -11.0175   -3.0558 C   0  0  0  0  0  0  0  0  0  0  0  0
  -24.0169  -12.2903   -2.3495 Br  0  0  0  0  0  0  0  0  0  0  0  0
  -26.5836  -11.2965   -3.0892 C   0  0  0  0  0  0  0  0  0  0  0  0
  -27.4641  -10.2978   -3.4949 C   0  0  0  0  0  0  0  0  0  0  0  0
  -28.7827  -10.5527   -3.4802 F   0  0  0  0  0  0  0  0  0  0  0  0
  -29.9095   -2.0759   -5.7369 O   0  0  0  0  0  0  0  0  0  0  0  0
  -28.9297   -1.0447   -5.8446 C   0  0  0  0  0  0  0  0  0  0  0  0
  -27.7205   -1.4603   -6.6908 C   0  0  0  0  0  0  0  0  0  0  0  0
  -27.8681   -1.0797   -8.0841 N   0  0  0  0  0  0  0  0  0  0  0  0
  -27.6623   -1.9898   -9.0931 C   0  0  0  0  0  0  0  0  0  0  0  0
  -27.2889   -3.1424   -8.8853 O   0  0  0  0  0  0  0  0  0  0  0  0
  -28.1845   -0.1386   -8.2876 H   0  0  0  0  0  0  0  0  0  0  0  0
  -27.9248   -1.4811  -10.4884 C   0  0  0  0  0  0  0  0  0  0  0  0
  -26.7010   -1.4546  -11.2546 N   0  0  0  0  0  0  0  0  0  0  0  0
  -25.4204   -1.4093  -10.7889 C   0  0  0  0  0  0  0  0  0  0  0  0
  -24.5827   -1.3241  -11.7983 N   0  0  0  0  0  0  0  0  0  0  0  0
  -25.4247   -1.3269  -12.8855 C   0  0  0  0  0  0  0  0  0  0  0  0
  -26.7365   -1.4331  -12.6030 N   0  0  0  0  0  0  0  0  0  0  0  0
  -24.9548   -1.1522  -14.2527 N   0  0  0  0  0  0  0  0  0  0  0  0
  -25.7311   -1.4767  -15.1645 O   0  0  0  0  0  0  0  0  0  0  0  0
  -23.8086   -0.7036  -14.4195 O   0  0  0  0  0  0  0  0  0  0  0  0
 11 12  1  0  0  0
 12  1  1  0  0  0
  1  2  1  0  0  0
  1 10  2  0  0  0
  2  3  2  0  0  0
  3  4  1  0  0  0
  3  8  1  0  0  0
  4 13  1  0  0  0
  4  5  2  0  0  0
 13 15  1  0  0  0
 13 14  1  0  0  0
 15 16  1  0  0  0
 15 21  2  0  0  0
 16 17  2  0  0  0
 17 18  1  0  0  0
 18 19  1  0  0  0
 18 20  2  0  0  0
 20 21  1  0  0  0
 21 22  1  0  0  0
  5  6  1  0  0  0
  6  7  2  0  0  0
  7  8  1  0  0  0
  8  9  2  0  0  0
  9 10  1  0  0  0
 10 23  1  0  0  0
 23 24  1  0  0  0
 24 25  1  0  0  0
 25 26  1  0  0  0
 26 27  1  0  0  0
 26 29  1  0  0  0
 27 28  2  0  0  0
 27 30  1  0  0  0
 30 31  1  0  0  0
 31 32  1  0  0  0
 31 35  1  0  0  0
 32 33  2  0  0  0
 33 34  1  0  0  0
 34 36  1  0  0  0
 34 35  2  0  0  0
 36 37  2  0  0  0
 36 38  1  0  0  0
M  CHG 1  36   1
M  CHG 1  38  -1
M  END
> <minimizedAffinity>
-8.72859

$$$$
