CHEMBL241465


 33 36  0  0  0  0  0  0  0  0999 V2000
  -27.4763   -9.2936   -9.1874 C   0  0  0  0  0  0  0  0  0  0  0  0
  -28.3072   -8.8839   -8.0805 N   0  0  0  0  0  0  0  0  0  0  0  0
  -29.4272   -8.1082   -8.1929 C   0  0  0  0  0  0  0  0  0  0  0  0
  -30.0372   -7.9765   -7.0391 N   0  0  0  0  0  0  0  0  0  0  0  0
  -29.2585   -8.6523   -6.1514 C   0  0  0  0  0  0  0  0  0  0  0  0
  -28.1851   -9.2701   -6.7598 C   0  0  0  0  0  0  0  0  0  0  0  0
  -27.1642  -10.1351   -6.2172 C   0  0  0  0  0  0  0  0  0  0  0  0
  -27.3505  -11.3414   -6.0881 O   0  0  0  0  0  0  0  0  0  0  0  0
  -26.0210   -9.4599   -5.8003 N   0  0  0  0  0  0  0  0  0  0  0  0
  -26.1094   -8.4515   -5.7537 H   0  0  0  0  0  0  0  0  0  0  0  0
  -24.8337  -10.0324   -5.2930 C   0  0  0  0  0  0  0  0  0  0  0  0
  -24.6488  -10.2829   -3.9303 C   0  0  0  0  0  0  0  0  0  0  0  0
  -23.4492  -10.8140   -3.4565 C   0  0  0  0  0  0  0  0  0  0  0  0
  -22.4191  -11.1146   -4.3455 C   0  0  0  0  0  0  0  0  0  0  0  0
  -22.5904  -10.9135   -5.7242 C   0  0  0  0  0  0  0  0  0  0  0  0
  -23.8115  -10.3772   -6.1866 C   0  0  0  0  0  0  0  0  0  0  0  0
  -21.4822  -11.2588   -6.6859 C   0  0  0  0  0  0  0  0  0  0  0  0
  -21.9263  -11.6227   -7.9233 F   0  0  0  0  0  0  0  0  0  0  0  0
  -20.6301  -10.2139   -6.8936 F   0  0  0  0  0  0  0  0  0  0  0  0
  -20.7094  -12.2895   -6.2502 F   0  0  0  0  0  0  0  0  0  0  0  0
  -29.5549   -8.6941   -4.8431 N   0  0  0  0  0  0  0  0  0  0  0  0
  -30.2613   -9.3227   -4.4744 H   0  0  0  0  0  0  0  0  0  0  0  0
  -28.8815   -7.8085   -3.9052 C   0  0  0  0  0  0  0  0  0  0  0  0
  -29.8380   -6.7131   -3.4264 C   0  0  0  0  0  0  0  0  0  0  0  0
  -29.6143   -5.3975   -4.1321 C   0  0  0  0  0  0  0  0  0  0  0  0
  -30.6394   -4.8336   -4.9255 C   0  0  0  0  0  0  0  0  0  0  0  0
  -30.4476   -3.6211   -5.5947 C   0  0  0  0  0  0  0  0  0  0  0  0
  -29.2291   -2.9950   -5.4527 C   0  0  0  0  0  0  0  0  0  0  0  0
  -28.2295   -3.5283   -4.6748 C   0  0  0  0  0  0  0  0  0  0  0  0
  -28.3909   -4.7200   -3.9982 C   0  0  0  0  0  0  0  0  0  0  0  0
  -27.1083   -2.7579   -4.6713 O   0  0  0  0  0  0  0  0  0  0  0  0
  -27.5054   -1.6985   -5.5672 C   0  0  0  0  0  0  0  0  0  0  0  0
  -28.8638   -1.8226   -6.0366 O   0  0  0  0  0  0  0  0  0  0  0  0
  1  2  1  0  0  0
  2  3  1  0  0  0
  2  6  1  0  0  0
  3  4  2  0  0  0
  4  5  1  0  0  0
  5 21  1  0  0  0
  5  6  2  0  0  0
 21 23  1  0  0  0
 21 22  1  0  0  0
 23 24  1  0  0  0
 24 25  1  0  0  0
 25 26  1  0  0  0
 25 30  2  0  0  0
 26 27  2  0  0  0
 27 28  1  0  0  0
 28 29  2  0  0  0
 28 33  1  0  0  0
 29 30  1  0  0  0
 29 31  1  0  0  0
 31 32  1  0  0  0
 32 33  1  0  0  0
  6  7  1  0  0  0
  7  8  2  0  0  0
  7  9  1  0  0  0
  9 11  1  0  0  0
  9 10  1  0  0  0
 11 12  1  0  0  0
 11 16  2  0  0  0
 12 13  2  0  0  0
 13 14  1  0  0  0
 14 15  2  0  0  0
 15 17  1  0  0  0
 15 16  1  0  0  0
 17 18  1  0  0  0
 17 19  1  0  0  0
 17 20  1  0  0  0
M  END
> <minimizedAffinity>
-8.67829

$$$$
