CHEMBL4243470


 32 35  0  0  0  0  0  0  0  0999 V2000
  -28.3569   -2.3627   -8.0736 C   0  0  0  0  0  0  0  0  0  0  0  0
  -27.9316   -2.2379   -6.7510 C   0  0  0  0  0  0  0  0  0  0  0  0
  -28.1561   -3.2690   -5.8335 C   0  0  0  0  0  0  0  0  0  0  0  0
  -28.8354   -4.4448   -6.1991 C   0  0  0  0  0  0  0  0  0  0  0  0
  -29.3727   -4.4798   -7.4968 C   0  0  0  0  0  0  0  0  0  0  0  0
  -29.1164   -3.4690   -8.4368 C   0  0  0  0  0  0  0  0  0  0  0  0
  -28.9603   -5.5591   -5.2466 C   0  0  0  0  0  0  0  0  0  0  0  0
  -28.1029   -6.6886   -5.2618 C   0  0  0  0  0  0  0  0  0  0  0  0
  -28.2295   -7.7869   -4.3706 C   0  0  0  0  0  0  0  0  0  0  0  0
  -27.2752   -8.9452   -4.4928 C   0  0  0  0  0  0  0  0  0  0  0  0
  -29.1583   -7.9051   -3.3851 N   0  0  0  0  0  0  0  0  0  0  0  0
  -30.0120   -6.8503   -3.3278 C   0  0  0  0  0  0  0  0  0  0  0  0
  -31.0196   -6.7121   -2.4642 N   0  0  0  0  0  0  0  0  0  0  0  0
  -31.6236   -5.5154   -2.7972 O   0  0  0  0  0  0  0  0  0  0  0  0
  -30.9966   -4.9458   -3.8674 C   0  0  0  0  0  0  0  0  0  0  0  0
  -31.5580   -3.8030   -4.3099 N   0  0  0  0  0  0  0  0  0  0  0  0
  -29.9231   -5.7306   -4.2299 C   0  0  0  0  0  0  0  0  0  0  0  0
  -32.4614   -3.5439   -3.9233 H   0  0  0  0  0  0  0  0  0  0  0  0
  -31.4689   -3.5598   -5.2931 H   0  0  0  0  0  0  0  0  0  0  0  0
  -26.7674   -0.7743  -10.9185 N   0  0  0  0  0  0  0  0  0  0  0  0
  -27.0352   -1.7913  -10.0162 C   0  0  0  0  0  0  0  0  0  0  0  0
  -26.5491   -2.9158  -10.0538 O   0  0  0  0  0  0  0  0  0  0  0  0
  -27.9738   -1.4170   -9.0579 N   0  0  0  0  0  0  0  0  0  0  0  0
  -27.1071    0.1484  -10.6830 H   0  0  0  0  0  0  0  0  0  0  0  0
  -28.7045   -0.8142   -9.4068 H   0  0  0  0  0  0  0  0  0  0  0  0
  -22.4227    0.2289  -13.1102 C   0  0  0  0  0  0  0  0  0  0  0  0
  -23.7909   -0.3870  -13.1408 C   0  0  0  0  0  0  0  0  0  0  0  0
  -24.2131   -1.0595  -14.2913 C   0  0  0  0  0  0  0  0  0  0  0  0
  -25.4777   -1.6359  -14.3366 C   0  0  0  0  0  0  0  0  0  0  0  0
  -26.3287   -1.5419  -13.2306 C   0  0  0  0  0  0  0  0  0  0  0  0
  -25.9302   -0.8836  -12.0624 C   0  0  0  0  0  0  0  0  0  0  0  0
  -24.6579   -0.3063  -12.0243 C   0  0  0  0  0  0  0  0  0  0  0  0
 26 27  1  0  0  0
 27 28  1  0  0  0
 27 32  2  0  0  0
 28 29  2  0  0  0
 29 30  1  0  0  0
 30 31  2  0  0  0
 31 20  1  0  0  0
 31 32  1  0  0  0
 20 21  1  0  0  0
 20 24  1  0  0  0
 21 22  2  0  0  0
 21 23  1  0  0  0
 23  1  1  0  0  0
 23 25  1  0  0  0
  1  2  1  0  0  0
  1  6  2  0  0  0
  2  3  2  0  0  0
  3  4  1  0  0  0
  4  7  1  0  0  0
  4  5  2  0  0  0
  7  8  2  0  0  0
  7 17  1  0  0  0
  8  9  1  0  0  0
  9 10  1  0  0  0
  9 11  2  0  0  0
 11 12  1  0  0  0
 12 13  2  0  0  0
 12 17  1  0  0  0
 13 14  1  0  0  0
 14 15  1  0  0  0
 15 16  1  0  0  0
 15 17  2  0  0  0
 16 18  1  0  0  0
 16 19  1  0  0  0
  5  6  1  0  0  0
M  END
> <minimizedAffinity>
-9.37152

$$$$
