CHEMBL390175


 37 42  0  0  0  0  0  0  0  0999 V2000
  -16.0195   -0.0608  -13.5208 C   0  0  0  0  0  0  0  0  0  0  0  0
  -15.6190   -0.2823  -12.2879 N   0  0  0  0  0  0  0  0  0  0  0  0
  -15.5990   -1.6433  -12.1866 C   0  0  0  0  0  0  0  0  0  0  0  0
  -15.2981   -2.4733  -11.1026 C   0  0  0  0  0  0  0  0  0  0  0  0
  -15.3786   -3.8589  -11.2934 C   0  0  0  0  0  0  0  0  0  0  0  0
  -15.6746   -4.3963  -12.5598 C   0  0  0  0  0  0  0  0  0  0  0  0
  -16.0050   -3.5730  -13.6466 C   0  0  0  0  0  0  0  0  0  0  0  0
  -15.9595   -2.2085  -13.3971 C   0  0  0  0  0  0  0  0  0  0  0  0
  -16.2496   -1.1914  -14.2594 O   0  0  0  0  0  0  0  0  0  0  0  0
  -16.2641    1.0979  -14.1506 N   0  0  0  0  0  0  0  0  0  0  0  0
  -15.6786    1.8780  -13.8749 H   0  0  0  0  0  0  0  0  0  0  0  0
  -19.9745    1.3333  -14.7441 C   0  0  0  0  0  0  0  0  0  0  0  0
  -18.7088    0.7848  -14.4417 C   0  0  0  0  0  0  0  0  0  0  0  0
  -17.5235    1.5223  -14.6147 C   0  0  0  0  0  0  0  0  0  0  0  0
  -17.5970    2.7678  -15.2421 C   0  0  0  0  0  0  0  0  0  0  0  0
  -18.8294    3.3278  -15.5541 C   0  0  0  0  0  0  0  0  0  0  0  0
  -20.0081    2.6505  -15.2355 C   0  0  0  0  0  0  0  0  0  0  0  0
  -21.4545    3.5765  -15.3898 Cl  0  0  0  0  0  0  0  0  0  0  0  0
  -21.2218    0.4874  -14.5149 C   0  0  0  0  0  0  0  0  0  0  0  0
  -25.3001   -1.9255  -13.8487 C   0  0  0  0  0  0  0  0  0  0  0  0
  -24.4951   -0.8636  -13.2415 N   0  0  0  0  0  0  0  0  0  0  0  0
  -23.1600   -1.3852  -12.9072 C   0  0  0  0  0  0  0  0  0  0  0  0
  -22.2049   -0.2934  -12.3786 C   0  0  0  0  0  0  0  0  0  0  0  0
  -22.0005    0.8387  -13.3070 N   0  0  0  0  0  0  0  0  0  0  0  0
  -23.3484    1.3560  -13.6598 C   0  0  0  0  0  0  0  0  0  0  0  0
  -24.3663    0.2897  -14.1550 C   0  0  0  0  0  0  0  0  0  0  0  0
  -15.1027   -4.6265  -10.1784 O   0  0  0  0  0  0  0  0  0  0  0  0
  -13.7985   -4.7273   -9.7276 C   0  0  0  0  0  0  0  0  0  0  0  0
  -13.2407   -3.8054   -8.8453 C   0  0  0  0  0  0  0  0  0  0  0  0
  -11.9643   -4.0403   -8.3862 C   0  0  0  0  0  0  0  0  0  0  0  0
  -11.2050   -5.0814   -8.7798 N   0  0  0  0  0  0  0  0  0  0  0  0
  -11.7042   -5.9171   -9.7068 C   0  0  0  0  0  0  0  0  0  0  0  0
  -10.9062   -6.9628  -10.1450 C   0  0  0  0  0  0  0  0  0  0  0  0
  -11.3348   -7.8518  -11.1337 C   0  0  0  0  0  0  0  0  0  0  0  0
  -12.5991   -7.7088  -11.6879 C   0  0  0  0  0  0  0  0  0  0  0  0
  -13.4352   -6.6861  -11.2380 C   0  0  0  0  0  0  0  0  0  0  0  0
  -13.0034   -5.7824  -10.2360 C   0  0  0  0  0  0  0  0  0  0  0  0
 20 21  1  0  0  0
 21 22  1  0  0  0
 21 26  1  0  0  0
 22 23  1  0  0  0
 23 24  1  0  0  0
 24 19  1  0  0  0
 24 25  1  0  0  0
 19 12  1  0  0  0
 12 13  1  0  0  0
 12 17  2  0  0  0
 13 14  2  0  0  0
 14 10  1  0  0  0
 14 15  1  0  0  0
 10  1  1  0  0  0
 10 11  1  0  0  0
  1  2  2  0  0  0
  1  9  1  0  0  0
  2  3  1  0  0  0
  3  4  1  0  0  0
  3  8  2  0  0  0
  4  5  2  0  0  0
  5 27  1  0  0  0
  5  6  1  0  0  0
 27 28  1  0  0  0
 28 29  1  0  0  0
 28 37  2  0  0  0
 29 30  2  0  0  0
 30 31  1  0  0  0
 31 32  2  0  0  0
 32 33  1  0  0  0
 32 37  1  0  0  0
 33 34  2  0  0  0
 34 35  1  0  0  0
 35 36  2  0  0  0
 36 37  1  0  0  0
  6  7  2  0  0  0
  7  8  1  0  0  0
  8  9  1  0  0  0
 15 16  2  0  0  0
 16 17  1  0  0  0
 17 18  1  0  0  0
 25 26  1  0  0  0
M  END
> <minimizedAffinity>
-9.37790

$$$$
