CHEMBL410093


 32 36  0  0  0  0  0  0  0  0999 V2000
  -14.7219   -0.8573  -13.6152 C   0  0  0  0  0  0  0  0  0  0  0  0
  -13.5678   -0.4720  -14.3101 C   0  0  0  0  0  0  0  0  0  0  0  0
  -12.4702   -1.3238  -14.3629 C   0  0  0  0  0  0  0  0  0  0  0  0
  -12.5191   -2.5631  -13.7221 C   0  0  0  0  0  0  0  0  0  0  0  0
  -13.6588   -2.9712  -13.0102 C   0  0  0  0  0  0  0  0  0  0  0  0
  -13.6863   -4.2304  -12.3766 C   0  0  0  0  0  0  0  0  0  0  0  0
  -14.8092   -4.6581  -11.6669 C   0  0  0  0  0  0  0  0  0  0  0  0
  -15.8946   -3.7963  -11.5381 C   0  0  0  0  0  0  0  0  0  0  0  0
  -15.8957   -2.5629  -12.1897 C   0  0  0  0  0  0  0  0  0  0  0  0
  -14.7849   -2.1104  -12.9362 C   0  0  0  0  0  0  0  0  0  0  0  0
  -16.1412    0.6450  -12.5111 O   0  0  0  0  0  0  0  0  0  0  0  0
  -15.8636    0.1095  -13.5768 C   0  0  0  0  0  0  0  0  0  0  0  0
  -16.5253    0.2889  -14.7828 N   0  0  0  0  0  0  0  0  0  0  0  0
  -16.2361   -0.2934  -15.5582 H   0  0  0  0  0  0  0  0  0  0  0  0
  -17.6862    1.0688  -14.9880 C   0  0  0  0  0  0  0  0  0  0  0  0
  -17.6718    2.4629  -15.0896 C   0  0  0  0  0  0  0  0  0  0  0  0
  -18.8647    3.1854  -15.1898 C   0  0  0  0  0  0  0  0  0  0  0  0
  -20.0815    2.5129  -15.2044 C   0  0  0  0  0  0  0  0  0  0  0  0
  -21.5499    3.4053  -15.2685 Cl  0  0  0  0  0  0  0  0  0  0  0  0
  -20.1128    1.1219  -15.1556 C   0  0  0  0  0  0  0  0  0  0  0  0
  -18.9168    0.4007  -15.0571 C   0  0  0  0  0  0  0  0  0  0  0  0
  -14.7429   -5.9060  -11.0825 O   0  0  0  0  0  0  0  0  0  0  0  0
  -14.0857   -6.9131  -11.7843 C   0  0  0  0  0  0  0  0  0  0  0  0
  -14.7114   -7.5342  -12.8170 N   0  0  0  0  0  0  0  0  0  0  0  0
  -14.0802   -8.5630  -13.4082 C   0  0  0  0  0  0  0  0  0  0  0  0
  -12.8645   -9.0600  -13.1267 N   0  0  0  0  0  0  0  0  0  0  0  0
  -12.2659   -8.3683  -12.1463 C   0  0  0  0  0  0  0  0  0  0  0  0
  -11.0180   -8.6360  -11.6562 N   0  0  0  0  0  0  0  0  0  0  0  0
  -10.6998   -7.7253  -10.6803 C   0  0  0  0  0  0  0  0  0  0  0  0
  -11.7808   -6.8803  -10.5239 C   0  0  0  0  0  0  0  0  0  0  0  0
  -12.7846   -7.2892  -11.4448 C   0  0  0  0  0  0  0  0  0  0  0  0
  -10.4387   -9.3953  -11.9831 H   0  0  0  0  0  0  0  0  0  0  0  0
 11 12  2  0  0  0
 12 13  1  0  0  0
 12  1  1  0  0  0
 13 15  1  0  0  0
 13 14  1  0  0  0
 15 16  1  0  0  0
 15 21  2  0  0  0
 16 17  2  0  0  0
 17 18  1  0  0  0
 18 19  1  0  0  0
 18 20  2  0  0  0
 20 21  1  0  0  0
  1  2  1  0  0  0
  1 10  2  0  0  0
  2  3  2  0  0  0
  3  4  1  0  0  0
  4  5  2  0  0  0
  5  6  1  0  0  0
  5 10  1  0  0  0
  6  7  2  0  0  0
  7 22  1  0  0  0
  7  8  1  0  0  0
 22 23  1  0  0  0
 23 24  1  0  0  0
 23 31  2  0  0  0
 24 25  2  0  0  0
 25 26  1  0  0  0
 26 27  2  0  0  0
 27 28  1  0  0  0
 27 31  1  0  0  0
 28 29  1  0  0  0
 28 32  1  0  0  0
 29 30  2  0  0  0
 30 31  1  0  0  0
  8  9  2  0  0  0
  9 10  1  0  0  0
M  END
> <minimizedAffinity>
-9.20910

$$$$
