CHEMBL273064


 32 36  0  0  0  0  0  0  0  0999 V2000
  -14.3748   -0.4351  -14.4694 C   0  0  0  0  0  0  0  0  0  0  0  0
  -13.4148   -0.0603  -15.4221 C   0  0  0  0  0  0  0  0  0  0  0  0
  -12.2990   -0.8622  -15.6340 C   0  0  0  0  0  0  0  0  0  0  0  0
  -12.1240   -2.0245  -14.8854 C   0  0  0  0  0  0  0  0  0  0  0  0
  -13.0646   -2.4210  -13.9172 C   0  0  0  0  0  0  0  0  0  0  0  0
  -12.8565   -3.5950  -13.1635 C   0  0  0  0  0  0  0  0  0  0  0  0
  -13.7714   -4.0047  -12.1926 C   0  0  0  0  0  0  0  0  0  0  0  0
  -14.9412   -3.2722  -12.0135 C   0  0  0  0  0  0  0  0  0  0  0  0
  -15.1480   -2.0932  -12.7369 C   0  0  0  0  0  0  0  0  0  0  0  0
  -14.2189   -1.6270  -13.6991 C   0  0  0  0  0  0  0  0  0  0  0  0
  -15.6163    1.0860  -13.1964 O   0  0  0  0  0  0  0  0  0  0  0  0
  -15.5342    0.4809  -14.2589 C   0  0  0  0  0  0  0  0  0  0  0  0
  -16.4378    0.5385  -15.3093 N   0  0  0  0  0  0  0  0  0  0  0  0
  -16.2865   -0.0957  -16.0841 H   0  0  0  0  0  0  0  0  0  0  0  0
  -17.6606    1.2475  -15.3178 C   0  0  0  0  0  0  0  0  0  0  0  0
  -17.7517    2.6250  -15.5347 C   0  0  0  0  0  0  0  0  0  0  0  0
  -18.9766    3.2885  -15.4133 C   0  0  0  0  0  0  0  0  0  0  0  0
  -20.1224    2.5713  -15.0886 C   0  0  0  0  0  0  0  0  0  0  0  0
  -21.6155    3.3967  -14.8737 Cl  0  0  0  0  0  0  0  0  0  0  0  0
  -20.0601    1.1899  -14.9253 C   0  0  0  0  0  0  0  0  0  0  0  0
  -18.8333    0.5275  -15.0511 C   0  0  0  0  0  0  0  0  0  0  0  0
  -13.4680   -5.1570  -11.4907 O   0  0  0  0  0  0  0  0  0  0  0  0
  -13.7580   -6.3834  -12.0661 C   0  0  0  0  0  0  0  0  0  0  0  0
  -14.9493   -6.5986  -12.7583 C   0  0  0  0  0  0  0  0  0  0  0  0
  -15.1327   -7.8175  -13.3704 C   0  0  0  0  0  0  0  0  0  0  0  0
  -14.2497   -8.8333  -13.2986 N   0  0  0  0  0  0  0  0  0  0  0  0
  -13.1378   -8.6566  -12.5660 C   0  0  0  0  0  0  0  0  0  0  0  0
  -12.2524   -9.7211  -12.4610 C   0  0  0  0  0  0  0  0  0  0  0  0
  -11.0851   -9.6384  -11.7003 C   0  0  0  0  0  0  0  0  0  0  0  0
  -10.7904   -8.4610  -11.0246 C   0  0  0  0  0  0  0  0  0  0  0  0
  -11.6534   -7.3689  -11.1291 C   0  0  0  0  0  0  0  0  0  0  0  0
  -12.8360   -7.4467  -11.9037 C   0  0  0  0  0  0  0  0  0  0  0  0
 11 12  2  0  0  0
 12 13  1  0  0  0
 12  1  1  0  0  0
 13 15  1  0  0  0
 13 14  1  0  0  0
 15 16  1  0  0  0
 15 21  2  0  0  0
 16 17  2  0  0  0
 17 18  1  0  0  0
 18 19  1  0  0  0
 18 20  2  0  0  0
 20 21  1  0  0  0
  1  2  1  0  0  0
  1 10  2  0  0  0
  2  3  2  0  0  0
  3  4  1  0  0  0
  4  5  2  0  0  0
  5  6  1  0  0  0
  5 10  1  0  0  0
  6  7  2  0  0  0
  7 22  1  0  0  0
  7  8  1  0  0  0
 22 23  1  0  0  0
 23 24  1  0  0  0
 23 32  2  0  0  0
 24 25  2  0  0  0
 25 26  1  0  0  0
 26 27  2  0  0  0
 27 28  1  0  0  0
 27 32  1  0  0  0
 28 29  2  0  0  0
 29 30  1  0  0  0
 30 31  2  0  0  0
 31 32  1  0  0  0
  8  9  2  0  0  0
  9 10  1  0  0  0
M  END
> <minimizedAffinity>
-9.48406

$$$$
