CHEMBL3943610


 44 49  0  0  0  0  0  0  0  0999 V2000
  -27.9023   -2.1408   -8.1551 N   0  0  0  0  0  0  0  0  0  0  0  0
  -28.5396   -3.4260   -8.3237 C   0  0  0  0  0  0  0  0  0  0  0  0
  -29.8867   -3.4393   -7.9629 C   0  0  0  0  0  0  0  0  0  0  0  0
  -30.4503   -4.5930   -7.4480 C   0  0  0  0  0  0  0  0  0  0  0  0
  -29.7651   -5.7772   -7.4303 C   0  0  0  0  0  0  0  0  0  0  0  0
  -30.3579   -6.7348   -6.7123 N   0  0  0  0  0  0  0  0  0  0  0  0
  -29.8338   -7.9614   -6.8014 C   0  0  0  0  0  0  0  0  0  0  0  0
  -28.7988   -8.2521   -7.6633 C   0  0  0  0  0  0  0  0  0  0  0  0
  -28.1001   -7.2472   -8.3036 N   0  0  0  0  0  0  0  0  0  0  0  0
  -28.5467   -5.9357   -8.1296 C   0  0  0  0  0  0  0  0  0  0  0  0
  -27.9111   -4.6927   -8.5215 C   0  0  0  0  0  0  0  0  0  0  0  0
  -28.6359   -9.6609   -7.9936 C   0  0  0  0  0  0  0  0  0  0  0  0
  -28.4589  -10.7665   -7.1185 C   0  0  0  0  0  0  0  0  0  0  0  0
  -28.0550  -11.8756   -7.7514 N   0  0  0  0  0  0  0  0  0  0  0  0
  -27.9627  -11.4846   -9.0332 N   0  0  0  0  0  0  0  0  0  0  0  0
  -27.8073  -12.4591  -10.0872 C   0  0  0  0  0  0  0  0  0  0  0  0
  -28.1398  -10.1372   -9.1964 C   0  0  0  0  0  0  0  0  0  0  0  0
  -28.9380    0.9976   -6.3456 C   0  0  0  0  0  0  0  0  0  0  0  0
  -28.7259    0.6275   -5.0179 C   0  0  0  0  0  0  0  0  0  0  0  0
  -28.1809   -0.6180   -4.7307 C   0  0  0  0  0  0  0  0  0  0  0  0
  -27.8494   -1.4914   -5.7731 C   0  0  0  0  0  0  0  0  0  0  0  0
  -28.0521   -1.1742   -7.1247 C   0  0  0  0  0  0  0  0  0  0  0  0
  -28.5789    0.1074   -7.3902 C   0  0  0  0  0  0  0  0  0  0  0  0
  -30.9342    2.2267   -6.8272 C   0  0  0  0  0  0  0  0  0  0  0  0
  -29.5072    2.1910   -6.7305 O   0  0  0  0  0  0  0  0  0  0  0  0
  -27.9499   -1.1259   -3.4797 O   0  0  0  0  0  0  0  0  0  0  0  0
  -28.2583   -2.4978   -3.2708 C   0  0  0  0  0  0  0  0  0  0  0  0
  -27.6195   -1.5746   -9.5391 C   0  0  0  0  0  0  0  0  0  0  0  0
  -26.3131   -2.1025  -10.2129 C   0  0  0  0  0  0  0  0  0  0  0  0
  -26.1228   -1.6139  -11.6101 N   0  0  0  0  0  0  0  0  0  0  0  0
  -25.0209   -2.3028  -12.3272 C   0  0  0  0  0  0  0  0  0  0  0  0
  -23.5875   -1.7898  -12.0097 C   0  0  0  0  0  0  0  0  0  0  0  0
  -23.3783   -0.3291  -12.1731 N   0  0  0  0  0  0  0  0  0  0  0  0
  -24.4641    0.3182  -11.3730 C   0  0  0  0  0  0  0  0  0  0  0  0
  -25.9040   -0.1580  -11.7132 C   0  0  0  0  0  0  0  0  0  0  0  0
  -23.3713    0.1721  -13.5799 C   0  0  0  0  0  0  0  0  0  0  0  0
  -22.3138   -0.3934  -14.5600 C   0  0  0  0  0  0  0  0  0  0  0  0
  -20.9207    0.2195  -14.4404 C   0  0  0  0  0  0  0  0  0  0  0  0
  -20.9675    1.6791  -14.4990 N   0  0  0  0  0  0  0  0  0  0  0  0
  -19.9567    2.3426  -15.1850 C   0  0  0  0  0  0  0  0  0  0  0  0
  -19.9988    3.8621  -15.2229 C   0  0  0  0  0  0  0  0  0  0  0  0
  -19.0287    1.7511  -15.7392 O   0  0  0  0  0  0  0  0  0  0  0  0
  -21.8594    2.2797  -13.5106 C   0  0  0  0  0  0  0  0  0  0  0  0
  -23.2801    1.7227  -13.6241 C   0  0  0  0  0  0  0  0  0  0  0  0
 24 25  1  0  0  0
 25 18  1  0  0  0
 18 19  1  0  0  0
 18 23  2  0  0  0
 19 20  2  0  0  0
 20 26  1  0  0  0
 20 21  1  0  0  0
 26 27  1  0  0  0
 21 22  2  0  0  0
 22  1  1  0  0  0
 22 23  1  0  0  0
  1 28  1  0  0  0
  1  2  1  0  0  0
 28 29  1  0  0  0
 29 30  1  0  0  0
 30 31  1  0  0  0
 30 35  1  0  0  0
 31 32  1  0  0  0
 32 33  1  0  0  0
 33 36  1  0  0  0
 33 34  1  0  0  0
 36 37  1  0  0  0
 36 44  1  0  0  0
 37 38  1  0  0  0
 38 39  1  0  0  0
 39 40  1  0  0  0
 39 43  1  0  0  0
 40 41  1  0  0  0
 40 42  2  0  0  0
 43 44  1  0  0  0
 34 35  1  0  0  0
  2  3  1  0  0  0
  2 11  2  0  0  0
  3  4  2  0  0  0
  4  5  1  0  0  0
  5  6  1  0  0  0
  5 10  2  0  0  0
  6  7  2  0  0  0
  7  8  1  0  0  0
  8 12  1  0  0  0
  8  9  2  0  0  0
 12 13  1  0  0  0
 12 17  2  0  0  0
 13 14  2  0  0  0
 14 15  1  0  0  0
 15 16  1  0  0  0
 15 17  1  0  0  0
  9 10  1  0  0  0
 10 11  1  0  0  0
M  END
> <minimizedAffinity>
-7.22895

$$$$
