CHEMBL371242


 18 19  0  0  0  0  0  0  0  0999 V2000
  -19.5546    2.3739  -15.0112 C   0  0  0  0  0  0  0  0  0  0  0  0
  -18.7093    3.3610  -15.5460 C   0  0  0  0  0  0  0  0  0  0  0  0
  -17.4880    2.7760  -15.8766 C   0  0  0  0  0  0  0  0  0  0  0  0
  -16.2440    3.1676  -16.3610 C   0  0  0  0  0  0  0  0  0  0  0  0
  -15.7113    4.4940  -16.7412 C   0  0  0  0  0  0  0  0  0  0  0  0
  -15.4350    2.0820  -16.4536 N   0  0  0  0  0  0  0  0  0  0  0  0
  -16.2038    1.0501  -16.0087 N   0  0  0  0  0  0  0  0  0  0  0  0
  -17.4326    1.4606  -15.6615 C   0  0  0  0  0  0  0  0  0  0  0  0
  -18.8034    0.7881  -15.0382 S   0  0  0  0  0  0  0  0  0  0  0  0
  -15.7983    0.1224  -15.9605 H   0  0  0  0  0  0  0  0  0  0  0  0
  -21.6193    1.3859  -14.2914 N   0  0  0  0  0  0  0  0  0  0  0  0
  -20.8947    2.5465  -14.4648 C   0  0  0  0  0  0  0  0  0  0  0  0
  -21.3502    3.6458  -14.1547 O   0  0  0  0  0  0  0  0  0  0  0  0
  -21.1688    0.5066  -14.5139 H   0  0  0  0  0  0  0  0  0  0  0  0
  -22.9641    1.3703  -13.7611 C   0  0  0  0  0  0  0  0  0  0  0  0
  -23.4526   -0.0332  -13.4021 C   0  0  0  0  0  0  0  0  0  0  0  0
  -23.4303   -1.8781  -11.6794 C   0  0  0  0  0  0  0  0  0  0  0  0
  -22.7640   -0.5965  -12.1566 C   0  0  0  0  0  0  0  0  0  0  0  0
 17 18  1  0  0  0
 18 16  1  0  0  0
 16 15  1  0  0  0
 15 11  1  0  0  0
 11 12  1  0  0  0
 11 14  1  0  0  0
 12 13  2  0  0  0
 12  1  1  0  0  0
  1  2  2  0  0  0
  1  9  1  0  0  0
  2  3  1  0  0  0
  3  4  1  0  0  0
  3  8  2  0  0  0
  4  5  1  0  0  0
  4  6  2  0  0  0
  6  7  1  0  0  0
  7  8  1  0  0  0
  7 10  1  0  0  0
  8  9  1  0  0  0
M  END
> <minimizedAffinity>
-7.01010

$$$$
