CHEMBL3690394


 31 34  0  0  0  0  0  0  0  0999 V2000
  -13.4147    0.0685  -18.4395 C   0  0  0  0  0  0  0  0  0  0  0  0
  -12.1209    0.4660  -18.1200 C   0  0  0  0  0  0  0  0  0  0  0  0
  -11.8309    1.5246  -17.3291 N   0  0  0  0  0  0  0  0  0  0  0  0
  -12.8802    2.2156  -16.8338 C   0  0  0  0  0  0  0  0  0  0  0  0
  -14.2206    1.9247  -17.0890 C   0  0  0  0  0  0  0  0  0  0  0  0
  -14.4714    0.8047  -17.8895 C   0  0  0  0  0  0  0  0  0  0  0  0
  -15.3175    2.6700  -16.4653 C   0  0  0  0  0  0  0  0  0  0  0  0
  -15.5461    4.0371  -16.3875 C   0  0  0  0  0  0  0  0  0  0  0  0
  -16.8411    4.3185  -16.0477 N   0  0  0  0  0  0  0  0  0  0  0  0
  -17.3825    3.1493  -15.7952 C   0  0  0  0  0  0  0  0  0  0  0  0
  -18.7059    2.7956  -15.4261 C   0  0  0  0  0  0  0  0  0  0  0  0
  -18.9713    1.5485  -14.9903 C   0  0  0  0  0  0  0  0  0  0  0  0
  -17.9226    0.5391  -14.9137 C   0  0  0  0  0  0  0  0  0  0  0  0
  -16.6886    0.8475  -15.3462 C   0  0  0  0  0  0  0  0  0  0  0  0
  -16.4355    2.1302  -15.8428 N   0  0  0  0  0  0  0  0  0  0  0  0
  -20.3008    1.2125  -14.6217 C   0  0  0  0  0  0  0  0  0  0  0  0
  -21.3832    0.8926  -14.2259 C   0  0  0  0  0  0  0  0  0  0  0  0
  -22.6364    0.5429  -13.6308 C   0  0  0  0  0  0  0  0  0  0  0  0
  -22.6847   -0.2291  -12.3402 C   0  0  0  0  0  0  0  0  0  0  0  0
  -23.0701   -0.8962  -13.6293 C   0  0  0  0  0  0  0  0  0  0  0  0
  -12.7060   -2.7899  -18.2146 O   0  0  0  0  0  0  0  0  0  0  0  0
  -13.3471   -2.3168  -19.1413 C   0  0  0  0  0  0  0  0  0  0  0  0
  -13.7897   -3.0889  -20.1939 N   0  0  0  0  0  0  0  0  0  0  0  0
  -13.7382   -1.0072  -19.2901 N   0  0  0  0  0  0  0  0  0  0  0  0
  -13.8585   -2.6101  -21.0807 H   0  0  0  0  0  0  0  0  0  0  0  0
  -14.3191   -0.7994  -20.0878 H   0  0  0  0  0  0  0  0  0  0  0  0
  -13.3817   -4.4957  -20.2684 C   0  0  0  0  0  0  0  0  0  0  0  0
  -14.4063   -5.4999  -19.7221 C   0  0  0  0  0  0  0  0  0  0  0  0
  -14.2545   -6.7262  -20.2756 F   0  0  0  0  0  0  0  0  0  0  0  0
  -14.3353   -5.6303  -18.3825 F   0  0  0  0  0  0  0  0  0  0  0  0
  -15.6627   -5.0898  -20.0269 F   0  0  0  0  0  0  0  0  0  0  0  0
 21 22  2  0  0  0
 22 23  1  0  0  0
 22 24  1  0  0  0
 23 27  1  0  0  0
 23 25  1  0  0  0
 27 28  1  0  0  0
 28 29  1  0  0  0
 28 30  1  0  0  0
 28 31  1  0  0  0
 24  1  1  0  0  0
 24 26  1  0  0  0
  1  2  1  0  0  0
  1  6  2  0  0  0
  2  3  2  0  0  0
  3  4  1  0  0  0
  4  5  2  0  0  0
  5  7  1  0  0  0
  5  6  1  0  0  0
  7  8  2  0  0  0
  7 15  1  0  0  0
  8  9  1  0  0  0
  9 10  2  0  0  0
 10 11  1  0  0  0
 10 15  1  0  0  0
 11 12  2  0  0  0
 12 16  1  0  0  0
 12 13  1  0  0  0
 16 17  3  0  0  0
 17 18  1  0  0  0
 18 19  1  0  0  0
 18 20  1  0  0  0
 19 20  1  0  0  0
 13 14  2  0  0  0
 14 15  1  0  0  0
M  END
> <minimizedAffinity>
-8.82714

$$$$
