CHEMBL3908529


 37 40  0  0  0  0  0  0  0  0999 V2000
  -28.3758   -5.4825   -5.2784 C   0  0  0  0  0  0  0  0  0  0  0  0
  -27.9539   -4.4010   -4.5073 C   0  0  0  0  0  0  0  0  0  0  0  0
  -27.9044   -3.1405   -5.0464 C   0  0  0  0  0  0  0  0  0  0  0  0
  -28.1106   -2.9150   -6.3868 C   0  0  0  0  0  0  0  0  0  0  0  0
  -28.2503   -1.6337   -6.7265 N   0  0  0  0  0  0  0  0  0  0  0  0
  -28.2257   -1.3552   -8.0338 C   0  0  0  0  0  0  0  0  0  0  0  0
  -27.9484   -2.3186   -8.9878 C   0  0  0  0  0  0  0  0  0  0  0  0
  -27.9919   -3.6629   -8.6563 N   0  0  0  0  0  0  0  0  0  0  0  0
  -28.1478   -3.9969   -7.3043 C   0  0  0  0  0  0  0  0  0  0  0  0
  -28.3579   -5.2983   -6.6951 C   0  0  0  0  0  0  0  0  0  0  0  0
  -27.2538   -1.8153  -10.1688 C   0  0  0  0  0  0  0  0  0  0  0  0
  -27.6658   -1.2111  -11.3747 C   0  0  0  0  0  0  0  0  0  0  0  0
  -26.6399   -0.7327  -12.0985 N   0  0  0  0  0  0  0  0  0  0  0  0
  -25.5457   -1.0455  -11.3656 N   0  0  0  0  0  0  0  0  0  0  0  0
  -25.8865   -1.5569  -10.1465 C   0  0  0  0  0  0  0  0  0  0  0  0
  -24.2327   -0.9381  -11.9822 C   0  0  0  0  0  0  0  0  0  0  0  0
  -24.1421   -0.8754  -13.5128 C   0  0  0  0  0  0  0  0  0  0  0  0
  -23.5026    0.3265  -13.9453 O   0  0  0  0  0  0  0  0  0  0  0  0
  -22.0835    0.2188  -13.9335 C   0  0  0  0  0  0  0  0  0  0  0  0
  -28.9849   -6.5589   -4.5297 N   0  0  0  0  0  0  0  0  0  0  0  0
  -26.6140   -9.4540   -4.1474 C   0  0  0  0  0  0  0  0  0  0  0  0
  -27.4731  -10.4508   -3.6773 C   0  0  0  0  0  0  0  0  0  0  0  0
  -28.8273  -10.1699   -3.5099 C   0  0  0  0  0  0  0  0  0  0  0  0
  -29.3071   -8.8699   -3.7766 C   0  0  0  0  0  0  0  0  0  0  0  0
  -28.4598   -7.8341   -4.2217 C   0  0  0  0  0  0  0  0  0  0  0  0
  -27.1153   -8.1700   -4.4306 C   0  0  0  0  0  0  0  0  0  0  0  0
  -23.1820   -9.8333   -5.7220 C   0  0  0  0  0  0  0  0  0  0  0  0
  -24.5735   -9.5168   -5.5194 N   0  0  0  0  0  0  0  0  0  0  0  0
  -25.1402   -9.6733   -4.2696 C   0  0  0  0  0  0  0  0  0  0  0  0
  -24.4888   -9.9627   -3.2763 O   0  0  0  0  0  0  0  0  0  0  0  0
  -25.0901   -9.1103   -6.2852 H   0  0  0  0  0  0  0  0  0  0  0  0
  -29.7638  -11.0879   -3.0906 O   0  0  0  0  0  0  0  0  0  0  0  0
  -30.2425  -12.0201   -4.0570 C   0  0  0  0  0  0  0  0  0  0  0  0
  -30.4841   -6.4457   -4.7026 C   0  0  0  0  0  0  0  0  0  0  0  0
  -31.2477   -5.7037   -3.5919 C   0  0  0  0  0  0  0  0  0  0  0  0
  -31.2973   -6.4567   -2.3806 O   0  0  0  0  0  0  0  0  0  0  0  0
  -32.2202   -6.4412   -2.0726 H   0  0  0  0  0  0  0  0  0  0  0  0
 27 28  1  0  0  0
 28 29  1  0  0  0
 28 31  1  0  0  0
 29 30  2  0  0  0
 29 21  1  0  0  0
 21 22  1  0  0  0
 21 26  2  0  0  0
 22 23  2  0  0  0
 23 32  1  0  0  0
 23 24  1  0  0  0
 32 33  1  0  0  0
 24 25  2  0  0  0
 25 20  1  0  0  0
 25 26  1  0  0  0
 20 34  1  0  0  0
 20  1  1  0  0  0
 34 35  1  0  0  0
 35 36  1  0  0  0
 36 37  1  0  0  0
  1  2  1  0  0  0
  1 10  2  0  0  0
  2  3  2  0  0  0
  3  4  1  0  0  0
  4  5  1  0  0  0
  4  9  2  0  0  0
  5  6  2  0  0  0
  6  7  1  0  0  0
  7 11  1  0  0  0
  7  8  2  0  0  0
 11 12  1  0  0  0
 11 15  2  0  0  0
 12 13  2  0  0  0
 13 14  1  0  0  0
 14 16  1  0  0  0
 14 15  1  0  0  0
 16 17  1  0  0  0
 17 18  1  0  0  0
 18 19  1  0  0  0
  8  9  1  0  0  0
  9 10  1  0  0  0
M  END
> <minimizedAffinity>
-7.86918

$$$$
