CHEMBL3907879


 36 39  0  0  0  0  0  0  0  0999 V2000
  -29.6185  -10.5530   -6.6140 C   0  0  0  0  0  0  0  0  0  0  0  0
  -28.4855  -11.1306   -7.2167 C   0  0  0  0  0  0  0  0  0  0  0  0
  -28.0910  -10.7945   -8.5404 C   0  0  0  0  0  0  0  0  0  0  0  0
  -26.9830  -11.2783   -9.2566 C   0  0  0  0  0  0  0  0  0  0  0  0
  -26.6830  -10.8502  -10.5052 N   0  0  0  0  0  0  0  0  0  0  0  0
  -27.4863   -9.9494  -11.0537 C   0  0  0  0  0  0  0  0  0  0  0  0
  -28.5718   -9.4401  -10.4773 N   0  0  0  0  0  0  0  0  0  0  0  0
  -28.8479   -9.8653   -9.2455 C   0  0  0  0  0  0  0  0  0  0  0  0
  -29.9375   -9.2993   -8.6399 C   0  0  0  0  0  0  0  0  0  0  0  0
  -30.3516   -9.5969   -7.3289 C   0  0  0  0  0  0  0  0  0  0  0  0
  -28.8134  -11.7903   -4.7492 C   0  0  0  0  0  0  0  0  0  0  0  0
  -29.8105  -10.9544   -5.3227 O   0  0  0  0  0  0  0  0  0  0  0  0
  -26.1356  -12.2479   -8.6622 N   0  0  0  0  0  0  0  0  0  0  0  0
  -26.1186  -13.0737   -9.2478 H   0  0  0  0  0  0  0  0  0  0  0  0
  -24.8748  -11.9331   -8.1076 C   0  0  0  0  0  0  0  0  0  0  0  0
  -23.7004  -12.4600   -8.6664 C   0  0  0  0  0  0  0  0  0  0  0  0
  -22.4540  -12.1935   -8.1030 C   0  0  0  0  0  0  0  0  0  0  0  0
  -22.3639  -11.3876   -6.9689 C   0  0  0  0  0  0  0  0  0  0  0  0
  -20.7941  -11.1124   -6.3047 Cl  0  0  0  0  0  0  0  0  0  0  0  0
  -23.5260  -10.8417   -6.4109 C   0  0  0  0  0  0  0  0  0  0  0  0
  -23.4897   -9.8370   -5.0043 Cl  0  0  0  0  0  0  0  0  0  0  0  0
  -24.7755  -11.1095   -6.9836 C   0  0  0  0  0  0  0  0  0  0  0  0
  -31.4221   -8.9362   -6.7503 O   0  0  0  0  0  0  0  0  0  0  0  0
  -31.3607   -7.5093   -6.9398 C   0  0  0  0  0  0  0  0  0  0  0  0
  -30.5259   -6.7445   -5.9307 C   0  0  0  0  0  0  0  0  0  0  0  0
  -29.3120   -6.1333   -6.6217 C   0  0  0  0  0  0  0  0  0  0  0  0
  -28.4960   -5.4440   -5.6319 N   0  0  0  0  0  0  0  0  0  0  0  0
  -28.3402   -4.0776   -5.4779 C   0  0  0  0  0  0  0  0  0  0  0  0
  -27.7093   -3.6455   -4.5063 O   0  0  0  0  0  0  0  0  0  0  0  0
  -28.0518   -6.3541   -4.5635 C   0  0  0  0  0  0  0  0  0  0  0  0
  -29.2570   -7.0785   -3.9389 C   0  0  0  0  0  0  0  0  0  0  0  0
  -30.0881   -7.6974   -4.9345 O   0  0  0  0  0  0  0  0  0  0  0  0
  -28.9850   -3.0758   -6.4818 C   0  0  0  0  0  0  0  0  0  0  0  0
  -30.5045   -2.9845   -6.2551 C   0  0  0  0  0  0  0  0  0  0  0  0
  -28.4144   -1.6655   -6.1875 C   0  0  0  0  0  0  0  0  0  0  0  0
  -28.6248   -3.3599   -7.9509 C   0  0  0  0  0  0  0  0  0  0  0  0
 11 12  1  0  0  0
 12  1  1  0  0  0
  1  2  1  0  0  0
  1 10  2  0  0  0
  2  3  2  0  0  0
  3  4  1  0  0  0
  3  8  1  0  0  0
  4 13  1  0  0  0
  4  5  2  0  0  0
 13 15  1  0  0  0
 13 14  1  0  0  0
 15 16  1  0  0  0
 15 22  2  0  0  0
 16 17  2  0  0  0
 17 18  1  0  0  0
 18 19  1  0  0  0
 18 20  2  0  0  0
 20 21  1  0  0  0
 20 22  1  0  0  0
  5  6  1  0  0  0
  6  7  2  0  0  0
  7  8  1  0  0  0
  8  9  2  0  0  0
  9 10  1  0  0  0
 10 23  1  0  0  0
 23 24  1  0  0  0
 24 25  1  0  0  0
 25 26  1  0  0  0
 25 32  1  0  0  0
 26 27  1  0  0  0
 27 28  1  0  0  0
 27 30  1  0  0  0
 28 29  2  0  0  0
 28 33  1  0  0  0
 33 34  1  0  0  0
 33 35  1  0  0  0
 33 36  1  0  0  0
 30 31  1  0  0  0
 31 32  1  0  0  0
M  END
> <minimizedAffinity>
-7.91377

$$$$
