CHEMBL3114018


 28 31  0  0  0  0  0  0  0  0999 V2000
  -27.4261   -1.6713   -9.4311 C   0  0  0  0  0  0  0  0  0  0  0  0
  -28.3752   -1.5570  -10.4264 C   0  0  0  0  0  0  0  0  0  0  0  0
  -27.9134   -1.4791  -11.7201 C   0  0  0  0  0  0  0  0  0  0  0  0
  -26.6134   -1.5221  -12.0529 N   0  0  0  0  0  0  0  0  0  0  0  0
  -25.7452   -1.6296  -11.0401 C   0  0  0  0  0  0  0  0  0  0  0  0
  -26.1230   -1.6984   -9.7585 N   0  0  0  0  0  0  0  0  0  0  0  0
  -27.7773   -1.7169   -8.0587 N   0  0  0  0  0  0  0  0  0  0  0  0
  -27.6688   -0.4432   -7.3467 C   0  0  0  0  0  0  0  0  0  0  0  0
  -30.4854   -7.4503   -5.7281 C   0  0  0  0  0  0  0  0  0  0  0  0
  -30.3324   -5.9809   -5.6070 C   0  0  0  0  0  0  0  0  0  0  0  0
  -29.6805   -5.0422   -6.3694 C   0  0  0  0  0  0  0  0  0  0  0  0
  -28.9620   -5.2908   -7.5298 C   0  0  0  0  0  0  0  0  0  0  0  0
  -28.3836   -4.1033   -8.0320 C   0  0  0  0  0  0  0  0  0  0  0  0
  -28.5005   -2.7840   -7.4444 C   0  0  0  0  0  0  0  0  0  0  0  0
  -29.2824   -2.5961   -6.2732 C   0  0  0  0  0  0  0  0  0  0  0  0
  -29.8632   -3.7643   -5.7347 C   0  0  0  0  0  0  0  0  0  0  0  0
  -30.6152   -3.9244   -4.6323 N   0  0  0  0  0  0  0  0  0  0  0  0
  -30.8840   -5.2477   -4.5847 N   0  0  0  0  0  0  0  0  0  0  0  0
  -31.6841   -5.7623   -3.4956 C   0  0  0  0  0  0  0  0  0  0  0  0
  -24.3951   -1.6021  -11.3842 N   0  0  0  0  0  0  0  0  0  0  0  0
  -23.9413   -2.4385  -11.0505 H   0  0  0  0  0  0  0  0  0  0  0  0
  -23.6884   -0.7762  -12.2685 C   0  0  0  0  0  0  0  0  0  0  0  0
  -22.7959   -1.3648  -13.1804 C   0  0  0  0  0  0  0  0  0  0  0  0
  -22.1158   -0.5959  -14.1323 C   0  0  0  0  0  0  0  0  0  0  0  0
  -22.3155    0.7797  -14.1828 C   0  0  0  0  0  0  0  0  0  0  0  0
  -23.1874    1.3709  -13.2811 C   0  0  0  0  0  0  0  0  0  0  0  0
  -23.3821    2.6959  -13.3272 F   0  0  0  0  0  0  0  0  0  0  0  0
  -23.8659    0.6110  -12.3343 C   0  0  0  0  0  0  0  0  0  0  0  0
  9 10  1  0  0  0
 10 11  2  0  0  0
 10 18  1  0  0  0
 11 12  1  0  0  0
 11 16  1  0  0  0
 12 13  2  0  0  0
 13 14  1  0  0  0
 14  7  1  0  0  0
 14 15  2  0  0  0
  7  8  1  0  0  0
  7  1  1  0  0  0
  1  2  1  0  0  0
  1  6  2  0  0  0
  2  3  2  0  0  0
  3  4  1  0  0  0
  4  5  2  0  0  0
  5 20  1  0  0  0
  5  6  1  0  0  0
 20 22  1  0  0  0
 20 21  1  0  0  0
 22 23  1  0  0  0
 22 28  2  0  0  0
 23 24  2  0  0  0
 24 25  1  0  0  0
 25 26  2  0  0  0
 26 27  1  0  0  0
 26 28  1  0  0  0
 15 16  1  0  0  0
 16 17  2  0  0  0
 17 18  1  0  0  0
 18 19  1  0  0  0
M  END
> <minimizedAffinity>
-9.44084

$$$$
