CHEMBL4079318


 34 39  0  0  0  0  0  0  0  0999 V2000
  -27.3511  -10.0888   -5.1522 C   0  0  0  0  0  0  0  0  0  0  0  0
  -27.1273   -8.9398   -4.3920 C   0  0  0  0  0  0  0  0  0  0  0  0
  -27.9375   -7.8141   -4.5300 C   0  0  0  0  0  0  0  0  0  0  0  0
  -29.0212   -7.8849   -5.4117 C   0  0  0  0  0  0  0  0  0  0  0  0
  -29.3311   -9.0589   -6.1088 C   0  0  0  0  0  0  0  0  0  0  0  0
  -30.5509   -8.8313   -6.7948 C   0  0  0  0  0  0  0  0  0  0  0  0
  -30.9722   -7.5602   -6.4852 C   0  0  0  0  0  0  0  0  0  0  0  0
  -30.0114   -6.9463   -5.6987 N   0  0  0  0  0  0  0  0  0  0  0  0
  -30.1161   -5.6551   -5.1640 C   0  0  0  0  0  0  0  0  0  0  0  0
  -31.1709   -5.2855   -4.6761 O   0  0  0  0  0  0  0  0  0  0  0  0
  -28.9555   -4.9224   -5.3869 N   0  0  0  0  0  0  0  0  0  0  0  0
  -28.4737  -10.1749   -5.9840 C   0  0  0  0  0  0  0  0  0  0  0  0
  -28.4771   -5.0995   -6.2648 H   0  0  0  0  0  0  0  0  0  0  0  0
  -28.9181   -3.6166   -4.9592 C   0  0  0  0  0  0  0  0  0  0  0  0
  -29.3619   -2.4817   -5.6779 C   0  0  0  0  0  0  0  0  0  0  0  0
  -29.0365   -1.4141   -4.8813 C   0  0  0  0  0  0  0  0  0  0  0  0
  -28.4825   -1.8781   -3.7262 O   0  0  0  0  0  0  0  0  0  0  0  0
  -28.4736   -3.2699   -3.7430 N   0  0  0  0  0  0  0  0  0  0  0  0
  -29.2563    0.0415   -5.2532 C   0  0  0  0  0  0  0  0  0  0  0  0
  -28.3823    0.6438   -6.3340 C   0  0  0  0  0  0  0  0  0  0  0  0
  -28.1885    1.0595   -4.9171 C   0  0  0  0  0  0  0  0  0  0  0  0
  -26.5490  -11.2102   -5.0834 O   0  0  0  0  0  0  0  0  0  0  0  0
  -21.8390  -12.4656   -4.5550 C   0  0  0  0  0  0  0  0  0  0  0  0
  -22.2178  -11.0011   -4.8145 C   0  0  0  0  0  0  0  0  0  0  0  0
  -23.7447  -10.7867   -4.8011 C   0  0  0  0  0  0  0  0  0  0  0  0
  -24.3933  -11.2581   -6.0678 C   0  0  0  0  0  0  0  0  0  0  0  0
  -23.6609  -11.4294   -7.2356 C   0  0  0  0  0  0  0  0  0  0  0  0
  -24.2163  -11.8575   -8.3894 N   0  0  0  0  0  0  0  0  0  0  0  0
  -25.5274  -12.1210   -8.3576 C   0  0  0  0  0  0  0  0  0  0  0  0
  -26.3313  -11.9698   -7.3039 N   0  0  0  0  0  0  0  0  0  0  0  0
  -25.7470  -11.4921   -6.1852 C   0  0  0  0  0  0  0  0  0  0  0  0
  -22.1630  -11.1941   -7.2439 C   0  0  0  0  0  0  0  0  0  0  0  0
  -21.6350  -10.4836   -6.0646 N   0  0  0  0  0  0  0  0  0  0  0  0
  -21.8851   -9.4987   -6.1583 H   0  0  0  0  0  0  0  0  0  0  0  0
 24 25  1  0  0  0
 24 33  1  0  0  0
 24 23  1  0  0  0
 25 26  1  0  0  0
 26 27  1  0  0  0
 26 31  2  0  0  0
 27 28  2  0  0  0
 27 32  1  0  0  0
 28 29  1  0  0  0
 29 30  2  0  0  0
 30 31  1  0  0  0
 31 22  1  0  0  0
 22  1  1  0  0  0
  1  2  1  0  0  0
  1 12  2  0  0  0
  2  3  2  0  0  0
  3  4  1  0  0  0
  4  5  2  0  0  0
  4  8  1  0  0  0
  5  6  1  0  0  0
  5 12  1  0  0  0
  6  7  2  0  0  0
  7  8  1  0  0  0
  8  9  1  0  0  0
  9 10  2  0  0  0
  9 11  1  0  0  0
 11 14  1  0  0  0
 11 13  1  0  0  0
 14 15  1  0  0  0
 14 18  2  0  0  0
 15 16  2  0  0  0
 16 19  1  0  0  0
 16 17  1  0  0  0
 19 20  1  0  0  0
 19 21  1  0  0  0
 20 21  1  0  0  0
 17 18  1  0  0  0
 32 33  1  0  0  0
 33 34  1  0  0  0
M  END
> <minimizedAffinity>
-9.16191

$$$$
