CHEMBL1421


 36 39  0  0  0  0  0  0  0  0999 V2000
  -16.0655   -5.8742  -12.8150 N   0  0  0  0  0  0  0  0  0  0  0  0
  -16.7372   -6.4220  -12.2946 H   0  0  0  0  0  0  0  0  0  0  0  0
  -12.9604   -9.4450  -12.2270 C   0  0  0  0  0  0  0  0  0  0  0  0
  -13.5762   -8.4084  -13.1150 C   0  0  0  0  0  0  0  0  0  0  0  0
  -14.5645   -7.6515  -12.5893 N   0  0  0  0  0  0  0  0  0  0  0  0
  -15.0954   -6.7092  -13.3824 C   0  0  0  0  0  0  0  0  0  0  0  0
  -14.6865   -6.5876  -14.6864 C   0  0  0  0  0  0  0  0  0  0  0  0
  -13.6835   -7.4062  -15.1613 C   0  0  0  0  0  0  0  0  0  0  0  0
  -13.0928   -8.3083  -14.3699 N   0  0  0  0  0  0  0  0  0  0  0  0
  -13.3074   -7.2254  -16.4870 N   0  0  0  0  0  0  0  0  0  0  0  0
  -13.7224   -8.1974  -17.4948 C   0  0  0  0  0  0  0  0  0  0  0  0
  -12.8203   -7.9965  -18.7532 C   0  0  0  0  0  0  0  0  0  0  0  0
  -12.7478   -6.6024  -19.2947 N   0  0  0  0  0  0  0  0  0  0  0  0
  -12.4413   -5.6833  -18.1690 C   0  0  0  0  0  0  0  0  0  0  0  0
  -13.3663   -5.8313  -16.9449 C   0  0  0  0  0  0  0  0  0  0  0  0
  -14.0052   -6.2623  -19.9947 C   0  0  0  0  0  0  0  0  0  0  0  0
  -14.0334   -4.8308  -20.5582 C   0  0  0  0  0  0  0  0  0  0  0  0
  -15.0153   -4.0435  -19.8927 O   0  0  0  0  0  0  0  0  0  0  0  0
  -15.7799   -4.6400  -19.7601 H   0  0  0  0  0  0  0  0  0  0  0  0
  -15.9273   -4.5574  -12.5360 C   0  0  0  0  0  0  0  0  0  0  0  0
  -15.8484   -4.0070  -11.3429 N   0  0  0  0  0  0  0  0  0  0  0  0
  -15.7868   -2.6367  -11.4235 C   0  0  0  0  0  0  0  0  0  0  0  0
  -15.8040   -2.1209  -12.6992 C   0  0  0  0  0  0  0  0  0  0  0  0
  -15.8725   -3.4133  -13.8277 S   0  0  0  0  0  0  0  0  0  0  0  0
  -15.7543   -0.7251  -13.0737 C   0  0  0  0  0  0  0  0  0  0  0  0
  -15.6179    0.1618  -12.2396 O   0  0  0  0  0  0  0  0  0  0  0  0
  -15.9318   -0.4934  -14.4273 N   0  0  0  0  0  0  0  0  0  0  0  0
  -16.4651   -1.2138  -14.9031 H   0  0  0  0  0  0  0  0  0  0  0  0
  -15.9955    0.7906  -15.0124 C   0  0  0  0  0  0  0  0  0  0  0  0
  -17.2088    1.4394  -15.3054 C   0  0  0  0  0  0  0  0  0  0  0  0
  -18.5649    0.9133  -14.9183 C   0  0  0  0  0  0  0  0  0  0  0  0
  -17.1647    2.6939  -15.9396 C   0  0  0  0  0  0  0  0  0  0  0  0
  -15.9494    3.3151  -16.2288 C   0  0  0  0  0  0  0  0  0  0  0  0
  -14.7523    2.7011  -15.8724 C   0  0  0  0  0  0  0  0  0  0  0  0
  -14.7771    1.4532  -15.2577 C   0  0  0  0  0  0  0  0  0  0  0  0
  -13.2626    0.7159  -14.8485 Cl  0  0  0  0  0  0  0  0  0  0  0  0
  3  4  1  0  0  0
  4  5  1  0  0  0
  4  9  2  0  0  0
  5  6  2  0  0  0
  6  1  1  0  0  0
  6  7  1  0  0  0
  1 20  1  0  0  0
  1  2  1  0  0  0
 20 21  2  0  0  0
 20 24  1  0  0  0
 21 22  1  0  0  0
 22 23  2  0  0  0
 23 25  1  0  0  0
 23 24  1  0  0  0
 25 26  2  0  0  0
 25 27  1  0  0  0
 27 29  1  0  0  0
 27 28  1  0  0  0
 29 30  1  0  0  0
 29 35  2  0  0  0
 30 31  1  0  0  0
 30 32  2  0  0  0
 32 33  1  0  0  0
 33 34  2  0  0  0
 34 35  1  0  0  0
 35 36  1  0  0  0
  7  8  2  0  0  0
  8 10  1  0  0  0
  8  9  1  0  0  0
 10 11  1  0  0  0
 10 15  1  0  0  0
 11 12  1  0  0  0
 12 13  1  0  0  0
 13 16  1  0  0  0
 13 14  1  0  0  0
 16 17  1  0  0  0
 17 18  1  0  0  0
 18 19  1  0  0  0
 14 15  1  0  0  0
M  END
> <minimizedAffinity>
-8.09028

$$$$
