CHEMBL2023226


 36 40  0  0  0  0  0  0  0  0999 V2000
  -14.9474   -4.5652  -12.6378 C   0  0  0  0  0  0  0  0  0  0  0  0
  -15.7051   -4.0030  -11.6271 C   0  0  0  0  0  0  0  0  0  0  0  0
  -15.9876   -2.6970  -11.5150 N   0  0  0  0  0  0  0  0  0  0  0  0
  -15.5257   -1.8269  -12.4330 C   0  0  0  0  0  0  0  0  0  0  0  0
  -15.9459   -0.5260  -12.2023 N   0  0  0  0  0  0  0  0  0  0  0  0
  -14.7008   -2.2699  -13.5136 C   0  0  0  0  0  0  0  0  0  0  0  0
  -14.0399   -1.5486  -14.6200 C   0  0  0  0  0  0  0  0  0  0  0  0
  -13.3247   -2.4039  -15.4312 C   0  0  0  0  0  0  0  0  0  0  0  0
  -13.3992   -4.0125  -14.9311 S   0  0  0  0  0  0  0  0  0  0  0  0
  -14.4290   -3.6547  -13.5876 C   0  0  0  0  0  0  0  0  0  0  0  0
  -16.6484   -0.5169  -11.4712 H   0  0  0  0  0  0  0  0  0  0  0  0
  -16.1714    0.0028  -13.0335 H   0  0  0  0  0  0  0  0  0  0  0  0
  -13.1114   -9.0876  -11.7540 C   0  0  0  0  0  0  0  0  0  0  0  0
  -13.8905   -7.9870  -12.2715 N   0  0  0  0  0  0  0  0  0  0  0  0
  -13.8053   -6.6759  -11.9139 C   0  0  0  0  0  0  0  0  0  0  0  0
  -14.7132   -5.9938  -12.7011 C   0  0  0  0  0  0  0  0  0  0  0  0
  -15.3189   -7.0170  -13.4652 C   0  0  0  0  0  0  0  0  0  0  0  0
  -14.8216   -8.2266  -13.2146 N   0  0  0  0  0  0  0  0  0  0  0  0
  -14.0181   -0.1105  -14.9202 C   0  0  0  0  0  0  0  0  0  0  0  0
  -12.8332    0.6059  -14.7994 C   0  0  0  0  0  0  0  0  0  0  0  0
  -12.8151    1.9885  -14.9598 C   0  0  0  0  0  0  0  0  0  0  0  0
  -13.9456    2.6805  -15.3959 C   0  0  0  0  0  0  0  0  0  0  0  0
  -15.1273    1.9669  -15.5924 C   0  0  0  0  0  0  0  0  0  0  0  0
  -15.1656    0.5841  -15.3430 C   0  0  0  0  0  0  0  0  0  0  0  0
  -13.9232    4.0721  -15.6429 N   0  0  0  0  0  0  0  0  0  0  0  0
  -13.9382    4.6178  -16.9140 C   0  0  0  0  0  0  0  0  0  0  0  0
  -14.1081    3.9732  -17.9440 O   0  0  0  0  0  0  0  0  0  0  0  0
  -13.6964    5.9851  -16.9039 N   0  0  0  0  0  0  0  0  0  0  0  0
  -14.1837    4.6903  -14.8884 H   0  0  0  0  0  0  0  0  0  0  0  0
  -13.0378    6.2717  -16.1938 H   0  0  0  0  0  0  0  0  0  0  0  0
  -13.5982    6.6483  -18.1516 C   0  0  0  0  0  0  0  0  0  0  0  0
  -14.7418    7.1393  -18.7946 C   0  0  0  0  0  0  0  0  0  0  0  0
  -14.6633    7.6063  -20.1046 C   0  0  0  0  0  0  0  0  0  0  0  0
  -13.4414    7.5920  -20.7698 C   0  0  0  0  0  0  0  0  0  0  0  0
  -12.2901    7.1536  -20.1122 C   0  0  0  0  0  0  0  0  0  0  0  0
  -12.3604    6.7055  -18.7913 C   0  0  0  0  0  0  0  0  0  0  0  0
 13 14  1  0  0  0
 14 15  1  0  0  0
 14 18  1  0  0  0
 15 16  2  0  0  0
 16  1  1  0  0  0
 16 17  1  0  0  0
  1  2  1  0  0  0
  1 10  2  0  0  0
  2  3  2  0  0  0
  3  4  1  0  0  0
  4  5  1  0  0  0
  4  6  2  0  0  0
  5 11  1  0  0  0
  5 12  1  0  0  0
  6  7  1  0  0  0
  6 10  1  0  0  0
  7 19  1  0  0  0
  7  8  2  0  0  0
 19 20  1  0  0  0
 19 24  2  0  0  0
 20 21  2  0  0  0
 21 22  1  0  0  0
 22 25  1  0  0  0
 22 23  2  0  0  0
 25 26  1  0  0  0
 25 29  1  0  0  0
 26 27  2  0  0  0
 26 28  1  0  0  0
 28 31  1  0  0  0
 28 30  1  0  0  0
 31 32  1  0  0  0
 31 36  2  0  0  0
 32 33  2  0  0  0
 33 34  1  0  0  0
 34 35  2  0  0  0
 35 36  1  0  0  0
 23 24  1  0  0  0
  8  9  1  0  0  0
  9 10  1  0  0  0
 17 18  2  0  0  0
M  END
> <minimizedAffinity>
-6.92511

$$$$
