CHEMBL1240554


 28 31  0  0  0  0  0  0  0  0999 V2000
  -28.9072   -6.7117   -6.2785 C   0  0  0  0  0  0  0  0  0  0  0  0
  -28.6922   -7.2421   -7.4981 N   0  0  0  0  0  0  0  0  0  0  0  0
  -28.5964   -8.5707   -7.2760 N   0  0  0  0  0  0  0  0  0  0  0  0
  -28.6797   -8.9032   -5.9518 C   0  0  0  0  0  0  0  0  0  0  0  0
  -28.6000  -10.1420   -5.4337 N   0  0  0  0  0  0  0  0  0  0  0  0
  -28.7355  -10.1221   -4.1005 C   0  0  0  0  0  0  0  0  0  0  0  0
  -28.9203   -9.0551   -3.3042 N   0  0  0  0  0  0  0  0  0  0  0  0
  -28.9879   -7.8297   -3.8646 C   0  0  0  0  0  0  0  0  0  0  0  0
  -29.1718   -6.7830   -2.9772 N   0  0  0  0  0  0  0  0  0  0  0  0
  -28.8752   -7.7206   -5.2616 C   0  0  0  0  0  0  0  0  0  0  0  0
  -29.0299   -7.0742   -2.0173 H   0  0  0  0  0  0  0  0  0  0  0  0
  -28.7797   -5.8872   -3.2341 H   0  0  0  0  0  0  0  0  0  0  0  0
  -29.6011   -2.4804   -5.9503 C   0  0  0  0  0  0  0  0  0  0  0  0
  -30.4616   -3.4008   -5.3399 C   0  0  0  0  0  0  0  0  0  0  0  0
  -30.2359   -4.7803   -5.4450 C   0  0  0  0  0  0  0  0  0  0  0  0
  -29.1297   -5.2704   -6.1447 C   0  0  0  0  0  0  0  0  0  0  0  0
  -28.2403   -4.3489   -6.6992 C   0  0  0  0  0  0  0  0  0  0  0  0
  -28.4769   -2.9707   -6.6315 C   0  0  0  0  0  0  0  0  0  0  0  0
  -27.5778   -2.2351   -7.3588 O   0  0  0  0  0  0  0  0  0  0  0  0
  -27.7927   -2.2084   -8.7624 C   0  0  0  0  0  0  0  0  0  0  0  0
  -29.7980   -1.1256   -5.9386 O   0  0  0  0  0  0  0  0  0  0  0  0
  -28.4180    0.7681   -5.4964 C   0  0  0  0  0  0  0  0  0  0  0  0
  -29.1952   -0.3807   -4.8824 C   0  0  0  0  0  0  0  0  0  0  0  0
  -28.4398   -9.4895   -8.3844 C   0  0  0  0  0  0  0  0  0  0  0  0
  -27.2534   -9.1817   -9.2990 C   0  0  0  0  0  0  0  0  0  0  0  0
  -27.5795   -9.8781  -10.6194 C   0  0  0  0  0  0  0  0  0  0  0  0
  -29.0732  -10.1996  -10.5887 C   0  0  0  0  0  0  0  0  0  0  0  0
  -29.6260   -9.5102   -9.3484 C   0  0  0  0  0  0  0  0  0  0  0  0
 22 23  1  0  0  0
 23 21  1  0  0  0
 21 13  1  0  0  0
 13 14  1  0  0  0
 13 18  2  0  0  0
 14 15  2  0  0  0
 15 16  1  0  0  0
 16  1  1  0  0  0
 16 17  2  0  0  0
  1  2  2  0  0  0
  1 10  1  0  0  0
  2  3  1  0  0  0
  3 24  1  0  0  0
  3  4  1  0  0  0
 24 25  1  0  0  0
 24 28  1  0  0  0
 25 26  1  0  0  0
 26 27  1  0  0  0
 27 28  1  0  0  0
  4  5  1  0  0  0
  4 10  2  0  0  0
  5  6  2  0  0  0
  6  7  1  0  0  0
  7  8  2  0  0  0
  8  9  1  0  0  0
  8 10  1  0  0  0
  9 11  1  0  0  0
  9 12  1  0  0  0
 17 18  1  0  0  0
 18 19  1  0  0  0
 19 20  1  0  0  0
M  END
> <minimizedAffinity>
-8.00139

$$$$
