CHEMBL3951242


 40 43  0  0  0  0  0  0  0  0999 V2000
  -25.4724   -1.9333  -12.2675 C   0  0  0  0  0  0  0  0  0  0  0  0
  -24.2088   -1.9082  -11.6690 C   0  0  0  0  0  0  0  0  0  0  0  0
  -23.1027   -1.4228  -12.3798 C   0  0  0  0  0  0  0  0  0  0  0  0
  -23.2567   -0.9483  -13.6849 C   0  0  0  0  0  0  0  0  0  0  0  0
  -24.5018   -1.0496  -14.3111 C   0  0  0  0  0  0  0  0  0  0  0  0
  -25.5975   -1.5239  -13.5948 C   0  0  0  0  0  0  0  0  0  0  0  0
  -26.8102   -1.5018  -14.1694 F   0  0  0  0  0  0  0  0  0  0  0  0
  -27.9345   -2.5012   -9.6583 N   0  0  0  0  0  0  0  0  0  0  0  0
  -26.7433   -2.0403  -10.2022 C   0  0  0  0  0  0  0  0  0  0  0  0
  -25.8855   -1.3978   -9.6123 O   0  0  0  0  0  0  0  0  0  0  0  0
  -26.6394   -2.3316  -11.5583 N   0  0  0  0  0  0  0  0  0  0  0  0
  -28.5975   -2.9071  -10.2996 H   0  0  0  0  0  0  0  0  0  0  0  0
  -27.5001   -2.2013  -12.0729 H   0  0  0  0  0  0  0  0  0  0  0  0
  -28.1053    0.4935   -5.7105 C   0  0  0  0  0  0  0  0  0  0  0  0
  -28.4156   -0.8249   -6.3589 C   0  0  0  0  0  0  0  0  0  0  0  0
  -29.0368   -1.8303   -5.6134 C   0  0  0  0  0  0  0  0  0  0  0  0
  -29.3579   -3.0415   -6.2116 C   0  0  0  0  0  0  0  0  0  0  0  0
  -29.0448   -3.2654   -7.5486 C   0  0  0  0  0  0  0  0  0  0  0  0
  -29.5125   -4.4029   -8.0737 F   0  0  0  0  0  0  0  0  0  0  0  0
  -28.3622   -2.3105   -8.3168 C   0  0  0  0  0  0  0  0  0  0  0  0
  -28.0806   -1.0704   -7.7090 C   0  0  0  0  0  0  0  0  0  0  0  0
  -22.1265   -0.4266  -14.2827 O   0  0  0  0  0  0  0  0  0  0  0  0
  -21.9080    0.9378  -14.2550 C   0  0  0  0  0  0  0  0  0  0  0  0
  -22.8396    1.8567  -13.7681 C   0  0  0  0  0  0  0  0  0  0  0  0
  -22.5624    3.2060  -13.8557 C   0  0  0  0  0  0  0  0  0  0  0  0
  -21.4146    3.7309  -14.3159 N   0  0  0  0  0  0  0  0  0  0  0  0
  -20.4609    2.8351  -14.6841 C   0  0  0  0  0  0  0  0  0  0  0  0
  -19.1539    3.1813  -15.1291 C   0  0  0  0  0  0  0  0  0  0  0  0
  -18.3695    2.0821  -15.4144 C   0  0  0  0  0  0  0  0  0  0  0  0
  -19.2470    0.6281  -15.1850 S   0  0  0  0  0  0  0  0  0  0  0  0
  -20.6647    1.4551  -14.6651 C   0  0  0  0  0  0  0  0  0  0  0  0
  -16.9830    2.1002  -15.8579 C   0  0  0  0  0  0  0  0  0  0  0  0
  -16.2957    1.0799  -15.9369 O   0  0  0  0  0  0  0  0  0  0  0  0
  -16.4750    3.3332  -16.1977 N   0  0  0  0  0  0  0  0  0  0  0  0
  -17.0971    4.1305  -16.1973 H   0  0  0  0  0  0  0  0  0  0  0  0
  -15.1185    3.5240  -16.6785 C   0  0  0  0  0  0  0  0  0  0  0  0
  -14.1151    3.7498  -15.5390 C   0  0  0  0  0  0  0  0  0  0  0  0
  -13.8744    5.1776  -15.2988 N   0  0  0  0  0  0  0  0  0  0  0  0
  -13.4417    5.5779  -16.1308 H   0  0  0  0  0  0  0  0  0  0  0  0
  -13.1831    5.2729  -14.5550 H   0  0  0  0  0  0  0  0  0  0  0  0
 14 15  1  0  0  0
 15 16  1  0  0  0
 15 21  2  0  0  0
 16 17  2  0  0  0
 17 18  1  0  0  0
 18 19  1  0  0  0
 18 20  2  0  0  0
 20  8  1  0  0  0
 20 21  1  0  0  0
  8  9  1  0  0  0
  8 12  1  0  0  0
  9 10  2  0  0  0
  9 11  1  0  0  0
 11  1  1  0  0  0
 11 13  1  0  0  0
  1  2  1  0  0  0
  1  6  2  0  0  0
  2  3  2  0  0  0
  3  4  1  0  0  0
  4 22  1  0  0  0
  4  5  2  0  0  0
 22 23  1  0  0  0
 23 24  1  0  0  0
 23 31  2  0  0  0
 24 25  2  0  0  0
 25 26  1  0  0  0
 26 27  2  0  0  0
 27 28  1  0  0  0
 27 31  1  0  0  0
 28 29  2  0  0  0
 29 32  1  0  0  0
 29 30  1  0  0  0
 32 33  2  0  0  0
 32 34  1  0  0  0
 34 36  1  0  0  0
 34 35  1  0  0  0
 36 37  1  0  0  0
 37 38  1  0  0  0
 38 39  1  0  0  0
 38 40  1  0  0  0
 30 31  1  0  0  0
  5  6  1  0  0  0
  6  7  1  0  0  0
M  END
> <minimizedAffinity>
-11.58551

$$$$
