CHEMBL3963883


 39 42  0  0  0  0  0  0  0  0999 V2000
  -25.7031   -1.6153  -12.2377 C   0  0  0  0  0  0  0  0  0  0  0  0
  -25.7328   -1.4479  -13.6288 C   0  0  0  0  0  0  0  0  0  0  0  0
  -24.5911   -1.0628  -14.3393 C   0  0  0  0  0  0  0  0  0  0  0  0
  -23.4014   -0.8052  -13.6656 C   0  0  0  0  0  0  0  0  0  0  0  0
  -23.4144   -0.8364  -12.2684 C   0  0  0  0  0  0  0  0  0  0  0  0
  -22.3246   -0.4966  -11.5617 F   0  0  0  0  0  0  0  0  0  0  0  0
  -24.5412   -1.2595  -11.5561 C   0  0  0  0  0  0  0  0  0  0  0  0
  -26.0682   -1.5995   -9.3864 O   0  0  0  0  0  0  0  0  0  0  0  0
  -26.9141   -2.0984  -10.1281 C   0  0  0  0  0  0  0  0  0  0  0  0
  -26.7893   -2.1585  -11.4982 N   0  0  0  0  0  0  0  0  0  0  0  0
  -28.0987   -2.6511   -9.6600 N   0  0  0  0  0  0  0  0  0  0  0  0
  -27.6314   -2.3721  -12.0220 H   0  0  0  0  0  0  0  0  0  0  0  0
  -28.5476   -3.3290  -10.2595 H   0  0  0  0  0  0  0  0  0  0  0  0
  -28.5121   -2.5939   -8.3070 C   0  0  0  0  0  0  0  0  0  0  0  0
  -29.4392   -3.4940   -7.7676 C   0  0  0  0  0  0  0  0  0  0  0  0
  -29.8433   -3.3996   -6.4377 C   0  0  0  0  0  0  0  0  0  0  0  0
  -29.3113   -2.4087   -5.6271 C   0  0  0  0  0  0  0  0  0  0  0  0
  -29.6488   -2.4083   -4.3311 F   0  0  0  0  0  0  0  0  0  0  0  0
  -28.4097   -1.4773   -6.1410 C   0  0  0  0  0  0  0  0  0  0  0  0
  -27.9761   -1.6060   -7.4732 C   0  0  0  0  0  0  0  0  0  0  0  0
  -27.8381   -0.4570   -5.4408 O   0  0  0  0  0  0  0  0  0  0  0  0
  -28.5444    0.7758   -5.3131 C   0  0  0  0  0  0  0  0  0  0  0  0
  -29.8733    0.6549   -5.1308 F   0  0  0  0  0  0  0  0  0  0  0  0
  -28.0113    1.4920   -4.3009 F   0  0  0  0  0  0  0  0  0  0  0  0
  -28.3631    1.4767   -6.4579 F   0  0  0  0  0  0  0  0  0  0  0  0
  -22.3211   -0.4794  -14.4563 O   0  0  0  0  0  0  0  0  0  0  0  0
  -21.8183    0.8047  -14.4532 C   0  0  0  0  0  0  0  0  0  0  0  0
  -22.4852    1.9072  -13.9309 C   0  0  0  0  0  0  0  0  0  0  0  0
  -21.8971    3.1413  -14.0895 C   0  0  0  0  0  0  0  0  0  0  0  0
  -20.6866    3.3180  -14.6452 N   0  0  0  0  0  0  0  0  0  0  0  0
  -20.0024    2.2472  -15.0786 C   0  0  0  0  0  0  0  0  0  0  0  0
  -20.5350    0.9648  -14.9913 C   0  0  0  0  0  0  0  0  0  0  0  0
  -18.7206    2.4311  -15.6377 N   0  0  0  0  0  0  0  0  0  0  0  0
  -17.5539    2.0678  -14.9961 C   0  0  0  0  0  0  0  0  0  0  0  0
  -17.4460    1.5559  -13.8901 O   0  0  0  0  0  0  0  0  0  0  0  0
  -18.6666    2.8755  -16.5384 H   0  0  0  0  0  0  0  0  0  0  0  0
  -16.2691    2.3371  -15.7117 C   0  0  0  0  0  0  0  0  0  0  0  0
  -15.5610    1.2033  -16.4164 C   0  0  0  0  0  0  0  0  0  0  0  0
  -14.8813    1.9355  -15.2945 C   0  0  0  0  0  0  0  0  0  0  0  0
  8  9  2  0  0  0
  9 10  1  0  0  0
  9 11  1  0  0  0
 10  1  1  0  0  0
 10 12  1  0  0  0
  1  2  1  0  0  0
  1  7  2  0  0  0
  2  3  2  0  0  0
  3  4  1  0  0  0
  4 26  1  0  0  0
  4  5  2  0  0  0
 26 27  1  0  0  0
 27 28  1  0  0  0
 27 32  2  0  0  0
 28 29  2  0  0  0
 29 30  1  0  0  0
 30 31  2  0  0  0
 31 33  1  0  0  0
 31 32  1  0  0  0
 33 34  1  0  0  0
 33 36  1  0  0  0
 34 35  2  0  0  0
 34 37  1  0  0  0
 37 38  1  0  0  0
 37 39  1  0  0  0
 38 39  1  0  0  0
  5  6  1  0  0  0
  5  7  1  0  0  0
 11 14  1  0  0  0
 11 13  1  0  0  0
 14 15  1  0  0  0
 14 20  2  0  0  0
 15 16  2  0  0  0
 16 17  1  0  0  0
 17 18  1  0  0  0
 17 19  2  0  0  0
 19 21  1  0  0  0
 19 20  1  0  0  0
 21 22  1  0  0  0
 22 23  1  0  0  0
 22 24  1  0  0  0
 22 25  1  0  0  0
M  END
> <minimizedAffinity>
-12.14315

$$$$
