CHEMBL3690437


 42 45  0  0  0  0  0  0  0  0999 V2000
  -14.2045   -0.9649  -13.8725 C   0  0  0  0  0  0  0  0  0  0  0  0
  -15.5205   -0.9856  -13.2319 C   0  0  0  0  0  0  0  0  0  0  0  0
  -16.4998   -0.1945  -13.6967 C   0  0  0  0  0  0  0  0  0  0  0  0
  -16.2703    0.6449  -14.7891 N   0  0  0  0  0  0  0  0  0  0  0  0
  -17.0992    1.5503  -15.4446 C   0  0  0  0  0  0  0  0  0  0  0  0
  -16.2654    2.1274  -16.3954 C   0  0  0  0  0  0  0  0  0  0  0  0
  -15.0032    1.6012  -16.3758 N   0  0  0  0  0  0  0  0  0  0  0  0
  -15.0226    0.7141  -15.4097 C   0  0  0  0  0  0  0  0  0  0  0  0
  -13.9893   -0.1323  -14.9176 C   0  0  0  0  0  0  0  0  0  0  0  0
  -18.5061    1.8600  -15.1541 C   0  0  0  0  0  0  0  0  0  0  0  0
  -18.8965    3.2068  -15.1055 C   0  0  0  0  0  0  0  0  0  0  0  0
  -20.2093    3.5563  -14.8399 C   0  0  0  0  0  0  0  0  0  0  0  0
  -21.1665    2.5642  -14.6471 C   0  0  0  0  0  0  0  0  0  0  0  0
  -20.8397    1.2114  -14.7470 C   0  0  0  0  0  0  0  0  0  0  0  0
  -19.4999    0.8721  -14.9778 C   0  0  0  0  0  0  0  0  0  0  0  0
  -21.8112    0.1805  -14.6609 N   0  0  0  0  0  0  0  0  0  0  0  0
  -22.4620   -0.2097  -13.5130 C   0  0  0  0  0  0  0  0  0  0  0  0
  -22.2986    0.2583  -12.3868 O   0  0  0  0  0  0  0  0  0  0  0  0
  -23.3291   -1.2593  -13.6819 N   0  0  0  0  0  0  0  0  0  0  0  0
  -22.0959   -0.2632  -15.5270 H   0  0  0  0  0  0  0  0  0  0  0  0
  -23.7313   -1.4277  -14.5929 H   0  0  0  0  0  0  0  0  0  0  0  0
  -24.0655   -1.7296  -12.4947 C   0  0  0  0  0  0  0  0  0  0  0  0
  -25.5662   -1.4045  -12.4365 C   0  0  0  0  0  0  0  0  0  0  0  0
  -25.8076   -0.1539  -11.9836 F   0  0  0  0  0  0  0  0  0  0  0  0
  -26.0989   -1.4797  -13.6834 F   0  0  0  0  0  0  0  0  0  0  0  0
  -26.2492   -2.2727  -11.6605 F   0  0  0  0  0  0  0  0  0  0  0  0
  -13.1065   -1.8647  -13.3398 C   0  0  0  0  0  0  0  0  0  0  0  0
  -12.5491   -2.7510  -14.4371 C   0  0  0  0  0  0  0  0  0  0  0  0
  -12.9818   -3.9472  -14.6806 N   0  0  0  0  0  0  0  0  0  0  0  0
  -13.7395   -4.2110  -14.0439 H   0  0  0  0  0  0  0  0  0  0  0  0
  -12.8829   -3.5926  -11.6307 N   0  0  0  0  0  0  0  0  0  0  0  0
  -13.5936   -2.6451  -12.1354 C   0  0  0  0  0  0  0  0  0  0  0  0
  -13.8951   -6.9363  -11.6077 N   0  0  0  0  0  0  0  0  0  0  0  0
  -12.5257   -6.5067  -11.2222 C   0  0  0  0  0  0  0  0  0  0  0  0
  -12.5789   -5.4859  -10.0914 C   0  0  0  0  0  0  0  0  0  0  0  0
  -13.4463   -4.2859  -10.4626 C   0  0  0  0  0  0  0  0  0  0  0  0
  -14.8457   -4.7728  -10.8337 C   0  0  0  0  0  0  0  0  0  0  0  0
  -14.8056   -5.8118  -11.9516 C   0  0  0  0  0  0  0  0  0  0  0  0
  -12.5704   -7.9931  -13.7476 C   0  0  0  0  0  0  0  0  0  0  0  0
  -13.9628   -8.2762  -12.6646 S   0  0  0  0  0  0  0  0  0  0  0  0
  -15.1689   -8.1618  -13.4566 O   0  0  0  0  0  0  0  0  0  0  0  0
  -13.6856   -9.4678  -11.8913 O   0  0  0  0  0  0  0  0  0  0  0  0
 39 40  1  0  0  0
 40 41  2  0  0  0
 40 42  2  0  0  0
 40 33  1  0  0  0
 33 34  1  0  0  0
 33 38  1  0  0  0
 34 35  1  0  0  0
 35 36  1  0  0  0
 36 31  1  0  0  0
 36 37  1  0  0  0
 31 32  2  0  0  0
 32 27  1  0  0  0
 27 28  1  0  0  0
 27  1  1  0  0  0
 28 29  2  0  0  0
 29 30  1  0  0  0
  1  2  1  0  0  0
  1  9  2  0  0  0
  2  3  2  0  0  0
  3  4  1  0  0  0
  4  5  1  0  0  0
  4  8  1  0  0  0
  5 10  1  0  0  0
  5  6  2  0  0  0
 10 11  1  0  0  0
 10 15  2  0  0  0
 11 12  2  0  0  0
 12 13  1  0  0  0
 13 14  2  0  0  0
 14 16  1  0  0  0
 14 15  1  0  0  0
 16 17  1  0  0  0
 16 20  1  0  0  0
 17 18  2  0  0  0
 17 19  1  0  0  0
 19 22  1  0  0  0
 19 21  1  0  0  0
 22 23  1  0  0  0
 23 24  1  0  0  0
 23 25  1  0  0  0
 23 26  1  0  0  0
  6  7  1  0  0  0
  7  8  2  0  0  0
  8  9  1  0  0  0
 37 38  1  0  0  0
M  END
> <minimizedAffinity>
-9.69155

$$$$
