CHEMBL2002407


 25 26  0  0  0  0  0  0  0  0999 V2000
  -30.4791   -5.5431   -7.4996 C   0  0  0  0  0  0  0  0  0  0  0  0
  -30.5366   -6.7062   -6.8137 C   0  0  0  0  0  0  0  0  0  0  0  0
  -31.2704   -7.8444   -7.2945 C   0  0  0  0  0  0  0  0  0  0  0  0
  -32.5549   -8.0732   -6.9797 N   0  0  0  0  0  0  0  0  0  0  0  0
  -32.8215   -9.2674   -7.5365 N   0  0  0  0  0  0  0  0  0  0  0  0
  -31.7736   -9.7989   -8.2406 C   0  0  0  0  0  0  0  0  0  0  0  0
  -31.8782  -10.9842   -8.8735 N   0  0  0  0  0  0  0  0  0  0  0  0
  -30.7476   -8.8856   -8.1082 C   0  0  0  0  0  0  0  0  0  0  0  0
  -33.7410   -9.6704   -7.3962 H   0  0  0  0  0  0  0  0  0  0  0  0
  -32.6834  -11.6023   -8.7966 H   0  0  0  0  0  0  0  0  0  0  0  0
  -31.0814  -11.4218   -9.3372 H   0  0  0  0  0  0  0  0  0  0  0  0
  -29.4390   -8.9979   -8.6608 C   0  0  0  0  0  0  0  0  0  0  0  0
  -28.3724   -9.1036   -9.1104 N   0  0  0  0  0  0  0  0  0  0  0  0
  -28.1008   -2.5623   -7.6157 C   0  0  0  0  0  0  0  0  0  0  0  0
  -28.7633   -3.7456   -7.9631 C   0  0  0  0  0  0  0  0  0  0  0  0
  -29.7663   -4.2944   -7.1507 C   0  0  0  0  0  0  0  0  0  0  0  0
  -30.1535   -3.5844   -6.0049 C   0  0  0  0  0  0  0  0  0  0  0  0
  -29.5210   -2.3860   -5.6560 C   0  0  0  0  0  0  0  0  0  0  0  0
  -28.4922   -1.8889   -6.4546 C   0  0  0  0  0  0  0  0  0  0  0  0
  -27.8609   -0.7240   -6.1104 O   0  0  0  0  0  0  0  0  0  0  0  0
  -28.2260   -0.3942   -5.2755 H   0  0  0  0  0  0  0  0  0  0  0  0
  -27.2286   -2.0100   -9.7637 C   0  0  0  0  0  0  0  0  0  0  0  0
  -27.0875   -1.9980   -8.3476 O   0  0  0  0  0  0  0  0  0  0  0  0
  -29.9078   -6.9135   -5.5475 C   0  0  0  0  0  0  0  0  0  0  0  0
  -29.4136   -7.1296   -4.5180 N   0  0  0  0  0  0  0  0  0  0  0  0
 22 23  1  0  0  0
 23 14  1  0  0  0
 14 15  1  0  0  0
 14 19  2  0  0  0
 15 16  2  0  0  0
 16  1  1  0  0  0
 16 17  1  0  0  0
  1  2  2  0  0  0
  2 24  1  0  0  0
  2  3  1  0  0  0
 24 25  3  0  0  0
  3  4  2  0  0  0
  3  8  1  0  0  0
  4  5  1  0  0  0
  5  6  1  0  0  0
  5  9  1  0  0  0
  6  7  1  0  0  0
  6  8  2  0  0  0
  7 10  1  0  0  0
  7 11  1  0  0  0
  8 12  1  0  0  0
 12 13  3  0  0  0
 17 18  2  0  0  0
 18 19  1  0  0  0
 19 20  1  0  0  0
 20 21  1  0  0  0
M  END
> <minimizedAffinity>
-7.43186

$$$$
