CHEMBL365784


 33 36  0  0  0  0  0  0  0  0999 V2000
  -28.5876   -5.8351   -4.3365 C   0  0  0  0  0  0  0  0  0  0  0  0
  -27.5319   -6.7450   -4.4234 C   0  0  0  0  0  0  0  0  0  0  0  0
  -27.7299   -8.0176   -4.9559 C   0  0  0  0  0  0  0  0  0  0  0  0
  -29.0078   -8.4566   -5.3172 C   0  0  0  0  0  0  0  0  0  0  0  0
  -30.0833   -7.5792   -5.1032 C   0  0  0  0  0  0  0  0  0  0  0  0
  -29.8771   -6.2706   -4.6351 C   0  0  0  0  0  0  0  0  0  0  0  0
  -29.1992   -9.7808   -5.9397 C   0  0  0  0  0  0  0  0  0  0  0  0
  -29.3387  -10.9376   -5.1669 C   0  0  0  0  0  0  0  0  0  0  0  0
  -29.3689  -11.1638   -3.6835 C   0  0  0  0  0  0  0  0  0  0  0  0
  -29.4935  -12.3419   -6.1358 S   0  0  0  0  0  0  0  0  0  0  0  0
  -29.4206  -11.4540   -7.5731 C   0  0  0  0  0  0  0  0  0  0  0  0
  -29.5163  -12.1072   -8.7439 N   0  0  0  0  0  0  0  0  0  0  0  0
  -29.4365  -11.2910   -9.7876 C   0  0  0  0  0  0  0  0  0  0  0  0
  -29.2547   -9.9684   -9.7666 N   0  0  0  0  0  0  0  0  0  0  0  0
  -29.1424   -9.3459   -8.5754 C   0  0  0  0  0  0  0  0  0  0  0  0
  -28.9074   -7.9776   -8.6681 N   0  0  0  0  0  0  0  0  0  0  0  0
  -29.2434  -10.0897   -7.3754 C   0  0  0  0  0  0  0  0  0  0  0  0
  -28.6765   -7.7460   -9.6284 H   0  0  0  0  0  0  0  0  0  0  0  0
  -28.2494   -7.6345   -7.9781 H   0  0  0  0  0  0  0  0  0  0  0  0
  -28.4101   -2.2145   -4.4996 N   0  0  0  0  0  0  0  0  0  0  0  0
  -28.6802   -3.4927   -4.9583 C   0  0  0  0  0  0  0  0  0  0  0  0
  -29.1937   -3.7366   -6.0445 O   0  0  0  0  0  0  0  0  0  0  0  0
  -28.3516   -4.4712   -4.0329 N   0  0  0  0  0  0  0  0  0  0  0  0
  -27.7676   -2.1364   -3.7216 H   0  0  0  0  0  0  0  0  0  0  0  0
  -28.4427   -4.1979   -3.0649 H   0  0  0  0  0  0  0  0  0  0  0  0
  -29.6749    1.3282   -6.4522 C   0  0  0  0  0  0  0  0  0  0  0  0
  -28.3564    0.9076   -6.5708 C   0  0  0  0  0  0  0  0  0  0  0  0
  -27.9311   -0.2552   -5.9273 C   0  0  0  0  0  0  0  0  0  0  0  0
  -28.8026   -1.0145   -5.1432 C   0  0  0  0  0  0  0  0  0  0  0  0
  -30.1246   -0.5861   -5.0150 C   0  0  0  0  0  0  0  0  0  0  0  0
  -30.5539    0.5799   -5.6666 C   0  0  0  0  0  0  0  0  0  0  0  0
  -31.6146    2.4265   -7.2564 C   0  0  0  0  0  0  0  0  0  0  0  0
  -30.2033    2.4363   -7.0557 O   0  0  0  0  0  0  0  0  0  0  0  0
 32 33  1  0  0  0
 33 26  1  0  0  0
 26 27  1  0  0  0
 26 31  2  0  0  0
 27 28  2  0  0  0
 28 29  1  0  0  0
 29 20  1  0  0  0
 29 30  2  0  0  0
 20 21  1  0  0  0
 20 24  1  0  0  0
 21 22  2  0  0  0
 21 23  1  0  0  0
 23  1  1  0  0  0
 23 25  1  0  0  0
  1  2  1  0  0  0
  1  6  2  0  0  0
  2  3  2  0  0  0
  3  4  1  0  0  0
  4  7  1  0  0  0
  4  5  2  0  0  0
  7  8  2  0  0  0
  7 17  1  0  0  0
  8  9  1  0  0  0
  8 10  1  0  0  0
 10 11  1  0  0  0
 11 12  1  0  0  0
 11 17  2  0  0  0
 12 13  2  0  0  0
 13 14  1  0  0  0
 14 15  2  0  0  0
 15 16  1  0  0  0
 15 17  1  0  0  0
 16 18  1  0  0  0
 16 19  1  0  0  0
  5  6  1  0  0  0
 30 31  1  0  0  0
M  END
> <minimizedAffinity>
-7.30066

$$$$
