CHEMBL1965169


 18 20  0  0  0  0  0  0  0  0999 V2000
  -22.6762    0.3076  -13.6226 C   0  0  0  0  0  0  0  0  0  0  0  0
  -23.0833    0.1855  -12.2978 C   0  0  0  0  0  0  0  0  0  0  0  0
  -24.3120   -0.5122  -12.2754 C   0  0  0  0  0  0  0  0  0  0  0  0
  -25.1475   -0.8049  -11.2449 N   0  0  0  0  0  0  0  0  0  0  0  0
  -26.2755   -1.4369  -11.6460 C   0  0  0  0  0  0  0  0  0  0  0  0
  -27.5743   -1.8460  -10.3240 Br  0  0  0  0  0  0  0  0  0  0  0  0
  -26.5402   -1.7785  -12.9718 C   0  0  0  0  0  0  0  0  0  0  0  0
  -25.7065   -1.5179  -14.0145 N   0  0  0  0  0  0  0  0  0  0  0  0
  -24.6060   -0.8649  -13.5867 C   0  0  0  0  0  0  0  0  0  0  0  0
  -23.5881   -0.4116  -14.3745 N   0  0  0  0  0  0  0  0  0  0  0  0
  -23.5542   -0.5505  -15.3730 H   0  0  0  0  0  0  0  0  0  0  0  0
  -18.1765    3.2198  -15.8249 C   0  0  0  0  0  0  0  0  0  0  0  0
  -19.3448    2.4573  -15.2750 C   0  0  0  0  0  0  0  0  0  0  0  0
  -19.3722    1.0600  -15.2980 C   0  0  0  0  0  0  0  0  0  0  0  0
  -20.4668    0.3610  -14.7747 C   0  0  0  0  0  0  0  0  0  0  0  0
  -21.5544    1.0431  -14.2133 C   0  0  0  0  0  0  0  0  0  0  0  0
  -21.5163    2.4456  -14.1910 C   0  0  0  0  0  0  0  0  0  0  0  0
  -20.4252    3.1445  -14.7162 C   0  0  0  0  0  0  0  0  0  0  0  0
 12 13  1  0  0  0
 13 14  1  0  0  0
 13 18  2  0  0  0
 14 15  2  0  0  0
 15 16  1  0  0  0
 16  1  1  0  0  0
 16 17  2  0  0  0
  1  2  2  0  0  0
  1 10  1  0  0  0
  2  3  1  0  0  0
  3  4  1  0  0  0
  3  9  2  0  0  0
  4  5  2  0  0  0
  5  6  1  0  0  0
  5  7  1  0  0  0
  7  8  2  0  0  0
  8  9  1  0  0  0
  9 10  1  0  0  0
 10 11  1  0  0  0
 17 18  1  0  0  0
M  END
> <minimizedAffinity>
-8.90751

$$$$
