CHEMBL3947281


 29 32  0  0  0  0  0  0  0  0999 V2000
  -27.7949   -7.6158   -5.6448 N   0  0  0  0  0  0  0  0  0  0  0  0
  -29.0254   -7.6547   -6.2321 C   0  0  0  0  0  0  0  0  0  0  0  0
  -30.1756   -6.9906   -5.8488 C   0  0  0  0  0  0  0  0  0  0  0  0
  -31.1345   -7.3537   -6.8167 C   0  0  0  0  0  0  0  0  0  0  0  0
  -30.6439   -8.1793   -7.7416 N   0  0  0  0  0  0  0  0  0  0  0  0
  -29.3387   -8.3367   -7.4174 N   0  0  0  0  0  0  0  0  0  0  0  0
  -27.6476   -6.8891   -4.9352 H   0  0  0  0  0  0  0  0  0  0  0  0
  -26.9582   -7.7360   -6.2105 H   0  0  0  0  0  0  0  0  0  0  0  0
  -28.4752   -9.1385   -8.2163 C   0  0  0  0  0  0  0  0  0  0  0  0
  -27.8734   -8.5575   -9.3481 C   0  0  0  0  0  0  0  0  0  0  0  0
  -27.0836   -9.3257  -10.1933 C   0  0  0  0  0  0  0  0  0  0  0  0
  -26.5193   -8.7896  -11.3126 O   0  0  0  0  0  0  0  0  0  0  0  0
  -26.8515  -10.6629   -9.9216 C   0  0  0  0  0  0  0  0  0  0  0  0
  -27.4135  -11.2416   -8.7824 C   0  0  0  0  0  0  0  0  0  0  0  0
  -28.2238  -10.4902   -7.9205 C   0  0  0  0  0  0  0  0  0  0  0  0
  -28.9518  -11.3799   -6.6254 Cl  0  0  0  0  0  0  0  0  0  0  0  0
  -26.7249   -7.8392  -11.3497 H   0  0  0  0  0  0  0  0  0  0  0  0
  -30.2869   -6.0776   -4.7244 C   0  0  0  0  0  0  0  0  0  0  0  0
  -30.6734   -6.4505   -3.6180 O   0  0  0  0  0  0  0  0  0  0  0  0
  -29.9071   -4.6554   -4.9031 C   0  0  0  0  0  0  0  0  0  0  0  0
  -30.1592   -3.6951   -3.9200 C   0  0  0  0  0  0  0  0  0  0  0  0
  -29.7771   -2.3669   -4.1314 C   0  0  0  0  0  0  0  0  0  0  0  0
  -29.1307   -1.9713   -5.2928 C   0  0  0  0  0  0  0  0  0  0  0  0
  -28.7862   -0.6832   -5.4464 N   0  0  0  0  0  0  0  0  0  0  0  0
  -28.1509   -0.3287   -6.5838 C   0  0  0  0  0  0  0  0  0  0  0  0
  -27.8351   -1.2124   -7.5986 C   0  0  0  0  0  0  0  0  0  0  0  0
  -28.1930   -2.5448   -7.4384 C   0  0  0  0  0  0  0  0  0  0  0  0
  -28.8545   -2.9485   -6.2728 C   0  0  0  0  0  0  0  0  0  0  0  0
  -29.2366   -4.2847   -6.0714 C   0  0  0  0  0  0  0  0  0  0  0  0
  1  2  1  0  0  0
  1  7  1  0  0  0
  1  8  1  0  0  0
  2  3  2  0  0  0
  2  6  1  0  0  0
  3 18  1  0  0  0
  3  4  1  0  0  0
 18 19  2  0  0  0
 18 20  1  0  0  0
 20 21  1  0  0  0
 20 29  2  0  0  0
 21 22  2  0  0  0
 22 23  1  0  0  0
 23 24  1  0  0  0
 23 28  2  0  0  0
 24 25  2  0  0  0
 25 26  1  0  0  0
 26 27  2  0  0  0
 27 28  1  0  0  0
 28 29  1  0  0  0
  4  5  2  0  0  0
  5  6  1  0  0  0
  6  9  1  0  0  0
  9 10  1  0  0  0
  9 15  2  0  0  0
 10 11  2  0  0  0
 11 12  1  0  0  0
 11 13  1  0  0  0
 12 17  1  0  0  0
 13 14  2  0  0  0
 14 15  1  0  0  0
 15 16  1  0  0  0
M  END
> <minimizedAffinity>
-9.08543

$$$$
