CHEMBL4074713


 31 34  0  0  0  0  0  0  0  0999 V2000
  -28.2695   -2.4141   -8.0588 C   0  0  0  0  0  0  0  0  0  0  0  0
  -27.8746   -2.2813   -6.7290 C   0  0  0  0  0  0  0  0  0  0  0  0
  -28.1347   -3.3002   -5.8054 C   0  0  0  0  0  0  0  0  0  0  0  0
  -28.8232   -4.4718   -6.1726 C   0  0  0  0  0  0  0  0  0  0  0  0
  -29.3298   -4.5103   -7.4806 C   0  0  0  0  0  0  0  0  0  0  0  0
  -29.0426   -3.5124   -8.4245 C   0  0  0  0  0  0  0  0  0  0  0  0
  -29.0185   -5.5780   -5.2090 C   0  0  0  0  0  0  0  0  0  0  0  0
  -28.1792   -6.7166   -5.2417 C   0  0  0  0  0  0  0  0  0  0  0  0
  -28.3611   -7.7636   -4.3502 C   0  0  0  0  0  0  0  0  0  0  0  0
  -29.2998   -7.8070   -3.3912 N   0  0  0  0  0  0  0  0  0  0  0  0
  -30.0888   -6.7186   -3.3852 C   0  0  0  0  0  0  0  0  0  0  0  0
  -31.1148   -6.5261   -2.5148 N   0  0  0  0  0  0  0  0  0  0  0  0
  -31.7823   -5.3814   -2.7028 N   0  0  0  0  0  0  0  0  0  0  0  0
  -31.1658   -4.8210   -3.7574 C   0  0  0  0  0  0  0  0  0  0  0  0
  -31.7265   -3.5368   -4.2524 C   0  0  0  0  0  0  0  0  0  0  0  0
  -30.0464   -5.6017   -4.2198 C   0  0  0  0  0  0  0  0  0  0  0  0
  -31.4034   -7.1525   -1.7747 H   0  0  0  0  0  0  0  0  0  0  0  0
  -26.6713   -0.8320  -10.9055 N   0  0  0  0  0  0  0  0  0  0  0  0
  -27.0284   -1.8817  -10.0738 C   0  0  0  0  0  0  0  0  0  0  0  0
  -26.7110   -3.0570  -10.2375 O   0  0  0  0  0  0  0  0  0  0  0  0
  -27.8733   -1.4761   -9.0444 N   0  0  0  0  0  0  0  0  0  0  0  0
  -27.1429    0.0490  -10.7473 H   0  0  0  0  0  0  0  0  0  0  0  0
  -28.5698   -0.8002   -9.3182 H   0  0  0  0  0  0  0  0  0  0  0  0
  -22.3737    0.2475  -13.0952 C   0  0  0  0  0  0  0  0  0  0  0  0
  -23.7446   -0.3625  -13.1584 C   0  0  0  0  0  0  0  0  0  0  0  0
  -24.2006   -0.9274  -14.3531 C   0  0  0  0  0  0  0  0  0  0  0  0
  -25.4521   -1.5281  -14.4013 C   0  0  0  0  0  0  0  0  0  0  0  0
  -26.2623   -1.5496  -13.2704 C   0  0  0  0  0  0  0  0  0  0  0  0
  -27.3867   -2.2683  -13.3686 F   0  0  0  0  0  0  0  0  0  0  0  0
  -25.8660   -0.9328  -12.0705 C   0  0  0  0  0  0  0  0  0  0  0  0
  -24.5803   -0.3669  -12.0244 C   0  0  0  0  0  0  0  0  0  0  0  0
 24 25  1  0  0  0
 25 26  1  0  0  0
 25 31  2  0  0  0
 26 27  2  0  0  0
 27 28  1  0  0  0
 28 29  1  0  0  0
 28 30  2  0  0  0
 30 18  1  0  0  0
 30 31  1  0  0  0
 18 19  1  0  0  0
 18 22  1  0  0  0
 19 20  2  0  0  0
 19 21  1  0  0  0
 21  1  1  0  0  0
 21 23  1  0  0  0
  1  2  1  0  0  0
  1  6  2  0  0  0
  2  3  2  0  0  0
  3  4  1  0  0  0
  4  7  1  0  0  0
  4  5  2  0  0  0
  7  8  1  0  0  0
  7 16  2  0  0  0
  8  9  2  0  0  0
  9 10  1  0  0  0
 10 11  2  0  0  0
 11 12  1  0  0  0
 11 16  1  0  0  0
 12 13  1  0  0  0
 12 17  1  0  0  0
 13 14  2  0  0  0
 14 15  1  0  0  0
 14 16  1  0  0  0
  5  6  1  0  0  0
M  END
> <minimizedAffinity>
-9.83666

$$$$
