CHEMBL3656025


 41 44  0  0  0  0  0  0  0  0999 V2000
  -22.8515    0.1300  -13.4333 C   0  0  0  0  0  0  0  0  0  0  0  0
  -23.6563    1.2481  -13.2633 C   0  0  0  0  0  0  0  0  0  0  0  0
  -23.1630    2.4811  -13.6515 C   0  0  0  0  0  0  0  0  0  0  0  0
  -21.9161    2.6772  -14.1332 N   0  0  0  0  0  0  0  0  0  0  0  0
  -21.1358    1.5758  -14.2439 C   0  0  0  0  0  0  0  0  0  0  0  0
  -21.5511    0.2999  -13.8810 C   0  0  0  0  0  0  0  0  0  0  0  0
  -19.8218    1.7897  -14.8379 C   0  0  0  0  0  0  0  0  0  0  0  0
  -18.7156    0.9532  -14.8903 C   0  0  0  0  0  0  0  0  0  0  0  0
  -17.6394    1.6380  -15.5226 C   0  0  0  0  0  0  0  0  0  0  0  0
  -18.1542    2.8725  -15.8792 C   0  0  0  0  0  0  0  0  0  0  0  0
  -19.4747    2.9346  -15.5113 N   0  0  0  0  0  0  0  0  0  0  0  0
  -20.1016    3.7158  -15.6711 H   0  0  0  0  0  0  0  0  0  0  0  0
  -16.2764    1.1740  -15.7500 C   0  0  0  0  0  0  0  0  0  0  0  0
  -15.6239    1.4816  -16.7562 O   0  0  0  0  0  0  0  0  0  0  0  0
  -15.7695    0.3560  -14.7731 N   0  0  0  0  0  0  0  0  0  0  0  0
  -16.3334    0.1006  -13.9691 H   0  0  0  0  0  0  0  0  0  0  0  0
  -14.4371   -0.1895  -14.8403 C   0  0  0  0  0  0  0  0  0  0  0  0
  -13.7532   -0.1072  -13.4844 C   0  0  0  0  0  0  0  0  0  0  0  0
  -12.9532   -0.9372  -13.0638 O   0  0  0  0  0  0  0  0  0  0  0  0
  -14.1073    0.9840  -12.7675 O   0  0  0  0  0  0  0  0  0  0  0  0
  -14.7504    1.5675  -13.2148 H   0  0  0  0  0  0  0  0  0  0  0  0
  -23.2636   -1.1656  -13.1946 O   0  0  0  0  0  0  0  0  0  0  0  0
  -26.3420   -1.6941  -11.2730 C   0  0  0  0  0  0  0  0  0  0  0  0
  -27.3008   -1.7141  -12.3036 C   0  0  0  0  0  0  0  0  0  0  0  0
  -26.9053   -1.7387  -13.6425 C   0  0  0  0  0  0  0  0  0  0  0  0
  -25.5594   -1.6444  -13.9618 C   0  0  0  0  0  0  0  0  0  0  0  0
  -25.2242   -1.7385  -15.2574 F   0  0  0  0  0  0  0  0  0  0  0  0
  -24.6045   -1.4201  -12.9624 C   0  0  0  0  0  0  0  0  0  0  0  0
  -24.9945   -1.4933  -11.6123 C   0  0  0  0  0  0  0  0  0  0  0  0
  -27.5099   -3.0756   -9.5805 N   0  0  0  0  0  0  0  0  0  0  0  0
  -26.8186   -1.8929   -9.8621 C   0  0  0  0  0  0  0  0  0  0  0  0
  -26.5450   -1.0179   -9.0644 O   0  0  0  0  0  0  0  0  0  0  0  0
  -27.6494   -3.7319  -10.3320 H   0  0  0  0  0  0  0  0  0  0  0  0
  -29.4275   -1.6174   -5.2220 C   0  0  0  0  0  0  0  0  0  0  0  0
  -29.0548   -2.7116   -6.1858 C   0  0  0  0  0  0  0  0  0  0  0  0
  -29.2996   -4.0447   -5.8397 C   0  0  0  0  0  0  0  0  0  0  0  0
  -28.8804   -5.0671   -6.6800 C   0  0  0  0  0  0  0  0  0  0  0  0
  -28.2515   -4.7648   -7.8901 C   0  0  0  0  0  0  0  0  0  0  0  0
  -27.7411   -5.8016   -8.5674 F   0  0  0  0  0  0  0  0  0  0  0  0
  -28.0797   -3.4388   -8.3216 C   0  0  0  0  0  0  0  0  0  0  0  0
  -28.4497   -2.4162   -7.4274 C   0  0  0  0  0  0  0  0  0  0  0  0
 34 35  1  0  0  0
 35 36  1  0  0  0
 35 41  2  0  0  0
 36 37  2  0  0  0
 37 38  1  0  0  0
 38 39  1  0  0  0
 38 40  2  0  0  0
 40 30  1  0  0  0
 40 41  1  0  0  0
 30 31  1  0  0  0
 30 33  1  0  0  0
 31 32  2  0  0  0
 31 23  1  0  0  0
 23 24  1  0  0  0
 23 29  2  0  0  0
 24 25  2  0  0  0
 25 26  1  0  0  0
 26 27  1  0  0  0
 26 28  2  0  0  0
 28 22  1  0  0  0
 28 29  1  0  0  0
 22  1  1  0  0  0
  1  2  1  0  0  0
  1  6  2  0  0  0
  2  3  2  0  0  0
  3  4  1  0  0  0
  4  5  2  0  0  0
  5  7  1  0  0  0
  5  6  1  0  0  0
  7  8  2  0  0  0
  7 11  1  0  0  0
  8  9  1  0  0  0
  9 13  1  0  0  0
  9 10  2  0  0  0
 13 14  2  0  0  0
 13 15  1  0  0  0
 15 17  1  0  0  0
 15 16  1  0  0  0
 17 18  1  0  0  0
 18 19  2  0  0  0
 18 20  1  0  0  0
 20 21  1  0  0  0
 10 11  1  0  0  0
 11 12  1  0  0  0
M  END
> <minimizedAffinity>
-11.30296

$$$$
