CHEMBL231568


 38 42  0  0  0  0  0  0  0  0999 V2000
  -22.2816    1.6280  -14.0507 C   0  0  0  0  0  0  0  0  0  0  0  0
  -21.8338    2.9511  -13.8879 C   0  0  0  0  0  0  0  0  0  0  0  0
  -20.5054    3.3130  -14.1449 C   0  0  0  0  0  0  0  0  0  0  0  0
  -19.7003    2.2987  -14.6397 C   0  0  0  0  0  0  0  0  0  0  0  0
  -18.3951    2.3879  -15.0196 O   0  0  0  0  0  0  0  0  0  0  0  0
  -18.1042    1.1351  -15.4887 C   0  0  0  0  0  0  0  0  0  0  0  0
  -19.0922    0.2708  -15.3924 N   0  0  0  0  0  0  0  0  0  0  0  0
  -20.1170    0.9983  -14.8601 C   0  0  0  0  0  0  0  0  0  0  0  0
  -21.4298    0.6347  -14.5518 C   0  0  0  0  0  0  0  0  0  0  0  0
  -16.8554    0.9833  -15.9540 N   0  0  0  0  0  0  0  0  0  0  0  0
  -16.7524    0.9034  -16.9579 H   0  0  0  0  0  0  0  0  0  0  0  0
  -15.6746    1.1887  -15.2241 C   0  0  0  0  0  0  0  0  0  0  0  0
  -14.8063    2.2652  -15.4491 C   0  0  0  0  0  0  0  0  0  0  0  0
  -13.5928    2.3678  -14.7657 C   0  0  0  0  0  0  0  0  0  0  0  0
  -13.2136    1.3680  -13.8702 C   0  0  0  0  0  0  0  0  0  0  0  0
  -11.6823    1.5147  -13.0883 Cl  0  0  0  0  0  0  0  0  0  0  0  0
  -14.0511    0.2644  -13.6447 C   0  0  0  0  0  0  0  0  0  0  0  0
  -15.2919    0.2146  -14.2946 C   0  0  0  0  0  0  0  0  0  0  0  0
  -13.6098   -0.7306  -12.8030 O   0  0  0  0  0  0  0  0  0  0  0  0
  -13.6783   -2.0571  -13.3476 C   0  0  0  0  0  0  0  0  0  0  0  0
  -14.3169   -3.0246  -12.3449 C   0  0  0  0  0  0  0  0  0  0  0  0
  -15.7296   -2.5748  -11.9529 C   0  0  0  0  0  0  0  0  0  0  0  0
  -15.8588   -2.8861  -10.4672 C   0  0  0  0  0  0  0  0  0  0  0  0
  -14.5782   -3.6126  -10.1010 C   0  0  0  0  0  0  0  0  0  0  0  0
  -13.6072   -3.0666  -11.0506 N   0  0  0  0  0  0  0  0  0  0  0  0
  -12.3825   -3.8563  -11.0753 C   0  0  0  0  0  0  0  0  0  0  0  0
  -23.5784    1.2203  -13.8186 O   0  0  0  0  0  0  0  0  0  0  0  0
  -25.1777   -1.1398  -11.5123 C   0  0  0  0  0  0  0  0  0  0  0  0
  -25.0782   -0.0820  -12.4008 C   0  0  0  0  0  0  0  0  0  0  0  0
  -23.8216    0.2177  -12.9108 C   0  0  0  0  0  0  0  0  0  0  0  0
  -22.7068   -0.4814  -12.4558 C   0  0  0  0  0  0  0  0  0  0  0  0
  -22.9019   -1.5019  -11.5400 C   0  0  0  0  0  0  0  0  0  0  0  0
  -24.1126   -1.8631  -11.0630 N   0  0  0  0  0  0  0  0  0  0  0  0
  -27.8155   -2.3330   -9.0851 C   0  0  0  0  0  0  0  0  0  0  0  0
  -26.5876   -1.9103   -9.6991 N   0  0  0  0  0  0  0  0  0  0  0  0
  -26.5319   -1.5546  -11.0281 C   0  0  0  0  0  0  0  0  0  0  0  0
  -27.4990   -1.5770  -11.7814 O   0  0  0  0  0  0  0  0  0  0  0  0
  -25.7191   -1.8678   -9.1723 H   0  0  0  0  0  0  0  0  0  0  0  0
 34 35  1  0  0  0
 35 36  1  0  0  0
 35 38  1  0  0  0
 36 37  2  0  0  0
 36 28  1  0  0  0
 28 29  1  0  0  0
 28 33  2  0  0  0
 29 30  2  0  0  0
 30 27  1  0  0  0
 30 31  1  0  0  0
 27  1  1  0  0  0
  1  2  1  0  0  0
  1  9  2  0  0  0
  2  3  2  0  0  0
  3  4  1  0  0  0
  4  5  1  0  0  0
  4  8  2  0  0  0
  5  6  1  0  0  0
  6 10  1  0  0  0
  6  7  2  0  0  0
 10 12  1  0  0  0
 10 11  1  0  0  0
 12 13  1  0  0  0
 12 18  2  0  0  0
 13 14  2  0  0  0
 14 15  1  0  0  0
 15 16  1  0  0  0
 15 17  2  0  0  0
 17 19  1  0  0  0
 17 18  1  0  0  0
 19 20  1  0  0  0
 21 22  1  0  0  0
 21 25  1  0  0  0
 21 20  1  0  0  0
 22 23  1  0  0  0
 23 24  1  0  0  0
 24 25  1  0  0  0
 25 26  1  0  0  0
  7  8  1  0  0  0
  8  9  1  0  0  0
 31 32  2  0  0  0
 32 33  1  0  0  0
M  END
> <minimizedAffinity>
-10.00232

$$$$
