CHEMBL600398


 40 43  0  0  0  0  0  0  0  0999 V2000
  -23.3103   -0.7416  -13.3802 C   0  0  0  0  0  0  0  0  0  0  0  0
  -24.4848   -1.0132  -14.0820 C   0  0  0  0  0  0  0  0  0  0  0  0
  -25.5881   -1.5509  -13.4219 C   0  0  0  0  0  0  0  0  0  0  0  0
  -25.5750   -1.7618  -12.0404 C   0  0  0  0  0  0  0  0  0  0  0  0
  -24.4347   -1.3788  -11.3220 C   0  0  0  0  0  0  0  0  0  0  0  0
  -23.3166   -0.8633  -11.9941 C   0  0  0  0  0  0  0  0  0  0  0  0
  -22.2362   -0.5123  -11.2802 F   0  0  0  0  0  0  0  0  0  0  0  0
  -26.6596   -2.3532  -11.3444 N   0  0  0  0  0  0  0  0  0  0  0  0
  -27.0138   -2.0824  -10.0319 C   0  0  0  0  0  0  0  0  0  0  0  0
  -26.4670   -1.2760   -9.2914 O   0  0  0  0  0  0  0  0  0  0  0  0
  -27.1987   -3.0486  -11.8458 H   0  0  0  0  0  0  0  0  0  0  0  0
  -28.2031   -2.8713   -9.5234 C   0  0  0  0  0  0  0  0  0  0  0  0
  -28.0209   -3.1312   -8.0112 C   0  0  0  0  0  0  0  0  0  0  0  0
  -28.4962   -4.5785   -7.6526 C   0  0  0  0  0  0  0  0  0  0  0  0
  -28.1905   -4.9428   -6.3867 F   0  0  0  0  0  0  0  0  0  0  0  0
  -29.8256   -4.7371   -7.8312 F   0  0  0  0  0  0  0  0  0  0  0  0
  -27.8888   -5.4842   -8.4691 F   0  0  0  0  0  0  0  0  0  0  0  0
  -28.7654   -2.0963   -7.2181 N   0  0  0  0  0  0  0  0  0  0  0  0
  -29.6656   -1.8985   -7.6691 H   0  0  0  0  0  0  0  0  0  0  0  0
  -28.9625   -2.3056   -5.8426 C   0  0  0  0  0  0  0  0  0  0  0  0
  -30.1552   -2.7974   -5.3012 C   0  0  0  0  0  0  0  0  0  0  0  0
  -30.2688   -3.0912   -3.9374 C   0  0  0  0  0  0  0  0  0  0  0  0
  -29.1844   -2.9025   -3.0876 C   0  0  0  0  0  0  0  0  0  0  0  0
  -27.9818   -2.4359   -3.6061 C   0  0  0  0  0  0  0  0  0  0  0  0
  -27.8696   -2.1594   -4.9733 C   0  0  0  0  0  0  0  0  0  0  0  0
  -22.1433   -0.3960  -14.0360 O   0  0  0  0  0  0  0  0  0  0  0  0
  -18.1466    2.6234  -14.9036 C   0  0  0  0  0  0  0  0  0  0  0  0
  -19.2961    3.3969  -14.6801 C   0  0  0  0  0  0  0  0  0  0  0  0
  -20.5476    2.8394  -14.4723 C   0  0  0  0  0  0  0  0  0  0  0  0
  -21.5623    3.6610  -14.1800 N   0  0  0  0  0  0  0  0  0  0  0  0
  -22.7456    3.0925  -13.9488 C   0  0  0  0  0  0  0  0  0  0  0  0
  -23.0101    1.7882  -13.9690 N   0  0  0  0  0  0  0  0  0  0  0  0
  -21.9542    0.9802  -14.2160 C   0  0  0  0  0  0  0  0  0  0  0  0
  -20.6759    1.4491  -14.5292 C   0  0  0  0  0  0  0  0  0  0  0  0
  -19.5474    0.6598  -14.8500 C   0  0  0  0  0  0  0  0  0  0  0  0
  -18.2810    1.2348  -15.0348 C   0  0  0  0  0  0  0  0  0  0  0  0
  -16.7025    4.0036  -16.1896 C   0  0  0  0  0  0  0  0  0  0  0  0
  -16.9122    3.2090  -15.0182 O   0  0  0  0  0  0  0  0  0  0  0  0
  -17.3310    0.2911  -15.3070 O   0  0  0  0  0  0  0  0  0  0  0  0
  -16.3727   -0.0629  -14.3232 C   0  0  0  0  0  0  0  0  0  0  0  0
 37 38  1  0  0  0
 38 27  1  0  0  0
 27 28  1  0  0  0
 27 36  2  0  0  0
 28 29  2  0  0  0
 29 30  1  0  0  0
 29 34  1  0  0  0
 30 31  2  0  0  0
 31 32  1  0  0  0
 32 33  2  0  0  0
 33 26  1  0  0  0
 33 34  1  0  0  0
 26  1  1  0  0  0
  1  2  1  0  0  0
  1  6  2  0  0  0
  2  3  2  0  0  0
  3  4  1  0  0  0
  4  8  1  0  0  0
  4  5  2  0  0  0
  8  9  1  0  0  0
  8 11  1  0  0  0
  9 10  2  0  0  0
  9 12  1  0  0  0
 12 13  1  0  0  0
 13 18  1  0  0  0
 13 14  1  0  0  0
 18 20  1  0  0  0
 18 19  1  0  0  0
 20 21  1  0  0  0
 20 25  2  0  0  0
 21 22  2  0  0  0
 22 23  1  0  0  0
 23 24  2  0  0  0
 24 25  1  0  0  0
 14 15  1  0  0  0
 14 16  1  0  0  0
 14 17  1  0  0  0
  5  6  1  0  0  0
  6  7  1  0  0  0
 34 35  2  0  0  0
 35 36  1  0  0  0
 36 39  1  0  0  0
 39 40  1  0  0  0
M  END
> <minimizedAffinity>
-10.11840

$$$$
