CHEMBL3287306


 44 48  0  0  0  0  0  0  0  0999 V2000
  -25.1049   -1.1743  -12.6551 C   0  0  0  0  0  0  0  0  0  0  0  0
  -24.5162   -1.0635  -11.3961 C   0  0  0  0  0  0  0  0  0  0  0  0
  -25.2166   -1.4749  -10.2655 C   0  0  0  0  0  0  0  0  0  0  0  0
  -26.5283   -1.9318  -10.3799 C   0  0  0  0  0  0  0  0  0  0  0  0
  -27.1500   -1.9381  -11.6335 C   0  0  0  0  0  0  0  0  0  0  0  0
  -26.4420   -1.5470  -12.7688 C   0  0  0  0  0  0  0  0  0  0  0  0
  -27.2618   -2.4281   -9.2933 N   0  0  0  0  0  0  0  0  0  0  0  0
  -27.7881   -1.7004   -8.2486 C   0  0  0  0  0  0  0  0  0  0  0  0
  -27.8116   -0.4843   -8.1081 O   0  0  0  0  0  0  0  0  0  0  0  0
  -27.3711   -3.4337   -9.2450 H   0  0  0  0  0  0  0  0  0  0  0  0
  -28.3759   -2.5498   -7.1724 C   0  0  0  0  0  0  0  0  0  0  0  0
  -29.1031   -1.8638   -6.0116 C   0  0  0  0  0  0  0  0  0  0  0  0
  -27.7475   -2.4520   -5.7889 C   0  0  0  0  0  0  0  0  0  0  0  0
  -29.0071   -3.7983   -7.6924 C   0  0  0  0  0  0  0  0  0  0  0  0
  -29.7424   -3.6977   -8.6703 O   0  0  0  0  0  0  0  0  0  0  0  0
  -28.7110   -4.9713   -7.0220 N   0  0  0  0  0  0  0  0  0  0  0  0
  -28.3967   -4.9018   -6.0625 H   0  0  0  0  0  0  0  0  0  0  0  0
  -29.1868   -6.2109   -7.4896 C   0  0  0  0  0  0  0  0  0  0  0  0
  -30.4687   -6.6587   -7.1476 C   0  0  0  0  0  0  0  0  0  0  0  0
  -30.8971   -7.9316   -7.5239 C   0  0  0  0  0  0  0  0  0  0  0  0
  -30.0298   -8.7641   -8.2246 C   0  0  0  0  0  0  0  0  0  0  0  0
  -30.5623  -10.5293   -8.6406 Br  0  0  0  0  0  0  0  0  0  0  0  0
  -28.7651   -8.3108   -8.6034 C   0  0  0  0  0  0  0  0  0  0  0  0
  -28.3556   -7.0154   -8.2677 C   0  0  0  0  0  0  0  0  0  0  0  0
  -24.4504   -0.9243  -13.8330 O   0  0  0  0  0  0  0  0  0  0  0  0
  -21.4522    0.7246  -14.5300 C   0  0  0  0  0  0  0  0  0  0  0  0
  -21.6530    2.0098  -14.2036 N   0  0  0  0  0  0  0  0  0  0  0  0
  -22.8612    2.3299  -13.7059 C   0  0  0  0  0  0  0  0  0  0  0  0
  -23.8656    1.4170  -13.5113 C   0  0  0  0  0  0  0  0  0  0  0  0
  -23.5743    0.1318  -13.9017 C   0  0  0  0  0  0  0  0  0  0  0  0
  -22.3764   -0.2230  -14.3714 N   0  0  0  0  0  0  0  0  0  0  0  0
  -20.2293    0.4202  -15.1178 N   0  0  0  0  0  0  0  0  0  0  0  0
  -20.1177   -0.5828  -15.1487 H   0  0  0  0  0  0  0  0  0  0  0  0
  -16.6204    1.2887  -15.1586 C   0  0  0  0  0  0  0  0  0  0  0  0
  -16.6609    2.6437  -15.5082 C   0  0  0  0  0  0  0  0  0  0  0  0
  -17.8789    3.2641  -15.7493 C   0  0  0  0  0  0  0  0  0  0  0  0
  -19.0658    2.5393  -15.6458 C   0  0  0  0  0  0  0  0  0  0  0  0
  -19.0699    1.1953  -15.2548 C   0  0  0  0  0  0  0  0  0  0  0  0
  -17.8310    0.5913  -15.0098 C   0  0  0  0  0  0  0  0  0  0  0  0
  -15.2990    0.6147  -14.9074 C   0  0  0  0  0  0  0  0  0  0  0  0
  -14.7553   -1.4580  -13.0596 C   0  0  0  0  0  0  0  0  0  0  0  0
  -15.0422    0.2944  -13.1621 S   0  0  0  0  0  0  0  0  0  0  0  0
  -16.2511    0.5989  -12.4222 O   0  0  0  0  0  0  0  0  0  0  0  0
  -13.7927    0.9468  -12.7924 O   0  0  0  0  0  0  0  0  0  0  0  0
 41 42  1  0  0  0
 42 43  2  0  0  0
 42 44  2  0  0  0
 42 40  1  0  0  0
 40 34  1  0  0  0
 34 35  1  0  0  0
 34 39  2  0  0  0
 35 36  2  0  0  0
 36 37  1  0  0  0
 37 38  2  0  0  0
 38 32  1  0  0  0
 38 39  1  0  0  0
 32 26  1  0  0  0
 32 33  1  0  0  0
 26 27  1  0  0  0
 26 31  2  0  0  0
 27 28  2  0  0  0
 28 29  1  0  0  0
 29 30  2  0  0  0
 30 25  1  0  0  0
 30 31  1  0  0  0
 25  1  1  0  0  0
  1  2  1  0  0  0
  1  6  2  0  0  0
  2  3  2  0  0  0
  3  4  1  0  0  0
  4  7  1  0  0  0
  4  5  2  0  0  0
  7  8  1  0  0  0
  7 10  1  0  0  0
  8  9  2  0  0  0
  8 11  1  0  0  0
 11 14  1  0  0  0
 11 12  1  0  0  0
 11 13  1  0  0  0
 14 15  2  0  0  0
 14 16  1  0  0  0
 16 18  1  0  0  0
 16 17  1  0  0  0
 18 19  1  0  0  0
 18 24  2  0  0  0
 19 20  2  0  0  0
 20 21  1  0  0  0
 21 22  1  0  0  0
 21 23  2  0  0  0
 23 24  1  0  0  0
 12 13  1  0  0  0
  5  6  1  0  0  0
M  END
> <minimizedAffinity>
-10.44549

$$$$
