CHEMBL3897858


 33 36  0  0  0  0  0  0  0  0999 V2000
  -29.3130   -4.9983   -6.1617 C   0  0  0  0  0  0  0  0  0  0  0  0
  -29.2612   -3.9695   -5.2156 C   0  0  0  0  0  0  0  0  0  0  0  0
  -28.8126   -2.6942   -5.5664 C   0  0  0  0  0  0  0  0  0  0  0  0
  -28.3812   -2.4212   -6.8503 C   0  0  0  0  0  0  0  0  0  0  0  0
  -28.0104   -1.1682   -7.1632 N   0  0  0  0  0  0  0  0  0  0  0  0
  -27.5860   -0.9753   -8.4337 C   0  0  0  0  0  0  0  0  0  0  0  0
  -27.5156   -1.9951   -9.3706 C   0  0  0  0  0  0  0  0  0  0  0  0
  -27.9121   -3.2523   -9.0597 N   0  0  0  0  0  0  0  0  0  0  0  0
  -28.3472   -3.4656   -7.8037 C   0  0  0  0  0  0  0  0  0  0  0  0
  -28.8117   -4.7237   -7.4423 C   0  0  0  0  0  0  0  0  0  0  0  0
  -26.9938   -1.7772  -10.7039 C   0  0  0  0  0  0  0  0  0  0  0  0
  -27.6368   -1.7028  -11.9604 C   0  0  0  0  0  0  0  0  0  0  0  0
  -26.7899   -1.4478  -12.9616 N   0  0  0  0  0  0  0  0  0  0  0  0
  -25.5947   -1.3542  -12.3483 N   0  0  0  0  0  0  0  0  0  0  0  0
  -25.6641   -1.5503  -11.0006 C   0  0  0  0  0  0  0  0  0  0  0  0
  -24.4059   -1.0356  -13.1170 C   0  0  0  0  0  0  0  0  0  0  0  0
  -23.6423    0.1514  -12.5450 C   0  0  0  0  0  0  0  0  0  0  0  0
  -22.3749   -0.2379  -12.0204 O   0  0  0  0  0  0  0  0  0  0  0  0
  -22.5511   -0.6903  -11.1736 H   0  0  0  0  0  0  0  0  0  0  0  0
  -29.9345   -6.2422   -5.8883 N   0  0  0  0  0  0  0  0  0  0  0  0
  -31.6634   -8.9936   -7.7738 C   0  0  0  0  0  0  0  0  0  0  0  0
  -30.6681   -9.3951   -8.6551 C   0  0  0  0  0  0  0  0  0  0  0  0
  -29.4421   -8.7463   -8.6243 C   0  0  0  0  0  0  0  0  0  0  0  0
  -28.4785   -9.1372   -9.4695 F   0  0  0  0  0  0  0  0  0  0  0  0
  -29.1833   -7.7054   -7.7322 C   0  0  0  0  0  0  0  0  0  0  0  0
  -30.1687   -7.2666   -6.8405 C   0  0  0  0  0  0  0  0  0  0  0  0
  -31.4165   -7.9242   -6.8984 C   0  0  0  0  0  0  0  0  0  0  0  0
  -33.0657  -10.6170   -6.7817 C   0  0  0  0  0  0  0  0  0  0  0  0
  -32.9148   -9.5428   -7.7093 O   0  0  0  0  0  0  0  0  0  0  0  0
  -30.3670   -6.4730   -4.4807 C   0  0  0  0  0  0  0  0  0  0  0  0
  -29.4362   -7.4190   -3.6905 C   0  0  0  0  0  0  0  0  0  0  0  0
  -29.3548   -7.0754   -2.3109 O   0  0  0  0  0  0  0  0  0  0  0  0
  -28.6761   -6.3793   -2.2391 H   0  0  0  0  0  0  0  0  0  0  0  0
 28 29  1  0  0  0
 29 21  1  0  0  0
 21 22  1  0  0  0
 21 27  2  0  0  0
 22 23  2  0  0  0
 23 24  1  0  0  0
 23 25  1  0  0  0
 25 26  2  0  0  0
 26 20  1  0  0  0
 26 27  1  0  0  0
 20 30  1  0  0  0
 20  1  1  0  0  0
 30 31  1  0  0  0
 31 32  1  0  0  0
 32 33  1  0  0  0
  1  2  1  0  0  0
  1 10  2  0  0  0
  2  3  2  0  0  0
  3  4  1  0  0  0
  4  5  1  0  0  0
  4  9  2  0  0  0
  5  6  2  0  0  0
  6  7  1  0  0  0
  7 11  1  0  0  0
  7  8  2  0  0  0
 11 12  1  0  0  0
 11 15  2  0  0  0
 12 13  2  0  0  0
 13 14  1  0  0  0
 14 16  1  0  0  0
 14 15  1  0  0  0
 16 17  1  0  0  0
 17 18  1  0  0  0
 18 19  1  0  0  0
  8  9  1  0  0  0
  9 10  1  0  0  0
M  END
> <minimizedAffinity>
-8.80201

$$$$
