CHEMBL4792614


 35 39  0  0  0  0  0  0  0  0999 V2000
  -28.6934   -6.6608   -4.2555 C   0  0  0  0  0  0  0  0  0  0  0  0
  -29.6875   -6.7073   -5.1352 N   0  0  0  0  0  0  0  0  0  0  0  0
  -29.6113   -7.6944   -6.0432 C   0  0  0  0  0  0  0  0  0  0  0  0
  -28.6375   -8.6722   -6.0226 C   0  0  0  0  0  0  0  0  0  0  0  0
  -27.6817   -8.5880   -5.0342 C   0  0  0  0  0  0  0  0  0  0  0  0
  -27.6834   -7.5394   -4.1967 N   0  0  0  0  0  0  0  0  0  0  0  0
  -28.5613   -3.5075   -2.6451 O   0  0  0  0  0  0  0  0  0  0  0  0
  -28.5973   -4.2703   -3.6086 C   0  0  0  0  0  0  0  0  0  0  0  0
  -28.6287   -3.8909   -4.9282 N   0  0  0  0  0  0  0  0  0  0  0  0
  -28.7218   -5.6061   -3.3623 N   0  0  0  0  0  0  0  0  0  0  0  0
  -28.7382   -4.6593   -5.5851 H   0  0  0  0  0  0  0  0  0  0  0  0
  -28.9145   -5.8563   -2.4058 H   0  0  0  0  0  0  0  0  0  0  0  0
  -28.7003   -2.5870   -5.4492 C   0  0  0  0  0  0  0  0  0  0  0  0
  -27.8292   -2.1060   -6.4284 C   0  0  0  0  0  0  0  0  0  0  0  0
  -27.9206   -0.7818   -6.8669 C   0  0  0  0  0  0  0  0  0  0  0  0
  -28.8802    0.0661   -6.3213 C   0  0  0  0  0  0  0  0  0  0  0  0
  -28.9606    1.7072   -6.8302 Cl  0  0  0  0  0  0  0  0  0  0  0  0
  -29.7690   -0.4054   -5.3601 C   0  0  0  0  0  0  0  0  0  0  0  0
  -29.6877   -1.7370   -4.9361 C   0  0  0  0  0  0  0  0  0  0  0  0
  -26.6703   -9.5208   -4.9018 N   0  0  0  0  0  0  0  0  0  0  0  0
  -25.5078   -9.2739   -4.0484 C   0  0  0  0  0  0  0  0  0  0  0  0
  -24.3148   -9.6988   -4.9009 C   0  0  0  0  0  0  0  0  0  0  0  0
  -24.8803  -10.8017   -5.7768 C   0  0  0  0  0  0  0  0  0  0  0  0
  -26.2971  -10.3212   -6.0736 C   0  0  0  0  0  0  0  0  0  0  0  0
  -30.7680   -7.6257   -7.3961 S   0  0  0  0  0  0  0  0  0  0  0  0
  -30.4755   -9.1118   -8.2664 C   0  0  0  0  0  0  0  0  0  0  0  0
  -31.3111  -10.1984   -8.3784 C   0  0  0  0  0  0  0  0  0  0  0  0
  -30.6901  -11.1205   -9.1793 N   0  0  0  0  0  0  0  0  0  0  0  0
  -29.4658  -10.6472   -9.5937 C   0  0  0  0  0  0  0  0  0  0  0  0
  -28.5036  -11.2415  -10.4195 C   0  0  0  0  0  0  0  0  0  0  0  0
  -27.3399  -10.5138  -10.6874 C   0  0  0  0  0  0  0  0  0  0  0  0
  -27.1500   -9.2441  -10.1516 C   0  0  0  0  0  0  0  0  0  0  0  0
  -28.1207   -8.6633   -9.3281 C   0  0  0  0  0  0  0  0  0  0  0  0
  -29.3049   -9.3764   -9.0379 C   0  0  0  0  0  0  0  0  0  0  0  0
  -31.0777  -12.0154   -9.4449 H   0  0  0  0  0  0  0  0  0  0  0  0
  7  8  2  0  0  0
  8  9  1  0  0  0
  8 10  1  0  0  0
  9 13  1  0  0  0
  9 11  1  0  0  0
 13 14  1  0  0  0
 13 19  2  0  0  0
 14 15  2  0  0  0
 15 16  1  0  0  0
 16 17  1  0  0  0
 16 18  2  0  0  0
 18 19  1  0  0  0
 10  1  1  0  0  0
 10 12  1  0  0  0
  1  2  1  0  0  0
  1  6  2  0  0  0
  2  3  2  0  0  0
  3 25  1  0  0  0
  3  4  1  0  0  0
 25 26  1  0  0  0
 26 27  2  0  0  0
 26 34  1  0  0  0
 27 28  1  0  0  0
 28 29  1  0  0  0
 28 35  1  0  0  0
 29 30  1  0  0  0
 29 34  2  0  0  0
 30 31  2  0  0  0
 31 32  1  0  0  0
 32 33  2  0  0  0
 33 34  1  0  0  0
  4  5  2  0  0  0
  5 20  1  0  0  0
  5  6  1  0  0  0
 20 21  1  0  0  0
 20 24  1  0  0  0
 21 22  1  0  0  0
 22 23  1  0  0  0
 23 24  1  0  0  0
M  END
> <minimizedAffinity>
-9.75302

$$$$
