CHEMBL224968


 40 45  0  0  0  0  0  0  0  0999 V2000
  -22.1815    1.2118  -14.0097 C   0  0  0  0  0  0  0  0  0  0  0  0
  -22.0860    2.6322  -14.0127 C   0  0  0  0  0  0  0  0  0  0  0  0
  -20.9667    3.3062  -14.5002 C   0  0  0  0  0  0  0  0  0  0  0  0
  -19.9028    2.5347  -14.8595 C   0  0  0  0  0  0  0  0  0  0  0  0
  -19.9126    1.1148  -14.7770 C   0  0  0  0  0  0  0  0  0  0  0  0
  -21.0655    0.4450  -14.3803 C   0  0  0  0  0  0  0  0  0  0  0  0
  -18.5575    0.4858  -15.1442 C   0  0  0  0  0  0  0  0  0  0  0  0
  -17.8349    1.7587  -15.4399 C   0  0  0  0  0  0  0  0  0  0  0  0
  -16.5818    2.2469  -15.8291 C   0  0  0  0  0  0  0  0  0  0  0  0
  -16.5688    3.5930  -15.8841 N   0  0  0  0  0  0  0  0  0  0  0  0
  -17.8415    3.9528  -15.5680 N   0  0  0  0  0  0  0  0  0  0  0  0
  -18.5965    2.8730  -15.2949 C   0  0  0  0  0  0  0  0  0  0  0  0
  -18.0889    4.9340  -15.5662 H   0  0  0  0  0  0  0  0  0  0  0  0
  -15.4330    1.4047  -16.1392 C   0  0  0  0  0  0  0  0  0  0  0  0
  -14.8595    1.2974  -17.3886 C   0  0  0  0  0  0  0  0  0  0  0  0
  -13.5375    0.2251  -17.4014 S   0  0  0  0  0  0  0  0  0  0  0  0
  -13.7126   -0.0966  -15.7344 C   0  0  0  0  0  0  0  0  0  0  0  0
  -14.7545    0.6067  -15.1689 C   0  0  0  0  0  0  0  0  0  0  0  0
  -12.8514   -1.0035  -15.0533 C   0  0  0  0  0  0  0  0  0  0  0  0
  -12.0474   -1.8166  -14.4269 C   0  0  0  0  0  0  0  0  0  0  0  0
  -11.1101   -2.7645  -13.6966 C   0  0  0  0  0  0  0  0  0  0  0  0
  -11.8271   -3.6679  -12.8052 N   0  0  0  0  0  0  0  0  0  0  0  0
  -11.9294   -3.3475  -11.4591 C   0  0  0  0  0  0  0  0  0  0  0  0
  -11.4446   -2.3494  -10.9779 O   0  0  0  0  0  0  0  0  0  0  0  0
  -12.2592   -4.5118  -13.1464 H   0  0  0  0  0  0  0  0  0  0  0  0
  -12.6719   -4.3136  -10.7459 O   0  0  0  0  0  0  0  0  0  0  0  0
  -14.0254   -4.5127  -11.1304 C   0  0  0  0  0  0  0  0  0  0  0  0
  -14.4476   -5.7546  -11.6060 C   0  0  0  0  0  0  0  0  0  0  0  0
  -15.7601   -5.9270  -12.0539 C   0  0  0  0  0  0  0  0  0  0  0  0
  -16.6873   -4.8955  -11.9269 C   0  0  0  0  0  0  0  0  0  0  0  0
  -16.3035   -3.6938  -11.3290 C   0  0  0  0  0  0  0  0  0  0  0  0
  -14.9663   -3.4918  -10.9415 C   0  0  0  0  0  0  0  0  0  0  0  0
  -23.4982    0.5462  -13.6279 C   0  0  0  0  0  0  0  0  0  0  0  0
  -26.6182   -1.8376  -10.8074 C   0  0  0  0  0  0  0  0  0  0  0  0
  -25.5638   -1.9571  -11.8038 N   0  0  0  0  0  0  0  0  0  0  0  0
  -25.9196   -1.2670  -13.0532 C   0  0  0  0  0  0  0  0  0  0  0  0
  -24.8085   -1.5164  -14.0984 C   0  0  0  0  0  0  0  0  0  0  0  0
  -23.5026   -0.9332  -13.7083 N   0  0  0  0  0  0  0  0  0  0  0  0
  -23.1555   -1.5270  -12.3873 C   0  0  0  0  0  0  0  0  0  0  0  0
  -24.2750   -1.4307  -11.3106 C   0  0  0  0  0  0  0  0  0  0  0  0
 34 35  1  0  0  0
 35 36  1  0  0  0
 35 40  1  0  0  0
 36 37  1  0  0  0
 37 38  1  0  0  0
 38 33  1  0  0  0
 38 39  1  0  0  0
 33  1  1  0  0  0
  1  2  1  0  0  0
  1  6  2  0  0  0
  2  3  2  0  0  0
  3  4  1  0  0  0
  4  5  2  0  0  0
  4 12  1  0  0  0
  5  6  1  0  0  0
  5  7  1  0  0  0
  7  8  1  0  0  0
  8  9  1  0  0  0
  8 12  2  0  0  0
  9 14  1  0  0  0
  9 10  2  0  0  0
 14 15  2  0  0  0
 14 18  1  0  0  0
 15 16  1  0  0  0
 16 17  1  0  0  0
 17 19  1  0  0  0
 17 18  2  0  0  0
 19 20  3  0  0  0
 20 21  1  0  0  0
 21 22  1  0  0  0
 22 23  1  0  0  0
 22 25  1  0  0  0
 23 24  2  0  0  0
 23 26  1  0  0  0
 26 27  1  0  0  0
 27 28  1  0  0  0
 27 32  2  0  0  0
 28 29  2  0  0  0
 29 30  1  0  0  0
 30 31  2  0  0  0
 31 32  1  0  0  0
 10 11  1  0  0  0
 11 12  1  0  0  0
 11 13  1  0  0  0
 39 40  1  0  0  0
M  END
> <minimizedAffinity>
-11.08672

$$$$
