CHEMBL3660277


 38 41  0  0  0  0  0  0  0  0999 V2000
  -25.8592   -1.5538  -12.2865 C   0  0  0  0  0  0  0  0  0  0  0  0
  -25.8482   -1.4988  -13.6866 C   0  0  0  0  0  0  0  0  0  0  0  0
  -24.6878   -1.1236  -14.3803 C   0  0  0  0  0  0  0  0  0  0  0  0
  -23.5158   -0.8177  -13.6839 C   0  0  0  0  0  0  0  0  0  0  0  0
  -23.5586   -0.8081  -12.2857 C   0  0  0  0  0  0  0  0  0  0  0  0
  -22.4788   -0.4707  -11.5657 F   0  0  0  0  0  0  0  0  0  0  0  0
  -24.7163   -1.1711  -11.5862 C   0  0  0  0  0  0  0  0  0  0  0  0
  -28.1240   -2.5013   -9.5914 N   0  0  0  0  0  0  0  0  0  0  0  0
  -26.9712   -1.9893  -10.1816 C   0  0  0  0  0  0  0  0  0  0  0  0
  -26.0409   -1.4637   -9.5858 O   0  0  0  0  0  0  0  0  0  0  0  0
  -26.9962   -2.0473  -11.5762 N   0  0  0  0  0  0  0  0  0  0  0  0
  -28.8841   -2.7499  -10.1961 H   0  0  0  0  0  0  0  0  0  0  0  0
  -27.8923   -1.8121  -11.9754 H   0  0  0  0  0  0  0  0  0  0  0  0
  -27.9187   -0.1687   -5.1893 C   0  0  0  0  0  0  0  0  0  0  0  0
  -28.2460   -1.3818   -6.0144 C   0  0  0  0  0  0  0  0  0  0  0  0
  -28.7272   -2.5268   -5.3728 C   0  0  0  0  0  0  0  0  0  0  0  0
  -29.0515   -3.6524   -6.1155 C   0  0  0  0  0  0  0  0  0  0  0  0
  -28.8929   -3.6507   -7.4971 C   0  0  0  0  0  0  0  0  0  0  0  0
  -29.3580   -4.7303   -8.1356 F   0  0  0  0  0  0  0  0  0  0  0  0
  -28.3667   -2.5417   -8.1824 C   0  0  0  0  0  0  0  0  0  0  0  0
  -28.0704   -1.3926   -7.4181 C   0  0  0  0  0  0  0  0  0  0  0  0
  -22.4320   -0.4708  -14.4612 O   0  0  0  0  0  0  0  0  0  0  0  0
  -21.9086    0.8035  -14.4293 C   0  0  0  0  0  0  0  0  0  0  0  0
  -22.5867    1.9314  -13.9836 C   0  0  0  0  0  0  0  0  0  0  0  0
  -21.9336    3.1512  -14.0466 C   0  0  0  0  0  0  0  0  0  0  0  0
  -20.6576    3.3085  -14.4641 N   0  0  0  0  0  0  0  0  0  0  0  0
  -19.9935    2.1879  -14.8319 C   0  0  0  0  0  0  0  0  0  0  0  0
  -20.5751    0.9253  -14.8208 C   0  0  0  0  0  0  0  0  0  0  0  0
  -18.6138    2.4210  -15.2560 C   0  0  0  0  0  0  0  0  0  0  0  0
  -17.5891    1.5562  -15.6080 C   0  0  0  0  0  0  0  0  0  0  0  0
  -16.4300    2.3197  -15.9529 C   0  0  0  0  0  0  0  0  0  0  0  0
  -16.7988    3.6442  -15.7951 C   0  0  0  0  0  0  0  0  0  0  0  0
  -18.1018    3.6946  -15.3826 N   0  0  0  0  0  0  0  0  0  0  0  0
  -18.6421    4.5313  -15.1948 H   0  0  0  0  0  0  0  0  0  0  0  0
  -15.1023    1.8878  -16.3907 C   0  0  0  0  0  0  0  0  0  0  0  0
  -14.0763    2.5051  -16.1469 O   0  0  0  0  0  0  0  0  0  0  0  0
  -15.0762    0.7320  -17.1032 O   0  0  0  0  0  0  0  0  0  0  0  0
  -15.9563    0.3439  -17.2301 H   0  0  0  0  0  0  0  0  0  0  0  0
 14 15  1  0  0  0
 15 16  1  0  0  0
 15 21  2  0  0  0
 16 17  2  0  0  0
 17 18  1  0  0  0
 18 19  1  0  0  0
 18 20  2  0  0  0
 20  8  1  0  0  0
 20 21  1  0  0  0
  8  9  1  0  0  0
  8 12  1  0  0  0
  9 10  2  0  0  0
  9 11  1  0  0  0
 11  1  1  0  0  0
 11 13  1  0  0  0
  1  2  1  0  0  0
  1  7  2  0  0  0
  2  3  2  0  0  0
  3  4  1  0  0  0
  4 22  1  0  0  0
  4  5  2  0  0  0
 22 23  1  0  0  0
 23 24  1  0  0  0
 23 28  2  0  0  0
 24 25  2  0  0  0
 25 26  1  0  0  0
 26 27  2  0  0  0
 27 29  1  0  0  0
 27 28  1  0  0  0
 29 30  2  0  0  0
 29 33  1  0  0  0
 30 31  1  0  0  0
 31 35  1  0  0  0
 31 32  2  0  0  0
 35 36  2  0  0  0
 35 37  1  0  0  0
 37 38  1  0  0  0
 32 33  1  0  0  0
 33 34  1  0  0  0
  5  6  1  0  0  0
  5  7  1  0  0  0
M  END
> <minimizedAffinity>
-12.52618

$$$$
