CHEMBL4060727


 29 32  0  0  0  0  0  0  0  0999 V2000
  -28.6665   -6.9444   -7.1787 N   0  0  0  0  0  0  0  0  0  0  0  0
  -28.5557   -5.5700   -7.0708 C   0  0  0  0  0  0  0  0  0  0  0  0
  -28.5980   -4.8720   -8.2165 N   0  0  0  0  0  0  0  0  0  0  0  0
  -28.5202   -3.5175   -8.1861 C   0  0  0  0  0  0  0  0  0  0  0  0
  -28.4143   -2.8949   -6.9274 C   0  0  0  0  0  0  0  0  0  0  0  0
  -28.3404   -3.7374   -5.8321 C   0  0  0  0  0  0  0  0  0  0  0  0
  -28.3904   -5.0755   -5.8396 N   0  0  0  0  0  0  0  0  0  0  0  0
  -28.2081   -2.9751   -4.7087 N   0  0  0  0  0  0  0  0  0  0  0  0
  -28.2345   -1.6374   -5.0269 C   0  0  0  0  0  0  0  0  0  0  0  0
  -28.1561   -0.5083   -4.2017 C   0  0  0  0  0  0  0  0  0  0  0  0
  -28.2342    0.7508   -4.8068 C   0  0  0  0  0  0  0  0  0  0  0  0
  -28.3818    0.8578   -6.1830 C   0  0  0  0  0  0  0  0  0  0  0  0
  -28.4744    2.0720   -6.7985 O   0  0  0  0  0  0  0  0  0  0  0  0
  -28.4472   -0.2695   -6.9994 C   0  0  0  0  0  0  0  0  0  0  0  0
  -28.3697   -1.5540   -6.4186 C   0  0  0  0  0  0  0  0  0  0  0  0
  -28.3899   -7.2305   -8.1076 H   0  0  0  0  0  0  0  0  0  0  0  0
  -28.2084   -7.3889   -6.3966 H   0  0  0  0  0  0  0  0  0  0  0  0
  -28.1278   -3.3594   -3.7772 H   0  0  0  0  0  0  0  0  0  0  0  0
  -28.4095    2.7679   -6.1240 H   0  0  0  0  0  0  0  0  0  0  0  0
  -28.5138   -2.7853   -9.3740 N   0  0  0  0  0  0  0  0  0  0  0  0
  -29.0655   -3.2371  -10.0896 H   0  0  0  0  0  0  0  0  0  0  0  0
  -27.2230   -2.2948   -9.8426 C   0  0  0  0  0  0  0  0  0  0  0  0
  -27.4615   -1.3012  -10.9907 C   0  0  0  0  0  0  0  0  0  0  0  0
  -26.2939   -1.2073  -11.9389 C   0  0  0  0  0  0  0  0  0  0  0  0
  -25.0689   -0.6802  -11.5084 C   0  0  0  0  0  0  0  0  0  0  0  0
  -23.9948   -0.5751  -12.3934 C   0  0  0  0  0  0  0  0  0  0  0  0
  -24.1352   -0.9947  -13.7147 C   0  0  0  0  0  0  0  0  0  0  0  0
  -25.3477   -1.5252  -14.1511 C   0  0  0  0  0  0  0  0  0  0  0  0
  -26.4236   -1.6302  -13.2683 C   0  0  0  0  0  0  0  0  0  0  0  0
  1  2  1  0  0  0
  1 16  1  0  0  0
  1 17  1  0  0  0
  2  3  1  0  0  0
  2  7  2  0  0  0
  3  4  2  0  0  0
  4 20  1  0  0  0
  4  5  1  0  0  0
 20 22  1  0  0  0
 20 21  1  0  0  0
 22 23  1  0  0  0
 23 24  1  0  0  0
 24 25  1  0  0  0
 24 29  2  0  0  0
 25 26  2  0  0  0
 26 27  1  0  0  0
 27 28  2  0  0  0
 28 29  1  0  0  0
  5  6  2  0  0  0
  5 15  1  0  0  0
  6  7  1  0  0  0
  6  8  1  0  0  0
  8  9  1  0  0  0
  8 18  1  0  0  0
  9 10  1  0  0  0
  9 15  2  0  0  0
 10 11  2  0  0  0
 11 12  1  0  0  0
 12 13  1  0  0  0
 12 14  2  0  0  0
 13 19  1  0  0  0
 14 15  1  0  0  0
M  END
> <minimizedAffinity>
-9.35688

$$$$
