CHEMBL3612228


 30 33  0  0  0  0  0  0  0  0999 V2000
  -29.0535   -3.4541   -7.6412 C   0  0  0  0  0  0  0  0  0  0  0  0
  -29.0816   -2.5540   -6.5679 C   0  0  0  0  0  0  0  0  0  0  0  0
  -28.9295   -3.0098   -5.2598 C   0  0  0  0  0  0  0  0  0  0  0  0
  -28.7538   -4.3708   -5.0175 C   0  0  0  0  0  0  0  0  0  0  0  0
  -28.7649   -5.2837   -6.0804 C   0  0  0  0  0  0  0  0  0  0  0  0
  -28.9443   -4.8231   -7.3930 C   0  0  0  0  0  0  0  0  0  0  0  0
  -27.9315   -2.0851  -10.8099 N   0  0  0  0  0  0  0  0  0  0  0  0
  -27.8481   -2.4669   -9.4784 C   0  0  0  0  0  0  0  0  0  0  0  0
  -26.8296   -2.4165   -8.7914 O   0  0  0  0  0  0  0  0  0  0  0  0
  -29.0436   -2.9804   -8.9811 N   0  0  0  0  0  0  0  0  0  0  0  0
  -28.8506   -2.0383  -11.2222 H   0  0  0  0  0  0  0  0  0  0  0  0
  -29.5635   -3.5280   -9.6521 H   0  0  0  0  0  0  0  0  0  0  0  0
  -24.6462   -0.8642  -13.2191 C   0  0  0  0  0  0  0  0  0  0  0  0
  -24.6824   -0.5397  -11.8665 C   0  0  0  0  0  0  0  0  0  0  0  0
  -25.7623   -0.9283  -11.0805 C   0  0  0  0  0  0  0  0  0  0  0  0
  -26.8340   -1.6505  -11.6037 C   0  0  0  0  0  0  0  0  0  0  0  0
  -26.8050   -1.9734  -12.9620 C   0  0  0  0  0  0  0  0  0  0  0  0
  -25.7150   -1.5816  -13.7630 C   0  0  0  0  0  0  0  0  0  0  0  0
  -22.8420    0.5946  -13.7031 C   0  0  0  0  0  0  0  0  0  0  0  0
  -23.6330   -0.5316  -14.0770 O   0  0  0  0  0  0  0  0  0  0  0  0
  -28.6065   -7.0267   -5.7585 S   0  0  0  0  0  0  0  0  0  0  0  0
  -29.9226   -7.8207   -6.6596 C   0  0  0  0  0  0  0  0  0  0  0  0
  -31.2783   -7.5163   -6.5145 C   0  0  0  0  0  0  0  0  0  0  0  0
  -32.2149   -8.1996   -7.2720 C   0  0  0  0  0  0  0  0  0  0  0  0
  -31.9397   -9.1579   -8.1694 N   0  0  0  0  0  0  0  0  0  0  0  0
  -30.6239   -9.4618   -8.3225 C   0  0  0  0  0  0  0  0  0  0  0  0
  -30.1309  -10.4403   -9.2363 C   0  0  0  0  0  0  0  0  0  0  0  0
  -28.7629  -10.5579   -9.1938 C   0  0  0  0  0  0  0  0  0  0  0  0
  -28.0688   -9.4970   -8.0536 S   0  0  0  0  0  0  0  0  0  0  0  0
  -29.6048   -8.8344   -7.5976 C   0  0  0  0  0  0  0  0  0  0  0  0
 19 20  1  0  0  0
 20 13  1  0  0  0
 13 14  1  0  0  0
 13 18  2  0  0  0
 14 15  2  0  0  0
 15 16  1  0  0  0
 16  7  1  0  0  0
 16 17  2  0  0  0
  7  8  1  0  0  0
  7 11  1  0  0  0
  8  9  2  0  0  0
  8 10  1  0  0  0
 10  1  1  0  0  0
 10 12  1  0  0  0
  1  2  1  0  0  0
  1  6  2  0  0  0
  2  3  2  0  0  0
  3  4  1  0  0  0
  4  5  2  0  0  0
  5 21  1  0  0  0
  5  6  1  0  0  0
 21 22  1  0  0  0
 22 23  1  0  0  0
 22 30  2  0  0  0
 23 24  2  0  0  0
 24 25  1  0  0  0
 25 26  2  0  0  0
 26 27  1  0  0  0
 26 30  1  0  0  0
 27 28  2  0  0  0
 28 29  1  0  0  0
 29 30  1  0  0  0
 17 18  1  0  0  0
M  END
> <minimizedAffinity>
-9.15018

$$$$
