CHEMBL4443027


 36 39  0  0  0  0  0  0  0  0999 V2000
  -19.6975    1.8625  -14.3615 C   0  0  0  0  0  0  0  0  0  0  0  0
  -18.6206    0.9534  -14.3878 C   0  0  0  0  0  0  0  0  0  0  0  0
  -17.4605    1.2369  -15.0900 C   0  0  0  0  0  0  0  0  0  0  0  0
  -17.3423    2.4578  -15.7634 C   0  0  0  0  0  0  0  0  0  0  0  0
  -18.4250    3.3421  -15.8026 C   0  0  0  0  0  0  0  0  0  0  0  0
  -19.6069    3.0454  -15.1054 C   0  0  0  0  0  0  0  0  0  0  0  0
  -21.6048   -0.2443  -14.7671 O   0  0  0  0  0  0  0  0  0  0  0  0
  -21.7880    0.6215  -13.9245 C   0  0  0  0  0  0  0  0  0  0  0  0
  -22.9372    0.7434  -13.1542 N   0  0  0  0  0  0  0  0  0  0  0  0
  -20.8861    1.6329  -13.6315 N   0  0  0  0  0  0  0  0  0  0  0  0
  -23.0512    1.6223  -12.6707 H   0  0  0  0  0  0  0  0  0  0  0  0
  -20.9344    2.0157  -12.7122 H   0  0  0  0  0  0  0  0  0  0  0  0
  -24.0721   -0.0954  -13.2297 C   0  0  0  0  0  0  0  0  0  0  0  0
  -24.4151   -0.8387  -14.3645 C   0  0  0  0  0  0  0  0  0  0  0  0
  -25.5977   -1.5839  -14.4112 C   0  0  0  0  0  0  0  0  0  0  0  0
  -26.4336   -1.6128  -13.3037 C   0  0  0  0  0  0  0  0  0  0  0  0
  -27.9089   -2.4910  -13.3706 Cl  0  0  0  0  0  0  0  0  0  0  0  0
  -26.0853   -0.9230  -12.1444 C   0  0  0  0  0  0  0  0  0  0  0  0
  -24.9005   -0.1721  -12.1068 C   0  0  0  0  0  0  0  0  0  0  0  0
  -16.0859    2.7705  -16.4719 C   0  0  0  0  0  0  0  0  0  0  0  0
  -15.3980    1.8679  -16.9337 O   0  0  0  0  0  0  0  0  0  0  0  0
  -15.8378    4.1296  -16.5754 N   0  0  0  0  0  0  0  0  0  0  0  0
  -16.4168    4.7617  -16.0229 H   0  0  0  0  0  0  0  0  0  0  0  0
  -15.4094    4.5775  -17.7893 N   0  0  0  0  0  0  0  0  0  0  0  0
  -14.3349    5.2949  -17.7848 C   0  0  0  0  0  0  0  0  0  0  0  0
  -13.3362    5.5534  -16.6589 C   0  0  0  0  0  0  0  0  0  0  0  0
  -13.1850    4.8587  -15.6833 O   0  0  0  0  0  0  0  0  0  0  0  0
  -12.7359    6.7463  -16.9773 N   0  0  0  0  0  0  0  0  0  0  0  0
  -13.3683    7.3073  -18.0844 C   0  0  0  0  0  0  0  0  0  0  0  0
  -13.5430    8.6458  -18.3435 C   0  0  0  0  0  0  0  0  0  0  0  0
  -14.4626    8.9786  -19.3485 C   0  0  0  0  0  0  0  0  0  0  0  0
  -15.0896    7.9832  -20.1207 C   0  0  0  0  0  0  0  0  0  0  0  0
  -15.9711    8.3459  -21.0605 F   0  0  0  0  0  0  0  0  0  0  0  0
  -14.9205    6.6371  -19.8469 C   0  0  0  0  0  0  0  0  0  0  0  0
  -14.1171    6.3476  -18.7671 C   0  0  0  0  0  0  0  0  0  0  0  0
  -11.9520    7.1265  -16.4689 H   0  0  0  0  0  0  0  0  0  0  0  0
  7  8  2  0  0  0
  8  9  1  0  0  0
  8 10  1  0  0  0
  9 13  1  0  0  0
  9 11  1  0  0  0
 13 14  1  0  0  0
 13 19  2  0  0  0
 14 15  2  0  0  0
 15 16  1  0  0  0
 16 17  1  0  0  0
 16 18  2  0  0  0
 18 19  1  0  0  0
 10  1  1  0  0  0
 10 12  1  0  0  0
  1  2  1  0  0  0
  1  6  2  0  0  0
  2  3  2  0  0  0
  3  4  1  0  0  0
  4 20  1  0  0  0
  4  5  2  0  0  0
 20 21  2  0  0  0
 20 22  1  0  0  0
 22 24  1  0  0  0
 22 23  1  0  0  0
 24 25  2  0  0  0
 25 26  1  0  0  0
 25 35  1  0  0  0
 26 27  2  0  0  0
 26 28  1  0  0  0
 28 29  1  0  0  0
 28 36  1  0  0  0
 29 30  1  0  0  0
 29 35  2  0  0  0
 30 31  2  0  0  0
 31 32  1  0  0  0
 32 33  1  0  0  0
 32 34  2  0  0  0
 34 35  1  0  0  0
  5  6  1  0  0  0
M  END
> <minimizedAffinity>
-9.98614

$$$$
