CHEMBL3986507


 34 37  0  0  0  0  0  0  0  0999 V2000
  -25.3864   -1.8455  -12.1592 C   0  0  0  0  0  0  0  0  0  0  0  0
  -25.4974   -1.4224  -13.4880 C   0  0  0  0  0  0  0  0  0  0  0  0
  -24.3760   -0.9828  -14.1902 C   0  0  0  0  0  0  0  0  0  0  0  0
  -23.1367   -0.9005  -13.5507 C   0  0  0  0  0  0  0  0  0  0  0  0
  -23.0210   -1.3314  -12.2251 C   0  0  0  0  0  0  0  0  0  0  0  0
  -24.1478   -1.7808  -11.5194 C   0  0  0  0  0  0  0  0  0  0  0  0
  -27.7556   -2.7621   -9.5742 N   0  0  0  0  0  0  0  0  0  0  0  0
  -26.7014   -2.0740  -10.1431 C   0  0  0  0  0  0  0  0  0  0  0  0
  -26.0330   -1.2141   -9.5884 O   0  0  0  0  0  0  0  0  0  0  0  0
  -26.5039   -2.3984  -11.4879 N   0  0  0  0  0  0  0  0  0  0  0  0
  -28.3370   -3.3044  -10.1907 H   0  0  0  0  0  0  0  0  0  0  0  0
  -27.3560   -2.4731  -12.0214 H   0  0  0  0  0  0  0  0  0  0  0  0
  -27.9401    0.1498   -5.5790 C   0  0  0  0  0  0  0  0  0  0  0  0
  -28.2522   -1.1582   -6.2472 C   0  0  0  0  0  0  0  0  0  0  0  0
  -28.8725   -2.1788   -5.5203 C   0  0  0  0  0  0  0  0  0  0  0  0
  -29.1943   -3.3782   -6.1427 C   0  0  0  0  0  0  0  0  0  0  0  0
  -28.8786   -3.5744   -7.4853 C   0  0  0  0  0  0  0  0  0  0  0  0
  -29.3498   -4.7001   -8.0387 F   0  0  0  0  0  0  0  0  0  0  0  0
  -28.1982   -2.5990   -8.2305 C   0  0  0  0  0  0  0  0  0  0  0  0
  -27.9182   -1.3736   -7.5992 C   0  0  0  0  0  0  0  0  0  0  0  0
  -21.9843   -0.4566  -14.1691 O   0  0  0  0  0  0  0  0  0  0  0  0
  -21.7502    0.9053  -14.2549 C   0  0  0  0  0  0  0  0  0  0  0  0
  -22.6804    1.8643  -13.8445 C   0  0  0  0  0  0  0  0  0  0  0  0
  -22.3938    3.2015  -14.0198 C   0  0  0  0  0  0  0  0  0  0  0  0
  -21.2412    3.6856  -14.5038 N   0  0  0  0  0  0  0  0  0  0  0  0
  -20.2944    2.7614  -14.8127 C   0  0  0  0  0  0  0  0  0  0  0  0
  -18.9891    3.0788  -15.2758 C   0  0  0  0  0  0  0  0  0  0  0  0
  -18.2058    1.9638  -15.4932 C   0  0  0  0  0  0  0  0  0  0  0  0
  -19.0832    0.5270  -15.1754 S   0  0  0  0  0  0  0  0  0  0  0  0
  -20.5035    1.3856  -14.7035 C   0  0  0  0  0  0  0  0  0  0  0  0
  -16.8223    1.9666  -15.9351 C   0  0  0  0  0  0  0  0  0  0  0  0
  -16.2103    2.9499  -16.3176 O   0  0  0  0  0  0  0  0  0  0  0  0
  -16.2355    0.7451  -15.8772 O   0  0  0  0  0  0  0  0  0  0  0  0
  -16.8465    0.0603  -15.5450 H   0  0  0  0  0  0  0  0  0  0  0  0
 13 14  1  0  0  0
 14 15  1  0  0  0
 14 20  2  0  0  0
 15 16  2  0  0  0
 16 17  1  0  0  0
 17 18  1  0  0  0
 17 19  2  0  0  0
 19  7  1  0  0  0
 19 20  1  0  0  0
  7  8  1  0  0  0
  7 11  1  0  0  0
  8  9  2  0  0  0
  8 10  1  0  0  0
 10  1  1  0  0  0
 10 12  1  0  0  0
  1  2  1  0  0  0
  1  6  2  0  0  0
  2  3  2  0  0  0
  3  4  1  0  0  0
  4 21  1  0  0  0
  4  5  2  0  0  0
 21 22  1  0  0  0
 22 23  1  0  0  0
 22 30  2  0  0  0
 23 24  2  0  0  0
 24 25  1  0  0  0
 25 26  2  0  0  0
 26 27  1  0  0  0
 26 30  1  0  0  0
 27 28  2  0  0  0
 28 31  1  0  0  0
 28 29  1  0  0  0
 31 32  2  0  0  0
 31 33  1  0  0  0
 33 34  1  0  0  0
 29 30  1  0  0  0
  5  6  1  0  0  0
M  END
> <minimizedAffinity>
-11.75507

$$$$
