CHEMBL88771


 34 38  0  0  0  0  0  0  0  0999 V2000
  -29.2082   -7.3041   -6.8319 C   0  0  0  0  0  0  0  0  0  0  0  0
  -28.7620   -6.1016   -7.2200 C   0  0  0  0  0  0  0  0  0  0  0  0
  -27.9095   -5.7913   -8.4271 C   0  0  0  0  0  0  0  0  0  0  0  0
  -27.4567   -6.5458   -9.2671 O   0  0  0  0  0  0  0  0  0  0  0  0
  -27.7571   -4.4176   -8.4115 N   0  0  0  0  0  0  0  0  0  0  0  0
  -28.4183   -3.8413   -7.3351 C   0  0  0  0  0  0  0  0  0  0  0  0
  -28.4785   -2.4920   -7.0507 C   0  0  0  0  0  0  0  0  0  0  0  0
  -29.2188   -2.0632   -5.9354 C   0  0  0  0  0  0  0  0  0  0  0  0
  -29.8470   -3.0632   -5.1437 C   0  0  0  0  0  0  0  0  0  0  0  0
  -29.7645   -4.4352   -5.4429 C   0  0  0  0  0  0  0  0  0  0  0  0
  -29.0463   -4.8165   -6.5601 C   0  0  0  0  0  0  0  0  0  0  0  0
  -27.2334   -3.9259   -9.1198 H   0  0  0  0  0  0  0  0  0  0  0  0
  -29.7074   -9.4234   -8.2322 C   0  0  0  0  0  0  0  0  0  0  0  0
  -28.9305   -8.5003   -7.5377 C   0  0  0  0  0  0  0  0  0  0  0  0
  -27.6154   -8.8924   -7.6275 N   0  0  0  0  0  0  0  0  0  0  0  0
  -27.5305  -10.0271   -8.3797 C   0  0  0  0  0  0  0  0  0  0  0  0
  -28.7992  -10.3771   -8.7926 C   0  0  0  0  0  0  0  0  0  0  0  0
  -29.0427  -11.5466   -9.6937 C   0  0  0  0  0  0  0  0  0  0  0  0
  -27.8049  -12.4633   -9.7954 C   0  0  0  0  0  0  0  0  0  0  0  0
  -26.4872  -11.6723   -9.8949 C   0  0  0  0  0  0  0  0  0  0  0  0
  -26.2729  -10.7661   -8.6712 C   0  0  0  0  0  0  0  0  0  0  0  0
  -26.8336   -8.4162   -7.1988 H   0  0  0  0  0  0  0  0  0  0  0  0
  -31.2030   -9.4146   -8.3737 C   0  0  0  0  0  0  0  0  0  0  0  0
  -31.7817  -10.8265   -8.3485 C   0  0  0  0  0  0  0  0  0  0  0  0
  -33.2709  -10.1486   -6.5530 O   0  0  0  0  0  0  0  0  0  0  0  0
  -32.7493  -11.0320   -7.2141 C   0  0  0  0  0  0  0  0  0  0  0  0
  -32.9973  -12.3447   -6.9859 O   0  0  0  0  0  0  0  0  0  0  0  0
  -32.5113  -12.9468   -7.5827 H   0  0  0  0  0  0  0  0  0  0  0  0
  -29.3468   -0.6167   -5.6189 C   0  0  0  0  0  0  0  0  0  0  0  0
  -30.4938    0.1157   -5.9872 C   0  0  0  0  0  0  0  0  0  0  0  0
  -30.6280    1.4746   -5.6860 C   0  0  0  0  0  0  0  0  0  0  0  0
  -29.6201    2.1354   -4.9947 C   0  0  0  0  0  0  0  0  0  0  0  0
  -28.4749    1.4413   -4.6189 C   0  0  0  0  0  0  0  0  0  0  0  0
  -28.3374    0.0851   -4.9357 C   0  0  0  0  0  0  0  0  0  0  0  0
 25 26  2  0  0  0
 26 27  1  0  0  0
 26 24  1  0  0  0
 27 28  1  0  0  0
 24 23  1  0  0  0
 23 13  1  0  0  0
 13 14  2  0  0  0
 13 17  1  0  0  0
 14  1  1  0  0  0
 14 15  1  0  0  0
  1  2  2  0  0  0
  2  3  1  0  0  0
  2 11  1  0  0  0
  3  4  2  0  0  0
  3  5  1  0  0  0
  5  6  1  0  0  0
  5 12  1  0  0  0
  6  7  1  0  0  0
  6 11  2  0  0  0
  7  8  2  0  0  0
  8 29  1  0  0  0
  8  9  1  0  0  0
 29 30  1  0  0  0
 29 34  2  0  0  0
 30 31  2  0  0  0
 31 32  1  0  0  0
 32 33  2  0  0  0
 33 34  1  0  0  0
  9 10  2  0  0  0
 10 11  1  0  0  0
 15 16  1  0  0  0
 15 22  1  0  0  0
 16 17  2  0  0  0
 16 21  1  0  0  0
 17 18  1  0  0  0
 18 19  1  0  0  0
 19 20  1  0  0  0
 20 21  1  0  0  0
M  END
> <minimizedAffinity>
-6.31338

$$$$
