CHEMBL270545


 32 35  0  0  0  0  0  0  0  0999 V2000
  -30.1555   -7.4789   -7.0167 C   0  0  0  0  0  0  0  0  0  0  0  0
  -29.3988   -6.4752   -7.6165 C   0  0  0  0  0  0  0  0  0  0  0  0
  -29.2741   -5.2093   -7.0100 C   0  0  0  0  0  0  0  0  0  0  0  0
  -29.9085   -4.9120   -5.7943 C   0  0  0  0  0  0  0  0  0  0  0  0
  -30.6705   -5.9447   -5.2056 C   0  0  0  0  0  0  0  0  0  0  0  0
  -30.8108   -7.1976   -5.8178 C   0  0  0  0  0  0  0  0  0  0  0  0
  -31.3358   -5.8331   -4.0060 O   0  0  0  0  0  0  0  0  0  0  0  0
  -31.5712   -4.4769   -3.6396 C   0  0  0  0  0  0  0  0  0  0  0  0
  -30.2970   -3.6612   -3.7401 C   0  0  0  0  0  0  0  0  0  0  0  0
  -29.8222   -3.6240   -5.1327 N   0  0  0  0  0  0  0  0  0  0  0  0
  -29.4260   -2.4544   -5.7934 C   0  0  0  0  0  0  0  0  0  0  0  0
  -29.0988   -2.3912   -6.9762 O   0  0  0  0  0  0  0  0  0  0  0  0
  -29.5026   -1.2924   -5.0442 N   0  0  0  0  0  0  0  0  0  0  0  0
  -29.3038   -1.3704   -4.0609 H   0  0  0  0  0  0  0  0  0  0  0  0
  -29.1780    0.0052   -5.6381 C   0  0  0  0  0  0  0  0  0  0  0  0
  -30.4108    0.9052   -5.6681 C   0  0  0  0  0  0  0  0  0  0  0  0
  -28.0439    0.6758   -4.8668 C   0  0  0  0  0  0  0  0  0  0  0  0
  -30.2387   -8.6980   -7.6677 O   0  0  0  0  0  0  0  0  0  0  0  0
  -25.7112  -10.4348   -5.9660 C   0  0  0  0  0  0  0  0  0  0  0  0
  -25.7207  -10.3980   -7.3635 C   0  0  0  0  0  0  0  0  0  0  0  0
  -26.8306  -10.0147   -8.0903 C   0  0  0  0  0  0  0  0  0  0  0  0
  -26.7338  -10.1205   -9.4221 N   0  0  0  0  0  0  0  0  0  0  0  0
  -27.8245   -9.8516  -10.1579 C   0  0  0  0  0  0  0  0  0  0  0  0
  -29.0180   -9.4357   -9.6250 C   0  0  0  0  0  0  0  0  0  0  0  0
  -29.0889   -9.2194   -8.2435 C   0  0  0  0  0  0  0  0  0  0  0  0
  -27.9908   -9.5768   -7.4189 C   0  0  0  0  0  0  0  0  0  0  0  0
  -27.9592   -9.5345   -5.9990 C   0  0  0  0  0  0  0  0  0  0  0  0
  -26.8183   -9.9397   -5.2739 C   0  0  0  0  0  0  0  0  0  0  0  0
  -23.5319  -10.0743   -5.1291 C   0  0  0  0  0  0  0  0  0  0  0  0
  -24.6479  -10.9579   -5.2715 O   0  0  0  0  0  0  0  0  0  0  0  0
  -26.9613   -9.8694   -3.9122 O   0  0  0  0  0  0  0  0  0  0  0  0
  -28.1515   -9.2423   -3.4365 C   0  0  0  0  0  0  0  0  0  0  0  0
 29 30  1  0  0  0
 30 19  1  0  0  0
 19 20  1  0  0  0
 19 28  2  0  0  0
 20 21  2  0  0  0
 21 22  1  0  0  0
 21 26  1  0  0  0
 22 23  2  0  0  0
 23 24  1  0  0  0
 24 25  2  0  0  0
 25 18  1  0  0  0
 25 26  1  0  0  0
 18  1  1  0  0  0
  1  2  1  0  0  0
  1  6  2  0  0  0
  2  3  2  0  0  0
  3  4  1  0  0  0
  4  5  2  0  0  0
  4 10  1  0  0  0
  5  6  1  0  0  0
  5  7  1  0  0  0
  7  8  1  0  0  0
  8  9  1  0  0  0
  9 10  1  0  0  0
 10 11  1  0  0  0
 11 12  2  0  0  0
 11 13  1  0  0  0
 13 15  1  0  0  0
 13 14  1  0  0  0
 15 16  1  0  0  0
 15 17  1  0  0  0
 26 27  2  0  0  0
 27 28  1  0  0  0
 28 31  1  0  0  0
 31 32  1  0  0  0
M  END
> <minimizedAffinity>
-8.84633

$$$$
