CHEMBL262371


 39 43  0  0  0  0  0  0  0  0999 V2000
  -15.8896    0.5731  -14.6131 C   0  0  0  0  0  0  0  0  0  0  0  0
  -16.4871    0.5045  -13.4022 N   0  0  0  0  0  0  0  0  0  0  0  0
  -15.8320   -0.1247  -12.4358 C   0  0  0  0  0  0  0  0  0  0  0  0
  -14.6647   -0.7458  -12.5629 N   0  0  0  0  0  0  0  0  0  0  0  0
  -14.0614   -0.6735  -13.7596 C   0  0  0  0  0  0  0  0  0  0  0  0
  -12.8400   -1.3283  -13.8739 C   0  0  0  0  0  0  0  0  0  0  0  0
  -12.0892   -1.2851  -15.0422 C   0  0  0  0  0  0  0  0  0  0  0  0
  -12.5861   -0.5710  -16.1252 C   0  0  0  0  0  0  0  0  0  0  0  0
  -13.7989    0.1212  -16.0470 C   0  0  0  0  0  0  0  0  0  0  0  0
  -14.6037    0.0203  -14.8571 C   0  0  0  0  0  0  0  0  0  0  0  0
  -16.6462    1.1686  -15.6500 N   0  0  0  0  0  0  0  0  0  0  0  0
  -16.5573    0.6123  -16.4985 H   0  0  0  0  0  0  0  0  0  0  0  0
  -20.3273    1.3816  -15.0187 C   0  0  0  0  0  0  0  0  0  0  0  0
  -20.5306    2.7575  -15.0045 C   0  0  0  0  0  0  0  0  0  0  0  0
  -19.4630    3.6203  -15.2624 C   0  0  0  0  0  0  0  0  0  0  0  0
  -18.1867    3.1045  -15.5223 C   0  0  0  0  0  0  0  0  0  0  0  0
  -16.9208    4.2226  -15.8968 Cl  0  0  0  0  0  0  0  0  0  0  0  0
  -17.9503    1.7197  -15.5065 C   0  0  0  0  0  0  0  0  0  0  0  0
  -19.0406    0.8777  -15.2265 C   0  0  0  0  0  0  0  0  0  0  0  0
  -22.0102    0.5979  -13.5716 C   0  0  0  0  0  0  0  0  0  0  0  0
  -21.2980    0.4440  -14.7951 O   0  0  0  0  0  0  0  0  0  0  0  0
  -10.8976   -1.9770  -15.0488 O   0  0  0  0  0  0  0  0  0  0  0  0
  -10.9690   -3.2678  -15.6777 C   0  0  0  0  0  0  0  0  0  0  0  0
  -11.2435   -4.3749  -14.6625 C   0  0  0  0  0  0  0  0  0  0  0  0
  -12.6817   -4.9127  -14.8001 C   0  0  0  0  0  0  0  0  0  0  0  0
  -13.2395   -5.5346  -13.5842 N   0  0  0  0  0  0  0  0  0  0  0  0
  -13.5048   -4.5446  -12.5185 C   0  0  0  0  0  0  0  0  0  0  0  0
  -14.2100   -5.1515  -11.2797 C   0  0  0  0  0  0  0  0  0  0  0  0
  -15.4442   -5.9068  -11.5626 N   0  0  0  0  0  0  0  0  0  0  0  0
  -16.5635   -5.0224  -11.8776 C   0  0  0  0  0  0  0  0  0  0  0  0
  -15.1764   -6.8670  -12.6493 C   0  0  0  0  0  0  0  0  0  0  0  0
  -14.4903   -6.2626  -13.9004 C   0  0  0  0  0  0  0  0  0  0  0  0
  -14.2449    0.9097  -17.0840 O   0  0  0  0  0  0  0  0  0  0  0  0
  -13.5189    2.1188  -17.4143 C   0  0  0  0  0  0  0  0  0  0  0  0
  -13.4754    3.1100  -16.2413 C   0  0  0  0  0  0  0  0  0  0  0  0
  -13.0070    4.4875  -16.6893 C   0  0  0  0  0  0  0  0  0  0  0  0
  -13.8200    4.9667  -17.7561 O   0  0  0  0  0  0  0  0  0  0  0  0
  -13.6998    4.1515  -18.9175 C   0  0  0  0  0  0  0  0  0  0  0  0
  -14.1909    2.7376  -18.6460 C   0  0  0  0  0  0  0  0  0  0  0  0
 20 21  1  0  0  0
 21 13  1  0  0  0
 13 14  1  0  0  0
 13 19  2  0  0  0
 14 15  2  0  0  0
 15 16  1  0  0  0
 16 17  1  0  0  0
 16 18  2  0  0  0
 18 11  1  0  0  0
 18 19  1  0  0  0
 11  1  1  0  0  0
 11 12  1  0  0  0
  1  2  1  0  0  0
  1 10  2  0  0  0
  2  3  2  0  0  0
  3  4  1  0  0  0
  4  5  2  0  0  0
  5  6  1  0  0  0
  5 10  1  0  0  0
  6  7  2  0  0  0
  7 22  1  0  0  0
  7  8  1  0  0  0
 22 23  1  0  0  0
 23 24  1  0  0  0
 24 25  1  0  0  0
 25 26  1  0  0  0
 26 27  1  0  0  0
 26 32  1  0  0  0
 27 28  1  0  0  0
 28 29  1  0  0  0
 29 30  1  0  0  0
 29 31  1  0  0  0
 31 32  1  0  0  0
  8  9  2  0  0  0
  9 33  1  0  0  0
  9 10  1  0  0  0
 33 34  1  0  0  0
 34 35  1  0  0  0
 34 39  1  0  0  0
 35 36  1  0  0  0
 36 37  1  0  0  0
 37 38  1  0  0  0
 38 39  1  0  0  0
M  END
> <minimizedAffinity>
-7.38560

$$$$
