CHEMBL384294


 40 45  0  0  0  0  0  0  0  0999 V2000
  -29.6961   -2.6109   -5.9984 C   0  0  0  0  0  0  0  0  0  0  0  0
  -29.2780   -1.3336   -5.5378 C   0  0  0  0  0  0  0  0  0  0  0  0
  -28.4323   -0.5103   -6.2871 C   0  0  0  0  0  0  0  0  0  0  0  0
  -27.9584   -0.9959   -7.4899 C   0  0  0  0  0  0  0  0  0  0  0  0
  -28.3228   -2.3000   -7.9149 C   0  0  0  0  0  0  0  0  0  0  0  0
  -29.1962   -3.1050   -7.2122 C   0  0  0  0  0  0  0  0  0  0  0  0
  -27.6043   -2.5238   -9.1219 C   0  0  0  0  0  0  0  0  0  0  0  0
  -27.4094   -3.5394   -9.9484 N   0  0  0  0  0  0  0  0  0  0  0  0
  -26.5333   -3.0054  -10.8387 N   0  0  0  0  0  0  0  0  0  0  0  0
  -26.1894   -1.6862  -10.5972 C   0  0  0  0  0  0  0  0  0  0  0  0
  -26.8682   -1.3741   -9.4465 C   0  0  0  0  0  0  0  0  0  0  0  0
  -27.0331   -0.2644   -8.4697 C   0  0  0  0  0  0  0  0  0  0  0  0
  -26.1920   -3.5923  -11.5909 H   0  0  0  0  0  0  0  0  0  0  0  0
  -25.2912   -0.9295  -11.4177 C   0  0  0  0  0  0  0  0  0  0  0  0
  -24.5961    0.2119  -11.0716 C   0  0  0  0  0  0  0  0  0  0  0  0
  -23.7415    0.6697  -12.1205 C   0  0  0  0  0  0  0  0  0  0  0  0
  -23.7775   -0.1585  -13.2264 C   0  0  0  0  0  0  0  0  0  0  0  0
  -24.9447   -1.3941  -13.0333 S   0  0  0  0  0  0  0  0  0  0  0  0
  -22.8969   -0.1252  -14.4426 C   0  0  0  0  0  0  0  0  0  0  0  0
  -22.0012    1.0280  -14.4527 N   0  0  0  0  0  0  0  0  0  0  0  0
  -22.5384    2.3021  -13.9966 C   0  0  0  0  0  0  0  0  0  0  0  0
  -20.6995    0.8191  -14.8974 C   0  0  0  0  0  0  0  0  0  0  0  0
  -20.3450   -0.2847  -15.3085 O   0  0  0  0  0  0  0  0  0  0  0  0
  -19.8760    1.9240  -14.8288 N   0  0  0  0  0  0  0  0  0  0  0  0
  -20.2184    2.7083  -14.3002 H   0  0  0  0  0  0  0  0  0  0  0  0
  -18.5154    1.9889  -15.1981 C   0  0  0  0  0  0  0  0  0  0  0  0
  -17.5821    0.9891  -14.9064 C   0  0  0  0  0  0  0  0  0  0  0  0
  -16.2307    1.1682  -15.2171 C   0  0  0  0  0  0  0  0  0  0  0  0
  -15.8190    2.3389  -15.8356 C   0  0  0  0  0  0  0  0  0  0  0  0
  -14.5182    2.5259  -16.0962 F   0  0  0  0  0  0  0  0  0  0  0  0
  -16.7367    3.3200  -16.1836 C   0  0  0  0  0  0  0  0  0  0  0  0
  -18.0875    3.1417  -15.8716 C   0  0  0  0  0  0  0  0  0  0  0  0
  -30.6803   -3.4267   -5.1742 C   0  0  0  0  0  0  0  0  0  0  0  0
  -29.2323   -7.8432   -4.0703 C   0  0  0  0  0  0  0  0  0  0  0  0
  -29.4662   -6.5196   -3.5007 N   0  0  0  0  0  0  0  0  0  0  0  0
  -28.6045   -5.5130   -4.1424 C   0  0  0  0  0  0  0  0  0  0  0  0
  -28.8864   -4.0939   -3.5994 C   0  0  0  0  0  0  0  0  0  0  0  0
  -30.2846   -3.6437   -3.7715 N   0  0  0  0  0  0  0  0  0  0  0  0
  -31.1525   -4.6720   -3.1454 C   0  0  0  0  0  0  0  0  0  0  0  0
  -30.8850   -6.1293   -3.6133 C   0  0  0  0  0  0  0  0  0  0  0  0
 34 35  1  0  0  0
 35 36  1  0  0  0
 35 40  1  0  0  0
 36 37  1  0  0  0
 37 38  1  0  0  0
 38 33  1  0  0  0
 38 39  1  0  0  0
 33  1  1  0  0  0
  1  2  1  0  0  0
  1  6  2  0  0  0
  2  3  2  0  0  0
  3  4  1  0  0  0
  4  5  2  0  0  0
  4 12  1  0  0  0
  5  6  1  0  0  0
  5  7  1  0  0  0
  7  8  2  0  0  0
  7 11  1  0  0  0
  8  9  1  0  0  0
  9 10  1  0  0  0
  9 13  1  0  0  0
 10 14  1  0  0  0
 10 11  2  0  0  0
 14 15  2  0  0  0
 14 18  1  0  0  0
 15 16  1  0  0  0
 16 17  2  0  0  0
 17 19  1  0  0  0
 17 18  1  0  0  0
 19 20  1  0  0  0
 20 21  1  0  0  0
 20 22  1  0  0  0
 22 23  2  0  0  0
 22 24  1  0  0  0
 24 26  1  0  0  0
 24 25  1  0  0  0
 26 27  1  0  0  0
 26 32  2  0  0  0
 27 28  2  0  0  0
 28 29  1  0  0  0
 29 30  1  0  0  0
 29 31  2  0  0  0
 31 32  1  0  0  0
 11 12  1  0  0  0
 39 40  1  0  0  0
M  END
> <minimizedAffinity>
-8.10536

$$$$
