CHEMBL2023800


 33 36  0  0  0  0  0  0  0  0999 V2000
  -26.6353   -1.6790  -12.5247 C   0  0  0  0  0  0  0  0  0  0  0  0
  -27.8946   -1.4726  -11.9635 C   0  0  0  0  0  0  0  0  0  0  0  0
  -28.0208   -1.4910  -10.5560 C   0  0  0  0  0  0  0  0  0  0  0  0
  -26.9073   -1.7769   -9.7454 C   0  0  0  0  0  0  0  0  0  0  0  0
  -25.7066   -1.9282  -10.4175 C   0  0  0  0  0  0  0  0  0  0  0  0
  -25.5316   -1.8740  -11.7715 N   0  0  0  0  0  0  0  0  0  0  0  0
  -26.4853   -1.7503  -14.0457 C   0  0  0  0  0  0  0  0  0  0  0  0
  -24.4522   -0.4622  -13.6657 N   0  0  0  0  0  0  0  0  0  0  0  0
  -25.2809   -1.0090  -14.6238 C   0  0  0  0  0  0  0  0  0  0  0  0
  -25.0905   -1.0124  -15.8331 O   0  0  0  0  0  0  0  0  0  0  0  0
  -24.7350   -0.5414  -12.6900 H   0  0  0  0  0  0  0  0  0  0  0  0
  -21.7829    1.8152  -14.1950 N   0  0  0  0  0  0  0  0  0  0  0  0
  -23.0878    1.6046  -13.8550 C   0  0  0  0  0  0  0  0  0  0  0  0
  -23.2962    0.2510  -13.9327 C   0  0  0  0  0  0  0  0  0  0  0  0
  -22.0486   -0.2678  -14.3453 C   0  0  0  0  0  0  0  0  0  0  0  0
  -21.1210    0.6831  -14.5019 N   0  0  0  0  0  0  0  0  0  0  0  0
  -19.9332    3.0914  -15.2012 C   0  0  0  0  0  0  0  0  0  0  0  0
  -21.1032    3.0957  -14.2337 C   0  0  0  0  0  0  0  0  0  0  0  0
  -26.8901   -1.9124   -8.3631 O   0  0  0  0  0  0  0  0  0  0  0  0
  -28.0131   -1.5275   -7.6387 C   0  0  0  0  0  0  0  0  0  0  0  0
  -28.1572   -0.1970   -7.2341 C   0  0  0  0  0  0  0  0  0  0  0  0
  -28.9954    0.0593   -6.1835 C   0  0  0  0  0  0  0  0  0  0  0  0
  -29.6038   -0.9112   -5.4827 N   0  0  0  0  0  0  0  0  0  0  0  0
  -29.5073   -2.1771   -5.9458 C   0  0  0  0  0  0  0  0  0  0  0  0
  -29.8689   -3.1950   -5.0927 C   0  0  0  0  0  0  0  0  0  0  0  0
  -29.6087   -4.4871   -5.5018 C   0  0  0  0  0  0  0  0  0  0  0  0
  -29.7177   -4.7982   -6.8399 C   0  0  0  0  0  0  0  0  0  0  0  0
  -29.2041   -3.8198   -7.6821 C   0  0  0  0  0  0  0  0  0  0  0  0
  -28.9077   -2.5192   -7.1501 C   0  0  0  0  0  0  0  0  0  0  0  0
  -28.8327   -5.3346   -4.7352 O   0  0  0  0  0  0  0  0  0  0  0  0
  -27.8597   -4.6333   -3.9351 C   0  0  0  0  0  0  0  0  0  0  0  0
  -30.1346   -6.0043   -7.3225 O   0  0  0  0  0  0  0  0  0  0  0  0
  -29.0992   -6.8994   -7.7812 C   0  0  0  0  0  0  0  0  0  0  0  0
 17 18  1  0  0  0
 18 12  1  0  0  0
 12 13  1  0  0  0
 12 16  1  0  0  0
 13 14  2  0  0  0
 14  8  1  0  0  0
 14 15  1  0  0  0
  8  9  1  0  0  0
  8 11  1  0  0  0
  9 10  2  0  0  0
  9  7  1  0  0  0
  7  1  1  0  0  0
  1  2  1  0  0  0
  1  6  2  0  0  0
  2  3  2  0  0  0
  3  4  1  0  0  0
  4 19  1  0  0  0
  4  5  2  0  0  0
 19 20  1  0  0  0
 20 21  1  0  0  0
 20 29  2  0  0  0
 21 22  2  0  0  0
 22 23  1  0  0  0
 23 24  2  0  0  0
 24 25  1  0  0  0
 24 29  1  0  0  0
 25 26  2  0  0  0
 26 30  1  0  0  0
 26 27  1  0  0  0
 30 31  1  0  0  0
 27 32  1  0  0  0
 27 28  2  0  0  0
 32 33  1  0  0  0
 28 29  1  0  0  0
  5  6  1  0  0  0
 15 16  2  0  0  0
M  END
> <minimizedAffinity>
-9.17308

$$$$
