CHEMBL1983006


 27 28  0  0  0  0  0  0  0  0999 V2000
  -28.9189   -4.8193   -5.3687 N   0  0  0  0  0  0  0  0  0  0  0  0
  -28.0355   -5.5169   -4.5895 C   0  0  0  0  0  0  0  0  0  0  0  0
  -27.1215   -5.0313   -3.9244 O   0  0  0  0  0  0  0  0  0  0  0  0
  -28.2324   -6.8675   -4.4858 N   0  0  0  0  0  0  0  0  0  0  0  0
  -29.7030   -5.3538   -5.7385 H   0  0  0  0  0  0  0  0  0  0  0  0
  -27.6371   -7.2991   -3.7909 H   0  0  0  0  0  0  0  0  0  0  0  0
  -29.6456   -2.5719   -4.7765 C   0  0  0  0  0  0  0  0  0  0  0  0
  -29.6253   -1.1929   -5.0318 C   0  0  0  0  0  0  0  0  0  0  0  0
  -28.9672   -0.6483   -6.1484 C   0  0  0  0  0  0  0  0  0  0  0  0
  -28.3025   -1.5222   -7.0127 C   0  0  0  0  0  0  0  0  0  0  0  0
  -27.4727   -1.0195   -8.4437 Cl  0  0  0  0  0  0  0  0  0  0  0  0
  -28.2863   -2.8980   -6.7500 C   0  0  0  0  0  0  0  0  0  0  0  0
  -28.9374   -3.4322   -5.6350 C   0  0  0  0  0  0  0  0  0  0  0  0
  -29.0816    0.8372   -6.2813 C   0  0  0  0  0  0  0  0  0  0  0  0
  -30.1649    1.4013   -6.2422 O   0  0  0  0  0  0  0  0  0  0  0  0
  -27.9448    1.5355   -6.4451 O   0  0  0  0  0  0  0  0  0  0  0  0
  -27.1215    1.0087   -6.4710 H   0  0  0  0  0  0  0  0  0  0  0  0
  -29.8490   -2.7220   -2.4091 C   0  0  0  0  0  0  0  0  0  0  0  0
  -30.3067   -3.1276   -3.7035 O   0  0  0  0  0  0  0  0  0  0  0  0
  -29.0495   -7.6790   -5.2695 C   0  0  0  0  0  0  0  0  0  0  0  0
  -28.6179   -8.9525   -5.6328 C   0  0  0  0  0  0  0  0  0  0  0  0
  -29.3400   -9.7795   -6.4316 N   0  0  0  0  0  0  0  0  0  0  0  0
  -30.5175   -9.2718   -6.8771 C   0  0  0  0  0  0  0  0  0  0  0  0
  -30.9532   -8.0087   -6.5210 C   0  0  0  0  0  0  0  0  0  0  0  0
  -30.2408   -7.2026   -5.6975 N   0  0  0  0  0  0  0  0  0  0  0  0
  -31.3033  -10.0966   -7.7377 C   0  0  0  0  0  0  0  0  0  0  0  0
  -31.9865  -10.7513   -8.4147 N   0  0  0  0  0  0  0  0  0  0  0  0
 18 19  1  0  0  0
 19  7  1  0  0  0
  7  8  1  0  0  0
  7 13  2  0  0  0
  8  9  2  0  0  0
  9 14  1  0  0  0
  9 10  1  0  0  0
 14 15  2  0  0  0
 14 16  1  0  0  0
 16 17  1  0  0  0
 10 11  1  0  0  0
 10 12  2  0  0  0
 12 13  1  0  0  0
 13  1  1  0  0  0
  1  2  1  0  0  0
  1  5  1  0  0  0
  2  3  2  0  0  0
  2  4  1  0  0  0
  4 20  1  0  0  0
  4  6  1  0  0  0
 20 21  1  0  0  0
 20 25  2  0  0  0
 21 22  2  0  0  0
 22 23  1  0  0  0
 23 26  1  0  0  0
 23 24  2  0  0  0
 26 27  3  0  0  0
 24 25  1  0  0  0
M  END
> <minimizedAffinity>
-7.29323

$$$$
