CHEMBL373621


 40 42  0  0  0  0  0  0  0  0999 V2000
  -15.2817    3.6330  -17.6128 N   0  0  0  0  0  0  0  0  0  0  0  0
  -15.3078    3.4756  -16.2247 C   0  0  0  0  0  0  0  0  0  0  0  0
  -14.5995    4.0850  -15.4245 O   0  0  0  0  0  0  0  0  0  0  0  0
  -15.8155    2.9917  -18.1897 H   0  0  0  0  0  0  0  0  0  0  0  0
  -16.2306    2.4515  -15.6329 C   0  0  0  0  0  0  0  0  0  0  0  0
  -15.6827    1.3952  -14.8628 C   0  0  0  0  0  0  0  0  0  0  0  0
  -16.5069    0.4070  -14.3018 C   0  0  0  0  0  0  0  0  0  0  0  0
  -17.8863    0.4709  -14.5103 C   0  0  0  0  0  0  0  0  0  0  0  0
  -18.4344    1.5059  -15.2691 C   0  0  0  0  0  0  0  0  0  0  0  0
  -17.6117    2.4848  -15.8210 C   0  0  0  0  0  0  0  0  0  0  0  0
  -18.1874    3.4519  -16.5461 F   0  0  0  0  0  0  0  0  0  0  0  0
  -15.9741   -0.6712  -13.5176 C   0  0  0  0  0  0  0  0  0  0  0  0
  -15.5756   -1.6170  -12.8820 C   0  0  0  0  0  0  0  0  0  0  0  0
  -15.1252   -2.7405  -12.1186 C   0  0  0  0  0  0  0  0  0  0  0  0
  -13.8144   -3.1669  -12.0998 C   0  0  0  0  0  0  0  0  0  0  0  0
  -13.3817   -4.2501  -11.4105 N   0  0  0  0  0  0  0  0  0  0  0  0
  -14.3058   -4.9326  -10.7284 C   0  0  0  0  0  0  0  0  0  0  0  0
  -13.9077   -6.0635  -10.0514 N   0  0  0  0  0  0  0  0  0  0  0  0
  -15.5938   -4.5859  -10.6445 N   0  0  0  0  0  0  0  0  0  0  0  0
  -15.9774   -3.4969  -11.3487 C   0  0  0  0  0  0  0  0  0  0  0  0
  -12.9226   -6.0280   -9.8347 H   0  0  0  0  0  0  0  0  0  0  0  0
  -14.5510   -6.2689   -9.3006 H   0  0  0  0  0  0  0  0  0  0  0  0
  -13.1036    4.1854  -18.6984 C   0  0  0  0  0  0  0  0  0  0  0  0
  -12.3492    5.2153  -19.3202 C   0  0  0  0  0  0  0  0  0  0  0  0
  -12.8897    6.4533  -19.6814 C   0  0  0  0  0  0  0  0  0  0  0  0
  -14.2286    6.7200  -19.4369 C   0  0  0  0  0  0  0  0  0  0  0  0
  -14.9789    5.7597  -18.7509 C   0  0  0  0  0  0  0  0  0  0  0  0
  -14.4401    4.5256  -18.3343 C   0  0  0  0  0  0  0  0  0  0  0  0
  -14.8894    7.9889  -19.9055 C   0  0  0  0  0  0  0  0  0  0  0  0
  -15.9495    7.7742  -20.7355 F   0  0  0  0  0  0  0  0  0  0  0  0
  -15.3769    8.7319  -18.8721 F   0  0  0  0  0  0  0  0  0  0  0  0
  -14.0432    8.8066  -20.5892 F   0  0  0  0  0  0  0  0  0  0  0  0
  -12.5220    2.8963  -18.5194 N   0  0  0  0  0  0  0  0  0  0  0  0
  -11.3443    2.8278  -17.6512 C   0  0  0  0  0  0  0  0  0  0  0  0
  -12.5013    2.0236  -19.7290 C   0  0  0  0  0  0  0  0  0  0  0  0
  -13.7459    1.1457  -19.8865 C   0  0  0  0  0  0  0  0  0  0  0  0
  -14.1027    0.4030  -18.5839 C   0  0  0  0  0  0  0  0  0  0  0  0
  -13.0606   -0.7054  -16.6710 C   0  0  0  0  0  0  0  0  0  0  0  0
  -13.1003   -0.5803  -18.1296 N   0  0  0  0  0  0  0  0  0  0  0  0
  -13.3737   -1.8933  -18.7255 C   0  0  0  0  0  0  0  0  0  0  0  0
 38 39  1  0  0  0
 39 40  1  0  0  0
 39 37  1  0  0  0
 37 36  1  0  0  0
 36 35  1  0  0  0
 35 33  1  0  0  0
 33 34  1  0  0  0
 33 23  1  0  0  0
 23 24  1  0  0  0
 23 28  2  0  0  0
 24 25  2  0  0  0
 25 26  1  0  0  0
 26 29  1  0  0  0
 26 27  2  0  0  0
 29 30  1  0  0  0
 29 31  1  0  0  0
 29 32  1  0  0  0
 27 28  1  0  0  0
 28  1  1  0  0  0
  1  2  1  0  0  0
  1  4  1  0  0  0
  2  3  2  0  0  0
  2  5  1  0  0  0
  5  6  1  0  0  0
  5 10  2  0  0  0
  6  7  2  0  0  0
  7 12  1  0  0  0
  7  8  1  0  0  0
 12 13  3  0  0  0
 13 14  1  0  0  0
 14 15  1  0  0  0
 14 20  2  0  0  0
 15 16  2  0  0  0
 16 17  1  0  0  0
 17 18  1  0  0  0
 17 19  2  0  0  0
 18 21  1  0  0  0
 18 22  1  0  0  0
 19 20  1  0  0  0
  8  9  2  0  0  0
  9 10  1  0  0  0
 10 11  1  0  0  0
M  END
> <minimizedAffinity>
-7.15793

$$$$
