CHEMBL3963323


 36 40  0  0  0  0  0  0  0  0999 V2000
  -28.4217   -9.8264   -4.8691 N   0  0  0  0  0  0  0  0  0  0  0  0
  -28.8970   -8.4925   -5.1763 C   0  0  0  0  0  0  0  0  0  0  0  0
  -29.8121   -8.4522   -6.2249 C   0  0  0  0  0  0  0  0  0  0  0  0
  -29.9114   -7.3222   -7.0140 C   0  0  0  0  0  0  0  0  0  0  0  0
  -29.2642   -6.1599   -6.6995 C   0  0  0  0  0  0  0  0  0  0  0  0
  -29.3274   -5.2475   -7.6746 N   0  0  0  0  0  0  0  0  0  0  0  0
  -28.8953   -4.0172   -7.3870 C   0  0  0  0  0  0  0  0  0  0  0  0
  -28.4824   -3.6616   -6.1218 C   0  0  0  0  0  0  0  0  0  0  0  0
  -28.2919   -4.6279   -5.1461 N   0  0  0  0  0  0  0  0  0  0  0  0
  -28.6264   -5.9716   -5.4514 C   0  0  0  0  0  0  0  0  0  0  0  0
  -28.3964   -7.2283   -4.7225 C   0  0  0  0  0  0  0  0  0  0  0  0
  -28.4345   -2.2117   -5.8752 C   0  0  0  0  0  0  0  0  0  0  0  0
  -27.4393   -1.4413   -5.2083 C   0  0  0  0  0  0  0  0  0  0  0  0
  -27.8535   -0.2091   -4.8797 N   0  0  0  0  0  0  0  0  0  0  0  0
  -29.1241   -0.1784   -5.3135 N   0  0  0  0  0  0  0  0  0  0  0  0
  -29.8660    1.0626   -5.3268 C   0  0  0  0  0  0  0  0  0  0  0  0
  -29.5557   -1.3948   -5.7730 C   0  0  0  0  0  0  0  0  0  0  0  0
  -24.6640  -10.0891   -4.8837 C   0  0  0  0  0  0  0  0  0  0  0  0
  -24.4416  -10.8437   -3.7311 C   0  0  0  0  0  0  0  0  0  0  0  0
  -25.5221  -11.3083   -2.9884 C   0  0  0  0  0  0  0  0  0  0  0  0
  -26.8302  -11.0160   -3.3989 C   0  0  0  0  0  0  0  0  0  0  0  0
  -27.1088  -10.2727   -4.5570 C   0  0  0  0  0  0  0  0  0  0  0  0
  -25.9927   -9.8275   -5.3010 C   0  0  0  0  0  0  0  0  0  0  0  0
  -22.7082  -10.4449   -6.2200 C   0  0  0  0  0  0  0  0  0  0  0  0
  -23.6598   -9.5416   -5.6482 O   0  0  0  0  0  0  0  0  0  0  0  0
  -25.4370  -12.0308   -1.8277 O   0  0  0  0  0  0  0  0  0  0  0  0
  -24.1389  -12.2392   -1.2861 C   0  0  0  0  0  0  0  0  0  0  0  0
  -29.2941  -10.8278   -5.6208 C   0  0  0  0  0  0  0  0  0  0  0  0
  -28.5816  -11.7037   -6.6911 C   0  0  0  0  0  0  0  0  0  0  0  0
  -28.3285  -11.0093   -7.9679 N   0  0  0  0  0  0  0  0  0  0  0  0
  -29.3503  -10.8348   -8.8855 C   0  0  0  0  0  0  0  0  0  0  0  0
  -30.4664  -11.3198   -8.7690 O   0  0  0  0  0  0  0  0  0  0  0  0
  -27.5112  -10.4425   -8.0597 H   0  0  0  0  0  0  0  0  0  0  0  0
  -29.0297   -9.9512  -10.0501 C   0  0  0  0  0  0  0  0  0  0  0  0
  -28.8447  -10.5806  -11.4211 C   0  0  0  0  0  0  0  0  0  0  0  0
  -27.6566  -10.0359  -10.6945 C   0  0  0  0  0  0  0  0  0  0  0  0
 24 25  1  0  0  0
 25 18  1  0  0  0
 18 19  1  0  0  0
 18 23  2  0  0  0
 19 20  2  0  0  0
 20 26  1  0  0  0
 20 21  1  0  0  0
 26 27  1  0  0  0
 21 22  2  0  0  0
 22  1  1  0  0  0
 22 23  1  0  0  0
  1 28  1  0  0  0
  1  2  1  0  0  0
 28 29  1  0  0  0
 29 30  1  0  0  0
 30 31  1  0  0  0
 30 33  1  0  0  0
 31 32  2  0  0  0
 31 34  1  0  0  0
 34 35  1  0  0  0
 34 36  1  0  0  0
 35 36  1  0  0  0
  2  3  1  0  0  0
  2 11  2  0  0  0
  3  4  2  0  0  0
  4  5  1  0  0  0
  5  6  1  0  0  0
  5 10  2  0  0  0
  6  7  2  0  0  0
  7  8  1  0  0  0
  8 12  1  0  0  0
  8  9  2  0  0  0
 12 13  1  0  0  0
 12 17  2  0  0  0
 13 14  2  0  0  0
 14 15  1  0  0  0
 15 16  1  0  0  0
 15 17  1  0  0  0
  9 10  1  0  0  0
 10 11  1  0  0  0
M  END
> <minimizedAffinity>
-7.84385

$$$$
