CHEMBL3648102


 27 28  0  0  0  0  0  0  0  0999 V2000
  -14.1741   -4.0880  -12.1060 C   0  0  0  0  0  0  0  0  0  0  0  0
  -14.6813   -3.3300  -13.1178 N   0  0  0  0  0  0  0  0  0  0  0  0
  -15.5058   -2.3257  -12.7722 C   0  0  0  0  0  0  0  0  0  0  0  0
  -15.7751   -1.9974  -11.4987 N   0  0  0  0  0  0  0  0  0  0  0  0
  -15.2185   -2.7365  -10.5263 C   0  0  0  0  0  0  0  0  0  0  0  0
  -14.4196   -3.8240  -10.7681 C   0  0  0  0  0  0  0  0  0  0  0  0
  -13.7616   -4.8187   -9.3043 Br  0  0  0  0  0  0  0  0  0  0  0  0
  -16.1018   -1.5868  -13.7938 N   0  0  0  0  0  0  0  0  0  0  0  0
  -16.9765   -1.9868  -14.0945 H   0  0  0  0  0  0  0  0  0  0  0  0
  -15.8547   -0.2537  -14.1649 C   0  0  0  0  0  0  0  0  0  0  0  0
  -16.8167    0.4542  -14.8974 C   0  0  0  0  0  0  0  0  0  0  0  0
  -16.5480    1.7388  -15.3897 C   0  0  0  0  0  0  0  0  0  0  0  0
  -15.3102    2.3348  -15.1377 C   0  0  0  0  0  0  0  0  0  0  0  0
  -14.3497    1.6650  -14.3841 C   0  0  0  0  0  0  0  0  0  0  0  0
  -14.6251    0.3779  -13.9141 C   0  0  0  0  0  0  0  0  0  0  0  0
  -14.9285    3.9205  -15.8658 S   0  0  0  0  0  0  0  0  0  0  0  0
  -14.6826    3.5522  -17.5881 C   0  0  0  0  0  0  0  0  0  0  0  0
  -16.2081    4.7678  -15.7306 N   0  0  0  0  0  0  0  0  0  0  0  0
  -13.6289    4.3117  -15.3639 O   0  0  0  0  0  0  0  0  0  0  0  0
  -16.9837    4.4461  -16.3053 H   0  0  0  0  0  0  0  0  0  0  0  0
  -13.2431   -5.5370  -12.6126 S   0  0  0  0  0  0  0  0  0  0  0  0
  -14.4601   -6.9044  -12.3497 C   0  0  0  0  0  0  0  0  0  0  0  0
  -13.6584   -8.0745  -11.7599 C   0  0  0  0  0  0  0  0  0  0  0  0
  -14.7751   -6.4848  -14.8679 C   0  0  0  0  0  0  0  0  0  0  0  0
  -15.1873   -7.3172  -13.6558 C   0  0  0  0  0  0  0  0  0  0  0  0
  -14.9148   -8.6763  -14.0097 O   0  0  0  0  0  0  0  0  0  0  0  0
  -13.9473   -8.7917  -14.0360 H   0  0  0  0  0  0  0  0  0  0  0  0
 24 25  1  0  0  0
 25 26  1  0  0  0
 25 22  1  0  0  0
 26 27  1  0  0  0
 22 23  1  0  0  0
 22 21  1  0  0  0
 21  1  1  0  0  0
  1  2  1  0  0  0
  1  6  2  0  0  0
  2  3  2  0  0  0
  3  8  1  0  0  0
  3  4  1  0  0  0
  8 10  1  0  0  0
  8  9  1  0  0  0
 10 11  1  0  0  0
 10 15  2  0  0  0
 11 12  2  0  0  0
 12 13  1  0  0  0
 13 16  1  0  0  0
 13 14  2  0  0  0
 16 17  1  0  0  0
 16 18  2  0  0  0
 16 19  2  0  0  0
 18 20  1  0  0  0
 14 15  1  0  0  0
  4  5  2  0  0  0
  5  6  1  0  0  0
  6  7  1  0  0  0
M  END
> <minimizedAffinity>
-6.60577

$$$$
