CHEMBL1271721


 23 25  0  0  0  0  0  0  0  0999 V2000
  -22.5028   -0.5341  -11.8280 O   0  0  0  0  0  0  0  0  0  0  0  0
  -23.4214   -0.2459  -12.5904 C   0  0  0  0  0  0  0  0  0  0  0  0
  -23.3399    0.6413  -13.6449 N   0  0  0  0  0  0  0  0  0  0  0  0
  -24.2156    0.8809  -14.1026 H   0  0  0  0  0  0  0  0  0  0  0  0
  -22.1941    1.3904  -13.9892 C   0  0  0  0  0  0  0  0  0  0  0  0
  -22.1605    2.7776  -14.0762 C   0  0  0  0  0  0  0  0  0  0  0  0
  -21.0878    3.4978  -14.4860 N   0  0  0  0  0  0  0  0  0  0  0  0
  -19.9887    2.8266  -14.8459 C   0  0  0  0  0  0  0  0  0  0  0  0
  -18.9096    3.5399  -15.3441 C   0  0  0  0  0  0  0  0  0  0  0  0
  -17.7430    2.8957  -15.7623 C   0  0  0  0  0  0  0  0  0  0  0  0
  -17.6474    1.5117  -15.6752 C   0  0  0  0  0  0  0  0  0  0  0  0
  -18.7167    0.7734  -15.1703 C   0  0  0  0  0  0  0  0  0  0  0  0
  -19.8952    1.4192  -14.7637 C   0  0  0  0  0  0  0  0  0  0  0  0
  -21.0178    0.7098  -14.2983 C   0  0  0  0  0  0  0  0  0  0  0  0
  -24.7425   -0.8899  -12.3478 C   0  0  0  0  0  0  0  0  0  0  0  0
  -25.1389   -1.0196  -11.0044 C   0  0  0  0  0  0  0  0  0  0  0  0
  -26.3885   -1.5414  -10.6718 C   0  0  0  0  0  0  0  0  0  0  0  0
  -27.2650   -1.9284  -11.6815 C   0  0  0  0  0  0  0  0  0  0  0  0
  -26.8782   -1.8108  -13.0169 C   0  0  0  0  0  0  0  0  0  0  0  0
  -27.9898   -2.2785  -14.2529 Cl  0  0  0  0  0  0  0  0  0  0  0  0
  -25.6158   -1.3053  -13.3588 C   0  0  0  0  0  0  0  0  0  0  0  0
  -25.2501   -1.2065  -14.6802 O   0  0  0  0  0  0  0  0  0  0  0  0
  -26.0336   -1.4556  -15.2120 H   0  0  0  0  0  0  0  0  0  0  0  0
  1  2  2  0  0  0
  2  3  1  0  0  0
  2 15  1  0  0  0
  3  5  1  0  0  0
  3  4  1  0  0  0
  5  6  1  0  0  0
  5 14  2  0  0  0
  6  7  2  0  0  0
  7  8  1  0  0  0
  8  9  1  0  0  0
  8 13  2  0  0  0
  9 10  2  0  0  0
 10 11  1  0  0  0
 11 12  2  0  0  0
 12 13  1  0  0  0
 13 14  1  0  0  0
 15 16  1  0  0  0
 15 21  2  0  0  0
 16 17  2  0  0  0
 17 18  1  0  0  0
 18 19  2  0  0  0
 19 20  1  0  0  0
 19 21  1  0  0  0
 21 22  1  0  0  0
 22 23  1  0  0  0
M  END
> <minimizedAffinity>
-10.15659

$$$$
