CHEMBL4635625


 31 35  0  0  0  0  0  0  0  0999 V2000
  -15.4149    4.3799  -17.8737 C   0  0  0  0  0  0  0  0  0  0  0  0
  -15.6194    4.1991  -16.4107 C   0  0  0  0  0  0  0  0  0  0  0  0
  -14.6033    3.5687  -15.5021 C   0  0  0  0  0  0  0  0  0  0  0  0
  -13.4542    2.7527  -16.0167 C   0  0  0  0  0  0  0  0  0  0  0  0
  -14.0030    1.4045  -16.2606 N   0  0  0  0  0  0  0  0  0  0  0  0
  -15.4744    1.5132  -16.4391 C   0  0  0  0  0  0  0  0  0  0  0  0
  -15.8804    2.8319  -15.7756 C   0  0  0  0  0  0  0  0  0  0  0  0
  -13.6975    0.4763  -15.2372 C   0  0  0  0  0  0  0  0  0  0  0  0
  -14.6459    0.1370  -14.3414 N   0  0  0  0  0  0  0  0  0  0  0  0
  -14.3512   -0.7321  -13.3600 C   0  0  0  0  0  0  0  0  0  0  0  0
  -13.1509   -1.3164  -13.2257 N   0  0  0  0  0  0  0  0  0  0  0  0
  -12.2085   -0.9610  -14.1247 C   0  0  0  0  0  0  0  0  0  0  0  0
  -12.4291   -0.0723  -15.1485 C   0  0  0  0  0  0  0  0  0  0  0  0
  -11.4452    0.2481  -16.0005 F   0  0  0  0  0  0  0  0  0  0  0  0
  -15.3043   -1.0327  -12.3817 N   0  0  0  0  0  0  0  0  0  0  0  0
  -15.8038   -0.1820  -12.1524 H   0  0  0  0  0  0  0  0  0  0  0  0
  -15.7234   -2.2410  -11.9563 C   0  0  0  0  0  0  0  0  0  0  0  0
  -15.8197   -2.7573  -10.6499 C   0  0  0  0  0  0  0  0  0  0  0  0
  -16.2436   -4.0213  -10.6221 N   0  0  0  0  0  0  0  0  0  0  0  0
  -16.4078   -4.3188  -11.9236 N   0  0  0  0  0  0  0  0  0  0  0  0
  -16.8299   -5.6440  -12.3028 C   0  0  0  0  0  0  0  0  0  0  0  0
  -16.1288   -3.2771  -12.7633 C   0  0  0  0  0  0  0  0  0  0  0  0
  -16.9753    2.7669  -14.8383 N   0  0  0  0  0  0  0  0  0  0  0  0
  -18.2835    2.7821  -15.2852 C   0  0  0  0  0  0  0  0  0  0  0  0
  -18.5841    2.8377  -16.4735 O   0  0  0  0  0  0  0  0  0  0  0  0
  -16.7671    2.6343  -13.8534 H   0  0  0  0  0  0  0  0  0  0  0  0
  -19.3640    2.7297  -14.2839 C   0  0  0  0  0  0  0  0  0  0  0  0
  -20.3838    1.6023  -14.3389 C   0  0  0  0  0  0  0  0  0  0  0  0
  -20.7831    3.0092  -14.5737 C   0  0  0  0  0  0  0  0  0  0  0  0
  -21.5715    3.6571  -13.6506 F   0  0  0  0  0  0  0  0  0  0  0  0
  -21.2005    3.4079  -15.8222 F   0  0  0  0  0  0  0  0  0  0  0  0
  1  2  1  0  0  0
  2  3  1  0  0  0
  2  7  1  0  0  0
  3  4  1  0  0  0
  3  7  1  0  0  0
  4  5  1  0  0  0
  5  8  1  0  0  0
  5  6  1  0  0  0
  8  9  1  0  0  0
  8 13  2  0  0  0
  9 10  2  0  0  0
 10 15  1  0  0  0
 10 11  1  0  0  0
 15 17  1  0  0  0
 15 16  1  0  0  0
 17 18  1  0  0  0
 17 22  2  0  0  0
 18 19  2  0  0  0
 19 20  1  0  0  0
 20 21  1  0  0  0
 20 22  1  0  0  0
 11 12  2  0  0  0
 12 13  1  0  0  0
 13 14  1  0  0  0
  6  7  1  0  0  0
  7 23  1  0  0  0
 23 24  1  0  0  0
 23 26  1  0  0  0
 24 25  2  0  0  0
 24 27  1  0  0  0
 27 28  1  0  0  0
 27 29  1  0  0  0
 28 29  1  0  0  0
 29 30  1  0  0  0
 29 31  1  0  0  0
M  END
> <minimizedAffinity>
-7.83953

$$$$
