CHEMBL4793580


 41 44  0  0  0  0  0  0  0  0999 V2000
  -12.2182    2.6554  -14.7518 C   0  0  0  0  0  0  0  0  0  0  0  0
  -12.3178    3.5136  -13.6993 N   0  0  0  0  0  0  0  0  0  0  0  0
  -12.4320    1.3949  -14.5306 N   0  0  0  0  0  0  0  0  0  0  0  0
  -12.7132    4.4139  -13.9376 H   0  0  0  0  0  0  0  0  0  0  0  0
  -12.7900    3.0674  -12.9175 H   0  0  0  0  0  0  0  0  0  0  0  0
  -12.5476    0.5818  -15.6332 N   0  0  0  0  0  0  0  0  0  0  0  0
  -12.8248   -0.6440  -15.3198 C   0  0  0  0  0  0  0  0  0  0  0  0
  -12.9571   -1.3128  -13.9381 C   0  0  0  0  0  0  0  0  0  0  0  0
  -12.8886   -0.7754  -12.8523 O   0  0  0  0  0  0  0  0  0  0  0  0
  -13.1447   -2.6648  -14.2109 N   0  0  0  0  0  0  0  0  0  0  0  0
  -13.1982   -2.8931  -15.5976 C   0  0  0  0  0  0  0  0  0  0  0  0
  -13.3859   -4.0748  -16.2884 C   0  0  0  0  0  0  0  0  0  0  0  0
  -13.3894   -4.0217  -17.6909 C   0  0  0  0  0  0  0  0  0  0  0  0
  -13.2153   -2.8006  -18.3723 C   0  0  0  0  0  0  0  0  0  0  0  0
  -13.2204   -2.7796  -20.0924 Cl  0  0  0  0  0  0  0  0  0  0  0  0
  -13.0369   -1.6112  -17.6761 C   0  0  0  0  0  0  0  0  0  0  0  0
  -13.0303   -1.6988  -16.2981 C   0  0  0  0  0  0  0  0  0  0  0  0
  -13.0201   -3.6830  -13.1919 C   0  0  0  0  0  0  0  0  0  0  0  0
  -14.3781   -4.2201  -12.7905 C   0  0  0  0  0  0  0  0  0  0  0  0
  -15.2264   -3.4636  -11.9669 C   0  0  0  0  0  0  0  0  0  0  0  0
  -16.4308   -3.9986  -11.5062 C   0  0  0  0  0  0  0  0  0  0  0  0
  -16.7991   -5.2950  -11.8591 C   0  0  0  0  0  0  0  0  0  0  0  0
  -15.9737   -6.0508  -12.6877 C   0  0  0  0  0  0  0  0  0  0  0  0
  -14.7730   -5.5149  -13.1551 C   0  0  0  0  0  0  0  0  0  0  0  0
  -11.9519    3.4183  -16.2995 S   0  0  0  0  0  0  0  0  0  0  0  0
  -13.3548    4.4506  -16.3752 C   0  0  0  0  0  0  0  0  0  0  0  0
  -14.6115    4.1168  -16.2711 N   0  0  0  0  0  0  0  0  0  0  0  0
  -12.9001    5.9112  -16.3481 C   0  0  0  0  0  0  0  0  0  0  0  0
  -12.7887    6.6237  -17.3261 O   0  0  0  0  0  0  0  0  0  0  0  0
  -12.4944    6.2199  -15.0897 O   0  0  0  0  0  0  0  0  0  0  0  0
  -11.0428    7.4621  -13.5693 C   0  0  0  0  0  0  0  0  0  0  0  0
  -11.6563    7.3782  -14.9588 C   0  0  0  0  0  0  0  0  0  0  0  0
  -14.8765    2.7878  -16.1263 N   0  0  0  0  0  0  0  0  0  0  0  0
  -14.1492    2.1948  -15.7267 H   0  0  0  0  0  0  0  0  0  0  0  0
  -16.1929    2.3515  -15.8725 C   0  0  0  0  0  0  0  0  0  0  0  0
  -16.4984    1.0669  -15.4043 C   0  0  0  0  0  0  0  0  0  0  0  0
  -17.8108    0.7231  -15.0471 C   0  0  0  0  0  0  0  0  0  0  0  0
  -18.8286    1.6688  -15.1508 C   0  0  0  0  0  0  0  0  0  0  0  0
  -20.5923    1.2276  -14.6325 Br  0  0  0  0  0  0  0  0  0  0  0  0
  -18.5495    2.9492  -15.6152 C   0  0  0  0  0  0  0  0  0  0  0  0
  -17.2380    3.2851  -15.9651 C   0  0  0  0  0  0  0  0  0  0  0  0
 31 32  1  0  0  0
 32 30  1  0  0  0
 30 28  1  0  0  0
 28 29  2  0  0  0
 28 26  1  0  0  0
 26 27  2  0  0  0
 26 25  1  0  0  0
 27 33  1  0  0  0
 33 35  1  0  0  0
 33 34  1  0  0  0
 35 36  1  0  0  0
 35 41  2  0  0  0
 36 37  2  0  0  0
 37 38  1  0  0  0
 38 39  1  0  0  0
 38 40  2  0  0  0
 40 41  1  0  0  0
 25  1  1  0  0  0
  1  2  1  0  0  0
  1  3  2  0  0  0
  2  4  1  0  0  0
  2  5  1  0  0  0
  3  6  1  0  0  0
  6  7  2  0  0  0
  7  8  1  0  0  0
  7 17  1  0  0  0
  8  9  2  0  0  0
  8 10  1  0  0  0
 10 18  1  0  0  0
 10 11  1  0  0  0
 18 19  1  0  0  0
 19 20  1  0  0  0
 19 24  2  0  0  0
 20 21  2  0  0  0
 21 22  1  0  0  0
 22 23  2  0  0  0
 23 24  1  0  0  0
 11 12  1  0  0  0
 11 17  2  0  0  0
 12 13  2  0  0  0
 13 14  1  0  0  0
 14 15  1  0  0  0
 14 16  2  0  0  0
 16 17  1  0  0  0
M  END
> <minimizedAffinity>
-7.90319

$$$$
