CHEMBL234624


 30 33  0  0  0  0  0  0  0  0999 V2000
  -16.5590    1.6598  -15.2268 C   0  0  0  0  0  0  0  0  0  0  0  0
  -15.4202    2.3098  -15.4930 N   0  0  0  0  0  0  0  0  0  0  0  0
  -14.2854    1.7114  -15.0657 C   0  0  0  0  0  0  0  0  0  0  0  0
  -14.2272    0.5116  -14.3802 C   0  0  0  0  0  0  0  0  0  0  0  0
  -12.6749   -0.1349  -14.0215 Cl  0  0  0  0  0  0  0  0  0  0  0  0
  -15.4517   -0.0686  -14.0958 C   0  0  0  0  0  0  0  0  0  0  0  0
  -16.5967    0.5149  -14.5386 N   0  0  0  0  0  0  0  0  0  0  0  0
  -15.7155   -1.3116  -13.3214 C   0  0  0  0  0  0  0  0  0  0  0  0
  -15.6955   -1.2720  -11.9089 C   0  0  0  0  0  0  0  0  0  0  0  0
  -15.8074   -2.4166  -11.1066 C   0  0  0  0  0  0  0  0  0  0  0  0
  -16.0579   -3.6184  -11.7591 C   0  0  0  0  0  0  0  0  0  0  0  0
  -16.1569   -4.9037  -11.2809 N   0  0  0  0  0  0  0  0  0  0  0  0
  -16.7966   -5.6797  -12.2106 C   0  0  0  0  0  0  0  0  0  0  0  0
  -16.7318   -5.0040  -13.4092 C   0  0  0  0  0  0  0  0  0  0  0  0
  -16.2306   -3.7006  -13.1362 C   0  0  0  0  0  0  0  0  0  0  0  0
  -15.9558   -2.5621  -13.9206 C   0  0  0  0  0  0  0  0  0  0  0  0
  -15.8481   -5.2062  -10.3676 H   0  0  0  0  0  0  0  0  0  0  0  0
  -17.7378    2.2031  -15.7293 N   0  0  0  0  0  0  0  0  0  0  0  0
  -17.5561    3.1074  -16.1377 H   0  0  0  0  0  0  0  0  0  0  0  0
  -21.6395    1.7598  -14.1690 C   0  0  0  0  0  0  0  0  0  0  0  0
  -20.9578    0.6534  -14.6838 C   0  0  0  0  0  0  0  0  0  0  0  0
  -19.6673    0.7898  -15.1899 C   0  0  0  0  0  0  0  0  0  0  0  0
  -19.0294    2.0348  -15.2069 C   0  0  0  0  0  0  0  0  0  0  0  0
  -19.7067    3.1380  -14.6816 C   0  0  0  0  0  0  0  0  0  0  0  0
  -21.0029    3.0073  -14.1732 C   0  0  0  0  0  0  0  0  0  0  0  0
  -23.0489    1.6092  -13.6466 C   0  0  0  0  0  0  0  0  0  0  0  0
  -23.5002    0.1377  -13.6236 C   0  0  0  0  0  0  0  0  0  0  0  0
  -25.2621   -0.8257  -12.3099 C   0  0  0  0  0  0  0  0  0  0  0  0
  -23.8688   -0.3688  -12.2876 N   0  0  0  0  0  0  0  0  0  0  0  0
  -22.9964   -1.4584  -11.8491 C   0  0  0  0  0  0  0  0  0  0  0  0
 28 29  1  0  0  0
 29 30  1  0  0  0
 29 27  1  0  0  0
 27 26  1  0  0  0
 26 20  1  0  0  0
 20 21  1  0  0  0
 20 25  2  0  0  0
 21 22  2  0  0  0
 22 23  1  0  0  0
 23 18  1  0  0  0
 23 24  2  0  0  0
 18  1  1  0  0  0
 18 19  1  0  0  0
  1  2  1  0  0  0
  1  7  2  0  0  0
  2  3  2  0  0  0
  3  4  1  0  0  0
  4  5  1  0  0  0
  4  6  2  0  0  0
  6  8  1  0  0  0
  6  7  1  0  0  0
  8  9  1  0  0  0
  8 16  2  0  0  0
  9 10  2  0  0  0
 10 11  1  0  0  0
 11 12  1  0  0  0
 11 15  2  0  0  0
 12 13  1  0  0  0
 12 17  1  0  0  0
 13 14  2  0  0  0
 14 15  1  0  0  0
 15 16  1  0  0  0
 24 25  1  0  0  0
M  END
> <minimizedAffinity>
-9.56396

$$$$
