CHEMBL1242574


 25 28  0  0  0  0  0  0  0  0999 V2000
  -29.1117   -9.8578   -9.2333 N   0  0  0  0  0  0  0  0  0  0  0  0
  -28.6606   -8.6624   -8.7996 N   0  0  0  0  0  0  0  0  0  0  0  0
  -29.5899   -8.2469   -7.9173 C   0  0  0  0  0  0  0  0  0  0  0  0
  -30.6770   -9.1796   -7.8419 C   0  0  0  0  0  0  0  0  0  0  0  0
  -31.9200   -9.3165   -7.2020 C   0  0  0  0  0  0  0  0  0  0  0  0
  -32.5127   -8.3668   -6.3811 N   0  0  0  0  0  0  0  0  0  0  0  0
  -32.6351  -10.4426   -7.4007 N   0  0  0  0  0  0  0  0  0  0  0  0
  -32.1395  -11.3863   -8.2222 C   0  0  0  0  0  0  0  0  0  0  0  0
  -30.9939  -11.3532   -8.9161 N   0  0  0  0  0  0  0  0  0  0  0  0
  -30.3072  -10.2205   -8.6806 C   0  0  0  0  0  0  0  0  0  0  0  0
  -32.3129   -7.4055   -6.6311 H   0  0  0  0  0  0  0  0  0  0  0  0
  -33.4936   -8.5847   -6.2412 H   0  0  0  0  0  0  0  0  0  0  0  0
  -29.3985   -6.9822   -7.1918 C   0  0  0  0  0  0  0  0  0  0  0  0
  -30.0268   -5.8045   -7.6168 C   0  0  0  0  0  0  0  0  0  0  0  0
  -29.8278   -4.5833   -6.9589 C   0  0  0  0  0  0  0  0  0  0  0  0
  -29.0395   -4.5513   -5.7973 C   0  0  0  0  0  0  0  0  0  0  0  0
  -28.6830   -3.5315   -4.8741 C   0  0  0  0  0  0  0  0  0  0  0  0
  -27.9271   -4.1119   -3.8818 C   0  0  0  0  0  0  0  0  0  0  0  0
  -27.7804   -5.4395   -4.1885 N   0  0  0  0  0  0  0  0  0  0  0  0
  -28.4543   -5.7357   -5.3526 C   0  0  0  0  0  0  0  0  0  0  0  0
  -28.6002   -6.9536   -6.0335 C   0  0  0  0  0  0  0  0  0  0  0  0
  -27.2783   -6.1158   -3.6301 H   0  0  0  0  0  0  0  0  0  0  0  0
  -28.8084  -10.2817  -11.6486 C   0  0  0  0  0  0  0  0  0  0  0  0
  -28.3570  -10.6173  -10.2270 C   0  0  0  0  0  0  0  0  0  0  0  0
  -26.8499  -10.4243  -10.0659 C   0  0  0  0  0  0  0  0  0  0  0  0
 23 24  1  0  0  0
 24 25  1  0  0  0
 24  1  1  0  0  0
  1  2  1  0  0  0
  1 10  1  0  0  0
  2  3  2  0  0  0
  3 13  1  0  0  0
  3  4  1  0  0  0
 13 14  1  0  0  0
 13 21  2  0  0  0
 14 15  2  0  0  0
 15 16  1  0  0  0
 16 17  1  0  0  0
 16 20  2  0  0  0
 17 18  2  0  0  0
 18 19  1  0  0  0
 19 20  1  0  0  0
 19 22  1  0  0  0
 20 21  1  0  0  0
  4  5  1  0  0  0
  4 10  2  0  0  0
  5  6  1  0  0  0
  5  7  2  0  0  0
  6 11  1  0  0  0
  6 12  1  0  0  0
  7  8  1  0  0  0
  8  9  2  0  0  0
  9 10  1  0  0  0
M  END
> <minimizedAffinity>
-8.00212

$$$$
