CHEMBL1668413


 26 27  0  0  0  0  0  0  0  0999 V2000
  -15.8275   -3.3192  -13.0461 C   0  0  0  0  0  0  0  0  0  0  0  0
  -14.4859   -3.2813  -12.6756 C   0  0  0  0  0  0  0  0  0  0  0  0
  -13.7486   -2.1101  -12.8738 C   0  0  0  0  0  0  0  0  0  0  0  0
  -12.4303   -2.0763  -12.5085 O   0  0  0  0  0  0  0  0  0  0  0  0
  -14.3431   -0.9750  -13.4384 C   0  0  0  0  0  0  0  0  0  0  0  0
  -15.7101   -0.9882  -13.8057 C   0  0  0  0  0  0  0  0  0  0  0  0
  -16.4247   -2.1831  -13.6077 C   0  0  0  0  0  0  0  0  0  0  0  0
  -16.3440    0.2192  -14.4697 C   0  0  0  0  0  0  0  0  0  0  0  0
  -17.8687    0.3698  -14.3553 C   0  0  0  0  0  0  0  0  0  0  0  0
  -18.4910    1.4732  -15.2267 C   0  0  0  0  0  0  0  0  0  0  0  0
  -17.7257    2.7988  -15.3029 C   0  0  0  0  0  0  0  0  0  0  0  0
  -16.9728    2.9181  -16.6267 C   0  0  0  0  0  0  0  0  0  0  0  0
  -15.9914    4.0731  -16.6341 C   0  0  0  0  0  0  0  0  0  0  0  0
  -16.3353    5.2131  -16.3288 O   0  0  0  0  0  0  0  0  0  0  0  0
  -14.5666    3.7499  -17.0364 C   0  0  0  0  0  0  0  0  0  0  0  0
  -13.7816    3.2649  -15.8180 C   0  0  0  0  0  0  0  0  0  0  0  0
  -13.0295    4.6808  -15.0042 Cl  0  0  0  0  0  0  0  0  0  0  0  0
  -12.6910    2.2545  -16.2051 C   0  0  0  0  0  0  0  0  0  0  0  0
  -12.1216    1.5120  -14.9840 C   0  0  0  0  0  0  0  0  0  0  0  0
  -10.6965    1.0422  -15.2582 C   0  0  0  0  0  0  0  0  0  0  0  0
  -12.9347    0.3344  -14.7409 O   0  0  0  0  0  0  0  0  0  0  0  0
  -13.5549    0.2696  -13.5385 C   0  0  0  0  0  0  0  0  0  0  0  0
  -13.5740    1.1308  -12.6719 O   0  0  0  0  0  0  0  0  0  0  0  0
  -12.1933   -2.9077  -12.0586 H   0  0  0  0  0  0  0  0  0  0  0  0
  -16.5055   -5.2110  -11.7664 C   0  0  0  0  0  0  0  0  0  0  0  0
  -16.6714   -4.3892  -12.9161 O   0  0  0  0  0  0  0  0  0  0  0  0
 25 26  1  0  0  0
 26  1  1  0  0  0
  1  2  1  0  0  0
  1  7  2  0  0  0
  2  3  2  0  0  0
  3  4  1  0  0  0
  3  5  1  0  0  0
  4 24  1  0  0  0
  5  6  2  0  0  0
  5 22  1  0  0  0
  6  7  1  0  0  0
  6  8  1  0  0  0
  8  9  1  0  0  0
  9 10  1  0  0  0
 10 11  1  0  0  0
 11 12  1  0  0  0
 12 13  1  0  0  0
 13 14  2  0  0  0
 13 15  1  0  0  0
 15 16  1  0  0  0
 16 18  1  0  0  0
 16 17  1  0  0  0
 18 19  1  0  0  0
 19 21  1  0  0  0
 19 20  1  0  0  0
 21 22  1  0  0  0
 22 23  2  0  0  0
M  END
> <minimizedAffinity>
-6.57753

$$$$
