CHEMBL3898355


 32 35  0  0  0  0  0  0  0  0999 V2000
  -29.6195   -4.0807   -5.3646 N   0  0  0  0  0  0  0  0  0  0  0  0
  -29.0614   -5.4065   -5.5458 C   0  0  0  0  0  0  0  0  0  0  0  0
  -29.7983   -6.2163   -6.4031 C   0  0  0  0  0  0  0  0  0  0  0  0
  -29.7696   -7.5846   -6.2472 C   0  0  0  0  0  0  0  0  0  0  0  0
  -28.9116   -8.2001   -5.3779 C   0  0  0  0  0  0  0  0  0  0  0  0
  -29.1597   -9.5066   -5.2212 N   0  0  0  0  0  0  0  0  0  0  0  0
  -28.2534  -10.1912   -4.5202 C   0  0  0  0  0  0  0  0  0  0  0  0
  -27.0842   -9.6105   -4.0706 C   0  0  0  0  0  0  0  0  0  0  0  0
  -26.8955   -8.2464   -4.1177 N   0  0  0  0  0  0  0  0  0  0  0  0
  -27.8817   -7.4795   -4.7424 C   0  0  0  0  0  0  0  0  0  0  0  0
  -28.0237   -6.0362   -4.7987 C   0  0  0  0  0  0  0  0  0  0  0  0
  -26.0155  -10.5459   -3.7297 C   0  0  0  0  0  0  0  0  0  0  0  0
  -26.1077  -11.7430   -2.9677 C   0  0  0  0  0  0  0  0  0  0  0  0
  -24.9203  -12.1873   -2.5383 N   0  0  0  0  0  0  0  0  0  0  0  0
  -24.0597  -11.2577   -2.9803 N   0  0  0  0  0  0  0  0  0  0  0  0
  -24.6761  -10.2099   -3.6082 C   0  0  0  0  0  0  0  0  0  0  0  0
  -23.0755  -11.3611   -2.7462 H   0  0  0  0  0  0  0  0  0  0  0  0
  -29.0421   -0.4163   -5.9077 C   0  0  0  0  0  0  0  0  0  0  0  0
  -28.1498   -0.4311   -6.9803 C   0  0  0  0  0  0  0  0  0  0  0  0
  -27.8008   -1.6416   -7.5732 C   0  0  0  0  0  0  0  0  0  0  0  0
  -28.3392   -2.8389   -7.0825 C   0  0  0  0  0  0  0  0  0  0  0  0
  -29.2198   -2.8725   -5.9908 C   0  0  0  0  0  0  0  0  0  0  0  0
  -29.5701   -1.6311   -5.4224 C   0  0  0  0  0  0  0  0  0  0  0  0
  -30.5886    1.3855   -5.6596 C   0  0  0  0  0  0  0  0  0  0  0  0
  -29.4050    0.7170   -5.2208 O   0  0  0  0  0  0  0  0  0  0  0  0
  -26.9208   -1.7991   -8.6114 O   0  0  0  0  0  0  0  0  0  0  0  0
  -27.4731   -1.9203   -9.9166 C   0  0  0  0  0  0  0  0  0  0  0  0
  -30.0378   -3.9807   -3.9138 C   0  0  0  0  0  0  0  0  0  0  0  0
  -31.5049   -4.2816   -3.5633 C   0  0  0  0  0  0  0  0  0  0  0  0
  -31.9027   -5.7454   -3.4054 C   0  0  0  0  0  0  0  0  0  0  0  0
  -30.8910   -6.4933   -2.7432 O   0  0  0  0  0  0  0  0  0  0  0  0
  -30.2489   -6.7792   -3.4128 H   0  0  0  0  0  0  0  0  0  0  0  0
 24 25  1  0  0  0
 25 18  1  0  0  0
 18 19  1  0  0  0
 18 23  2  0  0  0
 19 20  2  0  0  0
 20 26  1  0  0  0
 20 21  1  0  0  0
 26 27  1  0  0  0
 21 22  2  0  0  0
 22  1  1  0  0  0
 22 23  1  0  0  0
  1 28  1  0  0  0
  1  2  1  0  0  0
 28 29  1  0  0  0
 29 30  1  0  0  0
 30 31  1  0  0  0
 31 32  1  0  0  0
  2  3  1  0  0  0
  2 11  2  0  0  0
  3  4  2  0  0  0
  4  5  1  0  0  0
  5  6  1  0  0  0
  5 10  2  0  0  0
  6  7  2  0  0  0
  7  8  1  0  0  0
  8 12  1  0  0  0
  8  9  2  0  0  0
 12 13  1  0  0  0
 12 16  2  0  0  0
 13 14  2  0  0  0
 14 15  1  0  0  0
 15 16  1  0  0  0
 15 17  1  0  0  0
  9 10  1  0  0  0
 10 11  1  0  0  0
M  END
> <minimizedAffinity>
-8.05984

$$$$
