CHEMBL318728


 19 21  0  0  0  0  0  0  0  0999 V2000
  -27.4136   -1.9059   -9.3076 C   0  0  0  0  0  0  0  0  0  0  0  0
  -28.2838   -1.7161  -10.2787 N   0  0  0  0  0  0  0  0  0  0  0  0
  -27.5208   -1.3730  -11.3530 C   0  0  0  0  0  0  0  0  0  0  0  0
  -26.1897   -1.3315  -11.0028 C   0  0  0  0  0  0  0  0  0  0  0  0
  -26.1161   -1.6436   -9.6661 O   0  0  0  0  0  0  0  0  0  0  0  0
  -24.9607   -1.0848  -11.7446 C   0  0  0  0  0  0  0  0  0  0  0  0
  -24.6021    0.2362  -12.0642 C   0  0  0  0  0  0  0  0  0  0  0  0
  -23.4580    0.5163  -12.8123 C   0  0  0  0  0  0  0  0  0  0  0  0
  -22.6481   -0.5244  -13.2508 C   0  0  0  0  0  0  0  0  0  0  0  0
  -22.9808   -1.8419  -12.9371 C   0  0  0  0  0  0  0  0  0  0  0  0
  -24.1316   -2.1224  -12.1867 C   0  0  0  0  0  0  0  0  0  0  0  0
  -27.6162   -2.3559   -8.0553 N   0  0  0  0  0  0  0  0  0  0  0  0
  -27.7585   -3.3522   -7.9461 H   0  0  0  0  0  0  0  0  0  0  0  0
  -29.1919    0.0366   -4.9308 C   0  0  0  0  0  0  0  0  0  0  0  0
  -29.4975   -1.3169   -4.9776 C   0  0  0  0  0  0  0  0  0  0  0  0
  -28.9848   -2.1109   -6.0055 C   0  0  0  0  0  0  0  0  0  0  0  0
  -28.1384   -1.5830   -6.9923 C   0  0  0  0  0  0  0  0  0  0  0  0
  -27.8707   -0.2075   -6.9473 C   0  0  0  0  0  0  0  0  0  0  0  0
  -28.3863    0.5945   -5.9202 C   0  0  0  0  0  0  0  0  0  0  0  0
 14 15  1  0  0  0
 14 19  2  0  0  0
 15 16  2  0  0  0
 16 17  1  0  0  0
 17 12  1  0  0  0
 17 18  2  0  0  0
 12  1  1  0  0  0
 12 13  1  0  0  0
  1  2  2  0  0  0
  1  5  1  0  0  0
  2  3  1  0  0  0
  3  4  2  0  0  0
  4  6  1  0  0  0
  4  5  1  0  0  0
  6  7  1  0  0  0
  6 11  2  0  0  0
  7  8  2  0  0  0
  8  9  1  0  0  0
  9 10  2  0  0  0
 10 11  1  0  0  0
 18 19  1  0  0  0
M  END
> <minimizedAffinity>
-8.37529

$$$$
