CHEMBL403402


 36 39  0  0  0  0  0  0  0  0999 V2000
  -22.9453   -0.5289  -13.6112 C   0  0  0  0  0  0  0  0  0  0  0  0
  -22.8346   -0.9583  -12.2816 C   0  0  0  0  0  0  0  0  0  0  0  0
  -23.9008   -1.5623  -11.6148 C   0  0  0  0  0  0  0  0  0  0  0  0
  -25.1454   -1.7180  -12.2254 C   0  0  0  0  0  0  0  0  0  0  0  0
  -25.2711   -1.3203  -13.5562 C   0  0  0  0  0  0  0  0  0  0  0  0
  -24.1730   -0.7687  -14.2448 C   0  0  0  0  0  0  0  0  0  0  0  0
  -23.3980    2.8326  -13.2273 N   0  0  0  0  0  0  0  0  0  0  0  0
  -22.2541    2.7358  -13.9191 C   0  0  0  0  0  0  0  0  0  0  0  0
  -21.5910    3.8293  -14.2885 N   0  0  0  0  0  0  0  0  0  0  0  0
  -20.5001    3.3414  -14.8947 N   0  0  0  0  0  0  0  0  0  0  0  0
  -20.4434    1.9819  -14.9341 C   0  0  0  0  0  0  0  0  0  0  0  0
  -19.4274    1.2718  -15.4555 N   0  0  0  0  0  0  0  0  0  0  0  0
  -19.6233   -0.0554  -15.3651 C   0  0  0  0  0  0  0  0  0  0  0  0
  -20.7429   -0.6604  -14.8148 C   0  0  0  0  0  0  0  0  0  0  0  0
  -21.7892    0.1155  -14.2625 C   0  0  0  0  0  0  0  0  0  0  0  0
  -21.6089    1.5215  -14.3276 C   0  0  0  0  0  0  0  0  0  0  0  0
  -23.6088    3.7648  -12.8852 H   0  0  0  0  0  0  0  0  0  0  0  0
  -23.6217    2.1126  -12.5488 H   0  0  0  0  0  0  0  0  0  0  0  0
  -19.8080    3.9819  -15.2549 H   0  0  0  0  0  0  0  0  0  0  0  0
  -26.2714   -2.2661  -11.5622 N   0  0  0  0  0  0  0  0  0  0  0  0
  -26.6412   -1.9594  -10.2676 C   0  0  0  0  0  0  0  0  0  0  0  0
  -26.0843   -1.1328   -9.5563 O   0  0  0  0  0  0  0  0  0  0  0  0
  -27.7101   -2.7220   -9.8105 N   0  0  0  0  0  0  0  0  0  0  0  0
  -26.9245   -2.8006  -12.1133 H   0  0  0  0  0  0  0  0  0  0  0  0
  -27.6841   -3.6899  -10.1085 H   0  0  0  0  0  0  0  0  0  0  0  0
  -28.1180   -2.5243   -8.4618 C   0  0  0  0  0  0  0  0  0  0  0  0
  -28.2362   -1.2336   -7.9273 C   0  0  0  0  0  0  0  0  0  0  0  0
  -28.4005   -1.0379   -6.5490 C   0  0  0  0  0  0  0  0  0  0  0  0
  -28.4763   -2.1638   -5.7131 C   0  0  0  0  0  0  0  0  0  0  0  0
  -28.4266   -3.4541   -6.2517 C   0  0  0  0  0  0  0  0  0  0  0  0
  -28.2676   -3.6264   -7.6236 C   0  0  0  0  0  0  0  0  0  0  0  0
  -28.1571   -4.8662   -8.1242 F   0  0  0  0  0  0  0  0  0  0  0  0
  -28.4443    0.3564   -5.9704 C   0  0  0  0  0  0  0  0  0  0  0  0
  -28.2545    1.3422   -6.8913 F   0  0  0  0  0  0  0  0  0  0  0  0
  -29.6405    0.6288   -5.3793 F   0  0  0  0  0  0  0  0  0  0  0  0
  -27.5003    0.5542   -5.0093 F   0  0  0  0  0  0  0  0  0  0  0  0
  7  8  1  0  0  0
  7 17  1  0  0  0
  7 18  1  0  0  0
  8  9  2  0  0  0
  8 16  1  0  0  0
  9 10  1  0  0  0
 10 11  1  0  0  0
 10 19  1  0  0  0
 11 12  1  0  0  0
 11 16  2  0  0  0
 12 13  2  0  0  0
 13 14  1  0  0  0
 14 15  2  0  0  0
 15  1  1  0  0  0
 15 16  1  0  0  0
  1  2  1  0  0  0
  1  6  2  0  0  0
  2  3  2  0  0  0
  3  4  1  0  0  0
  4 20  1  0  0  0
  4  5  2  0  0  0
 20 21  1  0  0  0
 20 24  1  0  0  0
 21 22  2  0  0  0
 21 23  1  0  0  0
 23 26  1  0  0  0
 23 25  1  0  0  0
 26 27  1  0  0  0
 26 31  2  0  0  0
 27 28  2  0  0  0
 28 33  1  0  0  0
 28 29  1  0  0  0
 33 34  1  0  0  0
 33 35  1  0  0  0
 33 36  1  0  0  0
 29 30  2  0  0  0
 30 31  1  0  0  0
 31 32  1  0  0  0
  5  6  1  0  0  0
M  END
> <minimizedAffinity>
-10.60855

$$$$
