CHEMBL574125


 46 51  0  0  0  0  0  0  0  0999 V2000
  -29.7205   -2.6512   -6.5108 O   0  0  0  0  0  0  0  0  0  0  0  0
  -29.9765   -6.9079   -6.4435 C   0  0  0  0  0  0  0  0  0  0  0  0
  -29.8450   -5.5156   -6.5097 C   0  0  0  0  0  0  0  0  0  0  0  0
  -29.3914   -4.7554   -5.4035 C   0  0  0  0  0  0  0  0  0  0  0  0
  -29.2942   -3.3443   -5.3929 C   0  0  0  0  0  0  0  0  0  0  0  0
  -28.7304   -2.6897   -4.3037 C   0  0  0  0  0  0  0  0  0  0  0  0
  -28.3858   -3.4506   -3.2071 C   0  0  0  0  0  0  0  0  0  0  0  0
  -28.5306   -4.7896   -3.1491 N   0  0  0  0  0  0  0  0  0  0  0  0
  -29.0126   -5.4270   -4.2259 C   0  0  0  0  0  0  0  0  0  0  0  0
  -29.1159   -6.8076   -4.1836 C   0  0  0  0  0  0  0  0  0  0  0  0
  -29.5462   -7.5668   -5.2786 C   0  0  0  0  0  0  0  0  0  0  0  0
  -31.8116   -8.1498   -7.3577 C   0  0  0  0  0  0  0  0  0  0  0  0
  -30.4755   -7.6728   -7.4553 O   0  0  0  0  0  0  0  0  0  0  0  0
  -29.5092   -8.9192   -5.0643 O   0  0  0  0  0  0  0  0  0  0  0  0
  -28.2715   -9.5242   -4.6780 C   0  0  0  0  0  0  0  0  0  0  0  0
  -27.3071   -9.7967   -5.8393 C   0  0  0  0  0  0  0  0  0  0  0  0
  -26.0094  -10.4550   -5.3530 C   0  0  0  0  0  0  0  0  0  0  0  0
  -25.0033   -9.4959   -4.8547 N   0  0  0  0  0  0  0  0  0  0  0  0
  -23.6765   -9.7767   -5.4615 C   0  0  0  0  0  0  0  0  0  0  0  0
  -22.9827  -11.0417   -4.9139 C   0  0  0  0  0  0  0  0  0  0  0  0
  -22.8889  -11.0272   -3.4830 O   0  0  0  0  0  0  0  0  0  0  0  0
  -24.1805  -10.8460   -2.8887 C   0  0  0  0  0  0  0  0  0  0  0  0
  -24.8206   -9.5408   -3.3838 C   0  0  0  0  0  0  0  0  0  0  0  0
  -28.7963   -2.2495   -7.4523 C   0  0  0  0  0  0  0  0  0  0  0  0
  -28.4689   -3.1983   -8.4179 C   0  0  0  0  0  0  0  0  0  0  0  0
  -27.5788   -2.8811   -9.4525 C   0  0  0  0  0  0  0  0  0  0  0  0
  -27.0019   -1.6091   -9.5473 C   0  0  0  0  0  0  0  0  0  0  0  0
  -27.3386   -0.6554   -8.5823 C   0  0  0  0  0  0  0  0  0  0  0  0
  -28.2375   -0.9722   -7.5572 C   0  0  0  0  0  0  0  0  0  0  0  0
  -28.5528   -0.0076   -6.6813 F   0  0  0  0  0  0  0  0  0  0  0  0
  -26.1416   -1.2201  -10.5976 N   0  0  0  0  0  0  0  0  0  0  0  0
  -26.0392   -1.8067  -11.8386 C   0  0  0  0  0  0  0  0  0  0  0  0
  -26.5556   -2.8733  -12.1663 O   0  0  0  0  0  0  0  0  0  0  0  0
  -25.2861   -1.0923  -12.7629 N   0  0  0  0  0  0  0  0  0  0  0  0
  -25.2064   -1.5501  -14.1284 C   0  0  0  0  0  0  0  0  0  0  0  0
  -24.4721   -0.4362  -14.8402 C   0  0  0  0  0  0  0  0  0  0  0  0
  -23.6699    0.1470  -13.7891 N   0  0  0  0  0  0  0  0  0  0  0  0
  -24.2377   -0.1645  -12.5304 C   0  0  0  0  0  0  0  0  0  0  0  0
  -23.9467    0.2819  -11.4265 O   0  0  0  0  0  0  0  0  0  0  0  0
  -25.4998   -0.4487  -10.4262 H   0  0  0  0  0  0  0  0  0  0  0  0
  -22.4894    0.8782  -14.0467 C   0  0  0  0  0  0  0  0  0  0  0  0
  -21.3283    0.2423  -14.4993 C   0  0  0  0  0  0  0  0  0  0  0  0
  -20.2010    0.9877  -14.8638 C   0  0  0  0  0  0  0  0  0  0  0  0
  -20.2095    2.3757  -14.7522 C   0  0  0  0  0  0  0  0  0  0  0  0
  -21.3436    3.0206  -14.2715 C   0  0  0  0  0  0  0  0  0  0  0  0
  -22.4771    2.2771  -13.9285 C   0  0  0  0  0  0  0  0  0  0  0  0
 12 13  1  0  0  0
 13  2  1  0  0  0
  2  3  1  0  0  0
  2 11  2  0  0  0
  3  4  2  0  0  0
  4  5  1  0  0  0
  4  9  1  0  0  0
  5  1  1  0  0  0
  5  6  2  0  0  0
  1 24  1  0  0  0
 24 25  1  0  0  0
 24 29  2  0  0  0
 25 26  2  0  0  0
 26 27  1  0  0  0
 27 31  1  0  0  0
 27 28  2  0  0  0
 31 32  1  0  0  0
 31 40  1  0  0  0
 32 33  2  0  0  0
 32 34  1  0  0  0
 34 35  1  0  0  0
 34 38  1  0  0  0
 35 36  1  0  0  0
 36 37  1  0  0  0
 37 41  1  0  0  0
 37 38  1  0  0  0
 41 42  1  0  0  0
 41 46  2  0  0  0
 42 43  2  0  0  0
 43 44  1  0  0  0
 44 45  2  0  0  0
 45 46  1  0  0  0
 38 39  2  0  0  0
 28 29  1  0  0  0
 29 30  1  0  0  0
  6  7  1  0  0  0
  7  8  2  0  0  0
  8  9  1  0  0  0
  9 10  2  0  0  0
 10 11  1  0  0  0
 11 14  1  0  0  0
 14 15  1  0  0  0
 15 16  1  0  0  0
 16 17  1  0  0  0
 17 18  1  0  0  0
 18 19  1  0  0  0
 18 23  1  0  0  0
 19 20  1  0  0  0
 20 21  1  0  0  0
 21 22  1  0  0  0
 22 23  1  0  0  0
M  END
> <minimizedAffinity>
-9.71784

$$$$
