CHEMBL495530


 42 47  0  0  0  0  0  0  0  0999 V2000
  -24.0758   -0.1052  -13.6934 C   0  0  0  0  0  0  0  0  0  0  0  0
  -24.5065   -0.0364  -12.4110 C   0  0  0  0  0  0  0  0  0  0  0  0
  -23.8583    0.6733  -11.3969 N   0  0  0  0  0  0  0  0  0  0  0  0
  -25.7385   -0.7792  -12.0352 C   0  0  0  0  0  0  0  0  0  0  0  0
  -26.2441   -0.7752  -10.7282 C   0  0  0  0  0  0  0  0  0  0  0  0
  -27.3469   -1.5517  -10.3640 C   0  0  0  0  0  0  0  0  0  0  0  0
  -28.0068   -2.2968  -11.3441 C   0  0  0  0  0  0  0  0  0  0  0  0
  -27.5421   -2.2920  -12.6610 C   0  0  0  0  0  0  0  0  0  0  0  0
  -26.4136   -1.5411  -12.9944 C   0  0  0  0  0  0  0  0  0  0  0  0
  -25.9642   -1.5408  -14.3139 N   0  0  0  0  0  0  0  0  0  0  0  0
  -24.8736   -0.8356  -14.7332 C   0  0  0  0  0  0  0  0  0  0  0  0
  -24.5784   -0.8054  -15.9281 O   0  0  0  0  0  0  0  0  0  0  0  0
  -22.9063    0.9370  -11.6835 H   0  0  0  0  0  0  0  0  0  0  0  0
  -23.8118    0.1637  -10.5176 H   0  0  0  0  0  0  0  0  0  0  0  0
  -26.4663   -2.0479  -15.0299 H   0  0  0  0  0  0  0  0  0  0  0  0
  -18.7915    2.1400  -15.2835 C   0  0  0  0  0  0  0  0  0  0  0  0
  -19.4561    3.3454  -14.9818 C   0  0  0  0  0  0  0  0  0  0  0  0
  -20.7846    3.4017  -14.5487 C   0  0  0  0  0  0  0  0  0  0  0  0
  -21.4302    2.1804  -14.4141 C   0  0  0  0  0  0  0  0  0  0  0  0
  -22.7060    1.8549  -14.0492 N   0  0  0  0  0  0  0  0  0  0  0  0
  -22.8279    0.4862  -14.0488 C   0  0  0  0  0  0  0  0  0  0  0  0
  -21.6820   -0.0772  -14.4021 N   0  0  0  0  0  0  0  0  0  0  0  0
  -20.8197    0.9603  -14.6605 C   0  0  0  0  0  0  0  0  0  0  0  0
  -19.4916    0.9347  -15.1117 C   0  0  0  0  0  0  0  0  0  0  0  0
  -23.4606    2.5030  -13.8624 H   0  0  0  0  0  0  0  0  0  0  0  0
  -13.7600    2.0233  -17.6883 C   0  0  0  0  0  0  0  0  0  0  0  0
  -14.7114    2.1760  -16.5904 N   0  0  0  0  0  0  0  0  0  0  0  0
  -15.6421    3.2975  -16.8685 C   0  0  0  0  0  0  0  0  0  0  0  0
  -16.7372    3.4580  -15.7861 C   0  0  0  0  0  0  0  0  0  0  0  0
  -17.4611    2.1862  -15.6661 N   0  0  0  0  0  0  0  0  0  0  0  0
  -16.5838    1.0535  -15.3230 C   0  0  0  0  0  0  0  0  0  0  0  0
  -15.4852    0.9246  -16.4026 C   0  0  0  0  0  0  0  0  0  0  0  0
  -27.8303   -1.6102   -9.0396 N   0  0  0  0  0  0  0  0  0  0  0  0
  -27.9057   -2.7557   -8.2605 C   0  0  0  0  0  0  0  0  0  0  0  0
  -27.6332   -3.8952   -8.6258 O   0  0  0  0  0  0  0  0  0  0  0  0
  -28.1781   -0.7434   -8.6573 H   0  0  0  0  0  0  0  0  0  0  0  0
  -28.3687   -2.5770   -6.8572 C   0  0  0  0  0  0  0  0  0  0  0  0
  -27.6928   -1.7819   -5.9246 C   0  0  0  0  0  0  0  0  0  0  0  0
  -28.1963   -1.6544   -4.6274 C   0  0  0  0  0  0  0  0  0  0  0  0
  -29.3748   -2.3063   -4.2614 C   0  0  0  0  0  0  0  0  0  0  0  0
  -30.0585   -3.0859   -5.1894 C   0  0  0  0  0  0  0  0  0  0  0  0
  -29.5595   -3.2170   -6.4829 C   0  0  0  0  0  0  0  0  0  0  0  0
 26 27  1  0  0  0
 27 28  1  0  0  0
 27 32  1  0  0  0
 28 29  1  0  0  0
 29 30  1  0  0  0
 30 16  1  0  0  0
 30 31  1  0  0  0
 16 17  1  0  0  0
 16 24  2  0  0  0
 17 18  2  0  0  0
 18 19  1  0  0  0
 19 20  1  0  0  0
 19 23  2  0  0  0
 20 21  1  0  0  0
 20 25  1  0  0  0
 21  1  1  0  0  0
 21 22  2  0  0  0
  1  2  2  0  0  0
  1 11  1  0  0  0
  2  3  1  0  0  0
  2  4  1  0  0  0
  3 13  1  0  0  0
  3 14  1  0  0  0
  4  5  1  0  0  0
  4  9  2  0  0  0
  5  6  2  0  0  0
  6 33  1  0  0  0
  6  7  1  0  0  0
 33 34  1  0  0  0
 33 36  1  0  0  0
 34 35  2  0  0  0
 34 37  1  0  0  0
 37 38  1  0  0  0
 37 42  2  0  0  0
 38 39  2  0  0  0
 39 40  1  0  0  0
 40 41  2  0  0  0
 41 42  1  0  0  0
  7  8  2  0  0  0
  8  9  1  0  0  0
  9 10  1  0  0  0
 10 11  1  0  0  0
 10 15  1  0  0  0
 11 12  2  0  0  0
 22 23  1  0  0  0
 23 24  1  0  0  0
 31 32  1  0  0  0
M  END
> <minimizedAffinity>
-11.37524

$$$$
