CHEMBL1242659


 29 32  0  0  0  0  0  0  0  0999 V2000
  -28.8520   -6.6411   -6.2536 C   0  0  0  0  0  0  0  0  0  0  0  0
  -28.5922   -7.1749   -7.4627 N   0  0  0  0  0  0  0  0  0  0  0  0
  -28.4859   -8.5014   -7.2287 N   0  0  0  0  0  0  0  0  0  0  0  0
  -28.6174   -8.8312   -5.9080 C   0  0  0  0  0  0  0  0  0  0  0  0
  -28.5471  -10.0656   -5.3791 N   0  0  0  0  0  0  0  0  0  0  0  0
  -28.7287  -10.0389   -4.0508 C   0  0  0  0  0  0  0  0  0  0  0  0
  -28.9459   -8.9695   -3.2672 N   0  0  0  0  0  0  0  0  0  0  0  0
  -29.0120   -7.7476   -3.8385 C   0  0  0  0  0  0  0  0  0  0  0  0
  -29.2322   -6.6950   -2.9650 N   0  0  0  0  0  0  0  0  0  0  0  0
  -28.8501   -7.6441   -5.2304 C   0  0  0  0  0  0  0  0  0  0  0  0
  -29.1148   -6.9806   -2.0000 H   0  0  0  0  0  0  0  0  0  0  0  0
  -28.8292   -5.8015   -3.2166 H   0  0  0  0  0  0  0  0  0  0  0  0
  -29.5771   -2.4107   -5.9704 C   0  0  0  0  0  0  0  0  0  0  0  0
  -30.4305   -3.3312   -5.3487 C   0  0  0  0  0  0  0  0  0  0  0  0
  -30.1912   -4.7090   -5.4395 C   0  0  0  0  0  0  0  0  0  0  0  0
  -29.0831   -5.1991   -6.1387 C   0  0  0  0  0  0  0  0  0  0  0  0
  -28.2050   -4.2768   -6.7104 C   0  0  0  0  0  0  0  0  0  0  0  0
  -28.4512   -2.8994   -6.6523 C   0  0  0  0  0  0  0  0  0  0  0  0
  -27.5621   -2.1600   -7.3897 O   0  0  0  0  0  0  0  0  0  0  0  0
  -27.7678   -2.1749   -8.7957 C   0  0  0  0  0  0  0  0  0  0  0  0
  -29.7864   -1.0576   -5.9722 O   0  0  0  0  0  0  0  0  0  0  0  0
  -28.3049    0.7258   -5.4035 C   0  0  0  0  0  0  0  0  0  0  0  0
  -29.2821   -0.3059   -4.8696 C   0  0  0  0  0  0  0  0  0  0  0  0
  -28.2876   -9.4306   -8.3401 C   0  0  0  0  0  0  0  0  0  0  0  0
  -27.3137   -8.8686   -9.3883 C   0  0  0  0  0  0  0  0  0  0  0  0
  -27.1497   -9.8164  -10.5752 C   0  0  0  0  0  0  0  0  0  0  0  0
  -28.4960  -10.1716  -11.1979 C   0  0  0  0  0  0  0  0  0  0  0  0
  -29.4435  -10.7693  -10.1629 C   0  0  0  0  0  0  0  0  0  0  0  0
  -29.6309   -9.8370   -8.9681 C   0  0  0  0  0  0  0  0  0  0  0  0
 22 23  1  0  0  0
 23 21  1  0  0  0
 21 13  1  0  0  0
 13 14  1  0  0  0
 13 18  2  0  0  0
 14 15  2  0  0  0
 15 16  1  0  0  0
 16  1  1  0  0  0
 16 17  2  0  0  0
  1  2  2  0  0  0
  1 10  1  0  0  0
  2  3  1  0  0  0
  3 24  1  0  0  0
  3  4  1  0  0  0
 24 25  1  0  0  0
 24 29  1  0  0  0
 25 26  1  0  0  0
 26 27  1  0  0  0
 27 28  1  0  0  0
 28 29  1  0  0  0
  4  5  1  0  0  0
  4 10  2  0  0  0
  5  6  2  0  0  0
  6  7  1  0  0  0
  7  8  2  0  0  0
  8  9  1  0  0  0
  8 10  1  0  0  0
  9 11  1  0  0  0
  9 12  1  0  0  0
 17 18  1  0  0  0
 18 19  1  0  0  0
 19 20  1  0  0  0
M  END
> <minimizedAffinity>
-8.31755

$$$$
