CHEMBL2408614


 39 45  0  0  0  0  0  0  0  0999 V2000
  -27.8829    1.5352   -6.3675 N   0  0  0  0  0  0  0  0  0  0  0  0
  -28.1787    0.2306   -6.0176 C   0  0  0  0  0  0  0  0  0  0  0  0
  -28.4039   -0.0395   -4.7152 N   0  0  0  0  0  0  0  0  0  0  0  0
  -28.6981   -1.3071   -4.3443 C   0  0  0  0  0  0  0  0  0  0  0  0
  -28.8083   -2.3982   -5.2091 C   0  0  0  0  0  0  0  0  0  0  0  0
  -28.5621   -2.1447   -6.5825 C   0  0  0  0  0  0  0  0  0  0  0  0
  -28.5312   -2.8660   -7.8320 C   0  0  0  0  0  0  0  0  0  0  0  0
  -28.2329   -1.9469   -8.8353 C   0  0  0  0  0  0  0  0  0  0  0  0
  -28.0837   -0.7116   -8.2766 O   0  0  0  0  0  0  0  0  0  0  0  0
  -28.2692   -0.8249   -6.9330 C   0  0  0  0  0  0  0  0  0  0  0  0
  -28.1569    2.1881   -5.6409 H   0  0  0  0  0  0  0  0  0  0  0  0
  -28.0980    1.7919   -7.3203 H   0  0  0  0  0  0  0  0  0  0  0  0
  -27.9464   -2.0307  -10.2714 C   0  0  0  0  0  0  0  0  0  0  0  0
  -28.9451   -2.3949  -11.1989 C   0  0  0  0  0  0  0  0  0  0  0  0
  -28.7370   -2.3739  -12.5729 C   0  0  0  0  0  0  0  0  0  0  0  0
  -27.4805   -2.0664  -13.0791 C   0  0  0  0  0  0  0  0  0  0  0  0
  -26.4212   -1.7860  -12.1919 C   0  0  0  0  0  0  0  0  0  0  0  0
  -25.1107   -1.5252  -12.5754 N   0  0  0  0  0  0  0  0  0  0  0  0
  -24.3306   -1.2973  -11.5377 N   0  0  0  0  0  0  0  0  0  0  0  0
  -25.1473   -1.3513  -10.0876 S   0  0  0  0  0  0  0  0  0  0  0  0
  -26.6676   -1.7620  -10.8078 C   0  0  0  0  0  0  0  0  0  0  0  0
  -29.1285   -3.7078   -4.6984 C   0  0  0  0  0  0  0  0  0  0  0  0
  -30.2807   -4.1803   -4.0292 C   0  0  0  0  0  0  0  0  0  0  0  0
  -30.1596   -5.4516   -3.6386 N   0  0  0  0  0  0  0  0  0  0  0  0
  -28.9261   -5.7959   -4.0551 N   0  0  0  0  0  0  0  0  0  0  0  0
  -28.3381   -4.8289   -4.8241 C   0  0  0  0  0  0  0  0  0  0  0  0
  -28.3645   -7.1064   -3.7357 C   0  0  0  0  0  0  0  0  0  0  0  0
  -29.3392   -8.2668   -4.0177 C   0  0  0  0  0  0  0  0  0  0  0  0
  -28.6894   -9.6300   -3.7845 C   0  0  0  0  0  0  0  0  0  0  0  0
  -27.3936   -9.7659   -4.5794 C   0  0  0  0  0  0  0  0  0  0  0  0
  -26.7984  -11.0312   -4.3220 O   0  0  0  0  0  0  0  0  0  0  0  0
  -26.4138   -8.6550   -4.2194 C   0  0  0  0  0  0  0  0  0  0  0  0
  -27.0230   -7.2800   -4.4569 C   0  0  0  0  0  0  0  0  0  0  0  0
  -26.5159  -11.0563   -3.3925 H   0  0  0  0  0  0  0  0  0  0  0  0
  -28.7153   -4.3271   -8.0718 C   0  0  0  0  0  0  0  0  0  0  0  0
  -29.8767   -5.0367   -7.8417 C   0  0  0  0  0  0  0  0  0  0  0  0
  -29.7926   -6.4023   -8.0527 N   0  0  0  0  0  0  0  0  0  0  0  0
  -28.5761   -6.7081   -8.4431 C   0  0  0  0  0  0  0  0  0  0  0  0
  -27.4984   -5.3925   -8.6500 S   0  0  0  0  0  0  0  0  0  0  0  0
  1  2  1  0  0  0
  1 11  1  0  0  0
  1 12  1  0  0  0
  2  3  1  0  0  0
  2 10  2  0  0  0
  3  4  2  0  0  0
  4  5  1  0  0  0
  5 22  1  0  0  0
  5  6  2  0  0  0
 22 23  1  0  0  0
 22 26  2  0  0  0
 23 24  2  0  0  0
 24 25  1  0  0  0
 25 26  1  0  0  0
 27 28  1  0  0  0
 27 33  1  0  0  0
 27 25  1  0  0  0
 28 29  1  0  0  0
 29 30  1  0  0  0
 30 31  1  0  0  0
 30 32  1  0  0  0
 31 34  1  0  0  0
 32 33  1  0  0  0
  6  7  1  0  0  0
  6 10  1  0  0  0
  7 35  1  0  0  0
  7  8  2  0  0  0
 35 36  2  0  0  0
 35 39  1  0  0  0
 36 37  1  0  0  0
 37 38  2  0  0  0
 38 39  1  0  0  0
  8 13  1  0  0  0
  8  9  1  0  0  0
 13 14  1  0  0  0
 13 21  2  0  0  0
 14 15  2  0  0  0
 15 16  1  0  0  0
 16 17  2  0  0  0
 17 18  1  0  0  0
 17 21  1  0  0  0
 18 19  2  0  0  0
 19 20  1  0  0  0
 20 21  1  0  0  0
  9 10  1  0  0  0
M  END
> <minimizedAffinity>
-3.08604

$$$$
