CHEMBL404639


 38 42  0  0  0  0  0  0  0  0999 V2000
  -12.2379   -5.2257  -14.1692 C   0  0  0  0  0  0  0  0  0  0  0  0
  -13.2348   -4.6026  -14.9170 C   0  0  0  0  0  0  0  0  0  0  0  0
  -13.6803   -3.3310  -14.5584 C   0  0  0  0  0  0  0  0  0  0  0  0
  -13.1530   -2.6951  -13.4281 C   0  0  0  0  0  0  0  0  0  0  0  0
  -12.1025   -3.2941  -12.7386 C   0  0  0  0  0  0  0  0  0  0  0  0
  -11.5244   -2.6676  -11.7040 F   0  0  0  0  0  0  0  0  0  0  0  0
  -11.6393   -4.5507  -13.1018 C   0  0  0  0  0  0  0  0  0  0  0  0
  -11.8327   -6.5094  -14.5641 N   0  0  0  0  0  0  0  0  0  0  0  0
  -10.8453   -6.7306  -14.4698 H   0  0  0  0  0  0  0  0  0  0  0  0
  -12.6309   -7.5718  -14.9159 C   0  0  0  0  0  0  0  0  0  0  0  0
  -13.0183   -7.7220  -16.5292 S   0  0  0  0  0  0  0  0  0  0  0  0
  -14.1160   -9.0316  -11.9617 O   0  0  0  0  0  0  0  0  0  0  0  0
  -14.1521   -8.2781  -12.9349 C   0  0  0  0  0  0  0  0  0  0  0  0
  -13.0846   -8.3223  -13.8270 N   0  0  0  0  0  0  0  0  0  0  0  0
  -12.4121   -9.0003  -13.4893 H   0  0  0  0  0  0  0  0  0  0  0  0
  -15.2509   -7.2880  -13.2300 C   0  0  0  0  0  0  0  0  0  0  0  0
  -15.4266   -6.1041  -12.3208 C   0  0  0  0  0  0  0  0  0  0  0  0
  -14.4950   -5.9286  -11.2847 C   0  0  0  0  0  0  0  0  0  0  0  0
  -14.5040   -4.7818  -10.4989 C   0  0  0  0  0  0  0  0  0  0  0  0
  -15.4550   -3.7907  -10.7330 C   0  0  0  0  0  0  0  0  0  0  0  0
  -16.3967   -3.9581  -11.7469 C   0  0  0  0  0  0  0  0  0  0  0  0
  -16.3810   -5.0996  -12.5425 C   0  0  0  0  0  0  0  0  0  0  0  0
  -13.5773   -1.4765  -12.9576 O   0  0  0  0  0  0  0  0  0  0  0  0
  -13.4033   -0.3553  -13.7350 C   0  0  0  0  0  0  0  0  0  0  0  0
  -12.1611    0.0897  -14.1896 C   0  0  0  0  0  0  0  0  0  0  0  0
  -12.0965    1.2683  -14.9043 C   0  0  0  0  0  0  0  0  0  0  0  0
  -13.1550    2.0096  -15.2711 N   0  0  0  0  0  0  0  0  0  0  0  0
  -14.3736    1.5153  -14.9204 C   0  0  0  0  0  0  0  0  0  0  0  0
  -15.6233    2.0968  -15.2712 C   0  0  0  0  0  0  0  0  0  0  0  0
  -16.7101    1.4017  -14.7728 C   0  0  0  0  0  0  0  0  0  0  0  0
  -16.1946    0.0301  -13.8840 S   0  0  0  0  0  0  0  0  0  0  0  0
  -14.5331    0.3603  -14.1621 C   0  0  0  0  0  0  0  0  0  0  0  0
  -18.1346    1.7163  -14.9354 C   0  0  0  0  0  0  0  0  0  0  0  0
  -19.1201    0.7451  -15.0933 C   0  0  0  0  0  0  0  0  0  0  0  0
  -20.4526    1.1433  -15.1607 C   0  0  0  0  0  0  0  0  0  0  0  0
  -20.7639    2.4942  -15.0840 C   0  0  0  0  0  0  0  0  0  0  0  0
  -19.7235    3.3970  -14.9470 C   0  0  0  0  0  0  0  0  0  0  0  0
  -18.4234    3.0393  -14.8610 N   0  0  0  0  0  0  0  0  0  0  0  0
 12 13  2  0  0  0
 13 16  1  0  0  0
 13 14  1  0  0  0
 16 17  1  0  0  0
 17 18  1  0  0  0
 17 22  2  0  0  0
 18 19  2  0  0  0
 19 20  1  0  0  0
 20 21  2  0  0  0
 21 22  1  0  0  0
 14 10  1  0  0  0
 14 15  1  0  0  0
 10 11  2  0  0  0
 10  8  1  0  0  0
  8  1  1  0  0  0
  8  9  1  0  0  0
  1  2  1  0  0  0
  1  7  2  0  0  0
  2  3  2  0  0  0
  3  4  1  0  0  0
  4 23  1  0  0  0
  4  5  2  0  0  0
 23 24  1  0  0  0
 24 25  1  0  0  0
 24 32  2  0  0  0
 25 26  2  0  0  0
 26 27  1  0  0  0
 27 28  2  0  0  0
 28 29  1  0  0  0
 28 32  1  0  0  0
 29 30  2  0  0  0
 30 33  1  0  0  0
 30 31  1  0  0  0
 33 34  1  0  0  0
 33 38  2  0  0  0
 34 35  2  0  0  0
 35 36  1  0  0  0
 36 37  2  0  0  0
 37 38  1  0  0  0
 31 32  1  0  0  0
  5  6  1  0  0  0
  5  7  1  0  0  0
M  END
> <minimizedAffinity>
-8.56980

$$$$
