CHEMBL3690585


 37 40  0  0  0  0  0  0  0  0999 V2000
  -30.2274   -7.8970   -7.3158 C   0  0  0  0  0  0  0  0  0  0  0  0
  -29.4067   -6.8410   -7.9259 C   0  0  0  0  0  0  0  0  0  0  0  0
  -29.2933   -5.6403   -7.3321 C   0  0  0  0  0  0  0  0  0  0  0  0
  -29.9343   -5.4051   -6.1137 N   0  0  0  0  0  0  0  0  0  0  0  0
  -29.9486   -4.2959   -5.2733 C   0  0  0  0  0  0  0  0  0  0  0  0
  -30.8268   -4.6610   -4.2599 C   0  0  0  0  0  0  0  0  0  0  0  0
  -31.3072   -5.9286   -4.4145 N   0  0  0  0  0  0  0  0  0  0  0  0
  -30.7450   -6.3674   -5.5155 C   0  0  0  0  0  0  0  0  0  0  0  0
  -30.8581   -7.6362   -6.1464 C   0  0  0  0  0  0  0  0  0  0  0  0
  -32.2531  -12.4655   -7.6678 C   0  0  0  0  0  0  0  0  0  0  0  0
  -31.2879  -11.4012   -8.0932 C   0  0  0  0  0  0  0  0  0  0  0  0
  -31.3001  -10.1598   -7.4978 C   0  0  0  0  0  0  0  0  0  0  0  0
  -30.3463   -9.2517   -7.9178 C   0  0  0  0  0  0  0  0  0  0  0  0
  -29.4660   -9.5372   -8.9000 N   0  0  0  0  0  0  0  0  0  0  0  0
  -29.5165  -10.7760   -9.4485 C   0  0  0  0  0  0  0  0  0  0  0  0
  -30.4101  -11.7217   -9.0635 N   0  0  0  0  0  0  0  0  0  0  0  0
  -28.5164  -11.1389  -10.5534 C   0  0  0  0  0  0  0  0  0  0  0  0
  -28.1258  -12.4511  -10.5398 F   0  0  0  0  0  0  0  0  0  0  0  0
  -29.0047  -10.9237  -11.8125 F   0  0  0  0  0  0  0  0  0  0  0  0
  -27.3537  -10.4208  -10.4830 F   0  0  0  0  0  0  0  0  0  0  0  0
  -29.2325   -3.0239   -5.4396 C   0  0  0  0  0  0  0  0  0  0  0  0
  -28.9839   -2.2392   -4.3038 C   0  0  0  0  0  0  0  0  0  0  0  0
  -28.2897   -1.0382   -4.4032 C   0  0  0  0  0  0  0  0  0  0  0  0
  -27.8304   -0.5990   -5.6422 C   0  0  0  0  0  0  0  0  0  0  0  0
  -28.0332   -1.3646   -6.7916 C   0  0  0  0  0  0  0  0  0  0  0  0
  -28.7253   -2.5810   -6.6762 C   0  0  0  0  0  0  0  0  0  0  0  0
  -27.5746   -0.9735   -8.0718 N   0  0  0  0  0  0  0  0  0  0  0  0
  -27.1690   -1.8109   -9.0856 C   0  0  0  0  0  0  0  0  0  0  0  0
  -27.1502   -3.0349   -9.0748 O   0  0  0  0  0  0  0  0  0  0  0  0
  -26.7108   -1.1150  -10.1838 N   0  0  0  0  0  0  0  0  0  0  0  0
  -27.5281    0.0167   -8.2575 H   0  0  0  0  0  0  0  0  0  0  0  0
  -27.1437   -0.2199  -10.3621 H   0  0  0  0  0  0  0  0  0  0  0  0
  -26.2898   -1.8910  -11.3597 C   0  0  0  0  0  0  0  0  0  0  0  0
  -24.9326   -1.5035  -11.9666 C   0  0  0  0  0  0  0  0  0  0  0  0
  -24.7679   -2.0182  -13.2074 F   0  0  0  0  0  0  0  0  0  0  0  0
  -24.8539   -0.1543  -12.0915 F   0  0  0  0  0  0  0  0  0  0  0  0
  -23.8921   -1.8966  -11.2041 F   0  0  0  0  0  0  0  0  0  0  0  0
 10 11  1  0  0  0
 11 12  1  0  0  0
 11 16  2  0  0  0
 12 13  2  0  0  0
 13  1  1  0  0  0
 13 14  1  0  0  0
  1  2  1  0  0  0
  1  9  2  0  0  0
  2  3  2  0  0  0
  3  4  1  0  0  0
  4  5  1  0  0  0
  4  8  1  0  0  0
  5 21  1  0  0  0
  5  6  2  0  0  0
 21 22  1  0  0  0
 21 26  2  0  0  0
 22 23  2  0  0  0
 23 24  1  0  0  0
 24 25  2  0  0  0
 25 27  1  0  0  0
 25 26  1  0  0  0
 27 28  1  0  0  0
 27 31  1  0  0  0
 28 29  2  0  0  0
 28 30  1  0  0  0
 30 33  1  0  0  0
 30 32  1  0  0  0
 33 34  1  0  0  0
 34 35  1  0  0  0
 34 36  1  0  0  0
 34 37  1  0  0  0
  6  7  1  0  0  0
  7  8  2  0  0  0
  8  9  1  0  0  0
 14 15  2  0  0  0
 15 17  1  0  0  0
 15 16  1  0  0  0
 17 18  1  0  0  0
 17 19  1  0  0  0
 17 20  1  0  0  0
M  END
> <minimizedAffinity>
-10.26171

$$$$
