CHEMBL242865


 29 31  0  0  0  0  0  0  0  0999 V2000
  -15.8149    0.3075  -14.7545 C   0  0  0  0  0  0  0  0  0  0  0  0
  -14.5498    0.8591  -14.8046 C   0  0  0  0  0  0  0  0  0  0  0  0
  -13.6747    0.4612  -13.8223 C   0  0  0  0  0  0  0  0  0  0  0  0
  -13.9956   -0.4177  -12.8625 N   0  0  0  0  0  0  0  0  0  0  0  0
  -15.2268   -0.9407  -12.9036 C   0  0  0  0  0  0  0  0  0  0  0  0
  -16.1296   -0.6100  -13.8319 N   0  0  0  0  0  0  0  0  0  0  0  0
  -16.7814    0.7438  -15.7050 N   0  0  0  0  0  0  0  0  0  0  0  0
  -16.9968   -0.0578  -16.3059 H   0  0  0  0  0  0  0  0  0  0  0  0
  -17.9716    2.9109  -15.6003 C   0  0  0  0  0  0  0  0  0  0  0  0
  -19.1221    3.6566  -15.2776 C   0  0  0  0  0  0  0  0  0  0  0  0
  -20.2867    3.0241  -14.8521 C   0  0  0  0  0  0  0  0  0  0  0  0
  -20.3190    1.6410  -14.7692 C   0  0  0  0  0  0  0  0  0  0  0  0
  -19.1755    0.8980  -15.0718 C   0  0  0  0  0  0  0  0  0  0  0  0
  -17.9717    1.5002  -15.4768 C   0  0  0  0  0  0  0  0  0  0  0  0
  -16.0097    3.2966  -16.8948 O   0  0  0  0  0  0  0  0  0  0  0  0
  -16.8015    3.7081  -16.0629 C   0  0  0  0  0  0  0  0  0  0  0  0
  -16.7048    4.9339  -15.5058 O   0  0  0  0  0  0  0  0  0  0  0  0
  -17.4701    5.1413  -14.9306 H   0  0  0  0  0  0  0  0  0  0  0  0
  -15.6200   -1.9116  -11.9932 N   0  0  0  0  0  0  0  0  0  0  0  0
  -15.8932   -1.5030  -11.1162 H   0  0  0  0  0  0  0  0  0  0  0  0
  -15.3381   -3.2805  -11.9927 C   0  0  0  0  0  0  0  0  0  0  0  0
  -14.0236   -3.7659  -11.9698 C   0  0  0  0  0  0  0  0  0  0  0  0
  -13.7571   -5.1317  -12.0666 C   0  0  0  0  0  0  0  0  0  0  0  0
  -14.8212   -6.0266  -12.2072 C   0  0  0  0  0  0  0  0  0  0  0  0
  -16.1434   -5.5654  -12.2134 C   0  0  0  0  0  0  0  0  0  0  0  0
  -16.3945   -4.1954  -12.0918 C   0  0  0  0  0  0  0  0  0  0  0  0
  -14.5452   -7.4571  -12.3705 N   0  0  0  0  0  0  0  0  0  0  0  0
  -15.1508   -8.0639  -13.2657 O   0  0  0  0  0  0  0  0  0  0  0  0
  -13.7241   -7.9771  -11.6009 O   0  0  0  0  0  0  0  0  0  0  0  0
 15 16  2  0  0  0
 16 17  1  0  0  0
 16  9  1  0  0  0
 17 18  1  0  0  0
  9 10  1  0  0  0
  9 14  2  0  0  0
 10 11  2  0  0  0
 11 12  1  0  0  0
 12 13  2  0  0  0
 13 14  1  0  0  0
 14  7  1  0  0  0
  7  1  1  0  0  0
  7  8  1  0  0  0
  1  2  1  0  0  0
  1  6  2  0  0  0
  2  3  2  0  0  0
  3  4  1  0  0  0
  4  5  2  0  0  0
  5 19  1  0  0  0
  5  6  1  0  0  0
 19 21  1  0  0  0
 19 20  1  0  0  0
 21 22  1  0  0  0
 21 26  2  0  0  0
 22 23  2  0  0  0
 23 24  1  0  0  0
 24 27  1  0  0  0
 24 25  2  0  0  0
 27 28  2  0  0  0
 27 29  1  0  0  0
 25 26  1  0  0  0
M  CHG 1  27   1
M  CHG 1  29  -1
M  END
> <minimizedAffinity>
-8.72683

$$$$
