CHEMBL3690550


 36 39  0  0  0  0  0  0  0  0999 V2000
  -27.7458   -2.1867   -9.0246 C   0  0  0  0  0  0  0  0  0  0  0  0
  -28.5010   -3.4182   -8.7360 C   0  0  0  0  0  0  0  0  0  0  0  0
  -29.0783   -3.6068   -7.5390 C   0  0  0  0  0  0  0  0  0  0  0  0
  -28.9409   -2.6428   -6.5379 N   0  0  0  0  0  0  0  0  0  0  0  0
  -29.3688   -2.6253   -5.2047 C   0  0  0  0  0  0  0  0  0  0  0  0
  -28.9997   -1.3615   -4.7662 C   0  0  0  0  0  0  0  0  0  0  0  0
  -28.3311   -0.6459   -5.7253 N   0  0  0  0  0  0  0  0  0  0  0  0
  -28.2757   -1.4376   -6.7742 C   0  0  0  0  0  0  0  0  0  0  0  0
  -27.6668   -1.2425   -8.0550 C   0  0  0  0  0  0  0  0  0  0  0  0
  -25.6113   -1.1147  -14.1930 C   0  0  0  0  0  0  0  0  0  0  0  0
  -26.0447   -1.4365  -12.7965 C   0  0  0  0  0  0  0  0  0  0  0  0
  -27.3416   -1.8865  -12.6124 C   0  0  0  0  0  0  0  0  0  0  0  0
  -27.8939   -2.1547  -11.4233 N   0  0  0  0  0  0  0  0  0  0  0  0
  -27.1105   -1.9652  -10.3566 C   0  0  0  0  0  0  0  0  0  0  0  0
  -25.8289   -1.5361  -10.4223 N   0  0  0  0  0  0  0  0  0  0  0  0
  -25.2820   -1.2684  -11.6387 C   0  0  0  0  0  0  0  0  0  0  0  0
  -24.0127   -0.6878  -11.6616 N   0  0  0  0  0  0  0  0  0  0  0  0
  -22.8886   -1.5777  -11.9583 C   0  0  0  0  0  0  0  0  0  0  0  0
  -23.8121    0.6792  -12.1317 C   0  0  0  0  0  0  0  0  0  0  0  0
  -30.0098   -3.7253   -4.4544 C   0  0  0  0  0  0  0  0  0  0  0  0
  -31.3895   -3.7117   -4.2134 C   0  0  0  0  0  0  0  0  0  0  0  0
  -32.0039   -4.7271   -3.4895 C   0  0  0  0  0  0  0  0  0  0  0  0
  -31.2615   -5.8217   -3.0606 C   0  0  0  0  0  0  0  0  0  0  0  0
  -29.9009   -5.9257   -3.3494 C   0  0  0  0  0  0  0  0  0  0  0  0
  -29.2746   -4.8542   -4.0208 C   0  0  0  0  0  0  0  0  0  0  0  0
  -29.1389   -7.0744   -3.0076 N   0  0  0  0  0  0  0  0  0  0  0  0
  -28.3493   -7.8118   -3.8693 C   0  0  0  0  0  0  0  0  0  0  0  0
  -28.1636   -7.6101   -5.0639 O   0  0  0  0  0  0  0  0  0  0  0  0
  -27.7701   -8.9038   -3.2588 N   0  0  0  0  0  0  0  0  0  0  0  0
  -29.1491   -7.3562   -2.0392 H   0  0  0  0  0  0  0  0  0  0  0  0
  -27.5401   -8.8127   -2.2799 H   0  0  0  0  0  0  0  0  0  0  0  0
  -26.8996   -9.7687   -4.0720 C   0  0  0  0  0  0  0  0  0  0  0  0
  -25.3937   -9.4606   -4.0271 C   0  0  0  0  0  0  0  0  0  0  0  0
  -24.7231  -10.3092   -3.2151 F   0  0  0  0  0  0  0  0  0  0  0  0
  -24.8599   -9.6053   -5.2676 F   0  0  0  0  0  0  0  0  0  0  0  0
  -25.1346   -8.1983   -3.6285 F   0  0  0  0  0  0  0  0  0  0  0  0
 10 11  1  0  0  0
 11 12  1  0  0  0
 11 16  2  0  0  0
 12 13  2  0  0  0
 13 14  1  0  0  0
 14  1  1  0  0  0
 14 15  2  0  0  0
  1  2  1  0  0  0
  1  9  2  0  0  0
  2  3  2  0  0  0
  3  4  1  0  0  0
  4  5  1  0  0  0
  4  8  1  0  0  0
  5 20  1  0  0  0
  5  6  2  0  0  0
 20 21  1  0  0  0
 20 25  2  0  0  0
 21 22  2  0  0  0
 22 23  1  0  0  0
 23 24  2  0  0  0
 24 26  1  0  0  0
 24 25  1  0  0  0
 26 27  1  0  0  0
 26 30  1  0  0  0
 27 28  2  0  0  0
 27 29  1  0  0  0
 29 32  1  0  0  0
 29 31  1  0  0  0
 32 33  1  0  0  0
 33 34  1  0  0  0
 33 35  1  0  0  0
 33 36  1  0  0  0
  6  7  1  0  0  0
  7  8  2  0  0  0
  8  9  1  0  0  0
 15 16  1  0  0  0
 16 17  1  0  0  0
 17 18  1  0  0  0
 17 19  1  0  0  0
M  END
> <minimizedAffinity>
-9.99757

$$$$
