CHEMBL4103605


 30 33  0  0  0  0  0  0  0  0999 V2000
  -20.5000    1.0822  -14.9781 C   0  0  0  0  0  0  0  0  0  0  0  0
  -20.0928    2.3590  -14.5872 C   0  0  0  0  0  0  0  0  0  0  0  0
  -18.7385    2.7236  -14.6487 C   0  0  0  0  0  0  0  0  0  0  0  0
  -17.7493    1.8179  -15.0433 C   0  0  0  0  0  0  0  0  0  0  0  0
  -18.1779    0.5070  -15.2977 C   0  0  0  0  0  0  0  0  0  0  0  0
  -19.5312    0.1437  -15.3085 C   0  0  0  0  0  0  0  0  0  0  0  0
  -16.3216    2.2172  -15.1499 C   0  0  0  0  0  0  0  0  0  0  0  0
  -15.9244    3.2173  -16.0663 C   0  0  0  0  0  0  0  0  0  0  0  0
  -14.5930    3.5947  -16.1821 C   0  0  0  0  0  0  0  0  0  0  0  0
  -13.5787    3.0778  -15.4715 N   0  0  0  0  0  0  0  0  0  0  0  0
  -13.9787    2.1199  -14.6163 C   0  0  0  0  0  0  0  0  0  0  0  0
  -13.1414    1.4415  -13.7884 N   0  0  0  0  0  0  0  0  0  0  0  0
  -13.7489    0.5233  -13.0301 N   0  0  0  0  0  0  0  0  0  0  0  0
  -15.0390    0.6035  -13.4007 C   0  0  0  0  0  0  0  0  0  0  0  0
  -15.9784   -0.3437  -12.7444 C   0  0  0  0  0  0  0  0  0  0  0  0
  -15.2649    1.6276  -14.3908 C   0  0  0  0  0  0  0  0  0  0  0  0
  -12.1403    1.5669  -13.7084 H   0  0  0  0  0  0  0  0  0  0  0  0
  -23.8396   -0.1567  -14.2576 N   0  0  0  0  0  0  0  0  0  0  0  0
  -22.4961    0.1081  -14.0241 C   0  0  0  0  0  0  0  0  0  0  0  0
  -21.8975   -0.1554  -12.9790 O   0  0  0  0  0  0  0  0  0  0  0  0
  -21.8739    0.7435  -15.0898 N   0  0  0  0  0  0  0  0  0  0  0  0
  -24.1677   -0.0478  -15.2055 H   0  0  0  0  0  0  0  0  0  0  0  0
  -22.4578    1.4044  -15.5807 H   0  0  0  0  0  0  0  0  0  0  0  0
  -28.1554   -2.4349  -13.3177 C   0  0  0  0  0  0  0  0  0  0  0  0
  -26.8716   -1.8197  -12.8431 C   0  0  0  0  0  0  0  0  0  0  0  0
  -26.5915   -1.7877  -11.4737 C   0  0  0  0  0  0  0  0  0  0  0  0
  -25.4096   -1.2221  -11.0207 C   0  0  0  0  0  0  0  0  0  0  0  0
  -24.5008   -0.6804  -11.9290 C   0  0  0  0  0  0  0  0  0  0  0  0
  -24.7417   -0.7008  -13.3051 C   0  0  0  0  0  0  0  0  0  0  0  0
  -25.9402   -1.2771  -13.7540 C   0  0  0  0  0  0  0  0  0  0  0  0
 24 25  1  0  0  0
 25 26  1  0  0  0
 25 30  2  0  0  0
 26 27  2  0  0  0
 27 28  1  0  0  0
 28 29  2  0  0  0
 29 18  1  0  0  0
 29 30  1  0  0  0
 18 19  1  0  0  0
 18 22  1  0  0  0
 19 20  2  0  0  0
 19 21  1  0  0  0
 21  1  1  0  0  0
 21 23  1  0  0  0
  1  2  1  0  0  0
  1  6  2  0  0  0
  2  3  2  0  0  0
  3  4  1  0  0  0
  4  7  1  0  0  0
  4  5  2  0  0  0
  7  8  1  0  0  0
  7 16  2  0  0  0
  8  9  2  0  0  0
  9 10  1  0  0  0
 10 11  2  0  0  0
 11 12  1  0  0  0
 11 16  1  0  0  0
 12 13  1  0  0  0
 12 17  1  0  0  0
 13 14  2  0  0  0
 14 15  1  0  0  0
 14 16  1  0  0  0
  5  6  1  0  0  0
M  END
> <minimizedAffinity>
-9.02818

$$$$
