CHEMBL3976026


 35 39  0  0  0  0  0  0  0  0999 V2000
  -28.1735   -2.4882   -8.1126 C   0  0  0  0  0  0  0  0  0  0  0  0
  -28.5527   -3.8031   -8.3742 C   0  0  0  0  0  0  0  0  0  0  0  0
  -28.9071   -4.7036   -7.3719 C   0  0  0  0  0  0  0  0  0  0  0  0
  -28.8146   -4.3544   -6.0305 C   0  0  0  0  0  0  0  0  0  0  0  0
  -28.3351   -3.0633   -5.7345 C   0  0  0  0  0  0  0  0  0  0  0  0
  -28.0091   -2.1357   -6.7630 C   0  0  0  0  0  0  0  0  0  0  0  0
  -29.1813   -5.4361   -5.0181 C   0  0  0  0  0  0  0  0  0  0  0  0
  -30.6701   -5.8259   -5.0188 C   0  0  0  0  0  0  0  0  0  0  0  0
  -30.9212   -6.9402   -5.9594 N   0  0  0  0  0  0  0  0  0  0  0  0
  -30.1429   -7.9457   -5.7297 C   0  0  0  0  0  0  0  0  0  0  0  0
  -30.1305   -9.1694   -6.4933 C   0  0  0  0  0  0  0  0  0  0  0  0
  -29.8187   -9.1209   -7.8429 C   0  0  0  0  0  0  0  0  0  0  0  0
  -29.5772  -10.3152   -8.5045 C   0  0  0  0  0  0  0  0  0  0  0  0
  -29.7551  -11.5291   -7.8282 C   0  0  0  0  0  0  0  0  0  0  0  0
  -29.9446  -11.5506   -6.4397 C   0  0  0  0  0  0  0  0  0  0  0  0
  -29.9448  -10.3354   -5.7703 C   0  0  0  0  0  0  0  0  0  0  0  0
  -29.3785  -10.2002   -4.4780 N   0  0  0  0  0  0  0  0  0  0  0  0
  -28.6361   -9.0377   -4.2085 C   0  0  0  0  0  0  0  0  0  0  0  0
  -27.6495   -9.0806   -3.4791 O   0  0  0  0  0  0  0  0  0  0  0  0
  -29.0949   -7.8902   -4.8473 N   0  0  0  0  0  0  0  0  0  0  0  0
  -28.3011   -6.7062   -5.1272 C   0  0  0  0  0  0  0  0  0  0  0  0
  -29.0289  -11.0344   -4.0207 H   0  0  0  0  0  0  0  0  0  0  0  0
  -26.9491   -0.6473  -11.0886 N   0  0  0  0  0  0  0  0  0  0  0  0
  -26.9468   -1.5893  -10.0589 C   0  0  0  0  0  0  0  0  0  0  0  0
  -26.0569   -2.4265   -9.9755 O   0  0  0  0  0  0  0  0  0  0  0  0
  -28.0068   -1.5217   -9.1693 N   0  0  0  0  0  0  0  0  0  0  0  0
  -27.3326    0.2641  -10.9176 H   0  0  0  0  0  0  0  0  0  0  0  0
  -28.8275   -0.9739   -9.4410 H   0  0  0  0  0  0  0  0  0  0  0  0
  -22.4451    0.3236  -13.1196 C   0  0  0  0  0  0  0  0  0  0  0  0
  -23.8077   -0.3055  -13.1605 C   0  0  0  0  0  0  0  0  0  0  0  0
  -24.1479   -1.0828  -14.2753 C   0  0  0  0  0  0  0  0  0  0  0  0
  -25.4063   -1.6473  -14.3707 C   0  0  0  0  0  0  0  0  0  0  0  0
  -26.3266   -1.4474  -13.3515 C   0  0  0  0  0  0  0  0  0  0  0  0
  -26.0060   -0.7453  -12.1837 C   0  0  0  0  0  0  0  0  0  0  0  0
  -24.7381   -0.1401  -12.1069 C   0  0  0  0  0  0  0  0  0  0  0  0
 29 30  1  0  0  0
 30 31  1  0  0  0
 30 35  2  0  0  0
 31 32  2  0  0  0
 32 33  1  0  0  0
 33 34  2  0  0  0
 34 23  1  0  0  0
 34 35  1  0  0  0
 23 24  1  0  0  0
 23 27  1  0  0  0
 24 25  2  0  0  0
 24 26  1  0  0  0
 26  1  1  0  0  0
 26 28  1  0  0  0
  1  2  1  0  0  0
  1  6  2  0  0  0
  2  3  2  0  0  0
  3  4  1  0  0  0
  4  7  1  0  0  0
  4  5  2  0  0  0
  7  8  1  0  0  0
  7 21  1  0  0  0
  8  9  1  0  0  0
  9 10  2  0  0  0
 10 11  1  0  0  0
 10 20  1  0  0  0
 11 12  1  0  0  0
 11 16  2  0  0  0
 12 13  2  0  0  0
 13 14  1  0  0  0
 14 15  2  0  0  0
 15 16  1  0  0  0
 16 17  1  0  0  0
 17 18  1  0  0  0
 17 22  1  0  0  0
 18 19  2  0  0  0
 18 20  1  0  0  0
 20 21  1  0  0  0
  5  6  1  0  0  0
M  END
> <minimizedAffinity>
-10.31608

$$$$
