CHEMBL524057


 22 25  0  0  0  0  0  0  0  0999 V2000
  -30.3210   -5.1467   -5.1588 C   0  0  0  0  0  0  0  0  0  0  0  0
  -30.7290   -6.4194   -5.0654 N   0  0  0  0  0  0  0  0  0  0  0  0
  -30.1636   -7.0338   -6.1152 N   0  0  0  0  0  0  0  0  0  0  0  0
  -30.3963   -8.3517   -6.3278 N   0  0  0  0  0  0  0  0  0  0  0  0
  -29.7773   -8.8082   -7.3703 C   0  0  0  0  0  0  0  0  0  0  0  0
  -28.8927   -8.0433   -8.2742 C   0  0  0  0  0  0  0  0  0  0  0  0
  -28.7126   -6.7486   -7.9907 C   0  0  0  0  0  0  0  0  0  0  0  0
  -29.3750   -6.1929   -6.8687 C   0  0  0  0  0  0  0  0  0  0  0  0
  -29.4590   -4.9431   -6.2765 C   0  0  0  0  0  0  0  0  0  0  0  0
  -28.7902   -3.7549   -6.7851 C   0  0  0  0  0  0  0  0  0  0  0  0
  -28.5575   -2.6501   -5.9995 C   0  0  0  0  0  0  0  0  0  0  0  0
  -27.8814   -1.6232   -6.6069 C   0  0  0  0  0  0  0  0  0  0  0  0
  -27.4456   -1.6668   -7.8793 N   0  0  0  0  0  0  0  0  0  0  0  0
  -27.7155   -2.7825   -8.5702 C   0  0  0  0  0  0  0  0  0  0  0  0
  -28.3871   -3.8241   -8.0678 N   0  0  0  0  0  0  0  0  0  0  0  0
  -27.2112   -2.8405   -9.8712 N   0  0  0  0  0  0  0  0  0  0  0  0
  -26.4913   -3.5519   -9.8857 H   0  0  0  0  0  0  0  0  0  0  0  0
  -27.0602   -1.6204  -10.6557 C   0  0  0  0  0  0  0  0  0  0  0  0
  -27.1075   -1.6857  -12.1569 C   0  0  0  0  0  0  0  0  0  0  0  0
  -25.8198   -1.3534  -11.4620 C   0  0  0  0  0  0  0  0  0  0  0  0
  -31.9752   -4.6839   -3.3263 C   0  0  0  0  0  0  0  0  0  0  0  0
  -30.8204   -4.1511   -4.1623 C   0  0  0  0  0  0  0  0  0  0  0  0
 21 22  1  0  0  0
 22  1  1  0  0  0
  1  2  2  0  0  0
  1  9  1  0  0  0
  2  3  1  0  0  0
  3  4  1  0  0  0
  3  8  1  0  0  0
  4  5  2  0  0  0
  5  6  1  0  0  0
  6  7  2  0  0  0
  7  8  1  0  0  0
  8  9  2  0  0  0
  9 10  1  0  0  0
 10 11  1  0  0  0
 10 15  2  0  0  0
 11 12  2  0  0  0
 12 13  1  0  0  0
 13 14  2  0  0  0
 14 16  1  0  0  0
 14 15  1  0  0  0
 16 18  1  0  0  0
 16 17  1  0  0  0
 18 19  1  0  0  0
 18 20  1  0  0  0
 19 20  1  0  0  0
M  END
> <minimizedAffinity>
-8.05150

$$$$
