CHEMBL2036865


 27 30  0  0  0  0  0  0  0  0999 V2000
  -15.2125   -0.7298  -13.4974 C   0  0  0  0  0  0  0  0  0  0  0  0
  -14.3587    0.3409  -13.6103 C   0  0  0  0  0  0  0  0  0  0  0  0
  -14.8469    1.4061  -14.3253 C   0  0  0  0  0  0  0  0  0  0  0  0
  -16.0723    1.4373  -14.8881 N   0  0  0  0  0  0  0  0  0  0  0  0
  -16.8067    0.3224  -14.7841 C   0  0  0  0  0  0  0  0  0  0  0  0
  -16.4054   -0.7606  -14.1030 N   0  0  0  0  0  0  0  0  0  0  0  0
  -13.9380   -3.4465  -14.5065 C   0  0  0  0  0  0  0  0  0  0  0  0
  -14.2941   -3.0811  -13.1557 N   0  0  0  0  0  0  0  0  0  0  0  0
  -14.8577   -1.9048  -12.6898 C   0  0  0  0  0  0  0  0  0  0  0  0
  -15.0960   -2.0045  -11.3879 N   0  0  0  0  0  0  0  0  0  0  0  0
  -14.6715   -3.2504  -11.0080 C   0  0  0  0  0  0  0  0  0  0  0  0
  -14.6955   -3.8571   -9.7432 C   0  0  0  0  0  0  0  0  0  0  0  0
  -14.2205   -5.1689   -9.6137 C   0  0  0  0  0  0  0  0  0  0  0  0
  -13.7337   -5.8632  -10.7223 C   0  0  0  0  0  0  0  0  0  0  0  0
  -13.7020   -5.2718  -11.9902 C   0  0  0  0  0  0  0  0  0  0  0  0
  -14.1758   -3.9573  -12.0942 C   0  0  0  0  0  0  0  0  0  0  0  0
  -18.0690    0.3062  -15.3699 N   0  0  0  0  0  0  0  0  0  0  0  0
  -18.2687   -0.5757  -15.8166 H   0  0  0  0  0  0  0  0  0  0  0  0
  -19.1428    1.1748  -15.1192 C   0  0  0  0  0  0  0  0  0  0  0  0
  -18.9498    2.5598  -15.1872 C   0  0  0  0  0  0  0  0  0  0  0  0
  -19.9729    3.4473  -14.8237 C   0  0  0  0  0  0  0  0  0  0  0  0
  -21.2011    2.9526  -14.3943 C   0  0  0  0  0  0  0  0  0  0  0  0
  -22.1978    3.8141  -14.0253 O   0  0  0  0  0  0  0  0  0  0  0  0
  -21.4161    1.5754  -14.3310 C   0  0  0  0  0  0  0  0  0  0  0  0
  -22.9144    0.9149  -13.7866 Cl  0  0  0  0  0  0  0  0  0  0  0  0
  -20.3933    0.7003  -14.6918 C   0  0  0  0  0  0  0  0  0  0  0  0
  -21.8929    4.7259  -14.1376 H   0  0  0  0  0  0  0  0  0  0  0  0
  7  8  1  0  0  0
  8  9  1  0  0  0
  8 16  1  0  0  0
  9  1  1  0  0  0
  9 10  2  0  0  0
  1  2  1  0  0  0
  1  6  2  0  0  0
  2  3  2  0  0  0
  3  4  1  0  0  0
  4  5  2  0  0  0
  5 17  1  0  0  0
  5  6  1  0  0  0
 17 19  1  0  0  0
 17 18  1  0  0  0
 19 20  1  0  0  0
 19 26  2  0  0  0
 20 21  2  0  0  0
 21 22  1  0  0  0
 22 23  1  0  0  0
 22 24  2  0  0  0
 23 27  1  0  0  0
 24 25  1  0  0  0
 24 26  1  0  0  0
 10 11  1  0  0  0
 11 12  1  0  0  0
 11 16  2  0  0  0
 12 13  2  0  0  0
 13 14  1  0  0  0
 14 15  2  0  0  0
 15 16  1  0  0  0
M  END
> <minimizedAffinity>
-8.69750

$$$$
