CHEMBL188386


 29 31  0  0  0  0  0  0  0  0999 V2000
  -20.5436    1.8271  -14.5607 C   0  0  0  0  0  0  0  0  0  0  0  0
  -21.3201    2.9559  -14.3180 C   0  0  0  0  0  0  0  0  0  0  0  0
  -22.6164    2.8968  -13.9305 N   0  0  0  0  0  0  0  0  0  0  0  0
  -23.1181    1.6430  -13.8056 C   0  0  0  0  0  0  0  0  0  0  0  0
  -22.3758    0.4864  -14.0410 C   0  0  0  0  0  0  0  0  0  0  0  0
  -21.0789    0.5875  -14.4100 N   0  0  0  0  0  0  0  0  0  0  0  0
  -16.8873    0.9162  -15.1382 C   0  0  0  0  0  0  0  0  0  0  0  0
  -16.5290    2.0628  -15.8466 C   0  0  0  0  0  0  0  0  0  0  0  0
  -17.3594    3.0959  -16.1176 N   0  0  0  0  0  0  0  0  0  0  0  0
  -18.6331    2.9756  -15.6755 C   0  0  0  0  0  0  0  0  0  0  0  0
  -19.1454    1.8639  -15.0079 C   0  0  0  0  0  0  0  0  0  0  0  0
  -18.2356    0.8169  -14.7667 C   0  0  0  0  0  0  0  0  0  0  0  0
  -16.0330   -0.1655  -14.8915 N   0  0  0  0  0  0  0  0  0  0  0  0
  -16.3775   -1.0286  -15.3084 H   0  0  0  0  0  0  0  0  0  0  0  0
  -15.5761   -0.3713  -13.5172 C   0  0  0  0  0  0  0  0  0  0  0  0
  -15.1874   -1.8350  -13.3048 C   0  0  0  0  0  0  0  0  0  0  0  0
  -15.7940   -2.4181  -12.0232 C   0  0  0  0  0  0  0  0  0  0  0  0
  -16.6812   -4.3825  -10.9514 O   0  0  0  0  0  0  0  0  0  0  0  0
  -16.0777   -3.9076  -12.1481 C   0  0  0  0  0  0  0  0  0  0  0  0
  -16.8721   -5.3269  -11.0855 H   0  0  0  0  0  0  0  0  0  0  0  0
  -22.9978   -0.7770  -13.9555 N   0  0  0  0  0  0  0  0  0  0  0  0
  -22.9210   -1.2962  -14.8214 H   0  0  0  0  0  0  0  0  0  0  0  0
  -24.1513   -1.0802  -13.1993 C   0  0  0  0  0  0  0  0  0  0  0  0
  -24.1242   -0.9925  -11.8011 C   0  0  0  0  0  0  0  0  0  0  0  0
  -25.2648   -1.2819  -11.0450 C   0  0  0  0  0  0  0  0  0  0  0  0
  -26.4502   -1.6491  -11.6802 C   0  0  0  0  0  0  0  0  0  0  0  0
  -26.4863   -1.7347  -13.0690 C   0  0  0  0  0  0  0  0  0  0  0  0
  -27.9493   -2.1764  -13.8605 Cl  0  0  0  0  0  0  0  0  0  0  0  0
  -25.3487   -1.4564  -13.8227 C   0  0  0  0  0  0  0  0  0  0  0  0
 18 19  1  0  0  0
 18 20  1  0  0  0
 19 17  1  0  0  0
 17 16  1  0  0  0
 16 15  1  0  0  0
 15 13  1  0  0  0
 13  7  1  0  0  0
 13 14  1  0  0  0
  7  8  1  0  0  0
  7 12  2  0  0  0
  8  9  2  0  0  0
  9 10  1  0  0  0
 10 11  2  0  0  0
 11  1  1  0  0  0
 11 12  1  0  0  0
  1  2  1  0  0  0
  1  6  2  0  0  0
  2  3  2  0  0  0
  3  4  1  0  0  0
  4  5  2  0  0  0
  5 21  1  0  0  0
  5  6  1  0  0  0
 21 23  1  0  0  0
 21 22  1  0  0  0
 23 24  1  0  0  0
 23 29  2  0  0  0
 24 25  2  0  0  0
 25 26  1  0  0  0
 26 27  2  0  0  0
 27 28  1  0  0  0
 27 29  1  0  0  0
M  END
> <minimizedAffinity>
-8.77388

$$$$
