CHEMBL3671518


 36 38  0  0  0  0  0  0  0  0999 V2000
  -28.7396   -4.8978   -5.4138 C   0  0  0  0  0  0  0  0  0  0  0  0
  -28.4283   -6.1915   -4.9940 C   0  0  0  0  0  0  0  0  0  0  0  0
  -28.7901   -7.2986   -5.7878 C   0  0  0  0  0  0  0  0  0  0  0  0
  -28.6839   -8.6348   -5.3781 C   0  0  0  0  0  0  0  0  0  0  0  0
  -29.0730   -9.6515   -6.1685 N   0  0  0  0  0  0  0  0  0  0  0  0
  -29.5902   -9.3323   -7.3554 C   0  0  0  0  0  0  0  0  0  0  0  0
  -29.7795   -8.0955   -7.8270 N   0  0  0  0  0  0  0  0  0  0  0  0
  -29.3900   -7.0911   -7.0393 C   0  0  0  0  0  0  0  0  0  0  0  0
  -29.6231   -5.7895   -7.4647 C   0  0  0  0  0  0  0  0  0  0  0  0
  -29.2925   -4.6812   -6.6794 C   0  0  0  0  0  0  0  0  0  0  0  0
  -29.7495   -3.5382   -3.6583 C   0  0  0  0  0  0  0  0  0  0  0  0
  -29.5760   -2.9240   -2.6099 O   0  0  0  0  0  0  0  0  0  0  0  0
  -28.6757   -3.8654   -4.4577 N   0  0  0  0  0  0  0  0  0  0  0  0
  -27.8346   -3.8321   -3.8901 H   0  0  0  0  0  0  0  0  0  0  0  0
  -31.8122   -4.7891   -3.2764 C   0  0  0  0  0  0  0  0  0  0  0  0
  -31.0950   -4.0062   -4.0910 C   0  0  0  0  0  0  0  0  0  0  0  0
  -28.2354   -8.9413   -4.0659 N   0  0  0  0  0  0  0  0  0  0  0  0
  -28.3655   -8.1479   -3.4435 H   0  0  0  0  0  0  0  0  0  0  0  0
  -27.0242   -9.6233   -3.8014 C   0  0  0  0  0  0  0  0  0  0  0  0
  -25.7878   -8.9893   -3.9881 C   0  0  0  0  0  0  0  0  0  0  0  0
  -24.5995   -9.6112   -3.6039 C   0  0  0  0  0  0  0  0  0  0  0  0
  -24.6398  -10.8905   -3.0558 C   0  0  0  0  0  0  0  0  0  0  0  0
  -23.0433  -11.6820   -2.4282 Br  0  0  0  0  0  0  0  0  0  0  0  0
  -25.8487  -11.5719   -2.9387 C   0  0  0  0  0  0  0  0  0  0  0  0
  -27.0253  -10.9379   -3.3227 C   0  0  0  0  0  0  0  0  0  0  0  0
  -28.1930  -11.5877   -3.1839 F   0  0  0  0  0  0  0  0  0  0  0  0
  -29.6119   -3.4653   -7.2328 O   0  0  0  0  0  0  0  0  0  0  0  0
  -28.8424   -3.1054   -8.3854 C   0  0  0  0  0  0  0  0  0  0  0  0
  -27.6052   -2.3012   -7.9761 C   0  0  0  0  0  0  0  0  0  0  0  0
  -27.9707   -1.0199   -7.3897 N   0  0  0  0  0  0  0  0  0  0  0  0
  -27.7540   -0.7637   -6.0527 C   0  0  0  0  0  0  0  0  0  0  0  0
  -27.1572   -1.5315   -5.3004 O   0  0  0  0  0  0  0  0  0  0  0  0
  -28.5450   -0.3853   -7.9315 H   0  0  0  0  0  0  0  0  0  0  0  0
  -28.3703    0.5379   -5.5369 C   0  0  0  0  0  0  0  0  0  0  0  0
  -28.1388    1.6268   -6.4175 O   0  0  0  0  0  0  0  0  0  0  0  0
  -27.3834    1.3629   -6.9815 H   0  0  0  0  0  0  0  0  0  0  0  0
 15 16  2  0  0  0
 16 11  1  0  0  0
 11 12  2  0  0  0
 11 13  1  0  0  0
 13  1  1  0  0  0
 13 14  1  0  0  0
  1  2  1  0  0  0
  1 10  2  0  0  0
  2  3  2  0  0  0
  3  4  1  0  0  0
  3  8  1  0  0  0
  4 17  1  0  0  0
  4  5  2  0  0  0
 17 19  1  0  0  0
 17 18  1  0  0  0
 19 20  1  0  0  0
 19 25  2  0  0  0
 20 21  2  0  0  0
 21 22  1  0  0  0
 22 23  1  0  0  0
 22 24  2  0  0  0
 24 25  1  0  0  0
 25 26  1  0  0  0
  5  6  1  0  0  0
  6  7  2  0  0  0
  7  8  1  0  0  0
  8  9  2  0  0  0
  9 10  1  0  0  0
 10 27  1  0  0  0
 27 28  1  0  0  0
 28 29  1  0  0  0
 29 30  1  0  0  0
 30 31  1  0  0  0
 30 33  1  0  0  0
 31 32  2  0  0  0
 31 34  1  0  0  0
 34 35  1  0  0  0
 35 36  1  0  0  0
M  END
> <minimizedAffinity>
-8.01330

$$$$
