CHEMBL340384


 31 34  0  0  0  0  0  0  0  0999 V2000
  -15.5220    3.2506  -16.7368 C   0  0  0  0  0  0  0  0  0  0  0  0
  -16.7599    3.0265  -16.2673 C   0  0  0  0  0  0  0  0  0  0  0  0
  -17.2199    1.9454  -15.5019 N   0  0  0  0  0  0  0  0  0  0  0  0
  -16.2020    1.0037  -15.0739 C   0  0  0  0  0  0  0  0  0  0  0  0
  -16.4765   -0.1521  -14.3147 C   0  0  0  0  0  0  0  0  0  0  0  0
  -15.4711   -0.9593  -13.7299 C   0  0  0  0  0  0  0  0  0  0  0  0
  -14.1403   -0.6546  -14.0410 C   0  0  0  0  0  0  0  0  0  0  0  0
  -13.8321    0.3993  -14.8960 C   0  0  0  0  0  0  0  0  0  0  0  0
  -14.8519    1.2147  -15.4062 C   0  0  0  0  0  0  0  0  0  0  0  0
  -14.4687    2.3001  -16.3294 C   0  0  0  0  0  0  0  0  0  0  0  0
  -13.3081    2.4057  -16.7198 O   0  0  0  0  0  0  0  0  0  0  0  0
  -18.6153    1.9242  -15.0795 C   0  0  0  0  0  0  0  0  0  0  0  0
  -19.2013    3.0942  -14.5379 C   0  0  0  0  0  0  0  0  0  0  0  0
  -20.5043    3.1218  -14.0255 C   0  0  0  0  0  0  0  0  0  0  0  0
  -21.3052    2.0023  -14.1559 C   0  0  0  0  0  0  0  0  0  0  0  0
  -22.5816    1.9810  -13.6810 O   0  0  0  0  0  0  0  0  0  0  0  0
  -20.8152    0.8583  -14.7622 C   0  0  0  0  0  0  0  0  0  0  0  0
  -19.4742    0.7949  -15.1804 C   0  0  0  0  0  0  0  0  0  0  0  0
  -18.9613   -0.7793  -15.7040 Cl  0  0  0  0  0  0  0  0  0  0  0  0
  -22.7489    2.7871  -13.1659 H   0  0  0  0  0  0  0  0  0  0  0  0
  -15.8119   -2.0474  -12.7804 C   0  0  0  0  0  0  0  0  0  0  0  0
  -15.7299   -1.8714  -11.3923 C   0  0  0  0  0  0  0  0  0  0  0  0
  -16.0105   -2.9373  -10.5491 C   0  0  0  0  0  0  0  0  0  0  0  0
  -16.3760   -4.1599  -10.9798 N   0  0  0  0  0  0  0  0  0  0  0  0
  -16.4635   -4.3242  -12.3135 C   0  0  0  0  0  0  0  0  0  0  0  0
  -16.1927   -3.3210  -13.2335 C   0  0  0  0  0  0  0  0  0  0  0  0
  -14.6738    5.4925  -17.0205 N   0  0  0  0  0  0  0  0  0  0  0  0
  -15.2825    4.4319  -17.6111 C   0  0  0  0  0  0  0  0  0  0  0  0
  -15.5969    4.4680  -18.7968 O   0  0  0  0  0  0  0  0  0  0  0  0
  -14.4571    6.3063  -17.5743 H   0  0  0  0  0  0  0  0  0  0  0  0
  -14.3963    5.4757  -16.0396 H   0  0  0  0  0  0  0  0  0  0  0  0
 27 28  1  0  0  0
 27 30  1  0  0  0
 27 31  1  0  0  0
 28 29  2  0  0  0
 28  1  1  0  0  0
  1  2  2  0  0  0
  1 10  1  0  0  0
  2  3  1  0  0  0
  3 12  1  0  0  0
  3  4  1  0  0  0
 12 13  1  0  0  0
 12 18  2  0  0  0
 13 14  2  0  0  0
 14 15  1  0  0  0
 15 16  1  0  0  0
 15 17  2  0  0  0
 16 20  1  0  0  0
 17 18  1  0  0  0
 18 19  1  0  0  0
  4  5  1  0  0  0
  4  9  2  0  0  0
  5  6  2  0  0  0
  6 21  1  0  0  0
  6  7  1  0  0  0
 21 22  1  0  0  0
 21 26  2  0  0  0
 22 23  2  0  0  0
 23 24  1  0  0  0
 24 25  2  0  0  0
 25 26  1  0  0  0
  7  8  2  0  0  0
  8  9  1  0  0  0
  9 10  1  0  0  0
 10 11  2  0  0  0
M  END
> <minimizedAffinity>
-8.97736

$$$$
