CHEMBL3694716


 35 38  0  0  0  0  0  0  0  0999 V2000
  -29.0674  -10.0341   -8.6519 C   0  0  0  0  0  0  0  0  0  0  0  0
  -28.2269  -10.8108   -7.8486 C   0  0  0  0  0  0  0  0  0  0  0  0
  -27.1827  -11.5867   -8.3535 C   0  0  0  0  0  0  0  0  0  0  0  0
  -27.1176  -11.7591   -9.7379 C   0  0  0  0  0  0  0  0  0  0  0  0
  -28.0536  -11.1207  -10.5669 C   0  0  0  0  0  0  0  0  0  0  0  0
  -28.9934  -10.2384  -10.0270 C   0  0  0  0  0  0  0  0  0  0  0  0
  -29.8258   -9.5984  -10.8644 F   0  0  0  0  0  0  0  0  0  0  0  0
  -29.6028   -5.0983   -6.9527 C   0  0  0  0  0  0  0  0  0  0  0  0
  -28.4450   -5.6738   -7.5962 C   0  0  0  0  0  0  0  0  0  0  0  0
  -28.5104   -6.9501   -8.0011 C   0  0  0  0  0  0  0  0  0  0  0  0
  -29.6631   -7.7146   -7.7592 N   0  0  0  0  0  0  0  0  0  0  0  0
  -29.9655   -9.0531   -8.0285 C   0  0  0  0  0  0  0  0  0  0  0  0
  -31.2751   -9.1912   -7.6020 C   0  0  0  0  0  0  0  0  0  0  0  0
  -31.7735   -8.0418   -7.0531 N   0  0  0  0  0  0  0  0  0  0  0  0
  -30.8016   -7.1747   -7.1456 C   0  0  0  0  0  0  0  0  0  0  0  0
  -30.7298   -5.8073   -6.7430 C   0  0  0  0  0  0  0  0  0  0  0  0
  -29.4887   -2.3947   -6.1458 C   0  0  0  0  0  0  0  0  0  0  0  0
  -29.5413   -3.6431   -6.5184 C   0  0  0  0  0  0  0  0  0  0  0  0
  -27.0436   -0.9665   -4.9573 C   0  0  0  0  0  0  0  0  0  0  0  0
  -28.3442   -0.3955   -5.1993 N   0  0  0  0  0  0  0  0  0  0  0  0
  -28.7137    0.8923   -4.9406 C   0  0  0  0  0  0  0  0  0  0  0  0
  -29.9631    1.1137   -5.2799 N   0  0  0  0  0  0  0  0  0  0  0  0
  -30.4178   -0.0840   -5.7771 C   0  0  0  0  0  0  0  0  0  0  0  0
  -29.4276   -1.0399   -5.7338 C   0  0  0  0  0  0  0  0  0  0  0  0
  -26.2048  -12.1693   -7.4972 N   0  0  0  0  0  0  0  0  0  0  0  0
  -25.0971  -11.5106   -7.0067 C   0  0  0  0  0  0  0  0  0  0  0  0
  -24.7662  -10.3519   -7.2399 O   0  0  0  0  0  0  0  0  0  0  0  0
  -24.3367  -12.2458   -6.1308 N   0  0  0  0  0  0  0  0  0  0  0  0
  -26.2739  -13.1620   -7.3342 H   0  0  0  0  0  0  0  0  0  0  0  0
  -24.4148  -13.2524   -6.1139 H   0  0  0  0  0  0  0  0  0  0  0  0
  -23.1390  -11.6074   -5.5601 C   0  0  0  0  0  0  0  0  0  0  0  0
  -21.8277  -11.7542   -6.3503 C   0  0  0  0  0  0  0  0  0  0  0  0
  -21.9859  -12.4657   -7.4898 F   0  0  0  0  0  0  0  0  0  0  0  0
  -21.2873  -10.5591   -6.6766 F   0  0  0  0  0  0  0  0  0  0  0  0
  -20.9102  -12.4147   -5.5987 F   0  0  0  0  0  0  0  0  0  0  0  0
 19 20  1  0  0  0
 20 21  1  0  0  0
 20 24  1  0  0  0
 21 22  2  0  0  0
 22 23  1  0  0  0
 23 24  2  0  0  0
 24 17  1  0  0  0
 17 18  3  0  0  0
 18  8  1  0  0  0
  8  9  1  0  0  0
  8 16  2  0  0  0
  9 10  2  0  0  0
 10 11  1  0  0  0
 11 12  1  0  0  0
 11 15  1  0  0  0
 12  1  1  0  0  0
 12 13  2  0  0  0
  1  2  1  0  0  0
  1  6  2  0  0  0
  2  3  2  0  0  0
  3 25  1  0  0  0
  3  4  1  0  0  0
 25 26  1  0  0  0
 25 29  1  0  0  0
 26 27  2  0  0  0
 26 28  1  0  0  0
 28 31  1  0  0  0
 28 30  1  0  0  0
 31 32  1  0  0  0
 32 33  1  0  0  0
 32 34  1  0  0  0
 32 35  1  0  0  0
  4  5  2  0  0  0
  5  6  1  0  0  0
  6  7  1  0  0  0
 13 14  1  0  0  0
 14 15  2  0  0  0
 15 16  1  0  0  0
M  END
> <minimizedAffinity>
-7.97817

$$$$
