CHEMBL2003785


 20 22  0  0  0  0  0  0  0  0999 V2000
  -27.3151   -2.7031   -9.6656 N   0  0  0  0  0  0  0  0  0  0  0  0
  -26.3846   -3.1144   -9.6437 H   0  0  0  0  0  0  0  0  0  0  0  0
  -27.7515   -2.4185   -8.3694 C   0  0  0  0  0  0  0  0  0  0  0  0
  -27.4628   -1.2290   -7.7749 N   0  0  0  0  0  0  0  0  0  0  0  0
  -27.9426   -0.9857   -6.5335 C   0  0  0  0  0  0  0  0  0  0  0  0
  -28.6902   -1.7903   -5.7511 N   0  0  0  0  0  0  0  0  0  0  0  0
  -28.9378   -2.9497   -6.3748 C   0  0  0  0  0  0  0  0  0  0  0  0
  -29.6614   -4.0019   -5.8946 N   0  0  0  0  0  0  0  0  0  0  0  0
  -29.6555   -4.9785   -6.8538 C   0  0  0  0  0  0  0  0  0  0  0  0
  -28.9716   -4.6177   -7.9193 N   0  0  0  0  0  0  0  0  0  0  0  0
  -28.5247   -3.3407   -7.6359 C   0  0  0  0  0  0  0  0  0  0  0  0
  -30.1138   -4.0362   -4.9936 H   0  0  0  0  0  0  0  0  0  0  0  0
  -27.5062   -1.6455  -10.6371 C   0  0  0  0  0  0  0  0  0  0  0  0
  -22.6910   -1.6157  -11.4839 F   0  0  0  0  0  0  0  0  0  0  0  0
  -23.9391   -1.6142  -11.9706 C   0  0  0  0  0  0  0  0  0  0  0  0
  -24.1352   -1.6230  -13.3463 C   0  0  0  0  0  0  0  0  0  0  0  0
  -25.4334   -1.6226  -13.8538 C   0  0  0  0  0  0  0  0  0  0  0  0
  -26.5256   -1.6174  -12.9804 C   0  0  0  0  0  0  0  0  0  0  0  0
  -26.3309   -1.6134  -11.5896 C   0  0  0  0  0  0  0  0  0  0  0  0
  -25.0179   -1.6100  -11.0929 C   0  0  0  0  0  0  0  0  0  0  0  0
 14 15  1  0  0  0
 15 16  1  0  0  0
 15 20  2  0  0  0
 16 17  2  0  0  0
 17 18  1  0  0  0
 18 19  2  0  0  0
 19 13  1  0  0  0
 19 20  1  0  0  0
 13  1  1  0  0  0
  1  3  1  0  0  0
  1  2  1  0  0  0
  3  4  1  0  0  0
  3 11  2  0  0  0
  4  5  2  0  0  0
  5  6  1  0  0  0
  6  7  2  0  0  0
  7  8  1  0  0  0
  7 11  1  0  0  0
  8  9  1  0  0  0
  8 12  1  0  0  0
  9 10  2  0  0  0
 10 11  1  0  0  0
M  END
> <minimizedAffinity>
-7.92289

$$$$
