CHEMBL201303


 30 33  0  0  0  0  0  0  0  0999 V2000
  -29.7687   -8.1992   -5.2735 O   0  0  0  0  0  0  0  0  0  0  0  0
  -28.6573   -8.1555   -5.7791 C   0  0  0  0  0  0  0  0  0  0  0  0
  -27.9414   -6.9710   -5.9470 N   0  0  0  0  0  0  0  0  0  0  0  0
  -27.1150   -7.0030   -6.5237 H   0  0  0  0  0  0  0  0  0  0  0  0
  -28.4173   -5.7144   -5.5156 C   0  0  0  0  0  0  0  0  0  0  0  0
  -29.2918   -4.9582   -6.2942 C   0  0  0  0  0  0  0  0  0  0  0  0
  -29.6621   -3.6750   -5.9217 C   0  0  0  0  0  0  0  0  0  0  0  0
  -29.2565   -3.1603   -4.6956 C   0  0  0  0  0  0  0  0  0  0  0  0
  -28.3984   -3.9137   -3.8899 C   0  0  0  0  0  0  0  0  0  0  0  0
  -27.9826   -5.1942   -4.2924 C   0  0  0  0  0  0  0  0  0  0  0  0
  -29.6288   -1.9153   -4.2320 O   0  0  0  0  0  0  0  0  0  0  0  0
  -29.3681   -0.8028   -5.0073 C   0  0  0  0  0  0  0  0  0  0  0  0
  -28.1139   -0.5212   -5.5646 C   0  0  0  0  0  0  0  0  0  0  0  0
  -27.9035    0.6519   -6.2824 C   0  0  0  0  0  0  0  0  0  0  0  0
  -28.9692    1.5166   -6.5165 C   0  0  0  0  0  0  0  0  0  0  0  0
  -30.2419    1.2091   -6.0261 C   0  0  0  0  0  0  0  0  0  0  0  0
  -30.4393    0.0499   -5.2672 C   0  0  0  0  0  0  0  0  0  0  0  0
  -28.0355   -9.3716   -6.2550 C   0  0  0  0  0  0  0  0  0  0  0  0
  -27.2361  -10.5007   -5.2564 S   0  0  0  0  0  0  0  0  0  0  0  0
  -27.0342  -11.5211   -6.6179 C   0  0  0  0  0  0  0  0  0  0  0  0
  -27.4450  -11.0459   -7.7727 N   0  0  0  0  0  0  0  0  0  0  0  0
  -28.0246   -9.8025   -7.5796 C   0  0  0  0  0  0  0  0  0  0  0  0
  -28.6324   -9.0392   -8.7340 C   0  0  0  0  0  0  0  0  0  0  0  0
  -29.7532   -9.7499   -9.4861 C   0  0  0  0  0  0  0  0  0  0  0  0
  -30.9139  -10.1071   -8.5799 C   0  0  0  0  0  0  0  0  0  0  0  0
  -31.2091  -11.4478   -8.3155 C   0  0  0  0  0  0  0  0  0  0  0  0
  -32.2798  -11.7499   -7.4870 C   0  0  0  0  0  0  0  0  0  0  0  0
  -33.0747  -10.8214   -6.9158 N   0  0  0  0  0  0  0  0  0  0  0  0
  -32.7786   -9.5312   -7.1858 C   0  0  0  0  0  0  0  0  0  0  0  0
  -31.7258   -9.1287   -7.9970 C   0  0  0  0  0  0  0  0  0  0  0  0
  1  2  2  0  0  0
  2  3  1  0  0  0
  2 18  1  0  0  0
  3  5  1  0  0  0
  3  4  1  0  0  0
  5  6  1  0  0  0
  5 10  2  0  0  0
  6  7  2  0  0  0
  7  8  1  0  0  0
  8 11  1  0  0  0
  8  9  2  0  0  0
 11 12  1  0  0  0
 12 13  1  0  0  0
 12 17  2  0  0  0
 13 14  2  0  0  0
 14 15  1  0  0  0
 15 16  2  0  0  0
 16 17  1  0  0  0
  9 10  1  0  0  0
 18 19  1  0  0  0
 18 22  2  0  0  0
 19 20  1  0  0  0
 20 21  2  0  0  0
 21 22  1  0  0  0
 22 23  1  0  0  0
 23 24  1  0  0  0
 24 25  1  0  0  0
 25 26  1  0  0  0
 25 30  2  0  0  0
 26 27  2  0  0  0
 27 28  1  0  0  0
 28 29  2  0  0  0
 29 30  1  0  0  0
M  END
> <minimizedAffinity>
-8.13672

$$$$
