CHEMBL3604469


 29 30  0  0  0  0  0  0  0  0999 V2000
  -15.5678   -0.3410  -12.9418 C   0  0  0  0  0  0  0  0  0  0  0  0
  -14.4696    0.4208  -12.9747 N   0  0  0  0  0  0  0  0  0  0  0  0
  -14.4689    1.4298  -13.8770 C   0  0  0  0  0  0  0  0  0  0  0  0
  -15.5211    1.7193  -14.7230 C   0  0  0  0  0  0  0  0  0  0  0  0
  -15.4096    3.1740  -15.9171 Br  0  0  0  0  0  0  0  0  0  0  0  0
  -16.6164    0.8827  -14.6344 C   0  0  0  0  0  0  0  0  0  0  0  0
  -16.6150   -0.1280  -13.7494 N   0  0  0  0  0  0  0  0  0  0  0  0
  -15.5876   -1.3992  -12.0269 N   0  0  0  0  0  0  0  0  0  0  0  0
  -15.4777   -1.0360  -11.0914 H   0  0  0  0  0  0  0  0  0  0  0  0
  -14.8660   -5.5078  -12.7253 C   0  0  0  0  0  0  0  0  0  0  0  0
  -13.8702   -4.5610  -12.9795 C   0  0  0  0  0  0  0  0  0  0  0  0
  -14.1105   -3.2042  -12.7141 C   0  0  0  0  0  0  0  0  0  0  0  0
  -15.3459   -2.7706  -12.2148 C   0  0  0  0  0  0  0  0  0  0  0  0
  -16.2908   -3.7604  -11.9161 C   0  0  0  0  0  0  0  0  0  0  0  0
  -16.0772   -5.1101  -12.1809 C   0  0  0  0  0  0  0  0  0  0  0  0
  -14.6388   -7.2280  -13.1259 S   0  0  0  0  0  0  0  0  0  0  0  0
  -15.8954   -7.6729  -13.9020 N   0  0  0  0  0  0  0  0  0  0  0  0
  -14.1800   -7.8822  -11.9154 O   0  0  0  0  0  0  0  0  0  0  0  0
  -15.9122   -8.6876  -13.9931 H   0  0  0  0  0  0  0  0  0  0  0  0
  -11.9932   -7.6967  -13.6216 C   0  0  0  0  0  0  0  0  0  0  0  0
  -13.2643   -7.1717  -14.2599 C   0  0  0  0  0  0  0  0  0  0  0  0
  -17.7345    1.0219  -15.4856 N   0  0  0  0  0  0  0  0  0  0  0  0
  -17.4969    1.6411  -16.2624 H   0  0  0  0  0  0  0  0  0  0  0  0
  -18.9911    1.4421  -14.8258 C   0  0  0  0  0  0  0  0  0  0  0  0
  -20.1329    0.5213  -15.2676 C   0  0  0  0  0  0  0  0  0  0  0  0
  -19.3061    2.9277  -15.1397 C   0  0  0  0  0  0  0  0  0  0  0  0
  -20.8095    3.1868  -15.2516 C   0  0  0  0  0  0  0  0  0  0  0  0
  -18.7865    3.7549  -14.0855 O   0  0  0  0  0  0  0  0  0  0  0  0
  -19.3385    3.6088  -13.2967 H   0  0  0  0  0  0  0  0  0  0  0  0
 20 21  1  0  0  0
 21 16  1  0  0  0
 16 17  2  0  0  0
 16 18  2  0  0  0
 16 10  1  0  0  0
 17 19  1  0  0  0
 10 11  1  0  0  0
 10 15  2  0  0  0
 11 12  2  0  0  0
 12 13  1  0  0  0
 13  8  1  0  0  0
 13 14  2  0  0  0
  8  1  1  0  0  0
  8  9  1  0  0  0
  1  2  1  0  0  0
  1  7  2  0  0  0
  2  3  2  0  0  0
  3  4  1  0  0  0
  4  5  1  0  0  0
  4  6  2  0  0  0
  6 22  1  0  0  0
  6  7  1  0  0  0
 22 23  1  0  0  0
 24 26  1  0  0  0
 24 25  1  0  0  0
 24 22  1  0  0  0
 26 27  1  0  0  0
 26 28  1  0  0  0
 28 29  1  0  0  0
 14 15  1  0  0  0
M  END
> <minimizedAffinity>
-7.29873

$$$$
