CHEMBL4471650


 33 35  0  0  0  0  0  0  0  0999 V2000
  -28.6990   -9.4481   -4.5957 C   0  0  0  0  0  0  0  0  0  0  0  0
  -29.1841  -10.6912   -4.9494 C   0  0  0  0  0  0  0  0  0  0  0  0
  -30.1190  -10.7193   -5.9567 C   0  0  0  0  0  0  0  0  0  0  0  0
  -30.5371   -9.6241   -6.6079 N   0  0  0  0  0  0  0  0  0  0  0  0
  -29.9706   -8.4676   -6.2400 C   0  0  0  0  0  0  0  0  0  0  0  0
  -29.0824   -8.3337   -5.2434 N   0  0  0  0  0  0  0  0  0  0  0  0
  -27.6931   -9.3582   -3.6017 N   0  0  0  0  0  0  0  0  0  0  0  0
  -27.5886   -8.3965   -3.2900 H   0  0  0  0  0  0  0  0  0  0  0  0
  -23.8056  -11.0015   -3.8448 C   0  0  0  0  0  0  0  0  0  0  0  0
  -24.0848   -9.7883   -4.4798 C   0  0  0  0  0  0  0  0  0  0  0  0
  -25.3696   -9.2469   -4.4165 C   0  0  0  0  0  0  0  0  0  0  0  0
  -26.3989   -9.9164   -3.7403 C   0  0  0  0  0  0  0  0  0  0  0  0
  -26.1021  -11.1038   -3.0654 C   0  0  0  0  0  0  0  0  0  0  0  0
  -24.8208  -11.6533   -3.1281 C   0  0  0  0  0  0  0  0  0  0  0  0
  -22.4602  -11.6012   -4.0360 C   0  0  0  0  0  0  0  0  0  0  0  0
  -21.4951  -11.3496   -3.3324 O   0  0  0  0  0  0  0  0  0  0  0  0
  -22.4566  -12.3283   -5.1791 O   0  0  0  0  0  0  0  0  0  0  0  0
  -21.5063  -11.0451   -6.9458 C   0  0  0  0  0  0  0  0  0  0  0  0
  -21.2798  -12.2003   -5.9862 C   0  0  0  0  0  0  0  0  0  0  0  0
  -30.4633   -7.0070   -7.1183 S   0  0  0  0  0  0  0  0  0  0  0  0
  -29.5787   -5.7557   -6.1327 C   0  0  0  0  0  0  0  0  0  0  0  0
  -28.8821   -4.7182   -7.0022 C   0  0  0  0  0  0  0  0  0  0  0  0
  -28.3738   -4.9883   -8.0900 O   0  0  0  0  0  0  0  0  0  0  0  0
  -28.9169   -3.2810   -6.5862 C   0  0  0  0  0  0  0  0  0  0  0  0
  -29.7779   -2.7895   -5.6038 C   0  0  0  0  0  0  0  0  0  0  0  0
  -29.7682   -1.4309   -5.2709 C   0  0  0  0  0  0  0  0  0  0  0  0
  -28.8944   -0.5376   -5.9102 C   0  0  0  0  0  0  0  0  0  0  0  0
  -28.0201   -1.0356   -6.8859 C   0  0  0  0  0  0  0  0  0  0  0  0
  -28.0287   -2.3937   -7.2182 C   0  0  0  0  0  0  0  0  0  0  0  0
  -28.8816    0.9315   -5.5600 C   0  0  0  0  0  0  0  0  0  0  0  0
  -28.5165    1.7336   -6.5996 F   0  0  0  0  0  0  0  0  0  0  0  0
  -30.1001    1.3826   -5.1529 F   0  0  0  0  0  0  0  0  0  0  0  0
  -28.0175    1.2180   -4.5478 F   0  0  0  0  0  0  0  0  0  0  0  0
 18 19  1  0  0  0
 19 17  1  0  0  0
 17 15  1  0  0  0
 15 16  2  0  0  0
 15  9  1  0  0  0
  9 10  1  0  0  0
  9 14  2  0  0  0
 10 11  2  0  0  0
 11 12  1  0  0  0
 12  7  1  0  0  0
 12 13  2  0  0  0
  7  1  1  0  0  0
  7  8  1  0  0  0
  1  2  1  0  0  0
  1  6  2  0  0  0
  2  3  2  0  0  0
  3  4  1  0  0  0
  4  5  2  0  0  0
  5 20  1  0  0  0
  5  6  1  0  0  0
 20 21  1  0  0  0
 21 22  1  0  0  0
 22 23  2  0  0  0
 22 24  1  0  0  0
 24 25  1  0  0  0
 24 29  2  0  0  0
 25 26  2  0  0  0
 26 27  1  0  0  0
 27 30  1  0  0  0
 27 28  2  0  0  0
 30 31  1  0  0  0
 30 32  1  0  0  0
 30 33  1  0  0  0
 28 29  1  0  0  0
 13 14  1  0  0  0
M  END
> <minimizedAffinity>
-8.35506

$$$$
