CHEMBL226471


 25 28  0  0  0  0  0  0  0  0999 V2000
  -30.6370   -5.5500   -5.4594 C   0  0  0  0  0  0  0  0  0  0  0  0
  -31.3069   -5.6959   -4.2477 C   0  0  0  0  0  0  0  0  0  0  0  0
  -31.3110   -4.6296   -3.3666 C   0  0  0  0  0  0  0  0  0  0  0  0
  -30.6920   -3.4518   -3.6006 N   0  0  0  0  0  0  0  0  0  0  0  0
  -30.0333   -3.3087   -4.7778 C   0  0  0  0  0  0  0  0  0  0  0  0
  -30.0219   -4.3257   -5.7299 C   0  0  0  0  0  0  0  0  0  0  0  0
  -32.6166   -9.9495   -8.3891 O   0  0  0  0  0  0  0  0  0  0  0  0
  -31.4565   -9.5698   -8.4984 C   0  0  0  0  0  0  0  0  0  0  0  0
  -30.5768  -10.1985   -9.3493 N   0  0  0  0  0  0  0  0  0  0  0  0
  -29.1598   -9.8964   -9.5248 C   0  0  0  0  0  0  0  0  0  0  0  0
  -28.5838   -8.6724   -8.7806 C   0  0  0  0  0  0  0  0  0  0  0  0
  -29.5984   -8.0489   -7.9029 C   0  0  0  0  0  0  0  0  0  0  0  0
  -29.3865   -6.9735   -7.0877 N   0  0  0  0  0  0  0  0  0  0  0  0
  -30.5542   -6.6525   -6.4179 C   0  0  0  0  0  0  0  0  0  0  0  0
  -31.5079   -7.5734   -6.8269 C   0  0  0  0  0  0  0  0  0  0  0  0
  -30.9075   -8.4487   -7.7668 C   0  0  0  0  0  0  0  0  0  0  0  0
  -30.9775  -10.9914   -9.8316 H   0  0  0  0  0  0  0  0  0  0  0  0
  -28.5046   -6.4909   -6.9730 H   0  0  0  0  0  0  0  0  0  0  0  0
  -29.3228   -2.0310   -4.9769 C   0  0  0  0  0  0  0  0  0  0  0  0
  -30.0294   -0.8393   -5.2233 C   0  0  0  0  0  0  0  0  0  0  0  0
  -29.3640    0.3792   -5.4034 C   0  0  0  0  0  0  0  0  0  0  0  0
  -27.9740    0.4353   -5.3384 C   0  0  0  0  0  0  0  0  0  0  0  0
  -27.2507   -0.7266   -5.0933 C   0  0  0  0  0  0  0  0  0  0  0  0
  -27.9214   -1.9355   -4.9126 C   0  0  0  0  0  0  0  0  0  0  0  0
  -27.1706   -3.0196   -4.6550 F   0  0  0  0  0  0  0  0  0  0  0  0
  7  8  2  0  0  0
  8  9  1  0  0  0
  8 16  1  0  0  0
  9 10  1  0  0  0
  9 17  1  0  0  0
 10 11  1  0  0  0
 11 12  1  0  0  0
 12 13  1  0  0  0
 12 16  2  0  0  0
 13 14  1  0  0  0
 13 18  1  0  0  0
 14  1  1  0  0  0
 14 15  2  0  0  0
  1  2  1  0  0  0
  1  6  2  0  0  0
  2  3  2  0  0  0
  3  4  1  0  0  0
  4  5  2  0  0  0
  5 19  1  0  0  0
  5  6  1  0  0  0
 19 20  1  0  0  0
 19 24  2  0  0  0
 20 21  2  0  0  0
 21 22  1  0  0  0
 22 23  2  0  0  0
 23 24  1  0  0  0
 24 25  1  0  0  0
 15 16  1  0  0  0
M  END
> <minimizedAffinity>
-9.60284

$$$$
