CHEMBL3671542


 37 39  0  0  0  0  0  0  0  0999 V2000
  -28.5928   -4.7851   -5.4664 C   0  0  0  0  0  0  0  0  0  0  0  0
  -28.2173   -6.0620   -5.0472 C   0  0  0  0  0  0  0  0  0  0  0  0
  -28.4890   -7.1872   -5.8544 C   0  0  0  0  0  0  0  0  0  0  0  0
  -28.2164   -8.5149   -5.4813 C   0  0  0  0  0  0  0  0  0  0  0  0
  -28.4770   -9.5522   -6.2938 N   0  0  0  0  0  0  0  0  0  0  0  0
  -29.0494   -9.2619   -7.4658 C   0  0  0  0  0  0  0  0  0  0  0  0
  -29.3683   -8.0402   -7.9122 N   0  0  0  0  0  0  0  0  0  0  0  0
  -29.0790   -7.0105   -7.1126 C   0  0  0  0  0  0  0  0  0  0  0  0
  -29.3742   -5.7176   -7.5391 C   0  0  0  0  0  0  0  0  0  0  0  0
  -29.1145   -4.5918   -6.7497 C   0  0  0  0  0  0  0  0  0  0  0  0
  -29.7413   -3.4711   -3.7583 C   0  0  0  0  0  0  0  0  0  0  0  0
  -29.6522   -2.8068   -2.7312 O   0  0  0  0  0  0  0  0  0  0  0  0
  -28.6213   -3.7560   -4.5077 N   0  0  0  0  0  0  0  0  0  0  0  0
  -27.7974   -3.6513   -3.9238 H   0  0  0  0  0  0  0  0  0  0  0  0
  -31.6733   -4.9208   -3.4195 C   0  0  0  0  0  0  0  0  0  0  0  0
  -31.0321   -4.0554   -4.2141 C   0  0  0  0  0  0  0  0  0  0  0  0
  -27.7035   -8.7746   -4.1907 N   0  0  0  0  0  0  0  0  0  0  0  0
  -28.4363   -8.7202   -3.4873 H   0  0  0  0  0  0  0  0  0  0  0  0
  -26.6722   -9.6645   -3.8243 C   0  0  0  0  0  0  0  0  0  0  0  0
  -25.3326   -9.2626   -3.7729 C   0  0  0  0  0  0  0  0  0  0  0  0
  -24.3613  -10.0855   -3.1941 C   0  0  0  0  0  0  0  0  0  0  0  0
  -24.7240  -11.3242   -2.6673 C   0  0  0  0  0  0  0  0  0  0  0  0
  -23.4300  -12.3766   -1.7787 Br  0  0  0  0  0  0  0  0  0  0  0  0
  -26.0383  -11.7701   -2.7528 C   0  0  0  0  0  0  0  0  0  0  0  0
  -26.9959  -10.9352   -3.3216 C   0  0  0  0  0  0  0  0  0  0  0  0
  -28.2727  -11.3500   -3.3633 F   0  0  0  0  0  0  0  0  0  0  0  0
  -29.4550   -3.3892   -7.3212 O   0  0  0  0  0  0  0  0  0  0  0  0
  -28.6846   -3.0154   -8.4703 C   0  0  0  0  0  0  0  0  0  0  0  0
  -27.5026   -2.1298   -8.0677 C   0  0  0  0  0  0  0  0  0  0  0  0
  -27.9460   -0.8515   -7.5386 N   0  0  0  0  0  0  0  0  0  0  0  0
  -27.8050   -0.5204   -6.2094 C   0  0  0  0  0  0  0  0  0  0  0  0
  -27.2348   -1.1739   -5.3473 O   0  0  0  0  0  0  0  0  0  0  0  0
  -28.5253   -0.2364   -8.1071 H   0  0  0  0  0  0  0  0  0  0  0  0
  -28.4679    0.8095   -5.7959 C   0  0  0  0  0  0  0  0  0  0  0  0
  -28.9620    0.9846   -4.6977 O   0  0  0  0  0  0  0  0  0  0  0  0
  -28.3886    1.7123   -6.7900 O   0  0  0  0  0  0  0  0  0  0  0  0
  -27.9250    1.2965   -7.5552 H   0  0  0  0  0  0  0  0  0  0  0  0
 15 16  2  0  0  0
 16 11  1  0  0  0
 11 12  2  0  0  0
 11 13  1  0  0  0
 13  1  1  0  0  0
 13 14  1  0  0  0
  1  2  1  0  0  0
  1 10  2  0  0  0
  2  3  2  0  0  0
  3  4  1  0  0  0
  3  8  1  0  0  0
  4 17  1  0  0  0
  4  5  2  0  0  0
 17 19  1  0  0  0
 17 18  1  0  0  0
 19 20  1  0  0  0
 19 25  2  0  0  0
 20 21  2  0  0  0
 21 22  1  0  0  0
 22 23  1  0  0  0
 22 24  2  0  0  0
 24 25  1  0  0  0
 25 26  1  0  0  0
  5  6  1  0  0  0
  6  7  2  0  0  0
  7  8  1  0  0  0
  8  9  2  0  0  0
  9 10  1  0  0  0
 10 27  1  0  0  0
 27 28  1  0  0  0
 28 29  1  0  0  0
 29 30  1  0  0  0
 30 31  1  0  0  0
 30 33  1  0  0  0
 31 32  2  0  0  0
 31 34  1  0  0  0
 34 35  2  0  0  0
 34 36  1  0  0  0
 36 37  1  0  0  0
M  END
> <minimizedAffinity>
-8.42960

$$$$
