CHEMBL1242758


 27 31  0  0  0  0  0  0  0  0999 V2000
  -29.5221   -8.5229   -4.5816 N   0  0  0  0  0  0  0  0  0  0  0  0
  -29.3663   -7.1438   -4.6235 C   0  0  0  0  0  0  0  0  0  0  0  0
  -29.3144   -6.5311   -3.4230 N   0  0  0  0  0  0  0  0  0  0  0  0
  -29.1791   -5.1938   -3.3844 C   0  0  0  0  0  0  0  0  0  0  0  0
  -29.0749   -4.3488   -4.4190 N   0  0  0  0  0  0  0  0  0  0  0  0
  -29.1236   -4.9994   -5.5957 C   0  0  0  0  0  0  0  0  0  0  0  0
  -29.2707   -6.3646   -5.7884 C   0  0  0  0  0  0  0  0  0  0  0  0
  -29.2989   -6.5317   -7.2129 C   0  0  0  0  0  0  0  0  0  0  0  0
  -29.1381   -5.3489   -7.8364 N   0  0  0  0  0  0  0  0  0  0  0  0
  -29.0477   -4.4423   -6.8441 N   0  0  0  0  0  0  0  0  0  0  0  0
  -29.7768   -8.8165   -3.6453 H   0  0  0  0  0  0  0  0  0  0  0  0
  -30.0933   -8.9049   -5.3248 H   0  0  0  0  0  0  0  0  0  0  0  0
  -29.5098   -7.7652   -7.9760 C   0  0  0  0  0  0  0  0  0  0  0  0
  -28.4834   -8.3310   -8.7527 C   0  0  0  0  0  0  0  0  0  0  0  0
  -28.6222   -9.5911   -9.3320 C   0  0  0  0  0  0  0  0  0  0  0  0
  -29.8149  -10.3037   -9.2165 C   0  0  0  0  0  0  0  0  0  0  0  0
  -30.8673   -9.6992   -8.5198 C   0  0  0  0  0  0  0  0  0  0  0  0
  -32.1481  -10.1562   -8.2999 N   0  0  0  0  0  0  0  0  0  0  0  0
  -32.8485   -9.2604   -7.5416 C   0  0  0  0  0  0  0  0  0  0  0  0
  -32.0141   -8.2000   -7.2745 C   0  0  0  0  0  0  0  0  0  0  0  0
  -30.7500   -8.4522   -7.8942 C   0  0  0  0  0  0  0  0  0  0  0  0
  -32.5127  -11.0289   -8.6554 H   0  0  0  0  0  0  0  0  0  0  0  0
  -28.8921   -3.0378   -7.1438 C   0  0  0  0  0  0  0  0  0  0  0  0
  -28.2392   -2.7443   -8.4988 C   0  0  0  0  0  0  0  0  0  0  0  0
  -27.6733   -1.3301   -8.3721 C   0  0  0  0  0  0  0  0  0  0  0  0
  -27.6440   -0.9993   -6.8810 C   0  0  0  0  0  0  0  0  0  0  0  0
  -27.9936   -2.2922   -6.1567 C   0  0  0  0  0  0  0  0  0  0  0  0
  1  2  1  0  0  0
  1 11  1  0  0  0
  1 12  1  0  0  0
  2  3  1  0  0  0
  2  7  2  0  0  0
  3  4  2  0  0  0
  4  5  1  0  0  0
  5  6  2  0  0  0
  6  7  1  0  0  0
  6 10  1  0  0  0
  7  8  1  0  0  0
  8 13  1  0  0  0
  8  9  2  0  0  0
 13 14  1  0  0  0
 13 21  2  0  0  0
 14 15  2  0  0  0
 15 16  1  0  0  0
 16 17  2  0  0  0
 17 18  1  0  0  0
 17 21  1  0  0  0
 18 19  1  0  0  0
 18 22  1  0  0  0
 19 20  2  0  0  0
 20 21  1  0  0  0
  9 10  1  0  0  0
 10 23  1  0  0  0
 23 24  1  0  0  0
 23 27  1  0  0  0
 24 25  1  0  0  0
 25 26  1  0  0  0
 26 27  1  0  0  0
M  END
> <minimizedAffinity>
-8.93900

$$$$
