CHEMBL4797840


 43 47  0  0  0  0  0  0  0  0999 V2000
  -15.4185    1.1401  -14.8006 N   0  0  0  0  0  0  0  0  0  0  0  0
  -14.6344    0.0854  -14.3657 C   0  0  0  0  0  0  0  0  0  0  0  0
  -13.4054    0.0906  -14.3450 O   0  0  0  0  0  0  0  0  0  0  0  0
  -15.3998   -1.0021  -13.9862 N   0  0  0  0  0  0  0  0  0  0  0  0
  -16.3148    1.2306  -14.3432 H   0  0  0  0  0  0  0  0  0  0  0  0
  -16.2471   -1.1114  -14.5271 H   0  0  0  0  0  0  0  0  0  0  0  0
  -13.3707    5.6440  -17.4375 N   0  0  0  0  0  0  0  0  0  0  0  0
  -12.5240    6.1116  -16.4486 C   0  0  0  0  0  0  0  0  0  0  0  0
  -12.6541    5.3241  -15.3326 C   0  0  0  0  0  0  0  0  0  0  0  0
  -13.5708    4.2879  -15.6470 C   0  0  0  0  0  0  0  0  0  0  0  0
  -14.0502    3.1843  -14.9170 C   0  0  0  0  0  0  0  0  0  0  0  0
  -14.9315    2.2667  -15.5023 C   0  0  0  0  0  0  0  0  0  0  0  0
  -15.2958    2.4374  -16.8349 C   0  0  0  0  0  0  0  0  0  0  0  0
  -14.8442    3.5381  -17.5826 C   0  0  0  0  0  0  0  0  0  0  0  0
  -13.9955    4.4821  -16.9674 C   0  0  0  0  0  0  0  0  0  0  0  0
  -14.7607    7.5836  -20.2657 C   0  0  0  0  0  0  0  0  0  0  0  0
  -14.6607    7.0185  -19.0011 C   0  0  0  0  0  0  0  0  0  0  0  0
  -13.5257    6.2661  -18.7095 C   0  0  0  0  0  0  0  0  0  0  0  0
  -12.5225    6.1427  -19.6770 C   0  0  0  0  0  0  0  0  0  0  0  0
  -12.7198    6.7368  -20.9143 C   0  0  0  0  0  0  0  0  0  0  0  0
  -13.8180    7.4524  -21.2405 N   0  0  0  0  0  0  0  0  0  0  0  0
  -18.0374    8.4615  -21.9356 C   0  0  0  0  0  0  0  0  0  0  0  0
  -16.8540    7.7947  -21.4674 N   0  0  0  0  0  0  0  0  0  0  0  0
  -15.9675    8.4048  -20.6081 C   0  0  0  0  0  0  0  0  0  0  0  0
  -16.1294    9.5280  -20.1437 O   0  0  0  0  0  0  0  0  0  0  0  0
  -16.6071    6.8654  -21.7978 H   0  0  0  0  0  0  0  0  0  0  0  0
  -14.8106   -2.1832  -13.4871 C   0  0  0  0  0  0  0  0  0  0  0  0
  -14.3629   -3.1415  -14.3765 C   0  0  0  0  0  0  0  0  0  0  0  0
  -13.8041   -4.3296  -13.8921 C   0  0  0  0  0  0  0  0  0  0  0  0
  -13.7542   -4.6628  -12.5170 C   0  0  0  0  0  0  0  0  0  0  0  0
  -14.2107   -3.6765  -11.6167 C   0  0  0  0  0  0  0  0  0  0  0  0
  -14.6981   -2.4364  -12.1213 C   0  0  0  0  0  0  0  0  0  0  0  0
  -13.3880   -5.9473  -12.1475 N   0  0  0  0  0  0  0  0  0  0  0  0
  -12.1611   -6.1707  -11.3522 C   0  0  0  0  0  0  0  0  0  0  0  0
  -11.5186   -7.5173  -11.7506 C   0  0  0  0  0  0  0  0  0  0  0  0
  -12.4474   -8.6622  -11.6184 N   0  0  0  0  0  0  0  0  0  0  0  0
  -11.8014   -9.8869  -12.0862 C   0  0  0  0  0  0  0  0  0  0  0  0
  -13.6795   -8.3808  -12.4002 C   0  0  0  0  0  0  0  0  0  0  0  0
  -14.3572   -7.0486  -11.9659 C   0  0  0  0  0  0  0  0  0  0  0  0
  -14.3307   -3.8204  -10.1155 C   0  0  0  0  0  0  0  0  0  0  0  0
  -14.7946   -5.0046   -9.6342 F   0  0  0  0  0  0  0  0  0  0  0  0
  -13.1366   -3.6171   -9.4836 F   0  0  0  0  0  0  0  0  0  0  0  0
  -15.1791   -2.8876   -9.5814 F   0  0  0  0  0  0  0  0  0  0  0  0
 22 23  1  0  0  0
 23 24  1  0  0  0
 23 26  1  0  0  0
 24 25  2  0  0  0
 24 16  1  0  0  0
 16 17  1  0  0  0
 16 21  2  0  0  0
 17 18  2  0  0  0
 18  7  1  0  0  0
 18 19  1  0  0  0
  7  8  1  0  0  0
  7 15  1  0  0  0
  8  9  2  0  0  0
  9 10  1  0  0  0
 10 11  1  0  0  0
 10 15  2  0  0  0
 11 12  2  0  0  0
 12  1  1  0  0  0
 12 13  1  0  0  0
  1  2  1  0  0  0
  1  5  1  0  0  0
  2  3  2  0  0  0
  2  4  1  0  0  0
  4 27  1  0  0  0
  4  6  1  0  0  0
 27 28  1  0  0  0
 27 32  2  0  0  0
 28 29  2  0  0  0
 29 30  1  0  0  0
 30 33  1  0  0  0
 30 31  2  0  0  0
 33 34  1  0  0  0
 33 39  1  0  0  0
 34 35  1  0  0  0
 35 36  1  0  0  0
 36 37  1  0  0  0
 36 38  1  0  0  0
 38 39  1  0  0  0
 31 40  1  0  0  0
 31 32  1  0  0  0
 40 41  1  0  0  0
 40 42  1  0  0  0
 40 43  1  0  0  0
 13 14  2  0  0  0
 14 15  1  0  0  0
 19 20  2  0  0  0
 20 21  1  0  0  0
M  END
> <minimizedAffinity>
-7.88033

$$$$
