CHEMBL565807


 41 46  0  0  0  0  0  0  0  0999 V2000
  -28.3784   -2.5392   -5.7975 C   0  0  0  0  0  0  0  0  0  0  0  0
  -28.6223   -3.6021   -6.6604 C   0  0  0  0  0  0  0  0  0  0  0  0
  -28.4118   -3.4618   -8.0310 C   0  0  0  0  0  0  0  0  0  0  0  0
  -27.9678   -2.2530   -8.5737 C   0  0  0  0  0  0  0  0  0  0  0  0
  -27.5815   -1.2343   -7.7047 C   0  0  0  0  0  0  0  0  0  0  0  0
  -27.8140   -1.3706   -6.3286 C   0  0  0  0  0  0  0  0  0  0  0  0
  -27.5027   -0.3203   -5.5548 F   0  0  0  0  0  0  0  0  0  0  0  0
  -27.9439   -2.0298   -9.9662 N   0  0  0  0  0  0  0  0  0  0  0  0
  -26.7775   -1.8437  -10.6972 C   0  0  0  0  0  0  0  0  0  0  0  0
  -25.6277   -1.8464  -10.2754 O   0  0  0  0  0  0  0  0  0  0  0  0
  -28.8096   -2.1413  -10.4851 H   0  0  0  0  0  0  0  0  0  0  0  0
  -26.9719   -1.6324  -12.1631 C   0  0  0  0  0  0  0  0  0  0  0  0
  -28.2892   -1.0351  -12.6613 C   0  0  0  0  0  0  0  0  0  0  0  0
  -28.0285   -2.4946  -12.8506 C   0  0  0  0  0  0  0  0  0  0  0  0
  -25.7296   -1.1925  -12.8582 C   0  0  0  0  0  0  0  0  0  0  0  0
  -25.4466   -1.7662  -13.9127 O   0  0  0  0  0  0  0  0  0  0  0  0
  -25.0000   -0.1740  -12.2674 N   0  0  0  0  0  0  0  0  0  0  0  0
  -25.1215   -0.0297  -11.2728 H   0  0  0  0  0  0  0  0  0  0  0  0
  -23.7907    0.2400  -12.8621 C   0  0  0  0  0  0  0  0  0  0  0  0
  -23.5809    1.5877  -13.1756 C   0  0  0  0  0  0  0  0  0  0  0  0
  -22.4826    1.9677  -13.9436 C   0  0  0  0  0  0  0  0  0  0  0  0
  -21.5996    0.9971  -14.4089 C   0  0  0  0  0  0  0  0  0  0  0  0
  -21.7737   -0.3396  -14.0427 C   0  0  0  0  0  0  0  0  0  0  0  0
  -22.8493   -0.7172  -13.2339 C   0  0  0  0  0  0  0  0  0  0  0  0
  -28.7800   -2.7854   -4.4998 O   0  0  0  0  0  0  0  0  0  0  0  0
  -28.1356   -7.4194   -4.4689 C   0  0  0  0  0  0  0  0  0  0  0  0
  -29.5060   -7.4862   -4.3723 C   0  0  0  0  0  0  0  0  0  0  0  0
  -30.1015   -6.2063   -4.1870 C   0  0  0  0  0  0  0  0  0  0  0  0
  -31.4264   -5.9835   -3.9850 N   0  0  0  0  0  0  0  0  0  0  0  0
  -31.7921   -4.6961   -3.8493 C   0  0  0  0  0  0  0  0  0  0  0  0
  -30.9515   -3.6107   -3.9767 C   0  0  0  0  0  0  0  0  0  0  0  0
  -29.6180   -3.8498   -4.2743 C   0  0  0  0  0  0  0  0  0  0  0  0
  -29.1615   -5.1754   -4.2816 C   0  0  0  0  0  0  0  0  0  0  0  0
  -27.5677   -5.8126   -4.3914 S   0  0  0  0  0  0  0  0  0  0  0  0
  -25.6358  -10.0477   -4.5635 N   0  0  0  0  0  0  0  0  0  0  0  0
  -26.6426  -10.5502   -5.3347 C   0  0  0  0  0  0  0  0  0  0  0  0
  -27.6672   -9.7275   -5.3741 N   0  0  0  0  0  0  0  0  0  0  0  0
  -27.2807   -8.6267   -4.6429 C   0  0  0  0  0  0  0  0  0  0  0  0
  -26.0187   -8.8110   -4.1259 C   0  0  0  0  0  0  0  0  0  0  0  0
  -24.2415  -10.9552   -2.7520 C   0  0  0  0  0  0  0  0  0  0  0  0
  -24.3885  -10.7061   -4.2415 C   0  0  0  0  0  0  0  0  0  0  0  0
 40 41  1  0  0  0
 41 35  1  0  0  0
 35 36  1  0  0  0
 35 39  1  0  0  0
 36 37  2  0  0  0
 37 38  1  0  0  0
 38 26  1  0  0  0
 38 39  2  0  0  0
 26 27  2  0  0  0
 26 34  1  0  0  0
 27 28  1  0  0  0
 28 29  1  0  0  0
 28 33  2  0  0  0
 29 30  2  0  0  0
 30 31  1  0  0  0
 31 32  2  0  0  0
 32 25  1  0  0  0
 32 33  1  0  0  0
 25  1  1  0  0  0
  1  2  1  0  0  0
  1  6  2  0  0  0
  2  3  2  0  0  0
  3  4  1  0  0  0
  4  8  1  0  0  0
  4  5  2  0  0  0
  8  9  1  0  0  0
  8 11  1  0  0  0
  9 10  2  0  0  0
  9 12  1  0  0  0
 12 15  1  0  0  0
 12 13  1  0  0  0
 12 14  1  0  0  0
 15 16  2  0  0  0
 15 17  1  0  0  0
 17 19  1  0  0  0
 17 18  1  0  0  0
 19 20  1  0  0  0
 19 24  2  0  0  0
 20 21  2  0  0  0
 21 22  1  0  0  0
 22 23  2  0  0  0
 23 24  1  0  0  0
 13 14  1  0  0  0
  5  6  1  0  0  0
  6  7  1  0  0  0
 33 34  1  0  0  0
M  END
> <minimizedAffinity>
-10.24656

$$$$
