CHEMBL4791160


 37 41  0  0  0  0  0  0  0  0999 V2000
  -30.1318   -5.9012   -3.9298 C   0  0  0  0  0  0  0  0  0  0  0  0
  -29.3041   -6.6963   -3.2701 N   0  0  0  0  0  0  0  0  0  0  0  0
  -28.8344   -7.7945   -3.8957 C   0  0  0  0  0  0  0  0  0  0  0  0
  -29.1041   -8.0404   -5.2243 C   0  0  0  0  0  0  0  0  0  0  0  0
  -29.9731   -7.1573   -5.8229 C   0  0  0  0  0  0  0  0  0  0  0  0
  -30.5079   -6.1017   -5.1897 N   0  0  0  0  0  0  0  0  0  0  0  0
  -30.9315   -2.7441   -2.5397 O   0  0  0  0  0  0  0  0  0  0  0  0
  -30.3415   -3.5233   -3.2843 C   0  0  0  0  0  0  0  0  0  0  0  0
  -29.4549   -3.1746   -4.2697 N   0  0  0  0  0  0  0  0  0  0  0  0
  -30.6793   -4.8395   -3.2259 N   0  0  0  0  0  0  0  0  0  0  0  0
  -29.0999   -3.9499   -4.8200 H   0  0  0  0  0  0  0  0  0  0  0  0
  -31.4908   -5.0699   -2.6865 H   0  0  0  0  0  0  0  0  0  0  0  0
  -29.0621   -1.8949   -4.6849 C   0  0  0  0  0  0  0  0  0  0  0  0
  -27.7649   -1.4049   -4.5521 C   0  0  0  0  0  0  0  0  0  0  0  0
  -27.4538   -0.1153   -4.9906 C   0  0  0  0  0  0  0  0  0  0  0  0
  -28.4440    0.6973   -5.5421 C   0  0  0  0  0  0  0  0  0  0  0  0
  -29.7447    0.2170   -5.6713 C   0  0  0  0  0  0  0  0  0  0  0  0
  -30.0489   -1.0813   -5.2590 C   0  0  0  0  0  0  0  0  0  0  0  0
  -28.1668   -8.7810   -3.1428 N   0  0  0  0  0  0  0  0  0  0  0  0
  -28.7535   -9.2432   -2.4613 H   0  0  0  0  0  0  0  0  0  0  0  0
  -27.0354   -9.5081   -3.5660 C   0  0  0  0  0  0  0  0  0  0  0  0
  -27.0589  -10.9102   -3.6415 C   0  0  0  0  0  0  0  0  0  0  0  0
  -25.9375  -11.6354   -4.0432 C   0  0  0  0  0  0  0  0  0  0  0  0
  -24.7656  -10.9643   -4.3740 C   0  0  0  0  0  0  0  0  0  0  0  0
  -24.7235   -9.5722   -4.3101 C   0  0  0  0  0  0  0  0  0  0  0  0
  -25.8538   -8.8477   -3.9152 C   0  0  0  0  0  0  0  0  0  0  0  0
  -30.5448   -7.4160   -7.4853 S   0  0  0  0  0  0  0  0  0  0  0  0
  -29.0907   -7.9353   -8.3157 C   0  0  0  0  0  0  0  0  0  0  0  0
  -28.0278   -7.1664   -8.7396 C   0  0  0  0  0  0  0  0  0  0  0  0
  -27.1334   -8.0196   -9.3318 N   0  0  0  0  0  0  0  0  0  0  0  0
  -27.7933   -9.1758   -9.6732 C   0  0  0  0  0  0  0  0  0  0  0  0
  -27.5173  -10.1423  -10.6424 C   0  0  0  0  0  0  0  0  0  0  0  0
  -28.3511  -11.2633  -10.6706 C   0  0  0  0  0  0  0  0  0  0  0  0
  -29.3200  -11.4643   -9.6876 C   0  0  0  0  0  0  0  0  0  0  0  0
  -29.5929  -10.4731   -8.7392 C   0  0  0  0  0  0  0  0  0  0  0  0
  -28.8924   -9.2547   -8.8180 C   0  0  0  0  0  0  0  0  0  0  0  0
  -26.1763   -7.7996   -9.5748 H   0  0  0  0  0  0  0  0  0  0  0  0
  7  8  2  0  0  0
  8  9  1  0  0  0
  8 10  1  0  0  0
  9 13  1  0  0  0
  9 11  1  0  0  0
 13 14  1  0  0  0
 13 18  2  0  0  0
 14 15  2  0  0  0
 15 16  1  0  0  0
 16 17  2  0  0  0
 17 18  1  0  0  0
 10  1  1  0  0  0
 10 12  1  0  0  0
  1  2  1  0  0  0
  1  6  2  0  0  0
  2  3  2  0  0  0
  3 19  1  0  0  0
  3  4  1  0  0  0
 19 21  1  0  0  0
 19 20  1  0  0  0
 21 22  1  0  0  0
 21 26  2  0  0  0
 22 23  2  0  0  0
 23 24  1  0  0  0
 24 25  2  0  0  0
 25 26  1  0  0  0
  4  5  2  0  0  0
  5 27  1  0  0  0
  5  6  1  0  0  0
 27 28  1  0  0  0
 28 29  2  0  0  0
 28 36  1  0  0  0
 29 30  1  0  0  0
 30 31  1  0  0  0
 30 37  1  0  0  0
 31 32  1  0  0  0
 31 36  2  0  0  0
 32 33  2  0  0  0
 33 34  1  0  0  0
 34 35  2  0  0  0
 35 36  1  0  0  0
M  END
> <minimizedAffinity>
-9.76123

$$$$
