CHEMBL3671523


 36 38  0  0  0  0  0  0  0  0999 V2000
  -29.7775   -5.0595   -7.1337 C   0  0  0  0  0  0  0  0  0  0  0  0
  -29.1190   -4.2696   -8.0804 C   0  0  0  0  0  0  0  0  0  0  0  0
  -28.5484   -3.0318   -7.7099 C   0  0  0  0  0  0  0  0  0  0  0  0
  -27.9830   -2.1072   -8.6003 C   0  0  0  0  0  0  0  0  0  0  0  0
  -27.4696   -0.9371   -8.1759 N   0  0  0  0  0  0  0  0  0  0  0  0
  -27.5421   -0.6791   -6.8697 C   0  0  0  0  0  0  0  0  0  0  0  0
  -28.1015   -1.4626   -5.9440 N   0  0  0  0  0  0  0  0  0  0  0  0
  -28.6044   -2.6254   -6.3652 C   0  0  0  0  0  0  0  0  0  0  0  0
  -29.2287   -3.4489   -5.4351 C   0  0  0  0  0  0  0  0  0  0  0  0
  -29.7947   -4.6775   -5.7869 C   0  0  0  0  0  0  0  0  0  0  0  0
  -30.1350   -7.4589   -7.4683 C   0  0  0  0  0  0  0  0  0  0  0  0
  -30.9467   -8.3738   -7.5696 O   0  0  0  0  0  0  0  0  0  0  0  0
  -30.5375   -6.1503   -7.5944 N   0  0  0  0  0  0  0  0  0  0  0  0
  -31.5418   -6.0892   -7.4589 H   0  0  0  0  0  0  0  0  0  0  0  0
  -28.2048   -8.9377   -7.3026 C   0  0  0  0  0  0  0  0  0  0  0  0
  -28.7000   -7.7020   -7.1698 C   0  0  0  0  0  0  0  0  0  0  0  0
  -27.9981   -2.3662   -9.9963 N   0  0  0  0  0  0  0  0  0  0  0  0
  -28.2464   -3.3355  -10.1799 H   0  0  0  0  0  0  0  0  0  0  0  0
  -27.0097   -1.8996  -10.8966 C   0  0  0  0  0  0  0  0  0  0  0  0
  -25.7335   -1.5318  -10.4454 C   0  0  0  0  0  0  0  0  0  0  0  0
  -24.7391   -1.1419  -11.3446 C   0  0  0  0  0  0  0  0  0  0  0  0
  -25.0240   -1.0977  -12.7078 C   0  0  0  0  0  0  0  0  0  0  0  0
  -23.6555   -0.6373  -13.9288 Br  0  0  0  0  0  0  0  0  0  0  0  0
  -26.2988   -1.4038  -13.1756 C   0  0  0  0  0  0  0  0  0  0  0  0
  -27.2803   -1.7902  -12.2664 C   0  0  0  0  0  0  0  0  0  0  0  0
  -28.5049   -2.0962  -12.7221 F   0  0  0  0  0  0  0  0  0  0  0  0
  -30.3719   -5.3637   -4.7457 O   0  0  0  0  0  0  0  0  0  0  0  0
  -29.4786   -5.7257   -3.6876 C   0  0  0  0  0  0  0  0  0  0  0  0
  -29.5698   -7.2217   -3.3793 C   0  0  0  0  0  0  0  0  0  0  0  0
  -28.2877   -7.8850   -3.5878 N   0  0  0  0  0  0  0  0  0  0  0  0
  -28.1973   -9.2559   -3.5445 C   0  0  0  0  0  0  0  0  0  0  0  0
  -29.1689   -9.9931   -3.4172 O   0  0  0  0  0  0  0  0  0  0  0  0
  -27.4494   -7.3211   -3.5776 H   0  0  0  0  0  0  0  0  0  0  0  0
  -26.8059   -9.7690   -3.5899 C   0  0  0  0  0  0  0  0  0  0  0  0
  -25.9125   -9.1786   -4.3995 C   0  0  0  0  0  0  0  0  0  0  0  0
  -24.4921   -9.6118   -4.5553 C   0  0  0  0  0  0  0  0  0  0  0  0
 15 16  2  0  0  0
 16 11  1  0  0  0
 11 12  2  0  0  0
 11 13  1  0  0  0
 13  1  1  0  0  0
 13 14  1  0  0  0
  1  2  1  0  0  0
  1 10  2  0  0  0
  2  3  2  0  0  0
  3  4  1  0  0  0
  3  8  1  0  0  0
  4 17  1  0  0  0
  4  5  2  0  0  0
 17 19  1  0  0  0
 17 18  1  0  0  0
 19 20  1  0  0  0
 19 25  2  0  0  0
 20 21  2  0  0  0
 21 22  1  0  0  0
 22 23  1  0  0  0
 22 24  2  0  0  0
 24 25  1  0  0  0
 25 26  1  0  0  0
  5  6  1  0  0  0
  6  7  2  0  0  0
  7  8  1  0  0  0
  8  9  2  0  0  0
  9 10  1  0  0  0
 10 27  1  0  0  0
 27 28  1  0  0  0
 28 29  1  0  0  0
 29 30  1  0  0  0
 30 31  1  0  0  0
 30 33  1  0  0  0
 31 32  2  0  0  0
 31 34  1  0  0  0
 34 35  2  0  0  0
 35 36  1  0  0  0
M  END
> <minimizedAffinity>
-8.98091

$$$$
