CHEMBL3781003


 28 31  0  0  0  0  0  0  0  0999 V2000
  -28.8342   -4.6569   -6.8016 C   0  0  0  0  0  0  0  0  0  0  0  0
  -28.2989   -4.8937   -8.0155 N   0  0  0  0  0  0  0  0  0  0  0  0
  -27.8110   -3.8613   -8.7689 N   0  0  0  0  0  0  0  0  0  0  0  0
  -27.8292   -2.5882   -8.3268 C   0  0  0  0  0  0  0  0  0  0  0  0
  -28.3682   -2.2908   -7.0488 C   0  0  0  0  0  0  0  0  0  0  0  0
  -28.3905   -0.9857   -6.4886 C   0  0  0  0  0  0  0  0  0  0  0  0
  -28.9456   -0.7263   -5.2323 C   0  0  0  0  0  0  0  0  0  0  0  0
  -29.5155   -1.7606   -4.5088 C   0  0  0  0  0  0  0  0  0  0  0  0
  -29.5005   -3.0574   -5.0246 C   0  0  0  0  0  0  0  0  0  0  0  0
  -28.9148   -3.3545   -6.2801 C   0  0  0  0  0  0  0  0  0  0  0  0
  -27.3864   -1.5401   -9.1800 N   0  0  0  0  0  0  0  0  0  0  0  0
  -27.0161   -0.7571   -8.6594 H   0  0  0  0  0  0  0  0  0  0  0  0
  -26.8956   -1.6102  -10.5016 C   0  0  0  0  0  0  0  0  0  0  0  0
  -27.7299   -1.7785  -11.6137 C   0  0  0  0  0  0  0  0  0  0  0  0
  -27.2231   -1.7487  -12.9202 C   0  0  0  0  0  0  0  0  0  0  0  0
  -25.8642   -1.5375  -13.1260 C   0  0  0  0  0  0  0  0  0  0  0  0
  -25.2458   -1.4556  -14.7293 Cl  0  0  0  0  0  0  0  0  0  0  0  0
  -25.0092   -1.3739  -12.0409 C   0  0  0  0  0  0  0  0  0  0  0  0
  -25.5258   -1.4072  -10.7375 C   0  0  0  0  0  0  0  0  0  0  0  0
  -29.2248   -5.9019   -6.0363 C   0  0  0  0  0  0  0  0  0  0  0  0
  -31.3482   -9.1612   -7.9670 C   0  0  0  0  0  0  0  0  0  0  0  0
  -29.9804   -8.9983   -8.1887 C   0  0  0  0  0  0  0  0  0  0  0  0
  -29.2826   -7.9305   -7.5948 C   0  0  0  0  0  0  0  0  0  0  0  0
  -29.9488   -7.0049   -6.7820 C   0  0  0  0  0  0  0  0  0  0  0  0
  -31.3174   -7.1932   -6.5456 C   0  0  0  0  0  0  0  0  0  0  0  0
  -32.0082   -8.2567   -7.1365 C   0  0  0  0  0  0  0  0  0  0  0  0
  -31.7024  -11.4885   -8.3051 C   0  0  0  0  0  0  0  0  0  0  0  0
  -32.1423  -10.1474   -8.4801 O   0  0  0  0  0  0  0  0  0  0  0  0
 27 28  1  0  0  0
 28 21  1  0  0  0
 21 22  1  0  0  0
 21 26  2  0  0  0
 22 23  2  0  0  0
 23 24  1  0  0  0
 24 20  1  0  0  0
 24 25  2  0  0  0
 20  1  1  0  0  0
  1  2  1  0  0  0
  1 10  2  0  0  0
  2  3  2  0  0  0
  3  4  1  0  0  0
  4 11  1  0  0  0
  4  5  2  0  0  0
 11 13  1  0  0  0
 11 12  1  0  0  0
 13 14  1  0  0  0
 13 19  2  0  0  0
 14 15  2  0  0  0
 15 16  1  0  0  0
 16 17  1  0  0  0
 16 18  2  0  0  0
 18 19  1  0  0  0
  5  6  1  0  0  0
  5 10  1  0  0  0
  6  7  2  0  0  0
  7  8  1  0  0  0
  8  9  2  0  0  0
  9 10  1  0  0  0
 25 26  1  0  0  0
M  END
> <minimizedAffinity>
-9.50420

$$$$
