CHEMBL3690409


 37 41  0  0  0  0  0  0  0  0999 V2000
  -15.4374    2.4527  -16.3605 C   0  0  0  0  0  0  0  0  0  0  0  0
  -15.4854    3.8295  -16.5193 C   0  0  0  0  0  0  0  0  0  0  0  0
  -16.6886    4.3529  -16.1375 N   0  0  0  0  0  0  0  0  0  0  0  0
  -17.3915    3.3201  -15.7347 C   0  0  0  0  0  0  0  0  0  0  0  0
  -18.7377    3.2457  -15.2805 C   0  0  0  0  0  0  0  0  0  0  0  0
  -19.2858    2.0654  -14.9018 C   0  0  0  0  0  0  0  0  0  0  0  0
  -18.4558    0.8555  -14.9239 C   0  0  0  0  0  0  0  0  0  0  0  0
  -17.1843    0.9209  -15.3471 C   0  0  0  0  0  0  0  0  0  0  0  0
  -16.6637    2.1369  -15.7922 N   0  0  0  0  0  0  0  0  0  0  0  0
  -13.4421   -0.2374  -18.1541 C   0  0  0  0  0  0  0  0  0  0  0  0
  -12.2667   -0.2201  -17.4077 C   0  0  0  0  0  0  0  0  0  0  0  0
  -12.1325    0.6489  -16.3235 C   0  0  0  0  0  0  0  0  0  0  0  0
  -13.1768    1.5031  -15.9718 C   0  0  0  0  0  0  0  0  0  0  0  0
  -14.3619    1.5187  -16.7165 C   0  0  0  0  0  0  0  0  0  0  0  0
  -14.4646    0.6601  -17.8223 C   0  0  0  0  0  0  0  0  0  0  0  0
  -12.6973   -3.0983  -18.4966 O   0  0  0  0  0  0  0  0  0  0  0  0
  -13.3172   -2.4406  -19.3203 C   0  0  0  0  0  0  0  0  0  0  0  0
  -13.7576   -2.9988  -20.5044 N   0  0  0  0  0  0  0  0  0  0  0  0
  -13.6851   -1.1192  -19.2276 N   0  0  0  0  0  0  0  0  0  0  0  0
  -13.8465   -2.3612  -21.2834 H   0  0  0  0  0  0  0  0  0  0  0  0
  -14.2407   -0.7589  -19.9880 H   0  0  0  0  0  0  0  0  0  0  0  0
  -13.3147   -4.3558  -20.8405 C   0  0  0  0  0  0  0  0  0  0  0  0
  -14.3003   -5.4678  -20.4547 C   0  0  0  0  0  0  0  0  0  0  0  0
  -15.4901   -4.9654  -20.0474 F   0  0  0  0  0  0  0  0  0  0  0  0
  -14.5301   -6.3281  -21.4661 F   0  0  0  0  0  0  0  0  0  0  0  0
  -13.8049   -6.1831  -19.4142 F   0  0  0  0  0  0  0  0  0  0  0  0
  -20.6587    1.9690  -14.5120 C   0  0  0  0  0  0  0  0  0  0  0  0
  -21.6042    2.9774  -14.2391 C   0  0  0  0  0  0  0  0  0  0  0  0
  -22.7916    2.4789  -13.8805 N   0  0  0  0  0  0  0  0  0  0  0  0
  -22.6064    1.1420  -13.9324 N   0  0  0  0  0  0  0  0  0  0  0  0
  -21.3349    0.7951  -14.2836 C   0  0  0  0  0  0  0  0  0  0  0  0
  -23.7029    0.2559  -13.5768 C   0  0  0  0  0  0  0  0  0  0  0  0
  -23.8771    0.1476  -12.0687 C   0  0  0  0  0  0  0  0  0  0  0  0
  -23.0061   -1.0374  -11.7008 C   0  0  0  0  0  0  0  0  0  0  0  0
  -23.1358   -1.9836  -12.8150 N   0  0  0  0  0  0  0  0  0  0  0  0
  -23.4953   -1.1979  -14.0139 C   0  0  0  0  0  0  0  0  0  0  0  0
  -23.8912   -2.6396  -12.6119 H   0  0  0  0  0  0  0  0  0  0  0  0
 16 17  2  0  0  0
 17 18  1  0  0  0
 17 19  1  0  0  0
 18 22  1  0  0  0
 18 20  1  0  0  0
 22 23  1  0  0  0
 23 24  1  0  0  0
 23 25  1  0  0  0
 23 26  1  0  0  0
 19 10  1  0  0  0
 19 21  1  0  0  0
 10 11  1  0  0  0
 10 15  2  0  0  0
 11 12  2  0  0  0
 12 13  1  0  0  0
 13 14  2  0  0  0
 14  1  1  0  0  0
 14 15  1  0  0  0
  1  2  2  0  0  0
  1  9  1  0  0  0
  2  3  1  0  0  0
  3  4  2  0  0  0
  4  5  1  0  0  0
  4  9  1  0  0  0
  5  6  2  0  0  0
  6 27  1  0  0  0
  6  7  1  0  0  0
 27 28  1  0  0  0
 27 31  2  0  0  0
 28 29  2  0  0  0
 29 30  1  0  0  0
 30 32  1  0  0  0
 30 31  1  0  0  0
 32 33  1  0  0  0
 32 36  1  0  0  0
 33 34  1  0  0  0
 34 35  1  0  0  0
 35 36  1  0  0  0
 35 37  1  0  0  0
  7  8  2  0  0  0
  8  9  1  0  0  0
M  END
> <minimizedAffinity>
-9.34075

$$$$
