CHEMBL4454848


 33 36  0  0  0  0  0  0  0  0999 V2000
  -16.6298    1.8239  -15.5658 C   0  0  0  0  0  0  0  0  0  0  0  0
  -16.6419    0.7563  -14.9599 O   0  0  0  0  0  0  0  0  0  0  0  0
  -17.7412    2.6415  -15.7302 N   0  0  0  0  0  0  0  0  0  0  0  0
  -17.7030    3.2626  -16.5300 H   0  0  0  0  0  0  0  0  0  0  0  0
  -19.0430    2.3384  -15.2567 C   0  0  0  0  0  0  0  0  0  0  0  0
  -19.8042    3.4424  -14.8386 C   0  0  0  0  0  0  0  0  0  0  0  0
  -21.1023    3.2976  -14.3507 C   0  0  0  0  0  0  0  0  0  0  0  0
  -21.5688    1.9957  -14.2577 C   0  0  0  0  0  0  0  0  0  0  0  0
  -22.7870    1.6344  -13.8076 O   0  0  0  0  0  0  0  0  0  0  0  0
  -22.8079    0.2683  -13.9148 C   0  0  0  0  0  0  0  0  0  0  0  0
  -21.6688   -0.2515  -14.3569 N   0  0  0  0  0  0  0  0  0  0  0  0
  -20.8681    0.8584  -14.6182 C   0  0  0  0  0  0  0  0  0  0  0  0
  -19.5672    1.0252  -15.1576 C   0  0  0  0  0  0  0  0  0  0  0  0
  -24.1089   -0.3197  -13.5668 C   0  0  0  0  0  0  0  0  0  0  0  0
  -24.8045   -1.0793  -14.5329 C   0  0  0  0  0  0  0  0  0  0  0  0
  -26.0297   -1.6874  -14.2504 C   0  0  0  0  0  0  0  0  0  0  0  0
  -26.5874   -1.5387  -12.9874 C   0  0  0  0  0  0  0  0  0  0  0  0
  -28.0838   -2.3076  -12.6266 Cl  0  0  0  0  0  0  0  0  0  0  0  0
  -25.9331   -0.7774  -12.0157 C   0  0  0  0  0  0  0  0  0  0  0  0
  -24.6966   -0.1723  -12.3028 C   0  0  0  0  0  0  0  0  0  0  0  0
  -15.3723    2.3446  -16.2850 C   0  0  0  0  0  0  0  0  0  0  0  0
  -12.4841    4.2944  -14.6175 C   0  0  0  0  0  0  0  0  0  0  0  0
  -13.5677    3.9633  -15.4503 C   0  0  0  0  0  0  0  0  0  0  0  0
  -14.1676    2.6982  -15.4253 C   0  0  0  0  0  0  0  0  0  0  0  0
  -13.6374    1.7421  -14.5372 C   0  0  0  0  0  0  0  0  0  0  0  0
  -12.5353    2.0419  -13.7143 C   0  0  0  0  0  0  0  0  0  0  0  0
  -11.9685    3.3352  -13.7247 C   0  0  0  0  0  0  0  0  0  0  0  0
  -12.2096    6.3545  -15.7827 C   0  0  0  0  0  0  0  0  0  0  0  0
  -11.8556    5.5154  -14.6889 O   0  0  0  0  0  0  0  0  0  0  0  0
  -12.0067    1.1461  -12.8152 O   0  0  0  0  0  0  0  0  0  0  0  0
  -11.3653    0.0093  -13.3802 C   0  0  0  0  0  0  0  0  0  0  0  0
  -10.8939    3.5135  -12.8844 O   0  0  0  0  0  0  0  0  0  0  0  0
  -11.1156    4.2650  -11.6975 C   0  0  0  0  0  0  0  0  0  0  0  0
 28 29  1  0  0  0
 29 22  1  0  0  0
 22 23  1  0  0  0
 22 27  2  0  0  0
 23 24  2  0  0  0
 24 21  1  0  0  0
 24 25  1  0  0  0
 21  1  1  0  0  0
  1  2  2  0  0  0
  1  3  1  0  0  0
  3  5  1  0  0  0
  3  4  1  0  0  0
  5  6  1  0  0  0
  5 13  2  0  0  0
  6  7  2  0  0  0
  7  8  1  0  0  0
  8  9  1  0  0  0
  8 12  2  0  0  0
  9 10  1  0  0  0
 10 14  1  0  0  0
 10 11  2  0  0  0
 14 15  1  0  0  0
 14 20  2  0  0  0
 15 16  2  0  0  0
 16 17  1  0  0  0
 17 18  1  0  0  0
 17 19  2  0  0  0
 19 20  1  0  0  0
 11 12  1  0  0  0
 12 13  1  0  0  0
 25 26  2  0  0  0
 26 30  1  0  0  0
 26 27  1  0  0  0
 30 31  1  0  0  0
 27 32  1  0  0  0
 32 33  1  0  0  0
M  END
> <minimizedAffinity>
-9.30872

$$$$
