CHEMBL3977904


 39 43  0  0  0  0  0  0  0  0999 V2000
  -14.2635   -3.7343  -12.9043 N   0  0  0  0  0  0  0  0  0  0  0  0
  -14.3640   -2.3461  -13.3363 C   0  0  0  0  0  0  0  0  0  0  0  0
  -15.5089   -1.7881  -12.8535 C   0  0  0  0  0  0  0  0  0  0  0  0
  -16.0464   -0.6954  -13.4619 C   0  0  0  0  0  0  0  0  0  0  0  0
  -15.4369    0.0805  -14.3689 C   0  0  0  0  0  0  0  0  0  0  0  0
  -16.4029    0.8946  -14.6776 N   0  0  0  0  0  0  0  0  0  0  0  0
  -16.0841    2.0496  -15.1694 C   0  0  0  0  0  0  0  0  0  0  0  0
  -14.8368    2.4031  -15.5979 C   0  0  0  0  0  0  0  0  0  0  0  0
  -13.8103    1.4189  -15.4448 N   0  0  0  0  0  0  0  0  0  0  0  0
  -14.0948    0.0662  -14.7192 C   0  0  0  0  0  0  0  0  0  0  0  0
  -13.5799   -1.3936  -14.1618 C   0  0  0  0  0  0  0  0  0  0  0  0
  -14.9852    3.7703  -16.2760 C   0  0  0  0  0  0  0  0  0  0  0  0
  -15.4993    4.1596  -17.5708 C   0  0  0  0  0  0  0  0  0  0  0  0
  -14.8542    5.1960  -18.1545 N   0  0  0  0  0  0  0  0  0  0  0  0
  -13.8422    5.4594  -17.3212 N   0  0  0  0  0  0  0  0  0  0  0  0
  -12.7996    6.4140  -17.6643 C   0  0  0  0  0  0  0  0  0  0  0  0
  -13.8866    4.6615  -16.2044 C   0  0  0  0  0  0  0  0  0  0  0  0
  -14.4245   -7.4689  -13.6244 C   0  0  0  0  0  0  0  0  0  0  0  0
  -14.3043   -7.4674  -15.0053 C   0  0  0  0  0  0  0  0  0  0  0  0
  -14.1347   -6.2524  -15.6778 C   0  0  0  0  0  0  0  0  0  0  0  0
  -14.0354   -5.0316  -14.9832 C   0  0  0  0  0  0  0  0  0  0  0  0
  -14.2214   -4.9833  -13.5896 C   0  0  0  0  0  0  0  0  0  0  0  0
  -14.3585   -6.2413  -12.9390 C   0  0  0  0  0  0  0  0  0  0  0  0
  -13.5520   -8.9657  -11.9732 C   0  0  0  0  0  0  0  0  0  0  0  0
  -14.6218   -8.5940  -12.8673 O   0  0  0  0  0  0  0  0  0  0  0  0
  -14.0495   -6.1280  -17.0412 O   0  0  0  0  0  0  0  0  0  0  0  0
  -13.7280   -4.8282  -17.5250 C   0  0  0  0  0  0  0  0  0  0  0  0
  -14.2496   -3.9060  -11.3493 C   0  0  0  0  0  0  0  0  0  0  0  0
  -13.0206   -3.7270  -10.4218 C   0  0  0  0  0  0  0  0  0  0  0  0
  -11.8417   -3.2098  -10.7280 N   0  0  0  0  0  0  0  0  0  0  0  0
  -11.2374   -2.8191   -9.5463 N   0  0  0  0  0  0  0  0  0  0  0  0
  -12.0590   -3.1290   -8.5712 C   0  0  0  0  0  0  0  0  0  0  0  0
  -13.2110   -3.7305   -9.0404 O   0  0  0  0  0  0  0  0  0  0  0  0
  -11.9822   -2.8644   -7.2503 N   0  0  0  0  0  0  0  0  0  0  0  0
  -12.2196   -1.9514   -6.8817 H   0  0  0  0  0  0  0  0  0  0  0  0
  -11.4588   -3.8487   -6.2980 C   0  0  0  0  0  0  0  0  0  0  0  0
  -11.1403   -5.1860   -6.9867 C   0  0  0  0  0  0  0  0  0  0  0  0
  -12.2999   -6.0194   -7.0084 O   0  0  0  0  0  0  0  0  0  0  0  0
  -12.5860   -6.0916   -6.0800 H   0  0  0  0  0  0  0  0  0  0  0  0
 24 25  1  0  0  0
 25 18  1  0  0  0
 18 19  1  0  0  0
 18 23  2  0  0  0
 19 20  2  0  0  0
 20 26  1  0  0  0
 20 21  1  0  0  0
 26 27  1  0  0  0
 21 22  2  0  0  0
 22  1  1  0  0  0
 22 23  1  0  0  0
  1 28  1  0  0  0
  1  2  1  0  0  0
 28 29  1  0  0  0
 29 30  2  0  0  0
 29 33  1  0  0  0
 30 31  1  0  0  0
 31 32  2  0  0  0
 32 34  1  0  0  0
 32 33  1  0  0  0
 34 36  1  0  0  0
 34 35  1  0  0  0
 36 37  1  0  0  0
 37 38  1  0  0  0
 38 39  1  0  0  0
  2  3  1  0  0  0
  2 11  2  0  0  0
  3  4  2  0  0  0
  4  5  1  0  0  0
  5  6  1  0  0  0
  5 10  2  0  0  0
  6  7  2  0  0  0
  7  8  1  0  0  0
  8 12  1  0  0  0
  8  9  2  0  0  0
 12 13  1  0  0  0
 12 17  2  0  0  0
 13 14  2  0  0  0
 14 15  1  0  0  0
 15 16  1  0  0  0
 15 17  1  0  0  0
  9 10  1  0  0  0
 10 11  1  0  0  0
M  END
> <minimizedAffinity>
-7.65850

$$$$
