CHEMBL475352


 29 33  0  0  0  0  0  0  0  0999 V2000
  -25.7583   10.5774  -16.1248 C   0  0  0  0  0  0  0  0  0  0  0  0
  -26.7583   10.6087  -15.1248 C   0  0  0  0  0  0  0  0  0  0  0  0
  -26.8343   11.6377  -14.1736 C   0  0  0  0  0  0  0  0  0  0  0  0
  -25.8930   12.6575  -14.2688 C   0  0  0  0  0  0  0  0  0  0  0  0
  -24.9015   12.6467  -15.2562 C   0  0  0  0  0  0  0  0  0  0  0  0
  -24.8009   11.6098  -16.2018 C   0  0  0  0  0  0  0  0  0  0  0  0
  -23.7383   11.6589  -17.2412 C   0  0  0  0  0  0  0  0  0  0  0  0
  -23.8183   12.2577  -18.4158 N   0  0  0  0  0  0  0  0  0  0  0  0
  -22.6191   12.1482  -19.1115 C   0  0  0  0  0  0  0  0  0  0  0  0
  -22.3441   12.6589  -20.3963 C   0  0  0  0  0  0  0  0  0  0  0  0
  -21.0784   12.4767  -20.9712 C   0  0  0  0  0  0  0  0  0  0  0  0
  -20.0776   11.8075  -20.2748 C   0  0  0  0  0  0  0  0  0  0  0  0
  -20.3264   11.2954  -18.9975 C   0  0  0  0  0  0  0  0  0  0  0  0
  -21.6052   11.4648  -18.4443 C   0  0  0  0  0  0  0  0  0  0  0  0
  -22.2027   10.9143  -16.9365 S   0  0  0  0  0  0  0  0  0  0  0  0
  -26.8266    8.8661  -17.3887 C   0  0  0  0  0  0  0  0  0  0  0  0
  -25.6265    9.5208  -16.9940 O   0  0  0  0  0  0  0  0  0  0  0  0
  -27.8244   11.5855  -13.1748 N   0  0  0  0  0  0  0  0  0  0  0  0
  -27.5431   11.9131  -12.2556 H   0  0  0  0  0  0  0  0  0  0  0  0
  -29.2274   11.5597  -13.2911 C   0  0  0  0  0  0  0  0  0  0  0  0
  -29.8551   11.3116  -14.4759 N   0  0  0  0  0  0  0  0  0  0  0  0
  -31.1997   11.3794  -14.5464 C   0  0  0  0  0  0  0  0  0  0  0  0
  -32.0680   11.6762  -13.5633 N   0  0  0  0  0  0  0  0  0  0  0  0
  -31.4172   11.8983  -12.4145 C   0  0  0  0  0  0  0  0  0  0  0  0
  -31.9718   12.2577  -11.2228 N   0  0  0  0  0  0  0  0  0  0  0  0
  -30.9533   12.3957  -10.3185 C   0  0  0  0  0  0  0  0  0  0  0  0
  -29.7746   12.1592  -10.8638 N   0  0  0  0  0  0  0  0  0  0  0  0
  -30.0527   11.8500  -12.1840 C   0  0  0  0  0  0  0  0  0  0  0  0
  -32.9565   12.4145  -11.0629 H   0  0  0  0  0  0  0  0  0  0  0  0
 16 17  1  0  0  0
 17  1  1  0  0  0
  1  2  1  0  0  0
  1  6  2  0  0  0
  2  3  2  0  0  0
  3 18  1  0  0  0
  3  4  1  0  0  0
 18 20  1  0  0  0
 18 19  1  0  0  0
 20 21  1  0  0  0
 20 28  2  0  0  0
 21 22  2  0  0  0
 22 23  1  0  0  0
 23 24  2  0  0  0
 24 25  1  0  0  0
 24 28  1  0  0  0
 25 26  1  0  0  0
 25 29  1  0  0  0
 26 27  2  0  0  0
 27 28  1  0  0  0
  4  5  2  0  0  0
  5  6  1  0  0  0
  6  7  1  0  0  0
  7  8  2  0  0  0
  7 15  1  0  0  0
  8  9  1  0  0  0
  9 10  1  0  0  0
  9 14  2  0  0  0
 10 11  2  0  0  0
 11 12  1  0  0  0
 12 13  2  0  0  0
 13 14  1  0  0  0
 14 15  1  0  0  0
M  END
> <minimizedAffinity>
-5.61871

$$$$
