CHEMBL189633


 24 26  0  0  0  0  0  0  0  0999 V2000
  -14.6298    1.1529  -16.2960 C   0  0  0  0  0  0  0  0  0  0  0  0
  -14.2974    0.8091  -14.9995 C   0  0  0  0  0  0  0  0  0  0  0  0
  -15.4840    0.4950  -14.2904 C   0  0  0  0  0  0  0  0  0  0  0  0
  -15.5500    0.1278  -12.8544 C   0  0  0  0  0  0  0  0  0  0  0  0
  -16.5354    0.6484  -15.1807 C   0  0  0  0  0  0  0  0  0  0  0  0
  -16.0040    1.0357  -16.3923 N   0  0  0  0  0  0  0  0  0  0  0  0
  -16.5329    1.2657  -17.2222 H   0  0  0  0  0  0  0  0  0  0  0  0
  -17.9406    0.5000  -15.0343 C   0  0  0  0  0  0  0  0  0  0  0  0
  -18.7660    1.5443  -14.8549 C   0  0  0  0  0  0  0  0  0  0  0  0
  -18.3854    3.0098  -14.9033 C   0  0  0  0  0  0  0  0  0  0  0  0
  -17.3203    3.5177  -15.1837 O   0  0  0  0  0  0  0  0  0  0  0  0
  -19.5542    3.6920  -14.6029 N   0  0  0  0  0  0  0  0  0  0  0  0
  -20.6201    2.8234  -14.4031 C   0  0  0  0  0  0  0  0  0  0  0  0
  -21.9208    3.1859  -14.1105 C   0  0  0  0  0  0  0  0  0  0  0  0
  -22.8494    2.1587  -13.9478 C   0  0  0  0  0  0  0  0  0  0  0  0
  -22.4552    0.8131  -14.0708 C   0  0  0  0  0  0  0  0  0  0  0  0
  -21.1258    0.4698  -14.3670 C   0  0  0  0  0  0  0  0  0  0  0  0
  -20.2078    1.4923  -14.5435 C   0  0  0  0  0  0  0  0  0  0  0  0
  -19.5961    4.6972  -14.5675 H   0  0  0  0  0  0  0  0  0  0  0  0
  -13.7196    1.6221  -17.3097 C   0  0  0  0  0  0  0  0  0  0  0  0
  -12.5230    1.3628  -17.3485 O   0  0  0  0  0  0  0  0  0  0  0  0
  -14.3564    2.4771  -18.1598 O   0  0  0  0  0  0  0  0  0  0  0  0
  -15.1598    4.6791  -17.7160 C   0  0  0  0  0  0  0  0  0  0  0  0
  -13.9320    3.8430  -18.0322 C   0  0  0  0  0  0  0  0  0  0  0  0
 23 24  1  0  0  0
 24 22  1  0  0  0
 22 20  1  0  0  0
 20 21  2  0  0  0
 20  1  1  0  0  0
  1  2  2  0  0  0
  1  6  1  0  0  0
  2  3  1  0  0  0
  3  4  1  0  0  0
  3  5  2  0  0  0
  5  8  1  0  0  0
  5  6  1  0  0  0
  8  9  2  0  0  0
  9 10  1  0  0  0
  9 18  1  0  0  0
 10 11  2  0  0  0
 10 12  1  0  0  0
 12 13  1  0  0  0
 12 19  1  0  0  0
 13 14  1  0  0  0
 13 18  2  0  0  0
 14 15  2  0  0  0
 15 16  1  0  0  0
 16 17  2  0  0  0
 17 18  1  0  0  0
  6  7  1  0  0  0
M  END
> <minimizedAffinity>
-7.56293

$$$$
