CHEMBL1761931


 29 31  0  0  0  0  0  0  0  0999 V2000
  -27.9920   -2.3163   -9.9042 N   0  0  0  0  0  0  0  0  0  0  0  0
  -28.3371   -3.2494  -10.0988 H   0  0  0  0  0  0  0  0  0  0  0  0
  -28.0102   -2.0771   -8.5024 C   0  0  0  0  0  0  0  0  0  0  0  0
  -27.8061   -0.8327   -8.0322 N   0  0  0  0  0  0  0  0  0  0  0  0
  -27.8702   -0.6553   -6.7135 C   0  0  0  0  0  0  0  0  0  0  0  0
  -28.1332   -1.5985   -5.8060 N   0  0  0  0  0  0  0  0  0  0  0  0
  -28.3237   -2.8329   -6.2717 C   0  0  0  0  0  0  0  0  0  0  0  0
  -28.5737   -3.8356   -5.3477 C   0  0  0  0  0  0  0  0  0  0  0  0
  -28.7334   -5.1816   -5.7083 C   0  0  0  0  0  0  0  0  0  0  0  0
  -28.6857   -5.5205   -7.0668 C   0  0  0  0  0  0  0  0  0  0  0  0
  -28.4796   -4.5050   -8.0118 C   0  0  0  0  0  0  0  0  0  0  0  0
  -28.2726   -3.1566   -7.6300 C   0  0  0  0  0  0  0  0  0  0  0  0
  -28.9409   -6.1712   -4.7848 O   0  0  0  0  0  0  0  0  0  0  0  0
  -30.1859   -6.1883   -4.0940 C   0  0  0  0  0  0  0  0  0  0  0  0
  -28.8091   -6.7534   -7.6503 O   0  0  0  0  0  0  0  0  0  0  0  0
  -30.0883   -7.3694   -7.6865 C   0  0  0  0  0  0  0  0  0  0  0  0
  -25.0870   -1.1668  -12.7921 C   0  0  0  0  0  0  0  0  0  0  0  0
  -26.3754   -1.5268  -13.1864 C   0  0  0  0  0  0  0  0  0  0  0  0
  -27.3398   -1.9021  -12.2499 C   0  0  0  0  0  0  0  0  0  0  0  0
  -27.0662   -1.8976  -10.8856 C   0  0  0  0  0  0  0  0  0  0  0  0
  -25.7454   -1.6055  -10.4975 C   0  0  0  0  0  0  0  0  0  0  0  0
  -24.7654   -1.2451  -11.4365 C   0  0  0  0  0  0  0  0  0  0  0  0
  -22.8768   -0.2298  -13.3753 C   0  0  0  0  0  0  0  0  0  0  0  0
  -22.3818   -0.1461  -12.2579 O   0  0  0  0  0  0  0  0  0  0  0  0
  -24.1009   -0.7518  -13.7065 N   0  0  0  0  0  0  0  0  0  0  0  0
  -24.2822   -0.8293  -14.6969 H   0  0  0  0  0  0  0  0  0  0  0  0
  -22.2610    0.2366  -14.4960 O   0  0  0  0  0  0  0  0  0  0  0  0
  -20.0038    0.8077  -15.0886 C   0  0  0  0  0  0  0  0  0  0  0  0
  -21.1991    1.1675  -14.2215 C   0  0  0  0  0  0  0  0  0  0  0  0
 28 29  1  0  0  0
 29 27  1  0  0  0
 27 23  1  0  0  0
 23 24  2  0  0  0
 23 25  1  0  0  0
 25 17  1  0  0  0
 25 26  1  0  0  0
 17 18  1  0  0  0
 17 22  2  0  0  0
 18 19  2  0  0  0
 19 20  1  0  0  0
 20  1  1  0  0  0
 20 21  2  0  0  0
  1  3  1  0  0  0
  1  2  1  0  0  0
  3  4  1  0  0  0
  3 12  2  0  0  0
  4  5  2  0  0  0
  5  6  1  0  0  0
  6  7  2  0  0  0
  7  8  1  0  0  0
  7 12  1  0  0  0
  8  9  2  0  0  0
  9 13  1  0  0  0
  9 10  1  0  0  0
 13 14  1  0  0  0
 10 15  1  0  0  0
 10 11  2  0  0  0
 15 16  1  0  0  0
 11 12  1  0  0  0
 21 22  1  0  0  0
M  END
> <minimizedAffinity>
-8.68060

$$$$
