CHEMBL3288518


 35 39  0  0  0  0  0  0  0  0999 V2000
  -26.7235   -1.8308   -9.9464 C   0  0  0  0  0  0  0  0  0  0  0  0
  -27.1471   -3.1480   -9.7182 C   0  0  0  0  0  0  0  0  0  0  0  0
  -27.9476   -3.4875   -8.6176 C   0  0  0  0  0  0  0  0  0  0  0  0
  -28.2714   -2.5441   -7.6159 C   0  0  0  0  0  0  0  0  0  0  0  0
  -28.9863   -2.8069   -6.4126 C   0  0  0  0  0  0  0  0  0  0  0  0
  -29.2420   -1.7725   -5.4916 C   0  0  0  0  0  0  0  0  0  0  0  0
  -28.8051   -0.4781   -5.7359 C   0  0  0  0  0  0  0  0  0  0  0  0
  -28.1287   -0.2006   -6.9162 C   0  0  0  0  0  0  0  0  0  0  0  0
  -27.8623   -1.2104   -7.8529 C   0  0  0  0  0  0  0  0  0  0  0  0
  -27.1798   -0.8745   -9.0335 C   0  0  0  0  0  0  0  0  0  0  0  0
  -28.7314   -2.2752  -12.6878 N   0  0  0  0  0  0  0  0  0  0  0  0
  -27.5371   -1.9313  -13.1970 C   0  0  0  0  0  0  0  0  0  0  0  0
  -27.3769   -1.8912  -14.5149 N   0  0  0  0  0  0  0  0  0  0  0  0
  -26.1183   -1.4823  -14.6721 N   0  0  0  0  0  0  0  0  0  0  0  0
  -25.4519   -1.2534  -13.4996 C   0  0  0  0  0  0  0  0  0  0  0  0
  -24.1478   -0.7937  -13.2950 C   0  0  0  0  0  0  0  0  0  0  0  0
  -23.7193   -0.6645  -11.9827 C   0  0  0  0  0  0  0  0  0  0  0  0
  -24.5617   -1.0039  -10.9278 C   0  0  0  0  0  0  0  0  0  0  0  0
  -25.8911   -1.4698  -11.1183 C   0  0  0  0  0  0  0  0  0  0  0  0
  -26.3476   -1.5734  -12.4728 C   0  0  0  0  0  0  0  0  0  0  0  0
  -29.4815   -2.3685  -13.3648 H   0  0  0  0  0  0  0  0  0  0  0  0
  -29.0373   -1.8650  -11.8141 H   0  0  0  0  0  0  0  0  0  0  0  0
  -25.7606   -1.3702  -15.6143 H   0  0  0  0  0  0  0  0  0  0  0  0
  -29.5620   -4.1293   -6.0379 C   0  0  0  0  0  0  0  0  0  0  0  0
  -30.5725   -4.1218   -5.3387 O   0  0  0  0  0  0  0  0  0  0  0  0
  -28.8578   -5.2558   -6.4257 N   0  0  0  0  0  0  0  0  0  0  0  0
  -27.9506   -5.1063   -6.8513 H   0  0  0  0  0  0  0  0  0  0  0  0
  -29.2025   -6.5951   -6.1238 C   0  0  0  0  0  0  0  0  0  0  0  0
  -28.6870   -7.2967   -5.0295 C   0  0  0  0  0  0  0  0  0  0  0  0
  -28.9803   -8.6498   -4.8546 C   0  0  0  0  0  0  0  0  0  0  0  0
  -28.2920   -9.5065   -3.5289 Cl  0  0  0  0  0  0  0  0  0  0  0  0
  -29.8065   -9.3178   -5.7497 C   0  0  0  0  0  0  0  0  0  0  0  0
  -30.3662   -8.6089   -6.8059 C   0  0  0  0  0  0  0  0  0  0  0  0
  -31.4012   -9.4187   -7.9185 Cl  0  0  0  0  0  0  0  0  0  0  0  0
  -30.0822   -7.2516   -6.9914 C   0  0  0  0  0  0  0  0  0  0  0  0
 11 12  1  0  0  0
 11 21  1  0  0  0
 11 22  1  0  0  0
 12 13  2  0  0  0
 12 20  1  0  0  0
 13 14  1  0  0  0
 14 15  1  0  0  0
 14 23  1  0  0  0
 15 16  1  0  0  0
 15 20  2  0  0  0
 16 17  2  0  0  0
 17 18  1  0  0  0
 18 19  2  0  0  0
 19  1  1  0  0  0
 19 20  1  0  0  0
  1  2  1  0  0  0
  1 10  2  0  0  0
  2  3  2  0  0  0
  3  4  1  0  0  0
  4  5  1  0  0  0
  4  9  2  0  0  0
  5 24  1  0  0  0
  5  6  2  0  0  0
 24 25  2  0  0  0
 24 26  1  0  0  0
 26 28  1  0  0  0
 26 27  1  0  0  0
 28 29  1  0  0  0
 28 35  2  0  0  0
 29 30  2  0  0  0
 30 31  1  0  0  0
 30 32  1  0  0  0
 32 33  2  0  0  0
 33 34  1  0  0  0
 33 35  1  0  0  0
  6  7  1  0  0  0
  7  8  2  0  0  0
  8  9  1  0  0  0
  9 10  1  0  0  0
M  END
> <minimizedAffinity>
-9.50166

$$$$
