CHEMBL353584


 33 35  0  0  0  0  0  0  0  0999 V2000
  -15.3422    1.6581  -15.2696 C   0  0  0  0  0  0  0  0  0  0  0  0
  -15.8288    1.0378  -14.1190 C   0  0  0  0  0  0  0  0  0  0  0  0
  -17.1908    1.0927  -13.8132 C   0  0  0  0  0  0  0  0  0  0  0  0
  -18.0666    1.7590  -14.6668 C   0  0  0  0  0  0  0  0  0  0  0  0
  -17.5639    2.4354  -15.7839 C   0  0  0  0  0  0  0  0  0  0  0  0
  -16.2016    2.4165  -16.0656 C   0  0  0  0  0  0  0  0  0  0  0  0
  -19.4533    1.7975  -14.4922 N   0  0  0  0  0  0  0  0  0  0  0  0
  -20.3106    2.8596  -14.5241 C   0  0  0  0  0  0  0  0  0  0  0  0
  -20.0072    4.0341  -14.7311 O   0  0  0  0  0  0  0  0  0  0  0  0
  -21.6399    2.5521  -14.3781 N   0  0  0  0  0  0  0  0  0  0  0  0
  -19.8922    0.9059  -14.2810 H   0  0  0  0  0  0  0  0  0  0  0  0
  -22.2644    3.3250  -14.5386 H   0  0  0  0  0  0  0  0  0  0  0  0
  -22.1825    1.3205  -14.0813 C   0  0  0  0  0  0  0  0  0  0  0  0
  -23.3446    1.1169  -13.3121 C   0  0  0  0  0  0  0  0  0  0  0  0
  -23.5305   -0.2474  -13.3159 C   0  0  0  0  0  0  0  0  0  0  0  0
  -22.5195   -0.8245  -14.0164 O   0  0  0  0  0  0  0  0  0  0  0  0
  -21.6854    0.1513  -14.5025 N   0  0  0  0  0  0  0  0  0  0  0  0
  -24.5835   -1.1524  -12.7490 C   0  0  0  0  0  0  0  0  0  0  0  0
  -23.8989   -2.3712  -12.1056 C   0  0  0  0  0  0  0  0  0  0  0  0
  -25.4331   -0.4416  -11.6803 C   0  0  0  0  0  0  0  0  0  0  0  0
  -25.5079   -1.6148  -13.8864 C   0  0  0  0  0  0  0  0  0  0  0  0
  -14.0010    1.4982  -15.5340 O   0  0  0  0  0  0  0  0  0  0  0  0
  -11.8833    4.2546  -14.3475 C   0  0  0  0  0  0  0  0  0  0  0  0
  -12.7605    3.5777  -15.1792 C   0  0  0  0  0  0  0  0  0  0  0  0
  -13.0943    2.2698  -14.8389 C   0  0  0  0  0  0  0  0  0  0  0  0
  -12.4776    1.6583  -13.7543 C   0  0  0  0  0  0  0  0  0  0  0  0
  -11.5871    2.4050  -13.0022 C   0  0  0  0  0  0  0  0  0  0  0  0
  -11.2811    3.6957  -13.2587 N   0  0  0  0  0  0  0  0  0  0  0  0
  -10.8538    7.8125  -13.5880 C   0  0  0  0  0  0  0  0  0  0  0  0
  -11.1755    6.4148  -13.5073 N   0  0  0  0  0  0  0  0  0  0  0  0
  -11.5922    5.7014  -14.6102 C   0  0  0  0  0  0  0  0  0  0  0  0
  -11.7316    6.1923  -15.7249 O   0  0  0  0  0  0  0  0  0  0  0  0
  -11.1078    5.9060  -12.6298 H   0  0  0  0  0  0  0  0  0  0  0  0
 29 30  1  0  0  0
 30 31  1  0  0  0
 30 33  1  0  0  0
 31 32  2  0  0  0
 31 23  1  0  0  0
 23 24  1  0  0  0
 23 28  2  0  0  0
 24 25  2  0  0  0
 25 22  1  0  0  0
 25 26  1  0  0  0
 22  1  1  0  0  0
  1  2  1  0  0  0
  1  6  2  0  0  0
  2  3  2  0  0  0
  3  4  1  0  0  0
  4  7  1  0  0  0
  4  5  2  0  0  0
  7  8  1  0  0  0
  7 11  1  0  0  0
  8  9  2  0  0  0
  8 10  1  0  0  0
 10 13  1  0  0  0
 10 12  1  0  0  0
 13 14  1  0  0  0
 13 17  2  0  0  0
 14 15  2  0  0  0
 15 18  1  0  0  0
 15 16  1  0  0  0
 18 19  1  0  0  0
 18 20  1  0  0  0
 18 21  1  0  0  0
 16 17  1  0  0  0
  5  6  1  0  0  0
 26 27  2  0  0  0
 27 28  1  0  0  0
M  END
> <minimizedAffinity>
-8.97010

$$$$
