CHEMBL380957


 33 37  0  0  0  0  0  0  0  0999 V2000
  -30.1345   -7.5929   -5.8170 C   0  0  0  0  0  0  0  0  0  0  0  0
  -31.2554   -7.4166   -6.4330 N   0  0  0  0  0  0  0  0  0  0  0  0
  -31.5378   -8.2998   -7.4452 C   0  0  0  0  0  0  0  0  0  0  0  0
  -30.8172   -9.3037   -7.8284 N   0  0  0  0  0  0  0  0  0  0  0  0
  -29.6651   -9.4619   -7.1548 N   0  0  0  0  0  0  0  0  0  0  0  0
  -28.7654  -10.4485   -7.3305 C   0  0  0  0  0  0  0  0  0  0  0  0
  -27.7225  -10.2674   -6.4631 C   0  0  0  0  0  0  0  0  0  0  0  0
  -28.0111   -9.0960   -5.6720 C   0  0  0  0  0  0  0  0  0  0  0  0
  -27.2757   -8.4126   -4.5704 C   0  0  0  0  0  0  0  0  0  0  0  0
  -29.2452   -8.6429   -6.1562 C   0  0  0  0  0  0  0  0  0  0  0  0
  -29.6921   -6.8189   -4.7615 O   0  0  0  0  0  0  0  0  0  0  0  0
  -27.8091    0.2500   -5.3084 C   0  0  0  0  0  0  0  0  0  0  0  0
  -28.5058   -1.0593   -5.3118 C   0  0  0  0  0  0  0  0  0  0  0  0
  -28.2423   -2.2206   -6.0096 C   0  0  0  0  0  0  0  0  0  0  0  0
  -29.0154   -3.2610   -5.4232 C   0  0  0  0  0  0  0  0  0  0  0  0
  -29.0516   -4.6604   -5.5629 C   0  0  0  0  0  0  0  0  0  0  0  0
  -28.2355   -5.2741   -6.4356 F   0  0  0  0  0  0  0  0  0  0  0  0
  -29.8729   -5.4166   -4.7228 C   0  0  0  0  0  0  0  0  0  0  0  0
  -30.6798   -4.8015   -3.7638 C   0  0  0  0  0  0  0  0  0  0  0  0
  -30.6965   -3.4054   -3.6413 C   0  0  0  0  0  0  0  0  0  0  0  0
  -29.8363   -2.6673   -4.4614 C   0  0  0  0  0  0  0  0  0  0  0  0
  -29.5764   -1.3147   -4.4896 N   0  0  0  0  0  0  0  0  0  0  0  0
  -30.0260   -0.6358   -3.8905 H   0  0  0  0  0  0  0  0  0  0  0  0
  -26.6235  -11.0855   -6.4146 O   0  0  0  0  0  0  0  0  0  0  0  0
  -25.7544  -10.8596   -7.5516 C   0  0  0  0  0  0  0  0  0  0  0  0
  -24.4960  -11.7496   -7.5358 C   0  0  0  0  0  0  0  0  0  0  0  0
  -23.5508  -11.3033   -6.4892 N   0  0  0  0  0  0  0  0  0  0  0  0
  -22.5121  -12.3183   -6.2186 C   0  0  0  0  0  0  0  0  0  0  0  0
  -21.1615  -11.6357   -6.3153 C   0  0  0  0  0  0  0  0  0  0  0  0
  -21.4270  -10.4262   -7.1851 C   0  0  0  0  0  0  0  0  0  0  0  0
  -20.4925   -9.3904   -6.9287 O   0  0  0  0  0  0  0  0  0  0  0  0
  -22.8574  -10.0480   -6.8158 C   0  0  0  0  0  0  0  0  0  0  0  0
  -20.4870   -9.2160   -5.9711 H   0  0  0  0  0  0  0  0  0  0  0  0
 12 13  1  0  0  0
 13 14  2  0  0  0
 13 22  1  0  0  0
 14 15  1  0  0  0
 15 16  1  0  0  0
 15 21  2  0  0  0
 16 17  1  0  0  0
 16 18  2  0  0  0
 18 11  1  0  0  0
 18 19  1  0  0  0
 11  1  1  0  0  0
  1  2  2  0  0  0
  1 10  1  0  0  0
  2  3  1  0  0  0
  3  4  2  0  0  0
  4  5  1  0  0  0
  5  6  1  0  0  0
  5 10  1  0  0  0
  6  7  2  0  0  0
  7 24  1  0  0  0
  7  8  1  0  0  0
 24 25  1  0  0  0
 25 26  1  0  0  0
 26 27  1  0  0  0
 27 28  1  0  0  0
 27 32  1  0  0  0
 28 29  1  0  0  0
 29 30  1  0  0  0
 30 31  1  0  0  0
 30 32  1  0  0  0
 31 33  1  0  0  0
  8  9  1  0  0  0
  8 10  2  0  0  0
 19 20  2  0  0  0
 20 21  1  0  0  0
 21 22  1  0  0  0
 22 23  1  0  0  0
M  END
> <minimizedAffinity>
-8.45949

$$$$
