CHEMBL3932112


 37 40  0  0  0  0  0  0  0  0999 V2000
  -27.6936  -10.0354   -5.5391 N   0  0  0  0  0  0  0  0  0  0  0  0
  -28.1196   -8.5940   -5.4561 C   0  0  0  0  0  0  0  0  0  0  0  0
  -28.9998   -8.3919   -6.4840 C   0  0  0  0  0  0  0  0  0  0  0  0
  -29.4093   -7.2329   -6.8765 C   0  0  0  0  0  0  0  0  0  0  0  0
  -29.0580   -6.1198   -6.2629 C   0  0  0  0  0  0  0  0  0  0  0  0
  -29.4414   -5.1262   -6.9799 N   0  0  0  0  0  0  0  0  0  0  0  0
  -29.2917   -3.9125   -6.6495 C   0  0  0  0  0  0  0  0  0  0  0  0
  -28.8084   -3.4924   -5.4305 C   0  0  0  0  0  0  0  0  0  0  0  0
  -28.2174   -4.5732   -4.6374 N   0  0  0  0  0  0  0  0  0  0  0  0
  -28.3223   -5.9599   -5.0914 C   0  0  0  0  0  0  0  0  0  0  0  0
  -27.7841   -7.3416   -4.6285 C   0  0  0  0  0  0  0  0  0  0  0  0
  -29.1097   -1.8844   -5.4295 C   0  0  0  0  0  0  0  0  0  0  0  0
  -28.1295   -1.0339   -4.8007 C   0  0  0  0  0  0  0  0  0  0  0  0
  -28.4860    0.2272   -4.7613 N   0  0  0  0  0  0  0  0  0  0  0  0
  -29.6270    0.3554   -5.3737 N   0  0  0  0  0  0  0  0  0  0  0  0
  -30.1545    1.7288   -5.4268 C   0  0  0  0  0  0  0  0  0  0  0  0
  -30.0600   -0.8831   -5.8454 C   0  0  0  0  0  0  0  0  0  0  0  0
  -24.5323  -11.8809   -6.5796 C   0  0  0  0  0  0  0  0  0  0  0  0
  -24.6772  -11.8497   -7.9751 C   0  0  0  0  0  0  0  0  0  0  0  0
  -25.7776  -11.1872   -8.5586 C   0  0  0  0  0  0  0  0  0  0  0  0
  -26.7397  -10.5549   -7.7381 C   0  0  0  0  0  0  0  0  0  0  0  0
  -26.6589  -10.6122   -6.3687 C   0  0  0  0  0  0  0  0  0  0  0  0
  -25.5244  -11.2868   -5.7935 C   0  0  0  0  0  0  0  0  0  0  0  0
  -22.3294  -11.8165   -5.5102 C   0  0  0  0  0  0  0  0  0  0  0  0
  -23.4713  -12.4634   -5.9482 O   0  0  0  0  0  0  0  0  0  0  0  0
  -25.9060  -11.1755   -9.9091 O   0  0  0  0  0  0  0  0  0  0  0  0
  -27.0501  -10.7472  -10.5548 C   0  0  0  0  0  0  0  0  0  0  0  0
  -28.1691  -10.9488   -4.4374 C   0  0  0  0  0  0  0  0  0  0  0  0
  -29.1035  -12.0258   -5.0032 C   0  0  0  0  0  0  0  0  0  0  0  0
  -29.9506  -12.4569   -3.9707 O   0  0  0  0  0  0  0  0  0  0  0  0
  -30.4184  -11.6510   -3.6181 H   0  0  0  0  0  0  0  0  0  0  0  0
  -29.9573  -11.5609   -6.1977 C   0  0  0  0  0  0  0  0  0  0  0  0
  -31.3383  -11.1840   -5.8337 N   0  0  0  0  0  0  0  0  0  0  0  0
  -31.2995  -10.2750   -5.3114 H   0  0  0  0  0  0  0  0  0  0  0  0
  -32.1690  -10.9672   -7.0448 C   0  0  0  0  0  0  0  0  0  0  0  0
  -32.5244   -9.4820   -7.2327 C   0  0  0  0  0  0  0  0  0  0  0  0
  -31.4329  -11.4602   -8.2995 C   0  0  0  0  0  0  0  0  0  0  0  0
 24 25  1  0  0  0
 25 18  1  0  0  0
 18 19  1  0  0  0
 18 23  2  0  0  0
 19 20  2  0  0  0
 20 26  1  0  0  0
 20 21  1  0  0  0
 26 27  1  0  0  0
 21 22  2  0  0  0
 22  1  1  0  0  0
 22 23  1  0  0  0
  1 28  1  0  0  0
  1  2  1  0  0  0
 28 29  1  0  0  0
 29 30  1  0  0  0
 29 32  1  0  0  0
 30 31  1  0  0  0
 32 33  1  0  0  0
 33 35  1  0  0  0
 33 34  1  0  0  0
 35 36  1  0  0  0
 35 37  1  0  0  0
  2  3  1  0  0  0
  2 11  2  0  0  0
  3  4  2  0  0  0
  4  5  1  0  0  0
  5  6  1  0  0  0
  5 10  2  0  0  0
  6  7  2  0  0  0
  7  8  1  0  0  0
  8 12  1  0  0  0
  8  9  2  0  0  0
 12 13  1  0  0  0
 12 17  2  0  0  0
 13 14  2  0  0  0
 14 15  1  0  0  0
 15 16  1  0  0  0
 15 17  1  0  0  0
  9 10  1  0  0  0
 10 11  1  0  0  0
M  END
> <minimizedAffinity>
-6.31644

$$$$
