CHEMBL3925008


 38 42  0  0  0  0  0  0  0  0999 V2000
  -28.9443   -9.9712   -5.2877 N   0  0  0  0  0  0  0  0  0  0  0  0
  -28.8004   -8.5400   -5.0414 C   0  0  0  0  0  0  0  0  0  0  0  0
  -29.0263   -8.1481   -3.7209 C   0  0  0  0  0  0  0  0  0  0  0  0
  -29.5029   -6.8862   -3.4294 C   0  0  0  0  0  0  0  0  0  0  0  0
  -29.5650   -5.9097   -4.3853 C   0  0  0  0  0  0  0  0  0  0  0  0
  -30.1842   -4.8052   -3.9552 N   0  0  0  0  0  0  0  0  0  0  0  0
  -30.0884   -3.7267   -4.7371 C   0  0  0  0  0  0  0  0  0  0  0  0
  -29.3262   -3.7157   -5.8918 C   0  0  0  0  0  0  0  0  0  0  0  0
  -28.8241   -4.8968   -6.4104 N   0  0  0  0  0  0  0  0  0  0  0  0
  -28.9833   -6.0858   -5.6603 C   0  0  0  0  0  0  0  0  0  0  0  0
  -28.6836   -7.4825   -5.9958 C   0  0  0  0  0  0  0  0  0  0  0  0
  -29.0058   -2.3825   -6.3971 C   0  0  0  0  0  0  0  0  0  0  0  0
  -27.9970   -2.0174   -7.3290 C   0  0  0  0  0  0  0  0  0  0  0  0
  -27.7460   -0.7018   -7.3445 N   0  0  0  0  0  0  0  0  0  0  0  0
  -28.5737   -0.2142   -6.4060 N   0  0  0  0  0  0  0  0  0  0  0  0
  -28.7699    1.2106   -6.2672 C   0  0  0  0  0  0  0  0  0  0  0  0
  -29.2218   -1.1976   -5.7069 C   0  0  0  0  0  0  0  0  0  0  0  0
  -31.4654  -11.4180   -7.6454 C   0  0  0  0  0  0  0  0  0  0  0  0
  -30.6905  -11.5491   -8.8023 C   0  0  0  0  0  0  0  0  0  0  0  0
  -29.3239  -11.2886   -8.7578 C   0  0  0  0  0  0  0  0  0  0  0  0
  -28.7325  -10.8897   -7.5535 C   0  0  0  0  0  0  0  0  0  0  0  0
  -29.4802  -10.6666   -6.3913 C   0  0  0  0  0  0  0  0  0  0  0  0
  -30.8542  -10.9807   -6.4516 C   0  0  0  0  0  0  0  0  0  0  0  0
  -33.3666  -12.1036   -6.3641 C   0  0  0  0  0  0  0  0  0  0  0  0
  -32.8191  -11.6238   -7.6014 O   0  0  0  0  0  0  0  0  0  0  0  0
  -28.4656  -11.3358   -9.8244 O   0  0  0  0  0  0  0  0  0  0  0  0
  -28.8565  -10.6428  -11.0034 C   0  0  0  0  0  0  0  0  0  0  0  0
  -28.8788  -10.6842   -3.9470 C   0  0  0  0  0  0  0  0  0  0  0  0
  -27.8066  -11.7026   -3.5146 C   0  0  0  0  0  0  0  0  0  0  0  0
  -26.7458  -12.2514   -4.4978 C   0  0  0  0  0  0  0  0  0  0  0  0
  -25.3759  -11.9070   -4.0185 N   0  0  0  0  0  0  0  0  0  0  0  0
  -25.2138  -10.5651   -3.4344 C   0  0  0  0  0  0  0  0  0  0  0  0
  -25.0844   -9.4481   -4.4696 C   0  0  0  0  0  0  0  0  0  0  0  0
  -23.8977   -9.7126   -5.3869 C   0  0  0  0  0  0  0  0  0  0  0  0
  -24.0202  -11.1018   -6.0070 C   0  0  0  0  0  0  0  0  0  0  0  0
  -24.2722  -12.1978   -4.9617 C   0  0  0  0  0  0  0  0  0  0  0  0
  -22.8231  -11.3796   -6.9016 C   0  0  0  0  0  0  0  0  0  0  0  0
  -21.8299  -11.6100   -7.6436 N   0  0  0  0  0  0  0  0  0  0  0  0
 24 25  1  0  0  0
 25 18  1  0  0  0
 18 19  1  0  0  0
 18 23  2  0  0  0
 19 20  2  0  0  0
 20 26  1  0  0  0
 20 21  1  0  0  0
 26 27  1  0  0  0
 21 22  2  0  0  0
 22  1  1  0  0  0
 22 23  1  0  0  0
  1 28  1  0  0  0
  1  2  1  0  0  0
 28 29  1  0  0  0
 29 30  1  0  0  0
 30 31  1  0  0  0
 31 32  1  0  0  0
 31 36  1  0  0  0
 32 33  1  0  0  0
 33 34  1  0  0  0
 34 35  1  0  0  0
 35 37  1  0  0  0
 35 36  1  0  0  0
 37 38  3  0  0  0
  2  3  1  0  0  0
  2 11  2  0  0  0
  3  4  2  0  0  0
  4  5  1  0  0  0
  5  6  1  0  0  0
  5 10  2  0  0  0
  6  7  2  0  0  0
  7  8  1  0  0  0
  8 12  1  0  0  0
  8  9  2  0  0  0
 12 13  1  0  0  0
 12 17  2  0  0  0
 13 14  2  0  0  0
 14 15  1  0  0  0
 15 16  1  0  0  0
 15 17  1  0  0  0
  9 10  1  0  0  0
 10 11  1  0  0  0
M  END
> <minimizedAffinity>
-7.86432

$$$$
