CHEMBL3128230


 37 41  0  0  0  0  0  0  0  0999 V2000
  -29.4402   -4.2860   -4.6516 N   0  0  0  0  0  0  0  0  0  0  0  0
  -29.9916   -3.9020   -5.4130 H   0  0  0  0  0  0  0  0  0  0  0  0
  -29.2896   -5.6646   -4.7344 C   0  0  0  0  0  0  0  0  0  0  0  0
  -29.4683   -6.4636   -3.6547 N   0  0  0  0  0  0  0  0  0  0  0  0
  -29.3825   -7.8043   -3.8188 C   0  0  0  0  0  0  0  0  0  0  0  0
  -29.1303   -8.4922   -4.9483 N   0  0  0  0  0  0  0  0  0  0  0  0
  -28.9541   -7.6712   -5.9961 C   0  0  0  0  0  0  0  0  0  0  0  0
  -29.0030   -6.2873   -5.9576 C   0  0  0  0  0  0  0  0  0  0  0  0
  -28.7344   -5.8877   -7.2799 C   0  0  0  0  0  0  0  0  0  0  0  0
  -28.5449   -6.9145   -8.1071 N   0  0  0  0  0  0  0  0  0  0  0  0
  -28.7200   -8.0006   -7.3107 N   0  0  0  0  0  0  0  0  0  0  0  0
  -28.6011   -9.3157   -7.9213 C   0  0  0  0  0  0  0  0  0  0  0  0
  -27.3307   -9.5505   -8.7334 C   0  0  0  0  0  0  0  0  0  0  0  0
  -27.6138   -9.6721  -10.2117 C   0  0  0  0  0  0  0  0  0  0  0  0
  -28.7558  -10.3556  -10.6527 C   0  0  0  0  0  0  0  0  0  0  0  0
  -29.0480  -10.4412  -12.0141 C   0  0  0  0  0  0  0  0  0  0  0  0
  -28.1977   -9.8524  -12.9474 C   0  0  0  0  0  0  0  0  0  0  0  0
  -27.0477   -9.1899  -12.5207 C   0  0  0  0  0  0  0  0  0  0  0  0
  -26.7526   -9.1033  -11.1586 C   0  0  0  0  0  0  0  0  0  0  0  0
  -28.2732   -3.4901   -4.3322 C   0  0  0  0  0  0  0  0  0  0  0  0
  -27.8648   -0.9681   -7.2112 C   0  0  0  0  0  0  0  0  0  0  0  0
  -28.4514    0.1583   -6.6291 C   0  0  0  0  0  0  0  0  0  0  0  0
  -28.9217    0.1312   -5.3177 C   0  0  0  0  0  0  0  0  0  0  0  0
  -28.8422   -1.0402   -4.5726 C   0  0  0  0  0  0  0  0  0  0  0  0
  -28.3197   -2.2081   -5.1451 C   0  0  0  0  0  0  0  0  0  0  0  0
  -27.8324   -2.1613   -6.4722 C   0  0  0  0  0  0  0  0  0  0  0  0
  -28.5674   -2.6271   -9.5160 O   0  0  0  0  0  0  0  0  0  0  0  0
  -27.6777   -1.7864   -9.5512 C   0  0  0  0  0  0  0  0  0  0  0  0
  -27.3005   -0.9394   -8.5142 N   0  0  0  0  0  0  0  0  0  0  0  0
  -26.7072   -0.1516   -8.7374 H   0  0  0  0  0  0  0  0  0  0  0  0
  -26.9818   -1.6203  -10.8524 C   0  0  0  0  0  0  0  0  0  0  0  0
  -27.7332   -1.8575  -12.0182 C   0  0  0  0  0  0  0  0  0  0  0  0
  -27.1255   -1.8167  -13.2716 C   0  0  0  0  0  0  0  0  0  0  0  0
  -25.7660   -1.5493  -13.3560 C   0  0  0  0  0  0  0  0  0  0  0  0
  -25.1736   -1.5312  -14.5569 F   0  0  0  0  0  0  0  0  0  0  0  0
  -25.0058   -1.3181  -12.2106 C   0  0  0  0  0  0  0  0  0  0  0  0
  -25.6118   -1.3527  -10.9494 C   0  0  0  0  0  0  0  0  0  0  0  0
 27 28  2  0  0  0
 28 29  1  0  0  0
 28 31  1  0  0  0
 29 21  1  0  0  0
 29 30  1  0  0  0
 21 22  1  0  0  0
 21 26  2  0  0  0
 22 23  2  0  0  0
 23 24  1  0  0  0
 24 25  2  0  0  0
 25 20  1  0  0  0
 25 26  1  0  0  0
 20  1  1  0  0  0
  1  3  1  0  0  0
  1  2  1  0  0  0
  3  4  1  0  0  0
  3  8  2  0  0  0
  4  5  2  0  0  0
  5  6  1  0  0  0
  6  7  2  0  0  0
  7  8  1  0  0  0
  7 11  1  0  0  0
  8  9  1  0  0  0
  9 10  2  0  0  0
 10 11  1  0  0  0
 11 12  1  0  0  0
 12 13  1  0  0  0
 13 14  1  0  0  0
 14 15  1  0  0  0
 14 19  2  0  0  0
 15 16  2  0  0  0
 16 17  1  0  0  0
 17 18  2  0  0  0
 18 19  1  0  0  0
 31 32  1  0  0  0
 31 37  2  0  0  0
 32 33  2  0  0  0
 33 34  1  0  0  0
 34 35  1  0  0  0
 34 36  2  0  0  0
 36 37  1  0  0  0
M  END
> <minimizedAffinity>
-10.07042

$$$$
