CHEMBL3924147


 35 39  0  0  0  0  0  0  0  0999 V2000
  -15.5454    1.3564  -14.7059 C   0  0  0  0  0  0  0  0  0  0  0  0
  -15.0583    1.8219  -15.9346 C   0  0  0  0  0  0  0  0  0  0  0  0
  -13.7150    1.5985  -16.3220 C   0  0  0  0  0  0  0  0  0  0  0  0
  -13.1077    2.0544  -17.5072 C   0  0  0  0  0  0  0  0  0  0  0  0
  -11.8259    1.7657  -17.8122 N   0  0  0  0  0  0  0  0  0  0  0  0
  -11.1404    1.0335  -16.9351 C   0  0  0  0  0  0  0  0  0  0  0  0
  -11.6139    0.5525  -15.7866 N   0  0  0  0  0  0  0  0  0  0  0  0
  -12.8837    0.8358  -15.4968 C   0  0  0  0  0  0  0  0  0  0  0  0
  -13.3931    0.3480  -14.3087 C   0  0  0  0  0  0  0  0  0  0  0  0
  -14.6960    0.6266  -13.8701 C   0  0  0  0  0  0  0  0  0  0  0  0
  -17.8024    0.7078  -14.9816 C   0  0  0  0  0  0  0  0  0  0  0  0
  -16.8628    1.6554  -14.4840 O   0  0  0  0  0  0  0  0  0  0  0  0
  -13.8419    2.8621  -18.4182 N   0  0  0  0  0  0  0  0  0  0  0  0
  -14.8295    2.6244  -18.3464 H   0  0  0  0  0  0  0  0  0  0  0  0
  -13.6600    4.2678  -18.5156 C   0  0  0  0  0  0  0  0  0  0  0  0
  -12.4340    4.8518  -18.1717 C   0  0  0  0  0  0  0  0  0  0  0  0
  -12.2715    6.2382  -18.1908 C   0  0  0  0  0  0  0  0  0  0  0  0
  -10.7301    6.8643  -17.7245 Cl  0  0  0  0  0  0  0  0  0  0  0  0
  -13.3405    7.0576  -18.5712 C   0  0  0  0  0  0  0  0  0  0  0  0
  -13.2291    8.9537  -18.5586 Br  0  0  0  0  0  0  0  0  0  0  0  0
  -14.5548    6.4859  -18.9620 C   0  0  0  0  0  0  0  0  0  0  0  0
  -14.6995    5.1018  -18.9380 C   0  0  0  0  0  0  0  0  0  0  0  0
  -15.8742    4.5608  -19.2926 F   0  0  0  0  0  0  0  0  0  0  0  0
  -15.1603    0.1601  -12.6636 O   0  0  0  0  0  0  0  0  0  0  0  0
  -15.5483   -1.2241  -12.6713 C   0  0  0  0  0  0  0  0  0  0  0  0
  -14.5655   -2.0951  -11.8879 C   0  0  0  0  0  0  0  0  0  0  0  0
  -13.8963   -3.1622  -12.7778 C   0  0  0  0  0  0  0  0  0  0  0  0
  -12.9543   -3.9592  -11.9617 N   0  0  0  0  0  0  0  0  0  0  0  0
  -12.2553   -4.9754  -12.7675 C   0  0  0  0  0  0  0  0  0  0  0  0
  -11.5386   -6.0538  -11.9286 C   0  0  0  0  0  0  0  0  0  0  0  0
  -12.3493   -6.5789  -10.8689 O   0  0  0  0  0  0  0  0  0  0  0  0
  -12.8291   -5.5134  -10.0374 C   0  0  0  0  0  0  0  0  0  0  0  0
  -13.7322   -4.5957  -10.8642 C   0  0  0  0  0  0  0  0  0  0  0  0
  -14.3723   -3.5023   -9.9938 C   0  0  0  0  0  0  0  0  0  0  0  0
  -15.2645   -2.6927  -10.7746 O   0  0  0  0  0  0  0  0  0  0  0  0
 11 12  1  0  0  0
 12  1  1  0  0  0
  1  2  1  0  0  0
  1 10  2  0  0  0
  2  3  2  0  0  0
  3  4  1  0  0  0
  3  8  1  0  0  0
  4 13  1  0  0  0
  4  5  2  0  0  0
 13 15  1  0  0  0
 13 14  1  0  0  0
 15 16  1  0  0  0
 15 22  2  0  0  0
 16 17  2  0  0  0
 17 18  1  0  0  0
 17 19  1  0  0  0
 19 20  1  0  0  0
 19 21  2  0  0  0
 21 22  1  0  0  0
 22 23  1  0  0  0
  5  6  1  0  0  0
  6  7  2  0  0  0
  7  8  1  0  0  0
  8  9  2  0  0  0
  9 10  1  0  0  0
 10 24  1  0  0  0
 24 25  1  0  0  0
 26 27  1  0  0  0
 26 35  1  0  0  0
 26 25  1  0  0  0
 27 28  1  0  0  0
 28 29  1  0  0  0
 28 33  1  0  0  0
 29 30  1  0  0  0
 30 31  1  0  0  0
 31 32  1  0  0  0
 32 33  1  0  0  0
 33 34  1  0  0  0
 34 35  1  0  0  0
M  END
> <minimizedAffinity>
-5.93458

$$$$
