CHEMBL219543


 33 38  0  0  0  0  0  0  0  0999 V2000
  -29.7056   -4.4546   -6.8915 N   0  0  0  0  0  0  0  0  0  0  0  0
  -29.7647   -3.7377   -5.6741 C   0  0  0  0  0  0  0  0  0  0  0  0
  -29.7357   -2.3592   -5.3931 C   0  0  0  0  0  0  0  0  0  0  0  0
  -29.6579   -1.9484   -4.0491 C   0  0  0  0  0  0  0  0  0  0  0  0
  -29.7120   -2.8557   -2.9962 C   0  0  0  0  0  0  0  0  0  0  0  0
  -29.4905   -2.4475   -1.6735 N   0  0  0  0  0  0  0  0  0  0  0  0
  -29.7193   -4.2160   -3.2880 C   0  0  0  0  0  0  0  0  0  0  0  0
  -29.7332   -4.6630   -4.6214 C   0  0  0  0  0  0  0  0  0  0  0  0
  -29.5957   -5.8638   -5.2823 C   0  0  0  0  0  0  0  0  0  0  0  0
  -29.1206   -7.0236   -4.6564 C   0  0  0  0  0  0  0  0  0  0  0  0
  -28.5543   -7.9825   -5.5193 C   0  0  0  0  0  0  0  0  0  0  0  0
  -28.5987   -7.8997   -6.9201 C   0  0  0  0  0  0  0  0  0  0  0  0
  -29.6319   -7.0229   -7.3968 C   0  0  0  0  0  0  0  0  0  0  0  0
  -29.7350   -5.8309   -6.6427 C   0  0  0  0  0  0  0  0  0  0  0  0
  -30.9015   -7.8347   -7.9060 C   0  0  0  0  0  0  0  0  0  0  0  0
  -30.8562   -9.3920   -7.6014 C   0  0  0  0  0  0  0  0  0  0  0  0
  -29.5214   -9.8730   -8.0477 C   0  0  0  0  0  0  0  0  0  0  0  0
  -29.2522  -10.7636   -9.0014 N   0  0  0  0  0  0  0  0  0  0  0  0
  -27.9573  -10.4874   -9.3022 N   0  0  0  0  0  0  0  0  0  0  0  0
  -27.3263  -11.1454  -10.4205 C   0  0  0  0  0  0  0  0  0  0  0  0
  -27.4520   -9.4058   -8.6217 C   0  0  0  0  0  0  0  0  0  0  0  0
  -28.4052   -9.1034   -7.6862 C   0  0  0  0  0  0  0  0  0  0  0  0
  -28.0886   -9.0745   -4.6975 C   0  0  0  0  0  0  0  0  0  0  0  0
  -27.5402  -10.1404   -4.9396 O   0  0  0  0  0  0  0  0  0  0  0  0
  -28.4431   -8.7058   -3.4047 N   0  0  0  0  0  0  0  0  0  0  0  0
  -29.0541   -7.4088   -3.2521 C   0  0  0  0  0  0  0  0  0  0  0  0
  -29.7894   -1.4996   -1.4772 H   0  0  0  0  0  0  0  0  0  0  0  0
  -29.8247   -3.1094   -0.9797 H   0  0  0  0  0  0  0  0  0  0  0  0
  -28.2570   -9.3406   -2.6436 H   0  0  0  0  0  0  0  0  0  0  0  0
  -29.4612   -3.8230   -8.1852 C   0  0  0  0  0  0  0  0  0  0  0  0
  -28.0086   -3.3555   -8.4609 C   0  0  0  0  0  0  0  0  0  0  0  0
  -27.6922   -1.6281  -10.3070 C   0  0  0  0  0  0  0  0  0  0  0  0
  -27.8206   -1.8836   -8.8117 C   0  0  0  0  0  0  0  0  0  0  0  0
 32 33  1  0  0  0
 33 31  1  0  0  0
 31 30  1  0  0  0
 30  1  1  0  0  0
  1  2  1  0  0  0
  1 14  1  0  0  0
  2  3  1  0  0  0
  2  8  2  0  0  0
  3  4  2  0  0  0
  4  5  1  0  0  0
  5  6  1  0  0  0
  5  7  2  0  0  0
  6 27  1  0  0  0
  6 28  1  0  0  0
  7  8  1  0  0  0
  8  9  1  0  0  0
  9 10  1  0  0  0
  9 14  2  0  0  0
 10 11  2  0  0  0
 10 26  1  0  0  0
 11 12  1  0  0  0
 11 23  1  0  0  0
 12 13  2  0  0  0
 12 22  1  0  0  0
 13 14  1  0  0  0
 13 15  1  0  0  0
 15 16  1  0  0  0
 16 17  1  0  0  0
 17 18  2  0  0  0
 17 22  1  0  0  0
 18 19  1  0  0  0
 19 20  1  0  0  0
 19 21  1  0  0  0
 21 22  2  0  0  0
 23 24  2  0  0  0
 23 25  1  0  0  0
 25 26  1  0  0  0
 25 29  1  0  0  0
M  END
> <minimizedAffinity>
-8.43718

$$$$
