CHEMBL3671537


 39 41  0  0  0  0  0  0  0  0999 V2000
  -17.9152    1.0056  -14.9830 C   0  0  0  0  0  0  0  0  0  0  0  0
  -19.2228    0.5420  -14.8220 C   0  0  0  0  0  0  0  0  0  0  0  0
  -20.2790    1.4523  -14.5857 C   0  0  0  0  0  0  0  0  0  0  0  0
  -21.6001    1.0783  -14.2990 C   0  0  0  0  0  0  0  0  0  0  0  0
  -22.5873    1.9785  -14.1493 N   0  0  0  0  0  0  0  0  0  0  0  0
  -22.2372    3.2658  -14.2270 C   0  0  0  0  0  0  0  0  0  0  0  0
  -21.0060    3.7368  -14.4500 N   0  0  0  0  0  0  0  0  0  0  0  0
  -20.0425    2.8308  -14.6245 C   0  0  0  0  0  0  0  0  0  0  0  0
  -18.7442    3.2689  -14.8618 C   0  0  0  0  0  0  0  0  0  0  0  0
  -17.6791    2.3833  -15.0502 C   0  0  0  0  0  0  0  0  0  0  0  0
  -16.1357   -0.0805  -13.7952 C   0  0  0  0  0  0  0  0  0  0  0  0
  -16.2908    0.5599  -12.7670 O   0  0  0  0  0  0  0  0  0  0  0  0
  -16.8669    0.0670  -14.9649 N   0  0  0  0  0  0  0  0  0  0  0  0
  -17.0363   -0.8010  -15.4607 H   0  0  0  0  0  0  0  0  0  0  0  0
  -15.2363   -2.2975  -13.2100 C   0  0  0  0  0  0  0  0  0  0  0  0
  -15.1163   -1.1594  -13.9067 C   0  0  0  0  0  0  0  0  0  0  0  0
  -21.9035   -0.2936  -14.1441 N   0  0  0  0  0  0  0  0  0  0  0  0
  -21.0706   -0.8729  -14.1856 H   0  0  0  0  0  0  0  0  0  0  0  0
  -22.9664   -0.8783  -13.4306 C   0  0  0  0  0  0  0  0  0  0  0  0
  -22.8372   -1.2258  -12.0814 C   0  0  0  0  0  0  0  0  0  0  0  0
  -23.9621   -1.5372  -11.3151 C   0  0  0  0  0  0  0  0  0  0  0  0
  -25.2237   -1.5364  -11.9058 C   0  0  0  0  0  0  0  0  0  0  0  0
  -26.7566   -1.7786  -10.8277 Br  0  0  0  0  0  0  0  0  0  0  0  0
  -25.3657   -1.3005  -13.2690 C   0  0  0  0  0  0  0  0  0  0  0  0
  -24.2382   -0.9710  -14.0152 C   0  0  0  0  0  0  0  0  0  0  0  0
  -24.3848   -0.6957  -15.3214 F   0  0  0  0  0  0  0  0  0  0  0  0
  -16.4905    3.0112  -15.2989 O   0  0  0  0  0  0  0  0  0  0  0  0
  -16.5021    4.1074  -16.2006 C   0  0  0  0  0  0  0  0  0  0  0  0
  -15.3031    4.2885  -17.1325 C   0  0  0  0  0  0  0  0  0  0  0  0
  -14.7918    3.3433  -17.7313 O   0  0  0  0  0  0  0  0  0  0  0  0
  -14.8061    5.5767  -17.1826 N   0  0  0  0  0  0  0  0  0  0  0  0
  -15.4430    6.3322  -16.9521 H   0  0  0  0  0  0  0  0  0  0  0  0
  -13.6529    5.8922  -18.0055 C   0  0  0  0  0  0  0  0  0  0  0  0
  -12.4726    6.4849  -17.2094 C   0  0  0  0  0  0  0  0  0  0  0  0
  -12.5025    6.2437  -15.7474 N   0  0  0  0  0  0  0  0  0  0  0  0
  -11.8435    4.9918  -15.3483 C   0  0  0  0  0  0  0  0  0  0  0  0
  -12.7008    3.9811  -14.5910 C   0  0  0  0  0  0  0  0  0  0  0  0
  -11.9954    7.4426  -15.0539 C   0  0  0  0  0  0  0  0  0  0  0  0
  -11.0778    7.1548  -13.8719 C   0  0  0  0  0  0  0  0  0  0  0  0
 15 16  2  0  0  0
 16 11  1  0  0  0
 11 12  2  0  0  0
 11 13  1  0  0  0
 13  1  1  0  0  0
 13 14  1  0  0  0
  1  2  1  0  0  0
  1 10  2  0  0  0
  2  3  2  0  0  0
  3  4  1  0  0  0
  3  8  1  0  0  0
  4 17  1  0  0  0
  4  5  2  0  0  0
 17 19  1  0  0  0
 17 18  1  0  0  0
 19 20  1  0  0  0
 19 25  2  0  0  0
 20 21  2  0  0  0
 21 22  1  0  0  0
 22 23  1  0  0  0
 22 24  2  0  0  0
 24 25  1  0  0  0
 25 26  1  0  0  0
  5  6  1  0  0  0
  6  7  2  0  0  0
  7  8  1  0  0  0
  8  9  2  0  0  0
  9 10  1  0  0  0
 10 27  1  0  0  0
 27 28  1  0  0  0
 28 29  1  0  0  0
 29 30  2  0  0  0
 29 31  1  0  0  0
 31 33  1  0  0  0
 31 32  1  0  0  0
 33 34  1  0  0  0
 34 35  1  0  0  0
 35 36  1  0  0  0
 35 38  1  0  0  0
 36 37  1  0  0  0
 38 39  1  0  0  0
M  END
> <minimizedAffinity>
-8.99454

$$$$
