CHEMBL3957928


 37 41  0  0  0  0  0  0  0  0999 V2000
  -15.6949    1.5974  -15.2178 N   0  0  0  0  0  0  0  0  0  0  0  0
  -17.1186    1.6797  -15.3972 C   0  0  0  0  0  0  0  0  0  0  0  0
  -17.5655    2.8420  -16.0120 C   0  0  0  0  0  0  0  0  0  0  0  0
  -18.8083    3.3506  -15.7242 C   0  0  0  0  0  0  0  0  0  0  0  0
  -19.6968    2.6546  -14.9509 C   0  0  0  0  0  0  0  0  0  0  0  0
  -20.7677    3.3572  -14.5711 N   0  0  0  0  0  0  0  0  0  0  0  0
  -21.7606    2.6720  -13.9929 C   0  0  0  0  0  0  0  0  0  0  0  0
  -21.7359    1.2986  -13.8781 C   0  0  0  0  0  0  0  0  0  0  0  0
  -20.5843    0.5845  -14.1370 N   0  0  0  0  0  0  0  0  0  0  0  0
  -19.4789    1.2986  -14.6161 C   0  0  0  0  0  0  0  0  0  0  0  0
  -18.1151    0.8504  -14.7996 C   0  0  0  0  0  0  0  0  0  0  0  0
  -23.0294    0.6695  -13.6424 C   0  0  0  0  0  0  0  0  0  0  0  0
  -23.8275    0.6497  -12.4654 C   0  0  0  0  0  0  0  0  0  0  0  0
  -24.8267   -0.2413  -12.5246 N   0  0  0  0  0  0  0  0  0  0  0  0
  -24.6703   -0.8032  -13.7347 N   0  0  0  0  0  0  0  0  0  0  0  0
  -25.7158   -1.6178  -14.3089 C   0  0  0  0  0  0  0  0  0  0  0  0
  -23.5156   -0.4145  -14.3572 C   0  0  0  0  0  0  0  0  0  0  0  0
  -12.2343    1.6702  -16.7318 C   0  0  0  0  0  0  0  0  0  0  0  0
  -12.3945    0.8039  -17.8030 C   0  0  0  0  0  0  0  0  0  0  0  0
  -13.6666    0.3037  -18.0972 C   0  0  0  0  0  0  0  0  0  0  0  0
  -14.7673    0.6118  -17.2771 C   0  0  0  0  0  0  0  0  0  0  0  0
  -14.6230    1.3911  -16.1264 C   0  0  0  0  0  0  0  0  0  0  0  0
  -13.3490    1.9861  -15.9472 C   0  0  0  0  0  0  0  0  0  0  0  0
  -11.1500    3.3601  -15.4435 C   0  0  0  0  0  0  0  0  0  0  0  0
  -11.0604    2.2595  -16.3455 O   0  0  0  0  0  0  0  0  0  0  0  0
  -13.9573   -0.5125  -19.1613 O   0  0  0  0  0  0  0  0  0  0  0  0
  -13.4297   -1.8317  -19.1090 C   0  0  0  0  0  0  0  0  0  0  0  0
  -15.3870    1.3183  -13.7736 C   0  0  0  0  0  0  0  0  0  0  0  0
  -15.4536   -0.1132  -13.4806 C   0  0  0  0  0  0  0  0  0  0  0  0
  -15.5811   -1.2848  -13.2177 C   0  0  0  0  0  0  0  0  0  0  0  0
  -15.8288   -2.6432  -12.8808 C   0  0  0  0  0  0  0  0  0  0  0  0
  -15.8963   -3.4943  -13.9306 N   0  0  0  0  0  0  0  0  0  0  0  0
  -16.1989   -4.7810  -13.6415 C   0  0  0  0  0  0  0  0  0  0  0  0
  -16.4300   -5.2515  -12.3528 C   0  0  0  0  0  0  0  0  0  0  0  0
  -16.3366   -4.3556  -11.2942 C   0  0  0  0  0  0  0  0  0  0  0  0
  -16.0288   -3.0283  -11.5615 C   0  0  0  0  0  0  0  0  0  0  0  0
  -15.9441   -2.1518  -10.5492 F   0  0  0  0  0  0  0  0  0  0  0  0
 24 25  1  0  0  0
 25 18  1  0  0  0
 18 19  1  0  0  0
 18 23  2  0  0  0
 19 20  2  0  0  0
 20 26  1  0  0  0
 20 21  1  0  0  0
 26 27  1  0  0  0
 21 22  2  0  0  0
 22  1  1  0  0  0
 22 23  1  0  0  0
  1 28  1  0  0  0
  1  2  1  0  0  0
 28 29  1  0  0  0
 29 30  3  0  0  0
 30 31  1  0  0  0
 31 32  1  0  0  0
 31 36  2  0  0  0
 32 33  2  0  0  0
 33 34  1  0  0  0
 34 35  2  0  0  0
 35 36  1  0  0  0
 36 37  1  0  0  0
  2  3  1  0  0  0
  2 11  2  0  0  0
  3  4  2  0  0  0
  4  5  1  0  0  0
  5  6  1  0  0  0
  5 10  2  0  0  0
  6  7  2  0  0  0
  7  8  1  0  0  0
  8 12  1  0  0  0
  8  9  2  0  0  0
 12 13  1  0  0  0
 12 17  2  0  0  0
 13 14  2  0  0  0
 14 15  1  0  0  0
 15 16  1  0  0  0
 15 17  1  0  0  0
  9 10  1  0  0  0
 10 11  1  0  0  0
M  END
> <minimizedAffinity>
-9.31744

$$$$
