CHEMBL3114025


 32 35  0  0  0  0  0  0  0  0999 V2000
  -14.7046    1.5955  -14.9940 C   0  0  0  0  0  0  0  0  0  0  0  0
  -14.0991    1.8735  -16.2001 C   0  0  0  0  0  0  0  0  0  0  0  0
  -14.8027    2.6590  -17.0831 C   0  0  0  0  0  0  0  0  0  0  0  0
  -16.0026    3.2031  -16.8151 N   0  0  0  0  0  0  0  0  0  0  0  0
  -16.5254    2.9078  -15.6234 C   0  0  0  0  0  0  0  0  0  0  0  0
  -15.9079    2.1247  -14.7184 N   0  0  0  0  0  0  0  0  0  0  0  0
  -14.1089    0.7041  -14.0727 N   0  0  0  0  0  0  0  0  0  0  0  0
  -13.0982    1.3674  -13.2449 C   0  0  0  0  0  0  0  0  0  0  0  0
  -16.6510   -5.1420  -11.8862 C   0  0  0  0  0  0  0  0  0  0  0  0
  -15.7835   -4.4110  -12.8427 C   0  0  0  0  0  0  0  0  0  0  0  0
  -15.4541   -3.0849  -12.9845 C   0  0  0  0  0  0  0  0  0  0  0  0
  -15.8946   -2.0458  -12.1772 C   0  0  0  0  0  0  0  0  0  0  0  0
  -15.3859   -0.8070  -12.6247 C   0  0  0  0  0  0  0  0  0  0  0  0
  -14.5180   -0.6148  -13.7659 C   0  0  0  0  0  0  0  0  0  0  0  0
  -14.0982   -1.7217  -14.5477 C   0  0  0  0  0  0  0  0  0  0  0  0
  -14.5919   -2.9738  -14.1295 C   0  0  0  0  0  0  0  0  0  0  0  0
  -14.3834   -4.1924  -14.6495 N   0  0  0  0  0  0  0  0  0  0  0  0
  -15.1063   -5.0332  -13.8682 N   0  0  0  0  0  0  0  0  0  0  0  0
  -15.1264   -6.4366  -14.1850 C   0  0  0  0  0  0  0  0  0  0  0  0
  -17.7848    3.4289  -15.3228 N   0  0  0  0  0  0  0  0  0  0  0  0
  -17.8901    4.3882  -15.6090 H   0  0  0  0  0  0  0  0  0  0  0  0
  -18.9169    2.7132  -14.9228 C   0  0  0  0  0  0  0  0  0  0  0  0
  -19.0545    1.3569  -15.2218 C   0  0  0  0  0  0  0  0  0  0  0  0
  -20.2786    0.7120  -15.0089 C   0  0  0  0  0  0  0  0  0  0  0  0
  -21.3740    1.4013  -14.4721 C   0  0  0  0  0  0  0  0  0  0  0  0
  -21.2326    2.7419  -14.1487 C   0  0  0  0  0  0  0  0  0  0  0  0
  -20.0104    3.3745  -14.3484 C   0  0  0  0  0  0  0  0  0  0  0  0
  -22.5273    0.6868  -14.3915 O   0  0  0  0  0  0  0  0  0  0  0  0
  -22.7949   -0.0898  -13.2310 C   0  0  0  0  0  0  0  0  0  0  0  0
  -21.9551    0.1263  -12.1973 F   0  0  0  0  0  0  0  0  0  0  0  0
  -24.0582    0.1489  -12.8156 F   0  0  0  0  0  0  0  0  0  0  0  0
  -22.7004   -1.3945  -13.5670 F   0  0  0  0  0  0  0  0  0  0  0  0
  9 10  1  0  0  0
 10 11  2  0  0  0
 10 18  1  0  0  0
 11 12  1  0  0  0
 11 16  1  0  0  0
 12 13  2  0  0  0
 13 14  1  0  0  0
 14  7  1  0  0  0
 14 15  2  0  0  0
  7  8  1  0  0  0
  7  1  1  0  0  0
  1  2  1  0  0  0
  1  6  2  0  0  0
  2  3  2  0  0  0
  3  4  1  0  0  0
  4  5  2  0  0  0
  5 20  1  0  0  0
  5  6  1  0  0  0
 20 22  1  0  0  0
 20 21  1  0  0  0
 22 23  1  0  0  0
 22 27  2  0  0  0
 23 24  2  0  0  0
 24 25  1  0  0  0
 25 28  1  0  0  0
 25 26  2  0  0  0
 28 29  1  0  0  0
 29 30  1  0  0  0
 29 31  1  0  0  0
 29 32  1  0  0  0
 26 27  1  0  0  0
 15 16  1  0  0  0
 16 17  2  0  0  0
 17 18  1  0  0  0
 18 19  1  0  0  0
M  END
> <minimizedAffinity>
-9.40160

$$$$
