CHEMBL4216073


 35 38  0  0  0  0  0  0  0  0999 V2000
  -24.6006   -0.3638  -13.1671 C   0  0  0  0  0  0  0  0  0  0  0  0
  -24.9652   -0.4024  -11.8085 C   0  0  0  0  0  0  0  0  0  0  0  0
  -26.0611   -1.1502  -11.3705 C   0  0  0  0  0  0  0  0  0  0  0  0
  -26.8382   -1.8147  -12.3228 C   0  0  0  0  0  0  0  0  0  0  0  0
  -26.4664   -1.8115  -13.6733 C   0  0  0  0  0  0  0  0  0  0  0  0
  -25.3275   -1.1166  -14.1063 C   0  0  0  0  0  0  0  0  0  0  0  0
  -24.9091   -1.2021  -15.5497 C   0  0  0  0  0  0  0  0  0  0  0  0
  -19.3077    1.4081  -15.0957 C   0  0  0  0  0  0  0  0  0  0  0  0
  -20.0391    0.2460  -14.9850 C   0  0  0  0  0  0  0  0  0  0  0  0
  -21.2390    0.6258  -14.4293 N   0  0  0  0  0  0  0  0  0  0  0  0
  -22.3403   -0.1487  -14.0568 C   0  0  0  0  0  0  0  0  0  0  0  0
  -23.4337    0.4571  -13.5444 C   0  0  0  0  0  0  0  0  0  0  0  0
  -23.4193    1.9172  -13.4250 C   0  0  0  0  0  0  0  0  0  0  0  0
  -22.3451    2.6513  -13.7769 C   0  0  0  0  0  0  0  0  0  0  0  0
  -21.1899    2.0031  -14.2852 C   0  0  0  0  0  0  0  0  0  0  0  0
  -20.0276    2.4817  -14.6663 N   0  0  0  0  0  0  0  0  0  0  0  0
  -15.6366    1.6638  -15.6064 C   0  0  0  0  0  0  0  0  0  0  0  0
  -16.8938    1.3655  -14.8303 C   0  0  0  0  0  0  0  0  0  0  0  0
  -16.8232    1.0401  -13.6503 O   0  0  0  0  0  0  0  0  0  0  0  0
  -18.0329    1.5041  -15.6018 N   0  0  0  0  0  0  0  0  0  0  0  0
  -17.9448    1.6399  -16.5976 H   0  0  0  0  0  0  0  0  0  0  0  0
  -26.4207   -1.2859  -10.0066 N   0  0  0  0  0  0  0  0  0  0  0  0
  -27.6159   -1.8122   -9.5396 C   0  0  0  0  0  0  0  0  0  0  0  0
  -28.5404   -2.2321  -10.2270 O   0  0  0  0  0  0  0  0  0  0  0  0
  -25.8361   -0.7975   -9.3415 H   0  0  0  0  0  0  0  0  0  0  0  0
  -27.8176   -1.7992   -8.0627 C   0  0  0  0  0  0  0  0  0  0  0  0
  -27.8185   -2.9676   -7.2949 C   0  0  0  0  0  0  0  0  0  0  0  0
  -28.0920   -2.8979   -5.9256 C   0  0  0  0  0  0  0  0  0  0  0  0
  -28.3544   -1.6667   -5.3176 C   0  0  0  0  0  0  0  0  0  0  0  0
  -28.3425   -0.4833   -6.0687 C   0  0  0  0  0  0  0  0  0  0  0  0
  -28.0820   -0.5643   -7.4464 C   0  0  0  0  0  0  0  0  0  0  0  0
  -28.5987    0.8593   -5.4263 C   0  0  0  0  0  0  0  0  0  0  0  0
  -27.8130    1.0984   -4.3387 F   0  0  0  0  0  0  0  0  0  0  0  0
  -28.3692    1.8934   -6.2824 F   0  0  0  0  0  0  0  0  0  0  0  0
  -29.8820    1.0027   -4.9975 F   0  0  0  0  0  0  0  0  0  0  0  0
 17 18  1  0  0  0
 18 19  2  0  0  0
 18 20  1  0  0  0
 20  8  1  0  0  0
 20 21  1  0  0  0
  8  9  2  0  0  0
  8 16  1  0  0  0
  9 10  1  0  0  0
 10 11  1  0  0  0
 10 15  1  0  0  0
 11 12  2  0  0  0
 12  1  1  0  0  0
 12 13  1  0  0  0
  1  2  1  0  0  0
  1  6  2  0  0  0
  2  3  2  0  0  0
  3 22  1  0  0  0
  3  4  1  0  0  0
 22 23  1  0  0  0
 22 25  1  0  0  0
 23 24  2  0  0  0
 23 26  1  0  0  0
 26 27  1  0  0  0
 26 31  2  0  0  0
 27 28  2  0  0  0
 28 29  1  0  0  0
 29 30  2  0  0  0
 30 32  1  0  0  0
 30 31  1  0  0  0
 32 33  1  0  0  0
 32 34  1  0  0  0
 32 35  1  0  0  0
  4  5  2  0  0  0
  5  6  1  0  0  0
  6  7  1  0  0  0
 13 14  2  0  0  0
 14 15  1  0  0  0
 15 16  2  0  0  0
M  END
> <minimizedAffinity>
-11.09398

$$$$
