CHEMBL482621


 21 24  0  0  0  0  0  0  0  0999 V2000
  -22.9547   -0.9916  -11.2873 O   0  0  0  0  0  0  0  0  0  0  0  0
  -24.0924   -1.2454  -11.6346 C   0  0  0  0  0  0  0  0  0  0  0  0
  -25.0641   -1.7790  -10.8179 N   0  0  0  0  0  0  0  0  0  0  0  0
  -26.2706   -2.1116  -11.5223 C   0  0  0  0  0  0  0  0  0  0  0  0
  -25.9600   -1.6783  -12.9149 C   0  0  0  0  0  0  0  0  0  0  0  0
  -26.7717   -1.7556  -14.0341 C   0  0  0  0  0  0  0  0  0  0  0  0
  -26.2762   -1.2536  -15.2360 C   0  0  0  0  0  0  0  0  0  0  0  0
  -24.9998   -0.6630  -15.2962 C   0  0  0  0  0  0  0  0  0  0  0  0
  -24.1682   -0.5680  -14.1634 C   0  0  0  0  0  0  0  0  0  0  0  0
  -24.6734   -1.1194  -12.9877 C   0  0  0  0  0  0  0  0  0  0  0  0
  -24.8750   -1.9773   -9.8442 H   0  0  0  0  0  0  0  0  0  0  0  0
  -22.8924    0.1480  -14.2709 C   0  0  0  0  0  0  0  0  0  0  0  0
  -21.6472   -0.3048  -14.6809 C   0  0  0  0  0  0  0  0  0  0  0  0
  -20.7470    0.7941  -14.7128 C   0  0  0  0  0  0  0  0  0  0  0  0
  -19.4026    0.9511  -15.0980 C   0  0  0  0  0  0  0  0  0  0  0  0
  -18.8163    2.2204  -15.0247 C   0  0  0  0  0  0  0  0  0  0  0  0
  -19.5459    3.3166  -14.5681 C   0  0  0  0  0  0  0  0  0  0  0  0
  -20.8829    3.1825  -14.1836 C   0  0  0  0  0  0  0  0  0  0  0  0
  -21.4536    1.9089  -14.2762 C   0  0  0  0  0  0  0  0  0  0  0  0
  -22.7381    1.4936  -14.0142 N   0  0  0  0  0  0  0  0  0  0  0  0
  -23.4980    2.1220  -13.7776 H   0  0  0  0  0  0  0  0  0  0  0  0
  1  2  2  0  0  0
  2  3  1  0  0  0
  2 10  1  0  0  0
  3  4  1  0  0  0
  3 11  1  0  0  0
  4  5  1  0  0  0
  5  6  1  0  0  0
  5 10  2  0  0  0
  6  7  2  0  0  0
  7  8  1  0  0  0
  8  9  2  0  0  0
  9 12  1  0  0  0
  9 10  1  0  0  0
 12 13  2  0  0  0
 12 20  1  0  0  0
 13 14  1  0  0  0
 14 15  1  0  0  0
 14 19  2  0  0  0
 15 16  2  0  0  0
 16 17  1  0  0  0
 17 18  2  0  0  0
 18 19  1  0  0  0
 19 20  1  0  0  0
 20 21  1  0  0  0
M  END
> <minimizedAffinity>
-9.08933

$$$$
