CHEMBL3948208


 38 41  0  0  0  0  0  0  0  0999 V2000
  -28.1178   -9.1304   -7.7028 C   0  0  0  0  0  0  0  0  0  0  0  0
  -28.4902   -8.1822   -6.5974 C   0  0  0  0  0  0  0  0  0  0  0  0
  -29.0337   -6.9420   -7.0269 C   0  0  0  0  0  0  0  0  0  0  0  0
  -29.5104   -6.0346   -6.0991 C   0  0  0  0  0  0  0  0  0  0  0  0
  -29.4650   -6.2775   -4.7822 N   0  0  0  0  0  0  0  0  0  0  0  0
  -28.8675   -7.4232   -4.3773 C   0  0  0  0  0  0  0  0  0  0  0  0
  -28.3629   -8.4302   -5.2127 C   0  0  0  0  0  0  0  0  0  0  0  0
  -27.7695   -9.6145   -4.6588 N   0  0  0  0  0  0  0  0  0  0  0  0
  -26.3887   -9.8006   -4.5456 C   0  0  0  0  0  0  0  0  0  0  0  0
  -25.5452   -8.9925   -4.9160 O   0  0  0  0  0  0  0  0  0  0  0  0
  -26.0164  -11.0348   -4.0312 N   0  0  0  0  0  0  0  0  0  0  0  0
  -28.3804  -10.3757   -4.3983 H   0  0  0  0  0  0  0  0  0  0  0  0
  -26.5830  -11.8124   -4.3450 H   0  0  0  0  0  0  0  0  0  0  0  0
  -24.6206  -11.3386   -3.9088 C   0  0  0  0  0  0  0  0  0  0  0  0
  -23.7816  -11.4175   -5.0306 C   0  0  0  0  0  0  0  0  0  0  0  0
  -22.4030  -11.6829   -4.8915 C   0  0  0  0  0  0  0  0  0  0  0  0
  -21.8764  -11.8961   -3.6064 C   0  0  0  0  0  0  0  0  0  0  0  0
  -22.7111  -11.8475   -2.4883 C   0  0  0  0  0  0  0  0  0  0  0  0
  -24.0679  -11.5612   -2.6454 C   0  0  0  0  0  0  0  0  0  0  0  0
  -24.8588  -11.5457   -1.5619 F   0  0  0  0  0  0  0  0  0  0  0  0
  -21.4869  -11.6982   -6.0957 C   0  0  0  0  0  0  0  0  0  0  0  0
  -20.3726  -12.4616   -5.9249 F   0  0  0  0  0  0  0  0  0  0  0  0
  -22.1094  -12.1963   -7.2014 F   0  0  0  0  0  0  0  0  0  0  0  0
  -21.0461  -10.4589   -6.4457 F   0  0  0  0  0  0  0  0  0  0  0  0
  -30.0890   -4.8476   -6.5549 O   0  0  0  0  0  0  0  0  0  0  0  0
  -29.2423   -3.8046   -6.8750 C   0  0  0  0  0  0  0  0  0  0  0  0
  -28.4565   -3.1774   -5.9063 C   0  0  0  0  0  0  0  0  0  0  0  0
  -27.6779   -2.1232   -6.2967 C   0  0  0  0  0  0  0  0  0  0  0  0
  -27.5720   -1.7067   -7.5686 N   0  0  0  0  0  0  0  0  0  0  0  0
  -28.2774   -2.3332   -8.5180 C   0  0  0  0  0  0  0  0  0  0  0  0
  -29.1281   -3.4031   -8.2178 C   0  0  0  0  0  0  0  0  0  0  0  0
  -28.1463   -1.8758   -9.8516 N   0  0  0  0  0  0  0  0  0  0  0  0
  -26.9154   -1.6841  -10.4721 C   0  0  0  0  0  0  0  0  0  0  0  0
  -25.8042   -1.8696  -10.0110 O   0  0  0  0  0  0  0  0  0  0  0  0
  -28.9839   -1.6430  -10.3550 H   0  0  0  0  0  0  0  0  0  0  0  0
  -26.9503   -1.1647  -11.8743 C   0  0  0  0  0  0  0  0  0  0  0  0
  -27.4451   -2.0790  -12.9698 C   0  0  0  0  0  0  0  0  0  0  0  0
  -26.0504   -1.5241  -13.0201 C   0  0  0  0  0  0  0  0  0  0  0  0
  1  2  1  0  0  0
  2  3  1  0  0  0
  2  7  2  0  0  0
  3  4  2  0  0  0
  4 25  1  0  0  0
  4  5  1  0  0  0
 25 26  1  0  0  0
 26 27  1  0  0  0
 26 31  2  0  0  0
 27 28  2  0  0  0
 28 29  1  0  0  0
 29 30  2  0  0  0
 30 32  1  0  0  0
 30 31  1  0  0  0
 32 33  1  0  0  0
 32 35  1  0  0  0
 33 34  2  0  0  0
 33 36  1  0  0  0
 36 37  1  0  0  0
 36 38  1  0  0  0
 37 38  1  0  0  0
  5  6  2  0  0  0
  6  7  1  0  0  0
  7  8  1  0  0  0
  8  9  1  0  0  0
  8 12  1  0  0  0
  9 10  2  0  0  0
  9 11  1  0  0  0
 11 14  1  0  0  0
 11 13  1  0  0  0
 14 15  1  0  0  0
 14 19  2  0  0  0
 15 16  2  0  0  0
 16 21  1  0  0  0
 16 17  1  0  0  0
 21 22  1  0  0  0
 21 23  1  0  0  0
 21 24  1  0  0  0
 17 18  2  0  0  0
 18 19  1  0  0  0
 19 20  1  0  0  0
M  END
> <minimizedAffinity>
-9.72683

$$$$
