CHEMBL2031896


 40 44  0  0  0  0  0  0  0  0999 V2000
  -14.7086   -1.9624  -12.5930 C   0  0  0  0  0  0  0  0  0  0  0  0
  -13.7349   -2.2397  -13.5532 C   0  0  0  0  0  0  0  0  0  0  0  0
  -13.3683   -1.2714  -14.5112 C   0  0  0  0  0  0  0  0  0  0  0  0
  -13.9779   -0.0092  -14.5503 C   0  0  0  0  0  0  0  0  0  0  0  0
  -14.9743    0.2523  -13.6045 C   0  0  0  0  0  0  0  0  0  0  0  0
  -15.3347   -0.7139  -12.6460 C   0  0  0  0  0  0  0  0  0  0  0  0
  -16.3073   -0.4004  -11.7781 F   0  0  0  0  0  0  0  0  0  0  0  0
  -13.6700    0.9934  -15.5200 N   0  0  0  0  0  0  0  0  0  0  0  0
  -14.5413    1.4975  -16.4735 C   0  0  0  0  0  0  0  0  0  0  0  0
  -15.6622    1.0366  -16.6775 O   0  0  0  0  0  0  0  0  0  0  0  0
  -12.7203    1.3660  -15.5164 H   0  0  0  0  0  0  0  0  0  0  0  0
  -14.0709    2.6688  -17.2685 C   0  0  0  0  0  0  0  0  0  0  0  0
  -13.4380    2.6599  -18.4660 C   0  0  0  0  0  0  0  0  0  0  0  0
  -12.8770    1.4822  -19.2024 C   0  0  0  0  0  0  0  0  0  0  0  0
  -13.3323    3.9398  -19.0218 N   0  0  0  0  0  0  0  0  0  0  0  0
  -12.3601    4.3601  -20.0297 C   0  0  0  0  0  0  0  0  0  0  0  0
  -13.6901    4.8407  -18.0124 N   0  0  0  0  0  0  0  0  0  0  0  0
  -14.2040    4.1183  -16.9258 C   0  0  0  0  0  0  0  0  0  0  0  0
  -14.6873    4.5172  -15.8773 O   0  0  0  0  0  0  0  0  0  0  0  0
  -13.7802    6.2279  -18.2145 C   0  0  0  0  0  0  0  0  0  0  0  0
  -12.7735    7.0574  -17.7112 C   0  0  0  0  0  0  0  0  0  0  0  0
  -12.7923    8.4322  -17.9741 C   0  0  0  0  0  0  0  0  0  0  0  0
  -13.8343    8.9930  -18.6977 C   0  0  0  0  0  0  0  0  0  0  0  0
  -14.8615    8.1753  -19.1934 C   0  0  0  0  0  0  0  0  0  0  0  0
  -14.8180    6.7919  -18.9707 C   0  0  0  0  0  0  0  0  0  0  0  0
  -15.0354   -2.9941  -11.7282 O   0  0  0  0  0  0  0  0  0  0  0  0
  -12.4142   -6.2819  -10.8854 C   0  0  0  0  0  0  0  0  0  0  0  0
  -13.3565   -5.2365  -11.0291 C   0  0  0  0  0  0  0  0  0  0  0  0
  -14.4888   -5.3480  -11.8672 C   0  0  0  0  0  0  0  0  0  0  0  0
  -15.3344   -4.2566  -12.2201 C   0  0  0  0  0  0  0  0  0  0  0  0
  -16.4475   -4.4830  -13.0202 C   0  0  0  0  0  0  0  0  0  0  0  0
  -16.6315   -5.7564  -13.5183 C   0  0  0  0  0  0  0  0  0  0  0  0
  -15.8250   -6.8031  -13.2438 N   0  0  0  0  0  0  0  0  0  0  0  0
  -14.7690   -6.6017  -12.4376 C   0  0  0  0  0  0  0  0  0  0  0  0
  -13.9051   -7.6632  -12.1896 C   0  0  0  0  0  0  0  0  0  0  0  0
  -12.7324   -7.5320  -11.4303 C   0  0  0  0  0  0  0  0  0  0  0  0
  -11.0825   -5.8769   -8.7459 C   0  0  0  0  0  0  0  0  0  0  0  0
  -11.0655   -5.9696  -10.2712 C   0  0  0  0  0  0  0  0  0  0  0  0
  -11.9512   -8.6580  -11.4418 O   0  0  0  0  0  0  0  0  0  0  0  0
  -12.3484   -9.7494  -12.2638 C   0  0  0  0  0  0  0  0  0  0  0  0
 37 38  1  0  0  0
 38 27  1  0  0  0
 27 28  1  0  0  0
 27 36  2  0  0  0
 28 29  2  0  0  0
 29 30  1  0  0  0
 29 34  1  0  0  0
 30 26  1  0  0  0
 30 31  2  0  0  0
 26  1  1  0  0  0
  1  2  1  0  0  0
  1  6  2  0  0  0
  2  3  2  0  0  0
  3  4  1  0  0  0
  4  8  1  0  0  0
  4  5  2  0  0  0
  8  9  1  0  0  0
  8 11  1  0  0  0
  9 10  2  0  0  0
  9 12  1  0  0  0
 12 13  2  0  0  0
 12 18  1  0  0  0
 13 14  1  0  0  0
 13 15  1  0  0  0
 15 16  1  0  0  0
 15 17  1  0  0  0
 17 20  1  0  0  0
 17 18  1  0  0  0
 20 21  1  0  0  0
 20 25  2  0  0  0
 21 22  2  0  0  0
 22 23  1  0  0  0
 23 24  2  0  0  0
 24 25  1  0  0  0
 18 19  2  0  0  0
  5  6  1  0  0  0
  6  7  1  0  0  0
 31 32  1  0  0  0
 32 33  2  0  0  0
 33 34  1  0  0  0
 34 35  2  0  0  0
 35 36  1  0  0  0
 36 39  1  0  0  0
 39 40  1  0  0  0
M  END
> <minimizedAffinity>
-7.54938

$$$$
