CHEMBL246150


 35 38  0  0  0  0  0  0  0  0999 V2000
  -29.3917   -3.6357   -7.1756 C   0  0  0  0  0  0  0  0  0  0  0  0
  -28.9539   -2.7897   -6.1511 C   0  0  0  0  0  0  0  0  0  0  0  0
  -28.0768   -1.7513   -6.4313 C   0  0  0  0  0  0  0  0  0  0  0  0
  -27.5594   -1.6107   -7.7138 C   0  0  0  0  0  0  0  0  0  0  0  0
  -27.8643   -2.5294   -8.7269 C   0  0  0  0  0  0  0  0  0  0  0  0
  -28.8164   -3.5324   -8.4564 C   0  0  0  0  0  0  0  0  0  0  0  0
  -27.2381   -2.4709  -10.0039 N   0  0  0  0  0  0  0  0  0  0  0  0
  -27.5468   -1.5402  -10.9953 C   0  0  0  0  0  0  0  0  0  0  0  0
  -28.3656   -0.6295  -10.8939 O   0  0  0  0  0  0  0  0  0  0  0  0
  -26.4163   -3.0443  -10.1329 H   0  0  0  0  0  0  0  0  0  0  0  0
  -26.7945   -1.6110  -12.2814 C   0  0  0  0  0  0  0  0  0  0  0  0
  -27.4064   -1.7831  -13.5234 C   0  0  0  0  0  0  0  0  0  0  0  0
  -26.6278   -1.7497  -14.6877 C   0  0  0  0  0  0  0  0  0  0  0  0
  -25.2456   -1.5299  -14.6171 C   0  0  0  0  0  0  0  0  0  0  0  0
  -24.6131   -1.3407  -13.3833 C   0  0  0  0  0  0  0  0  0  0  0  0
  -25.4050   -1.3917  -12.2236 C   0  0  0  0  0  0  0  0  0  0  0  0
  -23.1318   -1.0223  -13.2508 C   0  0  0  0  0  0  0  0  0  0  0  0
  -22.7051    0.1996  -14.0666 C   0  0  0  0  0  0  0  0  0  0  0  0
  -22.7217   -0.8639  -11.7842 C   0  0  0  0  0  0  0  0  0  0  0  0
  -30.3490   -4.6153   -6.9452 O   0  0  0  0  0  0  0  0  0  0  0  0
  -29.9539   -6.6929   -5.7392 C   0  0  0  0  0  0  0  0  0  0  0  0
  -29.8156   -7.2822   -4.4628 C   0  0  0  0  0  0  0  0  0  0  0  0
  -29.9590   -6.5391   -3.2942 C   0  0  0  0  0  0  0  0  0  0  0  0
  -30.3032   -5.2129   -3.4121 C   0  0  0  0  0  0  0  0  0  0  0  0
  -30.4949   -4.6051   -4.5949 N   0  0  0  0  0  0  0  0  0  0  0  0
  -30.2723   -5.3184   -5.7336 C   0  0  0  0  0  0  0  0  0  0  0  0
  -28.3674   -8.2714   -8.8100 C   0  0  0  0  0  0  0  0  0  0  0  0
  -28.5664   -7.4424   -7.7081 C   0  0  0  0  0  0  0  0  0  0  0  0
  -29.7407   -7.5222   -6.9509 C   0  0  0  0  0  0  0  0  0  0  0  0
  -30.7240   -8.4056   -7.4215 C   0  0  0  0  0  0  0  0  0  0  0  0
  -30.4742   -9.1605   -8.5554 C   0  0  0  0  0  0  0  0  0  0  0  0
  -29.3154   -9.1232   -9.2383 N   0  0  0  0  0  0  0  0  0  0  0  0
  -26.9492   -9.3455  -10.4745 C   0  0  0  0  0  0  0  0  0  0  0  0
  -27.2150   -8.2433   -9.5780 N   0  0  0  0  0  0  0  0  0  0  0  0
  -27.1625   -7.3142   -9.9908 H   0  0  0  0  0  0  0  0  0  0  0  0
 33 34  1  0  0  0
 34 27  1  0  0  0
 34 35  1  0  0  0
 27 28  1  0  0  0
 27 32  2  0  0  0
 28 29  2  0  0  0
 29 21  1  0  0  0
 29 30  1  0  0  0
 21 22  1  0  0  0
 21 26  2  0  0  0
 22 23  2  0  0  0
 23 24  1  0  0  0
 24 25  2  0  0  0
 25 26  1  0  0  0
 26 20  1  0  0  0
 20  1  1  0  0  0
  1  2  1  0  0  0
  1  6  2  0  0  0
  2  3  2  0  0  0
  3  4  1  0  0  0
  4  5  2  0  0  0
  5  7  1  0  0  0
  5  6  1  0  0  0
  7  8  1  0  0  0
  7 10  1  0  0  0
  8  9  2  0  0  0
  8 11  1  0  0  0
 11 12  1  0  0  0
 11 16  2  0  0  0
 12 13  2  0  0  0
 13 14  1  0  0  0
 14 15  2  0  0  0
 15 17  1  0  0  0
 15 16  1  0  0  0
 17 18  1  0  0  0
 17 19  1  0  0  0
 30 31  2  0  0  0
 31 32  1  0  0  0
M  END
> <minimizedAffinity>
-10.65728

$$$$
