CHEMBL3983941


 43 45  0  0  0  0  0  0  0  0999 V2000
  -29.5255   -5.9406   -7.2237 C   0  0  0  0  0  0  0  0  0  0  0  0
  -29.0901   -4.8341   -7.3968 C   0  0  0  0  0  0  0  0  0  0  0  0
  -29.8282   -9.5624   -6.3890 C   0  0  0  0  0  0  0  0  0  0  0  0
  -31.1641   -9.7360   -6.7336 C   0  0  0  0  0  0  0  0  0  0  0  0
  -31.9531   -8.7479   -7.2277 N   0  0  0  0  0  0  0  0  0  0  0  0
  -31.3781   -7.5307   -7.3742 C   0  0  0  0  0  0  0  0  0  0  0  0
  -30.0557   -7.2541   -7.0485 C   0  0  0  0  0  0  0  0  0  0  0  0
  -29.2657   -8.2913   -6.5524 C   0  0  0  0  0  0  0  0  0  0  0  0
  -29.1126  -10.9266   -4.6521 O   0  0  0  0  0  0  0  0  0  0  0  0
  -29.0473  -10.7141   -5.8593 C   0  0  0  0  0  0  0  0  0  0  0  0
  -28.3495  -11.5688   -6.7342 N   0  0  0  0  0  0  0  0  0  0  0  0
  -26.9097  -11.2314   -7.1686 S   0  0  0  0  0  0  0  0  0  0  0  0
  -26.4625   -9.8982   -7.5219 O   0  0  0  0  0  0  0  0  0  0  0  0
  -25.7953  -11.8431   -5.9060 C   0  0  0  0  0  0  0  0  0  0  0  0
  -25.4880  -10.7773   -4.8563 C   0  0  0  0  0  0  0  0  0  0  0  0
  -24.0714  -10.2422   -4.9788 C   0  0  0  0  0  0  0  0  0  0  0  0
  -23.9597   -9.3789   -6.0982 O   0  0  0  0  0  0  0  0  0  0  0  0
  -24.2646   -9.8648   -6.8853 H   0  0  0  0  0  0  0  0  0  0  0  0
  -26.5515  -12.2780   -8.5797 C   0  0  0  0  0  0  0  0  0  0  0  0
  -27.6831  -12.3157   -9.6018 C   0  0  0  0  0  0  0  0  0  0  0  0
  -27.8416  -11.0225  -10.3940 C   0  0  0  0  0  0  0  0  0  0  0  0
  -26.5609  -10.4429  -10.6176 O   0  0  0  0  0  0  0  0  0  0  0  0
  -26.2109  -10.1588   -9.7570 H   0  0  0  0  0  0  0  0  0  0  0  0
  -28.5583   -3.5333   -7.6595 C   0  0  0  0  0  0  0  0  0  0  0  0
  -28.7427   -2.5250   -6.7176 C   0  0  0  0  0  0  0  0  0  0  0  0
  -28.2091   -1.2623   -6.9457 C   0  0  0  0  0  0  0  0  0  0  0  0
  -27.4922   -1.0136   -8.1171 C   0  0  0  0  0  0  0  0  0  0  0  0
  -27.2937   -2.0140   -9.0762 C   0  0  0  0  0  0  0  0  0  0  0  0
  -27.8428   -3.2812   -8.8400 C   0  0  0  0  0  0  0  0  0  0  0  0
  -26.5630   -1.8109  -10.2741 N   0  0  0  0  0  0  0  0  0  0  0  0
  -27.1147   -1.6265  -11.5318 C   0  0  0  0  0  0  0  0  0  0  0  0
  -28.3161   -1.5797  -11.7887 O   0  0  0  0  0  0  0  0  0  0  0  0
  -25.5577   -1.7471  -10.1790 H   0  0  0  0  0  0  0  0  0  0  0  0
  -26.1927   -1.4658  -12.6903 C   0  0  0  0  0  0  0  0  0  0  0  0
  -26.5588   -1.7035  -14.0178 C   0  0  0  0  0  0  0  0  0  0  0  0
  -25.6616   -1.4002  -15.0488 C   0  0  0  0  0  0  0  0  0  0  0  0
  -24.4137   -0.8362  -14.7635 C   0  0  0  0  0  0  0  0  0  0  0  0
  -24.0374   -0.5765  -13.4406 C   0  0  0  0  0  0  0  0  0  0  0  0
  -24.9243   -0.9247  -12.4134 C   0  0  0  0  0  0  0  0  0  0  0  0
  -22.7451    0.1226  -13.0973 C   0  0  0  0  0  0  0  0  0  0  0  0
  -22.8447    1.4808  -13.1045 F   0  0  0  0  0  0  0  0  0  0  0  0
  -22.2942   -0.2086  -11.8551 F   0  0  0  0  0  0  0  0  0  0  0  0
  -21.7356   -0.1845  -13.9567 F   0  0  0  0  0  0  0  0  0  0  0  0
  9 10  2  0  0  0
 10 11  1  0  0  0
 10  3  1  0  0  0
 11 12  2  0  0  0
 12 13  2  0  0  0
 12 14  1  0  0  0
 12 19  1  0  0  0
 14 15  1  0  0  0
 15 16  1  0  0  0
 16 17  1  0  0  0
 17 18  1  0  0  0
 19 20  1  0  0  0
 20 21  1  0  0  0
 21 22  1  0  0  0
 22 23  1  0  0  0
  3  4  1  0  0  0
  3  8  2  0  0  0
  4  5  2  0  0  0
  5  6  1  0  0  0
  6  7  2  0  0  0
  7  1  1  0  0  0
  7  8  1  0  0  0
  1  2  3  0  0  0
  2 24  1  0  0  0
 24 25  1  0  0  0
 24 29  2  0  0  0
 25 26  2  0  0  0
 26 27  1  0  0  0
 27 28  2  0  0  0
 28 30  1  0  0  0
 28 29  1  0  0  0
 30 31  1  0  0  0
 30 33  1  0  0  0
 31 32  2  0  0  0
 31 34  1  0  0  0
 34 35  1  0  0  0
 34 39  2  0  0  0
 35 36  2  0  0  0
 36 37  1  0  0  0
 37 38  2  0  0  0
 38 40  1  0  0  0
 38 39  1  0  0  0
 40 41  1  0  0  0
 40 42  1  0  0  0
 40 43  1  0  0  0
M  END
> <minimizedAffinity>
-9.25434

$$$$
