CHEMBL3690555


 37 40  0  0  0  0  0  0  0  0999 V2000
  -23.4710    0.0619  -13.6782 C   0  0  0  0  0  0  0  0  0  0  0  0
  -22.2634   -0.6698  -14.0850 C   0  0  0  0  0  0  0  0  0  0  0  0
  -21.1447   -0.0028  -14.4208 C   0  0  0  0  0  0  0  0  0  0  0  0
  -21.1205    1.3926  -14.3535 N   0  0  0  0  0  0  0  0  0  0  0  0
  -20.1087    2.3172  -14.5981 C   0  0  0  0  0  0  0  0  0  0  0  0
  -20.7346    3.5456  -14.4190 C   0  0  0  0  0  0  0  0  0  0  0  0
  -22.0414    3.4199  -14.0501 N   0  0  0  0  0  0  0  0  0  0  0  0
  -22.2504    2.1261  -13.9973 C   0  0  0  0  0  0  0  0  0  0  0  0
  -23.4294    1.4154  -13.6441 C   0  0  0  0  0  0  0  0  0  0  0  0
  -26.0516   -1.3900  -11.5656 C   0  0  0  0  0  0  0  0  0  0  0  0
  -27.0078   -1.8118  -12.4055 N   0  0  0  0  0  0  0  0  0  0  0  0
  -26.7917   -1.6431  -13.7101 C   0  0  0  0  0  0  0  0  0  0  0  0
  -27.7678   -2.1099  -14.5872 N   0  0  0  0  0  0  0  0  0  0  0  0
  -25.6391   -1.0787  -14.1988 C   0  0  0  0  0  0  0  0  0  0  0  0
  -24.7216   -0.6317  -13.2673 C   0  0  0  0  0  0  0  0  0  0  0  0
  -24.9050   -0.7942  -11.9419 N   0  0  0  0  0  0  0  0  0  0  0  0
  -28.5600   -2.4263  -14.0313 H   0  0  0  0  0  0  0  0  0  0  0  0
  -28.0420   -1.4132  -15.2716 H   0  0  0  0  0  0  0  0  0  0  0  0
  -28.1853   -1.6679   -9.8250 C   0  0  0  0  0  0  0  0  0  0  0  0
  -26.3790   -1.6619   -9.8394 S   0  0  0  0  0  0  0  0  0  0  0  0
  -18.7167    2.0621  -14.9960 C   0  0  0  0  0  0  0  0  0  0  0  0
  -18.0392    3.0511  -15.7247 C   0  0  0  0  0  0  0  0  0  0  0  0
  -16.7123    2.8798  -16.1032 C   0  0  0  0  0  0  0  0  0  0  0  0
  -16.0357    1.7128  -15.7578 C   0  0  0  0  0  0  0  0  0  0  0  0
  -16.6652    0.7174  -15.0101 C   0  0  0  0  0  0  0  0  0  0  0  0
  -18.0072    0.9035  -14.6291 C   0  0  0  0  0  0  0  0  0  0  0  0
  -16.0155   -0.4753  -14.6137 N   0  0  0  0  0  0  0  0  0  0  0  0
  -15.6253   -0.8072  -13.3322 C   0  0  0  0  0  0  0  0  0  0  0  0
  -15.7979   -0.1506  -12.3137 O   0  0  0  0  0  0  0  0  0  0  0  0
  -14.9376   -1.9995  -13.2863 N   0  0  0  0  0  0  0  0  0  0  0  0
  -15.8105   -1.1458  -15.3347 H   0  0  0  0  0  0  0  0  0  0  0  0
  -15.1929   -2.6964  -13.9704 H   0  0  0  0  0  0  0  0  0  0  0  0
  -14.5023   -2.4905  -11.9704 C   0  0  0  0  0  0  0  0  0  0  0  0
  -15.5539   -3.2688  -11.1647 C   0  0  0  0  0  0  0  0  0  0  0  0
  -15.0212   -4.3451  -10.5415 F   0  0  0  0  0  0  0  0  0  0  0  0
  -16.0694   -2.4726  -10.1936 F   0  0  0  0  0  0  0  0  0  0  0  0
  -16.5846   -3.6880  -11.9267 F   0  0  0  0  0  0  0  0  0  0  0  0
 19 20  1  0  0  0
 20 10  1  0  0  0
 10 11  1  0  0  0
 10 16  2  0  0  0
 11 12  2  0  0  0
 12 13  1  0  0  0
 12 14  1  0  0  0
 13 17  1  0  0  0
 13 18  1  0  0  0
 14 15  2  0  0  0
 15  1  1  0  0  0
 15 16  1  0  0  0
  1  2  1  0  0  0
  1  9  2  0  0  0
  2  3  2  0  0  0
  3  4  1  0  0  0
  4  5  1  0  0  0
  4  8  1  0  0  0
  5 21  1  0  0  0
  5  6  2  0  0  0
 21 22  1  0  0  0
 21 26  2  0  0  0
 22 23  2  0  0  0
 23 24  1  0  0  0
 24 25  2  0  0  0
 25 27  1  0  0  0
 25 26  1  0  0  0
 27 28  1  0  0  0
 27 31  1  0  0  0
 28 29  2  0  0  0
 28 30  1  0  0  0
 30 33  1  0  0  0
 30 32  1  0  0  0
 33 34  1  0  0  0
 34 35  1  0  0  0
 34 36  1  0  0  0
 34 37  1  0  0  0
  6  7  1  0  0  0
  7  8  2  0  0  0
  8  9  1  0  0  0
M  END
> <minimizedAffinity>
-9.86135

$$$$
