CHEMBL1998112


 32 35  0  0  0  0  0  0  0  0999 V2000
  -27.6226   -1.8271   -8.7738 C   0  0  0  0  0  0  0  0  0  0  0  0
  -27.5492   -0.7541   -7.9668 C   0  0  0  0  0  0  0  0  0  0  0  0
  -28.1448   -0.8213   -6.6939 C   0  0  0  0  0  0  0  0  0  0  0  0
  -28.2226    0.0668   -5.7241 N   0  0  0  0  0  0  0  0  0  0  0  0
  -28.9370   -0.5460   -4.7306 C   0  0  0  0  0  0  0  0  0  0  0  0
  -29.2922   -1.8245   -5.0952 C   0  0  0  0  0  0  0  0  0  0  0  0
  -28.7889   -1.9957   -6.3649 N   0  0  0  0  0  0  0  0  0  0  0  0
  -28.8768   -3.0878   -7.2577 C   0  0  0  0  0  0  0  0  0  0  0  0
  -28.2870   -2.9838   -8.4184 N   0  0  0  0  0  0  0  0  0  0  0  0
  -25.9658   -1.6782  -12.7778 C   0  0  0  0  0  0  0  0  0  0  0  0
  -27.3472   -1.6565  -12.5609 C   0  0  0  0  0  0  0  0  0  0  0  0
  -27.8691   -1.7034  -11.2626 C   0  0  0  0  0  0  0  0  0  0  0  0
  -27.0325   -1.7894  -10.1412 C   0  0  0  0  0  0  0  0  0  0  0  0
  -25.6523   -1.8601  -10.3720 C   0  0  0  0  0  0  0  0  0  0  0  0
  -25.1141   -1.7774  -11.6667 C   0  0  0  0  0  0  0  0  0  0  0  0
  -26.2254   -1.2202  -15.0976 C   0  0  0  0  0  0  0  0  0  0  0  0
  -25.4083   -1.6826  -14.0285 O   0  0  0  0  0  0  0  0  0  0  0  0
  -23.7434   -1.8498  -11.6849 O   0  0  0  0  0  0  0  0  0  0  0  0
  -23.0559   -0.6475  -12.0087 C   0  0  0  0  0  0  0  0  0  0  0  0
  -29.6054   -4.1998   -6.8625 N   0  0  0  0  0  0  0  0  0  0  0  0
  -30.6185   -4.1746   -6.9993 H   0  0  0  0  0  0  0  0  0  0  0  0
  -29.1319   -5.5430   -6.7980 C   0  0  0  0  0  0  0  0  0  0  0  0
  -29.1313   -6.3725   -7.9336 C   0  0  0  0  0  0  0  0  0  0  0  0
  -28.7784   -7.7195   -7.8687 C   0  0  0  0  0  0  0  0  0  0  0  0
  -28.3585   -8.2635   -6.6666 C   0  0  0  0  0  0  0  0  0  0  0  0
  -28.2882   -7.4595   -5.5299 C   0  0  0  0  0  0  0  0  0  0  0  0
  -28.6776   -6.1048   -5.5730 C   0  0  0  0  0  0  0  0  0  0  0  0
  -28.6439   -5.2608   -4.3329 C   0  0  0  0  0  0  0  0  0  0  0  0
  -27.4415   -4.8198   -3.8526 N   0  0  0  0  0  0  0  0  0  0  0  0
  -29.6767   -4.9667   -3.7357 O   0  0  0  0  0  0  0  0  0  0  0  0
  -26.5367   -5.0344   -4.2333 H   0  0  0  0  0  0  0  0  0  0  0  0
  -27.4620   -4.2722   -3.0005 H   0  0  0  0  0  0  0  0  0  0  0  0
 16 17  1  0  0  0
 17 10  1  0  0  0
 10 11  1  0  0  0
 10 15  2  0  0  0
 11 12  2  0  0  0
 12 13  1  0  0  0
 13  1  1  0  0  0
 13 14  2  0  0  0
  1  2  2  0  0  0
  1  9  1  0  0  0
  2  3  1  0  0  0
  3  4  2  0  0  0
  3  7  1  0  0  0
  4  5  1  0  0  0
  5  6  2  0  0  0
  6  7  1  0  0  0
  7  8  1  0  0  0
  8 20  1  0  0  0
  8  9  2  0  0  0
 20 22  1  0  0  0
 20 21  1  0  0  0
 22 23  1  0  0  0
 22 27  2  0  0  0
 23 24  2  0  0  0
 24 25  1  0  0  0
 25 26  2  0  0  0
 26 27  1  0  0  0
 27 28  1  0  0  0
 28 29  1  0  0  0
 28 30  2  0  0  0
 29 31  1  0  0  0
 29 32  1  0  0  0
 14 15  1  0  0  0
 15 18  1  0  0  0
 18 19  1  0  0  0
M  END
> <minimizedAffinity>
-8.37234

$$$$
