CHEMBL3656049


 33 36  0  0  0  0  0  0  0  0999 V2000
  -23.0376   -1.2960  -13.1464 O   0  0  0  0  0  0  0  0  0  0  0  0
  -20.9883    1.4882  -14.4371 C   0  0  0  0  0  0  0  0  0  0  0  0
  -21.3755    0.1835  -14.1584 C   0  0  0  0  0  0  0  0  0  0  0  0
  -22.5975   -0.0446  -13.5365 C   0  0  0  0  0  0  0  0  0  0  0  0
  -23.4496    1.0334  -13.3272 C   0  0  0  0  0  0  0  0  0  0  0  0
  -23.0016    2.2998  -13.6798 C   0  0  0  0  0  0  0  0  0  0  0  0
  -21.7807    2.5580  -14.2097 N   0  0  0  0  0  0  0  0  0  0  0  0
  -17.4489    1.7130  -15.5607 C   0  0  0  0  0  0  0  0  0  0  0  0
  -17.9671    2.9581  -15.8705 C   0  0  0  0  0  0  0  0  0  0  0  0
  -19.2920    2.9804  -15.5076 N   0  0  0  0  0  0  0  0  0  0  0  0
  -19.6549    1.7704  -14.9576 C   0  0  0  0  0  0  0  0  0  0  0  0
  -18.5228    0.9766  -14.9915 C   0  0  0  0  0  0  0  0  0  0  0  0
  -19.9294    3.7617  -15.6092 H   0  0  0  0  0  0  0  0  0  0  0  0
  -16.0942    1.2097  -15.7448 C   0  0  0  0  0  0  0  0  0  0  0  0
  -15.4234    1.4801  -16.7319 O   0  0  0  0  0  0  0  0  0  0  0  0
  -14.5601    0.9592  -14.0088 C   0  0  0  0  0  0  0  0  0  0  0  0
  -15.6681    0.4102  -14.7243 O   0  0  0  0  0  0  0  0  0  0  0  0
  -24.3966   -1.5332  -13.0218 C   0  0  0  0  0  0  0  0  0  0  0  0
  -25.2671   -1.6080  -14.1136 C   0  0  0  0  0  0  0  0  0  0  0  0
  -26.6342   -1.7504  -13.9064 C   0  0  0  0  0  0  0  0  0  0  0  0
  -27.1275   -1.9429  -12.6177 C   0  0  0  0  0  0  0  0  0  0  0  0
  -26.2605   -2.0237  -11.5258 C   0  0  0  0  0  0  0  0  0  0  0  0
  -24.8922   -1.7683  -11.7298 C   0  0  0  0  0  0  0  0  0  0  0  0
  -26.7031   -2.3731  -10.2300 N   0  0  0  0  0  0  0  0  0  0  0  0
  -27.6983   -1.7373   -9.4845 C   0  0  0  0  0  0  0  0  0  0  0  0
  -28.3106   -0.7458   -9.8722 O   0  0  0  0  0  0  0  0  0  0  0  0
  -26.3682   -3.2482   -9.8490 H   0  0  0  0  0  0  0  0  0  0  0  0
  -28.0215   -2.3713   -8.1978 C   0  0  0  0  0  0  0  0  0  0  0  0
  -28.4412   -4.0375   -8.1150 S   0  0  0  0  0  0  0  0  0  0  0  0
  -28.6789   -3.9777   -6.4309 C   0  0  0  0  0  0  0  0  0  0  0  0
  -28.4282   -2.7247   -5.9223 C   0  0  0  0  0  0  0  0  0  0  0  0
  -28.0441   -1.7807   -6.9348 C   0  0  0  0  0  0  0  0  0  0  0  0
  -27.7266   -0.3492   -6.6231 C   0  0  0  0  0  0  0  0  0  0  0  0
 16 17  1  0  0  0
 17 14  1  0  0  0
 14 15  2  0  0  0
 14  8  1  0  0  0
  8  9  2  0  0  0
  8 12  1  0  0  0
  9 10  1  0  0  0
 10 11  1  0  0  0
 10 13  1  0  0  0
 11  2  1  0  0  0
 11 12  2  0  0  0
  2  3  1  0  0  0
  2  7  2  0  0  0
  3  4  2  0  0  0
  4  1  1  0  0  0
  4  5  1  0  0  0
  1 18  1  0  0  0
 18 19  1  0  0  0
 18 23  2  0  0  0
 19 20  2  0  0  0
 20 21  1  0  0  0
 21 22  2  0  0  0
 22 24  1  0  0  0
 22 23  1  0  0  0
 24 25  1  0  0  0
 24 27  1  0  0  0
 25 26  2  0  0  0
 25 28  1  0  0  0
 28 29  1  0  0  0
 28 32  2  0  0  0
 29 30  1  0  0  0
 30 31  2  0  0  0
 31 32  1  0  0  0
 32 33  1  0  0  0
  5  6  2  0  0  0
  6  7  1  0  0  0
M  END
> <minimizedAffinity>
-10.11031

$$$$
