CHEMBL3975481


 37 40  0  0  0  0  0  0  0  0999 V2000
  -14.5090   -0.9198  -14.0813 C   0  0  0  0  0  0  0  0  0  0  0  0
  -14.6761   -2.0714  -13.3143 C   0  0  0  0  0  0  0  0  0  0  0  0
  -13.6301   -2.5674  -12.5312 C   0  0  0  0  0  0  0  0  0  0  0  0
  -12.3775   -1.9540  -12.5434 C   0  0  0  0  0  0  0  0  0  0  0  0
  -12.1897   -0.8053  -13.3139 C   0  0  0  0  0  0  0  0  0  0  0  0
  -13.2523   -0.3020  -14.0713 C   0  0  0  0  0  0  0  0  0  0  0  0
  -13.0552    0.8059  -14.8058 F   0  0  0  0  0  0  0  0  0  0  0  0
  -16.6922    0.7957  -13.2252 O   0  0  0  0  0  0  0  0  0  0  0  0
  -16.5765    0.4520  -14.3952 C   0  0  0  0  0  0  0  0  0  0  0  0
  -17.4763    0.7860  -15.3916 N   0  0  0  0  0  0  0  0  0  0  0  0
  -15.5413   -0.3410  -14.8662 N   0  0  0  0  0  0  0  0  0  0  0  0
  -17.3681    0.3214  -16.2800 H   0  0  0  0  0  0  0  0  0  0  0  0
  -15.4510   -0.4692  -15.8660 H   0  0  0  0  0  0  0  0  0  0  0  0
  -18.6597    1.5462  -15.2109 C   0  0  0  0  0  0  0  0  0  0  0  0
  -18.7538    2.9122  -15.4934 C   0  0  0  0  0  0  0  0  0  0  0  0
  -19.9257    3.6245  -15.2322 C   0  0  0  0  0  0  0  0  0  0  0  0
  -21.0322    2.9730  -14.7005 C   0  0  0  0  0  0  0  0  0  0  0  0
  -20.9815    1.5973  -14.4414 C   0  0  0  0  0  0  0  0  0  0  0  0
  -19.7890    0.8916  -14.7047 C   0  0  0  0  0  0  0  0  0  0  0  0
  -22.1773    0.8740  -13.8802 C   0  0  0  0  0  0  0  0  0  0  0  0
  -22.6107   -0.1553  -14.6595 F   0  0  0  0  0  0  0  0  0  0  0  0
  -21.9268    0.3341  -12.6547 F   0  0  0  0  0  0  0  0  0  0  0  0
  -23.2515    1.6943  -13.7128 F   0  0  0  0  0  0  0  0  0  0  0  0
  -11.3225   -2.3780  -11.7614 O   0  0  0  0  0  0  0  0  0  0  0  0
  -11.5643   -3.3740  -10.8174 C   0  0  0  0  0  0  0  0  0  0  0  0
  -11.6446   -4.6718  -11.2805 C   0  0  0  0  0  0  0  0  0  0  0  0
  -11.9294   -5.6308  -10.3302 C   0  0  0  0  0  0  0  0  0  0  0  0
  -12.0745   -5.3187   -9.0367 N   0  0  0  0  0  0  0  0  0  0  0  0
  -11.9857   -4.0333   -8.6946 C   0  0  0  0  0  0  0  0  0  0  0  0
  -11.7610   -3.0246   -9.5346 N   0  0  0  0  0  0  0  0  0  0  0  0
  -12.0991   -6.9642  -10.7436 N   0  0  0  0  0  0  0  0  0  0  0  0
  -13.2366   -7.4320  -11.3677 C   0  0  0  0  0  0  0  0  0  0  0  0
  -14.2615   -6.8117  -11.6083 O   0  0  0  0  0  0  0  0  0  0  0  0
  -11.3160   -7.5881  -10.6453 H   0  0  0  0  0  0  0  0  0  0  0  0
  -13.2039   -8.8555  -11.8359 C   0  0  0  0  0  0  0  0  0  0  0  0
  -11.9867   -9.6934  -12.1220 C   0  0  0  0  0  0  0  0  0  0  0  0
  -12.7981   -9.1494  -13.2633 C   0  0  0  0  0  0  0  0  0  0  0  0
  8  9  2  0  0  0
  9 10  1  0  0  0
  9 11  1  0  0  0
 10 14  1  0  0  0
 10 12  1  0  0  0
 14 15  1  0  0  0
 14 19  2  0  0  0
 15 16  2  0  0  0
 16 17  1  0  0  0
 17 18  2  0  0  0
 18 20  1  0  0  0
 18 19  1  0  0  0
 20 21  1  0  0  0
 20 22  1  0  0  0
 20 23  1  0  0  0
 11  1  1  0  0  0
 11 13  1  0  0  0
  1  2  1  0  0  0
  1  6  2  0  0  0
  2  3  2  0  0  0
  3  4  1  0  0  0
  4 24  1  0  0  0
  4  5  2  0  0  0
 24 25  1  0  0  0
 25 26  1  0  0  0
 25 30  2  0  0  0
 26 27  2  0  0  0
 27 31  1  0  0  0
 27 28  1  0  0  0
 31 32  1  0  0  0
 31 34  1  0  0  0
 32 33  2  0  0  0
 32 35  1  0  0  0
 35 36  1  0  0  0
 35 37  1  0  0  0
 36 37  1  0  0  0
 28 29  2  0  0  0
 29 30  1  0  0  0
  5  6  1  0  0  0
  6  7  1  0  0  0
M  END
> <minimizedAffinity>
-9.93124

$$$$
