CHEMBL1242203


 27 30  0  0  0  0  0  0  0  0999 V2000
  -29.8179   -7.6011   -7.5945 C   0  0  0  0  0  0  0  0  0  0  0  0
  -28.7188   -7.9081   -8.3084 N   0  0  0  0  0  0  0  0  0  0  0  0
  -28.9406   -9.1600   -8.7708 N   0  0  0  0  0  0  0  0  0  0  0  0
  -30.1860   -9.6406   -8.4354 C   0  0  0  0  0  0  0  0  0  0  0  0
  -30.7257  -10.8291   -8.7607 N   0  0  0  0  0  0  0  0  0  0  0  0
  -31.9433  -10.9959   -8.2252 C   0  0  0  0  0  0  0  0  0  0  0  0
  -32.6332  -10.1278   -7.4720 N   0  0  0  0  0  0  0  0  0  0  0  0
  -32.0784   -8.9330   -7.1855 C   0  0  0  0  0  0  0  0  0  0  0  0
  -32.8649   -8.0776   -6.4308 N   0  0  0  0  0  0  0  0  0  0  0  0
  -30.7843   -8.6529   -7.6637 C   0  0  0  0  0  0  0  0  0  0  0  0
  -33.8193   -8.4245   -6.3798 H   0  0  0  0  0  0  0  0  0  0  0  0
  -32.7781   -7.0962   -6.6591 H   0  0  0  0  0  0  0  0  0  0  0  0
  -29.9985   -3.8418   -5.5212 C   0  0  0  0  0  0  0  0  0  0  0  0
  -29.9367   -3.8834   -6.9128 C   0  0  0  0  0  0  0  0  0  0  0  0
  -29.9221   -5.1082   -7.5807 C   0  0  0  0  0  0  0  0  0  0  0  0
  -29.8810   -6.3198   -6.8821 C   0  0  0  0  0  0  0  0  0  0  0  0
  -29.9364   -6.2803   -5.4802 C   0  0  0  0  0  0  0  0  0  0  0  0
  -30.0098   -5.0526   -4.8157 C   0  0  0  0  0  0  0  0  0  0  0  0
  -30.0997   -5.0260   -3.4479 O   0  0  0  0  0  0  0  0  0  0  0  0
  -30.1763   -5.9351   -3.1184 H   0  0  0  0  0  0  0  0  0  0  0  0
  -29.5730   -1.5050   -5.3873 C   0  0  0  0  0  0  0  0  0  0  0  0
  -30.0709   -2.6914   -4.7815 O   0  0  0  0  0  0  0  0  0  0  0  0
  -27.8916   -9.8173   -9.5073 C   0  0  0  0  0  0  0  0  0  0  0  0
  -26.8090   -8.8549  -10.0372 C   0  0  0  0  0  0  0  0  0  0  0  0
  -26.7714   -9.6423  -11.2941 N   0  0  0  0  0  0  0  0  0  0  0  0
  -28.1554  -10.0895  -11.0028 C   0  0  0  0  0  0  0  0  0  0  0  0
  -26.0893  -10.4020  -11.2791 H   0  0  0  0  0  0  0  0  0  0  0  0
 21 22  1  0  0  0
 22 13  1  0  0  0
 13 14  1  0  0  0
 13 18  2  0  0  0
 14 15  2  0  0  0
 15 16  1  0  0  0
 16  1  1  0  0  0
 16 17  2  0  0  0
  1  2  2  0  0  0
  1 10  1  0  0  0
  2  3  1  0  0  0
  3 23  1  0  0  0
  3  4  1  0  0  0
 23 24  1  0  0  0
 23 26  1  0  0  0
 24 25  1  0  0  0
 25 26  1  0  0  0
 25 27  1  0  0  0
  4  5  1  0  0  0
  4 10  2  0  0  0
  5  6  2  0  0  0
  6  7  1  0  0  0
  7  8  2  0  0  0
  8  9  1  0  0  0
  8 10  1  0  0  0
  9 11  1  0  0  0
  9 12  1  0  0  0
 17 18  1  0  0  0
 18 19  1  0  0  0
 19 20  1  0  0  0
M  END
> <minimizedAffinity>
-7.84573

$$$$
