CHEMBL1908396


 36 39  0  0  0  0  0  0  0  0999 V2000
  -27.8685   -9.0932   -8.4044 C   0  0  0  0  0  0  0  0  0  0  0  0
  -28.5828   -8.0143   -7.8192 C   0  0  0  0  0  0  0  0  0  0  0  0
  -28.8489   -7.8476   -6.5065 C   0  0  0  0  0  0  0  0  0  0  0  0
  -28.0985   -8.8191   -5.6849 C   0  0  0  0  0  0  0  0  0  0  0  0
  -27.3285   -9.9432   -6.2986 C   0  0  0  0  0  0  0  0  0  0  0  0
  -27.1472  -10.0513   -7.6585 C   0  0  0  0  0  0  0  0  0  0  0  0
  -26.2802  -11.0277   -8.2872 N   0  0  0  0  0  0  0  0  0  0  0  0
  -24.9852  -11.4166   -7.8581 C   0  0  0  0  0  0  0  0  0  0  0  0
  -24.4076  -12.3652   -8.4363 O   0  0  0  0  0  0  0  0  0  0  0  0
  -24.3954  -10.8247   -6.8280 N   0  0  0  0  0  0  0  0  0  0  0  0
  -26.6537  -11.6144   -9.0747 H   0  0  0  0  0  0  0  0  0  0  0  0
  -24.9482  -10.1499   -6.2374 H   0  0  0  0  0  0  0  0  0  0  0  0
  -23.0572  -11.2097   -6.4498 C   0  0  0  0  0  0  0  0  0  0  0  0
  -22.0103  -10.2371   -7.0306 C   0  0  0  0  0  0  0  0  0  0  0  0
  -22.9238  -11.3113   -4.9388 C   0  0  0  0  0  0  0  0  0  0  0  0
  -21.7744  -11.4184   -4.2930 N   0  0  0  0  0  0  0  0  0  0  0  0
  -22.0040  -11.4753   -2.9313 C   0  0  0  0  0  0  0  0  0  0  0  0
  -23.3151  -11.4335   -2.5294 C   0  0  0  0  0  0  0  0  0  0  0  0
  -24.3270  -11.2792   -3.9144 S   0  0  0  0  0  0  0  0  0  0  0  0
  -29.3639  -10.0325   -9.9389 C   0  0  0  0  0  0  0  0  0  0  0  0
  -28.2742   -9.2318   -9.7007 O   0  0  0  0  0  0  0  0  0  0  0  0
  -29.6252   -6.7054   -6.3159 O   0  0  0  0  0  0  0  0  0  0  0  0
  -30.2034   -6.1035   -4.9908 C   0  0  0  0  0  0  0  0  0  0  0  0
  -31.4896   -5.5344   -3.9644 C   0  0  0  0  0  0  0  0  0  0  0  0
  -31.7487   -4.3239   -3.3751 C   0  0  0  0  0  0  0  0  0  0  0  0
  -30.9309   -4.1882   -4.2715 N   0  0  0  0  0  0  0  0  0  0  0  0
  -30.1352   -3.6682   -5.1226 C   0  0  0  0  0  0  0  0  0  0  0  0
  -30.0562   -2.3492   -5.1575 C   0  0  0  0  0  0  0  0  0  0  0  0
  -29.1046   -1.8391   -5.9520 C   0  0  0  0  0  0  0  0  0  0  0  0
  -28.3588   -2.7155   -6.7490 C   0  0  0  0  0  0  0  0  0  0  0  0
  -28.5672   -4.1366   -6.5951 C   0  0  0  0  0  0  0  0  0  0  0  0
  -29.5495   -4.6834   -5.7597 C   0  0  0  0  0  0  0  0  0  0  0  0
  -28.9342   -0.4881   -5.9081 O   0  0  0  0  0  0  0  0  0  0  0  0
  -27.9272   -0.0711   -4.9731 C   0  0  0  0  0  0  0  0  0  0  0  0
  -27.4268   -2.2722   -7.6684 O   0  0  0  0  0  0  0  0  0  0  0  0
  -27.8849   -2.3070   -9.0328 C   0  0  0  0  0  0  0  0  0  0  0  0
 20 21  1  0  0  0
 21  1  1  0  0  0
  1  2  1  0  0  0
  1  6  2  0  0  0
  2  3  2  0  0  0
  3 22  1  0  0  0
  3  4  1  0  0  0
 22 23  1  0  0  0
 23 24  1  0  0  0
 23 32  2  0  0  0
 24 25  2  0  0  0
 25 26  1  0  0  0
 26 27  2  0  0  0
 27 28  1  0  0  0
 27 32  1  0  0  0
 28 29  2  0  0  0
 29 33  1  0  0  0
 29 30  1  0  0  0
 33 34  1  0  0  0
 30 35  1  0  0  0
 30 31  2  0  0  0
 35 36  1  0  0  0
 31 32  1  0  0  0
  4  5  2  0  0  0
  5  6  1  0  0  0
  6  7  1  0  0  0
  7  8  1  0  0  0
  7 11  1  0  0  0
  8  9  2  0  0  0
  8 10  1  0  0  0
 10 13  1  0  0  0
 10 12  1  0  0  0
 13 14  1  0  0  0
 13 15  1  0  0  0
 15 16  2  0  0  0
 15 19  1  0  0  0
 16 17  1  0  0  0
 17 18  2  0  0  0
 18 19  1  0  0  0
M  END
> <minimizedAffinity>
-8.73316

$$$$
