CHEMBL2335018


 38 41  0  0  0  0  0  0  0  0999 V2000
  -15.2971    2.7256  -15.4713 C   0  0  0  0  0  0  0  0  0  0  0  0
  -14.8576    1.4995  -15.1793 N   0  0  0  0  0  0  0  0  0  0  0  0
  -15.7151    0.4763  -14.9614 C   0  0  0  0  0  0  0  0  0  0  0  0
  -17.0837    0.7573  -15.0626 C   0  0  0  0  0  0  0  0  0  0  0  0
  -18.3049    0.0335  -14.9622 C   0  0  0  0  0  0  0  0  0  0  0  0
  -19.3515    0.9239  -15.1426 C   0  0  0  0  0  0  0  0  0  0  0  0
  -18.7882    2.1739  -15.2956 N   0  0  0  0  0  0  0  0  0  0  0  0
  -17.4219    2.0810  -15.2923 C   0  0  0  0  0  0  0  0  0  0  0  0
  -16.5839    3.1126  -15.4846 N   0  0  0  0  0  0  0  0  0  0  0  0
  -19.2837    3.0450  -15.4185 H   0  0  0  0  0  0  0  0  0  0  0  0
  -13.9966    4.0280  -17.0891 C   0  0  0  0  0  0  0  0  0  0  0  0
  -14.4158    3.4739  -18.1030 O   0  0  0  0  0  0  0  0  0  0  0  0
  -14.3805    3.7224  -15.8011 N   0  0  0  0  0  0  0  0  0  0  0  0
  -14.1497    4.3238  -15.0283 H   0  0  0  0  0  0  0  0  0  0  0  0
  -11.6937    4.6337  -17.8882 C   0  0  0  0  0  0  0  0  0  0  0  0
  -12.9677    5.1738  -17.2062 C   0  0  0  0  0  0  0  0  0  0  0  0
  -12.6021    5.6781  -15.8050 C   0  0  0  0  0  0  0  0  0  0  0  0
  -13.5175    6.3263  -18.0598 C   0  0  0  0  0  0  0  0  0  0  0  0
  -15.2052   -0.7987  -14.6873 N   0  0  0  0  0  0  0  0  0  0  0  0
  -14.7692   -1.2730  -15.4624 H   0  0  0  0  0  0  0  0  0  0  0  0
  -15.4992   -1.6088  -13.5757 C   0  0  0  0  0  0  0  0  0  0  0  0
  -15.4243   -1.0761  -12.2852 C   0  0  0  0  0  0  0  0  0  0  0  0
  -15.7514   -1.8534  -11.1697 C   0  0  0  0  0  0  0  0  0  0  0  0
  -16.1522   -3.1803  -11.3307 C   0  0  0  0  0  0  0  0  0  0  0  0
  -16.2480   -3.7357  -12.6116 C   0  0  0  0  0  0  0  0  0  0  0  0
  -15.9312   -2.9348  -13.7204 C   0  0  0  0  0  0  0  0  0  0  0  0
  -16.6738   -5.1638  -12.8296 C   0  0  0  0  0  0  0  0  0  0  0  0
  -15.6312   -6.0183  -13.0369 F   0  0  0  0  0  0  0  0  0  0  0  0
  -17.3744   -5.6816  -11.7830 F   0  0  0  0  0  0  0  0  0  0  0  0
  -17.4811   -5.3035  -13.9205 F   0  0  0  0  0  0  0  0  0  0  0  0
  -20.8336    0.6753  -15.1406 C   0  0  0  0  0  0  0  0  0  0  0  0
  -21.5192    1.0560  -13.8269 C   0  0  0  0  0  0  0  0  0  0  0  0
  -22.5871    0.0666  -13.4394 C   0  0  0  0  0  0  0  0  0  0  0  0
  -22.5927   -0.5137  -12.1733 C   0  0  0  0  0  0  0  0  0  0  0  0
  -23.5860   -1.4386  -11.8631 C   0  0  0  0  0  0  0  0  0  0  0  0
  -24.5454   -1.7537  -12.8168 C   0  0  0  0  0  0  0  0  0  0  0  0
  -24.4740   -1.1229  -14.0470 C   0  0  0  0  0  0  0  0  0  0  0  0
  -23.5227   -0.2206  -14.3759 N   0  0  0  0  0  0  0  0  0  0  0  0
 15 16  1  0  0  0
 16 17  1  0  0  0
 16 18  1  0  0  0
 16 11  1  0  0  0
 11 12  2  0  0  0
 11 13  1  0  0  0
 13  1  1  0  0  0
 13 14  1  0  0  0
  1  2  1  0  0  0
  1  9  2  0  0  0
  2  3  2  0  0  0
  3 19  1  0  0  0
  3  4  1  0  0  0
 19 21  1  0  0  0
 19 20  1  0  0  0
 21 22  1  0  0  0
 21 26  2  0  0  0
 22 23  2  0  0  0
 23 24  1  0  0  0
 24 25  2  0  0  0
 25 27  1  0  0  0
 25 26  1  0  0  0
 27 28  1  0  0  0
 27 29  1  0  0  0
 27 30  1  0  0  0
  4  5  1  0  0  0
  4  8  2  0  0  0
  5  6  2  0  0  0
  6 31  1  0  0  0
  6  7  1  0  0  0
 31 32  1  0  0  0
 32 33  1  0  0  0
 33 34  1  0  0  0
 33 38  2  0  0  0
 34 35  2  0  0  0
 35 36  1  0  0  0
 36 37  2  0  0  0
 37 38  1  0  0  0
  7  8  1  0  0  0
  7 10  1  0  0  0
  8  9  1  0  0  0
M  END
> <minimizedAffinity>
-9.62716

$$$$
