CHEMBL3114024


 29 32  0  0  0  0  0  0  0  0999 V2000
  -26.0511   -1.7491  -10.8575 C   0  0  0  0  0  0  0  0  0  0  0  0
  -26.9714   -1.5527  -11.8089 N   0  0  0  0  0  0  0  0  0  0  0  0
  -28.2169   -1.3086  -11.3807 C   0  0  0  0  0  0  0  0  0  0  0  0
  -28.5634   -1.2628  -10.0520 C   0  0  0  0  0  0  0  0  0  0  0  0
  -27.5742   -1.5325   -9.1213 C   0  0  0  0  0  0  0  0  0  0  0  0
  -26.3154   -1.7333   -9.5397 N   0  0  0  0  0  0  0  0  0  0  0  0
  -24.7462   -1.9944  -11.2918 N   0  0  0  0  0  0  0  0  0  0  0  0
  -24.2414   -2.4255  -10.5251 H   0  0  0  0  0  0  0  0  0  0  0  0
  -22.4205    0.6544  -13.6343 C   0  0  0  0  0  0  0  0  0  0  0  0
  -22.2746   -0.7310  -13.7900 C   0  0  0  0  0  0  0  0  0  0  0  0
  -23.0461   -1.6084  -13.0224 C   0  0  0  0  0  0  0  0  0  0  0  0
  -23.9610   -1.1366  -12.0775 C   0  0  0  0  0  0  0  0  0  0  0  0
  -24.1405    0.2476  -11.9619 C   0  0  0  0  0  0  0  0  0  0  0  0
  -23.3683    1.1293  -12.7204 C   0  0  0  0  0  0  0  0  0  0  0  0
  -20.0482    0.8943  -15.1418 C   0  0  0  0  0  0  0  0  0  0  0  0
  -21.4588    1.8625  -14.5379 S   0  0  0  0  0  0  0  0  0  0  0  0
  -27.8724   -1.6710   -7.7387 N   0  0  0  0  0  0  0  0  0  0  0  0
  -27.8503   -0.4094   -6.9916 C   0  0  0  0  0  0  0  0  0  0  0  0
  -28.2999   -2.8515   -7.0642 C   0  0  0  0  0  0  0  0  0  0  0  0
  -29.0007   -3.8539   -7.8499 C   0  0  0  0  0  0  0  0  0  0  0  0
  -29.8461   -4.8571   -7.3419 C   0  0  0  0  0  0  0  0  0  0  0  0
  -29.6914   -4.9096   -5.9737 C   0  0  0  0  0  0  0  0  0  0  0  0
  -30.3943   -5.6677   -5.0534 C   0  0  0  0  0  0  0  0  0  0  0  0
  -31.4877   -5.2678   -4.0867 C   0  0  0  0  0  0  0  0  0  0  0  0
  -29.2506   -6.1079   -4.4234 N   0  0  0  0  0  0  0  0  0  0  0  0
  -28.9859   -7.4896   -4.1178 C   0  0  0  0  0  0  0  0  0  0  0  0
  -28.4471   -5.0452   -4.1251 N   0  0  0  0  0  0  0  0  0  0  0  0
  -28.6791   -4.2405   -5.1965 C   0  0  0  0  0  0  0  0  0  0  0  0
  -28.0572   -3.0776   -5.6808 C   0  0  0  0  0  0  0  0  0  0  0  0
 15 16  1  0  0  0
 16  9  1  0  0  0
  9 10  1  0  0  0
  9 14  2  0  0  0
 10 11  2  0  0  0
 11 12  1  0  0  0
 12  7  1  0  0  0
 12 13  2  0  0  0
  7  1  1  0  0  0
  7  8  1  0  0  0
  1  2  1  0  0  0
  1  6  2  0  0  0
  2  3  2  0  0  0
  3  4  1  0  0  0
  4  5  2  0  0  0
  5 17  1  0  0  0
  5  6  1  0  0  0
 17 18  1  0  0  0
 17 19  1  0  0  0
 19 20  1  0  0  0
 19 29  2  0  0  0
 20 21  2  0  0  0
 21 22  1  0  0  0
 22 23  2  0  0  0
 22 28  1  0  0  0
 23 24  1  0  0  0
 23 25  1  0  0  0
 25 26  1  0  0  0
 25 27  1  0  0  0
 27 28  2  0  0  0
 28 29  1  0  0  0
 13 14  1  0  0  0
M  END
> <minimizedAffinity>
-9.22179

$$$$
