CHEMBL3221553


 29 31  0  0  0  0  0  0  0  0999 V2000
  -30.3338   -5.9719   -6.7638 N   0  0  0  0  0  0  0  0  0  0  0  0
  -30.7760   -5.6862   -7.6469 H   0  0  0  0  0  0  0  0  0  0  0  0
  -30.3752   -5.0750   -5.6475 C   0  0  0  0  0  0  0  0  0  0  0  0
  -31.1644   -5.3734   -4.5792 N   0  0  0  0  0  0  0  0  0  0  0  0
  -31.2671   -4.5716   -3.4979 C   0  0  0  0  0  0  0  0  0  0  0  0
  -30.5693   -3.4162   -3.4486 N   0  0  0  0  0  0  0  0  0  0  0  0
  -29.7711   -3.0394   -4.4810 C   0  0  0  0  0  0  0  0  0  0  0  0
  -29.0735   -1.8411   -4.3948 C   0  0  0  0  0  0  0  0  0  0  0  0
  -28.2375   -1.3959   -5.4464 C   0  0  0  0  0  0  0  0  0  0  0  0
  -28.1311   -2.2143   -6.6054 C   0  0  0  0  0  0  0  0  0  0  0  0
  -28.8275   -3.4190   -6.6730 C   0  0  0  0  0  0  0  0  0  0  0  0
  -29.6515   -3.8537   -5.6251 C   0  0  0  0  0  0  0  0  0  0  0  0
  -27.5576   -0.2147   -5.3377 O   0  0  0  0  0  0  0  0  0  0  0  0
  -28.1208    0.9679   -4.8723 C   0  0  0  0  0  0  0  0  0  0  0  0
  -27.3857   -1.9306   -7.7190 O   0  0  0  0  0  0  0  0  0  0  0  0
  -27.6999   -1.9826   -9.0539 C   0  0  0  0  0  0  0  0  0  0  0  0
  -28.0268   -8.8418   -6.0497 C   0  0  0  0  0  0  0  0  0  0  0  0
  -28.6050   -7.5509   -6.0930 C   0  0  0  0  0  0  0  0  0  0  0  0
  -29.8343   -7.3139   -6.7259 C   0  0  0  0  0  0  0  0  0  0  0  0
  -30.5217   -8.4058   -7.2866 C   0  0  0  0  0  0  0  0  0  0  0  0
  -29.9748   -9.6724   -7.2677 C   0  0  0  0  0  0  0  0  0  0  0  0
  -28.7308   -9.9092   -6.6754 C   0  0  0  0  0  0  0  0  0  0  0  0
  -28.2004  -11.3145   -6.7086 C   0  0  0  0  0  0  0  0  0  0  0  0
  -26.5438   -9.3191   -4.0817 C   0  0  0  0  0  0  0  0  0  0  0  0
  -27.4695   -9.3731   -3.2857 O   0  0  0  0  0  0  0  0  0  0  0  0
  -26.7569   -9.0915   -5.4132 N   0  0  0  0  0  0  0  0  0  0  0  0
  -25.9207   -9.1487   -6.0107 H   0  0  0  0  0  0  0  0  0  0  0  0
  -24.2574   -9.9779   -4.4734 C   0  0  0  0  0  0  0  0  0  0  0  0
  -25.2774   -9.5484   -3.6479 O   0  0  0  0  0  0  0  0  0  0  0  0
 28 29  1  0  0  0
 29 24  1  0  0  0
 24 25  2  0  0  0
 24 26  1  0  0  0
 26 17  1  0  0  0
 26 27  1  0  0  0
 17 18  1  0  0  0
 17 22  2  0  0  0
 18 19  2  0  0  0
 19  1  1  0  0  0
 19 20  1  0  0  0
  1  3  1  0  0  0
  1  2  1  0  0  0
  3  4  1  0  0  0
  3 12  2  0  0  0
  4  5  2  0  0  0
  5  6  1  0  0  0
  6  7  2  0  0  0
  7  8  1  0  0  0
  7 12  1  0  0  0
  8  9  2  0  0  0
  9 13  1  0  0  0
  9 10  1  0  0  0
 13 14  1  0  0  0
 10 15  1  0  0  0
 10 11  2  0  0  0
 15 16  1  0  0  0
 11 12  1  0  0  0
 20 21  2  0  0  0
 21 22  1  0  0  0
 22 23  1  0  0  0
M  END
> <minimizedAffinity>
-7.61787

$$$$
