CHEMBL1997275


 24 27  0  0  0  0  0  0  0  0999 V2000
  -27.8207   -1.4602   -6.8535 C   0  0  0  0  0  0  0  0  0  0  0  0
  -27.5998   -0.6427   -5.7451 C   0  0  0  0  0  0  0  0  0  0  0  0
  -28.2019   -0.9145   -4.5098 C   0  0  0  0  0  0  0  0  0  0  0  0
  -29.0328   -2.0360   -4.4230 C   0  0  0  0  0  0  0  0  0  0  0  0
  -29.7382   -2.5375   -3.3518 N   0  0  0  0  0  0  0  0  0  0  0  0
  -30.4042   -3.6802   -3.7114 C   0  0  0  0  0  0  0  0  0  0  0  0
  -30.0886   -3.9452   -5.0245 C   0  0  0  0  0  0  0  0  0  0  0  0
  -29.2580   -2.8903   -5.5028 C   0  0  0  0  0  0  0  0  0  0  0  0
  -28.6413   -2.5907   -6.7358 C   0  0  0  0  0  0  0  0  0  0  0  0
  -29.7363   -2.1323   -2.4267 H   0  0  0  0  0  0  0  0  0  0  0  0
  -30.4947   -5.1137   -5.7293 C   0  0  0  0  0  0  0  0  0  0  0  0
  -29.7515   -6.2231   -5.8606 C   0  0  0  0  0  0  0  0  0  0  0  0
  -28.3781   -6.4470   -5.2689 C   0  0  0  0  0  0  0  0  0  0  0  0
  -27.7109   -5.7181   -4.5612 O   0  0  0  0  0  0  0  0  0  0  0  0
  -28.0116   -7.7156   -5.6900 N   0  0  0  0  0  0  0  0  0  0  0  0
  -29.0063   -8.3052   -6.4595 C   0  0  0  0  0  0  0  0  0  0  0  0
  -28.9644   -9.5641   -7.0235 C   0  0  0  0  0  0  0  0  0  0  0  0
  -30.0761   -9.9705   -7.7610 C   0  0  0  0  0  0  0  0  0  0  0  0
  -31.1838   -9.1155   -7.9183 C   0  0  0  0  0  0  0  0  0  0  0  0
  -31.2018   -7.8396   -7.3375 C   0  0  0  0  0  0  0  0  0  0  0  0
  -30.0999   -7.4437   -6.6026 C   0  0  0  0  0  0  0  0  0  0  0  0
  -27.1273   -8.1296   -5.4395 H   0  0  0  0  0  0  0  0  0  0  0  0
  -27.6802   -2.1972   -9.1092 C   0  0  0  0  0  0  0  0  0  0  0  0
  -27.2882   -1.2722   -8.1027 O   0  0  0  0  0  0  0  0  0  0  0  0
 23 24  1  0  0  0
 24  1  1  0  0  0
  1  2  1  0  0  0
  1  9  2  0  0  0
  2  3  2  0  0  0
  3  4  1  0  0  0
  4  5  1  0  0  0
  4  8  2  0  0  0
  5  6  1  0  0  0
  5 10  1  0  0  0
  6  7  2  0  0  0
  7 11  1  0  0  0
  7  8  1  0  0  0
 11 12  2  0  0  0
 12 13  1  0  0  0
 12 21  1  0  0  0
 13 14  2  0  0  0
 13 15  1  0  0  0
 15 16  1  0  0  0
 15 22  1  0  0  0
 16 17  1  0  0  0
 16 21  2  0  0  0
 17 18  2  0  0  0
 18 19  1  0  0  0
 19 20  2  0  0  0
 20 21  1  0  0  0
  8  9  1  0  0  0
M  END
> <minimizedAffinity>
-8.47209

$$$$
