CHEMBL2004771


 28 32  0  0  0  0  0  0  0  0999 V2000
  -23.3407    0.2085  -13.3622 C   0  0  0  0  0  0  0  0  0  0  0  0
  -22.2809   -0.4290  -14.0222 C   0  0  0  0  0  0  0  0  0  0  0  0
  -21.2768    0.2904  -14.6860 C   0  0  0  0  0  0  0  0  0  0  0  0
  -21.2379    1.6834  -14.6447 C   0  0  0  0  0  0  0  0  0  0  0  0
  -22.2687    2.3337  -13.9565 C   0  0  0  0  0  0  0  0  0  0  0  0
  -23.2994    1.6133  -13.3328 C   0  0  0  0  0  0  0  0  0  0  0  0
  -28.6528   -2.6442  -13.6659 O   0  0  0  0  0  0  0  0  0  0  0  0
  -27.6115   -2.0559  -13.8652 C   0  0  0  0  0  0  0  0  0  0  0  0
  -27.1224   -1.6206  -15.0728 N   0  0  0  0  0  0  0  0  0  0  0  0
  -25.8230   -1.0095  -14.9640 C   0  0  0  0  0  0  0  0  0  0  0  0
  -25.5463   -1.0428  -13.4937 C   0  0  0  0  0  0  0  0  0  0  0  0
  -26.6242   -1.6702  -12.8511 C   0  0  0  0  0  0  0  0  0  0  0  0
  -26.6990   -1.8539  -11.4856 C   0  0  0  0  0  0  0  0  0  0  0  0
  -25.6322   -1.3827  -10.7303 C   0  0  0  0  0  0  0  0  0  0  0  0
  -24.5396   -0.7460  -11.3562 C   0  0  0  0  0  0  0  0  0  0  0  0
  -24.4677   -0.5439  -12.7585 C   0  0  0  0  0  0  0  0  0  0  0  0
  -27.6044   -1.8239  -15.9373 H   0  0  0  0  0  0  0  0  0  0  0  0
  -20.2696    2.4615  -15.3057 N   0  0  0  0  0  0  0  0  0  0  0  0
  -20.5905    3.4000  -15.5070 H   0  0  0  0  0  0  0  0  0  0  0  0
  -18.9337    2.3279  -15.2240 C   0  0  0  0  0  0  0  0  0  0  0  0
  -17.9585    2.7829  -15.9866 N   0  0  0  0  0  0  0  0  0  0  0  0
  -16.8275    2.2320  -15.4405 C   0  0  0  0  0  0  0  0  0  0  0  0
  -15.4814    2.3049  -15.8217 C   0  0  0  0  0  0  0  0  0  0  0  0
  -14.5491    1.5448  -15.0968 C   0  0  0  0  0  0  0  0  0  0  0  0
  -14.9447    0.7567  -14.0076 C   0  0  0  0  0  0  0  0  0  0  0  0
  -16.2788    0.7115  -13.5878 C   0  0  0  0  0  0  0  0  0  0  0  0
  -17.1696    1.4618  -14.3433 C   0  0  0  0  0  0  0  0  0  0  0  0
  -18.5165    1.5572  -14.1713 O   0  0  0  0  0  0  0  0  0  0  0  0
  7  8  2  0  0  0
  8  9  1  0  0  0
  8 12  1  0  0  0
  9 10  1  0  0  0
  9 17  1  0  0  0
 10 11  1  0  0  0
 11 12  1  0  0  0
 11 16  2  0  0  0
 12 13  2  0  0  0
 13 14  1  0  0  0
 14 15  2  0  0  0
 15 16  1  0  0  0
 16  1  1  0  0  0
  1  2  1  0  0  0
  1  6  2  0  0  0
  2  3  2  0  0  0
  3  4  1  0  0  0
  4 18  1  0  0  0
  4  5  2  0  0  0
 18 20  1  0  0  0
 18 19  1  0  0  0
 20 21  2  0  0  0
 20 28  1  0  0  0
 21 22  1  0  0  0
 22 23  1  0  0  0
 22 27  2  0  0  0
 23 24  2  0  0  0
 24 25  1  0  0  0
 25 26  2  0  0  0
 26 27  1  0  0  0
 27 28  1  0  0  0
  5  6  1  0  0  0
M  END
> <minimizedAffinity>
-9.73227

$$$$
