CHEMBL437889


 31 34  0  0  0  0  0  0  0  0999 V2000
  -15.9358    1.3830  -14.6615 C   0  0  0  0  0  0  0  0  0  0  0  0
  -14.8176    2.1836  -14.9597 C   0  0  0  0  0  0  0  0  0  0  0  0
  -14.8928    3.1734  -15.9379 C   0  0  0  0  0  0  0  0  0  0  0  0
  -16.0763    3.3610  -16.6422 C   0  0  0  0  0  0  0  0  0  0  0  0
  -17.1891    2.5676  -16.3609 C   0  0  0  0  0  0  0  0  0  0  0  0
  -17.1479    1.5678  -15.3657 C   0  0  0  0  0  0  0  0  0  0  0  0
  -16.0719    0.4935  -12.5144 O   0  0  0  0  0  0  0  0  0  0  0  0
  -15.7477    0.2816  -13.6759 C   0  0  0  0  0  0  0  0  0  0  0  0
  -15.2376   -0.9021  -14.1881 N   0  0  0  0  0  0  0  0  0  0  0  0
  -15.0280   -0.9222  -15.1787 H   0  0  0  0  0  0  0  0  0  0  0  0
  -14.9300   -2.0782  -13.4633 C   0  0  0  0  0  0  0  0  0  0  0  0
  -13.7176   -2.2918  -12.8146 C   0  0  0  0  0  0  0  0  0  0  0  0
  -13.4753   -3.4853  -12.1303 C   0  0  0  0  0  0  0  0  0  0  0  0
  -14.4402   -4.4963  -12.0863 C   0  0  0  0  0  0  0  0  0  0  0  0
  -14.0372   -5.9038  -11.1764 Cl  0  0  0  0  0  0  0  0  0  0  0  0
  -15.6574   -4.3267  -12.7497 C   0  0  0  0  0  0  0  0  0  0  0  0
  -15.8939   -3.0966  -13.4186 C   0  0  0  0  0  0  0  0  0  0  0  0
  -16.7421   -5.3728  -12.8058 C   0  0  0  0  0  0  0  0  0  0  0  0
  -17.4245   -5.6050  -11.6557 F   0  0  0  0  0  0  0  0  0  0  0  0
  -17.6856   -5.0761  -13.7453 F   0  0  0  0  0  0  0  0  0  0  0  0
  -16.2415   -6.5892  -13.1738 F   0  0  0  0  0  0  0  0  0  0  0  0
  -18.4145    0.7746  -15.1120 C   0  0  0  0  0  0  0  0  0  0  0  0
  -19.5224    1.6190  -14.6698 N   0  0  0  0  0  0  0  0  0  0  0  0
  -19.4549    2.9905  -14.5526 C   0  0  0  0  0  0  0  0  0  0  0  0
  -20.6903    3.4521  -14.1600 C   0  0  0  0  0  0  0  0  0  0  0  0
  -21.5580    2.3316  -14.0590 C   0  0  0  0  0  0  0  0  0  0  0  0
  -22.9098    2.1773  -13.7267 C   0  0  0  0  0  0  0  0  0  0  0  0
  -23.4935    0.9542  -13.7414 N   0  0  0  0  0  0  0  0  0  0  0  0
  -22.7494   -0.1115  -14.1026 C   0  0  0  0  0  0  0  0  0  0  0  0
  -21.4110   -0.0630  -14.4550 C   0  0  0  0  0  0  0  0  0  0  0  0
  -20.8142    1.2002  -14.4073 C   0  0  0  0  0  0  0  0  0  0  0  0
  7  8  2  0  0  0
  8  9  1  0  0  0
  8  1  1  0  0  0
  9 11  1  0  0  0
  9 10  1  0  0  0
 11 12  1  0  0  0
 11 17  2  0  0  0
 12 13  2  0  0  0
 13 14  1  0  0  0
 14 15  1  0  0  0
 14 16  2  0  0  0
 16 18  1  0  0  0
 16 17  1  0  0  0
 18 19  1  0  0  0
 18 20  1  0  0  0
 18 21  1  0  0  0
  1  2  1  0  0  0
  1  6  2  0  0  0
  2  3  2  0  0  0
  3  4  1  0  0  0
  4  5  2  0  0  0
  5  6  1  0  0  0
  6 22  1  0  0  0
 22 23  1  0  0  0
 23 24  1  0  0  0
 23 31  1  0  0  0
 24 25  2  0  0  0
 25 26  1  0  0  0
 26 27  1  0  0  0
 26 31  2  0  0  0
 27 28  2  0  0  0
 28 29  1  0  0  0
 29 30  2  0  0  0
 30 31  1  0  0  0
M  END
> <minimizedAffinity>
-9.56204

$$$$
