CHEMBL3694653


 40 44  0  0  0  0  0  0  0  0999 V2000
  -29.9150   -5.6827   -6.3885 C   0  0  0  0  0  0  0  0  0  0  0  0
  -29.8550   -4.6142   -7.3997 C   0  0  0  0  0  0  0  0  0  0  0  0
  -29.8781   -3.3243   -7.0316 C   0  0  0  0  0  0  0  0  0  0  0  0
  -29.9209   -2.9912   -5.6786 N   0  0  0  0  0  0  0  0  0  0  0  0
  -29.9069   -1.7577   -5.0385 C   0  0  0  0  0  0  0  0  0  0  0  0
  -30.0269   -2.0863   -3.6944 C   0  0  0  0  0  0  0  0  0  0  0  0
  -30.0752   -3.4358   -3.4851 N   0  0  0  0  0  0  0  0  0  0  0  0
  -30.0001   -3.9676   -4.6830 C   0  0  0  0  0  0  0  0  0  0  0  0
  -30.0006   -5.3368   -5.0819 C   0  0  0  0  0  0  0  0  0  0  0  0
  -32.2979   -9.3441   -8.0974 N   0  0  0  0  0  0  0  0  0  0  0  0
  -31.0926   -8.9257   -7.5405 C   0  0  0  0  0  0  0  0  0  0  0  0
  -31.0635   -7.6246   -7.2263 N   0  0  0  0  0  0  0  0  0  0  0  0
  -29.9003   -7.1177   -6.7780 C   0  0  0  0  0  0  0  0  0  0  0  0
  -28.7662   -7.8216   -6.6483 N   0  0  0  0  0  0  0  0  0  0  0  0
  -28.8486   -9.1303   -6.9581 C   0  0  0  0  0  0  0  0  0  0  0  0
  -29.9994   -9.7581   -7.4009 C   0  0  0  0  0  0  0  0  0  0  0  0
  -32.9317   -8.5485   -8.0547 H   0  0  0  0  0  0  0  0  0  0  0  0
  -32.6887  -10.1502   -7.6306 H   0  0  0  0  0  0  0  0  0  0  0  0
  -29.9883  -11.2216   -7.7357 C   0  0  0  0  0  0  0  0  0  0  0  0
  -29.8866  -11.4938   -9.1822 N   0  0  0  0  0  0  0  0  0  0  0  0
  -28.6518  -12.2676   -9.4439 C   0  0  0  0  0  0  0  0  0  0  0  0
  -28.2611  -11.2577  -10.5256 C   0  0  0  0  0  0  0  0  0  0  0  0
  -29.3307  -10.3412   -9.9225 C   0  0  0  0  0  0  0  0  0  0  0  0
  -29.8535   -0.4250   -5.6546 C   0  0  0  0  0  0  0  0  0  0  0  0
  -28.6017    0.1934   -5.7969 C   0  0  0  0  0  0  0  0  0  0  0  0
  -28.4867    1.4563   -6.3682 C   0  0  0  0  0  0  0  0  0  0  0  0
  -29.6255    2.1264   -6.7980 C   0  0  0  0  0  0  0  0  0  0  0  0
  -30.8868    1.5407   -6.6971 C   0  0  0  0  0  0  0  0  0  0  0  0
  -30.9892    0.2570   -6.1315 C   0  0  0  0  0  0  0  0  0  0  0  0
  -32.0746    2.1848   -7.1294 N   0  0  0  0  0  0  0  0  0  0  0  0
  -32.4338    2.4387   -8.4361 C   0  0  0  0  0  0  0  0  0  0  0  0
  -31.8205    2.1227   -9.4464 O   0  0  0  0  0  0  0  0  0  0  0  0
  -33.6021    3.1649   -8.5321 N   0  0  0  0  0  0  0  0  0  0  0  0
  -32.7154    2.4920   -6.4141 H   0  0  0  0  0  0  0  0  0  0  0  0
  -34.2907    3.0131   -7.8092 H   0  0  0  0  0  0  0  0  0  0  0  0
  -34.1106    3.4586   -9.8805 C   0  0  0  0  0  0  0  0  0  0  0  0
  -34.6591    4.8782  -10.0940 C   0  0  0  0  0  0  0  0  0  0  0  0
  -35.8211    5.0767   -9.4291 F   0  0  0  0  0  0  0  0  0  0  0  0
  -33.7750    5.7886   -9.6124 F   0  0  0  0  0  0  0  0  0  0  0  0
  -34.8613    5.1664  -11.3955 F   0  0  0  0  0  0  0  0  0  0  0  0
 10 11  1  0  0  0
 10 17  1  0  0  0
 10 18  1  0  0  0
 11 12  1  0  0  0
 11 16  2  0  0  0
 12 13  2  0  0  0
 13  1  1  0  0  0
 13 14  1  0  0  0
  1  2  1  0  0  0
  1  9  2  0  0  0
  2  3  2  0  0  0
  3  4  1  0  0  0
  4  5  1  0  0  0
  4  8  1  0  0  0
  5 24  1  0  0  0
  5  6  2  0  0  0
 24 25  1  0  0  0
 24 29  2  0  0  0
 25 26  2  0  0  0
 26 27  1  0  0  0
 27 28  2  0  0  0
 28 30  1  0  0  0
 28 29  1  0  0  0
 30 31  1  0  0  0
 30 34  1  0  0  0
 31 32  2  0  0  0
 31 33  1  0  0  0
 33 36  1  0  0  0
 33 35  1  0  0  0
 36 37  1  0  0  0
 37 38  1  0  0  0
 37 39  1  0  0  0
 37 40  1  0  0  0
  6  7  1  0  0  0
  7  8  2  0  0  0
  8  9  1  0  0  0
 14 15  2  0  0  0
 15 16  1  0  0  0
 16 19  1  0  0  0
 19 20  1  0  0  0
 20 21  1  0  0  0
 20 23  1  0  0  0
 21 22  1  0  0  0
 22 23  1  0  0  0
M  END
> <minimizedAffinity>
-8.17711

$$$$
