CHEMBL3656040


 35 38  0  0  0  0  0  0  0  0999 V2000
  -22.4095    0.5946  -13.5239 C   0  0  0  0  0  0  0  0  0  0  0  0
  -23.2459    1.7020  -13.4104 C   0  0  0  0  0  0  0  0  0  0  0  0
  -22.7888    2.9158  -13.8904 C   0  0  0  0  0  0  0  0  0  0  0  0
  -21.5572    3.1046  -14.4124 N   0  0  0  0  0  0  0  0  0  0  0  0
  -20.7375    2.0238  -14.4513 C   0  0  0  0  0  0  0  0  0  0  0  0
  -21.1208    0.7620  -14.0218 C   0  0  0  0  0  0  0  0  0  0  0  0
  -19.4039    2.3074  -14.9683 C   0  0  0  0  0  0  0  0  0  0  0  0
  -18.3569    1.4816  -15.3440 C   0  0  0  0  0  0  0  0  0  0  0  0
  -17.2490    2.2868  -15.7479 C   0  0  0  0  0  0  0  0  0  0  0  0
  -17.6693    3.6002  -15.6163 C   0  0  0  0  0  0  0  0  0  0  0  0
  -18.9620    3.5964  -15.1589 N   0  0  0  0  0  0  0  0  0  0  0  0
  -19.5377    4.4083  -14.9648 H   0  0  0  0  0  0  0  0  0  0  0  0
  -15.9538    1.7878  -16.1958 C   0  0  0  0  0  0  0  0  0  0  0  0
  -15.1534    2.4758  -16.8271 O   0  0  0  0  0  0  0  0  0  0  0  0
  -15.6755    0.4794  -15.8806 N   0  0  0  0  0  0  0  0  0  0  0  0
  -14.4578   -0.0563  -16.3557 O   0  0  0  0  0  0  0  0  0  0  0  0
  -16.3206   -0.1543  -15.4313 H   0  0  0  0  0  0  0  0  0  0  0  0
  -14.0648    0.7090  -16.8300 H   0  0  0  0  0  0  0  0  0  0  0  0
  -22.7444   -0.6790  -13.1119 O   0  0  0  0  0  0  0  0  0  0  0  0
  -25.9742   -1.8650  -11.8602 C   0  0  0  0  0  0  0  0  0  0  0  0
  -26.7230   -1.9015  -13.0405 C   0  0  0  0  0  0  0  0  0  0  0  0
  -26.1332   -1.6057  -14.2690 C   0  0  0  0  0  0  0  0  0  0  0  0
  -24.7908   -1.2494  -14.3298 C   0  0  0  0  0  0  0  0  0  0  0  0
  -24.0587   -1.0918  -13.1513 C   0  0  0  0  0  0  0  0  0  0  0  0
  -24.6432   -1.4261  -11.9207 C   0  0  0  0  0  0  0  0  0  0  0  0
  -27.5959   -1.7038   -9.9578 C   0  0  0  0  0  0  0  0  0  0  0  0
  -28.2865   -0.7874  -10.3948 O   0  0  0  0  0  0  0  0  0  0  0  0
  -26.4993   -2.2554  -10.6087 N   0  0  0  0  0  0  0  0  0  0  0  0
  -26.1158   -3.0860  -10.1742 H   0  0  0  0  0  0  0  0  0  0  0  0
  -27.8546   -0.4009   -6.9874 C   0  0  0  0  0  0  0  0  0  0  0  0
  -28.0101   -1.8198   -7.4003 C   0  0  0  0  0  0  0  0  0  0  0  0
  -28.3060   -2.9243   -6.5540 C   0  0  0  0  0  0  0  0  0  0  0  0
  -28.3660   -4.0306   -7.3609 C   0  0  0  0  0  0  0  0  0  0  0  0
  -28.1273   -3.6944   -8.6543 O   0  0  0  0  0  0  0  0  0  0  0  0
  -27.8993   -2.3420   -8.6847 C   0  0  0  0  0  0  0  0  0  0  0  0
 30 31  1  0  0  0
 31 32  1  0  0  0
 31 35  2  0  0  0
 32 33  2  0  0  0
 33 34  1  0  0  0
 34 35  1  0  0  0
 35 26  1  0  0  0
 26 27  2  0  0  0
 26 28  1  0  0  0
 28 20  1  0  0  0
 28 29  1  0  0  0
 20 21  1  0  0  0
 20 25  2  0  0  0
 21 22  2  0  0  0
 22 23  1  0  0  0
 23 24  2  0  0  0
 24 19  1  0  0  0
 24 25  1  0  0  0
 19  1  1  0  0  0
  1  2  1  0  0  0
  1  6  2  0  0  0
  2  3  2  0  0  0
  3  4  1  0  0  0
  4  5  2  0  0  0
  5  7  1  0  0  0
  5  6  1  0  0  0
  7  8  2  0  0  0
  7 11  1  0  0  0
  8  9  1  0  0  0
  9 13  1  0  0  0
  9 10  2  0  0  0
 13 14  2  0  0  0
 13 15  1  0  0  0
 15 16  1  0  0  0
 15 17  1  0  0  0
 16 18  1  0  0  0
 10 11  1  0  0  0
 11 12  1  0  0  0
M  END
> <minimizedAffinity>
-10.56034

$$$$
