CHEMBL2018764


 36 39  0  0  0  0  0  0  0  0999 V2000
  -27.8229   -9.3901   -7.7919 C   0  0  0  0  0  0  0  0  0  0  0  0
  -28.4360   -9.2947   -6.5450 C   0  0  0  0  0  0  0  0  0  0  0  0
  -29.1714   -8.1548   -6.2106 C   0  0  0  0  0  0  0  0  0  0  0  0
  -29.3424   -7.1114   -7.1244 C   0  0  0  0  0  0  0  0  0  0  0  0
  -28.6385   -7.1931   -8.3403 C   0  0  0  0  0  0  0  0  0  0  0  0
  -27.8637   -8.3113   -8.6658 C   0  0  0  0  0  0  0  0  0  0  0  0
  -25.2896  -10.2648   -6.8532 N   0  0  0  0  0  0  0  0  0  0  0  0
  -25.9138  -10.9900   -7.8435 C   0  0  0  0  0  0  0  0  0  0  0  0
  -25.5050  -12.0319   -8.3503 O   0  0  0  0  0  0  0  0  0  0  0  0
  -27.1761  -10.5630   -8.1931 N   0  0  0  0  0  0  0  0  0  0  0  0
  -25.8274   -9.5135   -6.4490 H   0  0  0  0  0  0  0  0  0  0  0  0
  -27.7357  -11.3266   -8.5529 H   0  0  0  0  0  0  0  0  0  0  0  0
  -23.0048  -11.1169   -4.0646 C   0  0  0  0  0  0  0  0  0  0  0  0
  -21.7959  -11.2895   -4.7373 C   0  0  0  0  0  0  0  0  0  0  0  0
  -21.7287  -11.0947   -6.1156 C   0  0  0  0  0  0  0  0  0  0  0  0
  -22.8678  -10.7314   -6.8320 C   0  0  0  0  0  0  0  0  0  0  0  0
  -24.0883  -10.5704   -6.1815 C   0  0  0  0  0  0  0  0  0  0  0  0
  -24.1451  -10.7507   -4.7913 C   0  0  0  0  0  0  0  0  0  0  0  0
  -24.5350  -11.4840   -2.2843 C   0  0  0  0  0  0  0  0  0  0  0  0
  -23.1925  -11.2825   -2.7172 O   0  0  0  0  0  0  0  0  0  0  0  0
  -30.1017   -5.9426   -6.8808 N   0  0  0  0  0  0  0  0  0  0  0  0
  -31.0107   -6.0323   -7.3191 H   0  0  0  0  0  0  0  0  0  0  0  0
  -30.1706   -5.0957   -5.7430 C   0  0  0  0  0  0  0  0  0  0  0  0
  -30.9068   -5.4779   -4.6842 N   0  0  0  0  0  0  0  0  0  0  0  0
  -30.9082   -4.6897   -3.6083 C   0  0  0  0  0  0  0  0  0  0  0  0
  -30.2353   -3.5483   -3.4804 N   0  0  0  0  0  0  0  0  0  0  0  0
  -29.5035   -3.1674   -4.5268 C   0  0  0  0  0  0  0  0  0  0  0  0
  -28.8237   -1.9661   -4.4098 C   0  0  0  0  0  0  0  0  0  0  0  0
  -28.0700   -1.4122   -5.4530 C   0  0  0  0  0  0  0  0  0  0  0  0
  -27.9536   -2.1328   -6.6474 C   0  0  0  0  0  0  0  0  0  0  0  0
  -28.5979   -3.3771   -6.7564 C   0  0  0  0  0  0  0  0  0  0  0  0
  -29.4091   -3.9008   -5.7131 C   0  0  0  0  0  0  0  0  0  0  0  0
  -27.4420   -0.2006   -5.3396 O   0  0  0  0  0  0  0  0  0  0  0  0
  -28.2109    0.9083   -4.8838 C   0  0  0  0  0  0  0  0  0  0  0  0
  -27.2805   -1.7917   -7.7913 O   0  0  0  0  0  0  0  0  0  0  0  0
  -27.7658   -2.2701   -9.0386 C   0  0  0  0  0  0  0  0  0  0  0  0
 19 20  1  0  0  0
 20 13  1  0  0  0
 13 14  1  0  0  0
 13 18  2  0  0  0
 14 15  2  0  0  0
 15 16  1  0  0  0
 16 17  2  0  0  0
 17  7  1  0  0  0
 17 18  1  0  0  0
  7  8  1  0  0  0
  7 11  1  0  0  0
  8  9  2  0  0  0
  8 10  1  0  0  0
 10  1  1  0  0  0
 10 12  1  0  0  0
  1  2  1  0  0  0
  1  6  2  0  0  0
  2  3  2  0  0  0
  3  4  1  0  0  0
  4 21  1  0  0  0
  4  5  2  0  0  0
 21 23  1  0  0  0
 21 22  1  0  0  0
 23 24  1  0  0  0
 23 32  2  0  0  0
 24 25  2  0  0  0
 25 26  1  0  0  0
 26 27  2  0  0  0
 27 28  1  0  0  0
 27 32  1  0  0  0
 28 29  2  0  0  0
 29 33  1  0  0  0
 29 30  1  0  0  0
 33 34  1  0  0  0
 30 35  1  0  0  0
 30 31  2  0  0  0
 35 36  1  0  0  0
 31 32  1  0  0  0
  5  6  1  0  0  0
M  END
> <minimizedAffinity>
-8.63433

$$$$
