CHEMBL248044


 27 30  0  0  0  0  0  0  0  0999 V2000
  -28.8246   -7.3846   -6.2397 C   0  0  0  0  0  0  0  0  0  0  0  0
  -28.9418   -6.3264   -5.3333 C   0  0  0  0  0  0  0  0  0  0  0  0
  -28.8663   -5.0004   -5.7262 C   0  0  0  0  0  0  0  0  0  0  0  0
  -28.9239   -4.0788   -4.7622 N   0  0  0  0  0  0  0  0  0  0  0  0
  -28.7096   -2.7940   -5.1020 C   0  0  0  0  0  0  0  0  0  0  0  0
  -28.4822   -2.3465   -6.3964 C   0  0  0  0  0  0  0  0  0  0  0  0
  -28.5705   -3.2771   -7.4420 C   0  0  0  0  0  0  0  0  0  0  0  0
  -28.6950   -4.6747   -7.0943 C   0  0  0  0  0  0  0  0  0  0  0  0
  -28.6395   -5.7694   -8.0121 C   0  0  0  0  0  0  0  0  0  0  0  0
  -28.7111   -7.1097   -7.6033 C   0  0  0  0  0  0  0  0  0  0  0  0
  -27.6444   -9.1161   -5.1337 C   0  0  0  0  0  0  0  0  0  0  0  0
  -28.8764   -8.6267   -5.6596 O   0  0  0  0  0  0  0  0  0  0  0  0
  -28.1015   -0.9775   -6.5208 C   0  0  0  0  0  0  0  0  0  0  0  0
  -27.8525    0.1540   -6.5161 N   0  0  0  0  0  0  0  0  0  0  0  0
  -28.4225   -2.9418   -8.8221 N   0  0  0  0  0  0  0  0  0  0  0  0
  -29.3225   -2.7356   -9.2474 H   0  0  0  0  0  0  0  0  0  0  0  0
  -27.3280   -2.1556   -9.4349 C   0  0  0  0  0  0  0  0  0  0  0  0
  -27.8079   -0.9490  -10.1974 C   0  0  0  0  0  0  0  0  0  0  0  0
  -27.1471   -2.0920  -10.9333 C   0  0  0  0  0  0  0  0  0  0  0  0
  -25.9471   -1.6842  -11.7589 C   0  0  0  0  0  0  0  0  0  0  0  0
  -24.6761   -1.3907  -11.2502 C   0  0  0  0  0  0  0  0  0  0  0  0
  -23.5802   -1.1858  -12.1022 C   0  0  0  0  0  0  0  0  0  0  0  0
  -23.7393   -1.2459  -13.4845 C   0  0  0  0  0  0  0  0  0  0  0  0
  -24.9991   -1.4807  -14.0175 C   0  0  0  0  0  0  0  0  0  0  0  0
  -26.0813   -1.6916  -13.1628 C   0  0  0  0  0  0  0  0  0  0  0  0
  -28.6921   -8.1792   -8.4539 O   0  0  0  0  0  0  0  0  0  0  0  0
  -27.4679   -8.5658   -9.0570 C   0  0  0  0  0  0  0  0  0  0  0  0
 11 12  1  0  0  0
 12  1  1  0  0  0
  1  2  1  0  0  0
  1 10  2  0  0  0
  2  3  2  0  0  0
  3  4  1  0  0  0
  3  8  1  0  0  0
  4  5  2  0  0  0
  5  6  1  0  0  0
  6 13  1  0  0  0
  6  7  2  0  0  0
 13 14  3  0  0  0
  7 15  1  0  0  0
  7  8  1  0  0  0
 15 17  1  0  0  0
 15 16  1  0  0  0
 17 18  1  0  0  0
 17 19  1  0  0  0
 18 19  1  0  0  0
 19 20  1  0  0  0
 20 21  1  0  0  0
 20 25  2  0  0  0
 21 22  2  0  0  0
 22 23  1  0  0  0
 23 24  2  0  0  0
 24 25  1  0  0  0
  8  9  2  0  0  0
  9 10  1  0  0  0
 10 26  1  0  0  0
 26 27  1  0  0  0
M  END
> <minimizedAffinity>
-8.27760

$$$$
