CHEMBL1240565


 23 26  0  0  0  0  0  0  0  0999 V2000
  -29.7447   -7.1601   -3.1457 C   0  0  0  0  0  0  0  0  0  0  0  0
  -29.3419   -6.2451   -4.1823 N   0  0  0  0  0  0  0  0  0  0  0  0
  -29.1222   -4.9479   -3.8971 N   0  0  0  0  0  0  0  0  0  0  0  0
  -28.8461   -4.3843   -5.0913 C   0  0  0  0  0  0  0  0  0  0  0  0
  -28.8196   -5.3733   -6.1307 C   0  0  0  0  0  0  0  0  0  0  0  0
  -28.5722   -5.4653   -7.5094 C   0  0  0  0  0  0  0  0  0  0  0  0
  -28.1613   -4.4225   -8.3255 N   0  0  0  0  0  0  0  0  0  0  0  0
  -28.7285   -6.6596   -8.1200 N   0  0  0  0  0  0  0  0  0  0  0  0
  -29.0987   -7.7221   -7.3808 C   0  0  0  0  0  0  0  0  0  0  0  0
  -29.3299   -7.7653   -6.0621 N   0  0  0  0  0  0  0  0  0  0  0  0
  -29.1733   -6.5548   -5.4982 C   0  0  0  0  0  0  0  0  0  0  0  0
  -27.5158   -3.7667   -7.9015 H   0  0  0  0  0  0  0  0  0  0  0  0
  -27.8682   -4.7818   -9.2286 H   0  0  0  0  0  0  0  0  0  0  0  0
  -28.6446   -2.9366   -5.1740 C   0  0  0  0  0  0  0  0  0  0  0  0
  -27.3690   -2.3718   -5.1437 C   0  0  0  0  0  0  0  0  0  0  0  0
  -27.0653   -1.0495   -5.2002 N   0  0  0  0  0  0  0  0  0  0  0  0
  -28.1522   -0.2798   -5.3760 C   0  0  0  0  0  0  0  0  0  0  0  0
  -28.1188    1.0799   -5.5120 N   0  0  0  0  0  0  0  0  0  0  0  0
  -29.3850    1.5535   -5.7441 C   0  0  0  0  0  0  0  0  0  0  0  0
  -30.2490    0.4773   -5.7155 C   0  0  0  0  0  0  0  0  0  0  0  0
  -29.4756   -0.6917   -5.4772 C   0  0  0  0  0  0  0  0  0  0  0  0
  -29.7347   -2.0680   -5.3538 C   0  0  0  0  0  0  0  0  0  0  0  0
  -27.2682    1.6225   -5.4763 H   0  0  0  0  0  0  0  0  0  0  0  0
  1  2  1  0  0  0
  2  3  1  0  0  0
  2 11  1  0  0  0
  3  4  2  0  0  0
  4 14  1  0  0  0
  4  5  1  0  0  0
 14 15  1  0  0  0
 14 22  2  0  0  0
 15 16  2  0  0  0
 16 17  1  0  0  0
 17 18  1  0  0  0
 17 21  2  0  0  0
 18 19  1  0  0  0
 18 23  1  0  0  0
 19 20  2  0  0  0
 20 21  1  0  0  0
 21 22  1  0  0  0
  5  6  1  0  0  0
  5 11  2  0  0  0
  6  7  1  0  0  0
  6  8  2  0  0  0
  7 12  1  0  0  0
  7 13  1  0  0  0
  8  9  1  0  0  0
  9 10  2  0  0  0
 10 11  1  0  0  0
M  END
> <minimizedAffinity>
-7.82311

$$$$
