CHEMBL4104297


 34 37  0  0  0  0  0  0  0  0999 V2000
  -29.2943   -5.3695   -6.1262 C   0  0  0  0  0  0  0  0  0  0  0  0
  -29.2692   -5.1675   -7.5021 C   0  0  0  0  0  0  0  0  0  0  0  0
  -28.7671   -3.9759   -8.0280 C   0  0  0  0  0  0  0  0  0  0  0  0
  -28.3533   -2.9031   -7.2033 C   0  0  0  0  0  0  0  0  0  0  0  0
  -27.8531   -1.6515   -7.6809 C   0  0  0  0  0  0  0  0  0  0  0  0
  -27.5196   -0.6348   -6.7699 C   0  0  0  0  0  0  0  0  0  0  0  0
  -27.6306   -0.8465   -5.4004 C   0  0  0  0  0  0  0  0  0  0  0  0
  -28.0867   -2.0720   -4.9215 C   0  0  0  0  0  0  0  0  0  0  0  0
  -28.4550   -3.1017   -5.7995 C   0  0  0  0  0  0  0  0  0  0  0  0
  -28.9205   -4.3276   -5.2800 C   0  0  0  0  0  0  0  0  0  0  0  0
  -27.7214   -1.3557   -9.1531 C   0  0  0  0  0  0  0  0  0  0  0  0
  -28.6285   -0.7701   -9.7313 O   0  0  0  0  0  0  0  0  0  0  0  0
  -26.5295   -1.7667   -9.7408 N   0  0  0  0  0  0  0  0  0  0  0  0
  -25.8613   -2.2442   -9.1515 H   0  0  0  0  0  0  0  0  0  0  0  0
  -26.1525   -1.6299  -11.0975 C   0  0  0  0  0  0  0  0  0  0  0  0
  -26.9574   -2.0075  -12.1731 C   0  0  0  0  0  0  0  0  0  0  0  0
  -26.4949   -1.8919  -13.4874 C   0  0  0  0  0  0  0  0  0  0  0  0
  -25.2272   -1.3766  -13.7442 C   0  0  0  0  0  0  0  0  0  0  0  0
  -24.4102   -0.9611  -12.6861 C   0  0  0  0  0  0  0  0  0  0  0  0
  -24.8817   -1.0995  -11.3652 C   0  0  0  0  0  0  0  0  0  0  0  0
  -23.0483   -0.3615  -12.9468 C   0  0  0  0  0  0  0  0  0  0  0  0
  -23.0860    0.9516  -13.3042 F   0  0  0  0  0  0  0  0  0  0  0  0
  -22.2381   -0.4311  -11.8538 F   0  0  0  0  0  0  0  0  0  0  0  0
  -22.3811   -1.0044  -13.9446 F   0  0  0  0  0  0  0  0  0  0  0  0
  -29.7194   -6.5464   -5.5450 O   0  0  0  0  0  0  0  0  0  0  0  0
  -25.6963   -8.2982   -3.9613 N   0  0  0  0  0  0  0  0  0  0  0  0
  -26.8457   -8.4682   -4.7047 C   0  0  0  0  0  0  0  0  0  0  0  0
  -26.9359   -9.5397   -5.4956 N   0  0  0  0  0  0  0  0  0  0  0  0
  -28.0402   -9.6314   -6.2625 C   0  0  0  0  0  0  0  0  0  0  0  0
  -29.0220   -8.6727   -6.2990 C   0  0  0  0  0  0  0  0  0  0  0  0
  -28.8000   -7.5919   -5.4821 C   0  0  0  0  0  0  0  0  0  0  0  0
  -27.7433   -7.4900   -4.6538 N   0  0  0  0  0  0  0  0  0  0  0  0
  -24.9320   -8.7854   -4.4077 H   0  0  0  0  0  0  0  0  0  0  0  0
  -25.5681   -7.3136   -3.7800 H   0  0  0  0  0  0  0  0  0  0  0  0
 26 27  1  0  0  0
 26 33  1  0  0  0
 26 34  1  0  0  0
 27 28  1  0  0  0
 27 32  2  0  0  0
 28 29  2  0  0  0
 29 30  1  0  0  0
 30 31  2  0  0  0
 31 25  1  0  0  0
 31 32  1  0  0  0
 25  1  1  0  0  0
  1  2  1  0  0  0
  1 10  2  0  0  0
  2  3  2  0  0  0
  3  4  1  0  0  0
  4  5  1  0  0  0
  4  9  2  0  0  0
  5 11  1  0  0  0
  5  6  2  0  0  0
 11 12  2  0  0  0
 11 13  1  0  0  0
 13 15  1  0  0  0
 13 14  1  0  0  0
 15 16  1  0  0  0
 15 20  2  0  0  0
 16 17  2  0  0  0
 17 18  1  0  0  0
 18 19  2  0  0  0
 19 21  1  0  0  0
 19 20  1  0  0  0
 21 22  1  0  0  0
 21 23  1  0  0  0
 21 24  1  0  0  0
  6  7  1  0  0  0
  7  8  2  0  0  0
  8  9  1  0  0  0
  9 10  1  0  0  0
M  END
> <minimizedAffinity>
-10.83150

$$$$
