CHEMBL2071210


 29 32  0  0  0  0  0  0  0  0999 V2000
  -29.0173   -7.2773   -7.9766 C   0  0  0  0  0  0  0  0  0  0  0  0
  -30.1648   -7.8745   -7.6266 N   0  0  0  0  0  0  0  0  0  0  0  0
  -30.8204   -7.3465   -6.5749 C   0  0  0  0  0  0  0  0  0  0  0  0
  -30.3543   -6.2707   -5.8552 C   0  0  0  0  0  0  0  0  0  0  0  0
  -31.2320   -5.7058   -4.4862 Cl  0  0  0  0  0  0  0  0  0  0  0  0
  -29.1389   -5.7174   -6.2577 C   0  0  0  0  0  0  0  0  0  0  0  0
  -28.4798   -6.2301   -7.3062 N   0  0  0  0  0  0  0  0  0  0  0  0
  -28.3810   -7.8206   -9.0947 N   0  0  0  0  0  0  0  0  0  0  0  0
  -28.4486   -7.1602   -9.8595 H   0  0  0  0  0  0  0  0  0  0  0  0
  -25.7762  -11.7742   -7.9911 C   0  0  0  0  0  0  0  0  0  0  0  0
  -26.4325  -10.6870   -8.6733 N   0  0  0  0  0  0  0  0  0  0  0  0
  -27.1672   -9.6747   -8.1195 C   0  0  0  0  0  0  0  0  0  0  0  0
  -27.6030   -8.9158   -9.1731 C   0  0  0  0  0  0  0  0  0  0  0  0
  -27.1102   -9.5703  -10.3153 C   0  0  0  0  0  0  0  0  0  0  0  0
  -26.3751  -10.6424  -10.0160 N   0  0  0  0  0  0  0  0  0  0  0  0
  -28.6478   -4.6015   -5.5974 N   0  0  0  0  0  0  0  0  0  0  0  0
  -27.7078   -4.7719   -5.2381 H   0  0  0  0  0  0  0  0  0  0  0  0
  -28.9065   -3.1775   -5.7899 C   0  0  0  0  0  0  0  0  0  0  0  0
  -27.8010   -2.2776   -6.3786 C   0  0  0  0  0  0  0  0  0  0  0  0
  -28.4955   -1.0674   -7.0572 C   0  0  0  0  0  0  0  0  0  0  0  0
  -29.0089   -0.2422   -5.8608 C   0  0  0  0  0  0  0  0  0  0  0  0
  -28.5513   -1.0775   -4.6459 C   0  0  0  0  0  0  0  0  0  0  0  0
  -27.2006   -1.5724   -5.1600 C   0  0  0  0  0  0  0  0  0  0  0  0
  -29.4089   -2.3703   -4.5794 C   0  0  0  0  0  0  0  0  0  0  0  0
  -29.4293   -3.0551   -3.2258 C   0  0  0  0  0  0  0  0  0  0  0  0
  -30.4757   -2.8335   -2.3906 N   0  0  0  0  0  0  0  0  0  0  0  0
  -28.5157   -3.7960   -2.8652 O   0  0  0  0  0  0  0  0  0  0  0  0
  -30.3804   -3.2319   -1.4652 H   0  0  0  0  0  0  0  0  0  0  0  0
  -31.0059   -1.9727   -2.4507 H   0  0  0  0  0  0  0  0  0  0  0  0
 10 11  1  0  0  0
 11 12  1  0  0  0
 11 15  1  0  0  0
 12 13  2  0  0  0
 13  8  1  0  0  0
 13 14  1  0  0  0
  8  1  1  0  0  0
  8  9  1  0  0  0
  1  2  1  0  0  0
  1  7  2  0  0  0
  2  3  2  0  0  0
  3  4  1  0  0  0
  4  5  1  0  0  0
  4  6  2  0  0  0
  6 16  1  0  0  0
  6  7  1  0  0  0
 16 18  1  0  0  0
 16 17  1  0  0  0
 18 19  1  0  0  0
 18 24  1  0  0  0
 19 20  1  0  0  0
 19 23  1  0  0  0
 20 21  1  0  0  0
 21 22  1  0  0  0
 22 23  1  0  0  0
 22 24  1  0  0  0
 24 25  1  0  0  0
 25 26  1  0  0  0
 25 27  2  0  0  0
 26 28  1  0  0  0
 26 29  1  0  0  0
 14 15  2  0  0  0
M  END
> <minimizedAffinity>
-7.85726

$$$$
