CHEMBL387300


 30 33  0  0  0  0  0  0  0  0999 V2000
  -15.0480    0.9364  -15.1939 C   0  0  0  0  0  0  0  0  0  0  0  0
  -13.9881    1.8163  -15.2010 C   0  0  0  0  0  0  0  0  0  0  0  0
  -12.9655    1.2131  -14.4110 C   0  0  0  0  0  0  0  0  0  0  0  0
  -13.4419   -0.0230  -14.0157 C   0  0  0  0  0  0  0  0  0  0  0  0
  -14.7031   -0.1753  -14.4974 O   0  0  0  0  0  0  0  0  0  0  0  0
  -12.7259   -1.0559  -13.2118 C   0  0  0  0  0  0  0  0  0  0  0  0
  -11.6437   -0.7477  -12.4816 N   0  0  0  0  0  0  0  0  0  0  0  0
  -11.2390   -1.9396  -11.9013 O   0  0  0  0  0  0  0  0  0  0  0  0
  -12.0696   -2.9470  -12.2895 C   0  0  0  0  0  0  0  0  0  0  0  0
  -11.9098   -4.2223  -11.9032 N   0  0  0  0  0  0  0  0  0  0  0  0
  -12.8490   -5.0092  -12.4370 C   0  0  0  0  0  0  0  0  0  0  0  0
  -13.8530   -4.6497  -13.2573 N   0  0  0  0  0  0  0  0  0  0  0  0
  -13.9681   -3.3551  -13.6298 C   0  0  0  0  0  0  0  0  0  0  0  0
  -14.9757   -3.0684  -14.5230 N   0  0  0  0  0  0  0  0  0  0  0  0
  -13.0454   -2.4355  -13.1239 C   0  0  0  0  0  0  0  0  0  0  0  0
  -15.6834   -3.7861  -14.6000 H   0  0  0  0  0  0  0  0  0  0  0  0
  -15.3379   -2.1140  -14.5877 H   0  0  0  0  0  0  0  0  0  0  0  0
  -18.6064    1.2150  -15.6741 N   0  0  0  0  0  0  0  0  0  0  0  0
  -17.4173    1.2196  -14.9558 C   0  0  0  0  0  0  0  0  0  0  0  0
  -17.3583    1.4042  -13.7425 O   0  0  0  0  0  0  0  0  0  0  0  0
  -16.3064    1.0005  -15.7578 N   0  0  0  0  0  0  0  0  0  0  0  0
  -18.6231    0.6760  -16.5276 H   0  0  0  0  0  0  0  0  0  0  0  0
  -16.3808    1.1206  -16.7552 H   0  0  0  0  0  0  0  0  0  0  0  0
  -22.8856   -0.1991  -13.5847 C   0  0  0  0  0  0  0  0  0  0  0  0
  -21.9675    0.8800  -14.0809 C   0  0  0  0  0  0  0  0  0  0  0  0
  -22.3301    2.2230  -13.9280 C   0  0  0  0  0  0  0  0  0  0  0  0
  -21.4886    3.2293  -14.3827 C   0  0  0  0  0  0  0  0  0  0  0  0
  -20.2725    2.9023  -14.9810 C   0  0  0  0  0  0  0  0  0  0  0  0
  -19.8661    1.5708  -15.1161 C   0  0  0  0  0  0  0  0  0  0  0  0
  -20.7338    0.5595  -14.6835 C   0  0  0  0  0  0  0  0  0  0  0  0
 24 25  1  0  0  0
 25 26  1  0  0  0
 25 30  2  0  0  0
 26 27  2  0  0  0
 27 28  1  0  0  0
 28 29  2  0  0  0
 29 18  1  0  0  0
 29 30  1  0  0  0
 18 19  1  0  0  0
 18 22  1  0  0  0
 19 20  2  0  0  0
 19 21  1  0  0  0
 21  1  1  0  0  0
 21 23  1  0  0  0
  1  2  2  0  0  0
  1  5  1  0  0  0
  2  3  1  0  0  0
  3  4  2  0  0  0
  4  6  1  0  0  0
  4  5  1  0  0  0
  6  7  2  0  0  0
  6 15  1  0  0  0
  7  8  1  0  0  0
  8  9  1  0  0  0
  9 10  1  0  0  0
  9 15  2  0  0  0
 10 11  2  0  0  0
 11 12  1  0  0  0
 12 13  2  0  0  0
 13 14  1  0  0  0
 13 15  1  0  0  0
 14 16  1  0  0  0
 14 17  1  0  0  0
M  END
> <minimizedAffinity>
-8.56554

$$$$
