CHEMBL57143


 40 44  0  0  0  0  0  0  0  0999 V2000
  -29.2247   -3.4927   -6.7922 C   0  0  0  0  0  0  0  0  0  0  0  0
  -29.8080   -2.8268   -5.7336 N   0  0  0  0  0  0  0  0  0  0  0  0
  -29.3834   -1.5325   -5.7165 C   0  0  0  0  0  0  0  0  0  0  0  0
  -28.4712   -1.3537   -6.7269 C   0  0  0  0  0  0  0  0  0  0  0  0
  -28.3800   -2.5989   -7.4577 C   0  0  0  0  0  0  0  0  0  0  0  0
  -27.8823    0.0030   -6.9401 C   0  0  0  0  0  0  0  0  0  0  0  0
  -28.1460    1.0591   -5.8937 C   0  0  0  0  0  0  0  0  0  0  0  0
  -29.5757    0.9440   -5.3712 C   0  0  0  0  0  0  0  0  0  0  0  0
  -29.8228   -0.4558   -4.7679 C   0  0  0  0  0  0  0  0  0  0  0  0
  -30.4984   -3.2233   -5.1144 H   0  0  0  0  0  0  0  0  0  0  0  0
  -30.4314   -9.4521   -6.9641 C   0  0  0  0  0  0  0  0  0  0  0  0
  -29.7768  -10.0602   -5.8717 C   0  0  0  0  0  0  0  0  0  0  0  0
  -29.0102   -9.2883   -5.0000 C   0  0  0  0  0  0  0  0  0  0  0  0
  -28.9158   -7.9328   -5.2596 C   0  0  0  0  0  0  0  0  0  0  0  0
  -29.5523   -7.3020   -6.3412 C   0  0  0  0  0  0  0  0  0  0  0  0
  -30.3177   -8.0574   -7.2193 C   0  0  0  0  0  0  0  0  0  0  0  0
  -29.1749   -5.8605   -6.2390 C   0  0  0  0  0  0  0  0  0  0  0  0
  -29.5817   -4.8527   -7.0299 C   0  0  0  0  0  0  0  0  0  0  0  0
  -28.2450   -5.7449   -5.0556 C   0  0  0  0  0  0  0  0  0  0  0  0
  -27.6512   -4.7739   -4.6345 O   0  0  0  0  0  0  0  0  0  0  0  0
  -28.1721   -7.0205   -4.5233 N   0  0  0  0  0  0  0  0  0  0  0  0
  -27.6042   -7.2285   -3.7160 H   0  0  0  0  0  0  0  0  0  0  0  0
  -31.2920  -10.5144   -8.1340 S   0  0  0  0  0  0  0  0  0  0  0  0
  -30.2933  -10.9478   -9.0988 O   0  0  0  0  0  0  0  0  0  0  0  0
  -32.4635   -9.7991   -8.5604 O   0  0  0  0  0  0  0  0  0  0  0  0
  -33.1071  -11.6599   -6.4479 C   0  0  0  0  0  0  0  0  0  0  0  0
  -31.7994  -11.9270   -7.1742 C   0  0  0  0  0  0  0  0  0  0  0  0
  -27.6460   -2.9519   -8.7293 C   0  0  0  0  0  0  0  0  0  0  0  0
  -27.6121   -1.9308   -9.8616 C   0  0  0  0  0  0  0  0  0  0  0  0
  -26.4365   -2.0863  -10.8137 C   0  0  0  0  0  0  0  0  0  0  0  0
  -26.3068   -0.9388  -11.7219 N   0  0  0  0  0  0  0  0  0  0  0  0
  -26.3386   -1.3584  -13.1492 C   0  0  0  0  0  0  0  0  0  0  0  0
  -25.0893   -2.1598  -13.6019 C   0  0  0  0  0  0  0  0  0  0  0  0
  -23.7857   -1.5505  -13.2112 N   0  0  0  0  0  0  0  0  0  0  0  0
  -23.8439   -1.1952  -11.7757 C   0  0  0  0  0  0  0  0  0  0  0  0
  -25.0360   -0.2748  -11.4341 C   0  0  0  0  0  0  0  0  0  0  0  0
  -23.5144   -0.3480  -14.0334 C   0  0  0  0  0  0  0  0  0  0  0  0
  -22.2123    0.3639  -13.6242 C   0  0  0  0  0  0  0  0  0  0  0  0
  -21.4752    0.7670  -14.7724 O   0  0  0  0  0  0  0  0  0  0  0  0
  -21.4700   -0.0112  -15.3637 H   0  0  0  0  0  0  0  0  0  0  0  0
 26 27  1  0  0  0
 27 23  1  0  0  0
 23 24  2  0  0  0
 23 25  2  0  0  0
 23 11  1  0  0  0
 11 12  1  0  0  0
 11 16  2  0  0  0
 12 13  2  0  0  0
 13 14  1  0  0  0
 14 15  2  0  0  0
 14 21  1  0  0  0
 15 16  1  0  0  0
 15 17  1  0  0  0
 17 18  2  0  0  0
 17 19  1  0  0  0
 18  1  1  0  0  0
  1  2  1  0  0  0
  1  5  2  0  0  0
  2  3  1  0  0  0
  2 10  1  0  0  0
  3  4  2  0  0  0
  3  9  1  0  0  0
  4  5  1  0  0  0
  4  6  1  0  0  0
  5 28  1  0  0  0
 28 29  1  0  0  0
 29 30  1  0  0  0
 30 31  1  0  0  0
 31 32  1  0  0  0
 31 36  1  0  0  0
 32 33  1  0  0  0
 33 34  1  0  0  0
 34 37  1  0  0  0
 34 35  1  0  0  0
 37 38  1  0  0  0
 38 39  1  0  0  0
 39 40  1  0  0  0
 35 36  1  0  0  0
  6  7  1  0  0  0
  7  8  1  0  0  0
  8  9  1  0  0  0
 19 20  2  0  0  0
 19 21  1  0  0  0
 21 22  1  0  0  0
M  END
> <minimizedAffinity>
-9.79558

$$$$
