CHEMBL381817


 23 25  0  0  0  0  0  0  0  0999 V2000
  -28.0497   -2.4392   -8.7018 C   0  0  0  0  0  0  0  0  0  0  0  0
  -28.6343   -3.5454   -8.1171 C   0  0  0  0  0  0  0  0  0  0  0  0
  -28.9516   -3.5134   -6.7774 C   0  0  0  0  0  0  0  0  0  0  0  0
  -28.4864   -2.5157   -6.0117 N   0  0  0  0  0  0  0  0  0  0  0  0
  -27.7948   -1.5455   -6.6330 C   0  0  0  0  0  0  0  0  0  0  0  0
  -27.5771   -1.4339   -7.9531 N   0  0  0  0  0  0  0  0  0  0  0  0
  -29.7597   -4.5099   -6.2401 N   0  0  0  0  0  0  0  0  0  0  0  0
  -29.3560   -5.9022   -6.4004 C   0  0  0  0  0  0  0  0  0  0  0  0
  -29.8138   -6.6109   -5.1242 C   0  0  0  0  0  0  0  0  0  0  0  0
  -29.9946   -5.5145   -4.0785 C   0  0  0  0  0  0  0  0  0  0  0  0
  -28.7729   -5.2754   -3.2971 N   0  0  0  0  0  0  0  0  0  0  0  0
  -30.3912   -4.2917   -4.9266 C   0  0  0  0  0  0  0  0  0  0  0  0
  -28.0378   -4.9326   -3.9179 H   0  0  0  0  0  0  0  0  0  0  0  0
  -28.4371   -6.1515   -2.9008 H   0  0  0  0  0  0  0  0  0  0  0  0
  -27.9901   -2.2834  -10.1000 N   0  0  0  0  0  0  0  0  0  0  0  0
  -28.5312   -3.0194  -10.5373 H   0  0  0  0  0  0  0  0  0  0  0  0
  -25.2259   -1.1991  -12.4119 C   0  0  0  0  0  0  0  0  0  0  0  0
  -24.7606   -1.2708  -11.1225 C   0  0  0  0  0  0  0  0  0  0  0  0
  -25.7116   -1.5963  -10.1881 N   0  0  0  0  0  0  0  0  0  0  0  0
  -26.8839   -1.8258  -10.7434 C   0  0  0  0  0  0  0  0  0  0  0  0
  -26.9035   -1.5373  -12.4473 S   0  0  0  0  0  0  0  0  0  0  0  0
  -23.7610   -0.6157  -14.4511 N   0  0  0  0  0  0  0  0  0  0  0  0
  -24.4244   -0.8953  -13.5476 C   0  0  0  0  0  0  0  0  0  0  0  0
 22 23  3  0  0  0
 23 17  1  0  0  0
 17 18  2  0  0  0
 17 21  1  0  0  0
 18 19  1  0  0  0
 19 20  2  0  0  0
 20 15  1  0  0  0
 20 21  1  0  0  0
 15  1  1  0  0  0
 15 16  1  0  0  0
  1  2  1  0  0  0
  1  6  2  0  0  0
  2  3  2  0  0  0
  3  7  1  0  0  0
  3  4  1  0  0  0
  7  8  1  0  0  0
  7 12  1  0  0  0
  8  9  1  0  0  0
  9 10  1  0  0  0
 10 11  1  0  0  0
 10 12  1  0  0  0
 11 13  1  0  0  0
 11 14  1  0  0  0
  4  5  2  0  0  0
  5  6  1  0  0  0
M  END
> <minimizedAffinity>
-7.42869

$$$$
