CHEMBL3975092


 25 28  0  0  0  0  0  0  0  0999 V2000
  -27.0420   -1.5597  -11.8275 C   0  0  0  0  0  0  0  0  0  0  0  0
  -27.7094   -1.8947  -12.9423 N   0  0  0  0  0  0  0  0  0  0  0  0
  -26.7983   -1.7796  -13.9202 N   0  0  0  0  0  0  0  0  0  0  0  0
  -25.5564   -1.4017  -13.4938 C   0  0  0  0  0  0  0  0  0  0  0  0
  -24.3611   -1.1857  -14.1877 C   0  0  0  0  0  0  0  0  0  0  0  0
  -23.2454   -0.7921  -13.4384 C   0  0  0  0  0  0  0  0  0  0  0  0
  -23.3517   -0.5789  -12.0607 C   0  0  0  0  0  0  0  0  0  0  0  0
  -24.5497   -0.8355  -11.3819 C   0  0  0  0  0  0  0  0  0  0  0  0
  -25.6767   -1.2440  -12.1162 C   0  0  0  0  0  0  0  0  0  0  0  0
  -27.0920   -1.9728  -14.8711 H   0  0  0  0  0  0  0  0  0  0  0  0
  -27.3779   -2.3585   -9.5232 C   0  0  0  0  0  0  0  0  0  0  0  0
  -27.6349   -1.4936  -10.5201 C   0  0  0  0  0  0  0  0  0  0  0  0
  -28.0136   -2.3489   -8.1977 C   0  0  0  0  0  0  0  0  0  0  0  0
  -27.8864   -1.2732   -7.3066 C   0  0  0  0  0  0  0  0  0  0  0  0
  -28.5782   -1.2696   -6.0917 C   0  0  0  0  0  0  0  0  0  0  0  0
  -29.4112   -2.3331   -5.7568 C   0  0  0  0  0  0  0  0  0  0  0  0
  -29.5485   -3.4071   -6.6337 C   0  0  0  0  0  0  0  0  0  0  0  0
  -28.8567   -3.4122   -7.8478 C   0  0  0  0  0  0  0  0  0  0  0  0
  -22.0948   -0.5745  -14.1653 O   0  0  0  0  0  0  0  0  0  0  0  0
  -21.6304    0.7075  -14.3647 C   0  0  0  0  0  0  0  0  0  0  0  0
  -22.3240    1.8679  -14.0096 C   0  0  0  0  0  0  0  0  0  0  0  0
  -21.7790    3.1227  -14.2808 C   0  0  0  0  0  0  0  0  0  0  0  0
  -20.5090    3.2258  -14.8459 C   0  0  0  0  0  0  0  0  0  0  0  0
  -19.7849    2.0720  -15.1423 C   0  0  0  0  0  0  0  0  0  0  0  0
  -20.3447    0.8137  -14.9056 C   0  0  0  0  0  0  0  0  0  0  0  0
 11 12  2  0  0  0
 11 13  1  0  0  0
 12  1  1  0  0  0
  1  2  2  0  0  0
  1  9  1  0  0  0
  2  3  1  0  0  0
  3  4  1  0  0  0
  3 10  1  0  0  0
  4  5  1  0  0  0
  4  9  2  0  0  0
  5  6  2  0  0  0
  6 19  1  0  0  0
  6  7  1  0  0  0
 19 20  1  0  0  0
 20 21  1  0  0  0
 20 25  2  0  0  0
 21 22  2  0  0  0
 22 23  1  0  0  0
 23 24  2  0  0  0
 24 25  1  0  0  0
  7  8  2  0  0  0
  8  9  1  0  0  0
 13 14  1  0  0  0
 13 18  2  0  0  0
 14 15  2  0  0  0
 15 16  1  0  0  0
 16 17  2  0  0  0
 17 18  1  0  0  0
M  END
> <minimizedAffinity>
-11.00145

$$$$
