CHEMBL2408732


 28 32  0  0  0  0  0  0  0  0999 V2000
  -29.6866   -9.6005   -8.5445 C   0  0  0  0  0  0  0  0  0  0  0  0
  -30.8861  -10.2756   -8.7652 C   0  0  0  0  0  0  0  0  0  0  0  0
  -32.1152   -9.8607   -8.3593 N   0  0  0  0  0  0  0  0  0  0  0  0
  -32.2277   -8.7267   -7.6313 C   0  0  0  0  0  0  0  0  0  0  0  0
  -33.4937   -8.3373   -7.2231 N   0  0  0  0  0  0  0  0  0  0  0  0
  -31.0564   -8.0160   -7.3573 C   0  0  0  0  0  0  0  0  0  0  0  0
  -30.9601   -6.8664   -6.6202 O   0  0  0  0  0  0  0  0  0  0  0  0
  -29.6447   -6.4919   -6.6020 C   0  0  0  0  0  0  0  0  0  0  0  0
  -28.9130   -7.3875   -7.3567 C   0  0  0  0  0  0  0  0  0  0  0  0
  -29.7989   -8.4051   -7.8082 C   0  0  0  0  0  0  0  0  0  0  0  0
  -34.2092   -8.7864   -7.7822 H   0  0  0  0  0  0  0  0  0  0  0  0
  -33.5909   -7.3432   -7.0632 H   0  0  0  0  0  0  0  0  0  0  0  0
  -29.0827   -5.3084   -5.8667 C   0  0  0  0  0  0  0  0  0  0  0  0
  -29.0011   -5.2826   -4.4901 C   0  0  0  0  0  0  0  0  0  0  0  0
  -28.3375   -3.8322   -3.8987 S   0  0  0  0  0  0  0  0  0  0  0  0
  -28.1646   -3.1868   -5.4828 C   0  0  0  0  0  0  0  0  0  0  0  0
  -27.6643   -1.9263   -5.8163 C   0  0  0  0  0  0  0  0  0  0  0  0
  -27.5960   -1.5412   -7.1094 N   0  0  0  0  0  0  0  0  0  0  0  0
  -28.0167   -2.3941   -8.0602 C   0  0  0  0  0  0  0  0  0  0  0  0
  -28.5177   -3.6615   -7.8079 C   0  0  0  0  0  0  0  0  0  0  0  0
  -28.5995   -4.0870   -6.4642 C   0  0  0  0  0  0  0  0  0  0  0  0
  -27.5175  -11.3735   -6.8150 C   0  0  0  0  0  0  0  0  0  0  0  0
  -27.4855  -10.8330   -8.2007 C   0  0  0  0  0  0  0  0  0  0  0  0
  -28.3856  -10.0932   -8.9580 C   0  0  0  0  0  0  0  0  0  0  0  0
  -27.7281   -9.9247  -10.2020 C   0  0  0  0  0  0  0  0  0  0  0  0
  -26.5352  -10.5125  -10.2462 N   0  0  0  0  0  0  0  0  0  0  0  0
  -26.3951  -11.0358   -9.0187 N   0  0  0  0  0  0  0  0  0  0  0  0
  -25.1594  -11.7069   -8.6833 C   0  0  0  0  0  0  0  0  0  0  0  0
 22 23  1  0  0  0
 23 24  2  0  0  0
 23 27  1  0  0  0
 24  1  1  0  0  0
 24 25  1  0  0  0
  1  2  1  0  0  0
  1 10  2  0  0  0
  2  3  2  0  0  0
  3  4  1  0  0  0
  4  5  1  0  0  0
  4  6  2  0  0  0
  5 11  1  0  0  0
  5 12  1  0  0  0
  6  7  1  0  0  0
  6 10  1  0  0  0
  7  8  1  0  0  0
  8 13  1  0  0  0
  8  9  2  0  0  0
 13 14  2  0  0  0
 13 21  1  0  0  0
 14 15  1  0  0  0
 15 16  1  0  0  0
 16 17  1  0  0  0
 16 21  2  0  0  0
 17 18  2  0  0  0
 18 19  1  0  0  0
 19 20  2  0  0  0
 20 21  1  0  0  0
  9 10  1  0  0  0
 25 26  2  0  0  0
 26 27  1  0  0  0
 27 28  1  0  0  0
M  END
> <minimizedAffinity>
-8.66027

$$$$
