CHEMBL3639892


 33 36  0  0  0  0  0  0  0  0999 V2000
  -24.9637   -1.2622  -12.3652 C   0  0  0  0  0  0  0  0  0  0  0  0
  -25.4428   -1.8849  -13.5162 C   0  0  0  0  0  0  0  0  0  0  0  0
  -25.0013   -1.4756  -14.7748 C   0  0  0  0  0  0  0  0  0  0  0  0
  -24.1168   -0.4044  -14.8953 C   0  0  0  0  0  0  0  0  0  0  0  0
  -23.6485    0.2659  -13.7583 C   0  0  0  0  0  0  0  0  0  0  0  0
  -24.0383   -0.2151  -12.4982 C   0  0  0  0  0  0  0  0  0  0  0  0
  -22.7765    1.4368  -13.9168 C   0  0  0  0  0  0  0  0  0  0  0  0
  -23.0207    2.7615  -13.5821 C   0  0  0  0  0  0  0  0  0  0  0  0
  -21.9501    3.5707  -13.8410 N   0  0  0  0  0  0  0  0  0  0  0  0
  -21.0302    2.7701  -14.3266 C   0  0  0  0  0  0  0  0  0  0  0  0
  -19.7111    3.0619  -14.7758 C   0  0  0  0  0  0  0  0  0  0  0  0
  -18.8894    2.0820  -15.2231 C   0  0  0  0  0  0  0  0  0  0  0  0
  -19.3869    0.6989  -15.2443 C   0  0  0  0  0  0  0  0  0  0  0  0
  -20.6244    0.4163  -14.8091 C   0  0  0  0  0  0  0  0  0  0  0  0
  -21.4618    1.4475  -14.3756 N   0  0  0  0  0  0  0  0  0  0  0  0
  -17.5329    2.4280  -15.7104 C   0  0  0  0  0  0  0  0  0  0  0  0
  -17.1011    3.7375  -15.9010 C   0  0  0  0  0  0  0  0  0  0  0  0
  -15.8102    3.9659  -16.3698 C   0  0  0  0  0  0  0  0  0  0  0  0
  -15.0070    2.8724  -16.6138 C   0  0  0  0  0  0  0  0  0  0  0  0
  -13.4094    3.0448  -17.1990 Cl  0  0  0  0  0  0  0  0  0  0  0  0
  -15.4217    1.6095  -16.4073 N   0  0  0  0  0  0  0  0  0  0  0  0
  -16.6981    1.3878  -15.9478 N   0  0  0  0  0  0  0  0  0  0  0  0
  -27.6834   -1.4039  -11.1564 O   0  0  0  0  0  0  0  0  0  0  0  0
  -26.6468   -1.6458  -10.5559 C   0  0  0  0  0  0  0  0  0  0  0  0
  -26.6598   -2.0340   -9.2323 N   0  0  0  0  0  0  0  0  0  0  0  0
  -25.3666   -1.6098  -11.0557 N   0  0  0  0  0  0  0  0  0  0  0  0
  -25.8503   -1.7616   -8.6881 H   0  0  0  0  0  0  0  0  0  0  0  0
  -24.6347   -1.8906  -10.4208 H   0  0  0  0  0  0  0  0  0  0  0  0
  -27.9391   -2.0469   -8.5144 C   0  0  0  0  0  0  0  0  0  0  0  0
  -28.4265   -3.4313   -8.0649 C   0  0  0  0  0  0  0  0  0  0  0  0
  -28.3614   -3.5768   -6.7207 F   0  0  0  0  0  0  0  0  0  0  0  0
  -29.6909   -3.6866   -8.4567 F   0  0  0  0  0  0  0  0  0  0  0  0
  -27.6337   -4.3945   -8.5985 F   0  0  0  0  0  0  0  0  0  0  0  0
 23 24  2  0  0  0
 24 25  1  0  0  0
 24 26  1  0  0  0
 25 29  1  0  0  0
 25 27  1  0  0  0
 29 30  1  0  0  0
 30 31  1  0  0  0
 30 32  1  0  0  0
 30 33  1  0  0  0
 26  1  1  0  0  0
 26 28  1  0  0  0
  1  2  1  0  0  0
  1  6  2  0  0  0
  2  3  2  0  0  0
  3  4  1  0  0  0
  4  5  2  0  0  0
  5  7  1  0  0  0
  5  6  1  0  0  0
  7  8  2  0  0  0
  7 15  1  0  0  0
  8  9  1  0  0  0
  9 10  2  0  0  0
 10 11  1  0  0  0
 10 15  1  0  0  0
 11 12  2  0  0  0
 12 16  1  0  0  0
 12 13  1  0  0  0
 16 17  1  0  0  0
 16 22  2  0  0  0
 17 18  2  0  0  0
 18 19  1  0  0  0
 19 20  1  0  0  0
 19 21  2  0  0  0
 21 22  1  0  0  0
 13 14  2  0  0  0
 14 15  1  0  0  0
M  END
> <minimizedAffinity>
-10.53516

$$$$
