CHEMBL3702616


 27 29  0  0  0  0  0  0  0  0999 V2000
  -20.4871    1.7317  -14.6044 C   0  0  0  0  0  0  0  0  0  0  0  0
  -21.1732    2.9443  -14.5258 C   0  0  0  0  0  0  0  0  0  0  0  0
  -22.5018    2.9514  -14.1030 C   0  0  0  0  0  0  0  0  0  0  0  0
  -23.1430    1.7518  -13.7679 C   0  0  0  0  0  0  0  0  0  0  0  0
  -22.4859    0.5154  -13.8512 C   0  0  0  0  0  0  0  0  0  0  0  0
  -21.1479    0.5391  -14.2683 C   0  0  0  0  0  0  0  0  0  0  0  0
  -23.1532   -0.6693  -13.5844 N   0  0  0  0  0  0  0  0  0  0  0  0
  -22.6818   -1.5933  -12.5469 C   0  0  0  0  0  0  0  0  0  0  0  0
  -23.5321   -1.4513  -11.2902 C   0  0  0  0  0  0  0  0  0  0  0  0
  -24.9936   -1.5451  -11.6279 C   0  0  0  0  0  0  0  0  0  0  0  0
  -25.8215   -1.9112  -10.6229 N   0  0  0  0  0  0  0  0  0  0  0  0
  -27.1247   -1.9907  -10.9038 C   0  0  0  0  0  0  0  0  0  0  0  0
  -27.9714   -2.3634   -9.8837 N   0  0  0  0  0  0  0  0  0  0  0  0
  -27.6654   -1.6926  -12.0887 N   0  0  0  0  0  0  0  0  0  0  0  0
  -26.8136   -1.3255  -13.0626 C   0  0  0  0  0  0  0  0  0  0  0  0
  -25.4472   -1.2289  -12.8968 C   0  0  0  0  0  0  0  0  0  0  0  0
  -24.5363   -0.8632  -14.0353 C   0  0  0  0  0  0  0  0  0  0  0  0
  -27.5417   -2.1427   -8.9959 H   0  0  0  0  0  0  0  0  0  0  0  0
  -28.8946   -1.9915  -10.0583 H   0  0  0  0  0  0  0  0  0  0  0  0
  -18.4745    2.7817  -15.5235 N   0  0  0  0  0  0  0  0  0  0  0  0
  -19.0895    1.6205  -15.1078 C   0  0  0  0  0  0  0  0  0  0  0  0
  -18.5356    0.5257  -15.1298 O   0  0  0  0  0  0  0  0  0  0  0  0
  -18.9403    3.6718  -15.4212 H   0  0  0  0  0  0  0  0  0  0  0  0
  -17.1483    2.7663  -16.1092 C   0  0  0  0  0  0  0  0  0  0  0  0
  -16.4754    4.1387  -16.0587 C   0  0  0  0  0  0  0  0  0  0  0  0
  -15.2974    4.4342  -18.2722 C   0  0  0  0  0  0  0  0  0  0  0  0
  -15.1300    4.1537  -16.7875 C   0  0  0  0  0  0  0  0  0  0  0  0
 26 27  1  0  0  0
 27 25  1  0  0  0
 25 24  1  0  0  0
 24 20  1  0  0  0
 20 21  1  0  0  0
 20 23  1  0  0  0
 21 22  2  0  0  0
 21  1  1  0  0  0
  1  2  1  0  0  0
  1  6  2  0  0  0
  2  3  2  0  0  0
  3  4  1  0  0  0
  4  5  2  0  0  0
  5  7  1  0  0  0
  5  6  1  0  0  0
  7  8  1  0  0  0
  7 17  1  0  0  0
  8  9  1  0  0  0
  9 10  1  0  0  0
 10 11  1  0  0  0
 10 16  2  0  0  0
 11 12  2  0  0  0
 12 13  1  0  0  0
 12 14  1  0  0  0
 13 18  1  0  0  0
 13 19  1  0  0  0
 14 15  2  0  0  0
 15 16  1  0  0  0
 16 17  1  0  0  0
M  END
> <minimizedAffinity>
-8.58255

$$$$
