CHEMBL3403510


 23 25  0  0  0  0  0  0  0  0999 V2000
  -30.1325   -5.3323   -5.5137 N   0  0  0  0  0  0  0  0  0  0  0  0
  -30.9741   -5.0131   -4.3621 C   0  0  0  0  0  0  0  0  0  0  0  0
  -30.1353   -6.7134   -5.8219 C   0  0  0  0  0  0  0  0  0  0  0  0
  -31.1955   -7.2690   -6.4750 N   0  0  0  0  0  0  0  0  0  0  0  0
  -31.1887   -8.5815   -6.7992 C   0  0  0  0  0  0  0  0  0  0  0  0
  -32.3896   -9.1048   -7.5294 C   0  0  0  0  0  0  0  0  0  0  0  0
  -30.2193   -9.4657   -6.5241 N   0  0  0  0  0  0  0  0  0  0  0  0
  -29.2144   -8.9075   -5.8379 C   0  0  0  0  0  0  0  0  0  0  0  0
  -28.1226   -9.6130   -5.4150 O   0  0  0  0  0  0  0  0  0  0  0  0
  -27.3243   -8.7543   -4.7282 C   0  0  0  0  0  0  0  0  0  0  0  0
  -26.0677   -9.2832   -4.1676 C   0  0  0  0  0  0  0  0  0  0  0  0
  -27.8960   -7.5007   -4.6987 C   0  0  0  0  0  0  0  0  0  0  0  0
  -29.1002   -7.5852   -5.4443 C   0  0  0  0  0  0  0  0  0  0  0  0
  -27.9788   -2.3743   -7.6985 C   0  0  0  0  0  0  0  0  0  0  0  0
  -28.7765   -3.3166   -8.3478 C   0  0  0  0  0  0  0  0  0  0  0  0
  -29.5229   -4.2465   -7.6136 C   0  0  0  0  0  0  0  0  0  0  0  0
  -29.4675   -4.3087   -6.2119 C   0  0  0  0  0  0  0  0  0  0  0  0
  -28.6788   -3.3424   -5.5753 C   0  0  0  0  0  0  0  0  0  0  0  0
  -27.9568   -2.3716   -6.2957 C   0  0  0  0  0  0  0  0  0  0  0  0
  -27.0053   -1.7080   -9.7660 C   0  0  0  0  0  0  0  0  0  0  0  0
  -27.1549   -1.5078   -8.3654 O   0  0  0  0  0  0  0  0  0  0  0  0
  -27.2315   -1.5235   -5.4937 O   0  0  0  0  0  0  0  0  0  0  0  0
  -27.8950   -0.3308   -5.0887 C   0  0  0  0  0  0  0  0  0  0  0  0
 20 21  1  0  0  0
 21 14  1  0  0  0
 14 15  1  0  0  0
 14 19  2  0  0  0
 15 16  2  0  0  0
 16 17  1  0  0  0
 17  1  1  0  0  0
 17 18  2  0  0  0
  1  2  1  0  0  0
  1  3  1  0  0  0
  3  4  1  0  0  0
  3 13  2  0  0  0
  4  5  2  0  0  0
  5  6  1  0  0  0
  5  7  1  0  0  0
  7  8  2  0  0  0
  8  9  1  0  0  0
  8 13  1  0  0  0
  9 10  1  0  0  0
 10 11  1  0  0  0
 10 12  2  0  0  0
 12 13  1  0  0  0
 18 19  1  0  0  0
 19 22  1  0  0  0
 22 23  1  0  0  0
M  END
> <minimizedAffinity>
-7.44487

$$$$
