CHEMBL4103897


 27 30  0  0  0  0  0  0  0  0999 V2000
  -29.0079   -7.8774   -7.2501 C   0  0  0  0  0  0  0  0  0  0  0  0
  -29.0832   -7.7288   -5.8561 C   0  0  0  0  0  0  0  0  0  0  0  0
  -28.8856   -6.4923   -5.2321 C   0  0  0  0  0  0  0  0  0  0  0  0
  -28.5586   -5.3582   -5.9724 C   0  0  0  0  0  0  0  0  0  0  0  0
  -28.4597   -5.4860   -7.3570 C   0  0  0  0  0  0  0  0  0  0  0  0
  -28.7393   -6.7128   -7.9789 C   0  0  0  0  0  0  0  0  0  0  0  0
  -32.5934   -8.3097   -7.1101 C   0  0  0  0  0  0  0  0  0  0  0  0
  -31.9427   -9.4974   -7.7245 C   0  0  0  0  0  0  0  0  0  0  0  0
  -32.7533  -10.5052   -8.0850 N   0  0  0  0  0  0  0  0  0  0  0  0
  -31.9236  -11.3998   -8.6336 N   0  0  0  0  0  0  0  0  0  0  0  0
  -30.6218  -11.0207   -8.6319 C   0  0  0  0  0  0  0  0  0  0  0  0
  -29.6230  -11.7589   -9.1475 N   0  0  0  0  0  0  0  0  0  0  0  0
  -28.4229  -11.1660   -9.0329 C   0  0  0  0  0  0  0  0  0  0  0  0
  -28.1980   -9.9432   -8.4258 C   0  0  0  0  0  0  0  0  0  0  0  0
  -29.2675   -9.1874   -7.8858 C   0  0  0  0  0  0  0  0  0  0  0  0
  -30.5587   -9.7741   -8.0150 C   0  0  0  0  0  0  0  0  0  0  0  0
  -32.3027  -12.2624   -9.0040 H   0  0  0  0  0  0  0  0  0  0  0  0
  -28.3495   -4.0827   -5.4014 N   0  0  0  0  0  0  0  0  0  0  0  0
  -28.9933   -2.9274   -5.7740 C   0  0  0  0  0  0  0  0  0  0  0  0
  -29.8669   -2.8264   -6.6280 O   0  0  0  0  0  0  0  0  0  0  0  0
  -28.5424   -1.8083   -5.1081 N   0  0  0  0  0  0  0  0  0  0  0  0
  -27.5928   -3.9949   -4.7418 H   0  0  0  0  0  0  0  0  0  0  0  0
  -27.9440   -1.9238   -4.3042 H   0  0  0  0  0  0  0  0  0  0  0  0
  -29.1198   -0.4992   -5.4593 C   0  0  0  0  0  0  0  0  0  0  0  0
  -28.6589    0.1203   -6.7932 C   0  0  0  0  0  0  0  0  0  0  0  0
  -28.6833    1.4864   -6.0675 C   0  0  0  0  0  0  0  0  0  0  0  0
  -28.4457    0.7058   -4.7599 C   0  0  0  0  0  0  0  0  0  0  0  0
  7  8  1  0  0  0
  8  9  2  0  0  0
  8 16  1  0  0  0
  9 10  1  0  0  0
 10 11  1  0  0  0
 10 17  1  0  0  0
 11 12  1  0  0  0
 11 16  2  0  0  0
 12 13  2  0  0  0
 13 14  1  0  0  0
 14 15  2  0  0  0
 15  1  1  0  0  0
 15 16  1  0  0  0
  1  2  1  0  0  0
  1  6  2  0  0  0
  2  3  2  0  0  0
  3  4  1  0  0  0
  4 18  1  0  0  0
  4  5  2  0  0  0
 18 19  1  0  0  0
 18 22  1  0  0  0
 19 20  2  0  0  0
 19 21  1  0  0  0
 21 24  1  0  0  0
 21 23  1  0  0  0
 24 25  1  0  0  0
 24 27  1  0  0  0
 25 26  1  0  0  0
 26 27  1  0  0  0
  5  6  1  0  0  0
M  END
> <minimizedAffinity>
-8.01581

$$$$
