CHEMBL497739


 36 40  0  0  0  0  0  0  0  0999 V2000
  -19.8905    3.4339  -15.2700 N   0  0  0  0  0  0  0  0  0  0  0  0
  -18.6320    2.8333  -15.1308 C   0  0  0  0  0  0  0  0  0  0  0  0
  -17.7454    2.8242  -16.2215 C   0  0  0  0  0  0  0  0  0  0  0  0
  -16.5278    2.1315  -16.1720 C   0  0  0  0  0  0  0  0  0  0  0  0
  -16.2184    1.4017  -15.0388 C   0  0  0  0  0  0  0  0  0  0  0  0
  -17.1257    1.3856  -13.9748 C   0  0  0  0  0  0  0  0  0  0  0  0
  -18.3372    2.0569  -14.0064 C   0  0  0  0  0  0  0  0  0  0  0  0
  -16.6319    0.6232  -12.9196 N   0  0  0  0  0  0  0  0  0  0  0  0
  -15.3809    0.1072  -13.2146 C   0  0  0  0  0  0  0  0  0  0  0  0
  -14.6338   -0.4810  -12.4540 O   0  0  0  0  0  0  0  0  0  0  0  0
  -15.1046    0.5181  -14.6428 C   0  0  0  0  0  0  0  0  0  0  0  0
  -14.0350    0.0402  -15.3199 C   0  0  0  0  0  0  0  0  0  0  0  0
  -19.8996    4.2109  -15.9250 H   0  0  0  0  0  0  0  0  0  0  0  0
  -20.3315    3.6756  -14.3884 H   0  0  0  0  0  0  0  0  0  0  0  0
  -17.0700    0.5148  -12.0181 H   0  0  0  0  0  0  0  0  0  0  0  0
  -13.6919    0.6390  -16.6306 C   0  0  0  0  0  0  0  0  0  0  0  0
  -14.1162   -0.0085  -17.7994 C   0  0  0  0  0  0  0  0  0  0  0  0
  -13.7725    0.4999  -19.0540 C   0  0  0  0  0  0  0  0  0  0  0  0
  -13.0263    1.6734  -19.1506 C   0  0  0  0  0  0  0  0  0  0  0  0
  -12.5978    2.3241  -17.9961 C   0  0  0  0  0  0  0  0  0  0  0  0
  -12.9087    1.7938  -16.7430 C   0  0  0  0  0  0  0  0  0  0  0  0
  -13.1038   -0.9050  -14.8425 N   0  0  0  0  0  0  0  0  0  0  0  0
  -13.0617   -0.8092  -13.8184 H   0  0  0  0  0  0  0  0  0  0  0  0
  -13.3477   -2.3052  -15.0505 C   0  0  0  0  0  0  0  0  0  0  0  0
  -14.2695   -3.0375  -14.2979 C   0  0  0  0  0  0  0  0  0  0  0  0
  -14.3254   -4.4309  -14.3690 C   0  0  0  0  0  0  0  0  0  0  0  0
  -13.5012   -5.1214  -15.2561 C   0  0  0  0  0  0  0  0  0  0  0  0
  -12.7298   -4.3800  -16.1616 C   0  0  0  0  0  0  0  0  0  0  0  0
  -12.6671   -2.9828  -16.0694 C   0  0  0  0  0  0  0  0  0  0  0  0
  -13.3170   -6.6158  -15.1228 C   0  0  0  0  0  0  0  0  0  0  0  0
  -13.0888   -7.1258  -13.7525 N   0  0  0  0  0  0  0  0  0  0  0  0
  -13.9112   -8.3247  -13.5209 C   0  0  0  0  0  0  0  0  0  0  0  0
  -13.5527   -9.0752  -12.2369 C   0  0  0  0  0  0  0  0  0  0  0  0
  -12.0709   -9.4165  -12.2029 C   0  0  0  0  0  0  0  0  0  0  0  0
  -11.2666   -8.1328  -12.3242 C   0  0  0  0  0  0  0  0  0  0  0  0
  -11.6434   -7.3786  -13.5979 C   0  0  0  0  0  0  0  0  0  0  0  0
  1  2  1  0  0  0
  1 13  1  0  0  0
  1 14  1  0  0  0
  2  3  1  0  0  0
  2  7  2  0  0  0
  3  4  2  0  0  0
  4  5  1  0  0  0
  5  6  2  0  0  0
  5 11  1  0  0  0
  6  7  1  0  0  0
  6  8  1  0  0  0
  8  9  1  0  0  0
  8 15  1  0  0  0
  9 10  2  0  0  0
  9 11  1  0  0  0
 11 12  2  0  0  0
 12 22  1  0  0  0
 12 16  1  0  0  0
 22 24  1  0  0  0
 22 23  1  0  0  0
 24 25  1  0  0  0
 24 29  2  0  0  0
 25 26  2  0  0  0
 26 27  1  0  0  0
 27 30  1  0  0  0
 27 28  2  0  0  0
 30 31  1  0  0  0
 31 32  1  0  0  0
 31 36  1  0  0  0
 32 33  1  0  0  0
 33 34  1  0  0  0
 34 35  1  0  0  0
 35 36  1  0  0  0
 28 29  1  0  0  0
 16 17  1  0  0  0
 16 21  2  0  0  0
 17 18  2  0  0  0
 18 19  1  0  0  0
 19 20  2  0  0  0
 20 21  1  0  0  0
M  END
> <minimizedAffinity>
-7.10262

$$$$
