CHEMBL169797


 32 35  0  0  0  0  0  0  0  0999 V2000
  -27.7954   -9.0523   -5.6557 C   0  0  0  0  0  0  0  0  0  0  0  0
  -27.7165   -9.9692   -4.6716 N   0  0  0  0  0  0  0  0  0  0  0  0
  -28.3553   -9.6991   -3.5340 C   0  0  0  0  0  0  0  0  0  0  0  0
  -29.0772   -8.6053   -3.2896 N   0  0  0  0  0  0  0  0  0  0  0  0
  -29.1592   -7.7146   -4.2792 C   0  0  0  0  0  0  0  0  0  0  0  0
  -29.9369   -6.5972   -4.0597 C   0  0  0  0  0  0  0  0  0  0  0  0
  -30.1155   -5.5819   -5.0137 C   0  0  0  0  0  0  0  0  0  0  0  0
  -29.4633   -5.6933   -6.2447 C   0  0  0  0  0  0  0  0  0  0  0  0
  -28.6765   -6.8288   -6.4815 C   0  0  0  0  0  0  0  0  0  0  0  0
  -28.5258   -7.8563   -5.5089 C   0  0  0  0  0  0  0  0  0  0  0  0
  -27.1628   -9.3031   -6.9008 N   0  0  0  0  0  0  0  0  0  0  0  0
  -26.2800   -9.7750   -6.7383 H   0  0  0  0  0  0  0  0  0  0  0  0
  -27.5910   -9.7520  -10.5566 C   0  0  0  0  0  0  0  0  0  0  0  0
  -28.8286  -10.3848  -10.6294 C   0  0  0  0  0  0  0  0  0  0  0  0
  -29.5377  -10.6577   -9.4553 C   0  0  0  0  0  0  0  0  0  0  0  0
  -29.0034  -10.3111   -8.2141 C   0  0  0  0  0  0  0  0  0  0  0  0
  -27.7437   -9.7130   -8.1186 C   0  0  0  0  0  0  0  0  0  0  0  0
  -27.0722   -9.4019   -9.3078 C   0  0  0  0  0  0  0  0  0  0  0  0
  -27.3932   -9.3276  -12.8847 C   0  0  0  0  0  0  0  0  0  0  0  0
  -26.7817   -9.4219  -11.6072 O   0  0  0  0  0  0  0  0  0  0  0  0
  -29.4796   -4.8283   -7.3065 O   0  0  0  0  0  0  0  0  0  0  0  0
  -28.2682   -4.5765   -8.0060 C   0  0  0  0  0  0  0  0  0  0  0  0
  -30.8820   -4.4744   -4.7707 O   0  0  0  0  0  0  0  0  0  0  0  0
  -30.6249   -3.7689   -3.5625 C   0  0  0  0  0  0  0  0  0  0  0  0
  -29.2563   -3.1183   -3.6549 C   0  0  0  0  0  0  0  0  0  0  0  0
  -29.4263   -1.7613   -4.3362 C   0  0  0  0  0  0  0  0  0  0  0  0
  -28.1915   -0.9805   -4.4733 N   0  0  0  0  0  0  0  0  0  0  0  0
  -28.4271    0.4534   -4.7660 C   0  0  0  0  0  0  0  0  0  0  0  0
  -29.0406    0.7038   -6.1510 C   0  0  0  0  0  0  0  0  0  0  0  0
  -28.1999    0.1745   -7.1841 O   0  0  0  0  0  0  0  0  0  0  0  0
  -27.9545   -1.2235   -6.9908 C   0  0  0  0  0  0  0  0  0  0  0  0
  -27.3791   -1.5243   -5.5914 C   0  0  0  0  0  0  0  0  0  0  0  0
 19 20  1  0  0  0
 20 13  1  0  0  0
 13 14  1  0  0  0
 13 18  2  0  0  0
 14 15  2  0  0  0
 15 16  1  0  0  0
 16 17  2  0  0  0
 17 11  1  0  0  0
 17 18  1  0  0  0
 11  1  1  0  0  0
 11 12  1  0  0  0
  1  2  1  0  0  0
  1 10  2  0  0  0
  2  3  2  0  0  0
  3  4  1  0  0  0
  4  5  2  0  0  0
  5  6  1  0  0  0
  5 10  1  0  0  0
  6  7  2  0  0  0
  7 23  1  0  0  0
  7  8  1  0  0  0
 23 24  1  0  0  0
 24 25  1  0  0  0
 25 26  1  0  0  0
 26 27  1  0  0  0
 27 28  1  0  0  0
 27 32  1  0  0  0
 28 29  1  0  0  0
 29 30  1  0  0  0
 30 31  1  0  0  0
 31 32  1  0  0  0
  8 21  1  0  0  0
  8  9  2  0  0  0
 21 22  1  0  0  0
  9 10  1  0  0  0
M  END
> <minimizedAffinity>
-7.65675

$$$$
