CHEMBL2002690


 29 32  0  0  0  0  0  0  0  0999 V2000
  -28.0026  -10.4919   -5.7068 O   0  0  0  0  0  0  0  0  0  0  0  0
  -27.6067   -9.3379   -5.7988 C   0  0  0  0  0  0  0  0  0  0  0  0
  -26.4202   -8.8484   -5.2978 N   0  0  0  0  0  0  0  0  0  0  0  0
  -28.3185   -8.3340   -6.4585 N   0  0  0  0  0  0  0  0  0  0  0  0
  -26.4136   -7.8790   -5.0193 H   0  0  0  0  0  0  0  0  0  0  0  0
  -27.7437   -7.6876   -6.9826 H   0  0  0  0  0  0  0  0  0  0  0  0
  -25.4819   -9.6197   -4.6488 C   0  0  0  0  0  0  0  0  0  0  0  0
  -24.3194   -9.8986   -5.1931 N   0  0  0  0  0  0  0  0  0  0  0  0
  -23.5779  -10.6724   -4.2987 C   0  0  0  0  0  0  0  0  0  0  0  0
  -22.2479  -11.1047   -4.4822 C   0  0  0  0  0  0  0  0  0  0  0  0
  -21.5475  -10.7723   -5.6181 O   0  0  0  0  0  0  0  0  0  0  0  0
  -21.6019  -11.8663   -3.5090 C   0  0  0  0  0  0  0  0  0  0  0  0
  -22.2811  -12.2136   -2.3454 C   0  0  0  0  0  0  0  0  0  0  0  0
  -23.6051  -11.8090   -2.1329 C   0  0  0  0  0  0  0  0  0  0  0  0
  -24.2316  -11.0305   -3.1211 C   0  0  0  0  0  0  0  0  0  0  0  0
  -25.8176  -10.3673   -3.1522 S   0  0  0  0  0  0  0  0  0  0  0  0
  -22.1669  -10.2372   -6.1506 H   0  0  0  0  0  0  0  0  0  0  0  0
  -29.6200   -8.5720   -6.9794 C   0  0  0  0  0  0  0  0  0  0  0  0
  -29.8121   -9.7123   -7.7778 C   0  0  0  0  0  0  0  0  0  0  0  0
  -31.0790  -10.0606   -8.2403 C   0  0  0  0  0  0  0  0  0  0  0  0
  -32.1674   -9.2659   -7.9169 C   0  0  0  0  0  0  0  0  0  0  0  0
  -31.9817   -8.1139   -7.1483 C   0  0  0  0  0  0  0  0  0  0  0  0
  -30.7118   -7.7281   -6.6571 C   0  0  0  0  0  0  0  0  0  0  0  0
  -30.5884   -6.4201   -5.9517 C   0  0  0  0  0  0  0  0  0  0  0  0
  -31.1198   -6.2308   -4.6611 C   0  0  0  0  0  0  0  0  0  0  0  0
  -31.1094   -4.9770   -4.0395 C   0  0  0  0  0  0  0  0  0  0  0  0
  -30.5290   -3.8863   -4.6775 C   0  0  0  0  0  0  0  0  0  0  0  0
  -29.9743   -4.0453   -5.9417 C   0  0  0  0  0  0  0  0  0  0  0  0
  -30.0286   -5.2894   -6.5779 C   0  0  0  0  0  0  0  0  0  0  0  0
  1  2  2  0  0  0
  2  3  1  0  0  0
  2  4  1  0  0  0
  3  7  1  0  0  0
  3  5  1  0  0  0
  7  8  2  0  0  0
  7 16  1  0  0  0
  8  9  1  0  0  0
  9 10  1  0  0  0
  9 15  2  0  0  0
 10 11  1  0  0  0
 10 12  2  0  0  0
 11 17  1  0  0  0
 12 13  1  0  0  0
 13 14  2  0  0  0
 14 15  1  0  0  0
 15 16  1  0  0  0
  4 18  1  0  0  0
  4  6  1  0  0  0
 18 19  1  0  0  0
 18 23  2  0  0  0
 19 20  2  0  0  0
 20 21  1  0  0  0
 21 22  2  0  0  0
 22 23  1  0  0  0
 23 24  1  0  0  0
 24 25  1  0  0  0
 24 29  2  0  0  0
 25 26  2  0  0  0
 26 27  1  0  0  0
 27 28  2  0  0  0
 28 29  1  0  0  0
M  END
> <minimizedAffinity>
-8.90012

$$$$
