CHEMBL4764656


 28 29  0  0  0  0  0  0  0  0999 V2000
  -29.4580   -8.3733   -7.0610 C   0  0  0  0  0  0  0  0  0  0  0  0
  -28.6486   -7.4915   -6.4050 N   0  0  0  0  0  0  0  0  0  0  0  0
  -29.1579   -6.5747   -5.5449 C   0  0  0  0  0  0  0  0  0  0  0  0
  -30.5019   -6.5101   -5.3557 N   0  0  0  0  0  0  0  0  0  0  0  0
  -31.3513   -7.3323   -6.0105 C   0  0  0  0  0  0  0  0  0  0  0  0
  -30.8541   -8.2925   -6.8844 C   0  0  0  0  0  0  0  0  0  0  0  0
  -32.0970   -9.4686   -7.7461 Br  0  0  0  0  0  0  0  0  0  0  0  0
  -28.8773   -9.3882   -7.8723 N   0  0  0  0  0  0  0  0  0  0  0  0
  -28.2860  -10.0962   -7.4142 H   0  0  0  0  0  0  0  0  0  0  0  0
  -29.1748  -10.3704  -10.1007 C   0  0  0  0  0  0  0  0  0  0  0  0
  -28.6583   -9.1726   -9.2951 C   0  0  0  0  0  0  0  0  0  0  0  0
  -27.1578   -8.9458   -9.5601 C   0  0  0  0  0  0  0  0  0  0  0  0
  -26.8743   -7.5700   -9.5947 O   0  0  0  0  0  0  0  0  0  0  0  0
  -25.9995   -7.4388   -9.1455 H   0  0  0  0  0  0  0  0  0  0  0  0
  -28.3026   -5.6769   -4.8567 N   0  0  0  0  0  0  0  0  0  0  0  0
  -27.5673   -6.0524   -4.2392 H   0  0  0  0  0  0  0  0  0  0  0  0
  -28.4401   -4.2663   -5.0140 C   0  0  0  0  0  0  0  0  0  0  0  0
  -28.8605   -3.7288   -6.2464 C   0  0  0  0  0  0  0  0  0  0  0  0
  -29.0128   -2.3580   -6.4102 C   0  0  0  0  0  0  0  0  0  0  0  0
  -28.7369   -1.4937   -5.3512 C   0  0  0  0  0  0  0  0  0  0  0  0
  -28.3305   -2.0130   -4.1138 C   0  0  0  0  0  0  0  0  0  0  0  0
  -28.1962   -3.3970   -3.9392 C   0  0  0  0  0  0  0  0  0  0  0  0
  -28.9080    0.2719   -5.5817 S   0  0  0  0  0  0  0  0  0  0  0  0
  -30.5418    0.9331   -5.5894 N   0  0  0  0  0  0  0  0  0  0  0  0
  -28.1433    1.0881   -4.5295 O   0  0  0  0  0  0  0  0  0  0  0  0
  -28.2762    0.7728   -6.8901 O   0  0  0  0  0  0  0  0  0  0  0  0
  -30.9845    0.6821   -4.6778 H   0  0  0  0  0  0  0  0  0  0  0  0
  -31.0723    0.4542   -6.3513 H   0  0  0  0  0  0  0  0  0  0  0  0
 11  8  1  0  0  0
 11 12  1  0  0  0
 11 10  1  0  0  0
 12 13  1  0  0  0
 13 14  1  0  0  0
  8  1  1  0  0  0
  8  9  1  0  0  0
  1  2  1  0  0  0
  1  6  2  0  0  0
  2  3  2  0  0  0
  3 15  1  0  0  0
  3  4  1  0  0  0
 15 17  1  0  0  0
 15 16  1  0  0  0
 17 18  1  0  0  0
 17 22  2  0  0  0
 18 19  2  0  0  0
 19 20  1  0  0  0
 20 23  1  0  0  0
 20 21  2  0  0  0
 23 24  1  0  0  0
 23 25  2  0  0  0
 23 26  2  0  0  0
 24 27  1  0  0  0
 24 28  1  0  0  0
 21 22  1  0  0  0
  4  5  2  0  0  0
  5  6  1  0  0  0
  6  7  1  0  0  0
M  END
> <minimizedAffinity>
-7.05249

$$$$
