CHEMBL1076193


 47 52  0  0  0  0  0  0  0  0999 V2000
  -29.9561   -7.2374   -6.7506 C   0  0  0  0  0  0  0  0  0  0  0  0
  -30.9922   -7.5128   -7.6327 C   0  0  0  0  0  0  0  0  0  0  0  0
  -31.6137   -8.7669   -7.5931 C   0  0  0  0  0  0  0  0  0  0  0  0
  -31.2082   -9.7631   -6.6783 C   0  0  0  0  0  0  0  0  0  0  0  0
  -31.8728  -11.1112   -6.7496 C   0  0  0  0  0  0  0  0  0  0  0  0
  -30.1305   -9.4968   -5.8123 C   0  0  0  0  0  0  0  0  0  0  0  0
  -29.5463   -8.2217   -5.8491 C   0  0  0  0  0  0  0  0  0  0  0  0
  -29.6200   -4.9508   -7.5789 N   0  0  0  0  0  0  0  0  0  0  0  0
  -29.1848   -5.9707   -6.7366 C   0  0  0  0  0  0  0  0  0  0  0  0
  -28.2574   -5.8804   -5.9372 O   0  0  0  0  0  0  0  0  0  0  0  0
  -30.5386   -5.0510   -7.9899 H   0  0  0  0  0  0  0  0  0  0  0  0
  -27.7322   -2.0252   -8.9579 C   0  0  0  0  0  0  0  0  0  0  0  0
  -28.4727   -3.2113   -8.8856 C   0  0  0  0  0  0  0  0  0  0  0  0
  -28.9921   -3.6878   -7.6777 C   0  0  0  0  0  0  0  0  0  0  0  0
  -28.8542   -2.9045   -6.5303 C   0  0  0  0  0  0  0  0  0  0  0  0
  -28.1435   -1.6906   -6.5817 C   0  0  0  0  0  0  0  0  0  0  0  0
  -27.5816   -1.2608   -7.7993 C   0  0  0  0  0  0  0  0  0  0  0  0
  -24.4434   -0.5159  -12.4177 C   0  0  0  0  0  0  0  0  0  0  0  0
  -25.6512   -0.9819  -11.7032 C   0  0  0  0  0  0  0  0  0  0  0  0
  -25.7774   -1.3342  -10.3807 C   0  0  0  0  0  0  0  0  0  0  0  0
  -27.1041   -1.6610  -10.1825 N   0  0  0  0  0  0  0  0  0  0  0  0
  -27.6986   -1.5010  -11.4162 C   0  0  0  0  0  0  0  0  0  0  0  0
  -26.8543   -1.0985  -12.3412 N   0  0  0  0  0  0  0  0  0  0  0  0
  -27.9171   -0.8542   -5.3444 C   0  0  0  0  0  0  0  0  0  0  0  0
  -28.9040   -0.9724   -4.4142 F   0  0  0  0  0  0  0  0  0  0  0  0
  -26.7602   -1.1830   -4.7075 F   0  0  0  0  0  0  0  0  0  0  0  0
  -27.8234    0.4741   -5.6269 F   0  0  0  0  0  0  0  0  0  0  0  0
  -29.6589  -10.4319   -4.8572 N   0  0  0  0  0  0  0  0  0  0  0  0
  -30.0891  -10.3071   -3.9463 H   0  0  0  0  0  0  0  0  0  0  0  0
  -28.3376  -10.7760   -4.8503 C   0  0  0  0  0  0  0  0  0  0  0  0
  -27.6243  -11.0489   -3.7765 N   0  0  0  0  0  0  0  0  0  0  0  0
  -26.3300  -11.0559   -4.1897 C   0  0  0  0  0  0  0  0  0  0  0  0
  -25.1815  -11.0581   -3.3948 C   0  0  0  0  0  0  0  0  0  0  0  0
  -24.3826   -9.9831   -3.7837 C   0  0  0  0  0  0  0  0  0  0  0  0
  -24.2001   -9.7095   -5.1392 C   0  0  0  0  0  0  0  0  0  0  0  0
  -25.0537  -10.2720   -6.1037 C   0  0  0  0  0  0  0  0  0  0  0  0
  -26.2432  -10.7850   -5.5564 C   0  0  0  0  0  0  0  0  0  0  0  0
  -27.5484  -10.9300   -5.9975 N   0  0  0  0  0  0  0  0  0  0  0  0
  -28.0386  -11.1234   -7.3302 C   0  0  0  0  0  0  0  0  0  0  0  0
  -27.8006  -10.1737   -8.3139 C   0  0  0  0  0  0  0  0  0  0  0  0
  -28.2632  -10.4748   -9.5680 C   0  0  0  0  0  0  0  0  0  0  0  0
  -28.0186   -9.6188  -10.6511 N   0  0  0  0  0  0  0  0  0  0  0  0
  -28.9228  -11.6145   -9.8659 N   0  0  0  0  0  0  0  0  0  0  0  0
  -29.0688  -12.4647   -8.8666 C   0  0  0  0  0  0  0  0  0  0  0  0
  -28.6707  -12.2919   -7.6004 N   0  0  0  0  0  0  0  0  0  0  0  0
  -28.2715   -8.6528  -10.4769 H   0  0  0  0  0  0  0  0  0  0  0  0
  -28.5032  -10.0010  -11.4690 H   0  0  0  0  0  0  0  0  0  0  0  0
 18 19  1  0  0  0
 19 20  2  0  0  0
 19 23  1  0  0  0
 20 21  1  0  0  0
 21 12  1  0  0  0
 21 22  1  0  0  0
 12 13  1  0  0  0
 12 17  2  0  0  0
 13 14  2  0  0  0
 14  8  1  0  0  0
 14 15  1  0  0  0
  8  9  1  0  0  0
  8 11  1  0  0  0
  9 10  2  0  0  0
  9  1  1  0  0  0
  1  2  1  0  0  0
  1  7  2  0  0  0
  2  3  2  0  0  0
  3  4  1  0  0  0
  4  5  1  0  0  0
  4  6  2  0  0  0
  6 28  1  0  0  0
  6  7  1  0  0  0
 28 30  1  0  0  0
 28 29  1  0  0  0
 30 31  2  0  0  0
 30 38  1  0  0  0
 31 32  1  0  0  0
 32 33  1  0  0  0
 32 37  2  0  0  0
 33 34  2  0  0  0
 34 35  1  0  0  0
 35 36  2  0  0  0
 36 37  1  0  0  0
 37 38  1  0  0  0
 38 39  1  0  0  0
 39 40  1  0  0  0
 39 45  2  0  0  0
 40 41  2  0  0  0
 41 42  1  0  0  0
 41 43  1  0  0  0
 42 46  1  0  0  0
 42 47  1  0  0  0
 43 44  2  0  0  0
 44 45  1  0  0  0
 15 16  2  0  0  0
 16 24  1  0  0  0
 16 17  1  0  0  0
 24 25  1  0  0  0
 24 26  1  0  0  0
 24 27  1  0  0  0
 22 23  2  0  0  0
M  END
> <minimizedAffinity>
-9.76220

$$$$
