CHEMBL378592


 32 35  0  0  0  0  0  0  0  0999 V2000
  -27.7798   -2.1416   -8.6286 C   0  0  0  0  0  0  0  0  0  0  0  0
  -28.6521   -3.0481   -9.0223 N   0  0  0  0  0  0  0  0  0  0  0  0
  -29.1333   -3.6573   -7.8737 N   0  0  0  0  0  0  0  0  0  0  0  0
  -28.4568   -3.1417   -6.8646 C   0  0  0  0  0  0  0  0  0  0  0  0
  -27.6080   -2.1550   -7.2749 O   0  0  0  0  0  0  0  0  0  0  0  0
  -28.5121   -3.5905   -5.5207 C   0  0  0  0  0  0  0  0  0  0  0  0
  -28.7760   -4.8488   -5.0329 C   0  0  0  0  0  0  0  0  0  0  0  0
  -28.8282   -4.8628   -3.6711 N   0  0  0  0  0  0  0  0  0  0  0  0
  -28.5480   -3.6297   -3.3167 C   0  0  0  0  0  0  0  0  0  0  0  0
  -28.3684   -2.8151   -4.4003 N   0  0  0  0  0  0  0  0  0  0  0  0
  -28.0594   -1.4072   -4.3513 C   0  0  0  0  0  0  0  0  0  0  0  0
  -29.0054   -5.9575   -5.7623 N   0  0  0  0  0  0  0  0  0  0  0  0
  -28.3109   -6.3007   -6.4190 H   0  0  0  0  0  0  0  0  0  0  0  0
  -30.3551   -6.4326   -5.9927 C   0  0  0  0  0  0  0  0  0  0  0  0
  -30.3299   -7.5206   -7.0437 C   0  0  0  0  0  0  0  0  0  0  0  0
  -31.4265   -8.3686   -7.2295 C   0  0  0  0  0  0  0  0  0  0  0  0
  -31.3469   -9.3585   -8.1977 C   0  0  0  0  0  0  0  0  0  0  0  0
  -30.2626   -9.5675   -8.9734 N   0  0  0  0  0  0  0  0  0  0  0  0
  -29.2085   -8.7496   -8.7697 C   0  0  0  0  0  0  0  0  0  0  0  0
  -29.1904   -7.7309   -7.8285 C   0  0  0  0  0  0  0  0  0  0  0  0
  -26.9881   -1.3184   -9.3289 N   0  0  0  0  0  0  0  0  0  0  0  0
  -26.6917   -0.4621   -8.8831 H   0  0  0  0  0  0  0  0  0  0  0  0
  -25.7160   -1.7934  -13.3489 C   0  0  0  0  0  0  0  0  0  0  0  0
  -27.0768   -1.7415  -13.0392 C   0  0  0  0  0  0  0  0  0  0  0  0
  -27.5014   -1.5949  -11.7166 C   0  0  0  0  0  0  0  0  0  0  0  0
  -26.5856   -1.5069  -10.6622 C   0  0  0  0  0  0  0  0  0  0  0  0
  -25.2257   -1.5672  -10.9781 C   0  0  0  0  0  0  0  0  0  0  0  0
  -24.7842   -1.7024  -12.3019 C   0  0  0  0  0  0  0  0  0  0  0  0
  -25.1389   -0.8565  -15.4595 C   0  0  0  0  0  0  0  0  0  0  0  0
  -25.2556   -2.0010  -14.6216 O   0  0  0  0  0  0  0  0  0  0  0  0
  -23.4176   -1.7700  -12.4121 O   0  0  0  0  0  0  0  0  0  0  0  0
  -22.7284   -0.5270  -12.4684 C   0  0  0  0  0  0  0  0  0  0  0  0
 29 30  1  0  0  0
 30 23  1  0  0  0
 23 24  1  0  0  0
 23 28  2  0  0  0
 24 25  2  0  0  0
 25 26  1  0  0  0
 26 21  1  0  0  0
 26 27  2  0  0  0
 21  1  1  0  0  0
 21 22  1  0  0  0
  1  2  2  0  0  0
  1  5  1  0  0  0
  2  3  1  0  0  0
  3  4  2  0  0  0
  4  6  1  0  0  0
  4  5  1  0  0  0
  6  7  2  0  0  0
  6 10  1  0  0  0
  7 12  1  0  0  0
  7  8  1  0  0  0
 12 14  1  0  0  0
 12 13  1  0  0  0
 14 15  1  0  0  0
 15 16  1  0  0  0
 15 20  2  0  0  0
 16 17  2  0  0  0
 17 18  1  0  0  0
 18 19  2  0  0  0
 19 20  1  0  0  0
  8  9  2  0  0  0
  9 10  1  0  0  0
 10 11  1  0  0  0
 27 28  1  0  0  0
 28 31  1  0  0  0
 31 32  1  0  0  0
M  END
> <minimizedAffinity>
-8.32632

$$$$
