CHEMBL3397939


 32 34  0  0  0  0  0  0  0  0999 V2000
  -27.2527   -1.9523  -10.5250 N   0  0  0  0  0  0  0  0  0  0  0  0
  -25.9546   -1.6045  -10.8767 C   0  0  0  0  0  0  0  0  0  0  0  0
  -25.0282   -1.4476  -10.0841 O   0  0  0  0  0  0  0  0  0  0  0  0
  -27.8560   -2.3508  -11.2331 H   0  0  0  0  0  0  0  0  0  0  0  0
  -28.7266   -1.9755   -6.5390 C   0  0  0  0  0  0  0  0  0  0  0  0
  -28.6622   -3.1459   -7.2946 C   0  0  0  0  0  0  0  0  0  0  0  0
  -28.1537   -3.1374   -8.5855 C   0  0  0  0  0  0  0  0  0  0  0  0
  -27.7190   -1.9611   -9.1890 C   0  0  0  0  0  0  0  0  0  0  0  0
  -27.7317   -0.7856   -8.4361 C   0  0  0  0  0  0  0  0  0  0  0  0
  -28.2421   -0.7945   -7.1208 C   0  0  0  0  0  0  0  0  0  0  0  0
  -28.2477    0.7011   -6.2475 Cl  0  0  0  0  0  0  0  0  0  0  0  0
  -29.2432   -1.9414   -5.2605 O   0  0  0  0  0  0  0  0  0  0  0  0
  -28.3368   -2.4123   -4.2544 C   0  0  0  0  0  0  0  0  0  0  0  0
  -29.0239   -3.3100   -3.2372 C   0  0  0  0  0  0  0  0  0  0  0  0
  -29.2437   -4.7169   -3.8233 C   0  0  0  0  0  0  0  0  0  0  0  0
  -30.7685   -6.2959   -4.8872 C   0  0  0  0  0  0  0  0  0  0  0  0
  -30.5614   -4.9113   -4.4586 N   0  0  0  0  0  0  0  0  0  0  0  0
  -31.6368   -4.5049   -3.5499 C   0  0  0  0  0  0  0  0  0  0  0  0
  -25.6343   -1.4407  -12.3171 C   0  0  0  0  0  0  0  0  0  0  0  0
  -26.4687   -1.8610  -13.3508 C   0  0  0  0  0  0  0  0  0  0  0  0
  -26.1115   -1.5763  -14.6692 C   0  0  0  0  0  0  0  0  0  0  0  0
  -24.9376   -0.8612  -14.9508 C   0  0  0  0  0  0  0  0  0  0  0  0
  -24.0930   -0.3997  -13.9293 C   0  0  0  0  0  0  0  0  0  0  0  0
  -24.4644   -0.7176  -12.6160 C   0  0  0  0  0  0  0  0  0  0  0  0
  -22.8917    0.4238  -14.1944 C   0  0  0  0  0  0  0  0  0  0  0  0
  -21.6789   -0.1506  -14.6266 C   0  0  0  0  0  0  0  0  0  0  0  0
  -20.5345    0.6260  -14.8406 C   0  0  0  0  0  0  0  0  0  0  0  0
  -20.5811    2.0029  -14.6487 C   0  0  0  0  0  0  0  0  0  0  0  0
  -21.7704    2.5855  -14.2311 C   0  0  0  0  0  0  0  0  0  0  0  0
  -21.8735    3.9326  -14.0440 O   0  0  0  0  0  0  0  0  0  0  0  0
  -22.9045    1.8132  -13.9891 C   0  0  0  0  0  0  0  0  0  0  0  0
  -21.0549    4.3495  -14.3587 H   0  0  0  0  0  0  0  0  0  0  0  0
 16 17  1  0  0  0
 17 18  1  0  0  0
 17 15  1  0  0  0
 15 14  1  0  0  0
 14 13  1  0  0  0
 13 12  1  0  0  0
 12  5  1  0  0  0
  5  6  1  0  0  0
  5 10  2  0  0  0
  6  7  2  0  0  0
  7  8  1  0  0  0
  8  1  1  0  0  0
  8  9  2  0  0  0
  1  2  1  0  0  0
  1  4  1  0  0  0
  2  3  2  0  0  0
  2 19  1  0  0  0
 19 20  1  0  0  0
 19 24  2  0  0  0
 20 21  2  0  0  0
 21 22  1  0  0  0
 22 23  2  0  0  0
 23 25  1  0  0  0
 23 24  1  0  0  0
 25 26  1  0  0  0
 25 31  2  0  0  0
 26 27  2  0  0  0
 27 28  1  0  0  0
 28 29  2  0  0  0
 29 30  1  0  0  0
 29 31  1  0  0  0
 30 32  1  0  0  0
  9 10  1  0  0  0
 10 11  1  0  0  0
M  END
> <minimizedAffinity>
-10.13884

$$$$
