CHEMBL3740131


 37 41  0  0  0  0  0  0  0  0999 V2000
  -28.7566   -4.6354   -5.6247 C   0  0  0  0  0  0  0  0  0  0  0  0
  -28.0674   -4.2807   -4.4609 C   0  0  0  0  0  0  0  0  0  0  0  0
  -27.7825   -2.9774   -3.7897 C   0  0  0  0  0  0  0  0  0  0  0  0
  -27.6053   -5.4371   -3.8767 N   0  0  0  0  0  0  0  0  0  0  0  0
  -27.9942   -6.5516   -4.5811 C   0  0  0  0  0  0  0  0  0  0  0  0
  -28.7342   -6.0926   -5.6772 C   0  0  0  0  0  0  0  0  0  0  0  0
  -27.0633   -5.4695   -3.0230 H   0  0  0  0  0  0  0  0  0  0  0  0
  -27.5919   -7.9101   -4.1687 C   0  0  0  0  0  0  0  0  0  0  0  0
  -28.5616   -8.8525   -3.7976 C   0  0  0  0  0  0  0  0  0  0  0  0
  -28.2474  -10.2094   -3.7087 C   0  0  0  0  0  0  0  0  0  0  0  0
  -26.9360  -10.6313   -3.8976 C   0  0  0  0  0  0  0  0  0  0  0  0
  -25.9362   -9.6924   -4.1442 C   0  0  0  0  0  0  0  0  0  0  0  0
  -26.2610   -8.3381   -4.2847 C   0  0  0  0  0  0  0  0  0  0  0  0
  -29.3060   -6.9804   -6.7070 C   0  0  0  0  0  0  0  0  0  0  0  0
  -28.5280   -7.4147   -7.7864 C   0  0  0  0  0  0  0  0  0  0  0  0
  -29.0262   -8.3177   -8.7274 C   0  0  0  0  0  0  0  0  0  0  0  0
  -30.3627   -8.6931   -8.6858 C   0  0  0  0  0  0  0  0  0  0  0  0
  -31.1819   -8.2040   -7.6734 C   0  0  0  0  0  0  0  0  0  0  0  0
  -30.6430   -7.4030   -6.6606 C   0  0  0  0  0  0  0  0  0  0  0  0
  -29.4096   -3.7408   -6.6110 C   0  0  0  0  0  0  0  0  0  0  0  0
  -30.6192   -3.6904   -6.7732 O   0  0  0  0  0  0  0  0  0  0  0  0
  -28.1089   -1.6156   -7.2010 C   0  0  0  0  0  0  0  0  0  0  0  0
  -27.4657   -1.1054   -8.2670 N   0  0  0  0  0  0  0  0  0  0  0  0
  -27.5312   -2.0678   -9.2201 N   0  0  0  0  0  0  0  0  0  0  0  0
  -28.2419   -3.1586   -8.7897 C   0  0  0  0  0  0  0  0  0  0  0  0
  -28.5859   -2.9280   -7.4758 C   0  0  0  0  0  0  0  0  0  0  0  0
  -26.9000   -1.9084  -10.4808 C   0  0  0  0  0  0  0  0  0  0  0  0
  -27.6545   -2.0470  -11.6530 C   0  0  0  0  0  0  0  0  0  0  0  0
  -27.0466   -1.8607  -12.8947 C   0  0  0  0  0  0  0  0  0  0  0  0
  -25.6913   -1.5401  -12.9726 C   0  0  0  0  0  0  0  0  0  0  0  0
  -24.9351   -1.4083  -11.8106 C   0  0  0  0  0  0  0  0  0  0  0  0
  -25.5349   -1.5914  -10.5651 C   0  0  0  0  0  0  0  0  0  0  0  0
  -28.3077   -0.8707   -5.9469 C   0  0  0  0  0  0  0  0  0  0  0  0
  -27.3896   -0.5470   -5.2014 O   0  0  0  0  0  0  0  0  0  0  0  0
  -29.6311   -0.6754   -5.6697 O   0  0  0  0  0  0  0  0  0  0  0  0
  -29.9193    1.5080   -6.5813 C   0  0  0  0  0  0  0  0  0  0  0  0
  -29.9989    0.6652   -5.3197 C   0  0  0  0  0  0  0  0  0  0  0  0
 36 37  1  0  0  0
 37 35  1  0  0  0
 35 33  1  0  0  0
 33 34  2  0  0  0
 33 22  1  0  0  0
 22 23  2  0  0  0
 22 26  1  0  0  0
 23 24  1  0  0  0
 24 27  1  0  0  0
 24 25  1  0  0  0
 27 28  1  0  0  0
 27 32  2  0  0  0
 28 29  2  0  0  0
 29 30  1  0  0  0
 30 31  2  0  0  0
 31 32  1  0  0  0
 25 26  2  0  0  0
 26 20  1  0  0  0
 20 21  2  0  0  0
 20  1  1  0  0  0
  1  2  2  0  0  0
  1  6  1  0  0  0
  2  3  1  0  0  0
  2  4  1  0  0  0
  4  5  1  0  0  0
  4  7  1  0  0  0
  5  8  1  0  0  0
  5  6  2  0  0  0
  8  9  1  0  0  0
  8 13  2  0  0  0
  9 10  2  0  0  0
 10 11  1  0  0  0
 11 12  2  0  0  0
 12 13  1  0  0  0
  6 14  1  0  0  0
 14 15  1  0  0  0
 14 19  2  0  0  0
 15 16  2  0  0  0
 16 17  1  0  0  0
 17 18  2  0  0  0
 18 19  1  0  0  0
M  END
> <minimizedAffinity>
-9.51351

$$$$
