CHEMBL1087002


 38 42  0  0  0  0  0  0  0  0999 V2000
  -29.7730   -5.7114   -6.5058 N   0  0  0  0  0  0  0  0  0  0  0  0
  -30.4109   -5.8841   -7.2802 H   0  0  0  0  0  0  0  0  0  0  0  0
  -29.0793   -6.7942   -6.0175 C   0  0  0  0  0  0  0  0  0  0  0  0
  -27.9479   -6.7697   -5.3396 N   0  0  0  0  0  0  0  0  0  0  0  0
  -27.7136   -8.0303   -4.8912 C   0  0  0  0  0  0  0  0  0  0  0  0
  -26.6693   -8.4915   -4.0757 C   0  0  0  0  0  0  0  0  0  0  0  0
  -26.6338   -9.8418   -3.7184 C   0  0  0  0  0  0  0  0  0  0  0  0
  -27.5975  -10.7235   -4.1953 C   0  0  0  0  0  0  0  0  0  0  0  0
  -28.6233  -10.2828   -5.0358 C   0  0  0  0  0  0  0  0  0  0  0  0
  -28.6904   -8.9087   -5.3384 C   0  0  0  0  0  0  0  0  0  0  0  0
  -29.5585   -8.1112   -6.0903 N   0  0  0  0  0  0  0  0  0  0  0  0
  -30.7313   -8.5532   -6.7651 C   0  0  0  0  0  0  0  0  0  0  0  0
  -30.6368   -9.6573   -7.5902 C   0  0  0  0  0  0  0  0  0  0  0  0
  -31.7888  -10.0977   -8.1903 C   0  0  0  0  0  0  0  0  0  0  0  0
  -31.7871  -11.3159   -8.8600 N   0  0  0  0  0  0  0  0  0  0  0  0
  -32.9559   -9.4710   -8.0353 N   0  0  0  0  0  0  0  0  0  0  0  0
  -32.9562   -8.4060   -7.2175 C   0  0  0  0  0  0  0  0  0  0  0  0
  -31.9049   -7.9282   -6.5297 N   0  0  0  0  0  0  0  0  0  0  0  0
  -31.0069  -11.4606   -9.4893 H   0  0  0  0  0  0  0  0  0  0  0  0
  -32.6940  -11.4643   -9.2942 H   0  0  0  0  0  0  0  0  0  0  0  0
  -28.3178   -2.4315   -7.6045 C   0  0  0  0  0  0  0  0  0  0  0  0
  -28.8523   -1.5928   -6.6274 C   0  0  0  0  0  0  0  0  0  0  0  0
  -29.4285   -2.1402   -5.4824 C   0  0  0  0  0  0  0  0  0  0  0  0
  -29.5657   -3.5331   -5.3328 C   0  0  0  0  0  0  0  0  0  0  0  0
  -29.9185   -4.0303   -3.9528 C   0  0  0  0  0  0  0  0  0  0  0  0
  -29.3056   -4.3652   -6.4474 C   0  0  0  0  0  0  0  0  0  0  0  0
  -28.5856   -3.7969   -7.5236 C   0  0  0  0  0  0  0  0  0  0  0  0
  -27.4868   -2.5104   -9.9301 N   0  0  0  0  0  0  0  0  0  0  0  0
  -27.5150   -1.8194   -8.7135 C   0  0  0  0  0  0  0  0  0  0  0  0
  -26.9062   -0.7971   -8.4550 O   0  0  0  0  0  0  0  0  0  0  0  0
  -28.0188   -3.3648   -9.9964 H   0  0  0  0  0  0  0  0  0  0  0  0
  -23.1026   -1.3557  -11.9530 C   0  0  0  0  0  0  0  0  0  0  0  0
  -24.5751   -1.6015  -12.0982 C   0  0  0  0  0  0  0  0  0  0  0  0
  -25.1854   -1.4864  -13.3513 C   0  0  0  0  0  0  0  0  0  0  0  0
  -26.5578   -1.6584  -13.4781 C   0  0  0  0  0  0  0  0  0  0  0  0
  -27.3368   -1.9705  -12.3565 C   0  0  0  0  0  0  0  0  0  0  0  0
  -26.7515   -2.1413  -11.0977 C   0  0  0  0  0  0  0  0  0  0  0  0
  -25.3702   -1.9419  -10.9760 C   0  0  0  0  0  0  0  0  0  0  0  0
 32 33  1  0  0  0
 33 34  1  0  0  0
 33 38  2  0  0  0
 34 35  2  0  0  0
 35 36  1  0  0  0
 36 37  2  0  0  0
 37 28  1  0  0  0
 37 38  1  0  0  0
 28 29  1  0  0  0
 28 31  1  0  0  0
 29 30  2  0  0  0
 29 21  1  0  0  0
 21 22  1  0  0  0
 21 27  2  0  0  0
 22 23  2  0  0  0
 23 24  1  0  0  0
 24 25  1  0  0  0
 24 26  2  0  0  0
 26  1  1  0  0  0
 26 27  1  0  0  0
  1  3  1  0  0  0
  1  2  1  0  0  0
  3  4  2  0  0  0
  3 11  1  0  0  0
  4  5  1  0  0  0
  5  6  1  0  0  0
  5 10  2  0  0  0
  6  7  2  0  0  0
  7  8  1  0  0  0
  8  9  2  0  0  0
  9 10  1  0  0  0
 10 11  1  0  0  0
 11 12  1  0  0  0
 12 13  1  0  0  0
 12 18  2  0  0  0
 13 14  2  0  0  0
 14 15  1  0  0  0
 14 16  1  0  0  0
 15 19  1  0  0  0
 15 20  1  0  0  0
 16 17  2  0  0  0
 17 18  1  0  0  0
M  END
> <minimizedAffinity>
-10.74060

$$$$
