CHEMBL264943


 30 34  0  0  0  0  0  0  0  0999 V2000
  -28.1254   -9.5137   -7.6503 C   0  0  0  0  0  0  0  0  0  0  0  0
  -27.6783  -10.3892   -6.6931 C   0  0  0  0  0  0  0  0  0  0  0  0
  -27.9789   -9.8667   -5.4753 N   0  0  0  0  0  0  0  0  0  0  0  0
  -27.6163  -10.4386   -4.3198 N   0  0  0  0  0  0  0  0  0  0  0  0
  -28.0263   -9.8075   -3.2716 C   0  0  0  0  0  0  0  0  0  0  0  0
  -28.7846   -8.6739   -3.2586 N   0  0  0  0  0  0  0  0  0  0  0  0
  -29.1437   -8.1050   -4.3750 C   0  0  0  0  0  0  0  0  0  0  0  0
  -28.6901   -8.7000   -5.6136 C   0  0  0  0  0  0  0  0  0  0  0  0
  -28.8065   -8.4230   -6.9846 C   0  0  0  0  0  0  0  0  0  0  0  0
  -28.8413  -10.1792  -12.4572 C   0  0  0  0  0  0  0  0  0  0  0  0
  -28.1396  -10.0322  -11.1699 C   0  0  0  0  0  0  0  0  0  0  0  0
  -26.8375   -9.7448  -11.0802 N   0  0  0  0  0  0  0  0  0  0  0  0
  -26.6546   -9.5488   -9.7090 O   0  0  0  0  0  0  0  0  0  0  0  0
  -27.8752   -9.7463   -9.1076 C   0  0  0  0  0  0  0  0  0  0  0  0
  -28.8032  -10.0881   -9.9765 N   0  0  0  0  0  0  0  0  0  0  0  0
  -29.5257   -7.3234   -7.7564 C   0  0  0  0  0  0  0  0  0  0  0  0
  -31.0113   -7.2753   -7.3906 C   0  0  0  0  0  0  0  0  0  0  0  0
  -28.9172   -5.9286   -7.7397 C   0  0  0  0  0  0  0  0  0  0  0  0
  -29.9043   -6.9572   -4.3100 N   0  0  0  0  0  0  0  0  0  0  0  0
  -30.7153   -7.0182   -4.9153 H   0  0  0  0  0  0  0  0  0  0  0  0
  -29.3432   -5.6548   -4.3170 C   0  0  0  0  0  0  0  0  0  0  0  0
  -27.9665   -5.4595   -4.1471 C   0  0  0  0  0  0  0  0  0  0  0  0
  -27.2952   -4.2793   -4.2030 N   0  0  0  0  0  0  0  0  0  0  0  0
  -28.1052   -3.2407   -4.4761 C   0  0  0  0  0  0  0  0  0  0  0  0
  -27.6925   -1.9418   -4.5975 N   0  0  0  0  0  0  0  0  0  0  0  0
  -28.7643   -1.1381   -4.8954 C   0  0  0  0  0  0  0  0  0  0  0  0
  -29.8858   -1.9385   -4.9609 C   0  0  0  0  0  0  0  0  0  0  0  0
  -29.4767   -3.2728   -4.6947 C   0  0  0  0  0  0  0  0  0  0  0  0
  -30.1110   -4.5222   -4.6240 C   0  0  0  0  0  0  0  0  0  0  0  0
  -26.7332   -1.6481   -4.4880 H   0  0  0  0  0  0  0  0  0  0  0  0
 10 11  1  0  0  0
 11 12  2  0  0  0
 11 15  1  0  0  0
 12 13  1  0  0  0
 13 14  1  0  0  0
 14  1  1  0  0  0
 14 15  2  0  0  0
  1  2  2  0  0  0
  1  9  1  0  0  0
  2  3  1  0  0  0
  3  4  1  0  0  0
  3  8  1  0  0  0
  4  5  2  0  0  0
  5  6  1  0  0  0
  6  7  2  0  0  0
  7 19  1  0  0  0
  7  8  1  0  0  0
 19 21  1  0  0  0
 19 20  1  0  0  0
 21 22  1  0  0  0
 21 29  2  0  0  0
 22 23  2  0  0  0
 23 24  1  0  0  0
 24 25  1  0  0  0
 24 28  2  0  0  0
 25 26  1  0  0  0
 25 30  1  0  0  0
 26 27  2  0  0  0
 27 28  1  0  0  0
 28 29  1  0  0  0
  8  9  2  0  0  0
  9 16  1  0  0  0
 16 17  1  0  0  0
 16 18  1  0  0  0
M  END
> <minimizedAffinity>
-8.60832

$$$$
