CHEMBL3671476


 40 43  0  0  0  0  0  0  0  0999 V2000
  -22.8469   -0.2664  -13.5670 C   0  0  0  0  0  0  0  0  0  0  0  0
  -21.5561    0.0909  -13.9710 C   0  0  0  0  0  0  0  0  0  0  0  0
  -21.1691    1.4153  -14.2220 C   0  0  0  0  0  0  0  0  0  0  0  0
  -19.9093    1.7636  -14.7303 C   0  0  0  0  0  0  0  0  0  0  0  0
  -19.5429    3.0450  -14.8795 N   0  0  0  0  0  0  0  0  0  0  0  0
  -20.4686    3.9619  -14.5884 C   0  0  0  0  0  0  0  0  0  0  0  0
  -21.7183    3.7333  -14.1473 N   0  0  0  0  0  0  0  0  0  0  0  0
  -22.0589    2.4511  -13.9596 C   0  0  0  0  0  0  0  0  0  0  0  0
  -23.3278    2.1085  -13.4883 C   0  0  0  0  0  0  0  0  0  0  0  0
  -23.7522    0.7719  -13.2779 C   0  0  0  0  0  0  0  0  0  0  0  0
  -23.2140   -2.3852  -12.3346 C   0  0  0  0  0  0  0  0  0  0  0  0
  -23.1471   -1.9756  -11.1833 O   0  0  0  0  0  0  0  0  0  0  0  0
  -23.1362   -1.6543  -13.5080 N   0  0  0  0  0  0  0  0  0  0  0  0
  -23.0728   -2.2070  -14.3410 H   0  0  0  0  0  0  0  0  0  0  0  0
  -23.1722   -4.2218  -13.8824 C   0  0  0  0  0  0  0  0  0  0  0  0
  -23.2468   -3.8378  -12.6014 C   0  0  0  0  0  0  0  0  0  0  0  0
  -19.0199    0.7360  -15.1084 N   0  0  0  0  0  0  0  0  0  0  0  0
  -19.3932    0.1352  -15.8395 H   0  0  0  0  0  0  0  0  0  0  0  0
  -17.6277    0.6491  -14.9566 C   0  0  0  0  0  0  0  0  0  0  0  0
  -17.0401   -0.2374  -14.0496 C   0  0  0  0  0  0  0  0  0  0  0  0
  -15.6550   -0.4221  -14.0291 C   0  0  0  0  0  0  0  0  0  0  0  0
  -14.8462    0.2990  -14.9042 C   0  0  0  0  0  0  0  0  0  0  0  0
  -12.9850   -0.0306  -14.9381 Br  0  0  0  0  0  0  0  0  0  0  0  0
  -15.3999    1.2275  -15.7782 C   0  0  0  0  0  0  0  0  0  0  0  0
  -16.7825    1.3894  -15.7987 C   0  0  0  0  0  0  0  0  0  0  0  0
  -17.3159    2.2671  -16.6628 F   0  0  0  0  0  0  0  0  0  0  0  0
  -25.0608    0.7305  -12.8549 O   0  0  0  0  0  0  0  0  0  0  0  0
  -25.4093   -0.1372  -11.7911 C   0  0  0  0  0  0  0  0  0  0  0  0
  -26.7914   -0.7834  -11.9751 C   0  0  0  0  0  0  0  0  0  0  0  0
  -27.8097   -0.0918  -11.0484 C   0  0  0  0  0  0  0  0  0  0  0  0
  -27.6200   -0.4672   -9.5756 C   0  0  0  0  0  0  0  0  0  0  0  0
  -27.5732   -1.9199   -9.3918 N   0  0  0  0  0  0  0  0  0  0  0  0
  -28.2458   -2.4608   -8.2852 C   0  0  0  0  0  0  0  0  0  0  0  0
  -28.8379   -1.6936   -7.5071 O   0  0  0  0  0  0  0  0  0  0  0  0
  -26.5838   -2.6130  -10.2218 C   0  0  0  0  0  0  0  0  0  0  0  0
  -26.7962   -2.2934  -11.7009 C   0  0  0  0  0  0  0  0  0  0  0  0
  -28.2931   -3.9902   -8.0071 C   0  0  0  0  0  0  0  0  0  0  0  0
  -27.4313   -4.7619   -8.7207 F   0  0  0  0  0  0  0  0  0  0  0  0
  -28.0425   -4.2670   -6.6950 F   0  0  0  0  0  0  0  0  0  0  0  0
  -29.5304   -4.5038   -8.2716 F   0  0  0  0  0  0  0  0  0  0  0  0
 15 16  2  0  0  0
 16 11  1  0  0  0
 11 12  2  0  0  0
 11 13  1  0  0  0
 13  1  1  0  0  0
 13 14  1  0  0  0
  1  2  1  0  0  0
  1 10  2  0  0  0
  2  3  2  0  0  0
  3  4  1  0  0  0
  3  8  1  0  0  0
  4 17  1  0  0  0
  4  5  2  0  0  0
 17 19  1  0  0  0
 17 18  1  0  0  0
 19 20  1  0  0  0
 19 25  2  0  0  0
 20 21  2  0  0  0
 21 22  1  0  0  0
 22 23  1  0  0  0
 22 24  2  0  0  0
 24 25  1  0  0  0
 25 26  1  0  0  0
  5  6  1  0  0  0
  6  7  2  0  0  0
  7  8  1  0  0  0
  8  9  2  0  0  0
  9 10  1  0  0  0
 10 27  1  0  0  0
 27 28  1  0  0  0
 28 29  1  0  0  0
 29 30  1  0  0  0
 29 36  1  0  0  0
 30 31  1  0  0  0
 31 32  1  0  0  0
 32 33  1  0  0  0
 32 35  1  0  0  0
 33 34  2  0  0  0
 33 37  1  0  0  0
 37 38  1  0  0  0
 37 39  1  0  0  0
 37 40  1  0  0  0
 35 36  1  0  0  0
M  END
> <minimizedAffinity>
-2.96896

$$$$
