CHEMBL4530342


 42 46  0  0  0  0  0  0  0  0999 V2000
  -23.7129   10.4176  -16.5264 C   0  0  0  0  0  0  0  0  0  0  0  0
  -23.2888   11.1870  -15.4402 C   0  0  0  0  0  0  0  0  0  0  0  0
  -24.2150   11.6222  -14.4911 C   0  0  0  0  0  0  0  0  0  0  0  0
  -25.5918   11.3966  -14.6700 C   0  0  0  0  0  0  0  0  0  0  0  0
  -26.0084   10.6569  -15.7704 C   0  0  0  0  0  0  0  0  0  0  0  0
  -25.0775   10.1774  -16.6901 C   0  0  0  0  0  0  0  0  0  0  0  0
  -25.5223    9.4661  -17.7336 F   0  0  0  0  0  0  0  0  0  0  0  0
  -26.4893   11.9271  -13.7484 N   0  0  0  0  0  0  0  0  0  0  0  0
  -26.1128   12.0989  -12.8227 H   0  0  0  0  0  0  0  0  0  0  0  0
  -27.8305   12.3075  -13.8026 C   0  0  0  0  0  0  0  0  0  0  0  0
  -28.1622   12.6580  -15.0855 N   0  0  0  0  0  0  0  0  0  0  0  0
  -29.4278   12.4868  -15.5438 C   0  0  0  0  0  0  0  0  0  0  0  0
  -30.3584   11.8108  -14.8214 C   0  0  0  0  0  0  0  0  0  0  0  0
  -30.0041   11.4668  -13.5407 C   0  0  0  0  0  0  0  0  0  0  0  0
  -31.0322   10.9275  -12.7531 N   0  0  0  0  0  0  0  0  0  0  0  0
  -31.3090   11.8686  -11.7938 C   0  0  0  0  0  0  0  0  0  0  0  0
  -30.4561   12.0575  -10.7702 C   0  0  0  0  0  0  0  0  0  0  0  0
  -28.9612   11.8008  -11.3201 C   0  0  0  0  0  0  0  0  0  0  0  0
  -28.0209   11.6059  -10.5524 O   0  0  0  0  0  0  0  0  0  0  0  0
  -28.8096   11.8542  -12.9060 C   0  0  0  0  0  0  0  0  0  0  0  0
  -30.5812   10.1471  -12.2451 H   0  0  0  0  0  0  0  0  0  0  0  0
  -31.2985   11.6028   -9.5891 C   0  0  0  0  0  0  0  0  0  0  0  0
  -32.6860   11.8595   -9.6413 C   0  0  0  0  0  0  0  0  0  0  0  0
  -33.4325   12.2008   -8.4902 C   0  0  0  0  0  0  0  0  0  0  0  0
  -32.8319   12.2423   -7.2359 C   0  0  0  0  0  0  0  0  0  0  0  0
  -33.5260   12.6549   -6.1758 F   0  0  0  0  0  0  0  0  0  0  0  0
  -31.4885   11.9066   -7.1126 C   0  0  0  0  0  0  0  0  0  0  0  0
  -30.7398   11.5787   -8.2655 C   0  0  0  0  0  0  0  0  0  0  0  0
  -22.8526    9.8880  -17.4681 O   0  0  0  0  0  0  0  0  0  0  0  0
  -20.4051   11.8870  -19.3426 C   0  0  0  0  0  0  0  0  0  0  0  0
  -20.8872   10.9275  -18.4676 C   0  0  0  0  0  0  0  0  0  0  0  0
  -22.2603   10.7393  -18.3757 C   0  0  0  0  0  0  0  0  0  0  0  0
  -23.0897   11.4089  -19.2648 C   0  0  0  0  0  0  0  0  0  0  0  0
  -22.5128   12.3428  -20.1116 C   0  0  0  0  0  0  0  0  0  0  0  0
  -21.1957   12.6515  -20.1158 N   0  0  0  0  0  0  0  0  0  0  0  0
  -18.3455   11.7815  -20.5805 C   0  0  0  0  0  0  0  0  0  0  0  0
  -18.8400   11.2628  -21.5783 O   0  0  0  0  0  0  0  0  0  0  0  0
  -19.0324   12.1161  -19.4305 N   0  0  0  0  0  0  0  0  0  0  0  0
  -18.7052   12.9108  -18.9004 H   0  0  0  0  0  0  0  0  0  0  0  0
  -16.8722   12.1059  -20.5301 C   0  0  0  0  0  0  0  0  0  0  0  0
  -16.3436    9.6927  -19.9584 C   0  0  0  0  0  0  0  0  0  0  0  0
  -16.0155   10.8852  -20.8483 C   0  0  0  0  0  0  0  0  0  0  0  0
 41 42  1  0  0  0
 42 40  1  0  0  0
 40 36  1  0  0  0
 36 37  2  0  0  0
 36 38  1  0  0  0
 38 30  1  0  0  0
 38 39  1  0  0  0
 30 31  1  0  0  0
 30 35  2  0  0  0
 31 32  2  0  0  0
 32 29  1  0  0  0
 32 33  1  0  0  0
 29  1  1  0  0  0
  1  2  1  0  0  0
  1  6  2  0  0  0
  2  3  2  0  0  0
  3  4  1  0  0  0
  4  8  1  0  0  0
  4  5  2  0  0  0
  8 10  1  0  0  0
  8  9  1  0  0  0
 10 11  1  0  0  0
 10 20  2  0  0  0
 11 12  2  0  0  0
 12 13  1  0  0  0
 13 14  2  0  0  0
 14 15  1  0  0  0
 14 20  1  0  0  0
 15 16  1  0  0  0
 15 21  1  0  0  0
 16 17  2  0  0  0
 17 22  1  0  0  0
 17 18  1  0  0  0
 22 23  1  0  0  0
 22 28  2  0  0  0
 23 24  2  0  0  0
 24 25  1  0  0  0
 25 26  1  0  0  0
 25 27  2  0  0  0
 27 28  1  0  0  0
 18 19  2  0  0  0
 18 20  1  0  0  0
  5  6  1  0  0  0
  6  7  1  0  0  0
 33 34  2  0  0  0
 34 35  1  0  0  0
M  END
> <minimizedAffinity>
-4.98756

$$$$
