CHEMBL1987009


 28 31  0  0  0  0  0  0  0  0999 V2000
  -28.5129   -4.3895   -7.4946 C   0  0  0  0  0  0  0  0  0  0  0  0
  -28.3723   -5.5766   -8.2340 C   0  0  0  0  0  0  0  0  0  0  0  0
  -28.9564   -6.6337   -7.5346 C   0  0  0  0  0  0  0  0  0  0  0  0
  -29.1597   -8.0162   -7.6814 C   0  0  0  0  0  0  0  0  0  0  0  0
  -29.8706   -8.4553   -6.6077 N   0  0  0  0  0  0  0  0  0  0  0  0
  -30.0520   -7.3662   -5.8269 N   0  0  0  0  0  0  0  0  0  0  0  0
  -29.5066   -6.2647   -6.3757 C   0  0  0  0  0  0  0  0  0  0  0  0
  -29.3610   -4.6695   -5.9851 S   0  0  0  0  0  0  0  0  0  0  0  0
  -30.5548   -7.4657   -4.9499 H   0  0  0  0  0  0  0  0  0  0  0  0
  -28.7303   -8.9700   -8.7056 C   0  0  0  0  0  0  0  0  0  0  0  0
  -27.4090   -9.0177   -9.1636 C   0  0  0  0  0  0  0  0  0  0  0  0
  -27.0077  -10.0041  -10.0713 C   0  0  0  0  0  0  0  0  0  0  0  0
  -27.9209  -10.9514  -10.5331 C   0  0  0  0  0  0  0  0  0  0  0  0
  -29.2413  -10.9091  -10.0970 C   0  0  0  0  0  0  0  0  0  0  0  0
  -29.6421   -9.9252   -9.1905 C   0  0  0  0  0  0  0  0  0  0  0  0
  -28.1042   -2.7500   -9.2030 N   0  0  0  0  0  0  0  0  0  0  0  0
  -28.0583   -3.0456   -7.8553 C   0  0  0  0  0  0  0  0  0  0  0  0
  -27.6672   -2.2320   -7.0252 O   0  0  0  0  0  0  0  0  0  0  0  0
  -28.5645   -3.4091   -9.8162 H   0  0  0  0  0  0  0  0  0  0  0  0
  -27.7843   -1.4443   -9.7231 C   0  0  0  0  0  0  0  0  0  0  0  0
  -24.7861   -1.6881  -12.0927 C   0  0  0  0  0  0  0  0  0  0  0  0
  -25.4283   -1.8312  -13.3225 C   0  0  0  0  0  0  0  0  0  0  0  0
  -26.8229   -1.7912  -13.3909 C   0  0  0  0  0  0  0  0  0  0  0  0
  -27.5817   -1.6313  -12.2308 C   0  0  0  0  0  0  0  0  0  0  0  0
  -26.9565   -1.5250  -10.9818 C   0  0  0  0  0  0  0  0  0  0  0  0
  -25.5528   -1.5218  -10.9319 C   0  0  0  0  0  0  0  0  0  0  0  0
  -22.7288   -0.4922  -12.1223 C   0  0  0  0  0  0  0  0  0  0  0  0
  -23.4317   -1.7083  -11.8918 O   0  0  0  0  0  0  0  0  0  0  0  0
 27 28  1  0  0  0
 28 21  1  0  0  0
 21 22  1  0  0  0
 21 26  2  0  0  0
 22 23  2  0  0  0
 23 24  1  0  0  0
 24 25  2  0  0  0
 25 20  1  0  0  0
 25 26  1  0  0  0
 20 16  1  0  0  0
 16 17  1  0  0  0
 16 19  1  0  0  0
 17 18  2  0  0  0
 17  1  1  0  0  0
  1  2  2  0  0  0
  1  8  1  0  0  0
  2  3  1  0  0  0
  3  4  1  0  0  0
  3  7  2  0  0  0
  4 10  1  0  0  0
  4  5  2  0  0  0
 10 11  1  0  0  0
 10 15  2  0  0  0
 11 12  2  0  0  0
 12 13  1  0  0  0
 13 14  2  0  0  0
 14 15  1  0  0  0
  5  6  1  0  0  0
  6  7  1  0  0  0
  6  9  1  0  0  0
  7  8  1  0  0  0
M  END
> <minimizedAffinity>
-8.90968

$$$$
