CHEMBL1254839


 42 46  0  0  0  0  0  0  0  0999 V2000
  -18.1365    2.7888  -15.3258 N   0  0  0  0  0  0  0  0  0  0  0  0
  -16.9975    2.2350  -15.8840 C   0  0  0  0  0  0  0  0  0  0  0  0
  -16.8880    1.0638  -16.2579 O   0  0  0  0  0  0  0  0  0  0  0  0
  -15.9245    3.1102  -15.9648 N   0  0  0  0  0  0  0  0  0  0  0  0
  -18.1415    3.7870  -15.1945 H   0  0  0  0  0  0  0  0  0  0  0  0
  -15.8243    3.7070  -15.1531 H   0  0  0  0  0  0  0  0  0  0  0  0
  -14.6932    2.6108  -16.4963 C   0  0  0  0  0  0  0  0  0  0  0  0
  -14.4128    2.7422  -17.8625 C   0  0  0  0  0  0  0  0  0  0  0  0
  -13.2803    2.1436  -18.4223 C   0  0  0  0  0  0  0  0  0  0  0  0
  -12.3824    1.4403  -17.6173 C   0  0  0  0  0  0  0  0  0  0  0  0
  -12.6508    1.3095  -16.2499 C   0  0  0  0  0  0  0  0  0  0  0  0
  -13.7905    1.9051  -15.6896 C   0  0  0  0  0  0  0  0  0  0  0  0
  -14.1195    1.6507  -14.0113 Cl  0  0  0  0  0  0  0  0  0  0  0  0
  -11.2775    0.7654  -18.0971 O   0  0  0  0  0  0  0  0  0  0  0  0
  -11.2637    0.3597  -19.4274 C   0  0  0  0  0  0  0  0  0  0  0  0
  -10.7029    1.1486  -20.3712 N   0  0  0  0  0  0  0  0  0  0  0  0
  -10.7252    0.7248  -21.6444 C   0  0  0  0  0  0  0  0  0  0  0  0
  -11.2147   -0.4237  -22.1213 N   0  0  0  0  0  0  0  0  0  0  0  0
  -11.7216   -1.2279  -21.1623 C   0  0  0  0  0  0  0  0  0  0  0  0
  -12.2970   -2.5114  -21.2987 C   0  0  0  0  0  0  0  0  0  0  0  0
  -12.6570   -2.9362  -20.0390 C   0  0  0  0  0  0  0  0  0  0  0  0
  -12.3234   -1.9438  -19.1473 N   0  0  0  0  0  0  0  0  0  0  0  0
  -12.5246   -2.0338  -17.7168 C   0  0  0  0  0  0  0  0  0  0  0  0
  -11.7556   -0.8798  -19.8165 C   0  0  0  0  0  0  0  0  0  0  0  0
  -21.6685    0.6098  -14.3795 C   0  0  0  0  0  0  0  0  0  0  0  0
  -20.5166   -0.0419  -14.7912 C   0  0  0  0  0  0  0  0  0  0  0  0
  -19.3727    0.6739  -15.1181 C   0  0  0  0  0  0  0  0  0  0  0  0
  -19.3189    2.0605  -15.0162 C   0  0  0  0  0  0  0  0  0  0  0  0
  -20.4690    2.7236  -14.5623 C   0  0  0  0  0  0  0  0  0  0  0  0
  -21.6510    2.0034  -14.2186 C   0  0  0  0  0  0  0  0  0  0  0  0
  -22.8533    2.7661  -13.7110 C   0  0  0  0  0  0  0  0  0  0  0  0
  -23.4696    2.2614  -12.6064 F   0  0  0  0  0  0  0  0  0  0  0  0
  -22.5377    4.0552  -13.3865 F   0  0  0  0  0  0  0  0  0  0  0  0
  -23.8332    2.8656  -14.6577 F   0  0  0  0  0  0  0  0  0  0  0  0
  -22.8229   -0.0782  -14.1322 O   0  0  0  0  0  0  0  0  0  0  0  0
  -26.7751   -0.7931  -12.0912 C   0  0  0  0  0  0  0  0  0  0  0  0
  -25.4215   -1.3480  -12.1766 N   0  0  0  0  0  0  0  0  0  0  0  0
  -25.1568   -1.7808  -13.5534 C   0  0  0  0  0  0  0  0  0  0  0  0
  -23.7409   -2.3330  -13.6861 C   0  0  0  0  0  0  0  0  0  0  0  0
  -22.7199   -1.2567  -13.2982 C   0  0  0  0  0  0  0  0  0  0  0  0
  -23.0048   -0.8337  -11.8580 C   0  0  0  0  0  0  0  0  0  0  0  0
  -24.4460   -0.3469  -11.7115 C   0  0  0  0  0  0  0  0  0  0  0  0
 36 37  1  0  0  0
 37 38  1  0  0  0
 37 42  1  0  0  0
 38 39  1  0  0  0
 39 40  1  0  0  0
 40 35  1  0  0  0
 40 41  1  0  0  0
 35 25  1  0  0  0
 25 26  1  0  0  0
 25 30  2  0  0  0
 26 27  2  0  0  0
 27 28  1  0  0  0
 28  1  1  0  0  0
 28 29  2  0  0  0
  1  2  1  0  0  0
  1  5  1  0  0  0
  2  3  2  0  0  0
  2  4  1  0  0  0
  4  7  1  0  0  0
  4  6  1  0  0  0
  7  8  1  0  0  0
  7 12  2  0  0  0
  8  9  2  0  0  0
  9 10  1  0  0  0
 10 14  1  0  0  0
 10 11  2  0  0  0
 14 15  1  0  0  0
 15 16  1  0  0  0
 15 24  2  0  0  0
 16 17  2  0  0  0
 17 18  1  0  0  0
 18 19  2  0  0  0
 19 20  1  0  0  0
 19 24  1  0  0  0
 20 21  2  0  0  0
 21 22  1  0  0  0
 22 23  1  0  0  0
 22 24  1  0  0  0
 11 12  1  0  0  0
 12 13  1  0  0  0
 29 30  1  0  0  0
 30 31  1  0  0  0
 31 32  1  0  0  0
 31 33  1  0  0  0
 31 34  1  0  0  0
 41 42  1  0  0  0
M  END
> <minimizedAffinity>
-6.43635

$$$$
