CHEMBL3759149


 33 35  0  0  0  0  0  0  0  0999 V2000
  -28.5116   -1.8366   -4.9835 C   0  0  0  0  0  0  0  0  0  0  0  0
  -29.4856   -2.3114   -4.0959 C   0  0  0  0  0  0  0  0  0  0  0  0
  -30.1621   -3.4949   -4.3136 C   0  0  0  0  0  0  0  0  0  0  0  0
  -30.9839   -3.9225   -3.3512 N   0  0  0  0  0  0  0  0  0  0  0  0
  -31.5372   -5.1206   -3.5338 C   0  0  0  0  0  0  0  0  0  0  0  0
  -31.3306   -5.9218   -4.5775 N   0  0  0  0  0  0  0  0  0  0  0  0
  -30.5068   -5.4757   -5.5479 C   0  0  0  0  0  0  0  0  0  0  0  0
  -29.9082   -4.2102   -5.4885 C   0  0  0  0  0  0  0  0  0  0  0  0
  -29.0374   -3.6656   -6.4629 C   0  0  0  0  0  0  0  0  0  0  0  0
  -28.3206   -2.4961   -6.2065 C   0  0  0  0  0  0  0  0  0  0  0  0
  -28.3705    0.5294   -5.0378 C   0  0  0  0  0  0  0  0  0  0  0  0
  -27.7745   -0.7220   -4.6876 O   0  0  0  0  0  0  0  0  0  0  0  0
  -30.1556   -6.3714   -6.5885 N   0  0  0  0  0  0  0  0  0  0  0  0
  -30.0852   -5.8951   -7.4823 H   0  0  0  0  0  0  0  0  0  0  0  0
  -30.6832   -7.6820   -6.7034 C   0  0  0  0  0  0  0  0  0  0  0  0
  -31.9589   -7.8771   -7.2633 C   0  0  0  0  0  0  0  0  0  0  0  0
  -32.4626   -9.1553   -7.4878 C   0  0  0  0  0  0  0  0  0  0  0  0
  -31.7044  -10.2671   -7.1375 C   0  0  0  0  0  0  0  0  0  0  0  0
  -30.4597  -10.0981   -6.5284 C   0  0  0  0  0  0  0  0  0  0  0  0
  -29.9580   -8.8126   -6.3007 C   0  0  0  0  0  0  0  0  0  0  0  0
  -28.4138   -8.6468   -5.5411 Cl  0  0  0  0  0  0  0  0  0  0  0  0
  -27.4771   -2.1215   -7.2248 O   0  0  0  0  0  0  0  0  0  0  0  0
  -27.8096   -2.6835   -8.4911 C   0  0  0  0  0  0  0  0  0  0  0  0
  -27.8022   -1.6110   -9.5794 C   0  0  0  0  0  0  0  0  0  0  0  0
  -26.7344   -1.9761  -10.6125 C   0  0  0  0  0  0  0  0  0  0  0  0
  -26.7201   -1.0468  -11.8195 C   0  0  0  0  0  0  0  0  0  0  0  0
  -25.8022   -1.5994  -12.9118 C   0  0  0  0  0  0  0  0  0  0  0  0
  -24.3445   -1.5232  -12.5165 C   0  0  0  0  0  0  0  0  0  0  0  0
  -23.6468   -2.4919  -12.2409 O   0  0  0  0  0  0  0  0  0  0  0  0
  -23.8490   -0.2371  -12.4791 N   0  0  0  0  0  0  0  0  0  0  0  0
  -22.4592   -0.1424  -12.2232 O   0  0  0  0  0  0  0  0  0  0  0  0
  -24.2650    0.5232  -13.0032 H   0  0  0  0  0  0  0  0  0  0  0  0
  -22.2028   -1.0841  -12.0906 H   0  0  0  0  0  0  0  0  0  0  0  0
 11 12  1  0  0  0
 12  1  1  0  0  0
  1  2  1  0  0  0
  1 10  2  0  0  0
  2  3  2  0  0  0
  3  4  1  0  0  0
  3  8  1  0  0  0
  4  5  2  0  0  0
  5  6  1  0  0  0
  6  7  2  0  0  0
  7 13  1  0  0  0
  7  8  1  0  0  0
 13 15  1  0  0  0
 13 14  1  0  0  0
 15 16  1  0  0  0
 15 20  2  0  0  0
 16 17  2  0  0  0
 17 18  1  0  0  0
 18 19  2  0  0  0
 19 20  1  0  0  0
 20 21  1  0  0  0
  8  9  2  0  0  0
  9 10  1  0  0  0
 10 22  1  0  0  0
 22 23  1  0  0  0
 23 24  1  0  0  0
 24 25  1  0  0  0
 25 26  1  0  0  0
 26 27  1  0  0  0
 27 28  1  0  0  0
 28 29  2  0  0  0
 28 30  1  0  0  0
 30 31  1  0  0  0
 30 32  1  0  0  0
 31 33  1  0  0  0
M  END
> <minimizedAffinity>
-8.46890

$$$$
