CHEMBL1988370


 36 41  0  0  0  0  0  0  0  0999 V2000
  -30.3512   -2.4632   -4.2013 N   0  0  0  0  0  0  0  0  0  0  0  0
  -30.4863   -3.8340   -4.3756 C   0  0  0  0  0  0  0  0  0  0  0  0
  -31.1806   -4.4875   -3.4235 N   0  0  0  0  0  0  0  0  0  0  0  0
  -31.3357   -5.8186   -3.5401 C   0  0  0  0  0  0  0  0  0  0  0  0
  -30.8935   -6.6221   -4.5183 N   0  0  0  0  0  0  0  0  0  0  0  0
  -30.2046   -5.9404   -5.4509 C   0  0  0  0  0  0  0  0  0  0  0  0
  -29.9471   -4.5663   -5.4511 C   0  0  0  0  0  0  0  0  0  0  0  0
  -29.1539   -4.2951   -6.6154 C   0  0  0  0  0  0  0  0  0  0  0  0
  -28.9746   -5.5014   -7.2702 C   0  0  0  0  0  0  0  0  0  0  0  0
  -29.6141   -6.4812   -6.5666 N   0  0  0  0  0  0  0  0  0  0  0  0
  -30.9741   -2.1201   -3.4799 H   0  0  0  0  0  0  0  0  0  0  0  0
  -30.3211   -1.9237   -5.0567 H   0  0  0  0  0  0  0  0  0  0  0  0
  -28.5808   -3.0705   -7.1562 C   0  0  0  0  0  0  0  0  0  0  0  0
  -28.3438   -1.9405   -6.3728 C   0  0  0  0  0  0  0  0  0  0  0  0
  -27.8154   -0.7816   -6.9484 C   0  0  0  0  0  0  0  0  0  0  0  0
  -27.4824   -0.7602   -8.3037 C   0  0  0  0  0  0  0  0  0  0  0  0
  -27.6912   -1.8884   -9.0919 C   0  0  0  0  0  0  0  0  0  0  0  0
  -28.2321   -3.0328   -8.5126 C   0  0  0  0  0  0  0  0  0  0  0  0
  -27.3387   -1.7842  -10.4084 O   0  0  0  0  0  0  0  0  0  0  0  0
  -25.9712   -1.4470  -10.6462 C   0  0  0  0  0  0  0  0  0  0  0  0
  -25.7468   -1.3917  -12.1238 C   0  0  0  0  0  0  0  0  0  0  0  0
  -26.7668   -1.7314  -13.0240 C   0  0  0  0  0  0  0  0  0  0  0  0
  -26.5385   -1.6660  -14.3972 C   0  0  0  0  0  0  0  0  0  0  0  0
  -25.2899   -1.2750  -14.8770 C   0  0  0  0  0  0  0  0  0  0  0  0
  -24.2619   -0.9452  -13.9911 C   0  0  0  0  0  0  0  0  0  0  0  0
  -24.4914   -1.0045  -12.6191 C   0  0  0  0  0  0  0  0  0  0  0  0
  -29.6024   -7.8886   -6.9014 C   0  0  0  0  0  0  0  0  0  0  0  0
  -28.6588   -8.1843   -8.1052 C   0  0  0  0  0  0  0  0  0  0  0  0
  -29.7522   -9.0799   -8.7244 C   0  0  0  0  0  0  0  0  0  0  0  0
  -30.7745   -8.3451   -7.8233 C   0  0  0  0  0  0  0  0  0  0  0  0
  -29.5445  -10.5863   -8.5167 C   0  0  0  0  0  0  0  0  0  0  0  0
  -29.1615  -11.2762   -9.7619 N   0  0  0  0  0  0  0  0  0  0  0  0
  -27.8311  -11.9004   -9.6343 C   0  0  0  0  0  0  0  0  0  0  0  0
  -26.8396  -10.8429  -10.0820 C   0  0  0  0  0  0  0  0  0  0  0  0
  -27.5726  -10.1194  -11.1911 C   0  0  0  0  0  0  0  0  0  0  0  0
  -29.0510  -10.3749  -10.9240 C   0  0  0  0  0  0  0  0  0  0  0  0
  1  2  1  0  0  0
  1 11  1  0  0  0
  1 12  1  0  0  0
  2  3  1  0  0  0
  2  7  2  0  0  0
  3  4  2  0  0  0
  4  5  1  0  0  0
  5  6  2  0  0  0
  6  7  1  0  0  0
  6 10  1  0  0  0
  7  8  1  0  0  0
  8 13  1  0  0  0
  8  9  2  0  0  0
 13 14  1  0  0  0
 13 18  2  0  0  0
 14 15  2  0  0  0
 15 16  1  0  0  0
 16 17  2  0  0  0
 17 19  1  0  0  0
 17 18  1  0  0  0
 19 20  1  0  0  0
 20 21  1  0  0  0
 21 22  1  0  0  0
 21 26  2  0  0  0
 22 23  2  0  0  0
 23 24  1  0  0  0
 24 25  2  0  0  0
 25 26  1  0  0  0
  9 10  1  0  0  0
 10 27  1  0  0  0
 27 28  1  0  0  0
 27 30  1  0  0  0
 28 29  1  0  0  0
 29 31  1  0  0  0
 29 30  1  0  0  0
 31 32  1  0  0  0
 32 33  1  0  0  0
 32 36  1  0  0  0
 33 34  1  0  0  0
 34 35  1  0  0  0
 35 36  1  0  0  0
M  END
> <minimizedAffinity>
-10.38567

$$$$
