CHEMBL3690456


 33 36  0  0  0  0  0  0  0  0999 V2000
  -30.0096   -3.8403   -4.5234 C   0  0  0  0  0  0  0  0  0  0  0  0
  -31.3914   -3.8834   -4.3014 C   0  0  0  0  0  0  0  0  0  0  0  0
  -31.9730   -4.9365   -3.6076 C   0  0  0  0  0  0  0  0  0  0  0  0
  -31.1934   -6.0098   -3.1946 C   0  0  0  0  0  0  0  0  0  0  0  0
  -29.8268   -6.0579   -3.4751 C   0  0  0  0  0  0  0  0  0  0  0  0
  -29.2347   -4.9484   -4.1132 C   0  0  0  0  0  0  0  0  0  0  0  0
  -27.6120   -2.1464   -8.9576 C   0  0  0  0  0  0  0  0  0  0  0  0
  -28.2961   -3.4258   -8.7229 C   0  0  0  0  0  0  0  0  0  0  0  0
  -28.9289   -3.6582   -7.5613 C   0  0  0  0  0  0  0  0  0  0  0  0
  -28.9121   -2.6924   -6.5508 N   0  0  0  0  0  0  0  0  0  0  0  0
  -29.4029   -2.7050   -5.2418 C   0  0  0  0  0  0  0  0  0  0  0  0
  -29.1247   -1.4274   -4.7767 C   0  0  0  0  0  0  0  0  0  0  0  0
  -28.4633   -0.6656   -5.7006 N   0  0  0  0  0  0  0  0  0  0  0  0
  -28.3204   -1.4462   -6.7469 C   0  0  0  0  0  0  0  0  0  0  0  0
  -27.6716   -1.1968   -7.9926 C   0  0  0  0  0  0  0  0  0  0  0  0
  -24.9003   -1.0458  -13.8490 C   0  0  0  0  0  0  0  0  0  0  0  0
  -25.6252   -1.3232  -12.5712 C   0  0  0  0  0  0  0  0  0  0  0  0
  -24.9728   -1.3169  -11.3449 C   0  0  0  0  0  0  0  0  0  0  0  0
  -25.6002   -1.5760  -10.1704 N   0  0  0  0  0  0  0  0  0  0  0  0
  -26.9264   -1.8590  -10.2460 C   0  0  0  0  0  0  0  0  0  0  0  0
  -27.5781   -1.8399  -11.4781 C   0  0  0  0  0  0  0  0  0  0  0  0
  -26.9511   -1.5810  -12.6543 N   0  0  0  0  0  0  0  0  0  0  0  0
  -29.0238   -7.1842   -3.1531 N   0  0  0  0  0  0  0  0  0  0  0  0
  -28.2388   -7.8938   -4.0345 C   0  0  0  0  0  0  0  0  0  0  0  0
  -28.0922   -7.6804   -5.2330 O   0  0  0  0  0  0  0  0  0  0  0  0
  -27.6086   -8.9709   -3.4512 N   0  0  0  0  0  0  0  0  0  0  0  0
  -29.0022   -7.4671   -2.1839 H   0  0  0  0  0  0  0  0  0  0  0  0
  -27.3449   -8.8729   -2.4811 H   0  0  0  0  0  0  0  0  0  0  0  0
  -26.7372   -9.7980   -4.2996 C   0  0  0  0  0  0  0  0  0  0  0  0
  -25.2272   -9.5215   -4.2069 C   0  0  0  0  0  0  0  0  0  0  0  0
  -24.9636   -8.3303   -3.6205 F   0  0  0  0  0  0  0  0  0  0  0  0
  -24.6334  -10.4724   -3.4403 F   0  0  0  0  0  0  0  0  0  0  0  0
  -24.6205   -9.5446   -5.4097 F   0  0  0  0  0  0  0  0  0  0  0  0
 16 17  1  0  0  0
 17 18  1  0  0  0
 17 22  2  0  0  0
 18 19  2  0  0  0
 19 20  1  0  0  0
 20  7  1  0  0  0
 20 21  2  0  0  0
  7  8  1  0  0  0
  7 15  2  0  0  0
  8  9  2  0  0  0
  9 10  1  0  0  0
 10 11  1  0  0  0
 10 14  1  0  0  0
 11  1  1  0  0  0
 11 12  2  0  0  0
  1  2  1  0  0  0
  1  6  2  0  0  0
  2  3  2  0  0  0
  3  4  1  0  0  0
  4  5  2  0  0  0
  5 23  1  0  0  0
  5  6  1  0  0  0
 23 24  1  0  0  0
 23 27  1  0  0  0
 24 25  2  0  0  0
 24 26  1  0  0  0
 26 29  1  0  0  0
 26 28  1  0  0  0
 29 30  1  0  0  0
 30 31  1  0  0  0
 30 32  1  0  0  0
 30 33  1  0  0  0
 12 13  1  0  0  0
 13 14  2  0  0  0
 14 15  1  0  0  0
 21 22  1  0  0  0
M  END
> <minimizedAffinity>
-9.83123

$$$$
