CHEMBL2111784


 35 39  0  0  0  0  0  0  0  0999 V2000
  -27.9388   -8.6125   -6.2664 C   0  0  0  0  0  0  0  0  0  0  0  0
  -27.3520   -8.9424   -4.6478 S   0  0  0  0  0  0  0  0  0  0  0  0
  -26.7021  -10.4144   -5.1566 C   0  0  0  0  0  0  0  0  0  0  0  0
  -26.9554  -10.7301   -6.3985 N   0  0  0  0  0  0  0  0  0  0  0  0
  -27.6050   -9.7043   -7.0588 C   0  0  0  0  0  0  0  0  0  0  0  0
  -25.8684  -11.3112   -4.2434 C   0  0  0  0  0  0  0  0  0  0  0  0
  -24.7453  -10.5417   -3.5434 C   0  0  0  0  0  0  0  0  0  0  0  0
  -23.7197  -10.0209   -4.5504 C   0  0  0  0  0  0  0  0  0  0  0  0
  -23.1400  -11.0868   -5.3812 N   0  0  0  0  0  0  0  0  0  0  0  0
  -22.3169  -10.4744   -6.4339 C   0  0  0  0  0  0  0  0  0  0  0  0
  -24.1467  -11.9580   -6.0084 C   0  0  0  0  0  0  0  0  0  0  0  0
  -25.2159  -12.4619   -5.0297 C   0  0  0  0  0  0  0  0  0  0  0  0
  -27.9037   -9.9380   -8.4685 C   0  0  0  0  0  0  0  0  0  0  0  0
  -29.1657  -10.4781   -8.7922 C   0  0  0  0  0  0  0  0  0  0  0  0
  -29.5551  -10.6750  -10.1190 C   0  0  0  0  0  0  0  0  0  0  0  0
  -28.6734  -10.3158  -11.1364 C   0  0  0  0  0  0  0  0  0  0  0  0
  -29.0578  -10.4521  -12.4044 F   0  0  0  0  0  0  0  0  0  0  0  0
  -27.3956   -9.8580  -10.8415 C   0  0  0  0  0  0  0  0  0  0  0  0
  -26.9984   -9.6799   -9.5089 C   0  0  0  0  0  0  0  0  0  0  0  0
  -29.1747   -5.0417   -5.8670 C   0  0  0  0  0  0  0  0  0  0  0  0
  -28.4152   -6.2082   -5.7396 C   0  0  0  0  0  0  0  0  0  0  0  0
  -28.6923   -7.3572   -6.4844 C   0  0  0  0  0  0  0  0  0  0  0  0
  -29.7402   -7.2548   -7.3861 C   0  0  0  0  0  0  0  0  0  0  0  0
  -30.4037   -6.0419   -7.5217 C   0  0  0  0  0  0  0  0  0  0  0  0
  -30.1456   -4.9420   -6.7793 N   0  0  0  0  0  0  0  0  0  0  0  0
  -28.8631   -4.0217   -4.9733 N   0  0  0  0  0  0  0  0  0  0  0  0
  -28.5074   -4.4342   -4.1174 H   0  0  0  0  0  0  0  0  0  0  0  0
  -29.9381   -2.6612   -3.2128 C   0  0  0  0  0  0  0  0  0  0  0  0
  -29.7904   -2.9351   -4.7241 C   0  0  0  0  0  0  0  0  0  0  0  0
  -29.1753   -1.6411   -5.2670 C   0  0  0  0  0  0  0  0  0  0  0  0
  -30.0092   -0.5297   -5.4400 C   0  0  0  0  0  0  0  0  0  0  0  0
  -29.4948    0.7412   -5.2219 C   0  0  0  0  0  0  0  0  0  0  0  0
  -28.1515    0.9028   -4.8869 C   0  0  0  0  0  0  0  0  0  0  0  0
  -27.2824   -0.1867   -4.9246 C   0  0  0  0  0  0  0  0  0  0  0  0
  -27.7836   -1.4535   -5.1714 C   0  0  0  0  0  0  0  0  0  0  0  0
 29 30  1  0  0  0
 29 26  1  0  0  0
 29 28  1  0  0  0
 26 20  1  0  0  0
 26 27  1  0  0  0
 20 21  1  0  0  0
 20 25  2  0  0  0
 21 22  2  0  0  0
 22  1  1  0  0  0
 22 23  1  0  0  0
  1  2  1  0  0  0
  1  5  2  0  0  0
  2  3  1  0  0  0
  3  6  1  0  0  0
  3  4  2  0  0  0
  6  7  1  0  0  0
  6 12  1  0  0  0
  7  8  1  0  0  0
  8  9  1  0  0  0
  9 10  1  0  0  0
  9 11  1  0  0  0
 11 12  1  0  0  0
  4  5  1  0  0  0
  5 13  1  0  0  0
 13 14  1  0  0  0
 13 19  2  0  0  0
 14 15  2  0  0  0
 15 16  1  0  0  0
 16 17  1  0  0  0
 16 18  2  0  0  0
 18 19  1  0  0  0
 23 24  2  0  0  0
 24 25  1  0  0  0
 30 31  1  0  0  0
 30 35  2  0  0  0
 31 32  2  0  0  0
 32 33  1  0  0  0
 33 34  2  0  0  0
 34 35  1  0  0  0
M  END
> <minimizedAffinity>
-9.46810

$$$$
