CHEMBL187130


 32 36  0  0  0  0  0  0  0  0999 V2000
  -14.4048    0.8903  -16.5871 C   0  0  0  0  0  0  0  0  0  0  0  0
  -14.2040    0.3517  -17.8371 C   0  0  0  0  0  0  0  0  0  0  0  0
  -13.5183   -0.8259  -17.6694 N   0  0  0  0  0  0  0  0  0  0  0  0
  -13.2855   -1.0610  -16.3311 C   0  0  0  0  0  0  0  0  0  0  0  0
  -12.6160   -2.1123  -15.6904 C   0  0  0  0  0  0  0  0  0  0  0  0
  -12.5298   -2.0822  -14.2921 C   0  0  0  0  0  0  0  0  0  0  0  0
  -13.0545   -1.0064  -13.5752 C   0  0  0  0  0  0  0  0  0  0  0  0
  -13.7354    0.0263  -14.2259 C   0  0  0  0  0  0  0  0  0  0  0  0
  -13.8493    0.0016  -15.6273 C   0  0  0  0  0  0  0  0  0  0  0  0
  -13.2024   -1.4262  -18.4188 H   0  0  0  0  0  0  0  0  0  0  0  0
  -15.9836    4.7060  -16.0100 O   0  0  0  0  0  0  0  0  0  0  0  0
  -16.7385    3.7572  -15.7792 C   0  0  0  0  0  0  0  0  0  0  0  0
  -18.0428    4.0358  -15.5015 N   0  0  0  0  0  0  0  0  0  0  0  0
  -19.0672    3.1353  -15.2031 C   0  0  0  0  0  0  0  0  0  0  0  0
  -20.3465    3.6552  -14.9687 C   0  0  0  0  0  0  0  0  0  0  0  0
  -21.4051    2.8044  -14.6456 C   0  0  0  0  0  0  0  0  0  0  0  0
  -21.1905    1.4347  -14.5564 C   0  0  0  0  0  0  0  0  0  0  0  0
  -19.9173    0.9167  -14.7973 C   0  0  0  0  0  0  0  0  0  0  0  0
  -18.8461    1.7624  -15.1223 C   0  0  0  0  0  0  0  0  0  0  0  0
  -17.2716    1.0139  -15.3900 S   0  0  0  0  0  0  0  0  0  0  0  0
  -16.2597    2.3392  -15.8419 C   0  0  0  0  0  0  0  0  0  0  0  0
  -15.0058    2.1531  -16.3014 C   0  0  0  0  0  0  0  0  0  0  0  0
  -18.2556    5.0255  -15.5276 H   0  0  0  0  0  0  0  0  0  0  0  0
  -11.8689   -3.1441  -13.7296 O   0  0  0  0  0  0  0  0  0  0  0  0
  -12.4221   -3.6733  -12.5172 C   0  0  0  0  0  0  0  0  0  0  0  0
  -13.5143   -4.6937  -12.8697 C   0  0  0  0  0  0  0  0  0  0  0  0
  -13.9890   -5.4997  -11.7255 N   0  0  0  0  0  0  0  0  0  0  0  0
  -15.2234   -6.2399  -12.0849 C   0  0  0  0  0  0  0  0  0  0  0  0
  -16.4748   -5.3476  -12.1977 C   0  0  0  0  0  0  0  0  0  0  0  0
  -16.6965   -4.5895  -11.0017 O   0  0  0  0  0  0  0  0  0  0  0  0
  -15.5433   -3.8069  -10.6677 C   0  0  0  0  0  0  0  0  0  0  0  0
  -14.3011   -4.6989  -10.5172 C   0  0  0  0  0  0  0  0  0  0  0  0
 11 12  2  0  0  0
 12 13  1  0  0  0
 12 21  1  0  0  0
 13 14  1  0  0  0
 13 23  1  0  0  0
 14 15  1  0  0  0
 14 19  2  0  0  0
 15 16  2  0  0  0
 16 17  1  0  0  0
 17 18  2  0  0  0
 18 19  1  0  0  0
 19 20  1  0  0  0
 20 21  1  0  0  0
 21 22  2  0  0  0
 22  1  1  0  0  0
  1  2  2  0  0  0
  1  9  1  0  0  0
  2  3  1  0  0  0
  3  4  1  0  0  0
  3 10  1  0  0  0
  4  5  1  0  0  0
  4  9  2  0  0  0
  5  6  2  0  0  0
  6 24  1  0  0  0
  6  7  1  0  0  0
 24 25  1  0  0  0
 25 26  1  0  0  0
 26 27  1  0  0  0
 27 28  1  0  0  0
 27 32  1  0  0  0
 28 29  1  0  0  0
 29 30  1  0  0  0
 30 31  1  0  0  0
 31 32  1  0  0  0
  7  8  2  0  0  0
  8  9  1  0  0  0
M  END
> <minimizedAffinity>
-8.42743

$$$$
