CHEMBL384942


 42 46  0  0  0  0  0  0  0  0999 V2000
  -11.9971    0.9378  -16.9839 C   0  0  0  0  0  0  0  0  0  0  0  0
  -13.3952    1.3517  -16.5859 C   0  0  0  0  0  0  0  0  0  0  0  0
  -13.9195    2.4669  -17.2533 C   0  0  0  0  0  0  0  0  0  0  0  0
  -15.2219    2.9140  -17.0150 C   0  0  0  0  0  0  0  0  0  0  0  0
  -16.0087    2.2551  -16.0759 C   0  0  0  0  0  0  0  0  0  0  0  0
  -15.4924    1.1488  -15.3932 C   0  0  0  0  0  0  0  0  0  0  0  0
  -14.1793    0.6696  -15.6140 C   0  0  0  0  0  0  0  0  0  0  0  0
  -13.7202   -0.5142  -14.8333 C   0  0  0  0  0  0  0  0  0  0  0  0
  -14.3510   -1.7692  -14.9392 C   0  0  0  0  0  0  0  0  0  0  0  0
  -13.9167   -2.8786  -14.1970 C   0  0  0  0  0  0  0  0  0  0  0  0
  -12.8170   -2.8070  -13.3588 C   0  0  0  0  0  0  0  0  0  0  0  0
  -12.3839   -3.8916  -12.7087 N   0  0  0  0  0  0  0  0  0  0  0  0
  -11.3614   -3.7504  -11.8560 C   0  0  0  0  0  0  0  0  0  0  0  0
  -10.7031   -2.5983  -11.6638 N   0  0  0  0  0  0  0  0  0  0  0  0
  -11.1213   -1.5359  -12.3661 C   0  0  0  0  0  0  0  0  0  0  0  0
  -12.2017   -1.5697  -13.2246 C   0  0  0  0  0  0  0  0  0  0  0  0
  -12.6673   -0.4377  -13.9149 C   0  0  0  0  0  0  0  0  0  0  0  0
  -11.0056   -4.8816  -11.1393 N   0  0  0  0  0  0  0  0  0  0  0  0
  -10.6201   -4.5816  -10.2472 H   0  0  0  0  0  0  0  0  0  0  0  0
  -12.0383   -5.8948  -11.0117 C   0  0  0  0  0  0  0  0  0  0  0  0
  -12.8943   -5.6286   -9.7528 C   0  0  0  0  0  0  0  0  0  0  0  0
  -14.2771   -5.1769  -10.0412 N   0  0  0  0  0  0  0  0  0  0  0  0
  -14.3904   -3.7115   -9.9595 C   0  0  0  0  0  0  0  0  0  0  0  0
  -15.8252   -3.2515  -10.2063 C   0  0  0  0  0  0  0  0  0  0  0  0
  -16.3408   -3.7429  -11.5504 C   0  0  0  0  0  0  0  0  0  0  0  0
  -16.1361   -5.2478  -11.6808 C   0  0  0  0  0  0  0  0  0  0  0  0
  -14.6893   -5.6455  -11.3779 C   0  0  0  0  0  0  0  0  0  0  0  0
  -17.4024    2.7271  -15.8597 C   0  0  0  0  0  0  0  0  0  0  0  0
  -17.6967    3.8398  -16.2820 O   0  0  0  0  0  0  0  0  0  0  0  0
  -18.2227    1.8656  -15.1430 N   0  0  0  0  0  0  0  0  0  0  0  0
  -17.7684    1.0838  -14.6946 H   0  0  0  0  0  0  0  0  0  0  0  0
  -19.5772    2.0973  -14.7911 C   0  0  0  0  0  0  0  0  0  0  0  0
  -20.0311    3.3902  -14.4974 C   0  0  0  0  0  0  0  0  0  0  0  0
  -21.3432    3.6162  -14.0927 C   0  0  0  0  0  0  0  0  0  0  0  0
  -22.2254    2.5519  -13.9775 C   0  0  0  0  0  0  0  0  0  0  0  0
  -21.8186    1.2408  -14.2871 C   0  0  0  0  0  0  0  0  0  0  0  0
  -20.4843    1.0081  -14.7237 C   0  0  0  0  0  0  0  0  0  0  0  0
  -20.0258   -0.3875  -15.0806 C   0  0  0  0  0  0  0  0  0  0  0  0
  -22.8269    0.1243  -14.1069 C   0  0  0  0  0  0  0  0  0  0  0  0
  -23.3189   -0.3651  -15.2815 F   0  0  0  0  0  0  0  0  0  0  0  0
  -22.3112   -0.9527  -13.4514 F   0  0  0  0  0  0  0  0  0  0  0  0
  -23.9197    0.5160  -13.3930 F   0  0  0  0  0  0  0  0  0  0  0  0
  1  2  1  0  0  0
  2  3  1  0  0  0
  2  7  2  0  0  0
  3  4  2  0  0  0
  4  5  1  0  0  0
  5 28  1  0  0  0
  5  6  2  0  0  0
 28 29  2  0  0  0
 28 30  1  0  0  0
 30 32  1  0  0  0
 30 31  1  0  0  0
 32 33  1  0  0  0
 32 37  2  0  0  0
 33 34  2  0  0  0
 34 35  1  0  0  0
 35 36  2  0  0  0
 36 39  1  0  0  0
 36 37  1  0  0  0
 39 40  1  0  0  0
 39 41  1  0  0  0
 39 42  1  0  0  0
 37 38  1  0  0  0
  6  7  1  0  0  0
  7  8  1  0  0  0
  8  9  1  0  0  0
  8 17  2  0  0  0
  9 10  2  0  0  0
 10 11  1  0  0  0
 11 12  1  0  0  0
 11 16  2  0  0  0
 12 13  2  0  0  0
 13 18  1  0  0  0
 13 14  1  0  0  0
 18 20  1  0  0  0
 18 19  1  0  0  0
 20 21  1  0  0  0
 21 22  1  0  0  0
 22 23  1  0  0  0
 22 27  1  0  0  0
 23 24  1  0  0  0
 24 25  1  0  0  0
 25 26  1  0  0  0
 26 27  1  0  0  0
 14 15  2  0  0  0
 15 16  1  0  0  0
 16 17  1  0  0  0
M  END
> <minimizedAffinity>
-8.71849

$$$$
