CHEMBL4746488


 25 28  0  0  0  0  0  0  0  0999 V2000
  -30.3890   -6.0808   -5.2342 N   0  0  0  0  0  0  0  0  0  0  0  0
  -31.3790   -5.9002   -4.1728 C   0  0  0  0  0  0  0  0  0  0  0  0
  -29.9248   -7.4240   -5.2993 C   0  0  0  0  0  0  0  0  0  0  0  0
  -28.8920   -7.7442   -4.4835 N   0  0  0  0  0  0  0  0  0  0  0  0
  -28.4259   -8.9987   -4.5212 C   0  0  0  0  0  0  0  0  0  0  0  0
  -27.2883   -9.3570   -3.6154 C   0  0  0  0  0  0  0  0  0  0  0  0
  -28.8795   -9.9579   -5.3373 N   0  0  0  0  0  0  0  0  0  0  0  0
  -29.8722   -9.6385   -6.1705 C   0  0  0  0  0  0  0  0  0  0  0  0
  -30.3135  -10.6224   -7.0478 C   0  0  0  0  0  0  0  0  0  0  0  0
  -31.3308  -10.3931   -7.9754 C   0  0  0  0  0  0  0  0  0  0  0  0
  -31.9203   -9.1416   -8.0431 C   0  0  0  0  0  0  0  0  0  0  0  0
  -31.4768   -8.1410   -7.1826 C   0  0  0  0  0  0  0  0  0  0  0  0
  -30.4624   -8.3667   -6.2106 C   0  0  0  0  0  0  0  0  0  0  0  0
  -27.8818   -1.5176   -7.5135 C   0  0  0  0  0  0  0  0  0  0  0  0
  -28.0742   -0.2669   -6.9163 C   0  0  0  0  0  0  0  0  0  0  0  0
  -28.8626   -0.1471   -5.7741 C   0  0  0  0  0  0  0  0  0  0  0  0
  -29.4844   -1.2703   -5.2344 C   0  0  0  0  0  0  0  0  0  0  0  0
  -29.3365   -2.5299   -5.8320 C   0  0  0  0  0  0  0  0  0  0  0  0
  -29.9880   -3.6558   -5.2928 C   0  0  0  0  0  0  0  0  0  0  0  0
  -29.8229   -4.9418   -5.8302 C   0  0  0  0  0  0  0  0  0  0  0  0
  -28.9909   -5.0728   -6.9497 C   0  0  0  0  0  0  0  0  0  0  0  0
  -28.3570   -3.9601   -7.5158 C   0  0  0  0  0  0  0  0  0  0  0  0
  -28.5156   -2.6681   -6.9752 C   0  0  0  0  0  0  0  0  0  0  0  0
  -27.7998   -1.5476   -9.8948 C   0  0  0  0  0  0  0  0  0  0  0  0
  -27.1297   -1.7058   -8.6498 O   0  0  0  0  0  0  0  0  0  0  0  0
 24 25  1  0  0  0
 25 14  1  0  0  0
 14 15  1  0  0  0
 14 23  2  0  0  0
 15 16  2  0  0  0
 16 17  1  0  0  0
 17 18  2  0  0  0
 18 19  1  0  0  0
 18 23  1  0  0  0
 19 20  2  0  0  0
 20  1  1  0  0  0
 20 21  1  0  0  0
  1  2  1  0  0  0
  1  3  1  0  0  0
  3  4  1  0  0  0
  3 13  2  0  0  0
  4  5  2  0  0  0
  5  6  1  0  0  0
  5  7  1  0  0  0
  7  8  2  0  0  0
  8  9  1  0  0  0
  8 13  1  0  0  0
  9 10  2  0  0  0
 10 11  1  0  0  0
 11 12  2  0  0  0
 12 13  1  0  0  0
 21 22  2  0  0  0
 22 23  1  0  0  0
M  END
> <minimizedAffinity>
-8.63181

$$$$
