CHEMBL3656073


 51 54  0  0  0  0  0  0  0  0999 V2000
  -22.0495    0.7612  -14.2846 C   0  0  0  0  0  0  0  0  0  0  0  0
  -22.7976    1.8727  -13.9123 C   0  0  0  0  0  0  0  0  0  0  0  0
  -22.2168    3.1208  -14.0400 C   0  0  0  0  0  0  0  0  0  0  0  0
  -20.9486    3.3226  -14.4593 N   0  0  0  0  0  0  0  0  0  0  0  0
  -20.2204    2.2210  -14.7617 C   0  0  0  0  0  0  0  0  0  0  0  0
  -20.7268    0.9303  -14.6820 C   0  0  0  0  0  0  0  0  0  0  0  0
  -18.8471    2.4993  -15.1735 C   0  0  0  0  0  0  0  0  0  0  0  0
  -17.7538    1.6701  -15.3558 C   0  0  0  0  0  0  0  0  0  0  0  0
  -16.6280    2.4590  -15.7483 C   0  0  0  0  0  0  0  0  0  0  0  0
  -17.0912    3.7617  -15.8038 C   0  0  0  0  0  0  0  0  0  0  0  0
  -18.4170    3.7748  -15.4646 N   0  0  0  0  0  0  0  0  0  0  0  0
  -19.0194    4.5889  -15.4184 H   0  0  0  0  0  0  0  0  0  0  0  0
  -15.2502    2.0535  -16.0314 C   0  0  0  0  0  0  0  0  0  0  0  0
  -14.5620    2.6061  -16.8860 O   0  0  0  0  0  0  0  0  0  0  0  0
  -14.7855    1.0140  -15.2556 N   0  0  0  0  0  0  0  0  0  0  0  0
  -15.3994    0.5950  -14.5747 H   0  0  0  0  0  0  0  0  0  0  0  0
  -13.4270    0.5196  -15.3427 C   0  0  0  0  0  0  0  0  0  0  0  0
  -13.3256   -0.9653  -14.9960 C   0  0  0  0  0  0  0  0  0  0  0  0
  -14.4121   -1.4029  -14.0121 C   0  0  0  0  0  0  0  0  0  0  0  0
  -13.8682   -2.4037  -13.0078 C   0  0  0  0  0  0  0  0  0  0  0  0
  -12.8170   -2.1378  -12.4155 O   0  0  0  0  0  0  0  0  0  0  0  0
  -14.5199   -3.6117  -12.8022 N   0  0  0  0  0  0  0  0  0  0  0  0
  -15.7976   -4.0155  -13.3851 C   0  0  0  0  0  0  0  0  0  0  0  0
  -13.9018   -4.5788  -11.8758 C   0  0  0  0  0  0  0  0  0  0  0  0
  -14.6699   -4.8045  -10.5591 C   0  0  0  0  0  0  0  0  0  0  0  0
  -14.2046   -5.9972   -9.9125 O   0  0  0  0  0  0  0  0  0  0  0  0
  -13.4280   -5.7429   -9.3830 H   0  0  0  0  0  0  0  0  0  0  0  0
  -14.6216   -3.6107   -9.5935 C   0  0  0  0  0  0  0  0  0  0  0  0
  -15.8594   -2.8929   -9.6007 O   0  0  0  0  0  0  0  0  0  0  0  0
  -16.1737   -2.8474  -10.5203 H   0  0  0  0  0  0  0  0  0  0  0  0
  -22.5175   -0.5347  -14.2357 O   0  0  0  0  0  0  0  0  0  0  0  0
  -26.0989   -1.3234  -12.2292 C   0  0  0  0  0  0  0  0  0  0  0  0
  -26.0278   -1.5411  -13.6097 C   0  0  0  0  0  0  0  0  0  0  0  0
  -24.8421   -1.3041  -14.3047 C   0  0  0  0  0  0  0  0  0  0  0  0
  -23.7308   -0.7924  -13.6334 C   0  0  0  0  0  0  0  0  0  0  0  0
  -23.7988   -0.5776  -12.2533 C   0  0  0  0  0  0  0  0  0  0  0  0
  -24.9888   -0.8173  -11.5528 C   0  0  0  0  0  0  0  0  0  0  0  0
  -28.3221   -2.4188   -9.5880 N   0  0  0  0  0  0  0  0  0  0  0  0
  -27.1390   -1.9781  -10.1527 C   0  0  0  0  0  0  0  0  0  0  0  0
  -26.0917   -1.7932   -9.5467 O   0  0  0  0  0  0  0  0  0  0  0  0
  -27.2663   -1.6849  -11.5092 N   0  0  0  0  0  0  0  0  0  0  0  0
  -29.1510   -2.3574  -10.1587 H   0  0  0  0  0  0  0  0  0  0  0  0
  -28.1048   -1.1738  -11.7403 H   0  0  0  0  0  0  0  0  0  0  0  0
  -29.5193   -5.8929   -6.2734 C   0  0  0  0  0  0  0  0  0  0  0  0
  -29.1201   -4.4795   -6.5875 C   0  0  0  0  0  0  0  0  0  0  0  0
  -29.0089   -3.5446   -5.5540 C   0  0  0  0  0  0  0  0  0  0  0  0
  -28.6059   -2.2455   -5.8346 C   0  0  0  0  0  0  0  0  0  0  0  0
  -28.3294   -1.8672   -7.1452 C   0  0  0  0  0  0  0  0  0  0  0  0
  -27.8119   -0.6435   -7.3036 F   0  0  0  0  0  0  0  0  0  0  0  0
  -28.4947   -2.7594   -8.2171 C   0  0  0  0  0  0  0  0  0  0  0  0
  -28.8607   -4.0818   -7.9152 C   0  0  0  0  0  0  0  0  0  0  0  0
 44 45  1  0  0  0
 45 46  1  0  0  0
 45 51  2  0  0  0
 46 47  2  0  0  0
 47 48  1  0  0  0
 48 49  1  0  0  0
 48 50  2  0  0  0
 50 38  1  0  0  0
 50 51  1  0  0  0
 38 39  1  0  0  0
 38 42  1  0  0  0
 39 40  2  0  0  0
 39 41  1  0  0  0
 41 32  1  0  0  0
 41 43  1  0  0  0
 32 33  1  0  0  0
 32 37  2  0  0  0
 33 34  2  0  0  0
 34 35  1  0  0  0
 35 31  1  0  0  0
 35 36  2  0  0  0
 31  1  1  0  0  0
  1  2  1  0  0  0
  1  6  2  0  0  0
  2  3  2  0  0  0
  3  4  1  0  0  0
  4  5  2  0  0  0
  5  7  1  0  0  0
  5  6  1  0  0  0
  7  8  2  0  0  0
  7 11  1  0  0  0
  8  9  1  0  0  0
  9 13  1  0  0  0
  9 10  2  0  0  0
 13 14  2  0  0  0
 13 15  1  0  0  0
 15 17  1  0  0  0
 15 16  1  0  0  0
 17 18  1  0  0  0
 18 19  1  0  0  0
 19 20  1  0  0  0
 20 21  2  0  0  0
 20 22  1  0  0  0
 22 23  1  0  0  0
 22 24  1  0  0  0
 24 25  1  0  0  0
 25 26  1  0  0  0
 25 28  1  0  0  0
 26 27  1  0  0  0
 28 29  1  0  0  0
 29 30  1  0  0  0
 10 11  1  0  0  0
 11 12  1  0  0  0
 36 37  1  0  0  0
M  END
> <minimizedAffinity>
-11.62811

$$$$
