CHEMBL429138


 36 41  0  0  0  0  0  0  0  0999 V2000
  -14.5640   -2.4768  -12.5810 C   0  0  0  0  0  0  0  0  0  0  0  0
  -13.3099   -2.7422  -13.1399 C   0  0  0  0  0  0  0  0  0  0  0  0
  -12.7365   -1.8920  -14.1053 C   0  0  0  0  0  0  0  0  0  0  0  0
  -13.4716   -0.7758  -14.5144 C   0  0  0  0  0  0  0  0  0  0  0  0
  -14.7958   -0.5347  -14.0448 C   0  0  0  0  0  0  0  0  0  0  0  0
  -15.3340   -1.3979  -13.0658 C   0  0  0  0  0  0  0  0  0  0  0  0
  -15.1971    0.5565  -14.8110 C   0  0  0  0  0  0  0  0  0  0  0  0
  -16.3970    1.3083  -14.8488 C   0  0  0  0  0  0  0  0  0  0  0  0
  -16.4519    2.3932  -15.8568 C   0  0  0  0  0  0  0  0  0  0  0  0
  -15.3170    2.7569  -16.6641 C   0  0  0  0  0  0  0  0  0  0  0  0
  -14.1906    2.4353  -15.8653 C   0  0  0  0  0  0  0  0  0  0  0  0
  -14.1472    1.1482  -15.4143 C   0  0  0  0  0  0  0  0  0  0  0  0
  -13.1157    0.2636  -15.3704 N   0  0  0  0  0  0  0  0  0  0  0  0
  -13.8289    3.6251  -14.9515 C   0  0  0  0  0  0  0  0  0  0  0  0
  -13.0176    4.5008  -15.8541 C   0  0  0  0  0  0  0  0  0  0  0  0
  -13.8988    4.8620  -17.0149 C   0  0  0  0  0  0  0  0  0  0  0  0
  -13.4049    5.6874  -17.9277 N   0  0  0  0  0  0  0  0  0  0  0  0
  -13.5673    4.9595  -19.0376 N   0  0  0  0  0  0  0  0  0  0  0  0
  -12.5697    5.2178  -20.0627 C   0  0  0  0  0  0  0  0  0  0  0  0
  -14.4330    3.8711  -18.8354 C   0  0  0  0  0  0  0  0  0  0  0  0
  -14.9384    3.9455  -17.5139 C   0  0  0  0  0  0  0  0  0  0  0  0
  -17.7087    3.1091  -15.5174 C   0  0  0  0  0  0  0  0  0  0  0  0
  -18.1670    4.1591  -15.9977 O   0  0  0  0  0  0  0  0  0  0  0  0
  -18.2354    2.4666  -14.4153 N   0  0  0  0  0  0  0  0  0  0  0  0
  -17.5173    1.3331  -13.9064 C   0  0  0  0  0  0  0  0  0  0  0  0
  -18.9892    2.9273  -13.9347 H   0  0  0  0  0  0  0  0  0  0  0  0
  -16.3481   -4.0744  -11.5876 C   0  0  0  0  0  0  0  0  0  0  0  0
  -15.0197   -3.3531  -11.4358 C   0  0  0  0  0  0  0  0  0  0  0  0
  -14.2821   -3.4227  -10.3605 N   0  0  0  0  0  0  0  0  0  0  0  0
  -14.8604   -4.2233   -9.3681 O   0  0  0  0  0  0  0  0  0  0  0  0
  -13.9310   -5.2334   -8.9577 C   0  0  0  0  0  0  0  0  0  0  0  0
  -13.5236   -6.0788  -10.1587 C   0  0  0  0  0  0  0  0  0  0  0  0
  -12.7155   -4.5219   -8.3712 C   0  0  0  0  0  0  0  0  0  0  0  0
  -11.9711    0.4161  -16.2723 C   0  0  0  0  0  0  0  0  0  0  0  0
  -12.3289    0.6632  -17.7236 C   0  0  0  0  0  0  0  0  0  0  0  0
  -10.9104    1.3591  -15.7288 C   0  0  0  0  0  0  0  0  0  0  0  0
 27 28  1  0  0  0
 28 29  2  0  0  0
 28  1  1  0  0  0
 29 30  1  0  0  0
 30 31  1  0  0  0
 31 32  1  0  0  0
 31 33  1  0  0  0
  1  2  1  0  0  0
  1  6  2  0  0  0
  2  3  2  0  0  0
  3  4  1  0  0  0
  4  5  2  0  0  0
  4 13  1  0  0  0
  5  6  1  0  0  0
  5  7  1  0  0  0
  7  8  1  0  0  0
  7 12  2  0  0  0
  8  9  2  0  0  0
  8 25  1  0  0  0
  9 10  1  0  0  0
  9 22  1  0  0  0
 10 11  2  0  0  0
 10 21  1  0  0  0
 11 12  1  0  0  0
 11 14  1  0  0  0
 12 13  1  0  0  0
 13 34  1  0  0  0
 34 35  1  0  0  0
 34 36  1  0  0  0
 14 15  1  0  0  0
 15 16  1  0  0  0
 16 17  2  0  0  0
 16 21  1  0  0  0
 17 18  1  0  0  0
 18 19  1  0  0  0
 18 20  1  0  0  0
 20 21  2  0  0  0
 22 23  2  0  0  0
 22 24  1  0  0  0
 24 25  1  0  0  0
 24 26  1  0  0  0
M  END
> <minimizedAffinity>
-7.70209

$$$$
