CHEMBL240818


 30 32  0  0  0  0  0  0  0  0999 V2000
  -27.2456   -1.9172  -10.5226 N   0  0  0  0  0  0  0  0  0  0  0  0
  -25.9640   -1.6282  -10.9610 C   0  0  0  0  0  0  0  0  0  0  0  0
  -24.9746   -1.5025  -10.2496 O   0  0  0  0  0  0  0  0  0  0  0  0
  -27.9529   -2.0203  -11.2424 H   0  0  0  0  0  0  0  0  0  0  0  0
  -27.9651    0.1491   -6.0855 C   0  0  0  0  0  0  0  0  0  0  0  0
  -28.0713   -1.0681   -6.9633 C   0  0  0  0  0  0  0  0  0  0  0  0
  -27.6427   -0.9440   -8.2957 C   0  0  0  0  0  0  0  0  0  0  0  0
  -27.6770   -2.0157   -9.1860 C   0  0  0  0  0  0  0  0  0  0  0  0
  -28.1665   -3.2432   -8.7398 C   0  0  0  0  0  0  0  0  0  0  0  0
  -28.6082   -3.3843   -7.4198 C   0  0  0  0  0  0  0  0  0  0  0  0
  -28.5598   -2.3071   -6.5102 C   0  0  0  0  0  0  0  0  0  0  0  0
  -29.0304   -2.5592   -5.0923 C   0  0  0  0  0  0  0  0  0  0  0  0
  -29.9123   -1.6481   -4.6009 F   0  0  0  0  0  0  0  0  0  0  0  0
  -29.6441   -3.7698   -4.9652 F   0  0  0  0  0  0  0  0  0  0  0  0
  -27.9932   -2.5781   -4.2075 F   0  0  0  0  0  0  0  0  0  0  0  0
  -25.8521   -1.4758  -12.3931 C   0  0  0  0  0  0  0  0  0  0  0  0
  -26.8392   -1.7988  -13.3689 C   0  0  0  0  0  0  0  0  0  0  0  0
  -28.2044   -2.3533  -13.1684 C   0  0  0  0  0  0  0  0  0  0  0  0
  -26.4195   -1.4982  -14.6013 N   0  0  0  0  0  0  0  0  0  0  0  0
  -25.1429   -0.9901  -14.4492 O   0  0  0  0  0  0  0  0  0  0  0  0
  -24.7830   -1.0135  -13.1347 C   0  0  0  0  0  0  0  0  0  0  0  0
  -23.5207   -0.5958  -12.8607 N   0  0  0  0  0  0  0  0  0  0  0  0
  -23.4268    0.1549  -12.1777 H   0  0  0  0  0  0  0  0  0  0  0  0
  -22.4826   -0.6013  -13.8838 C   0  0  0  0  0  0  0  0  0  0  0  0
  -21.9110    0.7547  -14.2030 C   0  0  0  0  0  0  0  0  0  0  0  0
  -22.6617    1.8908  -13.8725 C   0  0  0  0  0  0  0  0  0  0  0  0
  -22.1070    3.1442  -14.0650 C   0  0  0  0  0  0  0  0  0  0  0  0
  -20.8676    3.3409  -14.5544 N   0  0  0  0  0  0  0  0  0  0  0  0
  -20.1480    2.2370  -14.8501 C   0  0  0  0  0  0  0  0  0  0  0  0
  -20.6139    0.9408  -14.6872 C   0  0  0  0  0  0  0  0  0  0  0  0
  5  6  1  0  0  0
  6  7  1  0  0  0
  6 11  2  0  0  0
  7  8  2  0  0  0
  8  1  1  0  0  0
  8  9  1  0  0  0
  1  2  1  0  0  0
  1  4  1  0  0  0
  2  3  2  0  0  0
  2 16  1  0  0  0
 16 17  1  0  0  0
 16 21  2  0  0  0
 17 18  1  0  0  0
 17 19  2  0  0  0
 19 20  1  0  0  0
 20 21  1  0  0  0
 21 22  1  0  0  0
 22 24  1  0  0  0
 22 23  1  0  0  0
 24 25  1  0  0  0
 25 26  1  0  0  0
 25 30  2  0  0  0
 26 27  2  0  0  0
 27 28  1  0  0  0
 28 29  2  0  0  0
 29 30  1  0  0  0
  9 10  2  0  0  0
 10 11  1  0  0  0
 11 12  1  0  0  0
 12 13  1  0  0  0
 12 14  1  0  0  0
 12 15  1  0  0  0
M  END
> <minimizedAffinity>
-10.01628

$$$$
