CHEMBL462349


 39 43  0  0  0  0  0  0  0  0999 V2000
  -26.9090   -2.1653  -10.3455 C   0  0  0  0  0  0  0  0  0  0  0  0
  -25.5858   -1.7705  -10.1235 C   0  0  0  0  0  0  0  0  0  0  0  0
  -24.7677   -1.3208  -11.1724 C   0  0  0  0  0  0  0  0  0  0  0  0
  -25.2940   -1.2802  -12.4791 C   0  0  0  0  0  0  0  0  0  0  0  0
  -24.8214   -0.9093  -13.7812 C   0  0  0  0  0  0  0  0  0  0  0  0
  -25.7695   -1.1065  -14.6950 N   0  0  0  0  0  0  0  0  0  0  0  0
  -26.8157   -1.5901  -14.0220 N   0  0  0  0  0  0  0  0  0  0  0  0
  -27.9998   -1.9772  -14.7497 C   0  0  0  0  0  0  0  0  0  0  0  0
  -26.6035   -1.7204  -12.6761 C   0  0  0  0  0  0  0  0  0  0  0  0
  -27.4322   -2.1858  -11.6401 C   0  0  0  0  0  0  0  0  0  0  0  0
  -23.5549   -0.4179  -14.0754 N   0  0  0  0  0  0  0  0  0  0  0  0
  -23.1680    0.8846  -13.8064 C   0  0  0  0  0  0  0  0  0  0  0  0
  -23.8521    1.7647  -13.2920 O   0  0  0  0  0  0  0  0  0  0  0  0
  -22.9012   -1.0778  -14.4609 H   0  0  0  0  0  0  0  0  0  0  0  0
  -21.7721    1.2725  -14.1697 C   0  0  0  0  0  0  0  0  0  0  0  0
  -20.8344    0.3860  -14.7097 C   0  0  0  0  0  0  0  0  0  0  0  0
  -19.5685    0.8551  -15.0948 C   0  0  0  0  0  0  0  0  0  0  0  0
  -19.2255    2.2111  -14.9529 C   0  0  0  0  0  0  0  0  0  0  0  0
  -20.1694    3.0925  -14.4113 C   0  0  0  0  0  0  0  0  0  0  0  0
  -21.4272    2.6267  -14.0266 C   0  0  0  0  0  0  0  0  0  0  0  0
  -17.8799    2.7413  -15.3891 C   0  0  0  0  0  0  0  0  0  0  0  0
  -16.8694    2.4310  -14.5302 F   0  0  0  0  0  0  0  0  0  0  0  0
  -17.4985    2.2598  -16.6044 F   0  0  0  0  0  0  0  0  0  0  0  0
  -17.8686    4.0982  -15.5038 F   0  0  0  0  0  0  0  0  0  0  0  0
  -27.5931   -2.5375   -9.2100 O   0  0  0  0  0  0  0  0  0  0  0  0
  -28.7795   -2.5291   -4.1262 C   0  0  0  0  0  0  0  0  0  0  0  0
  -28.7975   -1.2302   -4.6494 C   0  0  0  0  0  0  0  0  0  0  0  0
  -28.4761   -0.9551   -5.9693 C   0  0  0  0  0  0  0  0  0  0  0  0
  -28.4531    0.3382   -6.3375 N   0  0  0  0  0  0  0  0  0  0  0  0
  -28.1181    0.6324   -7.6095 C   0  0  0  0  0  0  0  0  0  0  0  0
  -27.7931   -0.3185   -8.5481 C   0  0  0  0  0  0  0  0  0  0  0  0
  -27.8106   -1.6609   -8.1667 C   0  0  0  0  0  0  0  0  0  0  0  0
  -28.1771   -2.0188   -6.8449 C   0  0  0  0  0  0  0  0  0  0  0  0
  -28.2695   -3.3368   -6.3375 C   0  0  0  0  0  0  0  0  0  0  0  0
  -28.5546   -3.5972   -4.9940 C   0  0  0  0  0  0  0  0  0  0  0  0
  -30.3284   -2.7969   -2.3677 C   0  0  0  0  0  0  0  0  0  0  0  0
  -28.9651   -2.7821   -2.7920 O   0  0  0  0  0  0  0  0  0  0  0  0
  -28.4760   -4.9232   -4.6648 O   0  0  0  0  0  0  0  0  0  0  0  0
  -29.6724   -5.6759   -4.8184 C   0  0  0  0  0  0  0  0  0  0  0  0
 36 37  1  0  0  0
 37 26  1  0  0  0
 26 27  1  0  0  0
 26 35  2  0  0  0
 27 28  2  0  0  0
 28 29  1  0  0  0
 28 33  1  0  0  0
 29 30  2  0  0  0
 30 31  1  0  0  0
 31 32  2  0  0  0
 32 25  1  0  0  0
 32 33  1  0  0  0
 25  1  1  0  0  0
  1  2  1  0  0  0
  1 10  2  0  0  0
  2  3  2  0  0  0
  3  4  1  0  0  0
  4  5  1  0  0  0
  4  9  2  0  0  0
  5 11  1  0  0  0
  5  6  2  0  0  0
 11 12  1  0  0  0
 11 14  1  0  0  0
 12 13  2  0  0  0
 12 15  1  0  0  0
 15 16  1  0  0  0
 15 20  2  0  0  0
 16 17  2  0  0  0
 17 18  1  0  0  0
 18 21  1  0  0  0
 18 19  2  0  0  0
 21 22  1  0  0  0
 21 23  1  0  0  0
 21 24  1  0  0  0
 19 20  1  0  0  0
  6  7  1  0  0  0
  7  8  1  0  0  0
  7  9  1  0  0  0
  9 10  1  0  0  0
 33 34  2  0  0  0
 34 35  1  0  0  0
 35 38  1  0  0  0
 38 39  1  0  0  0
M  END
> <minimizedAffinity>
-8.96139

$$$$
