CHEMBL426161


 32 35  0  0  0  0  0  0  0  0999 V2000
  -16.0266    2.5043  -16.1475 C   0  0  0  0  0  0  0  0  0  0  0  0
  -17.2416    3.0682  -16.1873 N   0  0  0  0  0  0  0  0  0  0  0  0
  -18.0919    2.7528  -15.2083 C   0  0  0  0  0  0  0  0  0  0  0  0
  -17.8705    1.8629  -14.2328 N   0  0  0  0  0  0  0  0  0  0  0  0
  -16.6739    1.2634  -14.2287 C   0  0  0  0  0  0  0  0  0  0  0  0
  -16.3966    0.3180  -13.2470 C   0  0  0  0  0  0  0  0  0  0  0  0
  -15.1423   -0.3133  -13.0940 C   0  0  0  0  0  0  0  0  0  0  0  0
  -14.1132    0.0306  -13.9739 C   0  0  0  0  0  0  0  0  0  0  0  0
  -14.4089    0.9358  -15.0134 C   0  0  0  0  0  0  0  0  0  0  0  0
  -15.6769    1.5603  -15.1569 C   0  0  0  0  0  0  0  0  0  0  0  0
  -15.1032    2.7781  -17.2005 N   0  0  0  0  0  0  0  0  0  0  0  0
  -14.2678    2.2207  -17.0449 H   0  0  0  0  0  0  0  0  0  0  0  0
  -14.7686    5.8454  -19.2728 C   0  0  0  0  0  0  0  0  0  0  0  0
  -13.7754    6.5516  -18.5987 C   0  0  0  0  0  0  0  0  0  0  0  0
  -13.1844    6.0049  -17.4578 C   0  0  0  0  0  0  0  0  0  0  0  0
  -13.5926    4.7589  -16.9731 C   0  0  0  0  0  0  0  0  0  0  0  0
  -12.6504    4.0743  -15.6924 Cl  0  0  0  0  0  0  0  0  0  0  0  0
  -14.6616    4.0762  -17.5805 C   0  0  0  0  0  0  0  0  0  0  0  0
  -15.2077    4.6199  -18.7573 C   0  0  0  0  0  0  0  0  0  0  0  0
  -15.4798    7.6323  -20.6692 C   0  0  0  0  0  0  0  0  0  0  0  0
  -15.3727    6.2320  -20.4379 O   0  0  0  0  0  0  0  0  0  0  0  0
  -12.7664   -0.1761  -13.8873 O   0  0  0  0  0  0  0  0  0  0  0  0
  -11.9230   -0.1269  -15.0293 C   0  0  0  0  0  0  0  0  0  0  0  0
  -15.1726   -1.1498  -12.0072 O   0  0  0  0  0  0  0  0  0  0  0  0
  -15.3942   -2.5213  -12.2423 C   0  0  0  0  0  0  0  0  0  0  0  0
  -16.0735   -3.2339  -11.0653 C   0  0  0  0  0  0  0  0  0  0  0  0
  -15.1369   -3.4774   -9.8809 C   0  0  0  0  0  0  0  0  0  0  0  0
  -14.0221   -4.4588  -10.2374 C   0  0  0  0  0  0  0  0  0  0  0  0
  -14.5563   -5.7355  -10.7370 N   0  0  0  0  0  0  0  0  0  0  0  0
  -13.4501   -6.6190  -11.1138 C   0  0  0  0  0  0  0  0  0  0  0  0
  -15.4830   -5.5768  -11.8650 C   0  0  0  0  0  0  0  0  0  0  0  0
  -16.6147   -4.5869  -11.5538 C   0  0  0  0  0  0  0  0  0  0  0  0
 20 21  1  0  0  0
 21 13  1  0  0  0
 13 14  1  0  0  0
 13 19  2  0  0  0
 14 15  2  0  0  0
 15 16  1  0  0  0
 16 17  1  0  0  0
 16 18  2  0  0  0
 18 11  1  0  0  0
 18 19  1  0  0  0
 11  1  1  0  0  0
 11 12  1  0  0  0
  1  2  1  0  0  0
  1 10  2  0  0  0
  2  3  2  0  0  0
  3  4  1  0  0  0
  4  5  2  0  0  0
  5  6  1  0  0  0
  5 10  1  0  0  0
  6  7  2  0  0  0
  7 24  1  0  0  0
  7  8  1  0  0  0
 24 25  1  0  0  0
 25 26  1  0  0  0
 26 27  1  0  0  0
 26 32  1  0  0  0
 27 28  1  0  0  0
 28 29  1  0  0  0
 29 30  1  0  0  0
 29 31  1  0  0  0
 31 32  1  0  0  0
  8 22  1  0  0  0
  8  9  2  0  0  0
 22 23  1  0  0  0
  9 10  1  0  0  0
M  END
> <minimizedAffinity>
-7.64563

$$$$
