CHEMBL380932


 30 33  0  0  0  0  0  0  0  0999 V2000
  -29.2971   -9.6413   -8.7640 C   0  0  0  0  0  0  0  0  0  0  0  0
  -29.2110   -9.6215  -10.1699 C   0  0  0  0  0  0  0  0  0  0  0  0
  -28.7724  -10.7364  -10.8775 C   0  0  0  0  0  0  0  0  0  0  0  0
  -28.4234  -11.8891  -10.1833 C   0  0  0  0  0  0  0  0  0  0  0  0
  -28.5732  -11.9444   -8.7942 C   0  0  0  0  0  0  0  0  0  0  0  0
  -29.0458  -10.8381   -8.0577 C   0  0  0  0  0  0  0  0  0  0  0  0
  -28.5863   -7.5526   -7.7576 N   0  0  0  0  0  0  0  0  0  0  0  0
  -29.6657   -8.3677   -8.0823 C   0  0  0  0  0  0  0  0  0  0  0  0
  -30.8478   -8.1315   -7.8741 O   0  0  0  0  0  0  0  0  0  0  0  0
  -27.6642   -7.8531   -8.0419 H   0  0  0  0  0  0  0  0  0  0  0  0
  -28.6627   -3.8535   -5.6492 C   0  0  0  0  0  0  0  0  0  0  0  0
  -28.4903   -5.0705   -4.9807 C   0  0  0  0  0  0  0  0  0  0  0  0
  -28.4788   -6.2931   -5.6512 C   0  0  0  0  0  0  0  0  0  0  0  0
  -28.6267   -6.3458   -7.0314 C   0  0  0  0  0  0  0  0  0  0  0  0
  -28.7937   -5.1456   -7.7301 C   0  0  0  0  0  0  0  0  0  0  0  0
  -28.8213   -3.9158   -7.0472 C   0  0  0  0  0  0  0  0  0  0  0  0
  -27.3444   -1.7328   -5.0532 C   0  0  0  0  0  0  0  0  0  0  0  0
  -28.6719   -2.5125   -4.8984 C   0  0  0  0  0  0  0  0  0  0  0  0
  -28.8915   -2.7423   -3.3891 C   0  0  0  0  0  0  0  0  0  0  0  0
  -29.8000   -1.6087   -5.4371 C   0  0  0  0  0  0  0  0  0  0  0  0
  -29.2926  -11.0296   -6.5699 C   0  0  0  0  0  0  0  0  0  0  0  0
  -28.2254  -10.4661   -5.7216 N   0  0  0  0  0  0  0  0  0  0  0  0
  -28.5239   -9.8748   -4.4874 C   0  0  0  0  0  0  0  0  0  0  0  0
  -27.6234   -9.3651   -3.6315 C   0  0  0  0  0  0  0  0  0  0  0  0
  -26.2213   -9.4674   -4.0486 C   0  0  0  0  0  0  0  0  0  0  0  0
  -25.1283   -9.0716   -3.4756 N   0  0  0  0  0  0  0  0  0  0  0  0
  -24.1436   -9.4839   -4.3678 C   0  0  0  0  0  0  0  0  0  0  0  0
  -24.5296  -10.1085   -5.4461 N   0  0  0  0  0  0  0  0  0  0  0  0
  -25.8857  -10.1262   -5.3122 C   0  0  0  0  0  0  0  0  0  0  0  0
  -26.8757  -10.5926   -6.0744 C   0  0  0  0  0  0  0  0  0  0  0  0
 17 18  1  0  0  0
 18 19  1  0  0  0
 18 20  1  0  0  0
 18 11  1  0  0  0
 11 12  1  0  0  0
 11 16  2  0  0  0
 12 13  2  0  0  0
 13 14  1  0  0  0
 14  7  1  0  0  0
 14 15  2  0  0  0
  7  8  1  0  0  0
  7 10  1  0  0  0
  8  9  2  0  0  0
  8  1  1  0  0  0
  1  2  1  0  0  0
  1  6  2  0  0  0
  2  3  2  0  0  0
  3  4  1  0  0  0
  4  5  2  0  0  0
  5  6  1  0  0  0
  6 21  1  0  0  0
 21 22  1  0  0  0
 22 23  1  0  0  0
 22 30  1  0  0  0
 23 24  2  0  0  0
 24 25  1  0  0  0
 25 26  2  0  0  0
 25 29  1  0  0  0
 26 27  1  0  0  0
 27 28  2  0  0  0
 28 29  1  0  0  0
 29 30  2  0  0  0
 15 16  1  0  0  0
M  END
> <minimizedAffinity>
-8.24772

$$$$
