CHEMBL212721


 42 45  0  0  0  0  0  0  0  0999 V2000
  -28.0137   -8.1690   -5.4106 N   0  0  0  0  0  0  0  0  0  0  0  0
  -28.4116   -8.4142   -6.7265 C   0  0  0  0  0  0  0  0  0  0  0  0
  -28.6343   -7.5313   -7.5523 O   0  0  0  0  0  0  0  0  0  0  0  0
  -25.8534  -10.9320   -2.9854 C   0  0  0  0  0  0  0  0  0  0  0  0
  -25.1988   -9.8595   -3.5916 C   0  0  0  0  0  0  0  0  0  0  0  0
  -25.9039   -8.9676   -4.4170 C   0  0  0  0  0  0  0  0  0  0  0  0
  -27.2847   -9.1188   -4.6371 C   0  0  0  0  0  0  0  0  0  0  0  0
  -27.9300  -10.2229   -4.0526 C   0  0  0  0  0  0  0  0  0  0  0  0
  -27.2234  -11.1016   -3.2195 C   0  0  0  0  0  0  0  0  0  0  0  0
  -23.8689  -11.9546   -2.1346 C   0  0  0  0  0  0  0  0  0  0  0  0
  -25.2900  -11.8686   -2.1646 O   0  0  0  0  0  0  0  0  0  0  0  0
  -29.2505  -10.5409   -4.2665 O   0  0  0  0  0  0  0  0  0  0  0  0
  -29.7321  -11.5582   -3.3844 C   0  0  0  0  0  0  0  0  0  0  0  0
  -28.6071   -7.0808   -4.7213 C   0  0  0  0  0  0  0  0  0  0  0  0
  -29.6473   -7.3434   -3.8509 C   0  0  0  0  0  0  0  0  0  0  0  0
  -30.1909   -6.2645   -3.2160 C   0  0  0  0  0  0  0  0  0  0  0  0
  -29.8115   -5.0095   -3.4858 N   0  0  0  0  0  0  0  0  0  0  0  0
  -28.8146   -4.8254   -4.3662 C   0  0  0  0  0  0  0  0  0  0  0  0
  -28.1510   -5.8312   -4.9519 N   0  0  0  0  0  0  0  0  0  0  0  0
  -28.4519   -3.5238   -4.7019 N   0  0  0  0  0  0  0  0  0  0  0  0
  -28.1142   -2.9927   -3.9161 H   0  0  0  0  0  0  0  0  0  0  0  0
  -28.3903   -2.9573   -5.9796 C   0  0  0  0  0  0  0  0  0  0  0  0
  -28.7867   -3.7038   -7.0884 C   0  0  0  0  0  0  0  0  0  0  0  0
  -28.6084   -3.2113   -8.3886 C   0  0  0  0  0  0  0  0  0  0  0  0
  -28.0389   -1.9539   -8.5986 C   0  0  0  0  0  0  0  0  0  0  0  0
  -27.6786   -1.1827   -7.4990 C   0  0  0  0  0  0  0  0  0  0  0  0
  -27.8491   -1.6839   -6.2073 C   0  0  0  0  0  0  0  0  0  0  0  0
  -27.7726   -1.3808   -9.8116 O   0  0  0  0  0  0  0  0  0  0  0  0
  -26.6596   -1.9278  -10.5200 C   0  0  0  0  0  0  0  0  0  0  0  0
  -26.7110   -1.4639  -11.9816 C   0  0  0  0  0  0  0  0  0  0  0  0
  -25.3875   -1.1075  -12.5330 N   0  0  0  0  0  0  0  0  0  0  0  0
  -24.2919   -1.6420  -11.7212 C   0  0  0  0  0  0  0  0  0  0  0  0
  -25.2716   -1.5997  -13.9071 C   0  0  0  0  0  0  0  0  0  0  0  0
  -28.5903   -9.7755   -6.9866 O   0  0  0  0  0  0  0  0  0  0  0  0
  -28.3291  -10.3866   -8.2479 C   0  0  0  0  0  0  0  0  0  0  0  0
  -27.0359  -10.7518   -8.6753 C   0  0  0  0  0  0  0  0  0  0  0  0
  -25.7939  -10.8291   -7.8367 C   0  0  0  0  0  0  0  0  0  0  0  0
  -26.8474  -11.0386  -10.0411 C   0  0  0  0  0  0  0  0  0  0  0  0
  -27.8995  -10.9911  -10.9495 C   0  0  0  0  0  0  0  0  0  0  0  0
  -29.1810  -10.6886  -10.5038 C   0  0  0  0  0  0  0  0  0  0  0  0
  -29.4137  -10.3813   -9.1539 C   0  0  0  0  0  0  0  0  0  0  0  0
  -30.8186  -10.0858   -8.7091 C   0  0  0  0  0  0  0  0  0  0  0  0
 10 11  1  0  0  0
 11  4  1  0  0  0
  4  5  1  0  0  0
  4  9  2  0  0  0
  5  6  2  0  0  0
  6  7  1  0  0  0
  7  1  1  0  0  0
  7  8  2  0  0  0
  1  2  1  0  0  0
  1 14  1  0  0  0
  2  3  2  0  0  0
  2 34  1  0  0  0
 34 35  1  0  0  0
 35 36  1  0  0  0
 35 41  2  0  0  0
 36 37  1  0  0  0
 36 38  2  0  0  0
 38 39  1  0  0  0
 39 40  2  0  0  0
 40 41  1  0  0  0
 41 42  1  0  0  0
 14 15  1  0  0  0
 14 19  2  0  0  0
 15 16  2  0  0  0
 16 17  1  0  0  0
 17 18  2  0  0  0
 18 20  1  0  0  0
 18 19  1  0  0  0
 20 22  1  0  0  0
 20 21  1  0  0  0
 22 23  1  0  0  0
 22 27  2  0  0  0
 23 24  2  0  0  0
 24 25  1  0  0  0
 25 28  1  0  0  0
 25 26  2  0  0  0
 28 29  1  0  0  0
 29 30  1  0  0  0
 30 31  1  0  0  0
 31 32  1  0  0  0
 31 33  1  0  0  0
 26 27  1  0  0  0
  8 12  1  0  0  0
  8  9  1  0  0  0
 12 13  1  0  0  0
M  END
> <minimizedAffinity>
-8.35125

$$$$
