CHEMBL1164957


 35 39  0  0  0  0  0  0  0  0999 V2000
  -29.1744   -2.9556   -6.5978 C   0  0  0  0  0  0  0  0  0  0  0  0
  -28.4324   -1.8658   -7.0246 N   0  0  0  0  0  0  0  0  0  0  0  0
  -27.9272   -2.1234   -8.2723 C   0  0  0  0  0  0  0  0  0  0  0  0
  -28.4009   -3.2616   -8.7212 N   0  0  0  0  0  0  0  0  0  0  0  0
  -29.0925   -3.8403   -7.6677 C   0  0  0  0  0  0  0  0  0  0  0  0
  -28.1765   -1.0761   -6.4511 H   0  0  0  0  0  0  0  0  0  0  0  0
  -29.4024   -5.2677   -7.7169 C   0  0  0  0  0  0  0  0  0  0  0  0
  -28.3266   -6.1139   -7.9883 C   0  0  0  0  0  0  0  0  0  0  0  0
  -28.4676   -7.4981   -7.9925 C   0  0  0  0  0  0  0  0  0  0  0  0
  -29.6780   -8.0920   -7.7118 C   0  0  0  0  0  0  0  0  0  0  0  0
  -29.7220   -9.4345   -7.6961 N   0  0  0  0  0  0  0  0  0  0  0  0
  -30.8883  -10.0251   -7.3833 C   0  0  0  0  0  0  0  0  0  0  0  0
  -32.0400   -9.3246   -7.0841 C   0  0  0  0  0  0  0  0  0  0  0  0
  -31.9934   -7.9301   -7.1213 C   0  0  0  0  0  0  0  0  0  0  0  0
  -30.7927   -7.2672   -7.4412 C   0  0  0  0  0  0  0  0  0  0  0  0
  -30.6534   -5.8512   -7.4726 C   0  0  0  0  0  0  0  0  0  0  0  0
  -32.0388   -5.3567   -3.6634 C   0  0  0  0  0  0  0  0  0  0  0  0
  -31.0110   -4.2767   -3.7862 C   0  0  0  0  0  0  0  0  0  0  0  0
  -30.5364   -3.5807   -2.6834 C   0  0  0  0  0  0  0  0  0  0  0  0
  -29.5835   -2.5858   -2.8838 C   0  0  0  0  0  0  0  0  0  0  0  0
  -29.1306   -2.3186   -4.1741 C   0  0  0  0  0  0  0  0  0  0  0  0
  -29.6443   -3.0705   -5.2235 C   0  0  0  0  0  0  0  0  0  0  0  0
  -30.5686   -4.0308   -5.0369 N   0  0  0  0  0  0  0  0  0  0  0  0
  -26.9516   -1.2307   -8.9714 C   0  0  0  0  0  0  0  0  0  0  0  0
  -26.8300   -1.4732  -10.4677 C   0  0  0  0  0  0  0  0  0  0  0  0
  -27.9756   -1.5978  -11.2721 C   0  0  0  0  0  0  0  0  0  0  0  0
  -27.8710   -1.7459  -12.6577 C   0  0  0  0  0  0  0  0  0  0  0  0
  -26.6174   -1.7483  -13.2657 C   0  0  0  0  0  0  0  0  0  0  0  0
  -25.4627   -1.5970  -12.4913 C   0  0  0  0  0  0  0  0  0  0  0  0
  -25.5702   -1.4775  -11.0948 C   0  0  0  0  0  0  0  0  0  0  0  0
  -24.1527   -1.5506  -13.1986 C   0  0  0  0  0  0  0  0  0  0  0  0
  -24.0765   -0.7917  -14.3339 N   0  0  0  0  0  0  0  0  0  0  0  0
  -23.1885   -2.2036  -12.8203 O   0  0  0  0  0  0  0  0  0  0  0  0
  -24.8989   -0.4713  -14.8228 H   0  0  0  0  0  0  0  0  0  0  0  0
  -23.2298   -0.9077  -14.8775 H   0  0  0  0  0  0  0  0  0  0  0  0
 17 18  1  0  0  0
 18 19  1  0  0  0
 18 23  2  0  0  0
 19 20  2  0  0  0
 20 21  1  0  0  0
 21 22  2  0  0  0
 22  1  1  0  0  0
 22 23  1  0  0  0
  1  2  1  0  0  0
  1  5  2  0  0  0
  2  3  1  0  0  0
  2  6  1  0  0  0
  3 24  1  0  0  0
  3  4  2  0  0  0
 24 25  1  0  0  0
 25 26  1  0  0  0
 25 30  2  0  0  0
 26 27  2  0  0  0
 27 28  1  0  0  0
 28 29  2  0  0  0
 29 31  1  0  0  0
 29 30  1  0  0  0
 31 32  1  0  0  0
 31 33  2  0  0  0
 32 34  1  0  0  0
 32 35  1  0  0  0
  4  5  1  0  0  0
  5  7  1  0  0  0
  7  8  1  0  0  0
  7 16  2  0  0  0
  8  9  2  0  0  0
  9 10  1  0  0  0
 10 11  1  0  0  0
 10 15  2  0  0  0
 11 12  2  0  0  0
 12 13  1  0  0  0
 13 14  2  0  0  0
 14 15  1  0  0  0
 15 16  1  0  0  0
M  END
> <minimizedAffinity>
-10.09176

$$$$
