CHEMBL1241858


 29 32  0  0  0  0  0  0  0  0999 V2000
  -29.8153   -8.5075   -4.9223 N   0  0  0  0  0  0  0  0  0  0  0  0
  -29.8692   -7.1201   -4.9474 C   0  0  0  0  0  0  0  0  0  0  0  0
  -30.4047   -6.5298   -3.8596 N   0  0  0  0  0  0  0  0  0  0  0  0
  -30.4870   -5.1863   -3.8263 C   0  0  0  0  0  0  0  0  0  0  0  0
  -30.0458   -4.3102   -4.7404 N   0  0  0  0  0  0  0  0  0  0  0  0
  -29.4892   -4.9365   -5.7925 C   0  0  0  0  0  0  0  0  0  0  0  0
  -29.4164   -6.3067   -5.9978 C   0  0  0  0  0  0  0  0  0  0  0  0
  -28.9174   -6.4449   -7.3363 C   0  0  0  0  0  0  0  0  0  0  0  0
  -28.5795   -5.2440   -7.8472 N   0  0  0  0  0  0  0  0  0  0  0  0
  -28.9200   -4.3490   -6.8901 N   0  0  0  0  0  0  0  0  0  0  0  0
  -29.9505   -8.8582   -3.9801 H   0  0  0  0  0  0  0  0  0  0  0  0
  -29.0578   -8.9277   -5.4445 H   0  0  0  0  0  0  0  0  0  0  0  0
  -28.8142   -7.6455   -8.1752 C   0  0  0  0  0  0  0  0  0  0  0  0
  -27.5938   -8.0278   -8.7593 C   0  0  0  0  0  0  0  0  0  0  0  0
  -27.5018   -9.1687   -9.5651 C   0  0  0  0  0  0  0  0  0  0  0  0
  -28.6200   -9.9754   -9.7442 C   0  0  0  0  0  0  0  0  0  0  0  0
  -28.5001  -11.3900  -10.7210 Cl  0  0  0  0  0  0  0  0  0  0  0  0
  -29.8222   -9.6412   -9.1202 C   0  0  0  0  0  0  0  0  0  0  0  0
  -30.9346  -10.4308   -9.2282 O   0  0  0  0  0  0  0  0  0  0  0  0
  -29.9253   -8.4835   -8.3498 C   0  0  0  0  0  0  0  0  0  0  0  0
  -30.6778  -11.2202   -9.7403 H   0  0  0  0  0  0  0  0  0  0  0  0
  -28.9803   -2.9502   -7.2434 C   0  0  0  0  0  0  0  0  0  0  0  0
  -27.8225   -2.0183   -6.8244 C   0  0  0  0  0  0  0  0  0  0  0  0
  -27.4076   -2.1124   -5.3435 C   0  0  0  0  0  0  0  0  0  0  0  0
  -27.9119   -0.9797   -4.4457 C   0  0  0  0  0  0  0  0  0  0  0  0
  -27.9232    0.3751   -5.1297 C   0  0  0  0  0  0  0  0  0  0  0  0
  -28.6747    0.2929   -6.3783 N   0  0  0  0  0  0  0  0  0  0  0  0
  -27.9836   -0.5759   -7.3226 C   0  0  0  0  0  0  0  0  0  0  0  0
  -28.7549    1.2265   -6.7821 H   0  0  0  0  0  0  0  0  0  0  0  0
  1  2  1  0  0  0
  1 11  1  0  0  0
  1 12  1  0  0  0
  2  3  1  0  0  0
  2  7  2  0  0  0
  3  4  2  0  0  0
  4  5  1  0  0  0
  5  6  2  0  0  0
  6  7  1  0  0  0
  6 10  1  0  0  0
  7  8  1  0  0  0
  8 13  1  0  0  0
  8  9  2  0  0  0
 13 14  1  0  0  0
 13 20  2  0  0  0
 14 15  2  0  0  0
 15 16  1  0  0  0
 16 17  1  0  0  0
 16 18  2  0  0  0
 18 19  1  0  0  0
 18 20  1  0  0  0
 19 21  1  0  0  0
  9 10  1  0  0  0
 10 22  1  0  0  0
 22 23  1  0  0  0
 23 24  1  0  0  0
 23 28  1  0  0  0
 24 25  1  0  0  0
 25 26  1  0  0  0
 26 27  1  0  0  0
 27 28  1  0  0  0
 27 29  1  0  0  0
M  END
> <minimizedAffinity>
-8.58110

$$$$
