CHEMBL221053


 33 36  0  0  0  0  0  0  0  0999 V2000
  -28.4250   -2.1725   -8.4256 C   0  0  0  0  0  0  0  0  0  0  0  0
  -29.1867   -3.3254   -8.6276 C   0  0  0  0  0  0  0  0  0  0  0  0
  -29.7256   -4.0428   -7.5599 C   0  0  0  0  0  0  0  0  0  0  0  0
  -29.4499   -3.6896   -6.2368 C   0  0  0  0  0  0  0  0  0  0  0  0
  -28.5264   -2.6419   -6.0508 C   0  0  0  0  0  0  0  0  0  0  0  0
  -28.0506   -1.8618   -7.1225 C   0  0  0  0  0  0  0  0  0  0  0  0
  -30.0853   -4.4081   -5.1109 C   0  0  0  0  0  0  0  0  0  0  0  0
  -30.9900   -3.7583   -4.2302 C   0  0  0  0  0  0  0  0  0  0  0  0
  -31.6543   -4.4299   -3.2038 C   0  0  0  0  0  0  0  0  0  0  0  0
  -31.4960   -5.8010   -3.0359 C   0  0  0  0  0  0  0  0  0  0  0  0
  -30.5794   -6.4416   -3.8758 C   0  0  0  0  0  0  0  0  0  0  0  0
  -30.2226   -7.7567   -3.9655 N   0  0  0  0  0  0  0  0  0  0  0  0
  -29.1852   -7.9925   -4.7782 N   0  0  0  0  0  0  0  0  0  0  0  0
  -28.9119   -6.7988   -5.2918 C   0  0  0  0  0  0  0  0  0  0  0  0
  -27.8506   -6.6112   -6.0949 N   0  0  0  0  0  0  0  0  0  0  0  0
  -29.8230   -5.7847   -4.8498 C   0  0  0  0  0  0  0  0  0  0  0  0
  -30.6355   -8.5413   -3.4755 H   0  0  0  0  0  0  0  0  0  0  0  0
  -27.1816   -7.3696   -6.1223 H   0  0  0  0  0  0  0  0  0  0  0  0
  -27.4139   -5.6971   -6.1164 H   0  0  0  0  0  0  0  0  0  0  0  0
  -26.8150   -0.6373  -11.3246 N   0  0  0  0  0  0  0  0  0  0  0  0
  -27.0811   -1.6347  -10.4139 C   0  0  0  0  0  0  0  0  0  0  0  0
  -26.5032   -2.7138  -10.4094 O   0  0  0  0  0  0  0  0  0  0  0  0
  -28.0574   -1.3079   -9.4912 N   0  0  0  0  0  0  0  0  0  0  0  0
  -27.1186    0.2960  -11.0899 H   0  0  0  0  0  0  0  0  0  0  0  0
  -28.7305   -0.6010   -9.7651 H   0  0  0  0  0  0  0  0  0  0  0  0
  -23.5651   -0.2877  -13.1239 C   0  0  0  0  0  0  0  0  0  0  0  0
  -23.7683   -1.1374  -14.2198 C   0  0  0  0  0  0  0  0  0  0  0  0
  -24.9993   -1.7410  -14.4144 C   0  0  0  0  0  0  0  0  0  0  0  0
  -26.0240   -1.5295  -13.4965 C   0  0  0  0  0  0  0  0  0  0  0  0
  -25.8268   -0.7539  -12.3458 C   0  0  0  0  0  0  0  0  0  0  0  0
  -24.5989   -0.1029  -12.1858 C   0  0  0  0  0  0  0  0  0  0  0  0
  -21.5712    0.7092  -14.2786 C   0  0  0  0  0  0  0  0  0  0  0  0
  -22.2226    0.3760  -12.9467 C   0  0  0  0  0  0  0  0  0  0  0  0
 32 33  1  0  0  0
 33 26  1  0  0  0
 26 27  1  0  0  0
 26 31  2  0  0  0
 27 28  2  0  0  0
 28 29  1  0  0  0
 29 30  2  0  0  0
 30 20  1  0  0  0
 30 31  1  0  0  0
 20 21  1  0  0  0
 20 24  1  0  0  0
 21 22  2  0  0  0
 21 23  1  0  0  0
 23  1  1  0  0  0
 23 25  1  0  0  0
  1  2  1  0  0  0
  1  6  2  0  0  0
  2  3  2  0  0  0
  3  4  1  0  0  0
  4  7  1  0  0  0
  4  5  2  0  0  0
  7  8  1  0  0  0
  7 16  2  0  0  0
  8  9  2  0  0  0
  9 10  1  0  0  0
 10 11  2  0  0  0
 11 12  1  0  0  0
 11 16  1  0  0  0
 12 13  1  0  0  0
 12 17  1  0  0  0
 13 14  2  0  0  0
 14 15  1  0  0  0
 14 16  1  0  0  0
 15 18  1  0  0  0
 15 19  1  0  0  0
  5  6  1  0  0  0
M  END
> <minimizedAffinity>
-9.59145

$$$$
