CHEMBL101544


 15 16  0  0  0  0  0  0  0  0999 V2000
  -29.9135   -2.8775   -6.0002 N   0  0  0  0  0  0  0  0  0  0  0  0
  -30.6688   -2.6847   -6.6485 H   0  0  0  0  0  0  0  0  0  0  0  0
  -29.3473   -1.6586   -5.6083 C   0  0  0  0  0  0  0  0  0  0  0  0
  -30.0766   -0.4756   -5.4999 C   0  0  0  0  0  0  0  0  0  0  0  0
  -29.4227    0.7251   -5.2469 C   0  0  0  0  0  0  0  0  0  0  0  0
  -28.0528    0.7152   -5.0537 C   0  0  0  0  0  0  0  0  0  0  0  0
  -27.4039   -0.5057   -5.1015 C   0  0  0  0  0  0  0  0  0  0  0  0
  -28.0170   -1.6828   -5.3726 N   0  0  0  0  0  0  0  0  0  0  0  0
  -29.6754   -6.1406   -4.1632 C   0  0  0  0  0  0  0  0  0  0  0  0
  -30.8402   -5.4976   -3.8273 C   0  0  0  0  0  0  0  0  0  0  0  0
  -31.0088   -4.2642   -4.4055 N   0  0  0  0  0  0  0  0  0  0  0  0
  -30.0059   -3.9685   -5.2053 C   0  0  0  0  0  0  0  0  0  0  0  0
  -28.7500   -5.1583   -5.2138 S   0  0  0  0  0  0  0  0  0  0  0  0
  -29.0008   -8.4824   -3.3199 N   0  0  0  0  0  0  0  0  0  0  0  0
  -29.3002   -7.4323   -3.7136 C   0  0  0  0  0  0  0  0  0  0  0  0
 14 15  3  0  0  0
 15  9  1  0  0  0
  9 10  2  0  0  0
  9 13  1  0  0  0
 10 11  1  0  0  0
 11 12  2  0  0  0
 12  1  1  0  0  0
 12 13  1  0  0  0
  1  3  1  0  0  0
  1  2  1  0  0  0
  3  4  1  0  0  0
  3  8  2  0  0  0
  4  5  2  0  0  0
  5  6  1  0  0  0
  6  7  2  0  0  0
  7  8  1  0  0  0
M  END
> <minimizedAffinity>
-5.58989

$$$$
