CHEMBL2113168


 33 36  0  0  0  0  0  0  0  0999 V2000
  -26.7105  -10.6500   -6.1919 C   0  0  0  0  0  0  0  0  0  0  0  0
  -27.5537  -10.8272   -7.3174 C   0  0  0  0  0  0  0  0  0  0  0  0
  -28.7893  -10.2002   -7.4733 C   0  0  0  0  0  0  0  0  0  0  0  0
  -29.5543  -10.4726   -8.5384 N   0  0  0  0  0  0  0  0  0  0  0  0
  -30.7357   -9.8450   -8.6122 C   0  0  0  0  0  0  0  0  0  0  0  0
  -31.2114   -8.9503   -7.7418 N   0  0  0  0  0  0  0  0  0  0  0  0
  -30.4262   -8.6645   -6.6866 C   0  0  0  0  0  0  0  0  0  0  0  0
  -29.1896   -9.3032   -6.4856 C   0  0  0  0  0  0  0  0  0  0  0  0
  -28.3694   -9.1244   -5.3523 C   0  0  0  0  0  0  0  0  0  0  0  0
  -27.1339   -9.7772   -5.1825 C   0  0  0  0  0  0  0  0  0  0  0  0
  -30.8500   -7.6749   -5.7544 N   0  0  0  0  0  0  0  0  0  0  0  0
  -30.6617   -7.9948   -4.8030 H   0  0  0  0  0  0  0  0  0  0  0  0
  -30.5429   -6.3247   -5.8948 C   0  0  0  0  0  0  0  0  0  0  0  0
  -30.1405   -5.7298   -7.0193 C   0  0  0  0  0  0  0  0  0  0  0  0
  -29.7992   -4.3115   -7.1065 C   0  0  0  0  0  0  0  0  0  0  0  0
  -29.5578   -3.8235   -8.2134 O   0  0  0  0  0  0  0  0  0  0  0  0
  -29.7591   -3.5018   -5.8273 C   0  0  0  0  0  0  0  0  0  0  0  0
  -30.2688   -4.0752   -4.7249 C   0  0  0  0  0  0  0  0  0  0  0  0
  -30.7407   -5.4735   -4.6773 C   0  0  0  0  0  0  0  0  0  0  0  0
  -31.2300   -5.9394   -3.6529 O   0  0  0  0  0  0  0  0  0  0  0  0
  -29.1681   -2.2296   -5.8365 N   0  0  0  0  0  0  0  0  0  0  0  0
  -29.5968   -1.1532   -4.9101 C   0  0  0  0  0  0  0  0  0  0  0  0
  -29.4953    0.2072   -5.6182 C   0  0  0  0  0  0  0  0  0  0  0  0
  -28.1716    0.4509   -6.1204 O   0  0  0  0  0  0  0  0  0  0  0  0
  -27.7916   -0.5824   -7.0435 C   0  0  0  0  0  0  0  0  0  0  0  0
  -27.8189   -1.9682   -6.3784 C   0  0  0  0  0  0  0  0  0  0  0  0
  -26.6471   -9.4782   -3.9454 O   0  0  0  0  0  0  0  0  0  0  0  0
  -25.3289   -9.0257   -3.7148 C   0  0  0  0  0  0  0  0  0  0  0  0
  -25.6002  -11.4511   -6.3027 O   0  0  0  0  0  0  0  0  0  0  0  0
  -24.5776  -11.0415   -7.1849 C   0  0  0  0  0  0  0  0  0  0  0  0
  -23.3168  -10.5390   -6.4947 C   0  0  0  0  0  0  0  0  0  0  0  0
  -21.0679  -10.2500   -7.2200 C   0  0  0  0  0  0  0  0  0  0  0  0
  -22.2358  -11.0442   -7.2863 O   0  0  0  0  0  0  0  0  0  0  0  0
 32 33  1  0  0  0
 33 31  1  0  0  0
 31 30  1  0  0  0
 30 29  1  0  0  0
 29  1  1  0  0  0
  1  2  1  0  0  0
  1 10  2  0  0  0
  2  3  2  0  0  0
  3  4  1  0  0  0
  3  8  1  0  0  0
  4  5  2  0  0  0
  5  6  1  0  0  0
  6  7  2  0  0  0
  7 11  1  0  0  0
  7  8  1  0  0  0
 11 13  1  0  0  0
 11 12  1  0  0  0
 13 14  2  0  0  0
 13 19  1  0  0  0
 14 15  1  0  0  0
 15 16  2  0  0  0
 15 17  1  0  0  0
 17 21  1  0  0  0
 17 18  2  0  0  0
 21 22  1  0  0  0
 21 26  1  0  0  0
 22 23  1  0  0  0
 23 24  1  0  0  0
 24 25  1  0  0  0
 25 26  1  0  0  0
 18 19  1  0  0  0
 19 20  2  0  0  0
  8  9  2  0  0  0
  9 10  1  0  0  0
 10 27  1  0  0  0
 27 28  1  0  0  0
M  END
> <minimizedAffinity>
-7.73799

$$$$
