CHEMBL185331


 31 34  0  0  0  0  0  0  0  0999 V2000
  -29.8896   -6.0328   -4.9601 C   0  0  0  0  0  0  0  0  0  0  0  0
  -28.7765   -6.8356   -4.7993 C   0  0  0  0  0  0  0  0  0  0  0  0
  -28.7818   -8.1301   -5.3306 C   0  0  0  0  0  0  0  0  0  0  0  0
  -29.8119   -8.6286   -6.1644 C   0  0  0  0  0  0  0  0  0  0  0  0
  -30.9401   -7.7846   -6.3342 C   0  0  0  0  0  0  0  0  0  0  0  0
  -32.1689   -8.0884   -7.1568 C   0  0  0  0  0  0  0  0  0  0  0  0
  -30.9703   -6.5173   -5.6974 C   0  0  0  0  0  0  0  0  0  0  0  0
  -29.6086   -9.9419   -6.8530 C   0  0  0  0  0  0  0  0  0  0  0  0
  -29.9119  -11.1788   -6.2389 C   0  0  0  0  0  0  0  0  0  0  0  0
  -29.8850  -12.4100   -6.9334 C   0  0  0  0  0  0  0  0  0  0  0  0
  -29.4823  -12.4650   -8.2610 C   0  0  0  0  0  0  0  0  0  0  0  0
  -29.0918  -11.2769   -8.8377 C   0  0  0  0  0  0  0  0  0  0  0  0
  -29.1382  -10.0412   -8.1721 C   0  0  0  0  0  0  0  0  0  0  0  0
  -28.6148   -8.9909   -9.1083 C   0  0  0  0  0  0  0  0  0  0  0  0
  -28.3734   -9.7123  -10.3294 N   0  0  0  0  0  0  0  0  0  0  0  0
  -28.5901  -11.0614  -10.2010 C   0  0  0  0  0  0  0  0  0  0  0  0
  -28.3966  -11.9144  -11.0335 O   0  0  0  0  0  0  0  0  0  0  0  0
  -27.9296   -9.3315  -11.1550 H   0  0  0  0  0  0  0  0  0  0  0  0
  -29.5138   -2.4989   -4.2643 N   0  0  0  0  0  0  0  0  0  0  0  0
  -29.3746   -3.6672   -4.9981 C   0  0  0  0  0  0  0  0  0  0  0  0
  -28.8762   -3.7478   -6.1198 O   0  0  0  0  0  0  0  0  0  0  0  0
  -29.9158   -4.7618   -4.3405 N   0  0  0  0  0  0  0  0  0  0  0  0
  -29.7193   -2.6043   -3.2821 H   0  0  0  0  0  0  0  0  0  0  0  0
  -30.7444   -4.5445   -3.8067 H   0  0  0  0  0  0  0  0  0  0  0  0
  -31.0873    1.6722   -6.4284 C   0  0  0  0  0  0  0  0  0  0  0  0
  -29.9935    0.8617   -5.7964 C   0  0  0  0  0  0  0  0  0  0  0  0
  -28.7093    1.4025   -5.6762 C   0  0  0  0  0  0  0  0  0  0  0  0
  -27.6879    0.6590   -5.0998 C   0  0  0  0  0  0  0  0  0  0  0  0
  -27.9398   -0.6303   -4.6357 C   0  0  0  0  0  0  0  0  0  0  0  0
  -29.2155   -1.1938   -4.7243 C   0  0  0  0  0  0  0  0  0  0  0  0
  -30.2401   -0.4395   -5.3166 C   0  0  0  0  0  0  0  0  0  0  0  0
 25 26  1  0  0  0
 26 27  1  0  0  0
 26 31  2  0  0  0
 27 28  2  0  0  0
 28 29  1  0  0  0
 29 30  2  0  0  0
 30 19  1  0  0  0
 30 31  1  0  0  0
 19 20  1  0  0  0
 19 23  1  0  0  0
 20 21  2  0  0  0
 20 22  1  0  0  0
 22  1  1  0  0  0
 22 24  1  0  0  0
  1  2  1  0  0  0
  1  7  2  0  0  0
  2  3  2  0  0  0
  3  4  1  0  0  0
  4  8  1  0  0  0
  4  5  2  0  0  0
  8  9  1  0  0  0
  8 13  2  0  0  0
  9 10  2  0  0  0
 10 11  1  0  0  0
 11 12  2  0  0  0
 12 13  1  0  0  0
 12 16  1  0  0  0
 13 14  1  0  0  0
 14 15  1  0  0  0
 15 16  1  0  0  0
 15 18  1  0  0  0
 16 17  2  0  0  0
  5  6  1  0  0  0
  5  7  1  0  0  0
M  END
> <minimizedAffinity>
-8.82225

$$$$
