CHEMBL3984370


 39 44  0  0  0  0  0  0  0  0999 V2000
  -14.3283    2.0228  -17.6694 C   0  0  0  0  0  0  0  0  0  0  0  0
  -13.5829    2.8121  -18.5463 C   0  0  0  0  0  0  0  0  0  0  0  0
  -13.0240    2.2358  -19.6768 C   0  0  0  0  0  0  0  0  0  0  0  0
  -13.1882    0.8704  -19.9096 C   0  0  0  0  0  0  0  0  0  0  0  0
  -13.9340    0.0721  -19.0467 C   0  0  0  0  0  0  0  0  0  0  0  0
  -14.5677    0.6747  -17.9465 C   0  0  0  0  0  0  0  0  0  0  0  0
  -14.0747   -1.3207  -19.1930 N   0  0  0  0  0  0  0  0  0  0  0  0
  -13.1285   -2.2742  -18.8385 C   0  0  0  0  0  0  0  0  0  0  0  0
  -12.0340   -2.0704  -18.3496 O   0  0  0  0  0  0  0  0  0  0  0  0
  -15.0032   -1.6666  -19.4258 H   0  0  0  0  0  0  0  0  0  0  0  0
  -13.5735   -3.6659  -18.9729 C   0  0  0  0  0  0  0  0  0  0  0  0
  -13.9663   -4.1695  -20.2385 C   0  0  0  0  0  0  0  0  0  0  0  0
  -14.2771   -5.5098  -20.4125 C   0  0  0  0  0  0  0  0  0  0  0  0
  -14.1014   -6.4292  -19.3847 C   0  0  0  0  0  0  0  0  0  0  0  0
  -13.7588   -5.9250  -18.1242 C   0  0  0  0  0  0  0  0  0  0  0  0
  -13.4369   -6.5435  -16.9356 N   0  0  0  0  0  0  0  0  0  0  0  0
  -13.7034   -5.6771  -15.9118 C   0  0  0  0  0  0  0  0  0  0  0  0
  -13.6442   -4.4130  -16.4534 C   0  0  0  0  0  0  0  0  0  0  0  0
  -13.6159   -4.5582  -17.8674 C   0  0  0  0  0  0  0  0  0  0  0  0
  -13.0883   -7.4866  -16.8424 H   0  0  0  0  0  0  0  0  0  0  0  0
  -14.0861    3.5270  -15.9258 O   0  0  0  0  0  0  0  0  0  0  0  0
  -14.8189    2.6749  -16.4392 C   0  0  0  0  0  0  0  0  0  0  0  0
  -16.0815    2.2961  -15.7537 C   0  0  0  0  0  0  0  0  0  0  0  0
  -16.2007    1.3815  -14.6893 C   0  0  0  0  0  0  0  0  0  0  0  0
  -17.4520    1.0806  -14.1189 C   0  0  0  0  0  0  0  0  0  0  0  0
  -18.5460    1.9277  -14.4439 C   0  0  0  0  0  0  0  0  0  0  0  0
  -19.9475    2.0384  -14.2637 C   0  0  0  0  0  0  0  0  0  0  0  0
  -20.3372    3.3112  -14.4299 N   0  0  0  0  0  0  0  0  0  0  0  0
  -19.3939    3.7772  -15.2490 N   0  0  0  0  0  0  0  0  0  0  0  0
  -18.3172    2.9424  -15.3482 C   0  0  0  0  0  0  0  0  0  0  0  0
  -17.1949    3.0482  -16.1460 C   0  0  0  0  0  0  0  0  0  0  0  0
  -19.5285    4.6792  -15.6859 H   0  0  0  0  0  0  0  0  0  0  0  0
  -21.0326    1.0817  -14.2880 C   0  0  0  0  0  0  0  0  0  0  0  0
  -22.0071    1.1681  -13.4442 N   0  0  0  0  0  0  0  0  0  0  0  0
  -22.8265    0.0829  -13.4099 N   0  0  0  0  0  0  0  0  0  0  0  0
  -22.8176   -0.8339  -12.3830 C   0  0  0  0  0  0  0  0  0  0  0  0
  -23.8739   -1.7030  -12.5545 C   0  0  0  0  0  0  0  0  0  0  0  0
  -24.4029   -1.4568  -13.8369 C   0  0  0  0  0  0  0  0  0  0  0  0
  -23.8037   -0.3082  -14.2986 C   0  0  0  0  0  0  0  0  0  0  0  0
 21 22  2  0  0  0
 22  1  1  0  0  0
 22 23  1  0  0  0
  1  2  1  0  0  0
  1  6  2  0  0  0
  2  3  2  0  0  0
  3  4  1  0  0  0
  4  5  2  0  0  0
  5  7  1  0  0  0
  5  6  1  0  0  0
  7  8  1  0  0  0
  7 10  1  0  0  0
  8  9  2  0  0  0
  8 11  1  0  0  0
 11 12  1  0  0  0
 11 19  2  0  0  0
 12 13  2  0  0  0
 13 14  1  0  0  0
 14 15  2  0  0  0
 15 16  1  0  0  0
 15 19  1  0  0  0
 16 17  1  0  0  0
 16 20  1  0  0  0
 17 18  2  0  0  0
 18 19  1  0  0  0
 23 24  1  0  0  0
 23 31  2  0  0  0
 24 25  2  0  0  0
 25 26  1  0  0  0
 26 27  1  0  0  0
 26 30  2  0  0  0
 27 33  1  0  0  0
 27 28  2  0  0  0
 33 34  2  0  0  0
 34 35  1  0  0  0
 35 36  1  0  0  0
 35 39  1  0  0  0
 36 37  2  0  0  0
 37 38  1  0  0  0
 38 39  2  0  0  0
 28 29  1  0  0  0
 29 30  1  0  0  0
 29 32  1  0  0  0
 30 31  1  0  0  0
M  END
> <minimizedAffinity>
-9.63976

$$$$
