CHEMBL193386


 32 35  0  0  0  0  0  0  0  0999 V2000
  -16.1566    0.9231  -14.3101 C   0  0  0  0  0  0  0  0  0  0  0  0
  -16.0318    1.4034  -15.5259 N   0  0  0  0  0  0  0  0  0  0  0  0
  -17.2763    1.8843  -15.8243 C   0  0  0  0  0  0  0  0  0  0  0  0
  -18.1409    1.6572  -14.7787 C   0  0  0  0  0  0  0  0  0  0  0  0
  -17.4184    1.0446  -13.7835 O   0  0  0  0  0  0  0  0  0  0  0  0
  -19.5585    1.9169  -14.5552 C   0  0  0  0  0  0  0  0  0  0  0  0
  -20.0911    3.1756  -14.8650 C   0  0  0  0  0  0  0  0  0  0  0  0
  -21.4423    3.4488  -14.6717 C   0  0  0  0  0  0  0  0  0  0  0  0
  -22.2874    2.4564  -14.1801 C   0  0  0  0  0  0  0  0  0  0  0  0
  -21.8074    1.1684  -13.8833 C   0  0  0  0  0  0  0  0  0  0  0  0
  -20.4273    0.9298  -14.0616 C   0  0  0  0  0  0  0  0  0  0  0  0
  -22.7238    0.0985  -13.4347 C   0  0  0  0  0  0  0  0  0  0  0  0
  -22.6114   -0.5124  -12.1781 C   0  0  0  0  0  0  0  0  0  0  0  0
  -23.4837   -1.5343  -11.8033 C   0  0  0  0  0  0  0  0  0  0  0  0
  -24.4664   -1.9216  -12.6960 C   0  0  0  0  0  0  0  0  0  0  0  0
  -24.6238   -1.3703  -13.9146 N   0  0  0  0  0  0  0  0  0  0  0  0
  -23.7509   -0.3882  -14.2510 C   0  0  0  0  0  0  0  0  0  0  0  0
  -15.2299    0.3421  -13.5220 N   0  0  0  0  0  0  0  0  0  0  0  0
  -15.0716    0.7249  -12.5994 H   0  0  0  0  0  0  0  0  0  0  0  0
  -15.2468   -3.3343  -12.9601 C   0  0  0  0  0  0  0  0  0  0  0  0
  -14.2169   -3.7559  -13.7990 C   0  0  0  0  0  0  0  0  0  0  0  0
  -13.4955   -2.8089  -14.5343 C   0  0  0  0  0  0  0  0  0  0  0  0
  -13.8023   -1.4438  -14.4326 C   0  0  0  0  0  0  0  0  0  0  0  0
  -14.8817   -1.0259  -13.6208 C   0  0  0  0  0  0  0  0  0  0  0  0
  -15.5796   -1.9848  -12.8699 C   0  0  0  0  0  0  0  0  0  0  0  0
  -16.0673   -4.4984  -11.8984 S   0  0  0  0  0  0  0  0  0  0  0  0
  -17.0144   -5.2353  -12.7149 O   0  0  0  0  0  0  0  0  0  0  0  0
  -16.5152   -3.7660  -10.7295 O   0  0  0  0  0  0  0  0  0  0  0  0
  -14.0480   -5.0862  -10.1665 C   0  0  0  0  0  0  0  0  0  0  0  0
  -14.7650   -5.6042  -11.3973 C   0  0  0  0  0  0  0  0  0  0  0  0
  -13.0885   -0.4474  -15.0546 O   0  0  0  0  0  0  0  0  0  0  0  0
  -13.0697   -0.4589  -16.4787 C   0  0  0  0  0  0  0  0  0  0  0  0
 29 30  1  0  0  0
 30 26  1  0  0  0
 26 27  2  0  0  0
 26 28  2  0  0  0
 26 20  1  0  0  0
 20 21  1  0  0  0
 20 25  2  0  0  0
 21 22  2  0  0  0
 22 23  1  0  0  0
 23 31  1  0  0  0
 23 24  2  0  0  0
 31 32  1  0  0  0
 24 18  1  0  0  0
 24 25  1  0  0  0
 18  1  1  0  0  0
 18 19  1  0  0  0
  1  2  2  0  0  0
  1  5  1  0  0  0
  2  3  1  0  0  0
  3  4  2  0  0  0
  4  6  1  0  0  0
  4  5  1  0  0  0
  6  7  1  0  0  0
  6 11  2  0  0  0
  7  8  2  0  0  0
  8  9  1  0  0  0
  9 10  2  0  0  0
 10 12  1  0  0  0
 10 11  1  0  0  0
 12 13  1  0  0  0
 12 17  2  0  0  0
 13 14  2  0  0  0
 14 15  1  0  0  0
 15 16  2  0  0  0
 16 17  1  0  0  0
M  END
> <minimizedAffinity>
-9.66541

$$$$
