CHEMBL2430254


 36 39  0  0  0  0  0  0  0  0999 V2000
  -15.0336   -2.7390  -13.4862 C   0  0  0  0  0  0  0  0  0  0  0  0
  -15.4745   -3.7830  -12.6797 C   0  0  0  0  0  0  0  0  0  0  0  0
  -16.3269   -3.7844  -11.4586 C   0  0  0  0  0  0  0  0  0  0  0  0
  -15.0335   -4.9751  -13.2429 N   0  0  0  0  0  0  0  0  0  0  0  0
  -14.3398   -4.7164  -14.3956 C   0  0  0  0  0  0  0  0  0  0  0  0
  -14.3247   -3.3445  -14.5600 C   0  0  0  0  0  0  0  0  0  0  0  0
  -13.6834   -2.6141  -15.6861 C   0  0  0  0  0  0  0  0  0  0  0  0
  -12.9701   -3.4862  -16.6926 C   0  0  0  0  0  0  0  0  0  0  0  0
  -13.0338   -4.9942  -16.4937 C   0  0  0  0  0  0  0  0  0  0  0  0
  -13.7385   -5.6424  -15.3022 C   0  0  0  0  0  0  0  0  0  0  0  0
  -13.7290   -7.0011  -15.2344 C   0  0  0  0  0  0  0  0  0  0  0  0
  -14.3326   -7.9347  -14.2007 C   0  0  0  0  0  0  0  0  0  0  0  0
  -14.9635   -7.6470  -13.1996 O   0  0  0  0  0  0  0  0  0  0  0  0
  -14.0148   -9.2252  -14.6253 N   0  0  0  0  0  0  0  0  0  0  0  0
  -13.2777   -9.2171  -15.8056 C   0  0  0  0  0  0  0  0  0  0  0  0
  -12.7849  -10.3137  -16.5061 C   0  0  0  0  0  0  0  0  0  0  0  0
  -12.0532  -10.0864  -17.6850 C   0  0  0  0  0  0  0  0  0  0  0  0
  -11.8434   -8.7727  -18.1304 C   0  0  0  0  0  0  0  0  0  0  0  0
  -12.3545   -7.6977  -17.4067 C   0  0  0  0  0  0  0  0  0  0  0  0
  -13.0710   -7.9066  -16.2311 C   0  0  0  0  0  0  0  0  0  0  0  0
  -15.2279   -5.9023  -12.8714 H   0  0  0  0  0  0  0  0  0  0  0  0
  -14.2970  -10.0496  -14.1148 H   0  0  0  0  0  0  0  0  0  0  0  0
  -16.2244   -0.7722  -14.1976 N   0  0  0  0  0  0  0  0  0  0  0  0
  -15.2623   -1.2974  -13.3730 C   0  0  0  0  0  0  0  0  0  0  0  0
  -14.6728   -0.6036  -12.5468 O   0  0  0  0  0  0  0  0  0  0  0  0
  -16.9102   -1.4053  -14.5909 H   0  0  0  0  0  0  0  0  0  0  0  0
  -16.5750    0.6211  -14.0582 C   0  0  0  0  0  0  0  0  0  0  0  0
  -16.7068    1.3370  -15.4089 C   0  0  0  0  0  0  0  0  0  0  0  0
  -17.9799    2.0749  -15.5955 N   0  0  0  0  0  0  0  0  0  0  0  0
  -20.0215    0.6257  -15.1920 C   0  0  0  0  0  0  0  0  0  0  0  0
  -19.0021    1.6136  -14.6377 C   0  0  0  0  0  0  0  0  0  0  0  0
  -17.7505    3.5317  -15.5652 C   0  0  0  0  0  0  0  0  0  0  0  0
  -16.4135    4.0222  -16.1192 C   0  0  0  0  0  0  0  0  0  0  0  0
  -11.0789   -8.4841  -19.3555 N   0  0  0  0  0  0  0  0  0  0  0  0
  -10.8581   -7.2944  -19.6236 O   0  0  0  0  0  0  0  0  0  0  0  0
  -10.6965   -9.4333  -20.0602 O   0  0  0  0  0  0  0  0  0  0  0  0
 30 31  1  0  0  0
 31 29  1  0  0  0
 29 32  1  0  0  0
 29 28  1  0  0  0
 32 33  1  0  0  0
 28 27  1  0  0  0
 27 23  1  0  0  0
 23 24  1  0  0  0
 23 26  1  0  0  0
 24 25  2  0  0  0
 24  1  1  0  0  0
  1  2  2  0  0  0
  1  6  1  0  0  0
  2  3  1  0  0  0
  2  4  1  0  0  0
  4  5  1  0  0  0
  4 21  1  0  0  0
  5  6  2  0  0  0
  5 10  1  0  0  0
  6  7  1  0  0  0
  7  8  1  0  0  0
  8  9  1  0  0  0
  9 10  1  0  0  0
 10 11  2  0  0  0
 11 12  1  0  0  0
 11 20  1  0  0  0
 12 13  2  0  0  0
 12 14  1  0  0  0
 14 15  1  0  0  0
 14 22  1  0  0  0
 15 16  1  0  0  0
 15 20  2  0  0  0
 16 17  2  0  0  0
 17 18  1  0  0  0
 18 34  1  0  0  0
 18 19  2  0  0  0
 34 35  2  0  0  0
 34 36  1  0  0  0
 19 20  1  0  0  0
M  CHG 1  34   1
M  CHG 1  36  -1
M  END
> <minimizedAffinity>
-6.89740

$$$$
