CHEMBL3758796


 40 44  0  0  0  0  0  0  0  0999 V2000
  -14.3484    5.8461  -18.9705 C   0  0  0  0  0  0  0  0  0  0  0  0
  -14.9667    5.0707  -17.9904 C   0  0  0  0  0  0  0  0  0  0  0  0
  -14.6816    3.7106  -17.8384 C   0  0  0  0  0  0  0  0  0  0  0  0
  -15.3780    2.8758  -16.9489 C   0  0  0  0  0  0  0  0  0  0  0  0
  -15.0497    1.5817  -16.8188 N   0  0  0  0  0  0  0  0  0  0  0  0
  -14.0342    1.1282  -17.5652 C   0  0  0  0  0  0  0  0  0  0  0  0
  -13.3333    1.8361  -18.4632 N   0  0  0  0  0  0  0  0  0  0  0  0
  -13.6627    3.1205  -18.6015 C   0  0  0  0  0  0  0  0  0  0  0  0
  -12.9705    3.9298  -19.5016 C   0  0  0  0  0  0  0  0  0  0  0  0
  -13.2686    5.2913  -19.6817 C   0  0  0  0  0  0  0  0  0  0  0  0
  -15.4612    7.3381  -20.4761 C   0  0  0  0  0  0  0  0  0  0  0  0
  -14.7698    7.1173  -19.2460 O   0  0  0  0  0  0  0  0  0  0  0  0
  -16.4460    3.4269  -16.1677 N   0  0  0  0  0  0  0  0  0  0  0  0
  -16.6957    4.3428  -16.5290 H   0  0  0  0  0  0  0  0  0  0  0  0
  -17.5712    2.7417  -15.6554 C   0  0  0  0  0  0  0  0  0  0  0  0
  -17.4855    1.4237  -15.2326 C   0  0  0  0  0  0  0  0  0  0  0  0
  -18.6062    0.7322  -14.7767 C   0  0  0  0  0  0  0  0  0  0  0  0
  -19.8476    1.3504  -14.6751 C   0  0  0  0  0  0  0  0  0  0  0  0
  -19.9217    2.7162  -14.9738 C   0  0  0  0  0  0  0  0  0  0  0  0
  -18.7884    3.4088  -15.4508 C   0  0  0  0  0  0  0  0  0  0  0  0
  -21.0278    0.6562  -14.3144 N   0  0  0  0  0  0  0  0  0  0  0  0
  -22.2309    1.2585  -13.9841 C   0  0  0  0  0  0  0  0  0  0  0  0
  -22.4827    2.4585  -14.0340 O   0  0  0  0  0  0  0  0  0  0  0  0
  -20.9638   -0.3483  -14.2796 H   0  0  0  0  0  0  0  0  0  0  0  0
  -23.3481    0.3876  -13.5160 C   0  0  0  0  0  0  0  0  0  0  0  0
  -23.9388    0.4967  -12.2536 C   0  0  0  0  0  0  0  0  0  0  0  0
  -25.0453   -0.3016  -11.9355 C   0  0  0  0  0  0  0  0  0  0  0  0
  -25.5623   -1.1968  -12.8757 C   0  0  0  0  0  0  0  0  0  0  0  0
  -26.9414   -2.1495  -12.4853 Cl  0  0  0  0  0  0  0  0  0  0  0  0
  -24.9840   -1.3121  -14.1338 C   0  0  0  0  0  0  0  0  0  0  0  0
  -23.8802   -0.5195  -14.4511 C   0  0  0  0  0  0  0  0  0  0  0  0
  -12.4253    5.9548  -20.5561 O   0  0  0  0  0  0  0  0  0  0  0  0
  -11.2980    6.5878  -19.9302 C   0  0  0  0  0  0  0  0  0  0  0  0
  -11.2943    8.1278  -20.0779 C   0  0  0  0  0  0  0  0  0  0  0  0
  -11.8324    8.8269  -18.8749 N   0  0  0  0  0  0  0  0  0  0  0  0
  -11.6552    8.0240  -17.6508 C   0  0  0  0  0  0  0  0  0  0  0  0
  -12.2084    8.7136  -16.4034 C   0  0  0  0  0  0  0  0  0  0  0  0
  -11.6143   10.0997  -16.2236 C   0  0  0  0  0  0  0  0  0  0  0  0
  -11.7853   10.9057  -17.5072 C   0  0  0  0  0  0  0  0  0  0  0  0
  -11.2134   10.1547  -18.7173 C   0  0  0  0  0  0  0  0  0  0  0  0
 11 12  1  0  0  0
 12  1  1  0  0  0
  1  2  1  0  0  0
  1 10  2  0  0  0
  2  3  2  0  0  0
  3  4  1  0  0  0
  3  8  1  0  0  0
  4 13  1  0  0  0
  4  5  2  0  0  0
 13 15  1  0  0  0
 13 14  1  0  0  0
 15 16  1  0  0  0
 15 20  2  0  0  0
 16 17  2  0  0  0
 17 18  1  0  0  0
 18 21  1  0  0  0
 18 19  2  0  0  0
 21 22  1  0  0  0
 21 24  1  0  0  0
 22 23  2  0  0  0
 22 25  1  0  0  0
 25 26  1  0  0  0
 25 31  2  0  0  0
 26 27  2  0  0  0
 27 28  1  0  0  0
 28 29  1  0  0  0
 28 30  2  0  0  0
 30 31  1  0  0  0
 19 20  1  0  0  0
  5  6  1  0  0  0
  6  7  2  0  0  0
  7  8  1  0  0  0
  8  9  2  0  0  0
  9 10  1  0  0  0
 10 32  1  0  0  0
 32 33  1  0  0  0
 33 34  1  0  0  0
 34 35  1  0  0  0
 35 36  1  0  0  0
 35 40  1  0  0  0
 36 37  1  0  0  0
 37 38  1  0  0  0
 38 39  1  0  0  0
 39 40  1  0  0  0
M  END
> <minimizedAffinity>
-8.86842

$$$$
