CHEMBL378895


 44 49  0  0  0  0  0  0  0  0999 V2000
  -22.5357    1.2834  -13.6004 C   0  0  0  0  0  0  0  0  0  0  0  0
  -23.4915    1.7168  -12.7022 C   0  0  0  0  0  0  0  0  0  0  0  0
  -24.3887    0.6761  -12.3152 C   0  0  0  0  0  0  0  0  0  0  0  0
  -24.1074   -0.5196  -12.9471 C   0  0  0  0  0  0  0  0  0  0  0  0
  -22.7203   -0.3887  -13.9358 S   0  0  0  0  0  0  0  0  0  0  0  0
  -15.8127    1.6966  -16.0226 C   0  0  0  0  0  0  0  0  0  0  0  0
  -16.2215    2.9371  -16.5712 C   0  0  0  0  0  0  0  0  0  0  0  0
  -17.5038    3.4428  -16.3428 C   0  0  0  0  0  0  0  0  0  0  0  0
  -18.3626    2.6655  -15.5987 C   0  0  0  0  0  0  0  0  0  0  0  0
  -18.0131    1.3906  -15.0952 C   0  0  0  0  0  0  0  0  0  0  0  0
  -16.7276    0.9168  -15.2846 C   0  0  0  0  0  0  0  0  0  0  0  0
  -19.1644    0.6741  -14.3753 C   0  0  0  0  0  0  0  0  0  0  0  0
  -20.1786    1.7571  -14.5056 C   0  0  0  0  0  0  0  0  0  0  0  0
  -19.7024    2.8878  -15.1866 C   0  0  0  0  0  0  0  0  0  0  0  0
  -20.5755    3.8776  -15.2765 N   0  0  0  0  0  0  0  0  0  0  0  0
  -21.6516    3.3492  -14.6435 N   0  0  0  0  0  0  0  0  0  0  0  0
  -21.4862    2.0445  -14.2048 C   0  0  0  0  0  0  0  0  0  0  0  0
  -22.4870    3.9156  -14.5550 H   0  0  0  0  0  0  0  0  0  0  0  0
  -14.3792    1.2272  -16.1861 C   0  0  0  0  0  0  0  0  0  0  0  0
  -11.0707   -0.5796  -13.2675 C   0  0  0  0  0  0  0  0  0  0  0  0
  -11.4933    0.6535  -13.9252 N   0  0  0  0  0  0  0  0  0  0  0  0
  -11.4586    0.5064  -15.3897 C   0  0  0  0  0  0  0  0  0  0  0  0
  -11.9687    1.7787  -16.1034 C   0  0  0  0  0  0  0  0  0  0  0  0
  -13.3452    2.1734  -15.7344 N   0  0  0  0  0  0  0  0  0  0  0  0
  -13.3842    2.2959  -14.2546 C   0  0  0  0  0  0  0  0  0  0  0  0
  -12.8386    1.0647  -13.4797 C   0  0  0  0  0  0  0  0  0  0  0  0
  -24.8912   -1.7948  -12.9268 C   0  0  0  0  0  0  0  0  0  0  0  0
  -26.2454   -1.6913  -12.3719 N   0  0  0  0  0  0  0  0  0  0  0  0
  -27.3924   -1.9654  -13.2314 C   0  0  0  0  0  0  0  0  0  0  0  0
  -26.2811   -1.8211  -10.9744 C   0  0  0  0  0  0  0  0  0  0  0  0
  -25.2543   -1.7527  -10.3055 O   0  0  0  0  0  0  0  0  0  0  0  0
  -27.5256   -2.0784  -10.4374 N   0  0  0  0  0  0  0  0  0  0  0  0
  -28.2494   -2.3516  -11.0780 H   0  0  0  0  0  0  0  0  0  0  0  0
  -27.8318   -2.2508   -9.0702 C   0  0  0  0  0  0  0  0  0  0  0  0
  -28.0945   -3.4875   -8.4772 C   0  0  0  0  0  0  0  0  0  0  0  0
  -28.4195   -3.5507   -7.1253 C   0  0  0  0  0  0  0  0  0  0  0  0
  -28.6659   -4.7433   -6.5664 F   0  0  0  0  0  0  0  0  0  0  0  0
  -28.4981   -2.4077   -6.3448 C   0  0  0  0  0  0  0  0  0  0  0  0
  -28.2285   -1.1593   -6.9148 C   0  0  0  0  0  0  0  0  0  0  0  0
  -27.8762   -1.0974   -8.2762 C   0  0  0  0  0  0  0  0  0  0  0  0
  -28.3205    0.1102   -6.1088 C   0  0  0  0  0  0  0  0  0  0  0  0
  -28.2507    1.2419   -6.8595 F   0  0  0  0  0  0  0  0  0  0  0  0
  -29.4824    0.1923   -5.4053 F   0  0  0  0  0  0  0  0  0  0  0  0
  -27.3207    0.2064   -5.1890 F   0  0  0  0  0  0  0  0  0  0  0  0
 20 21  1  0  0  0
 21 22  1  0  0  0
 21 26  1  0  0  0
 22 23  1  0  0  0
 23 24  1  0  0  0
 24 19  1  0  0  0
 24 25  1  0  0  0
 19  6  1  0  0  0
  6  7  1  0  0  0
  6 11  2  0  0  0
  7  8  2  0  0  0
  8  9  1  0  0  0
  9 10  2  0  0  0
  9 14  1  0  0  0
 10 11  1  0  0  0
 10 12  1  0  0  0
 12 13  1  0  0  0
 13 14  1  0  0  0
 13 17  2  0  0  0
 14 15  2  0  0  0
 15 16  1  0  0  0
 16 17  1  0  0  0
 16 18  1  0  0  0
 17  1  1  0  0  0
  1  2  2  0  0  0
  1  5  1  0  0  0
  2  3  1  0  0  0
  3  4  2  0  0  0
  4 27  1  0  0  0
  4  5  1  0  0  0
 27 28  1  0  0  0
 28 29  1  0  0  0
 28 30  1  0  0  0
 30 31  2  0  0  0
 30 32  1  0  0  0
 32 34  1  0  0  0
 32 33  1  0  0  0
 34 35  1  0  0  0
 34 40  2  0  0  0
 35 36  2  0  0  0
 36 37  1  0  0  0
 36 38  1  0  0  0
 38 39  2  0  0  0
 39 41  1  0  0  0
 39 40  1  0  0  0
 41 42  1  0  0  0
 41 43  1  0  0  0
 41 44  1  0  0  0
 25 26  1  0  0  0
M  END
> <minimizedAffinity>
-11.70409

$$$$
