CHEMBL257788


 32 37  0  0  0  0  0  0  0  0999 V2000
  -29.2505   -3.3149   -5.5180 C   0  0  0  0  0  0  0  0  0  0  0  0
  -28.4705   -3.2206   -4.3715 C   0  0  0  0  0  0  0  0  0  0  0  0
  -27.9471   -4.3460   -3.7996 C   0  0  0  0  0  0  0  0  0  0  0  0
  -28.2583   -5.5400   -4.4315 C   0  0  0  0  0  0  0  0  0  0  0  0
  -28.0464   -6.7656   -3.8989 N   0  0  0  0  0  0  0  0  0  0  0  0
  -27.9706   -7.6883   -4.8864 C   0  0  0  0  0  0  0  0  0  0  0  0
  -27.2862   -8.8856   -4.8600 C   0  0  0  0  0  0  0  0  0  0  0  0
  -27.1733   -9.6657   -6.0215 C   0  0  0  0  0  0  0  0  0  0  0  0
  -28.0091   -9.1933   -7.0944 C   0  0  0  0  0  0  0  0  0  0  0  0
  -28.7136   -7.9030   -7.0854 C   0  0  0  0  0  0  0  0  0  0  0  0
  -28.5981   -7.0878   -5.9361 C   0  0  0  0  0  0  0  0  0  0  0  0
  -28.8601   -5.7199   -5.6869 C   0  0  0  0  0  0  0  0  0  0  0  0
  -29.4200   -4.5287   -6.2430 C   0  0  0  0  0  0  0  0  0  0  0  0
  -29.5619   -7.6893   -8.2705 C   0  0  0  0  0  0  0  0  0  0  0  0
  -29.4034   -8.9839   -8.8937 N   0  0  0  0  0  0  0  0  0  0  0  0
  -28.5047   -9.8862   -8.2875 C   0  0  0  0  0  0  0  0  0  0  0  0
  -28.3606  -11.0238   -8.7165 O   0  0  0  0  0  0  0  0  0  0  0  0
  -25.8330  -10.4045   -6.0680 C   0  0  0  0  0  0  0  0  0  0  0  0
  -25.5451  -11.7217   -5.6245 C   0  0  0  0  0  0  0  0  0  0  0  0
  -24.2098  -11.7333   -5.1554 N   0  0  0  0  0  0  0  0  0  0  0  0
  -23.6025  -12.4654   -4.0476 C   0  0  0  0  0  0  0  0  0  0  0  0
  -23.6280  -10.5557   -5.4290 N   0  0  0  0  0  0  0  0  0  0  0  0
  -24.7194   -9.7877   -5.3555 C   0  0  0  0  0  0  0  0  0  0  0  0
  -24.9375   -9.1011   -4.0338 C   0  0  0  0  0  0  0  0  0  0  0  0
  -26.4060   -9.1157   -3.6563 C   0  0  0  0  0  0  0  0  0  0  0  0
  -27.6802   -6.8832   -2.9646 H   0  0  0  0  0  0  0  0  0  0  0  0
  -30.0104   -9.3130   -9.6344 H   0  0  0  0  0  0  0  0  0  0  0  0
  -29.6129   -0.9465   -5.3420 N   0  0  0  0  0  0  0  0  0  0  0  0
  -29.9714   -2.0726   -5.8676 C   0  0  0  0  0  0  0  0  0  0  0  0
  -30.4860    0.0700   -5.7170 O   0  0  0  0  0  0  0  0  0  0  0  0
  -28.3452    1.0359   -5.3518 C   0  0  0  0  0  0  0  0  0  0  0  0
  -29.6880    1.2148   -6.0164 C   0  0  0  0  0  0  0  0  0  0  0  0
 31 32  1  0  0  0
 32 30  1  0  0  0
 30 28  1  0  0  0
 28 29  2  0  0  0
 29  1  1  0  0  0
  1  2  1  0  0  0
  1 13  2  0  0  0
  2  3  2  0  0  0
  3  4  1  0  0  0
  4  5  1  0  0  0
  4 12  2  0  0  0
  5  6  1  0  0  0
  5 26  1  0  0  0
  6  7  1  0  0  0
  6 11  2  0  0  0
  7  8  2  0  0  0
  7 25  1  0  0  0
  8  9  1  0  0  0
  8 18  1  0  0  0
  9 10  2  0  0  0
  9 16  1  0  0  0
 10 11  1  0  0  0
 10 14  1  0  0  0
 11 12  1  0  0  0
 12 13  1  0  0  0
 14 15  1  0  0  0
 15 16  1  0  0  0
 15 27  1  0  0  0
 16 17  2  0  0  0
 18 19  2  0  0  0
 18 23  1  0  0  0
 19 20  1  0  0  0
 20 21  1  0  0  0
 20 22  1  0  0  0
 22 23  2  0  0  0
 23 24  1  0  0  0
 24 25  1  0  0  0
M  END
> <minimizedAffinity>
-8.92865

$$$$
