CHEMBL190351


 30 32  0  0  0  0  0  0  0  0999 V2000
  -17.5746    3.1086  -15.8009 C   0  0  0  0  0  0  0  0  0  0  0  0
  -18.7586    3.5835  -15.2561 C   0  0  0  0  0  0  0  0  0  0  0  0
  -19.7182    2.6962  -14.8180 C   0  0  0  0  0  0  0  0  0  0  0  0
  -20.8994    3.1753  -14.4183 N   0  0  0  0  0  0  0  0  0  0  0  0
  -21.8622    2.3085  -14.0487 C   0  0  0  0  0  0  0  0  0  0  0  0
  -23.0591    2.9430  -13.7207 N   0  0  0  0  0  0  0  0  0  0  0  0
  -21.7002    0.9099  -14.0278 C   0  0  0  0  0  0  0  0  0  0  0  0
  -20.4391    0.4369  -14.4321 C   0  0  0  0  0  0  0  0  0  0  0  0
  -19.4324    1.3302  -14.8462 C   0  0  0  0  0  0  0  0  0  0  0  0
  -18.1785    0.9439  -15.3125 C   0  0  0  0  0  0  0  0  0  0  0  0
  -17.2648    1.8046  -15.8080 N   0  0  0  0  0  0  0  0  0  0  0  0
  -22.8862    3.9433  -13.7616 H   0  0  0  0  0  0  0  0  0  0  0  0
  -23.4093    2.6381  -12.8207 H   0  0  0  0  0  0  0  0  0  0  0  0
  -22.7611   -0.0300  -13.5794 C   0  0  0  0  0  0  0  0  0  0  0  0
  -23.7728   -0.4770  -14.4505 C   0  0  0  0  0  0  0  0  0  0  0  0
  -24.8544   -1.2354  -13.9945 C   0  0  0  0  0  0  0  0  0  0  0  0
  -24.9180   -1.6204  -12.6612 C   0  0  0  0  0  0  0  0  0  0  0  0
  -23.8921   -1.2632  -11.7922 C   0  0  0  0  0  0  0  0  0  0  0  0
  -22.8295   -0.4731  -12.2455 C   0  0  0  0  0  0  0  0  0  0  0  0
  -16.7237    4.0544  -16.3774 N   0  0  0  0  0  0  0  0  0  0  0  0
  -16.7207    4.8966  -15.8080 H   0  0  0  0  0  0  0  0  0  0  0  0
  -15.4045    3.5831  -16.7568 C   0  0  0  0  0  0  0  0  0  0  0  0
  -14.4046    4.0854  -15.7102 C   0  0  0  0  0  0  0  0  0  0  0  0
  -13.6133    2.9708  -15.0170 C   0  0  0  0  0  0  0  0  0  0  0  0
  -13.6390    1.6275  -15.7595 C   0  0  0  0  0  0  0  0  0  0  0  0
  -14.0630    0.4841  -14.9310 N   0  0  0  0  0  0  0  0  0  0  0  0
  -11.8581   -0.1506  -13.8668 C   0  0  0  0  0  0  0  0  0  0  0  0
  -12.9938   -0.5225  -14.8138 C   0  0  0  0  0  0  0  0  0  0  0  0
  -14.6105    0.9333  -13.6393 C   0  0  0  0  0  0  0  0  0  0  0  0
  -15.5362   -0.0463  -12.9223 C   0  0  0  0  0  0  0  0  0  0  0  0
 27 28  1  0  0  0
 28 26  1  0  0  0
 26 29  1  0  0  0
 26 25  1  0  0  0
 29 30  1  0  0  0
 25 24  1  0  0  0
 24 23  1  0  0  0
 23 22  1  0  0  0
 22 20  1  0  0  0
 20  1  1  0  0  0
 20 21  1  0  0  0
  1  2  1  0  0  0
  1 11  2  0  0  0
  2  3  2  0  0  0
  3  4  1  0  0  0
  3  9  1  0  0  0
  4  5  2  0  0  0
  5  6  1  0  0  0
  5  7  1  0  0  0
  6 12  1  0  0  0
  6 13  1  0  0  0
  7 14  1  0  0  0
  7  8  2  0  0  0
 14 15  1  0  0  0
 14 19  2  0  0  0
 15 16  2  0  0  0
 16 17  1  0  0  0
 17 18  2  0  0  0
 18 19  1  0  0  0
  8  9  1  0  0  0
  9 10  2  0  0  0
 10 11  1  0  0  0
M  END
> <minimizedAffinity>
-7.99420

$$$$
