CHEMBL307982


 28 31  0  0  0  0  0  0  0  0999 V2000
  -29.0417   -9.3125   -9.0988 N   0  0  0  0  0  0  0  0  0  0  0  0
  -28.7692   -8.0926   -8.5339 C   0  0  0  0  0  0  0  0  0  0  0  0
  -29.8246   -7.7339   -7.7112 C   0  0  0  0  0  0  0  0  0  0  0  0
  -30.7825   -8.8074   -7.7736 C   0  0  0  0  0  0  0  0  0  0  0  0
  -32.0557   -9.1013   -7.2455 C   0  0  0  0  0  0  0  0  0  0  0  0
  -32.8123   -8.2442   -6.4545 N   0  0  0  0  0  0  0  0  0  0  0  0
  -32.6329  -10.2856   -7.5369 N   0  0  0  0  0  0  0  0  0  0  0  0
  -31.9801  -11.1358   -8.3425 C   0  0  0  0  0  0  0  0  0  0  0  0
  -30.7949  -10.9565   -8.9386 N   0  0  0  0  0  0  0  0  0  0  0  0
  -30.2413   -9.7755   -8.6184 C   0  0  0  0  0  0  0  0  0  0  0  0
  -32.7019   -7.2680   -6.6973 H   0  0  0  0  0  0  0  0  0  0  0  0
  -33.7696   -8.5747   -6.4096 H   0  0  0  0  0  0  0  0  0  0  0  0
  -29.8412   -6.4601   -6.9973 C   0  0  0  0  0  0  0  0  0  0  0  0
  -29.9236   -5.2524   -7.7045 C   0  0  0  0  0  0  0  0  0  0  0  0
  -30.0071   -4.0331   -7.0307 C   0  0  0  0  0  0  0  0  0  0  0  0
  -30.1069   -4.0086   -5.6396 C   0  0  0  0  0  0  0  0  0  0  0  0
  -29.9523   -5.1936   -4.9235 C   0  0  0  0  0  0  0  0  0  0  0  0
  -29.7883   -6.4069   -5.6003 C   0  0  0  0  0  0  0  0  0  0  0  0
  -30.3140   -2.8694   -4.8951 O   0  0  0  0  0  0  0  0  0  0  0  0
  -29.4303   -1.8187   -5.0110 C   0  0  0  0  0  0  0  0  0  0  0  0
  -28.0458   -1.9334   -4.8445 C   0  0  0  0  0  0  0  0  0  0  0  0
  -27.2386   -0.7972   -4.8993 C   0  0  0  0  0  0  0  0  0  0  0  0
  -27.8036    0.4429   -5.1908 C   0  0  0  0  0  0  0  0  0  0  0  0
  -29.1720    0.5451   -5.4422 C   0  0  0  0  0  0  0  0  0  0  0  0
  -29.9851   -0.5853   -5.3524 C   0  0  0  0  0  0  0  0  0  0  0  0
  -28.9084  -10.1855  -11.4123 C   0  0  0  0  0  0  0  0  0  0  0  0
  -28.1924   -9.9978  -10.0718 C   0  0  0  0  0  0  0  0  0  0  0  0
  -26.8578   -9.2757  -10.2588 C   0  0  0  0  0  0  0  0  0  0  0  0
 26 27  1  0  0  0
 27 28  1  0  0  0
 27  1  1  0  0  0
  1  2  1  0  0  0
  1 10  1  0  0  0
  2  3  2  0  0  0
  3 13  1  0  0  0
  3  4  1  0  0  0
 13 14  1  0  0  0
 13 18  2  0  0  0
 14 15  2  0  0  0
 15 16  1  0  0  0
 16 19  1  0  0  0
 16 17  2  0  0  0
 19 20  1  0  0  0
 20 21  1  0  0  0
 20 25  2  0  0  0
 21 22  2  0  0  0
 22 23  1  0  0  0
 23 24  2  0  0  0
 24 25  1  0  0  0
 17 18  1  0  0  0
  4  5  1  0  0  0
  4 10  2  0  0  0
  5  6  1  0  0  0
  5  7  2  0  0  0
  6 11  1  0  0  0
  6 12  1  0  0  0
  7  8  1  0  0  0
  8  9  2  0  0  0
  9 10  1  0  0  0
M  END
> <minimizedAffinity>
-9.34318

$$$$
