CHEMBL2006778


 31 34  0  0  0  0  0  0  0  0999 V2000
  -19.1685    2.8530  -15.4467 C   0  0  0  0  0  0  0  0  0  0  0  0
  -19.9104    3.9708  -15.1209 C   0  0  0  0  0  0  0  0  0  0  0  0
  -21.1049    3.9442  -14.5052 N   0  0  0  0  0  0  0  0  0  0  0  0
  -21.6787    2.7652  -14.1934 C   0  0  0  0  0  0  0  0  0  0  0  0
  -22.8856    2.9051  -13.5273 N   0  0  0  0  0  0  0  0  0  0  0  0
  -21.0501    1.5318  -14.5377 C   0  0  0  0  0  0  0  0  0  0  0  0
  -21.4660    0.1269  -14.3763 C   0  0  0  0  0  0  0  0  0  0  0  0
  -20.5083   -0.7386  -14.8700 C   0  0  0  0  0  0  0  0  0  0  0  0
  -19.1329    0.0406  -15.4631 S   0  0  0  0  0  0  0  0  0  0  0  0
  -19.7824    1.6129  -15.1553 C   0  0  0  0  0  0  0  0  0  0  0  0
  -23.0131    3.8752  -13.2602 H   0  0  0  0  0  0  0  0  0  0  0  0
  -23.0380    2.2302  -12.7891 H   0  0  0  0  0  0  0  0  0  0  0  0
  -22.7058   -0.4441  -13.8169 C   0  0  0  0  0  0  0  0  0  0  0  0
  -22.8078   -0.7596  -12.4580 C   0  0  0  0  0  0  0  0  0  0  0  0
  -23.9515   -1.3654  -11.9399 C   0  0  0  0  0  0  0  0  0  0  0  0
  -23.9890   -1.7478  -10.6572 F   0  0  0  0  0  0  0  0  0  0  0  0
  -25.0518   -1.5439  -12.7708 C   0  0  0  0  0  0  0  0  0  0  0  0
  -26.2974   -2.0571  -12.5033 N   0  0  0  0  0  0  0  0  0  0  0  0
  -27.1032   -1.9420  -13.6103 C   0  0  0  0  0  0  0  0  0  0  0  0
  -28.5318   -2.3398  -13.5912 C   0  0  0  0  0  0  0  0  0  0  0  0
  -26.3327   -1.4103  -14.6258 C   0  0  0  0  0  0  0  0  0  0  0  0
  -25.0314   -1.1683  -14.1091 C   0  0  0  0  0  0  0  0  0  0  0  0
  -23.8334   -0.6508  -14.6441 C   0  0  0  0  0  0  0  0  0  0  0  0
  -26.5790   -2.4185  -11.6013 H   0  0  0  0  0  0  0  0  0  0  0  0
  -16.9306    3.8486  -15.8562 C   0  0  0  0  0  0  0  0  0  0  0  0
  -17.8616    2.9131  -16.1107 C   0  0  0  0  0  0  0  0  0  0  0  0
  -13.9889    5.2250  -17.7150 C   0  0  0  0  0  0  0  0  0  0  0  0
  -15.2312    5.0594  -17.0053 N   0  0  0  0  0  0  0  0  0  0  0  0
  -15.6360    3.8184  -16.5826 C   0  0  0  0  0  0  0  0  0  0  0  0
  -15.0063    2.7867  -16.7781 O   0  0  0  0  0  0  0  0  0  0  0  0
  -15.7876    5.8798  -16.8067 H   0  0  0  0  0  0  0  0  0  0  0  0
 27 28  1  0  0  0
 28 29  1  0  0  0
 28 31  1  0  0  0
 29 30  2  0  0  0
 29 25  1  0  0  0
 25 26  2  0  0  0
 26  1  1  0  0  0
  1  2  1  0  0  0
  1 10  2  0  0  0
  2  3  2  0  0  0
  3  4  1  0  0  0
  4  5  1  0  0  0
  4  6  2  0  0  0
  5 11  1  0  0  0
  5 12  1  0  0  0
  6  7  1  0  0  0
  6 10  1  0  0  0
  7 13  1  0  0  0
  7  8  2  0  0  0
 13 14  1  0  0  0
 13 23  2  0  0  0
 14 15  2  0  0  0
 15 16  1  0  0  0
 15 17  1  0  0  0
 17 18  1  0  0  0
 17 22  2  0  0  0
 18 19  1  0  0  0
 18 24  1  0  0  0
 19 20  1  0  0  0
 19 21  2  0  0  0
 21 22  1  0  0  0
 22 23  1  0  0  0
  8  9  1  0  0  0
  9 10  1  0  0  0
M  END
> <minimizedAffinity>
-8.44273

$$$$
