CHEMBL4442365


 39 43  0  0  0  0  0  0  0  0999 V2000
  -30.3221   -7.9211   -5.6728 N   0  0  0  0  0  0  0  0  0  0  0  0
  -31.0714   -8.4491   -6.1180 H   0  0  0  0  0  0  0  0  0  0  0  0
  -25.7332  -11.6802   -8.6320 C   0  0  0  0  0  0  0  0  0  0  0  0
  -26.7018  -10.9301   -7.7530 C   0  0  0  0  0  0  0  0  0  0  0  0
  -26.5708  -11.0151   -6.4185 C   0  0  0  0  0  0  0  0  0  0  0  0
  -27.4142  -10.2236   -5.5315 C   0  0  0  0  0  0  0  0  0  0  0  0
  -27.1975  -10.2408   -4.1562 C   0  0  0  0  0  0  0  0  0  0  0  0
  -28.0126   -9.4594   -3.3663 C   0  0  0  0  0  0  0  0  0  0  0  0
  -29.0228   -8.7112   -3.8520 N   0  0  0  0  0  0  0  0  0  0  0  0
  -29.2585   -8.7078   -5.1926 C   0  0  0  0  0  0  0  0  0  0  0  0
  -28.4370   -9.4342   -6.0632 C   0  0  0  0  0  0  0  0  0  0  0  0
  -28.5980   -9.3731   -7.5369 C   0  0  0  0  0  0  0  0  0  0  0  0
  -29.5362   -8.7211   -7.9995 O   0  0  0  0  0  0  0  0  0  0  0  0
  -27.6747  -10.0995   -8.3282 N   0  0  0  0  0  0  0  0  0  0  0  0
  -27.8225   -9.9459   -9.7414 C   0  0  0  0  0  0  0  0  0  0  0  0
  -28.8408  -10.6493  -10.4136 C   0  0  0  0  0  0  0  0  0  0  0  0
  -28.9539  -10.5665  -11.8024 C   0  0  0  0  0  0  0  0  0  0  0  0
  -28.0383   -9.8010  -12.5147 C   0  0  0  0  0  0  0  0  0  0  0  0
  -28.1246   -9.7440  -13.8499 F   0  0  0  0  0  0  0  0  0  0  0  0
  -27.0243   -9.1050  -11.8652 C   0  0  0  0  0  0  0  0  0  0  0  0
  -26.9189   -9.1739  -10.4732 C   0  0  0  0  0  0  0  0  0  0  0  0
  -30.5170   -6.5460   -5.5104 C   0  0  0  0  0  0  0  0  0  0  0  0
  -29.9936   -5.6531   -6.4523 C   0  0  0  0  0  0  0  0  0  0  0  0
  -30.0927   -4.2773   -6.2747 C   0  0  0  0  0  0  0  0  0  0  0  0
  -30.6178   -3.7713   -5.0848 C   0  0  0  0  0  0  0  0  0  0  0  0
  -31.1907   -4.6513   -4.1686 C   0  0  0  0  0  0  0  0  0  0  0  0
  -31.7503   -4.1826   -3.0425 F   0  0  0  0  0  0  0  0  0  0  0  0
  -31.1540   -6.0312   -4.3769 C   0  0  0  0  0  0  0  0  0  0  0  0
  -30.5893   -2.4296   -4.7622 O   0  0  0  0  0  0  0  0  0  0  0  0
  -29.3984   -1.7424   -4.9216 C   0  0  0  0  0  0  0  0  0  0  0  0
  -28.1633   -2.3033   -4.5848 C   0  0  0  0  0  0  0  0  0  0  0  0
  -27.0183   -1.5875   -4.8729 C   0  0  0  0  0  0  0  0  0  0  0  0
  -27.0251   -0.3483   -5.4047 N   0  0  0  0  0  0  0  0  0  0  0  0
  -28.2248    0.2198   -5.6484 C   0  0  0  0  0  0  0  0  0  0  0  0
  -28.1568    1.4951   -6.2119 N   0  0  0  0  0  0  0  0  0  0  0  0
  -29.4395   -0.4390   -5.4203 C   0  0  0  0  0  0  0  0  0  0  0  0
  -30.9474    0.3501   -5.7317 Cl  0  0  0  0  0  0  0  0  0  0  0  0
  -27.1829    1.7852   -6.1989 H   0  0  0  0  0  0  0  0  0  0  0  0
  -28.7760    2.1470   -5.7436 H   0  0  0  0  0  0  0  0  0  0  0  0
  3  4  1  0  0  0
  4  5  2  0  0  0
  4 14  1  0  0  0
  5  6  1  0  0  0
  6  7  1  0  0  0
  6 11  2  0  0  0
  7  8  2  0  0  0
  8  9  1  0  0  0
  9 10  2  0  0  0
 10  1  1  0  0  0
 10 11  1  0  0  0
  1 22  1  0  0  0
  1  2  1  0  0  0
 22 23  1  0  0  0
 22 28  2  0  0  0
 23 24  2  0  0  0
 24 25  1  0  0  0
 25 29  1  0  0  0
 25 26  2  0  0  0
 29 30  1  0  0  0
 30 31  1  0  0  0
 30 36  2  0  0  0
 31 32  2  0  0  0
 32 33  1  0  0  0
 33 34  2  0  0  0
 34 35  1  0  0  0
 34 36  1  0  0  0
 35 38  1  0  0  0
 35 39  1  0  0  0
 36 37  1  0  0  0
 26 27  1  0  0  0
 26 28  1  0  0  0
 11 12  1  0  0  0
 12 13  2  0  0  0
 12 14  1  0  0  0
 14 15  1  0  0  0
 15 16  1  0  0  0
 15 21  2  0  0  0
 16 17  2  0  0  0
 17 18  1  0  0  0
 18 19  1  0  0  0
 18 20  2  0  0  0
 20 21  1  0  0  0
M  END
> <minimizedAffinity>
-9.89409

$$$$
