CHEMBL3894814


 35 38  0  0  0  0  0  0  0  0999 V2000
  -23.1754   -0.2905  -12.8012 C   0  0  0  0  0  0  0  0  0  0  0  0
  -23.0938   -1.6628  -12.5919 C   0  0  0  0  0  0  0  0  0  0  0  0
  -24.1635   -2.3538  -12.0034 C   0  0  0  0  0  0  0  0  0  0  0  0
  -25.3321   -1.6995  -11.5872 C   0  0  0  0  0  0  0  0  0  0  0  0
  -25.3973   -0.3152  -11.7759 C   0  0  0  0  0  0  0  0  0  0  0  0
  -24.3236    0.3832  -12.3724 C   0  0  0  0  0  0  0  0  0  0  0  0
  -26.4475   -2.3880  -11.0155 N   0  0  0  0  0  0  0  0  0  0  0  0
  -26.9257   -2.1501   -9.7344 C   0  0  0  0  0  0  0  0  0  0  0  0
  -26.4915   -1.2440   -9.0336 O   0  0  0  0  0  0  0  0  0  0  0  0
  -27.9109   -3.0414   -9.3110 N   0  0  0  0  0  0  0  0  0  0  0  0
  -27.0407   -2.9147  -11.6394 H   0  0  0  0  0  0  0  0  0  0  0  0
  -27.9553   -3.9338   -9.7791 H   0  0  0  0  0  0  0  0  0  0  0  0
  -28.5038   -2.9603   -8.0167 C   0  0  0  0  0  0  0  0  0  0  0  0
  -29.4697   -3.8792   -7.5837 C   0  0  0  0  0  0  0  0  0  0  0  0
  -30.1841   -3.6941   -6.4021 C   0  0  0  0  0  0  0  0  0  0  0  0
  -29.9104   -2.5993   -5.5967 C   0  0  0  0  0  0  0  0  0  0  0  0
  -28.8951   -1.7041   -5.9526 C   0  0  0  0  0  0  0  0  0  0  0  0
  -28.6150   -0.5273   -5.0618 C   0  0  0  0  0  0  0  0  0  0  0  0
  -28.1740   -1.9029   -7.1519 C   0  0  0  0  0  0  0  0  0  0  0  0
  -21.2292    0.9995  -14.0516 C   0  0  0  0  0  0  0  0  0  0  0  0
  -22.1127    0.4006  -13.4891 C   0  0  0  0  0  0  0  0  0  0  0  0
  -16.0036    2.0961  -16.1191 C   0  0  0  0  0  0  0  0  0  0  0  0
  -16.7565    1.0382  -15.6554 C   0  0  0  0  0  0  0  0  0  0  0  0
  -17.9945    1.5632  -15.3641 N   0  0  0  0  0  0  0  0  0  0  0  0
  -19.0646    0.8924  -14.8146 N   0  0  0  0  0  0  0  0  0  0  0  0
  -20.0914    1.6685  -14.6475 C   0  0  0  0  0  0  0  0  0  0  0  0
  -20.1878    3.1049  -15.0034 C   0  0  0  0  0  0  0  0  0  0  0  0
  -19.1007    3.6770  -15.5315 C   0  0  0  0  0  0  0  0  0  0  0  0
  -17.9370    2.9023  -15.7146 C   0  0  0  0  0  0  0  0  0  0  0  0
  -16.7496    3.2347  -16.1664 N   0  0  0  0  0  0  0  0  0  0  0  0
  -12.2776    2.0291  -16.2642 C   0  0  0  0  0  0  0  0  0  0  0  0
  -13.6245    2.1682  -15.5933 C   0  0  0  0  0  0  0  0  0  0  0  0
  -13.6877    2.3819  -14.3870 O   0  0  0  0  0  0  0  0  0  0  0  0
  -14.6764    2.0413  -16.4832 N   0  0  0  0  0  0  0  0  0  0  0  0
  -14.4749    1.8742  -17.4599 H   0  0  0  0  0  0  0  0  0  0  0  0
 31 32  1  0  0  0
 32 33  2  0  0  0
 32 34  1  0  0  0
 34 22  1  0  0  0
 34 35  1  0  0  0
 22 23  2  0  0  0
 22 30  1  0  0  0
 23 24  1  0  0  0
 24 25  1  0  0  0
 24 29  1  0  0  0
 25 26  2  0  0  0
 26 20  1  0  0  0
 26 27  1  0  0  0
 20 21  3  0  0  0
 21  1  1  0  0  0
  1  2  1  0  0  0
  1  6  2  0  0  0
  2  3  2  0  0  0
  3  4  1  0  0  0
  4  7  1  0  0  0
  4  5  2  0  0  0
  7  8  1  0  0  0
  7 11  1  0  0  0
  8  9  2  0  0  0
  8 10  1  0  0  0
 10 13  1  0  0  0
 10 12  1  0  0  0
 13 14  1  0  0  0
 13 19  2  0  0  0
 14 15  2  0  0  0
 15 16  1  0  0  0
 16 17  2  0  0  0
 17 18  1  0  0  0
 17 19  1  0  0  0
  5  6  1  0  0  0
 27 28  2  0  0  0
 28 29  1  0  0  0
 29 30  2  0  0  0
M  END
> <minimizedAffinity>
-12.15572

$$$$
