CHEMBL3397936


 34 37  0  0  0  0  0  0  0  0999 V2000
  -23.0104   -0.7737  -11.6610 O   0  0  0  0  0  0  0  0  0  0  0  0
  -23.9163   -0.5055  -12.4466 C   0  0  0  0  0  0  0  0  0  0  0  0
  -23.8337    0.3284  -13.5496 N   0  0  0  0  0  0  0  0  0  0  0  0
  -24.7005    0.5975  -13.9997 H   0  0  0  0  0  0  0  0  0  0  0  0
  -22.6715    1.0134  -13.9650 C   0  0  0  0  0  0  0  0  0  0  0  0
  -22.5259    2.3994  -13.8682 C   0  0  0  0  0  0  0  0  0  0  0  0
  -21.3828    3.0356  -14.3573 C   0  0  0  0  0  0  0  0  0  0  0  0
  -20.3575    2.2987  -14.9458 C   0  0  0  0  0  0  0  0  0  0  0  0
  -20.4923    0.9081  -15.0081 C   0  0  0  0  0  0  0  0  0  0  0  0
  -19.5479    0.1323  -15.5618 F   0  0  0  0  0  0  0  0  0  0  0  0
  -21.6287    0.2659  -14.5113 C   0  0  0  0  0  0  0  0  0  0  0  0
  -19.3140    3.0617  -15.3984 O   0  0  0  0  0  0  0  0  0  0  0  0
  -18.0473    2.8018  -14.7942 C   0  0  0  0  0  0  0  0  0  0  0  0
  -17.0733    2.2679  -15.8559 C   0  0  0  0  0  0  0  0  0  0  0  0
  -16.1786    1.2048  -15.3518 N   0  0  0  0  0  0  0  0  0  0  0  0
  -14.7887    1.6725  -15.2257 C   0  0  0  0  0  0  0  0  0  0  0  0
  -13.8616    0.5641  -14.7315 C   0  0  0  0  0  0  0  0  0  0  0  0
  -14.3491   -0.0141  -13.4123 C   0  0  0  0  0  0  0  0  0  0  0  0
  -15.8056   -0.4445  -13.5343 C   0  0  0  0  0  0  0  0  0  0  0  0
  -16.6806    0.6924  -14.0663 C   0  0  0  0  0  0  0  0  0  0  0  0
  -25.2586   -1.0607  -12.1528 C   0  0  0  0  0  0  0  0  0  0  0  0
  -26.0555   -1.4459  -13.2344 C   0  0  0  0  0  0  0  0  0  0  0  0
  -27.3305   -1.9462  -13.0093 C   0  0  0  0  0  0  0  0  0  0  0  0
  -27.8003   -2.0777  -11.7000 C   0  0  0  0  0  0  0  0  0  0  0  0
  -27.0064   -1.7322  -10.5866 C   0  0  0  0  0  0  0  0  0  0  0  0
  -25.7342   -1.1895  -10.8425 C   0  0  0  0  0  0  0  0  0  0  0  0
  -27.4479   -2.0179   -9.2000 C   0  0  0  0  0  0  0  0  0  0  0  0
  -27.5661   -0.9788   -8.2582 C   0  0  0  0  0  0  0  0  0  0  0  0
  -28.0951   -1.1982   -6.9842 C   0  0  0  0  0  0  0  0  0  0  0  0
  -28.5381   -2.4671   -6.6222 C   0  0  0  0  0  0  0  0  0  0  0  0
  -28.4179   -3.5080   -7.5350 C   0  0  0  0  0  0  0  0  0  0  0  0
  -28.8785   -4.7576   -7.2422 O   0  0  0  0  0  0  0  0  0  0  0  0
  -27.8586   -3.3014   -8.7951 C   0  0  0  0  0  0  0  0  0  0  0  0
  -29.3861   -4.7119   -6.4147 H   0  0  0  0  0  0  0  0  0  0  0  0
  1  2  2  0  0  0
  2  3  1  0  0  0
  2 21  1  0  0  0
  3  5  1  0  0  0
  3  4  1  0  0  0
  5  6  1  0  0  0
  5 11  2  0  0  0
  6  7  2  0  0  0
  7  8  1  0  0  0
  8 12  1  0  0  0
  8  9  2  0  0  0
 12 13  1  0  0  0
 13 14  1  0  0  0
 14 15  1  0  0  0
 15 16  1  0  0  0
 15 20  1  0  0  0
 16 17  1  0  0  0
 17 18  1  0  0  0
 18 19  1  0  0  0
 19 20  1  0  0  0
  9 10  1  0  0  0
  9 11  1  0  0  0
 21 22  1  0  0  0
 21 26  2  0  0  0
 22 23  2  0  0  0
 23 24  1  0  0  0
 24 25  2  0  0  0
 25 27  1  0  0  0
 25 26  1  0  0  0
 27 28  1  0  0  0
 27 33  2  0  0  0
 28 29  2  0  0  0
 29 30  1  0  0  0
 30 31  2  0  0  0
 31 32  1  0  0  0
 31 33  1  0  0  0
 32 34  1  0  0  0
M  END
> <minimizedAffinity>
-10.04750

$$$$
