CHEMBL236420


 26 28  0  0  0  0  0  0  0  0999 V2000
  -27.4695   -2.7180   -9.8286 N   0  0  0  0  0  0  0  0  0  0  0  0
  -27.6647   -2.1625   -8.5724 C   0  0  0  0  0  0  0  0  0  0  0  0
  -27.2266   -1.0769   -8.2118 O   0  0  0  0  0  0  0  0  0  0  0  0
  -27.9451   -3.5867  -10.0274 H   0  0  0  0  0  0  0  0  0  0  0  0
  -25.1245   -1.2901  -13.0748 C   0  0  0  0  0  0  0  0  0  0  0  0
  -24.5645   -1.4232  -11.7992 C   0  0  0  0  0  0  0  0  0  0  0  0
  -25.3277   -1.8646  -10.7173 C   0  0  0  0  0  0  0  0  0  0  0  0
  -26.6695   -2.1958  -10.8714 C   0  0  0  0  0  0  0  0  0  0  0  0
  -27.2485   -2.0318  -12.1355 C   0  0  0  0  0  0  0  0  0  0  0  0
  -26.4837   -1.5898  -13.2287 C   0  0  0  0  0  0  0  0  0  0  0  0
  -25.0061   -0.8323  -15.5273 C   0  0  0  0  0  0  0  0  0  0  0  0
  -24.2067   -0.9073  -14.2228 C   0  0  0  0  0  0  0  0  0  0  0  0
  -23.4088    0.3790  -14.0073 C   0  0  0  0  0  0  0  0  0  0  0  0
  -28.4694   -2.9686   -7.6775 C   0  0  0  0  0  0  0  0  0  0  0  0
  -29.4826   -3.8751   -7.9492 C   0  0  0  0  0  0  0  0  0  0  0  0
  -29.8402   -4.4231   -6.7086 C   0  0  0  0  0  0  0  0  0  0  0  0
  -29.1506   -3.8871   -5.7048 N   0  0  0  0  0  0  0  0  0  0  0  0
  -28.3002   -3.0255   -6.3074 N   0  0  0  0  0  0  0  0  0  0  0  0
  -27.3113   -2.3446   -5.4799 C   0  0  0  0  0  0  0  0  0  0  0  0
  -27.9083   -1.3373   -4.4946 C   0  0  0  0  0  0  0  0  0  0  0  0
  -28.7237   -0.2715   -5.1889 C   0  0  0  0  0  0  0  0  0  0  0  0
  -28.0981    0.7585   -5.8978 C   0  0  0  0  0  0  0  0  0  0  0  0
  -28.8866    1.7125   -6.5222 C   0  0  0  0  0  0  0  0  0  0  0  0
  -30.2372    1.7157   -6.4836 N   0  0  0  0  0  0  0  0  0  0  0  0
  -30.8223    0.7176   -5.7891 C   0  0  0  0  0  0  0  0  0  0  0  0
  -30.1197   -0.2829   -5.1320 C   0  0  0  0  0  0  0  0  0  0  0  0
 11 12  1  0  0  0
 12 13  1  0  0  0
 12  5  1  0  0  0
  5  6  1  0  0  0
  5 10  2  0  0  0
  6  7  2  0  0  0
  7  8  1  0  0  0
  8  1  1  0  0  0
  8  9  2  0  0  0
  1  2  1  0  0  0
  1  4  1  0  0  0
  2  3  2  0  0  0
  2 14  1  0  0  0
 14 15  2  0  0  0
 14 18  1  0  0  0
 15 16  1  0  0  0
 16 17  2  0  0  0
 17 18  1  0  0  0
 18 19  1  0  0  0
 19 20  1  0  0  0
 20 21  1  0  0  0
 21 22  1  0  0  0
 21 26  2  0  0  0
 22 23  2  0  0  0
 23 24  1  0  0  0
 24 25  2  0  0  0
 25 26  1  0  0  0
  9 10  1  0  0  0
M  END
> <minimizedAffinity>
-8.42337

$$$$
