CHEMBL3671560


 36 39  0  0  0  0  0  0  0  0999 V2000
  -28.2960   -5.1176   -7.0125 C   0  0  0  0  0  0  0  0  0  0  0  0
  -28.1381   -4.1171   -7.9719 C   0  0  0  0  0  0  0  0  0  0  0  0
  -28.1441   -2.7525   -7.6200 C   0  0  0  0  0  0  0  0  0  0  0  0
  -28.0311   -1.7097   -8.5540 C   0  0  0  0  0  0  0  0  0  0  0  0
  -27.9991   -0.4262   -8.1668 N   0  0  0  0  0  0  0  0  0  0  0  0
  -28.1351   -0.1894   -6.8674 C   0  0  0  0  0  0  0  0  0  0  0  0
  -28.2680   -1.1068   -5.8930 N   0  0  0  0  0  0  0  0  0  0  0  0
  -28.2613   -2.3887   -6.2817 C   0  0  0  0  0  0  0  0  0  0  0  0
  -28.3640   -3.3963   -5.3207 C   0  0  0  0  0  0  0  0  0  0  0  0
  -28.3434   -4.7644   -5.6611 C   0  0  0  0  0  0  0  0  0  0  0  0
  -29.7398   -6.9535   -7.6657 C   0  0  0  0  0  0  0  0  0  0  0  0
  -30.7913   -6.3595   -7.4664 O   0  0  0  0  0  0  0  0  0  0  0  0
  -28.4700   -6.4255   -7.5159 N   0  0  0  0  0  0  0  0  0  0  0  0
  -27.6654   -7.0226   -7.6143 H   0  0  0  0  0  0  0  0  0  0  0  0
  -28.6295   -8.9064   -8.6334 C   0  0  0  0  0  0  0  0  0  0  0  0
  -29.7235   -8.3867   -8.0607 C   0  0  0  0  0  0  0  0  0  0  0  0
  -27.9447   -2.0281   -9.9245 N   0  0  0  0  0  0  0  0  0  0  0  0
  -28.8460   -2.2870  -10.3245 H   0  0  0  0  0  0  0  0  0  0  0  0
  -27.0036   -1.5943  -10.8718 C   0  0  0  0  0  0  0  0  0  0  0  0
  -25.7083   -1.2159  -10.4993 C   0  0  0  0  0  0  0  0  0  0  0  0
  -24.7221   -0.9959  -11.4629 C   0  0  0  0  0  0  0  0  0  0  0  0
  -25.0315   -1.1281  -12.8148 C   0  0  0  0  0  0  0  0  0  0  0  0
  -23.6591   -0.9807  -14.1055 Br  0  0  0  0  0  0  0  0  0  0  0  0
  -26.3321   -1.4160  -13.2160 C   0  0  0  0  0  0  0  0  0  0  0  0
  -27.2997   -1.6500  -12.2422 C   0  0  0  0  0  0  0  0  0  0  0  0
  -28.5447   -1.9661  -12.6351 F   0  0  0  0  0  0  0  0  0  0  0  0
  -28.4868   -5.5939   -4.5679 O   0  0  0  0  0  0  0  0  0  0  0  0
  -29.8262   -5.8174   -4.1337 C   0  0  0  0  0  0  0  0  0  0  0  0
  -29.9663   -7.1848   -3.4589 C   0  0  0  0  0  0  0  0  0  0  0  0
  -29.8210   -8.2534   -4.4409 N   0  0  0  0  0  0  0  0  0  0  0  0
  -30.6511   -8.4974   -4.9695 H   0  0  0  0  0  0  0  0  0  0  0  0
  -28.8953   -9.2188   -4.2395 C   0  0  0  0  0  0  0  0  0  0  0  0
  -29.0725  -10.2904   -3.5029 N   0  0  0  0  0  0  0  0  0  0  0  0
  -27.9307  -11.0691   -3.5042 C   0  0  0  0  0  0  0  0  0  0  0  0
  -26.8795  -10.5749   -4.2428 C   0  0  0  0  0  0  0  0  0  0  0  0
  -27.3333   -9.0866   -4.9587 S   0  0  0  0  0  0  0  0  0  0  0  0
 15 16  2  0  0  0
 16 11  1  0  0  0
 11 12  2  0  0  0
 11 13  1  0  0  0
 13  1  1  0  0  0
 13 14  1  0  0  0
  1  2  1  0  0  0
  1 10  2  0  0  0
  2  3  2  0  0  0
  3  4  1  0  0  0
  3  8  1  0  0  0
  4 17  1  0  0  0
  4  5  2  0  0  0
 17 19  1  0  0  0
 17 18  1  0  0  0
 19 20  1  0  0  0
 19 25  2  0  0  0
 20 21  2  0  0  0
 21 22  1  0  0  0
 22 23  1  0  0  0
 22 24  2  0  0  0
 24 25  1  0  0  0
 25 26  1  0  0  0
  5  6  1  0  0  0
  6  7  2  0  0  0
  7  8  1  0  0  0
  8  9  2  0  0  0
  9 10  1  0  0  0
 10 27  1  0  0  0
 27 28  1  0  0  0
 28 29  1  0  0  0
 29 30  1  0  0  0
 30 32  1  0  0  0
 30 31  1  0  0  0
 32 33  2  0  0  0
 32 36  1  0  0  0
 33 34  1  0  0  0
 34 35  2  0  0  0
 35 36  1  0  0  0
M  END
> <minimizedAffinity>
-8.03920

$$$$
