CHEMBL4549103


 32 35  0  0  0  0  0  0  0  0999 V2000
  -25.1634   -1.7831  -11.8229 C   0  0  0  0  0  0  0  0  0  0  0  0
  -25.9492   -1.9503  -12.8968 N   0  0  0  0  0  0  0  0  0  0  0  0
  -27.2705   -1.8370  -12.6745 C   0  0  0  0  0  0  0  0  0  0  0  0
  -27.8169   -1.5634  -11.4440 C   0  0  0  0  0  0  0  0  0  0  0  0
  -26.9320   -1.3912  -10.3975 C   0  0  0  0  0  0  0  0  0  0  0  0
  -25.6095   -1.4964  -10.5911 N   0  0  0  0  0  0  0  0  0  0  0  0
  -27.4671   -1.1874   -9.1078 N   0  0  0  0  0  0  0  0  0  0  0  0
  -27.1786   -0.3014   -8.7145 H   0  0  0  0  0  0  0  0  0  0  0  0
  -27.8384   -2.1338   -8.1326 C   0  0  0  0  0  0  0  0  0  0  0  0
  -28.4032   -3.3701   -8.4422 C   0  0  0  0  0  0  0  0  0  0  0  0
  -28.9044   -4.2174   -7.4461 C   0  0  0  0  0  0  0  0  0  0  0  0
  -28.8943   -3.8546   -6.0974 C   0  0  0  0  0  0  0  0  0  0  0  0
  -28.3266   -2.6118   -5.7904 C   0  0  0  0  0  0  0  0  0  0  0  0
  -27.8079   -1.7667   -6.7833 C   0  0  0  0  0  0  0  0  0  0  0  0
  -29.4206   -4.6666   -5.1188 N   0  0  0  0  0  0  0  0  0  0  0  0
  -29.6945   -6.0950   -5.3263 C   0  0  0  0  0  0  0  0  0  0  0  0
  -31.1740   -6.4004   -5.0560 C   0  0  0  0  0  0  0  0  0  0  0  0
  -31.5801   -5.9403   -3.7550 O   0  0  0  0  0  0  0  0  0  0  0  0
  -31.3900   -4.5193   -3.6525 C   0  0  0  0  0  0  0  0  0  0  0  0
  -29.9160   -4.1228   -3.8469 C   0  0  0  0  0  0  0  0  0  0  0  0
  -23.4107   -2.0202  -11.9696 S   0  0  0  0  0  0  0  0  0  0  0  0
  -22.8630   -0.3099  -12.2377 C   0  0  0  0  0  0  0  0  0  0  0  0
  -22.8332    0.0590  -13.7185 C   0  0  0  0  0  0  0  0  0  0  0  0
  -23.6273   -0.3758  -14.5560 O   0  0  0  0  0  0  0  0  0  0  0  0
  -19.8083    2.8362  -15.0396 C   0  0  0  0  0  0  0  0  0  0  0  0
  -20.9897    3.2993  -14.4599 C   0  0  0  0  0  0  0  0  0  0  0  0
  -21.9679    2.3887  -14.0350 C   0  0  0  0  0  0  0  0  0  0  0  0
  -21.7739    1.0071  -14.1834 C   0  0  0  0  0  0  0  0  0  0  0  0
  -20.5849    0.5521  -14.7616 C   0  0  0  0  0  0  0  0  0  0  0  0
  -19.6140    1.4619  -15.1823 C   0  0  0  0  0  0  0  0  0  0  0  0
  -17.6193    2.9211  -15.9584 C   0  0  0  0  0  0  0  0  0  0  0  0
  -18.7797    3.6062  -15.5042 O   0  0  0  0  0  0  0  0  0  0  0  0
 31 32  1  0  0  0
 32 25  1  0  0  0
 25 26  1  0  0  0
 25 30  2  0  0  0
 26 27  2  0  0  0
 27 28  1  0  0  0
 28 23  1  0  0  0
 28 29  2  0  0  0
 23 24  2  0  0  0
 23 22  1  0  0  0
 22 21  1  0  0  0
 21  1  1  0  0  0
  1  2  1  0  0  0
  1  6  2  0  0  0
  2  3  2  0  0  0
  3  4  1  0  0  0
  4  5  2  0  0  0
  5  7  1  0  0  0
  5  6  1  0  0  0
  7  9  1  0  0  0
  7  8  1  0  0  0
  9 10  1  0  0  0
  9 14  2  0  0  0
 10 11  2  0  0  0
 11 12  1  0  0  0
 12 15  1  0  0  0
 12 13  2  0  0  0
 15 16  1  0  0  0
 15 20  1  0  0  0
 16 17  1  0  0  0
 17 18  1  0  0  0
 18 19  1  0  0  0
 19 20  1  0  0  0
 13 14  1  0  0  0
 29 30  1  0  0  0
M  END
> <minimizedAffinity>
-10.17401

$$$$
