CHEMBL4795648


 49 54  0  0  0  0  0  0  0  0999 V2000
  -23.8950   -0.9477  -12.9536 C   0  0  0  0  0  0  0  0  0  0  0  0
  -25.2042   -1.1892  -13.3735 C   0  0  0  0  0  0  0  0  0  0  0  0
  -26.1667   -1.6803  -12.4705 C   0  0  0  0  0  0  0  0  0  0  0  0
  -25.8342   -1.9554  -11.1351 C   0  0  0  0  0  0  0  0  0  0  0  0
  -24.5315   -1.6585  -10.7197 C   0  0  0  0  0  0  0  0  0  0  0  0
  -23.5711   -1.1927  -11.6187 C   0  0  0  0  0  0  0  0  0  0  0  0
  -22.3160   -1.0431  -11.1682 F   0  0  0  0  0  0  0  0  0  0  0  0
  -26.7798   -2.5681  -10.2822 N   0  0  0  0  0  0  0  0  0  0  0  0
  -26.7448   -3.5890  -10.2683 H   0  0  0  0  0  0  0  0  0  0  0  0
  -27.3353   -2.0542   -9.0829 C   0  0  0  0  0  0  0  0  0  0  0  0
  -27.3023   -0.7136   -8.8780 N   0  0  0  0  0  0  0  0  0  0  0  0
  -27.8565   -0.1905   -7.7704 C   0  0  0  0  0  0  0  0  0  0  0  0
  -28.4695   -0.9437   -6.7946 C   0  0  0  0  0  0  0  0  0  0  0  0
  -28.4989   -2.3237   -6.9660 C   0  0  0  0  0  0  0  0  0  0  0  0
  -29.1484   -3.1325   -6.0202 N   0  0  0  0  0  0  0  0  0  0  0  0
  -29.1542   -4.4938   -6.1492 C   0  0  0  0  0  0  0  0  0  0  0  0
  -28.6332   -5.1681   -7.1848 C   0  0  0  0  0  0  0  0  0  0  0  0
  -27.9619   -4.3720   -8.2621 C   0  0  0  0  0  0  0  0  0  0  0  0
  -27.3971   -4.9234   -9.2027 O   0  0  0  0  0  0  0  0  0  0  0  0
  -27.9441   -2.8859   -8.1328 C   0  0  0  0  0  0  0  0  0  0  0  0
  -29.3630   -2.7380   -5.1105 H   0  0  0  0  0  0  0  0  0  0  0  0
  -28.6427   -6.6349   -7.1859 C   0  0  0  0  0  0  0  0  0  0  0  0
  -28.9707   -7.3531   -8.3461 C   0  0  0  0  0  0  0  0  0  0  0  0
  -29.0140   -8.7489   -8.3159 C   0  0  0  0  0  0  0  0  0  0  0  0
  -28.7307   -9.4221   -7.1310 C   0  0  0  0  0  0  0  0  0  0  0  0
  -28.7802  -10.7603   -7.1004 F   0  0  0  0  0  0  0  0  0  0  0  0
  -28.4097   -8.7245   -5.9734 C   0  0  0  0  0  0  0  0  0  0  0  0
  -28.3643   -7.3301   -6.0008 C   0  0  0  0  0  0  0  0  0  0  0  0
  -22.9862   -0.5859  -13.9290 O   0  0  0  0  0  0  0  0  0  0  0  0
  -18.8457    1.9892  -15.4190 C   0  0  0  0  0  0  0  0  0  0  0  0
  -19.8687    2.8763  -15.0447 C   0  0  0  0  0  0  0  0  0  0  0  0
  -21.1070    2.4559  -14.5731 C   0  0  0  0  0  0  0  0  0  0  0  0
  -21.9980    3.3782  -14.1882 N   0  0  0  0  0  0  0  0  0  0  0  0
  -23.1868    2.9374  -13.7537 C   0  0  0  0  0  0  0  0  0  0  0  0
  -23.5835    1.6662  -13.6989 N   0  0  0  0  0  0  0  0  0  0  0  0
  -22.6468    0.7595  -14.0397 C   0  0  0  0  0  0  0  0  0  0  0  0
  -21.3669    1.0864  -14.5157 C   0  0  0  0  0  0  0  0  0  0  0  0
  -20.3419    0.1732  -14.8697 C   0  0  0  0  0  0  0  0  0  0  0  0
  -19.0556    0.6191  -15.2176 C   0  0  0  0  0  0  0  0  0  0  0  0
  -17.7459    2.6520  -15.9040 O   0  0  0  0  0  0  0  0  0  0  0  0
  -17.4775    3.9763  -15.4552 C   0  0  0  0  0  0  0  0  0  0  0  0
  -16.3059    4.6070  -16.1966 C   0  0  0  0  0  0  0  0  0  0  0  0
  -14.2712    3.4209  -15.9411 C   0  0  0  0  0  0  0  0  0  0  0  0
  -15.1414    4.3961  -15.3938 O   0  0  0  0  0  0  0  0  0  0  0  0
  -18.1327   -0.3976  -15.2509 O   0  0  0  0  0  0  0  0  0  0  0  0
  -16.8189   -0.0374  -14.8258 C   0  0  0  0  0  0  0  0  0  0  0  0
  -16.6872    0.3848  -13.3737 C   0  0  0  0  0  0  0  0  0  0  0  0
  -15.4487   -0.2009  -12.9555 O   0  0  0  0  0  0  0  0  0  0  0  0
  -15.5465   -1.5502  -12.5552 C   0  0  0  0  0  0  0  0  0  0  0  0
 43 44  1  0  0  0
 44 42  1  0  0  0
 42 41  1  0  0  0
 41 40  1  0  0  0
 40 30  1  0  0  0
 30 31  1  0  0  0
 30 39  2  0  0  0
 31 32  2  0  0  0
 32 33  1  0  0  0
 32 37  1  0  0  0
 33 34  2  0  0  0
 34 35  1  0  0  0
 35 36  2  0  0  0
 36 29  1  0  0  0
 36 37  1  0  0  0
 29  1  1  0  0  0
  1  2  1  0  0  0
  1  6  2  0  0  0
  2  3  2  0  0  0
  3  4  1  0  0  0
  4  8  1  0  0  0
  4  5  2  0  0  0
  8 10  1  0  0  0
  8  9  1  0  0  0
 10 11  1  0  0  0
 10 20  2  0  0  0
 11 12  2  0  0  0
 12 13  1  0  0  0
 13 14  2  0  0  0
 14 15  1  0  0  0
 14 20  1  0  0  0
 15 16  1  0  0  0
 15 21  1  0  0  0
 16 17  2  0  0  0
 17 22  1  0  0  0
 17 18  1  0  0  0
 22 23  1  0  0  0
 22 28  2  0  0  0
 23 24  2  0  0  0
 24 25  1  0  0  0
 25 26  1  0  0  0
 25 27  2  0  0  0
 27 28  1  0  0  0
 18 19  2  0  0  0
 18 20  1  0  0  0
  5  6  1  0  0  0
  6  7  1  0  0  0
 37 38  2  0  0  0
 38 39  1  0  0  0
 39 45  1  0  0  0
 45 46  1  0  0  0
 46 47  1  0  0  0
 47 48  1  0  0  0
 48 49  1  0  0  0
M  END
> <minimizedAffinity>
-7.83045

$$$$
