CHEMBL2335016


 36 39  0  0  0  0  0  0  0  0999 V2000
  -28.8085   -4.9142   -5.9431 C   0  0  0  0  0  0  0  0  0  0  0  0
  -28.3257   -5.6774   -4.9584 N   0  0  0  0  0  0  0  0  0  0  0  0
  -28.6209   -6.9955   -4.8766 C   0  0  0  0  0  0  0  0  0  0  0  0
  -29.4476   -7.5285   -5.8735 C   0  0  0  0  0  0  0  0  0  0  0  0
  -29.9405   -8.8126   -6.2389 C   0  0  0  0  0  0  0  0  0  0  0  0
  -30.6815   -8.6764   -7.4022 C   0  0  0  0  0  0  0  0  0  0  0  0
  -30.6915   -7.3323   -7.7113 N   0  0  0  0  0  0  0  0  0  0  0  0
  -29.9170   -6.6359   -6.8228 C   0  0  0  0  0  0  0  0  0  0  0  0
  -29.6600   -5.3200   -6.8989 N   0  0  0  0  0  0  0  0  0  0  0  0
  -31.1540   -6.9002   -8.4979 H   0  0  0  0  0  0  0  0  0  0  0  0
  -29.1366   -2.5184   -5.5163 C   0  0  0  0  0  0  0  0  0  0  0  0
  -30.1878   -2.6180   -4.8895 O   0  0  0  0  0  0  0  0  0  0  0  0
  -28.4198   -3.5786   -6.0314 N   0  0  0  0  0  0  0  0  0  0  0  0
  -27.4877   -3.4567   -6.3887 H   0  0  0  0  0  0  0  0  0  0  0  0
  -28.0088   -1.0643   -7.2273 C   0  0  0  0  0  0  0  0  0  0  0  0
  -28.5143   -1.1282   -5.7710 C   0  0  0  0  0  0  0  0  0  0  0  0
  -27.3222   -0.9185   -4.8284 C   0  0  0  0  0  0  0  0  0  0  0  0
  -29.5529   -0.0152   -5.5738 C   0  0  0  0  0  0  0  0  0  0  0  0
  -28.0894   -7.7537   -3.8253 N   0  0  0  0  0  0  0  0  0  0  0  0
  -28.4295   -7.5241   -2.9036 H   0  0  0  0  0  0  0  0  0  0  0  0
  -27.2901   -8.9054   -3.9267 C   0  0  0  0  0  0  0  0  0  0  0  0
  -27.7919  -10.1430   -3.4971 C   0  0  0  0  0  0  0  0  0  0  0  0
  -26.9856  -11.2871   -3.5220 C   0  0  0  0  0  0  0  0  0  0  0  0
  -25.6758  -11.2028   -3.9818 C   0  0  0  0  0  0  0  0  0  0  0  0
  -24.9250  -12.3154   -4.0047 F   0  0  0  0  0  0  0  0  0  0  0  0
  -25.1566   -9.9859   -4.4038 C   0  0  0  0  0  0  0  0  0  0  0  0
  -23.5429   -9.8713   -4.9971 Cl  0  0  0  0  0  0  0  0  0  0  0  0
  -25.9572   -8.8448   -4.3632 C   0  0  0  0  0  0  0  0  0  0  0  0
  -31.3946   -9.7212   -8.2148 C   0  0  0  0  0  0  0  0  0  0  0  0
  -30.6144  -11.0283   -8.3703 C   0  0  0  0  0  0  0  0  0  0  0  0
  -29.3287  -10.8343   -9.1322 C   0  0  0  0  0  0  0  0  0  0  0  0
  -29.3405  -10.3439  -10.4354 C   0  0  0  0  0  0  0  0  0  0  0  0
  -28.1309  -10.2044  -11.1114 C   0  0  0  0  0  0  0  0  0  0  0  0
  -26.9479  -10.5508  -10.4710 C   0  0  0  0  0  0  0  0  0  0  0  0
  -27.0240  -11.0178   -9.1701 C   0  0  0  0  0  0  0  0  0  0  0  0
  -28.1822  -11.1627   -8.4887 N   0  0  0  0  0  0  0  0  0  0  0  0
 15 16  1  0  0  0
 16 17  1  0  0  0
 16 18  1  0  0  0
 16 11  1  0  0  0
 11 12  2  0  0  0
 11 13  1  0  0  0
 13  1  1  0  0  0
 13 14  1  0  0  0
  1  2  1  0  0  0
  1  9  2  0  0  0
  2  3  2  0  0  0
  3 19  1  0  0  0
  3  4  1  0  0  0
 19 21  1  0  0  0
 19 20  1  0  0  0
 21 22  1  0  0  0
 21 28  2  0  0  0
 22 23  2  0  0  0
 23 24  1  0  0  0
 24 25  1  0  0  0
 24 26  2  0  0  0
 26 27  1  0  0  0
 26 28  1  0  0  0
  4  5  1  0  0  0
  4  8  2  0  0  0
  5  6  2  0  0  0
  6 29  1  0  0  0
  6  7  1  0  0  0
 29 30  1  0  0  0
 30 31  1  0  0  0
 31 32  1  0  0  0
 31 36  2  0  0  0
 32 33  2  0  0  0
 33 34  1  0  0  0
 34 35  2  0  0  0
 35 36  1  0  0  0
  7  8  1  0  0  0
  7 10  1  0  0  0
  8  9  1  0  0  0
M  END
> <minimizedAffinity>
-8.56795

$$$$
