CHEMBL197287


 35 38  0  0  0  0  0  0  0  0999 V2000
  -29.5344   -2.6004   -5.1828 C   0  0  0  0  0  0  0  0  0  0  0  0
  -29.1647   -1.7499   -4.2098 N   0  0  0  0  0  0  0  0  0  0  0  0
  -28.2641   -0.8197   -4.5205 C   0  0  0  0  0  0  0  0  0  0  0  0
  -27.6452   -0.6959   -5.6956 N   0  0  0  0  0  0  0  0  0  0  0  0
  -27.9959   -1.5573   -6.6502 C   0  0  0  0  0  0  0  0  0  0  0  0
  -27.3456   -1.4430   -7.8709 C   0  0  0  0  0  0  0  0  0  0  0  0
  -27.6927   -2.2337   -8.9605 C   0  0  0  0  0  0  0  0  0  0  0  0
  -28.6748   -3.2005   -8.8202 C   0  0  0  0  0  0  0  0  0  0  0  0
  -29.2939   -3.3975   -7.5872 C   0  0  0  0  0  0  0  0  0  0  0  0
  -28.9713   -2.5530   -6.4831 C   0  0  0  0  0  0  0  0  0  0  0  0
  -30.4335   -3.6368   -4.8295 N   0  0  0  0  0  0  0  0  0  0  0  0
  -31.2566   -3.2502   -4.3697 H   0  0  0  0  0  0  0  0  0  0  0  0
  -28.3494   -6.6073   -4.1438 C   0  0  0  0  0  0  0  0  0  0  0  0
  -29.1772   -7.2777   -3.2514 C   0  0  0  0  0  0  0  0  0  0  0  0
  -30.4133   -6.8663   -2.9001 N   0  0  0  0  0  0  0  0  0  0  0  0
  -30.8248   -5.6866   -3.4236 C   0  0  0  0  0  0  0  0  0  0  0  0
  -32.4797   -5.3716   -3.0492 Cl  0  0  0  0  0  0  0  0  0  0  0  0
  -30.0483   -4.8756   -4.2665 C   0  0  0  0  0  0  0  0  0  0  0  0
  -28.8095   -5.4016   -4.6637 C   0  0  0  0  0  0  0  0  0  0  0  0
  -27.1862   -8.6209   -4.5994 C   0  0  0  0  0  0  0  0  0  0  0  0
  -27.1581   -7.2077   -4.4232 O   0  0  0  0  0  0  0  0  0  0  0  0
  -26.9809   -2.0111  -10.1044 O   0  0  0  0  0  0  0  0  0  0  0  0
  -27.7015   -1.4419  -11.1951 C   0  0  0  0  0  0  0  0  0  0  0  0
  -27.0520   -1.9081  -12.4854 C   0  0  0  0  0  0  0  0  0  0  0  0
  -25.9485   -0.9270  -12.8763 C   0  0  0  0  0  0  0  0  0  0  0  0
  -24.7972   -1.5667  -13.5268 N   0  0  0  0  0  0  0  0  0  0  0  0
  -24.0254   -2.3700  -12.5482 C   0  0  0  0  0  0  0  0  0  0  0  0
  -23.2243   -1.5225  -11.5404 C   0  0  0  0  0  0  0  0  0  0  0  0
  -22.3713   -0.5753  -12.1946 O   0  0  0  0  0  0  0  0  0  0  0  0
  -23.1140    0.2507  -13.1019 C   0  0  0  0  0  0  0  0  0  0  0  0
  -23.8585   -0.6018  -14.1386 C   0  0  0  0  0  0  0  0  0  0  0  0
  -30.2368   -4.3781   -7.3885 O   0  0  0  0  0  0  0  0  0  0  0  0
  -30.0248   -5.6694   -7.9893 C   0  0  0  0  0  0  0  0  0  0  0  0
  -28.5796   -6.1446   -7.8238 C   0  0  0  0  0  0  0  0  0  0  0  0
  -30.9488   -6.6383   -7.2560 C   0  0  0  0  0  0  0  0  0  0  0  0
 20 21  1  0  0  0
 21 13  1  0  0  0
 13 14  1  0  0  0
 13 19  2  0  0  0
 14 15  2  0  0  0
 15 16  1  0  0  0
 16 17  1  0  0  0
 16 18  2  0  0  0
 18 11  1  0  0  0
 18 19  1  0  0  0
 11  1  1  0  0  0
 11 12  1  0  0  0
  1  2  1  0  0  0
  1 10  2  0  0  0
  2  3  2  0  0  0
  3  4  1  0  0  0
  4  5  2  0  0  0
  5  6  1  0  0  0
  5 10  1  0  0  0
  6  7  2  0  0  0
  7 22  1  0  0  0
  7  8  1  0  0  0
 22 23  1  0  0  0
 23 24  1  0  0  0
 24 25  1  0  0  0
 25 26  1  0  0  0
 26 27  1  0  0  0
 26 31  1  0  0  0
 27 28  1  0  0  0
 28 29  1  0  0  0
 29 30  1  0  0  0
 30 31  1  0  0  0
  8  9  2  0  0  0
  9 32  1  0  0  0
  9 10  1  0  0  0
 32 33  1  0  0  0
 33 34  1  0  0  0
 33 35  1  0  0  0
M  END
> <minimizedAffinity>
-7.91867

$$$$
