CHEMBL3952726


 37 40  0  0  0  0  0  0  0  0999 V2000
  -19.8422    1.6915  -14.2258 C   0  0  0  0  0  0  0  0  0  0  0  0
  -19.8201    3.0640  -14.4862 C   0  0  0  0  0  0  0  0  0  0  0  0
  -18.8418    3.6102  -15.3237 C   0  0  0  0  0  0  0  0  0  0  0  0
  -17.8901    2.7580  -15.8600 C   0  0  0  0  0  0  0  0  0  0  0  0
  -17.8484    1.4346  -15.5850 N   0  0  0  0  0  0  0  0  0  0  0  0
  -18.8266    0.9348  -14.7966 C   0  0  0  0  0  0  0  0  0  0  0  0
  -22.4607    0.8027  -15.0375 O   0  0  0  0  0  0  0  0  0  0  0  0
  -22.0638    0.6275  -13.8901 C   0  0  0  0  0  0  0  0  0  0  0  0
  -20.8208    1.0337  -13.4436 N   0  0  0  0  0  0  0  0  0  0  0  0
  -22.7866   -0.0227  -12.9006 N   0  0  0  0  0  0  0  0  0  0  0  0
  -20.5223    0.6903  -12.5421 H   0  0  0  0  0  0  0  0  0  0  0  0
  -22.4242    0.0276  -11.9593 H   0  0  0  0  0  0  0  0  0  0  0  0
  -24.0531   -0.6351  -13.0611 C   0  0  0  0  0  0  0  0  0  0  0  0
  -24.5257   -1.1057  -14.2844 C   0  0  0  0  0  0  0  0  0  0  0  0
  -25.8006   -1.6650  -14.3909 C   0  0  0  0  0  0  0  0  0  0  0  0
  -26.6227   -1.7812  -13.2717 C   0  0  0  0  0  0  0  0  0  0  0  0
  -28.1848   -2.4574  -13.5433 Cl  0  0  0  0  0  0  0  0  0  0  0  0
  -26.1660   -1.3547  -12.0219 C   0  0  0  0  0  0  0  0  0  0  0  0
  -24.8681   -0.7842  -11.9344 C   0  0  0  0  0  0  0  0  0  0  0  0
  -26.9621   -1.4701  -10.7479 C   0  0  0  0  0  0  0  0  0  0  0  0
  -28.1415   -0.8001  -10.7009 F   0  0  0  0  0  0  0  0  0  0  0  0
  -27.2687   -2.7694  -10.4651 F   0  0  0  0  0  0  0  0  0  0  0  0
  -26.2513   -1.0268   -9.6704 F   0  0  0  0  0  0  0  0  0  0  0  0
  -16.9483    3.3004  -16.7324 O   0  0  0  0  0  0  0  0  0  0  0  0
  -15.6244    3.2499  -16.3375 C   0  0  0  0  0  0  0  0  0  0  0  0
  -14.8839    2.0715  -16.3707 C   0  0  0  0  0  0  0  0  0  0  0  0
  -13.5887    2.1101  -15.9169 C   0  0  0  0  0  0  0  0  0  0  0  0
  -12.9886    3.2387  -15.5011 N   0  0  0  0  0  0  0  0  0  0  0  0
  -13.6801    4.3898  -15.5179 C   0  0  0  0  0  0  0  0  0  0  0  0
  -15.0085    4.4413  -15.9361 C   0  0  0  0  0  0  0  0  0  0  0  0
  -13.0402    5.5712  -15.1039 N   0  0  0  0  0  0  0  0  0  0  0  0
  -12.3496    6.4052  -15.9629 C   0  0  0  0  0  0  0  0  0  0  0  0
  -12.1737    6.2709  -17.1659 O   0  0  0  0  0  0  0  0  0  0  0  0
  -13.0788    5.8050  -14.1257 H   0  0  0  0  0  0  0  0  0  0  0  0
  -11.7488    7.5997  -15.2873 C   0  0  0  0  0  0  0  0  0  0  0  0
  -12.1150    8.9951  -15.7555 C   0  0  0  0  0  0  0  0  0  0  0  0
  -10.7490    8.4465  -16.0445 C   0  0  0  0  0  0  0  0  0  0  0  0
  7  8  2  0  0  0
  8  9  1  0  0  0
  8 10  1  0  0  0
  9  1  1  0  0  0
  9 11  1  0  0  0
  1  2  1  0  0  0
  1  6  2  0  0  0
  2  3  2  0  0  0
  3  4  1  0  0  0
  4 24  1  0  0  0
  4  5  2  0  0  0
 24 25  1  0  0  0
 25 26  1  0  0  0
 25 30  2  0  0  0
 26 27  2  0  0  0
 27 28  1  0  0  0
 28 29  2  0  0  0
 29 31  1  0  0  0
 29 30  1  0  0  0
 31 32  1  0  0  0
 31 34  1  0  0  0
 32 33  2  0  0  0
 32 35  1  0  0  0
 35 36  1  0  0  0
 35 37  1  0  0  0
 36 37  1  0  0  0
  5  6  1  0  0  0
 10 13  1  0  0  0
 10 12  1  0  0  0
 13 14  1  0  0  0
 13 19  2  0  0  0
 14 15  2  0  0  0
 15 16  1  0  0  0
 16 17  1  0  0  0
 16 18  2  0  0  0
 18 20  1  0  0  0
 18 19  1  0  0  0
 20 21  1  0  0  0
 20 22  1  0  0  0
 20 23  1  0  0  0
M  END
> <minimizedAffinity>
-9.15365

$$$$
