CHEMBL3955824


 31 34  0  0  0  0  0  0  0  0999 V2000
  -29.3913   -5.9740   -4.9494 C   0  0  0  0  0  0  0  0  0  0  0  0
  -29.2024   -6.3253   -6.2907 C   0  0  0  0  0  0  0  0  0  0  0  0
  -28.7217   -7.5587   -6.6746 C   0  0  0  0  0  0  0  0  0  0  0  0
  -28.5496   -7.7608   -7.9810 N   0  0  0  0  0  0  0  0  0  0  0  0
  -28.0372   -8.9351   -8.3381 C   0  0  0  0  0  0  0  0  0  0  0  0
  -27.6914   -9.9162   -7.5056 N   0  0  0  0  0  0  0  0  0  0  0  0
  -27.8786   -9.6953   -6.1876 C   0  0  0  0  0  0  0  0  0  0  0  0
  -28.4199   -8.5021   -5.6887 C   0  0  0  0  0  0  0  0  0  0  0  0
  -28.6178   -8.1780   -4.3211 C   0  0  0  0  0  0  0  0  0  0  0  0
  -29.0977   -6.9180   -3.9634 C   0  0  0  0  0  0  0  0  0  0  0  0
  -29.2668   -6.5974   -2.6462 O   0  0  0  0  0  0  0  0  0  0  0  0
  -28.9385   -7.3211   -2.0876 H   0  0  0  0  0  0  0  0  0  0  0  0
  -27.5075  -10.7218   -5.2858 N   0  0  0  0  0  0  0  0  0  0  0  0
  -27.7902  -11.6178   -5.6700 H   0  0  0  0  0  0  0  0  0  0  0  0
  -26.2849  -10.7579   -4.5824 C   0  0  0  0  0  0  0  0  0  0  0  0
  -25.1205  -10.2690   -5.1787 C   0  0  0  0  0  0  0  0  0  0  0  0
  -23.8882  -10.3734   -4.5160 C   0  0  0  0  0  0  0  0  0  0  0  0
  -23.8097  -10.9925   -3.2659 C   0  0  0  0  0  0  0  0  0  0  0  0
  -22.2561  -11.1062   -2.5215 Cl  0  0  0  0  0  0  0  0  0  0  0  0
  -24.9636  -11.5064   -2.6737 C   0  0  0  0  0  0  0  0  0  0  0  0
  -24.9478  -12.3070   -1.1427 Cl  0  0  0  0  0  0  0  0  0  0  0  0
  -26.1885  -11.3942   -3.3342 C   0  0  0  0  0  0  0  0  0  0  0  0
  -29.8403   -4.7379   -4.5503 O   0  0  0  0  0  0  0  0  0  0  0  0
  -30.4940   -3.9818   -5.5729 C   0  0  0  0  0  0  0  0  0  0  0  0
  -29.5954    0.3745   -5.3697 C   0  0  0  0  0  0  0  0  0  0  0  0
  -28.7801   -0.6430   -4.7078 N   0  0  0  0  0  0  0  0  0  0  0  0
  -27.5541   -0.9536   -5.4724 C   0  0  0  0  0  0  0  0  0  0  0  0
  -27.7934   -1.7760   -6.7502 C   0  0  0  0  0  0  0  0  0  0  0  0
  -28.5349   -2.9688   -6.4777 O   0  0  0  0  0  0  0  0  0  0  0  0
  -29.7874   -2.6608   -5.8329 C   0  0  0  0  0  0  0  0  0  0  0  0
  -29.5456   -1.8949   -4.5162 C   0  0  0  0  0  0  0  0  0  0  0  0
 25 26  1  0  0  0
 26 27  1  0  0  0
 26 31  1  0  0  0
 27 28  1  0  0  0
 28 29  1  0  0  0
 29 30  1  0  0  0
 30 24  1  0  0  0
 30 31  1  0  0  0
 24 23  1  0  0  0
 23  1  1  0  0  0
  1  2  1  0  0  0
  1 10  2  0  0  0
  2  3  2  0  0  0
  3  4  1  0  0  0
  3  8  1  0  0  0
  4  5  2  0  0  0
  5  6  1  0  0  0
  6  7  2  0  0  0
  7 13  1  0  0  0
  7  8  1  0  0  0
 13 15  1  0  0  0
 13 14  1  0  0  0
 15 16  1  0  0  0
 15 22  2  0  0  0
 16 17  2  0  0  0
 17 18  1  0  0  0
 18 19  1  0  0  0
 18 20  2  0  0  0
 20 21  1  0  0  0
 20 22  1  0  0  0
  8  9  2  0  0  0
  9 10  1  0  0  0
 10 11  1  0  0  0
 11 12  1  0  0  0
M  END
> <minimizedAffinity>
-8.21912

$$$$
