CHEMBL295816


 27 30  0  0  0  0  0  0  0  0999 V2000
  -28.5365   -6.5856   -8.2132 C   0  0  0  0  0  0  0  0  0  0  0  0
  -29.4835   -7.4669   -7.6942 C   0  0  0  0  0  0  0  0  0  0  0  0
  -29.3718   -8.8322   -7.9795 C   0  0  0  0  0  0  0  0  0  0  0  0
  -28.3503   -9.2830   -8.8090 C   0  0  0  0  0  0  0  0  0  0  0  0
  -27.4299   -8.3578   -9.2430 C   0  0  0  0  0  0  0  0  0  0  0  0
  -27.5062   -7.0457   -8.9536 N   0  0  0  0  0  0  0  0  0  0  0  0
  -30.2751   -9.7481   -7.3804 N   0  0  0  0  0  0  0  0  0  0  0  0
  -31.5359  -10.0352   -7.8627 C   0  0  0  0  0  0  0  0  0  0  0  0
  -32.0095  -11.0616   -7.0884 C   0  0  0  0  0  0  0  0  0  0  0  0
  -31.1220  -11.3662   -6.0975 N   0  0  0  0  0  0  0  0  0  0  0  0
  -30.1080  -10.5206   -6.2239 C   0  0  0  0  0  0  0  0  0  0  0  0
  -29.0188  -10.4055   -5.2341 C   0  0  0  0  0  0  0  0  0  0  0  0
  -28.0177  -11.3854   -5.1952 C   0  0  0  0  0  0  0  0  0  0  0  0
  -26.9347  -11.2680   -4.3186 C   0  0  0  0  0  0  0  0  0  0  0  0
  -26.8316  -10.1619   -3.4777 C   0  0  0  0  0  0  0  0  0  0  0  0
  -27.8395   -9.2041   -3.4693 C   0  0  0  0  0  0  0  0  0  0  0  0
  -28.9448   -9.3507   -4.3095 C   0  0  0  0  0  0  0  0  0  0  0  0
  -28.6584   -5.2148   -7.8979 N   0  0  0  0  0  0  0  0  0  0  0  0
  -27.9265   -4.6626   -8.3264 H   0  0  0  0  0  0  0  0  0  0  0  0
  -31.5331   -5.2556   -3.8345 C   0  0  0  0  0  0  0  0  0  0  0  0
  -30.4848   -4.5875   -4.6725 C   0  0  0  0  0  0  0  0  0  0  0  0
  -29.8541   -3.4108   -4.2611 C   0  0  0  0  0  0  0  0  0  0  0  0
  -28.8782   -2.8118   -5.0625 C   0  0  0  0  0  0  0  0  0  0  0  0
  -28.1890   -1.5544   -4.6325 C   0  0  0  0  0  0  0  0  0  0  0  0
  -28.5222   -3.4208   -6.2799 C   0  0  0  0  0  0  0  0  0  0  0  0
  -29.1013   -4.6267   -6.6889 C   0  0  0  0  0  0  0  0  0  0  0  0
  -30.1145   -5.1680   -5.8923 C   0  0  0  0  0  0  0  0  0  0  0  0
 20 21  1  0  0  0
 21 22  1  0  0  0
 21 27  2  0  0  0
 22 23  2  0  0  0
 23 24  1  0  0  0
 23 25  1  0  0  0
 25 26  2  0  0  0
 26 18  1  0  0  0
 26 27  1  0  0  0
 18  1  1  0  0  0
 18 19  1  0  0  0
  1  2  1  0  0  0
  1  6  2  0  0  0
  2  3  2  0  0  0
  3  7  1  0  0  0
  3  4  1  0  0  0
  7  8  1  0  0  0
  7 11  1  0  0  0
  8  9  2  0  0  0
  9 10  1  0  0  0
 10 11  2  0  0  0
 11 12  1  0  0  0
 12 13  1  0  0  0
 12 17  2  0  0  0
 13 14  2  0  0  0
 14 15  1  0  0  0
 15 16  2  0  0  0
 16 17  1  0  0  0
  4  5  2  0  0  0
  5  6  1  0  0  0
M  END
> <minimizedAffinity>
-6.86888

$$$$
