CHEMBL598837


 28 31  0  0  0  0  0  0  0  0999 V2000
  -28.1336   -2.1547   -9.0674 C   0  0  0  0  0  0  0  0  0  0  0  0
  -27.6903   -1.2398   -8.1970 N   0  0  0  0  0  0  0  0  0  0  0  0
  -27.6754   -1.5396   -6.9011 C   0  0  0  0  0  0  0  0  0  0  0  0
  -28.1200   -2.7381   -6.4183 C   0  0  0  0  0  0  0  0  0  0  0  0
  -28.6246   -3.6270   -7.3524 C   0  0  0  0  0  0  0  0  0  0  0  0
  -28.6317   -3.3414   -8.6844 N   0  0  0  0  0  0  0  0  0  0  0  0
  -29.1865   -4.9297   -6.9179 C   0  0  0  0  0  0  0  0  0  0  0  0
  -28.8017   -6.0123   -7.6497 N   0  0  0  0  0  0  0  0  0  0  0  0
  -29.2744   -7.2248   -7.2855 C   0  0  0  0  0  0  0  0  0  0  0  0
  -30.1625   -7.4259   -6.2449 C   0  0  0  0  0  0  0  0  0  0  0  0
  -30.5780   -6.3215   -5.5147 C   0  0  0  0  0  0  0  0  0  0  0  0
  -30.0445   -5.0643   -5.8043 C   0  0  0  0  0  0  0  0  0  0  0  0
  -30.3783   -4.0388   -4.8994 N   0  0  0  0  0  0  0  0  0  0  0  0
  -29.5431   -3.0544   -4.4435 C   0  0  0  0  0  0  0  0  0  0  0  0
  -29.9354   -2.2785   -3.5779 O   0  0  0  0  0  0  0  0  0  0  0  0
  -28.1247   -3.0267   -4.9609 C   0  0  0  0  0  0  0  0  0  0  0  0
  -31.2169   -4.1272   -4.3395 H   0  0  0  0  0  0  0  0  0  0  0  0
  -28.0313   -1.8988  -10.4417 N   0  0  0  0  0  0  0  0  0  0  0  0
  -28.7867   -2.3788  -10.9109 H   0  0  0  0  0  0  0  0  0  0  0  0
  -24.5171   -1.4309  -12.7797 C   0  0  0  0  0  0  0  0  0  0  0  0
  -25.7645   -1.5903  -13.3812 C   0  0  0  0  0  0  0  0  0  0  0  0
  -26.9236   -1.7125  -12.5960 C   0  0  0  0  0  0  0  0  0  0  0  0
  -26.8573   -1.7000  -11.1974 C   0  0  0  0  0  0  0  0  0  0  0  0
  -25.6016   -1.4588  -10.6237 C   0  0  0  0  0  0  0  0  0  0  0  0
  -24.4453   -1.3502  -11.3966 C   0  0  0  0  0  0  0  0  0  0  0  0
  -23.3100   -1.3372  -13.4101 O   0  0  0  0  0  0  0  0  0  0  0  0
  -21.9537    0.5938  -13.6905 C   0  0  0  0  0  0  0  0  0  0  0  0
  -23.1135   -0.2070  -14.2515 C   0  0  0  0  0  0  0  0  0  0  0  0
 27 28  1  0  0  0
 28 26  1  0  0  0
 26 20  1  0  0  0
 20 21  1  0  0  0
 20 25  2  0  0  0
 21 22  2  0  0  0
 22 23  1  0  0  0
 23 18  1  0  0  0
 23 24  2  0  0  0
 18  1  1  0  0  0
 18 19  1  0  0  0
  1  2  1  0  0  0
  1  6  2  0  0  0
  2  3  2  0  0  0
  3  4  1  0  0  0
  4  5  2  0  0  0
  4 16  1  0  0  0
  5  6  1  0  0  0
  5  7  1  0  0  0
  7  8  1  0  0  0
  7 12  2  0  0  0
  8  9  2  0  0  0
  9 10  1  0  0  0
 10 11  2  0  0  0
 11 12  1  0  0  0
 12 13  1  0  0  0
 13 14  1  0  0  0
 13 17  1  0  0  0
 14 15  2  0  0  0
 14 16  1  0  0  0
 24 25  1  0  0  0
M  END
> <minimizedAffinity>
-9.45609

$$$$
