CHEMBL149636


 34 39  0  0  0  0  0  0  0  0999 V2000
  -28.8447   -4.7942   -4.2436 C   0  0  0  0  0  0  0  0  0  0  0  0
  -30.0512   -4.8677   -4.9508 C   0  0  0  0  0  0  0  0  0  0  0  0
  -30.3703   -5.9650   -5.7548 C   0  0  0  0  0  0  0  0  0  0  0  0
  -29.4194   -6.9896   -5.8960 C   0  0  0  0  0  0  0  0  0  0  0  0
  -28.2240   -6.9539   -5.1387 C   0  0  0  0  0  0  0  0  0  0  0  0
  -27.9498   -5.8802   -4.3139 C   0  0  0  0  0  0  0  0  0  0  0  0
  -27.6652   -8.1712   -5.4329 C   0  0  0  0  0  0  0  0  0  0  0  0
  -26.9281   -8.9323   -4.4944 C   0  0  0  0  0  0  0  0  0  0  0  0
  -27.0897  -10.3769   -4.5975 C   0  0  0  0  0  0  0  0  0  0  0  0
  -27.7901  -10.9221   -5.6814 C   0  0  0  0  0  0  0  0  0  0  0  0
  -27.7180  -10.0731   -6.7923 C   0  0  0  0  0  0  0  0  0  0  0  0
  -28.1928   -8.8146   -6.5121 C   0  0  0  0  0  0  0  0  0  0  0  0
  -29.4693   -8.2231   -6.5819 N   0  0  0  0  0  0  0  0  0  0  0  0
  -27.6794  -10.9131   -7.9968 C   0  0  0  0  0  0  0  0  0  0  0  0
  -28.7526  -11.8781   -7.5849 C   0  0  0  0  0  0  0  0  0  0  0  0
  -29.7941  -12.1662   -8.4632 C   0  0  0  0  0  0  0  0  0  0  0  0
  -31.0300  -12.4175   -7.9025 C   0  0  0  0  0  0  0  0  0  0  0  0
  -31.1626  -12.4657   -6.4997 C   0  0  0  0  0  0  0  0  0  0  0  0
  -30.0633  -12.2328   -5.6123 C   0  0  0  0  0  0  0  0  0  0  0  0
  -28.8130  -11.8997   -6.1413 C   0  0  0  0  0  0  0  0  0  0  0  0
  -25.8481  -10.9365   -4.0409 C   0  0  0  0  0  0  0  0  0  0  0  0
  -25.3788  -12.0556   -4.0735 O   0  0  0  0  0  0  0  0  0  0  0  0
  -25.1097   -9.8161   -3.6031 N   0  0  0  0  0  0  0  0  0  0  0  0
  -25.7169   -8.5113   -3.8053 C   0  0  0  0  0  0  0  0  0  0  0  0
  -24.1035   -9.9189   -3.5685 H   0  0  0  0  0  0  0  0  0  0  0  0
  -28.4715   -3.5518   -3.4839 C   0  0  0  0  0  0  0  0  0  0  0  0
  -28.9614   -2.0720   -4.4306 S   0  0  0  0  0  0  0  0  0  0  0  0
  -27.9763   -1.5519   -6.9120 C   0  0  0  0  0  0  0  0  0  0  0  0
  -27.5291   -1.9936   -5.5325 C   0  0  0  0  0  0  0  0  0  0  0  0
  -30.6895   -9.0204   -6.6762 C   0  0  0  0  0  0  0  0  0  0  0  0
  -31.6705   -8.8629   -7.8297 C   0  0  0  0  0  0  0  0  0  0  0  0
  -33.1002   -8.7663   -7.3450 C   0  0  0  0  0  0  0  0  0  0  0  0
  -33.1562   -7.9693   -6.1709 O   0  0  0  0  0  0  0  0  0  0  0  0
  -32.7129   -8.4597   -5.4576 H   0  0  0  0  0  0  0  0  0  0  0  0
 28 29  1  0  0  0
 29 27  1  0  0  0
 27 26  1  0  0  0
 26  1  1  0  0  0
  1  2  1  0  0  0
  1  6  2  0  0  0
  2  3  2  0  0  0
  3  4  1  0  0  0
  4  5  2  0  0  0
  4 13  1  0  0  0
  5  6  1  0  0  0
  5  7  1  0  0  0
  7  8  1  0  0  0
  7 12  2  0  0  0
  8  9  2  0  0  0
  8 24  1  0  0  0
  9 10  1  0  0  0
  9 21  1  0  0  0
 10 11  2  0  0  0
 10 20  1  0  0  0
 11 12  1  0  0  0
 11 14  1  0  0  0
 12 13  1  0  0  0
 13 30  1  0  0  0
 30 31  1  0  0  0
 31 32  1  0  0  0
 32 33  1  0  0  0
 33 34  1  0  0  0
 14 15  1  0  0  0
 15 16  1  0  0  0
 15 20  2  0  0  0
 16 17  2  0  0  0
 17 18  1  0  0  0
 18 19  2  0  0  0
 19 20  1  0  0  0
 21 22  2  0  0  0
 21 23  1  0  0  0
 23 24  1  0  0  0
 23 25  1  0  0  0
M  END
> <minimizedAffinity>
-7.14895

$$$$
