CHEMBL3924422


 43 48  0  0  0  0  0  0  0  0999 V2000
  -14.1188   -1.1215  -13.7595 C   0  0  0  0  0  0  0  0  0  0  0  0
  -13.9022   -0.8215  -15.1138 C   0  0  0  0  0  0  0  0  0  0  0  0
  -14.5187    0.1838  -15.7578 C   0  0  0  0  0  0  0  0  0  0  0  0
  -15.4984    0.8925  -15.1533 C   0  0  0  0  0  0  0  0  0  0  0  0
  -15.9151    1.9699  -15.8206 N   0  0  0  0  0  0  0  0  0  0  0  0
  -16.9768    2.6583  -15.4355 C   0  0  0  0  0  0  0  0  0  0  0  0
  -17.7948    2.1433  -14.4376 C   0  0  0  0  0  0  0  0  0  0  0  0
  -17.2874    1.1335  -13.5961 N   0  0  0  0  0  0  0  0  0  0  0  0
  -16.0661    0.5125  -13.9163 C   0  0  0  0  0  0  0  0  0  0  0  0
  -15.3130   -0.5048  -13.1471 C   0  0  0  0  0  0  0  0  0  0  0  0
  -19.2505    2.4831  -14.7350 C   0  0  0  0  0  0  0  0  0  0  0  0
  -19.9786    3.5661  -15.2179 C   0  0  0  0  0  0  0  0  0  0  0  0
  -21.3146    3.3233  -15.0472 N   0  0  0  0  0  0  0  0  0  0  0  0
  -21.4589    2.1360  -14.4651 N   0  0  0  0  0  0  0  0  0  0  0  0
  -20.2526    1.6090  -14.2801 C   0  0  0  0  0  0  0  0  0  0  0  0
  -22.6742    1.5873  -13.8158 C   0  0  0  0  0  0  0  0  0  0  0  0
  -22.8071    0.0511  -13.6430 C   0  0  0  0  0  0  0  0  0  0  0  0
  -24.1446   -0.4531  -14.1824 C   0  0  0  0  0  0  0  0  0  0  0  0
  -24.3947   -1.9014  -13.7350 C   0  0  0  0  0  0  0  0  0  0  0  0
  -24.4037   -1.9900  -12.3215 O   0  0  0  0  0  0  0  0  0  0  0  0
  -23.1010   -1.7334  -11.8320 C   0  0  0  0  0  0  0  0  0  0  0  0
  -22.7020   -0.2788  -12.1235 C   0  0  0  0  0  0  0  0  0  0  0  0
  -13.0075   -1.8719  -13.1351 N   0  0  0  0  0  0  0  0  0  0  0  0
  -12.2396   -4.4680  -10.4797 C   0  0  0  0  0  0  0  0  0  0  0  0
  -13.4815   -5.1332  -10.4303 C   0  0  0  0  0  0  0  0  0  0  0  0
  -14.5032   -4.8051  -11.3119 C   0  0  0  0  0  0  0  0  0  0  0  0
  -14.2880   -3.7746  -12.2495 C   0  0  0  0  0  0  0  0  0  0  0  0
  -13.0828   -3.0578  -12.3101 C   0  0  0  0  0  0  0  0  0  0  0  0
  -12.0397   -3.4335  -11.4339 C   0  0  0  0  0  0  0  0  0  0  0  0
  -11.4172   -4.9314   -8.2301 C   0  0  0  0  0  0  0  0  0  0  0  0
  -11.2466   -4.7609   -9.5966 O   0  0  0  0  0  0  0  0  0  0  0  0
  -15.6882   -5.4639  -11.1981 O   0  0  0  0  0  0  0  0  0  0  0  0
  -16.7654   -5.3449  -12.0530 C   0  0  0  0  0  0  0  0  0  0  0  0
  -11.6941   -1.1272  -13.1960 C   0  0  0  0  0  0  0  0  0  0  0  0
  -11.5341    0.4253  -13.2211 C   0  0  0  0  0  0  0  0  0  0  0  0
  -10.8386    1.0757  -14.4431 C   0  0  0  0  0  0  0  0  0  0  0  0
  -11.2508    2.4964  -14.5462 N   0  0  0  0  0  0  0  0  0  0  0  0
  -12.5392    2.8742  -13.9211 C   0  0  0  0  0  0  0  0  0  0  0  0
  -13.1669    3.9443  -14.8239 C   0  0  0  0  0  0  0  0  0  0  0  0
  -11.9957    4.3978  -15.6667 C   0  0  0  0  0  0  0  0  0  0  0  0
  -12.3899    5.0169  -16.8405 F   0  0  0  0  0  0  0  0  0  0  0  0
  -11.1824    5.2486  -14.9339 F   0  0  0  0  0  0  0  0  0  0  0  0
  -11.2847    3.0715  -15.8909 C   0  0  0  0  0  0  0  0  0  0  0  0
 30 31  1  0  0  0
 31 24  1  0  0  0
 24 25  1  0  0  0
 24 29  2  0  0  0
 25 26  2  0  0  0
 26 32  1  0  0  0
 26 27  1  0  0  0
 32 33  1  0  0  0
 27 28  2  0  0  0
 28 23  1  0  0  0
 28 29  1  0  0  0
 23 34  1  0  0  0
 23  1  1  0  0  0
 34 35  1  0  0  0
 35 36  1  0  0  0
 36 37  1  0  0  0
 37 38  1  0  0  0
 37 43  1  0  0  0
 38 39  1  0  0  0
 39 40  1  0  0  0
 40 41  1  0  0  0
 40 42  1  0  0  0
 40 43  1  0  0  0
  1  2  1  0  0  0
  1 10  2  0  0  0
  2  3  2  0  0  0
  3  4  1  0  0  0
  4  5  1  0  0  0
  4  9  2  0  0  0
  5  6  2  0  0  0
  6  7  1  0  0  0
  7 11  1  0  0  0
  7  8  2  0  0  0
 11 12  1  0  0  0
 11 15  2  0  0  0
 12 13  2  0  0  0
 13 14  1  0  0  0
 14 16  1  0  0  0
 14 15  1  0  0  0
 16 17  1  0  0  0
 17 18  1  0  0  0
 17 22  1  0  0  0
 18 19  1  0  0  0
 19 20  1  0  0  0
 20 21  1  0  0  0
 21 22  1  0  0  0
  8  9  1  0  0  0
  9 10  1  0  0  0
M  END
> <minimizedAffinity>
-8.73790

$$$$
