CHEMBL1940868


 23 25  0  0  0  0  0  0  0  0999 V2000
  -24.7114   -0.8805  -15.7159 C   0  0  0  0  0  0  0  0  0  0  0  0
  -24.2956   -0.8067  -14.2694 C   0  0  0  0  0  0  0  0  0  0  0  0
  -22.9944   -0.3960  -13.9410 C   0  0  0  0  0  0  0  0  0  0  0  0
  -22.5986   -0.3256  -12.6095 C   0  0  0  0  0  0  0  0  0  0  0  0
  -23.5002   -0.6553  -11.6015 C   0  0  0  0  0  0  0  0  0  0  0  0
  -24.8090   -1.0632  -11.9210 C   0  0  0  0  0  0  0  0  0  0  0  0
  -25.7473   -1.3947  -10.9215 C   0  0  0  0  0  0  0  0  0  0  0  0
  -27.0453   -1.8011  -11.2549 C   0  0  0  0  0  0  0  0  0  0  0  0
  -27.3102   -1.8904  -12.6226 C   0  0  0  0  0  0  0  0  0  0  0  0
  -28.7801   -2.5044  -13.2874 Cl  0  0  0  0  0  0  0  0  0  0  0  0
  -26.4415   -1.5616  -13.6035 N   0  0  0  0  0  0  0  0  0  0  0  0
  -25.2107   -1.1501  -13.2694 C   0  0  0  0  0  0  0  0  0  0  0  0
  -27.9603   -2.1570  -10.1509 C   0  0  0  0  0  0  0  0  0  0  0  0
  -27.5912   -2.7714   -9.0160 C   0  0  0  0  0  0  0  0  0  0  0  0
  -28.5826   -3.0601   -7.9426 C   0  0  0  0  0  0  0  0  0  0  0  0
  -29.4811   -3.8784   -8.0897 O   0  0  0  0  0  0  0  0  0  0  0  0
  -28.3680   -2.2777   -6.7266 C   0  0  0  0  0  0  0  0  0  0  0  0
  -28.3061   -0.8353   -6.6348 C   0  0  0  0  0  0  0  0  0  0  0  0
  -28.1053   -0.4097   -5.3473 C   0  0  0  0  0  0  0  0  0  0  0  0
  -27.9672    1.2169   -4.8175 Cl  0  0  0  0  0  0  0  0  0  0  0  0
  -27.9971   -1.6735   -4.2340 S   0  0  0  0  0  0  0  0  0  0  0  0
  -28.2241   -2.8240   -5.4659 C   0  0  0  0  0  0  0  0  0  0  0  0
  -28.1954   -4.4865   -5.0149 Cl  0  0  0  0  0  0  0  0  0  0  0  0
  1  2  1  0  0  0
  2  3  1  0  0  0
  2 12  2  0  0  0
  3  4  2  0  0  0
  4  5  1  0  0  0
  5  6  2  0  0  0
  6  7  1  0  0  0
  6 12  1  0  0  0
  7  8  2  0  0  0
  8 13  1  0  0  0
  8  9  1  0  0  0
 13 14  2  0  0  0
 14 15  1  0  0  0
 15 16  2  0  0  0
 15 17  1  0  0  0
 17 18  1  0  0  0
 17 22  2  0  0  0
 18 19  2  0  0  0
 19 20  1  0  0  0
 19 21  1  0  0  0
 21 22  1  0  0  0
 22 23  1  0  0  0
  9 10  1  0  0  0
  9 11  2  0  0  0
 11 12  1  0  0  0
M  END
> <minimizedAffinity>
-9.34592

$$$$
