CHEMBL4064471


 37 41  0  0  0  0  0  0  0  0999 V2000
  -15.3000   -2.3500  -12.3136 C   0  0  0  0  0  0  0  0  0  0  0  0
  -15.2670   -2.8876  -13.6012 C   0  0  0  0  0  0  0  0  0  0  0  0
  -14.9364   -4.2308  -13.8171 C   0  0  0  0  0  0  0  0  0  0  0  0
  -14.5561   -5.0074  -12.7101 C   0  0  0  0  0  0  0  0  0  0  0  0
  -14.4899   -4.4586  -11.4279 C   0  0  0  0  0  0  0  0  0  0  0  0
  -14.0475   -5.4812  -10.5488 C   0  0  0  0  0  0  0  0  0  0  0  0
  -13.9674   -6.6417  -11.2780 C   0  0  0  0  0  0  0  0  0  0  0  0
  -14.2903   -6.3726  -12.5969 N   0  0  0  0  0  0  0  0  0  0  0  0
  -14.4421   -7.3550  -13.5957 C   0  0  0  0  0  0  0  0  0  0  0  0
  -15.1430   -8.3287  -13.3628 O   0  0  0  0  0  0  0  0  0  0  0  0
  -13.5935   -7.1181  -14.6495 N   0  0  0  0  0  0  0  0  0  0  0  0
  -14.8541   -3.1114  -11.2273 C   0  0  0  0  0  0  0  0  0  0  0  0
  -12.7491   -6.5947  -14.4493 H   0  0  0  0  0  0  0  0  0  0  0  0
  -13.3983   -8.1113  -15.5875 C   0  0  0  0  0  0  0  0  0  0  0  0
  -13.6930   -8.1010  -16.9757 C   0  0  0  0  0  0  0  0  0  0  0  0
  -13.3698   -9.3666  -17.4198 C   0  0  0  0  0  0  0  0  0  0  0  0
  -12.9604  -10.0433  -16.3016 N   0  0  0  0  0  0  0  0  0  0  0  0
  -12.8461   -9.2650  -15.2122 N   0  0  0  0  0  0  0  0  0  0  0  0
  -12.7111  -11.0267  -16.2258 H   0  0  0  0  0  0  0  0  0  0  0  0
  -13.4476   -9.9652  -18.8550 C   0  0  0  0  0  0  0  0  0  0  0  0
  -12.2083   -9.7302  -19.7334 C   0  0  0  0  0  0  0  0  0  0  0  0
  -13.4493   -8.9683  -20.0216 C   0  0  0  0  0  0  0  0  0  0  0  0
  -14.2159  -11.2710  -19.0533 C   0  0  0  0  0  0  0  0  0  0  0  0
  -14.7849  -11.3404  -20.2841 F   0  0  0  0  0  0  0  0  0  0  0  0
  -13.3963  -12.3422  -18.9311 F   0  0  0  0  0  0  0  0  0  0  0  0
  -15.2113  -11.4054  -18.1457 F   0  0  0  0  0  0  0  0  0  0  0  0
  -15.7215   -1.0698  -12.0176 O   0  0  0  0  0  0  0  0  0  0  0  0
  -16.0554    1.3659  -14.7100 C   0  0  0  0  0  0  0  0  0  0  0  0
  -16.4548    0.4038  -13.8023 C   0  0  0  0  0  0  0  0  0  0  0  0
  -15.4974   -0.0486  -12.9195 C   0  0  0  0  0  0  0  0  0  0  0  0
  -14.2699    0.4956  -12.8392 N   0  0  0  0  0  0  0  0  0  0  0  0
  -14.0019    1.4672  -13.7205 C   0  0  0  0  0  0  0  0  0  0  0  0
  -14.8236    1.9165  -14.6802 N   0  0  0  0  0  0  0  0  0  0  0  0
  -17.0209    1.8425  -15.7760 C   0  0  0  0  0  0  0  0  0  0  0  0
  -19.0032    3.1770  -15.4026 C   0  0  0  0  0  0  0  0  0  0  0  0
  -17.5489    3.1939  -15.5383 N   0  0  0  0  0  0  0  0  0  0  0  0
  -17.1423    3.5421  -14.6699 H   0  0  0  0  0  0  0  0  0  0  0  0
 35 36  1  0  0  0
 36 34  1  0  0  0
 36 37  1  0  0  0
 34 28  1  0  0  0
 28 29  1  0  0  0
 28 33  2  0  0  0
 29 30  2  0  0  0
 30 27  1  0  0  0
 30 31  1  0  0  0
 27  1  1  0  0  0
  1  2  1  0  0  0
  1 12  2  0  0  0
  2  3  2  0  0  0
  3  4  1  0  0  0
  4  5  2  0  0  0
  4  8  1  0  0  0
  5  6  1  0  0  0
  5 12  1  0  0  0
  6  7  2  0  0  0
  7  8  1  0  0  0
  8  9  1  0  0  0
  9 10  2  0  0  0
  9 11  1  0  0  0
 11 14  1  0  0  0
 11 13  1  0  0  0
 14 15  1  0  0  0
 14 18  2  0  0  0
 15 16  2  0  0  0
 16 20  1  0  0  0
 16 17  1  0  0  0
 20 23  1  0  0  0
 20 21  1  0  0  0
 20 22  1  0  0  0
 23 24  1  0  0  0
 23 25  1  0  0  0
 23 26  1  0  0  0
 21 22  1  0  0  0
 17 18  1  0  0  0
 17 19  1  0  0  0
 31 32  2  0  0  0
 32 33  1  0  0  0
M  END
> <minimizedAffinity>
-8.18938

$$$$
