CHEMBL49120


 36 39  0  0  0  0  0  0  0  0999 V2000
  -15.3525   -0.3763  -13.5970 C   0  0  0  0  0  0  0  0  0  0  0  0
  -15.7973   -0.7418  -12.3865 N   0  0  0  0  0  0  0  0  0  0  0  0
  -15.4298   -1.9651  -11.9518 C   0  0  0  0  0  0  0  0  0  0  0  0
  -14.6568   -2.8407  -12.6835 C   0  0  0  0  0  0  0  0  0  0  0  0
  -14.2923   -4.1723  -12.2292 C   0  0  0  0  0  0  0  0  0  0  0  0
  -13.5837   -4.9741  -13.0397 C   0  0  0  0  0  0  0  0  0  0  0  0
  -13.1579   -4.5124  -14.4063 C   0  0  0  0  0  0  0  0  0  0  0  0
  -12.5572   -5.2876  -15.1486 O   0  0  0  0  0  0  0  0  0  0  0  0
  -13.4715   -3.2102  -14.7487 N   0  0  0  0  0  0  0  0  0  0  0  0
  -13.0503   -2.6664  -16.0340 C   0  0  0  0  0  0  0  0  0  0  0  0
  -14.2383   -2.3701  -13.9092 C   0  0  0  0  0  0  0  0  0  0  0  0
  -14.5624   -1.1433  -14.3550 N   0  0  0  0  0  0  0  0  0  0  0  0
  -13.1879   -6.3204  -12.5834 C   0  0  0  0  0  0  0  0  0  0  0  0
  -11.9696   -6.5362  -11.9125 C   0  0  0  0  0  0  0  0  0  0  0  0
  -10.8460   -5.2493  -11.6235 Cl  0  0  0  0  0  0  0  0  0  0  0  0
  -11.6187   -7.8099  -11.4587 C   0  0  0  0  0  0  0  0  0  0  0  0
  -12.4804   -8.8883  -11.6525 C   0  0  0  0  0  0  0  0  0  0  0  0
  -13.6900   -8.6937  -12.3172 C   0  0  0  0  0  0  0  0  0  0  0  0
  -14.0380   -7.4229  -12.7862 C   0  0  0  0  0  0  0  0  0  0  0  0
  -15.5400   -7.2753  -13.6382 Cl  0  0  0  0  0  0  0  0  0  0  0  0
  -15.7783    0.8612  -14.0953 N   0  0  0  0  0  0  0  0  0  0  0  0
  -15.3129    1.5790  -13.5487 H   0  0  0  0  0  0  0  0  0  0  0  0
  -19.8140    1.8406  -14.8967 C   0  0  0  0  0  0  0  0  0  0  0  0
  -19.3006    0.6121  -15.3053 C   0  0  0  0  0  0  0  0  0  0  0  0
  -17.9706    0.2837  -15.0411 C   0  0  0  0  0  0  0  0  0  0  0  0
  -17.1160    1.1855  -14.3961 C   0  0  0  0  0  0  0  0  0  0  0  0
  -17.6400    2.4119  -13.9793 C   0  0  0  0  0  0  0  0  0  0  0  0
  -18.9726    2.7475  -14.2508 C   0  0  0  0  0  0  0  0  0  0  0  0
  -21.1029    2.2572  -15.1016 O   0  0  0  0  0  0  0  0  0  0  0  0
  -22.0238    1.9040  -14.0591 C   0  0  0  0  0  0  0  0  0  0  0  0
  -22.3033    0.3957  -14.1255 C   0  0  0  0  0  0  0  0  0  0  0  0
  -23.5697   -0.0484  -13.4964 N   0  0  0  0  0  0  0  0  0  0  0  0
  -25.2192   -0.9346  -15.2054 C   0  0  0  0  0  0  0  0  0  0  0  0
  -24.0811   -1.2224  -14.2303 C   0  0  0  0  0  0  0  0  0  0  0  0
  -23.4748   -0.2556  -12.0420 C   0  0  0  0  0  0  0  0  0  0  0  0
  -23.1888   -1.6819  -11.5820 C   0  0  0  0  0  0  0  0  0  0  0  0
 33 34  1  0  0  0
 34 32  1  0  0  0
 32 35  1  0  0  0
 32 31  1  0  0  0
 35 36  1  0  0  0
 31 30  1  0  0  0
 30 29  1  0  0  0
 29 23  1  0  0  0
 23 24  1  0  0  0
 23 28  2  0  0  0
 24 25  2  0  0  0
 25 26  1  0  0  0
 26 21  1  0  0  0
 26 27  2  0  0  0
 21  1  1  0  0  0
 21 22  1  0  0  0
  1  2  1  0  0  0
  1 12  2  0  0  0
  2  3  2  0  0  0
  3  4  1  0  0  0
  4  5  1  0  0  0
  4 11  2  0  0  0
  5  6  2  0  0  0
  6 13  1  0  0  0
  6  7  1  0  0  0
 13 14  1  0  0  0
 13 19  2  0  0  0
 14 15  1  0  0  0
 14 16  2  0  0  0
 16 17  1  0  0  0
 17 18  2  0  0  0
 18 19  1  0  0  0
 19 20  1  0  0  0
  7  8  2  0  0  0
  7  9  1  0  0  0
  9 10  1  0  0  0
  9 11  1  0  0  0
 11 12  1  0  0  0
 27 28  1  0  0  0
M  END
> <minimizedAffinity>
-7.89188

$$$$
