CHEMBL394826


 35 38  0  0  0  0  0  0  0  0999 V2000
  -15.9378   -4.7303  -12.2253 C   0  0  0  0  0  0  0  0  0  0  0  0
  -15.7074   -4.1176  -10.9864 C   0  0  0  0  0  0  0  0  0  0  0  0
  -15.6700   -2.7264  -10.8674 C   0  0  0  0  0  0  0  0  0  0  0  0
  -15.7752   -1.9584  -12.0297 C   0  0  0  0  0  0  0  0  0  0  0  0
  -15.7765   -0.6016  -12.1687 N   0  0  0  0  0  0  0  0  0  0  0  0
  -15.8931   -0.3614  -13.4533 C   0  0  0  0  0  0  0  0  0  0  0  0
  -15.9213   -1.5436  -14.1579 N   0  0  0  0  0  0  0  0  0  0  0  0
  -15.9037   -2.5826  -13.2636 C   0  0  0  0  0  0  0  0  0  0  0  0
  -15.9975   -3.9732  -13.4052 C   0  0  0  0  0  0  0  0  0  0  0  0
  -16.0115   -1.6227  -15.1583 H   0  0  0  0  0  0  0  0  0  0  0  0
  -15.9888    0.8201  -14.1013 N   0  0  0  0  0  0  0  0  0  0  0  0
  -15.1550    1.3494  -14.3227 H   0  0  0  0  0  0  0  0  0  0  0  0
  -17.1869    1.4416  -14.5143 C   0  0  0  0  0  0  0  0  0  0  0  0
  -17.1252    2.5946  -15.3012 C   0  0  0  0  0  0  0  0  0  0  0  0
  -18.2941    3.2391  -15.7201 C   0  0  0  0  0  0  0  0  0  0  0  0
  -19.5547    2.7494  -15.3578 C   0  0  0  0  0  0  0  0  0  0  0  0
  -20.9195    3.6400  -15.9207 Cl  0  0  0  0  0  0  0  0  0  0  0  0
  -19.6574    1.5965  -14.5813 C   0  0  0  0  0  0  0  0  0  0  0  0
  -18.4615    0.9618  -14.1769 C   0  0  0  0  0  0  0  0  0  0  0  0
  -20.9462    0.9541  -14.1426 C   0  0  0  0  0  0  0  0  0  0  0  0
  -21.0374    0.6174  -12.8290 F   0  0  0  0  0  0  0  0  0  0  0  0
  -22.0216    1.7623  -14.3821 F   0  0  0  0  0  0  0  0  0  0  0  0
  -21.2024   -0.1999  -14.8257 F   0  0  0  0  0  0  0  0  0  0  0  0
  -16.0772   -6.0974  -12.3876 O   0  0  0  0  0  0  0  0  0  0  0  0
  -13.5723   -8.1733  -14.0995 C   0  0  0  0  0  0  0  0  0  0  0  0
  -14.6732   -7.3433  -13.9595 C   0  0  0  0  0  0  0  0  0  0  0  0
  -14.9703   -6.8646  -12.6891 C   0  0  0  0  0  0  0  0  0  0  0  0
  -14.0991   -7.1262  -11.6364 C   0  0  0  0  0  0  0  0  0  0  0  0
  -12.9957   -7.9281  -11.8824 C   0  0  0  0  0  0  0  0  0  0  0  0
  -12.7175   -8.4809  -13.0839 N   0  0  0  0  0  0  0  0  0  0  0  0
  -13.6935   -8.6569  -17.8483 C   0  0  0  0  0  0  0  0  0  0  0  0
  -13.8408   -8.1501  -16.5117 N   0  0  0  0  0  0  0  0  0  0  0  0
  -13.3148   -8.8181  -15.4272 C   0  0  0  0  0  0  0  0  0  0  0  0
  -12.6678   -9.8548  -15.5180 O   0  0  0  0  0  0  0  0  0  0  0  0
  -14.3347   -7.2817  -16.3257 H   0  0  0  0  0  0  0  0  0  0  0  0
 31 32  1  0  0  0
 32 33  1  0  0  0
 32 35  1  0  0  0
 33 34  2  0  0  0
 33 25  1  0  0  0
 25 26  1  0  0  0
 25 30  2  0  0  0
 26 27  2  0  0  0
 27 24  1  0  0  0
 27 28  1  0  0  0
 24  1  1  0  0  0
  1  2  1  0  0  0
  1  9  2  0  0  0
  2  3  2  0  0  0
  3  4  1  0  0  0
  4  5  1  0  0  0
  4  8  2  0  0  0
  5  6  2  0  0  0
  6 11  1  0  0  0
  6  7  1  0  0  0
 11 13  1  0  0  0
 11 12  1  0  0  0
 13 14  1  0  0  0
 13 19  2  0  0  0
 14 15  2  0  0  0
 15 16  1  0  0  0
 16 17  1  0  0  0
 16 18  2  0  0  0
 18 20  1  0  0  0
 18 19  1  0  0  0
 20 21  1  0  0  0
 20 22  1  0  0  0
 20 23  1  0  0  0
  7  8  1  0  0  0
  7 10  1  0  0  0
  8  9  1  0  0  0
 28 29  2  0  0  0
 29 30  1  0  0  0
M  END
> <minimizedAffinity>
-9.85058

$$$$
