CHEMBL4212513


 39 42  0  0  0  0  0  0  0  0999 V2000
  -27.2578   -1.9035  -10.9273 C   0  0  0  0  0  0  0  0  0  0  0  0
  -27.9139   -0.8653  -10.9824 O   0  0  0  0  0  0  0  0  0  0  0  0
  -27.1797   -2.7360   -9.8200 N   0  0  0  0  0  0  0  0  0  0  0  0
  -26.3219   -3.2727   -9.7442 H   0  0  0  0  0  0  0  0  0  0  0  0
  -27.8587   -2.4480   -8.6199 C   0  0  0  0  0  0  0  0  0  0  0  0
  -28.6216   -3.4625   -8.0463 C   0  0  0  0  0  0  0  0  0  0  0  0
  -29.2338   -3.2835   -6.7983 C   0  0  0  0  0  0  0  0  0  0  0  0
  -29.1535   -2.0283   -6.1766 C   0  0  0  0  0  0  0  0  0  0  0  0
  -28.4271   -0.9765   -6.7656 C   0  0  0  0  0  0  0  0  0  0  0  0
  -27.7683   -1.2056   -7.9865 C   0  0  0  0  0  0  0  0  0  0  0  0
  -29.8663   -4.4343   -6.1665 C   0  0  0  0  0  0  0  0  0  0  0  0
  -29.8599   -5.6979   -6.5473 N   0  0  0  0  0  0  0  0  0  0  0  0
  -30.5621   -6.4001   -5.5935 N   0  0  0  0  0  0  0  0  0  0  0  0
  -30.9569   -5.5162   -4.7031 C   0  0  0  0  0  0  0  0  0  0  0  0
  -31.7696   -5.7130   -3.4935 C   0  0  0  0  0  0  0  0  0  0  0  0
  -30.5484   -4.2406   -4.9932 O   0  0  0  0  0  0  0  0  0  0  0  0
  -28.3239    0.3716   -6.0925 C   0  0  0  0  0  0  0  0  0  0  0  0
  -27.2362    0.4858   -5.2787 F   0  0  0  0  0  0  0  0  0  0  0  0
  -28.2308    1.3980   -6.9806 F   0  0  0  0  0  0  0  0  0  0  0  0
  -29.4017    0.6479   -5.3077 F   0  0  0  0  0  0  0  0  0  0  0  0
  -26.4208   -2.3717  -12.1022 C   0  0  0  0  0  0  0  0  0  0  0  0
  -23.3869    0.4505  -13.3901 C   0  0  0  0  0  0  0  0  0  0  0  0
  -23.6882    0.3166  -12.0262 C   0  0  0  0  0  0  0  0  0  0  0  0
  -24.6492   -0.6126  -11.5947 C   0  0  0  0  0  0  0  0  0  0  0  0
  -25.3176   -1.4283  -12.5181 C   0  0  0  0  0  0  0  0  0  0  0  0
  -24.9931   -1.2909  -13.8710 C   0  0  0  0  0  0  0  0  0  0  0  0
  -25.6075   -2.0558  -14.7841 F   0  0  0  0  0  0  0  0  0  0  0  0
  -24.0464   -0.3683  -14.3096 C   0  0  0  0  0  0  0  0  0  0  0  0
  -21.1523    1.0375  -14.5771 C   0  0  0  0  0  0  0  0  0  0  0  0
  -20.3202    1.9807  -15.0596 C   0  0  0  0  0  0  0  0  0  0  0  0
  -20.6446    3.4138  -14.8918 C   0  0  0  0  0  0  0  0  0  0  0  0
  -19.9109    4.2867  -15.3405 O   0  0  0  0  0  0  0  0  0  0  0  0
  -21.8064    3.6911  -14.2184 N   0  0  0  0  0  0  0  0  0  0  0  0
  -22.6576    2.7327  -13.7275 C   0  0  0  0  0  0  0  0  0  0  0  0
  -22.3812    1.4193  -13.8769 C   0  0  0  0  0  0  0  0  0  0  0  0
  -22.0305    4.6740  -14.1182 H   0  0  0  0  0  0  0  0  0  0  0  0
  -20.9762   -0.3287  -14.6806 O   0  0  0  0  0  0  0  0  0  0  0  0
  -18.6457   -0.0528  -15.1197 C   0  0  0  0  0  0  0  0  0  0  0  0
  -19.9111   -0.7960  -15.5042 C   0  0  0  0  0  0  0  0  0  0  0  0
 38 39  1  0  0  0
 39 37  1  0  0  0
 37 29  1  0  0  0
 29 30  2  0  0  0
 29 35  1  0  0  0
 30 31  1  0  0  0
 31 32  2  0  0  0
 31 33  1  0  0  0
 33 34  1  0  0  0
 33 36  1  0  0  0
 34 35  2  0  0  0
 35 22  1  0  0  0
 22 23  1  0  0  0
 22 28  2  0  0  0
 23 24  2  0  0  0
 24 25  1  0  0  0
 25 21  1  0  0  0
 25 26  2  0  0  0
 21  1  1  0  0  0
  1  2  2  0  0  0
  1  3  1  0  0  0
  3  5  1  0  0  0
  3  4  1  0  0  0
  5  6  1  0  0  0
  5 10  2  0  0  0
  6  7  2  0  0  0
  7 11  1  0  0  0
  7  8  1  0  0  0
 11 12  2  0  0  0
 11 16  1  0  0  0
 12 13  1  0  0  0
 13 14  2  0  0  0
 14 15  1  0  0  0
 14 16  1  0  0  0
  8  9  2  0  0  0
  9 17  1  0  0  0
  9 10  1  0  0  0
 17 18  1  0  0  0
 17 19  1  0  0  0
 17 20  1  0  0  0
 26 27  1  0  0  0
 26 28  1  0  0  0
M  END
> <minimizedAffinity>
-10.28419

$$$$
