CHEMBL246355


 38 42  0  0  0  0  0  0  0  0999 V2000
  -13.5401   -3.5530  -13.6933 C   0  0  0  0  0  0  0  0  0  0  0  0
  -14.2554   -2.4532  -14.1998 C   0  0  0  0  0  0  0  0  0  0  0  0
  -15.3814   -1.9465  -13.5517 C   0  0  0  0  0  0  0  0  0  0  0  0
  -15.7632   -2.5225  -12.3409 C   0  0  0  0  0  0  0  0  0  0  0  0
  -14.9818   -3.5320  -11.7616 C   0  0  0  0  0  0  0  0  0  0  0  0
  -13.8500   -4.0461  -12.4194 C   0  0  0  0  0  0  0  0  0  0  0  0
  -12.9991   -5.0744  -11.7343 C   0  0  0  0  0  0  0  0  0  0  0  0
  -16.1680   -0.8951  -14.0840 N   0  0  0  0  0  0  0  0  0  0  0  0
  -15.9078    0.4578  -13.9412 C   0  0  0  0  0  0  0  0  0  0  0  0
  -14.9966    0.9647  -13.2944 O   0  0  0  0  0  0  0  0  0  0  0  0
  -17.0437   -1.1654  -14.5109 H   0  0  0  0  0  0  0  0  0  0  0  0
  -16.8769    1.3897  -14.5752 C   0  0  0  0  0  0  0  0  0  0  0  0
  -16.4771    2.3913  -15.4620 C   0  0  0  0  0  0  0  0  0  0  0  0
  -17.4351    3.2653  -15.9766 C   0  0  0  0  0  0  0  0  0  0  0  0
  -18.7851    3.1289  -15.6262 C   0  0  0  0  0  0  0  0  0  0  0  0
  -19.1983    2.1120  -14.7531 C   0  0  0  0  0  0  0  0  0  0  0  0
  -18.2257    1.2639  -14.2092 C   0  0  0  0  0  0  0  0  0  0  0  0
  -20.5838    1.9132  -14.4537 N   0  0  0  0  0  0  0  0  0  0  0  0
  -21.5302    2.8941  -14.2104 C   0  0  0  0  0  0  0  0  0  0  0  0
  -22.7248    2.3040  -13.8589 C   0  0  0  0  0  0  0  0  0  0  0  0
  -22.5321    0.9121  -13.9130 C   0  0  0  0  0  0  0  0  0  0  0  0
  -21.2267    0.6974  -14.2987 C   0  0  0  0  0  0  0  0  0  0  0  0
  -12.5339   -4.1536  -14.4468 O   0  0  0  0  0  0  0  0  0  0  0  0
  -13.5213   -5.6786  -16.0656 C   0  0  0  0  0  0  0  0  0  0  0  0
  -13.6315   -5.9796  -17.4458 C   0  0  0  0  0  0  0  0  0  0  0  0
  -13.1438   -5.1254  -18.4287 C   0  0  0  0  0  0  0  0  0  0  0  0
  -12.5982   -3.9327  -18.0199 C   0  0  0  0  0  0  0  0  0  0  0  0
  -12.4912   -3.5776  -16.7270 N   0  0  0  0  0  0  0  0  0  0  0  0
  -12.8731   -4.4760  -15.7672 C   0  0  0  0  0  0  0  0  0  0  0  0
  -13.6538   -8.3960  -13.7183 C   0  0  0  0  0  0  0  0  0  0  0  0
  -14.8652   -8.3168  -13.1849 N   0  0  0  0  0  0  0  0  0  0  0  0
  -15.6338   -7.3474  -13.6778 C   0  0  0  0  0  0  0  0  0  0  0  0
  -15.3024   -6.4782  -14.6271 N   0  0  0  0  0  0  0  0  0  0  0  0
  -14.0690   -6.6347  -15.0934 C   0  0  0  0  0  0  0  0  0  0  0  0
  -13.2227   -7.5913  -14.6770 N   0  0  0  0  0  0  0  0  0  0  0  0
  -12.3125   -9.2079  -11.8920 C   0  0  0  0  0  0  0  0  0  0  0  0
  -12.7379   -9.3341  -13.2658 N   0  0  0  0  0  0  0  0  0  0  0  0
  -13.0646  -10.2503  -13.5522 H   0  0  0  0  0  0  0  0  0  0  0  0
 36 37  1  0  0  0
 37 30  1  0  0  0
 37 38  1  0  0  0
 30 31  1  0  0  0
 30 35  2  0  0  0
 31 32  2  0  0  0
 32 33  1  0  0  0
 33 34  2  0  0  0
 34 24  1  0  0  0
 34 35  1  0  0  0
 24 25  1  0  0  0
 24 29  2  0  0  0
 25 26  2  0  0  0
 26 27  1  0  0  0
 27 28  2  0  0  0
 28 29  1  0  0  0
 29 23  1  0  0  0
 23  1  1  0  0  0
  1  2  1  0  0  0
  1  6  2  0  0  0
  2  3  2  0  0  0
  3  8  1  0  0  0
  3  4  1  0  0  0
  8  9  1  0  0  0
  8 11  1  0  0  0
  9 10  2  0  0  0
  9 12  1  0  0  0
 12 13  1  0  0  0
 12 17  2  0  0  0
 13 14  2  0  0  0
 14 15  1  0  0  0
 15 16  2  0  0  0
 16 18  1  0  0  0
 16 17  1  0  0  0
 18 19  1  0  0  0
 18 22  1  0  0  0
 19 20  2  0  0  0
 20 21  1  0  0  0
 21 22  2  0  0  0
  4  5  2  0  0  0
  5  6  1  0  0  0
  6  7  1  0  0  0
M  END
> <minimizedAffinity>
-9.21231

$$$$
