CHEMBL2032021


 38 42  0  0  0  0  0  0  0  0999 V2000
  -27.4939   -1.9606  -10.2039 C   0  0  0  0  0  0  0  0  0  0  0  0
  -28.3370   -1.1303   -9.8797 O   0  0  0  0  0  0  0  0  0  0  0  0
  -27.2721   -3.1633   -9.5489 N   0  0  0  0  0  0  0  0  0  0  0  0
  -26.5697   -3.7900   -9.9316 H   0  0  0  0  0  0  0  0  0  0  0  0
  -25.9088   -1.3102  -13.5513 N   0  0  0  0  0  0  0  0  0  0  0  0
  -26.9129   -1.8023  -12.6930 C   0  0  0  0  0  0  0  0  0  0  0  0
  -28.1540   -2.4546  -13.2108 C   0  0  0  0  0  0  0  0  0  0  0  0
  -26.6169   -1.6576  -11.3785 C   0  0  0  0  0  0  0  0  0  0  0  0
  -25.2134   -1.1487  -11.3680 C   0  0  0  0  0  0  0  0  0  0  0  0
  -24.6139   -0.8824  -10.3334 O   0  0  0  0  0  0  0  0  0  0  0  0
  -24.8060   -1.0264  -12.7085 N   0  0  0  0  0  0  0  0  0  0  0  0
  -23.7370   -0.1988  -13.1324 C   0  0  0  0  0  0  0  0  0  0  0  0
  -22.5496   -0.7720  -13.6191 C   0  0  0  0  0  0  0  0  0  0  0  0
  -21.5093    0.0368  -14.0946 C   0  0  0  0  0  0  0  0  0  0  0  0
  -21.6311    1.4256  -14.0687 C   0  0  0  0  0  0  0  0  0  0  0  0
  -22.7950    2.0081  -13.5758 C   0  0  0  0  0  0  0  0  0  0  0  0
  -23.8395    1.1999  -13.1207 C   0  0  0  0  0  0  0  0  0  0  0  0
  -25.4120   -0.7574  -15.9052 C   0  0  0  0  0  0  0  0  0  0  0  0
  -25.6304   -1.8706  -14.8803 C   0  0  0  0  0  0  0  0  0  0  0  0
  -27.9551   -3.5850   -8.3722 C   0  0  0  0  0  0  0  0  0  0  0  0
  -28.3113   -2.6341   -7.4160 C   0  0  0  0  0  0  0  0  0  0  0  0
  -29.0010   -3.0294   -6.2441 C   0  0  0  0  0  0  0  0  0  0  0  0
  -29.3938   -4.3581   -6.0636 C   0  0  0  0  0  0  0  0  0  0  0  0
  -28.9614   -5.2345   -7.0477 C   0  0  0  0  0  0  0  0  0  0  0  0
  -28.2667   -4.8797   -8.1717 N   0  0  0  0  0  0  0  0  0  0  0  0
  -30.1506   -4.8909   -5.0206 O   0  0  0  0  0  0  0  0  0  0  0  0
  -29.9258   -6.2023   -4.6348 C   0  0  0  0  0  0  0  0  0  0  0  0
  -29.1197   -6.5015   -3.5735 C   0  0  0  0  0  0  0  0  0  0  0  0
  -28.5858   -7.7724   -3.5008 C   0  0  0  0  0  0  0  0  0  0  0  0
  -28.7422   -8.6847   -4.4827 N   0  0  0  0  0  0  0  0  0  0  0  0
  -29.6295   -8.4091   -5.4595 C   0  0  0  0  0  0  0  0  0  0  0  0
  -29.6968   -9.1691   -6.6192 C   0  0  0  0  0  0  0  0  0  0  0  0
  -30.6413   -8.8449   -7.5860 C   0  0  0  0  0  0  0  0  0  0  0  0
  -31.7739   -8.1522   -7.2103 C   0  0  0  0  0  0  0  0  0  0  0  0
  -31.5983   -7.2219   -6.2069 C   0  0  0  0  0  0  0  0  0  0  0  0
  -30.4194   -7.2532   -5.4335 C   0  0  0  0  0  0  0  0  0  0  0  0
  -30.2942   -8.9914   -8.9064 O   0  0  0  0  0  0  0  0  0  0  0  0
  -28.8720   -8.8956   -9.1322 C   0  0  0  0  0  0  0  0  0  0  0  0
 18 19  1  0  0  0
 19  5  1  0  0  0
  5  6  1  0  0  0
  5 11  1  0  0  0
  6  7  1  0  0  0
  6  8  2  0  0  0
  8  1  1  0  0  0
  8  9  1  0  0  0
  1  2  2  0  0  0
  1  3  1  0  0  0
  3 20  1  0  0  0
  3  4  1  0  0  0
 20 21  1  0  0  0
 20 25  2  0  0  0
 21 22  2  0  0  0
 22 23  1  0  0  0
 23 26  1  0  0  0
 23 24  2  0  0  0
 26 27  1  0  0  0
 27 28  1  0  0  0
 27 36  2  0  0  0
 28 29  2  0  0  0
 29 30  1  0  0  0
 30 31  2  0  0  0
 31 32  1  0  0  0
 31 36  1  0  0  0
 32 33  2  0  0  0
 33 37  1  0  0  0
 33 34  1  0  0  0
 37 38  1  0  0  0
 34 35  2  0  0  0
 35 36  1  0  0  0
 24 25  1  0  0  0
  9 10  2  0  0  0
  9 11  1  0  0  0
 11 12  1  0  0  0
 12 13  1  0  0  0
 12 17  2  0  0  0
 13 14  2  0  0  0
 14 15  1  0  0  0
 15 16  2  0  0  0
 16 17  1  0  0  0
M  END
> <minimizedAffinity>
-9.23341

$$$$
