CHEMBL2000078


 48 54  0  0  0  0  0  0  0  0999 V2000
  -28.8341   -6.2599   -7.6419 C   0  0  0  0  0  0  0  0  0  0  0  0
  -28.3007   -5.4306   -8.6248 N   0  0  0  0  0  0  0  0  0  0  0  0
  -28.2379   -4.2812   -8.0197 C   0  0  0  0  0  0  0  0  0  0  0  0
  -27.6770   -2.7047   -8.4894 S   0  0  0  0  0  0  0  0  0  0  0  0
  -28.0564   -2.1266   -6.8640 C   0  0  0  0  0  0  0  0  0  0  0  0
  -28.5574   -3.0851   -6.0688 C   0  0  0  0  0  0  0  0  0  0  0  0
  -28.6636   -4.2973   -6.7237 N   0  0  0  0  0  0  0  0  0  0  0  0
  -29.0598   -5.5820   -6.4285 C   0  0  0  0  0  0  0  0  0  0  0  0
  -29.4826  -10.3873   -8.5318 C   0  0  0  0  0  0  0  0  0  0  0  0
  -30.4920   -9.4301   -8.7341 C   0  0  0  0  0  0  0  0  0  0  0  0
  -30.2837   -8.0877   -8.4199 C   0  0  0  0  0  0  0  0  0  0  0  0
  -29.0588   -7.6680   -7.9098 C   0  0  0  0  0  0  0  0  0  0  0  0
  -28.0692   -8.6273   -7.6709 C   0  0  0  0  0  0  0  0  0  0  0  0
  -28.2402   -9.9737   -8.0038 C   0  0  0  0  0  0  0  0  0  0  0  0
  -27.1835  -10.9100   -7.8446 N   0  0  0  0  0  0  0  0  0  0  0  0
  -26.2471  -11.2665   -8.8096 C   0  0  0  0  0  0  0  0  0  0  0  0
  -26.1272  -10.7768   -9.9327 O   0  0  0  0  0  0  0  0  0  0  0  0
  -27.0928  -11.2985   -6.9112 H   0  0  0  0  0  0  0  0  0  0  0  0
  -25.2640  -12.3347   -8.3677 C   0  0  0  0  0  0  0  0  0  0  0  0
  -24.0019  -11.7390   -7.7967 C   0  0  0  0  0  0  0  0  0  0  0  0
  -24.0629  -10.5971   -6.9906 C   0  0  0  0  0  0  0  0  0  0  0  0
  -22.8921  -10.0231   -6.4970 C   0  0  0  0  0  0  0  0  0  0  0  0
  -21.6524  -10.5871   -6.7940 C   0  0  0  0  0  0  0  0  0  0  0  0
  -21.5818  -11.7396   -7.5724 C   0  0  0  0  0  0  0  0  0  0  0  0
  -22.7513  -12.3192   -8.0639 C   0  0  0  0  0  0  0  0  0  0  0  0
  -29.6547  -11.7298   -8.8137 O   0  0  0  0  0  0  0  0  0  0  0  0
  -31.1670  -11.9547   -6.9236 C   0  0  0  0  0  0  0  0  0  0  0  0
  -30.9152  -12.2696   -8.3848 C   0  0  0  0  0  0  0  0  0  0  0  0
  -29.5213   -6.0280   -5.1169 C   0  0  0  0  0  0  0  0  0  0  0  0
  -30.6946   -5.5855   -4.5449 C   0  0  0  0  0  0  0  0  0  0  0  0
  -30.9801   -6.0973   -3.3086 C   0  0  0  0  0  0  0  0  0  0  0  0
  -30.2260   -7.0266   -2.7104 N   0  0  0  0  0  0  0  0  0  0  0  0
  -29.1272   -7.4486   -3.3560 C   0  0  0  0  0  0  0  0  0  0  0  0
  -28.7123   -6.9249   -4.5160 N   0  0  0  0  0  0  0  0  0  0  0  0
  -28.3471   -8.4553   -2.8002 N   0  0  0  0  0  0  0  0  0  0  0  0
  -27.8255   -8.1274   -2.0021 H   0  0  0  0  0  0  0  0  0  0  0  0
  -27.9567   -9.6735   -3.3714 C   0  0  0  0  0  0  0  0  0  0  0  0
  -28.7662  -10.3733   -4.2692 C   0  0  0  0  0  0  0  0  0  0  0  0
  -28.3815  -11.6223   -4.7432 C   0  0  0  0  0  0  0  0  0  0  0  0
  -27.1843  -12.1920   -4.3069 C   0  0  0  0  0  0  0  0  0  0  0  0
  -26.3350  -11.5299   -3.4085 C   0  0  0  0  0  0  0  0  0  0  0  0
  -26.7469  -10.2595   -2.9691 C   0  0  0  0  0  0  0  0  0  0  0  0
  -25.1510  -12.0912   -2.9830 N   0  0  0  0  0  0  0  0  0  0  0  0
  -24.8915  -12.4640   -1.5841 C   0  0  0  0  0  0  0  0  0  0  0  0
  -23.5426  -11.8730   -1.1501 C   0  0  0  0  0  0  0  0  0  0  0  0
  -22.4794  -12.3014   -2.0209 O   0  0  0  0  0  0  0  0  0  0  0  0
  -22.7444  -11.8897   -3.3737 C   0  0  0  0  0  0  0  0  0  0  0  0
  -24.0700  -12.4644   -3.9042 C   0  0  0  0  0  0  0  0  0  0  0  0
 27 28  1  0  0  0
 28 26  1  0  0  0
 26  9  1  0  0  0
  9 10  1  0  0  0
  9 14  2  0  0  0
 10 11  2  0  0  0
 11 12  1  0  0  0
 12  1  1  0  0  0
 12 13  2  0  0  0
  1  2  1  0  0  0
  1  8  2  0  0  0
  2  3  2  0  0  0
  3  4  1  0  0  0
  3  7  1  0  0  0
  4  5  1  0  0  0
  5  6  2  0  0  0
  6  7  1  0  0  0
  7  8  1  0  0  0
  8 29  1  0  0  0
 29 30  1  0  0  0
 29 34  2  0  0  0
 30 31  2  0  0  0
 31 32  1  0  0  0
 32 33  2  0  0  0
 33 35  1  0  0  0
 33 34  1  0  0  0
 35 37  1  0  0  0
 35 36  1  0  0  0
 37 38  1  0  0  0
 37 42  2  0  0  0
 38 39  2  0  0  0
 39 40  1  0  0  0
 40 41  2  0  0  0
 41 43  1  0  0  0
 41 42  1  0  0  0
 43 44  1  0  0  0
 43 48  1  0  0  0
 44 45  1  0  0  0
 45 46  1  0  0  0
 46 47  1  0  0  0
 47 48  1  0  0  0
 13 14  1  0  0  0
 14 15  1  0  0  0
 15 16  1  0  0  0
 15 18  1  0  0  0
 16 17  2  0  0  0
 16 19  1  0  0  0
 19 20  1  0  0  0
 20 21  1  0  0  0
 20 25  2  0  0  0
 21 22  2  0  0  0
 22 23  1  0  0  0
 23 24  2  0  0  0
 24 25  1  0  0  0
M  END
> <minimizedAffinity>
-7.86580

$$$$
