CHEMBL203149


 28 31  0  0  0  0  0  0  0  0999 V2000
  -29.0041   -8.3738   -6.1245 C   0  0  0  0  0  0  0  0  0  0  0  0
  -30.0163   -9.5346   -6.8812 S   0  0  0  0  0  0  0  0  0  0  0  0
  -30.8922   -8.2700   -7.6339 C   0  0  0  0  0  0  0  0  0  0  0  0
  -30.4893   -7.0482   -7.3621 N   0  0  0  0  0  0  0  0  0  0  0  0
  -29.4109   -7.0909   -6.4868 C   0  0  0  0  0  0  0  0  0  0  0  0
  -27.8560   -8.2922   -4.0951 O   0  0  0  0  0  0  0  0  0  0  0  0
  -27.8981   -8.7231   -5.2464 C   0  0  0  0  0  0  0  0  0  0  0  0
  -26.8887   -9.5149   -5.7776 N   0  0  0  0  0  0  0  0  0  0  0  0
  -26.8707   -9.6256   -6.7852 H   0  0  0  0  0  0  0  0  0  0  0  0
  -25.7762   -9.9866   -5.0410 C   0  0  0  0  0  0  0  0  0  0  0  0
  -25.9016  -10.5315   -3.7556 C   0  0  0  0  0  0  0  0  0  0  0  0
  -24.7780  -10.9003   -3.0143 C   0  0  0  0  0  0  0  0  0  0  0  0
  -23.5145  -10.7452   -3.5672 C   0  0  0  0  0  0  0  0  0  0  0  0
  -22.1256  -11.1518   -2.6397 Cl  0  0  0  0  0  0  0  0  0  0  0  0
  -23.3729  -10.2595   -4.8662 C   0  0  0  0  0  0  0  0  0  0  0  0
  -24.5033   -9.8924   -5.6094 C   0  0  0  0  0  0  0  0  0  0  0  0
  -28.7621   -5.7945   -6.0663 C   0  0  0  0  0  0  0  0  0  0  0  0
  -29.6185   -4.5534   -6.3006 C   0  0  0  0  0  0  0  0  0  0  0  0
  -28.8299   -3.4312   -6.9537 C   0  0  0  0  0  0  0  0  0  0  0  0
  -28.2678   -3.6760   -8.2117 C   0  0  0  0  0  0  0  0  0  0  0  0
  -27.6055   -2.6504   -8.8562 C   0  0  0  0  0  0  0  0  0  0  0  0
  -27.4726   -1.4093   -8.3512 N   0  0  0  0  0  0  0  0  0  0  0  0
  -27.9856   -1.1651   -7.1351 C   0  0  0  0  0  0  0  0  0  0  0  0
  -27.8597    0.1213   -6.6277 C   0  0  0  0  0  0  0  0  0  0  0  0
  -28.3427    0.4691   -5.3659 C   0  0  0  0  0  0  0  0  0  0  0  0
  -28.9475   -0.4972   -4.5761 C   0  0  0  0  0  0  0  0  0  0  0  0
  -29.0993   -1.7952   -5.0676 C   0  0  0  0  0  0  0  0  0  0  0  0
  -28.6511   -2.1501   -6.3634 C   0  0  0  0  0  0  0  0  0  0  0  0
  6  7  2  0  0  0
  7  8  1  0  0  0
  7  1  1  0  0  0
  8 10  1  0  0  0
  8  9  1  0  0  0
 10 11  1  0  0  0
 10 16  2  0  0  0
 11 12  2  0  0  0
 12 13  1  0  0  0
 13 14  1  0  0  0
 13 15  2  0  0  0
 15 16  1  0  0  0
  1  2  1  0  0  0
  1  5  2  0  0  0
  2  3  1  0  0  0
  3  4  2  0  0  0
  4  5  1  0  0  0
  5 17  1  0  0  0
 17 18  1  0  0  0
 18 19  1  0  0  0
 19 20  1  0  0  0
 19 28  2  0  0  0
 20 21  2  0  0  0
 21 22  1  0  0  0
 22 23  2  0  0  0
 23 24  1  0  0  0
 23 28  1  0  0  0
 24 25  2  0  0  0
 25 26  1  0  0  0
 26 27  2  0  0  0
 27 28  1  0  0  0
M  END
> <minimizedAffinity>
-8.61066

$$$$
