CHEMBL1681954


 36 38  0  0  0  0  0  0  0  0999 V2000
  -29.4678   -3.8047   -6.2024 C   0  0  0  0  0  0  0  0  0  0  0  0
  -29.5041   -4.1584   -7.5512 C   0  0  0  0  0  0  0  0  0  0  0  0
  -28.9081   -3.3501   -8.5142 C   0  0  0  0  0  0  0  0  0  0  0  0
  -28.2892   -2.1374   -8.1917 C   0  0  0  0  0  0  0  0  0  0  0  0
  -28.3535   -1.7294   -6.8456 C   0  0  0  0  0  0  0  0  0  0  0  0
  -27.6525   -0.2272   -6.3435 Cl  0  0  0  0  0  0  0  0  0  0  0  0
  -28.9385   -2.5519   -5.8550 C   0  0  0  0  0  0  0  0  0  0  0  0
  -27.6327   -1.3740   -9.2089 N   0  0  0  0  0  0  0  0  0  0  0  0
  -27.0383   -1.9402  -10.3204 C   0  0  0  0  0  0  0  0  0  0  0  0
  -26.9381   -3.1473  -10.5368 O   0  0  0  0  0  0  0  0  0  0  0  0
  -26.5481   -1.0402  -11.2414 N   0  0  0  0  0  0  0  0  0  0  0  0
  -27.4692   -0.3941   -9.0198 H   0  0  0  0  0  0  0  0  0  0  0  0
  -26.1123   -0.2135  -10.8588 H   0  0  0  0  0  0  0  0  0  0  0  0
  -25.8995   -1.6517  -12.3910 C   0  0  0  0  0  0  0  0  0  0  0  0
  -24.5667   -1.0767  -12.7754 C   0  0  0  0  0  0  0  0  0  0  0  0
  -23.6439   -0.6888  -11.7887 C   0  0  0  0  0  0  0  0  0  0  0  0
  -22.4571   -0.0488  -12.1515 C   0  0  0  0  0  0  0  0  0  0  0  0
  -22.1959    0.2070  -13.4930 C   0  0  0  0  0  0  0  0  0  0  0  0
  -21.0609    0.8307  -13.8351 F   0  0  0  0  0  0  0  0  0  0  0  0
  -23.0982   -0.1616  -14.4813 C   0  0  0  0  0  0  0  0  0  0  0  0
  -24.2757   -0.7979  -14.1123 C   0  0  0  0  0  0  0  0  0  0  0  0
  -25.1627   -1.1232  -15.0651 F   0  0  0  0  0  0  0  0  0  0  0  0
  -29.9593   -4.6536   -5.2268 O   0  0  0  0  0  0  0  0  0  0  0  0
  -29.7843   -7.0678   -5.2892 C   0  0  0  0  0  0  0  0  0  0  0  0
  -28.9863   -8.1708   -4.9905 C   0  0  0  0  0  0  0  0  0  0  0  0
  -29.3666   -9.4802   -5.2839 N   0  0  0  0  0  0  0  0  0  0  0  0
  -27.7406   -8.0623   -4.4999 N   0  0  0  0  0  0  0  0  0  0  0  0
  -27.3023   -6.8265   -4.2598 C   0  0  0  0  0  0  0  0  0  0  0  0
  -28.0024   -5.7060   -4.4458 N   0  0  0  0  0  0  0  0  0  0  0  0
  -29.2329   -5.8338   -4.9979 C   0  0  0  0  0  0  0  0  0  0  0  0
  -30.3496   -9.6398   -5.0568 H   0  0  0  0  0  0  0  0  0  0  0  0
  -28.7227  -10.1290   -4.8449 H   0  0  0  0  0  0  0  0  0  0  0  0
  -31.2813   -7.9020   -6.9782 N   0  0  0  0  0  0  0  0  0  0  0  0
  -31.1260   -7.2434   -5.8681 C   0  0  0  0  0  0  0  0  0  0  0  0
  -33.1008   -9.2403   -7.3265 C   0  0  0  0  0  0  0  0  0  0  0  0
  -32.6257   -7.8952   -7.3658 O   0  0  0  0  0  0  0  0  0  0  0  0
 35 36  1  0  0  0
 36 33  1  0  0  0
 33 34  2  0  0  0
 34 24  1  0  0  0
 24 25  1  0  0  0
 24 30  2  0  0  0
 25 26  1  0  0  0
 25 27  2  0  0  0
 26 31  1  0  0  0
 26 32  1  0  0  0
 27 28  1  0  0  0
 28 29  2  0  0  0
 29 30  1  0  0  0
 30 23  1  0  0  0
 23  1  1  0  0  0
  1  2  1  0  0  0
  1  7  2  0  0  0
  2  3  2  0  0  0
  3  4  1  0  0  0
  4  8  1  0  0  0
  4  5  2  0  0  0
  8  9  1  0  0  0
  8 12  1  0  0  0
  9 10  2  0  0  0
  9 11  1  0  0  0
 11 14  1  0  0  0
 11 13  1  0  0  0
 14 15  1  0  0  0
 15 16  1  0  0  0
 15 21  2  0  0  0
 16 17  2  0  0  0
 17 18  1  0  0  0
 18 19  1  0  0  0
 18 20  2  0  0  0
 20 21  1  0  0  0
 21 22  1  0  0  0
  5  6  1  0  0  0
  5  7  1  0  0  0
M  END
> <minimizedAffinity>
-8.65793

$$$$
