CHEMBL1974617


 18 20  0  0  0  0  0  0  0  0999 V2000
  -22.5263    0.9546  -13.8570 C   0  0  0  0  0  0  0  0  0  0  0  0
  -22.6929    2.3496  -13.8644 C   0  0  0  0  0  0  0  0  0  0  0  0
  -21.6794    3.2198  -14.2907 C   0  0  0  0  0  0  0  0  0  0  0  0
  -20.4835    2.6384  -14.7150 C   0  0  0  0  0  0  0  0  0  0  0  0
  -19.3203    3.1841  -15.1903 N   0  0  0  0  0  0  0  0  0  0  0  0
  -18.3759    2.2787  -15.5037 N   0  0  0  0  0  0  0  0  0  0  0  0
  -18.9592    1.1119  -15.2168 C   0  0  0  0  0  0  0  0  0  0  0  0
  -20.2724    1.2663  -14.7212 C   0  0  0  0  0  0  0  0  0  0  0  0
  -21.2994    0.4102  -14.2844 C   0  0  0  0  0  0  0  0  0  0  0  0
  -19.1089    4.1657  -15.3271 H   0  0  0  0  0  0  0  0  0  0  0  0
  -25.1895   -1.1745  -12.5175 C   0  0  0  0  0  0  0  0  0  0  0  0
  -24.2779   -0.1291  -12.2468 C   0  0  0  0  0  0  0  0  0  0  0  0
  -23.6009    0.0660  -13.4267 C   0  0  0  0  0  0  0  0  0  0  0  0
  -24.0891   -0.8107  -14.3525 O   0  0  0  0  0  0  0  0  0  0  0  0
  -25.0844   -1.5899  -13.7872 N   0  0  0  0  0  0  0  0  0  0  0  0
  -25.7308   -1.7740  -10.2350 O   0  0  0  0  0  0  0  0  0  0  0  0
  -26.1696   -1.8049  -11.5953 C   0  0  0  0  0  0  0  0  0  0  0  0
  -26.4397   -2.1819   -9.7106 H   0  0  0  0  0  0  0  0  0  0  0  0
 16 17  1  0  0  0
 16 18  1  0  0  0
 17 11  1  0  0  0
 11 12  1  0  0  0
 11 15  2  0  0  0
 12 13  2  0  0  0
 13  1  1  0  0  0
 13 14  1  0  0  0
  1  2  1  0  0  0
  1  9  2  0  0  0
  2  3  2  0  0  0
  3  4  1  0  0  0
  4  5  1  0  0  0
  4  8  2  0  0  0
  5  6  1  0  0  0
  5 10  1  0  0  0
  6  7  2  0  0  0
  7  8  1  0  0  0
  8  9  1  0  0  0
 14 15  1  0  0  0
M  END
> <minimizedAffinity>
-8.08942

$$$$
