CHEMBL3972998


 36 39  0  0  0  0  0  0  0  0999 V2000
  -15.9236    1.9603  -15.5477 N   0  0  0  0  0  0  0  0  0  0  0  0
  -17.3286    2.1566  -15.3021 C   0  0  0  0  0  0  0  0  0  0  0  0
  -17.9115    3.3142  -15.8158 C   0  0  0  0  0  0  0  0  0  0  0  0
  -19.2052    3.6911  -15.5214 C   0  0  0  0  0  0  0  0  0  0  0  0
  -20.0485    2.8966  -14.7881 C   0  0  0  0  0  0  0  0  0  0  0  0
  -21.2059    3.4976  -14.5649 N   0  0  0  0  0  0  0  0  0  0  0  0
  -22.1744    2.7516  -14.0384 C   0  0  0  0  0  0  0  0  0  0  0  0
  -22.0050    1.4033  -13.7928 C   0  0  0  0  0  0  0  0  0  0  0  0
  -20.7636    0.7997  -13.9271 N   0  0  0  0  0  0  0  0  0  0  0  0
  -19.6887    1.5820  -14.4206 C   0  0  0  0  0  0  0  0  0  0  0  0
  -18.2637    1.2746  -14.6245 C   0  0  0  0  0  0  0  0  0  0  0  0
  -23.2525    0.6898  -13.5100 C   0  0  0  0  0  0  0  0  0  0  0  0
  -23.9110    0.4702  -12.2665 C   0  0  0  0  0  0  0  0  0  0  0  0
  -24.8383   -0.4973  -12.3235 N   0  0  0  0  0  0  0  0  0  0  0  0
  -24.7639   -0.9271  -13.5938 N   0  0  0  0  0  0  0  0  0  0  0  0
  -25.7686   -1.8117  -14.1379 C   0  0  0  0  0  0  0  0  0  0  0  0
  -23.7251   -0.3655  -14.2829 C   0  0  0  0  0  0  0  0  0  0  0  0
  -14.9913    2.8338  -16.1724 C   0  0  0  0  0  0  0  0  0  0  0  0
  -14.6373    2.7258  -17.5305 C   0  0  0  0  0  0  0  0  0  0  0  0
  -13.6512    3.5593  -18.0998 C   0  0  0  0  0  0  0  0  0  0  0  0
  -13.0050    4.5221  -17.3205 C   0  0  0  0  0  0  0  0  0  0  0  0
  -13.3483    4.6685  -15.9895 C   0  0  0  0  0  0  0  0  0  0  0  0
  -14.3059    3.8230  -15.4295 C   0  0  0  0  0  0  0  0  0  0  0  0
  -13.2068    3.5551  -19.3954 O   0  0  0  0  0  0  0  0  0  0  0  0
  -11.8850    3.1090  -19.6436 C   0  0  0  0  0  0  0  0  0  0  0  0
  -12.7942    5.5860  -15.1389 O   0  0  0  0  0  0  0  0  0  0  0  0
  -11.5735    5.1553  -14.5425 C   0  0  0  0  0  0  0  0  0  0  0  0
  -15.3276    0.6979  -14.9447 C   0  0  0  0  0  0  0  0  0  0  0  0
  -15.0138    0.6391  -13.4159 C   0  0  0  0  0  0  0  0  0  0  0  0
  -15.7183   -0.4676  -12.6059 C   0  0  0  0  0  0  0  0  0  0  0  0
  -15.2604   -2.6799  -11.8039 C   0  0  0  0  0  0  0  0  0  0  0  0
  -14.7156   -1.4160  -12.1666 O   0  0  0  0  0  0  0  0  0  0  0  0
  -13.5803    0.3236  -13.2980 O   0  0  0  0  0  0  0  0  0  0  0  0
  -12.7277    1.3524  -13.0560 C   0  0  0  0  0  0  0  0  0  0  0  0
  -11.7111    1.4794  -14.1534 C   0  0  0  0  0  0  0  0  0  0  0  0
  -12.8035    2.1135  -12.1024 O   0  0  0  0  0  0  0  0  0  0  0  0
 31 32  1  0  0  0
 32 30  1  0  0  0
 29 33  1  0  0  0
 29 28  1  0  0  0
 29 30  1  0  0  0
 28  1  1  0  0  0
  1 18  1  0  0  0
  1  2  1  0  0  0
 18 19  1  0  0  0
 18 23  2  0  0  0
 19 20  2  0  0  0
 20 24  1  0  0  0
 20 21  1  0  0  0
 24 25  1  0  0  0
 21 22  2  0  0  0
 22 26  1  0  0  0
 22 23  1  0  0  0
 26 27  1  0  0  0
  2  3  1  0  0  0
  2 11  2  0  0  0
  3  4  2  0  0  0
  4  5  1  0  0  0
  5  6  1  0  0  0
  5 10  2  0  0  0
  6  7  2  0  0  0
  7  8  1  0  0  0
  8 12  1  0  0  0
  8  9  2  0  0  0
 12 13  1  0  0  0
 12 17  2  0  0  0
 13 14  2  0  0  0
 14 15  1  0  0  0
 15 16  1  0  0  0
 15 17  1  0  0  0
  9 10  1  0  0  0
 10 11  1  0  0  0
 33 34  1  0  0  0
 34 35  1  0  0  0
 34 36  2  0  0  0
M  END
> <minimizedAffinity>
-7.96276

$$$$
