CHEMBL426004


 33 36  0  0  0  0  0  0  0  0999 V2000
  -21.4319    1.6535  -14.5857 C   0  0  0  0  0  0  0  0  0  0  0  0
  -21.3219    0.2635  -14.4898 C   0  0  0  0  0  0  0  0  0  0  0  0
  -22.3182   -0.4934  -13.8614 C   0  0  0  0  0  0  0  0  0  0  0  0
  -23.4412    0.1185  -13.2860 C   0  0  0  0  0  0  0  0  0  0  0  0
  -23.4621    1.5282  -13.2926 C   0  0  0  0  0  0  0  0  0  0  0  0
  -22.4860    2.2912  -13.9456 C   0  0  0  0  0  0  0  0  0  0  0  0
  -24.5322   -0.6705  -12.6677 C   0  0  0  0  0  0  0  0  0  0  0  0
  -24.5696   -0.9268  -11.2741 C   0  0  0  0  0  0  0  0  0  0  0  0
  -25.6557   -1.5504  -10.6559 C   0  0  0  0  0  0  0  0  0  0  0  0
  -26.7872   -1.8995  -11.3868 C   0  0  0  0  0  0  0  0  0  0  0  0
  -26.7366   -1.6887  -12.7661 C   0  0  0  0  0  0  0  0  0  0  0  0
  -27.6806   -1.8925  -13.7361 N   0  0  0  0  0  0  0  0  0  0  0  0
  -27.2303   -1.7317  -14.9858 N   0  0  0  0  0  0  0  0  0  0  0  0
  -25.9773   -1.3214  -14.8161 C   0  0  0  0  0  0  0  0  0  0  0  0
  -25.1565   -1.1226  -15.8601 N   0  0  0  0  0  0  0  0  0  0  0  0
  -25.6293   -1.1635  -13.4340 C   0  0  0  0  0  0  0  0  0  0  0  0
  -28.6492   -2.1589  -13.6067 H   0  0  0  0  0  0  0  0  0  0  0  0
  -25.4684   -1.4751  -16.7572 H   0  0  0  0  0  0  0  0  0  0  0  0
  -24.1520   -1.1857  -15.7254 H   0  0  0  0  0  0  0  0  0  0  0  0
  -18.4265    3.1493  -15.9645 N   0  0  0  0  0  0  0  0  0  0  0  0
  -19.1776    2.3897  -15.0841 C   0  0  0  0  0  0  0  0  0  0  0  0
  -18.7060    1.7241  -14.1641 O   0  0  0  0  0  0  0  0  0  0  0  0
  -20.5349    2.4196  -15.3709 N   0  0  0  0  0  0  0  0  0  0  0  0
  -18.9339    3.8258  -16.5216 H   0  0  0  0  0  0  0  0  0  0  0  0
  -20.7580    2.4971  -16.3532 H   0  0  0  0  0  0  0  0  0  0  0  0
  -12.6857    3.1342  -16.0923 C   0  0  0  0  0  0  0  0  0  0  0  0
  -14.1799    3.1493  -16.0738 C   0  0  0  0  0  0  0  0  0  0  0  0
  -14.8740    4.3570  -16.0533 C   0  0  0  0  0  0  0  0  0  0  0  0
  -16.2650    4.3661  -16.0137 C   0  0  0  0  0  0  0  0  0  0  0  0
  -17.0098    3.1818  -16.0133 C   0  0  0  0  0  0  0  0  0  0  0  0
  -16.3164    1.9671  -16.0387 C   0  0  0  0  0  0  0  0  0  0  0  0
  -14.9216    1.9647  -16.0652 C   0  0  0  0  0  0  0  0  0  0  0  0
  -14.2818    0.7888  -16.0846 F   0  0  0  0  0  0  0  0  0  0  0  0
 26 27  1  0  0  0
 27 28  1  0  0  0
 27 32  2  0  0  0
 28 29  2  0  0  0
 29 30  1  0  0  0
 30 20  1  0  0  0
 30 31  2  0  0  0
 20 21  1  0  0  0
 20 24  1  0  0  0
 21 22  2  0  0  0
 21 23  1  0  0  0
 23  1  1  0  0  0
 23 25  1  0  0  0
  1  2  1  0  0  0
  1  6  2  0  0  0
  2  3  2  0  0  0
  3  4  1  0  0  0
  4  7  1  0  0  0
  4  5  2  0  0  0
  7  8  1  0  0  0
  7 16  2  0  0  0
  8  9  2  0  0  0
  9 10  1  0  0  0
 10 11  2  0  0  0
 11 12  1  0  0  0
 11 16  1  0  0  0
 12 13  1  0  0  0
 12 17  1  0  0  0
 13 14  2  0  0  0
 14 15  1  0  0  0
 14 16  1  0  0  0
 15 18  1  0  0  0
 15 19  1  0  0  0
  5  6  1  0  0  0
 31 32  1  0  0  0
 32 33  1  0  0  0
M  END
> <minimizedAffinity>
-9.85434

$$$$
