CHEMBL1277071


 34 38  0  0  0  0  0  0  0  0999 V2000
  -23.4176   -0.4316  -11.0661 C   0  0  0  0  0  0  0  0  0  0  0  0
  -24.0051   -0.8185  -12.3796 C   0  0  0  0  0  0  0  0  0  0  0  0
  -23.5028   -0.6158  -13.6550 C   0  0  0  0  0  0  0  0  0  0  0  0
  -24.4718   -1.0299  -14.5447 N   0  0  0  0  0  0  0  0  0  0  0  0
  -25.5565   -1.5365  -13.8618 C   0  0  0  0  0  0  0  0  0  0  0  0
  -25.2278   -1.5273  -12.5245 C   0  0  0  0  0  0  0  0  0  0  0  0
  -26.0072   -2.1013  -11.4445 C   0  0  0  0  0  0  0  0  0  0  0  0
  -25.4734   -2.8825  -10.6658 O   0  0  0  0  0  0  0  0  0  0  0  0
  -27.3129   -1.6411  -11.3318 N   0  0  0  0  0  0  0  0  0  0  0  0
  -27.9710   -0.9306  -12.4373 C   0  0  0  0  0  0  0  0  0  0  0  0
  -28.0904   -1.7743  -13.7146 C   0  0  0  0  0  0  0  0  0  0  0  0
  -26.7980   -2.0262  -14.5211 C   0  0  0  0  0  0  0  0  0  0  0  0
  -24.3939   -0.9858  -15.5575 H   0  0  0  0  0  0  0  0  0  0  0  0
  -22.2401   -0.1006  -14.0457 C   0  0  0  0  0  0  0  0  0  0  0  0
  -21.8258    1.1672  -14.1690 C   0  0  0  0  0  0  0  0  0  0  0  0
  -22.5268    2.4734  -13.9023 C   0  0  0  0  0  0  0  0  0  0  0  0
  -23.6193    2.6512  -13.3971 O   0  0  0  0  0  0  0  0  0  0  0  0
  -21.6461    3.4537  -14.3357 N   0  0  0  0  0  0  0  0  0  0  0  0
  -20.4551    2.9025  -14.7963 C   0  0  0  0  0  0  0  0  0  0  0  0
  -19.3511    3.5840  -15.2711 C   0  0  0  0  0  0  0  0  0  0  0  0
  -18.2396    2.8230  -15.6420 C   0  0  0  0  0  0  0  0  0  0  0  0
  -18.2700    1.4255  -15.5341 C   0  0  0  0  0  0  0  0  0  0  0  0
  -17.1846    0.7214  -15.8809 F   0  0  0  0  0  0  0  0  0  0  0  0
  -19.3959    0.7495  -15.0690 C   0  0  0  0  0  0  0  0  0  0  0  0
  -20.4939    1.5084  -14.7000 C   0  0  0  0  0  0  0  0  0  0  0  0
  -21.8549    4.4386  -14.2746 H   0  0  0  0  0  0  0  0  0  0  0  0
  -28.1172   -2.0664  -10.1796 C   0  0  0  0  0  0  0  0  0  0  0  0
  -27.7752   -1.3419   -8.8467 C   0  0  0  0  0  0  0  0  0  0  0  0
  -27.3979   -2.2270   -7.7260 N   0  0  0  0  0  0  0  0  0  0  0  0
  -28.1065   -3.5209   -7.7281 C   0  0  0  0  0  0  0  0  0  0  0  0
  -29.5911   -3.4204   -7.3461 C   0  0  0  0  0  0  0  0  0  0  0  0
  -29.7591   -2.7985   -6.0670 O   0  0  0  0  0  0  0  0  0  0  0  0
  -29.1594   -1.4964   -6.0518 C   0  0  0  0  0  0  0  0  0  0  0  0
  -27.6665   -1.5606   -6.4293 C   0  0  0  0  0  0  0  0  0  0  0  0
  1  2  1  0  0  0
  2  3  2  0  0  0
  2  6  1  0  0  0
  3 14  1  0  0  0
  3  4  1  0  0  0
 14 15  2  0  0  0
 15 16  1  0  0  0
 15 25  1  0  0  0
 16 17  2  0  0  0
 16 18  1  0  0  0
 18 19  1  0  0  0
 18 26  1  0  0  0
 19 20  1  0  0  0
 19 25  2  0  0  0
 20 21  2  0  0  0
 21 22  1  0  0  0
 22 23  1  0  0  0
 22 24  2  0  0  0
 24 25  1  0  0  0
  4  5  1  0  0  0
  4 13  1  0  0  0
  5  6  2  0  0  0
  5 12  1  0  0  0
  6  7  1  0  0  0
  7  8  2  0  0  0
  7  9  1  0  0  0
  9 27  1  0  0  0
  9 10  1  0  0  0
 27 28  1  0  0  0
 28 29  1  0  0  0
 29 30  1  0  0  0
 29 34  1  0  0  0
 30 31  1  0  0  0
 31 32  1  0  0  0
 32 33  1  0  0  0
 33 34  1  0  0  0
 10 11  1  0  0  0
 11 12  1  0  0  0
M  END
> <minimizedAffinity>
-8.37832

$$$$
