CHEMBL2002649


 20 22  0  0  0  0  0  0  0  0999 V2000
  -18.2750    1.6224  -15.4915 C   0  0  0  0  0  0  0  0  0  0  0  0
  -18.4250    3.0241  -15.5191 C   0  0  0  0  0  0  0  0  0  0  0  0
  -19.6221    3.6276  -15.1339 C   0  0  0  0  0  0  0  0  0  0  0  0
  -20.6326    2.7978  -14.7039 C   0  0  0  0  0  0  0  0  0  0  0  0
  -20.4938    1.4058  -14.6387 C   0  0  0  0  0  0  0  0  0  0  0  0
  -19.3134    0.7991  -15.0344 C   0  0  0  0  0  0  0  0  0  0  0  0
  -21.7658    0.9033  -14.1053 C   0  0  0  0  0  0  0  0  0  0  0  0
  -22.1023   -0.3756  -13.8730 C   0  0  0  0  0  0  0  0  0  0  0  0
  -22.6533    2.1022  -13.8649 C   0  0  0  0  0  0  0  0  0  0  0  0
  -23.7697    2.1575  -13.3884 O   0  0  0  0  0  0  0  0  0  0  0  0
  -21.8923    3.1879  -14.2683 N   0  0  0  0  0  0  0  0  0  0  0  0
  -22.2360    4.1337  -14.2147 H   0  0  0  0  0  0  0  0  0  0  0  0
  -23.3681   -0.7921  -13.3989 C   0  0  0  0  0  0  0  0  0  0  0  0
  -24.4715   -1.1253  -14.1453 C   0  0  0  0  0  0  0  0  0  0  0  0
  -25.3583   -1.6234  -13.2289 N   0  0  0  0  0  0  0  0  0  0  0  0
  -24.7767   -1.5259  -11.9946 C   0  0  0  0  0  0  0  0  0  0  0  0
  -23.5807   -0.9854  -12.0639 N   0  0  0  0  0  0  0  0  0  0  0  0
  -26.2598   -2.0341  -13.4268 H   0  0  0  0  0  0  0  0  0  0  0  0
  -16.0119    2.1542  -15.8946 C   0  0  0  0  0  0  0  0  0  0  0  0
  -17.0449    1.1747  -15.8972 O   0  0  0  0  0  0  0  0  0  0  0  0
 19 20  1  0  0  0
 20  1  1  0  0  0
  1  2  1  0  0  0
  1  6  2  0  0  0
  2  3  2  0  0  0
  3  4  1  0  0  0
  4  5  2  0  0  0
  4 11  1  0  0  0
  5  6  1  0  0  0
  5  7  1  0  0  0
  7  8  2  0  0  0
  7  9  1  0  0  0
  8 13  1  0  0  0
 13 14  2  0  0  0
 13 17  1  0  0  0
 14 15  1  0  0  0
 15 16  1  0  0  0
 15 18  1  0  0  0
 16 17  2  0  0  0
  9 10  2  0  0  0
  9 11  1  0  0  0
 11 12  1  0  0  0
M  END
> <minimizedAffinity>
-8.12047

$$$$
