CHEMBL1277254


 35 38  0  0  0  0  0  0  0  0999 V2000
  -28.0814   -1.9655   -8.6949 C   0  0  0  0  0  0  0  0  0  0  0  0
  -27.8066   -0.7180   -8.1402 C   0  0  0  0  0  0  0  0  0  0  0  0
  -27.6513   -0.5938   -6.7645 C   0  0  0  0  0  0  0  0  0  0  0  0
  -27.7172   -1.7245   -5.9419 C   0  0  0  0  0  0  0  0  0  0  0  0
  -27.9839   -2.9851   -6.4811 C   0  0  0  0  0  0  0  0  0  0  0  0
  -28.1501   -3.0984   -7.8696 C   0  0  0  0  0  0  0  0  0  0  0  0
  -26.0752   -1.4069  -10.6764 N   0  0  0  0  0  0  0  0  0  0  0  0
  -27.3567   -1.7053  -11.0827 C   0  0  0  0  0  0  0  0  0  0  0  0
  -27.7489   -1.8074  -12.2404 O   0  0  0  0  0  0  0  0  0  0  0  0
  -28.2391   -2.0298  -10.0852 N   0  0  0  0  0  0  0  0  0  0  0  0
  -25.9013   -1.4499   -9.6876 H   0  0  0  0  0  0  0  0  0  0  0  0
  -28.9855   -2.6081  -10.4504 H   0  0  0  0  0  0  0  0  0  0  0  0
  -22.7938   -0.5116  -13.1779 C   0  0  0  0  0  0  0  0  0  0  0  0
  -23.0230   -1.8293  -12.7897 C   0  0  0  0  0  0  0  0  0  0  0  0
  -24.0953   -2.1449  -11.9505 C   0  0  0  0  0  0  0  0  0  0  0  0
  -24.9565   -1.1521  -11.4917 C   0  0  0  0  0  0  0  0  0  0  0  0
  -24.7094    0.1766  -11.8551 C   0  0  0  0  0  0  0  0  0  0  0  0
  -23.6367    0.4916  -12.6978 C   0  0  0  0  0  0  0  0  0  0  0  0
  -21.6549    1.3168  -14.1641 C   0  0  0  0  0  0  0  0  0  0  0  0
  -21.7921   -0.0922  -14.0093 O   0  0  0  0  0  0  0  0  0  0  0  0
  -28.0076   -4.1810   -5.7913 O   0  0  0  0  0  0  0  0  0  0  0  0
  -29.1930   -4.7750   -5.3488 C   0  0  0  0  0  0  0  0  0  0  0  0
  -29.8476   -4.2566   -4.2925 N   0  0  0  0  0  0  0  0  0  0  0  0
  -30.9591   -4.8977   -3.9289 C   0  0  0  0  0  0  0  0  0  0  0  0
  -31.4928   -5.9642   -4.5366 N   0  0  0  0  0  0  0  0  0  0  0  0
  -30.8417   -6.4473   -5.5968 C   0  0  0  0  0  0  0  0  0  0  0  0
  -31.3619   -7.5732   -6.2248 C   0  0  0  0  0  0  0  0  0  0  0  0
  -30.7235   -8.1977   -7.3073 C   0  0  0  0  0  0  0  0  0  0  0  0
  -29.5390   -7.6378   -7.8025 C   0  0  0  0  0  0  0  0  0  0  0  0
  -29.0294   -6.4736   -7.2021 C   0  0  0  0  0  0  0  0  0  0  0  0
  -29.6580   -5.8857   -6.0764 C   0  0  0  0  0  0  0  0  0  0  0  0
  -31.1800   -9.3700   -7.8471 O   0  0  0  0  0  0  0  0  0  0  0  0
  -32.5237   -9.7541   -7.5824 C   0  0  0  0  0  0  0  0  0  0  0  0
  -28.7580   -8.0768   -8.8403 O   0  0  0  0  0  0  0  0  0  0  0  0
  -27.7359   -9.0272   -8.5714 C   0  0  0  0  0  0  0  0  0  0  0  0
 19 20  1  0  0  0
 20 13  1  0  0  0
 13 14  1  0  0  0
 13 18  2  0  0  0
 14 15  2  0  0  0
 15 16  1  0  0  0
 16  7  1  0  0  0
 16 17  2  0  0  0
  7  8  1  0  0  0
  7 11  1  0  0  0
  8  9  2  0  0  0
  8 10  1  0  0  0
 10  1  1  0  0  0
 10 12  1  0  0  0
  1  2  1  0  0  0
  1  6  2  0  0  0
  2  3  2  0  0  0
  3  4  1  0  0  0
  4  5  2  0  0  0
  5 21  1  0  0  0
  5  6  1  0  0  0
 21 22  1  0  0  0
 22 23  1  0  0  0
 22 31  2  0  0  0
 23 24  2  0  0  0
 24 25  1  0  0  0
 25 26  2  0  0  0
 26 27  1  0  0  0
 26 31  1  0  0  0
 27 28  2  0  0  0
 28 32  1  0  0  0
 28 29  1  0  0  0
 32 33  1  0  0  0
 29 34  1  0  0  0
 29 30  2  0  0  0
 34 35  1  0  0  0
 30 31  1  0  0  0
 17 18  1  0  0  0
M  END
> <minimizedAffinity>
-9.73692

$$$$
