CHEMBL3128229


 37 41  0  0  0  0  0  0  0  0999 V2000
  -16.7856    0.4077  -13.9125 N   0  0  0  0  0  0  0  0  0  0  0  0
  -17.4617    0.0121  -13.2691 H   0  0  0  0  0  0  0  0  0  0  0  0
  -15.5742   -0.2862  -13.9131 C   0  0  0  0  0  0  0  0  0  0  0  0
  -14.6169    0.0024  -14.8296 N   0  0  0  0  0  0  0  0  0  0  0  0
  -13.4517   -0.6756  -14.7935 C   0  0  0  0  0  0  0  0  0  0  0  0
  -13.0878   -1.6557  -13.9507 N   0  0  0  0  0  0  0  0  0  0  0  0
  -14.0495   -1.9119  -13.0476 C   0  0  0  0  0  0  0  0  0  0  0  0
  -15.2819   -1.2828  -12.9666 C   0  0  0  0  0  0  0  0  0  0  0  0
  -15.9148   -1.8926  -11.8693 C   0  0  0  0  0  0  0  0  0  0  0  0
  -15.1670   -2.8392  -11.2940 N   0  0  0  0  0  0  0  0  0  0  0  0
  -14.0233   -2.8333  -12.0275 N   0  0  0  0  0  0  0  0  0  0  0  0
  -12.9970   -3.8144  -11.7119 C   0  0  0  0  0  0  0  0  0  0  0  0
  -13.4618   -5.0135  -10.8840 C   0  0  0  0  0  0  0  0  0  0  0  0
  -13.8169   -6.2267  -11.7164 C   0  0  0  0  0  0  0  0  0  0  0  0
  -14.6566   -6.0935  -12.8327 C   0  0  0  0  0  0  0  0  0  0  0  0
  -14.9405   -7.1926  -13.6457 C   0  0  0  0  0  0  0  0  0  0  0  0
  -14.3923   -8.4382  -13.3504 C   0  0  0  0  0  0  0  0  0  0  0  0
  -13.5646   -8.5862  -12.2395 C   0  0  0  0  0  0  0  0  0  0  0  0
  -13.2755   -7.4867  -11.4273 C   0  0  0  0  0  0  0  0  0  0  0  0
  -17.3392    0.6911  -15.2272 C   0  0  0  0  0  0  0  0  0  0  0  0
  -21.0311    1.5672  -14.6423 C   0  0  0  0  0  0  0  0  0  0  0  0
  -20.9755    2.9594  -14.7423 C   0  0  0  0  0  0  0  0  0  0  0  0
  -19.7783    3.6106  -15.0385 C   0  0  0  0  0  0  0  0  0  0  0  0
  -18.6103    2.8756  -15.2194 C   0  0  0  0  0  0  0  0  0  0  0  0
  -18.6228    1.4814  -15.0769 C   0  0  0  0  0  0  0  0  0  0  0  0
  -19.8426    0.8368  -14.7795 C   0  0  0  0  0  0  0  0  0  0  0  0
  -21.9419    0.2518  -12.1797 O   0  0  0  0  0  0  0  0  0  0  0  0
  -22.5924    0.2528  -13.2210 C   0  0  0  0  0  0  0  0  0  0  0  0
  -22.2390    0.8633  -14.4143 N   0  0  0  0  0  0  0  0  0  0  0  0
  -22.9540    0.9547  -15.1258 H   0  0  0  0  0  0  0  0  0  0  0  0
  -23.9186   -0.4115  -13.1812 C   0  0  0  0  0  0  0  0  0  0  0  0
  -24.3899   -0.9994  -14.3671 C   0  0  0  0  0  0  0  0  0  0  0  0
  -25.6553   -1.5843  -14.4124 C   0  0  0  0  0  0  0  0  0  0  0  0
  -26.4550   -1.5730  -13.2719 C   0  0  0  0  0  0  0  0  0  0  0  0
  -28.1795   -2.3447  -13.3359 Br  0  0  0  0  0  0  0  0  0  0  0  0
  -26.0010   -0.9824  -12.0907 C   0  0  0  0  0  0  0  0  0  0  0  0
  -24.7293   -0.3995  -12.0413 C   0  0  0  0  0  0  0  0  0  0  0  0
 27 28  2  0  0  0
 28 29  1  0  0  0
 28 31  1  0  0  0
 29 21  1  0  0  0
 29 30  1  0  0  0
 21 22  1  0  0  0
 21 26  2  0  0  0
 22 23  2  0  0  0
 23 24  1  0  0  0
 24 25  2  0  0  0
 25 20  1  0  0  0
 25 26  1  0  0  0
 20  1  1  0  0  0
  1  3  1  0  0  0
  1  2  1  0  0  0
  3  4  1  0  0  0
  3  8  2  0  0  0
  4  5  2  0  0  0
  5  6  1  0  0  0
  6  7  2  0  0  0
  7  8  1  0  0  0
  7 11  1  0  0  0
  8  9  1  0  0  0
  9 10  2  0  0  0
 10 11  1  0  0  0
 11 12  1  0  0  0
 12 13  1  0  0  0
 13 14  1  0  0  0
 14 15  1  0  0  0
 14 19  2  0  0  0
 15 16  2  0  0  0
 16 17  1  0  0  0
 17 18  2  0  0  0
 18 19  1  0  0  0
 31 32  1  0  0  0
 31 37  2  0  0  0
 32 33  2  0  0  0
 33 34  1  0  0  0
 34 35  1  0  0  0
 34 36  2  0  0  0
 36 37  1  0  0  0
M  END
> <minimizedAffinity>
-10.25911

$$$$
