CHEMBL3633302


 39 42  0  0  0  0  0  0  0  0999 V2000
  -18.6694    0.9763  -15.5102 N   0  0  0  0  0  0  0  0  0  0  0  0
  -17.5011    1.0182  -14.7718 C   0  0  0  0  0  0  0  0  0  0  0  0
  -17.4360    1.3405  -13.5866 O   0  0  0  0  0  0  0  0  0  0  0  0
  -16.3873    0.6674  -15.5243 N   0  0  0  0  0  0  0  0  0  0  0  0
  -18.6910    0.3060  -16.2672 H   0  0  0  0  0  0  0  0  0  0  0  0
  -16.4138    0.9992  -16.4791 H   0  0  0  0  0  0  0  0  0  0  0  0
  -22.2430    0.9309  -14.4298 C   0  0  0  0  0  0  0  0  0  0  0  0
  -22.3970    2.2851  -14.0737 C   0  0  0  0  0  0  0  0  0  0  0  0
  -21.3541    3.1992  -14.1952 C   0  0  0  0  0  0  0  0  0  0  0  0
  -20.1286    2.7804  -14.6936 C   0  0  0  0  0  0  0  0  0  0  0  0
  -19.9157    1.4368  -15.0192 C   0  0  0  0  0  0  0  0  0  0  0  0
  -20.9706    0.5235  -14.8759 C   0  0  0  0  0  0  0  0  0  0  0  0
  -21.9850   -0.3506  -11.2898 N   0  0  0  0  0  0  0  0  0  0  0  0
  -23.0572   -0.9719  -11.8060 C   0  0  0  0  0  0  0  0  0  0  0  0
  -23.7108   -1.8765  -11.0871 N   0  0  0  0  0  0  0  0  0  0  0  0
  -24.6821   -2.2977  -11.9010 N   0  0  0  0  0  0  0  0  0  0  0  0
  -24.6944   -1.6856  -13.1198 C   0  0  0  0  0  0  0  0  0  0  0  0
  -25.5534   -1.8727  -14.2096 C   0  0  0  0  0  0  0  0  0  0  0  0
  -25.3358   -1.0936  -15.3350 C   0  0  0  0  0  0  0  0  0  0  0  0
  -24.2878   -0.1774  -15.3663 C   0  0  0  0  0  0  0  0  0  0  0  0
  -23.3880    0.0035  -14.2813 C   0  0  0  0  0  0  0  0  0  0  0  0
  -23.6231   -0.7793  -13.1124 C   0  0  0  0  0  0  0  0  0  0  0  0
  -21.6456   -0.7648  -10.4264 H   0  0  0  0  0  0  0  0  0  0  0  0
  -21.2311   -0.0893  -11.9155 H   0  0  0  0  0  0  0  0  0  0  0  0
  -25.3175   -3.0140  -11.5632 H   0  0  0  0  0  0  0  0  0  0  0  0
  -15.1183    0.5920  -14.9010 C   0  0  0  0  0  0  0  0  0  0  0  0
  -14.6516   -0.6217  -14.3780 C   0  0  0  0  0  0  0  0  0  0  0  0
  -13.4455   -0.6899  -13.6706 C   0  0  0  0  0  0  0  0  0  0  0  0
  -12.7107    0.4901  -13.4803 C   0  0  0  0  0  0  0  0  0  0  0  0
  -13.1460    1.7099  -14.0289 C   0  0  0  0  0  0  0  0  0  0  0  0
  -14.3433    1.7442  -14.7671 C   0  0  0  0  0  0  0  0  0  0  0  0
  -12.9447   -1.9987  -13.1113 C   0  0  0  0  0  0  0  0  0  0  0  0
  -12.7046   -2.9495  -14.0553 F   0  0  0  0  0  0  0  0  0  0  0  0
  -11.7714   -1.8461  -12.4341 F   0  0  0  0  0  0  0  0  0  0  0  0
  -13.8144   -2.5562  -12.2247 F   0  0  0  0  0  0  0  0  0  0  0  0
  -12.3595    2.9788  -13.8078 C   0  0  0  0  0  0  0  0  0  0  0  0
  -12.0243    3.1936  -12.5062 F   0  0  0  0  0  0  0  0  0  0  0  0
  -11.1885    2.9875  -14.5028 F   0  0  0  0  0  0  0  0  0  0  0  0
  -13.0398    4.0893  -14.2076 F   0  0  0  0  0  0  0  0  0  0  0  0
 13 14  1  0  0  0
 13 23  1  0  0  0
 13 24  1  0  0  0
 14 15  2  0  0  0
 14 22  1  0  0  0
 15 16  1  0  0  0
 16 17  1  0  0  0
 16 25  1  0  0  0
 17 18  1  0  0  0
 17 22  2  0  0  0
 18 19  2  0  0  0
 19 20  1  0  0  0
 20 21  2  0  0  0
 21  7  1  0  0  0
 21 22  1  0  0  0
  7  8  1  0  0  0
  7 12  2  0  0  0
  8  9  2  0  0  0
  9 10  1  0  0  0
 10 11  2  0  0  0
 11  1  1  0  0  0
 11 12  1  0  0  0
  1  2  1  0  0  0
  1  5  1  0  0  0
  2  3  2  0  0  0
  2  4  1  0  0  0
  4 26  1  0  0  0
  4  6  1  0  0  0
 26 27  1  0  0  0
 26 31  2  0  0  0
 27 28  2  0  0  0
 28 32  1  0  0  0
 28 29  1  0  0  0
 32 33  1  0  0  0
 32 34  1  0  0  0
 32 35  1  0  0  0
 29 30  2  0  0  0
 30 36  1  0  0  0
 30 31  1  0  0  0
 36 37  1  0  0  0
 36 38  1  0  0  0
 36 39  1  0  0  0
M  END
> <minimizedAffinity>
-8.47387

$$$$
