CHEMBL3927752


 31 34  0  0  0  0  0  0  0  0999 V2000
  -30.2168   -7.0763   -6.2186 C   0  0  0  0  0  0  0  0  0  0  0  0
  -29.4766   -8.0762   -5.5622 C   0  0  0  0  0  0  0  0  0  0  0  0
  -29.5069   -9.4211   -6.0026 C   0  0  0  0  0  0  0  0  0  0  0  0
  -30.4356   -9.7649   -7.0079 C   0  0  0  0  0  0  0  0  0  0  0  0
  -30.8637  -10.8946   -7.7951 C   0  0  0  0  0  0  0  0  0  0  0  0
  -32.2055  -10.7736   -7.9091 N   0  0  0  0  0  0  0  0  0  0  0  0
  -32.3257   -9.4389   -8.0390 N   0  0  0  0  0  0  0  0  0  0  0  0
  -31.2797   -8.7625   -7.4747 C   0  0  0  0  0  0  0  0  0  0  0  0
  -31.0797   -7.4074   -7.2664 C   0  0  0  0  0  0  0  0  0  0  0  0
  -33.1892   -9.0605   -8.4044 H   0  0  0  0  0  0  0  0  0  0  0  0
  -30.9867   -5.4555   -4.6183 C   0  0  0  0  0  0  0  0  0  0  0  0
  -30.2829   -5.6706   -5.7459 C   0  0  0  0  0  0  0  0  0  0  0  0
  -29.5360   -4.5568   -6.4146 C   0  0  0  0  0  0  0  0  0  0  0  0
  -28.9488   -4.7206   -7.6760 C   0  0  0  0  0  0  0  0  0  0  0  0
  -28.2520   -3.6758   -8.2763 C   0  0  0  0  0  0  0  0  0  0  0  0
  -28.1615   -2.4303   -7.6589 C   0  0  0  0  0  0  0  0  0  0  0  0
  -28.8106   -2.1982   -6.4467 C   0  0  0  0  0  0  0  0  0  0  0  0
  -29.4713   -3.2737   -5.8282 C   0  0  0  0  0  0  0  0  0  0  0  0
  -28.8666   -0.9271   -5.8265 N   0  0  0  0  0  0  0  0  0  0  0  0
  -27.8825   -0.3473   -5.0371 C   0  0  0  0  0  0  0  0  0  0  0  0
  -28.1980    1.0718   -4.6344 C   0  0  0  0  0  0  0  0  0  0  0  0
  -26.8195   -0.8499   -4.6967 O   0  0  0  0  0  0  0  0  0  0  0  0
  -29.6849   -0.3664   -6.0366 H   0  0  0  0  0  0  0  0  0  0  0  0
  -30.2595  -11.3856   -9.0346 C   0  0  0  0  0  0  0  0  0  0  0  0
  -28.9318  -11.3613   -9.2597 C   0  0  0  0  0  0  0  0  0  0  0  0
  -28.3349  -10.8103  -10.5012 C   0  0  0  0  0  0  0  0  0  0  0  0
  -29.0698  -10.7709  -11.7040 C   0  0  0  0  0  0  0  0  0  0  0  0
  -28.6352  -10.0059  -12.7931 C   0  0  0  0  0  0  0  0  0  0  0  0
  -27.4593   -9.2691  -12.6975 C   0  0  0  0  0  0  0  0  0  0  0  0
  -26.7106   -9.3132  -11.5214 C   0  0  0  0  0  0  0  0  0  0  0  0
  -27.1472  -10.0763  -10.4306 C   0  0  0  0  0  0  0  0  0  0  0  0
 11 12  2  0  0  0
 12 13  1  0  0  0
 12  1  1  0  0  0
 13 14  1  0  0  0
 13 18  2  0  0  0
 14 15  2  0  0  0
 15 16  1  0  0  0
 16 17  2  0  0  0
 17 19  1  0  0  0
 17 18  1  0  0  0
 19 20  1  0  0  0
 19 23  1  0  0  0
 20 21  1  0  0  0
 20 22  2  0  0  0
  1  2  1  0  0  0
  1  9  2  0  0  0
  2  3  2  0  0  0
  3  4  1  0  0  0
  4  5  1  0  0  0
  4  8  2  0  0  0
  5 24  1  0  0  0
  5  6  2  0  0  0
 24 25  2  0  0  0
 25 26  1  0  0  0
 26 27  1  0  0  0
 26 31  2  0  0  0
 27 28  2  0  0  0
 28 29  1  0  0  0
 29 30  2  0  0  0
 30 31  1  0  0  0
  6  7  1  0  0  0
  7  8  1  0  0  0
  7 10  1  0  0  0
  8  9  1  0  0  0
M  END
> <minimizedAffinity>
-9.55388

$$$$
