CHEMBL4788980


 33 35  0  0  0  0  0  0  0  0999 V2000
  -25.0608   -1.3736  -12.9068 C   0  0  0  0  0  0  0  0  0  0  0  0
  -25.3566   -1.1572  -14.2474 C   0  0  0  0  0  0  0  0  0  0  0  0
  -26.5916   -1.2894  -15.0617 C   0  0  0  0  0  0  0  0  0  0  0  0
  -24.2150   -0.6741  -14.8502 N   0  0  0  0  0  0  0  0  0  0  0  0
  -23.2003   -0.5370  -13.9419 C   0  0  0  0  0  0  0  0  0  0  0  0
  -23.6948   -0.9587  -12.7143 C   0  0  0  0  0  0  0  0  0  0  0  0
  -22.9649   -0.9972  -11.4077 C   0  0  0  0  0  0  0  0  0  0  0  0
  -24.1581   -0.4242  -15.8330 H   0  0  0  0  0  0  0  0  0  0  0  0
  -21.9209   -0.0411  -14.2970 C   0  0  0  0  0  0  0  0  0  0  0  0
  -21.4679    1.2216  -14.3488 C   0  0  0  0  0  0  0  0  0  0  0  0
  -22.1298    2.5532  -14.0612 C   0  0  0  0  0  0  0  0  0  0  0  0
  -23.2650    2.7586  -13.6947 O   0  0  0  0  0  0  0  0  0  0  0  0
  -21.1448    3.5026  -14.3091 N   0  0  0  0  0  0  0  0  0  0  0  0
  -19.9536    2.9130  -14.7161 C   0  0  0  0  0  0  0  0  0  0  0  0
  -18.7747    3.5507  -15.0496 C   0  0  0  0  0  0  0  0  0  0  0  0
  -17.6980    2.7459  -15.4368 C   0  0  0  0  0  0  0  0  0  0  0  0
  -17.8323    1.3521  -15.4774 C   0  0  0  0  0  0  0  0  0  0  0  0
  -16.7874    0.6038  -15.8538 F   0  0  0  0  0  0  0  0  0  0  0  0
  -19.0246    0.7216  -15.1396 C   0  0  0  0  0  0  0  0  0  0  0  0
  -20.0868    1.5228  -14.7579 C   0  0  0  0  0  0  0  0  0  0  0  0
  -21.3085    4.4915  -14.1988 H   0  0  0  0  0  0  0  0  0  0  0  0
  -26.9939   -1.0747  -11.5200 N   0  0  0  0  0  0  0  0  0  0  0  0
  -25.9344   -1.8842  -11.8471 C   0  0  0  0  0  0  0  0  0  0  0  0
  -25.7594   -2.9804  -11.3221 O   0  0  0  0  0  0  0  0  0  0  0  0
  -27.1574   -0.2342  -12.0537 H   0  0  0  0  0  0  0  0  0  0  0  0
  -27.9463   -1.4389  -10.5005 C   0  0  0  0  0  0  0  0  0  0  0  0
  -27.4055   -1.2252   -9.0901 C   0  0  0  0  0  0  0  0  0  0  0  0
  -27.9088   -2.2608   -8.0663 C   0  0  0  0  0  0  0  0  0  0  0  0
  -27.6234   -1.9226   -6.6542 N   0  0  0  0  0  0  0  0  0  0  0  0
  -27.9780   -0.0492   -4.9660 C   0  0  0  0  0  0  0  0  0  0  0  0
  -27.8673   -0.4884   -6.4186 C   0  0  0  0  0  0  0  0  0  0  0  0
  -28.3574   -2.8050   -5.7273 C   0  0  0  0  0  0  0  0  0  0  0  0
  -29.8044   -3.1296   -6.0953 C   0  0  0  0  0  0  0  0  0  0  0  0
 30 31  1  0  0  0
 31 29  1  0  0  0
 29 32  1  0  0  0
 29 28  1  0  0  0
 32 33  1  0  0  0
 28 27  1  0  0  0
 27 26  1  0  0  0
 26 22  1  0  0  0
 22 23  1  0  0  0
 22 25  1  0  0  0
 23 24  2  0  0  0
 23  1  1  0  0  0
  1  2  2  0  0  0
  1  6  1  0  0  0
  2  3  1  0  0  0
  2  4  1  0  0  0
  4  5  1  0  0  0
  4  8  1  0  0  0
  5  9  1  0  0  0
  5  6  2  0  0  0
  9 10  2  0  0  0
 10 11  1  0  0  0
 10 20  1  0  0  0
 11 12  2  0  0  0
 11 13  1  0  0  0
 13 14  1  0  0  0
 13 21  1  0  0  0
 14 15  1  0  0  0
 14 20  2  0  0  0
 15 16  2  0  0  0
 16 17  1  0  0  0
 17 18  1  0  0  0
 17 19  2  0  0  0
 19 20  1  0  0  0
  6  7  1  0  0  0
M  END
> <minimizedAffinity>
-8.83402

$$$$
