CHEMBL202234


 26 28  0  0  0  0  0  0  0  0999 V2000
  -27.5463   -2.0063  -10.2883 N   0  0  0  0  0  0  0  0  0  0  0  0
  -26.2869   -1.7026  -10.7916 C   0  0  0  0  0  0  0  0  0  0  0  0
  -25.2902   -1.5557  -10.0918 O   0  0  0  0  0  0  0  0  0  0  0  0
  -28.2913   -2.0905  -10.9681 H   0  0  0  0  0  0  0  0  0  0  0  0
  -28.6517   -2.7704   -6.2361 C   0  0  0  0  0  0  0  0  0  0  0  0
  -28.1112   -1.5337   -6.6192 C   0  0  0  0  0  0  0  0  0  0  0  0
  -27.7503   -1.2612   -7.9429 C   0  0  0  0  0  0  0  0  0  0  0  0
  -27.8971   -2.2219   -8.9369 C   0  0  0  0  0  0  0  0  0  0  0  0
  -28.4045   -3.4710   -8.5740 C   0  0  0  0  0  0  0  0  0  0  0  0
  -28.7701   -3.7442   -7.2431 C   0  0  0  0  0  0  0  0  0  0  0  0
  -30.4460   -3.6773   -4.6503 C   0  0  0  0  0  0  0  0  0  0  0  0
  -29.0405   -3.0370   -4.7702 C   0  0  0  0  0  0  0  0  0  0  0  0
  -29.0509   -1.6975   -4.0090 C   0  0  0  0  0  0  0  0  0  0  0  0
  -28.0669   -4.0010   -4.0566 C   0  0  0  0  0  0  0  0  0  0  0  0
  -26.2034   -1.5731  -12.2435 C   0  0  0  0  0  0  0  0  0  0  0  0
  -27.5051   -1.9942  -13.2856 S   0  0  0  0  0  0  0  0  0  0  0  0
  -26.5428   -1.5962  -14.6402 C   0  0  0  0  0  0  0  0  0  0  0  0
  -25.3342   -1.1567  -14.3795 N   0  0  0  0  0  0  0  0  0  0  0  0
  -25.1242   -1.1281  -13.0054 C   0  0  0  0  0  0  0  0  0  0  0  0
  -23.7749   -0.6942  -12.4976 C   0  0  0  0  0  0  0  0  0  0  0  0
  -22.6563   -0.7692  -13.5417 C   0  0  0  0  0  0  0  0  0  0  0  0
  -22.1820    0.5831  -13.9501 C   0  0  0  0  0  0  0  0  0  0  0  0
  -20.9766    0.9254  -14.6035 C   0  0  0  0  0  0  0  0  0  0  0  0
  -20.8664    2.2392  -14.8120 N   0  0  0  0  0  0  0  0  0  0  0  0
  -22.0245    2.7890  -14.2872 O   0  0  0  0  0  0  0  0  0  0  0  0
  -22.8000    1.7997  -13.7777 C   0  0  0  0  0  0  0  0  0  0  0  0
 11 12  1  0  0  0
 12 13  1  0  0  0
 12 14  1  0  0  0
 12  5  1  0  0  0
  5  6  1  0  0  0
  5 10  2  0  0  0
  6  7  2  0  0  0
  7  8  1  0  0  0
  8  1  1  0  0  0
  8  9  2  0  0  0
  1  2  1  0  0  0
  1  4  1  0  0  0
  2  3  2  0  0  0
  2 15  1  0  0  0
 15 16  1  0  0  0
 15 19  2  0  0  0
 16 17  1  0  0  0
 17 18  2  0  0  0
 18 19  1  0  0  0
 19 20  1  0  0  0
 20 21  1  0  0  0
 21 22  1  0  0  0
 22 23  1  0  0  0
 22 26  2  0  0  0
 23 24  2  0  0  0
 24 25  1  0  0  0
 25 26  1  0  0  0
  9 10  1  0  0  0
M  END
> <minimizedAffinity>
-8.92232

$$$$
