CHEMBL2032023


 41 45  0  0  0  0  0  0  0  0999 V2000
  -15.1684   -2.8296  -13.2983 C   0  0  0  0  0  0  0  0  0  0  0  0
  -16.2272   -3.0672  -13.8704 O   0  0  0  0  0  0  0  0  0  0  0  0
  -14.4414   -1.6601  -13.4109 N   0  0  0  0  0  0  0  0  0  0  0  0
  -13.5880   -1.6074  -12.8515 H   0  0  0  0  0  0  0  0  0  0  0  0
  -14.0896   -5.1734  -10.6013 N   0  0  0  0  0  0  0  0  0  0  0  0
  -14.7619   -4.0447  -11.0903 C   0  0  0  0  0  0  0  0  0  0  0  0
  -15.6316   -3.1981  -10.2137 C   0  0  0  0  0  0  0  0  0  0  0  0
  -14.5461   -3.8446  -12.4064 C   0  0  0  0  0  0  0  0  0  0  0  0
  -13.5635   -4.8914  -12.8019 C   0  0  0  0  0  0  0  0  0  0  0  0
  -13.1973   -5.0503  -13.9594 O   0  0  0  0  0  0  0  0  0  0  0  0
  -13.2493   -5.6304  -11.6503 N   0  0  0  0  0  0  0  0  0  0  0  0
  -12.7727   -6.9650  -11.7169 C   0  0  0  0  0  0  0  0  0  0  0  0
  -13.6701   -8.0220  -11.9097 C   0  0  0  0  0  0  0  0  0  0  0  0
  -13.2030   -9.3373  -12.0257 C   0  0  0  0  0  0  0  0  0  0  0  0
  -11.8399   -9.6117  -11.9297 C   0  0  0  0  0  0  0  0  0  0  0  0
  -10.9423   -8.5743  -11.7110 C   0  0  0  0  0  0  0  0  0  0  0  0
  -11.4100   -7.2623  -11.6074 C   0  0  0  0  0  0  0  0  0  0  0  0
  -13.6214   -5.3235   -9.2099 C   0  0  0  0  0  0  0  0  0  0  0  0
  -11.9736   -3.3689   -9.2346 C   0  0  0  0  0  0  0  0  0  0  0  0
  -12.2576   -4.6659   -9.0052 C   0  0  0  0  0  0  0  0  0  0  0  0
  -11.1788   -5.5689   -8.4689 C   0  0  0  0  0  0  0  0  0  0  0  0
  -14.7032   -0.5386  -14.2295 C   0  0  0  0  0  0  0  0  0  0  0  0
  -13.9362   -0.1568  -15.3351 C   0  0  0  0  0  0  0  0  0  0  0  0
  -14.2237    1.0323  -16.0320 C   0  0  0  0  0  0  0  0  0  0  0  0
  -15.2859    1.8465  -15.6340 C   0  0  0  0  0  0  0  0  0  0  0  0
  -16.1124    1.4004  -14.6019 C   0  0  0  0  0  0  0  0  0  0  0  0
  -17.2016    2.0949  -14.2420 F   0  0  0  0  0  0  0  0  0  0  0  0
  -15.8059    0.2468  -13.8809 C   0  0  0  0  0  0  0  0  0  0  0  0
  -15.4598    3.0379  -16.3109 O   0  0  0  0  0  0  0  0  0  0  0  0
  -14.4610    4.0027  -16.2546 C   0  0  0  0  0  0  0  0  0  0  0  0
  -13.5664    4.0938  -15.1883 C   0  0  0  0  0  0  0  0  0  0  0  0
  -12.6750    5.1439  -15.1706 C   0  0  0  0  0  0  0  0  0  0  0  0
  -12.5623    6.0458  -16.1625 N   0  0  0  0  0  0  0  0  0  0  0  0
  -13.3532    5.9071  -17.2377 C   0  0  0  0  0  0  0  0  0  0  0  0
  -13.1779    6.7997  -18.2843 C   0  0  0  0  0  0  0  0  0  0  0  0
  -13.9224    6.7263  -19.4615 C   0  0  0  0  0  0  0  0  0  0  0  0
  -14.8867    5.7327  -19.5878 C   0  0  0  0  0  0  0  0  0  0  0  0
  -15.0971    4.8300  -18.5363 C   0  0  0  0  0  0  0  0  0  0  0  0
  -14.3327    4.8981  -17.3450 C   0  0  0  0  0  0  0  0  0  0  0  0
  -13.5971    7.6723  -20.3939 O   0  0  0  0  0  0  0  0  0  0  0  0
  -14.5680    7.9729  -21.3853 C   0  0  0  0  0  0  0  0  0  0  0  0
 19 20  2  0  0  0
 20 21  1  0  0  0
 20 18  1  0  0  0
 18  5  1  0  0  0
  5  6  1  0  0  0
  5 11  1  0  0  0
  6  7  1  0  0  0
  6  8  2  0  0  0
  8  1  1  0  0  0
  8  9  1  0  0  0
  1  2  2  0  0  0
  1  3  1  0  0  0
  3 22  1  0  0  0
  3  4  1  0  0  0
 22 23  1  0  0  0
 22 28  2  0  0  0
 23 24  2  0  0  0
 24 25  1  0  0  0
 25 29  1  0  0  0
 25 26  2  0  0  0
 29 30  1  0  0  0
 30 31  1  0  0  0
 30 39  2  0  0  0
 31 32  2  0  0  0
 32 33  1  0  0  0
 33 34  2  0  0  0
 34 35  1  0  0  0
 34 39  1  0  0  0
 35 36  2  0  0  0
 36 40  1  0  0  0
 36 37  1  0  0  0
 40 41  1  0  0  0
 37 38  2  0  0  0
 38 39  1  0  0  0
 26 27  1  0  0  0
 26 28  1  0  0  0
  9 10  2  0  0  0
  9 11  1  0  0  0
 11 12  1  0  0  0
 12 13  1  0  0  0
 12 17  2  0  0  0
 13 14  2  0  0  0
 14 15  1  0  0  0
 15 16  2  0  0  0
 16 17  1  0  0  0
M  END
> <minimizedAffinity>
-7.85448

$$$$
