CHEMBL190161


 43 46  0  0  0  0  0  0  0  0999 V2000
  -29.6715   -8.3943   -6.7323 C   0  0  0  0  0  0  0  0  0  0  0  0
  -30.0597   -7.2992   -7.5260 C   0  0  0  0  0  0  0  0  0  0  0  0
  -29.8133   -5.9849   -7.1318 C   0  0  0  0  0  0  0  0  0  0  0  0
  -30.1621   -4.8986   -7.9242 C   0  0  0  0  0  0  0  0  0  0  0  0
  -29.9381   -3.6173   -7.5808 N   0  0  0  0  0  0  0  0  0  0  0  0
  -29.3132   -3.3877   -6.4164 C   0  0  0  0  0  0  0  0  0  0  0  0
  -28.9380   -4.4354   -5.5611 C   0  0  0  0  0  0  0  0  0  0  0  0
  -29.2038   -5.7614   -5.9013 C   0  0  0  0  0  0  0  0  0  0  0  0
  -28.8843   -6.7923   -5.0721 N   0  0  0  0  0  0  0  0  0  0  0  0
  -29.0652   -8.0722   -5.5036 C   0  0  0  0  0  0  0  0  0  0  0  0
  -31.7563  -11.4582   -7.6046 C   0  0  0  0  0  0  0  0  0  0  0  0
  -30.8789  -12.1704   -8.4195 C   0  0  0  0  0  0  0  0  0  0  0  0
  -29.5962  -11.6773   -8.6480 C   0  0  0  0  0  0  0  0  0  0  0  0
  -29.1817  -10.5093   -8.0070 C   0  0  0  0  0  0  0  0  0  0  0  0
  -30.0583   -9.7470   -7.2068 C   0  0  0  0  0  0  0  0  0  0  0  0
  -31.3467  -10.2508   -7.0255 C   0  0  0  0  0  0  0  0  0  0  0  0
  -33.2807  -12.3889   -6.0451 C   0  0  0  0  0  0  0  0  0  0  0  0
  -33.0493  -11.8097   -7.3215 O   0  0  0  0  0  0  0  0  0  0  0  0
  -28.6739  -12.2462   -9.4845 O   0  0  0  0  0  0  0  0  0  0  0  0
  -27.8007  -11.3307  -10.1408 C   0  0  0  0  0  0  0  0  0  0  0  0
  -28.6890   -9.0746   -4.5672 N   0  0  0  0  0  0  0  0  0  0  0  0
  -27.4243   -9.6291   -4.6787 C   0  0  0  0  0  0  0  0  0  0  0  0
  -26.6089   -9.3108   -5.5424 O   0  0  0  0  0  0  0  0  0  0  0  0
  -27.1614  -10.5469   -3.6739 N   0  0  0  0  0  0  0  0  0  0  0  0
  -28.7929   -8.7246   -3.6245 H   0  0  0  0  0  0  0  0  0  0  0  0
  -27.9721  -11.0771   -3.3788 H   0  0  0  0  0  0  0  0  0  0  0  0
  -25.8349  -11.1843   -3.4727 C   0  0  0  0  0  0  0  0  0  0  0  0
  -25.8865  -12.1292   -2.2594 C   0  0  0  0  0  0  0  0  0  0  0  0
  -25.4518  -12.0343   -4.7077 C   0  0  0  0  0  0  0  0  0  0  0  0
  -24.7165  -10.1468   -3.2757 C   0  0  0  0  0  0  0  0  0  0  0  0
  -28.9463   -2.0820   -6.1111 N   0  0  0  0  0  0  0  0  0  0  0  0
  -29.6976   -1.4134   -6.0201 H   0  0  0  0  0  0  0  0  0  0  0  0
  -27.6999   -1.5861   -6.6873 C   0  0  0  0  0  0  0  0  0  0  0  0
  -27.9404   -1.1351   -8.1304 C   0  0  0  0  0  0  0  0  0  0  0  0
  -27.0253   -1.8787   -9.1095 C   0  0  0  0  0  0  0  0  0  0  0  0
  -27.3852   -1.6403  -10.5803 C   0  0  0  0  0  0  0  0  0  0  0  0
  -26.3294   -2.0064  -11.5361 N   0  0  0  0  0  0  0  0  0  0  0  0
  -26.4947   -1.3575  -12.8515 C   0  0  0  0  0  0  0  0  0  0  0  0
  -25.3369   -1.6883  -13.8232 C   0  0  0  0  0  0  0  0  0  0  0  0
  -23.9868   -1.3934  -13.3078 N   0  0  0  0  0  0  0  0  0  0  0  0
  -23.7257    0.0438  -13.2849 C   0  0  0  0  0  0  0  0  0  0  0  0
  -23.8490   -1.9966  -11.9667 C   0  0  0  0  0  0  0  0  0  0  0  0
  -24.9997   -1.6754  -10.9823 C   0  0  0  0  0  0  0  0  0  0  0  0
 17 18  1  0  0  0
 18 11  1  0  0  0
 11 12  1  0  0  0
 11 16  2  0  0  0
 12 13  2  0  0  0
 13 19  1  0  0  0
 13 14  1  0  0  0
 19 20  1  0  0  0
 14 15  2  0  0  0
 15  1  1  0  0  0
 15 16  1  0  0  0
  1  2  1  0  0  0
  1 10  2  0  0  0
  2  3  2  0  0  0
  3  4  1  0  0  0
  3  8  1  0  0  0
  4  5  2  0  0  0
  5  6  1  0  0  0
  6 31  1  0  0  0
  6  7  2  0  0  0
 31 33  1  0  0  0
 31 32  1  0  0  0
 33 34  1  0  0  0
 34 35  1  0  0  0
 35 36  1  0  0  0
 36 37  1  0  0  0
 37 38  1  0  0  0
 37 43  1  0  0  0
 38 39  1  0  0  0
 39 40  1  0  0  0
 40 41  1  0  0  0
 40 42  1  0  0  0
 42 43  1  0  0  0
  7  8  1  0  0  0
  8  9  2  0  0  0
  9 10  1  0  0  0
 10 21  1  0  0  0
 21 22  1  0  0  0
 21 25  1  0  0  0
 22 23  2  0  0  0
 22 24  1  0  0  0
 24 27  1  0  0  0
 24 26  1  0  0  0
 27 28  1  0  0  0
 27 29  1  0  0  0
 27 30  1  0  0  0
M  END
> <minimizedAffinity>
-7.99075

$$$$
