CHEMBL3397947


 34 36  0  0  0  0  0  0  0  0999 V2000
  -14.7478    3.2921  -16.4678 C   0  0  0  0  0  0  0  0  0  0  0  0
  -13.8081    2.6642  -15.6598 C   0  0  0  0  0  0  0  0  0  0  0  0
  -14.2262    1.7669  -14.6761 C   0  0  0  0  0  0  0  0  0  0  0  0
  -15.5939    1.4736  -14.4881 C   0  0  0  0  0  0  0  0  0  0  0  0
  -16.5989    2.1331  -15.2635 C   0  0  0  0  0  0  0  0  0  0  0  0
  -16.1211    3.0533  -16.2402 C   0  0  0  0  0  0  0  0  0  0  0  0
  -16.9695    3.7921  -17.0427 O   0  0  0  0  0  0  0  0  0  0  0  0
  -17.8429    3.8578  -16.6265 H   0  0  0  0  0  0  0  0  0  0  0  0
  -18.0682    1.8851  -15.0803 C   0  0  0  0  0  0  0  0  0  0  0  0
  -18.6544    0.6275  -15.3249 C   0  0  0  0  0  0  0  0  0  0  0  0
  -20.0334    0.4135  -15.1866 C   0  0  0  0  0  0  0  0  0  0  0  0
  -20.8580    1.4279  -14.7125 C   0  0  0  0  0  0  0  0  0  0  0  0
  -20.2967    2.6605  -14.4184 C   0  0  0  0  0  0  0  0  0  0  0  0
  -21.0437    3.6760  -13.8978 O   0  0  0  0  0  0  0  0  0  0  0  0
  -18.9414    2.9029  -14.6425 C   0  0  0  0  0  0  0  0  0  0  0  0
  -21.9577    3.3658  -13.7893 H   0  0  0  0  0  0  0  0  0  0  0  0
  -15.8866    0.3441  -13.5613 C   0  0  0  0  0  0  0  0  0  0  0  0
  -16.3060    0.5989  -12.4310 O   0  0  0  0  0  0  0  0  0  0  0  0
  -15.6299   -0.9423  -14.0364 N   0  0  0  0  0  0  0  0  0  0  0  0
  -15.0523   -1.0282  -14.8661 H   0  0  0  0  0  0  0  0  0  0  0  0
  -15.7357   -2.0870  -13.2102 C   0  0  0  0  0  0  0  0  0  0  0  0
  -15.4504   -2.0350  -11.8413 C   0  0  0  0  0  0  0  0  0  0  0  0
  -15.4534   -3.2028  -11.0678 C   0  0  0  0  0  0  0  0  0  0  0  0
  -15.7171   -4.4398  -11.6570 C   0  0  0  0  0  0  0  0  0  0  0  0
  -16.0470   -4.4809  -13.0140 C   0  0  0  0  0  0  0  0  0  0  0  0
  -16.0916   -3.3045  -13.7791 C   0  0  0  0  0  0  0  0  0  0  0  0
  -15.6716   -5.6533  -11.0184 O   0  0  0  0  0  0  0  0  0  0  0  0
  -14.3691   -6.0849  -10.6030 C   0  0  0  0  0  0  0  0  0  0  0  0
  -13.6151   -6.7216  -11.7834 C   0  0  0  0  0  0  0  0  0  0  0  0
  -14.2487   -7.9551  -12.2983 N   0  0  0  0  0  0  0  0  0  0  0  0
  -14.5471   -7.8711  -13.7296 C   0  0  0  0  0  0  0  0  0  0  0  0
  -13.3853   -9.1112  -12.0439 C   0  0  0  0  0  0  0  0  0  0  0  0
  -13.8842    3.6185  -18.6788 C   0  0  0  0  0  0  0  0  0  0  0  0
  -14.4506    4.1532  -17.4931 O   0  0  0  0  0  0  0  0  0  0  0  0
 33 34  1  0  0  0
 34  1  1  0  0  0
  1  2  1  0  0  0
  1  6  2  0  0  0
  2  3  2  0  0  0
  3  4  1  0  0  0
  4 17  1  0  0  0
  4  5  2  0  0  0
 17 18  2  0  0  0
 17 19  1  0  0  0
 19 21  1  0  0  0
 19 20  1  0  0  0
 21 22  1  0  0  0
 21 26  2  0  0  0
 22 23  2  0  0  0
 23 24  1  0  0  0
 24 27  1  0  0  0
 24 25  2  0  0  0
 27 28  1  0  0  0
 28 29  1  0  0  0
 29 30  1  0  0  0
 30 31  1  0  0  0
 30 32  1  0  0  0
 25 26  1  0  0  0
  5  9  1  0  0  0
  5  6  1  0  0  0
  9 10  1  0  0  0
  9 15  2  0  0  0
 10 11  2  0  0  0
 11 12  1  0  0  0
 12 13  2  0  0  0
 13 14  1  0  0  0
 13 15  1  0  0  0
 14 16  1  0  0  0
  6  7  1  0  0  0
  7  8  1  0  0  0
M  END
> <minimizedAffinity>
-8.81404

$$$$
