CHEMBL2403373


 39 44  0  0  0  0  0  0  0  0999 V2000
  -26.8773   -1.9652  -10.1293 C   0  0  0  0  0  0  0  0  0  0  0  0
  -27.9433   -2.3070  -10.9939 C   0  0  0  0  0  0  0  0  0  0  0  0
  -27.8397   -2.1691  -12.3807 C   0  0  0  0  0  0  0  0  0  0  0  0
  -26.6587   -1.6590  -12.8706 C   0  0  0  0  0  0  0  0  0  0  0  0
  -25.5966   -1.2943  -12.0409 C   0  0  0  0  0  0  0  0  0  0  0  0
  -25.7044   -1.4187  -10.6673 C   0  0  0  0  0  0  0  0  0  0  0  0
  -24.5386   -0.7871  -12.9220 C   0  0  0  0  0  0  0  0  0  0  0  0
  -23.3561   -0.3086  -12.5054 C   0  0  0  0  0  0  0  0  0  0  0  0
  -25.0677   -0.8843  -14.3354 C   0  0  0  0  0  0  0  0  0  0  0  0
  -24.5244   -0.5905  -15.3813 O   0  0  0  0  0  0  0  0  0  0  0  0
  -26.3395   -1.4255  -14.2027 N   0  0  0  0  0  0  0  0  0  0  0  0
  -26.9372   -1.6023  -14.9947 H   0  0  0  0  0  0  0  0  0  0  0  0
  -22.4376    0.3079  -13.3780 C   0  0  0  0  0  0  0  0  0  0  0  0
  -21.2978   -0.1744  -13.9788 C   0  0  0  0  0  0  0  0  0  0  0  0
  -20.6598    0.9253  -14.5993 C   0  0  0  0  0  0  0  0  0  0  0  0
  -21.4517    2.0260  -14.4224 C   0  0  0  0  0  0  0  0  0  0  0  0
  -22.5548    1.6440  -13.7085 N   0  0  0  0  0  0  0  0  0  0  0  0
  -21.0383    3.4066  -14.7591 C   0  0  0  0  0  0  0  0  0  0  0  0
  -19.6467    3.4364  -15.4584 C   0  0  0  0  0  0  0  0  0  0  0  0
  -18.7086    2.2941  -15.2690 N   0  0  0  0  0  0  0  0  0  0  0  0
  -17.4381    2.4561  -15.8312 C   0  0  0  0  0  0  0  0  0  0  0  0
  -17.1668    3.4908  -16.4559 O   0  0  0  0  0  0  0  0  0  0  0  0
  -16.4803    1.4525  -15.7170 N   0  0  0  0  0  0  0  0  0  0  0  0
  -16.4213    0.3049  -14.8029 C   0  0  0  0  0  0  0  0  0  0  0  0
  -15.1172    0.2532  -14.0153 C   0  0  0  0  0  0  0  0  0  0  0  0
  -13.9913    0.2394  -14.8878 O   0  0  0  0  0  0  0  0  0  0  0  0
  -13.9903    1.4288  -15.6928 C   0  0  0  0  0  0  0  0  0  0  0  0
  -15.2642    1.5330  -16.5467 C   0  0  0  0  0  0  0  0  0  0  0  0
  -19.2749    0.9626  -15.0845 C   0  0  0  0  0  0  0  0  0  0  0  0
  -23.2706    2.2651  -13.3545 H   0  0  0  0  0  0  0  0  0  0  0  0
  -27.1016   -2.0951   -8.7521 N   0  0  0  0  0  0  0  0  0  0  0  0
  -26.8119   -3.0286   -8.4585 H   0  0  0  0  0  0  0  0  0  0  0  0
  -27.6113   -3.8426   -4.5607 C   0  0  0  0  0  0  0  0  0  0  0  0
  -28.3444   -3.0365   -5.5422 N   0  0  0  0  0  0  0  0  0  0  0  0
  -27.5953   -1.7986   -5.8094 C   0  0  0  0  0  0  0  0  0  0  0  0
  -28.2777   -0.9503   -6.8791 C   0  0  0  0  0  0  0  0  0  0  0  0
  -28.4161   -1.7327   -8.1864 C   0  0  0  0  0  0  0  0  0  0  0  0
  -29.2034   -3.0130   -7.8913 C   0  0  0  0  0  0  0  0  0  0  0  0
  -28.5546   -3.8249   -6.7675 C   0  0  0  0  0  0  0  0  0  0  0  0
 33 34  1  0  0  0
 34 35  1  0  0  0
 34 39  1  0  0  0
 35 36  1  0  0  0
 36 37  1  0  0  0
 37 31  1  0  0  0
 37 38  1  0  0  0
 31  1  1  0  0  0
 31 32  1  0  0  0
  1  2  1  0  0  0
  1  6  2  0  0  0
  2  3  2  0  0  0
  3  4  1  0  0  0
  4  5  2  0  0  0
  4 11  1  0  0  0
  5  6  1  0  0  0
  5  7  1  0  0  0
  7  8  2  0  0  0
  7  9  1  0  0  0
  8 13  1  0  0  0
 13 14  2  0  0  0
 13 17  1  0  0  0
 14 15  1  0  0  0
 15 16  2  0  0  0
 15 29  1  0  0  0
 16 17  1  0  0  0
 16 18  1  0  0  0
 17 30  1  0  0  0
 18 19  1  0  0  0
 19 20  1  0  0  0
 20 21  1  0  0  0
 20 29  1  0  0  0
 21 22  2  0  0  0
 21 23  1  0  0  0
 23 24  1  0  0  0
 23 28  1  0  0  0
 24 25  1  0  0  0
 25 26  1  0  0  0
 26 27  1  0  0  0
 27 28  1  0  0  0
  9 10  2  0  0  0
  9 11  1  0  0  0
 11 12  1  0  0  0
 38 39  1  0  0  0
M  END
> <minimizedAffinity>
-10.61874

$$$$
