CHEMBL3676361


 35 37  0  0  0  0  0  0  0  0999 V2000
  -29.7280   -5.3049   -7.0635 C   0  0  0  0  0  0  0  0  0  0  0  0
  -29.0744   -4.4483   -7.9517 C   0  0  0  0  0  0  0  0  0  0  0  0
  -28.5495   -3.2273   -7.4993 C   0  0  0  0  0  0  0  0  0  0  0  0
  -28.0523   -2.2241   -8.3453 C   0  0  0  0  0  0  0  0  0  0  0  0
  -27.5509   -1.0770   -7.8542 N   0  0  0  0  0  0  0  0  0  0  0  0
  -27.5819   -0.9185   -6.5288 C   0  0  0  0  0  0  0  0  0  0  0  0
  -28.1000   -1.7665   -5.6464 N   0  0  0  0  0  0  0  0  0  0  0  0
  -28.5909   -2.9155   -6.1302 C   0  0  0  0  0  0  0  0  0  0  0  0
  -29.1982   -3.8100   -5.2549 C   0  0  0  0  0  0  0  0  0  0  0  0
  -29.7641   -5.0139   -5.6928 C   0  0  0  0  0  0  0  0  0  0  0  0
  -30.0486   -7.6075   -7.8166 C   0  0  0  0  0  0  0  0  0  0  0  0
  -30.8356   -8.5199   -8.0516 O   0  0  0  0  0  0  0  0  0  0  0  0
  -30.5112   -6.3270   -7.6189 N   0  0  0  0  0  0  0  0  0  0  0  0
  -31.4844   -6.3654   -7.3333 H   0  0  0  0  0  0  0  0  0  0  0  0
  -27.8879   -8.3232   -8.6887 C   0  0  0  0  0  0  0  0  0  0  0  0
  -28.5892   -7.8451   -7.6537 C   0  0  0  0  0  0  0  0  0  0  0  0
  -28.1857   -2.3505   -9.7569 N   0  0  0  0  0  0  0  0  0  0  0  0
  -28.5663   -3.2524  -10.0252 H   0  0  0  0  0  0  0  0  0  0  0  0
  -27.2063   -1.8801  -10.6663 C   0  0  0  0  0  0  0  0  0  0  0  0
  -25.9267   -1.5281  -10.2128 C   0  0  0  0  0  0  0  0  0  0  0  0
  -24.8987   -1.2490  -11.1112 C   0  0  0  0  0  0  0  0  0  0  0  0
  -25.1470   -1.2811  -12.4848 C   0  0  0  0  0  0  0  0  0  0  0  0
  -23.6577   -1.0214  -13.6348 Br  0  0  0  0  0  0  0  0  0  0  0  0
  -26.4411   -1.5317  -12.9572 C   0  0  0  0  0  0  0  0  0  0  0  0
  -26.8208   -1.5332  -14.6439 Cl  0  0  0  0  0  0  0  0  0  0  0  0
  -27.4600   -1.8193  -12.0416 C   0  0  0  0  0  0  0  0  0  0  0  0
  -28.7034   -2.0947  -12.4746 F   0  0  0  0  0  0  0  0  0  0  0  0
  -30.3803   -5.7765   -4.7238 O   0  0  0  0  0  0  0  0  0  0  0  0
  -29.4896   -6.2802   -3.7180 C   0  0  0  0  0  0  0  0  0  0  0  0
  -29.0885   -7.7350   -3.9815 C   0  0  0  0  0  0  0  0  0  0  0  0
  -27.6414   -7.8693   -4.1121 N   0  0  0  0  0  0  0  0  0  0  0  0
  -26.9997   -9.0597   -3.8560 C   0  0  0  0  0  0  0  0  0  0  0  0
  -25.4950   -8.9826   -3.8950 C   0  0  0  0  0  0  0  0  0  0  0  0
  -27.5912  -10.1067   -3.6158 O   0  0  0  0  0  0  0  0  0  0  0  0
  -27.0905   -7.0271   -4.2222 H   0  0  0  0  0  0  0  0  0  0  0  0
 15 16  2  0  0  0
 16 11  1  0  0  0
 11 12  2  0  0  0
 11 13  1  0  0  0
 13  1  1  0  0  0
 13 14  1  0  0  0
  1  2  1  0  0  0
  1 10  2  0  0  0
  2  3  2  0  0  0
  3  4  1  0  0  0
  3  8  1  0  0  0
  4 17  1  0  0  0
  4  5  2  0  0  0
 17 19  1  0  0  0
 17 18  1  0  0  0
 19 20  1  0  0  0
 19 26  2  0  0  0
 20 21  2  0  0  0
 21 22  1  0  0  0
 22 23  1  0  0  0
 22 24  2  0  0  0
 24 25  1  0  0  0
 24 26  1  0  0  0
 26 27  1  0  0  0
  5  6  1  0  0  0
  6  7  2  0  0  0
  7  8  1  0  0  0
  8  9  2  0  0  0
  9 10  1  0  0  0
 10 28  1  0  0  0
 28 29  1  0  0  0
 29 30  1  0  0  0
 30 31  1  0  0  0
 31 32  1  0  0  0
 31 35  1  0  0  0
 32 33  1  0  0  0
 32 34  2  0  0  0
M  END
> <minimizedAffinity>
-8.76429

$$$$
