CHEMBL440727


 26 28  0  0  0  0  0  0  0  0999 V2000
  -28.1447   -1.3166   -5.4913 C   0  0  0  0  0  0  0  0  0  0  0  0
  -28.9951   -1.8509   -4.5024 C   0  0  0  0  0  0  0  0  0  0  0  0
  -29.6248   -3.0782   -4.6400 C   0  0  0  0  0  0  0  0  0  0  0  0
  -30.3569   -3.5463   -3.6275 N   0  0  0  0  0  0  0  0  0  0  0  0
  -30.9075   -4.7543   -3.7978 C   0  0  0  0  0  0  0  0  0  0  0  0
  -30.7817   -5.5225   -4.8788 N   0  0  0  0  0  0  0  0  0  0  0  0
  -30.0308   -5.0440   -5.8896 C   0  0  0  0  0  0  0  0  0  0  0  0
  -29.4376   -3.7783   -5.8318 C   0  0  0  0  0  0  0  0  0  0  0  0
  -28.6953   -3.1969   -6.8787 C   0  0  0  0  0  0  0  0  0  0  0  0
  -28.0352   -1.9764   -6.7189 C   0  0  0  0  0  0  0  0  0  0  0  0
  -28.2278    0.9517   -4.8180 C   0  0  0  0  0  0  0  0  0  0  0  0
  -27.4473   -0.1583   -5.2717 O   0  0  0  0  0  0  0  0  0  0  0  0
  -29.8225   -5.8619   -7.0376 N   0  0  0  0  0  0  0  0  0  0  0  0
  -28.8769   -5.7134   -7.3882 H   0  0  0  0  0  0  0  0  0  0  0  0
  -30.1445   -7.2410   -7.0500 C   0  0  0  0  0  0  0  0  0  0  0  0
  -31.3572   -7.6708   -7.5977 C   0  0  0  0  0  0  0  0  0  0  0  0
  -31.7691   -8.9899   -7.4426 C   0  0  0  0  0  0  0  0  0  0  0  0
  -32.9985   -9.3643   -7.9048 O   0  0  0  0  0  0  0  0  0  0  0  0
  -30.9632   -9.9215   -6.7830 C   0  0  0  0  0  0  0  0  0  0  0  0
  -31.4312  -11.3193   -6.5088 C   0  0  0  0  0  0  0  0  0  0  0  0
  -29.6976   -9.5166   -6.3296 C   0  0  0  0  0  0  0  0  0  0  0  0
  -29.3020   -8.1882   -6.4619 C   0  0  0  0  0  0  0  0  0  0  0  0
  -28.1165   -7.8031   -5.9619 F   0  0  0  0  0  0  0  0  0  0  0  0
  -33.4860   -8.5615   -8.1568 H   0  0  0  0  0  0  0  0  0  0  0  0
  -27.3381   -1.6453   -7.8430 O   0  0  0  0  0  0  0  0  0  0  0  0
  -27.6465   -2.2521   -9.0837 C   0  0  0  0  0  0  0  0  0  0  0  0
 11 12  1  0  0  0
 12  1  1  0  0  0
  1  2  1  0  0  0
  1 10  2  0  0  0
  2  3  2  0  0  0
  3  4  1  0  0  0
  3  8  1  0  0  0
  4  5  2  0  0  0
  5  6  1  0  0  0
  6  7  2  0  0  0
  7 13  1  0  0  0
  7  8  1  0  0  0
 13 15  1  0  0  0
 13 14  1  0  0  0
 15 16  1  0  0  0
 15 22  2  0  0  0
 16 17  2  0  0  0
 17 18  1  0  0  0
 17 19  1  0  0  0
 18 24  1  0  0  0
 19 20  1  0  0  0
 19 21  2  0  0  0
 21 22  1  0  0  0
 22 23  1  0  0  0
  8  9  2  0  0  0
  9 10  1  0  0  0
 10 25  1  0  0  0
 25 26  1  0  0  0
M  END
> <minimizedAffinity>
-7.92172

$$$$
