CHEMBL3893786


 36 39  0  0  0  0  0  0  0  0999 V2000
  -27.6988   -2.1622   -8.5591 N   0  0  0  0  0  0  0  0  0  0  0  0
  -27.0639   -1.5916   -9.7584 C   0  0  0  0  0  0  0  0  0  0  0  0
  -27.9316   -1.5081  -10.8466 C   0  0  0  0  0  0  0  0  0  0  0  0
  -27.4835   -1.4498  -12.1179 C   0  0  0  0  0  0  0  0  0  0  0  0
  -26.1518   -1.3839  -12.3871 C   0  0  0  0  0  0  0  0  0  0  0  0
  -25.8228   -1.5769  -13.6634 N   0  0  0  0  0  0  0  0  0  0  0  0
  -24.5844   -1.4539  -14.1036 C   0  0  0  0  0  0  0  0  0  0  0  0
  -23.6063   -0.9201  -13.2702 C   0  0  0  0  0  0  0  0  0  0  0  0
  -23.8747   -0.8593  -11.8888 N   0  0  0  0  0  0  0  0  0  0  0  0
  -25.1618   -1.1739  -11.3953 C   0  0  0  0  0  0  0  0  0  0  0  0
  -25.6323   -1.3116  -10.0049 C   0  0  0  0  0  0  0  0  0  0  0  0
  -22.5557   -0.1458  -14.0849 C   0  0  0  0  0  0  0  0  0  0  0  0
  -21.4722   -0.5643  -14.8453 C   0  0  0  0  0  0  0  0  0  0  0  0
  -20.6162    0.4852  -15.0167 N   0  0  0  0  0  0  0  0  0  0  0  0
  -21.1301    1.5665  -14.4400 N   0  0  0  0  0  0  0  0  0  0  0  0
  -22.3215    1.2435  -13.9296 C   0  0  0  0  0  0  0  0  0  0  0  0
  -20.3836    2.8224  -14.1418 C   0  0  0  0  0  0  0  0  0  0  0  0
  -18.8535    2.6781  -14.0661 C   0  0  0  0  0  0  0  0  0  0  0  0
  -20.7184    3.8948  -15.2072 C   0  0  0  0  0  0  0  0  0  0  0  0
  -29.0613    0.2375   -5.9204 C   0  0  0  0  0  0  0  0  0  0  0  0
  -28.7994   -0.5228   -4.7620 C   0  0  0  0  0  0  0  0  0  0  0  0
  -28.1550   -1.7508   -4.8460 C   0  0  0  0  0  0  0  0  0  0  0  0
  -27.7804   -2.2302   -6.1044 C   0  0  0  0  0  0  0  0  0  0  0  0
  -28.0056   -1.5141   -7.3004 C   0  0  0  0  0  0  0  0  0  0  0  0
  -28.6454   -0.2541   -7.1936 C   0  0  0  0  0  0  0  0  0  0  0  0
  -30.9241    1.7191   -6.4907 C   0  0  0  0  0  0  0  0  0  0  0  0
  -29.7339    1.4207   -5.8356 O   0  0  0  0  0  0  0  0  0  0  0  0
  -27.9187   -2.4500   -3.7062 O   0  0  0  0  0  0  0  0  0  0  0  0
  -28.8807   -2.7739   -2.7658 C   0  0  0  0  0  0  0  0  0  0  0  0
  -27.9584   -3.6543   -8.6326 C   0  0  0  0  0  0  0  0  0  0  0  0
  -29.2858   -4.1152   -7.9624 C   0  0  0  0  0  0  0  0  0  0  0  0
  -29.2399   -5.5284   -7.5045 N   0  0  0  0  0  0  0  0  0  0  0  0
  -28.2525   -5.8717   -7.6084 H   0  0  0  0  0  0  0  0  0  0  0  0
  -29.6133   -5.6985   -6.0677 C   0  0  0  0  0  0  0  0  0  0  0  0
  -28.3772   -5.8339   -5.1676 C   0  0  0  0  0  0  0  0  0  0  0  0
  -30.4465   -4.4986   -5.5542 C   0  0  0  0  0  0  0  0  0  0  0  0
 26 27  1  0  0  0
 27 20  1  0  0  0
 20 21  1  0  0  0
 20 25  2  0  0  0
 21 22  2  0  0  0
 22 28  1  0  0  0
 22 23  1  0  0  0
 28 29  1  0  0  0
 23 24  2  0  0  0
 24  1  1  0  0  0
 24 25  1  0  0  0
  1 30  1  0  0  0
  1  2  1  0  0  0
 30 31  1  0  0  0
 31 32  1  0  0  0
 32 34  1  0  0  0
 32 33  1  0  0  0
 34 35  1  0  0  0
 34 36  1  0  0  0
  2  3  1  0  0  0
  2 11  2  0  0  0
  3  4  2  0  0  0
  4  5  1  0  0  0
  5  6  1  0  0  0
  5 10  2  0  0  0
  6  7  2  0  0  0
  7  8  1  0  0  0
  8 12  1  0  0  0
  8  9  2  0  0  0
 12 13  1  0  0  0
 12 16  2  0  0  0
 13 14  2  0  0  0
 14 15  1  0  0  0
 15 17  1  0  0  0
 15 16  1  0  0  0
 17 18  1  0  0  0
 17 19  1  0  0  0
  9 10  1  0  0  0
 10 11  1  0  0  0
M  END
> <minimizedAffinity>
-7.60025

$$$$
