CHEMBL191023


 41 43  0  0  0  0  0  0  0  0999 V2000
  -13.6820   -7.9742  -15.4526 C   0  0  0  0  0  0  0  0  0  0  0  0
  -14.2132   -7.5001  -14.2548 C   0  0  0  0  0  0  0  0  0  0  0  0
  -14.4095   -6.1377  -14.0603 C   0  0  0  0  0  0  0  0  0  0  0  0
  -14.8390   -5.6338  -12.8795 N   0  0  0  0  0  0  0  0  0  0  0  0
  -15.0015   -4.2837  -12.7588 C   0  0  0  0  0  0  0  0  0  0  0  0
  -14.6906   -3.3654  -13.7745 C   0  0  0  0  0  0  0  0  0  0  0  0
  -14.2498   -3.9232  -14.9825 C   0  0  0  0  0  0  0  0  0  0  0  0
  -14.1164   -5.2978  -15.1370 C   0  0  0  0  0  0  0  0  0  0  0  0
  -13.6801   -5.8483  -16.3282 C   0  0  0  0  0  0  0  0  0  0  0  0
  -13.4541   -7.1561  -16.4956 N   0  0  0  0  0  0  0  0  0  0  0  0
  -15.3956   -3.8342  -11.4964 N   0  0  0  0  0  0  0  0  0  0  0  0
  -14.6510   -3.8624  -10.3446 C   0  0  0  0  0  0  0  0  0  0  0  0
  -15.1341   -3.3770   -9.3219 O   0  0  0  0  0  0  0  0  0  0  0  0
  -13.4129   -4.4262  -10.4212 N   0  0  0  0  0  0  0  0  0  0  0  0
  -15.9817   -3.0101  -11.4985 H   0  0  0  0  0  0  0  0  0  0  0  0
  -13.0053   -4.4522  -11.3430 H   0  0  0  0  0  0  0  0  0  0  0  0
  -12.4740   -4.5490   -9.2820 C   0  0  0  0  0  0  0  0  0  0  0  0
  -13.1116   -5.3806   -8.1610 C   0  0  0  0  0  0  0  0  0  0  0  0
  -11.2047   -5.2813   -9.7639 C   0  0  0  0  0  0  0  0  0  0  0  0
  -12.0427   -3.1795   -8.7269 C   0  0  0  0  0  0  0  0  0  0  0  0
  -14.7794   -1.8886  -13.6747 C   0  0  0  0  0  0  0  0  0  0  0  0
  -15.9827   -1.1798  -13.8114 C   0  0  0  0  0  0  0  0  0  0  0  0
  -16.0013    0.2175  -13.7896 C   0  0  0  0  0  0  0  0  0  0  0  0
  -14.8305    0.9338  -13.5369 C   0  0  0  0  0  0  0  0  0  0  0  0
  -13.6363    0.2585  -13.3303 C   0  0  0  0  0  0  0  0  0  0  0  0
  -13.6205   -1.1338  -13.4050 C   0  0  0  0  0  0  0  0  0  0  0  0
  -17.1227    0.9816  -13.9818 O   0  0  0  0  0  0  0  0  0  0  0  0
  -17.2970    1.4828  -15.3065 C   0  0  0  0  0  0  0  0  0  0  0  0
  -12.4145    0.8107  -13.0614 O   0  0  0  0  0  0  0  0  0  0  0  0
  -12.3986    2.1899  -12.7292 C   0  0  0  0  0  0  0  0  0  0  0  0
  -13.4297   -9.3465  -15.6163 N   0  0  0  0  0  0  0  0  0  0  0  0
  -12.7556   -9.6677  -14.9296 H   0  0  0  0  0  0  0  0  0  0  0  0
  -12.9810   -9.6587  -16.9828 C   0  0  0  0  0  0  0  0  0  0  0  0
  -12.5516  -11.1198  -17.0744 C   0  0  0  0  0  0  0  0  0  0  0  0
  -11.7919  -11.4407  -18.3635 C   0  0  0  0  0  0  0  0  0  0  0  0
  -12.6053  -12.2229  -19.4117 C   0  0  0  0  0  0  0  0  0  0  0  0
  -13.0908  -11.4137  -20.5498 N   0  0  0  0  0  0  0  0  0  0  0  0
  -15.2800  -12.1513  -19.5021 C   0  0  0  0  0  0  0  0  0  0  0  0
  -14.5542  -11.2607  -20.5034 C   0  0  0  0  0  0  0  0  0  0  0  0
  -12.3605  -10.1347  -20.6437 C   0  0  0  0  0  0  0  0  0  0  0  0
  -13.2119   -8.8660  -20.6643 C   0  0  0  0  0  0  0  0  0  0  0  0
 38 39  1  0  0  0
 39 37  1  0  0  0
 37 40  1  0  0  0
 37 36  1  0  0  0
 40 41  1  0  0  0
 36 35  1  0  0  0
 35 34  1  0  0  0
 34 33  1  0  0  0
 33 31  1  0  0  0
 31  1  1  0  0  0
 31 32  1  0  0  0
  1  2  1  0  0  0
  1 10  2  0  0  0
  2  3  2  0  0  0
  3  4  1  0  0  0
  3  8  1  0  0  0
  4  5  2  0  0  0
  5 11  1  0  0  0
  5  6  1  0  0  0
 11 12  1  0  0  0
 11 15  1  0  0  0
 12 13  2  0  0  0
 12 14  1  0  0  0
 14 17  1  0  0  0
 14 16  1  0  0  0
 17 18  1  0  0  0
 17 19  1  0  0  0
 17 20  1  0  0  0
  6 21  1  0  0  0
  6  7  2  0  0  0
 21 22  1  0  0  0
 21 26  2  0  0  0
 22 23  2  0  0  0
 23 27  1  0  0  0
 23 24  1  0  0  0
 27 28  1  0  0  0
 24 25  2  0  0  0
 25 29  1  0  0  0
 25 26  1  0  0  0
 29 30  1  0  0  0
  7  8  1  0  0  0
  8  9  2  0  0  0
  9 10  1  0  0  0
M  END
> <minimizedAffinity>
-5.99780

$$$$
