CHEMBL3893642


 34 37  0  0  0  0  0  0  0  0999 V2000
  -16.6572    1.3090  -15.4092 N   0  0  0  0  0  0  0  0  0  0  0  0
  -17.9846    1.7995  -15.2708 C   0  0  0  0  0  0  0  0  0  0  0  0
  -18.3247    3.1345  -15.5275 C   0  0  0  0  0  0  0  0  0  0  0  0
  -19.5976    3.6205  -15.2330 C   0  0  0  0  0  0  0  0  0  0  0  0
  -20.5788    2.7863  -14.7350 C   0  0  0  0  0  0  0  0  0  0  0  0
  -21.7861    3.3022  -14.4559 N   0  0  0  0  0  0  0  0  0  0  0  0
  -22.7129    2.4273  -14.0048 C   0  0  0  0  0  0  0  0  0  0  0  0
  -22.4580    1.0736  -13.8376 C   0  0  0  0  0  0  0  0  0  0  0  0
  -21.2314    0.5584  -14.0914 N   0  0  0  0  0  0  0  0  0  0  0  0
  -20.2904    1.4152  -14.5373 C   0  0  0  0  0  0  0  0  0  0  0  0
  -19.0037    0.9572  -14.7958 C   0  0  0  0  0  0  0  0  0  0  0  0
  -23.4997    0.1540  -13.4257 C   0  0  0  0  0  0  0  0  0  0  0  0
  -24.1780   -0.8585  -14.1403 C   0  0  0  0  0  0  0  0  0  0  0  0
  -25.0624   -1.5212  -13.3892 N   0  0  0  0  0  0  0  0  0  0  0  0
  -24.9479   -0.9353  -12.1815 N   0  0  0  0  0  0  0  0  0  0  0  0
  -25.7362   -1.4110  -11.0731 C   0  0  0  0  0  0  0  0  0  0  0  0
  -24.0348    0.0758  -12.1540 C   0  0  0  0  0  0  0  0  0  0  0  0
  -14.0410    1.9824  -18.0543 C   0  0  0  0  0  0  0  0  0  0  0  0
  -13.6681    3.2844  -17.7429 C   0  0  0  0  0  0  0  0  0  0  0  0
  -14.2467    3.8966  -16.6376 C   0  0  0  0  0  0  0  0  0  0  0  0
  -13.9141    5.1722  -16.2803 O   0  0  0  0  0  0  0  0  0  0  0  0
  -15.1965    3.2360  -15.8552 C   0  0  0  0  0  0  0  0  0  0  0  0
  -15.6259    1.9327  -16.1606 C   0  0  0  0  0  0  0  0  0  0  0  0
  -15.0031    1.3275  -17.2638 C   0  0  0  0  0  0  0  0  0  0  0  0
  -13.3002    5.5368  -16.9383 H   0  0  0  0  0  0  0  0  0  0  0  0
  -13.7912   -0.1700  -19.0537 C   0  0  0  0  0  0  0  0  0  0  0  0
  -13.5631    1.2330  -19.0958 O   0  0  0  0  0  0  0  0  0  0  0  0
  -16.3253    0.1204  -14.5754 C   0  0  0  0  0  0  0  0  0  0  0  0
  -15.7840    0.4813  -13.1583 C   0  0  0  0  0  0  0  0  0  0  0  0
  -14.8611   -0.4716  -12.5288 N   0  0  0  0  0  0  0  0  0  0  0  0
  -14.8634   -0.2947  -11.5207 H   0  0  0  0  0  0  0  0  0  0  0  0
  -15.1651   -1.8814  -12.7804 C   0  0  0  0  0  0  0  0  0  0  0  0
  -13.9546   -2.6879  -13.2507 C   0  0  0  0  0  0  0  0  0  0  0  0
  -15.7429   -2.4905  -11.5035 C   0  0  0  0  0  0  0  0  0  0  0  0
 26 27  1  0  0  0
 27 18  1  0  0  0
 18 19  1  0  0  0
 18 24  2  0  0  0
 19 20  2  0  0  0
 20 21  1  0  0  0
 20 22  1  0  0  0
 21 25  1  0  0  0
 22 23  2  0  0  0
 23  1  1  0  0  0
 23 24  1  0  0  0
  1 28  1  0  0  0
  1  2  1  0  0  0
 28 29  1  0  0  0
 29 30  1  0  0  0
 30 32  1  0  0  0
 30 31  1  0  0  0
 32 33  1  0  0  0
 32 34  1  0  0  0
  2  3  1  0  0  0
  2 11  2  0  0  0
  3  4  2  0  0  0
  4  5  1  0  0  0
  5  6  1  0  0  0
  5 10  2  0  0  0
  6  7  2  0  0  0
  7  8  1  0  0  0
  8 12  1  0  0  0
  8  9  2  0  0  0
 12 13  1  0  0  0
 12 17  2  0  0  0
 13 14  2  0  0  0
 14 15  1  0  0  0
 15 16  1  0  0  0
 15 17  1  0  0  0
  9 10  1  0  0  0
 10 11  1  0  0  0
M  END
> <minimizedAffinity>
-8.75946

$$$$
