CHEMBL2031894


 39 43  0  0  0  0  0  0  0  0999 V2000
  -15.8403   -2.8822  -12.1062 C   0  0  0  0  0  0  0  0  0  0  0  0
  -15.6310   -1.5694  -11.7072 C   0  0  0  0  0  0  0  0  0  0  0  0
  -15.3057   -0.5994  -12.6622 C   0  0  0  0  0  0  0  0  0  0  0  0
  -15.2512   -0.8937  -14.0324 C   0  0  0  0  0  0  0  0  0  0  0  0
  -15.6164   -2.1812  -14.4357 C   0  0  0  0  0  0  0  0  0  0  0  0
  -15.9085   -3.1594  -13.4751 C   0  0  0  0  0  0  0  0  0  0  0  0
  -16.2086   -4.3996  -13.8889 F   0  0  0  0  0  0  0  0  0  0  0  0
  -14.8159    0.0420  -15.0162 N   0  0  0  0  0  0  0  0  0  0  0  0
  -15.6273    0.9727  -15.6484 C   0  0  0  0  0  0  0  0  0  0  0  0
  -16.8371    1.0596  -15.4756 O   0  0  0  0  0  0  0  0  0  0  0  0
  -13.8138    0.0893  -15.2079 H   0  0  0  0  0  0  0  0  0  0  0  0
  -14.9658    1.9452  -16.5476 C   0  0  0  0  0  0  0  0  0  0  0  0
  -14.4124    1.6965  -17.7551 C   0  0  0  0  0  0  0  0  0  0  0  0
  -14.1891    0.3645  -18.4129 C   0  0  0  0  0  0  0  0  0  0  0  0
  -14.0169    2.8677  -18.4102 N   0  0  0  0  0  0  0  0  0  0  0  0
  -12.9196    2.9399  -19.3768 C   0  0  0  0  0  0  0  0  0  0  0  0
  -14.1026    3.8942  -17.4544 N   0  0  0  0  0  0  0  0  0  0  0  0
  -14.7543    3.3989  -16.3174 C   0  0  0  0  0  0  0  0  0  0  0  0
  -15.1259    3.9821  -15.3086 O   0  0  0  0  0  0  0  0  0  0  0  0
  -13.9905    5.2520  -17.7911 C   0  0  0  0  0  0  0  0  0  0  0  0
  -12.9163    5.9875  -17.2716 C   0  0  0  0  0  0  0  0  0  0  0  0
  -12.7245    7.3182  -17.6479 C   0  0  0  0  0  0  0  0  0  0  0  0
  -13.6281    7.9341  -18.5089 C   0  0  0  0  0  0  0  0  0  0  0  0
  -14.7124    7.2194  -19.0141 C   0  0  0  0  0  0  0  0  0  0  0  0
  -14.8806    5.8709  -18.6763 C   0  0  0  0  0  0  0  0  0  0  0  0
  -15.9439   -3.9420  -11.2344 O   0  0  0  0  0  0  0  0  0  0  0  0
  -12.3177   -7.6124  -12.2001 C   0  0  0  0  0  0  0  0  0  0  0  0
  -12.0445   -6.9379  -11.0068 C   0  0  0  0  0  0  0  0  0  0  0  0
  -12.8804   -5.9482  -10.5043 C   0  0  0  0  0  0  0  0  0  0  0  0
  -12.5484   -5.4151   -9.3194 N   0  0  0  0  0  0  0  0  0  0  0  0
  -13.3566   -4.4767   -8.7894 C   0  0  0  0  0  0  0  0  0  0  0  0
  -14.4758   -3.9869   -9.4256 C   0  0  0  0  0  0  0  0  0  0  0  0
  -14.8014   -4.5024  -10.6800 C   0  0  0  0  0  0  0  0  0  0  0  0
  -14.0276   -5.5640  -11.2321 C   0  0  0  0  0  0  0  0  0  0  0  0
  -14.3096   -6.2680  -12.4323 C   0  0  0  0  0  0  0  0  0  0  0  0
  -13.4557   -7.2596  -12.9190 C   0  0  0  0  0  0  0  0  0  0  0  0
  -13.9191   -8.1142  -14.5498 Br  0  0  0  0  0  0  0  0  0  0  0  0
  -11.6182   -9.8677  -12.0869 C   0  0  0  0  0  0  0  0  0  0  0  0
  -11.5111   -8.5935  -12.7141 O   0  0  0  0  0  0  0  0  0  0  0  0
 38 39  1  0  0  0
 39 27  1  0  0  0
 27 28  1  0  0  0
 27 36  2  0  0  0
 28 29  2  0  0  0
 29 30  1  0  0  0
 29 34  1  0  0  0
 30 31  2  0  0  0
 31 32  1  0  0  0
 32 33  2  0  0  0
 33 26  1  0  0  0
 33 34  1  0  0  0
 26  1  1  0  0  0
  1  2  1  0  0  0
  1  6  2  0  0  0
  2  3  2  0  0  0
  3  4  1  0  0  0
  4  8  1  0  0  0
  4  5  2  0  0  0
  8  9  1  0  0  0
  8 11  1  0  0  0
  9 10  2  0  0  0
  9 12  1  0  0  0
 12 13  2  0  0  0
 12 18  1  0  0  0
 13 14  1  0  0  0
 13 15  1  0  0  0
 15 16  1  0  0  0
 15 17  1  0  0  0
 17 20  1  0  0  0
 17 18  1  0  0  0
 20 21  1  0  0  0
 20 25  2  0  0  0
 21 22  2  0  0  0
 22 23  1  0  0  0
 23 24  2  0  0  0
 24 25  1  0  0  0
 18 19  2  0  0  0
  5  6  1  0  0  0
  6  7  1  0  0  0
 34 35  2  0  0  0
 35 36  1  0  0  0
 36 37  1  0  0  0
M  END
> <minimizedAffinity>
-7.68287

$$$$
