CHEMBL1969372


 28 31  0  0  0  0  0  0  0  0999 V2000
  -29.1401   -4.7475   -6.1693 C   0  0  0  0  0  0  0  0  0  0  0  0
  -28.8574   -5.3168   -7.4212 C   0  0  0  0  0  0  0  0  0  0  0  0
  -28.3041   -4.3910   -8.2868 N   0  0  0  0  0  0  0  0  0  0  0  0
  -28.2770   -3.2784   -7.5993 C   0  0  0  0  0  0  0  0  0  0  0  0
  -27.8310   -1.9814   -8.0311 C   0  0  0  0  0  0  0  0  0  0  0  0
  -27.8588   -0.9423   -7.2378 N   0  0  0  0  0  0  0  0  0  0  0  0
  -28.3129   -1.1387   -5.9473 C   0  0  0  0  0  0  0  0  0  0  0  0
  -28.7357   -2.3217   -5.4703 C   0  0  0  0  0  0  0  0  0  0  0  0
  -28.7419   -3.4252   -6.3160 N   0  0  0  0  0  0  0  0  0  0  0  0
  -29.0872   -6.6949   -7.8577 C   0  0  0  0  0  0  0  0  0  0  0  0
  -28.1002   -7.4409   -8.5206 C   0  0  0  0  0  0  0  0  0  0  0  0
  -28.3646   -8.7319   -8.9845 C   0  0  0  0  0  0  0  0  0  0  0  0
  -29.6037   -9.3049   -8.7403 C   0  0  0  0  0  0  0  0  0  0  0  0
  -29.8576  -10.5429   -9.1840 F   0  0  0  0  0  0  0  0  0  0  0  0
  -30.5821   -8.6099   -8.0375 C   0  0  0  0  0  0  0  0  0  0  0  0
  -30.3238   -7.3072   -7.5991 C   0  0  0  0  0  0  0  0  0  0  0  0
  -29.3673   -6.9412   -3.3363 C   0  0  0  0  0  0  0  0  0  0  0  0
  -30.5615   -6.7188   -2.7810 N   0  0  0  0  0  0  0  0  0  0  0  0
  -31.3320   -5.7811   -3.3565 C   0  0  0  0  0  0  0  0  0  0  0  0
  -30.9619   -5.0774   -4.4761 C   0  0  0  0  0  0  0  0  0  0  0  0
  -29.6930   -5.3294   -4.9436 C   0  0  0  0  0  0  0  0  0  0  0  0
  -28.8828   -6.2237   -4.3551 N   0  0  0  0  0  0  0  0  0  0  0  0
  -28.6777   -8.0491   -2.8887 N   0  0  0  0  0  0  0  0  0  0  0  0
  -27.8450   -7.7344   -2.3993 H   0  0  0  0  0  0  0  0  0  0  0  0
  -28.4273   -9.1080   -3.8572 C   0  0  0  0  0  0  0  0  0  0  0  0
  -27.0708   -9.7675   -3.5919 C   0  0  0  0  0  0  0  0  0  0  0  0
  -24.9601   -9.4927   -4.6145 C   0  0  0  0  0  0  0  0  0  0  0  0
  -26.0364   -8.8428   -3.9556 O   0  0  0  0  0  0  0  0  0  0  0  0
 27 28  1  0  0  0
 28 26  1  0  0  0
 26 25  1  0  0  0
 25 23  1  0  0  0
 23 17  1  0  0  0
 23 24  1  0  0  0
 17 18  1  0  0  0
 17 22  2  0  0  0
 18 19  2  0  0  0
 19 20  1  0  0  0
 20 21  2  0  0  0
 21  1  1  0  0  0
 21 22  1  0  0  0
  1  2  2  0  0  0
  1  9  1  0  0  0
  2 10  1  0  0  0
  2  3  1  0  0  0
 10 11  1  0  0  0
 10 16  2  0  0  0
 11 12  2  0  0  0
 12 13  1  0  0  0
 13 14  1  0  0  0
 13 15  2  0  0  0
 15 16  1  0  0  0
  3  4  2  0  0  0
  4  5  1  0  0  0
  4  9  1  0  0  0
  5  6  2  0  0  0
  6  7  1  0  0  0
  7  8  2  0  0  0
  8  9  1  0  0  0
M  END
> <minimizedAffinity>
-7.26297

$$$$
