CHEMBL598911


 29 31  0  0  0  0  0  0  0  0999 V2000
  -26.8595   -1.6541   -9.7224 C   0  0  0  0  0  0  0  0  0  0  0  0
  -27.8903   -1.8942  -10.6214 C   0  0  0  0  0  0  0  0  0  0  0  0
  -27.6404   -1.8455  -11.9976 C   0  0  0  0  0  0  0  0  0  0  0  0
  -26.3807   -1.5435  -12.5071 C   0  0  0  0  0  0  0  0  0  0  0  0
  -26.2272   -1.4880  -13.8387 N   0  0  0  0  0  0  0  0  0  0  0  0
  -25.0086   -1.1459  -14.3191 C   0  0  0  0  0  0  0  0  0  0  0  0
  -23.8929   -0.8656  -13.5443 C   0  0  0  0  0  0  0  0  0  0  0  0
  -24.0717   -0.9368  -12.1567 C   0  0  0  0  0  0  0  0  0  0  0  0
  -25.3279   -1.2873  -11.6114 C   0  0  0  0  0  0  0  0  0  0  0  0
  -25.5774   -1.3758  -10.2169 C   0  0  0  0  0  0  0  0  0  0  0  0
  -22.6096   -0.4468  -14.1327 C   0  0  0  0  0  0  0  0  0  0  0  0
  -22.0863    0.7841  -13.9741 C   0  0  0  0  0  0  0  0  0  0  0  0
  -20.7796    1.1537  -14.5622 C   0  0  0  0  0  0  0  0  0  0  0  0
  -20.4096    2.4426  -14.3018 N   0  0  0  0  0  0  0  0  0  0  0  0
  -20.0849    0.3931  -15.2191 O   0  0  0  0  0  0  0  0  0  0  0  0
  -20.9640    3.0904  -13.7647 H   0  0  0  0  0  0  0  0  0  0  0  0
  -19.5271    2.7568  -14.6801 H   0  0  0  0  0  0  0  0  0  0  0  0
  -26.9767   -1.7009   -8.3600 O   0  0  0  0  0  0  0  0  0  0  0  0
  -28.4408   -0.0440   -7.2850 C   0  0  0  0  0  0  0  0  0  0  0  0
  -28.2660   -1.4974   -7.7551 C   0  0  0  0  0  0  0  0  0  0  0  0
  -28.4856   -2.4006   -6.5279 C   0  0  0  0  0  0  0  0  0  0  0  0
  -28.0108   -2.0952   -5.2322 C   0  0  0  0  0  0  0  0  0  0  0  0
  -26.9733   -0.7588   -4.8711 Cl  0  0  0  0  0  0  0  0  0  0  0  0
  -28.4044   -2.8575   -4.1143 C   0  0  0  0  0  0  0  0  0  0  0  0
  -29.2854   -3.9194   -4.2510 C   0  0  0  0  0  0  0  0  0  0  0  0
  -29.7414   -4.2549   -5.5143 C   0  0  0  0  0  0  0  0  0  0  0  0
  -30.6055   -5.2755   -5.6266 F   0  0  0  0  0  0  0  0  0  0  0  0
  -29.3405   -3.5291   -6.6440 C   0  0  0  0  0  0  0  0  0  0  0  0
  -29.9735   -4.0534   -8.1731 Cl  0  0  0  0  0  0  0  0  0  0  0  0
 19 20  1  0  0  0
 20 18  1  0  0  0
 20 21  1  0  0  0
 18  1  1  0  0  0
  1  2  1  0  0  0
  1 10  2  0  0  0
  2  3  2  0  0  0
  3  4  1  0  0  0
  4  5  1  0  0  0
  4  9  2  0  0  0
  5  6  2  0  0  0
  6  7  1  0  0  0
  7 11  1  0  0  0
  7  8  2  0  0  0
 11 12  2  0  0  0
 12 13  1  0  0  0
 13 14  1  0  0  0
 13 15  2  0  0  0
 14 16  1  0  0  0
 14 17  1  0  0  0
  8  9  1  0  0  0
  9 10  1  0  0  0
 21 22  1  0  0  0
 21 28  2  0  0  0
 22 23  1  0  0  0
 22 24  2  0  0  0
 24 25  1  0  0  0
 25 26  2  0  0  0
 26 27  1  0  0  0
 26 28  1  0  0  0
 28 29  1  0  0  0
M  END
> <minimizedAffinity>
-9.30478

$$$$
