CHEMBL3920210


 33 36  0  0  0  0  0  0  0  0999 V2000
  -13.7220   -0.1404  -15.7027 C   0  0  0  0  0  0  0  0  0  0  0  0
  -14.9091    0.1784  -14.9859 C   0  0  0  0  0  0  0  0  0  0  0  0
  -15.8282    1.1357  -15.4376 C   0  0  0  0  0  0  0  0  0  0  0  0
  -15.5752    1.8077  -16.6293 C   0  0  0  0  0  0  0  0  0  0  0  0
  -14.4357    1.5157  -17.3644 C   0  0  0  0  0  0  0  0  0  0  0  0
  -13.5080    0.5462  -16.9297 C   0  0  0  0  0  0  0  0  0  0  0  0
  -12.3075    0.3678  -17.8289 C   0  0  0  0  0  0  0  0  0  0  0  0
  -12.3872   -3.5547  -10.9003 C   0  0  0  0  0  0  0  0  0  0  0  0
  -13.1670   -4.3671  -11.6313 N   0  0  0  0  0  0  0  0  0  0  0  0
  -13.4005   -3.9867  -12.8975 C   0  0  0  0  0  0  0  0  0  0  0  0
  -12.8901   -2.8352  -13.4597 C   0  0  0  0  0  0  0  0  0  0  0  0
  -12.0735   -2.0815  -12.6397 C   0  0  0  0  0  0  0  0  0  0  0  0
  -11.8160   -2.4266  -11.3583 N   0  0  0  0  0  0  0  0  0  0  0  0
  -11.5043   -0.7755  -13.1248 C   0  0  0  0  0  0  0  0  0  0  0  0
  -11.5140   -0.6890  -14.6511 C   0  0  0  0  0  0  0  0  0  0  0  0
  -12.8314   -1.0745  -15.1777 N   0  0  0  0  0  0  0  0  0  0  0  0
  -13.2302   -2.4490  -14.8668 C   0  0  0  0  0  0  0  0  0  0  0  0
  -13.5410   -5.0122   -8.8781 C   0  0  0  0  0  0  0  0  0  0  0  0
  -12.1056   -3.9550   -9.1926 S   0  0  0  0  0  0  0  0  0  0  0  0
  -17.1284    1.4247  -14.7713 C   0  0  0  0  0  0  0  0  0  0  0  0
  -17.1640    1.2580  -13.5510 O   0  0  0  0  0  0  0  0  0  0  0  0
  -18.2050    1.7867  -15.5684 N   0  0  0  0  0  0  0  0  0  0  0  0
  -18.0929    1.7164  -16.5704 H   0  0  0  0  0  0  0  0  0  0  0  0
  -19.5220    2.0240  -15.0843 C   0  0  0  0  0  0  0  0  0  0  0  0
  -20.0655    3.3038  -14.9480 C   0  0  0  0  0  0  0  0  0  0  0  0
  -21.3402    3.5004  -14.4095 C   0  0  0  0  0  0  0  0  0  0  0  0
  -22.0979    2.4083  -14.0025 C   0  0  0  0  0  0  0  0  0  0  0  0
  -21.5905    1.1092  -14.1451 C   0  0  0  0  0  0  0  0  0  0  0  0
  -20.3066    0.9259  -14.7064 C   0  0  0  0  0  0  0  0  0  0  0  0
  -22.3973   -0.0765  -13.6760 C   0  0  0  0  0  0  0  0  0  0  0  0
  -22.3807   -0.2507  -12.3237 F   0  0  0  0  0  0  0  0  0  0  0  0
  -23.7103    0.0137  -14.0233 F   0  0  0  0  0  0  0  0  0  0  0  0
  -21.9506   -1.2495  -14.2054 F   0  0  0  0  0  0  0  0  0  0  0  0
 18 19  1  0  0  0
 19  8  1  0  0  0
  8  9  1  0  0  0
  8 13  2  0  0  0
  9 10  2  0  0  0
 10 11  1  0  0  0
 11 12  2  0  0  0
 11 17  1  0  0  0
 12 13  1  0  0  0
 12 14  1  0  0  0
 14 15  1  0  0  0
 15 16  1  0  0  0
 16  1  1  0  0  0
 16 17  1  0  0  0
  1  2  1  0  0  0
  1  6  2  0  0  0
  2  3  2  0  0  0
  3 20  1  0  0  0
  3  4  1  0  0  0
 20 21  2  0  0  0
 20 22  1  0  0  0
 22 24  1  0  0  0
 22 23  1  0  0  0
 24 25  1  0  0  0
 24 29  2  0  0  0
 25 26  2  0  0  0
 26 27  1  0  0  0
 27 28  2  0  0  0
 28 30  1  0  0  0
 28 29  1  0  0  0
 30 31  1  0  0  0
 30 32  1  0  0  0
 30 33  1  0  0  0
  4  5  2  0  0  0
  5  6  1  0  0  0
  6  7  1  0  0  0
M  END
> <minimizedAffinity>
-9.15895

$$$$
