CHEMBL492856


 36 40  0  0  0  0  0  0  0  0999 V2000
  -16.8532    1.1167  -14.5455 C   0  0  0  0  0  0  0  0  0  0  0  0
  -18.2361    1.3155  -14.6303 C   0  0  0  0  0  0  0  0  0  0  0  0
  -18.7303    2.4091  -15.3675 C   0  0  0  0  0  0  0  0  0  0  0  0
  -17.8178    3.3033  -15.9730 C   0  0  0  0  0  0  0  0  0  0  0  0
  -16.4103    3.1153  -15.8875 C   0  0  0  0  0  0  0  0  0  0  0  0
  -15.9409    1.9875  -15.2225 C   0  0  0  0  0  0  0  0  0  0  0  0
  -14.4563    1.7440  -15.1573 C   0  0  0  0  0  0  0  0  0  0  0  0
  -13.5848    2.5335  -16.1461 C   0  0  0  0  0  0  0  0  0  0  0  0
  -13.9689    3.9321  -16.2907 N   0  0  0  0  0  0  0  0  0  0  0  0
  -15.4168    4.1413  -16.4236 C   0  0  0  0  0  0  0  0  0  0  0  0
  -15.8946    5.1272  -16.9931 O   0  0  0  0  0  0  0  0  0  0  0  0
  -16.1870    0.4383  -12.4301 O   0  0  0  0  0  0  0  0  0  0  0  0
  -16.3057    0.0934  -13.6008 C   0  0  0  0  0  0  0  0  0  0  0  0
  -15.9719   -1.1477  -14.1142 N   0  0  0  0  0  0  0  0  0  0  0  0
  -16.2631   -1.3550  -15.0587 H   0  0  0  0  0  0  0  0  0  0  0  0
  -15.2325   -2.1444  -13.4444 C   0  0  0  0  0  0  0  0  0  0  0  0
  -13.8685   -2.0458  -13.1329 C   0  0  0  0  0  0  0  0  0  0  0  0
  -13.1861   -3.1022  -12.5146 C   0  0  0  0  0  0  0  0  0  0  0  0
  -13.8562   -4.2788  -12.1897 C   0  0  0  0  0  0  0  0  0  0  0  0
  -15.2189   -4.4089  -12.4832 C   0  0  0  0  0  0  0  0  0  0  0  0
  -15.8916   -3.3391  -13.1126 C   0  0  0  0  0  0  0  0  0  0  0  0
  -15.9785   -5.6643  -12.1321 C   0  0  0  0  0  0  0  0  0  0  0  0
  -16.3175   -6.4256  -13.2093 F   0  0  0  0  0  0  0  0  0  0  0  0
  -15.2685   -6.4806  -11.3052 F   0  0  0  0  0  0  0  0  0  0  0  0
  -17.1451   -5.3998  -11.4803 F   0  0  0  0  0  0  0  0  0  0  0  0
  -13.1765    4.8643  -17.1578 C   0  0  0  0  0  0  0  0  0  0  0  0
  -12.8842    6.3481  -17.4912 C   0  0  0  0  0  0  0  0  0  0  0  0
  -13.2605    7.1325  -18.5899 C   0  0  0  0  0  0  0  0  0  0  0  0
  -12.9015    8.4887  -18.6093 C   0  0  0  0  0  0  0  0  0  0  0  0
  -12.2055    9.1365  -17.6508 N   0  0  0  0  0  0  0  0  0  0  0  0
  -11.8462    8.4350  -16.5741 C   0  0  0  0  0  0  0  0  0  0  0  0
  -11.1156    9.0985  -15.5802 C   0  0  0  0  0  0  0  0  0  0  0  0
  -10.6974    8.4767  -14.4174 C   0  0  0  0  0  0  0  0  0  0  0  0
  -11.0345    7.1549  -14.2130 C   0  0  0  0  0  0  0  0  0  0  0  0
  -11.7586    6.4651  -15.1852 C   0  0  0  0  0  0  0  0  0  0  0  0
  -12.1696    7.0583  -16.4246 C   0  0  0  0  0  0  0  0  0  0  0  0
 12 13  2  0  0  0
 13 14  1  0  0  0
 13  1  1  0  0  0
 14 16  1  0  0  0
 14 15  1  0  0  0
 16 17  1  0  0  0
 16 21  2  0  0  0
 17 18  2  0  0  0
 18 19  1  0  0  0
 19 20  2  0  0  0
 20 22  1  0  0  0
 20 21  1  0  0  0
 22 23  1  0  0  0
 22 24  1  0  0  0
 22 25  1  0  0  0
  1  2  1  0  0  0
  1  6  2  0  0  0
  2  3  2  0  0  0
  3  4  1  0  0  0
  4  5  2  0  0  0
  5  6  1  0  0  0
  5 10  1  0  0  0
  6  7  1  0  0  0
  7  8  1  0  0  0
  8  9  1  0  0  0
  9 26  1  0  0  0
  9 10  1  0  0  0
 26 27  1  0  0  0
 27 28  1  0  0  0
 27 36  2  0  0  0
 28 29  2  0  0  0
 29 30  1  0  0  0
 30 31  2  0  0  0
 31 32  1  0  0  0
 31 36  1  0  0  0
 32 33  2  0  0  0
 33 34  1  0  0  0
 34 35  2  0  0  0
 35 36  1  0  0  0
 10 11  2  0  0  0
M  END
> <minimizedAffinity>
-9.11965

$$$$
