CHEMBL223304


 33 36  0  0  0  0  0  0  0  0999 V2000
  -22.7758   -0.5137  -13.5886 C   0  0  0  0  0  0  0  0  0  0  0  0
  -22.6656   -0.9957  -12.2877 C   0  0  0  0  0  0  0  0  0  0  0  0
  -23.7609   -1.5432  -11.6106 C   0  0  0  0  0  0  0  0  0  0  0  0
  -24.9922   -1.7169  -12.2424 C   0  0  0  0  0  0  0  0  0  0  0  0
  -25.0936   -1.3389  -13.5822 C   0  0  0  0  0  0  0  0  0  0  0  0
  -24.0035   -0.7323  -14.2370 C   0  0  0  0  0  0  0  0  0  0  0  0
  -23.4067    2.8133  -13.2521 N   0  0  0  0  0  0  0  0  0  0  0  0
  -22.2385    2.7650  -13.9069 C   0  0  0  0  0  0  0  0  0  0  0  0
  -21.6193    3.8960  -14.2320 N   0  0  0  0  0  0  0  0  0  0  0  0
  -20.5177    3.4865  -14.8620 N   0  0  0  0  0  0  0  0  0  0  0  0
  -20.3905    2.1280  -14.9555 C   0  0  0  0  0  0  0  0  0  0  0  0
  -19.3761    1.3647  -15.5376 C   0  0  0  0  0  0  0  0  0  0  0  0
  -19.4990   -0.0181  -15.4644 C   0  0  0  0  0  0  0  0  0  0  0  0
  -20.6001   -0.6023  -14.8354 C   0  0  0  0  0  0  0  0  0  0  0  0
  -21.6377    0.1637  -14.2509 C   0  0  0  0  0  0  0  0  0  0  0  0
  -21.5166    1.5919  -14.3247 C   0  0  0  0  0  0  0  0  0  0  0  0
  -23.8273    3.7281  -13.1351 H   0  0  0  0  0  0  0  0  0  0  0  0
  -24.0766    2.0559  -13.3011 H   0  0  0  0  0  0  0  0  0  0  0  0
  -19.8771    4.1905  -15.2083 H   0  0  0  0  0  0  0  0  0  0  0  0
  -26.1117   -2.2880  -11.5954 N   0  0  0  0  0  0  0  0  0  0  0  0
  -26.5273   -1.9654  -10.3238 C   0  0  0  0  0  0  0  0  0  0  0  0
  -26.0818   -1.0337   -9.6506 O   0  0  0  0  0  0  0  0  0  0  0  0
  -27.4892   -2.8480   -9.8343 N   0  0  0  0  0  0  0  0  0  0  0  0
  -26.7459   -2.8351  -12.1526 H   0  0  0  0  0  0  0  0  0  0  0  0
  -27.3810   -3.7953  -10.1647 H   0  0  0  0  0  0  0  0  0  0  0  0
  -27.9652   -2.6988   -8.5066 C   0  0  0  0  0  0  0  0  0  0  0  0
  -28.6828   -3.7227   -7.8747 C   0  0  0  0  0  0  0  0  0  0  0  0
  -29.2700   -3.5115   -6.6272 C   0  0  0  0  0  0  0  0  0  0  0  0
  -29.1361   -2.2758   -5.9996 C   0  0  0  0  0  0  0  0  0  0  0  0
  -28.3857   -1.2761   -6.6144 C   0  0  0  0  0  0  0  0  0  0  0  0
  -28.2480   -0.0459   -6.0386 O   0  0  0  0  0  0  0  0  0  0  0  0
  -27.7771   -1.4834   -7.8514 C   0  0  0  0  0  0  0  0  0  0  0  0
  -28.7558   -0.0380   -5.2103 H   0  0  0  0  0  0  0  0  0  0  0  0
  7  8  1  0  0  0
  7 17  1  0  0  0
  7 18  1  0  0  0
  8  9  2  0  0  0
  8 16  1  0  0  0
  9 10  1  0  0  0
 10 11  1  0  0  0
 10 19  1  0  0  0
 11 12  1  0  0  0
 11 16  2  0  0  0
 12 13  2  0  0  0
 13 14  1  0  0  0
 14 15  2  0  0  0
 15  1  1  0  0  0
 15 16  1  0  0  0
  1  2  1  0  0  0
  1  6  2  0  0  0
  2  3  2  0  0  0
  3  4  1  0  0  0
  4 20  1  0  0  0
  4  5  2  0  0  0
 20 21  1  0  0  0
 20 24  1  0  0  0
 21 22  2  0  0  0
 21 23  1  0  0  0
 23 26  1  0  0  0
 23 25  1  0  0  0
 26 27  1  0  0  0
 26 32  2  0  0  0
 27 28  2  0  0  0
 28 29  1  0  0  0
 29 30  2  0  0  0
 30 31  1  0  0  0
 30 32  1  0  0  0
 31 33  1  0  0  0
  5  6  1  0  0  0
M  END
> <minimizedAffinity>
-10.07786

$$$$
