CHEMBL381207


 36 39  0  0  0  0  0  0  0  0999 V2000
  -12.8213   -3.8284  -12.0904 C   0  0  0  0  0  0  0  0  0  0  0  0
  -14.1969   -3.9302  -12.2916 C   0  0  0  0  0  0  0  0  0  0  0  0
  -14.8639   -3.0885  -13.1847 C   0  0  0  0  0  0  0  0  0  0  0  0
  -14.2079   -2.0334  -13.8176 C   0  0  0  0  0  0  0  0  0  0  0  0
  -12.8506   -1.8580  -13.5567 C   0  0  0  0  0  0  0  0  0  0  0  0
  -12.1614   -2.7715  -12.7355 C   0  0  0  0  0  0  0  0  0  0  0  0
  -12.1453   -3.3612   -9.0322 C   0  0  0  0  0  0  0  0  0  0  0  0
  -11.8674   -4.5618   -9.8872 C   0  0  0  0  0  0  0  0  0  0  0  0
  -11.1104   -5.8899   -9.1161 S   0  0  0  0  0  0  0  0  0  0  0  0
  -11.1618   -6.8371  -10.5153 C   0  0  0  0  0  0  0  0  0  0  0  0
  -10.6981   -8.0934  -10.4621 N   0  0  0  0  0  0  0  0  0  0  0  0
  -10.7933   -8.7261  -11.6273 C   0  0  0  0  0  0  0  0  0  0  0  0
  -11.2595   -8.2262  -12.7754 N   0  0  0  0  0  0  0  0  0  0  0  0
  -11.7029   -6.9543  -12.8000 C   0  0  0  0  0  0  0  0  0  0  0  0
  -12.1265   -6.5355  -14.0533 N   0  0  0  0  0  0  0  0  0  0  0  0
  -11.6970   -6.1773  -11.6140 C   0  0  0  0  0  0  0  0  0  0  0  0
  -12.1319   -4.8171  -11.2350 C   0  0  0  0  0  0  0  0  0  0  0  0
  -11.8553   -7.2084  -14.7626 H   0  0  0  0  0  0  0  0  0  0  0  0
  -11.9375   -5.5674  -14.2708 H   0  0  0  0  0  0  0  0  0  0  0  0
  -14.8422   -1.1520  -14.7232 N   0  0  0  0  0  0  0  0  0  0  0  0
  -15.7763   -0.1959  -14.3761 C   0  0  0  0  0  0  0  0  0  0  0  0
  -16.1386    0.0560  -13.2334 O   0  0  0  0  0  0  0  0  0  0  0  0
  -16.3263    0.4401  -15.4835 N   0  0  0  0  0  0  0  0  0  0  0  0
  -14.5435   -1.1754  -15.6880 H   0  0  0  0  0  0  0  0  0  0  0  0
  -16.4988   -0.1751  -16.2688 H   0  0  0  0  0  0  0  0  0  0  0  0
  -17.3379    1.4095  -15.2558 C   0  0  0  0  0  0  0  0  0  0  0  0
  -18.6194    1.0315  -14.8327 C   0  0  0  0  0  0  0  0  0  0  0  0
  -19.6702    1.9583  -14.8063 C   0  0  0  0  0  0  0  0  0  0  0  0
  -19.4094    3.2834  -15.1950 C   0  0  0  0  0  0  0  0  0  0  0  0
  -18.1172    3.6763  -15.5624 C   0  0  0  0  0  0  0  0  0  0  0  0
  -17.0867    2.7427  -15.5711 C   0  0  0  0  0  0  0  0  0  0  0  0
  -15.8626    3.1137  -15.9791 F   0  0  0  0  0  0  0  0  0  0  0  0
  -21.0662    1.5316  -14.4143 C   0  0  0  0  0  0  0  0  0  0  0  0
  -21.9794    2.5419  -14.4366 F   0  0  0  0  0  0  0  0  0  0  0  0
  -21.5583    0.5705  -15.2440 F   0  0  0  0  0  0  0  0  0  0  0  0
  -21.1179    1.0043  -13.1606 F   0  0  0  0  0  0  0  0  0  0  0  0
  7  8  1  0  0  0
  8  9  1  0  0  0
  8 17  2  0  0  0
  9 10  1  0  0  0
 10 11  1  0  0  0
 10 16  2  0  0  0
 11 12  2  0  0  0
 12 13  1  0  0  0
 13 14  2  0  0  0
 14 15  1  0  0  0
 14 16  1  0  0  0
 15 18  1  0  0  0
 15 19  1  0  0  0
 16 17  1  0  0  0
 17  1  1  0  0  0
  1  2  1  0  0  0
  1  6  2  0  0  0
  2  3  2  0  0  0
  3  4  1  0  0  0
  4 20  1  0  0  0
  4  5  2  0  0  0
 20 21  1  0  0  0
 20 24  1  0  0  0
 21 22  2  0  0  0
 21 23  1  0  0  0
 23 26  1  0  0  0
 23 25  1  0  0  0
 26 27  1  0  0  0
 26 31  2  0  0  0
 27 28  2  0  0  0
 28 33  1  0  0  0
 28 29  1  0  0  0
 33 34  1  0  0  0
 33 35  1  0  0  0
 33 36  1  0  0  0
 29 30  2  0  0  0
 30 31  1  0  0  0
 31 32  1  0  0  0
  5  6  1  0  0  0
M  END
> <minimizedAffinity>
-9.07444

$$$$
