CHEMBL3929188


 30 33  0  0  0  0  0  0  0  0999 V2000
  -29.6985   -5.3734   -7.2270 C   0  0  0  0  0  0  0  0  0  0  0  0
  -29.1435   -4.4270   -8.0846 C   0  0  0  0  0  0  0  0  0  0  0  0
  -28.6295   -3.2067   -7.5991 C   0  0  0  0  0  0  0  0  0  0  0  0
  -28.1274   -2.1891   -8.4267 C   0  0  0  0  0  0  0  0  0  0  0  0
  -27.6082   -1.0578   -7.9244 N   0  0  0  0  0  0  0  0  0  0  0  0
  -27.6220   -0.9300   -6.5945 C   0  0  0  0  0  0  0  0  0  0  0  0
  -28.1014   -1.8219   -5.7183 N   0  0  0  0  0  0  0  0  0  0  0  0
  -28.5966   -2.9581   -6.2238 C   0  0  0  0  0  0  0  0  0  0  0  0
  -29.0805   -3.9440   -5.3705 C   0  0  0  0  0  0  0  0  0  0  0  0
  -29.5986   -5.1612   -5.8443 C   0  0  0  0  0  0  0  0  0  0  0  0
  -29.5765   -7.6470   -7.9891 C   0  0  0  0  0  0  0  0  0  0  0  0
  -30.3471   -6.4897   -7.6811 O   0  0  0  0  0  0  0  0  0  0  0  0
  -28.2152   -2.3418   -9.8418 N   0  0  0  0  0  0  0  0  0  0  0  0
  -29.1370   -2.0363  -10.1426 H   0  0  0  0  0  0  0  0  0  0  0  0
  -27.1966   -1.9822  -10.7448 C   0  0  0  0  0  0  0  0  0  0  0  0
  -25.9248   -1.6317  -10.2733 C   0  0  0  0  0  0  0  0  0  0  0  0
  -24.9211   -1.2236  -11.1488 C   0  0  0  0  0  0  0  0  0  0  0  0
  -25.1773   -1.1654  -12.5196 C   0  0  0  0  0  0  0  0  0  0  0  0
  -23.9126   -0.5919  -13.5459 Cl  0  0  0  0  0  0  0  0  0  0  0  0
  -26.4277   -1.5536  -13.0066 C   0  0  0  0  0  0  0  0  0  0  0  0
  -26.8112   -1.5196  -14.6949 Cl  0  0  0  0  0  0  0  0  0  0  0  0
  -27.4298   -1.9738  -12.1252 C   0  0  0  0  0  0  0  0  0  0  0  0
  -29.9656   -6.0392   -4.8456 O   0  0  0  0  0  0  0  0  0  0  0  0
  -28.9055   -6.4420   -3.9720 C   0  0  0  0  0  0  0  0  0  0  0  0
  -27.8234   -7.1962   -4.7367 C   0  0  0  0  0  0  0  0  0  0  0  0
  -27.7365   -8.6333   -4.2362 C   0  0  0  0  0  0  0  0  0  0  0  0
  -27.5865   -9.5574   -5.3217 O   0  0  0  0  0  0  0  0  0  0  0  0
  -28.6202  -10.5304   -5.1354 C   0  0  0  0  0  0  0  0  0  0  0  0
  -29.0203  -10.3902   -3.6912 C   0  0  0  0  0  0  0  0  0  0  0  0
  -28.8992   -8.9880   -3.4749 O   0  0  0  0  0  0  0  0  0  0  0  0
 11 12  1  0  0  0
 12  1  1  0  0  0
  1  2  1  0  0  0
  1 10  2  0  0  0
  2  3  2  0  0  0
  3  4  1  0  0  0
  3  8  1  0  0  0
  4 13  1  0  0  0
  4  5  2  0  0  0
 13 15  1  0  0  0
 13 14  1  0  0  0
 15 16  1  0  0  0
 15 22  2  0  0  0
 16 17  2  0  0  0
 17 18  1  0  0  0
 18 19  1  0  0  0
 18 20  2  0  0  0
 20 21  1  0  0  0
 20 22  1  0  0  0
  5  6  1  0  0  0
  6  7  2  0  0  0
  7  8  1  0  0  0
  8  9  2  0  0  0
  9 10  1  0  0  0
 10 23  1  0  0  0
 23 24  1  0  0  0
 24 25  1  0  0  0
 25 26  1  0  0  0
 26 27  1  0  0  0
 26 30  1  0  0  0
 27 28  1  0  0  0
 28 29  1  0  0  0
 29 30  1  0  0  0
M  END
> <minimizedAffinity>
-7.96941

$$$$
