CHEMBL69068


 32 35  0  0  0  0  0  0  0  0999 V2000
  -15.0220    2.8826  -16.5773 N   0  0  0  0  0  0  0  0  0  0  0  0
  -16.3967    2.9810  -16.5716 C   0  0  0  0  0  0  0  0  0  0  0  0
  -16.9060    2.2993  -15.4808 C   0  0  0  0  0  0  0  0  0  0  0  0
  -15.7803    1.8010  -14.7450 C   0  0  0  0  0  0  0  0  0  0  0  0
  -15.5604    1.0372  -13.5805 C   0  0  0  0  0  0  0  0  0  0  0  0
  -16.5545    0.4588  -12.8003 N   0  0  0  0  0  0  0  0  0  0  0  0
  -14.2990    0.8050  -13.1751 N   0  0  0  0  0  0  0  0  0  0  0  0
  -13.2933    1.3038  -13.9009 C   0  0  0  0  0  0  0  0  0  0  0  0
  -13.3692    2.0089  -15.0343 N   0  0  0  0  0  0  0  0  0  0  0  0
  -14.6378    2.2240  -15.4257 C   0  0  0  0  0  0  0  0  0  0  0  0
  -17.3552    0.1425  -13.3325 H   0  0  0  0  0  0  0  0  0  0  0  0
  -16.1468   -0.2272  -12.1756 H   0  0  0  0  0  0  0  0  0  0  0  0
  -18.3419    2.1798  -15.2517 C   0  0  0  0  0  0  0  0  0  0  0  0
  -18.9614    0.9226  -15.2636 C   0  0  0  0  0  0  0  0  0  0  0  0
  -20.3194    0.7927  -14.9673 C   0  0  0  0  0  0  0  0  0  0  0  0
  -21.0540    1.9062  -14.5589 C   0  0  0  0  0  0  0  0  0  0  0  0
  -20.4694    3.1690  -14.6172 C   0  0  0  0  0  0  0  0  0  0  0  0
  -19.1311    3.3059  -14.9960 C   0  0  0  0  0  0  0  0  0  0  0  0
  -22.3600    1.8669  -14.1283 O   0  0  0  0  0  0  0  0  0  0  0  0
  -22.8868    0.6841  -13.6613 C   0  0  0  0  0  0  0  0  0  0  0  0
  -23.8214   -0.0934  -14.3482 C   0  0  0  0  0  0  0  0  0  0  0  0
  -24.3627   -1.2304  -13.7446 C   0  0  0  0  0  0  0  0  0  0  0  0
  -23.8958   -1.6691  -12.5034 C   0  0  0  0  0  0  0  0  0  0  0  0
  -24.5465   -2.7143  -11.8392 N   0  0  0  0  0  0  0  0  0  0  0  0
  -22.9324   -0.9045  -11.8402 C   0  0  0  0  0  0  0  0  0  0  0  0
  -22.4145    0.2552  -12.4226 C   0  0  0  0  0  0  0  0  0  0  0  0
  -25.0029   -3.3760  -12.4577 H   0  0  0  0  0  0  0  0  0  0  0  0
  -23.9750   -3.1703  -11.1357 H   0  0  0  0  0  0  0  0  0  0  0  0
  -15.0044    4.3429  -18.5496 C   0  0  0  0  0  0  0  0  0  0  0  0
  -14.1469    3.4650  -17.6226 C   0  0  0  0  0  0  0  0  0  0  0  0
  -13.4762    2.3549  -18.4734 C   0  0  0  0  0  0  0  0  0  0  0  0
  -12.9870    4.3101  -17.0522 C   0  0  0  0  0  0  0  0  0  0  0  0
 29 30  1  0  0  0
 30 31  1  0  0  0
 30 32  1  0  0  0
 30  1  1  0  0  0
  1  2  1  0  0  0
  1 10  1  0  0  0
  2  3  2  0  0  0
  3 13  1  0  0  0
  3  4  1  0  0  0
 13 14  1  0  0  0
 13 18  2  0  0  0
 14 15  2  0  0  0
 15 16  1  0  0  0
 16 19  1  0  0  0
 16 17  2  0  0  0
 19 20  1  0  0  0
 20 21  1  0  0  0
 20 26  2  0  0  0
 21 22  2  0  0  0
 22 23  1  0  0  0
 23 24  1  0  0  0
 23 25  2  0  0  0
 24 27  1  0  0  0
 24 28  1  0  0  0
 25 26  1  0  0  0
 17 18  1  0  0  0
  4  5  1  0  0  0
  4 10  2  0  0  0
  5  6  1  0  0  0
  5  7  2  0  0  0
  6 11  1  0  0  0
  6 12  1  0  0  0
  7  8  1  0  0  0
  8  9  2  0  0  0
  9 10  1  0  0  0
M  END
> <minimizedAffinity>
-9.45018

$$$$
