CHEMBL195828


 36 39  0  0  0  0  0  0  0  0999 V2000
  -28.2119   -2.2728   -8.2404 C   0  0  0  0  0  0  0  0  0  0  0  0
  -27.8580   -2.2014   -6.8932 C   0  0  0  0  0  0  0  0  0  0  0  0
  -28.2375   -3.1845   -5.9848 C   0  0  0  0  0  0  0  0  0  0  0  0
  -29.1248   -4.1963   -6.3450 C   0  0  0  0  0  0  0  0  0  0  0  0
  -29.6083   -4.1802   -7.6623 C   0  0  0  0  0  0  0  0  0  0  0  0
  -29.1205   -3.2609   -8.6174 C   0  0  0  0  0  0  0  0  0  0  0  0
  -29.4752   -5.2474   -5.3690 C   0  0  0  0  0  0  0  0  0  0  0  0
  -30.0884   -4.9391   -4.1479 C   0  0  0  0  0  0  0  0  0  0  0  0
  -30.5828   -3.6500   -3.5558 C   0  0  0  0  0  0  0  0  0  0  0  0
  -30.2692   -6.3203   -3.1510 S   0  0  0  0  0  0  0  0  0  0  0  0
  -29.5889   -7.3415   -4.3122 C   0  0  0  0  0  0  0  0  0  0  0  0
  -29.4791   -8.6507   -4.0339 N   0  0  0  0  0  0  0  0  0  0  0  0
  -28.9269   -9.3377   -5.0273 C   0  0  0  0  0  0  0  0  0  0  0  0
  -28.4920   -8.8564   -6.1962 N   0  0  0  0  0  0  0  0  0  0  0  0
  -28.6001   -7.5353   -6.4360 C   0  0  0  0  0  0  0  0  0  0  0  0
  -28.0770   -7.1388   -7.6620 N   0  0  0  0  0  0  0  0  0  0  0  0
  -29.1895   -6.6864   -5.4694 C   0  0  0  0  0  0  0  0  0  0  0  0
  -27.5624   -7.9149   -8.0660 H   0  0  0  0  0  0  0  0  0  0  0  0
  -27.5586   -6.2704   -7.6120 H   0  0  0  0  0  0  0  0  0  0  0  0
  -26.1523   -0.7359  -10.8489 N   0  0  0  0  0  0  0  0  0  0  0  0
  -26.6809   -1.7793  -10.1075 C   0  0  0  0  0  0  0  0  0  0  0  0
  -26.2976   -2.9393  -10.2128 O   0  0  0  0  0  0  0  0  0  0  0  0
  -27.6624   -1.3869   -9.2082 N   0  0  0  0  0  0  0  0  0  0  0  0
  -26.3521    0.2023  -10.5342 H   0  0  0  0  0  0  0  0  0  0  0  0
  -28.1874   -0.5520   -9.4264 H   0  0  0  0  0  0  0  0  0  0  0  0
  -23.2409    0.0854  -13.0228 C   0  0  0  0  0  0  0  0  0  0  0  0
  -22.7671   -1.1895  -13.3579 C   0  0  0  0  0  0  0  0  0  0  0  0
  -23.4544   -2.3130  -12.9312 C   0  0  0  0  0  0  0  0  0  0  0  0
  -24.5997   -2.1646  -12.1556 C   0  0  0  0  0  0  0  0  0  0  0  0
  -25.0622   -0.9033  -11.7519 C   0  0  0  0  0  0  0  0  0  0  0  0
  -24.3961    0.2349  -12.2272 C   0  0  0  0  0  0  0  0  0  0  0  0
  -22.5735    1.3082  -13.5432 C   0  0  0  0  0  0  0  0  0  0  0  0
  -23.1571    2.3463  -13.8058 O   0  0  0  0  0  0  0  0  0  0  0  0
  -21.2619    1.0408  -13.7563 O   0  0  0  0  0  0  0  0  0  0  0  0
  -19.2756    1.0341  -15.0818 C   0  0  0  0  0  0  0  0  0  0  0  0
  -20.6937    1.5611  -14.9628 C   0  0  0  0  0  0  0  0  0  0  0  0
 35 36  1  0  0  0
 36 34  1  0  0  0
 34 32  1  0  0  0
 32 33  2  0  0  0
 32 26  1  0  0  0
 26 27  1  0  0  0
 26 31  2  0  0  0
 27 28  2  0  0  0
 28 29  1  0  0  0
 29 30  2  0  0  0
 30 20  1  0  0  0
 30 31  1  0  0  0
 20 21  1  0  0  0
 20 24  1  0  0  0
 21 22  2  0  0  0
 21 23  1  0  0  0
 23  1  1  0  0  0
 23 25  1  0  0  0
  1  2  1  0  0  0
  1  6  2  0  0  0
  2  3  2  0  0  0
  3  4  1  0  0  0
  4  7  1  0  0  0
  4  5  2  0  0  0
  7  8  2  0  0  0
  7 17  1  0  0  0
  8  9  1  0  0  0
  8 10  1  0  0  0
 10 11  1  0  0  0
 11 12  1  0  0  0
 11 17  2  0  0  0
 12 13  2  0  0  0
 13 14  1  0  0  0
 14 15  2  0  0  0
 15 16  1  0  0  0
 15 17  1  0  0  0
 16 18  1  0  0  0
 16 19  1  0  0  0
  5  6  1  0  0  0
M  END
> <minimizedAffinity>
-9.19469

$$$$
