CHEMBL220988


 26 28  0  0  0  0  0  0  0  0999 V2000
  -30.2135   -6.0293   -6.7929 O   0  0  0  0  0  0  0  0  0  0  0  0
  -28.7788    1.0169   -5.1404 C   0  0  0  0  0  0  0  0  0  0  0  0
  -28.8340   -0.4213   -5.4998 C   0  0  0  0  0  0  0  0  0  0  0  0
  -29.5009   -1.4794   -4.9148 C   0  0  0  0  0  0  0  0  0  0  0  0
  -29.3501   -2.6157   -5.7598 C   0  0  0  0  0  0  0  0  0  0  0  0
  -29.8632   -3.9286   -5.7554 C   0  0  0  0  0  0  0  0  0  0  0  0
  -30.6695   -4.3280   -4.7583 F   0  0  0  0  0  0  0  0  0  0  0  0
  -29.5757   -4.8031   -6.8123 C   0  0  0  0  0  0  0  0  0  0  0  0
  -28.7729   -4.3652   -7.8708 C   0  0  0  0  0  0  0  0  0  0  0  0
  -28.2050   -3.0846   -7.8750 C   0  0  0  0  0  0  0  0  0  0  0  0
  -28.5286   -2.2271   -6.8183 C   0  0  0  0  0  0  0  0  0  0  0  0
  -28.1779   -0.9138   -6.6013 N   0  0  0  0  0  0  0  0  0  0  0  0
  -27.5879   -0.3707   -7.2171 H   0  0  0  0  0  0  0  0  0  0  0  0
  -29.4664   -7.1841   -6.9935 C   0  0  0  0  0  0  0  0  0  0  0  0
  -29.3196   -7.6398   -8.2562 N   0  0  0  0  0  0  0  0  0  0  0  0
  -28.5889   -8.7483   -8.3974 C   0  0  0  0  0  0  0  0  0  0  0  0
  -27.9966   -9.4273   -7.4085 N   0  0  0  0  0  0  0  0  0  0  0  0
  -28.1285   -8.9265   -6.1692 C   0  0  0  0  0  0  0  0  0  0  0  0
  -27.5821   -9.7250   -5.1660 N   0  0  0  0  0  0  0  0  0  0  0  0
  -28.8566   -7.7770   -5.9020 C   0  0  0  0  0  0  0  0  0  0  0  0
  -27.0009  -10.4448   -5.5807 H   0  0  0  0  0  0  0  0  0  0  0  0
  -27.1189   -9.1666   -4.4496 H   0  0  0  0  0  0  0  0  0  0  0  0
  -28.9529   -7.1914   -4.5537 C   0  0  0  0  0  0  0  0  0  0  0  0
  -29.3429   -7.8930   -3.5297 N   0  0  0  0  0  0  0  0  0  0  0  0
  -29.3191   -7.0885   -2.3855 O   0  0  0  0  0  0  0  0  0  0  0  0
  -29.6079   -7.7023   -1.6836 H   0  0  0  0  0  0  0  0  0  0  0  0
  2  3  1  0  0  0
  3  4  2  0  0  0
  3 12  1  0  0  0
  4  5  1  0  0  0
  5  6  1  0  0  0
  5 11  2  0  0  0
  6  7  1  0  0  0
  6  8  2  0  0  0
  8  1  1  0  0  0
  8  9  1  0  0  0
  1 14  1  0  0  0
 14 15  1  0  0  0
 14 20  2  0  0  0
 15 16  2  0  0  0
 16 17  1  0  0  0
 17 18  2  0  0  0
 18 19  1  0  0  0
 18 20  1  0  0  0
 19 21  1  0  0  0
 19 22  1  0  0  0
 20 23  1  0  0  0
 23 24  2  0  0  0
 24 25  1  0  0  0
 25 26  1  0  0  0
  9 10  2  0  0  0
 10 11  1  0  0  0
 11 12  1  0  0  0
 12 13  1  0  0  0
M  END
> <minimizedAffinity>
-8.12428

$$$$
