CHEMBL392331


 29 31  0  0  0  0  0  0  0  0999 V2000
  -29.3206   -4.1118   -7.3032 C   0  0  0  0  0  0  0  0  0  0  0  0
  -30.3543   -4.2049   -7.9372 O   0  0  0  0  0  0  0  0  0  0  0  0
  -28.6049   -5.1931   -6.8012 N   0  0  0  0  0  0  0  0  0  0  0  0
  -27.8830   -5.0108   -6.1219 H   0  0  0  0  0  0  0  0  0  0  0  0
  -27.9412    0.2553   -5.0825 C   0  0  0  0  0  0  0  0  0  0  0  0
  -28.1580   -0.8959   -6.0013 C   0  0  0  0  0  0  0  0  0  0  0  0
  -28.9569   -2.0412   -5.7966 C   0  0  0  0  0  0  0  0  0  0  0  0
  -28.8041   -2.8045   -6.9348 C   0  0  0  0  0  0  0  0  0  0  0  0
  -27.9580   -2.0919   -7.7429 N   0  0  0  0  0  0  0  0  0  0  0  0
  -27.5533   -0.9222   -7.1900 N   0  0  0  0  0  0  0  0  0  0  0  0
  -27.4419   -2.4747   -9.0570 C   0  0  0  0  0  0  0  0  0  0  0  0
  -27.8355   -1.5530  -10.2157 C   0  0  0  0  0  0  0  0  0  0  0  0
  -26.8325   -1.5475  -11.3517 C   0  0  0  0  0  0  0  0  0  0  0  0
  -25.4812   -1.3374  -11.0826 C   0  0  0  0  0  0  0  0  0  0  0  0
  -24.5702   -1.3408  -12.1306 C   0  0  0  0  0  0  0  0  0  0  0  0
  -24.9138   -1.5364  -13.4230 N   0  0  0  0  0  0  0  0  0  0  0  0
  -26.2220   -1.7379  -13.6696 C   0  0  0  0  0  0  0  0  0  0  0  0
  -27.2106   -1.7528  -12.6874 C   0  0  0  0  0  0  0  0  0  0  0  0
  -28.9824   -6.5370   -7.0134 C   0  0  0  0  0  0  0  0  0  0  0  0
  -28.6591   -7.2217   -8.1866 C   0  0  0  0  0  0  0  0  0  0  0  0
  -29.0862   -8.5232   -8.4016 C   0  0  0  0  0  0  0  0  0  0  0  0
  -29.8295   -9.1936   -7.4405 C   0  0  0  0  0  0  0  0  0  0  0  0
  -30.1495   -8.5213   -6.2525 C   0  0  0  0  0  0  0  0  0  0  0  0
  -29.7122   -7.2085   -6.0331 C   0  0  0  0  0  0  0  0  0  0  0  0
  -30.3219  -10.4564   -7.5468 O   0  0  0  0  0  0  0  0  0  0  0  0
  -31.6738  -10.5974   -7.9765 C   0  0  0  0  0  0  0  0  0  0  0  0
  -32.1689   -9.5254   -8.6226 F   0  0  0  0  0  0  0  0  0  0  0  0
  -31.7566  -11.6414   -8.8347 F   0  0  0  0  0  0  0  0  0  0  0  0
  -32.4604  -10.8616   -6.9124 F   0  0  0  0  0  0  0  0  0  0  0  0
  5  6  1  0  0  0
  6  7  1  0  0  0
  6 10  2  0  0  0
  7  8  2  0  0  0
  8  1  1  0  0  0
  8  9  1  0  0  0
  1  2  2  0  0  0
  1  3  1  0  0  0
  3 19  1  0  0  0
  3  4  1  0  0  0
 19 20  1  0  0  0
 19 24  2  0  0  0
 20 21  2  0  0  0
 21 22  1  0  0  0
 22 25  1  0  0  0
 22 23  2  0  0  0
 25 26  1  0  0  0
 26 27  1  0  0  0
 26 28  1  0  0  0
 26 29  1  0  0  0
 23 24  1  0  0  0
  9 11  1  0  0  0
  9 10  1  0  0  0
 11 12  1  0  0  0
 12 13  1  0  0  0
 13 14  1  0  0  0
 13 18  2  0  0  0
 14 15  2  0  0  0
 15 16  1  0  0  0
 16 17  2  0  0  0
 17 18  1  0  0  0
M  END
> <minimizedAffinity>
-8.45771

$$$$
