CHEMBL3671535


 35 37  0  0  0  0  0  0  0  0999 V2000
  -14.1216   -2.7997  -12.6736 C   0  0  0  0  0  0  0  0  0  0  0  0
  -14.4737   -1.6103  -13.3141 C   0  0  0  0  0  0  0  0  0  0  0  0
  -13.9661   -1.3148  -14.5972 C   0  0  0  0  0  0  0  0  0  0  0  0
  -14.1234   -0.0850  -15.2532 C   0  0  0  0  0  0  0  0  0  0  0  0
  -13.6024    0.1407  -16.4725 N   0  0  0  0  0  0  0  0  0  0  0  0
  -12.8989   -0.8486  -17.0251 C   0  0  0  0  0  0  0  0  0  0  0  0
  -12.6447   -2.0368  -16.4695 N   0  0  0  0  0  0  0  0  0  0  0  0
  -13.1674   -2.2581  -15.2603 C   0  0  0  0  0  0  0  0  0  0  0  0
  -12.8788   -3.4605  -14.6235 C   0  0  0  0  0  0  0  0  0  0  0  0
  -13.3591   -3.7612  -13.3457 C   0  0  0  0  0  0  0  0  0  0  0  0
  -15.4246   -3.6720  -10.7994 C   0  0  0  0  0  0  0  0  0  0  0  0
  -15.4281   -4.0238   -9.6239 O   0  0  0  0  0  0  0  0  0  0  0  0
  -14.3912   -2.9120  -11.2978 N   0  0  0  0  0  0  0  0  0  0  0  0
  -13.5865   -3.0089  -10.6864 H   0  0  0  0  0  0  0  0  0  0  0  0
  -16.7029   -5.3883  -11.9719 C   0  0  0  0  0  0  0  0  0  0  0  0
  -16.4884   -4.0857  -11.7537 C   0  0  0  0  0  0  0  0  0  0  0  0
  -14.7724    0.9969  -14.5938 N   0  0  0  0  0  0  0  0  0  0  0  0
  -14.6034    0.9630  -13.5902 H   0  0  0  0  0  0  0  0  0  0  0  0
  -16.0887    1.4196  -14.8958 C   0  0  0  0  0  0  0  0  0  0  0  0
  -17.1928    0.6225  -14.5606 C   0  0  0  0  0  0  0  0  0  0  0  0
  -18.4963    1.0888  -14.7466 C   0  0  0  0  0  0  0  0  0  0  0  0
  -18.7036    2.3535  -15.2917 C   0  0  0  0  0  0  0  0  0  0  0  0
  -20.4619    3.0251  -15.4468 Br  0  0  0  0  0  0  0  0  0  0  0  0
  -17.6225    3.1283  -15.6961 C   0  0  0  0  0  0  0  0  0  0  0  0
  -16.3257    2.6551  -15.5064 C   0  0  0  0  0  0  0  0  0  0  0  0
  -15.2874    3.4182  -15.8796 F   0  0  0  0  0  0  0  0  0  0  0  0
  -12.9666   -4.9813  -12.8545 O   0  0  0  0  0  0  0  0  0  0  0  0
  -11.5506   -5.1864  -12.7785 C   0  0  0  0  0  0  0  0  0  0  0  0
  -10.9667   -4.4553  -11.5703 C   0  0  0  0  0  0  0  0  0  0  0  0
  -11.5581   -4.9093  -10.3255 N   0  0  0  0  0  0  0  0  0  0  0  0
  -11.9299   -4.0384   -9.3438 C   0  0  0  0  0  0  0  0  0  0  0  0
  -11.8779   -2.8204   -9.4330 O   0  0  0  0  0  0  0  0  0  0  0  0
  -11.5673   -5.8906  -10.0811 H   0  0  0  0  0  0  0  0  0  0  0  0
  -12.3414   -4.7294   -8.2533 O   0  0  0  0  0  0  0  0  0  0  0  0
  -11.3159   -4.9261   -7.2779 C   0  0  0  0  0  0  0  0  0  0  0  0
 15 16  2  0  0  0
 16 11  1  0  0  0
 11 12  2  0  0  0
 11 13  1  0  0  0
 13  1  1  0  0  0
 13 14  1  0  0  0
  1  2  1  0  0  0
  1 10  2  0  0  0
  2  3  2  0  0  0
  3  4  1  0  0  0
  3  8  1  0  0  0
  4 17  1  0  0  0
  4  5  2  0  0  0
 17 19  1  0  0  0
 17 18  1  0  0  0
 19 20  1  0  0  0
 19 25  2  0  0  0
 20 21  2  0  0  0
 21 22  1  0  0  0
 22 23  1  0  0  0
 22 24  2  0  0  0
 24 25  1  0  0  0
 25 26  1  0  0  0
  5  6  1  0  0  0
  6  7  2  0  0  0
  7  8  1  0  0  0
  8  9  2  0  0  0
  9 10  1  0  0  0
 10 27  1  0  0  0
 27 28  1  0  0  0
 28 29  1  0  0  0
 29 30  1  0  0  0
 30 31  1  0  0  0
 30 33  1  0  0  0
 31 32  2  0  0  0
 31 34  1  0  0  0
 34 35  1  0  0  0
M  END
> <minimizedAffinity>
-7.25750

$$$$
