CHEMBL2032015


 42 47  0  0  0  0  0  0  0  0999 V2000
  -14.8799    1.0990  -14.9541 N   0  0  0  0  0  0  0  0  0  0  0  0
  -13.6804    1.7857  -14.9659 C   0  0  0  0  0  0  0  0  0  0  0  0
  -12.7614    1.6230  -14.1658 O   0  0  0  0  0  0  0  0  0  0  0  0
  -15.5772    1.3178  -15.6564 H   0  0  0  0  0  0  0  0  0  0  0  0
  -13.4768    2.7551  -16.0633 C   0  0  0  0  0  0  0  0  0  0  0  0
  -13.3273    2.4559  -17.3687 C   0  0  0  0  0  0  0  0  0  0  0  0
  -13.3935    3.5713  -18.2091 N   0  0  0  0  0  0  0  0  0  0  0  0
  -12.6703    3.6711  -19.4776 C   0  0  0  0  0  0  0  0  0  0  0  0
  -13.3440    4.6842  -17.3466 N   0  0  0  0  0  0  0  0  0  0  0  0
  -13.4419    4.2382  -16.0180 C   0  0  0  0  0  0  0  0  0  0  0  0
  -13.5053    4.8820  -14.9804 O   0  0  0  0  0  0  0  0  0  0  0  0
  -13.0078    1.1205  -17.8849 C   0  0  0  0  0  0  0  0  0  0  0  0
  -13.9750    0.2961  -18.4426 C   0  0  0  0  0  0  0  0  0  0  0  0
  -13.5849   -0.9524  -18.9191 C   0  0  0  0  0  0  0  0  0  0  0  0
  -12.2504   -1.3348  -18.8256 C   0  0  0  0  0  0  0  0  0  0  0  0
  -11.3512   -0.4460  -18.2617 C   0  0  0  0  0  0  0  0  0  0  0  0
  -11.6941    0.7766  -17.8021 N   0  0  0  0  0  0  0  0  0  0  0  0
  -13.5564    6.0006  -17.7962 C   0  0  0  0  0  0  0  0  0  0  0  0
  -12.5491    6.9548  -17.6190 C   0  0  0  0  0  0  0  0  0  0  0  0
  -12.7059    8.2489  -18.1236 C   0  0  0  0  0  0  0  0  0  0  0  0
  -13.8886    8.6106  -18.7668 C   0  0  0  0  0  0  0  0  0  0  0  0
  -14.9058    7.6711  -18.9303 C   0  0  0  0  0  0  0  0  0  0  0  0
  -14.7319    6.3634  -18.4664 C   0  0  0  0  0  0  0  0  0  0  0  0
  -15.7849   -1.9652  -12.2269 C   0  0  0  0  0  0  0  0  0  0  0  0
  -15.1611   -2.2718  -13.4365 C   0  0  0  0  0  0  0  0  0  0  0  0
  -14.8434   -1.2495  -14.3491 C   0  0  0  0  0  0  0  0  0  0  0  0
  -15.1645    0.0664  -14.0313 C   0  0  0  0  0  0  0  0  0  0  0  0
  -15.7281    0.3673  -12.8473 N   0  0  0  0  0  0  0  0  0  0  0  0
  -16.0047   -0.6249  -11.9678 C   0  0  0  0  0  0  0  0  0  0  0  0
  -16.1474   -3.0181  -11.4159 O   0  0  0  0  0  0  0  0  0  0  0  0
  -14.3342   -7.7621  -12.3931 C   0  0  0  0  0  0  0  0  0  0  0  0
  -15.2841   -6.9942  -13.0484 C   0  0  0  0  0  0  0  0  0  0  0  0
  -15.5197   -5.6906  -12.6320 C   0  0  0  0  0  0  0  0  0  0  0  0
  -14.8903   -5.1568  -11.4869 C   0  0  0  0  0  0  0  0  0  0  0  0
  -15.1903   -3.8922  -10.9293 C   0  0  0  0  0  0  0  0  0  0  0  0
  -14.4449   -3.4196   -9.8566 C   0  0  0  0  0  0  0  0  0  0  0  0
  -13.4662   -4.2369   -9.3293 C   0  0  0  0  0  0  0  0  0  0  0  0
  -13.2048   -5.4795   -9.7790 N   0  0  0  0  0  0  0  0  0  0  0  0
  -13.9102   -5.9340  -10.8312 C   0  0  0  0  0  0  0  0  0  0  0  0
  -13.6532   -7.2198  -11.2988 C   0  0  0  0  0  0  0  0  0  0  0  0
  -12.7432   -9.4918  -12.2634 C   0  0  0  0  0  0  0  0  0  0  0  0
  -14.0143   -9.0486  -12.7341 O   0  0  0  0  0  0  0  0  0  0  0  0
 41 42  1  0  0  0
 42 31  1  0  0  0
 31 32  1  0  0  0
 31 40  2  0  0  0
 32 33  2  0  0  0
 33 34  1  0  0  0
 34 35  1  0  0  0
 34 39  2  0  0  0
 35 30  1  0  0  0
 35 36  2  0  0  0
 30 24  1  0  0  0
 24 25  1  0  0  0
 24 29  2  0  0  0
 25 26  2  0  0  0
 26 27  1  0  0  0
 27  1  1  0  0  0
 27 28  2  0  0  0
  1  2  1  0  0  0
  1  4  1  0  0  0
  2  3  2  0  0  0
  2  5  1  0  0  0
  5  6  2  0  0  0
  5 10  1  0  0  0
  6 12  1  0  0  0
  6  7  1  0  0  0
 12 13  1  0  0  0
 12 17  2  0  0  0
 13 14  2  0  0  0
 14 15  1  0  0  0
 15 16  2  0  0  0
 16 17  1  0  0  0
  7  8  1  0  0  0
  7  9  1  0  0  0
  9 18  1  0  0  0
  9 10  1  0  0  0
 18 19  1  0  0  0
 18 23  2  0  0  0
 19 20  2  0  0  0
 20 21  1  0  0  0
 21 22  2  0  0  0
 22 23  1  0  0  0
 10 11  2  0  0  0
 28 29  1  0  0  0
 36 37  1  0  0  0
 37 38  2  0  0  0
 38 39  1  0  0  0
 39 40  1  0  0  0
M  END
> <minimizedAffinity>
-7.97415

$$$$
