CHEMBL3901236


 41 44  0  0  0  0  0  0  0  0999 V2000
  -16.4038    1.3706  -15.3153 C   0  0  0  0  0  0  0  0  0  0  0  0
  -17.5401    0.6007  -15.0414 C   0  0  0  0  0  0  0  0  0  0  0  0
  -18.8133    1.1767  -15.0849 C   0  0  0  0  0  0  0  0  0  0  0  0
  -18.9727    2.5328  -15.4002 C   0  0  0  0  0  0  0  0  0  0  0  0
  -17.8377    3.2996  -15.6805 C   0  0  0  0  0  0  0  0  0  0  0  0
  -16.5681    2.7223  -15.6419 C   0  0  0  0  0  0  0  0  0  0  0  0
  -12.2837   -1.5161  -14.6329 C   0  0  0  0  0  0  0  0  0  0  0  0
  -11.0129   -1.2773  -15.0284 N   0  0  0  0  0  0  0  0  0  0  0  0
  -10.7460   -0.1104  -15.6551 C   0  0  0  0  0  0  0  0  0  0  0  0
  -11.5948    0.8903  -15.9596 N   0  0  0  0  0  0  0  0  0  0  0  0
  -12.8352    0.6095  -15.5380 C   0  0  0  0  0  0  0  0  0  0  0  0
  -13.9286    1.4049  -15.7304 N   0  0  0  0  0  0  0  0  0  0  0  0
  -15.0614    0.8087  -15.2114 C   0  0  0  0  0  0  0  0  0  0  0  0
  -14.6404   -0.3862  -14.6441 C   0  0  0  0  0  0  0  0  0  0  0  0
  -13.2472   -0.5261  -14.8695 C   0  0  0  0  0  0  0  0  0  0  0  0
  -13.8960    2.2953  -16.2081 H   0  0  0  0  0  0  0  0  0  0  0  0
  -12.6592   -2.7219  -14.0469 N   0  0  0  0  0  0  0  0  0  0  0  0
  -13.3843   -3.1359  -14.6320 H   0  0  0  0  0  0  0  0  0  0  0  0
  -12.0502   -3.2910  -11.7129 C   0  0  0  0  0  0  0  0  0  0  0  0
  -13.0987   -2.6827  -12.6504 C   0  0  0  0  0  0  0  0  0  0  0  0
  -14.3907   -3.4907  -12.5730 C   0  0  0  0  0  0  0  0  0  0  0  0
  -14.6652   -4.4902  -13.5166 C   0  0  0  0  0  0  0  0  0  0  0  0
  -15.8028   -5.2906  -13.3879 C   0  0  0  0  0  0  0  0  0  0  0  0
  -16.6806   -5.0981  -12.3215 C   0  0  0  0  0  0  0  0  0  0  0  0
  -16.4419   -4.0839  -11.3984 C   0  0  0  0  0  0  0  0  0  0  0  0
  -15.3089   -3.2817  -11.5270 C   0  0  0  0  0  0  0  0  0  0  0  0
  -20.3426    3.1627  -15.4558 C   0  0  0  0  0  0  0  0  0  0  0  0
  -20.9391    3.2451  -14.1252 N   0  0  0  0  0  0  0  0  0  0  0  0
  -21.1179    4.2249  -13.9055 H   0  0  0  0  0  0  0  0  0  0  0  0
  -22.1871    2.4904  -14.0699 C   0  0  0  0  0  0  0  0  0  0  0  0
  -21.8606    1.0038  -13.9517 C   0  0  0  0  0  0  0  0  0  0  0  0
  -23.0799    0.2181  -13.4811 C   0  0  0  0  0  0  0  0  0  0  0  0
  -22.8280   -0.4357  -12.1229 C   0  0  0  0  0  0  0  0  0  0  0  0
  -23.8389   -1.5507  -11.8789 C   0  0  0  0  0  0  0  0  0  0  0  0
  -25.2488   -1.0075  -11.6766 C   0  0  0  0  0  0  0  0  0  0  0  0
  -26.2073   -1.5828  -12.6990 C   0  0  0  0  0  0  0  0  0  0  0  0
  -25.9934   -1.6333  -13.9092 O   0  0  0  0  0  0  0  0  0  0  0  0
  -27.3741   -2.0513  -12.1549 N   0  0  0  0  0  0  0  0  0  0  0  0
  -28.2948   -2.6262  -13.0589 O   0  0  0  0  0  0  0  0  0  0  0  0
  -27.5818   -2.1163  -11.1654 H   0  0  0  0  0  0  0  0  0  0  0  0
  -27.8381   -2.5175  -13.9200 H   0  0  0  0  0  0  0  0  0  0  0  0
 19 20  1  0  0  0
 20 17  1  0  0  0
 20 21  1  0  0  0
 17  7  1  0  0  0
 17 18  1  0  0  0
  7  8  1  0  0  0
  7 15  2  0  0  0
  8  9  2  0  0  0
  9 10  1  0  0  0
 10 11  2  0  0  0
 11 12  1  0  0  0
 11 15  1  0  0  0
 12 13  1  0  0  0
 12 16  1  0  0  0
 13  1  1  0  0  0
 13 14  2  0  0  0
  1  2  1  0  0  0
  1  6  2  0  0  0
  2  3  2  0  0  0
  3  4  1  0  0  0
  4 27  1  0  0  0
  4  5  2  0  0  0
 27 28  1  0  0  0
 28 30  1  0  0  0
 28 29  1  0  0  0
 30 31  1  0  0  0
 31 32  1  0  0  0
 32 33  1  0  0  0
 33 34  1  0  0  0
 34 35  1  0  0  0
 35 36  1  0  0  0
 36 37  2  0  0  0
 36 38  1  0  0  0
 38 39  1  0  0  0
 38 40  1  0  0  0
 39 41  1  0  0  0
  5  6  1  0  0  0
 14 15  1  0  0  0
 21 22  1  0  0  0
 21 26  2  0  0  0
 22 23  2  0  0  0
 23 24  1  0  0  0
 24 25  2  0  0  0
 25 26  1  0  0  0
M  END
> <minimizedAffinity>
-9.08144

$$$$
