CHEMBL4531912


 44 47  0  0  0  0  0  0  0  0999 V2000
  -29.9161   -7.4348   -5.9862 C   0  0  0  0  0  0  0  0  0  0  0  0
  -29.3752   -8.6530   -6.3889 C   0  0  0  0  0  0  0  0  0  0  0  0
  -28.1749   -9.1252   -5.8384 C   0  0  0  0  0  0  0  0  0  0  0  0
  -27.6209  -10.3769   -6.1301 C   0  0  0  0  0  0  0  0  0  0  0  0
  -26.5352  -10.8325   -5.4973 N   0  0  0  0  0  0  0  0  0  0  0  0
  -25.9718  -10.0192   -4.6006 C   0  0  0  0  0  0  0  0  0  0  0  0
  -26.3945   -8.7944   -4.2701 N   0  0  0  0  0  0  0  0  0  0  0  0
  -27.4944   -8.3553   -4.8893 C   0  0  0  0  0  0  0  0  0  0  0  0
  -27.9816   -7.0939   -4.5761 C   0  0  0  0  0  0  0  0  0  0  0  0
  -29.1731   -6.6014   -5.1220 C   0  0  0  0  0  0  0  0  0  0  0  0
  -28.2370  -11.2032   -7.1209 N   0  0  0  0  0  0  0  0  0  0  0  0
  -29.2125  -11.3613   -6.8695 H   0  0  0  0  0  0  0  0  0  0  0  0
  -28.1012  -10.9390   -8.5098 C   0  0  0  0  0  0  0  0  0  0  0  0
  -26.8298  -10.6333   -9.0219 C   0  0  0  0  0  0  0  0  0  0  0  0
  -26.6707  -10.2198  -10.3420 C   0  0  0  0  0  0  0  0  0  0  0  0
  -27.7852  -10.1405  -11.1659 C   0  0  0  0  0  0  0  0  0  0  0  0
  -27.6424   -9.6919  -12.4185 F   0  0  0  0  0  0  0  0  0  0  0  0
  -29.0454  -10.5162  -10.7122 C   0  0  0  0  0  0  0  0  0  0  0  0
  -29.1998  -10.9247   -9.3874 C   0  0  0  0  0  0  0  0  0  0  0  0
  -30.7748  -11.3734   -8.8361 Cl  0  0  0  0  0  0  0  0  0  0  0  0
  -31.9350   -8.0824   -7.0736 C   0  0  0  0  0  0  0  0  0  0  0  0
  -31.1431   -7.0581   -6.4664 O   0  0  0  0  0  0  0  0  0  0  0  0
  -29.4650   -5.3181   -4.6926 O   0  0  0  0  0  0  0  0  0  0  0  0
  -28.5474   -4.8213   -3.7372 C   0  0  0  0  0  0  0  0  0  0  0  0
  -28.5554   -3.3191   -3.5052 C   0  0  0  0  0  0  0  0  0  0  0  0
  -29.6646   -2.7317   -4.2080 O   0  0  0  0  0  0  0  0  0  0  0  0
  -29.3409   -1.6234   -5.0689 C   0  0  0  0  0  0  0  0  0  0  0  0
  -28.3194   -1.9929   -6.1413 C   0  0  0  0  0  0  0  0  0  0  0  0
  -29.0262   -2.7363   -7.1265 O   0  0  0  0  0  0  0  0  0  0  0  0
  -28.1943   -3.2472   -8.1534 C   0  0  0  0  0  0  0  0  0  0  0  0
  -27.6090   -2.0432   -8.8865 C   0  0  0  0  0  0  0  0  0  0  0  0
  -26.7684   -2.4217  -10.0038 N   0  0  0  0  0  0  0  0  0  0  0  0
  -26.8803   -1.7975  -11.2267 C   0  0  0  0  0  0  0  0  0  0  0  0
  -27.6818   -0.8931  -11.4458 O   0  0  0  0  0  0  0  0  0  0  0  0
  -26.0516   -3.1179   -9.8383 H   0  0  0  0  0  0  0  0  0  0  0  0
  -25.9571   -2.3175  -12.3001 C   0  0  0  0  0  0  0  0  0  0  0  0
  -24.7347   -1.5496  -12.3558 N   0  0  0  0  0  0  0  0  0  0  0  0
  -23.6319   -1.6596  -11.5615 C   0  0  0  0  0  0  0  0  0  0  0  0
  -22.7254   -0.7831  -11.9335 N   0  0  0  0  0  0  0  0  0  0  0  0
  -23.3421   -0.1433  -12.9828 C   0  0  0  0  0  0  0  0  0  0  0  0
  -24.5901   -0.5612  -13.2637 N   0  0  0  0  0  0  0  0  0  0  0  0
  -22.6904    0.8887  -13.7772 N   0  0  0  0  0  0  0  0  0  0  0  0
  -23.1225    2.0465  -13.6657 O   0  0  0  0  0  0  0  0  0  0  0  0
  -21.7433    0.5493  -14.5053 O   0  0  0  0  0  0  0  0  0  0  0  0
 21 22  1  0  0  0
 22  1  1  0  0  0
  1  2  1  0  0  0
  1 10  2  0  0  0
  2  3  2  0  0  0
  3  4  1  0  0  0
  3  8  1  0  0  0
  4 11  1  0  0  0
  4  5  2  0  0  0
 11 13  1  0  0  0
 11 12  1  0  0  0
 13 14  1  0  0  0
 13 19  2  0  0  0
 14 15  2  0  0  0
 15 16  1  0  0  0
 16 17  1  0  0  0
 16 18  2  0  0  0
 18 19  1  0  0  0
 19 20  1  0  0  0
  5  6  1  0  0  0
  6  7  2  0  0  0
  7  8  1  0  0  0
  8  9  2  0  0  0
  9 10  1  0  0  0
 10 23  1  0  0  0
 23 24  1  0  0  0
 24 25  1  0  0  0
 25 26  1  0  0  0
 26 27  1  0  0  0
 27 28  1  0  0  0
 28 29  1  0  0  0
 29 30  1  0  0  0
 30 31  1  0  0  0
 31 32  1  0  0  0
 32 33  1  0  0  0
 32 35  1  0  0  0
 33 34  2  0  0  0
 33 36  1  0  0  0
 36 37  1  0  0  0
 37 38  1  0  0  0
 37 41  1  0  0  0
 38 39  2  0  0  0
 39 40  1  0  0  0
 40 42  1  0  0  0
 40 41  2  0  0  0
 42 43  2  0  0  0
 42 44  1  0  0  0
M  CHG 1  42   1
M  CHG 1  44  -1
M  END
> <minimizedAffinity>
-8.11021

$$$$
