CHEMBL3690401


 36 40  0  0  0  0  0  0  0  0999 V2000
  -29.2102   -2.8892   -5.2052 C   0  0  0  0  0  0  0  0  0  0  0  0
  -28.9697   -1.6225   -4.6935 C   0  0  0  0  0  0  0  0  0  0  0  0
  -28.3562   -0.8024   -5.6008 N   0  0  0  0  0  0  0  0  0  0  0  0
  -28.2132   -1.5348   -6.6823 C   0  0  0  0  0  0  0  0  0  0  0  0
  -27.6594   -1.2051   -7.9523 C   0  0  0  0  0  0  0  0  0  0  0  0
  -27.6114   -2.1108   -8.9607 C   0  0  0  0  0  0  0  0  0  0  0  0
  -28.1534   -3.4531   -8.7234 C   0  0  0  0  0  0  0  0  0  0  0  0
  -28.7063   -3.7609   -7.5400 C   0  0  0  0  0  0  0  0  0  0  0  0
  -28.7250   -2.8175   -6.5102 N   0  0  0  0  0  0  0  0  0  0  0  0
  -29.7457   -6.2411   -3.5211 C   0  0  0  0  0  0  0  0  0  0  0  0
  -31.1005   -6.1574   -3.2031 C   0  0  0  0  0  0  0  0  0  0  0  0
  -31.8591   -5.0684   -3.6267 C   0  0  0  0  0  0  0  0  0  0  0  0
  -31.2612   -4.0380   -4.3464 C   0  0  0  0  0  0  0  0  0  0  0  0
  -29.8830   -4.0386   -4.5865 C   0  0  0  0  0  0  0  0  0  0  0  0
  -29.1426   -5.1718   -4.2028 C   0  0  0  0  0  0  0  0  0  0  0  0
  -28.0389   -7.9476   -5.2615 O   0  0  0  0  0  0  0  0  0  0  0  0
  -28.1641   -8.0981   -4.0548 C   0  0  0  0  0  0  0  0  0  0  0  0
  -27.4737   -9.0871   -3.3835 N   0  0  0  0  0  0  0  0  0  0  0  0
  -28.9389   -7.3530   -3.1945 N   0  0  0  0  0  0  0  0  0  0  0  0
  -27.9169   -9.4435   -2.5496 H   0  0  0  0  0  0  0  0  0  0  0  0
  -28.8698   -7.5850   -2.2157 H   0  0  0  0  0  0  0  0  0  0  0  0
  -26.7034  -10.0595   -4.1685 C   0  0  0  0  0  0  0  0  0  0  0  0
  -25.1807   -9.8661   -4.1277 C   0  0  0  0  0  0  0  0  0  0  0  0
  -24.8177   -8.9118   -3.2386 F   0  0  0  0  0  0  0  0  0  0  0  0
  -24.5238  -11.0017   -3.8188 F   0  0  0  0  0  0  0  0  0  0  0  0
  -24.7350   -9.4555   -5.3415 F   0  0  0  0  0  0  0  0  0  0  0  0
  -27.0841   -1.7782  -10.2518 C   0  0  0  0  0  0  0  0  0  0  0  0
  -27.7648   -1.5292  -11.4615 C   0  0  0  0  0  0  0  0  0  0  0  0
  -26.9369   -1.1996  -12.4565 N   0  0  0  0  0  0  0  0  0  0  0  0
  -25.7163   -1.2442  -11.8915 N   0  0  0  0  0  0  0  0  0  0  0  0
  -25.7548   -1.6239  -10.5741 C   0  0  0  0  0  0  0  0  0  0  0  0
  -24.5476   -0.8989  -12.6506 C   0  0  0  0  0  0  0  0  0  0  0  0
  -23.2690   -1.5853  -12.1251 C   0  0  0  0  0  0  0  0  0  0  0  0
  -22.5443   -0.3055  -12.2916 N   0  0  0  0  0  0  0  0  0  0  0  0
  -23.8404    0.4026  -12.2127 C   0  0  0  0  0  0  0  0  0  0  0  0
  -22.0906   -0.2153  -13.2029 H   0  0  0  0  0  0  0  0  0  0  0  0
 16 17  2  0  0  0
 17 18  1  0  0  0
 17 19  1  0  0  0
 18 22  1  0  0  0
 18 20  1  0  0  0
 22 23  1  0  0  0
 23 24  1  0  0  0
 23 25  1  0  0  0
 23 26  1  0  0  0
 19 10  1  0  0  0
 19 21  1  0  0  0
 10 11  1  0  0  0
 10 15  2  0  0  0
 11 12  2  0  0  0
 12 13  1  0  0  0
 13 14  2  0  0  0
 14  1  1  0  0  0
 14 15  1  0  0  0
  1  2  2  0  0  0
  1  9  1  0  0  0
  2  3  1  0  0  0
  3  4  2  0  0  0
  4  5  1  0  0  0
  4  9  1  0  0  0
  5  6  2  0  0  0
  6 27  1  0  0  0
  6  7  1  0  0  0
 27 28  1  0  0  0
 27 31  2  0  0  0
 28 29  2  0  0  0
 29 30  1  0  0  0
 30 32  1  0  0  0
 30 31  1  0  0  0
 32 33  1  0  0  0
 32 35  1  0  0  0
 33 34  1  0  0  0
 34 35  1  0  0  0
 34 36  1  0  0  0
  7  8  2  0  0  0
  8  9  1  0  0  0
M  END
> <minimizedAffinity>
-10.04275

$$$$
