CHEMBL4165199


 39 43  0  0  0  0  0  0  0  0999 V2000
  -28.0770   -1.2243  -10.6077 O   0  0  0  0  0  0  0  0  0  0  0  0
  -27.3338   -1.8342   -9.8409 C   0  0  0  0  0  0  0  0  0  0  0  0
  -25.9900   -2.1121  -10.0509 N   0  0  0  0  0  0  0  0  0  0  0  0
  -25.5405   -2.7861   -9.4366 H   0  0  0  0  0  0  0  0  0  0  0  0
  -27.9591   -2.3477   -8.5562 C   0  0  0  0  0  0  0  0  0  0  0  0
  -28.4260   -3.5674   -8.6072 N   0  0  0  0  0  0  0  0  0  0  0  0
  -29.0156   -4.1098   -7.5033 N   0  0  0  0  0  0  0  0  0  0  0  0
  -29.2641   -3.3582   -6.3715 C   0  0  0  0  0  0  0  0  0  0  0  0
  -28.8523   -2.1024   -6.1888 C   0  0  0  0  0  0  0  0  0  0  0  0
  -28.0674   -1.5335   -7.2931 C   0  0  0  0  0  0  0  0  0  0  0  0
  -27.5223   -0.4408   -7.2164 O   0  0  0  0  0  0  0  0  0  0  0  0
  -29.2643   -5.5164   -7.6120 C   0  0  0  0  0  0  0  0  0  0  0  0
  -30.4761   -6.0695   -7.1681 C   0  0  0  0  0  0  0  0  0  0  0  0
  -30.7502   -7.4343   -7.3083 C   0  0  0  0  0  0  0  0  0  0  0  0
  -29.8276   -8.2850   -7.9252 C   0  0  0  0  0  0  0  0  0  0  0  0
  -30.2775   -9.9441   -8.0573 Cl  0  0  0  0  0  0  0  0  0  0  0  0
  -28.6216   -7.7728   -8.4030 C   0  0  0  0  0  0  0  0  0  0  0  0
  -28.3499   -6.3935   -8.2171 C   0  0  0  0  0  0  0  0  0  0  0  0
  -27.5835   -8.5723   -9.1458 C   0  0  0  0  0  0  0  0  0  0  0  0
  -28.0048   -9.2726  -10.2292 F   0  0  0  0  0  0  0  0  0  0  0  0
  -26.5741   -7.7735   -9.6018 F   0  0  0  0  0  0  0  0  0  0  0  0
  -26.9748   -9.4844   -8.3323 F   0  0  0  0  0  0  0  0  0  0  0  0
  -25.2541   -1.6355  -11.1639 C   0  0  0  0  0  0  0  0  0  0  0  0
  -25.8250   -1.5385  -12.4335 C   0  0  0  0  0  0  0  0  0  0  0  0
  -25.0646   -1.1700  -13.5401 C   0  0  0  0  0  0  0  0  0  0  0  0
  -23.7354   -0.7879  -13.3831 C   0  0  0  0  0  0  0  0  0  0  0  0
  -23.1570   -0.8531  -12.1121 C   0  0  0  0  0  0  0  0  0  0  0  0
  -23.9165   -1.2658  -11.0026 C   0  0  0  0  0  0  0  0  0  0  0  0
  -22.9312   -0.3754  -14.4266 O   0  0  0  0  0  0  0  0  0  0  0  0
  -22.3232    0.8669  -14.3545 C   0  0  0  0  0  0  0  0  0  0  0  0
  -22.9774    2.0088  -13.8713 C   0  0  0  0  0  0  0  0  0  0  0  0
  -22.3177    3.2283  -13.8851 C   0  0  0  0  0  0  0  0  0  0  0  0
  -21.0400    3.4260  -14.2697 N   0  0  0  0  0  0  0  0  0  0  0  0
  -20.4251    2.2894  -14.6421 C   0  0  0  0  0  0  0  0  0  0  0  0
  -19.1130    2.2203  -15.0195 N   0  0  0  0  0  0  0  0  0  0  0  0
  -18.7844    0.9238  -15.3206 C   0  0  0  0  0  0  0  0  0  0  0  0
  -19.9187    0.1537  -15.1561 C   0  0  0  0  0  0  0  0  0  0  0  0
  -20.9678    1.0096  -14.7112 C   0  0  0  0  0  0  0  0  0  0  0  0
  -18.4986    3.0209  -15.0457 H   0  0  0  0  0  0  0  0  0  0  0  0
  1  2  2  0  0  0
  2  3  1  0  0  0
  2  5  1  0  0  0
  3 23  1  0  0  0
  3  4  1  0  0  0
 23 24  1  0  0  0
 23 28  2  0  0  0
 24 25  2  0  0  0
 25 26  1  0  0  0
 26 29  1  0  0  0
 26 27  2  0  0  0
 29 30  1  0  0  0
 30 31  1  0  0  0
 30 38  2  0  0  0
 31 32  2  0  0  0
 32 33  1  0  0  0
 33 34  2  0  0  0
 34 35  1  0  0  0
 34 38  1  0  0  0
 35 36  1  0  0  0
 35 39  1  0  0  0
 36 37  2  0  0  0
 37 38  1  0  0  0
 27 28  1  0  0  0
  5  6  2  0  0  0
  5 10  1  0  0  0
  6  7  1  0  0  0
  7 12  1  0  0  0
  7  8  1  0  0  0
 12 13  1  0  0  0
 12 18  2  0  0  0
 13 14  2  0  0  0
 14 15  1  0  0  0
 15 16  1  0  0  0
 15 17  2  0  0  0
 17 19  1  0  0  0
 17 18  1  0  0  0
 19 20  1  0  0  0
 19 21  1  0  0  0
 19 22  1  0  0  0
  8  9  2  0  0  0
  9 10  1  0  0  0
 10 11  2  0  0  0
M  END
> <minimizedAffinity>
-11.07687

$$$$
