CHEMBL183174


 34 37  0  0  0  0  0  0  0  0999 V2000
  -24.3305   -1.3926  -12.4960 C   0  0  0  0  0  0  0  0  0  0  0  0
  -23.2484   -0.9288  -11.7383 C   0  0  0  0  0  0  0  0  0  0  0  0
  -22.2871   -0.0795  -12.2926 C   0  0  0  0  0  0  0  0  0  0  0  0
  -22.3899    0.3782  -13.6104 C   0  0  0  0  0  0  0  0  0  0  0  0
  -23.4559   -0.1359  -14.3736 C   0  0  0  0  0  0  0  0  0  0  0  0
  -24.4227   -1.0203  -13.8400 C   0  0  0  0  0  0  0  0  0  0  0  0
  -21.4614    1.3918  -14.1717 C   0  0  0  0  0  0  0  0  0  0  0  0
  -21.7751    2.7712  -14.1302 C   0  0  0  0  0  0  0  0  0  0  0  0
  -20.8860    3.7700  -14.5831 C   0  0  0  0  0  0  0  0  0  0  0  0
  -19.6463    3.4247  -15.1057 C   0  0  0  0  0  0  0  0  0  0  0  0
  -19.3421    2.0798  -15.1588 C   0  0  0  0  0  0  0  0  0  0  0  0
  -20.2113    1.0727  -14.7138 C   0  0  0  0  0  0  0  0  0  0  0  0
  -19.5347   -0.2523  -14.8980 C   0  0  0  0  0  0  0  0  0  0  0  0
  -18.2500    0.1005  -15.4414 N   0  0  0  0  0  0  0  0  0  0  0  0
  -18.1083    1.4552  -15.6381 C   0  0  0  0  0  0  0  0  0  0  0  0
  -17.1498    2.0310  -16.1202 O   0  0  0  0  0  0  0  0  0  0  0  0
  -17.5382   -0.5506  -15.7468 H   0  0  0  0  0  0  0  0  0  0  0  0
  -26.7627   -2.7355  -10.1581 N   0  0  0  0  0  0  0  0  0  0  0  0
  -25.8534   -1.8123  -10.6532 C   0  0  0  0  0  0  0  0  0  0  0  0
  -25.5632   -0.7419  -10.1262 O   0  0  0  0  0  0  0  0  0  0  0  0
  -25.3112   -2.2094  -11.8704 N   0  0  0  0  0  0  0  0  0  0  0  0
  -26.9331   -3.5582  -10.7144 H   0  0  0  0  0  0  0  0  0  0  0  0
  -25.9876   -2.6586  -12.4762 H   0  0  0  0  0  0  0  0  0  0  0  0
  -28.1641    0.1714   -6.4116 C   0  0  0  0  0  0  0  0  0  0  0  0
  -28.1972   -1.1533   -7.1157 C   0  0  0  0  0  0  0  0  0  0  0  0
  -28.8962   -2.2248   -6.5514 C   0  0  0  0  0  0  0  0  0  0  0  0
  -28.9291   -3.4543   -7.1957 C   0  0  0  0  0  0  0  0  0  0  0  0
  -28.2481   -3.6277   -8.3962 C   0  0  0  0  0  0  0  0  0  0  0  0
  -27.5173   -2.5834   -8.9734 C   0  0  0  0  0  0  0  0  0  0  0  0
  -27.5175   -1.3361   -8.3368 C   0  0  0  0  0  0  0  0  0  0  0  0
  -25.5663   -1.4283  -14.7321 C   0  0  0  0  0  0  0  0  0  0  0  0
  -26.8062   -1.2147  -14.1874 F   0  0  0  0  0  0  0  0  0  0  0  0
  -25.5703   -0.7601  -15.9189 F   0  0  0  0  0  0  0  0  0  0  0  0
  -25.5342   -2.7495  -15.0451 F   0  0  0  0  0  0  0  0  0  0  0  0
 24 25  1  0  0  0
 25 26  1  0  0  0
 25 30  2  0  0  0
 26 27  2  0  0  0
 27 28  1  0  0  0
 28 29  2  0  0  0
 29 18  1  0  0  0
 29 30  1  0  0  0
 18 19  1  0  0  0
 18 22  1  0  0  0
 19 20  2  0  0  0
 19 21  1  0  0  0
 21  1  1  0  0  0
 21 23  1  0  0  0
  1  2  1  0  0  0
  1  6  2  0  0  0
  2  3  2  0  0  0
  3  4  1  0  0  0
  4  7  1  0  0  0
  4  5  2  0  0  0
  7  8  1  0  0  0
  7 12  2  0  0  0
  8  9  2  0  0  0
  9 10  1  0  0  0
 10 11  2  0  0  0
 11 12  1  0  0  0
 11 15  1  0  0  0
 12 13  1  0  0  0
 13 14  1  0  0  0
 14 15  1  0  0  0
 14 17  1  0  0  0
 15 16  2  0  0  0
  5  6  1  0  0  0
  6 31  1  0  0  0
 31 32  1  0  0  0
 31 33  1  0  0  0
 31 34  1  0  0  0
M  END
> <minimizedAffinity>
-10.76551

$$$$
