CHEMBL603463


 29 32  0  0  0  0  0  0  0  0999 V2000
  -28.1675   -2.0862   -8.9367 C   0  0  0  0  0  0  0  0  0  0  0  0
  -27.6682   -1.2036   -8.0603 N   0  0  0  0  0  0  0  0  0  0  0  0
  -27.6472   -1.5565   -6.7699 C   0  0  0  0  0  0  0  0  0  0  0  0
  -28.1139   -2.7623   -6.3100 C   0  0  0  0  0  0  0  0  0  0  0  0
  -28.6474   -3.6102   -7.2614 C   0  0  0  0  0  0  0  0  0  0  0  0
  -28.6610   -3.2866   -8.5812 N   0  0  0  0  0  0  0  0  0  0  0  0
  -29.2133   -4.9284   -6.8900 C   0  0  0  0  0  0  0  0  0  0  0  0
  -28.9433   -6.0478   -7.7033 C   0  0  0  0  0  0  0  0  0  0  0  0
  -29.4514   -7.3152   -7.4002 C   0  0  0  0  0  0  0  0  0  0  0  0
  -30.2930   -7.4858   -6.3083 C   0  0  0  0  0  0  0  0  0  0  0  0
  -30.6090   -6.3938   -5.5064 C   0  0  0  0  0  0  0  0  0  0  0  0
  -30.0344   -5.1367   -5.7530 C   0  0  0  0  0  0  0  0  0  0  0  0
  -30.3208   -4.1565   -4.7817 N   0  0  0  0  0  0  0  0  0  0  0  0
  -29.4711   -3.2002   -4.2971 C   0  0  0  0  0  0  0  0  0  0  0  0
  -29.8229   -2.4861   -3.3584 O   0  0  0  0  0  0  0  0  0  0  0  0
  -28.0770   -3.1251   -4.8684 C   0  0  0  0  0  0  0  0  0  0  0  0
  -31.1365   -4.2827   -4.1933 H   0  0  0  0  0  0  0  0  0  0  0  0
  -28.1483   -1.7711  -10.2997 N   0  0  0  0  0  0  0  0  0  0  0  0
  -28.7571   -0.9763  -10.4465 H   0  0  0  0  0  0  0  0  0  0  0  0
  -24.7937   -1.6336  -12.8913 C   0  0  0  0  0  0  0  0  0  0  0  0
  -26.0945   -1.5400  -13.3875 C   0  0  0  0  0  0  0  0  0  0  0  0
  -27.1914   -1.5882  -12.5156 C   0  0  0  0  0  0  0  0  0  0  0  0
  -27.0148   -1.7786  -11.1383 C   0  0  0  0  0  0  0  0  0  0  0  0
  -25.7104   -1.8640  -10.6404 C   0  0  0  0  0  0  0  0  0  0  0  0
  -24.6167   -1.7977  -11.5120 C   0  0  0  0  0  0  0  0  0  0  0  0
  -23.3449   -1.8864  -11.0065 O   0  0  0  0  0  0  0  0  0  0  0  0
  -23.3974   -2.0693  -10.0556 H   0  0  0  0  0  0  0  0  0  0  0  0
  -23.1954   -0.2881  -14.0403 C   0  0  0  0  0  0  0  0  0  0  0  0
  -23.6544   -1.5740  -13.6493 O   0  0  0  0  0  0  0  0  0  0  0  0
 28 29  1  0  0  0
 29 20  1  0  0  0
 20 21  1  0  0  0
 20 25  2  0  0  0
 21 22  2  0  0  0
 22 23  1  0  0  0
 23 18  1  0  0  0
 23 24  2  0  0  0
 18  1  1  0  0  0
 18 19  1  0  0  0
  1  2  1  0  0  0
  1  6  2  0  0  0
  2  3  2  0  0  0
  3  4  1  0  0  0
  4  5  2  0  0  0
  4 16  1  0  0  0
  5  6  1  0  0  0
  5  7  1  0  0  0
  7  8  1  0  0  0
  7 12  2  0  0  0
  8  9  2  0  0  0
  9 10  1  0  0  0
 10 11  2  0  0  0
 11 12  1  0  0  0
 12 13  1  0  0  0
 13 14  1  0  0  0
 13 17  1  0  0  0
 14 15  2  0  0  0
 14 16  1  0  0  0
 24 25  1  0  0  0
 25 26  1  0  0  0
 26 27  1  0  0  0
M  END
> <minimizedAffinity>
-9.62403

$$$$
