CHEMBL3642841


 38 41  0  0  0  0  0  0  0  0999 V2000
  -27.5553   -2.0010   -8.3723 C   0  0  0  0  0  0  0  0  0  0  0  0
  -27.8896   -1.0494   -7.4172 C   0  0  0  0  0  0  0  0  0  0  0  0
  -28.7244   -1.3739   -6.3570 C   0  0  0  0  0  0  0  0  0  0  0  0
  -29.2832   -2.6536   -6.2418 C   0  0  0  0  0  0  0  0  0  0  0  0
  -30.0375   -2.9619   -4.9817 C   0  0  0  0  0  0  0  0  0  0  0  0
  -29.1117   -3.5750   -7.2965 C   0  0  0  0  0  0  0  0  0  0  0  0
  -28.2037   -3.2414   -8.3270 C   0  0  0  0  0  0  0  0  0  0  0  0
  -26.8691   -1.5980  -10.7248 C   0  0  0  0  0  0  0  0  0  0  0  0
  -27.9851   -1.5837  -11.2371 O   0  0  0  0  0  0  0  0  0  0  0  0
  -26.5799   -1.7607   -9.3752 N   0  0  0  0  0  0  0  0  0  0  0  0
  -25.6266   -1.6404   -9.0490 H   0  0  0  0  0  0  0  0  0  0  0  0
  -23.4628   -1.0331  -13.2717 C   0  0  0  0  0  0  0  0  0  0  0  0
  -24.7346   -1.2150  -13.8330 C   0  0  0  0  0  0  0  0  0  0  0  0
  -25.8628   -1.4090  -13.0338 C   0  0  0  0  0  0  0  0  0  0  0  0
  -25.7199   -1.4315  -11.6492 C   0  0  0  0  0  0  0  0  0  0  0  0
  -24.4417   -1.3374  -11.0809 C   0  0  0  0  0  0  0  0  0  0  0  0
  -23.3166   -1.1436  -11.8876 C   0  0  0  0  0  0  0  0  0  0  0  0
  -21.8770    0.5561  -14.2978 C   0  0  0  0  0  0  0  0  0  0  0  0
  -22.3685    1.5944  -13.8695 O   0  0  0  0  0  0  0  0  0  0  0  0
  -22.3197   -0.7242  -14.0489 N   0  0  0  0  0  0  0  0  0  0  0  0
  -21.7322   -1.5029  -14.3216 H   0  0  0  0  0  0  0  0  0  0  0  0
  -19.6228    1.3578  -14.7203 C   0  0  0  0  0  0  0  0  0  0  0  0
  -20.6497    0.6022  -15.1350 C   0  0  0  0  0  0  0  0  0  0  0  0
  -29.8211   -4.7993   -7.3335 N   0  0  0  0  0  0  0  0  0  0  0  0
  -30.5357   -4.8946   -8.0409 H   0  0  0  0  0  0  0  0  0  0  0  0
  -29.3122   -6.0817   -7.0635 C   0  0  0  0  0  0  0  0  0  0  0  0
  -29.3408   -6.5158   -5.7939 N   0  0  0  0  0  0  0  0  0  0  0  0
  -28.9223   -7.7812   -5.5594 C   0  0  0  0  0  0  0  0  0  0  0  0
  -28.9350   -8.2827   -4.1441 C   0  0  0  0  0  0  0  0  0  0  0  0
  -28.5337   -8.6380   -6.5704 C   0  0  0  0  0  0  0  0  0  0  0  0
  -28.5541   -8.1306   -7.8495 C   0  0  0  0  0  0  0  0  0  0  0  0
  -28.9089   -6.8537   -8.0800 N   0  0  0  0  0  0  0  0  0  0  0  0
  -28.2917   -8.9233   -9.0612 C   0  0  0  0  0  0  0  0  0  0  0  0
  -29.2924   -9.7248   -9.6359 C   0  0  0  0  0  0  0  0  0  0  0  0
  -29.0244  -10.5236  -10.7447 C   0  0  0  0  0  0  0  0  0  0  0  0
  -27.7467  -10.4995  -11.2690 C   0  0  0  0  0  0  0  0  0  0  0  0
  -26.7520   -9.7325  -10.7774 N   0  0  0  0  0  0  0  0  0  0  0  0
  -27.0511   -8.9662   -9.6981 C   0  0  0  0  0  0  0  0  0  0  0  0
 22 23  2  0  0  0
 23 18  1  0  0  0
 18 19  2  0  0  0
 18 20  1  0  0  0
 20 12  1  0  0  0
 20 21  1  0  0  0
 12 13  1  0  0  0
 12 17  2  0  0  0
 13 14  2  0  0  0
 14 15  1  0  0  0
 15  8  1  0  0  0
 15 16  2  0  0  0
  8  9  2  0  0  0
  8 10  1  0  0  0
 10  1  1  0  0  0
 10 11  1  0  0  0
  1  2  1  0  0  0
  1  7  2  0  0  0
  2  3  2  0  0  0
  3  4  1  0  0  0
  4  5  1  0  0  0
  4  6  2  0  0  0
  6 24  1  0  0  0
  6  7  1  0  0  0
 24 26  1  0  0  0
 24 25  1  0  0  0
 26 27  1  0  0  0
 26 32  2  0  0  0
 27 28  2  0  0  0
 28 29  1  0  0  0
 28 30  1  0  0  0
 30 31  2  0  0  0
 31 33  1  0  0  0
 31 32  1  0  0  0
 33 34  1  0  0  0
 33 38  2  0  0  0
 34 35  2  0  0  0
 35 36  1  0  0  0
 36 37  2  0  0  0
 37 38  1  0  0  0
 16 17  1  0  0  0
M  END
> <minimizedAffinity>
-11.25985

$$$$
