CHEMBL223997


 31 35  0  0  0  0  0  0  0  0999 V2000
  -12.8756    0.4069  -17.6262 C   0  0  0  0  0  0  0  0  0  0  0  0
  -11.7986    1.1665  -17.9207 N   0  0  0  0  0  0  0  0  0  0  0  0
  -10.8185    0.4701  -17.2890 N   0  0  0  0  0  0  0  0  0  0  0  0
  -11.2337   -0.7886  -16.9391 C   0  0  0  0  0  0  0  0  0  0  0  0
  -12.3880   -0.9531  -17.7272 C   0  0  0  0  0  0  0  0  0  0  0  0
  -12.9147   -2.3377  -17.5056 C   0  0  0  0  0  0  0  0  0  0  0  0
  -12.6458   -2.3511  -16.0087 C   0  0  0  0  0  0  0  0  0  0  0  0
  -13.6618   -2.7243  -15.1424 C   0  0  0  0  0  0  0  0  0  0  0  0
  -13.7814   -1.9849  -13.9707 C   0  0  0  0  0  0  0  0  0  0  0  0
  -12.7049   -1.1533  -13.5559 C   0  0  0  0  0  0  0  0  0  0  0  0
  -11.5846   -0.9023  -14.3844 C   0  0  0  0  0  0  0  0  0  0  0  0
  -11.5917   -1.4487  -15.6583 C   0  0  0  0  0  0  0  0  0  0  0  0
   -9.8713    0.8194  -17.3766 H   0  0  0  0  0  0  0  0  0  0  0  0
  -15.9476    1.2213  -15.5604 C   0  0  0  0  0  0  0  0  0  0  0  0
  -15.2067    0.6350  -16.5696 C   0  0  0  0  0  0  0  0  0  0  0  0
  -13.7857    0.9751  -16.5492 C   0  0  0  0  0  0  0  0  0  0  0  0
  -13.5302    1.8498  -15.5184 C   0  0  0  0  0  0  0  0  0  0  0  0
  -14.9408    2.1499  -14.5477 S   0  0  0  0  0  0  0  0  0  0  0  0
  -18.5578    0.9223  -15.2471 C   0  0  0  0  0  0  0  0  0  0  0  0
  -17.3696    1.0523  -15.3758 C   0  0  0  0  0  0  0  0  0  0  0  0
  -20.0103    0.7384  -15.0939 C   0  0  0  0  0  0  0  0  0  0  0  0
  -20.1878    3.2652  -14.9234 C   0  0  0  0  0  0  0  0  0  0  0  0
  -20.7024    1.9229  -14.4100 C   0  0  0  0  0  0  0  0  0  0  0  0
  -15.1920   -1.7224  -13.4475 C   0  0  0  0  0  0  0  0  0  0  0  0
  -15.6816   -2.5873  -12.3675 N   0  0  0  0  0  0  0  0  0  0  0  0
  -16.2062   -3.8496  -12.9005 C   0  0  0  0  0  0  0  0  0  0  0  0
  -16.6318   -4.7929  -11.7575 C   0  0  0  0  0  0  0  0  0  0  0  0
  -15.5455   -5.1452  -10.8212 N   0  0  0  0  0  0  0  0  0  0  0  0
  -14.5532   -6.0136  -11.4521 C   0  0  0  0  0  0  0  0  0  0  0  0
  -14.9301   -3.9003  -10.3182 C   0  0  0  0  0  0  0  0  0  0  0  0
  -14.5798   -2.8556  -11.4087 C   0  0  0  0  0  0  0  0  0  0  0  0
 22 23  1  0  0  0
 23 21  1  0  0  0
 21 19  1  0  0  0
 19 20  3  0  0  0
 20 14  1  0  0  0
 14 15  2  0  0  0
 14 18  1  0  0  0
 15 16  1  0  0  0
 16  1  1  0  0  0
 16 17  2  0  0  0
  1  2  2  0  0  0
  1  5  1  0  0  0
  2  3  1  0  0  0
  3  4  1  0  0  0
  3 13  1  0  0  0
  4  5  2  0  0  0
  4 12  1  0  0  0
  5  6  1  0  0  0
  6  7  1  0  0  0
  7  8  1  0  0  0
  7 12  2  0  0  0
  8  9  2  0  0  0
  9 24  1  0  0  0
  9 10  1  0  0  0
 24 25  1  0  0  0
 25 26  1  0  0  0
 25 31  1  0  0  0
 26 27  1  0  0  0
 27 28  1  0  0  0
 28 29  1  0  0  0
 28 30  1  0  0  0
 30 31  1  0  0  0
 10 11  2  0  0  0
 11 12  1  0  0  0
 17 18  1  0  0  0
M  END
> <minimizedAffinity>
-6.46386

$$$$
