CHEMBL1994808


 15 16  0  0  0  0  0  0  0  0999 V2000
  -30.0409   -7.0485   -7.2087 C   0  0  0  0  0  0  0  0  0  0  0  0
  -29.6930   -5.6439   -6.8384 C   0  0  0  0  0  0  0  0  0  0  0  0
  -30.0991   -5.1657   -5.6476 N   0  0  0  0  0  0  0  0  0  0  0  0
  -29.8136   -3.8656   -5.3033 N   0  0  0  0  0  0  0  0  0  0  0  0
  -29.1272   -3.0706   -6.1550 C   0  0  0  0  0  0  0  0  0  0  0  0
  -28.7172   -3.6397   -7.3527 C   0  0  0  0  0  0  0  0  0  0  0  0
  -28.9944   -4.9197   -7.7231 N   0  0  0  0  0  0  0  0  0  0  0  0
  -28.8771   -1.6895   -5.6847 C   0  0  0  0  0  0  0  0  0  0  0  0
  -27.6244   -1.3331   -5.1444 C   0  0  0  0  0  0  0  0  0  0  0  0
  -27.3472   -0.0243   -4.7316 C   0  0  0  0  0  0  0  0  0  0  0  0
  -28.3173    0.9645   -4.8500 C   0  0  0  0  0  0  0  0  0  0  0  0
  -29.5730    0.6369   -5.3461 C   0  0  0  0  0  0  0  0  0  0  0  0
  -29.8544   -0.6768   -5.7367 C   0  0  0  0  0  0  0  0  0  0  0  0
  -27.9225   -2.9385   -8.3186 C   0  0  0  0  0  0  0  0  0  0  0  0
  -27.2740   -2.3536   -9.0847 N   0  0  0  0  0  0  0  0  0  0  0  0
  1  2  1  0  0  0
  2  3  1  0  0  0
  2  7  2  0  0  0
  3  4  2  0  0  0
  4  5  1  0  0  0
  5  8  1  0  0  0
  5  6  2  0  0  0
  8  9  1  0  0  0
  8 13  2  0  0  0
  9 10  2  0  0  0
 10 11  1  0  0  0
 11 12  2  0  0  0
 12 13  1  0  0  0
  6 14  1  0  0  0
  6  7  1  0  0  0
 14 15  3  0  0  0
M  END
> <minimizedAffinity>
-6.37353

$$$$
