CHEMBL372388


 39 43  0  0  0  0  0  0  0  0999 V2000
  -29.0125   -9.6914   -6.7858 C   0  0  0  0  0  0  0  0  0  0  0  0
  -27.8811  -10.4875   -7.0223 C   0  0  0  0  0  0  0  0  0  0  0  0
  -28.2861  -11.9684   -7.7890 S   0  0  0  0  0  0  0  0  0  0  0  0
  -29.9279  -11.5843   -7.8421 C   0  0  0  0  0  0  0  0  0  0  0  0
  -30.7755  -12.4660   -8.3966 N   0  0  0  0  0  0  0  0  0  0  0  0
  -32.0323  -12.0369   -8.3932 C   0  0  0  0  0  0  0  0  0  0  0  0
  -32.4825  -10.8721   -7.9178 N   0  0  0  0  0  0  0  0  0  0  0  0
  -31.6041  -10.0065   -7.3746 C   0  0  0  0  0  0  0  0  0  0  0  0
  -32.1741   -8.8121   -6.9518 N   0  0  0  0  0  0  0  0  0  0  0  0
  -30.2311  -10.3433   -7.2996 C   0  0  0  0  0  0  0  0  0  0  0  0
  -33.1177   -8.7420   -7.3186 H   0  0  0  0  0  0  0  0  0  0  0  0
  -31.5889   -8.0024   -7.1165 H   0  0  0  0  0  0  0  0  0  0  0  0
  -28.9844   -5.8123   -4.8803 C   0  0  0  0  0  0  0  0  0  0  0  0
  -28.8013   -5.9378   -6.2563 C   0  0  0  0  0  0  0  0  0  0  0  0
  -28.8241   -7.1912   -6.8686 C   0  0  0  0  0  0  0  0  0  0  0  0
  -28.9207   -8.3679   -6.1207 C   0  0  0  0  0  0  0  0  0  0  0  0
  -28.9632   -8.2331   -4.7235 C   0  0  0  0  0  0  0  0  0  0  0  0
  -29.0222   -6.9684   -4.1047 C   0  0  0  0  0  0  0  0  0  0  0  0
  -29.1303   -2.2266   -4.2880 N   0  0  0  0  0  0  0  0  0  0  0  0
  -28.8732   -3.3871   -4.9958 C   0  0  0  0  0  0  0  0  0  0  0  0
  -28.4274   -3.4163   -6.1395 O   0  0  0  0  0  0  0  0  0  0  0  0
  -29.2056   -4.5401   -4.2901 N   0  0  0  0  0  0  0  0  0  0  0  0
  -29.2773   -2.3240   -3.2939 H   0  0  0  0  0  0  0  0  0  0  0  0
  -29.9999   -4.4561   -3.6734 H   0  0  0  0  0  0  0  0  0  0  0  0
  -31.3031    1.6481   -6.4844 C   0  0  0  0  0  0  0  0  0  0  0  0
  -30.0819    1.0020   -5.8928 C   0  0  0  0  0  0  0  0  0  0  0  0
  -28.8727    1.6954   -5.8719 C   0  0  0  0  0  0  0  0  0  0  0  0
  -27.7384    1.1036   -5.3299 C   0  0  0  0  0  0  0  0  0  0  0  0
  -27.8163   -0.1876   -4.8076 C   0  0  0  0  0  0  0  0  0  0  0  0
  -29.0154   -0.9097   -4.8050 C   0  0  0  0  0  0  0  0  0  0  0  0
  -30.1512   -0.3005   -5.3555 C   0  0  0  0  0  0  0  0  0  0  0  0
  -26.4069  -10.2904   -6.7286 C   0  0  0  0  0  0  0  0  0  0  0  0
  -26.0677  -10.5475   -5.3277 N   0  0  0  0  0  0  0  0  0  0  0  0
  -25.4083  -11.8533   -5.1524 C   0  0  0  0  0  0  0  0  0  0  0  0
  -25.0247  -12.1044   -3.6785 C   0  0  0  0  0  0  0  0  0  0  0  0
  -24.1767  -11.0566   -3.0760 N   0  0  0  0  0  0  0  0  0  0  0  0
  -22.8131  -11.1077   -3.5972 C   0  0  0  0  0  0  0  0  0  0  0  0
  -24.8034   -9.7402   -3.3153 C   0  0  0  0  0  0  0  0  0  0  0  0
  -25.2219   -9.4710   -4.7812 C   0  0  0  0  0  0  0  0  0  0  0  0
 25 26  1  0  0  0
 26 27  1  0  0  0
 26 31  2  0  0  0
 27 28  2  0  0  0
 28 29  1  0  0  0
 29 30  2  0  0  0
 30 19  1  0  0  0
 30 31  1  0  0  0
 19 20  1  0  0  0
 19 23  1  0  0  0
 20 21  2  0  0  0
 20 22  1  0  0  0
 22 13  1  0  0  0
 22 24  1  0  0  0
 13 14  1  0  0  0
 13 18  2  0  0  0
 14 15  2  0  0  0
 15 16  1  0  0  0
 16  1  1  0  0  0
 16 17  2  0  0  0
  1  2  2  0  0  0
  1 10  1  0  0  0
  2 32  1  0  0  0
  2  3  1  0  0  0
 32 33  1  0  0  0
 33 34  1  0  0  0
 33 39  1  0  0  0
 34 35  1  0  0  0
 35 36  1  0  0  0
 36 37  1  0  0  0
 36 38  1  0  0  0
 38 39  1  0  0  0
  3  4  1  0  0  0
  4  5  1  0  0  0
  4 10  2  0  0  0
  5  6  2  0  0  0
  6  7  1  0  0  0
  7  8  2  0  0  0
  8  9  1  0  0  0
  8 10  1  0  0  0
  9 11  1  0  0  0
  9 12  1  0  0  0
 17 18  1  0  0  0
M  END
> <minimizedAffinity>
-9.13469

$$$$
