CHEMBL3956820


 35 39  0  0  0  0  0  0  0  0999 V2000
  -13.8490   -1.7009  -13.7131 C   0  0  0  0  0  0  0  0  0  0  0  0
  -13.8527   -3.0776  -13.8696 C   0  0  0  0  0  0  0  0  0  0  0  0
  -14.7260   -3.8990  -13.1386 C   0  0  0  0  0  0  0  0  0  0  0  0
  -14.6909   -5.2989  -13.2129 C   0  0  0  0  0  0  0  0  0  0  0  0
  -15.6030   -6.0638  -12.5867 N   0  0  0  0  0  0  0  0  0  0  0  0
  -16.4946   -5.4131  -11.8306 C   0  0  0  0  0  0  0  0  0  0  0  0
  -16.5845   -4.0875  -11.6557 N   0  0  0  0  0  0  0  0  0  0  0  0
  -15.6992   -3.3262  -12.3144 C   0  0  0  0  0  0  0  0  0  0  0  0
  -15.7440   -1.9339  -12.2218 C   0  0  0  0  0  0  0  0  0  0  0  0
  -14.8484   -1.1050  -12.9164 C   0  0  0  0  0  0  0  0  0  0  0  0
  -13.1164   -0.7099  -15.7714 C   0  0  0  0  0  0  0  0  0  0  0  0
  -12.9403   -0.9254  -14.3748 O   0  0  0  0  0  0  0  0  0  0  0  0
  -13.6532   -5.9150  -13.9451 N   0  0  0  0  0  0  0  0  0  0  0  0
  -12.9225   -6.2616  -13.3284 H   0  0  0  0  0  0  0  0  0  0  0  0
  -13.7177   -6.5843  -15.1808 C   0  0  0  0  0  0  0  0  0  0  0  0
  -13.8549   -5.8870  -16.3865 C   0  0  0  0  0  0  0  0  0  0  0  0
  -13.7125   -6.5445  -17.6105 C   0  0  0  0  0  0  0  0  0  0  0  0
  -13.4433   -7.9095  -17.6359 C   0  0  0  0  0  0  0  0  0  0  0  0
  -13.2577   -8.5036  -18.8247 F   0  0  0  0  0  0  0  0  0  0  0  0
  -13.3470   -8.6359  -16.4552 C   0  0  0  0  0  0  0  0  0  0  0  0
  -13.0376  -10.3310  -16.4959 Cl  0  0  0  0  0  0  0  0  0  0  0  0
  -13.4754   -7.9688  -15.2391 C   0  0  0  0  0  0  0  0  0  0  0  0
  -13.3479   -8.6442  -14.0822 F   0  0  0  0  0  0  0  0  0  0  0  0
  -15.0580    0.2531  -12.7271 O   0  0  0  0  0  0  0  0  0  0  0  0
  -16.3057    0.7116  -13.2556 C   0  0  0  0  0  0  0  0  0  0  0  0
  -16.4384    0.6729  -14.7932 C   0  0  0  0  0  0  0  0  0  0  0  0
  -17.8913    0.2287  -15.1157 C   0  0  0  0  0  0  0  0  0  0  0  0
  -18.8176    1.2948  -14.6884 N   0  0  0  0  0  0  0  0  0  0  0  0
  -20.2289    0.8965  -14.7177 C   0  0  0  0  0  0  0  0  0  0  0  0
  -21.2286    2.0746  -14.6815 C   0  0  0  0  0  0  0  0  0  0  0  0
  -20.8515    3.1705  -15.5239 O   0  0  0  0  0  0  0  0  0  0  0  0
  -19.5265    3.6119  -15.1958 C   0  0  0  0  0  0  0  0  0  0  0  0
  -18.5299    2.4932  -15.5135 C   0  0  0  0  0  0  0  0  0  0  0  0
  -17.0787    2.9482  -15.2456 C   0  0  0  0  0  0  0  0  0  0  0  0
  -16.1205    1.9036  -15.4721 O   0  0  0  0  0  0  0  0  0  0  0  0
 11 12  1  0  0  0
 12  1  1  0  0  0
  1  2  1  0  0  0
  1 10  2  0  0  0
  2  3  2  0  0  0
  3  4  1  0  0  0
  3  8  1  0  0  0
  4 13  1  0  0  0
  4  5  2  0  0  0
 13 15  1  0  0  0
 13 14  1  0  0  0
 15 16  1  0  0  0
 15 22  2  0  0  0
 16 17  2  0  0  0
 17 18  1  0  0  0
 18 19  1  0  0  0
 18 20  2  0  0  0
 20 21  1  0  0  0
 20 22  1  0  0  0
 22 23  1  0  0  0
  5  6  1  0  0  0
  6  7  2  0  0  0
  7  8  1  0  0  0
  8  9  2  0  0  0
  9 10  1  0  0  0
 10 24  1  0  0  0
 24 25  1  0  0  0
 25 26  1  0  0  0
 26 27  1  0  0  0
 26 35  1  0  0  0
 27 28  1  0  0  0
 28 29  1  0  0  0
 28 33  1  0  0  0
 29 30  1  0  0  0
 30 31  1  0  0  0
 31 32  1  0  0  0
 32 33  1  0  0  0
 33 34  1  0  0  0
 34 35  1  0  0  0
M  END
> <minimizedAffinity>
-8.04335

$$$$
