CHEMBL201014


 31 34  0  0  0  0  0  0  0  0999 V2000
  -25.9187   -1.5986  -12.4176 C   0  0  0  0  0  0  0  0  0  0  0  0
  -27.3020   -1.7943  -13.4294 S   0  0  0  0  0  0  0  0  0  0  0  0
  -26.3319   -1.5444  -14.8054 C   0  0  0  0  0  0  0  0  0  0  0  0
  -25.0576   -1.3217  -14.5818 N   0  0  0  0  0  0  0  0  0  0  0  0
  -24.8006   -1.3591  -13.2154 C   0  0  0  0  0  0  0  0  0  0  0  0
  -27.2776   -2.0218  -10.4810 N   0  0  0  0  0  0  0  0  0  0  0  0
  -26.0183   -1.6720  -10.9605 C   0  0  0  0  0  0  0  0  0  0  0  0
  -25.0479   -1.4399  -10.2453 O   0  0  0  0  0  0  0  0  0  0  0  0
  -27.9871   -2.1758  -11.1851 H   0  0  0  0  0  0  0  0  0  0  0  0
  -28.5845   -2.6592   -6.4755 C   0  0  0  0  0  0  0  0  0  0  0  0
  -28.0885   -1.4117   -6.8798 C   0  0  0  0  0  0  0  0  0  0  0  0
  -27.6490   -1.1803   -8.1874 C   0  0  0  0  0  0  0  0  0  0  0  0
  -27.6887   -2.1926   -9.1396 C   0  0  0  0  0  0  0  0  0  0  0  0
  -28.1702   -3.4483   -8.7565 C   0  0  0  0  0  0  0  0  0  0  0  0
  -28.6072   -3.6775   -7.4425 C   0  0  0  0  0  0  0  0  0  0  0  0
  -28.0748   -3.5906   -4.1273 C   0  0  0  0  0  0  0  0  0  0  0  0
  -29.1104   -2.9055   -5.0495 C   0  0  0  0  0  0  0  0  0  0  0  0
  -30.3597   -3.8099   -5.0815 C   0  0  0  0  0  0  0  0  0  0  0  0
  -29.4790   -1.5538   -4.4020 C   0  0  0  0  0  0  0  0  0  0  0  0
  -23.3898   -1.0652  -12.7915 C   0  0  0  0  0  0  0  0  0  0  0  0
  -22.4700   -0.5004  -13.8785 C   0  0  0  0  0  0  0  0  0  0  0  0
  -22.1380    0.9796  -13.9947 C   0  0  0  0  0  0  0  0  0  0  0  0
  -23.0381    1.9931  -13.6640 C   0  0  0  0  0  0  0  0  0  0  0  0
  -22.6587    3.3129  -13.8560 C   0  0  0  0  0  0  0  0  0  0  0  0
  -21.4661    3.6972  -14.3570 N   0  0  0  0  0  0  0  0  0  0  0  0
  -20.5833    2.7370  -14.6711 C   0  0  0  0  0  0  0  0  0  0  0  0
  -19.3569    3.1141  -15.2072 C   0  0  0  0  0  0  0  0  0  0  0  0
  -18.3790    2.1787  -15.5557 C   0  0  0  0  0  0  0  0  0  0  0  0
  -18.6112    0.8325  -15.3320 C   0  0  0  0  0  0  0  0  0  0  0  0
  -19.8312    0.4284  -14.7960 C   0  0  0  0  0  0  0  0  0  0  0  0
  -20.8511    1.3608  -14.4833 C   0  0  0  0  0  0  0  0  0  0  0  0
 16 17  1  0  0  0
 17 18  1  0  0  0
 17 19  1  0  0  0
 17 10  1  0  0  0
 10 11  1  0  0  0
 10 15  2  0  0  0
 11 12  2  0  0  0
 12 13  1  0  0  0
 13  6  1  0  0  0
 13 14  2  0  0  0
  6  7  1  0  0  0
  6  9  1  0  0  0
  7  8  2  0  0  0
  7  1  1  0  0  0
  1  2  1  0  0  0
  1  5  2  0  0  0
  2  3  1  0  0  0
  3  4  2  0  0  0
  4  5  1  0  0  0
  5 20  1  0  0  0
 20 21  1  0  0  0
 21 22  1  0  0  0
 22 23  1  0  0  0
 22 31  2  0  0  0
 23 24  2  0  0  0
 24 25  1  0  0  0
 25 26  2  0  0  0
 26 27  1  0  0  0
 26 31  1  0  0  0
 27 28  2  0  0  0
 28 29  1  0  0  0
 29 30  2  0  0  0
 30 31  1  0  0  0
 14 15  1  0  0  0
M  END
> <minimizedAffinity>
-10.97674

$$$$
