CHEMBL3220327


 45 48  0  0  0  0  0  0  0  0999 V2000
  -28.8523   -4.7000   -7.0024 C   0  0  0  0  0  0  0  0  0  0  0  0
  -28.7405   -3.8278   -8.1153 C   0  0  0  0  0  0  0  0  0  0  0  0
  -28.3401   -2.5130   -8.0555 C   0  0  0  0  0  0  0  0  0  0  0  0
  -28.0422   -2.0111   -6.7912 C   0  0  0  0  0  0  0  0  0  0  0  0
  -28.1476   -2.8280   -5.6512 C   0  0  0  0  0  0  0  0  0  0  0  0
  -28.5130   -4.1843   -5.7284 C   0  0  0  0  0  0  0  0  0  0  0  0
  -29.1946   -8.2579   -8.3398 C   0  0  0  0  0  0  0  0  0  0  0  0
  -28.6995   -6.9920   -8.0294 C   0  0  0  0  0  0  0  0  0  0  0  0
  -29.4143   -6.0399   -7.2742 C   0  0  0  0  0  0  0  0  0  0  0  0
  -30.7148   -6.3620   -6.9291 C   0  0  0  0  0  0  0  0  0  0  0  0
  -31.2230   -7.6441   -7.1910 C   0  0  0  0  0  0  0  0  0  0  0  0
  -30.4538   -8.6232   -7.8471 C   0  0  0  0  0  0  0  0  0  0  0  0
  -30.9728  -10.0197   -7.9386 C   0  0  0  0  0  0  0  0  0  0  0  0
  -30.3603  -11.1109   -7.0607 C   0  0  0  0  0  0  0  0  0  0  0  0
  -31.9877  -10.2780   -8.7229 N   0  0  0  0  0  0  0  0  0  0  0  0
  -32.3427  -11.6265   -8.6636 O   0  0  0  0  0  0  0  0  0  0  0  0
  -33.0767  -11.6905   -9.3030 H   0  0  0  0  0  0  0  0  0  0  0  0
  -27.1069   -8.9477   -9.2496 C   0  0  0  0  0  0  0  0  0  0  0  0
  -28.5204   -9.1115   -9.1814 O   0  0  0  0  0  0  0  0  0  0  0  0
  -28.2532   -1.7051   -9.2352 N   0  0  0  0  0  0  0  0  0  0  0  0
  -27.2576   -1.8364  -10.1974 C   0  0  0  0  0  0  0  0  0  0  0  0
  -26.3224   -2.6156  -10.1455 O   0  0  0  0  0  0  0  0  0  0  0  0
  -27.4313   -0.9980  -11.3031 N   0  0  0  0  0  0  0  0  0  0  0  0
  -29.0547   -1.1376   -9.4484 H   0  0  0  0  0  0  0  0  0  0  0  0
  -27.8108   -0.0928  -11.0767 H   0  0  0  0  0  0  0  0  0  0  0  0
  -26.4142   -1.0052  -12.3043 C   0  0  0  0  0  0  0  0  0  0  0  0
  -25.2159   -0.3095  -12.0086 C   0  0  0  0  0  0  0  0  0  0  0  0
  -24.1289   -0.3392  -12.8887 C   0  0  0  0  0  0  0  0  0  0  0  0
  -24.2245   -1.0430  -14.0927 C   0  0  0  0  0  0  0  0  0  0  0  0
  -25.4107   -1.7009  -14.4047 C   0  0  0  0  0  0  0  0  0  0  0  0
  -26.5233   -1.6629  -13.5301 C   0  0  0  0  0  0  0  0  0  0  0  0
  -27.8374   -2.1882  -14.0371 C   0  0  0  0  0  0  0  0  0  0  0  0
  -22.9106    0.2707  -12.6702 O   0  0  0  0  0  0  0  0  0  0  0  0
  -22.1127    0.3763  -13.8526 C   0  0  0  0  0  0  0  0  0  0  0  0
  -21.7407    1.8351  -14.1710 C   0  0  0  0  0  0  0  0  0  0  0  0
  -20.2792    2.0461  -14.3369 N   0  0  0  0  0  0  0  0  0  0  0  0
  -19.6628    0.8646  -14.9635 C   0  0  0  0  0  0  0  0  0  0  0  0
  -18.1440    1.0246  -15.0851 C   0  0  0  0  0  0  0  0  0  0  0  0
  -17.7753    2.2858  -15.8559 C   0  0  0  0  0  0  0  0  0  0  0  0
  -18.4545    3.4952  -15.2328 C   0  0  0  0  0  0  0  0  0  0  0  0
  -19.9607    3.2659  -15.0979 C   0  0  0  0  0  0  0  0  0  0  0  0
  -27.8099   -2.3390   -4.4075 O   0  0  0  0  0  0  0  0  0  0  0  0
  -27.6611   -0.9353   -4.2940 C   0  0  0  0  0  0  0  0  0  0  0  0
  -28.5052   -5.0411   -4.6388 O   0  0  0  0  0  0  0  0  0  0  0  0
  -29.6520   -5.0133   -3.7853 C   0  0  0  0  0  0  0  0  0  0  0  0
 18 19  1  0  0  0
 19  7  1  0  0  0
  7  8  1  0  0  0
  7 12  2  0  0  0
  8  9  2  0  0  0
  9  1  1  0  0  0
  9 10  1  0  0  0
  1  2  1  0  0  0
  1  6  2  0  0  0
  2  3  2  0  0  0
  3 20  1  0  0  0
  3  4  1  0  0  0
 20 21  1  0  0  0
 20 24  1  0  0  0
 21 22  2  0  0  0
 21 23  1  0  0  0
 23 26  1  0  0  0
 23 25  1  0  0  0
 26 27  1  0  0  0
 26 31  2  0  0  0
 27 28  2  0  0  0
 28 33  1  0  0  0
 28 29  1  0  0  0
 33 34  1  0  0  0
 34 35  1  0  0  0
 35 36  1  0  0  0
 36 37  1  0  0  0
 36 41  1  0  0  0
 37 38  1  0  0  0
 38 39  1  0  0  0
 39 40  1  0  0  0
 40 41  1  0  0  0
 29 30  2  0  0  0
 30 31  1  0  0  0
 31 32  1  0  0  0
  4  5  2  0  0  0
  5 42  1  0  0  0
  5  6  1  0  0  0
 42 43  1  0  0  0
  6 44  1  0  0  0
 44 45  1  0  0  0
 10 11  2  0  0  0
 11 12  1  0  0  0
 12 13  1  0  0  0
 13 14  1  0  0  0
 13 15  2  0  0  0
 15 16  1  0  0  0
 16 17  1  0  0  0
M  END
> <minimizedAffinity>
-11.18806

$$$$
