CHEMBL3951156


 33 36  0  0  0  0  0  0  0  0999 V2000
  -14.4160   -3.1462  -12.4804 N   0  0  0  0  0  0  0  0  0  0  0  0
  -14.6708   -4.3613  -13.2489 C   0  0  0  0  0  0  0  0  0  0  0  0
  -15.6230   -5.2087  -12.6781 C   0  0  0  0  0  0  0  0  0  0  0  0
  -15.5181   -6.5687  -12.8336 C   0  0  0  0  0  0  0  0  0  0  0  0
  -14.5939   -7.1088  -13.6824 C   0  0  0  0  0  0  0  0  0  0  0  0
  -14.4339   -8.4363  -13.5675 N   0  0  0  0  0  0  0  0  0  0  0  0
  -13.7193   -9.0550  -14.5109 C   0  0  0  0  0  0  0  0  0  0  0  0
  -13.2793   -8.3758  -15.6290 C   0  0  0  0  0  0  0  0  0  0  0  0
  -13.3115   -7.0003  -15.6871 N   0  0  0  0  0  0  0  0  0  0  0  0
  -13.9012   -6.3094  -14.6335 C   0  0  0  0  0  0  0  0  0  0  0  0
  -13.9052   -4.8994  -14.3270 C   0  0  0  0  0  0  0  0  0  0  0  0
  -13.0558   -9.2155  -16.8118 C   0  0  0  0  0  0  0  0  0  0  0  0
  -13.3944   -8.9437  -18.1653 C   0  0  0  0  0  0  0  0  0  0  0  0
  -13.3026  -10.0198  -18.9561 N   0  0  0  0  0  0  0  0  0  0  0  0
  -12.9081  -10.9902  -18.1160 N   0  0  0  0  0  0  0  0  0  0  0  0
  -12.4209  -12.2484  -18.6315 C   0  0  0  0  0  0  0  0  0  0  0  0
  -12.9146  -10.5962  -16.8041 C   0  0  0  0  0  0  0  0  0  0  0  0
  -13.6085   -0.1153  -14.5155 C   0  0  0  0  0  0  0  0  0  0  0  0
  -14.7019    0.7052  -14.2378 C   0  0  0  0  0  0  0  0  0  0  0  0
  -15.6658    0.2932  -13.3241 C   0  0  0  0  0  0  0  0  0  0  0  0
  -15.5349   -0.9488  -12.6913 C   0  0  0  0  0  0  0  0  0  0  0  0
  -14.4615   -1.8135  -12.9516 C   0  0  0  0  0  0  0  0  0  0  0  0
  -13.4842   -1.3565  -13.8578 C   0  0  0  0  0  0  0  0  0  0  0  0
  -11.5430   -0.7372  -15.5400 C   0  0  0  0  0  0  0  0  0  0  0  0
  -12.6279    0.1870  -15.4291 O   0  0  0  0  0  0  0  0  0  0  0  0
  -16.7934    0.9931  -12.9851 O   0  0  0  0  0  0  0  0  0  0  0  0
  -17.6395    1.4070  -14.0507 C   0  0  0  0  0  0  0  0  0  0  0  0
  -13.2690   -3.4828  -11.5407 C   0  0  0  0  0  0  0  0  0  0  0  0
  -13.5487   -3.7124  -10.0133 C   0  0  0  0  0  0  0  0  0  0  0  0
  -14.9604   -3.3079   -9.5648 C   0  0  0  0  0  0  0  0  0  0  0  0
  -13.3620   -5.2272   -9.7693 C   0  0  0  0  0  0  0  0  0  0  0  0
  -12.6016   -3.0955   -9.1395 O   0  0  0  0  0  0  0  0  0  0  0  0
  -12.8943   -2.1846   -8.9614 H   0  0  0  0  0  0  0  0  0  0  0  0
 24 25  1  0  0  0
 25 18  1  0  0  0
 18 19  1  0  0  0
 18 23  2  0  0  0
 19 20  2  0  0  0
 20 26  1  0  0  0
 20 21  1  0  0  0
 26 27  1  0  0  0
 21 22  2  0  0  0
 22  1  1  0  0  0
 22 23  1  0  0  0
  1 28  1  0  0  0
  1  2  1  0  0  0
 28 29  1  0  0  0
 29 30  1  0  0  0
 29 31  1  0  0  0
 29 32  1  0  0  0
 32 33  1  0  0  0
  2  3  1  0  0  0
  2 11  2  0  0  0
  3  4  2  0  0  0
  4  5  1  0  0  0
  5  6  1  0  0  0
  5 10  2  0  0  0
  6  7  2  0  0  0
  7  8  1  0  0  0
  8 12  1  0  0  0
  8  9  2  0  0  0
 12 13  1  0  0  0
 12 17  2  0  0  0
 13 14  2  0  0  0
 14 15  1  0  0  0
 15 16  1  0  0  0
 15 17  1  0  0  0
  9 10  1  0  0  0
 10 11  1  0  0  0
M  END
> <minimizedAffinity>
-6.66858

$$$$
