CHEMBL522785


 40 45  0  0  0  0  0  0  0  0999 V2000
  -19.8927    2.7660  -15.4354 C   0  0  0  0  0  0  0  0  0  0  0  0
  -18.8003    3.6321  -15.6103 C   0  0  0  0  0  0  0  0  0  0  0  0
  -17.4875    3.1813  -15.6166 C   0  0  0  0  0  0  0  0  0  0  0  0
  -16.5187    4.0577  -15.8751 N   0  0  0  0  0  0  0  0  0  0  0  0
  -15.2630    3.6020  -15.9212 C   0  0  0  0  0  0  0  0  0  0  0  0
  -14.9469    2.3091  -15.7847 N   0  0  0  0  0  0  0  0  0  0  0  0
  -15.9115    1.4277  -15.4925 C   0  0  0  0  0  0  0  0  0  0  0  0
  -17.2436    1.8325  -15.3677 C   0  0  0  0  0  0  0  0  0  0  0  0
  -18.3255    0.9794  -15.0511 C   0  0  0  0  0  0  0  0  0  0  0  0
  -19.6481    1.4331  -15.0914 C   0  0  0  0  0  0  0  0  0  0  0  0
  -21.8500    3.5599  -14.3639 C   0  0  0  0  0  0  0  0  0  0  0  0
  -21.1797    3.2136  -15.5809 O   0  0  0  0  0  0  0  0  0  0  0  0
  -14.2673    4.5718  -16.0509 N   0  0  0  0  0  0  0  0  0  0  0  0
  -14.6684    5.3970  -16.4715 H   0  0  0  0  0  0  0  0  0  0  0  0
  -13.1854    4.7497  -15.2704 C   0  0  0  0  0  0  0  0  0  0  0  0
  -12.5731    3.7704  -14.4607 C   0  0  0  0  0  0  0  0  0  0  0  0
  -11.6039    4.4270  -13.7422 C   0  0  0  0  0  0  0  0  0  0  0  0
  -10.7056    3.9540  -12.6716 C   0  0  0  0  0  0  0  0  0  0  0  0
  -11.6352    5.7132  -14.1974 N   0  0  0  0  0  0  0  0  0  0  0  0
  -12.5755    5.9337  -15.1339 N   0  0  0  0  0  0  0  0  0  0  0  0
  -11.0630    6.4965  -13.9009 H   0  0  0  0  0  0  0  0  0  0  0  0
  -15.5605    0.0648  -15.2804 N   0  0  0  0  0  0  0  0  0  0  0  0
  -15.9630   -0.4871  -16.0314 H   0  0  0  0  0  0  0  0  0  0  0  0
  -15.5689   -0.6314  -14.0473 C   0  0  0  0  0  0  0  0  0  0  0  0
  -15.9846    0.0161  -12.8808 C   0  0  0  0  0  0  0  0  0  0  0  0
  -15.9917   -0.6573  -11.6570 C   0  0  0  0  0  0  0  0  0  0  0  0
  -15.6327   -2.0073  -11.5917 C   0  0  0  0  0  0  0  0  0  0  0  0
  -15.2825   -2.7160  -12.7502 C   0  0  0  0  0  0  0  0  0  0  0  0
  -15.2497   -1.9975  -13.9674 C   0  0  0  0  0  0  0  0  0  0  0  0
  -14.9593   -4.1629  -12.6586 C   0  0  0  0  0  0  0  0  0  0  0  0
  -14.0783   -4.6988  -11.8336 N   0  0  0  0  0  0  0  0  0  0  0  0
  -13.9400   -6.0665  -12.0822 C   0  0  0  0  0  0  0  0  0  0  0  0
  -13.0646   -6.9667  -11.4363 C   0  0  0  0  0  0  0  0  0  0  0  0
  -12.9856   -8.2999  -11.8716 C   0  0  0  0  0  0  0  0  0  0  0  0
  -13.7824   -8.7479  -12.9207 C   0  0  0  0  0  0  0  0  0  0  0  0
  -14.6919   -7.8945  -13.5364 C   0  0  0  0  0  0  0  0  0  0  0  0
  -14.7495   -6.5584  -13.1040 C   0  0  0  0  0  0  0  0  0  0  0  0
  -15.7504   -5.3000  -13.6854 S   0  0  0  0  0  0  0  0  0  0  0  0
  -20.5270    0.4310  -14.7928 O   0  0  0  0  0  0  0  0  0  0  0  0
  -21.4221    0.5877  -13.7071 C   0  0  0  0  0  0  0  0  0  0  0  0
 11 12  1  0  0  0
 12  1  1  0  0  0
  1  2  1  0  0  0
  1 10  2  0  0  0
  2  3  2  0  0  0
  3  4  1  0  0  0
  3  8  1  0  0  0
  4  5  2  0  0  0
  5 13  1  0  0  0
  5  6  1  0  0  0
 13 15  1  0  0  0
 13 14  1  0  0  0
 15 16  1  0  0  0
 15 20  2  0  0  0
 16 17  2  0  0  0
 17 18  1  0  0  0
 17 19  1  0  0  0
 19 20  1  0  0  0
 19 21  1  0  0  0
  6  7  2  0  0  0
  7 22  1  0  0  0
  7  8  1  0  0  0
 22 24  1  0  0  0
 22 23  1  0  0  0
 24 25  1  0  0  0
 24 29  2  0  0  0
 25 26  2  0  0  0
 26 27  1  0  0  0
 27 28  2  0  0  0
 28 30  1  0  0  0
 28 29  1  0  0  0
 30 31  2  0  0  0
 30 38  1  0  0  0
 31 32  1  0  0  0
 32 33  1  0  0  0
 32 37  2  0  0  0
 33 34  2  0  0  0
 34 35  1  0  0  0
 35 36  2  0  0  0
 36 37  1  0  0  0
 37 38  1  0  0  0
  8  9  2  0  0  0
  9 10  1  0  0  0
 10 39  1  0  0  0
 39 40  1  0  0  0
M  END
> <minimizedAffinity>
-8.94096

$$$$
