CHEMBL525527


 33 36  0  0  0  0  0  0  0  0999 V2000
  -29.9749   -6.3288   -7.0632 N   0  0  0  0  0  0  0  0  0  0  0  0
  -29.9164   -5.8458   -7.9537 H   0  0  0  0  0  0  0  0  0  0  0  0
  -28.4549   -1.5346   -6.1532 C   0  0  0  0  0  0  0  0  0  0  0  0
  -29.2907   -1.9499   -5.1099 C   0  0  0  0  0  0  0  0  0  0  0  0
  -29.8610   -3.2161   -5.0787 C   0  0  0  0  0  0  0  0  0  0  0  0
  -30.6630   -3.5236   -4.0573 N   0  0  0  0  0  0  0  0  0  0  0  0
  -31.1904   -4.7465   -4.0810 C   0  0  0  0  0  0  0  0  0  0  0  0
  -32.2418   -5.1506   -2.7987 Cl  0  0  0  0  0  0  0  0  0  0  0  0
  -31.0038   -5.6861   -5.0045 N   0  0  0  0  0  0  0  0  0  0  0  0
  -30.1959   -5.3714   -6.0290 C   0  0  0  0  0  0  0  0  0  0  0  0
  -29.5776   -4.1079   -6.1231 C   0  0  0  0  0  0  0  0  0  0  0  0
  -28.7094   -3.7005   -7.1672 C   0  0  0  0  0  0  0  0  0  0  0  0
  -28.1411   -2.4248   -7.1837 C   0  0  0  0  0  0  0  0  0  0  0  0
  -28.9120    0.7725   -6.3906 C   0  0  0  0  0  0  0  0  0  0  0  0
  -27.9897   -0.2510   -6.0242 O   0  0  0  0  0  0  0  0  0  0  0  0
  -27.2148   -2.0492   -8.1157 O   0  0  0  0  0  0  0  0  0  0  0  0
  -27.6884   -1.8958   -9.4479 C   0  0  0  0  0  0  0  0  0  0  0  0
  -29.0821   -7.4279   -7.0379 C   0  0  0  0  0  0  0  0  0  0  0  0
  -28.6334   -8.0087   -5.8462 C   0  0  0  0  0  0  0  0  0  0  0  0
  -27.7056   -9.0500   -5.8565 C   0  0  0  0  0  0  0  0  0  0  0  0
  -27.2628   -9.5681   -7.0731 C   0  0  0  0  0  0  0  0  0  0  0  0
  -27.7621   -9.0677   -8.2756 C   0  0  0  0  0  0  0  0  0  0  0  0
  -28.6834   -8.0149   -8.2518 C   0  0  0  0  0  0  0  0  0  0  0  0
  -25.9473  -10.7590   -7.0673 S   0  0  0  0  0  0  0  0  0  0  0  0
  -26.1839  -11.6580   -5.9559 O   0  0  0  0  0  0  0  0  0  0  0  0
  -25.8083  -11.2637   -8.4163 O   0  0  0  0  0  0  0  0  0  0  0  0
  -24.6170   -9.8166   -6.6137 N   0  0  0  0  0  0  0  0  0  0  0  0
  -24.9428   -9.2488   -5.8309 H   0  0  0  0  0  0  0  0  0  0  0  0
  -23.5404  -10.6147   -6.1728 C   0  0  0  0  0  0  0  0  0  0  0  0
  -23.2161  -10.5999   -4.9057 N   0  0  0  0  0  0  0  0  0  0  0  0
  -22.1548  -11.4651   -4.7094 C   0  0  0  0  0  0  0  0  0  0  0  0
  -21.6189  -12.0205   -5.8530 C   0  0  0  0  0  0  0  0  0  0  0  0
  -22.5180  -11.4992   -7.2181 S   0  0  0  0  0  0  0  0  0  0  0  0
 14 15  1  0  0  0
 15  3  1  0  0  0
  3  4  1  0  0  0
  3 13  2  0  0  0
  4  5  2  0  0  0
  5  6  1  0  0  0
  5 11  1  0  0  0
  6  7  2  0  0  0
  7  8  1  0  0  0
  7  9  1  0  0  0
  9 10  2  0  0  0
 10  1  1  0  0  0
 10 11  1  0  0  0
  1 18  1  0  0  0
  1  2  1  0  0  0
 18 19  1  0  0  0
 18 23  2  0  0  0
 19 20  2  0  0  0
 20 21  1  0  0  0
 21 24  1  0  0  0
 21 22  2  0  0  0
 24 25  2  0  0  0
 24 26  2  0  0  0
 24 27  1  0  0  0
 27 29  1  0  0  0
 27 28  1  0  0  0
 29 30  2  0  0  0
 29 33  1  0  0  0
 30 31  1  0  0  0
 31 32  2  0  0  0
 32 33  1  0  0  0
 22 23  1  0  0  0
 11 12  2  0  0  0
 12 13  1  0  0  0
 13 16  1  0  0  0
 16 17  1  0  0  0
M  END
> <minimizedAffinity>
-8.34458

$$$$
