CHEMBL197186


 38 42  0  0  0  0  0  0  0  0999 V2000
  -27.5458   -9.3258   -5.4385 C   0  0  0  0  0  0  0  0  0  0  0  0
  -27.4305  -10.0962   -4.3288 N   0  0  0  0  0  0  0  0  0  0  0  0
  -28.0650   -9.6897   -3.2333 C   0  0  0  0  0  0  0  0  0  0  0  0
  -28.7590   -8.5654   -3.1226 N   0  0  0  0  0  0  0  0  0  0  0  0
  -28.8789   -7.8200   -4.2277 C   0  0  0  0  0  0  0  0  0  0  0  0
  -29.5544   -6.6332   -4.0635 C   0  0  0  0  0  0  0  0  0  0  0  0
  -29.7534   -5.7488   -5.1233 C   0  0  0  0  0  0  0  0  0  0  0  0
  -29.3089   -6.1025   -6.3884 C   0  0  0  0  0  0  0  0  0  0  0  0
  -28.6377   -7.3129   -6.5976 C   0  0  0  0  0  0  0  0  0  0  0  0
  -28.3456   -8.1610   -5.4765 C   0  0  0  0  0  0  0  0  0  0  0  0
  -26.6813   -9.6247   -6.5111 N   0  0  0  0  0  0  0  0  0  0  0  0
  -27.0690   -9.4278   -7.4281 H   0  0  0  0  0  0  0  0  0  0  0  0
  -23.4280  -10.9114   -5.2995 C   0  0  0  0  0  0  0  0  0  0  0  0
  -24.6104  -10.1930   -5.3503 C   0  0  0  0  0  0  0  0  0  0  0  0
  -25.4651  -10.3329   -6.4548 C   0  0  0  0  0  0  0  0  0  0  0  0
  -25.0880  -11.2365   -7.4537 C   0  0  0  0  0  0  0  0  0  0  0  0
  -26.0363  -11.4857   -8.8679 Cl  0  0  0  0  0  0  0  0  0  0  0  0
  -23.9009  -11.9481   -7.2895 C   0  0  0  0  0  0  0  0  0  0  0  0
  -23.0598  -11.8025   -6.2432 N   0  0  0  0  0  0  0  0  0  0  0  0
  -21.7361  -11.7341   -3.9106 C   0  0  0  0  0  0  0  0  0  0  0  0
  -22.5793  -10.6354   -4.2497 O   0  0  0  0  0  0  0  0  0  0  0  0
  -30.3715   -4.5349   -5.0283 O   0  0  0  0  0  0  0  0  0  0  0  0
  -30.7624   -4.1244   -3.7135 C   0  0  0  0  0  0  0  0  0  0  0  0
  -29.8546   -2.9921   -3.2520 C   0  0  0  0  0  0  0  0  0  0  0  0
  -29.6474   -1.9348   -4.3416 C   0  0  0  0  0  0  0  0  0  0  0  0
  -28.2356   -1.5424   -4.4913 N   0  0  0  0  0  0  0  0  0  0  0  0
  -28.0337   -0.1353   -4.9028 C   0  0  0  0  0  0  0  0  0  0  0  0
  -28.3557    0.1612   -6.3791 C   0  0  0  0  0  0  0  0  0  0  0  0
  -27.6750   -0.7306   -7.2703 O   0  0  0  0  0  0  0  0  0  0  0  0
  -27.9469   -2.0973   -6.9381 C   0  0  0  0  0  0  0  0  0  0  0  0
  -27.5464   -2.4002   -5.4844 C   0  0  0  0  0  0  0  0  0  0  0  0
  -28.2326   -7.7320   -7.8436 O   0  0  0  0  0  0  0  0  0  0  0  0
  -29.1936   -8.3953   -8.6967 C   0  0  0  0  0  0  0  0  0  0  0  0
  -30.2020   -9.2096   -7.8740 C   0  0  0  0  0  0  0  0  0  0  0  0
  -30.9678  -10.2080   -8.7275 C   0  0  0  0  0  0  0  0  0  0  0  0
  -30.0726  -11.0198   -9.4795 O   0  0  0  0  0  0  0  0  0  0  0  0
  -29.3183  -10.2477  -10.4088 C   0  0  0  0  0  0  0  0  0  0  0  0
  -28.4085   -9.2773   -9.6735 C   0  0  0  0  0  0  0  0  0  0  0  0
 20 21  1  0  0  0
 21 13  1  0  0  0
 13 14  1  0  0  0
 13 19  2  0  0  0
 14 15  2  0  0  0
 15 11  1  0  0  0
 15 16  1  0  0  0
 11  1  1  0  0  0
 11 12  1  0  0  0
  1  2  1  0  0  0
  1 10  2  0  0  0
  2  3  2  0  0  0
  3  4  1  0  0  0
  4  5  2  0  0  0
  5  6  1  0  0  0
  5 10  1  0  0  0
  6  7  2  0  0  0
  7 22  1  0  0  0
  7  8  1  0  0  0
 22 23  1  0  0  0
 23 24  1  0  0  0
 24 25  1  0  0  0
 25 26  1  0  0  0
 26 27  1  0  0  0
 26 31  1  0  0  0
 27 28  1  0  0  0
 28 29  1  0  0  0
 29 30  1  0  0  0
 30 31  1  0  0  0
  8  9  2  0  0  0
  9 32  1  0  0  0
  9 10  1  0  0  0
 32 33  1  0  0  0
 33 34  1  0  0  0
 33 38  1  0  0  0
 34 35  1  0  0  0
 35 36  1  0  0  0
 36 37  1  0  0  0
 37 38  1  0  0  0
 16 17  1  0  0  0
 16 18  2  0  0  0
 18 19  1  0  0  0
M  END
> <minimizedAffinity>
-8.22642

$$$$
