CHEMBL3969815


 34 38  0  0  0  0  0  0  0  0999 V2000
  -27.7932   -2.2652   -9.0261 N   0  0  0  0  0  0  0  0  0  0  0  0
  -26.9522   -1.8574  -10.2123 C   0  0  0  0  0  0  0  0  0  0  0  0
  -25.7725   -1.3033   -9.8107 C   0  0  0  0  0  0  0  0  0  0  0  0
  -24.8963   -0.9519  -10.6402 C   0  0  0  0  0  0  0  0  0  0  0  0
  -25.0080   -1.0332  -11.9036 C   0  0  0  0  0  0  0  0  0  0  0  0
  -24.1106   -0.5067  -12.3258 N   0  0  0  0  0  0  0  0  0  0  0  0
  -23.2435    0.0148  -12.6862 C   0  0  0  0  0  0  0  0  0  0  0  0
  -23.3387   -0.1594  -14.0172 C   0  0  0  0  0  0  0  0  0  0  0  0
  -24.9124   -0.9692  -14.2383 N   0  0  0  0  0  0  0  0  0  0  0  0
  -25.8470   -1.4103  -12.8576 C   0  0  0  0  0  0  0  0  0  0  0  0
  -27.1628   -1.9816  -11.7680 C   0  0  0  0  0  0  0  0  0  0  0  0
  -21.6987    0.6902  -14.4072 C   0  0  0  0  0  0  0  0  0  0  0  0
  -20.4348    0.4464  -15.1786 C   0  0  0  0  0  0  0  0  0  0  0  0
  -19.7731    1.6407  -15.4694 N   0  0  0  0  0  0  0  0  0  0  0  0
  -20.4390    2.6671  -14.9742 N   0  0  0  0  0  0  0  0  0  0  0  0
  -21.5852    2.1925  -14.3650 C   0  0  0  0  0  0  0  0  0  0  0  0
  -20.1285    3.6864  -15.1065 H   0  0  0  0  0  0  0  0  0  0  0  0
  -28.7164    0.4256   -6.6185 C   0  0  0  0  0  0  0  0  0  0  0  0
  -28.3669   -0.1170   -5.4750 C   0  0  0  0  0  0  0  0  0  0  0  0
  -27.8734   -1.3512   -5.4049 C   0  0  0  0  0  0  0  0  0  0  0  0
  -27.6623   -2.0393   -6.5747 C   0  0  0  0  0  0  0  0  0  0  0  0
  -27.8952   -1.4487   -7.8078 C   0  0  0  0  0  0  0  0  0  0  0  0
  -28.2753   -0.0754   -7.7351 C   0  0  0  0  0  0  0  0  0  0  0  0
  -30.6229    1.3321   -5.8736 C   0  0  0  0  0  0  0  0  0  0  0  0
  -29.5220    1.4770   -6.6202 O   0  0  0  0  0  0  0  0  0  0  0  0
  -27.7413   -1.9048   -4.1951 O   0  0  0  0  0  0  0  0  0  0  0  0
  -28.8110   -2.5057   -3.5500 C   0  0  0  0  0  0  0  0  0  0  0  0
  -28.0584   -3.6944   -8.9369 C   0  0  0  0  0  0  0  0  0  0  0  0
  -28.9892   -4.1827   -7.8245 C   0  0  0  0  0  0  0  0  0  0  0  0
  -28.6324   -5.3033   -6.9946 N   0  0  0  0  0  0  0  0  0  0  0  0
  -28.9911   -6.5593   -7.7027 C   0  0  0  0  0  0  0  0  0  0  0  0
  -30.4717   -6.7483   -7.4204 C   0  0  0  0  0  0  0  0  0  0  0  0
  -30.5772   -6.2785   -5.9797 C   0  0  0  0  0  0  0  0  0  0  0  0
  -29.4641   -5.2852   -5.8047 C   0  0  0  0  0  0  0  0  0  0  0  0
 24 25  1  0  0  0
 25 18  1  0  0  0
 18 19  1  0  0  0
 18 23  2  0  0  0
 19 20  2  0  0  0
 20 26  1  0  0  0
 20 21  1  0  0  0
 26 27  1  0  0  0
 21 22  2  0  0  0
 22  1  1  0  0  0
 22 23  1  0  0  0
  1 28  1  0  0  0
  1  2  1  0  0  0
 28 29  1  0  0  0
 29 30  1  0  0  0
 30 31  1  0  0  0
 30 34  1  0  0  0
 31 32  1  0  0  0
 32 33  1  0  0  0
 33 34  1  0  0  0
  2  3  1  0  0  0
  2 11  2  0  0  0
  3  4  2  0  0  0
  4  5  1  0  0  0
  5  6  1  0  0  0
  5 10  2  0  0  0
  6  7  2  0  0  0
  7  8  1  0  0  0
  8 12  1  0  0  0
  8  9  2  0  0  0
 12 13  1  0  0  0
 12 16  2  0  0  0
 13 14  2  0  0  0
 14 15  1  0  0  0
 15 16  1  0  0  0
 15 17  1  0  0  0
  9 10  1  0  0  0
 10 11  1  0  0  0
M  END
> <minimizedAffinity>
-8.55250

$$$$
