CHEMBL3612234


 33 36  0  0  0  0  0  0  0  0999 V2000
  -16.3286    0.9813  -13.2808 O   0  0  0  0  0  0  0  0  0  0  0  0
  -16.2275    0.7661  -14.4837 C   0  0  0  0  0  0  0  0  0  0  0  0
  -15.0893    0.2579  -15.0921 N   0  0  0  0  0  0  0  0  0  0  0  0
  -17.2327    1.0319  -15.4025 N   0  0  0  0  0  0  0  0  0  0  0  0
  -15.0412    0.3100  -16.0986 H   0  0  0  0  0  0  0  0  0  0  0  0
  -17.0776    0.7251  -16.3505 H   0  0  0  0  0  0  0  0  0  0  0  0
  -18.4841    1.6317  -15.1196 C   0  0  0  0  0  0  0  0  0  0  0  0
  -18.7368    2.9967  -15.2464 C   0  0  0  0  0  0  0  0  0  0  0  0
  -19.9896    3.5266  -14.9260 C   0  0  0  0  0  0  0  0  0  0  0  0
  -21.0243    2.6979  -14.4923 C   0  0  0  0  0  0  0  0  0  0  0  0
  -22.5101    3.4770  -14.0952 Cl  0  0  0  0  0  0  0  0  0  0  0  0
  -20.8188    1.3198  -14.3965 C   0  0  0  0  0  0  0  0  0  0  0  0
  -19.5305    0.8034  -14.6980 C   0  0  0  0  0  0  0  0  0  0  0  0
  -21.8911    0.3296  -14.0237 C   0  0  0  0  0  0  0  0  0  0  0  0
  -23.1316    0.5511  -14.5275 F   0  0  0  0  0  0  0  0  0  0  0  0
  -21.5581   -0.9318  -14.4252 F   0  0  0  0  0  0  0  0  0  0  0  0
  -22.0553    0.2430  -12.6717 F   0  0  0  0  0  0  0  0  0  0  0  0
  -13.8802   -0.0627  -14.4229 C   0  0  0  0  0  0  0  0  0  0  0  0
  -12.9065    0.8919  -14.1101 C   0  0  0  0  0  0  0  0  0  0  0  0
  -11.6782    0.5144  -13.5695 C   0  0  0  0  0  0  0  0  0  0  0  0
  -11.4241   -0.8248  -13.2927 C   0  0  0  0  0  0  0  0  0  0  0  0
  -12.4167   -1.7838  -13.5127 C   0  0  0  0  0  0  0  0  0  0  0  0
  -13.6374   -1.4015  -14.0896 C   0  0  0  0  0  0  0  0  0  0  0  0
  -12.0902   -3.4977  -13.1373 S   0  0  0  0  0  0  0  0  0  0  0  0
  -13.3339   -3.8459  -11.9117 C   0  0  0  0  0  0  0  0  0  0  0  0
  -13.0904   -3.6534  -10.5508 C   0  0  0  0  0  0  0  0  0  0  0  0
  -14.0690   -3.9920   -9.6368 C   0  0  0  0  0  0  0  0  0  0  0  0
  -15.2713   -4.5042   -9.9443 N   0  0  0  0  0  0  0  0  0  0  0  0
  -15.5124   -4.6971  -11.2684 C   0  0  0  0  0  0  0  0  0  0  0  0
  -16.7283   -5.2263  -11.7923 C   0  0  0  0  0  0  0  0  0  0  0  0
  -16.7126   -5.3223  -13.1631 C   0  0  0  0  0  0  0  0  0  0  0  0
  -15.2337   -4.7838  -13.8230 S   0  0  0  0  0  0  0  0  0  0  0  0
  -14.5841   -4.3908  -12.2696 C   0  0  0  0  0  0  0  0  0  0  0  0
  1  2  2  0  0  0
  2  3  1  0  0  0
  2  4  1  0  0  0
  3 18  1  0  0  0
  3  5  1  0  0  0
 18 19  1  0  0  0
 18 23  2  0  0  0
 19 20  2  0  0  0
 20 21  1  0  0  0
 21 22  2  0  0  0
 22 24  1  0  0  0
 22 23  1  0  0  0
 24 25  1  0  0  0
 25 26  1  0  0  0
 25 33  2  0  0  0
 26 27  2  0  0  0
 27 28  1  0  0  0
 28 29  2  0  0  0
 29 30  1  0  0  0
 29 33  1  0  0  0
 30 31  2  0  0  0
 31 32  1  0  0  0
 32 33  1  0  0  0
  4  7  1  0  0  0
  4  6  1  0  0  0
  7  8  1  0  0  0
  7 13  2  0  0  0
  8  9  2  0  0  0
  9 10  1  0  0  0
 10 11  1  0  0  0
 10 12  2  0  0  0
 12 14  1  0  0  0
 12 13  1  0  0  0
 14 15  1  0  0  0
 14 16  1  0  0  0
 14 17  1  0  0  0
M  END
> <minimizedAffinity>
-9.71602

$$$$
