CHEMBL189862


 42 45  0  0  0  0  0  0  0  0999 V2000
  -28.0354   -2.5666   -8.7954 C   0  0  0  0  0  0  0  0  0  0  0  0
  -28.4821   -3.8208   -8.3781 C   0  0  0  0  0  0  0  0  0  0  0  0
  -28.8837   -4.0305   -7.0558 C   0  0  0  0  0  0  0  0  0  0  0  0
  -28.8736   -2.9956   -6.1065 C   0  0  0  0  0  0  0  0  0  0  0  0
  -28.3655   -1.7555   -6.5336 C   0  0  0  0  0  0  0  0  0  0  0  0
  -27.9281   -1.5447   -7.8562 C   0  0  0  0  0  0  0  0  0  0  0  0
  -26.4489   -1.4489  -11.8668 N   0  0  0  0  0  0  0  0  0  0  0  0
  -26.6042   -1.6293  -10.5023 C   0  0  0  0  0  0  0  0  0  0  0  0
  -25.7901   -1.2816   -9.6526 O   0  0  0  0  0  0  0  0  0  0  0  0
  -27.7747   -2.3057  -10.1683 N   0  0  0  0  0  0  0  0  0  0  0  0
  -27.2610   -1.5941  -12.4486 H   0  0  0  0  0  0  0  0  0  0  0  0
  -28.0421   -3.0270  -10.8226 H   0  0  0  0  0  0  0  0  0  0  0  0
  -22.9884    0.1710  -13.7354 C   0  0  0  0  0  0  0  0  0  0  0  0
  -23.7823   -0.7476  -14.4098 C   0  0  0  0  0  0  0  0  0  0  0  0
  -24.9082   -1.2904  -13.7911 C   0  0  0  0  0  0  0  0  0  0  0  0
  -25.2796   -0.9432  -12.4873 C   0  0  0  0  0  0  0  0  0  0  0  0
  -24.4665   -0.0307  -11.8037 C   0  0  0  0  0  0  0  0  0  0  0  0
  -23.3297    0.5228  -12.4195 C   0  0  0  0  0  0  0  0  0  0  0  0
  -21.6397    2.2823  -14.3503 C   0  0  0  0  0  0  0  0  0  0  0  0
  -21.8029    0.7812  -14.4033 C   0  0  0  0  0  0  0  0  0  0  0  0
  -20.9816    0.0619  -14.9653 O   0  0  0  0  0  0  0  0  0  0  0  0
  -29.3854   -3.2163   -4.8110 N   0  0  0  0  0  0  0  0  0  0  0  0
  -29.5413   -2.0882   -3.8946 C   0  0  0  0  0  0  0  0  0  0  0  0
  -29.8581   -4.4416   -4.2566 C   0  0  0  0  0  0  0  0  0  0  0  0
  -31.2033   -4.5733   -3.9532 C   0  0  0  0  0  0  0  0  0  0  0  0
  -31.6091   -5.7615   -3.4163 C   0  0  0  0  0  0  0  0  0  0  0  0
  -30.7688   -6.7782   -3.1846 N   0  0  0  0  0  0  0  0  0  0  0  0
  -29.4796   -6.5983   -3.4942 C   0  0  0  0  0  0  0  0  0  0  0  0
  -28.9907   -5.4531   -4.0016 N   0  0  0  0  0  0  0  0  0  0  0  0
  -28.5890   -7.6557   -3.2773 N   0  0  0  0  0  0  0  0  0  0  0  0
  -27.9940   -7.4608   -2.4841 H   0  0  0  0  0  0  0  0  0  0  0  0
  -28.0279   -8.4914   -4.2619 C   0  0  0  0  0  0  0  0  0  0  0  0
  -26.6689   -8.8099   -4.2211 C   0  0  0  0  0  0  0  0  0  0  0  0
  -26.1194   -9.6870   -5.1623 C   0  0  0  0  0  0  0  0  0  0  0  0
  -26.9168  -10.2382   -6.1701 C   0  0  0  0  0  0  0  0  0  0  0  0
  -28.2761   -9.9210   -6.2493 C   0  0  0  0  0  0  0  0  0  0  0  0
  -28.8046   -9.0331   -5.2993 C   0  0  0  0  0  0  0  0  0  0  0  0
  -29.1697  -10.4293   -7.3498 C   0  0  0  0  0  0  0  0  0  0  0  0
  -29.6709   -9.1516   -8.4962 S   0  0  0  0  0  0  0  0  0  0  0  0
  -28.3161   -8.0011   -8.5433 C   0  0  0  0  0  0  0  0  0  0  0  0
  -29.7362   -9.7696   -9.8107 O   0  0  0  0  0  0  0  0  0  0  0  0
  -30.8349   -8.4589   -7.9747 O   0  0  0  0  0  0  0  0  0  0  0  0
 19 20  1  0  0  0
 20 21  2  0  0  0
 20 13  1  0  0  0
 13 14  1  0  0  0
 13 18  2  0  0  0
 14 15  2  0  0  0
 15 16  1  0  0  0
 16  7  1  0  0  0
 16 17  2  0  0  0
  7  8  1  0  0  0
  7 11  1  0  0  0
  8  9  2  0  0  0
  8 10  1  0  0  0
 10  1  1  0  0  0
 10 12  1  0  0  0
  1  2  1  0  0  0
  1  6  2  0  0  0
  2  3  2  0  0  0
  3  4  1  0  0  0
  4 22  1  0  0  0
  4  5  2  0  0  0
 22 23  1  0  0  0
 22 24  1  0  0  0
 24 25  1  0  0  0
 24 29  2  0  0  0
 25 26  2  0  0  0
 26 27  1  0  0  0
 27 28  2  0  0  0
 28 30  1  0  0  0
 28 29  1  0  0  0
 30 32  1  0  0  0
 30 31  1  0  0  0
 32 33  1  0  0  0
 32 37  2  0  0  0
 33 34  2  0  0  0
 34 35  1  0  0  0
 35 36  2  0  0  0
 36 38  1  0  0  0
 36 37  1  0  0  0
 38 39  1  0  0  0
 39 40  1  0  0  0
 39 41  2  0  0  0
 39 42  2  0  0  0
  5  6  1  0  0  0
 17 18  1  0  0  0
M  END
> <minimizedAffinity>
-10.69798

$$$$
