CHEMBL3966952


 42 46  0  0  0  0  0  0  0  0999 V2000
  -24.4789  -12.4660   -4.0985 O   0  0  0  0  0  0  0  0  0  0  0  0
  -25.7260  -11.6529   -8.4151 C   0  0  0  0  0  0  0  0  0  0  0  0
  -24.3834  -11.7744   -8.7398 C   0  0  0  0  0  0  0  0  0  0  0  0
  -23.5619  -12.0761   -7.6126 C   0  0  0  0  0  0  0  0  0  0  0  0
  -22.2040  -12.1468   -7.6110 N   0  0  0  0  0  0  0  0  0  0  0  0
  -21.6295  -12.3083   -6.4025 C   0  0  0  0  0  0  0  0  0  0  0  0
  -22.3050  -12.4030   -5.1999 C   0  0  0  0  0  0  0  0  0  0  0  0
  -23.6955  -12.4214   -5.2234 C   0  0  0  0  0  0  0  0  0  0  0  0
  -24.3224  -12.2504   -6.4627 C   0  0  0  0  0  0  0  0  0  0  0  0
  -25.9916  -12.2506   -6.8385 S   0  0  0  0  0  0  0  0  0  0  0  0
  -30.4914  -10.8919   -8.9954 C   0  0  0  0  0  0  0  0  0  0  0  0
  -30.1021  -11.7628   -7.7985 C   0  0  0  0  0  0  0  0  0  0  0  0
  -28.6709  -11.3195   -7.5290 C   0  0  0  0  0  0  0  0  0  0  0  0
  -28.1250  -11.1879   -8.8689 N   0  0  0  0  0  0  0  0  0  0  0  0
  -26.8047  -11.2525   -9.3158 C   0  0  0  0  0  0  0  0  0  0  0  0
  -26.5501  -10.9275  -10.4786 O   0  0  0  0  0  0  0  0  0  0  0  0
  -29.1845  -10.7624   -9.7842 C   0  0  0  0  0  0  0  0  0  0  0  0
  -31.0194   -9.5568   -8.5194 C   0  0  0  0  0  0  0  0  0  0  0  0
  -30.3204   -8.5940   -8.2253 O   0  0  0  0  0  0  0  0  0  0  0  0
  -32.8539   -8.8382   -7.2784 C   0  0  0  0  0  0  0  0  0  0  0  0
  -32.3759   -9.5841   -8.4004 O   0  0  0  0  0  0  0  0  0  0  0  0
  -25.4177  -11.4961   -3.8791 C   0  0  0  0  0  0  0  0  0  0  0  0
  -24.9263  -10.1919   -3.8974 C   0  0  0  0  0  0  0  0  0  0  0  0
  -25.7885   -9.1203   -3.6940 C   0  0  0  0  0  0  0  0  0  0  0  0
  -27.1518   -9.3274   -3.4511 C   0  0  0  0  0  0  0  0  0  0  0  0
  -27.6335  -10.6399   -3.4877 C   0  0  0  0  0  0  0  0  0  0  0  0
  -28.9380  -10.8747   -3.2661 F   0  0  0  0  0  0  0  0  0  0  0  0
  -26.7862  -11.7206   -3.7144 C   0  0  0  0  0  0  0  0  0  0  0  0
  -28.0559   -8.2799   -3.1584 N   0  0  0  0  0  0  0  0  0  0  0  0
  -28.2181   -7.1601   -3.9426 C   0  0  0  0  0  0  0  0  0  0  0  0
  -27.5835   -6.9404   -4.9696 O   0  0  0  0  0  0  0  0  0  0  0  0
  -29.1537   -6.2657   -3.4409 N   0  0  0  0  0  0  0  0  0  0  0  0
  -28.5209   -8.3163   -2.2608 H   0  0  0  0  0  0  0  0  0  0  0  0
  -29.0792   -6.1170   -2.4421 H   0  0  0  0  0  0  0  0  0  0  0  0
  -29.3552   -5.0811   -4.2003 C   0  0  0  0  0  0  0  0  0  0  0  0
  -28.5284   -3.9662   -4.0083 C   0  0  0  0  0  0  0  0  0  0  0  0
  -28.8742   -2.7221   -4.5451 C   0  0  0  0  0  0  0  0  0  0  0  0
  -28.0455   -1.5094   -4.2378 C   0  0  0  0  0  0  0  0  0  0  0  0
  -30.0537   -2.6109   -5.2933 C   0  0  0  0  0  0  0  0  0  0  0  0
  -30.8447   -3.7372   -5.5431 C   0  0  0  0  0  0  0  0  0  0  0  0
  -30.4792   -4.9707   -5.0139 C   0  0  0  0  0  0  0  0  0  0  0  0
  -31.2798   -6.0322   -5.1960 F   0  0  0  0  0  0  0  0  0  0  0  0
 20 21  1  0  0  0
 21 18  1  0  0  0
 18 19  2  0  0  0
 18 11  1  0  0  0
 11 12  1  0  0  0
 11 17  1  0  0  0
 12 13  1  0  0  0
 13 14  1  0  0  0
 14 15  1  0  0  0
 14 17  1  0  0  0
 15 16  2  0  0  0
 15  2  1  0  0  0
  2  3  2  0  0  0
  2 10  1  0  0  0
  3  4  1  0  0  0
  4  5  1  0  0  0
  4  9  2  0  0  0
  5  6  2  0  0  0
  6  7  1  0  0  0
  7  8  2  0  0  0
  8  1  1  0  0  0
  8  9  1  0  0  0
  1 22  1  0  0  0
 22 23  1  0  0  0
 22 28  2  0  0  0
 23 24  2  0  0  0
 24 25  1  0  0  0
 25 29  1  0  0  0
 25 26  2  0  0  0
 29 30  1  0  0  0
 29 33  1  0  0  0
 30 31  2  0  0  0
 30 32  1  0  0  0
 32 35  1  0  0  0
 32 34  1  0  0  0
 35 36  1  0  0  0
 35 41  2  0  0  0
 36 37  2  0  0  0
 37 38  1  0  0  0
 37 39  1  0  0  0
 39 40  2  0  0  0
 40 41  1  0  0  0
 41 42  1  0  0  0
 26 27  1  0  0  0
 26 28  1  0  0  0
  9 10  1  0  0  0
M  END
> <minimizedAffinity>
-9.15427

$$$$
