CHEMBL3977680


 38 41  0  0  0  0  0  0  0  0999 V2000
  -19.5639    2.1462  -15.1502 C   0  0  0  0  0  0  0  0  0  0  0  0
  -20.3025    3.2224  -14.6497 C   0  0  0  0  0  0  0  0  0  0  0  0
  -21.5539    3.0234  -14.0567 C   0  0  0  0  0  0  0  0  0  0  0  0
  -22.0873    1.7399  -13.9557 C   0  0  0  0  0  0  0  0  0  0  0  0
  -21.3710    0.6597  -14.4780 C   0  0  0  0  0  0  0  0  0  0  0  0
  -20.1024    0.8635  -15.0197 C   0  0  0  0  0  0  0  0  0  0  0  0
  -19.4067   -0.1983  -15.4574 F   0  0  0  0  0  0  0  0  0  0  0  0
  -16.9644    1.5270  -14.1278 O   0  0  0  0  0  0  0  0  0  0  0  0
  -17.0938    2.0141  -15.2426 C   0  0  0  0  0  0  0  0  0  0  0  0
  -16.0294    2.4125  -16.0367 N   0  0  0  0  0  0  0  0  0  0  0  0
  -18.3219    2.2887  -15.8217 N   0  0  0  0  0  0  0  0  0  0  0  0
  -16.2444    2.9903  -16.8349 H   0  0  0  0  0  0  0  0  0  0  0  0
  -18.3449    2.8311  -16.6746 H   0  0  0  0  0  0  0  0  0  0  0  0
  -14.6683    2.3245  -15.6539 C   0  0  0  0  0  0  0  0  0  0  0  0
  -14.0106    1.1099  -15.4280 C   0  0  0  0  0  0  0  0  0  0  0  0
  -12.6906    1.0817  -14.9801 C   0  0  0  0  0  0  0  0  0  0  0  0
  -12.0136    2.2718  -14.7587 C   0  0  0  0  0  0  0  0  0  0  0  0
  -10.7543    2.2108  -14.3098 F   0  0  0  0  0  0  0  0  0  0  0  0
  -12.6266    3.4980  -14.9941 C   0  0  0  0  0  0  0  0  0  0  0  0
  -13.9565    3.5161  -15.4664 C   0  0  0  0  0  0  0  0  0  0  0  0
  -11.8992    4.7809  -14.7278 C   0  0  0  0  0  0  0  0  0  0  0  0
  -12.6558    5.9073  -14.8084 F   0  0  0  0  0  0  0  0  0  0  0  0
  -11.3351    4.7998  -13.4871 F   0  0  0  0  0  0  0  0  0  0  0  0
  -10.8664    4.9689  -15.5991 F   0  0  0  0  0  0  0  0  0  0  0  0
  -23.3334    1.6433  -13.3698 O   0  0  0  0  0  0  0  0  0  0  0  0
  -23.9755    0.4221  -13.3311 C   0  0  0  0  0  0  0  0  0  0  0  0
  -24.1807   -0.3687  -14.4589 C   0  0  0  0  0  0  0  0  0  0  0  0
  -24.9142   -1.5191  -14.3070 C   0  0  0  0  0  0  0  0  0  0  0  0
  -25.3663   -1.9527  -13.1192 N   0  0  0  0  0  0  0  0  0  0  0  0
  -25.0881   -1.2429  -12.0102 C   0  0  0  0  0  0  0  0  0  0  0  0
  -24.3969   -0.0372  -12.0765 C   0  0  0  0  0  0  0  0  0  0  0  0
  -25.5074   -1.7378  -10.7600 N   0  0  0  0  0  0  0  0  0  0  0  0
  -26.8243   -1.6998  -10.3323 C   0  0  0  0  0  0  0  0  0  0  0  0
  -27.7849   -1.2460  -10.9326 O   0  0  0  0  0  0  0  0  0  0  0  0
  -24.8147   -2.1505  -10.1632 H   0  0  0  0  0  0  0  0  0  0  0  0
  -27.1127   -2.2786   -8.9846 C   0  0  0  0  0  0  0  0  0  0  0  0
  -28.4805   -2.7196   -8.5334 C   0  0  0  0  0  0  0  0  0  0  0  0
  -27.8290   -1.5246   -7.8946 C   0  0  0  0  0  0  0  0  0  0  0  0
  8  9  2  0  0  0
  9 10  1  0  0  0
  9 11  1  0  0  0
 10 14  1  0  0  0
 10 12  1  0  0  0
 14 15  1  0  0  0
 14 20  2  0  0  0
 15 16  2  0  0  0
 16 17  1  0  0  0
 17 18  1  0  0  0
 17 19  2  0  0  0
 19 21  1  0  0  0
 19 20  1  0  0  0
 21 22  1  0  0  0
 21 23  1  0  0  0
 21 24  1  0  0  0
 11  1  1  0  0  0
 11 13  1  0  0  0
  1  2  1  0  0  0
  1  6  2  0  0  0
  2  3  2  0  0  0
  3  4  1  0  0  0
  4 25  1  0  0  0
  4  5  2  0  0  0
 25 26  1  0  0  0
 26 27  1  0  0  0
 26 31  2  0  0  0
 27 28  2  0  0  0
 28 29  1  0  0  0
 29 30  2  0  0  0
 30 32  1  0  0  0
 30 31  1  0  0  0
 32 33  1  0  0  0
 32 35  1  0  0  0
 33 34  2  0  0  0
 33 36  1  0  0  0
 36 37  1  0  0  0
 36 38  1  0  0  0
 37 38  1  0  0  0
  5  6  1  0  0  0
  6  7  1  0  0  0
M  END
> <minimizedAffinity>
-9.72362

$$$$
