CHEMBL1688344


 33 37  0  0  0  0  0  0  0  0999 V2000
  -27.9268   -1.9862   -9.6149 C   0  0  0  0  0  0  0  0  0  0  0  0
  -26.9893   -1.6528   -8.7504 N   0  0  0  0  0  0  0  0  0  0  0  0
  -27.2755   -2.3172   -7.5722 N   0  0  0  0  0  0  0  0  0  0  0  0
  -28.3508   -3.0390   -7.8060 C   0  0  0  0  0  0  0  0  0  0  0  0
  -28.8446   -2.8453   -9.0740 O   0  0  0  0  0  0  0  0  0  0  0  0
  -29.0300   -4.0489   -7.0021 C   0  0  0  0  0  0  0  0  0  0  0  0
  -29.6130   -5.1614   -7.6242 C   0  0  0  0  0  0  0  0  0  0  0  0
  -30.1657   -6.1806   -6.8571 C   0  0  0  0  0  0  0  0  0  0  0  0
  -30.1123   -6.0548   -5.4840 C   0  0  0  0  0  0  0  0  0  0  0  0
  -29.5624   -4.9987   -4.8477 N   0  0  0  0  0  0  0  0  0  0  0  0
  -29.0288   -4.0037   -5.5952 C   0  0  0  0  0  0  0  0  0  0  0  0
  -28.4329   -2.9381   -4.9267 N   0  0  0  0  0  0  0  0  0  0  0  0
  -27.7045   -2.5172   -5.5011 H   0  0  0  0  0  0  0  0  0  0  0  0
  -29.3156   -1.9534   -4.3148 C   0  0  0  0  0  0  0  0  0  0  0  0
  -29.2110   -0.6377   -5.0604 C   0  0  0  0  0  0  0  0  0  0  0  0
  -30.3647    0.0863   -5.3775 C   0  0  0  0  0  0  0  0  0  0  0  0
  -30.2351    1.2680   -6.0948 C   0  0  0  0  0  0  0  0  0  0  0  0
  -29.0533    1.7834   -6.4942 N   0  0  0  0  0  0  0  0  0  0  0  0
  -27.9480    1.0972   -6.1413 C   0  0  0  0  0  0  0  0  0  0  0  0
  -27.9745   -0.0872   -5.4222 C   0  0  0  0  0  0  0  0  0  0  0  0
  -28.0005   -1.6842  -10.9266 N   0  0  0  0  0  0  0  0  0  0  0  0
  -28.8434   -2.0065  -11.3872 H   0  0  0  0  0  0  0  0  0  0  0  0
  -21.8549   -0.0934  -13.0650 F   0  0  0  0  0  0  0  0  0  0  0  0
  -23.1017    0.3970  -13.2769 C   0  0  0  0  0  0  0  0  0  0  0  0
  -22.9687    1.6489  -13.7778 F   0  0  0  0  0  0  0  0  0  0  0  0
  -23.7506   -0.4214  -14.2587 O   0  0  0  0  0  0  0  0  0  0  0  0
  -24.8316   -0.8279  -13.5451 C   0  0  0  0  0  0  0  0  0  0  0  0
  -25.8250   -1.6686  -13.9980 C   0  0  0  0  0  0  0  0  0  0  0  0
  -26.8764   -1.9663  -13.1255 C   0  0  0  0  0  0  0  0  0  0  0  0
  -26.9509   -1.4148  -11.8265 C   0  0  0  0  0  0  0  0  0  0  0  0
  -25.8882   -0.5927  -11.3932 C   0  0  0  0  0  0  0  0  0  0  0  0
  -24.8593   -0.3138  -12.2714 C   0  0  0  0  0  0  0  0  0  0  0  0
  -23.7816    0.4797  -12.0148 O   0  0  0  0  0  0  0  0  0  0  0  0
 23 24  1  0  0  0
 24 25  1  0  0  0
 24 26  1  0  0  0
 24 33  1  0  0  0
 26 27  1  0  0  0
 27 28  1  0  0  0
 27 32  2  0  0  0
 28 29  2  0  0  0
 29 30  1  0  0  0
 30 21  1  0  0  0
 30 31  2  0  0  0
 21  1  1  0  0  0
 21 22  1  0  0  0
  1  2  2  0  0  0
  1  5  1  0  0  0
  2  3  1  0  0  0
  3  4  2  0  0  0
  4  6  1  0  0  0
  4  5  1  0  0  0
  6  7  1  0  0  0
  6 11  2  0  0  0
  7  8  2  0  0  0
  8  9  1  0  0  0
  9 10  2  0  0  0
 10 11  1  0  0  0
 11 12  1  0  0  0
 12 14  1  0  0  0
 12 13  1  0  0  0
 14 15  1  0  0  0
 15 16  1  0  0  0
 15 20  2  0  0  0
 16 17  2  0  0  0
 17 18  1  0  0  0
 18 19  2  0  0  0
 19 20  1  0  0  0
 31 32  1  0  0  0
 32 33  1  0  0  0
M  END
> <minimizedAffinity>
-10.50815

$$$$
