CHEMBL4285034


 49 54  0  0  0  0  0  0  0  0999 V2000
  -28.3581   -1.7966   -8.9184 C   0  0  0  0  0  0  0  0  0  0  0  0
  -27.4772   -2.8414   -9.2120 C   0  0  0  0  0  0  0  0  0  0  0  0
  -26.6125   -2.7383  -10.2886 C   0  0  0  0  0  0  0  0  0  0  0  0
  -26.6843   -1.6396  -11.1405 C   0  0  0  0  0  0  0  0  0  0  0  0
  -27.5613   -0.5883  -10.8498 C   0  0  0  0  0  0  0  0  0  0  0  0
  -28.4147   -0.6864   -9.7522 C   0  0  0  0  0  0  0  0  0  0  0  0
  -29.3138    0.2843   -9.5345 F   0  0  0  0  0  0  0  0  0  0  0  0
  -25.9312   -1.5773  -12.3210 N   0  0  0  0  0  0  0  0  0  0  0  0
  -24.9380   -0.6471  -12.5798 C   0  0  0  0  0  0  0  0  0  0  0  0
  -24.5431    0.2479  -11.8492 O   0  0  0  0  0  0  0  0  0  0  0  0
  -26.0360   -2.3397  -12.9781 H   0  0  0  0  0  0  0  0  0  0  0  0
  -24.2797   -0.8166  -13.9074 C   0  0  0  0  0  0  0  0  0  0  0  0
  -25.0943   -0.5716  -15.1886 C   0  0  0  0  0  0  0  0  0  0  0  0
  -24.7650   -1.9691  -14.7674 C   0  0  0  0  0  0  0  0  0  0  0  0
  -22.8843   -0.2827  -13.9181 C   0  0  0  0  0  0  0  0  0  0  0  0
  -21.9693   -1.0900  -13.9305 O   0  0  0  0  0  0  0  0  0  0  0  0
  -22.7245    1.0968  -13.9832 N   0  0  0  0  0  0  0  0  0  0  0  0
  -23.3977    1.6731  -13.4856 H   0  0  0  0  0  0  0  0  0  0  0  0
  -21.4891    1.6512  -14.3692 C   0  0  0  0  0  0  0  0  0  0  0  0
  -21.3117    3.0434  -14.3656 C   0  0  0  0  0  0  0  0  0  0  0  0
  -20.1551    3.6170  -14.8909 C   0  0  0  0  0  0  0  0  0  0  0  0
  -19.1743    2.7824  -15.4103 C   0  0  0  0  0  0  0  0  0  0  0  0
  -18.0939    3.3281  -15.9950 F   0  0  0  0  0  0  0  0  0  0  0  0
  -19.2895    1.4037  -15.3416 C   0  0  0  0  0  0  0  0  0  0  0  0
  -20.4446    0.8239  -14.7912 C   0  0  0  0  0  0  0  0  0  0  0  0
  -29.2250   -1.8698   -7.8181 O   0  0  0  0  0  0  0  0  0  0  0  0
  -29.9834   -4.6547   -6.9881 C   0  0  0  0  0  0  0  0  0  0  0  0
  -29.0298   -4.1966   -5.9366 C   0  0  0  0  0  0  0  0  0  0  0  0
  -28.4582   -4.9436   -4.8390 C   0  0  0  0  0  0  0  0  0  0  0  0
  -27.6541   -4.0474   -4.1430 C   0  0  0  0  0  0  0  0  0  0  0  0
  -27.6933   -2.8397   -4.7586 N   0  0  0  0  0  0  0  0  0  0  0  0
  -27.0216   -1.7486   -4.3594 N   0  0  0  0  0  0  0  0  0  0  0  0
  -27.2240   -0.7012   -5.0940 C   0  0  0  0  0  0  0  0  0  0  0  0
  -28.0093   -0.6317   -6.2122 N   0  0  0  0  0  0  0  0  0  0  0  0
  -28.5842   -1.7212   -6.6047 C   0  0  0  0  0  0  0  0  0  0  0  0
  -28.4986   -2.9166   -5.8471 C   0  0  0  0  0  0  0  0  0  0  0  0
  -28.6285   -6.3453   -4.4315 C   0  0  0  0  0  0  0  0  0  0  0  0
  -29.5114   -6.7316   -3.6788 O   0  0  0  0  0  0  0  0  0  0  0  0
  -27.6852   -7.1671   -5.0099 N   0  0  0  0  0  0  0  0  0  0  0  0
  -27.1537   -6.7584   -5.7627 H   0  0  0  0  0  0  0  0  0  0  0  0
  -27.5795   -8.5969   -4.8033 C   0  0  0  0  0  0  0  0  0  0  0  0
  -28.2056   -9.3769   -5.9724 C   0  0  0  0  0  0  0  0  0  0  0  0
  -29.7385   -9.2306   -6.0096 C   0  0  0  0  0  0  0  0  0  0  0  0
  -30.2693   -8.2991   -7.0200 N   0  0  0  0  0  0  0  0  0  0  0  0
  -31.7170   -8.0083   -6.8993 C   0  0  0  0  0  0  0  0  0  0  0  0
  -32.6393   -9.1730   -7.3030 C   0  0  0  0  0  0  0  0  0  0  0  0
  -32.3568   -9.6319   -8.6313 O   0  0  0  0  0  0  0  0  0  0  0  0
  -30.9810  -10.0123   -8.7537 C   0  0  0  0  0  0  0  0  0  0  0  0
  -30.0454   -8.8416   -8.3874 C   0  0  0  0  0  0  0  0  0  0  0  0
 27 28  1  0  0  0
 28 29  1  0  0  0
 28 36  2  0  0  0
 29 37  1  0  0  0
 29 30  2  0  0  0
 37 38  2  0  0  0
 37 39  1  0  0  0
 39 41  1  0  0  0
 39 40  1  0  0  0
 41 42  1  0  0  0
 42 43  1  0  0  0
 43 44  1  0  0  0
 44 45  1  0  0  0
 44 49  1  0  0  0
 45 46  1  0  0  0
 46 47  1  0  0  0
 47 48  1  0  0  0
 48 49  1  0  0  0
 30 31  1  0  0  0
 31 32  1  0  0  0
 31 36  1  0  0  0
 32 33  2  0  0  0
 33 34  1  0  0  0
 34 35  2  0  0  0
 35 26  1  0  0  0
 35 36  1  0  0  0
 26  1  1  0  0  0
  1  2  1  0  0  0
  1  6  2  0  0  0
  2  3  2  0  0  0
  3  4  1  0  0  0
  4  8  1  0  0  0
  4  5  2  0  0  0
  8  9  1  0  0  0
  8 11  1  0  0  0
  9 10  2  0  0  0
  9 12  1  0  0  0
 12 15  1  0  0  0
 12 13  1  0  0  0
 12 14  1  0  0  0
 15 16  2  0  0  0
 15 17  1  0  0  0
 17 19  1  0  0  0
 17 18  1  0  0  0
 19 20  1  0  0  0
 19 25  2  0  0  0
 20 21  2  0  0  0
 21 22  1  0  0  0
 22 23  1  0  0  0
 22 24  2  0  0  0
 24 25  1  0  0  0
 13 14  1  0  0  0
  5  6  1  0  0  0
  6  7  1  0  0  0
M  END
> <minimizedAffinity>
-8.87909

$$$$
