CHEMBL238531


 29 31  0  0  0  0  0  0  0  0999 V2000
  -16.3402    3.4892  -16.3833 C   0  0  0  0  0  0  0  0  0  0  0  0
  -15.7730    2.2120  -15.9974 N   0  0  0  0  0  0  0  0  0  0  0  0
  -14.5743    1.8697  -16.5009 N   0  0  0  0  0  0  0  0  0  0  0  0
  -14.3341    0.6866  -15.9460 C   0  0  0  0  0  0  0  0  0  0  0  0
  -15.3732    0.2681  -15.0840 C   0  0  0  0  0  0  0  0  0  0  0  0
  -16.2986    1.2990  -15.0969 C   0  0  0  0  0  0  0  0  0  0  0  0
  -17.5742    1.5271  -14.4479 C   0  0  0  0  0  0  0  0  0  0  0  0
  -17.6196    1.7380  -13.2400 O   0  0  0  0  0  0  0  0  0  0  0  0
  -18.7003    1.4238  -15.2502 N   0  0  0  0  0  0  0  0  0  0  0  0
  -18.5554    1.0504  -16.1809 H   0  0  0  0  0  0  0  0  0  0  0  0
  -20.0329    1.6956  -14.8484 C   0  0  0  0  0  0  0  0  0  0  0  0
  -20.5301    2.9973  -14.7247 C   0  0  0  0  0  0  0  0  0  0  0  0
  -21.8272    3.2366  -14.2717 C   0  0  0  0  0  0  0  0  0  0  0  0
  -22.6611    2.1712  -13.9587 C   0  0  0  0  0  0  0  0  0  0  0  0
  -22.2135    0.8532  -14.1240 C   0  0  0  0  0  0  0  0  0  0  0  0
  -20.8953    0.6255  -14.5765 C   0  0  0  0  0  0  0  0  0  0  0  0
  -23.1359   -0.3027  -13.8163 C   0  0  0  0  0  0  0  0  0  0  0  0
  -22.4783   -1.4858  -13.6406 F   0  0  0  0  0  0  0  0  0  0  0  0
  -23.8542   -0.1121  -12.6777 F   0  0  0  0  0  0  0  0  0  0  0  0
  -24.0417   -0.5299  -14.8066 F   0  0  0  0  0  0  0  0  0  0  0  0
  -15.3468   -0.9145  -14.4213 N   0  0  0  0  0  0  0  0  0  0  0  0
  -16.0209   -1.6240  -14.7114 H   0  0  0  0  0  0  0  0  0  0  0  0
  -15.0343   -1.0676  -13.0081 C   0  0  0  0  0  0  0  0  0  0  0  0
  -15.6039   -2.3641  -12.4728 C   0  0  0  0  0  0  0  0  0  0  0  0
  -16.0535   -3.3983  -13.3065 C   0  0  0  0  0  0  0  0  0  0  0  0
  -16.5198   -4.5697  -12.7366 C   0  0  0  0  0  0  0  0  0  0  0  0
  -16.5755   -4.7805  -11.4083 N   0  0  0  0  0  0  0  0  0  0  0  0
  -16.1581   -3.7718  -10.6132 C   0  0  0  0  0  0  0  0  0  0  0  0
  -15.6735   -2.5627  -11.0894 C   0  0  0  0  0  0  0  0  0  0  0  0
  1  2  1  0  0  0
  2  3  1  0  0  0
  2  6  1  0  0  0
  3  4  2  0  0  0
  4  5  1  0  0  0
  5 21  1  0  0  0
  5  6  2  0  0  0
 21 23  1  0  0  0
 21 22  1  0  0  0
 23 24  1  0  0  0
 24 25  1  0  0  0
 24 29  2  0  0  0
 25 26  2  0  0  0
 26 27  1  0  0  0
 27 28  2  0  0  0
 28 29  1  0  0  0
  6  7  1  0  0  0
  7  8  2  0  0  0
  7  9  1  0  0  0
  9 11  1  0  0  0
  9 10  1  0  0  0
 11 12  1  0  0  0
 11 16  2  0  0  0
 12 13  2  0  0  0
 13 14  1  0  0  0
 14 15  2  0  0  0
 15 17  1  0  0  0
 15 16  1  0  0  0
 17 18  1  0  0  0
 17 19  1  0  0  0
 17 20  1  0  0  0
M  END
> <minimizedAffinity>
-9.05858

$$$$
