CHEMBL204099


 29 32  0  0  0  0  0  0  0  0999 V2000
  -28.3550   -2.2027   -7.0217 C   0  0  0  0  0  0  0  0  0  0  0  0
  -27.8983   -1.0308   -6.3857 C   0  0  0  0  0  0  0  0  0  0  0  0
  -28.4965   -0.5740   -5.2140 C   0  0  0  0  0  0  0  0  0  0  0  0
  -29.5553   -1.2833   -4.6626 C   0  0  0  0  0  0  0  0  0  0  0  0
  -29.9675   -2.4845   -5.2429 C   0  0  0  0  0  0  0  0  0  0  0  0
  -29.3514   -2.9917   -6.4073 C   0  0  0  0  0  0  0  0  0  0  0  0
  -27.3207   -1.4578   -9.0842 N   0  0  0  0  0  0  0  0  0  0  0  0
  -27.7521   -2.5523   -8.3446 C   0  0  0  0  0  0  0  0  0  0  0  0
  -27.6708   -3.7289   -8.6707 O   0  0  0  0  0  0  0  0  0  0  0  0
  -27.3927   -0.5453   -8.6543 H   0  0  0  0  0  0  0  0  0  0  0  0
  -25.6126   -1.4509  -12.9660 C   0  0  0  0  0  0  0  0  0  0  0  0
  -26.9984   -1.5721  -12.8062 C   0  0  0  0  0  0  0  0  0  0  0  0
  -27.5810   -1.5839  -11.5351 C   0  0  0  0  0  0  0  0  0  0  0  0
  -26.7954   -1.4645  -10.3932 C   0  0  0  0  0  0  0  0  0  0  0  0
  -25.4091   -1.3166  -10.5430 C   0  0  0  0  0  0  0  0  0  0  0  0
  -24.8221   -1.3186  -11.8167 C   0  0  0  0  0  0  0  0  0  0  0  0
  -26.0455   -1.1305  -15.4414 C   0  0  0  0  0  0  0  0  0  0  0  0
  -25.0226   -1.4937  -14.3640 C   0  0  0  0  0  0  0  0  0  0  0  0
  -23.7771   -0.6106  -14.4655 C   0  0  0  0  0  0  0  0  0  0  0  0
  -29.7782   -4.3661   -6.8934 C   0  0  0  0  0  0  0  0  0  0  0  0
  -29.6330   -5.4143   -5.8678 N   0  0  0  0  0  0  0  0  0  0  0  0
  -30.5638   -5.5361   -4.8294 C   0  0  0  0  0  0  0  0  0  0  0  0
  -30.5250   -6.4602   -3.8563 C   0  0  0  0  0  0  0  0  0  0  0  0
  -29.4106   -7.4108   -3.9272 C   0  0  0  0  0  0  0  0  0  0  0  0
  -29.0759   -8.3942   -3.1525 N   0  0  0  0  0  0  0  0  0  0  0  0
  -27.9426   -8.9079   -3.7745 C   0  0  0  0  0  0  0  0  0  0  0  0
  -27.5459   -8.3320   -4.8765 N   0  0  0  0  0  0  0  0  0  0  0  0
  -28.4564   -7.3307   -5.0346 C   0  0  0  0  0  0  0  0  0  0  0  0
  -28.6067   -6.3642   -5.9408 C   0  0  0  0  0  0  0  0  0  0  0  0
 17 18  1  0  0  0
 18 19  1  0  0  0
 18 11  1  0  0  0
 11 12  1  0  0  0
 11 16  2  0  0  0
 12 13  2  0  0  0
 13 14  1  0  0  0
 14  7  1  0  0  0
 14 15  2  0  0  0
  7  8  1  0  0  0
  7 10  1  0  0  0
  8  9  2  0  0  0
  8  1  1  0  0  0
  1  2  1  0  0  0
  1  6  2  0  0  0
  2  3  2  0  0  0
  3  4  1  0  0  0
  4  5  2  0  0  0
  5  6  1  0  0  0
  6 20  1  0  0  0
 20 21  1  0  0  0
 21 22  1  0  0  0
 21 29  1  0  0  0
 22 23  2  0  0  0
 23 24  1  0  0  0
 24 25  2  0  0  0
 24 28  1  0  0  0
 25 26  1  0  0  0
 26 27  2  0  0  0
 27 28  1  0  0  0
 28 29  2  0  0  0
 15 16  1  0  0  0
M  END
> <minimizedAffinity>
-9.73832

$$$$
