CHEMBL489326


 40 44  0  0  0  0  0  0  0  0999 V2000
  -14.5587   -1.0346  -13.5306 C   0  0  0  0  0  0  0  0  0  0  0  0
  -14.5990   -0.2225  -14.6591 C   0  0  0  0  0  0  0  0  0  0  0  0
  -15.6836    0.6508  -14.8741 C   0  0  0  0  0  0  0  0  0  0  0  0
  -16.7367    0.7285  -13.9601 C   0  0  0  0  0  0  0  0  0  0  0  0
  -16.6995   -0.0961  -12.8315 C   0  0  0  0  0  0  0  0  0  0  0  0
  -15.6285   -0.9766  -12.6316 C   0  0  0  0  0  0  0  0  0  0  0  0
  -15.6590   -1.7640  -11.5466 F   0  0  0  0  0  0  0  0  0  0  0  0
  -17.8693    1.5560  -14.1502 N   0  0  0  0  0  0  0  0  0  0  0  0
  -19.0661    1.1819  -14.7450 C   0  0  0  0  0  0  0  0  0  0  0  0
  -19.3115    0.1456  -15.3477 O   0  0  0  0  0  0  0  0  0  0  0  0
  -17.7954    2.5214  -13.8396 H   0  0  0  0  0  0  0  0  0  0  0  0
  -20.1624    2.2008  -14.6109 C   0  0  0  0  0  0  0  0  0  0  0  0
  -20.2154    3.2938  -15.6865 C   0  0  0  0  0  0  0  0  0  0  0  0
  -19.7629    3.6448  -14.3063 C   0  0  0  0  0  0  0  0  0  0  0  0
  -21.4744    1.6709  -14.1280 C   0  0  0  0  0  0  0  0  0  0  0  0
  -22.3543    2.4910  -13.9009 O   0  0  0  0  0  0  0  0  0  0  0  0
  -21.5457    0.2954  -13.9721 N   0  0  0  0  0  0  0  0  0  0  0  0
  -20.6964   -0.2359  -14.1090 H   0  0  0  0  0  0  0  0  0  0  0  0
  -22.6807   -0.4124  -13.5060 C   0  0  0  0  0  0  0  0  0  0  0  0
  -23.7947   -0.6636  -14.3151 C   0  0  0  0  0  0  0  0  0  0  0  0
  -24.9395   -1.2665  -13.7929 C   0  0  0  0  0  0  0  0  0  0  0  0
  -24.9661   -1.6368  -12.4582 C   0  0  0  0  0  0  0  0  0  0  0  0
  -26.0799   -2.1755  -11.9459 F   0  0  0  0  0  0  0  0  0  0  0  0
  -23.8511   -1.4542  -11.6488 C   0  0  0  0  0  0  0  0  0  0  0  0
  -22.6989   -0.8553  -12.1758 C   0  0  0  0  0  0  0  0  0  0  0  0
  -13.4794   -1.8905  -13.4348 O   0  0  0  0  0  0  0  0  0  0  0  0
  -13.9883   -6.7873  -12.1523 C   0  0  0  0  0  0  0  0  0  0  0  0
  -13.8157   -6.6843  -13.5416 C   0  0  0  0  0  0  0  0  0  0  0  0
  -13.6625   -5.4712  -14.1906 C   0  0  0  0  0  0  0  0  0  0  0  0
  -13.4022   -5.5000  -15.5066 N   0  0  0  0  0  0  0  0  0  0  0  0
  -13.2098   -4.3296  -16.1434 C   0  0  0  0  0  0  0  0  0  0  0  0
  -13.2681   -3.1024  -15.5226 C   0  0  0  0  0  0  0  0  0  0  0  0
  -13.4878   -3.0768  -14.1471 C   0  0  0  0  0  0  0  0  0  0  0  0
  -13.7457   -4.2823  -13.4471 C   0  0  0  0  0  0  0  0  0  0  0  0
  -14.0592   -4.3770  -12.0688 C   0  0  0  0  0  0  0  0  0  0  0  0
  -14.1688   -5.6156  -11.4100 C   0  0  0  0  0  0  0  0  0  0  0  0
  -13.3011   -9.0553  -12.2277 C   0  0  0  0  0  0  0  0  0  0  0  0
  -13.9945   -8.0112  -11.5332 O   0  0  0  0  0  0  0  0  0  0  0  0
  -14.4272   -5.4687  -10.0744 O   0  0  0  0  0  0  0  0  0  0  0  0
  -13.4942   -4.7959   -9.2428 C   0  0  0  0  0  0  0  0  0  0  0  0
 37 38  1  0  0  0
 38 27  1  0  0  0
 27 28  1  0  0  0
 27 36  2  0  0  0
 28 29  2  0  0  0
 29 30  1  0  0  0
 29 34  1  0  0  0
 30 31  2  0  0  0
 31 32  1  0  0  0
 32 33  2  0  0  0
 33 26  1  0  0  0
 33 34  1  0  0  0
 26  1  1  0  0  0
  1  2  1  0  0  0
  1  6  2  0  0  0
  2  3  2  0  0  0
  3  4  1  0  0  0
  4  8  1  0  0  0
  4  5  2  0  0  0
  8  9  1  0  0  0
  8 11  1  0  0  0
  9 10  2  0  0  0
  9 12  1  0  0  0
 12 15  1  0  0  0
 12 13  1  0  0  0
 12 14  1  0  0  0
 15 16  2  0  0  0
 15 17  1  0  0  0
 17 19  1  0  0  0
 17 18  1  0  0  0
 19 20  1  0  0  0
 19 25  2  0  0  0
 20 21  2  0  0  0
 21 22  1  0  0  0
 22 23  1  0  0  0
 22 24  2  0  0  0
 24 25  1  0  0  0
 13 14  1  0  0  0
  5  6  1  0  0  0
  6  7  1  0  0  0
 34 35  2  0  0  0
 35 36  1  0  0  0
 36 39  1  0  0  0
 39 40  1  0  0  0
M  END
> <minimizedAffinity>
-9.63309

$$$$
