CHEMBL270093


 37 41  0  0  0  0  0  0  0  0999 V2000
  -14.8079   -1.5612  -12.6691 C   0  0  0  0  0  0  0  0  0  0  0  0
  -15.9720   -1.0746  -13.2547 C   0  0  0  0  0  0  0  0  0  0  0  0
  -15.8969   -0.2185  -14.3556 C   0  0  0  0  0  0  0  0  0  0  0  0
  -14.6597    0.2209  -14.8476 C   0  0  0  0  0  0  0  0  0  0  0  0
  -13.4913   -0.3240  -14.2836 C   0  0  0  0  0  0  0  0  0  0  0  0
  -13.5649   -1.1899  -13.1880 C   0  0  0  0  0  0  0  0  0  0  0  0
  -12.2189   -0.0663  -14.7374 O   0  0  0  0  0  0  0  0  0  0  0  0
  -12.1305    1.0878  -15.5800 C   0  0  0  0  0  0  0  0  0  0  0  0
  -13.2566    1.1354  -16.5988 C   0  0  0  0  0  0  0  0  0  0  0  0
  -14.5389    1.1848  -15.8957 N   0  0  0  0  0  0  0  0  0  0  0  0
  -15.4540    2.1694  -16.2608 C   0  0  0  0  0  0  0  0  0  0  0  0
  -15.3300    2.8517  -17.2764 O   0  0  0  0  0  0  0  0  0  0  0  0
  -16.4820    2.3703  -15.3808 N   0  0  0  0  0  0  0  0  0  0  0  0
  -16.2627    2.1854  -14.4137 H   0  0  0  0  0  0  0  0  0  0  0  0
  -14.9790   -2.3716  -11.5670 O   0  0  0  0  0  0  0  0  0  0  0  0
  -12.2255   -6.5687  -10.8924 C   0  0  0  0  0  0  0  0  0  0  0  0
  -13.4856   -6.9240  -11.4046 C   0  0  0  0  0  0  0  0  0  0  0  0
  -14.4718   -5.9907  -11.6784 C   0  0  0  0  0  0  0  0  0  0  0  0
  -15.6085   -6.4204  -12.2441 N   0  0  0  0  0  0  0  0  0  0  0  0
  -16.5535   -5.5120  -12.5510 C   0  0  0  0  0  0  0  0  0  0  0  0
  -16.4168   -4.1629  -12.3201 C   0  0  0  0  0  0  0  0  0  0  0  0
  -15.2175   -3.7169  -11.7694 C   0  0  0  0  0  0  0  0  0  0  0  0
  -14.2209   -4.6396  -11.3848 C   0  0  0  0  0  0  0  0  0  0  0  0
  -13.0019   -4.2922  -10.7568 C   0  0  0  0  0  0  0  0  0  0  0  0
  -11.9979   -5.2415  -10.5150 C   0  0  0  0  0  0  0  0  0  0  0  0
  -11.3806   -8.6870  -11.5403 C   0  0  0  0  0  0  0  0  0  0  0  0
  -11.2376   -7.5073  -10.7398 O   0  0  0  0  0  0  0  0  0  0  0  0
  -10.8932   -4.6848   -9.9311 O   0  0  0  0  0  0  0  0  0  0  0  0
  -10.7210   -4.7743   -8.5262 C   0  0  0  0  0  0  0  0  0  0  0  0
  -17.5417    3.3191  -15.6067 C   0  0  0  0  0  0  0  0  0  0  0  0
  -18.8746    2.7354  -15.2231 C   0  0  0  0  0  0  0  0  0  0  0  0
  -19.0671    1.3498  -15.2526 C   0  0  0  0  0  0  0  0  0  0  0  0
  -20.2816    0.7952  -14.8459 C   0  0  0  0  0  0  0  0  0  0  0  0
  -21.3292    1.6181  -14.4178 C   0  0  0  0  0  0  0  0  0  0  0  0
  -22.6139    1.0304  -13.9158 C   0  0  0  0  0  0  0  0  0  0  0  0
  -21.1599    3.0069  -14.4488 C   0  0  0  0  0  0  0  0  0  0  0  0
  -19.9436    3.5630  -14.8521 C   0  0  0  0  0  0  0  0  0  0  0  0
 26 27  1  0  0  0
 27 16  1  0  0  0
 16 17  1  0  0  0
 16 25  2  0  0  0
 17 18  2  0  0  0
 18 19  1  0  0  0
 18 23  1  0  0  0
 19 20  2  0  0  0
 20 21  1  0  0  0
 21 22  2  0  0  0
 22 15  1  0  0  0
 22 23  1  0  0  0
 15  1  1  0  0  0
  1  2  1  0  0  0
  1  6  2  0  0  0
  2  3  2  0  0  0
  3  4  1  0  0  0
  4  5  2  0  0  0
  4 10  1  0  0  0
  5  6  1  0  0  0
  5  7  1  0  0  0
  7  8  1  0  0  0
  8  9  1  0  0  0
  9 10  1  0  0  0
 10 11  1  0  0  0
 11 12  2  0  0  0
 11 13  1  0  0  0
 13 30  1  0  0  0
 13 14  1  0  0  0
 30 31  1  0  0  0
 31 32  1  0  0  0
 31 37  2  0  0  0
 32 33  2  0  0  0
 33 34  1  0  0  0
 34 35  1  0  0  0
 34 36  2  0  0  0
 36 37  1  0  0  0
 23 24  2  0  0  0
 24 25  1  0  0  0
 25 28  1  0  0  0
 28 29  1  0  0  0
M  END
> <minimizedAffinity>
-9.65379

$$$$
