CHEMBL3676376


 39 41  0  0  0  0  0  0  0  0999 V2000
  -27.3213   -9.8871   -5.5677 C   0  0  0  0  0  0  0  0  0  0  0  0
  -27.9285   -8.6427   -5.3935 C   0  0  0  0  0  0  0  0  0  0  0  0
  -29.1441   -8.3164   -6.0062 C   0  0  0  0  0  0  0  0  0  0  0  0
  -29.7341   -7.0459   -5.9171 C   0  0  0  0  0  0  0  0  0  0  0  0
  -30.9241   -6.7802   -6.4764 N   0  0  0  0  0  0  0  0  0  0  0  0
  -31.4774   -7.7716   -7.1798 C   0  0  0  0  0  0  0  0  0  0  0  0
  -30.9828   -9.0115   -7.3484 N   0  0  0  0  0  0  0  0  0  0  0  0
  -29.8164   -9.2850   -6.7565 C   0  0  0  0  0  0  0  0  0  0  0  0
  -29.2271  -10.5524   -6.8750 C   0  0  0  0  0  0  0  0  0  0  0  0
  -27.9962  -10.8899   -6.2771 C   0  0  0  0  0  0  0  0  0  0  0  0
  -25.7630  -10.4794   -3.8332 C   0  0  0  0  0  0  0  0  0  0  0  0
  -26.5915  -11.0239   -3.1136 O   0  0  0  0  0  0  0  0  0  0  0  0
  -25.9976   -9.9615   -5.0968 N   0  0  0  0  0  0  0  0  0  0  0  0
  -25.2930   -9.3412   -5.4542 H   0  0  0  0  0  0  0  0  0  0  0  0
  -23.6401  -11.2748   -2.9527 C   0  0  0  0  0  0  0  0  0  0  0  0
  -24.3673  -10.2414   -3.3772 C   0  0  0  0  0  0  0  0  0  0  0  0
  -29.0439   -6.0200   -5.2355 N   0  0  0  0  0  0  0  0  0  0  0  0
  -28.1136   -6.3115   -4.9404 H   0  0  0  0  0  0  0  0  0  0  0  0
  -29.2160   -4.6263   -5.3097 C   0  0  0  0  0  0  0  0  0  0  0  0
  -29.8134   -3.9037   -4.2753 C   0  0  0  0  0  0  0  0  0  0  0  0
  -29.7941   -2.5095   -4.2693 C   0  0  0  0  0  0  0  0  0  0  0  0
  -29.1898   -1.8102   -5.3209 C   0  0  0  0  0  0  0  0  0  0  0  0
  -29.0783    0.0796   -5.1521 Br  0  0  0  0  0  0  0  0  0  0  0  0
  -28.6480   -2.5061   -6.4047 C   0  0  0  0  0  0  0  0  0  0  0  0
  -27.9381   -1.7050   -7.7594 Cl  0  0  0  0  0  0  0  0  0  0  0  0
  -28.6614   -3.9076   -6.3828 C   0  0  0  0  0  0  0  0  0  0  0  0
  -28.1128   -4.5972   -7.3989 F   0  0  0  0  0  0  0  0  0  0  0  0
  -27.5410  -12.1517   -6.6063 O   0  0  0  0  0  0  0  0  0  0  0  0
  -27.1309  -12.3367   -7.9629 C   0  0  0  0  0  0  0  0  0  0  0  0
  -26.1808  -11.2300   -8.4760 C   0  0  0  0  0  0  0  0  0  0  0  0
  -26.6937  -10.7283   -9.8311 C   0  0  0  0  0  0  0  0  0  0  0  0
  -24.7867  -11.6708   -8.5857 N   0  0  0  0  0  0  0  0  0  0  0  0
  -24.0470  -12.1886   -7.5411 C   0  0  0  0  0  0  0  0  0  0  0  0
  -24.5266  -12.4657   -6.4434 O   0  0  0  0  0  0  0  0  0  0  0  0
  -24.2457  -11.4107   -9.4073 H   0  0  0  0  0  0  0  0  0  0  0  0
  -22.5708  -12.4589   -7.8625 C   0  0  0  0  0  0  0  0  0  0  0  0
  -21.6352  -11.6382   -7.0453 N   0  0  0  0  0  0  0  0  0  0  0  0
  -22.2732  -10.3893   -6.6008 C   0  0  0  0  0  0  0  0  0  0  0  0
  -21.2569  -12.4140   -5.8538 C   0  0  0  0  0  0  0  0  0  0  0  0
 15 16  2  0  0  0
 16 11  1  0  0  0
 11 12  2  0  0  0
 11 13  1  0  0  0
 13  1  1  0  0  0
 13 14  1  0  0  0
  1  2  1  0  0  0
  1 10  2  0  0  0
  2  3  2  0  0  0
  3  4  1  0  0  0
  3  8  1  0  0  0
  4 17  1  0  0  0
  4  5  2  0  0  0
 17 19  1  0  0  0
 17 18  1  0  0  0
 19 20  1  0  0  0
 19 26  2  0  0  0
 20 21  2  0  0  0
 21 22  1  0  0  0
 22 23  1  0  0  0
 22 24  2  0  0  0
 24 25  1  0  0  0
 24 26  1  0  0  0
 26 27  1  0  0  0
  5  6  1  0  0  0
  6  7  2  0  0  0
  7  8  1  0  0  0
  8  9  2  0  0  0
  9 10  1  0  0  0
 10 28  1  0  0  0
 28 29  1  0  0  0
 30 32  1  0  0  0
 30 31  1  0  0  0
 30 29  1  0  0  0
 32 33  1  0  0  0
 32 35  1  0  0  0
 33 34  2  0  0  0
 33 36  1  0  0  0
 36 37  1  0  0  0
 37 38  1  0  0  0
 37 39  1  0  0  0
M  END
> <minimizedAffinity>
-7.41712

$$$$
