CHEMBL3639549


 34 37  0  0  0  0  0  0  0  0999 V2000
  -28.4425   -7.5526   -4.9531 C   0  0  0  0  0  0  0  0  0  0  0  0
  -29.1624   -7.3562   -3.7625 C   0  0  0  0  0  0  0  0  0  0  0  0
  -30.1907   -6.4172   -3.7000 C   0  0  0  0  0  0  0  0  0  0  0  0
  -30.4772   -5.6344   -4.8136 C   0  0  0  0  0  0  0  0  0  0  0  0
  -29.6680   -5.7088   -5.9523 C   0  0  0  0  0  0  0  0  0  0  0  0
  -28.6773   -6.6996   -6.0406 C   0  0  0  0  0  0  0  0  0  0  0  0
  -26.2631   -8.4682   -4.2647 N   0  0  0  0  0  0  0  0  0  0  0  0
  -27.4420   -8.6652   -4.9779 C   0  0  0  0  0  0  0  0  0  0  0  0
  -27.7190   -9.6471   -5.6619 O   0  0  0  0  0  0  0  0  0  0  0  0
  -26.1525   -7.5910   -3.7740 H   0  0  0  0  0  0  0  0  0  0  0  0
  -22.4064  -10.6081   -6.5443 C   0  0  0  0  0  0  0  0  0  0  0  0
  -23.2357  -10.3925   -5.3101 C   0  0  0  0  0  0  0  0  0  0  0  0
  -22.8911  -11.0400   -4.1210 C   0  0  0  0  0  0  0  0  0  0  0  0
  -23.6840  -10.8818   -2.9892 C   0  0  0  0  0  0  0  0  0  0  0  0
  -24.8142  -10.0585   -3.0258 C   0  0  0  0  0  0  0  0  0  0  0  0
  -25.1580   -9.3593   -4.1851 C   0  0  0  0  0  0  0  0  0  0  0  0
  -24.3655   -9.5487   -5.3318 C   0  0  0  0  0  0  0  0  0  0  0  0
  -29.8114   -4.8806   -7.0483 O   0  0  0  0  0  0  0  0  0  0  0  0
  -29.0352   -3.7430   -7.1635 C   0  0  0  0  0  0  0  0  0  0  0  0
  -28.6976   -2.9026   -6.1070 C   0  0  0  0  0  0  0  0  0  0  0  0
  -27.9565   -1.7662   -6.3817 C   0  0  0  0  0  0  0  0  0  0  0  0
  -27.4912   -1.4514   -7.6094 N   0  0  0  0  0  0  0  0  0  0  0  0
  -27.7763   -2.3172   -8.6127 C   0  0  0  0  0  0  0  0  0  0  0  0
  -28.5332   -3.4679   -8.4343 C   0  0  0  0  0  0  0  0  0  0  0  0
  -27.2247   -1.9291   -9.9075 C   0  0  0  0  0  0  0  0  0  0  0  0
  -25.9772   -1.4618  -10.2881 C   0  0  0  0  0  0  0  0  0  0  0  0
  -25.9854   -1.2181  -11.6966 C   0  0  0  0  0  0  0  0  0  0  0  0
  -27.2481   -1.5737  -12.1367 C   0  0  0  0  0  0  0  0  0  0  0  0
  -27.9728   -2.0141  -11.0604 N   0  0  0  0  0  0  0  0  0  0  0  0
  -28.9224   -2.3680  -11.0766 H   0  0  0  0  0  0  0  0  0  0  0  0
  -24.8791   -0.7282  -12.5083 C   0  0  0  0  0  0  0  0  0  0  0  0
  -24.5792   -1.1894  -13.5954 O   0  0  0  0  0  0  0  0  0  0  0  0
  -24.1701    0.2822  -11.9310 O   0  0  0  0  0  0  0  0  0  0  0  0
  -24.4653    0.4497  -11.0172 H   0  0  0  0  0  0  0  0  0  0  0  0
 11 12  1  0  0  0
 12 13  1  0  0  0
 12 17  2  0  0  0
 13 14  2  0  0  0
 14 15  1  0  0  0
 15 16  2  0  0  0
 16  7  1  0  0  0
 16 17  1  0  0  0
  7  8  1  0  0  0
  7 10  1  0  0  0
  8  9  2  0  0  0
  8  1  1  0  0  0
  1  2  1  0  0  0
  1  6  2  0  0  0
  2  3  2  0  0  0
  3  4  1  0  0  0
  4  5  2  0  0  0
  5 18  1  0  0  0
  5  6  1  0  0  0
 18 19  1  0  0  0
 19 20  1  0  0  0
 19 24  2  0  0  0
 20 21  2  0  0  0
 21 22  1  0  0  0
 22 23  2  0  0  0
 23 25  1  0  0  0
 23 24  1  0  0  0
 25 26  2  0  0  0
 25 29  1  0  0  0
 26 27  1  0  0  0
 27 31  1  0  0  0
 27 28  2  0  0  0
 31 32  2  0  0  0
 31 33  1  0  0  0
 33 34  1  0  0  0
 28 29  1  0  0  0
 29 30  1  0  0  0
M  END
> <minimizedAffinity>
-9.72468

$$$$
