CHEMBL203731


 32 35  0  0  0  0  0  0  0  0999 V2000
  -29.1122   -8.1431   -4.6734 C   0  0  0  0  0  0  0  0  0  0  0  0
  -28.9847   -8.3377   -3.3755 N   0  0  0  0  0  0  0  0  0  0  0  0
  -29.6111   -7.2886   -2.7552 N   0  0  0  0  0  0  0  0  0  0  0  0
  -30.0721   -6.5042   -3.7055 C   0  0  0  0  0  0  0  0  0  0  0  0
  -29.8192   -6.9980   -4.9522 O   0  0  0  0  0  0  0  0  0  0  0  0
  -30.7011   -9.5237   -6.9166 C   0  0  0  0  0  0  0  0  0  0  0  0
  -29.2817   -9.6225   -6.6632 N   0  0  0  0  0  0  0  0  0  0  0  0
  -28.4029  -10.3760   -7.3902 C   0  0  0  0  0  0  0  0  0  0  0  0
  -27.1907  -10.3308   -6.8823 N   0  0  0  0  0  0  0  0  0  0  0  0
  -27.2795   -9.4643   -5.8346 C   0  0  0  0  0  0  0  0  0  0  0  0
  -28.5669   -9.0039   -5.6638 C   0  0  0  0  0  0  0  0  0  0  0  0
  -26.2104   -9.1265   -5.0950 N   0  0  0  0  0  0  0  0  0  0  0  0
  -25.6117   -8.3543   -5.3626 H   0  0  0  0  0  0  0  0  0  0  0  0
  -25.8151   -9.8454   -3.9028 C   0  0  0  0  0  0  0  0  0  0  0  0
  -24.3958  -10.3601   -4.0432 C   0  0  0  0  0  0  0  0  0  0  0  0
  -23.6958  -10.8512   -2.9298 C   0  0  0  0  0  0  0  0  0  0  0  0
  -22.4241  -11.3621   -3.0936 C   0  0  0  0  0  0  0  0  0  0  0  0
  -21.7871  -11.4218   -4.2882 N   0  0  0  0  0  0  0  0  0  0  0  0
  -22.4738  -10.9486   -5.3568 C   0  0  0  0  0  0  0  0  0  0  0  0
  -23.7508  -10.4166   -5.2856 C   0  0  0  0  0  0  0  0  0  0  0  0
  -30.7129   -5.3232   -3.6646 N   0  0  0  0  0  0  0  0  0  0  0  0
  -31.7231   -5.3531   -3.6266 H   0  0  0  0  0  0  0  0  0  0  0  0
  -30.1951   -4.0986   -4.1263 C   0  0  0  0  0  0  0  0  0  0  0  0
  -29.3904   -3.2653   -3.3471 C   0  0  0  0  0  0  0  0  0  0  0  0
  -28.9327   -2.0347   -3.8245 C   0  0  0  0  0  0  0  0  0  0  0  0
  -29.2872   -1.5670   -5.0950 C   0  0  0  0  0  0  0  0  0  0  0  0
  -30.0992   -2.4049   -5.8786 C   0  0  0  0  0  0  0  0  0  0  0  0
  -30.5530   -3.6422   -5.3985 C   0  0  0  0  0  0  0  0  0  0  0  0
  -28.8292   -0.1970   -5.6179 C   0  0  0  0  0  0  0  0  0  0  0  0
  -27.8844    0.5352   -4.6365 C   0  0  0  0  0  0  0  0  0  0  0  0
  -28.0825   -0.3694   -6.9560 C   0  0  0  0  0  0  0  0  0  0  0  0
  -30.0472    0.7230   -5.8467 C   0  0  0  0  0  0  0  0  0  0  0  0
  6  7  1  0  0  0
  7  8  1  0  0  0
  7 11  1  0  0  0
  8  9  2  0  0  0
  9 10  1  0  0  0
 10 12  1  0  0  0
 10 11  2  0  0  0
 12 14  1  0  0  0
 12 13  1  0  0  0
 14 15  1  0  0  0
 15 16  1  0  0  0
 15 20  2  0  0  0
 16 17  2  0  0  0
 17 18  1  0  0  0
 18 19  2  0  0  0
 19 20  1  0  0  0
 11  1  1  0  0  0
  1  2  2  0  0  0
  1  5  1  0  0  0
  2  3  1  0  0  0
  3  4  2  0  0  0
  4 21  1  0  0  0
  4  5  1  0  0  0
 21 23  1  0  0  0
 21 22  1  0  0  0
 23 24  1  0  0  0
 23 28  2  0  0  0
 24 25  2  0  0  0
 25 26  1  0  0  0
 26 29  1  0  0  0
 26 27  2  0  0  0
 29 30  1  0  0  0
 29 31  1  0  0  0
 29 32  1  0  0  0
 27 28  1  0  0  0
M  END
> <minimizedAffinity>
-8.95522

$$$$
