CHEMBL453058


 37 41  0  0  0  0  0  0  0  0999 V2000
  -13.9382    0.1055  -15.1849 C   0  0  0  0  0  0  0  0  0  0  0  0
  -12.8920    0.9421  -14.7994 C   0  0  0  0  0  0  0  0  0  0  0  0
  -12.5646    2.0657  -15.5650 C   0  0  0  0  0  0  0  0  0  0  0  0
  -13.2606    2.3875  -16.7407 C   0  0  0  0  0  0  0  0  0  0  0  0
  -14.3477    1.5796  -17.0886 C   0  0  0  0  0  0  0  0  0  0  0  0
  -14.6744    0.4462  -16.3282 C   0  0  0  0  0  0  0  0  0  0  0  0
  -15.1176   -4.6153  -12.3519 C   0  0  0  0  0  0  0  0  0  0  0  0
  -15.9447   -4.0552  -11.3459 C   0  0  0  0  0  0  0  0  0  0  0  0
  -15.9715   -2.7001  -11.5432 C   0  0  0  0  0  0  0  0  0  0  0  0
  -15.2107   -2.3900  -12.6608 N   0  0  0  0  0  0  0  0  0  0  0  0
  -14.9857   -1.1293  -13.2707 C   0  0  0  0  0  0  0  0  0  0  0  0
  -15.5542    0.0042  -12.6901 N   0  0  0  0  0  0  0  0  0  0  0  0
  -14.2410   -1.1029  -14.4020 C   0  0  0  0  0  0  0  0  0  0  0  0
  -13.6968   -2.4253  -14.8423 C   0  0  0  0  0  0  0  0  0  0  0  0
  -13.8927   -3.5787  -14.2810 N   0  0  0  0  0  0  0  0  0  0  0  0
  -14.6822   -3.5792  -13.1678 C   0  0  0  0  0  0  0  0  0  0  0  0
  -16.4285   -0.1761  -12.2053 H   0  0  0  0  0  0  0  0  0  0  0  0
  -15.6281    0.7908  -13.3316 H   0  0  0  0  0  0  0  0  0  0  0  0
  -13.1302   -9.1579  -11.8895 C   0  0  0  0  0  0  0  0  0  0  0  0
  -13.9502   -8.0347  -12.2637 N   0  0  0  0  0  0  0  0  0  0  0  0
  -13.8779   -6.7664  -11.7679 C   0  0  0  0  0  0  0  0  0  0  0  0
  -14.8154   -6.0345  -12.4622 C   0  0  0  0  0  0  0  0  0  0  0  0
  -15.4120   -6.9615  -13.3400 C   0  0  0  0  0  0  0  0  0  0  0  0
  -14.8897   -8.1893  -13.2166 N   0  0  0  0  0  0  0  0  0  0  0  0
  -12.8795    3.4793  -17.5746 N   0  0  0  0  0  0  0  0  0  0  0  0
  -13.6856    4.5863  -17.8085 C   0  0  0  0  0  0  0  0  0  0  0  0
  -14.7951    4.7616  -17.3132 O   0  0  0  0  0  0  0  0  0  0  0  0
  -13.1143    5.5070  -18.6780 N   0  0  0  0  0  0  0  0  0  0  0  0
  -11.8949    3.5799  -17.7775 H   0  0  0  0  0  0  0  0  0  0  0  0
  -12.5411    5.1116  -19.4104 H   0  0  0  0  0  0  0  0  0  0  0  0
  -13.8143    6.7032  -18.9973 C   0  0  0  0  0  0  0  0  0  0  0  0
  -13.4806    7.9177  -18.3812 C   0  0  0  0  0  0  0  0  0  0  0  0
  -14.1105    9.1060  -18.7652 C   0  0  0  0  0  0  0  0  0  0  0  0
  -15.1156    9.0810  -19.7296 C   0  0  0  0  0  0  0  0  0  0  0  0
  -15.4882    7.8640  -20.3006 C   0  0  0  0  0  0  0  0  0  0  0  0
  -16.7696    7.8265  -21.4500 Cl  0  0  0  0  0  0  0  0  0  0  0  0
  -14.8269    6.6799  -19.9596 C   0  0  0  0  0  0  0  0  0  0  0  0
 19 20  1  0  0  0
 20 21  1  0  0  0
 20 24  1  0  0  0
 21 22  2  0  0  0
 22  7  1  0  0  0
 22 23  1  0  0  0
  7  8  1  0  0  0
  7 16  2  0  0  0
  8  9  2  0  0  0
  9 10  1  0  0  0
 10 11  1  0  0  0
 10 16  1  0  0  0
 11 12  1  0  0  0
 11 13  2  0  0  0
 12 17  1  0  0  0
 12 18  1  0  0  0
 13  1  1  0  0  0
 13 14  1  0  0  0
  1  2  1  0  0  0
  1  6  2  0  0  0
  2  3  2  0  0  0
  3  4  1  0  0  0
  4 25  1  0  0  0
  4  5  2  0  0  0
 25 26  1  0  0  0
 25 29  1  0  0  0
 26 27  2  0  0  0
 26 28  1  0  0  0
 28 31  1  0  0  0
 28 30  1  0  0  0
 31 32  1  0  0  0
 31 37  2  0  0  0
 32 33  2  0  0  0
 33 34  1  0  0  0
 34 35  2  0  0  0
 35 36  1  0  0  0
 35 37  1  0  0  0
  5  6  1  0  0  0
 14 15  2  0  0  0
 15 16  1  0  0  0
 23 24  2  0  0  0
M  END
> <minimizedAffinity>
-7.45637

$$$$
