CHEMBL3758749


 42 46  0  0  0  0  0  0  0  0999 V2000
  -28.5007   -4.4600   -7.3540 C   0  0  0  0  0  0  0  0  0  0  0  0
  -29.3252   -5.3515   -6.6885 C   0  0  0  0  0  0  0  0  0  0  0  0
  -30.0537   -5.0107   -5.5409 C   0  0  0  0  0  0  0  0  0  0  0  0
  -30.7677   -5.9394   -4.7637 C   0  0  0  0  0  0  0  0  0  0  0  0
  -31.4713   -5.5410   -3.6939 N   0  0  0  0  0  0  0  0  0  0  0  0
  -31.4421   -4.2371   -3.4011 C   0  0  0  0  0  0  0  0  0  0  0  0
  -30.7551   -3.2899   -4.0499 N   0  0  0  0  0  0  0  0  0  0  0  0
  -30.0516   -3.6795   -5.1147 C   0  0  0  0  0  0  0  0  0  0  0  0
  -29.3262   -2.7413   -5.8537 C   0  0  0  0  0  0  0  0  0  0  0  0
  -28.5765   -3.0928   -6.9885 C   0  0  0  0  0  0  0  0  0  0  0  0
  -27.6595   -6.2860   -8.6693 C   0  0  0  0  0  0  0  0  0  0  0  0
  -27.6847   -4.8806   -8.3625 O   0  0  0  0  0  0  0  0  0  0  0  0
  -30.7233   -7.3305   -5.0872 N   0  0  0  0  0  0  0  0  0  0  0  0
  -31.5855   -7.7796   -4.7923 H   0  0  0  0  0  0  0  0  0  0  0  0
  -29.5981   -8.1726   -4.9183 C   0  0  0  0  0  0  0  0  0  0  0  0
  -29.1258   -8.4806   -3.6407 C   0  0  0  0  0  0  0  0  0  0  0  0
  -27.9549   -9.2317   -3.4766 C   0  0  0  0  0  0  0  0  0  0  0  0
  -27.2468   -9.7413   -4.5711 C   0  0  0  0  0  0  0  0  0  0  0  0
  -27.7804   -9.5280   -5.8440 C   0  0  0  0  0  0  0  0  0  0  0  0
  -28.9450   -8.7635   -6.0078 C   0  0  0  0  0  0  0  0  0  0  0  0
  -26.0059  -10.4230   -4.4510 N   0  0  0  0  0  0  0  0  0  0  0  0
  -24.8509   -9.8920   -3.8933 C   0  0  0  0  0  0  0  0  0  0  0  0
  -24.7350   -8.8007   -3.3489 O   0  0  0  0  0  0  0  0  0  0  0  0
  -25.9454  -11.3166   -4.9218 H   0  0  0  0  0  0  0  0  0  0  0  0
  -23.6049  -10.6873   -4.0287 C   0  0  0  0  0  0  0  0  0  0  0  0
  -22.8747  -11.1691   -2.9370 C   0  0  0  0  0  0  0  0  0  0  0  0
  -21.7455  -11.9644   -3.1611 C   0  0  0  0  0  0  0  0  0  0  0  0
  -21.3513  -12.2800   -4.4648 C   0  0  0  0  0  0  0  0  0  0  0  0
  -22.0619  -11.7684   -5.5478 C   0  0  0  0  0  0  0  0  0  0  0  0
  -21.6100  -12.1918   -7.1526 Cl  0  0  0  0  0  0  0  0  0  0  0  0
  -23.1682  -10.9566   -5.3359 C   0  0  0  0  0  0  0  0  0  0  0  0
  -28.0458   -2.0122   -7.6599 O   0  0  0  0  0  0  0  0  0  0  0  0
  -28.3526   -1.9975   -9.0523 C   0  0  0  0  0  0  0  0  0  0  0  0
  -27.1368   -1.9869   -9.9785 C   0  0  0  0  0  0  0  0  0  0  0  0
  -27.5986   -1.3610  -11.3122 C   0  0  0  0  0  0  0  0  0  0  0  0
  -26.5272   -0.8407  -12.1589 N   0  0  0  0  0  0  0  0  0  0  0  0
  -25.3205   -0.4683  -11.4017 C   0  0  0  0  0  0  0  0  0  0  0  0
  -24.2523    0.1319  -12.3411 C   0  0  0  0  0  0  0  0  0  0  0  0
  -23.8425   -0.7442  -13.4574 N   0  0  0  0  0  0  0  0  0  0  0  0
  -22.9774   -1.8258  -12.9962 C   0  0  0  0  0  0  0  0  0  0  0  0
  -25.0502   -1.2608  -14.1366 C   0  0  0  0  0  0  0  0  0  0  0  0
  -26.1447   -1.8248  -13.1970 C   0  0  0  0  0  0  0  0  0  0  0  0
 11 12  1  0  0  0
 12  1  1  0  0  0
  1  2  1  0  0  0
  1 10  2  0  0  0
  2  3  2  0  0  0
  3  4  1  0  0  0
  3  8  1  0  0  0
  4 13  1  0  0  0
  4  5  2  0  0  0
 13 15  1  0  0  0
 13 14  1  0  0  0
 15 16  1  0  0  0
 15 20  2  0  0  0
 16 17  2  0  0  0
 17 18  1  0  0  0
 18 21  1  0  0  0
 18 19  2  0  0  0
 21 22  1  0  0  0
 21 24  1  0  0  0
 22 23  2  0  0  0
 22 25  1  0  0  0
 25 26  1  0  0  0
 25 31  2  0  0  0
 26 27  2  0  0  0
 27 28  1  0  0  0
 28 29  2  0  0  0
 29 30  1  0  0  0
 29 31  1  0  0  0
 19 20  1  0  0  0
  5  6  1  0  0  0
  6  7  2  0  0  0
  7  8  1  0  0  0
  8  9  2  0  0  0
  9 10  1  0  0  0
 10 32  1  0  0  0
 32 33  1  0  0  0
 33 34  1  0  0  0
 34 35  1  0  0  0
 35 36  1  0  0  0
 36 37  1  0  0  0
 36 42  1  0  0  0
 37 38  1  0  0  0
 38 39  1  0  0  0
 39 40  1  0  0  0
 39 41  1  0  0  0
 41 42  1  0  0  0
M  END
> <minimizedAffinity>
-8.83724

$$$$
