CHEMBL3702662


 34 37  0  0  0  0  0  0  0  0999 V2000
  -28.3063   -1.7377   -4.3358 C   0  0  0  0  0  0  0  0  0  0  0  0
  -28.4378   -2.3988   -5.6778 C   0  0  0  0  0  0  0  0  0  0  0  0
  -27.9965   -1.7527   -6.8432 C   0  0  0  0  0  0  0  0  0  0  0  0
  -28.0788   -2.4119   -8.0685 C   0  0  0  0  0  0  0  0  0  0  0  0
  -28.5877   -3.7235   -8.1134 C   0  0  0  0  0  0  0  0  0  0  0  0
  -29.0070   -4.4079   -6.9637 C   0  0  0  0  0  0  0  0  0  0  0  0
  -28.9615   -3.7045   -5.7548 C   0  0  0  0  0  0  0  0  0  0  0  0
  -29.3196   -5.7555   -6.9835 N   0  0  0  0  0  0  0  0  0  0  0  0
  -30.0363   -6.3384   -5.8479 C   0  0  0  0  0  0  0  0  0  0  0  0
  -31.1882   -7.1694   -6.4035 C   0  0  0  0  0  0  0  0  0  0  0  0
  -30.6972   -8.1436   -7.4363 C   0  0  0  0  0  0  0  0  0  0  0  0
  -31.4929   -9.2178   -7.6706 N   0  0  0  0  0  0  0  0  0  0  0  0
  -31.0758  -10.0994   -8.5768 C   0  0  0  0  0  0  0  0  0  0  0  0
  -31.8878  -11.1844   -8.8164 N   0  0  0  0  0  0  0  0  0  0  0  0
  -29.9479   -9.9807   -9.2848 N   0  0  0  0  0  0  0  0  0  0  0  0
  -29.1864   -8.8928   -9.0350 C   0  0  0  0  0  0  0  0  0  0  0  0
  -29.5135   -7.9135   -8.1209 C   0  0  0  0  0  0  0  0  0  0  0  0
  -28.6284   -6.7229   -7.8455 C   0  0  0  0  0  0  0  0  0  0  0  0
  -32.8397  -10.9534   -8.5712 H   0  0  0  0  0  0  0  0  0  0  0  0
  -31.7192  -11.5494   -9.7419 H   0  0  0  0  0  0  0  0  0  0  0  0
  -27.6841   -1.7862   -9.3636 C   0  0  0  0  0  0  0  0  0  0  0  0
  -28.2911   -0.7674   -9.6879 O   0  0  0  0  0  0  0  0  0  0  0  0
  -26.7240   -2.4351  -10.1328 N   0  0  0  0  0  0  0  0  0  0  0  0
  -26.4537   -3.3711   -9.8609 H   0  0  0  0  0  0  0  0  0  0  0  0
  -26.2765   -1.9870  -11.4078 C   0  0  0  0  0  0  0  0  0  0  0  0
  -27.0469   -2.1319  -12.5680 C   0  0  0  0  0  0  0  0  0  0  0  0
  -26.5590   -1.7427  -13.8156 C   0  0  0  0  0  0  0  0  0  0  0  0
  -25.2830   -1.2048  -13.9267 C   0  0  0  0  0  0  0  0  0  0  0  0
  -24.4900   -1.0317  -12.7837 C   0  0  0  0  0  0  0  0  0  0  0  0
  -25.0094   -1.3982  -11.5208 C   0  0  0  0  0  0  0  0  0  0  0  0
  -23.0848   -0.4965  -12.9150 C   0  0  0  0  0  0  0  0  0  0  0  0
  -22.3878   -1.0377  -13.9538 F   0  0  0  0  0  0  0  0  0  0  0  0
  -23.0547    0.8514  -13.1082 F   0  0  0  0  0  0  0  0  0  0  0  0
  -22.3326   -0.7317  -11.8039 F   0  0  0  0  0  0  0  0  0  0  0  0
  1  2  1  0  0  0
  2  3  1  0  0  0
  2  7  2  0  0  0
  3  4  2  0  0  0
  4 21  1  0  0  0
  4  5  1  0  0  0
 21 22  2  0  0  0
 21 23  1  0  0  0
 23 25  1  0  0  0
 23 24  1  0  0  0
 25 26  1  0  0  0
 25 30  2  0  0  0
 26 27  2  0  0  0
 27 28  1  0  0  0
 28 29  2  0  0  0
 29 31  1  0  0  0
 29 30  1  0  0  0
 31 32  1  0  0  0
 31 33  1  0  0  0
 31 34  1  0  0  0
  5  6  2  0  0  0
  6  8  1  0  0  0
  6  7  1  0  0  0
  8  9  1  0  0  0
  8 18  1  0  0  0
  9 10  1  0  0  0
 10 11  1  0  0  0
 11 12  1  0  0  0
 11 17  2  0  0  0
 12 13  2  0  0  0
 13 14  1  0  0  0
 13 15  1  0  0  0
 14 19  1  0  0  0
 14 20  1  0  0  0
 15 16  2  0  0  0
 16 17  1  0  0  0
 17 18  1  0  0  0
M  END
> <minimizedAffinity>
-12.08975

$$$$
