CHEMBL1975418


 25 29  0  0  0  0  0  0  0  0999 V2000
  -28.3103   -3.3693   -6.3951 N   0  0  0  0  0  0  0  0  0  0  0  0
  -27.9577   -3.4340   -7.6965 N   0  0  0  0  0  0  0  0  0  0  0  0
  -28.3887   -4.5840   -8.1753 N   0  0  0  0  0  0  0  0  0  0  0  0
  -29.0082   -5.2744   -7.1635 C   0  0  0  0  0  0  0  0  0  0  0  0
  -28.9625   -4.5160   -6.0007 C   0  0  0  0  0  0  0  0  0  0  0  0
  -29.6209   -6.5675   -7.4290 C   0  0  0  0  0  0  0  0  0  0  0  0
  -28.8831   -7.5088   -8.1725 C   0  0  0  0  0  0  0  0  0  0  0  0
  -29.4270   -8.7299   -8.5820 C   0  0  0  0  0  0  0  0  0  0  0  0
  -30.7447   -8.9883   -8.2088 C   0  0  0  0  0  0  0  0  0  0  0  0
  -31.5738  -10.0474   -8.4707 N   0  0  0  0  0  0  0  0  0  0  0  0
  -32.7898   -9.9457   -7.9043 N   0  0  0  0  0  0  0  0  0  0  0  0
  -32.7453   -8.7601   -7.2905 C   0  0  0  0  0  0  0  0  0  0  0  0
  -31.5044   -8.1041   -7.4539 C   0  0  0  0  0  0  0  0  0  0  0  0
  -30.9431   -6.8709   -7.0668 C   0  0  0  0  0  0  0  0  0  0  0  0
  -31.3705  -10.8656   -9.0336 H   0  0  0  0  0  0  0  0  0  0  0  0
  -29.4594   -4.9395   -4.6283 C   0  0  0  0  0  0  0  0  0  0  0  0
  -30.8511   -4.5337   -4.2102 C   0  0  0  0  0  0  0  0  0  0  0  0
  -29.6638   -3.9948   -3.4749 C   0  0  0  0  0  0  0  0  0  0  0  0
  -27.7952   -2.2499   -5.6237 C   0  0  0  0  0  0  0  0  0  0  0  0
  -29.9806    1.4507   -6.1444 C   0  0  0  0  0  0  0  0  0  0  0  0
  -28.7101    1.3287   -6.6997 C   0  0  0  0  0  0  0  0  0  0  0  0
  -27.9879    0.1430   -6.5482 C   0  0  0  0  0  0  0  0  0  0  0  0
  -28.5278   -0.9424   -5.8402 C   0  0  0  0  0  0  0  0  0  0  0  0
  -29.8089   -0.7983   -5.2793 C   0  0  0  0  0  0  0  0  0  0  0  0
  -30.5291    0.3887   -5.4309 C   0  0  0  0  0  0  0  0  0  0  0  0
 20 21  1  0  0  0
 20 25  2  0  0  0
 21 22  2  0  0  0
 22 23  1  0  0  0
 23 19  1  0  0  0
 23 24  2  0  0  0
 19  1  1  0  0  0
  1  2  1  0  0  0
  1  5  1  0  0  0
  2  3  2  0  0  0
  3  4  1  0  0  0
  4  6  1  0  0  0
  4  5  2  0  0  0
  6  7  1  0  0  0
  6 14  2  0  0  0
  7  8  2  0  0  0
  8  9  1  0  0  0
  9 10  1  0  0  0
  9 13  2  0  0  0
 10 11  1  0  0  0
 10 15  1  0  0  0
 11 12  2  0  0  0
 12 13  1  0  0  0
 13 14  1  0  0  0
  5 16  1  0  0  0
 16 17  1  0  0  0
 16 18  1  0  0  0
 17 18  1  0  0  0
 24 25  1  0  0  0
M  END
> <minimizedAffinity>
-8.95474

$$$$
