CHEMBL3696088


 33 35  0  0  0  0  0  0  0  0999 V2000
  -28.3206   -2.1011   -8.2562 C   0  0  0  0  0  0  0  0  0  0  0  0
  -29.0448   -3.2657   -8.5187 C   0  0  0  0  0  0  0  0  0  0  0  0
  -29.4998   -4.0722   -7.4688 C   0  0  0  0  0  0  0  0  0  0  0  0
  -29.2517   -3.7357   -6.1270 C   0  0  0  0  0  0  0  0  0  0  0  0
  -28.4777   -2.5933   -5.8770 C   0  0  0  0  0  0  0  0  0  0  0  0
  -28.0001   -1.7905   -6.9337 C   0  0  0  0  0  0  0  0  0  0  0  0
  -29.7460   -4.6341   -5.0552 C   0  0  0  0  0  0  0  0  0  0  0  0
  -31.0639   -4.5957   -4.8154 N   0  0  0  0  0  0  0  0  0  0  0  0
  -31.4708   -5.6564   -3.6402 S   0  0  0  0  0  0  0  0  0  0  0  0
  -29.8921   -6.2487   -3.3579 C   0  0  0  0  0  0  0  0  0  0  0  0
  -29.6667   -7.1990   -2.4084 N   0  0  0  0  0  0  0  0  0  0  0  0
  -29.0084   -5.5832   -4.2104 C   0  0  0  0  0  0  0  0  0  0  0  0
  -30.4282   -7.3763   -1.7534 H   0  0  0  0  0  0  0  0  0  0  0  0
  -28.7654   -7.2117   -1.9342 H   0  0  0  0  0  0  0  0  0  0  0  0
  -27.5669   -5.7942   -4.2161 C   0  0  0  0  0  0  0  0  0  0  0  0
  -27.1335   -7.0501   -4.5487 N   0  0  0  0  0  0  0  0  0  0  0  0
  -26.7395   -4.9257   -3.9644 O   0  0  0  0  0  0  0  0  0  0  0  0
  -27.7641   -7.7187   -4.9727 H   0  0  0  0  0  0  0  0  0  0  0  0
  -26.1366   -7.1713   -4.6670 H   0  0  0  0  0  0  0  0  0  0  0  0
  -26.6932   -0.6646  -11.1780 N   0  0  0  0  0  0  0  0  0  0  0  0
  -26.9822   -1.6292  -10.2271 C   0  0  0  0  0  0  0  0  0  0  0  0
  -26.5133   -2.7606  -10.2001 O   0  0  0  0  0  0  0  0  0  0  0  0
  -27.9539   -1.2166   -9.3102 N   0  0  0  0  0  0  0  0  0  0  0  0
  -27.2464    0.1779  -11.1610 H   0  0  0  0  0  0  0  0  0  0  0  0
  -28.7070   -0.6854   -9.7193 H   0  0  0  0  0  0  0  0  0  0  0  0
  -22.2403    0.2973  -13.1616 C   0  0  0  0  0  0  0  0  0  0  0  0
  -23.6062   -0.3219  -13.2629 C   0  0  0  0  0  0  0  0  0  0  0  0
  -23.9826   -0.9587  -14.4492 C   0  0  0  0  0  0  0  0  0  0  0  0
  -25.2261   -1.5653  -14.5408 C   0  0  0  0  0  0  0  0  0  0  0  0
  -26.1090   -1.5245  -13.4633 C   0  0  0  0  0  0  0  0  0  0  0  0
  -27.2189   -2.2584  -13.5992 F   0  0  0  0  0  0  0  0  0  0  0  0
  -25.8004   -0.8343  -12.2806 C   0  0  0  0  0  0  0  0  0  0  0  0
  -24.5167   -0.2629  -12.1834 C   0  0  0  0  0  0  0  0  0  0  0  0
 26 27  1  0  0  0
 27 28  1  0  0  0
 27 33  2  0  0  0
 28 29  2  0  0  0
 29 30  1  0  0  0
 30 31  1  0  0  0
 30 32  2  0  0  0
 32 20  1  0  0  0
 32 33  1  0  0  0
 20 21  1  0  0  0
 20 24  1  0  0  0
 21 22  2  0  0  0
 21 23  1  0  0  0
 23  1  1  0  0  0
 23 25  1  0  0  0
  1  2  1  0  0  0
  1  6  2  0  0  0
  2  3  2  0  0  0
  3  4  1  0  0  0
  4  7  1  0  0  0
  4  5  2  0  0  0
  7  8  2  0  0  0
  7 12  1  0  0  0
  8  9  1  0  0  0
  9 10  1  0  0  0
 10 11  1  0  0  0
 10 12  2  0  0  0
 11 13  1  0  0  0
 11 14  1  0  0  0
 12 15  1  0  0  0
 15 16  1  0  0  0
 15 17  2  0  0  0
 16 18  1  0  0  0
 16 19  1  0  0  0
  5  6  1  0  0  0
M  END
> <minimizedAffinity>
-9.12026

$$$$
