CHEMBL3900935


 38 41  0  0  0  0  0  0  0  0999 V2000
  -27.0168   -1.6443  -13.8685 C   0  0  0  0  0  0  0  0  0  0  0  0
  -25.6581   -1.6623  -13.2216 C   0  0  0  0  0  0  0  0  0  0  0  0
  -24.5675   -1.2708  -14.0297 C   0  0  0  0  0  0  0  0  0  0  0  0
  -23.2896   -1.0825  -13.4956 C   0  0  0  0  0  0  0  0  0  0  0  0
  -23.0672   -1.3990  -12.1657 C   0  0  0  0  0  0  0  0  0  0  0  0
  -24.1240   -1.8547  -11.3690 C   0  0  0  0  0  0  0  0  0  0  0  0
  -25.4289   -1.9935  -11.8681 C   0  0  0  0  0  0  0  0  0  0  0  0
  -26.4936   -2.4685  -11.0461 N   0  0  0  0  0  0  0  0  0  0  0  0
  -26.8647   -1.9445   -9.8115 C   0  0  0  0  0  0  0  0  0  0  0  0
  -26.3652   -0.9613   -9.2766 O   0  0  0  0  0  0  0  0  0  0  0  0
  -27.8410   -2.7106   -9.1785 N   0  0  0  0  0  0  0  0  0  0  0  0
  -26.9907   -3.2856  -11.3670 H   0  0  0  0  0  0  0  0  0  0  0  0
  -27.7922   -3.6983   -9.3807 H   0  0  0  0  0  0  0  0  0  0  0  0
  -28.2869   -2.3672   -7.8740 C   0  0  0  0  0  0  0  0  0  0  0  0
  -28.6666   -3.3917   -7.0056 C   0  0  0  0  0  0  0  0  0  0  0  0
  -29.0163   -3.0942   -5.6859 C   0  0  0  0  0  0  0  0  0  0  0  0
  -29.0464   -1.7715   -5.2500 C   0  0  0  0  0  0  0  0  0  0  0  0
  -29.3904   -1.5314   -3.9781 F   0  0  0  0  0  0  0  0  0  0  0  0
  -28.7285   -0.7251   -6.1087 C   0  0  0  0  0  0  0  0  0  0  0  0
  -28.3291   -1.0374   -7.4249 C   0  0  0  0  0  0  0  0  0  0  0  0
  -28.8064    0.7019   -5.6505 C   0  0  0  0  0  0  0  0  0  0  0  0
  -27.9823    1.0204   -4.6143 F   0  0  0  0  0  0  0  0  0  0  0  0
  -28.5100    1.5897   -6.6403 F   0  0  0  0  0  0  0  0  0  0  0  0
  -30.0608    1.0321   -5.2259 F   0  0  0  0  0  0  0  0  0  0  0  0
  -22.2120   -0.6093  -14.2169 O   0  0  0  0  0  0  0  0  0  0  0  0
  -21.9804    0.7532  -14.2496 C   0  0  0  0  0  0  0  0  0  0  0  0
  -22.8433    1.6867  -13.6830 C   0  0  0  0  0  0  0  0  0  0  0  0
  -22.5650    3.0179  -13.8856 C   0  0  0  0  0  0  0  0  0  0  0  0
  -21.4687    3.4534  -14.5311 N   0  0  0  0  0  0  0  0  0  0  0  0
  -20.5825    2.5568  -14.9936 C   0  0  0  0  0  0  0  0  0  0  0  0
  -20.8046    1.1876  -14.8719 C   0  0  0  0  0  0  0  0  0  0  0  0
  -19.4086    3.0027  -15.6245 N   0  0  0  0  0  0  0  0  0  0  0  0
  -18.1431    2.7888  -15.1134 C   0  0  0  0  0  0  0  0  0  0  0  0
  -17.8388    2.2223  -14.0717 O   0  0  0  0  0  0  0  0  0  0  0  0
  -19.5008    3.5133  -16.4854 H   0  0  0  0  0  0  0  0  0  0  0  0
  -16.9978    3.3238  -15.9191 C   0  0  0  0  0  0  0  0  0  0  0  0
  -16.0992    2.3533  -16.6501 C   0  0  0  0  0  0  0  0  0  0  0  0
  -15.5327    3.2489  -15.5860 C   0  0  0  0  0  0  0  0  0  0  0  0
  1  2  1  0  0  0
  2  3  1  0  0  0
  2  7  2  0  0  0
  3  4  2  0  0  0
  4 25  1  0  0  0
  4  5  1  0  0  0
 25 26  1  0  0  0
 26 27  1  0  0  0
 26 31  2  0  0  0
 27 28  2  0  0  0
 28 29  1  0  0  0
 29 30  2  0  0  0
 30 32  1  0  0  0
 30 31  1  0  0  0
 32 33  1  0  0  0
 32 35  1  0  0  0
 33 34  2  0  0  0
 33 36  1  0  0  0
 36 37  1  0  0  0
 36 38  1  0  0  0
 37 38  1  0  0  0
  5  6  2  0  0  0
  6  7  1  0  0  0
  7  8  1  0  0  0
  8  9  1  0  0  0
  8 12  1  0  0  0
  9 10  2  0  0  0
  9 11  1  0  0  0
 11 14  1  0  0  0
 11 13  1  0  0  0
 14 15  1  0  0  0
 14 20  2  0  0  0
 15 16  2  0  0  0
 16 17  1  0  0  0
 17 18  1  0  0  0
 17 19  2  0  0  0
 19 21  1  0  0  0
 19 20  1  0  0  0
 21 22  1  0  0  0
 21 23  1  0  0  0
 21 24  1  0  0  0
M  END
> <minimizedAffinity>
-12.21657

$$$$
