CHEMBL3935348


 43 47  0  0  0  0  0  0  0  0999 V2000
  -28.0678   -8.5266   -8.5265 O   0  0  0  0  0  0  0  0  0  0  0  0
  -28.2463   -7.5252   -7.8358 C   0  0  0  0  0  0  0  0  0  0  0  0
  -28.2398   -7.4800   -6.4696 N   0  0  0  0  0  0  0  0  0  0  0  0
  -28.5268   -6.3492   -8.4792 N   0  0  0  0  0  0  0  0  0  0  0  0
  -28.5199   -6.5760   -6.0906 H   0  0  0  0  0  0  0  0  0  0  0  0
  -28.5974   -6.4657   -9.4797 H   0  0  0  0  0  0  0  0  0  0  0  0
  -28.0518   -8.5359   -5.5649 C   0  0  0  0  0  0  0  0  0  0  0  0
  -27.3819   -8.4044   -4.3466 C   0  0  0  0  0  0  0  0  0  0  0  0
  -27.1575   -9.5241   -3.5351 C   0  0  0  0  0  0  0  0  0  0  0  0
  -27.5956  -10.7860   -3.9388 C   0  0  0  0  0  0  0  0  0  0  0  0
  -28.3521  -10.8911   -5.1070 C   0  0  0  0  0  0  0  0  0  0  0  0
  -28.8696  -12.0667   -5.4920 F   0  0  0  0  0  0  0  0  0  0  0  0
  -28.5663   -9.7836   -5.9248 C   0  0  0  0  0  0  0  0  0  0  0  0
  -27.2970  -11.8334   -3.0978 O   0  0  0  0  0  0  0  0  0  0  0  0
  -25.9928  -12.0611   -2.7080 C   0  0  0  0  0  0  0  0  0  0  0  0
  -25.5811  -12.3096   -1.4032 C   0  0  0  0  0  0  0  0  0  0  0  0
  -24.2311  -12.4646   -1.1749 C   0  0  0  0  0  0  0  0  0  0  0  0
  -23.3072  -12.4514   -2.1513 N   0  0  0  0  0  0  0  0  0  0  0  0
  -23.7096  -12.2782   -3.4196 C   0  0  0  0  0  0  0  0  0  0  0  0
  -25.0478  -12.0796   -3.7387 C   0  0  0  0  0  0  0  0  0  0  0  0
  -22.7630  -12.3031   -4.4580 N   0  0  0  0  0  0  0  0  0  0  0  0
  -22.4977  -11.2237   -5.2735 C   0  0  0  0  0  0  0  0  0  0  0  0
  -23.0196  -10.1150   -5.2518 O   0  0  0  0  0  0  0  0  0  0  0  0
  -22.2546  -13.1608   -4.6025 H   0  0  0  0  0  0  0  0  0  0  0  0
  -21.4263  -11.4851   -6.2950 C   0  0  0  0  0  0  0  0  0  0  0  0
  -21.0381  -10.3802   -7.2556 C   0  0  0  0  0  0  0  0  0  0  0  0
  -21.8077  -11.5673   -7.7579 C   0  0  0  0  0  0  0  0  0  0  0  0
  -28.6951   -5.0705   -7.9408 C   0  0  0  0  0  0  0  0  0  0  0  0
  -28.0635   -4.0135   -8.5721 C   0  0  0  0  0  0  0  0  0  0  0  0
  -28.2027   -2.7379   -8.0289 C   0  0  0  0  0  0  0  0  0  0  0  0
  -28.9931   -2.5807   -6.8840 C   0  0  0  0  0  0  0  0  0  0  0  0
  -29.6132   -3.6779   -6.3015 C   0  0  0  0  0  0  0  0  0  0  0  0
  -29.4483   -4.9084   -6.8300 N   0  0  0  0  0  0  0  0  0  0  0  0
  -30.4062   -3.5614   -5.1919 N   0  0  0  0  0  0  0  0  0  0  0  0
  -30.3252   -2.4626   -4.2282 C   0  0  0  0  0  0  0  0  0  0  0  0
  -29.9684   -3.0172   -2.8435 C   0  0  0  0  0  0  0  0  0  0  0  0
  -30.9017   -4.0312   -2.4342 O   0  0  0  0  0  0  0  0  0  0  0  0
  -30.9094   -5.1241   -3.3714 C   0  0  0  0  0  0  0  0  0  0  0  0
  -31.2902   -4.6625   -4.7921 C   0  0  0  0  0  0  0  0  0  0  0  0
  -27.5150   -1.5431   -8.6263 C   0  0  0  0  0  0  0  0  0  0  0  0
  -28.2335   -0.9411   -9.6127 F   0  0  0  0  0  0  0  0  0  0  0  0
  -27.2590   -0.5773   -7.7028 F   0  0  0  0  0  0  0  0  0  0  0  0
  -26.3127   -1.8626   -9.1782 F   0  0  0  0  0  0  0  0  0  0  0  0
  1  2  2  0  0  0
  2  3  1  0  0  0
  2  4  1  0  0  0
  3  7  1  0  0  0
  3  5  1  0  0  0
  7  8  1  0  0  0
  7 13  2  0  0  0
  8  9  2  0  0  0
  9 10  1  0  0  0
 10 14  1  0  0  0
 10 11  2  0  0  0
 14 15  1  0  0  0
 15 16  1  0  0  0
 15 20  2  0  0  0
 16 17  2  0  0  0
 17 18  1  0  0  0
 18 19  2  0  0  0
 19 21  1  0  0  0
 19 20  1  0  0  0
 21 22  1  0  0  0
 21 24  1  0  0  0
 22 23  2  0  0  0
 22 25  1  0  0  0
 25 26  1  0  0  0
 25 27  1  0  0  0
 26 27  1  0  0  0
 11 12  1  0  0  0
 11 13  1  0  0  0
  4 28  1  0  0  0
  4  6  1  0  0  0
 28 29  1  0  0  0
 28 33  2  0  0  0
 29 30  2  0  0  0
 30 40  1  0  0  0
 30 31  1  0  0  0
 40 41  1  0  0  0
 40 42  1  0  0  0
 40 43  1  0  0  0
 31 32  2  0  0  0
 32 34  1  0  0  0
 32 33  1  0  0  0
 34 35  1  0  0  0
 34 39  1  0  0  0
 35 36  1  0  0  0
 36 37  1  0  0  0
 37 38  1  0  0  0
 38 39  1  0  0  0
M  END
> <minimizedAffinity>
-7.98733

$$$$
