CHEMBL392934


 27 29  0  0  0  0  0  0  0  0999 V2000
  -27.1487   -1.0573   -8.2502 O   0  0  0  0  0  0  0  0  0  0  0  0
  -27.4944   -2.1627   -8.6523 C   0  0  0  0  0  0  0  0  0  0  0  0
  -27.1028   -2.7186   -9.8630 N   0  0  0  0  0  0  0  0  0  0  0  0
  -27.3675   -3.6798  -10.0269 H   0  0  0  0  0  0  0  0  0  0  0  0
  -26.3993   -2.0882  -10.9145 C   0  0  0  0  0  0  0  0  0  0  0  0
  -26.8856   -1.9880  -12.2181 C   0  0  0  0  0  0  0  0  0  0  0  0
  -26.0989   -1.4401  -13.2373 C   0  0  0  0  0  0  0  0  0  0  0  0
  -24.8038   -0.9791  -12.9759 C   0  0  0  0  0  0  0  0  0  0  0  0
  -24.3320   -1.0303  -11.6570 C   0  0  0  0  0  0  0  0  0  0  0  0
  -25.1227   -1.5798  -10.6372 C   0  0  0  0  0  0  0  0  0  0  0  0
  -23.9257   -0.4676  -14.0925 C   0  0  0  0  0  0  0  0  0  0  0  0
  -23.6498    0.8638  -14.0022 F   0  0  0  0  0  0  0  0  0  0  0  0
  -22.7203   -1.0966  -14.1450 F   0  0  0  0  0  0  0  0  0  0  0  0
  -24.4940   -0.6444  -15.3185 F   0  0  0  0  0  0  0  0  0  0  0  0
  -28.3708   -3.0095   -7.8630 C   0  0  0  0  0  0  0  0  0  0  0  0
  -29.4652   -3.7716   -8.2524 C   0  0  0  0  0  0  0  0  0  0  0  0
  -29.9723   -4.3402   -7.0769 C   0  0  0  0  0  0  0  0  0  0  0  0
  -29.2737   -3.9797   -6.0065 N   0  0  0  0  0  0  0  0  0  0  0  0
  -28.3100   -3.1621   -6.4863 N   0  0  0  0  0  0  0  0  0  0  0  0
  -27.3786   -2.5427   -5.5411 C   0  0  0  0  0  0  0  0  0  0  0  0
  -28.0642   -1.5590   -4.5781 C   0  0  0  0  0  0  0  0  0  0  0  0
  -28.8255   -0.3949   -5.1726 C   0  0  0  0  0  0  0  0  0  0  0  0
  -28.1026    0.5950   -5.8547 C   0  0  0  0  0  0  0  0  0  0  0  0
  -28.7844    1.6281   -6.4795 C   0  0  0  0  0  0  0  0  0  0  0  0
  -30.1263    1.7426   -6.4793 N   0  0  0  0  0  0  0  0  0  0  0  0
  -30.8099    0.7770   -5.8270 C   0  0  0  0  0  0  0  0  0  0  0  0
  -30.2185   -0.2957   -5.1714 C   0  0  0  0  0  0  0  0  0  0  0  0
  1  2  2  0  0  0
  2  3  1  0  0  0
  2 15  1  0  0  0
  3  5  1  0  0  0
  3  4  1  0  0  0
  5  6  1  0  0  0
  5 10  2  0  0  0
  6  7  2  0  0  0
  7  8  1  0  0  0
  8 11  1  0  0  0
  8  9  2  0  0  0
 11 12  1  0  0  0
 11 13  1  0  0  0
 11 14  1  0  0  0
  9 10  1  0  0  0
 15 16  2  0  0  0
 15 19  1  0  0  0
 16 17  1  0  0  0
 17 18  2  0  0  0
 18 19  1  0  0  0
 19 20  1  0  0  0
 20 21  1  0  0  0
 21 22  1  0  0  0
 22 23  1  0  0  0
 22 27  2  0  0  0
 23 24  2  0  0  0
 24 25  1  0  0  0
 25 26  2  0  0  0
 26 27  1  0  0  0
M  END
> <minimizedAffinity>
-8.76308

$$$$
