CHEMBL381973


 28 31  0  0  0  0  0  0  0  0999 V2000
  -28.4517   -3.2515   -4.8063 C   0  0  0  0  0  0  0  0  0  0  0  0
  -28.4063   -4.0928   -3.7082 C   0  0  0  0  0  0  0  0  0  0  0  0
  -28.8563   -5.3210   -4.0697 N   0  0  0  0  0  0  0  0  0  0  0  0
  -28.9255   -6.3765   -3.2415 N   0  0  0  0  0  0  0  0  0  0  0  0
  -29.3536   -7.4656   -3.7927 C   0  0  0  0  0  0  0  0  0  0  0  0
  -29.7155   -7.6289   -5.1019 N   0  0  0  0  0  0  0  0  0  0  0  0
  -29.6309   -6.5963   -5.8717 C   0  0  0  0  0  0  0  0  0  0  0  0
  -29.1941   -5.3245   -5.3918 C   0  0  0  0  0  0  0  0  0  0  0  0
  -28.9693   -4.0456   -5.9112 C   0  0  0  0  0  0  0  0  0  0  0  0
  -29.1566   -3.5317   -7.3282 C   0  0  0  0  0  0  0  0  0  0  0  0
  -27.9942   -3.8880   -8.2556 C   0  0  0  0  0  0  0  0  0  0  0  0
  -30.5162   -3.8898   -7.9271 C   0  0  0  0  0  0  0  0  0  0  0  0
  -27.9817   -1.8627   -4.7815 C   0  0  0  0  0  0  0  0  0  0  0  0
  -26.8070   -1.5312   -4.8732 O   0  0  0  0  0  0  0  0  0  0  0  0
  -29.0035   -0.9863   -4.5455 O   0  0  0  0  0  0  0  0  0  0  0  0
  -30.0881    0.8597   -5.6045 C   0  0  0  0  0  0  0  0  0  0  0  0
  -28.7882    0.3536   -5.0036 C   0  0  0  0  0  0  0  0  0  0  0  0
  -29.9357   -6.6171   -7.2197 O   0  0  0  0  0  0  0  0  0  0  0  0
  -29.7200   -7.7883   -7.9833 C   0  0  0  0  0  0  0  0  0  0  0  0
  -30.6884   -8.7887   -8.0638 C   0  0  0  0  0  0  0  0  0  0  0  0
  -30.4159   -9.9887   -8.7254 C   0  0  0  0  0  0  0  0  0  0  0  0
  -29.1352  -10.1534   -9.2647 C   0  0  0  0  0  0  0  0  0  0  0  0
  -28.5872  -11.2276   -9.9301 N   0  0  0  0  0  0  0  0  0  0  0  0
  -27.2883  -10.9605  -10.2711 C   0  0  0  0  0  0  0  0  0  0  0  0
  -26.9895   -9.6927   -9.8252 C   0  0  0  0  0  0  0  0  0  0  0  0
  -28.1462   -9.1710   -9.1831 C   0  0  0  0  0  0  0  0  0  0  0  0
  -28.4414   -7.9603   -8.5238 C   0  0  0  0  0  0  0  0  0  0  0  0
  -29.0755  -12.0932  -10.1190 H   0  0  0  0  0  0  0  0  0  0  0  0
 16 17  1  0  0  0
 17 15  1  0  0  0
 15 13  1  0  0  0
 13 14  2  0  0  0
 13  1  1  0  0  0
  1  2  2  0  0  0
  1  9  1  0  0  0
  2  3  1  0  0  0
  3  4  1  0  0  0
  3  8  1  0  0  0
  4  5  2  0  0  0
  5  6  1  0  0  0
  6  7  2  0  0  0
  7 18  1  0  0  0
  7  8  1  0  0  0
 18 19  1  0  0  0
 19 20  1  0  0  0
 19 27  2  0  0  0
 20 21  2  0  0  0
 21 22  1  0  0  0
 22 23  1  0  0  0
 22 26  2  0  0  0
 23 24  1  0  0  0
 23 28  1  0  0  0
 24 25  2  0  0  0
 25 26  1  0  0  0
 26 27  1  0  0  0
  8  9  2  0  0  0
  9 10  1  0  0  0
 10 11  1  0  0  0
 10 12  1  0  0  0
M  END
> <minimizedAffinity>
-7.59610

$$$$
