CHEMBL1996649


 43 46  0  0  0  0  0  0  0  0999 V2000
  -19.0056    2.4880  -15.4047 C   0  0  0  0  0  0  0  0  0  0  0  0
  -19.5155    3.7250  -15.0717 C   0  0  0  0  0  0  0  0  0  0  0  0
  -20.7168    3.9205  -14.5052 N   0  0  0  0  0  0  0  0  0  0  0  0
  -21.5039    2.8677  -14.2041 C   0  0  0  0  0  0  0  0  0  0  0  0
  -22.6892    3.2355  -13.5873 N   0  0  0  0  0  0  0  0  0  0  0  0
  -21.0868    1.5321  -14.5014 C   0  0  0  0  0  0  0  0  0  0  0  0
  -21.7286    0.2187  -14.2983 C   0  0  0  0  0  0  0  0  0  0  0  0
  -20.9353   -0.8146  -14.7512 C   0  0  0  0  0  0  0  0  0  0  0  0
  -19.4417   -0.2945  -15.3383 S   0  0  0  0  0  0  0  0  0  0  0  0
  -19.8175    1.3753  -15.1007 C   0  0  0  0  0  0  0  0  0  0  0  0
  -22.6543    4.2212  -13.3475 H   0  0  0  0  0  0  0  0  0  0  0  0
  -22.9860    2.6212  -12.8415 H   0  0  0  0  0  0  0  0  0  0  0  0
  -23.0345   -0.1002  -13.7064 C   0  0  0  0  0  0  0  0  0  0  0  0
  -23.3364    0.3157  -12.4145 C   0  0  0  0  0  0  0  0  0  0  0  0
  -24.4953   -0.1231  -11.7779 C   0  0  0  0  0  0  0  0  0  0  0  0
  -25.4547   -0.8730  -12.4586 C   0  0  0  0  0  0  0  0  0  0  0  0
  -25.2078   -1.2244  -13.7856 C   0  0  0  0  0  0  0  0  0  0  0  0
  -24.0028   -0.8467  -14.4020 C   0  0  0  0  0  0  0  0  0  0  0  0
  -26.6538   -1.2931  -11.8383 N   0  0  0  0  0  0  0  0  0  0  0  0
  -26.7502   -1.5921  -10.4929 C   0  0  0  0  0  0  0  0  0  0  0  0
  -25.8650   -1.3768   -9.6712 O   0  0  0  0  0  0  0  0  0  0  0  0
  -27.9570   -2.1913  -10.1698 N   0  0  0  0  0  0  0  0  0  0  0  0
  -27.5234   -1.1054  -12.3148 H   0  0  0  0  0  0  0  0  0  0  0  0
  -28.3344   -2.8016  -10.8797 H   0  0  0  0  0  0  0  0  0  0  0  0
  -28.2682   -2.4988   -8.8209 C   0  0  0  0  0  0  0  0  0  0  0  0
  -28.8885   -3.7050   -8.4728 C   0  0  0  0  0  0  0  0  0  0  0  0
  -29.2438   -3.9754   -7.1521 C   0  0  0  0  0  0  0  0  0  0  0  0
  -28.9783   -3.0344   -6.1644 C   0  0  0  0  0  0  0  0  0  0  0  0
  -28.3447   -1.8444   -6.5095 C   0  0  0  0  0  0  0  0  0  0  0  0
  -28.1156   -0.9276   -5.5597 F   0  0  0  0  0  0  0  0  0  0  0  0
  -27.9659   -1.5742   -7.8233 C   0  0  0  0  0  0  0  0  0  0  0  0
  -16.8724    1.3529  -15.6943 N   0  0  0  0  0  0  0  0  0  0  0  0
  -17.6603    2.4348  -16.0118 C   0  0  0  0  0  0  0  0  0  0  0  0
  -17.3112    3.3347  -16.7693 O   0  0  0  0  0  0  0  0  0  0  0  0
  -17.2196    0.6695  -15.0327 H   0  0  0  0  0  0  0  0  0  0  0  0
  -15.5000    1.2394  -16.1339 C   0  0  0  0  0  0  0  0  0  0  0  0
  -14.5452    1.8513  -15.1059 C   0  0  0  0  0  0  0  0  0  0  0  0
  -14.4627    1.0321  -13.8091 C   0  0  0  0  0  0  0  0  0  0  0  0
  -14.5392   -0.4284  -13.9883 N   0  0  0  0  0  0  0  0  0  0  0  0
  -12.4612   -1.1000  -15.2582 C   0  0  0  0  0  0  0  0  0  0  0  0
  -13.2101   -1.0621  -13.9298 C   0  0  0  0  0  0  0  0  0  0  0  0
  -15.5383   -1.0362  -13.0939 C   0  0  0  0  0  0  0  0  0  0  0  0
  -15.8719   -2.5043  -13.3464 C   0  0  0  0  0  0  0  0  0  0  0  0
 40 41  1  0  0  0
 41 39  1  0  0  0
 39 42  1  0  0  0
 39 38  1  0  0  0
 42 43  1  0  0  0
 38 37  1  0  0  0
 37 36  1  0  0  0
 36 32  1  0  0  0
 32 33  1  0  0  0
 32 35  1  0  0  0
 33 34  2  0  0  0
 33  1  1  0  0  0
  1  2  1  0  0  0
  1 10  2  0  0  0
  2  3  2  0  0  0
  3  4  1  0  0  0
  4  5  1  0  0  0
  4  6  2  0  0  0
  5 11  1  0  0  0
  5 12  1  0  0  0
  6  7  1  0  0  0
  6 10  1  0  0  0
  7 13  1  0  0  0
  7  8  2  0  0  0
 13 14  1  0  0  0
 13 18  2  0  0  0
 14 15  2  0  0  0
 15 16  1  0  0  0
 16 19  1  0  0  0
 16 17  2  0  0  0
 19 20  1  0  0  0
 19 23  1  0  0  0
 20 21  2  0  0  0
 20 22  1  0  0  0
 22 25  1  0  0  0
 22 24  1  0  0  0
 25 26  1  0  0  0
 25 31  2  0  0  0
 26 27  2  0  0  0
 27 28  1  0  0  0
 28 29  2  0  0  0
 29 30  1  0  0  0
 29 31  1  0  0  0
 17 18  1  0  0  0
  8  9  1  0  0  0
  9 10  1  0  0  0
M  END
> <minimizedAffinity>
-8.59758

$$$$
