CHEMBL2409788


 32 35  0  0  0  0  0  0  0  0999 V2000
  -19.5117    3.1952  -14.9797 O   0  0  0  0  0  0  0  0  0  0  0  0
  -20.4575    2.2272  -14.6776 C   0  0  0  0  0  0  0  0  0  0  0  0
  -20.2226    0.9133  -15.2745 C   0  0  0  0  0  0  0  0  0  0  0  0
  -21.0416   -0.1345  -15.0323 C   0  0  0  0  0  0  0  0  0  0  0  0
  -22.1721    0.0367  -14.1799 C   0  0  0  0  0  0  0  0  0  0  0  0
  -23.1132   -0.7788  -13.7486 N   0  0  0  0  0  0  0  0  0  0  0  0
  -23.8404    0.0089  -12.8936 C   0  0  0  0  0  0  0  0  0  0  0  0
  -23.4428    1.2748  -12.8303 N   0  0  0  0  0  0  0  0  0  0  0  0
  -22.3760    1.3082  -13.6457 N   0  0  0  0  0  0  0  0  0  0  0  0
  -21.5534    2.3910  -13.9174 C   0  0  0  0  0  0  0  0  0  0  0  0
  -24.8889   -0.5346  -12.2006 N   0  0  0  0  0  0  0  0  0  0  0  0
  -25.8367   -1.3423  -12.7828 C   0  0  0  0  0  0  0  0  0  0  0  0
  -25.9379   -1.6152  -13.9717 O   0  0  0  0  0  0  0  0  0  0  0  0
  -24.9714   -0.2279  -11.2469 H   0  0  0  0  0  0  0  0  0  0  0  0
  -26.8896   -1.9012  -11.8832 C   0  0  0  0  0  0  0  0  0  0  0  0
  -27.8592   -0.9843  -11.1746 C   0  0  0  0  0  0  0  0  0  0  0  0
  -26.9067   -1.8319  -10.3787 C   0  0  0  0  0  0  0  0  0  0  0  0
  -14.2661    1.4553  -16.3415 C   0  0  0  0  0  0  0  0  0  0  0  0
  -15.6396    1.8869  -15.9000 C   0  0  0  0  0  0  0  0  0  0  0  0
  -16.0855    3.1418  -16.3482 C   0  0  0  0  0  0  0  0  0  0  0  0
  -17.3446    3.6198  -16.0018 C   0  0  0  0  0  0  0  0  0  0  0  0
  -18.2186    2.8113  -15.2783 C   0  0  0  0  0  0  0  0  0  0  0  0
  -17.7765    1.5783  -14.7919 C   0  0  0  0  0  0  0  0  0  0  0  0
  -16.4810    1.1071  -15.0721 C   0  0  0  0  0  0  0  0  0  0  0  0
  -15.9922   -0.1175  -14.5387 N   0  0  0  0  0  0  0  0  0  0  0  0
  -15.3543   -0.2883  -13.3205 C   0  0  0  0  0  0  0  0  0  0  0  0
  -15.1692    0.5780  -12.4703 O   0  0  0  0  0  0  0  0  0  0  0  0
  -15.9872   -0.9085  -15.1679 H   0  0  0  0  0  0  0  0  0  0  0  0
  -14.8402   -1.7025  -13.0738 C   0  0  0  0  0  0  0  0  0  0  0  0
  -15.8662   -2.6591  -12.4445 C   0  0  0  0  0  0  0  0  0  0  0  0
  -15.6984   -4.0938  -12.9505 C   0  0  0  0  0  0  0  0  0  0  0  0
  -15.7412   -2.6402  -10.9177 C   0  0  0  0  0  0  0  0  0  0  0  0
 18 19  1  0  0  0
 19 20  1  0  0  0
 19 24  2  0  0  0
 20 21  2  0  0  0
 21 22  1  0  0  0
 22  1  1  0  0  0
 22 23  2  0  0  0
  1  2  1  0  0  0
  2  3  1  0  0  0
  2 10  2  0  0  0
  3  4  2  0  0  0
  4  5  1  0  0  0
  5  6  2  0  0  0
  5  9  1  0  0  0
  6  7  1  0  0  0
  7 11  1  0  0  0
  7  8  2  0  0  0
 11 12  1  0  0  0
 11 14  1  0  0  0
 12 13  2  0  0  0
 12 15  1  0  0  0
 15 16  1  0  0  0
 15 17  1  0  0  0
 16 17  1  0  0  0
  8  9  1  0  0  0
  9 10  1  0  0  0
 23 24  1  0  0  0
 24 25  1  0  0  0
 25 26  1  0  0  0
 25 28  1  0  0  0
 26 27  2  0  0  0
 26 29  1  0  0  0
 29 30  1  0  0  0
 30 31  1  0  0  0
 30 32  1  0  0  0
M  END
> <minimizedAffinity>
-9.65350

$$$$
