CHEMBL3690473


 35 38  0  0  0  0  0  0  0  0999 V2000
  -14.6528   -3.4680  -13.0091 C   0  0  0  0  0  0  0  0  0  0  0  0
  -15.9413   -3.0493  -13.5825 C   0  0  0  0  0  0  0  0  0  0  0  0
  -16.1331   -1.7801  -13.9724 C   0  0  0  0  0  0  0  0  0  0  0  0
  -15.1200   -0.8395  -13.7925 N   0  0  0  0  0  0  0  0  0  0  0  0
  -15.0796    0.5247  -14.0618 C   0  0  0  0  0  0  0  0  0  0  0  0
  -13.7750    0.8812  -13.7432 C   0  0  0  0  0  0  0  0  0  0  0  0
  -13.0500   -0.1675  -13.2511 N   0  0  0  0  0  0  0  0  0  0  0  0
  -13.8752   -1.1894  -13.2712 C   0  0  0  0  0  0  0  0  0  0  0  0
  -13.6700   -2.5439  -12.8782 C   0  0  0  0  0  0  0  0  0  0  0  0
  -14.8205   -8.1236  -13.9978 N   0  0  0  0  0  0  0  0  0  0  0  0
  -14.4831   -7.1163  -13.0950 C   0  0  0  0  0  0  0  0  0  0  0  0
  -14.0480   -7.4324  -11.8277 C   0  0  0  0  0  0  0  0  0  0  0  0
  -13.7802   -6.3717  -11.0000 C   0  0  0  0  0  0  0  0  0  0  0  0
  -13.9372   -5.0909  -11.3699 N   0  0  0  0  0  0  0  0  0  0  0  0
  -14.3934   -4.8821  -12.6205 C   0  0  0  0  0  0  0  0  0  0  0  0
  -14.6639   -5.8569  -13.5078 N   0  0  0  0  0  0  0  0  0  0  0  0
  -14.0883   -8.8163  -14.1029 H   0  0  0  0  0  0  0  0  0  0  0  0
  -15.0648   -7.6842  -14.8829 H   0  0  0  0  0  0  0  0  0  0  0  0
  -16.1572    1.3638  -14.6091 C   0  0  0  0  0  0  0  0  0  0  0  0
  -15.8758    2.1820  -15.7125 C   0  0  0  0  0  0  0  0  0  0  0  0
  -16.8537    3.0113  -16.2520 C   0  0  0  0  0  0  0  0  0  0  0  0
  -18.1409    3.0058  -15.7260 C   0  0  0  0  0  0  0  0  0  0  0  0
  -18.4688    2.1898  -14.6427 C   0  0  0  0  0  0  0  0  0  0  0  0
  -17.4538    1.4090  -14.0612 C   0  0  0  0  0  0  0  0  0  0  0  0
  -19.7814    2.1030  -14.1112 N   0  0  0  0  0  0  0  0  0  0  0  0
  -20.7089    1.1207  -14.3891 C   0  0  0  0  0  0  0  0  0  0  0  0
  -20.5605    0.1563  -15.1245 O   0  0  0  0  0  0  0  0  0  0  0  0
  -21.9182    1.3418  -13.7691 N   0  0  0  0  0  0  0  0  0  0  0  0
  -20.0553    2.8187  -13.4538 H   0  0  0  0  0  0  0  0  0  0  0  0
  -21.8987    1.8009  -12.8705 H   0  0  0  0  0  0  0  0  0  0  0  0
  -22.9948    0.3683  -14.0021 C   0  0  0  0  0  0  0  0  0  0  0  0
  -23.3691   -0.5332  -12.8151 C   0  0  0  0  0  0  0  0  0  0  0  0
  -22.4207   -0.5273  -11.8505 F   0  0  0  0  0  0  0  0  0  0  0  0
  -24.5124   -0.0799  -12.2395 F   0  0  0  0  0  0  0  0  0  0  0  0
  -23.5897   -1.8113  -13.1851 F   0  0  0  0  0  0  0  0  0  0  0  0
 10 11  1  0  0  0
 10 17  1  0  0  0
 10 18  1  0  0  0
 11 12  1  0  0  0
 11 16  2  0  0  0
 12 13  2  0  0  0
 13 14  1  0  0  0
 14 15  2  0  0  0
 15  1  1  0  0  0
 15 16  1  0  0  0
  1  2  1  0  0  0
  1  9  2  0  0  0
  2  3  2  0  0  0
  3  4  1  0  0  0
  4  5  1  0  0  0
  4  8  1  0  0  0
  5 19  1  0  0  0
  5  6  2  0  0  0
 19 20  1  0  0  0
 19 24  2  0  0  0
 20 21  2  0  0  0
 21 22  1  0  0  0
 22 23  2  0  0  0
 23 25  1  0  0  0
 23 24  1  0  0  0
 25 26  1  0  0  0
 25 29  1  0  0  0
 26 27  2  0  0  0
 26 28  1  0  0  0
 28 31  1  0  0  0
 28 30  1  0  0  0
 31 32  1  0  0  0
 32 33  1  0  0  0
 32 34  1  0  0  0
 32 35  1  0  0  0
  6  7  1  0  0  0
  7  8  2  0  0  0
  8  9  1  0  0  0
M  END
> <minimizedAffinity>
-9.07722

$$$$
