CHEMBL359795


 29 32  0  0  0  0  0  0  0  0999 V2000
  -30.6480   -6.2898   -4.2968 C   0  0  0  0  0  0  0  0  0  0  0  0
  -31.0330   -6.7791   -5.5462 C   0  0  0  0  0  0  0  0  0  0  0  0
  -30.2952   -7.7951   -6.1647 C   0  0  0  0  0  0  0  0  0  0  0  0
  -29.1364   -8.3339   -5.5736 C   0  0  0  0  0  0  0  0  0  0  0  0
  -28.7930   -7.8406   -4.3040 C   0  0  0  0  0  0  0  0  0  0  0  0
  -29.5458   -6.8574   -3.6605 C   0  0  0  0  0  0  0  0  0  0  0  0
  -28.2852   -9.3156   -6.2921 C   0  0  0  0  0  0  0  0  0  0  0  0
  -27.7959  -10.4652   -5.6197 C   0  0  0  0  0  0  0  0  0  0  0  0
  -27.0180  -11.4538   -6.2561 C   0  0  0  0  0  0  0  0  0  0  0  0
  -26.7018  -11.3370   -7.6023 C   0  0  0  0  0  0  0  0  0  0  0  0
  -27.1675  -10.2163   -8.2582 C   0  0  0  0  0  0  0  0  0  0  0  0
  -27.9375   -9.2167   -7.6425 C   0  0  0  0  0  0  0  0  0  0  0  0
  -28.2481   -8.1653   -8.6639 C   0  0  0  0  0  0  0  0  0  0  0  0
  -27.5670   -8.6305   -9.8437 N   0  0  0  0  0  0  0  0  0  0  0  0
  -26.9748   -9.8567   -9.6662 C   0  0  0  0  0  0  0  0  0  0  0  0
  -26.4170  -10.5278  -10.5097 O   0  0  0  0  0  0  0  0  0  0  0  0
  -27.6535   -8.2267  -10.7666 H   0  0  0  0  0  0  0  0  0  0  0  0
  -31.3776   -5.1427   -3.6541 C   0  0  0  0  0  0  0  0  0  0  0  0
  -30.0095   -3.4339   -4.8102 N   0  0  0  0  0  0  0  0  0  0  0  0
  -30.7214   -3.7757   -3.6741 C   0  0  0  0  0  0  0  0  0  0  0  0
  -30.8837   -3.0503   -2.6909 O   0  0  0  0  0  0  0  0  0  0  0  0
  -30.0789   -4.0476   -5.6133 H   0  0  0  0  0  0  0  0  0  0  0  0
  -30.0878    1.3615   -6.0151 C   0  0  0  0  0  0  0  0  0  0  0  0
  -29.3288    0.1337   -5.6056 C   0  0  0  0  0  0  0  0  0  0  0  0
  -27.9547    0.2078   -5.3650 C   0  0  0  0  0  0  0  0  0  0  0  0
  -27.2493   -0.9252   -4.9784 C   0  0  0  0  0  0  0  0  0  0  0  0
  -27.9127   -2.1384   -4.8036 C   0  0  0  0  0  0  0  0  0  0  0  0
  -29.2903   -2.2343   -5.0089 C   0  0  0  0  0  0  0  0  0  0  0  0
  -29.9890   -1.0975   -5.4399 C   0  0  0  0  0  0  0  0  0  0  0  0
 23 24  1  0  0  0
 24 25  1  0  0  0
 24 29  2  0  0  0
 25 26  2  0  0  0
 26 27  1  0  0  0
 27 28  2  0  0  0
 28 19  1  0  0  0
 28 29  1  0  0  0
 19 20  1  0  0  0
 19 22  1  0  0  0
 20 21  2  0  0  0
 20 18  1  0  0  0
 18  1  1  0  0  0
  1  2  1  0  0  0
  1  6  2  0  0  0
  2  3  2  0  0  0
  3  4  1  0  0  0
  4  7  1  0  0  0
  4  5  2  0  0  0
  7  8  1  0  0  0
  7 12  2  0  0  0
  8  9  2  0  0  0
  9 10  1  0  0  0
 10 11  2  0  0  0
 11 12  1  0  0  0
 11 15  1  0  0  0
 12 13  1  0  0  0
 13 14  1  0  0  0
 14 15  1  0  0  0
 14 17  1  0  0  0
 15 16  2  0  0  0
  5  6  1  0  0  0
M  END
> <minimizedAffinity>
-9.18538

$$$$
