CHEMBL2016920


 32 36  0  0  0  0  0  0  0  0999 V2000
  -23.0712    2.2508  -14.0335 O   0  0  0  0  0  0  0  0  0  0  0  0
  -22.1771    1.3985  -14.0006 C   0  0  0  0  0  0  0  0  0  0  0  0
  -20.8282    1.7330  -14.1986 N   0  0  0  0  0  0  0  0  0  0  0  0
  -20.5733    3.1692  -14.4613 C   0  0  0  0  0  0  0  0  0  0  0  0
  -19.1213    3.6601  -14.6195 C   0  0  0  0  0  0  0  0  0  0  0  0
  -18.2439    2.5751  -15.0766 C   0  0  0  0  0  0  0  0  0  0  0  0
  -16.9573    2.7229  -15.5138 N   0  0  0  0  0  0  0  0  0  0  0  0
  -16.5177    1.4945  -15.7523 C   0  0  0  0  0  0  0  0  0  0  0  0
  -17.5215    0.5764  -15.5033 N   0  0  0  0  0  0  0  0  0  0  0  0
  -18.6168    1.2617  -15.0689 C   0  0  0  0  0  0  0  0  0  0  0  0
  -19.9152    0.6931  -14.6921 C   0  0  0  0  0  0  0  0  0  0  0  0
  -17.4203   -0.4287  -15.6069 H   0  0  0  0  0  0  0  0  0  0  0  0
  -15.2304    1.0266  -16.1610 C   0  0  0  0  0  0  0  0  0  0  0  0
  -14.8403    1.2568  -17.4291 C   0  0  0  0  0  0  0  0  0  0  0  0
  -13.5057    0.8573  -17.8868 C   0  0  0  0  0  0  0  0  0  0  0  0
  -13.0870    1.0964  -19.1972 C   0  0  0  0  0  0  0  0  0  0  0  0
  -11.7991    0.7200  -19.5850 C   0  0  0  0  0  0  0  0  0  0  0  0
  -11.2773    1.0105  -21.2010 Cl  0  0  0  0  0  0  0  0  0  0  0  0
  -10.9304    0.1145  -18.6776 C   0  0  0  0  0  0  0  0  0  0  0  0
  -11.3476   -0.1276  -17.3702 C   0  0  0  0  0  0  0  0  0  0  0  0
  -12.6352    0.2391  -16.9860 C   0  0  0  0  0  0  0  0  0  0  0  0
  -13.0614   -0.0134  -15.6799 N   0  0  0  0  0  0  0  0  0  0  0  0
  -14.3100    0.3185  -15.2134 C   0  0  0  0  0  0  0  0  0  0  0  0
  -14.6400    0.0468  -14.0601 O   0  0  0  0  0  0  0  0  0  0  0  0
  -12.4579   -0.4718  -15.0219 H   0  0  0  0  0  0  0  0  0  0  0  0
  -22.5414   -0.0751  -13.7394 C   0  0  0  0  0  0  0  0  0  0  0  0
  -23.9925   -0.2481  -13.4981 N   0  0  0  0  0  0  0  0  0  0  0  0
  -24.5100   -1.4230  -14.2266 C   0  0  0  0  0  0  0  0  0  0  0  0
  -26.0137   -1.5915  -13.9985 C   0  0  0  0  0  0  0  0  0  0  0  0
  -26.3354   -1.7084  -12.5140 C   0  0  0  0  0  0  0  0  0  0  0  0
  -25.7301   -0.5363  -11.7517 C   0  0  0  0  0  0  0  0  0  0  0  0
  -24.2382   -0.3892  -12.0536 C   0  0  0  0  0  0  0  0  0  0  0  0
  1  2  2  0  0  0
  2 26  1  0  0  0
  2  3  1  0  0  0
 26 27  1  0  0  0
 27 28  1  0  0  0
 27 32  1  0  0  0
 28 29  1  0  0  0
 29 30  1  0  0  0
 30 31  1  0  0  0
 31 32  1  0  0  0
  3  4  1  0  0  0
  3 11  1  0  0  0
  4  5  1  0  0  0
  5  6  1  0  0  0
  6  7  1  0  0  0
  6 10  2  0  0  0
  7  8  2  0  0  0
  8 13  1  0  0  0
  8  9  1  0  0  0
 13 14  2  0  0  0
 13 23  1  0  0  0
 14 15  1  0  0  0
 15 16  1  0  0  0
 15 21  2  0  0  0
 16 17  2  0  0  0
 17 18  1  0  0  0
 17 19  1  0  0  0
 19 20  2  0  0  0
 20 21  1  0  0  0
 21 22  1  0  0  0
 22 23  1  0  0  0
 22 25  1  0  0  0
 23 24  2  0  0  0
  9 10  1  0  0  0
  9 12  1  0  0  0
 10 11  1  0  0  0
M  END
> <minimizedAffinity>
-8.44147

$$$$
