CHEMBL382818


 33 37  0  0  0  0  0  0  0  0999 V2000
  -28.5799   -9.5459   -6.0145 C   0  0  0  0  0  0  0  0  0  0  0  0
  -27.9687   -8.5795   -5.3019 N   0  0  0  0  0  0  0  0  0  0  0  0
  -28.5839   -7.3613   -5.0786 N   0  0  0  0  0  0  0  0  0  0  0  0
  -29.8235   -7.1095   -5.5457 C   0  0  0  0  0  0  0  0  0  0  0  0
  -30.4952   -8.0795   -6.3489 C   0  0  0  0  0  0  0  0  0  0  0  0
  -31.7968   -7.9316   -6.9082 C   0  0  0  0  0  0  0  0  0  0  0  0
  -32.3734   -8.8798   -7.7567 C   0  0  0  0  0  0  0  0  0  0  0  0
  -31.6924  -10.0466   -8.0417 C   0  0  0  0  0  0  0  0  0  0  0  0
  -30.4480  -10.2674   -7.4578 C   0  0  0  0  0  0  0  0  0  0  0  0
  -29.8333   -9.3104   -6.6046 C   0  0  0  0  0  0  0  0  0  0  0  0
  -30.4377   -5.8147   -5.0948 C   0  0  0  0  0  0  0  0  0  0  0  0
  -31.4249   -5.8356   -4.0885 C   0  0  0  0  0  0  0  0  0  0  0  0
  -31.7441   -4.6982   -3.3491 C   0  0  0  0  0  0  0  0  0  0  0  0
  -31.0773   -3.5085   -3.6015 C   0  0  0  0  0  0  0  0  0  0  0  0
  -30.2150   -3.4055   -4.7008 C   0  0  0  0  0  0  0  0  0  0  0  0
  -29.6173   -2.1840   -5.0219 C   0  0  0  0  0  0  0  0  0  0  0  0
  -28.9521   -1.9361   -6.1687 N   0  0  0  0  0  0  0  0  0  0  0  0
  -28.8667   -2.9647   -7.0311 C   0  0  0  0  0  0  0  0  0  0  0  0
  -29.3009   -4.2533   -6.7454 C   0  0  0  0  0  0  0  0  0  0  0  0
  -29.9705   -4.5277   -5.5301 C   0  0  0  0  0  0  0  0  0  0  0  0
  -28.0139  -10.8536   -6.0983 N   0  0  0  0  0  0  0  0  0  0  0  0
  -28.5134  -11.4535   -5.4538 H   0  0  0  0  0  0  0  0  0  0  0  0
  -23.9796  -12.1111   -6.4434 C   0  0  0  0  0  0  0  0  0  0  0  0
  -24.7319  -12.4355   -5.3176 C   0  0  0  0  0  0  0  0  0  0  0  0
  -26.0619  -11.9974   -5.2097 C   0  0  0  0  0  0  0  0  0  0  0  0
  -26.6554  -11.2083   -6.2066 C   0  0  0  0  0  0  0  0  0  0  0  0
  -25.8983  -10.9130   -7.3413 C   0  0  0  0  0  0  0  0  0  0  0  0
  -24.5732  -11.3479   -7.4506 C   0  0  0  0  0  0  0  0  0  0  0  0
  -22.6796  -12.4448   -6.6840 O   0  0  0  0  0  0  0  0  0  0  0  0
  -20.5893  -12.4309   -5.9032 F   0  0  0  0  0  0  0  0  0  0  0  0
  -21.6372  -11.6127   -6.1909 C   0  0  0  0  0  0  0  0  0  0  0  0
  -21.9985  -11.0369   -5.0150 F   0  0  0  0  0  0  0  0  0  0  0  0
  -21.1097  -10.4024   -7.3621 Cl  0  0  0  0  0  0  0  0  0  0  0  0
 30 31  1  0  0  0
 31 32  1  0  0  0
 31 33  1  0  0  0
 31 29  1  0  0  0
 29 23  1  0  0  0
 23 24  1  0  0  0
 23 28  2  0  0  0
 24 25  2  0  0  0
 25 26  1  0  0  0
 26 21  1  0  0  0
 26 27  2  0  0  0
 21  1  1  0  0  0
 21 22  1  0  0  0
  1  2  1  0  0  0
  1 10  2  0  0  0
  2  3  2  0  0  0
  3  4  1  0  0  0
  4 11  1  0  0  0
  4  5  2  0  0  0
 11 12  1  0  0  0
 11 20  2  0  0  0
 12 13  2  0  0  0
 13 14  1  0  0  0
 14 15  2  0  0  0
 15 16  1  0  0  0
 15 20  1  0  0  0
 16 17  2  0  0  0
 17 18  1  0  0  0
 18 19  2  0  0  0
 19 20  1  0  0  0
  5  6  1  0  0  0
  5 10  1  0  0  0
  6  7  2  0  0  0
  7  8  1  0  0  0
  8  9  2  0  0  0
  9 10  1  0  0  0
 27 28  1  0  0  0
M  END
> <minimizedAffinity>
-9.14580

$$$$
