CHEMBL1076433


 47 52  0  0  0  0  0  0  0  0999 V2000
  -14.3174   -0.8599  -13.9064 C   0  0  0  0  0  0  0  0  0  0  0  0
  -15.6395   -1.0857  -13.5461 C   0  0  0  0  0  0  0  0  0  0  0  0
  -15.9374   -2.0126  -12.5521 C   0  0  0  0  0  0  0  0  0  0  0  0
  -14.9293   -2.7952  -11.9725 C   0  0  0  0  0  0  0  0  0  0  0  0
  -15.2886   -3.5643  -10.7350 C   0  0  0  0  0  0  0  0  0  0  0  0
  -13.6132   -2.7312  -12.4867 C   0  0  0  0  0  0  0  0  0  0  0  0
  -13.3258   -1.7068  -13.4081 C   0  0  0  0  0  0  0  0  0  0  0  0
  -13.5365    0.0759  -16.0518 C   0  0  0  0  0  0  0  0  0  0  0  0
  -13.4788   -0.9708  -16.6892 O   0  0  0  0  0  0  0  0  0  0  0  0
  -13.9173    0.2152  -14.7327 N   0  0  0  0  0  0  0  0  0  0  0  0
  -14.1305    1.1404  -14.3848 H   0  0  0  0  0  0  0  0  0  0  0  0
  -12.7180    3.8031  -18.0124 C   0  0  0  0  0  0  0  0  0  0  0  0
  -12.7679    2.6149  -18.7694 C   0  0  0  0  0  0  0  0  0  0  0  0
  -13.0606    1.3867  -18.1675 C   0  0  0  0  0  0  0  0  0  0  0  0
  -13.2399    1.3252  -16.7854 C   0  0  0  0  0  0  0  0  0  0  0  0
  -13.2213    2.4975  -16.0298 C   0  0  0  0  0  0  0  0  0  0  0  0
  -13.0324    3.7282  -16.6447 C   0  0  0  0  0  0  0  0  0  0  0  0
  -13.2800    5.1015  -15.6330 Cl  0  0  0  0  0  0  0  0  0  0  0  0
  -12.2549    5.0835  -18.6886 C   0  0  0  0  0  0  0  0  0  0  0  0
  -13.8963    8.4002  -19.3720 N   0  0  0  0  0  0  0  0  0  0  0  0
  -12.5655    7.9653  -19.8318 C   0  0  0  0  0  0  0  0  0  0  0  0
  -12.5670    6.6180  -20.5960 C   0  0  0  0  0  0  0  0  0  0  0  0
  -13.1237    5.4876  -19.8196 N   0  0  0  0  0  0  0  0  0  0  0  0
  -14.4705    5.9003  -19.3471 C   0  0  0  0  0  0  0  0  0  0  0  0
  -14.5318    7.2807  -18.6450 C   0  0  0  0  0  0  0  0  0  0  0  0
  -16.0557    9.4037  -20.1429 C   0  0  0  0  0  0  0  0  0  0  0  0
  -14.6584    8.9287  -20.5068 C   0  0  0  0  0  0  0  0  0  0  0  0
  -12.6115   -3.6424  -12.0483 N   0  0  0  0  0  0  0  0  0  0  0  0
  -11.9843   -3.9394  -12.7960 H   0  0  0  0  0  0  0  0  0  0  0  0
  -12.1423   -3.7879  -10.7745 C   0  0  0  0  0  0  0  0  0  0  0  0
  -11.8610   -2.8352   -9.9080 N   0  0  0  0  0  0  0  0  0  0  0  0
  -11.4955   -3.4463   -8.7480 C   0  0  0  0  0  0  0  0  0  0  0  0
  -11.1143   -2.8529   -7.5368 C   0  0  0  0  0  0  0  0  0  0  0  0
  -10.7520   -3.6719   -6.4657 C   0  0  0  0  0  0  0  0  0  0  0  0
  -10.7283   -5.0565   -6.6150 C   0  0  0  0  0  0  0  0  0  0  0  0
  -11.0860   -5.6604   -7.8273 C   0  0  0  0  0  0  0  0  0  0  0  0
  -11.5203   -4.8261   -8.8756 C   0  0  0  0  0  0  0  0  0  0  0  0
  -11.9853   -5.0480  -10.1770 N   0  0  0  0  0  0  0  0  0  0  0  0
  -12.2838   -6.3047  -10.7784 C   0  0  0  0  0  0  0  0  0  0  0  0
  -11.2799   -7.2455  -10.8976 C   0  0  0  0  0  0  0  0  0  0  0  0
  -11.6239   -8.4572  -11.4490 C   0  0  0  0  0  0  0  0  0  0  0  0
  -10.6966   -9.4951  -11.4753 N   0  0  0  0  0  0  0  0  0  0  0  0
  -12.8561   -8.7251  -11.8868 N   0  0  0  0  0  0  0  0  0  0  0  0
  -13.7677   -7.7554  -11.7242 C   0  0  0  0  0  0  0  0  0  0  0  0
  -13.5597   -6.5575  -11.1536 N   0  0  0  0  0  0  0  0  0  0  0  0
   -9.8031   -9.2308  -11.8721 H   0  0  0  0  0  0  0  0  0  0  0  0
  -11.1139  -10.2925  -11.9472 H   0  0  0  0  0  0  0  0  0  0  0  0
 26 27  1  0  0  0
 27 20  1  0  0  0
 20 21  1  0  0  0
 20 25  1  0  0  0
 21 22  1  0  0  0
 22 23  1  0  0  0
 23 19  1  0  0  0
 23 24  1  0  0  0
 19 12  1  0  0  0
 12 13  1  0  0  0
 12 17  2  0  0  0
 13 14  2  0  0  0
 14 15  1  0  0  0
 15  8  1  0  0  0
 15 16  2  0  0  0
  8  9  2  0  0  0
  8 10  1  0  0  0
 10  1  1  0  0  0
 10 11  1  0  0  0
  1  2  1  0  0  0
  1  7  2  0  0  0
  2  3  2  0  0  0
  3  4  1  0  0  0
  4  5  1  0  0  0
  4  6  2  0  0  0
  6 28  1  0  0  0
  6  7  1  0  0  0
 28 30  1  0  0  0
 28 29  1  0  0  0
 30 31  2  0  0  0
 30 38  1  0  0  0
 31 32  1  0  0  0
 32 33  1  0  0  0
 32 37  2  0  0  0
 33 34  2  0  0  0
 34 35  1  0  0  0
 35 36  2  0  0  0
 36 37  1  0  0  0
 37 38  1  0  0  0
 38 39  1  0  0  0
 39 40  1  0  0  0
 39 45  2  0  0  0
 40 41  2  0  0  0
 41 42  1  0  0  0
 41 43  1  0  0  0
 42 46  1  0  0  0
 42 47  1  0  0  0
 43 44  2  0  0  0
 44 45  1  0  0  0
 16 17  1  0  0  0
 17 18  1  0  0  0
 24 25  1  0  0  0
M  END
> <minimizedAffinity>
-7.92537

$$$$
