CHEMBL3287598


 46 50  0  0  0  0  0  0  0  0999 V2000
  -28.5987   -3.5288   -4.9954 C   0  0  0  0  0  0  0  0  0  0  0  0
  -27.6048   -4.2588   -4.3443 C   0  0  0  0  0  0  0  0  0  0  0  0
  -27.6973   -5.6414   -4.2501 C   0  0  0  0  0  0  0  0  0  0  0  0
  -28.7368   -6.3335   -4.8684 C   0  0  0  0  0  0  0  0  0  0  0  0
  -29.7116   -5.6110   -5.5669 C   0  0  0  0  0  0  0  0  0  0  0  0
  -29.6320   -4.2156   -5.6288 C   0  0  0  0  0  0  0  0  0  0  0  0
  -30.5726   -3.5411   -6.3076 F   0  0  0  0  0  0  0  0  0  0  0  0
  -28.8268   -7.7369   -4.8135 N   0  0  0  0  0  0  0  0  0  0  0  0
  -27.7677   -8.6074   -4.6138 C   0  0  0  0  0  0  0  0  0  0  0  0
  -26.5820   -8.3432   -4.4814 O   0  0  0  0  0  0  0  0  0  0  0  0
  -29.7254   -8.1564   -5.0367 H   0  0  0  0  0  0  0  0  0  0  0  0
  -28.1676  -10.0435   -4.6190 C   0  0  0  0  0  0  0  0  0  0  0  0
  -28.9807  -10.5316   -3.4215 C   0  0  0  0  0  0  0  0  0  0  0  0
  -27.5603  -10.9760   -3.5749 C   0  0  0  0  0  0  0  0  0  0  0  0
  -28.5005  -10.5455   -5.9808 C   0  0  0  0  0  0  0  0  0  0  0  0
  -29.3494  -11.4233   -6.0809 O   0  0  0  0  0  0  0  0  0  0  0  0
  -27.8304   -9.9303   -7.0224 N   0  0  0  0  0  0  0  0  0  0  0  0
  -26.9425   -9.4884   -6.8195 H   0  0  0  0  0  0  0  0  0  0  0  0
  -28.1597  -10.1856   -8.3635 C   0  0  0  0  0  0  0  0  0  0  0  0
  -27.2466  -10.8174   -9.2183 C   0  0  0  0  0  0  0  0  0  0  0  0
  -27.5558  -10.9954  -10.5658 C   0  0  0  0  0  0  0  0  0  0  0  0
  -28.7638  -10.5153  -11.0535 C   0  0  0  0  0  0  0  0  0  0  0  0
  -29.0364  -10.6234  -12.3601 F   0  0  0  0  0  0  0  0  0  0  0  0
  -29.6921   -9.9170  -10.2061 C   0  0  0  0  0  0  0  0  0  0  0  0
  -29.4072   -9.7860   -8.8447 C   0  0  0  0  0  0  0  0  0  0  0  0
  -28.5790   -2.1520   -5.0580 O   0  0  0  0  0  0  0  0  0  0  0  0
  -27.6010   -1.8752   -8.4641 C   0  0  0  0  0  0  0  0  0  0  0  0
  -27.7401   -0.5621   -8.7107 N   0  0  0  0  0  0  0  0  0  0  0  0
  -28.1190    0.2273   -7.6907 C   0  0  0  0  0  0  0  0  0  0  0  0
  -28.3869   -0.2454   -6.4341 C   0  0  0  0  0  0  0  0  0  0  0  0
  -28.2297   -1.6001   -6.2869 C   0  0  0  0  0  0  0  0  0  0  0  0
  -27.8028   -2.4235   -7.2673 N   0  0  0  0  0  0  0  0  0  0  0  0
  -27.2638   -2.7524   -9.5009 N   0  0  0  0  0  0  0  0  0  0  0  0
  -26.7191   -3.5013   -9.0871 H   0  0  0  0  0  0  0  0  0  0  0  0
  -25.8517   -1.5363  -13.2821 C   0  0  0  0  0  0  0  0  0  0  0  0
  -27.2117   -1.8156  -13.0926 C   0  0  0  0  0  0  0  0  0  0  0  0
  -27.6830   -2.2126  -11.8460 C   0  0  0  0  0  0  0  0  0  0  0  0
  -26.8087   -2.3548  -10.7666 C   0  0  0  0  0  0  0  0  0  0  0  0
  -25.4607   -2.0235  -10.9429 C   0  0  0  0  0  0  0  0  0  0  0  0
  -24.9568   -1.6363  -12.2029 C   0  0  0  0  0  0  0  0  0  0  0  0
  -23.4747   -1.3756  -12.3208 C   0  0  0  0  0  0  0  0  0  0  0  0
  -22.8645   -1.9634  -13.3805 F   0  0  0  0  0  0  0  0  0  0  0  0
  -23.2028   -0.0456  -12.4310 F   0  0  0  0  0  0  0  0  0  0  0  0
  -22.7911   -1.8029  -11.2217 F   0  0  0  0  0  0  0  0  0  0  0  0
  -25.0726   -0.8597  -15.6626 N   0  0  0  0  0  0  0  0  0  0  0  0
  -25.4441   -1.1572  -14.6030 C   0  0  0  0  0  0  0  0  0  0  0  0
 45 46  3  0  0  0
 46 35  1  0  0  0
 35 36  1  0  0  0
 35 40  2  0  0  0
 36 37  2  0  0  0
 37 38  1  0  0  0
 38 33  1  0  0  0
 38 39  2  0  0  0
 33 27  1  0  0  0
 33 34  1  0  0  0
 27 28  1  0  0  0
 27 32  2  0  0  0
 28 29  2  0  0  0
 29 30  1  0  0  0
 30 31  2  0  0  0
 31 26  1  0  0  0
 31 32  1  0  0  0
 26  1  1  0  0  0
  1  2  1  0  0  0
  1  6  2  0  0  0
  2  3  2  0  0  0
  3  4  1  0  0  0
  4  8  1  0  0  0
  4  5  2  0  0  0
  8  9  1  0  0  0
  8 11  1  0  0  0
  9 10  2  0  0  0
  9 12  1  0  0  0
 12 15  1  0  0  0
 12 13  1  0  0  0
 12 14  1  0  0  0
 15 16  2  0  0  0
 15 17  1  0  0  0
 17 19  1  0  0  0
 17 18  1  0  0  0
 19 20  1  0  0  0
 19 25  2  0  0  0
 20 21  2  0  0  0
 21 22  1  0  0  0
 22 23  1  0  0  0
 22 24  2  0  0  0
 24 25  1  0  0  0
 13 14  1  0  0  0
  5  6  1  0  0  0
  6  7  1  0  0  0
 39 40  1  0  0  0
 40 41  1  0  0  0
 41 42  1  0  0  0
 41 43  1  0  0  0
 41 44  1  0  0  0
M  END
> <minimizedAffinity>
-9.79677

$$$$
