CHEMBL3706827


 30 32  0  0  0  0  0  0  0  0999 V2000
  -16.3825    2.1076  -15.2764 C   0  0  0  0  0  0  0  0  0  0  0  0
  -15.0059    1.7725  -15.2316 C   0  0  0  0  0  0  0  0  0  0  0  0
  -14.4968    0.7151  -14.4777 C   0  0  0  0  0  0  0  0  0  0  0  0
  -13.1721    0.5041  -14.4332 N   0  0  0  0  0  0  0  0  0  0  0  0
  -12.7474   -0.5132  -13.6794 C   0  0  0  0  0  0  0  0  0  0  0  0
  -13.5173   -1.3598  -12.9861 N   0  0  0  0  0  0  0  0  0  0  0  0
  -14.8432   -1.1295  -13.0236 C   0  0  0  0  0  0  0  0  0  0  0  0
  -15.3942   -0.0779  -13.7694 C   0  0  0  0  0  0  0  0  0  0  0  0
  -16.7782    0.2355  -13.8141 C   0  0  0  0  0  0  0  0  0  0  0  0
  -17.2858    1.3072  -14.5653 C   0  0  0  0  0  0  0  0  0  0  0  0
  -15.7120   -1.9681  -12.2676 N   0  0  0  0  0  0  0  0  0  0  0  0
  -16.6783   -1.7885  -12.5564 H   0  0  0  0  0  0  0  0  0  0  0  0
  -15.4965   -3.3436  -12.1259 C   0  0  0  0  0  0  0  0  0  0  0  0
  -15.0246   -3.9881  -11.0432 C   0  0  0  0  0  0  0  0  0  0  0  0
  -14.6937   -3.1748   -9.5456 Cl  0  0  0  0  0  0  0  0  0  0  0  0
  -14.7968   -5.4505  -11.0351 C   0  0  0  0  0  0  0  0  0  0  0  0
  -14.4410   -6.0742  -10.0416 O   0  0  0  0  0  0  0  0  0  0  0  0
  -14.9984   -6.1661  -12.3017 C   0  0  0  0  0  0  0  0  0  0  0  0
  -15.5302   -5.6015  -13.3879 C   0  0  0  0  0  0  0  0  0  0  0  0
  -15.9358   -4.1605  -13.3188 C   0  0  0  0  0  0  0  0  0  0  0  0
  -16.6061   -3.6070  -14.1904 O   0  0  0  0  0  0  0  0  0  0  0  0
  -15.6792   -6.4160  -14.5010 O   0  0  0  0  0  0  0  0  0  0  0  0
  -14.5324   -6.7580  -15.2654 C   0  0  0  0  0  0  0  0  0  0  0  0
  -18.6185    1.4858  -14.3233 O   0  0  0  0  0  0  0  0  0  0  0  0
  -19.5812    0.8390  -15.1414 C   0  0  0  0  0  0  0  0  0  0  0  0
  -16.5830    3.2473  -16.0176 O   0  0  0  0  0  0  0  0  0  0  0  0
  -15.4662    4.0869  -16.2419 C   0  0  0  0  0  0  0  0  0  0  0  0
  -15.3910    4.6481  -17.6532 C   0  0  0  0  0  0  0  0  0  0  0  0
  -13.9748    3.0355  -18.6711 C   0  0  0  0  0  0  0  0  0  0  0  0
  -14.0736    4.3293  -18.1101 O   0  0  0  0  0  0  0  0  0  0  0  0
 29 30  1  0  0  0
 30 28  1  0  0  0
 28 27  1  0  0  0
 27 26  1  0  0  0
 26  1  1  0  0  0
  1  2  1  0  0  0
  1 10  2  0  0  0
  2  3  2  0  0  0
  3  4  1  0  0  0
  3  8  1  0  0  0
  4  5  2  0  0  0
  5  6  1  0  0  0
  6  7  2  0  0  0
  7 11  1  0  0  0
  7  8  1  0  0  0
 11 13  1  0  0  0
 11 12  1  0  0  0
 13 14  2  0  0  0
 13 20  1  0  0  0
 14 15  1  0  0  0
 14 16  1  0  0  0
 16 17  2  0  0  0
 16 18  1  0  0  0
 18 19  2  0  0  0
 19 22  1  0  0  0
 19 20  1  0  0  0
 22 23  1  0  0  0
 20 21  2  0  0  0
  8  9  2  0  0  0
  9 10  1  0  0  0
 10 24  1  0  0  0
 24 25  1  0  0  0
M  END
> <minimizedAffinity>
-6.33978

$$$$
