CHEMBL204220


 29 33  0  0  0  0  0  0  0  0999 V2000
  -28.0535   -9.7860   -4.5230 C   0  0  0  0  0  0  0  0  0  0  0  0
  -28.3613   -9.2996   -3.3033 N   0  0  0  0  0  0  0  0  0  0  0  0
  -29.0504   -8.1254   -3.1612 N   0  0  0  0  0  0  0  0  0  0  0  0
  -29.3485   -7.3563   -4.2268 C   0  0  0  0  0  0  0  0  0  0  0  0
  -29.0605   -7.8204   -5.5383 C   0  0  0  0  0  0  0  0  0  0  0  0
  -29.2804   -7.0695   -6.7288 C   0  0  0  0  0  0  0  0  0  0  0  0
  -29.1088   -7.6025   -8.0013 C   0  0  0  0  0  0  0  0  0  0  0  0
  -28.6499   -8.8984   -8.1302 C   0  0  0  0  0  0  0  0  0  0  0  0
  -28.3192   -9.6328   -6.9891 C   0  0  0  0  0  0  0  0  0  0  0  0
  -28.4880   -9.1110   -5.6828 C   0  0  0  0  0  0  0  0  0  0  0  0
  -30.0179   -6.0570   -3.8970 C   0  0  0  0  0  0  0  0  0  0  0  0
  -31.3331   -6.0823   -3.3752 C   0  0  0  0  0  0  0  0  0  0  0  0
  -32.0967   -4.9370   -3.1963 C   0  0  0  0  0  0  0  0  0  0  0  0
  -31.5162   -3.7011   -3.4121 C   0  0  0  0  0  0  0  0  0  0  0  0
  -30.1752   -3.6080   -3.8103 C   0  0  0  0  0  0  0  0  0  0  0  0
  -29.5810   -2.3525   -3.9610 C   0  0  0  0  0  0  0  0  0  0  0  0
  -28.3016   -2.1386   -4.3338 N   0  0  0  0  0  0  0  0  0  0  0  0
  -27.5726   -3.2375   -4.5868 C   0  0  0  0  0  0  0  0  0  0  0  0
  -28.0685   -4.5309   -4.4927 C   0  0  0  0  0  0  0  0  0  0  0  0
  -29.4030   -4.7675   -4.0771 C   0  0  0  0  0  0  0  0  0  0  0  0
  -27.2195  -10.9427   -4.6109 N   0  0  0  0  0  0  0  0  0  0  0  0
  -27.7903  -11.7500   -4.8306 H   0  0  0  0  0  0  0  0  0  0  0  0
  -24.5595   -9.4663   -4.6350 C   0  0  0  0  0  0  0  0  0  0  0  0
  -24.9326  -10.5652   -3.6776 C   0  0  0  0  0  0  0  0  0  0  0  0
  -23.9466  -10.9548   -2.7547 C   0  0  0  0  0  0  0  0  0  0  0  0
  -24.2171  -11.9055   -1.7570 C   0  0  0  0  0  0  0  0  0  0  0  0
  -25.4732  -12.4657   -1.6741 C   0  0  0  0  0  0  0  0  0  0  0  0
  -26.4462  -12.1151   -2.6155 C   0  0  0  0  0  0  0  0  0  0  0  0
  -26.1823  -11.2246   -3.6757 C   0  0  0  0  0  0  0  0  0  0  0  0
 23 24  1  0  0  0
 24 25  1  0  0  0
 24 29  2  0  0  0
 25 26  2  0  0  0
 26 27  1  0  0  0
 27 28  2  0  0  0
 28 29  1  0  0  0
 29 21  1  0  0  0
 21  1  1  0  0  0
 21 22  1  0  0  0
  1  2  1  0  0  0
  1 10  2  0  0  0
  2  3  2  0  0  0
  3  4  1  0  0  0
  4 11  1  0  0  0
  4  5  2  0  0  0
 11 12  1  0  0  0
 11 20  2  0  0  0
 12 13  2  0  0  0
 13 14  1  0  0  0
 14 15  2  0  0  0
 15 16  1  0  0  0
 15 20  1  0  0  0
 16 17  2  0  0  0
 17 18  1  0  0  0
 18 19  2  0  0  0
 19 20  1  0  0  0
  5  6  1  0  0  0
  5 10  1  0  0  0
  6  7  2  0  0  0
  7  8  1  0  0  0
  8  9  2  0  0  0
  9 10  1  0  0  0
M  END
> <minimizedAffinity>
-8.98296

$$$$
