CHEMBL3109402


 29 32  0  0  0  0  0  0  0  0999 V2000
  -29.3799   -8.4536   -5.6620 C   0  0  0  0  0  0  0  0  0  0  0  0
  -29.9045   -7.0323   -6.0743 C   0  0  0  0  0  0  0  0  0  0  0  0
  -31.2209   -7.2362   -6.8646 C   0  0  0  0  0  0  0  0  0  0  0  0
  -28.7949   -6.4795   -7.0406 C   0  0  0  0  0  0  0  0  0  0  0  0
  -28.6693   -7.1656   -8.4148 C   0  0  0  0  0  0  0  0  0  0  0  0
  -28.9398   -4.9782   -7.2408 C   0  0  0  0  0  0  0  0  0  0  0  0
  -28.4992   -4.2927   -5.9724 C   0  0  0  0  0  0  0  0  0  0  0  0
  -29.3489   -4.6406   -4.7211 C   0  0  0  0  0  0  0  0  0  0  0  0
  -28.3256   -4.6861   -3.5304 C   0  0  0  0  0  0  0  0  0  0  0  0
  -30.2735   -3.4565   -4.3017 C   0  0  0  0  0  0  0  0  0  0  0  0
  -29.8653   -2.0325   -4.5577 C   0  0  0  0  0  0  0  0  0  0  0  0
  -31.3911   -3.6869   -3.5740 C   0  0  0  0  0  0  0  0  0  0  0  0
  -31.8301   -5.0526   -3.1920 C   0  0  0  0  0  0  0  0  0  0  0  0
  -31.5634   -6.0232   -4.3259 C   0  0  0  0  0  0  0  0  0  0  0  0
  -30.0826   -6.0754   -4.7855 C   0  0  0  0  0  0  0  0  0  0  0  0
  -26.2148  -10.0217   -4.4004 C   0  0  0  0  0  0  0  0  0  0  0  0
  -25.9773  -11.0132   -5.3630 C   0  0  0  0  0  0  0  0  0  0  0  0
  -26.7222  -10.9726   -6.5432 C   0  0  0  0  0  0  0  0  0  0  0  0
  -26.8749  -11.9269   -7.5156 N   0  0  0  0  0  0  0  0  0  0  0  0
  -28.0178  -11.5752   -8.0728 C   0  0  0  0  0  0  0  0  0  0  0  0
  -29.1032  -12.4655   -8.5216 C   0  0  0  0  0  0  0  0  0  0  0  0
  -28.4408  -10.3207   -7.7690 O   0  0  0  0  0  0  0  0  0  0  0  0
  -27.6686   -9.9763   -6.7071 C   0  0  0  0  0  0  0  0  0  0  0  0
  -27.9635   -8.9697   -5.7936 C   0  0  0  0  0  0  0  0  0  0  0  0
  -27.0884   -8.9552   -4.6873 C   0  0  0  0  0  0  0  0  0  0  0  0
  -27.1549   -7.8568   -3.8708 O   0  0  0  0  0  0  0  0  0  0  0  0
  -26.2291   -7.5684   -3.7615 H   0  0  0  0  0  0  0  0  0  0  0  0
  -24.1994  -10.4293   -3.1590 C   0  0  0  0  0  0  0  0  0  0  0  0
  -25.6149  -10.2897   -3.1962 O   0  0  0  0  0  0  0  0  0  0  0  0
 28 29  1  0  0  0
 29 16  1  0  0  0
 16 17  1  0  0  0
 16 25  2  0  0  0
 17 18  2  0  0  0
 18 19  1  0  0  0
 18 23  1  0  0  0
 19 20  2  0  0  0
 20 21  1  0  0  0
 20 22  1  0  0  0
 22 23  1  0  0  0
 23 24  2  0  0  0
 24  1  1  0  0  0
 24 25  1  0  0  0
  2  1  1  0  0  0
  2  3  1  0  0  0
  2  4  1  0  0  0
  2 15  1  0  0  0
  4  5  1  0  0  0
  4  6  1  0  0  0
  6  7  1  0  0  0
  7  8  1  0  0  0
  8  9  1  0  0  0
  8 10  1  0  0  0
  8 15  1  0  0  0
 10 11  1  0  0  0
 10 12  2  0  0  0
 12 13  1  0  0  0
 13 14  1  0  0  0
 14 15  1  0  0  0
 25 26  1  0  0  0
 26 27  1  0  0  0
M  END
> <minimizedAffinity>
-8.24451

$$$$
