CHEMBL4554056


 39 43  0  0  0  0  0  0  0  0999 V2000
  -29.8440   -6.8839   -5.7515 C   0  0  0  0  0  0  0  0  0  0  0  0
  -30.1537   -7.4426   -4.5090 C   0  0  0  0  0  0  0  0  0  0  0  0
  -29.0712   -8.1257   -3.9574 C   0  0  0  0  0  0  0  0  0  0  0  0
  -29.1961   -9.4476   -3.4839 C   0  0  0  0  0  0  0  0  0  0  0  0
  -28.0704  -10.2680   -3.5282 C   0  0  0  0  0  0  0  0  0  0  0  0
  -26.8292   -9.7168   -3.8591 C   0  0  0  0  0  0  0  0  0  0  0  0
  -26.6966   -8.3634   -4.1680 C   0  0  0  0  0  0  0  0  0  0  0  0
  -27.8160   -7.5700   -4.2745 C   0  0  0  0  0  0  0  0  0  0  0  0
  -27.7306   -6.3671   -4.8755 N   0  0  0  0  0  0  0  0  0  0  0  0
  -28.8270   -5.9471   -5.5456 C   0  0  0  0  0  0  0  0  0  0  0  0
  -29.4871   -9.3436   -9.3199 C   0  0  0  0  0  0  0  0  0  0  0  0
  -28.4390   -8.5247   -8.9188 C   0  0  0  0  0  0  0  0  0  0  0  0
  -28.4468   -7.9356   -7.6438 C   0  0  0  0  0  0  0  0  0  0  0  0
  -29.5534   -8.0575   -6.7647 C   0  0  0  0  0  0  0  0  0  0  0  0
  -30.5242   -9.0133   -7.1285 C   0  0  0  0  0  0  0  0  0  0  0  0
  -30.4938   -9.6316   -8.3948 C   0  0  0  0  0  0  0  0  0  0  0  0
  -28.5815  -10.5923  -11.1370 C   0  0  0  0  0  0  0  0  0  0  0  0
  -29.6656   -9.8593  -10.5746 O   0  0  0  0  0  0  0  0  0  0  0  0
  -28.0381  -11.6245   -3.3615 O   0  0  0  0  0  0  0  0  0  0  0  0
  -29.2337  -12.2779   -2.9652 C   0  0  0  0  0  0  0  0  0  0  0  0
  -29.0613   -4.5676   -5.7920 N   0  0  0  0  0  0  0  0  0  0  0  0
  -29.9982   -4.3089   -5.5057 H   0  0  0  0  0  0  0  0  0  0  0  0
  -28.5550   -3.7253   -6.8156 C   0  0  0  0  0  0  0  0  0  0  0  0
  -28.2534   -4.2734   -8.0728 C   0  0  0  0  0  0  0  0  0  0  0  0
  -27.7192   -3.4909   -9.1188 C   0  0  0  0  0  0  0  0  0  0  0  0
  -27.4907   -2.1252   -8.9523 C   0  0  0  0  0  0  0  0  0  0  0  0
  -27.8613   -1.5555   -7.7310 C   0  0  0  0  0  0  0  0  0  0  0  0
  -28.4133   -2.3391   -6.6957 C   0  0  0  0  0  0  0  0  0  0  0  0
  -26.8795   -1.2956   -9.9245 N   0  0  0  0  0  0  0  0  0  0  0  0
  -27.0878   -1.3312  -11.3007 C   0  0  0  0  0  0  0  0  0  0  0  0
  -27.9648   -1.9616  -11.8844 O   0  0  0  0  0  0  0  0  0  0  0  0
  -26.2521   -0.5756   -9.5844 H   0  0  0  0  0  0  0  0  0  0  0  0
  -26.0852   -0.4746  -12.1111 C   0  0  0  0  0  0  0  0  0  0  0  0
  -24.7263   -0.4487  -11.5282 N   0  0  0  0  0  0  0  0  0  0  0  0
  -23.8517    0.5905  -12.1307 C   0  0  0  0  0  0  0  0  0  0  0  0
  -23.2822    0.2663  -13.5274 C   0  0  0  0  0  0  0  0  0  0  0  0
  -22.6474   -1.0178  -13.5619 O   0  0  0  0  0  0  0  0  0  0  0  0
  -23.5561   -2.0371  -13.1382 C   0  0  0  0  0  0  0  0  0  0  0  0
  -24.0523   -1.7609  -11.7062 C   0  0  0  0  0  0  0  0  0  0  0  0
 17 18  1  0  0  0
 18 11  1  0  0  0
 11 12  1  0  0  0
 11 16  2  0  0  0
 12 13  2  0  0  0
 13 14  1  0  0  0
 14  1  1  0  0  0
 14 15  2  0  0  0
  1  2  1  0  0  0
  1 10  2  0  0  0
  2  3  2  0  0  0
  3  4  1  0  0  0
  3  8  1  0  0  0
  4  5  2  0  0  0
  5 19  1  0  0  0
  5  6  1  0  0  0
 19 20  1  0  0  0
  6  7  2  0  0  0
  7  8  1  0  0  0
  8  9  2  0  0  0
  9 10  1  0  0  0
 10 21  1  0  0  0
 21 23  1  0  0  0
 21 22  1  0  0  0
 23 24  1  0  0  0
 23 28  2  0  0  0
 24 25  2  0  0  0
 25 26  1  0  0  0
 26 29  1  0  0  0
 26 27  2  0  0  0
 29 30  1  0  0  0
 29 32  1  0  0  0
 30 31  2  0  0  0
 30 33  1  0  0  0
 33 34  1  0  0  0
 34 35  1  0  0  0
 34 39  1  0  0  0
 35 36  1  0  0  0
 36 37  1  0  0  0
 37 38  1  0  0  0
 38 39  1  0  0  0
 27 28  1  0  0  0
 15 16  1  0  0  0
M  END
> <minimizedAffinity>
-7.84445

$$$$
