CHEMBL1971519


 20 22  0  0  0  0  0  0  0  0999 V2000
  -30.8518   -3.5079   -2.9866 N   0  0  0  0  0  0  0  0  0  0  0  0
  -30.8073   -4.5790   -3.7977 C   0  0  0  0  0  0  0  0  0  0  0  0
  -31.4133   -5.7063   -3.4313 N   0  0  0  0  0  0  0  0  0  0  0  0
  -31.2093   -6.5210   -4.4667 N   0  0  0  0  0  0  0  0  0  0  0  0
  -30.4960   -5.9679   -5.4942 C   0  0  0  0  0  0  0  0  0  0  0  0
  -30.1282   -6.5159   -6.7251 C   0  0  0  0  0  0  0  0  0  0  0  0
  -29.3802   -5.7183   -7.5789 C   0  0  0  0  0  0  0  0  0  0  0  0
  -29.0044   -4.4303   -7.1976 C   0  0  0  0  0  0  0  0  0  0  0  0
  -29.3752   -3.8571   -5.9518 C   0  0  0  0  0  0  0  0  0  0  0  0
  -30.1666   -4.6692   -5.0785 C   0  0  0  0  0  0  0  0  0  0  0  0
  -31.4710   -3.5948   -2.1877 H   0  0  0  0  0  0  0  0  0  0  0  0
  -30.8567   -2.5775   -3.3924 H   0  0  0  0  0  0  0  0  0  0  0  0
  -31.5936   -7.4587   -4.4190 H   0  0  0  0  0  0  0  0  0  0  0  0
  -28.9462   -2.4786   -5.6101 C   0  0  0  0  0  0  0  0  0  0  0  0
  -29.8627   -1.4051   -5.6262 C   0  0  0  0  0  0  0  0  0  0  0  0
  -29.4776   -0.1030   -5.2865 C   0  0  0  0  0  0  0  0  0  0  0  0
  -28.1725    0.1405   -4.8897 C   0  0  0  0  0  0  0  0  0  0  0  0
  -27.8111    1.3744   -4.5153 F   0  0  0  0  0  0  0  0  0  0  0  0
  -27.2359   -0.8804   -4.8850 C   0  0  0  0  0  0  0  0  0  0  0  0
  -27.6132   -2.1656   -5.2886 C   0  0  0  0  0  0  0  0  0  0  0  0
  1  2  1  0  0  0
  1 11  1  0  0  0
  1 12  1  0  0  0
  2  3  2  0  0  0
  2 10  1  0  0  0
  3  4  1  0  0  0
  4  5  1  0  0  0
  4 13  1  0  0  0
  5  6  1  0  0  0
  5 10  2  0  0  0
  6  7  2  0  0  0
  7  8  1  0  0  0
  8  9  2  0  0  0
  9 14  1  0  0  0
  9 10  1  0  0  0
 14 15  1  0  0  0
 14 20  2  0  0  0
 15 16  2  0  0  0
 16 17  1  0  0  0
 17 18  1  0  0  0
 17 19  2  0  0  0
 19 20  1  0  0  0
M  END
> <minimizedAffinity>
-8.41464

$$$$
