CHEMBL495529


 35 39  0  0  0  0  0  0  0  0999 V2000
  -24.1279   -0.1346  -13.6267 C   0  0  0  0  0  0  0  0  0  0  0  0
  -24.4946   -0.1462  -12.3211 C   0  0  0  0  0  0  0  0  0  0  0  0
  -23.7907    0.4998  -11.2987 N   0  0  0  0  0  0  0  0  0  0  0  0
  -25.7078   -0.9127  -11.9228 C   0  0  0  0  0  0  0  0  0  0  0  0
  -26.1444   -1.0056  -10.5859 C   0  0  0  0  0  0  0  0  0  0  0  0
  -27.2284   -1.8069  -10.1786 C   0  0  0  0  0  0  0  0  0  0  0  0
  -27.9027   -2.4943  -11.1999 C   0  0  0  0  0  0  0  0  0  0  0  0
  -27.5177   -2.3981  -12.5427 C   0  0  0  0  0  0  0  0  0  0  0  0
  -26.4233   -1.6154  -12.8929 C   0  0  0  0  0  0  0  0  0  0  0  0
  -26.0436   -1.5363  -14.2331 N   0  0  0  0  0  0  0  0  0  0  0  0
  -24.9748   -0.8071  -14.6668 C   0  0  0  0  0  0  0  0  0  0  0  0
  -24.7322   -0.7144  -15.8705 O   0  0  0  0  0  0  0  0  0  0  0  0
  -22.8718    0.8143  -11.6420 H   0  0  0  0  0  0  0  0  0  0  0  0
  -23.6419   -0.1036  -10.4956 H   0  0  0  0  0  0  0  0  0  0  0  0
  -26.5781   -2.0129  -14.9466 H   0  0  0  0  0  0  0  0  0  0  0  0
  -18.8779    2.1696  -15.2620 C   0  0  0  0  0  0  0  0  0  0  0  0
  -19.5432    3.3650  -14.9276 C   0  0  0  0  0  0  0  0  0  0  0  0
  -20.8709    3.4096  -14.4831 C   0  0  0  0  0  0  0  0  0  0  0  0
  -21.5148    2.1883  -14.3656 C   0  0  0  0  0  0  0  0  0  0  0  0
  -22.7850    1.8485  -13.9864 N   0  0  0  0  0  0  0  0  0  0  0  0
  -22.8951    0.4787  -14.0052 C   0  0  0  0  0  0  0  0  0  0  0  0
  -21.7533   -0.0699  -14.3919 N   0  0  0  0  0  0  0  0  0  0  0  0
  -20.9007    0.9763  -14.6451 C   0  0  0  0  0  0  0  0  0  0  0  0
  -19.5757    0.9611  -15.1105 C   0  0  0  0  0  0  0  0  0  0  0  0
  -23.5358    2.4888  -13.7707 H   0  0  0  0  0  0  0  0  0  0  0  0
  -13.8390    2.1057  -17.6611 C   0  0  0  0  0  0  0  0  0  0  0  0
  -14.7882    2.2394  -16.5579 N   0  0  0  0  0  0  0  0  0  0  0  0
  -15.7182    3.3669  -16.8135 C   0  0  0  0  0  0  0  0  0  0  0  0
  -16.8237    3.5010  -15.7373 C   0  0  0  0  0  0  0  0  0  0  0  0
  -17.5494    2.2260  -15.6532 N   0  0  0  0  0  0  0  0  0  0  0  0
  -16.6695    1.0909  -15.3223 C   0  0  0  0  0  0  0  0  0  0  0  0
  -15.5614    0.9843  -16.3949 C   0  0  0  0  0  0  0  0  0  0  0  0
  -27.5517   -1.9523   -8.8366 N   0  0  0  0  0  0  0  0  0  0  0  0
  -27.7028   -0.7964   -7.9537 C   0  0  0  0  0  0  0  0  0  0  0  0
  -28.0946   -3.1973   -8.3019 C   0  0  0  0  0  0  0  0  0  0  0  0
 26 27  1  0  0  0
 27 28  1  0  0  0
 27 32  1  0  0  0
 28 29  1  0  0  0
 29 30  1  0  0  0
 30 16  1  0  0  0
 30 31  1  0  0  0
 16 17  1  0  0  0
 16 24  2  0  0  0
 17 18  2  0  0  0
 18 19  1  0  0  0
 19 20  1  0  0  0
 19 23  2  0  0  0
 20 21  1  0  0  0
 20 25  1  0  0  0
 21  1  1  0  0  0
 21 22  2  0  0  0
  1  2  2  0  0  0
  1 11  1  0  0  0
  2  3  1  0  0  0
  2  4  1  0  0  0
  3 13  1  0  0  0
  3 14  1  0  0  0
  4  5  1  0  0  0
  4  9  2  0  0  0
  5  6  2  0  0  0
  6 33  1  0  0  0
  6  7  1  0  0  0
 33 34  1  0  0  0
 33 35  1  0  0  0
  7  8  2  0  0  0
  8  9  1  0  0  0
  9 10  1  0  0  0
 10 11  1  0  0  0
 10 15  1  0  0  0
 11 12  2  0  0  0
 22 23  1  0  0  0
 23 24  1  0  0  0
 31 32  1  0  0  0
M  END
> <minimizedAffinity>
-9.10442

$$$$
