CHEMBL3938794


 20 22  0  0  0  0  0  0  0  0999 V2000
  -26.5785   -2.6604  -10.5375 N   0  0  0  0  0  0  0  0  0  0  0  0
  -27.3096   -3.3640  -10.6862 H   0  0  0  0  0  0  0  0  0  0  0  0
  -26.3509   -2.1439  -11.8427 C   0  0  0  0  0  0  0  0  0  0  0  0
  -27.4230   -2.2192  -12.6719 N   0  0  0  0  0  0  0  0  0  0  0  0
  -27.3445   -1.7942  -13.9626 N   0  0  0  0  0  0  0  0  0  0  0  0
  -26.1812   -1.2899  -14.4131 C   0  0  0  0  0  0  0  0  0  0  0  0
  -25.0391   -1.1919  -13.6323 C   0  0  0  0  0  0  0  0  0  0  0  0
  -23.8475   -0.6472  -14.1524 C   0  0  0  0  0  0  0  0  0  0  0  0
  -22.7035   -0.5481  -13.3651 C   0  0  0  0  0  0  0  0  0  0  0  0
  -22.7290   -1.0103  -12.0583 C   0  0  0  0  0  0  0  0  0  0  0  0
  -23.9029   -1.5614  -11.5400 C   0  0  0  0  0  0  0  0  0  0  0  0
  -25.1007   -1.6459  -12.2982 C   0  0  0  0  0  0  0  0  0  0  0  0
  -29.7993   -4.6062   -7.4361 O   0  0  0  0  0  0  0  0  0  0  0  0
  -29.0934   -3.6103   -7.5234 C   0  0  0  0  0  0  0  0  0  0  0  0
  -28.9837   -2.5449   -6.4610 C   0  0  0  0  0  0  0  0  0  0  0  0
  -27.9596   -1.2347   -7.1865 S   0  0  0  0  0  0  0  0  0  0  0  0
  -27.6332   -2.1650   -8.6137 C   0  0  0  0  0  0  0  0  0  0  0  0
  -26.8237   -1.7616   -9.5336 N   0  0  0  0  0  0  0  0  0  0  0  0
  -28.2981   -3.3420   -8.5967 N   0  0  0  0  0  0  0  0  0  0  0  0
  -28.2255   -3.9836   -9.3696 H   0  0  0  0  0  0  0  0  0  0  0  0
 13 14  2  0  0  0
 14 15  1  0  0  0
 14 19  1  0  0  0
 15 16  1  0  0  0
 16 17  1  0  0  0
 17 18  2  0  0  0
 17 19  1  0  0  0
 18  1  1  0  0  0
  1  3  1  0  0  0
  1  2  1  0  0  0
  3  4  1  0  0  0
  3 12  2  0  0  0
  4  5  2  0  0  0
  5  6  1  0  0  0
  6  7  2  0  0  0
  7  8  1  0  0  0
  7 12  1  0  0  0
  8  9  2  0  0  0
  9 10  1  0  0  0
 10 11  2  0  0  0
 11 12  1  0  0  0
 19 20  1  0  0  0
M  END
> <minimizedAffinity>
-8.52062

$$$$
