CHEMBL3985182


 36 40  0  0  0  0  0  0  0  0999 V2000
  -28.6335   -8.4666   -5.6460 N   0  0  0  0  0  0  0  0  0  0  0  0
  -28.6275   -7.0723   -5.3603 C   0  0  0  0  0  0  0  0  0  0  0  0
  -29.4588   -6.3112   -6.1210 C   0  0  0  0  0  0  0  0  0  0  0  0
  -29.4890   -4.9991   -5.8723 C   0  0  0  0  0  0  0  0  0  0  0  0
  -28.6731   -4.3452   -5.0147 C   0  0  0  0  0  0  0  0  0  0  0  0
  -28.4760   -3.2870   -5.6829 N   0  0  0  0  0  0  0  0  0  0  0  0
  -29.3691   -2.3750   -5.4838 C   0  0  0  0  0  0  0  0  0  0  0  0
  -29.0244   -1.6658   -4.4719 C   0  0  0  0  0  0  0  0  0  0  0  0
  -28.0877   -2.8086   -3.6187 N   0  0  0  0  0  0  0  0  0  0  0  0
  -27.9472   -4.5491   -3.9665 C   0  0  0  0  0  0  0  0  0  0  0  0
  -27.8333   -6.2804   -4.3415 C   0  0  0  0  0  0  0  0  0  0  0  0
  -29.4648   -0.0264   -5.2699 C   0  0  0  0  0  0  0  0  0  0  0  0
  -28.6489    0.9684   -6.3427 C   0  0  0  0  0  0  0  0  0  0  0  0
  -29.3240    1.9573   -7.0076 N   0  0  0  0  0  0  0  0  0  0  0  0
  -30.6117    1.7879   -6.6677 N   0  0  0  0  0  0  0  0  0  0  0  0
  -31.6871    2.6842   -7.2602 C   0  0  0  0  0  0  0  0  0  0  0  0
  -30.6997    0.5981   -5.7486 C   0  0  0  0  0  0  0  0  0  0  0  0
  -31.0291   -9.7981   -8.2283 C   0  0  0  0  0  0  0  0  0  0  0  0
  -30.1608  -10.1216   -9.2225 C   0  0  0  0  0  0  0  0  0  0  0  0
  -28.7910   -9.9433   -9.0589 C   0  0  0  0  0  0  0  0  0  0  0  0
  -28.2675   -9.4451   -7.8641 C   0  0  0  0  0  0  0  0  0  0  0  0
  -29.1067   -9.0916   -6.8229 C   0  0  0  0  0  0  0  0  0  0  0  0
  -30.4587   -9.4386   -7.0156 C   0  0  0  0  0  0  0  0  0  0  0  0
  -33.0801   -8.9653   -7.4018 C   0  0  0  0  0  0  0  0  0  0  0  0
  -32.3908   -9.7894   -8.3500 O   0  0  0  0  0  0  0  0  0  0  0  0
  -27.8996  -10.1726  -10.0668 O   0  0  0  0  0  0  0  0  0  0  0  0
  -28.4977  -10.3628  -11.3468 C   0  0  0  0  0  0  0  0  0  0  0  0
  -28.1802   -9.3735   -4.4773 C   0  0  0  0  0  0  0  0  0  0  0  0
  -26.7231   -9.7178   -4.7393 C   0  0  0  0  0  0  0  0  0  0  0  0
  -25.4732  -10.0130   -4.9641 C   0  0  0  0  0  0  0  0  0  0  0  0
  -24.0412  -10.3416   -5.1966 C   0  0  0  0  0  0  0  0  0  0  0  0
  -23.3762   -9.8771   -6.3295 C   0  0  0  0  0  0  0  0  0  0  0  0
  -22.1341  -10.4201   -6.6940 C   0  0  0  0  0  0  0  0  0  0  0  0
  -21.4741  -11.2582   -5.8196 C   0  0  0  0  0  0  0  0  0  0  0  0
  -22.0890  -11.4920   -4.6022 C   0  0  0  0  0  0  0  0  0  0  0  0
  -23.3832  -11.1299   -4.3005 N   0  0  0  0  0  0  0  0  0  0  0  0
 24 25  1  0  0  0
 25 18  1  0  0  0
 18 19  1  0  0  0
 18 23  2  0  0  0
 19 20  2  0  0  0
 20 26  1  0  0  0
 20 21  1  0  0  0
 26 27  1  0  0  0
 21 22  2  0  0  0
 22  1  1  0  0  0
 22 23  1  0  0  0
  1 28  1  0  0  0
  1  2  1  0  0  0
 28 29  1  0  0  0
 29 30  3  0  0  0
 30 31  1  0  0  0
 31 32  1  0  0  0
 31 36  2  0  0  0
 32 33  2  0  0  0
 33 34  1  0  0  0
 34 35  2  0  0  0
 35 36  1  0  0  0
  2  3  1  0  0  0
  2 11  2  0  0  0
  3  4  2  0  0  0
  4  5  1  0  0  0
  5  6  1  0  0  0
  5 10  2  0  0  0
  6  7  2  0  0  0
  7  8  1  0  0  0
  8 12  1  0  0  0
  8  9  2  0  0  0
 12 13  1  0  0  0
 12 17  2  0  0  0
 13 14  2  0  0  0
 14 15  1  0  0  0
 15 16  1  0  0  0
 15 17  1  0  0  0
  9 10  1  0  0  0
 10 11  1  0  0  0
M  END
> <minimizedAffinity>
-9.30921

$$$$
