CHEMBL3702607


 31 34  0  0  0  0  0  0  0  0999 V2000
  -20.4946    1.6194  -14.5329 C   0  0  0  0  0  0  0  0  0  0  0  0
  -21.1146    2.8659  -14.5247 C   0  0  0  0  0  0  0  0  0  0  0  0
  -22.4474    2.9557  -14.1157 C   0  0  0  0  0  0  0  0  0  0  0  0
  -23.1571    1.8072  -13.7280 C   0  0  0  0  0  0  0  0  0  0  0  0
  -22.5669    0.5370  -13.7368 C   0  0  0  0  0  0  0  0  0  0  0  0
  -21.2238    0.4820  -14.1311 C   0  0  0  0  0  0  0  0  0  0  0  0
  -23.2803   -0.6043  -13.4226 N   0  0  0  0  0  0  0  0  0  0  0  0
  -22.7875   -1.5770  -12.4369 C   0  0  0  0  0  0  0  0  0  0  0  0
  -23.6067   -1.4782  -11.1558 C   0  0  0  0  0  0  0  0  0  0  0  0
  -25.0796   -1.5349  -11.4595 C   0  0  0  0  0  0  0  0  0  0  0  0
  -25.8910   -1.9152  -10.4455 N   0  0  0  0  0  0  0  0  0  0  0  0
  -27.2013   -1.9590  -10.6976 C   0  0  0  0  0  0  0  0  0  0  0  0
  -28.0347   -2.3511   -9.6710 N   0  0  0  0  0  0  0  0  0  0  0  0
  -27.7658   -1.6142  -11.8569 N   0  0  0  0  0  0  0  0  0  0  0  0
  -26.9280   -1.2343  -12.8419 C   0  0  0  0  0  0  0  0  0  0  0  0
  -25.5574   -1.1716  -12.7076 C   0  0  0  0  0  0  0  0  0  0  0  0
  -24.6668   -0.7898  -13.8574 C   0  0  0  0  0  0  0  0  0  0  0  0
  -27.5839   -2.1689   -8.7854 H   0  0  0  0  0  0  0  0  0  0  0  0
  -28.9544   -1.9602   -9.8147 H   0  0  0  0  0  0  0  0  0  0  0  0
  -18.2393    2.4485  -15.1214 N   0  0  0  0  0  0  0  0  0  0  0  0
  -19.1251    1.3798  -15.0669 C   0  0  0  0  0  0  0  0  0  0  0  0
  -18.8574    0.2231  -15.3812 O   0  0  0  0  0  0  0  0  0  0  0  0
  -18.4831    3.2938  -14.6259 H   0  0  0  0  0  0  0  0  0  0  0  0
  -14.8204    1.0980  -15.7337 C   0  0  0  0  0  0  0  0  0  0  0  0
  -14.3242    2.0101  -16.6694 C   0  0  0  0  0  0  0  0  0  0  0  0
  -15.0950    3.1042  -17.0472 C   0  0  0  0  0  0  0  0  0  0  0  0
  -16.3710    3.2769  -16.5148 C   0  0  0  0  0  0  0  0  0  0  0  0
  -16.9098    2.3536  -15.6136 C   0  0  0  0  0  0  0  0  0  0  0  0
  -16.1034    1.2861  -15.1944 C   0  0  0  0  0  0  0  0  0  0  0  0
  -14.1046   -0.2138  -13.8849 C   0  0  0  0  0  0  0  0  0  0  0  0
  -14.1533   -0.0151  -15.2955 O   0  0  0  0  0  0  0  0  0  0  0  0
 30 31  1  0  0  0
 31 24  1  0  0  0
 24 25  1  0  0  0
 24 29  2  0  0  0
 25 26  2  0  0  0
 26 27  1  0  0  0
 27 28  2  0  0  0
 28 20  1  0  0  0
 28 29  1  0  0  0
 20 21  1  0  0  0
 20 23  1  0  0  0
 21 22  2  0  0  0
 21  1  1  0  0  0
  1  2  1  0  0  0
  1  6  2  0  0  0
  2  3  2  0  0  0
  3  4  1  0  0  0
  4  5  2  0  0  0
  5  7  1  0  0  0
  5  6  1  0  0  0
  7  8  1  0  0  0
  7 17  1  0  0  0
  8  9  1  0  0  0
  9 10  1  0  0  0
 10 11  1  0  0  0
 10 16  2  0  0  0
 11 12  2  0  0  0
 12 13  1  0  0  0
 12 14  1  0  0  0
 13 18  1  0  0  0
 13 19  1  0  0  0
 14 15  2  0  0  0
 15 16  1  0  0  0
 16 17  1  0  0  0
M  END
> <minimizedAffinity>
-9.32479

$$$$
