CHEMBL3694717


 28 31  0  0  0  0  0  0  0  0999 V2000
  -27.6879   -2.0411   -8.7879 C   0  0  0  0  0  0  0  0  0  0  0  0
  -28.2924   -3.3624   -8.5911 C   0  0  0  0  0  0  0  0  0  0  0  0
  -28.8991   -3.6641   -7.4333 C   0  0  0  0  0  0  0  0  0  0  0  0
  -28.9262   -2.7290   -6.3967 N   0  0  0  0  0  0  0  0  0  0  0  0
  -29.4184   -2.8148   -5.0943 C   0  0  0  0  0  0  0  0  0  0  0  0
  -29.2376   -1.5324   -4.5939 C   0  0  0  0  0  0  0  0  0  0  0  0
  -28.6089   -0.7057   -5.4873 N   0  0  0  0  0  0  0  0  0  0  0  0
  -28.4027   -1.4458   -6.5529 C   0  0  0  0  0  0  0  0  0  0  0  0
  -27.7641   -1.1278   -7.7905 C   0  0  0  0  0  0  0  0  0  0  0  0
  -24.1608   -0.9183  -11.9552 C   0  0  0  0  0  0  0  0  0  0  0  0
  -25.5230   -1.1774  -11.4643 C   0  0  0  0  0  0  0  0  0  0  0  0
  -26.6631   -1.1581  -12.1103 N   0  0  0  0  0  0  0  0  0  0  0  0
  -27.6279   -1.4807  -11.1857 N   0  0  0  0  0  0  0  0  0  0  0  0
  -27.0331   -1.6823  -10.0148 C   0  0  0  0  0  0  0  0  0  0  0  0
  -25.6633   -1.4977  -10.1455 O   0  0  0  0  0  0  0  0  0  0  0  0
  -29.9880   -4.0075   -4.4462 C   0  0  0  0  0  0  0  0  0  0  0  0
  -31.3683   -4.1337   -4.2436 C   0  0  0  0  0  0  0  0  0  0  0  0
  -31.8980   -5.2194   -3.5511 C   0  0  0  0  0  0  0  0  0  0  0  0
  -31.0646   -6.2494   -3.1273 C   0  0  0  0  0  0  0  0  0  0  0  0
  -29.7011   -6.2160   -3.4160 C   0  0  0  0  0  0  0  0  0  0  0  0
  -29.1652   -5.0773   -4.0456 C   0  0  0  0  0  0  0  0  0  0  0  0
  -28.8302   -7.2896   -3.1305 N   0  0  0  0  0  0  0  0  0  0  0  0
  -28.5157   -8.3396   -3.9542 C   0  0  0  0  0  0  0  0  0  0  0  0
  -27.5833   -9.1659   -3.3997 N   0  0  0  0  0  0  0  0  0  0  0  0
  -28.9394   -8.5887   -5.0743 O   0  0  0  0  0  0  0  0  0  0  0  0
  -28.2493   -7.1998   -2.3106 H   0  0  0  0  0  0  0  0  0  0  0  0
  -27.6672   -9.3688   -2.4154 H   0  0  0  0  0  0  0  0  0  0  0  0
  -27.4069   -9.9807   -3.9766 H   0  0  0  0  0  0  0  0  0  0  0  0
 10 11  1  0  0  0
 11 12  2  0  0  0
 11 15  1  0  0  0
 12 13  1  0  0  0
 13 14  2  0  0  0
 14  1  1  0  0  0
 14 15  1  0  0  0
  1  2  1  0  0  0
  1  9  2  0  0  0
  2  3  2  0  0  0
  3  4  1  0  0  0
  4  5  1  0  0  0
  4  8  1  0  0  0
  5 16  1  0  0  0
  5  6  2  0  0  0
 16 17  1  0  0  0
 16 21  2  0  0  0
 17 18  2  0  0  0
 18 19  1  0  0  0
 19 20  2  0  0  0
 20 22  1  0  0  0
 20 21  1  0  0  0
 22 23  1  0  0  0
 22 26  1  0  0  0
 23 24  1  0  0  0
 23 25  2  0  0  0
 24 27  1  0  0  0
 24 28  1  0  0  0
  6  7  1  0  0  0
  7  8  2  0  0  0
  8  9  1  0  0  0
M  END
> <minimizedAffinity>
-9.43363

$$$$
