CHEMBL45683


 44 50  0  0  0  0  0  0  0  0999 V2000
  -30.5194   -7.8211   -7.3528 N   0  0  0  0  0  0  0  0  0  0  0  0
  -29.2634   -8.2551   -7.5769 N   0  0  0  0  0  0  0  0  0  0  0  0
  -29.3870   -9.5837   -7.7391 C   0  0  0  0  0  0  0  0  0  0  0  0
  -30.7497   -9.9974   -7.5787 C   0  0  0  0  0  0  0  0  0  0  0  0
  -31.4988  -11.1790   -7.5268 C   0  0  0  0  0  0  0  0  0  0  0  0
  -30.9704  -12.4624   -7.5692 N   0  0  0  0  0  0  0  0  0  0  0  0
  -32.8367  -11.0969   -7.3693 N   0  0  0  0  0  0  0  0  0  0  0  0
  -33.3971   -9.8807   -7.2389 C   0  0  0  0  0  0  0  0  0  0  0  0
  -32.7805   -8.6895   -7.2107 N   0  0  0  0  0  0  0  0  0  0  0  0
  -31.4542   -8.8204   -7.3892 C   0  0  0  0  0  0  0  0  0  0  0  0
  -30.0515  -12.5495   -7.1513 H   0  0  0  0  0  0  0  0  0  0  0  0
  -31.6572  -13.1319   -7.2412 H   0  0  0  0  0  0  0  0  0  0  0  0
  -28.9361   -5.4571   -4.7417 C   0  0  0  0  0  0  0  0  0  0  0  0
  -30.0710   -6.4720   -4.5050 C   0  0  0  0  0  0  0  0  0  0  0  0
  -31.2302   -6.3735   -5.4884 C   0  0  0  0  0  0  0  0  0  0  0  0
  -30.7809   -6.4403   -6.9540 C   0  0  0  0  0  0  0  0  0  0  0  0
  -29.6266   -5.4725   -7.2513 C   0  0  0  0  0  0  0  0  0  0  0  0
  -28.4932   -5.4938   -6.2189 C   0  0  0  0  0  0  0  0  0  0  0  0
  -28.3055   -0.6324   -6.6155 C   0  0  0  0  0  0  0  0  0  0  0  0
  -28.6892   -1.4331   -5.4551 N   0  0  0  0  0  0  0  0  0  0  0  0
  -29.8171   -2.3175   -5.7967 C   0  0  0  0  0  0  0  0  0  0  0  0
  -30.1850   -3.3020   -4.6646 C   0  0  0  0  0  0  0  0  0  0  0  0
  -29.0597   -4.1076   -4.1759 N   0  0  0  0  0  0  0  0  0  0  0  0
  -27.9148   -3.2530   -3.8746 C   0  0  0  0  0  0  0  0  0  0  0  0
  -27.5436   -2.2084   -4.9560 C   0  0  0  0  0  0  0  0  0  0  0  0
  -28.1991  -10.4113   -7.9704 C   0  0  0  0  0  0  0  0  0  0  0  0
  -27.4668  -10.2894   -9.1566 C   0  0  0  0  0  0  0  0  0  0  0  0
  -26.2499  -10.9684   -9.3196 C   0  0  0  0  0  0  0  0  0  0  0  0
  -25.7305  -11.7628   -8.2950 C   0  0  0  0  0  0  0  0  0  0  0  0
  -26.5282  -11.9760   -7.1668 C   0  0  0  0  0  0  0  0  0  0  0  0
  -27.7505  -11.3175   -7.0080 C   0  0  0  0  0  0  0  0  0  0  0  0
  -24.5171  -12.4654   -8.3654 N   0  0  0  0  0  0  0  0  0  0  0  0
  -24.4107  -12.8361   -9.3084 H   0  0  0  0  0  0  0  0  0  0  0  0
  -23.3088  -11.7643   -7.9585 C   0  0  0  0  0  0  0  0  0  0  0  0
  -23.0400  -11.8941   -6.4992 C   0  0  0  0  0  0  0  0  0  0  0  0
  -21.9194  -11.5755   -5.7584 C   0  0  0  0  0  0  0  0  0  0  0  0
  -22.2459  -11.7301   -4.3844 C   0  0  0  0  0  0  0  0  0  0  0  0
  -21.5574  -11.4718   -3.1839 C   0  0  0  0  0  0  0  0  0  0  0  0
  -22.2074  -11.6841   -1.9635 C   0  0  0  0  0  0  0  0  0  0  0  0
  -23.5117  -12.1732   -1.9299 C   0  0  0  0  0  0  0  0  0  0  0  0
  -24.2058  -12.4631   -3.1097 C   0  0  0  0  0  0  0  0  0  0  0  0
  -23.5519  -12.2163   -4.3231 C   0  0  0  0  0  0  0  0  0  0  0  0
  -23.9902  -12.3592   -5.6215 N   0  0  0  0  0  0  0  0  0  0  0  0
  -24.9000  -12.7099   -5.8938 H   0  0  0  0  0  0  0  0  0  0  0  0
 19 20  1  0  0  0
 20 21  1  0  0  0
 20 25  1  0  0  0
 21 22  1  0  0  0
 22 23  1  0  0  0
 23 24  1  0  0  0
 13 14  1  0  0  0
 13 18  1  0  0  0
 13 23  1  0  0  0
 14 15  1  0  0  0
 15 16  1  0  0  0
 16 17  1  0  0  0
 16  1  1  0  0  0
  1  2  1  0  0  0
  1 10  1  0  0  0
  2  3  2  0  0  0
  3 26  1  0  0  0
  3  4  1  0  0  0
 26 27  1  0  0  0
 26 31  2  0  0  0
 27 28  2  0  0  0
 28 29  1  0  0  0
 29 32  1  0  0  0
 29 30  2  0  0  0
 32 34  1  0  0  0
 32 33  1  0  0  0
 34 35  1  0  0  0
 35 36  2  0  0  0
 35 43  1  0  0  0
 36 37  1  0  0  0
 37 38  1  0  0  0
 37 42  2  0  0  0
 38 39  2  0  0  0
 39 40  1  0  0  0
 40 41  2  0  0  0
 41 42  1  0  0  0
 42 43  1  0  0  0
 43 44  1  0  0  0
 30 31  1  0  0  0
  4  5  1  0  0  0
  4 10  2  0  0  0
  5  6  1  0  0  0
  5  7  2  0  0  0
  6 11  1  0  0  0
  6 12  1  0  0  0
  7  8  1  0  0  0
  8  9  2  0  0  0
  9 10  1  0  0  0
 17 18  1  0  0  0
 24 25  1  0  0  0
M  END
> <minimizedAffinity>
-9.30242

$$$$
