CHEMBL194062


 25 27  0  0  0  0  0  0  0  0999 V2000
  -27.7392   -2.1074   -7.9489 N   0  0  0  0  0  0  0  0  0  0  0  0
  -27.4633   -1.4208   -7.2610 H   0  0  0  0  0  0  0  0  0  0  0  0
  -29.7722   -5.4346   -6.3359 C   0  0  0  0  0  0  0  0  0  0  0  0
  -29.0163   -5.5965   -7.4898 C   0  0  0  0  0  0  0  0  0  0  0  0
  -28.3693   -4.4904   -8.0397 C   0  0  0  0  0  0  0  0  0  0  0  0
  -28.4668   -3.2122   -7.4664 C   0  0  0  0  0  0  0  0  0  0  0  0
  -29.2557   -3.0724   -6.3133 C   0  0  0  0  0  0  0  0  0  0  0  0
  -29.9127   -4.1755   -5.7505 C   0  0  0  0  0  0  0  0  0  0  0  0
  -31.4930   -6.1697   -4.4327 N   0  0  0  0  0  0  0  0  0  0  0  0
  -30.4828   -6.8635   -5.5827 S   0  0  0  0  0  0  0  0  0  0  0  0
  -29.4595   -7.5724   -4.8594 O   0  0  0  0  0  0  0  0  0  0  0  0
  -31.3649   -7.5109   -6.5260 O   0  0  0  0  0  0  0  0  0  0  0  0
  -31.3006   -6.5664   -3.5132 H   0  0  0  0  0  0  0  0  0  0  0  0
  -32.4667   -6.2334   -4.7251 H   0  0  0  0  0  0  0  0  0  0  0  0
  -27.5155   -1.8174   -9.2442 C   0  0  0  0  0  0  0  0  0  0  0  0
  -28.3688   -1.6570  -10.2334 N   0  0  0  0  0  0  0  0  0  0  0  0
  -27.5923   -1.3460  -11.3079 C   0  0  0  0  0  0  0  0  0  0  0  0
  -26.2650   -1.3389  -10.9479 C   0  0  0  0  0  0  0  0  0  0  0  0
  -26.2052   -1.6602   -9.6133 O   0  0  0  0  0  0  0  0  0  0  0  0
  -25.0211   -1.1031  -11.6617 C   0  0  0  0  0  0  0  0  0  0  0  0
  -24.6462    0.2102  -11.9912 C   0  0  0  0  0  0  0  0  0  0  0  0
  -23.4890    0.4633  -12.7289 C   0  0  0  0  0  0  0  0  0  0  0  0
  -22.6845   -0.5946  -13.1400 C   0  0  0  0  0  0  0  0  0  0  0  0
  -23.0276   -1.9017  -12.7992 C   0  0  0  0  0  0  0  0  0  0  0  0
  -24.1872   -2.1549  -12.0608 C   0  0  0  0  0  0  0  0  0  0  0  0
  9 10  1  0  0  0
  9 13  1  0  0  0
  9 14  1  0  0  0
 10 11  2  0  0  0
 10 12  2  0  0  0
 10  3  1  0  0  0
  3  4  1  0  0  0
  3  8  2  0  0  0
  4  5  2  0  0  0
  5  6  1  0  0  0
  6  1  1  0  0  0
  6  7  2  0  0  0
  1 15  1  0  0  0
  1  2  1  0  0  0
 15 16  2  0  0  0
 15 19  1  0  0  0
 16 17  1  0  0  0
 17 18  2  0  0  0
 18 20  1  0  0  0
 18 19  1  0  0  0
 20 21  1  0  0  0
 20 25  2  0  0  0
 21 22  2  0  0  0
 22 23  1  0  0  0
 23 24  2  0  0  0
 24 25  1  0  0  0
  7  8  1  0  0  0
M  END
> <minimizedAffinity>
-8.75823

$$$$
