CHEMBL525203


 38 41  0  0  0  0  0  0  0  0999 V2000
  -27.6893   -2.5692   -8.7745 C   0  0  0  0  0  0  0  0  0  0  0  0
  -28.1031   -2.1824   -7.4804 C   0  0  0  0  0  0  0  0  0  0  0  0
  -28.5211   -3.1404   -6.5295 C   0  0  0  0  0  0  0  0  0  0  0  0
  -28.5397   -4.4797   -6.8880 C   0  0  0  0  0  0  0  0  0  0  0  0
  -28.0964   -4.8325   -8.1690 C   0  0  0  0  0  0  0  0  0  0  0  0
  -27.6610   -3.9238   -9.1128 C   0  0  0  0  0  0  0  0  0  0  0  0
  -28.2099   -6.1967   -8.3755 N   0  0  0  0  0  0  0  0  0  0  0  0
  -28.7909   -6.8278   -7.2954 C   0  0  0  0  0  0  0  0  0  0  0  0
  -29.1710   -7.9815   -7.3053 O   0  0  0  0  0  0  0  0  0  0  0  0
  -28.9279   -5.7516   -6.2309 C   0  0  0  0  0  0  0  0  0  0  0  0
  -29.3703   -6.0481   -4.9793 C   0  0  0  0  0  0  0  0  0  0  0  0
  -28.0417   -6.6822   -9.2429 H   0  0  0  0  0  0  0  0  0  0  0  0
  -29.7807   -4.9555   -4.0754 C   0  0  0  0  0  0  0  0  0  0  0  0
  -28.8052   -4.1576   -3.4567 C   0  0  0  0  0  0  0  0  0  0  0  0
  -29.1811   -3.0822   -2.6501 C   0  0  0  0  0  0  0  0  0  0  0  0
  -30.5317   -2.7966   -2.4567 C   0  0  0  0  0  0  0  0  0  0  0  0
  -31.5071   -3.5815   -3.0724 C   0  0  0  0  0  0  0  0  0  0  0  0
  -31.1341   -4.6540   -3.8857 C   0  0  0  0  0  0  0  0  0  0  0  0
  -27.3211   -1.6034   -9.8466 C   0  0  0  0  0  0  0  0  0  0  0  0
  -28.1526   -0.9842  -10.4938 O   0  0  0  0  0  0  0  0  0  0  0  0
  -25.5290   -1.4965  -11.3269 C   0  0  0  0  0  0  0  0  0  0  0  0
  -25.9769   -1.4811   -9.9683 O   0  0  0  0  0  0  0  0  0  0  0  0
  -29.5842   -7.3031   -4.4254 N   0  0  0  0  0  0  0  0  0  0  0  0
  -30.4364   -7.3921   -3.8789 H   0  0  0  0  0  0  0  0  0  0  0  0
  -28.6219   -8.2949   -4.1109 C   0  0  0  0  0  0  0  0  0  0  0  0
  -27.2572   -8.1436   -4.3770 C   0  0  0  0  0  0  0  0  0  0  0  0
  -26.3752   -9.2309   -4.3039 C   0  0  0  0  0  0  0  0  0  0  0  0
  -26.8324  -10.5064   -3.9499 C   0  0  0  0  0  0  0  0  0  0  0  0
  -28.1720  -10.6371   -3.5585 C   0  0  0  0  0  0  0  0  0  0  0  0
  -29.0558   -9.5484   -3.6535 C   0  0  0  0  0  0  0  0  0  0  0  0
  -25.9831  -11.7409   -4.2024 C   0  0  0  0  0  0  0  0  0  0  0  0
  -24.5532  -11.6836   -3.8567 N   0  0  0  0  0  0  0  0  0  0  0  0
  -24.2652  -11.2981   -2.4873 C   0  0  0  0  0  0  0  0  0  0  0  0
  -23.6731  -11.5858   -4.9285 C   0  0  0  0  0  0  0  0  0  0  0  0
  -24.1235  -11.5791   -6.0816 O   0  0  0  0  0  0  0  0  0  0  0  0
  -22.3015  -11.4906   -4.7500 N   0  0  0  0  0  0  0  0  0  0  0  0
  -21.4952  -11.5991   -3.5436 C   0  0  0  0  0  0  0  0  0  0  0  0
  -21.4869  -11.3056   -5.9512 C   0  0  0  0  0  0  0  0  0  0  0  0
 21 22  1  0  0  0
 22 19  1  0  0  0
 19 20  2  0  0  0
 19  1  1  0  0  0
  1  2  1  0  0  0
  1  6  2  0  0  0
  2  3  2  0  0  0
  3  4  1  0  0  0
  4  5  2  0  0  0
  4 10  1  0  0  0
  5  6  1  0  0  0
  5  7  1  0  0  0
  7  8  1  0  0  0
  7 12  1  0  0  0
  8  9  2  0  0  0
  8 10  1  0  0  0
 10 11  2  0  0  0
 11 23  1  0  0  0
 11 13  1  0  0  0
 23 25  1  0  0  0
 23 24  1  0  0  0
 25 26  1  0  0  0
 25 30  2  0  0  0
 26 27  2  0  0  0
 27 28  1  0  0  0
 28 31  1  0  0  0
 28 29  2  0  0  0
 31 32  1  0  0  0
 32 33  1  0  0  0
 32 34  1  0  0  0
 34 35  2  0  0  0
 34 36  1  0  0  0
 36 37  1  0  0  0
 36 38  1  0  0  0
 29 30  1  0  0  0
 13 14  1  0  0  0
 13 18  2  0  0  0
 14 15  2  0  0  0
 15 16  1  0  0  0
 16 17  2  0  0  0
 17 18  1  0  0  0
M  END
> <minimizedAffinity>
-8.64372

$$$$
