CHEMBL3941200


 40 44  0  0  0  0  0  0  0  0999 V2000
  -29.6489   -5.4482   -7.1003 C   0  0  0  0  0  0  0  0  0  0  0  0
  -29.1610   -4.4888   -8.0002 C   0  0  0  0  0  0  0  0  0  0  0  0
  -28.6064   -3.2624   -7.5552 C   0  0  0  0  0  0  0  0  0  0  0  0
  -28.1351   -2.2157   -8.3655 C   0  0  0  0  0  0  0  0  0  0  0  0
  -27.6399   -1.0788   -7.8377 N   0  0  0  0  0  0  0  0  0  0  0  0
  -27.5880   -0.9879   -6.5103 C   0  0  0  0  0  0  0  0  0  0  0  0
  -27.9920   -1.9192   -5.6546 N   0  0  0  0  0  0  0  0  0  0  0  0
  -28.5003   -3.0335   -6.1867 C   0  0  0  0  0  0  0  0  0  0  0  0
  -28.9550   -3.9995   -5.3090 C   0  0  0  0  0  0  0  0  0  0  0  0
  -29.5670   -5.1911   -5.7283 C   0  0  0  0  0  0  0  0  0  0  0  0
  -29.4044   -7.6810   -7.9220 C   0  0  0  0  0  0  0  0  0  0  0  0
  -30.2040   -6.5222   -7.7395 O   0  0  0  0  0  0  0  0  0  0  0  0
  -28.1578   -2.3618   -9.7805 N   0  0  0  0  0  0  0  0  0  0  0  0
  -29.1006   -2.1922  -10.1225 H   0  0  0  0  0  0  0  0  0  0  0  0
  -27.1728   -1.9427  -10.6975 C   0  0  0  0  0  0  0  0  0  0  0  0
  -25.8674   -1.6180  -10.3027 C   0  0  0  0  0  0  0  0  0  0  0  0
  -24.9092   -1.1996  -11.2269 C   0  0  0  0  0  0  0  0  0  0  0  0
  -25.2277   -1.1446  -12.5815 C   0  0  0  0  0  0  0  0  0  0  0  0
  -24.0052   -0.5994  -13.6713 Cl  0  0  0  0  0  0  0  0  0  0  0  0
  -26.5004   -1.5327  -13.0053 C   0  0  0  0  0  0  0  0  0  0  0  0
  -26.9572   -1.5351  -14.6726 Cl  0  0  0  0  0  0  0  0  0  0  0  0
  -27.4615   -1.9392  -12.0691 C   0  0  0  0  0  0  0  0  0  0  0  0
  -30.0698   -6.1002   -4.8253 O   0  0  0  0  0  0  0  0  0  0  0  0
  -29.2912   -6.2618   -3.6385 C   0  0  0  0  0  0  0  0  0  0  0  0
  -28.5628   -7.5989   -3.5838 C   0  0  0  0  0  0  0  0  0  0  0  0
  -27.3967   -7.6867   -4.5778 C   0  0  0  0  0  0  0  0  0  0  0  0
  -26.8577   -9.0539   -4.5800 N   0  0  0  0  0  0  0  0  0  0  0  0
  -25.6393   -9.3027   -3.9616 C   0  0  0  0  0  0  0  0  0  0  0  0
  -24.9642   -8.3994   -3.4638 O   0  0  0  0  0  0  0  0  0  0  0  0
  -27.8836  -10.0705   -4.8408 C   0  0  0  0  0  0  0  0  0  0  0  0
  -29.0252   -9.9258   -3.8305 C   0  0  0  0  0  0  0  0  0  0  0  0
  -29.5680   -8.6015   -3.8768 O   0  0  0  0  0  0  0  0  0  0  0  0
  -25.1377  -10.7393   -3.9215 C   0  0  0  0  0  0  0  0  0  0  0  0
  -24.2637  -11.1357   -5.0928 C   0  0  0  0  0  0  0  0  0  0  0  0
  -24.8640  -11.5347   -6.2979 C   0  0  0  0  0  0  0  0  0  0  0  0
  -24.0822  -11.9102   -7.3928 C   0  0  0  0  0  0  0  0  0  0  0  0
  -22.6936  -11.8777   -7.2952 C   0  0  0  0  0  0  0  0  0  0  0  0
  -21.7302  -12.3523   -8.6384 Cl  0  0  0  0  0  0  0  0  0  0  0  0
  -22.0814  -11.4599   -6.1164 C   0  0  0  0  0  0  0  0  0  0  0  0
  -22.8635  -11.0779   -5.0232 C   0  0  0  0  0  0  0  0  0  0  0  0
 11 12  1  0  0  0
 12  1  1  0  0  0
  1  2  1  0  0  0
  1 10  2  0  0  0
  2  3  2  0  0  0
  3  4  1  0  0  0
  3  8  1  0  0  0
  4 13  1  0  0  0
  4  5  2  0  0  0
 13 15  1  0  0  0
 13 14  1  0  0  0
 15 16  1  0  0  0
 15 22  2  0  0  0
 16 17  2  0  0  0
 17 18  1  0  0  0
 18 19  1  0  0  0
 18 20  2  0  0  0
 20 21  1  0  0  0
 20 22  1  0  0  0
  5  6  1  0  0  0
  6  7  2  0  0  0
  7  8  1  0  0  0
  8  9  2  0  0  0
  9 10  1  0  0  0
 10 23  1  0  0  0
 23 24  1  0  0  0
 24 25  1  0  0  0
 25 26  1  0  0  0
 25 32  1  0  0  0
 26 27  1  0  0  0
 27 28  1  0  0  0
 27 30  1  0  0  0
 28 29  2  0  0  0
 28 33  1  0  0  0
 33 34  1  0  0  0
 34 35  1  0  0  0
 34 40  2  0  0  0
 35 36  2  0  0  0
 36 37  1  0  0  0
 37 38  1  0  0  0
 37 39  2  0  0  0
 39 40  1  0  0  0
 30 31  1  0  0  0
 31 32  1  0  0  0
M  END
> <minimizedAffinity>
-9.54996

$$$$
