CHEMBL3922912


 39 42  0  0  0  0  0  0  0  0999 V2000
  -25.9582   -1.7723  -12.0323 C   0  0  0  0  0  0  0  0  0  0  0  0
  -26.0821   -1.6018  -13.4150 C   0  0  0  0  0  0  0  0  0  0  0  0
  -25.0034   -1.1327  -14.1802 C   0  0  0  0  0  0  0  0  0  0  0  0
  -23.7855   -0.8242  -13.5711 C   0  0  0  0  0  0  0  0  0  0  0  0
  -23.6685   -1.0030  -12.1913 C   0  0  0  0  0  0  0  0  0  0  0  0
  -22.5064   -0.7855  -11.5594 F   0  0  0  0  0  0  0  0  0  0  0  0
  -24.7494   -1.4334  -11.4217 C   0  0  0  0  0  0  0  0  0  0  0  0
  -26.1402   -1.7486   -9.1192 O   0  0  0  0  0  0  0  0  0  0  0  0
  -27.0146   -2.2405   -9.8219 C   0  0  0  0  0  0  0  0  0  0  0  0
  -26.9725   -2.3050  -11.2041 N   0  0  0  0  0  0  0  0  0  0  0  0
  -28.2017   -2.7638   -9.3361 N   0  0  0  0  0  0  0  0  0  0  0  0
  -27.8482   -2.5265  -11.6548 H   0  0  0  0  0  0  0  0  0  0  0  0
  -28.6753   -3.4527   -9.9064 H   0  0  0  0  0  0  0  0  0  0  0  0
  -28.6898   -2.6238   -8.0162 C   0  0  0  0  0  0  0  0  0  0  0  0
  -28.2100   -1.6713   -7.1139 C   0  0  0  0  0  0  0  0  0  0  0  0
  -28.7438   -1.5589   -5.8219 C   0  0  0  0  0  0  0  0  0  0  0  0
  -29.8113   -2.3735   -5.4480 C   0  0  0  0  0  0  0  0  0  0  0  0
  -30.2970   -3.3362   -6.3379 C   0  0  0  0  0  0  0  0  0  0  0  0
  -29.7379   -3.4515   -7.6081 C   0  0  0  0  0  0  0  0  0  0  0  0
  -30.2217   -4.3761   -8.4528 F   0  0  0  0  0  0  0  0  0  0  0  0
  -28.1724   -0.5799   -5.0690 O   0  0  0  0  0  0  0  0  0  0  0  0
  -28.5593    0.7744   -5.2435 C   0  0  0  0  0  0  0  0  0  0  0  0
  -28.2156    1.2982   -6.4383 F   0  0  0  0  0  0  0  0  0  0  0  0
  -29.9037    0.8560   -5.1280 F   0  0  0  0  0  0  0  0  0  0  0  0
  -28.0066    1.5231   -4.2648 F   0  0  0  0  0  0  0  0  0  0  0  0
  -22.7647   -0.4410  -14.4139 O   0  0  0  0  0  0  0  0  0  0  0  0
  -22.2889    0.8514  -14.3736 C   0  0  0  0  0  0  0  0  0  0  0  0
  -22.9520    1.8947  -13.7405 C   0  0  0  0  0  0  0  0  0  0  0  0
  -22.3514    3.1329  -13.7519 C   0  0  0  0  0  0  0  0  0  0  0  0
  -21.1960    3.3935  -14.3906 N   0  0  0  0  0  0  0  0  0  0  0  0
  -20.5835    2.3985  -15.0528 C   0  0  0  0  0  0  0  0  0  0  0  0
  -21.1016    1.1085  -15.0679 C   0  0  0  0  0  0  0  0  0  0  0  0
  -19.3908    2.6580  -15.7492 N   0  0  0  0  0  0  0  0  0  0  0  0
  -18.1276    2.4479  -15.2282 C   0  0  0  0  0  0  0  0  0  0  0  0
  -17.8405    2.0177  -14.1231 O   0  0  0  0  0  0  0  0  0  0  0  0
  -19.4722    3.0072  -16.6882 H   0  0  0  0  0  0  0  0  0  0  0  0
  -16.9794    2.7851  -16.1247 C   0  0  0  0  0  0  0  0  0  0  0  0
  -15.5321    2.9396  -15.7368 C   0  0  0  0  0  0  0  0  0  0  0  0
  -16.3553    4.1592  -16.0371 C   0  0  0  0  0  0  0  0  0  0  0  0
  8  9  2  0  0  0
  9 10  1  0  0  0
  9 11  1  0  0  0
 10  1  1  0  0  0
 10 12  1  0  0  0
  1  2  1  0  0  0
  1  7  2  0  0  0
  2  3  2  0  0  0
  3  4  1  0  0  0
  4 26  1  0  0  0
  4  5  2  0  0  0
 26 27  1  0  0  0
 27 28  1  0  0  0
 27 32  2  0  0  0
 28 29  2  0  0  0
 29 30  1  0  0  0
 30 31  2  0  0  0
 31 33  1  0  0  0
 31 32  1  0  0  0
 33 34  1  0  0  0
 33 36  1  0  0  0
 34 35  2  0  0  0
 34 37  1  0  0  0
 37 38  1  0  0  0
 37 39  1  0  0  0
 38 39  1  0  0  0
  5  6  1  0  0  0
  5  7  1  0  0  0
 11 14  1  0  0  0
 11 13  1  0  0  0
 14 15  1  0  0  0
 14 19  2  0  0  0
 15 16  2  0  0  0
 16 21  1  0  0  0
 16 17  1  0  0  0
 21 22  1  0  0  0
 22 23  1  0  0  0
 22 24  1  0  0  0
 22 25  1  0  0  0
 17 18  2  0  0  0
 18 19  1  0  0  0
 19 20  1  0  0  0
M  END
> <minimizedAffinity>
-11.36045

$$$$
