CHEMBL3642836


 45 48  0  0  0  0  0  0  0  0999 V2000
  -20.8959    2.1141  -14.3227 C   0  0  0  0  0  0  0  0  0  0  0  0
  -21.6571    3.0309  -14.0428 O   0  0  0  0  0  0  0  0  0  0  0  0
  -21.0811    0.7611  -14.0481 N   0  0  0  0  0  0  0  0  0  0  0  0
  -20.2780    0.1560  -14.1718 H   0  0  0  0  0  0  0  0  0  0  0  0
  -15.7738    3.4601  -16.6802 C   0  0  0  0  0  0  0  0  0  0  0  0
  -17.0849    3.0598  -16.0568 C   0  0  0  0  0  0  0  0  0  0  0  0
  -18.0332    4.0736  -15.8037 C   0  0  0  0  0  0  0  0  0  0  0  0
  -19.2724    3.7772  -15.2344 C   0  0  0  0  0  0  0  0  0  0  0  0
  -19.5917    2.4547  -14.9485 C   0  0  0  0  0  0  0  0  0  0  0  0
  -18.6745    1.4493  -15.2411 C   0  0  0  0  0  0  0  0  0  0  0  0
  -17.3819    1.7232  -15.7132 C   0  0  0  0  0  0  0  0  0  0  0  0
  -16.4223    0.6980  -15.8104 N   0  0  0  0  0  0  0  0  0  0  0  0
  -16.0523    0.4799  -16.7223 H   0  0  0  0  0  0  0  0  0  0  0  0
  -15.6321    0.0980  -14.8211 C   0  0  0  0  0  0  0  0  0  0  0  0
  -14.4952    0.6811  -14.4056 N   0  0  0  0  0  0  0  0  0  0  0  0
  -13.7789    0.0841  -13.4469 C   0  0  0  0  0  0  0  0  0  0  0  0
  -14.1418   -1.1069  -12.8879 C   0  0  0  0  0  0  0  0  0  0  0  0
  -15.3129   -1.6640  -13.3621 C   0  0  0  0  0  0  0  0  0  0  0  0
  -16.0558   -1.0752  -14.3330 N   0  0  0  0  0  0  0  0  0  0  0  0
  -15.8464   -2.9180  -12.8174 C   0  0  0  0  0  0  0  0  0  0  0  0
  -16.2710   -3.9754  -13.6398 C   0  0  0  0  0  0  0  0  0  0  0  0
  -16.7411   -5.1589  -13.0858 C   0  0  0  0  0  0  0  0  0  0  0  0
  -16.7879   -5.2645  -11.7065 C   0  0  0  0  0  0  0  0  0  0  0  0
  -16.4077   -4.2758  -10.8696 N   0  0  0  0  0  0  0  0  0  0  0  0
  -15.9433   -3.1371  -11.4441 C   0  0  0  0  0  0  0  0  0  0  0  0
  -22.1999    0.1965  -13.4027 C   0  0  0  0  0  0  0  0  0  0  0  0
  -22.2669    0.0107  -12.0331 C   0  0  0  0  0  0  0  0  0  0  0  0
  -23.3630   -0.6367  -11.4576 C   0  0  0  0  0  0  0  0  0  0  0  0
  -24.4072   -1.1698  -12.2266 C   0  0  0  0  0  0  0  0  0  0  0  0
  -24.3712   -0.9455  -13.6164 C   0  0  0  0  0  0  0  0  0  0  0  0
  -23.2825   -0.2238  -14.1803 C   0  0  0  0  0  0  0  0  0  0  0  0
  -25.4527   -1.9226  -11.6110 N   0  0  0  0  0  0  0  0  0  0  0  0
  -26.6692   -1.3973  -11.1923 C   0  0  0  0  0  0  0  0  0  0  0  0
  -26.9980   -0.2159  -11.2627 O   0  0  0  0  0  0  0  0  0  0  0  0
  -25.2464   -2.8784  -11.3414 H   0  0  0  0  0  0  0  0  0  0  0  0
  -27.5918   -2.3758  -10.5574 C   0  0  0  0  0  0  0  0  0  0  0  0
  -27.7448   -2.3141   -9.2205 C   0  0  0  0  0  0  0  0  0  0  0  0
  -28.6031   -3.2038   -8.3745 C   0  0  0  0  0  0  0  0  0  0  0  0
  -28.4394   -2.9499   -6.9357 N   0  0  0  0  0  0  0  0  0  0  0  0
  -27.8561   -1.6339   -6.6696 C   0  0  0  0  0  0  0  0  0  0  0  0
  -29.7317   -3.0652   -6.2546 C   0  0  0  0  0  0  0  0  0  0  0  0
  -25.3784   -1.5023  -14.5873 C   0  0  0  0  0  0  0  0  0  0  0  0
  -25.2602   -1.0235  -15.8597 F   0  0  0  0  0  0  0  0  0  0  0  0
  -25.3056   -2.8586  -14.6976 F   0  0  0  0  0  0  0  0  0  0  0  0
  -26.6626   -1.2356  -14.2118 F   0  0  0  0  0  0  0  0  0  0  0  0
  5  6  1  0  0  0
  6  7  1  0  0  0
  6 11  2  0  0  0
  7  8  2  0  0  0
  8  9  1  0  0  0
  9  1  1  0  0  0
  9 10  2  0  0  0
  1  2  2  0  0  0
  1  3  1  0  0  0
  3 26  1  0  0  0
  3  4  1  0  0  0
 26 27  1  0  0  0
 26 31  2  0  0  0
 27 28  2  0  0  0
 28 29  1  0  0  0
 29 32  1  0  0  0
 29 30  2  0  0  0
 32 33  1  0  0  0
 32 35  1  0  0  0
 33 34  2  0  0  0
 33 36  1  0  0  0
 36 37  2  0  0  0
 37 38  1  0  0  0
 38 39  1  0  0  0
 39 40  1  0  0  0
 39 41  1  0  0  0
 30 42  1  0  0  0
 30 31  1  0  0  0
 42 43  1  0  0  0
 42 44  1  0  0  0
 42 45  1  0  0  0
 10 11  1  0  0  0
 11 12  1  0  0  0
 12 14  1  0  0  0
 12 13  1  0  0  0
 14 15  1  0  0  0
 14 19  2  0  0  0
 15 16  2  0  0  0
 16 17  1  0  0  0
 17 18  2  0  0  0
 18 20  1  0  0  0
 18 19  1  0  0  0
 20 21  1  0  0  0
 20 25  2  0  0  0
 21 22  2  0  0  0
 22 23  1  0  0  0
 23 24  2  0  0  0
 24 25  1  0  0  0
M  END
> <minimizedAffinity>
-10.36811

$$$$
