CHEMBL3972070


 39 42  0  0  0  0  0  0  0  0999 V2000
  -28.8673   -3.8025   -6.1975 C   0  0  0  0  0  0  0  0  0  0  0  0
  -28.2496   -4.1038   -4.9748 C   0  0  0  0  0  0  0  0  0  0  0  0
  -28.5371   -5.2774   -4.2754 C   0  0  0  0  0  0  0  0  0  0  0  0
  -29.4952   -6.1555   -4.7616 C   0  0  0  0  0  0  0  0  0  0  0  0
  -30.2251   -5.7822   -5.8952 C   0  0  0  0  0  0  0  0  0  0  0  0
  -31.2389   -6.5397   -6.3382 F   0  0  0  0  0  0  0  0  0  0  0  0
  -29.9016   -4.6328   -6.6286 C   0  0  0  0  0  0  0  0  0  0  0  0
  -27.5356   -1.6894   -8.8908 N   0  0  0  0  0  0  0  0  0  0  0  0
  -27.8221   -2.8759   -8.2351 C   0  0  0  0  0  0  0  0  0  0  0  0
  -27.5360   -3.9729   -8.7069 O   0  0  0  0  0  0  0  0  0  0  0  0
  -28.4578   -2.7136   -7.0171 N   0  0  0  0  0  0  0  0  0  0  0  0
  -27.4454   -0.8606   -8.3186 H   0  0  0  0  0  0  0  0  0  0  0  0
  -28.8892   -1.8127   -6.8368 H   0  0  0  0  0  0  0  0  0  0  0  0
  -25.1257   -1.2418  -11.7350 C   0  0  0  0  0  0  0  0  0  0  0  0
  -25.6378   -1.3531  -10.4414 C   0  0  0  0  0  0  0  0  0  0  0  0
  -26.9891   -1.6502  -10.2059 C   0  0  0  0  0  0  0  0  0  0  0  0
  -27.8161   -1.9075  -11.3048 C   0  0  0  0  0  0  0  0  0  0  0  0
  -27.3119   -1.8087  -12.6202 C   0  0  0  0  0  0  0  0  0  0  0  0
  -25.9637   -1.4664  -12.8225 C   0  0  0  0  0  0  0  0  0  0  0  0
  -28.1823   -2.0448  -13.8309 C   0  0  0  0  0  0  0  0  0  0  0  0
  -28.5401   -3.3459  -14.0009 F   0  0  0  0  0  0  0  0  0  0  0  0
  -29.3435   -1.3369  -13.7755 F   0  0  0  0  0  0  0  0  0  0  0  0
  -27.5681   -1.6670  -14.9851 F   0  0  0  0  0  0  0  0  0  0  0  0
  -22.6347   -0.6139  -12.0961 N   0  0  0  0  0  0  0  0  0  0  0  0
  -23.7485   -0.8944  -11.9305 C   0  0  0  0  0  0  0  0  0  0  0  0
  -29.6658   -7.3082   -4.0285 O   0  0  0  0  0  0  0  0  0  0  0  0
  -28.9276   -8.4298   -4.3356 C   0  0  0  0  0  0  0  0  0  0  0  0
  -28.0448   -9.0504   -3.4614 C   0  0  0  0  0  0  0  0  0  0  0  0
  -27.2793  -10.0831   -3.9556 C   0  0  0  0  0  0  0  0  0  0  0  0
  -27.4008  -10.5617   -5.2075 N   0  0  0  0  0  0  0  0  0  0  0  0
  -28.3211  -10.0220   -6.0186 C   0  0  0  0  0  0  0  0  0  0  0  0
  -29.1214   -8.9592   -5.6136 C   0  0  0  0  0  0  0  0  0  0  0  0
  -28.4939  -10.5309   -7.3154 N   0  0  0  0  0  0  0  0  0  0  0  0
  -27.7482  -10.1279   -8.4058 C   0  0  0  0  0  0  0  0  0  0  0  0
  -26.8795   -9.2717   -8.4504 O   0  0  0  0  0  0  0  0  0  0  0  0
  -29.2065  -11.2284   -7.4503 H   0  0  0  0  0  0  0  0  0  0  0  0
  -28.0798  -10.8839   -9.6534 C   0  0  0  0  0  0  0  0  0  0  0  0
  -27.6297  -10.3198  -10.9825 C   0  0  0  0  0  0  0  0  0  0  0  0
  -29.0897  -10.3285  -10.6355 C   0  0  0  0  0  0  0  0  0  0  0  0
 24 25  3  0  0  0
 25 14  1  0  0  0
 14 15  1  0  0  0
 14 19  2  0  0  0
 15 16  2  0  0  0
 16  8  1  0  0  0
 16 17  1  0  0  0
  8  9  1  0  0  0
  8 12  1  0  0  0
  9 10  2  0  0  0
  9 11  1  0  0  0
 11  1  1  0  0  0
 11 13  1  0  0  0
  1  2  1  0  0  0
  1  7  2  0  0  0
  2  3  2  0  0  0
  3  4  1  0  0  0
  4 26  1  0  0  0
  4  5  2  0  0  0
 26 27  1  0  0  0
 27 28  1  0  0  0
 27 32  2  0  0  0
 28 29  2  0  0  0
 29 30  1  0  0  0
 30 31  2  0  0  0
 31 33  1  0  0  0
 31 32  1  0  0  0
 33 34  1  0  0  0
 33 36  1  0  0  0
 34 35  2  0  0  0
 34 37  1  0  0  0
 37 38  1  0  0  0
 37 39  1  0  0  0
 38 39  1  0  0  0
  5  6  1  0  0  0
  5  7  1  0  0  0
 17 18  2  0  0  0
 18 20  1  0  0  0
 18 19  1  0  0  0
 20 21  1  0  0  0
 20 22  1  0  0  0
 20 23  1  0  0  0
M  END
> <minimizedAffinity>
-8.77316

$$$$
