CHEMBL3694660


 30 33  0  0  0  0  0  0  0  0999 V2000
  -18.9164    2.1891  -15.1959 C   0  0  0  0  0  0  0  0  0  0  0  0
  -19.3189    0.8007  -15.2619 C   0  0  0  0  0  0  0  0  0  0  0  0
  -20.5418    0.4687  -14.8231 C   0  0  0  0  0  0  0  0  0  0  0  0
  -21.4181    1.4604  -14.3654 N   0  0  0  0  0  0  0  0  0  0  0  0
  -22.7257    1.3824  -13.8988 C   0  0  0  0  0  0  0  0  0  0  0  0
  -23.0633    2.7028  -13.6308 C   0  0  0  0  0  0  0  0  0  0  0  0
  -22.0345    3.5670  -13.8801 N   0  0  0  0  0  0  0  0  0  0  0  0
  -21.0579    2.8094  -14.3239 C   0  0  0  0  0  0  0  0  0  0  0  0
  -19.7446    3.1529  -14.7491 C   0  0  0  0  0  0  0  0  0  0  0  0
  -23.5712    0.1849  -13.8104 C   0  0  0  0  0  0  0  0  0  0  0  0
  -24.1594   -0.3762  -14.9496 C   0  0  0  0  0  0  0  0  0  0  0  0
  -25.0433   -1.4398  -14.8432 C   0  0  0  0  0  0  0  0  0  0  0  0
  -25.4275   -1.8969  -13.5853 C   0  0  0  0  0  0  0  0  0  0  0  0
  -24.8882   -1.3461  -12.4240 C   0  0  0  0  0  0  0  0  0  0  0  0
  -23.9073   -0.3520  -12.5491 C   0  0  0  0  0  0  0  0  0  0  0  0
  -25.3332   -1.7198  -11.1336 N   0  0  0  0  0  0  0  0  0  0  0  0
  -26.6196   -1.6908  -10.6681 C   0  0  0  0  0  0  0  0  0  0  0  0
  -26.7515   -2.0634   -9.3696 N   0  0  0  0  0  0  0  0  0  0  0  0
  -27.6371   -1.3926  -11.2822 O   0  0  0  0  0  0  0  0  0  0  0  0
  -24.6329   -2.0461  -10.4751 H   0  0  0  0  0  0  0  0  0  0  0  0
  -26.1192   -1.6390   -8.7032 H   0  0  0  0  0  0  0  0  0  0  0  0
  -27.7230   -1.9894   -9.0835 H   0  0  0  0  0  0  0  0  0  0  0  0
  -16.2760    2.8653  -15.9342 C   0  0  0  0  0  0  0  0  0  0  0  0
  -17.4952    2.5531  -15.5933 C   0  0  0  0  0  0  0  0  0  0  0  0
  -14.3392    1.1404  -17.5869 C   0  0  0  0  0  0  0  0  0  0  0  0
  -14.0804    2.4467  -17.0369 N   0  0  0  0  0  0  0  0  0  0  0  0
  -12.9152    3.1489  -17.1591 C   0  0  0  0  0  0  0  0  0  0  0  0
  -12.9862    4.3108  -16.5486 N   0  0  0  0  0  0  0  0  0  0  0  0
  -14.2492    4.3574  -16.0119 C   0  0  0  0  0  0  0  0  0  0  0  0
  -14.9501    3.2081  -16.3017 C   0  0  0  0  0  0  0  0  0  0  0  0
 25 26  1  0  0  0
 26 27  1  0  0  0
 26 30  1  0  0  0
 27 28  2  0  0  0
 28 29  1  0  0  0
 29 30  2  0  0  0
 30 23  1  0  0  0
 23 24  3  0  0  0
 24  1  1  0  0  0
  1  2  1  0  0  0
  1  9  2  0  0  0
  2  3  2  0  0  0
  3  4  1  0  0  0
  4  5  1  0  0  0
  4  8  1  0  0  0
  5 10  1  0  0  0
  5  6  2  0  0  0
 10 11  1  0  0  0
 10 15  2  0  0  0
 11 12  2  0  0  0
 12 13  1  0  0  0
 13 14  2  0  0  0
 14 16  1  0  0  0
 14 15  1  0  0  0
 16 17  1  0  0  0
 16 20  1  0  0  0
 17 18  1  0  0  0
 17 19  2  0  0  0
 18 21  1  0  0  0
 18 22  1  0  0  0
  6  7  1  0  0  0
  7  8  2  0  0  0
  8  9  1  0  0  0
M  END
> <minimizedAffinity>
-9.29811

$$$$
