CHEMBL1242387


 37 41  0  0  0  0  0  0  0  0999 V2000
  -22.5438   -0.1096  -13.7370 C   0  0  0  0  0  0  0  0  0  0  0  0
  -22.7383    0.0803  -12.3720 C   0  0  0  0  0  0  0  0  0  0  0  0
  -23.9027   -0.3913  -11.7570 C   0  0  0  0  0  0  0  0  0  0  0  0
  -24.9852   -0.9271  -12.4949 C   0  0  0  0  0  0  0  0  0  0  0  0
  -26.1941   -1.4652  -11.9474 C   0  0  0  0  0  0  0  0  0  0  0  0
  -27.2109   -1.9328  -12.8034 C   0  0  0  0  0  0  0  0  0  0  0  0
  -27.0568   -1.8973  -14.1826 C   0  0  0  0  0  0  0  0  0  0  0  0
  -25.8673   -1.4248  -14.7282 C   0  0  0  0  0  0  0  0  0  0  0  0
  -24.8285   -0.9543  -13.9138 C   0  0  0  0  0  0  0  0  0  0  0  0
  -23.6072   -0.5640  -14.5123 C   0  0  0  0  0  0  0  0  0  0  0  0
  -26.4659   -1.7142  -10.4909 C   0  0  0  0  0  0  0  0  0  0  0  0
  -25.5137   -1.6247   -9.7198 O   0  0  0  0  0  0  0  0  0  0  0  0
  -27.7468   -2.0890  -10.1298 N   0  0  0  0  0  0  0  0  0  0  0  0
  -28.3832   -2.3233  -10.8796 H   0  0  0  0  0  0  0  0  0  0  0  0
  -28.2100   -2.3506   -8.8174 C   0  0  0  0  0  0  0  0  0  0  0  0
  -28.9123   -3.5030   -8.4465 C   0  0  0  0  0  0  0  0  0  0  0  0
  -29.4263   -3.6432   -7.1510 C   0  0  0  0  0  0  0  0  0  0  0  0
  -29.2230   -2.6374   -6.2128 C   0  0  0  0  0  0  0  0  0  0  0  0
  -29.9092   -2.7755   -4.6417 Cl  0  0  0  0  0  0  0  0  0  0  0  0
  -28.4747   -1.5125   -6.5472 C   0  0  0  0  0  0  0  0  0  0  0  0
  -27.9620   -1.3753   -7.8427 C   0  0  0  0  0  0  0  0  0  0  0  0
  -21.3084    0.0647  -14.3441 O   0  0  0  0  0  0  0  0  0  0  0  0
  -16.8309    2.4726  -15.2552 C   0  0  0  0  0  0  0  0  0  0  0  0
  -17.9087    3.3294  -15.4893 C   0  0  0  0  0  0  0  0  0  0  0  0
  -19.2219    2.9707  -15.2386 C   0  0  0  0  0  0  0  0  0  0  0  0
  -20.1295    3.9363  -15.3757 N   0  0  0  0  0  0  0  0  0  0  0  0
  -21.3917    3.6770  -15.0149 C   0  0  0  0  0  0  0  0  0  0  0  0
  -21.8102    2.4423  -14.5805 C   0  0  0  0  0  0  0  0  0  0  0  0
  -20.8995    1.3806  -14.5904 C   0  0  0  0  0  0  0  0  0  0  0  0
  -19.5281    1.6527  -14.8297 C   0  0  0  0  0  0  0  0  0  0  0  0
  -18.4460    0.7537  -14.6547 C   0  0  0  0  0  0  0  0  0  0  0  0
  -17.1011    1.1673  -14.8221 C   0  0  0  0  0  0  0  0  0  0  0  0
  -16.0445    0.2091  -14.3774 C   0  0  0  0  0  0  0  0  0  0  0  0
  -15.9409   -0.2330  -12.9401 C   0  0  0  0  0  0  0  0  0  0  0  0
  -15.2669   -0.2396  -15.2210 O   0  0  0  0  0  0  0  0  0  0  0  0
  -15.3137    4.0689  -16.1746 C   0  0  0  0  0  0  0  0  0  0  0  0
  -15.5308    2.8676  -15.4323 O   0  0  0  0  0  0  0  0  0  0  0  0
 36 37  1  0  0  0
 37 23  1  0  0  0
 23 24  1  0  0  0
 23 32  2  0  0  0
 24 25  2  0  0  0
 25 26  1  0  0  0
 25 30  1  0  0  0
 26 27  2  0  0  0
 27 28  1  0  0  0
 28 29  2  0  0  0
 29 22  1  0  0  0
 29 30  1  0  0  0
 22  1  1  0  0  0
  1  2  1  0  0  0
  1 10  2  0  0  0
  2  3  2  0  0  0
  3  4  1  0  0  0
  4  5  1  0  0  0
  4  9  2  0  0  0
  5 11  1  0  0  0
  5  6  2  0  0  0
 11 12  2  0  0  0
 11 13  1  0  0  0
 13 15  1  0  0  0
 13 14  1  0  0  0
 15 16  1  0  0  0
 15 21  2  0  0  0
 16 17  2  0  0  0
 17 18  1  0  0  0
 18 19  1  0  0  0
 18 20  2  0  0  0
 20 21  1  0  0  0
  6  7  1  0  0  0
  7  8  2  0  0  0
  8  9  1  0  0  0
  9 10  1  0  0  0
 30 31  2  0  0  0
 31 32  1  0  0  0
 32 33  1  0  0  0
 33 34  1  0  0  0
 33 35  2  0  0  0
M  END
> <minimizedAffinity>
-11.74120

$$$$
