CHEMBL3754057


 29 31  0  0  0  0  0  0  0  0999 V2000
  -15.9811    0.4778  -13.9629 C   0  0  0  0  0  0  0  0  0  0  0  0
  -17.3484    0.7982  -13.8614 C   0  0  0  0  0  0  0  0  0  0  0  0
  -18.0017    1.6061  -14.8082 C   0  0  0  0  0  0  0  0  0  0  0  0
  -17.2427    2.0478  -15.9010 C   0  0  0  0  0  0  0  0  0  0  0  0
  -15.8881    1.7113  -16.0242 C   0  0  0  0  0  0  0  0  0  0  0  0
  -15.2454    0.9272  -15.0605 C   0  0  0  0  0  0  0  0  0  0  0  0
  -15.1317   -1.9475  -11.4953 O   0  0  0  0  0  0  0  0  0  0  0  0
  -15.4815   -1.5451  -12.5964 C   0  0  0  0  0  0  0  0  0  0  0  0
  -15.8496   -2.3325  -13.6627 N   0  0  0  0  0  0  0  0  0  0  0  0
  -15.3758   -0.2001  -12.8918 N   0  0  0  0  0  0  0  0  0  0  0  0
  -15.5564   -1.9756  -14.5633 H   0  0  0  0  0  0  0  0  0  0  0  0
  -14.7056    0.2892  -12.3093 H   0  0  0  0  0  0  0  0  0  0  0  0
  -15.7692   -3.7261  -13.6370 C   0  0  0  0  0  0  0  0  0  0  0  0
  -16.6124   -4.5096  -12.8636 C   0  0  0  0  0  0  0  0  0  0  0  0
  -16.4237   -5.8892  -12.8673 C   0  0  0  0  0  0  0  0  0  0  0  0
  -15.3894   -6.4336  -13.6187 C   0  0  0  0  0  0  0  0  0  0  0  0
  -14.6131   -5.5743  -14.3772 C   0  0  0  0  0  0  0  0  0  0  0  0
  -14.8038   -4.2395  -14.4333 N   0  0  0  0  0  0  0  0  0  0  0  0
  -19.4121    1.9982  -14.6290 C   0  0  0  0  0  0  0  0  0  0  0  0
  -19.8431    3.3204  -14.6274 C   0  0  0  0  0  0  0  0  0  0  0  0
  -21.1172    3.7233  -14.4417 N   0  0  0  0  0  0  0  0  0  0  0  0
  -22.0103    2.7444  -14.2549 C   0  0  0  0  0  0  0  0  0  0  0  0
  -21.7450    1.4324  -14.2544 N   0  0  0  0  0  0  0  0  0  0  0  0
  -20.4469    1.0957  -14.4422 C   0  0  0  0  0  0  0  0  0  0  0  0
  -13.9241    0.7093  -15.3110 O   0  0  0  0  0  0  0  0  0  0  0  0
  -12.9726    1.6922  -14.9187 C   0  0  0  0  0  0  0  0  0  0  0  0
  -13.3915    2.4984  -13.9228 F   0  0  0  0  0  0  0  0  0  0  0  0
  -11.8552    1.0628  -14.4921 F   0  0  0  0  0  0  0  0  0  0  0  0
  -12.6537    2.4397  -15.9970 F   0  0  0  0  0  0  0  0  0  0  0  0
  7  8  2  0  0  0
  8  9  1  0  0  0
  8 10  1  0  0  0
  9 13  1  0  0  0
  9 11  1  0  0  0
 13 14  1  0  0  0
 13 18  2  0  0  0
 14 15  2  0  0  0
 15 16  1  0  0  0
 16 17  2  0  0  0
 17 18  1  0  0  0
 10  1  1  0  0  0
 10 12  1  0  0  0
  1  2  1  0  0  0
  1  6  2  0  0  0
  2  3  2  0  0  0
  3 19  1  0  0  0
  3  4  1  0  0  0
 19 20  1  0  0  0
 19 24  2  0  0  0
 20 21  2  0  0  0
 21 22  1  0  0  0
 22 23  2  0  0  0
 23 24  1  0  0  0
  4  5  2  0  0  0
  5  6  1  0  0  0
  6 25  1  0  0  0
 25 26  1  0  0  0
 26 27  1  0  0  0
 26 28  1  0  0  0
 26 29  1  0  0  0
M  END
> <minimizedAffinity>
-8.32828

$$$$
