CHEMBL365411


 30 32  0  0  0  0  0  0  0  0999 V2000
  -29.1211   -6.9570   -7.1303 C   0  0  0  0  0  0  0  0  0  0  0  0
  -29.9470   -6.8852   -6.0184 C   0  0  0  0  0  0  0  0  0  0  0  0
  -30.2320   -5.7297   -5.3740 N   0  0  0  0  0  0  0  0  0  0  0  0
  -29.6920   -4.5941   -5.8864 C   0  0  0  0  0  0  0  0  0  0  0  0
  -28.8844   -4.5358   -7.0262 C   0  0  0  0  0  0  0  0  0  0  0  0
  -28.5890   -5.7675   -7.6365 C   0  0  0  0  0  0  0  0  0  0  0  0
  -28.3872   -3.2576   -7.5519 C   0  0  0  0  0  0  0  0  0  0  0  0
  -27.9174   -2.2272   -6.7419 C   0  0  0  0  0  0  0  0  0  0  0  0
  -27.5113   -1.0299   -7.2209 N   0  0  0  0  0  0  0  0  0  0  0  0
  -27.5883   -0.9020   -8.5667 C   0  0  0  0  0  0  0  0  0  0  0  0
  -28.0095   -1.9229   -9.4197 C   0  0  0  0  0  0  0  0  0  0  0  0
  -28.4134   -3.1088   -8.9015 N   0  0  0  0  0  0  0  0  0  0  0  0
  -28.0937   -1.7022  -10.8120 N   0  0  0  0  0  0  0  0  0  0  0  0
  -28.7382   -0.9529  -11.0433 H   0  0  0  0  0  0  0  0  0  0  0  0
  -26.9906   -1.6691  -11.6979 C   0  0  0  0  0  0  0  0  0  0  0  0
  -27.1511   -1.6981  -13.0907 C   0  0  0  0  0  0  0  0  0  0  0  0
  -26.0456   -1.7151  -13.9423 C   0  0  0  0  0  0  0  0  0  0  0  0
  -24.7603   -1.7130  -13.4084 C   0  0  0  0  0  0  0  0  0  0  0  0
  -24.5901   -1.7075  -12.0251 C   0  0  0  0  0  0  0  0  0  0  0  0
  -23.0004   -1.7152  -11.3646 Cl  0  0  0  0  0  0  0  0  0  0  0  0
  -25.6942   -1.6999  -11.1711 C   0  0  0  0  0  0  0  0  0  0  0  0
  -27.6582   -8.8366   -7.6583 N   0  0  0  0  0  0  0  0  0  0  0  0
  -28.9069   -8.2646   -7.7841 C   0  0  0  0  0  0  0  0  0  0  0  0
  -29.8283   -8.7830   -8.4094 O   0  0  0  0  0  0  0  0  0  0  0  0
  -27.0282   -8.5373   -6.9229 H   0  0  0  0  0  0  0  0  0  0  0  0
  -27.3955  -10.1431   -8.2330 C   0  0  0  0  0  0  0  0  0  0  0  0
  -26.9544  -10.0651   -9.7050 C   0  0  0  0  0  0  0  0  0  0  0  0
  -28.2440  -12.1236   -9.8692 C   0  0  0  0  0  0  0  0  0  0  0  0
  -27.6451  -11.0100  -10.6130 N   0  0  0  0  0  0  0  0  0  0  0  0
  -28.7064  -10.2973  -11.3389 C   0  0  0  0  0  0  0  0  0  0  0  0
 28 29  1  0  0  0
 29 30  1  0  0  0
 29 27  1  0  0  0
 27 26  1  0  0  0
 26 22  1  0  0  0
 22 23  1  0  0  0
 22 25  1  0  0  0
 23 24  2  0  0  0
 23  1  1  0  0  0
  1  2  1  0  0  0
  1  6  2  0  0  0
  2  3  2  0  0  0
  3  4  1  0  0  0
  4  5  2  0  0  0
  5  7  1  0  0  0
  5  6  1  0  0  0
  7  8  1  0  0  0
  7 12  2  0  0  0
  8  9  2  0  0  0
  9 10  1  0  0  0
 10 11  2  0  0  0
 11 13  1  0  0  0
 11 12  1  0  0  0
 13 15  1  0  0  0
 13 14  1  0  0  0
 15 16  1  0  0  0
 15 21  2  0  0  0
 16 17  2  0  0  0
 17 18  1  0  0  0
 18 19  2  0  0  0
 19 20  1  0  0  0
 19 21  1  0  0  0
M  END
> <minimizedAffinity>
-8.35046

$$$$
