CHEMBL3961214


 33 36  0  0  0  0  0  0  0  0999 V2000
  -25.3813   -1.9276  -12.1193 C   0  0  0  0  0  0  0  0  0  0  0  0
  -24.0940   -1.9430  -11.5613 C   0  0  0  0  0  0  0  0  0  0  0  0
  -23.0137   -1.2815  -12.1612 C   0  0  0  0  0  0  0  0  0  0  0  0
  -23.1766   -0.6232  -13.3746 C   0  0  0  0  0  0  0  0  0  0  0  0
  -24.4284   -0.6856  -13.9999 C   0  0  0  0  0  0  0  0  0  0  0  0
  -25.5235   -1.3396  -13.3811 C   0  0  0  0  0  0  0  0  0  0  0  0
  -27.8767   -2.7555   -9.5185 N   0  0  0  0  0  0  0  0  0  0  0  0
  -26.7882   -2.1088  -10.0969 C   0  0  0  0  0  0  0  0  0  0  0  0
  -26.1071   -1.2776   -9.5051 O   0  0  0  0  0  0  0  0  0  0  0  0
  -26.5218   -2.4561  -11.4204 N   0  0  0  0  0  0  0  0  0  0  0  0
  -28.4156   -3.3964  -10.0815 H   0  0  0  0  0  0  0  0  0  0  0  0
  -27.2982   -2.7745  -11.9814 H   0  0  0  0  0  0  0  0  0  0  0  0
  -27.9612    0.0301   -5.3393 C   0  0  0  0  0  0  0  0  0  0  0  0
  -28.3389   -1.2029   -6.1109 C   0  0  0  0  0  0  0  0  0  0  0  0
  -29.1101   -2.1780   -5.4685 C   0  0  0  0  0  0  0  0  0  0  0  0
  -29.4790   -3.3238   -6.1487 C   0  0  0  0  0  0  0  0  0  0  0  0
  -29.0794   -3.5048   -7.4712 C   0  0  0  0  0  0  0  0  0  0  0  0
  -28.2983   -2.5641   -8.1569 C   0  0  0  0  0  0  0  0  0  0  0  0
  -27.9370   -1.3979   -7.4569 C   0  0  0  0  0  0  0  0  0  0  0  0
  -22.0602    0.0970  -13.9403 C   0  0  0  0  0  0  0  0  0  0  0  0
  -21.1509    0.7444  -14.3938 C   0  0  0  0  0  0  0  0  0  0  0  0
  -20.0008    1.5025  -14.8582 C   0  0  0  0  0  0  0  0  0  0  0  0
  -20.1364    2.9536  -15.1344 C   0  0  0  0  0  0  0  0  0  0  0  0
  -19.0447    3.6036  -15.5535 C   0  0  0  0  0  0  0  0  0  0  0  0
  -17.8380    2.8916  -15.7171 C   0  0  0  0  0  0  0  0  0  0  0  0
  -16.6472    3.2945  -16.1088 N   0  0  0  0  0  0  0  0  0  0  0  0
  -15.8846    2.1731  -16.0839 C   0  0  0  0  0  0  0  0  0  0  0  0
  -14.6041    2.2325  -16.4361 N   0  0  0  0  0  0  0  0  0  0  0  0
  -16.5867    1.0705  -15.6746 C   0  0  0  0  0  0  0  0  0  0  0  0
  -17.8567    1.5312  -15.4317 N   0  0  0  0  0  0  0  0  0  0  0  0
  -18.9285    0.7846  -14.9911 N   0  0  0  0  0  0  0  0  0  0  0  0
  -14.1895    3.1307  -16.6609 H   0  0  0  0  0  0  0  0  0  0  0  0
  -13.9615    1.4537  -16.3769 H   0  0  0  0  0  0  0  0  0  0  0  0
 13 14  1  0  0  0
 14 15  1  0  0  0
 14 19  2  0  0  0
 15 16  2  0  0  0
 16 17  1  0  0  0
 17 18  2  0  0  0
 18  7  1  0  0  0
 18 19  1  0  0  0
  7  8  1  0  0  0
  7 11  1  0  0  0
  8  9  2  0  0  0
  8 10  1  0  0  0
 10  1  1  0  0  0
 10 12  1  0  0  0
  1  2  1  0  0  0
  1  6  2  0  0  0
  2  3  2  0  0  0
  3  4  1  0  0  0
  4 20  1  0  0  0
  4  5  2  0  0  0
 20 21  3  0  0  0
 21 22  1  0  0  0
 22 23  1  0  0  0
 22 31  2  0  0  0
 23 24  2  0  0  0
 24 25  1  0  0  0
 25 26  2  0  0  0
 25 30  1  0  0  0
 26 27  1  0  0  0
 27 28  1  0  0  0
 27 29  2  0  0  0
 28 32  1  0  0  0
 28 33  1  0  0  0
 29 30  1  0  0  0
 30 31  1  0  0  0
  5  6  1  0  0  0
M  END
> <minimizedAffinity>
-12.32189

$$$$
