CHEMBL3920945


 46 50  0  0  0  0  0  0  0  0999 V2000
  -13.8272   -3.9763  -14.2846 N   0  0  0  0  0  0  0  0  0  0  0  0
  -13.5732   -4.4470  -15.5608 C   0  0  0  0  0  0  0  0  0  0  0  0
  -13.3942   -3.7246  -16.5345 O   0  0  0  0  0  0  0  0  0  0  0  0
  -13.5520   -5.8453  -15.6483 N   0  0  0  0  0  0  0  0  0  0  0  0
  -13.4018   -4.5029  -13.5364 H   0  0  0  0  0  0  0  0  0  0  0  0
  -14.2696   -6.3100  -15.1087 H   0  0  0  0  0  0  0  0  0  0  0  0
  -16.0315   -3.4159  -12.3229 C   0  0  0  0  0  0  0  0  0  0  0  0
  -15.3410   -2.3708  -13.1545 C   0  0  0  0  0  0  0  0  0  0  0  0
  -15.7804   -1.0332  -12.9944 C   0  0  0  0  0  0  0  0  0  0  0  0
  -15.1269    0.0340  -13.6198 C   0  0  0  0  0  0  0  0  0  0  0  0
  -14.0473   -0.2338  -14.4483 C   0  0  0  0  0  0  0  0  0  0  0  0
  -13.6220   -1.5536  -14.6403 C   0  0  0  0  0  0  0  0  0  0  0  0
  -14.2461   -2.6401  -14.0040 C   0  0  0  0  0  0  0  0  0  0  0  0
  -15.5446    1.3449  -13.5432 O   0  0  0  0  0  0  0  0  0  0  0  0
  -16.6318    1.7393  -14.3139 C   0  0  0  0  0  0  0  0  0  0  0  0
  -17.8694    1.2525  -13.9405 C   0  0  0  0  0  0  0  0  0  0  0  0
  -18.9371    1.6831  -14.7001 C   0  0  0  0  0  0  0  0  0  0  0  0
  -18.7732    2.4957  -15.7515 N   0  0  0  0  0  0  0  0  0  0  0  0
  -17.5334    2.8781  -16.0446 C   0  0  0  0  0  0  0  0  0  0  0  0
  -16.4341    2.5323  -15.3803 N   0  0  0  0  0  0  0  0  0  0  0  0
  -20.2280    1.2433  -14.3585 N   0  0  0  0  0  0  0  0  0  0  0  0
  -21.3034    2.0882  -14.1759 C   0  0  0  0  0  0  0  0  0  0  0  0
  -21.3014    3.3103  -14.1834 O   0  0  0  0  0  0  0  0  0  0  0  0
  -20.3681    0.2551  -14.2145 H   0  0  0  0  0  0  0  0  0  0  0  0
  -22.5826    1.3652  -13.8866 C   0  0  0  0  0  0  0  0  0  0  0  0
  -22.6135    0.2648  -12.8471 C   0  0  0  0  0  0  0  0  0  0  0  0
  -22.7269   -0.0812  -14.3018 C   0  0  0  0  0  0  0  0  0  0  0  0
  -13.1103   -6.4780  -16.8472 C   0  0  0  0  0  0  0  0  0  0  0  0
  -12.1706   -7.5025  -16.8733 C   0  0  0  0  0  0  0  0  0  0  0  0
  -11.8329   -8.1478  -18.0984 C   0  0  0  0  0  0  0  0  0  0  0  0
  -12.3837   -7.7899  -19.3374 C   0  0  0  0  0  0  0  0  0  0  0  0
  -13.2623   -6.6778  -19.2925 C   0  0  0  0  0  0  0  0  0  0  0  0
  -13.6173   -6.0574  -18.0665 C   0  0  0  0  0  0  0  0  0  0  0  0
  -13.8959   -6.0247  -20.4968 C   0  0  0  0  0  0  0  0  0  0  0  0
  -14.1040   -6.8569  -21.5562 F   0  0  0  0  0  0  0  0  0  0  0  0
  -15.1123   -5.4723  -20.2220 F   0  0  0  0  0  0  0  0  0  0  0  0
  -13.1329   -4.9994  -20.9783 F   0  0  0  0  0  0  0  0  0  0  0  0
  -12.0976   -8.3945  -20.5402 N   0  0  0  0  0  0  0  0  0  0  0  0
  -11.8504   -7.7132  -21.2583 H   0  0  0  0  0  0  0  0  0  0  0  0
  -12.2269   -9.7190  -21.1957 C   0  0  0  0  0  0  0  0  0  0  0  0
  -13.6172  -10.2176  -21.5441 C   0  0  0  0  0  0  0  0  0  0  0  0
  -14.2778  -11.0206  -20.4354 C   0  0  0  0  0  0  0  0  0  0  0  0
  -13.4261  -12.0289  -19.7952 N   0  0  0  0  0  0  0  0  0  0  0  0
  -14.0444  -12.4659  -18.5340 C   0  0  0  0  0  0  0  0  0  0  0  0
  -12.0350  -11.6355  -19.5396 C   0  0  0  0  0  0  0  0  0  0  0  0
  -11.3611  -10.8426  -20.6489 C   0  0  0  0  0  0  0  0  0  0  0  0
  7  8  1  0  0  0
  8  9  1  0  0  0
  8 13  2  0  0  0
  9 10  2  0  0  0
 10 14  1  0  0  0
 10 11  1  0  0  0
 14 15  1  0  0  0
 15 16  1  0  0  0
 15 20  2  0  0  0
 16 17  2  0  0  0
 17 21  1  0  0  0
 17 18  1  0  0  0
 21 22  1  0  0  0
 21 24  1  0  0  0
 22 23  2  0  0  0
 22 25  1  0  0  0
 25 26  1  0  0  0
 25 27  1  0  0  0
 26 27  1  0  0  0
 18 19  2  0  0  0
 19 20  1  0  0  0
 11 12  2  0  0  0
 12 13  1  0  0  0
 13  1  1  0  0  0
  1  2  1  0  0  0
  1  5  1  0  0  0
  2  3  2  0  0  0
  2  4  1  0  0  0
  4 28  1  0  0  0
  4  6  1  0  0  0
 28 29  1  0  0  0
 28 33  2  0  0  0
 29 30  2  0  0  0
 30 31  1  0  0  0
 31 38  1  0  0  0
 31 32  2  0  0  0
 38 40  1  0  0  0
 38 39  1  0  0  0
 40 41  1  0  0  0
 40 46  1  0  0  0
 41 42  1  0  0  0
 42 43  1  0  0  0
 43 44  1  0  0  0
 43 45  1  0  0  0
 45 46  1  0  0  0
 32 34  1  0  0  0
 32 33  1  0  0  0
 34 35  1  0  0  0
 34 36  1  0  0  0
 34 37  1  0  0  0
M  END
> <minimizedAffinity>
-8.10665

$$$$
