CHEMBL1079946


 39 43  0  0  0  0  0  0  0  0999 V2000
  -12.4256   -4.5804  -14.1421 N   0  0  0  0  0  0  0  0  0  0  0  0
  -11.6730   -4.9838  -13.5840 H   0  0  0  0  0  0  0  0  0  0  0  0
  -12.6796   -5.2035  -15.3324 C   0  0  0  0  0  0  0  0  0  0  0  0
  -12.4613   -4.7333  -16.5421 N   0  0  0  0  0  0  0  0  0  0  0  0
  -12.7808   -5.7229  -17.4158 C   0  0  0  0  0  0  0  0  0  0  0  0
  -12.7007   -5.7000  -18.8164 C   0  0  0  0  0  0  0  0  0  0  0  0
  -13.0770   -6.8343  -19.5368 C   0  0  0  0  0  0  0  0  0  0  0  0
  -13.5705   -7.9541  -18.8745 C   0  0  0  0  0  0  0  0  0  0  0  0
  -13.6892   -7.9790  -17.4781 C   0  0  0  0  0  0  0  0  0  0  0  0
  -13.2364   -6.8584  -16.7540 C   0  0  0  0  0  0  0  0  0  0  0  0
  -13.1550   -6.5243  -15.3989 N   0  0  0  0  0  0  0  0  0  0  0  0
  -13.4674   -7.3529  -14.2762 C   0  0  0  0  0  0  0  0  0  0  0  0
  -12.6421   -8.4124  -13.9569 C   0  0  0  0  0  0  0  0  0  0  0  0
  -12.9822   -9.1552  -12.8494 C   0  0  0  0  0  0  0  0  0  0  0  0
  -12.1739  -10.2182  -12.4504 N   0  0  0  0  0  0  0  0  0  0  0  0
  -14.0856   -8.9252  -12.1349 N   0  0  0  0  0  0  0  0  0  0  0  0
  -14.8266   -7.8765  -12.5155 C   0  0  0  0  0  0  0  0  0  0  0  0
  -14.5515   -7.0376  -13.5274 N   0  0  0  0  0  0  0  0  0  0  0  0
  -11.2049   -9.9407  -12.3361 H   0  0  0  0  0  0  0  0  0  0  0  0
  -12.5583  -10.5966  -11.5879 H   0  0  0  0  0  0  0  0  0  0  0  0
  -12.5672   -5.0026  -11.2139 C   0  0  0  0  0  0  0  0  0  0  0  0
  -13.5310   -4.1478  -11.9901 C   0  0  0  0  0  0  0  0  0  0  0  0
  -14.6228   -3.6015  -11.2971 C   0  0  0  0  0  0  0  0  0  0  0  0
  -15.4589   -2.6606  -11.8947 C   0  0  0  0  0  0  0  0  0  0  0  0
  -15.1891   -2.2034  -13.1767 C   0  0  0  0  0  0  0  0  0  0  0  0
  -14.1544   -2.8159  -13.8978 C   0  0  0  0  0  0  0  0  0  0  0  0
  -13.3671   -3.8561  -13.3606 C   0  0  0  0  0  0  0  0  0  0  0  0
  -15.8988   -1.1527  -13.8031 N   0  0  0  0  0  0  0  0  0  0  0  0
  -15.8176    0.1904  -13.4867 C   0  0  0  0  0  0  0  0  0  0  0  0
  -15.1681    0.6994  -12.5830 O   0  0  0  0  0  0  0  0  0  0  0  0
  -16.5181   -1.4358  -14.5509 H   0  0  0  0  0  0  0  0  0  0  0  0
  -16.6270    1.1168  -14.3196 C   0  0  0  0  0  0  0  0  0  0  0  0
  -15.9356    1.9770  -15.1906 C   0  0  0  0  0  0  0  0  0  0  0  0
  -16.6417    2.8476  -16.0175 C   0  0  0  0  0  0  0  0  0  0  0  0
  -15.7868    3.9046  -17.0718 Cl  0  0  0  0  0  0  0  0  0  0  0  0
  -18.0333    2.8650  -15.9994 C   0  0  0  0  0  0  0  0  0  0  0  0
  -18.7167    1.9961  -15.1503 C   0  0  0  0  0  0  0  0  0  0  0  0
  -20.4384    1.9928  -15.1534 Cl  0  0  0  0  0  0  0  0  0  0  0  0
  -18.0255    1.1220  -14.3064 C   0  0  0  0  0  0  0  0  0  0  0  0
 21 22  1  0  0  0
 22 23  1  0  0  0
 22 27  2  0  0  0
 23 24  2  0  0  0
 24 25  1  0  0  0
 25 28  1  0  0  0
 25 26  2  0  0  0
 28 29  1  0  0  0
 28 31  1  0  0  0
 29 30  2  0  0  0
 29 32  1  0  0  0
 32 33  1  0  0  0
 32 39  2  0  0  0
 33 34  2  0  0  0
 34 35  1  0  0  0
 34 36  1  0  0  0
 36 37  2  0  0  0
 37 38  1  0  0  0
 37 39  1  0  0  0
 26 27  1  0  0  0
 27  1  1  0  0  0
  1  3  1  0  0  0
  1  2  1  0  0  0
  3  4  2  0  0  0
  3 11  1  0  0  0
  4  5  1  0  0  0
  5  6  1  0  0  0
  5 10  2  0  0  0
  6  7  2  0  0  0
  7  8  1  0  0  0
  8  9  2  0  0  0
  9 10  1  0  0  0
 10 11  1  0  0  0
 11 12  1  0  0  0
 12 13  1  0  0  0
 12 18  2  0  0  0
 13 14  2  0  0  0
 14 15  1  0  0  0
 14 16  1  0  0  0
 15 19  1  0  0  0
 15 20  1  0  0  0
 16 17  2  0  0  0
 17 18  1  0  0  0
M  END
> <minimizedAffinity>
-9.10134

$$$$
