CHEMBL3899410


 31 34  0  0  0  0  0  0  0  0999 V2000
  -29.5567   -6.1453   -4.9493 C   0  0  0  0  0  0  0  0  0  0  0  0
  -28.8968   -7.3786   -4.9795 C   0  0  0  0  0  0  0  0  0  0  0  0
  -28.5290   -7.9813   -6.2068 C   0  0  0  0  0  0  0  0  0  0  0  0
  -28.0005   -9.2675   -6.3512 C   0  0  0  0  0  0  0  0  0  0  0  0
  -27.6459   -9.7673   -7.5531 N   0  0  0  0  0  0  0  0  0  0  0  0
  -27.8242   -8.9840   -8.6152 C   0  0  0  0  0  0  0  0  0  0  0  0
  -28.3324   -7.7526   -8.5953 N   0  0  0  0  0  0  0  0  0  0  0  0
  -28.6852   -7.2761   -7.3987 C   0  0  0  0  0  0  0  0  0  0  0  0
  -29.2584   -6.0225   -7.3500 C   0  0  0  0  0  0  0  0  0  0  0  0
  -29.7731   -5.4709   -6.1627 C   0  0  0  0  0  0  0  0  0  0  0  0
  -31.4191   -5.7451   -3.5003 C   0  0  0  0  0  0  0  0  0  0  0  0
  -30.0337   -5.5718   -3.7989 O   0  0  0  0  0  0  0  0  0  0  0  0
  -27.8651  -10.1035   -5.2091 N   0  0  0  0  0  0  0  0  0  0  0  0
  -28.3286  -10.9909   -5.3903 H   0  0  0  0  0  0  0  0  0  0  0  0
  -26.6342  -10.2443   -4.5359 C   0  0  0  0  0  0  0  0  0  0  0  0
  -25.4944   -9.6187   -5.0576 C   0  0  0  0  0  0  0  0  0  0  0  0
  -24.2345   -9.8552   -4.5074 C   0  0  0  0  0  0  0  0  0  0  0  0
  -24.1012  -10.7099   -3.4168 C   0  0  0  0  0  0  0  0  0  0  0  0
  -22.5003  -11.0219   -2.8560 Cl  0  0  0  0  0  0  0  0  0  0  0  0
  -25.2407  -11.2901   -2.8512 C   0  0  0  0  0  0  0  0  0  0  0  0
  -25.1459  -12.4552   -1.3513 Br  0  0  0  0  0  0  0  0  0  0  0  0
  -26.5081  -11.0505   -3.3992 C   0  0  0  0  0  0  0  0  0  0  0  0
  -30.5125   -4.2954   -6.1674 O   0  0  0  0  0  0  0  0  0  0  0  0
  -29.6866   -3.1249   -6.3010 C   0  0  0  0  0  0  0  0  0  0  0  0
  -29.6338   -2.2024   -5.0761 C   0  0  0  0  0  0  0  0  0  0  0  0
  -29.8336   -0.7164   -5.4093 C   0  0  0  0  0  0  0  0  0  0  0  0
  -28.7237   -0.1972   -6.2340 N   0  0  0  0  0  0  0  0  0  0  0  0
  -28.9374    1.2127   -6.5448 C   0  0  0  0  0  0  0  0  0  0  0  0
  -27.4525   -0.3968   -5.5115 C   0  0  0  0  0  0  0  0  0  0  0  0
  -27.2522   -1.8625   -5.0897 C   0  0  0  0  0  0  0  0  0  0  0  0
  -28.3808   -2.3838   -4.3632 O   0  0  0  0  0  0  0  0  0  0  0  0
 11 12  1  0  0  0
 12  1  1  0  0  0
  1  2  1  0  0  0
  1 10  2  0  0  0
  2  3  2  0  0  0
  3  4  1  0  0  0
  3  8  1  0  0  0
  4 13  1  0  0  0
  4  5  2  0  0  0
 13 15  1  0  0  0
 13 14  1  0  0  0
 15 16  1  0  0  0
 15 22  2  0  0  0
 16 17  2  0  0  0
 17 18  1  0  0  0
 18 19  1  0  0  0
 18 20  2  0  0  0
 20 21  1  0  0  0
 20 22  1  0  0  0
  5  6  1  0  0  0
  6  7  2  0  0  0
  7  8  1  0  0  0
  8  9  2  0  0  0
  9 10  1  0  0  0
 10 23  1  0  0  0
 23 24  1  0  0  0
 24 25  1  0  0  0
 25 26  1  0  0  0
 25 31  1  0  0  0
 26 27  1  0  0  0
 27 28  1  0  0  0
 27 29  1  0  0  0
 29 30  1  0  0  0
 30 31  1  0  0  0
M  END
> <minimizedAffinity>
-7.99650

$$$$
