CHEMBL3696074


 44 47  0  0  0  0  0  0  0  0999 V2000
  -21.7802    0.2964  -14.2739 C   0  0  0  0  0  0  0  0  0  0  0  0
  -20.9810   -0.6815  -14.7235 N   0  0  0  0  0  0  0  0  0  0  0  0
  -19.6887   -0.0441  -15.5123 S   0  0  0  0  0  0  0  0  0  0  0  0
  -20.1368    1.5781  -15.2868 C   0  0  0  0  0  0  0  0  0  0  0  0
  -21.3015    1.6476  -14.5400 C   0  0  0  0  0  0  0  0  0  0  0  0
  -25.5005   -0.8544  -12.4624 C   0  0  0  0  0  0  0  0  0  0  0  0
  -25.2005   -1.2070  -13.7810 C   0  0  0  0  0  0  0  0  0  0  0  0
  -23.9757   -0.8558  -14.3480 C   0  0  0  0  0  0  0  0  0  0  0  0
  -23.0270   -0.1302  -13.6137 C   0  0  0  0  0  0  0  0  0  0  0  0
  -23.3436    0.2420  -12.2988 C   0  0  0  0  0  0  0  0  0  0  0  0
  -24.5796   -0.1065  -11.7297 C   0  0  0  0  0  0  0  0  0  0  0  0
  -27.9295   -2.0538  -10.0416 N   0  0  0  0  0  0  0  0  0  0  0  0
  -26.6829   -1.6690  -10.5132 C   0  0  0  0  0  0  0  0  0  0  0  0
  -25.6638   -1.6147   -9.8348 O   0  0  0  0  0  0  0  0  0  0  0  0
  -26.7045   -1.2845  -11.8505 N   0  0  0  0  0  0  0  0  0  0  0  0
  -28.6386   -2.2740  -10.7329 H   0  0  0  0  0  0  0  0  0  0  0  0
  -27.5549   -0.8312  -12.1482 H   0  0  0  0  0  0  0  0  0  0  0  0
  -27.6943   -0.7359   -5.2612 C   0  0  0  0  0  0  0  0  0  0  0  0
  -28.1070   -1.7024   -6.3319 C   0  0  0  0  0  0  0  0  0  0  0  0
  -28.7666   -2.8826   -5.9756 C   0  0  0  0  0  0  0  0  0  0  0  0
  -29.1547   -3.7863   -6.9531 C   0  0  0  0  0  0  0  0  0  0  0  0
  -28.8841   -3.5190   -8.2936 C   0  0  0  0  0  0  0  0  0  0  0  0
  -28.2338   -2.3459   -8.6892 C   0  0  0  0  0  0  0  0  0  0  0  0
  -27.8451   -1.4379   -7.6924 C   0  0  0  0  0  0  0  0  0  0  0  0
  -19.3711    2.5765  -15.8755 N   0  0  0  0  0  0  0  0  0  0  0  0
  -18.1034    2.8005  -15.3779 C   0  0  0  0  0  0  0  0  0  0  0  0
  -17.6629    2.3146  -14.3421 O   0  0  0  0  0  0  0  0  0  0  0  0
  -17.3574    3.6331  -16.1804 N   0  0  0  0  0  0  0  0  0  0  0  0
  -19.8784    3.4188  -16.1273 H   0  0  0  0  0  0  0  0  0  0  0  0
  -17.8347    4.1568  -16.9005 H   0  0  0  0  0  0  0  0  0  0  0  0
  -16.0107    4.0203  -15.8025 C   0  0  0  0  0  0  0  0  0  0  0  0
  -14.9262    3.1081  -16.3905 C   0  0  0  0  0  0  0  0  0  0  0  0
  -13.6138    3.2384  -15.6069 C   0  0  0  0  0  0  0  0  0  0  0  0
  -12.9550    1.9480  -15.3281 N   0  0  0  0  0  0  0  0  0  0  0  0
  -13.8981    0.8716  -14.9343 C   0  0  0  0  0  0  0  0  0  0  0  0
  -14.5319    1.0813  -13.5494 C   0  0  0  0  0  0  0  0  0  0  0  0
  -13.5239    1.1905  -12.5346 O   0  0  0  0  0  0  0  0  0  0  0  0
  -12.6072    2.2506  -12.8328 C   0  0  0  0  0  0  0  0  0  0  0  0
  -11.9705    2.0833  -14.2263 C   0  0  0  0  0  0  0  0  0  0  0  0
  -21.8416    2.9239  -14.1123 C   0  0  0  0  0  0  0  0  0  0  0  0
  -23.1821    2.9663  -13.8587 N   0  0  0  0  0  0  0  0  0  0  0  0
  -21.1362    3.9075  -13.9038 O   0  0  0  0  0  0  0  0  0  0  0  0
  -23.7527    2.1311  -13.8109 H   0  0  0  0  0  0  0  0  0  0  0  0
  -23.5551    3.8133  -13.4516 H   0  0  0  0  0  0  0  0  0  0  0  0
 18 19  1  0  0  0
 19 20  1  0  0  0
 19 24  2  0  0  0
 20 21  2  0  0  0
 21 22  1  0  0  0
 22 23  2  0  0  0
 23 12  1  0  0  0
 23 24  1  0  0  0
 12 13  1  0  0  0
 12 16  1  0  0  0
 13 14  2  0  0  0
 13 15  1  0  0  0
 15  6  1  0  0  0
 15 17  1  0  0  0
  6  7  1  0  0  0
  6 11  2  0  0  0
  7  8  2  0  0  0
  8  9  1  0  0  0
  9  1  1  0  0  0
  9 10  2  0  0  0
  1  2  2  0  0  0
  1  5  1  0  0  0
  2  3  1  0  0  0
  3  4  1  0  0  0
  4 25  1  0  0  0
  4  5  2  0  0  0
 25 26  1  0  0  0
 25 29  1  0  0  0
 26 27  2  0  0  0
 26 28  1  0  0  0
 28 31  1  0  0  0
 28 30  1  0  0  0
 31 32  1  0  0  0
 32 33  1  0  0  0
 33 34  1  0  0  0
 34 35  1  0  0  0
 34 39  1  0  0  0
 35 36  1  0  0  0
 36 37  1  0  0  0
 37 38  1  0  0  0
 38 39  1  0  0  0
  5 40  1  0  0  0
 40 41  1  0  0  0
 40 42  2  0  0  0
 41 43  1  0  0  0
 41 44  1  0  0  0
 10 11  1  0  0  0
M  END
> <minimizedAffinity>
-9.58193

$$$$
