CHEMBL2204533


 42 46  0  0  0  0  0  0  0  0999 V2000
  -27.8236   -2.7620   -8.6219 C   0  0  0  0  0  0  0  0  0  0  0  0
  -28.5420   -3.9430   -8.3823 C   0  0  0  0  0  0  0  0  0  0  0  0
  -29.1807   -4.1758   -7.1625 C   0  0  0  0  0  0  0  0  0  0  0  0
  -29.0456   -3.2171   -6.1492 C   0  0  0  0  0  0  0  0  0  0  0  0
  -28.3637   -2.0204   -6.3665 C   0  0  0  0  0  0  0  0  0  0  0  0
  -27.7511   -1.8036   -7.5963 C   0  0  0  0  0  0  0  0  0  0  0  0
  -27.1069   -0.6432   -7.7975 F   0  0  0  0  0  0  0  0  0  0  0  0
  -27.5780   -1.5513  -10.7906 C   0  0  0  0  0  0  0  0  0  0  0  0
  -28.5126   -0.7825  -10.6591 O   0  0  0  0  0  0  0  0  0  0  0  0
  -27.1683   -2.5103   -9.8549 N   0  0  0  0  0  0  0  0  0  0  0  0
  -26.2770   -2.9790   -9.9710 H   0  0  0  0  0  0  0  0  0  0  0  0
  -24.7698   -1.2931  -13.3102 C   0  0  0  0  0  0  0  0  0  0  0  0
  -25.4364   -1.6691  -14.4847 C   0  0  0  0  0  0  0  0  0  0  0  0
  -26.8180   -1.8830  -14.4663 C   0  0  0  0  0  0  0  0  0  0  0  0
  -27.4995   -1.8613  -13.2500 C   0  0  0  0  0  0  0  0  0  0  0  0
  -26.8391   -1.4701  -12.0826 C   0  0  0  0  0  0  0  0  0  0  0  0
  -25.5388   -0.9949  -12.1785 C   0  0  0  0  0  0  0  0  0  0  0  0
  -25.0139    0.1542  -10.9967 Cl  0  0  0  0  0  0  0  0  0  0  0  0
  -23.3984   -1.2566  -13.3693 O   0  0  0  0  0  0  0  0  0  0  0  0
  -23.6556    1.2564  -13.6694 C   0  0  0  0  0  0  0  0  0  0  0  0
  -22.7195    0.0435  -13.4534 C   0  0  0  0  0  0  0  0  0  0  0  0
  -22.0206    0.2523  -12.0939 C   0  0  0  0  0  0  0  0  0  0  0  0
  -21.6187    0.0390  -14.4391 C   0  0  0  0  0  0  0  0  0  0  0  0
  -20.7367    0.1094  -15.2018 N   0  0  0  0  0  0  0  0  0  0  0  0
  -29.9219   -5.3691   -6.9698 N   0  0  0  0  0  0  0  0  0  0  0  0
  -30.2624   -5.7763   -7.8356 H   0  0  0  0  0  0  0  0  0  0  0  0
  -29.5965   -6.4069   -6.0570 C   0  0  0  0  0  0  0  0  0  0  0  0
  -30.0822   -6.2903   -4.7485 C   0  0  0  0  0  0  0  0  0  0  0  0
  -29.6533   -7.1563   -3.7579 C   0  0  0  0  0  0  0  0  0  0  0  0
  -28.8017   -8.1881   -4.1402 C   0  0  0  0  0  0  0  0  0  0  0  0
  -28.2535   -9.1256   -3.3067 N   0  0  0  0  0  0  0  0  0  0  0  0
  -27.5461   -9.9727   -4.0027 C   0  0  0  0  0  0  0  0  0  0  0  0
  -27.4871   -9.6977   -5.6957 S   0  0  0  0  0  0  0  0  0  0  0  0
  -28.4613   -8.2908   -5.4859 C   0  0  0  0  0  0  0  0  0  0  0  0
  -28.8184   -7.4372   -6.4808 N   0  0  0  0  0  0  0  0  0  0  0  0
  -26.8657  -11.0607   -3.5078 N   0  0  0  0  0  0  0  0  0  0  0  0
  -25.5547  -10.9185   -3.0917 C   0  0  0  0  0  0  0  0  0  0  0  0
  -24.8679   -9.9090   -3.1772 O   0  0  0  0  0  0  0  0  0  0  0  0
  -27.3265  -11.9542   -3.5038 H   0  0  0  0  0  0  0  0  0  0  0  0
  -24.8765  -12.1276   -2.5329 C   0  0  0  0  0  0  0  0  0  0  0  0
  -25.0157  -12.4573   -1.0644 C   0  0  0  0  0  0  0  0  0  0  0  0
  -23.6633  -12.1560   -1.6435 C   0  0  0  0  0  0  0  0  0  0  0  0
 20 21  1  0  0  0
 21 22  1  0  0  0
 21 23  1  0  0  0
 21 19  1  0  0  0
 23 24  3  0  0  0
 19 12  1  0  0  0
 12 13  1  0  0  0
 12 17  2  0  0  0
 13 14  2  0  0  0
 14 15  1  0  0  0
 15 16  2  0  0  0
 16  8  1  0  0  0
 16 17  1  0  0  0
  8  9  2  0  0  0
  8 10  1  0  0  0
 10  1  1  0  0  0
 10 11  1  0  0  0
  1  2  1  0  0  0
  1  6  2  0  0  0
  2  3  2  0  0  0
  3 25  1  0  0  0
  3  4  1  0  0  0
 25 27  1  0  0  0
 25 26  1  0  0  0
 27 28  1  0  0  0
 27 35  2  0  0  0
 28 29  2  0  0  0
 29 30  1  0  0  0
 30 31  1  0  0  0
 30 34  2  0  0  0
 31 32  2  0  0  0
 32 36  1  0  0  0
 32 33  1  0  0  0
 36 37  1  0  0  0
 36 39  1  0  0  0
 37 38  2  0  0  0
 37 40  1  0  0  0
 40 41  1  0  0  0
 40 42  1  0  0  0
 41 42  1  0  0  0
 33 34  1  0  0  0
 34 35  1  0  0  0
  4  5  2  0  0  0
  5  6  1  0  0  0
  6  7  1  0  0  0
 17 18  1  0  0  0
M  END
> <minimizedAffinity>
-9.11029

$$$$
