CHEMBL3966626


 31 34  0  0  0  0  0  0  0  0999 V2000
  -29.2084   -8.2583   -6.4908 C   0  0  0  0  0  0  0  0  0  0  0  0
  -29.1604   -8.4591   -5.1020 C   0  0  0  0  0  0  0  0  0  0  0  0
  -29.3042   -7.4399   -4.2218 C   0  0  0  0  0  0  0  0  0  0  0  0
  -29.4584   -6.1643   -4.6772 C   0  0  0  0  0  0  0  0  0  0  0  0
  -29.7770   -5.2561   -3.7431 N   0  0  0  0  0  0  0  0  0  0  0  0
  -29.8534   -3.9687   -4.0323 C   0  0  0  0  0  0  0  0  0  0  0  0
  -29.4514   -3.5076   -5.2877 C   0  0  0  0  0  0  0  0  0  0  0  0
  -29.2488   -4.4428   -6.3098 N   0  0  0  0  0  0  0  0  0  0  0  0
  -29.2946   -5.8039   -6.0208 C   0  0  0  0  0  0  0  0  0  0  0  0
  -29.2000   -6.8931   -6.9779 C   0  0  0  0  0  0  0  0  0  0  0  0
  -28.9825   -2.0570   -5.2696 C   0  0  0  0  0  0  0  0  0  0  0  0
  -27.6410   -1.6963   -5.0349 C   0  0  0  0  0  0  0  0  0  0  0  0
  -27.4520   -0.4041   -5.3178 N   0  0  0  0  0  0  0  0  0  0  0  0
  -28.6132    0.0929   -5.7008 N   0  0  0  0  0  0  0  0  0  0  0  0
  -28.7064    1.4465   -6.2112 C   0  0  0  0  0  0  0  0  0  0  0  0
  -29.5848   -0.8625   -5.6487 C   0  0  0  0  0  0  0  0  0  0  0  0
  -29.4356   -9.4447   -7.2834 N   0  0  0  0  0  0  0  0  0  0  0  0
  -28.4469  -10.2653  -10.7959 C   0  0  0  0  0  0  0  0  0  0  0  0
  -27.1257  -10.6944  -10.6262 C   0  0  0  0  0  0  0  0  0  0  0  0
  -26.5658  -10.7475   -9.3531 C   0  0  0  0  0  0  0  0  0  0  0  0
  -27.2967  -10.3336   -8.2180 C   0  0  0  0  0  0  0  0  0  0  0  0
  -28.6221   -9.8598   -8.3911 C   0  0  0  0  0  0  0  0  0  0  0  0
  -29.1832   -9.8805   -9.6812 C   0  0  0  0  0  0  0  0  0  0  0  0
  -28.3961   -9.8618  -13.1873 C   0  0  0  0  0  0  0  0  0  0  0  0
  -29.0403  -10.1847  -12.0124 O   0  0  0  0  0  0  0  0  0  0  0  0
  -26.7690  -10.4542   -6.9685 O   0  0  0  0  0  0  0  0  0  0  0  0
  -25.4128  -10.5429   -6.6981 C   0  0  0  0  0  0  0  0  0  0  0  0
  -30.7011  -10.1757   -7.0340 C   0  0  0  0  0  0  0  0  0  0  0  0
  -31.9474   -9.3362   -7.4042 C   0  0  0  0  0  0  0  0  0  0  0  0
  -32.5201   -9.7710   -8.6048 O   0  0  0  0  0  0  0  0  0  0  0  0
  -32.0106   -9.3449   -9.3408 H   0  0  0  0  0  0  0  0  0  0  0  0
 24 25  1  0  0  0
 25 18  1  0  0  0
 18 19  1  0  0  0
 18 23  2  0  0  0
 19 20  2  0  0  0
 20 21  1  0  0  0
 21 26  1  0  0  0
 21 22  2  0  0  0
 26 27  1  0  0  0
 22 17  1  0  0  0
 22 23  1  0  0  0
 17 28  1  0  0  0
 17  1  1  0  0  0
 28 29  1  0  0  0
 29 30  1  0  0  0
 30 31  1  0  0  0
  1  2  1  0  0  0
  1 10  2  0  0  0
  2  3  2  0  0  0
  3  4  1  0  0  0
  4  5  1  0  0  0
  4  9  2  0  0  0
  5  6  2  0  0  0
  6  7  1  0  0  0
  7 11  1  0  0  0
  7  8  2  0  0  0
 11 12  1  0  0  0
 11 16  2  0  0  0
 12 13  2  0  0  0
 13 14  1  0  0  0
 14 15  1  0  0  0
 14 16  1  0  0  0
  8  9  1  0  0  0
  9 10  1  0  0  0
M  END
> <minimizedAffinity>
-7.95863

$$$$
