CHEMBL3740781


 40 44  0  0  0  0  0  0  0  0999 V2000
  -21.7854   -0.2398  -14.2157 O   0  0  0  0  0  0  0  0  0  0  0  0
  -23.0143   -0.2925  -13.5833 C   0  0  0  0  0  0  0  0  0  0  0  0
  -23.7263    0.8438  -13.1954 C   0  0  0  0  0  0  0  0  0  0  0  0
  -24.8386    0.7253  -12.3663 C   0  0  0  0  0  0  0  0  0  0  0  0
  -25.3677   -0.5355  -12.0792 C   0  0  0  0  0  0  0  0  0  0  0  0
  -26.5813   -0.6691  -11.4156 C   0  0  0  0  0  0  0  0  0  0  0  0
  -27.5841   -0.9077  -12.3338 C   0  0  0  0  0  0  0  0  0  0  0  0
  -27.3126   -1.9081  -13.2685 C   0  0  0  0  0  0  0  0  0  0  0  0
  -25.9880   -2.3666  -13.4335 C   0  0  0  0  0  0  0  0  0  0  0  0
  -24.9526   -1.5649  -12.9274 C   0  0  0  0  0  0  0  0  0  0  0  0
  -23.6543   -1.5309  -13.4750 C   0  0  0  0  0  0  0  0  0  0  0  0
  -26.7709   -1.7289  -10.3056 C   0  0  0  0  0  0  0  0  0  0  0  0
  -25.7641   -2.3516   -9.9617 O   0  0  0  0  0  0  0  0  0  0  0  0
  -28.0242   -1.8734   -9.7080 N   0  0  0  0  0  0  0  0  0  0  0  0
  -28.8174   -1.4491  -10.1728 H   0  0  0  0  0  0  0  0  0  0  0  0
  -28.3000   -2.4858   -8.4416 C   0  0  0  0  0  0  0  0  0  0  0  0
  -28.9135   -3.7325   -8.2851 C   0  0  0  0  0  0  0  0  0  0  0  0
  -29.1143   -4.2892   -7.0134 C   0  0  0  0  0  0  0  0  0  0  0  0
  -28.7023   -3.6139   -5.8681 C   0  0  0  0  0  0  0  0  0  0  0  0
  -28.0798   -2.3758   -6.0026 C   0  0  0  0  0  0  0  0  0  0  0  0
  -27.8749   -1.8232   -7.2783 C   0  0  0  0  0  0  0  0  0  0  0  0
  -19.4061    2.2844  -15.2734 C   0  0  0  0  0  0  0  0  0  0  0  0
  -19.9445    1.0339  -15.0112 C   0  0  0  0  0  0  0  0  0  0  0  0
  -21.1856    1.0116  -14.4104 C   0  0  0  0  0  0  0  0  0  0  0  0
  -21.8290    2.1272  -14.0227 N   0  0  0  0  0  0  0  0  0  0  0  0
  -21.2603    3.2788  -14.3648 C   0  0  0  0  0  0  0  0  0  0  0  0
  -20.0867    3.4077  -14.9823 N   0  0  0  0  0  0  0  0  0  0  0  0
  -18.0980    2.3698  -15.8156 N   0  0  0  0  0  0  0  0  0  0  0  0
  -17.8613    3.3317  -16.0307 H   0  0  0  0  0  0  0  0  0  0  0  0
  -15.7861    0.2539  -13.7621 C   0  0  0  0  0  0  0  0  0  0  0  0
  -14.6793    0.1579  -14.6167 C   0  0  0  0  0  0  0  0  0  0  0  0
  -14.6932    0.7944  -15.8614 C   0  0  0  0  0  0  0  0  0  0  0  0
  -15.8229    1.5182  -16.2525 C   0  0  0  0  0  0  0  0  0  0  0  0
  -16.9605    1.6072  -15.4499 C   0  0  0  0  0  0  0  0  0  0  0  0
  -16.9038    1.0026  -14.1817 C   0  0  0  0  0  0  0  0  0  0  0  0
  -15.7216   -0.3751  -12.3941 C   0  0  0  0  0  0  0  0  0  0  0  0
  -15.9119   -2.7894  -10.9245 C   0  0  0  0  0  0  0  0  0  0  0  0
  -15.3053   -2.1125  -12.4587 S   0  0  0  0  0  0  0  0  0  0  0  0
  -13.8638   -2.2706  -12.4764 O   0  0  0  0  0  0  0  0  0  0  0  0
  -16.1288   -2.7033  -13.5089 O   0  0  0  0  0  0  0  0  0  0  0  0
 37 38  1  0  0  0
 38 39  2  0  0  0
 38 40  2  0  0  0
 38 36  1  0  0  0
 36 30  1  0  0  0
 30 31  1  0  0  0
 30 35  2  0  0  0
 31 32  2  0  0  0
 32 33  1  0  0  0
 33 34  2  0  0  0
 34 28  1  0  0  0
 34 35  1  0  0  0
 28 22  1  0  0  0
 28 29  1  0  0  0
 22 23  1  0  0  0
 22 27  2  0  0  0
 23 24  2  0  0  0
 24  1  1  0  0  0
 24 25  1  0  0  0
  1  2  1  0  0  0
  2  3  1  0  0  0
  2 11  2  0  0  0
  3  4  2  0  0  0
  4  5  1  0  0  0
  5  6  1  0  0  0
  5 10  2  0  0  0
  6 12  1  0  0  0
  6  7  2  0  0  0
 12 13  2  0  0  0
 12 14  1  0  0  0
 14 16  1  0  0  0
 14 15  1  0  0  0
 16 17  1  0  0  0
 16 21  2  0  0  0
 17 18  2  0  0  0
 18 19  1  0  0  0
 19 20  2  0  0  0
 20 21  1  0  0  0
  7  8  1  0  0  0
  8  9  2  0  0  0
  9 10  1  0  0  0
 10 11  1  0  0  0
 25 26  2  0  0  0
 26 27  1  0  0  0
M  END
> <minimizedAffinity>
-10.35588

$$$$
