CHEMBL231570


 37 41  0  0  0  0  0  0  0  0999 V2000
  -24.6583   12.0103  -15.5521 C   0  0  0  0  0  0  0  0  0  0  0  0
  -23.8181   10.9774  -15.1012 C   0  0  0  0  0  0  0  0  0  0  0  0
  -22.8256   10.4235  -15.9252 C   0  0  0  0  0  0  0  0  0  0  0  0
  -22.7784   10.9162  -17.2223 C   0  0  0  0  0  0  0  0  0  0  0  0
  -21.8993   10.5905  -18.2186 O   0  0  0  0  0  0  0  0  0  0  0  0
  -22.2729   11.3905  -19.2643 C   0  0  0  0  0  0  0  0  0  0  0  0
  -23.3463   12.1233  -19.0281 N   0  0  0  0  0  0  0  0  0  0  0  0
  -23.6469   11.8714  -17.7218 C   0  0  0  0  0  0  0  0  0  0  0  0
  -24.6166   12.4350  -16.8855 C   0  0  0  0  0  0  0  0  0  0  0  0
  -21.4684   11.3662  -20.3535 N   0  0  0  0  0  0  0  0  0  0  0  0
  -21.6507   10.5980  -20.9892 H   0  0  0  0  0  0  0  0  0  0  0  0
  -20.0984   11.7340  -20.3419 C   0  0  0  0  0  0  0  0  0  0  0  0
  -19.5250   12.4879  -19.3098 C   0  0  0  0  0  0  0  0  0  0  0  0
  -18.1461   12.6580  -19.2250 C   0  0  0  0  0  0  0  0  0  0  0  0
  -17.3175   12.1582  -20.2226 C   0  0  0  0  0  0  0  0  0  0  0  0
  -15.6230   12.1570  -19.8882 Cl  0  0  0  0  0  0  0  0  0  0  0  0
  -17.8668   11.6172  -21.3952 C   0  0  0  0  0  0  0  0  0  0  0  0
  -19.2663   11.3791  -21.4196 C   0  0  0  0  0  0  0  0  0  0  0  0
  -17.0110   11.2590  -22.5901 C   0  0  0  0  0  0  0  0  0  0  0  0
  -16.3893    9.9339  -22.6244 N   0  0  0  0  0  0  0  0  0  0  0  0
  -16.9611    8.8642  -21.7971 C   0  0  0  0  0  0  0  0  0  0  0  0
  -16.2393    8.5845  -20.4620 C   0  0  0  0  0  0  0  0  0  0  0  0
  -14.8147    8.5169  -20.6086 O   0  0  0  0  0  0  0  0  0  0  0  0
  -14.3158    9.7080  -21.2253 C   0  0  0  0  0  0  0  0  0  0  0  0
  -14.9253    9.8840  -22.6200 C   0  0  0  0  0  0  0  0  0  0  0  0
  -25.5888   12.6470  -14.7553 O   0  0  0  0  0  0  0  0  0  0  0  0
  -28.8296   11.6301  -13.3547 C   0  0  0  0  0  0  0  0  0  0  0  0
  -27.6710   12.3779  -13.4931 C   0  0  0  0  0  0  0  0  0  0  0  0
  -26.8132   12.0571  -14.5469 C   0  0  0  0  0  0  0  0  0  0  0  0
  -27.2059   11.1024  -15.4811 C   0  0  0  0  0  0  0  0  0  0  0  0
  -28.4030   10.4397  -15.2792 C   0  0  0  0  0  0  0  0  0  0  0  0
  -29.2197   10.6580  -14.2198 N   0  0  0  0  0  0  0  0  0  0  0  0
  -31.9417   12.4038  -11.3528 C   0  0  0  0  0  0  0  0  0  0  0  0
  -30.9909   12.1622  -12.4016 N   0  0  0  0  0  0  0  0  0  0  0  0
  -29.6802   11.8305  -12.1353 C   0  0  0  0  0  0  0  0  0  0  0  0
  -29.2292   11.6832  -11.0037 O   0  0  0  0  0  0  0  0  0  0  0  0
  -31.2528   12.2443  -13.3804 H   0  0  0  0  0  0  0  0  0  0  0  0
 33 34  1  0  0  0
 34 35  1  0  0  0
 34 37  1  0  0  0
 35 36  2  0  0  0
 35 27  1  0  0  0
 27 28  1  0  0  0
 27 32  2  0  0  0
 28 29  2  0  0  0
 29 26  1  0  0  0
 29 30  1  0  0  0
 26  1  1  0  0  0
  1  2  1  0  0  0
  1  9  2  0  0  0
  2  3  2  0  0  0
  3  4  1  0  0  0
  4  5  1  0  0  0
  4  8  2  0  0  0
  5  6  1  0  0  0
  6 10  1  0  0  0
  6  7  2  0  0  0
 10 12  1  0  0  0
 10 11  1  0  0  0
 12 13  1  0  0  0
 12 18  2  0  0  0
 13 14  2  0  0  0
 14 15  1  0  0  0
 15 16  1  0  0  0
 15 17  2  0  0  0
 17 19  1  0  0  0
 17 18  1  0  0  0
 19 20  1  0  0  0
 20 21  1  0  0  0
 20 25  1  0  0  0
 21 22  1  0  0  0
 22 23  1  0  0  0
 23 24  1  0  0  0
 24 25  1  0  0  0
  7  8  1  0  0  0
  8  9  1  0  0  0
 30 31  2  0  0  0
 31 32  1  0  0  0
M  END
> <minimizedAffinity>
-4.02220

$$$$
