CHEMBL3976752


 33 36  0  0  0  0  0  0  0  0999 V2000
  -13.5707   -5.1863  -12.8404 N   0  0  0  0  0  0  0  0  0  0  0  0
  -13.8044   -3.8154  -13.3256 C   0  0  0  0  0  0  0  0  0  0  0  0
  -12.7126   -3.0080  -13.5938 C   0  0  0  0  0  0  0  0  0  0  0  0
  -12.8242   -1.6224  -13.5418 C   0  0  0  0  0  0  0  0  0  0  0  0
  -14.0242   -0.9975  -13.5059 C   0  0  0  0  0  0  0  0  0  0  0  0
  -13.8769    0.3053  -13.3277 N   0  0  0  0  0  0  0  0  0  0  0  0
  -14.9333    1.0445  -13.6236 C   0  0  0  0  0  0  0  0  0  0  0  0
  -16.0816    0.4892  -14.1519 C   0  0  0  0  0  0  0  0  0  0  0  0
  -16.2726   -0.8849  -14.1865 N   0  0  0  0  0  0  0  0  0  0  0  0
  -15.2028   -1.7052  -13.7854 C   0  0  0  0  0  0  0  0  0  0  0  0
  -15.0590   -3.1622  -13.5866 C   0  0  0  0  0  0  0  0  0  0  0  0
  -16.9575    1.4626  -14.7981 C   0  0  0  0  0  0  0  0  0  0  0  0
  -16.6202    2.6559  -15.4968 C   0  0  0  0  0  0  0  0  0  0  0  0
  -17.6625    3.4851  -15.6514 N   0  0  0  0  0  0  0  0  0  0  0  0
  -18.6647    2.8436  -15.0285 N   0  0  0  0  0  0  0  0  0  0  0  0
  -20.0317    3.2862  -15.1703 C   0  0  0  0  0  0  0  0  0  0  0  0
  -18.2480    1.7263  -14.3622 C   0  0  0  0  0  0  0  0  0  0  0  0
  -12.9163   -8.7198  -14.0201 C   0  0  0  0  0  0  0  0  0  0  0  0
  -13.2891   -8.6541  -15.3621 C   0  0  0  0  0  0  0  0  0  0  0  0
  -13.7617   -7.4563  -15.8824 C   0  0  0  0  0  0  0  0  0  0  0  0
  -13.8685   -6.3342  -15.0406 C   0  0  0  0  0  0  0  0  0  0  0  0
  -13.4896   -6.3556  -13.6808 C   0  0  0  0  0  0  0  0  0  0  0  0
  -12.9895   -7.5756  -13.2074 C   0  0  0  0  0  0  0  0  0  0  0  0
  -11.8162   -9.6492  -12.1271 C   0  0  0  0  0  0  0  0  0  0  0  0
  -12.4541   -9.8420  -13.3843 O   0  0  0  0  0  0  0  0  0  0  0  0
  -14.1400   -7.2544  -17.1862 O   0  0  0  0  0  0  0  0  0  0  0  0
  -13.6705   -8.1968  -18.1491 C   0  0  0  0  0  0  0  0  0  0  0  0
  -14.3897   -5.4869  -11.5510 C   0  0  0  0  0  0  0  0  0  0  0  0
  -14.0359   -4.5216  -10.4068 C   0  0  0  0  0  0  0  0  0  0  0  0
  -15.9248   -5.6941  -11.6273 C   0  0  0  0  0  0  0  0  0  0  0  0
  -16.6985   -4.6201  -10.9983 N   0  0  0  0  0  0  0  0  0  0  0  0
  -16.4044   -4.5121  -10.0279 H   0  0  0  0  0  0  0  0  0  0  0  0
  -17.6869   -4.8642  -10.9949 H   0  0  0  0  0  0  0  0  0  0  0  0
 24 25  1  0  0  0
 25 18  1  0  0  0
 18 19  1  0  0  0
 18 23  2  0  0  0
 19 20  2  0  0  0
 20 26  1  0  0  0
 20 21  1  0  0  0
 26 27  1  0  0  0
 21 22  2  0  0  0
 22  1  1  0  0  0
 22 23  1  0  0  0
  1  2  1  0  0  0
  1 28  1  0  0  0
  2  3  1  0  0  0
  2 11  2  0  0  0
  3  4  2  0  0  0
  4  5  1  0  0  0
  5  6  1  0  0  0
  5 10  2  0  0  0
  6  7  2  0  0  0
  7  8  1  0  0  0
  8 12  1  0  0  0
  8  9  2  0  0  0
 12 13  1  0  0  0
 12 17  2  0  0  0
 13 14  2  0  0  0
 14 15  1  0  0  0
 15 16  1  0  0  0
 15 17  1  0  0  0
  9 10  1  0  0  0
 10 11  1  0  0  0
 28 29  1  0  0  0
 28 30  1  0  0  0
 30 31  1  0  0  0
 31 32  1  0  0  0
 31 33  1  0  0  0
M  END
> <minimizedAffinity>
-7.08496

$$$$
