CHEMBL1076436


 48 53  0  0  0  0  0  0  0  0999 V2000
  -29.4681  -12.0013   -8.0245 C   0  0  0  0  0  0  0  0  0  0  0  0
  -29.0727  -10.5470   -8.0957 C   0  0  0  0  0  0  0  0  0  0  0  0
  -28.9401   -9.9685   -9.3627 C   0  0  0  0  0  0  0  0  0  0  0  0
  -28.6531   -8.6122   -9.4977 C   0  0  0  0  0  0  0  0  0  0  0  0
  -28.5572   -7.7962   -8.3765 C   0  0  0  0  0  0  0  0  0  0  0  0
  -28.7067   -8.3761   -7.1090 C   0  0  0  0  0  0  0  0  0  0  0  0
  -28.8598   -9.7555   -6.9401 C   0  0  0  0  0  0  0  0  0  0  0  0
  -28.3119   -6.4043   -8.4344 N   0  0  0  0  0  0  0  0  0  0  0  0
  -28.9448   -5.4347   -7.6782 C   0  0  0  0  0  0  0  0  0  0  0  0
  -29.8679   -5.6196   -6.8866 O   0  0  0  0  0  0  0  0  0  0  0  0
  -27.6867   -6.0936   -9.1691 H   0  0  0  0  0  0  0  0  0  0  0  0
  -28.4940   -4.0349   -7.8684 C   0  0  0  0  0  0  0  0  0  0  0  0
  -27.9394   -3.5869   -9.0710 C   0  0  0  0  0  0  0  0  0  0  0  0
  -27.4477   -2.2777   -9.2146 C   0  0  0  0  0  0  0  0  0  0  0  0
  -27.5639   -1.4216   -8.1082 C   0  0  0  0  0  0  0  0  0  0  0  0
  -28.1337   -1.8438   -6.8934 C   0  0  0  0  0  0  0  0  0  0  0  0
  -28.5831   -3.1620   -6.7815 C   0  0  0  0  0  0  0  0  0  0  0  0
  -26.9326   -1.8699  -10.4318 N   0  0  0  0  0  0  0  0  0  0  0  0
  -27.7921   -1.4139  -11.5372 C   0  0  0  0  0  0  0  0  0  0  0  0
  -27.1078   -1.7588  -12.8833 C   0  0  0  0  0  0  0  0  0  0  0  0
  -25.7463   -1.1857  -12.9997 N   0  0  0  0  0  0  0  0  0  0  0  0
  -25.1255   -1.5892  -14.2583 C   0  0  0  0  0  0  0  0  0  0  0  0
  -24.9269   -1.6342  -11.8504 C   0  0  0  0  0  0  0  0  0  0  0  0
  -25.5757   -1.2862  -10.4915 C   0  0  0  0  0  0  0  0  0  0  0  0
  -28.2770   -0.9069   -5.7217 C   0  0  0  0  0  0  0  0  0  0  0  0
  -28.7330   -1.5134   -4.5900 F   0  0  0  0  0  0  0  0  0  0  0  0
  -27.0931   -0.3269   -5.3779 F   0  0  0  0  0  0  0  0  0  0  0  0
  -29.1380    0.1178   -5.9688 F   0  0  0  0  0  0  0  0  0  0  0  0
  -28.8723  -10.3808   -5.6791 N   0  0  0  0  0  0  0  0  0  0  0  0
  -28.6776  -11.3738   -5.7779 H   0  0  0  0  0  0  0  0  0  0  0  0
  -28.4225   -9.9869   -4.4513 C   0  0  0  0  0  0  0  0  0  0  0  0
  -29.3091   -9.4473   -3.6315 N   0  0  0  0  0  0  0  0  0  0  0  0
  -28.9523   -8.1254   -3.6525 C   0  0  0  0  0  0  0  0  0  0  0  0
  -29.7230   -6.9975   -3.3503 C   0  0  0  0  0  0  0  0  0  0  0  0
  -29.1654   -5.7368   -3.5826 C   0  0  0  0  0  0  0  0  0  0  0  0
  -27.8494   -5.6059   -4.0358 C   0  0  0  0  0  0  0  0  0  0  0  0
  -27.0415   -6.7237   -4.2774 C   0  0  0  0  0  0  0  0  0  0  0  0
  -27.6430   -7.9747   -4.1150 C   0  0  0  0  0  0  0  0  0  0  0  0
  -27.2258   -9.2944   -4.2564 N   0  0  0  0  0  0  0  0  0  0  0  0
  -25.9093   -9.7932   -4.0415 C   0  0  0  0  0  0  0  0  0  0  0  0
  -24.9408   -9.6298   -5.0184 C   0  0  0  0  0  0  0  0  0  0  0  0
  -23.6964  -10.1604   -4.7416 C   0  0  0  0  0  0  0  0  0  0  0  0
  -22.6356   -9.9911   -5.6274 N   0  0  0  0  0  0  0  0  0  0  0  0
  -23.4135  -10.8008   -3.6039 N   0  0  0  0  0  0  0  0  0  0  0  0
  -24.4242  -10.9444   -2.7391 C   0  0  0  0  0  0  0  0  0  0  0  0
  -25.6669  -10.4780   -2.9020 N   0  0  0  0  0  0  0  0  0  0  0  0
  -22.8590  -10.3032   -6.5666 H   0  0  0  0  0  0  0  0  0  0  0  0
  -21.8355  -10.4979   -5.2516 H   0  0  0  0  0  0  0  0  0  0  0  0
  1  2  1  0  0  0
  2  3  1  0  0  0
  2  7  2  0  0  0
  3  4  2  0  0  0
  4  5  1  0  0  0
  5  8  1  0  0  0
  5  6  2  0  0  0
  8  9  1  0  0  0
  8 11  1  0  0  0
  9 10  2  0  0  0
  9 12  1  0  0  0
 12 13  1  0  0  0
 12 17  2  0  0  0
 13 14  2  0  0  0
 14 18  1  0  0  0
 14 15  1  0  0  0
 18 19  1  0  0  0
 18 24  1  0  0  0
 19 20  1  0  0  0
 20 21  1  0  0  0
 21 22  1  0  0  0
 21 23  1  0  0  0
 23 24  1  0  0  0
 15 16  2  0  0  0
 16 25  1  0  0  0
 16 17  1  0  0  0
 25 26  1  0  0  0
 25 27  1  0  0  0
 25 28  1  0  0  0
  6  7  1  0  0  0
  7 29  1  0  0  0
 29 31  1  0  0  0
 29 30  1  0  0  0
 31 32  2  0  0  0
 31 39  1  0  0  0
 32 33  1  0  0  0
 33 34  1  0  0  0
 33 38  2  0  0  0
 34 35  2  0  0  0
 35 36  1  0  0  0
 36 37  2  0  0  0
 37 38  1  0  0  0
 38 39  1  0  0  0
 39 40  1  0  0  0
 40 41  1  0  0  0
 40 46  2  0  0  0
 41 42  2  0  0  0
 42 43  1  0  0  0
 42 44  1  0  0  0
 43 47  1  0  0  0
 43 48  1  0  0  0
 44 45  2  0  0  0
 45 46  1  0  0  0
M  END
> <minimizedAffinity>
-9.90352

$$$$
