CHEMBL210113


 39 44  0  0  0  0  0  0  0  0999 V2000
  -29.0778  -10.0951   -4.3148 C   0  0  0  0  0  0  0  0  0  0  0  0
  -29.5602  -10.2618   -5.6414 C   0  0  0  0  0  0  0  0  0  0  0  0
  -29.5659   -9.2144   -6.5654 C   0  0  0  0  0  0  0  0  0  0  0  0
  -29.1269   -7.9794   -6.1350 C   0  0  0  0  0  0  0  0  0  0  0  0
  -28.6939   -7.8049   -4.7928 C   0  0  0  0  0  0  0  0  0  0  0  0
  -28.6371   -8.8360   -3.8843 C   0  0  0  0  0  0  0  0  0  0  0  0
  -28.3780   -6.4278   -4.6944 C   0  0  0  0  0  0  0  0  0  0  0  0
  -27.9468   -5.5246   -3.8047 N   0  0  0  0  0  0  0  0  0  0  0  0
  -27.8143   -4.2974   -4.3666 N   0  0  0  0  0  0  0  0  0  0  0  0
  -28.1960   -4.4658   -5.6522 C   0  0  0  0  0  0  0  0  0  0  0  0
  -28.5746   -5.7917   -5.8881 C   0  0  0  0  0  0  0  0  0  0  0  0
  -29.0432   -6.6937   -6.9734 C   0  0  0  0  0  0  0  0  0  0  0  0
  -27.7094   -5.6393   -2.8247 H   0  0  0  0  0  0  0  0  0  0  0  0
  -28.1444   -3.3585   -6.6533 C   0  0  0  0  0  0  0  0  0  0  0  0
  -28.3833   -2.0263   -6.3841 C   0  0  0  0  0  0  0  0  0  0  0  0
  -28.3559   -1.2279   -7.5638 C   0  0  0  0  0  0  0  0  0  0  0  0
  -28.0914   -1.9797   -8.6886 C   0  0  0  0  0  0  0  0  0  0  0  0
  -27.8087   -3.6194   -8.3047 S   0  0  0  0  0  0  0  0  0  0  0  0
  -28.0128   -1.5364  -10.1010 C   0  0  0  0  0  0  0  0  0  0  0  0
  -26.8315   -2.1036  -10.7081 N   0  0  0  0  0  0  0  0  0  0  0  0
  -26.0186   -1.2209  -11.3791 C   0  0  0  0  0  0  0  0  0  0  0  0
  -26.3311   -0.0425  -11.5035 O   0  0  0  0  0  0  0  0  0  0  0  0
  -24.9014   -1.8286  -11.9032 N   0  0  0  0  0  0  0  0  0  0  0  0
  -26.3516   -2.8209  -10.1823 H   0  0  0  0  0  0  0  0  0  0  0  0
  -24.9721   -2.8276  -12.0320 H   0  0  0  0  0  0  0  0  0  0  0  0
  -23.9241   -1.1459  -12.6623 C   0  0  0  0  0  0  0  0  0  0  0  0
  -22.7986   -0.5583  -12.0768 C   0  0  0  0  0  0  0  0  0  0  0  0
  -21.9273    0.2243  -12.8298 C   0  0  0  0  0  0  0  0  0  0  0  0
  -22.1587    0.4034  -14.1906 C   0  0  0  0  0  0  0  0  0  0  0  0
  -23.2369   -0.2371  -14.8010 C   0  0  0  0  0  0  0  0  0  0  0  0
  -24.1119   -1.0225  -14.0426 C   0  0  0  0  0  0  0  0  0  0  0  0
  -29.0270  -11.2801   -3.3701 C   0  0  0  0  0  0  0  0  0  0  0  0
  -24.5715   -9.7476   -3.9914 C   0  0  0  0  0  0  0  0  0  0  0  0
  -25.4039  -10.9455   -4.0506 N   0  0  0  0  0  0  0  0  0  0  0  0
  -25.9914  -11.2411   -2.7337 C   0  0  0  0  0  0  0  0  0  0  0  0
  -26.9331  -12.4646   -2.7943 C   0  0  0  0  0  0  0  0  0  0  0  0
  -28.0528  -12.3191   -3.7511 N   0  0  0  0  0  0  0  0  0  0  0  0
  -27.4562  -12.0055   -5.0728 C   0  0  0  0  0  0  0  0  0  0  0  0
  -26.4593  -10.8146   -5.0733 C   0  0  0  0  0  0  0  0  0  0  0  0
 33 34  1  0  0  0
 34 35  1  0  0  0
 34 39  1  0  0  0
 35 36  1  0  0  0
 36 37  1  0  0  0
 37 32  1  0  0  0
 37 38  1  0  0  0
 32  1  1  0  0  0
  1  2  1  0  0  0
  1  6  2  0  0  0
  2  3  2  0  0  0
  3  4  1  0  0  0
  4  5  2  0  0  0
  4 12  1  0  0  0
  5  6  1  0  0  0
  5  7  1  0  0  0
  7  8  1  0  0  0
  7 11  2  0  0  0
  8  9  1  0  0  0
  8 13  1  0  0  0
  9 10  2  0  0  0
 10 14  1  0  0  0
 10 11  1  0  0  0
 14 15  2  0  0  0
 14 18  1  0  0  0
 15 16  1  0  0  0
 16 17  2  0  0  0
 17 19  1  0  0  0
 17 18  1  0  0  0
 19 20  1  0  0  0
 20 21  1  0  0  0
 20 24  1  0  0  0
 21 22  2  0  0  0
 21 23  1  0  0  0
 23 26  1  0  0  0
 23 25  1  0  0  0
 26 27  1  0  0  0
 26 31  2  0  0  0
 27 28  2  0  0  0
 28 29  1  0  0  0
 29 30  2  0  0  0
 30 31  1  0  0  0
 11 12  1  0  0  0
 38 39  1  0  0  0
M  END
> <minimizedAffinity>
-8.73851

$$$$
