CHEMBL2018760


 30 32  0  0  0  0  0  0  0  0999 V2000
  -15.9990   -2.5746  -12.6493 N   0  0  0  0  0  0  0  0  0  0  0  0
  -16.7007   -3.1179  -13.1416 H   0  0  0  0  0  0  0  0  0  0  0  0
  -15.3286   -3.3702  -11.6873 C   0  0  0  0  0  0  0  0  0  0  0  0
  -15.1677   -2.8696  -10.4526 N   0  0  0  0  0  0  0  0  0  0  0  0
  -14.5892   -3.6680   -9.5543 C   0  0  0  0  0  0  0  0  0  0  0  0
  -14.1970   -4.9345   -9.7605 N   0  0  0  0  0  0  0  0  0  0  0  0
  -14.3709   -5.4292  -10.9959 C   0  0  0  0  0  0  0  0  0  0  0  0
  -14.0960   -6.7764  -11.2562 C   0  0  0  0  0  0  0  0  0  0  0  0
  -14.2933   -7.3872  -12.5176 C   0  0  0  0  0  0  0  0  0  0  0  0
  -14.7319   -6.6016  -13.5835 C   0  0  0  0  0  0  0  0  0  0  0  0
  -15.0267   -5.2458  -13.3186 C   0  0  0  0  0  0  0  0  0  0  0  0
  -14.8931   -4.6629  -12.0323 C   0  0  0  0  0  0  0  0  0  0  0  0
  -14.2624   -8.7558  -12.4576 O   0  0  0  0  0  0  0  0  0  0  0  0
  -13.0005   -9.4027  -12.5122 C   0  0  0  0  0  0  0  0  0  0  0  0
  -15.0222   -6.8642  -14.8840 O   0  0  0  0  0  0  0  0  0  0  0  0
  -14.1635   -6.5487  -15.9522 C   0  0  0  0  0  0  0  0  0  0  0  0
  -15.8099    0.4818  -14.7771 C   0  0  0  0  0  0  0  0  0  0  0  0
  -16.2973   -0.6328  -14.0745 C   0  0  0  0  0  0  0  0  0  0  0  0
  -15.4474   -1.5173  -13.4019 C   0  0  0  0  0  0  0  0  0  0  0  0
  -14.0746   -1.2517  -13.4200 C   0  0  0  0  0  0  0  0  0  0  0  0
  -13.5628   -0.1533  -14.1154 C   0  0  0  0  0  0  0  0  0  0  0  0
  -14.4289    0.7072  -14.7928 C   0  0  0  0  0  0  0  0  0  0  0  0
  -13.7460    2.0625  -15.6294 Cl  0  0  0  0  0  0  0  0  0  0  0  0
  -17.5993    2.1934  -14.9379 C   0  0  0  0  0  0  0  0  0  0  0  0
  -17.7230    2.4797  -13.7551 O   0  0  0  0  0  0  0  0  0  0  0  0
  -16.6733    1.3459  -15.4858 N   0  0  0  0  0  0  0  0  0  0  0  0
  -16.6339    1.3295  -16.4981 H   0  0  0  0  0  0  0  0  0  0  0  0
  -18.4274    2.6599  -15.9101 O   0  0  0  0  0  0  0  0  0  0  0  0
  -20.6033    1.8817  -15.2417 C   0  0  0  0  0  0  0  0  0  0  0  0
  -19.7041    3.0949  -15.4127 C   0  0  0  0  0  0  0  0  0  0  0  0
 29 30  1  0  0  0
 30 28  1  0  0  0
 28 24  1  0  0  0
 24 25  2  0  0  0
 24 26  1  0  0  0
 26 17  1  0  0  0
 26 27  1  0  0  0
 17 18  1  0  0  0
 17 22  2  0  0  0
 18 19  2  0  0  0
 19  1  1  0  0  0
 19 20  1  0  0  0
  1  3  1  0  0  0
  1  2  1  0  0  0
  3  4  1  0  0  0
  3 12  2  0  0  0
  4  5  2  0  0  0
  5  6  1  0  0  0
  6  7  2  0  0  0
  7  8  1  0  0  0
  7 12  1  0  0  0
  8  9  2  0  0  0
  9 13  1  0  0  0
  9 10  1  0  0  0
 13 14  1  0  0  0
 10 15  1  0  0  0
 10 11  2  0  0  0
 15 16  1  0  0  0
 11 12  1  0  0  0
 20 21  2  0  0  0
 21 22  1  0  0  0
 22 23  1  0  0  0
M  END
> <minimizedAffinity>
-6.81421

$$$$
