CHEMBL1087127


 40 44  0  0  0  0  0  0  0  0999 V2000
  -27.9339  -12.4339  -10.3279 C   0  0  0  0  0  0  0  0  0  0  0  0
  -28.5430  -11.3470   -9.4733 C   0  0  0  0  0  0  0  0  0  0  0  0
  -29.2474  -10.3178  -10.1139 C   0  0  0  0  0  0  0  0  0  0  0  0
  -29.8723   -9.3205   -9.3678 C   0  0  0  0  0  0  0  0  0  0  0  0
  -29.8842   -9.3818   -7.9713 C   0  0  0  0  0  0  0  0  0  0  0  0
  -29.1933  -10.4177   -7.3388 C   0  0  0  0  0  0  0  0  0  0  0  0
  -28.4355  -11.3434   -8.0574 C   0  0  0  0  0  0  0  0  0  0  0  0
  -30.5290   -8.2691   -7.2087 C   0  0  0  0  0  0  0  0  0  0  0  0
  -31.6819   -7.9899   -7.5252 O   0  0  0  0  0  0  0  0  0  0  0  0
  -29.7665   -7.6253   -6.2388 N   0  0  0  0  0  0  0  0  0  0  0  0
  -28.8069   -7.9088   -6.1090 H   0  0  0  0  0  0  0  0  0  0  0  0
  -30.1572   -6.4818   -5.4882 C   0  0  0  0  0  0  0  0  0  0  0  0
  -31.0167   -6.5509   -4.3915 C   0  0  0  0  0  0  0  0  0  0  0  0
  -31.4296   -5.3879   -3.7391 C   0  0  0  0  0  0  0  0  0  0  0  0
  -31.0221   -4.1376   -4.2036 C   0  0  0  0  0  0  0  0  0  0  0  0
  -30.1663   -4.0326   -5.3053 C   0  0  0  0  0  0  0  0  0  0  0  0
  -29.6953   -5.2230   -5.8962 C   0  0  0  0  0  0  0  0  0  0  0  0
  -29.8137   -2.6764   -5.8998 C   0  0  0  0  0  0  0  0  0  0  0  0
  -29.4833   -1.6503   -4.8051 C   0  0  0  0  0  0  0  0  0  0  0  0
  -28.6580   -2.7629   -6.8985 C   0  0  0  0  0  0  0  0  0  0  0  0
  -27.5809  -12.2696   -7.4359 N   0  0  0  0  0  0  0  0  0  0  0  0
  -27.0639  -12.8187   -8.1167 H   0  0  0  0  0  0  0  0  0  0  0  0
  -26.8972  -12.2732   -6.2566 C   0  0  0  0  0  0  0  0  0  0  0  0
  -27.6068  -12.3483   -5.1450 N   0  0  0  0  0  0  0  0  0  0  0  0
  -27.4114  -11.1140   -4.5910 C   0  0  0  0  0  0  0  0  0  0  0  0
  -28.1856  -10.4436   -3.6392 C   0  0  0  0  0  0  0  0  0  0  0  0
  -27.8526   -9.1225   -3.3319 C   0  0  0  0  0  0  0  0  0  0  0  0
  -26.7355   -8.5111   -3.9092 C   0  0  0  0  0  0  0  0  0  0  0  0
  -25.9113   -9.1894   -4.8120 C   0  0  0  0  0  0  0  0  0  0  0  0
  -26.3036  -10.4858   -5.1612 C   0  0  0  0  0  0  0  0  0  0  0  0
  -25.7822  -11.4804   -5.9756 N   0  0  0  0  0  0  0  0  0  0  0  0
  -24.3986  -11.7131   -6.2182 C   0  0  0  0  0  0  0  0  0  0  0  0
  -23.9579  -12.0520   -7.4869 C   0  0  0  0  0  0  0  0  0  0  0  0
  -22.6012  -12.2563   -7.6349 C   0  0  0  0  0  0  0  0  0  0  0  0
  -22.0395  -12.4418   -8.8891 N   0  0  0  0  0  0  0  0  0  0  0  0
  -21.7470  -12.1792   -6.6080 N   0  0  0  0  0  0  0  0  0  0  0  0
  -22.2654  -11.8729   -5.4158 C   0  0  0  0  0  0  0  0  0  0  0  0
  -23.5539  -11.6267   -5.1659 N   0  0  0  0  0  0  0  0  0  0  0  0
  -22.4589  -13.1852   -9.4313 H   0  0  0  0  0  0  0  0  0  0  0  0
  -21.0301  -12.5407   -8.7954 H   0  0  0  0  0  0  0  0  0  0  0  0
  1  2  1  0  0  0
  2  3  1  0  0  0
  2  7  2  0  0  0
  3  4  2  0  0  0
  4  5  1  0  0  0
  5  8  1  0  0  0
  5  6  2  0  0  0
  8  9  2  0  0  0
  8 10  1  0  0  0
 10 12  1  0  0  0
 10 11  1  0  0  0
 12 13  1  0  0  0
 12 17  2  0  0  0
 13 14  2  0  0  0
 14 15  1  0  0  0
 15 16  2  0  0  0
 16 18  1  0  0  0
 16 17  1  0  0  0
 18 19  1  0  0  0
 18 20  1  0  0  0
  6  7  1  0  0  0
  7 21  1  0  0  0
 21 23  1  0  0  0
 21 22  1  0  0  0
 23 24  2  0  0  0
 23 31  1  0  0  0
 24 25  1  0  0  0
 25 26  1  0  0  0
 25 30  2  0  0  0
 26 27  2  0  0  0
 27 28  1  0  0  0
 28 29  2  0  0  0
 29 30  1  0  0  0
 30 31  1  0  0  0
 31 32  1  0  0  0
 32 33  1  0  0  0
 32 38  2  0  0  0
 33 34  2  0  0  0
 34 35  1  0  0  0
 34 36  1  0  0  0
 35 39  1  0  0  0
 35 40  1  0  0  0
 36 37  2  0  0  0
 37 38  1  0  0  0
M  END
> <minimizedAffinity>
-8.61679

$$$$
