CHEMBL1761943


 37 41  0  0  0  0  0  0  0  0999 V2000
  -14.2959   -3.9881  -10.6863 C   0  0  0  0  0  0  0  0  0  0  0  0
  -15.6283   -3.6226  -10.8531 C   0  0  0  0  0  0  0  0  0  0  0  0
  -16.0115   -2.7969  -11.9186 C   0  0  0  0  0  0  0  0  0  0  0  0
  -15.0817   -2.2692  -12.8193 C   0  0  0  0  0  0  0  0  0  0  0  0
  -13.7247   -2.5574  -12.5821 C   0  0  0  0  0  0  0  0  0  0  0  0
  -13.3340   -3.4106  -11.5209 C   0  0  0  0  0  0  0  0  0  0  0  0
  -15.4611   -1.4818  -13.9508 N   0  0  0  0  0  0  0  0  0  0  0  0
  -15.8104   -0.1265  -13.9322 C   0  0  0  0  0  0  0  0  0  0  0  0
  -15.8022    0.5923  -12.9415 O   0  0  0  0  0  0  0  0  0  0  0  0
  -16.2476    0.3240  -15.1906 N   0  0  0  0  0  0  0  0  0  0  0  0
  -15.4815   -1.9557  -14.8427 H   0  0  0  0  0  0  0  0  0  0  0  0
  -16.7217   -0.3937  -15.7008 H   0  0  0  0  0  0  0  0  0  0  0  0
  -16.8808    1.6144  -15.2883 C   0  0  0  0  0  0  0  0  0  0  0  0
  -16.0301    2.6828  -15.6318 C   0  0  0  0  0  0  0  0  0  0  0  0
  -16.5483    3.9543  -15.8957 C   0  0  0  0  0  0  0  0  0  0  0  0
  -17.9237    4.1423  -15.9103 C   0  0  0  0  0  0  0  0  0  0  0  0
  -18.7880    3.1059  -15.5267 C   0  0  0  0  0  0  0  0  0  0  0  0
  -20.1612    3.3458  -15.5181 C   0  0  0  0  0  0  0  0  0  0  0  0
  -20.9846    2.6060  -14.6848 C   0  0  0  0  0  0  0  0  0  0  0  0
  -20.4797    1.4604  -14.0861 C   0  0  0  0  0  0  0  0  0  0  0  0
  -19.1746    1.0306  -14.3780 C   0  0  0  0  0  0  0  0  0  0  0  0
  -18.2702    1.8658  -15.0800 C   0  0  0  0  0  0  0  0  0  0  0  0
  -13.8958   -4.8774   -9.7022 O   0  0  0  0  0  0  0  0  0  0  0  0
  -13.0322   -8.6234  -13.0710 C   0  0  0  0  0  0  0  0  0  0  0  0
  -11.8610   -8.3700  -12.3276 C   0  0  0  0  0  0  0  0  0  0  0  0
  -11.8301   -7.4147  -11.3090 C   0  0  0  0  0  0  0  0  0  0  0  0
  -10.6982   -7.3320  -10.5889 N   0  0  0  0  0  0  0  0  0  0  0  0
  -10.7177   -6.4753   -9.5600 C   0  0  0  0  0  0  0  0  0  0  0  0
  -11.7352   -5.6870   -9.2085 N   0  0  0  0  0  0  0  0  0  0  0  0
  -12.8207   -5.7282  -10.0075 C   0  0  0  0  0  0  0  0  0  0  0  0
  -12.9470   -6.6182  -11.0850 C   0  0  0  0  0  0  0  0  0  0  0  0
  -14.0784   -6.7747  -11.9157 C   0  0  0  0  0  0  0  0  0  0  0  0
  -14.1444   -7.7961  -12.8815 C   0  0  0  0  0  0  0  0  0  0  0  0
  -13.0200   -9.3248  -15.3424 C   0  0  0  0  0  0  0  0  0  0  0  0
  -13.0858   -9.6647  -13.9531 O   0  0  0  0  0  0  0  0  0  0  0  0
  -15.3641   -7.8286  -13.4993 O   0  0  0  0  0  0  0  0  0  0  0  0
  -15.9713   -6.6302  -13.9452 C   0  0  0  0  0  0  0  0  0  0  0  0
 34 35  1  0  0  0
 35 24  1  0  0  0
 24 25  1  0  0  0
 24 33  2  0  0  0
 25 26  2  0  0  0
 26 27  1  0  0  0
 26 31  1  0  0  0
 27 28  2  0  0  0
 28 29  1  0  0  0
 29 30  2  0  0  0
 30 23  1  0  0  0
 30 31  1  0  0  0
 23  1  1  0  0  0
  1  2  1  0  0  0
  1  6  2  0  0  0
  2  3  2  0  0  0
  3  4  1  0  0  0
  4  7  1  0  0  0
  4  5  2  0  0  0
  7  8  1  0  0  0
  7 11  1  0  0  0
  8  9  2  0  0  0
  8 10  1  0  0  0
 10 13  1  0  0  0
 10 12  1  0  0  0
 13 14  1  0  0  0
 13 22  2  0  0  0
 14 15  2  0  0  0
 15 16  1  0  0  0
 16 17  2  0  0  0
 17 18  1  0  0  0
 17 22  1  0  0  0
 18 19  2  0  0  0
 19 20  1  0  0  0
 20 21  2  0  0  0
 21 22  1  0  0  0
  5  6  1  0  0  0
 31 32  2  0  0  0
 32 33  1  0  0  0
 33 36  1  0  0  0
 36 37  1  0  0  0
M  END
> <minimizedAffinity>
-9.92579

$$$$
