CHEMBL221224


 28 30  0  0  0  0  0  0  0  0999 V2000
  -30.5102   -9.1678   -7.6256 C   0  0  0  0  0  0  0  0  0  0  0  0
  -31.6648   -9.7162   -8.1731 C   0  0  0  0  0  0  0  0  0  0  0  0
  -31.6488  -10.8476   -8.9867 N   0  0  0  0  0  0  0  0  0  0  0  0
  -32.8957   -9.2769   -7.8613 N   0  0  0  0  0  0  0  0  0  0  0  0
  -32.9671   -8.2511   -7.0100 C   0  0  0  0  0  0  0  0  0  0  0  0
  -31.9309   -7.6400   -6.4344 N   0  0  0  0  0  0  0  0  0  0  0  0
  -30.7029   -8.1351   -6.7264 C   0  0  0  0  0  0  0  0  0  0  0  0
  -30.8960  -10.8069   -9.6744 H   0  0  0  0  0  0  0  0  0  0  0  0
  -32.5715  -10.9998   -9.3801 H   0  0  0  0  0  0  0  0  0  0  0  0
  -28.7074   -9.3824   -9.2011 N   0  0  0  0  0  0  0  0  0  0  0  0
  -29.1721   -9.6327   -8.0152 C   0  0  0  0  0  0  0  0  0  0  0  0
  -27.4194   -9.9215   -9.3326 O   0  0  0  0  0  0  0  0  0  0  0  0
  -27.3168  -10.5088  -10.6322 C   0  0  0  0  0  0  0  0  0  0  0  0
  -28.7705  -10.0707  -12.6284 C   0  0  0  0  0  0  0  0  0  0  0  0
  -28.6332  -10.3630  -11.3279 C   0  0  0  0  0  0  0  0  0  0  0  0
  -29.6008   -7.5518   -6.1052 O   0  0  0  0  0  0  0  0  0  0  0  0
  -29.3739   -6.2060   -6.3462 C   0  0  0  0  0  0  0  0  0  0  0  0
  -28.9092   -5.7389   -7.5846 C   0  0  0  0  0  0  0  0  0  0  0  0
  -28.6571   -4.3837   -7.8071 C   0  0  0  0  0  0  0  0  0  0  0  0
  -28.9752   -3.4913   -6.7824 C   0  0  0  0  0  0  0  0  0  0  0  0
  -28.8734   -2.1208   -6.7483 N   0  0  0  0  0  0  0  0  0  0  0  0
  -29.4605   -1.6291   -5.6100 C   0  0  0  0  0  0  0  0  0  0  0  0
  -29.6841   -0.1750   -5.4169 C   0  0  0  0  0  0  0  0  0  0  0  0
  -29.7807   -2.7143   -4.8166 C   0  0  0  0  0  0  0  0  0  0  0  0
  -29.5096   -3.9020   -5.5584 C   0  0  0  0  0  0  0  0  0  0  0  0
  -29.6918   -5.2849   -5.3375 C   0  0  0  0  0  0  0  0  0  0  0  0
  -30.1920   -5.7193   -4.1691 F   0  0  0  0  0  0  0  0  0  0  0  0
  -28.5016   -1.5591   -7.5019 H   0  0  0  0  0  0  0  0  0  0  0  0
 14 15  2  0  0  0
 15 13  1  0  0  0
 13 12  1  0  0  0
 12 10  1  0  0  0
 10 11  2  0  0  0
 11  1  1  0  0  0
  1  2  1  0  0  0
  1  7  2  0  0  0
  2  3  1  0  0  0
  2  4  2  0  0  0
  3  8  1  0  0  0
  3  9  1  0  0  0
  4  5  1  0  0  0
  5  6  2  0  0  0
  6  7  1  0  0  0
  7 16  1  0  0  0
 16 17  1  0  0  0
 17 18  1  0  0  0
 17 26  2  0  0  0
 18 19  2  0  0  0
 19 20  1  0  0  0
 20 21  1  0  0  0
 20 25  2  0  0  0
 21 22  1  0  0  0
 21 28  1  0  0  0
 22 23  1  0  0  0
 22 24  2  0  0  0
 24 25  1  0  0  0
 25 26  1  0  0  0
 26 27  1  0  0  0
M  END
> <minimizedAffinity>
-7.95653

$$$$
