CHEMBL3671493


 36 38  0  0  0  0  0  0  0  0999 V2000
  -29.2467   -9.2152   -8.4269 C   0  0  0  0  0  0  0  0  0  0  0  0
  -29.1690   -7.8680   -8.0777 C   0  0  0  0  0  0  0  0  0  0  0  0
  -29.0805   -7.4853   -6.7231 C   0  0  0  0  0  0  0  0  0  0  0  0
  -29.1404   -6.1613   -6.2647 C   0  0  0  0  0  0  0  0  0  0  0  0
  -29.0606   -5.8569   -4.9558 N   0  0  0  0  0  0  0  0  0  0  0  0
  -28.9434   -6.8776   -4.1016 C   0  0  0  0  0  0  0  0  0  0  0  0
  -28.9222   -8.1722   -4.4241 N   0  0  0  0  0  0  0  0  0  0  0  0
  -29.0027   -8.4700   -5.7246 C   0  0  0  0  0  0  0  0  0  0  0  0
  -29.0482   -9.8064   -6.1039 C   0  0  0  0  0  0  0  0  0  0  0  0
  -29.1472  -10.2010   -7.4408 C   0  0  0  0  0  0  0  0  0  0  0  0
  -28.6693  -10.0115  -10.6680 C   0  0  0  0  0  0  0  0  0  0  0  0
  -29.0537  -10.5918  -11.6777 O   0  0  0  0  0  0  0  0  0  0  0  0
  -29.5765   -9.5363   -9.7542 N   0  0  0  0  0  0  0  0  0  0  0  0
  -30.4655   -9.9998   -9.9025 H   0  0  0  0  0  0  0  0  0  0  0  0
  -26.5464  -10.9166   -9.8867 C   0  0  0  0  0  0  0  0  0  0  0  0
  -27.2251   -9.8572  -10.3427 C   0  0  0  0  0  0  0  0  0  0  0  0
  -29.3642   -5.1056   -7.1876 N   0  0  0  0  0  0  0  0  0  0  0  0
  -28.9965   -5.3383   -8.1065 H   0  0  0  0  0  0  0  0  0  0  0  0
  -29.1982   -3.7354   -6.8811 C   0  0  0  0  0  0  0  0  0  0  0  0
  -29.9536   -3.1228   -5.8710 C   0  0  0  0  0  0  0  0  0  0  0  0
  -29.7222   -1.7948   -5.5099 C   0  0  0  0  0  0  0  0  0  0  0  0
  -28.7421   -1.0614   -6.1751 C   0  0  0  0  0  0  0  0  0  0  0  0
  -28.3760    0.7107   -5.6306 Br  0  0  0  0  0  0  0  0  0  0  0  0
  -28.0214   -1.6289   -7.2227 C   0  0  0  0  0  0  0  0  0  0  0  0
  -28.2640   -2.9547   -7.5721 C   0  0  0  0  0  0  0  0  0  0  0  0
  -27.5568   -3.5054   -8.5718 F   0  0  0  0  0  0  0  0  0  0  0  0
  -29.2443  -11.5531   -7.6541 O   0  0  0  0  0  0  0  0  0  0  0  0
  -30.5580  -12.0925   -7.4948 C   0  0  0  0  0  0  0  0  0  0  0  0
  -30.8023  -12.4651   -6.0319 C   0  0  0  0  0  0  0  0  0  0  0  0
  -32.2724  -12.3925   -5.5952 C   0  0  0  0  0  0  0  0  0  0  0  0
  -33.1485  -11.5736   -6.5450 C   0  0  0  0  0  0  0  0  0  0  0  0
  -33.0334  -10.1521   -6.2986 N   0  0  0  0  0  0  0  0  0  0  0  0
  -32.7611   -9.2674   -7.3181 C   0  0  0  0  0  0  0  0  0  0  0  0
  -32.7357   -7.8241   -6.8940 C   0  0  0  0  0  0  0  0  0  0  0  0
  -32.5662   -9.6024   -8.4827 O   0  0  0  0  0  0  0  0  0  0  0  0
  -33.1638   -9.8104   -5.3557 H   0  0  0  0  0  0  0  0  0  0  0  0
 15 16  2  0  0  0
 16 11  1  0  0  0
 11 12  2  0  0  0
 11 13  1  0  0  0
 13  1  1  0  0  0
 13 14  1  0  0  0
  1  2  1  0  0  0
  1 10  2  0  0  0
  2  3  2  0  0  0
  3  4  1  0  0  0
  3  8  1  0  0  0
  4 17  1  0  0  0
  4  5  2  0  0  0
 17 19  1  0  0  0
 17 18  1  0  0  0
 19 20  1  0  0  0
 19 25  2  0  0  0
 20 21  2  0  0  0
 21 22  1  0  0  0
 22 23  1  0  0  0
 22 24  2  0  0  0
 24 25  1  0  0  0
 25 26  1  0  0  0
  5  6  1  0  0  0
  6  7  2  0  0  0
  7  8  1  0  0  0
  8  9  2  0  0  0
  9 10  1  0  0  0
 10 27  1  0  0  0
 27 28  1  0  0  0
 28 29  1  0  0  0
 29 30  1  0  0  0
 30 31  1  0  0  0
 31 32  1  0  0  0
 32 33  1  0  0  0
 32 36  1  0  0  0
 33 34  1  0  0  0
 33 35  2  0  0  0
M  END
> <minimizedAffinity>
-8.24129

$$$$
