CHEMBL4112857


 41 43  0  0  0  0  0  0  0  0999 V2000
  -14.5329   -1.9721  -13.1118 C   0  0  0  0  0  0  0  0  0  0  0  0
  -13.5296   -1.6961  -14.0259 C   0  0  0  0  0  0  0  0  0  0  0  0
  -13.6394   -0.7657  -15.0156 N   0  0  0  0  0  0  0  0  0  0  0  0
  -14.8023   -0.0842  -15.1169 C   0  0  0  0  0  0  0  0  0  0  0  0
  -14.9369    0.7297  -16.2376 N   0  0  0  0  0  0  0  0  0  0  0  0
  -15.8692   -0.2932  -14.2330 C   0  0  0  0  0  0  0  0  0  0  0  0
  -15.7223   -1.2412  -13.2162 C   0  0  0  0  0  0  0  0  0  0  0  0
  -14.0325    0.8935  -16.6665 H   0  0  0  0  0  0  0  0  0  0  0  0
  -15.5062    1.5558  -16.1055 H   0  0  0  0  0  0  0  0  0  0  0  0
  -14.3613   -3.0178  -12.0646 C   0  0  0  0  0  0  0  0  0  0  0  0
  -14.3852   -2.6161  -10.9030 O   0  0  0  0  0  0  0  0  0  0  0  0
  -15.5406   -5.2799  -12.2437 S   0  0  0  0  0  0  0  0  0  0  0  0
  -16.6306   -4.8784  -13.6045 C   0  0  0  0  0  0  0  0  0  0  0  0
  -16.3542   -5.3251  -11.0448 O   0  0  0  0  0  0  0  0  0  0  0  0
  -14.2787   -4.3909  -12.3822 N   0  0  0  0  0  0  0  0  0  0  0  0
  -15.0748   -6.9788  -12.6063 C   0  0  0  0  0  0  0  0  0  0  0  0
  -13.6399   -7.3039  -12.1763 C   0  0  0  0  0  0  0  0  0  0  0  0
  -13.1410   -8.6162  -12.7928 C   0  0  0  0  0  0  0  0  0  0  0  0
  -13.5587   -8.7780  -14.2609 C   0  0  0  0  0  0  0  0  0  0  0  0
  -12.7244   -7.8990  -15.1715 C   0  0  0  0  0  0  0  0  0  0  0  0
  -11.5454   -7.6297  -14.9854 O   0  0  0  0  0  0  0  0  0  0  0  0
  -13.8881   -6.0889  -16.0850 C   0  0  0  0  0  0  0  0  0  0  0  0
  -13.4714   -7.4547  -16.2145 O   0  0  0  0  0  0  0  0  0  0  0  0
  -17.0799    0.4686  -14.3328 C   0  0  0  0  0  0  0  0  0  0  0  0
  -18.1234    1.0732  -14.3897 C   0  0  0  0  0  0  0  0  0  0  0  0
  -19.3986    1.7199  -14.4946 C   0  0  0  0  0  0  0  0  0  0  0  0
  -19.4942    3.0869  -14.7736 C   0  0  0  0  0  0  0  0  0  0  0  0
  -20.7448    3.6990  -14.7906 C   0  0  0  0  0  0  0  0  0  0  0  0
  -21.8915    2.9655  -14.5115 C   0  0  0  0  0  0  0  0  0  0  0  0
  -21.8261    1.5895  -14.2416 C   0  0  0  0  0  0  0  0  0  0  0  0
  -20.5700    0.9717  -14.2510 C   0  0  0  0  0  0  0  0  0  0  0  0
  -22.9873    0.8394  -13.9298 N   0  0  0  0  0  0  0  0  0  0  0  0
  -23.1305   -0.0418  -12.8565 C   0  0  0  0  0  0  0  0  0  0  0  0
  -22.2758   -0.2472  -11.9999 O   0  0  0  0  0  0  0  0  0  0  0  0
  -23.8153    0.9906  -14.4946 H   0  0  0  0  0  0  0  0  0  0  0  0
  -24.4314   -0.6834  -12.7839 C   0  0  0  0  0  0  0  0  0  0  0  0
  -24.9715   -0.9208  -11.5518 O   0  0  0  0  0  0  0  0  0  0  0  0
  -26.1424   -1.5781  -11.7419 C   0  0  0  0  0  0  0  0  0  0  0  0
  -26.3833   -1.7484  -13.0857 C   0  0  0  0  0  0  0  0  0  0  0  0
  -25.2782   -1.1782  -13.7766 C   0  0  0  0  0  0  0  0  0  0  0  0
  -25.0698   -1.1852  -15.2502 C   0  0  0  0  0  0  0  0  0  0  0  0
 22 23  1  0  0  0
 23 20  1  0  0  0
 20 21  2  0  0  0
 20 19  1  0  0  0
 19 18  1  0  0  0
 18 17  1  0  0  0
 17 16  1  0  0  0
 16 12  1  0  0  0
 12 13  1  0  0  0
 12 14  2  0  0  0
 12 15  2  0  0  0
 15 10  1  0  0  0
 10 11  2  0  0  0
 10  1  1  0  0  0
  1  2  1  0  0  0
  1  7  2  0  0  0
  2  3  2  0  0  0
  3  4  1  0  0  0
  4  5  1  0  0  0
  4  6  2  0  0  0
  5  8  1  0  0  0
  5  9  1  0  0  0
  6 24  1  0  0  0
  6  7  1  0  0  0
 24 25  3  0  0  0
 25 26  1  0  0  0
 26 27  1  0  0  0
 26 31  2  0  0  0
 27 28  2  0  0  0
 28 29  1  0  0  0
 29 30  2  0  0  0
 30 32  1  0  0  0
 30 31  1  0  0  0
 32 33  1  0  0  0
 32 35  1  0  0  0
 33 34  2  0  0  0
 33 36  1  0  0  0
 36 37  1  0  0  0
 36 40  2  0  0  0
 37 38  1  0  0  0
 38 39  2  0  0  0
 39 40  1  0  0  0
 40 41  1  0  0  0
M  END
> <minimizedAffinity>
-9.21852

$$$$
