CHEMBL190495


 23 24  0  0  0  0  0  0  0  0999 V2000
  -15.7782   -1.4456  -13.2906 N   0  0  0  0  0  0  0  0  0  0  0  0
  -16.3024   -2.6885  -13.5215 C   0  0  0  0  0  0  0  0  0  0  0  0
  -15.9537   -3.4188  -12.4143 C   0  0  0  0  0  0  0  0  0  0  0  0
  -16.2242   -4.7537  -12.1396 C   0  0  0  0  0  0  0  0  0  0  0  0
  -16.8795   -5.6506  -12.9583 N   0  0  0  0  0  0  0  0  0  0  0  0
  -15.7494   -5.1581  -10.9355 N   0  0  0  0  0  0  0  0  0  0  0  0
  -15.0601   -4.2585  -10.1541 C   0  0  0  0  0  0  0  0  0  0  0  0
  -14.7515   -2.9511  -10.3695 N   0  0  0  0  0  0  0  0  0  0  0  0
  -15.2372   -2.5393  -11.5643 C   0  0  0  0  0  0  0  0  0  0  0  0
  -15.1298   -1.3260  -12.1103 N   0  0  0  0  0  0  0  0  0  0  0  0
  -17.4452   -5.2869  -13.7091 H   0  0  0  0  0  0  0  0  0  0  0  0
  -17.1742   -6.4985  -12.4936 H   0  0  0  0  0  0  0  0  0  0  0  0
  -15.8469   -0.3090  -14.1940 C   0  0  0  0  0  0  0  0  0  0  0  0
  -16.7476    0.7842  -13.6337 C   0  0  0  0  0  0  0  0  0  0  0  0
  -17.4456    1.5801  -14.7344 C   0  0  0  0  0  0  0  0  0  0  0  0
  -18.7639    0.9024  -15.1047 C   0  0  0  0  0  0  0  0  0  0  0  0
  -19.9292    1.8848  -15.0986 C   0  0  0  0  0  0  0  0  0  0  0  0
  -20.8964    1.5617  -13.9611 C   0  0  0  0  0  0  0  0  0  0  0  0
  -21.7408    0.3378  -14.2999 C   0  0  0  0  0  0  0  0  0  0  0  0
  -22.7662    0.0549  -13.2050 C   0  0  0  0  0  0  0  0  0  0  0  0
  -23.0002   -1.4473  -13.0651 C   0  0  0  0  0  0  0  0  0  0  0  0
  -24.8440   -1.1964  -11.3798 C   0  0  0  0  0  0  0  0  0  0  0  0
  -23.4810   -1.8041  -11.6609 C   0  0  0  0  0  0  0  0  0  0  0  0
 22 23  1  0  0  0
 23 21  1  0  0  0
 21 20  1  0  0  0
 20 19  1  0  0  0
 19 18  1  0  0  0
 18 17  1  0  0  0
 17 16  1  0  0  0
 16 15  1  0  0  0
 15 14  1  0  0  0
 14 13  1  0  0  0
 13  1  1  0  0  0
  1  2  1  0  0  0
  1 10  1  0  0  0
  2  3  2  0  0  0
  3  4  1  0  0  0
  3  9  1  0  0  0
  4  5  1  0  0  0
  4  6  2  0  0  0
  5 11  1  0  0  0
  5 12  1  0  0  0
  6  7  1  0  0  0
  7  8  2  0  0  0
  8  9  1  0  0  0
  9 10  2  0  0  0
M  END
> <minimizedAffinity>
-7.29828

$$$$
