CHEMBL2448066


 33 36  0  0  0  0  0  0  0  0999 V2000
  -27.4099   -9.3676   -8.3297 C   0  0  0  0  0  0  0  0  0  0  0  0
  -28.3045   -8.3576   -7.8897 C   0  0  0  0  0  0  0  0  0  0  0  0
  -28.6291   -8.2370   -6.5237 C   0  0  0  0  0  0  0  0  0  0  0  0
  -29.4433   -7.2083   -5.9858 C   0  0  0  0  0  0  0  0  0  0  0  0
  -29.6158   -7.1491   -4.6356 N   0  0  0  0  0  0  0  0  0  0  0  0
  -29.0542   -8.0415   -3.7898 C   0  0  0  0  0  0  0  0  0  0  0  0
  -28.3003   -9.0436   -4.2792 N   0  0  0  0  0  0  0  0  0  0  0  0
  -28.0691   -9.1598   -5.6103 C   0  0  0  0  0  0  0  0  0  0  0  0
  -27.2405  -10.1792   -6.0487 C   0  0  0  0  0  0  0  0  0  0  0  0
  -26.8863  -10.2914   -7.3998 C   0  0  0  0  0  0  0  0  0  0  0  0
  -27.4721  -10.2601  -10.5974 C   0  0  0  0  0  0  0  0  0  0  0  0
  -26.9681   -9.4299   -9.6151 O   0  0  0  0  0  0  0  0  0  0  0  0
  -30.1353   -6.2442   -6.7886 N   0  0  0  0  0  0  0  0  0  0  0  0
  -31.0939   -6.4536   -7.1015 H   0  0  0  0  0  0  0  0  0  0  0  0
  -29.6183   -4.9207   -6.9236 C   0  0  0  0  0  0  0  0  0  0  0  0
  -28.6768   -4.6364   -7.9305 C   0  0  0  0  0  0  0  0  0  0  0  0
  -28.1201   -3.3606   -8.0619 C   0  0  0  0  0  0  0  0  0  0  0  0
  -27.2280   -3.1036   -9.0420 O   0  0  0  0  0  0  0  0  0  0  0  0
  -28.4961   -2.3506   -7.1688 C   0  0  0  0  0  0  0  0  0  0  0  0
  -27.7830   -0.7488   -7.2886 Cl  0  0  0  0  0  0  0  0  0  0  0  0
  -29.4414   -2.6178   -6.1690 C   0  0  0  0  0  0  0  0  0  0  0  0
  -30.0140   -3.8926   -6.0518 C   0  0  0  0  0  0  0  0  0  0  0  0
  -30.9125   -4.1331   -5.0665 F   0  0  0  0  0  0  0  0  0  0  0  0
  -26.9630   -3.7794   -9.6821 H   0  0  0  0  0  0  0  0  0  0  0  0
  -25.9888  -11.2371   -7.8083 O   0  0  0  0  0  0  0  0  0  0  0  0
  -25.0222  -11.7956   -6.9843 C   0  0  0  0  0  0  0  0  0  0  0  0
  -23.6348  -11.1053   -7.0433 C   0  0  0  0  0  0  0  0  0  0  0  0
  -22.4632  -12.0615   -6.7622 C   0  0  0  0  0  0  0  0  0  0  0  0
  -22.3962  -12.4501   -5.2755 C   0  0  0  0  0  0  0  0  0  0  0  0
  -22.3489  -11.2572   -4.3953 N   0  0  0  0  0  0  0  0  0  0  0  0
  -22.4442  -11.6882   -2.9908 C   0  0  0  0  0  0  0  0  0  0  0  0
  -23.4282  -10.2765   -4.6649 C   0  0  0  0  0  0  0  0  0  0  0  0
  -23.4725   -9.8775   -6.1387 C   0  0  0  0  0  0  0  0  0  0  0  0
 11 12  1  0  0  0
 12  1  1  0  0  0
  1  2  1  0  0  0
  1 10  2  0  0  0
  2  3  2  0  0  0
  3  4  1  0  0  0
  3  8  1  0  0  0
  4 13  1  0  0  0
  4  5  2  0  0  0
 13 15  1  0  0  0
 13 14  1  0  0  0
 15 16  1  0  0  0
 15 22  2  0  0  0
 16 17  2  0  0  0
 17 18  1  0  0  0
 17 19  1  0  0  0
 18 24  1  0  0  0
 19 20  1  0  0  0
 19 21  2  0  0  0
 21 22  1  0  0  0
 22 23  1  0  0  0
  5  6  1  0  0  0
  6  7  2  0  0  0
  7  8  1  0  0  0
  8  9  2  0  0  0
  9 10  1  0  0  0
 10 25  1  0  0  0
 25 26  1  0  0  0
 26 27  1  0  0  0
 27 28  1  0  0  0
 27 33  1  0  0  0
 28 29  1  0  0  0
 29 30  1  0  0  0
 30 31  1  0  0  0
 30 32  1  0  0  0
 32 33  1  0  0  0
M  END
> <minimizedAffinity>
-8.12537

$$$$
