CHEMBL1807471


 42 46  0  0  0  0  0  0  0  0999 V2000
  -28.4657   -2.5453   -7.7293 C   0  0  0  0  0  0  0  0  0  0  0  0
  -27.2845   -1.7989   -7.9751 C   0  0  0  0  0  0  0  0  0  0  0  0
  -27.0563   -1.8618   -9.3250 C   0  0  0  0  0  0  0  0  0  0  0  0
  -28.0703   -2.6436   -9.8130 N   0  0  0  0  0  0  0  0  0  0  0  0
  -28.9424   -3.0557   -8.8748 N   0  0  0  0  0  0  0  0  0  0  0  0
  -28.2484   -2.9214  -10.7705 H   0  0  0  0  0  0  0  0  0  0  0  0
  -30.1431   -4.1444   -4.7715 C   0  0  0  0  0  0  0  0  0  0  0  0
  -30.1465   -3.1044   -3.8484 C   0  0  0  0  0  0  0  0  0  0  0  0
  -29.6770   -1.8432   -4.2289 C   0  0  0  0  0  0  0  0  0  0  0  0
  -29.1749   -1.6361   -5.5191 C   0  0  0  0  0  0  0  0  0  0  0  0
  -29.1289   -2.6916   -6.4347 C   0  0  0  0  0  0  0  0  0  0  0  0
  -29.6407   -3.9401   -6.0544 C   0  0  0  0  0  0  0  0  0  0  0  0
  -30.5226   -5.4603   -4.4306 N   0  0  0  0  0  0  0  0  0  0  0  0
  -31.4649   -5.7885   -4.6439 H   0  0  0  0  0  0  0  0  0  0  0  0
  -29.3800   -6.6691   -4.2418 S   0  0  0  0  0  0  0  0  0  0  0  0
  -29.7342   -7.4865   -3.1029 O   0  0  0  0  0  0  0  0  0  0  0  0
  -28.0945   -6.0069   -4.3170 O   0  0  0  0  0  0  0  0  0  0  0  0
  -29.9360   -9.2402   -7.9860 C   0  0  0  0  0  0  0  0  0  0  0  0
  -28.7421   -9.3158   -7.2633 C   0  0  0  0  0  0  0  0  0  0  0  0
  -28.5524   -8.5170   -6.1257 C   0  0  0  0  0  0  0  0  0  0  0  0
  -29.5632   -7.6380   -5.7216 C   0  0  0  0  0  0  0  0  0  0  0  0
  -30.7610   -7.5681   -6.4291 C   0  0  0  0  0  0  0  0  0  0  0  0
  -30.9407   -8.3652   -7.5611 C   0  0  0  0  0  0  0  0  0  0  0  0
  -29.2616  -10.0514  -10.1210 C   0  0  0  0  0  0  0  0  0  0  0  0
  -30.2517   -9.9583   -9.1052 O   0  0  0  0  0  0  0  0  0  0  0  0
  -26.0336   -1.2663  -10.0563 N   0  0  0  0  0  0  0  0  0  0  0  0
  -25.7623   -1.6117  -11.4305 C   0  0  0  0  0  0  0  0  0  0  0  0
  -26.4283   -2.4427  -12.0271 O   0  0  0  0  0  0  0  0  0  0  0  0
  -25.4930   -0.5383   -9.6111 H   0  0  0  0  0  0  0  0  0  0  0  0
  -24.6758   -0.8857  -12.1178 C   0  0  0  0  0  0  0  0  0  0  0  0
  -24.5326    0.4967  -12.0329 C   0  0  0  0  0  0  0  0  0  0  0  0
  -23.4798    1.1124  -12.7136 C   0  0  0  0  0  0  0  0  0  0  0  0
  -22.5506    0.3825  -13.4763 C   0  0  0  0  0  0  0  0  0  0  0  0
  -22.6982   -1.0062  -13.5196 C   0  0  0  0  0  0  0  0  0  0  0  0
  -23.7486   -1.6381  -12.8493 C   0  0  0  0  0  0  0  0  0  0  0  0
  -21.5078    1.0545  -14.0860 N   0  0  0  0  0  0  0  0  0  0  0  0
  -20.6837    0.4188  -15.1286 C   0  0  0  0  0  0  0  0  0  0  0  0
  -19.2953    1.1058  -15.1529 C   0  0  0  0  0  0  0  0  0  0  0  0
  -19.3818    2.5711  -15.3610 N   0  0  0  0  0  0  0  0  0  0  0  0
  -18.0529    3.1759  -15.2886 C   0  0  0  0  0  0  0  0  0  0  0  0
  -20.2722    3.1686  -14.3397 C   0  0  0  0  0  0  0  0  0  0  0  0
  -21.6670    2.5063  -14.3058 C   0  0  0  0  0  0  0  0  0  0  0  0
 24 25  1  0  0  0
 25 18  1  0  0  0
 18 19  1  0  0  0
 18 23  2  0  0  0
 19 20  2  0  0  0
 20 21  1  0  0  0
 21 15  1  0  0  0
 21 22  2  0  0  0
 15 16  2  0  0  0
 15 17  2  0  0  0
 15 13  1  0  0  0
 13  7  1  0  0  0
 13 14  1  0  0  0
  7  8  1  0  0  0
  7 12  2  0  0  0
  8  9  2  0  0  0
  9 10  1  0  0  0
 10 11  2  0  0  0
 11  1  1  0  0  0
 11 12  1  0  0  0
  1  2  1  0  0  0
  1  5  2  0  0  0
  2  3  2  0  0  0
  3 26  1  0  0  0
  3  4  1  0  0  0
 26 27  1  0  0  0
 26 29  1  0  0  0
 27 28  2  0  0  0
 27 30  1  0  0  0
 30 31  1  0  0  0
 30 35  2  0  0  0
 31 32  2  0  0  0
 32 33  1  0  0  0
 33 36  1  0  0  0
 33 34  2  0  0  0
 36 37  1  0  0  0
 36 42  1  0  0  0
 37 38  1  0  0  0
 38 39  1  0  0  0
 39 40  1  0  0  0
 39 41  1  0  0  0
 41 42  1  0  0  0
 34 35  1  0  0  0
  4  5  1  0  0  0
  4  6  1  0  0  0
 22 23  1  0  0  0
M  END
> <minimizedAffinity>
-10.85718

$$$$
