CHEMBL3946018


 35 39  0  0  0  0  0  0  0  0999 V2000
  -28.3202   -5.6496   -7.8985 C   0  0  0  0  0  0  0  0  0  0  0  0
  -29.0905   -6.3167   -6.9467 C   0  0  0  0  0  0  0  0  0  0  0  0
  -29.7039   -5.6127   -5.8881 C   0  0  0  0  0  0  0  0  0  0  0  0
  -30.3574   -6.2103   -4.8017 C   0  0  0  0  0  0  0  0  0  0  0  0
  -30.8784   -5.4721   -3.8043 N   0  0  0  0  0  0  0  0  0  0  0  0
  -30.7770   -4.1470   -3.9005 C   0  0  0  0  0  0  0  0  0  0  0  0
  -30.2016   -3.4814   -4.8979 N   0  0  0  0  0  0  0  0  0  0  0  0
  -29.6600   -4.2161   -5.8693 C   0  0  0  0  0  0  0  0  0  0  0  0
  -29.0027   -3.5616   -6.8920 C   0  0  0  0  0  0  0  0  0  0  0  0
  -28.2864   -4.2488   -7.8800 C   0  0  0  0  0  0  0  0  0  0  0  0
  -27.7618   -7.7345   -8.8599 C   0  0  0  0  0  0  0  0  0  0  0  0
  -27.5799   -6.3162   -8.8425 O   0  0  0  0  0  0  0  0  0  0  0  0
  -30.4586   -7.6299   -4.7498 N   0  0  0  0  0  0  0  0  0  0  0  0
  -31.1729   -7.9410   -5.4005 H   0  0  0  0  0  0  0  0  0  0  0  0
  -29.3963   -8.5524   -4.6545 C   0  0  0  0  0  0  0  0  0  0  0  0
  -28.4902   -8.5381   -3.5876 C   0  0  0  0  0  0  0  0  0  0  0  0
  -27.4357   -9.4448   -3.5201 C   0  0  0  0  0  0  0  0  0  0  0  0
  -27.2976  -10.4266   -4.4926 C   0  0  0  0  0  0  0  0  0  0  0  0
  -25.9490  -11.4960   -4.3676 Cl  0  0  0  0  0  0  0  0  0  0  0  0
  -28.2415  -10.5148   -5.5196 C   0  0  0  0  0  0  0  0  0  0  0  0
  -28.1702  -11.7407   -6.7356 Cl  0  0  0  0  0  0  0  0  0  0  0  0
  -29.2909   -9.5895   -5.5929 C   0  0  0  0  0  0  0  0  0  0  0  0
  -27.5227   -3.6123   -8.8289 O   0  0  0  0  0  0  0  0  0  0  0  0
  -27.7978   -2.2114   -8.9931 C   0  0  0  0  0  0  0  0  0  0  0  0
  -27.1674   -1.6525  -10.2122 C   0  0  0  0  0  0  0  0  0  0  0  0
  -27.8895   -1.1919  -11.2431 N   0  0  0  0  0  0  0  0  0  0  0  0
  -26.9144   -0.7834  -12.1504 O   0  0  0  0  0  0  0  0  0  0  0  0
  -25.7036   -1.0565  -11.5762 C   0  0  0  0  0  0  0  0  0  0  0  0
  -25.8079   -1.6279  -10.3968 N   0  0  0  0  0  0  0  0  0  0  0  0
  -24.5179   -0.6437  -12.3094 C   0  0  0  0  0  0  0  0  0  0  0  0
  -23.6841   -1.5772  -12.9418 C   0  0  0  0  0  0  0  0  0  0  0  0
  -22.5897   -1.1541  -13.6969 C   0  0  0  0  0  0  0  0  0  0  0  0
  -22.3131    0.2055  -13.8219 C   0  0  0  0  0  0  0  0  0  0  0  0
  -23.1206    1.1443  -13.1835 C   0  0  0  0  0  0  0  0  0  0  0  0
  -24.2169    0.7218  -12.4302 C   0  0  0  0  0  0  0  0  0  0  0  0
 11 12  1  0  0  0
 12  1  1  0  0  0
  1  2  1  0  0  0
  1 10  2  0  0  0
  2  3  2  0  0  0
  3  4  1  0  0  0
  3  8  1  0  0  0
  4 13  1  0  0  0
  4  5  2  0  0  0
 13 15  1  0  0  0
 13 14  1  0  0  0
 15 16  1  0  0  0
 15 22  2  0  0  0
 16 17  2  0  0  0
 17 18  1  0  0  0
 18 19  1  0  0  0
 18 20  2  0  0  0
 20 21  1  0  0  0
 20 22  1  0  0  0
  5  6  1  0  0  0
  6  7  2  0  0  0
  7  8  1  0  0  0
  8  9  2  0  0  0
  9 10  1  0  0  0
 10 23  1  0  0  0
 23 24  1  0  0  0
 24 25  1  0  0  0
 25 26  2  0  0  0
 25 29  1  0  0  0
 26 27  1  0  0  0
 27 28  1  0  0  0
 28 30  1  0  0  0
 28 29  2  0  0  0
 30 31  1  0  0  0
 30 35  2  0  0  0
 31 32  2  0  0  0
 32 33  1  0  0  0
 33 34  2  0  0  0
 34 35  1  0  0  0
M  END
> <minimizedAffinity>
-9.08589

$$$$
