CHEMBL3908068


 36 39  0  0  0  0  0  0  0  0999 V2000
  -14.6806    0.4884  -14.0178 N   0  0  0  0  0  0  0  0  0  0  0  0
  -14.8630   -0.8691  -13.5443 C   0  0  0  0  0  0  0  0  0  0  0  0
  -15.7853   -1.0438  -12.5220 C   0  0  0  0  0  0  0  0  0  0  0  0
  -15.6394   -2.0413  -11.5852 C   0  0  0  0  0  0  0  0  0  0  0  0
  -14.7838   -3.0785  -11.7906 C   0  0  0  0  0  0  0  0  0  0  0  0
  -14.7040   -3.9224  -10.7576 N   0  0  0  0  0  0  0  0  0  0  0  0
  -14.1434   -5.1080  -11.0028 C   0  0  0  0  0  0  0  0  0  0  0  0
  -13.7368   -5.4737  -12.2687 C   0  0  0  0  0  0  0  0  0  0  0  0
  -13.6797   -4.5517  -13.2978 N   0  0  0  0  0  0  0  0  0  0  0  0
  -14.1640   -3.2625  -13.0489 C   0  0  0  0  0  0  0  0  0  0  0  0
  -14.1426   -2.0585  -13.8750 C   0  0  0  0  0  0  0  0  0  0  0  0
  -13.5516   -6.9084  -12.4738 C   0  0  0  0  0  0  0  0  0  0  0  0
  -14.4838   -7.9021  -12.8787 C   0  0  0  0  0  0  0  0  0  0  0  0
  -14.0197   -9.1498  -12.7203 N   0  0  0  0  0  0  0  0  0  0  0  0
  -12.7932   -8.9611  -12.2055 N   0  0  0  0  0  0  0  0  0  0  0  0
  -11.8281  -10.0355  -12.1843 C   0  0  0  0  0  0  0  0  0  0  0  0
  -12.5510   -7.6568  -11.8736 C   0  0  0  0  0  0  0  0  0  0  0  0
  -15.7418    1.1474  -14.7896 C   0  0  0  0  0  0  0  0  0  0  0  0
  -17.1266    0.8744  -14.5700 C   0  0  0  0  0  0  0  0  0  0  0  0
  -18.1586    1.6919  -15.0552 C   0  0  0  0  0  0  0  0  0  0  0  0
  -17.8410    2.7510  -15.8888 C   0  0  0  0  0  0  0  0  0  0  0  0
  -16.5156    2.9890  -16.2292 C   0  0  0  0  0  0  0  0  0  0  0  0
  -15.4865    2.1913  -15.6969 C   0  0  0  0  0  0  0  0  0  0  0  0
  -19.4976    1.5824  -14.8050 O   0  0  0  0  0  0  0  0  0  0  0  0
  -20.3742    2.6204  -15.2190 C   0  0  0  0  0  0  0  0  0  0  0  0
  -16.1170    3.9890  -17.0797 O   0  0  0  0  0  0  0  0  0  0  0  0
  -14.9386    3.7069  -17.8316 C   0  0  0  0  0  0  0  0  0  0  0  0
  -13.7685    1.3962  -13.2362 C   0  0  0  0  0  0  0  0  0  0  0  0
  -12.4986    1.8561  -14.0226 C   0  0  0  0  0  0  0  0  0  0  0  0
  -11.2658    0.9801  -13.6580 C   0  0  0  0  0  0  0  0  0  0  0  0
  -10.8042   -1.1911  -12.8043 C   0  0  0  0  0  0  0  0  0  0  0  0
  -11.6216   -0.0267  -12.7074 O   0  0  0  0  0  0  0  0  0  0  0  0
  -12.1847    3.2769  -13.9187 O   0  0  0  0  0  0  0  0  0  0  0  0
  -12.4785    4.1077  -14.9469 C   0  0  0  0  0  0  0  0  0  0  0  0
  -11.5596    3.8954  -16.1129 C   0  0  0  0  0  0  0  0  0  0  0  0
  -13.3722    4.9499  -14.9377 O   0  0  0  0  0  0  0  0  0  0  0  0
 31 32  1  0  0  0
 32 30  1  0  0  0
 30 29  1  0  0  0
 29 28  1  0  0  0
 29 33  1  0  0  0
 28  1  1  0  0  0
  1 18  1  0  0  0
  1  2  1  0  0  0
 18 19  1  0  0  0
 18 23  2  0  0  0
 19 20  2  0  0  0
 20 24  1  0  0  0
 20 21  1  0  0  0
 24 25  1  0  0  0
 21 22  2  0  0  0
 22 26  1  0  0  0
 22 23  1  0  0  0
 26 27  1  0  0  0
  2  3  1  0  0  0
  2 11  2  0  0  0
  3  4  2  0  0  0
  4  5  1  0  0  0
  5  6  1  0  0  0
  5 10  2  0  0  0
  6  7  2  0  0  0
  7  8  1  0  0  0
  8 12  1  0  0  0
  8  9  2  0  0  0
 12 13  1  0  0  0
 12 17  2  0  0  0
 13 14  2  0  0  0
 14 15  1  0  0  0
 15 16  1  0  0  0
 15 17  1  0  0  0
  9 10  1  0  0  0
 10 11  1  0  0  0
 33 34  1  0  0  0
 34 35  1  0  0  0
 34 36  2  0  0  0
M  END
> <minimizedAffinity>
-7.11637

$$$$
