CHEMBL3694723


 34 37  0  0  0  0  0  0  0  0999 V2000
  -15.2054   -0.6239  -13.7995 C   0  0  0  0  0  0  0  0  0  0  0  0
  -14.4330   -1.7152  -14.4062 C   0  0  0  0  0  0  0  0  0  0  0  0
  -14.2173   -2.8531  -13.7264 C   0  0  0  0  0  0  0  0  0  0  0  0
  -14.6933   -2.9890  -12.4185 N   0  0  0  0  0  0  0  0  0  0  0  0
  -14.5485   -4.0150  -11.4804 C   0  0  0  0  0  0  0  0  0  0  0  0
  -15.3167   -3.5872  -10.4074 C   0  0  0  0  0  0  0  0  0  0  0  0
  -15.8651   -2.3513  -10.6164 N   0  0  0  0  0  0  0  0  0  0  0  0
  -15.4575   -1.9942  -11.8130 C   0  0  0  0  0  0  0  0  0  0  0  0
  -15.6913   -0.7934  -12.5444 C   0  0  0  0  0  0  0  0  0  0  0  0
  -17.0083    2.0539  -15.4899 C   0  0  0  0  0  0  0  0  0  0  0  0
  -16.0271    2.9370  -15.8631 C   0  0  0  0  0  0  0  0  0  0  0  0
  -14.7517    2.5774  -15.5050 C   0  0  0  0  0  0  0  0  0  0  0  0
  -14.4557    1.4452  -14.8369 N   0  0  0  0  0  0  0  0  0  0  0  0
  -15.4949    0.6445  -14.5224 C   0  0  0  0  0  0  0  0  0  0  0  0
  -16.7722    0.9122  -14.8279 N   0  0  0  0  0  0  0  0  0  0  0  0
  -19.1930    2.3144  -14.7045 C   0  0  0  0  0  0  0  0  0  0  0  0
  -18.3070    2.3853  -15.8214 O   0  0  0  0  0  0  0  0  0  0  0  0
  -13.7151   -5.2231  -11.6064 C   0  0  0  0  0  0  0  0  0  0  0  0
  -12.6934   -5.4773  -10.6852 C   0  0  0  0  0  0  0  0  0  0  0  0
  -11.8847   -6.5999  -10.8014 C   0  0  0  0  0  0  0  0  0  0  0  0
  -12.1386   -7.5368  -11.7962 C   0  0  0  0  0  0  0  0  0  0  0  0
  -13.2049   -7.3752  -12.6827 C   0  0  0  0  0  0  0  0  0  0  0  0
  -13.9686   -6.1941  -12.6033 C   0  0  0  0  0  0  0  0  0  0  0  0
  -13.5514   -8.3612  -13.6425 N   0  0  0  0  0  0  0  0  0  0  0  0
  -12.9029   -8.5850  -14.8353 C   0  0  0  0  0  0  0  0  0  0  0  0
  -11.9295   -7.9838  -15.2812 O   0  0  0  0  0  0  0  0  0  0  0  0
  -13.4876   -9.5848  -15.5856 N   0  0  0  0  0  0  0  0  0  0  0  0
  -14.3161   -8.9747  -13.4129 H   0  0  0  0  0  0  0  0  0  0  0  0
  -13.9112  -10.3434  -15.0716 H   0  0  0  0  0  0  0  0  0  0  0  0
  -12.8796   -9.9165  -16.8839 C   0  0  0  0  0  0  0  0  0  0  0  0
  -13.6053   -9.3884  -18.1314 C   0  0  0  0  0  0  0  0  0  0  0  0
  -14.2555   -8.2271  -17.8901 F   0  0  0  0  0  0  0  0  0  0  0  0
  -12.7017   -9.1321  -19.1119 F   0  0  0  0  0  0  0  0  0  0  0  0
  -14.4914  -10.2750  -18.6295 F   0  0  0  0  0  0  0  0  0  0  0  0
 16 17  1  0  0  0
 17 10  1  0  0  0
 10 11  1  0  0  0
 10 15  2  0  0  0
 11 12  2  0  0  0
 12 13  1  0  0  0
 13 14  2  0  0  0
 14  1  1  0  0  0
 14 15  1  0  0  0
  1  2  1  0  0  0
  1  9  2  0  0  0
  2  3  2  0  0  0
  3  4  1  0  0  0
  4  5  1  0  0  0
  4  8  1  0  0  0
  5 18  1  0  0  0
  5  6  2  0  0  0
 18 19  1  0  0  0
 18 23  2  0  0  0
 19 20  2  0  0  0
 20 21  1  0  0  0
 21 22  2  0  0  0
 22 24  1  0  0  0
 22 23  1  0  0  0
 24 25  1  0  0  0
 24 28  1  0  0  0
 25 26  2  0  0  0
 25 27  1  0  0  0
 27 30  1  0  0  0
 27 29  1  0  0  0
 30 31  1  0  0  0
 31 32  1  0  0  0
 31 33  1  0  0  0
 31 34  1  0  0  0
  6  7  1  0  0  0
  7  8  2  0  0  0
  8  9  1  0  0  0
M  END
> <minimizedAffinity>
-7.33990

$$$$
