CHEMBL465217


 37 41  0  0  0  0  0  0  0  0999 V2000
  -14.1928    4.0558  -17.9691 C   0  0  0  0  0  0  0  0  0  0  0  0
  -15.5644    3.8912  -17.6693 C   0  0  0  0  0  0  0  0  0  0  0  0
  -15.9782    3.0998  -16.5790 C   0  0  0  0  0  0  0  0  0  0  0  0
  -15.0111    2.4514  -15.8178 C   0  0  0  0  0  0  0  0  0  0  0  0
  -13.6610    2.6850  -16.1109 C   0  0  0  0  0  0  0  0  0  0  0  0
  -13.2170    3.4828  -17.1607 C   0  0  0  0  0  0  0  0  0  0  0  0
  -12.8247    1.9153  -15.3169 N   0  0  0  0  0  0  0  0  0  0  0  0
  -13.5658    0.9938  -14.5932 C   0  0  0  0  0  0  0  0  0  0  0  0
  -13.1423   -0.0613  -14.1889 O   0  0  0  0  0  0  0  0  0  0  0  0
  -15.0085    1.4702  -14.7071 C   0  0  0  0  0  0  0  0  0  0  0  0
  -15.9771    0.9600  -13.9078 C   0  0  0  0  0  0  0  0  0  0  0  0
  -11.8328    1.8053  -15.4746 H   0  0  0  0  0  0  0  0  0  0  0  0
  -17.4063    1.1165  -14.2695 C   0  0  0  0  0  0  0  0  0  0  0  0
  -18.0871    2.2693  -13.8433 C   0  0  0  0  0  0  0  0  0  0  0  0
  -19.4251    2.4763  -14.1910 C   0  0  0  0  0  0  0  0  0  0  0  0
  -20.0901    1.5422  -14.9794 C   0  0  0  0  0  0  0  0  0  0  0  0
  -19.4228    0.3996  -15.4227 C   0  0  0  0  0  0  0  0  0  0  0  0
  -18.0841    0.1867  -15.0665 C   0  0  0  0  0  0  0  0  0  0  0  0
  -13.6963    4.7736  -19.1760 C   0  0  0  0  0  0  0  0  0  0  0  0
  -12.9852    4.2566  -20.0189 O   0  0  0  0  0  0  0  0  0  0  0  0
  -13.4405    6.9220  -18.3409 C   0  0  0  0  0  0  0  0  0  0  0  0
  -14.1623    6.0481  -19.2017 O   0  0  0  0  0  0  0  0  0  0  0  0
  -15.7981    0.2166  -12.7404 N   0  0  0  0  0  0  0  0  0  0  0  0
  -15.7985    0.7355  -11.8708 H   0  0  0  0  0  0  0  0  0  0  0  0
  -15.7638   -1.1899  -12.6544 C   0  0  0  0  0  0  0  0  0  0  0  0
  -15.8830   -1.9875  -13.7997 C   0  0  0  0  0  0  0  0  0  0  0  0
  -16.1464   -3.3599  -13.7097 C   0  0  0  0  0  0  0  0  0  0  0  0
  -16.2434   -3.9940  -12.4658 C   0  0  0  0  0  0  0  0  0  0  0  0
  -16.0121   -3.2208  -11.3178 C   0  0  0  0  0  0  0  0  0  0  0  0
  -15.7781   -1.8354  -11.4130 C   0  0  0  0  0  0  0  0  0  0  0  0
  -16.6518   -5.4524  -12.3493 C   0  0  0  0  0  0  0  0  0  0  0  0
  -15.5654   -6.3940  -12.5829 N   0  0  0  0  0  0  0  0  0  0  0  0
  -15.3826   -7.1039  -13.8231 C   0  0  0  0  0  0  0  0  0  0  0  0
  -14.2914   -8.1100  -13.4980 C   0  0  0  0  0  0  0  0  0  0  0  0
  -13.4796   -7.4111  -12.4181 C   0  0  0  0  0  0  0  0  0  0  0  0
  -14.5390   -6.6305  -11.6801 C   0  0  0  0  0  0  0  0  0  0  0  0
  -14.4552   -6.2364  -10.5320 O   0  0  0  0  0  0  0  0  0  0  0  0
 21 22  1  0  0  0
 22 19  1  0  0  0
 19 20  2  0  0  0
 19  1  1  0  0  0
  1  2  1  0  0  0
  1  6  2  0  0  0
  2  3  2  0  0  0
  3  4  1  0  0  0
  4  5  2  0  0  0
  4 10  1  0  0  0
  5  6  1  0  0  0
  5  7  1  0  0  0
  7  8  1  0  0  0
  7 12  1  0  0  0
  8  9  2  0  0  0
  8 10  1  0  0  0
 10 11  2  0  0  0
 11 23  1  0  0  0
 11 13  1  0  0  0
 23 25  1  0  0  0
 23 24  1  0  0  0
 25 26  1  0  0  0
 25 30  2  0  0  0
 26 27  2  0  0  0
 27 28  1  0  0  0
 28 31  1  0  0  0
 28 29  2  0  0  0
 31 32  1  0  0  0
 32 33  1  0  0  0
 32 36  1  0  0  0
 33 34  1  0  0  0
 34 35  1  0  0  0
 35 36  1  0  0  0
 36 37  2  0  0  0
 29 30  1  0  0  0
 13 14  1  0  0  0
 13 18  2  0  0  0
 14 15  2  0  0  0
 15 16  1  0  0  0
 16 17  2  0  0  0
 17 18  1  0  0  0
M  END
> <minimizedAffinity>
-8.99038

$$$$
