CHEMBL117697


 20 22  0  0  0  0  0  0  0  0999 V2000
  -28.6338   -3.5869   -4.6388 N   0  0  0  0  0  0  0  0  0  0  0  0
  -27.7597   -4.0880   -4.7503 H   0  0  0  0  0  0  0  0  0  0  0  0
  -29.6957   -4.5329   -4.6176 C   0  0  0  0  0  0  0  0  0  0  0  0
  -30.6206   -4.4814   -3.6439 N   0  0  0  0  0  0  0  0  0  0  0  0
  -31.6095   -5.3784   -3.7050 C   0  0  0  0  0  0  0  0  0  0  0  0
  -31.7673   -6.3245   -4.6368 N   0  0  0  0  0  0  0  0  0  0  0  0
  -30.8341   -6.3873   -5.5890 C   0  0  0  0  0  0  0  0  0  0  0  0
  -30.9468   -7.3700   -6.5653 C   0  0  0  0  0  0  0  0  0  0  0  0
  -30.0027   -7.5142   -7.5859 C   0  0  0  0  0  0  0  0  0  0  0  0
  -28.9176   -6.6518   -7.6443 C   0  0  0  0  0  0  0  0  0  0  0  0
  -28.7873   -5.6534   -6.6821 C   0  0  0  0  0  0  0  0  0  0  0  0
  -29.7440   -5.5072   -5.6410 C   0  0  0  0  0  0  0  0  0  0  0  0
  -27.7619   -1.0133   -7.1806 C   0  0  0  0  0  0  0  0  0  0  0  0
  -28.1954    0.1593   -6.5688 C   0  0  0  0  0  0  0  0  0  0  0  0
  -28.7797    0.1009   -5.3010 C   0  0  0  0  0  0  0  0  0  0  0  0
  -28.9455   -1.1271   -4.6483 C   0  0  0  0  0  0  0  0  0  0  0  0
  -28.5538   -2.3187   -5.2603 C   0  0  0  0  0  0  0  0  0  0  0  0
  -27.9254   -2.2328   -6.5146 C   0  0  0  0  0  0  0  0  0  0  0  0
  -27.6526   -2.1360   -9.2768 C   0  0  0  0  0  0  0  0  0  0  0  0
  -27.1731   -1.1152   -8.4116 O   0  0  0  0  0  0  0  0  0  0  0  0
 19 20  1  0  0  0
 20 13  1  0  0  0
 13 14  1  0  0  0
 13 18  2  0  0  0
 14 15  2  0  0  0
 15 16  1  0  0  0
 16 17  2  0  0  0
 17  1  1  0  0  0
 17 18  1  0  0  0
  1  3  1  0  0  0
  1  2  1  0  0  0
  3  4  1  0  0  0
  3 12  2  0  0  0
  4  5  2  0  0  0
  5  6  1  0  0  0
  6  7  2  0  0  0
  7  8  1  0  0  0
  7 12  1  0  0  0
  8  9  2  0  0  0
  9 10  1  0  0  0
 10 11  2  0  0  0
 11 12  1  0  0  0
M  END
> <minimizedAffinity>
-7.31511

$$$$
