CHEMBL189199


 39 42  0  0  0  0  0  0  0  0999 V2000
  -22.9376   11.2312  -15.4385 C   0  0  0  0  0  0  0  0  0  0  0  0
  -23.8389   11.1136  -16.5908 N   0  0  0  0  0  0  0  0  0  0  0  0
  -25.2105   11.2687  -16.3196 C   0  0  0  0  0  0  0  0  0  0  0  0
  -25.7792   12.5057  -16.0062 C   0  0  0  0  0  0  0  0  0  0  0  0
  -27.1561   12.6316  -15.8023 C   0  0  0  0  0  0  0  0  0  0  0  0
  -28.0022   11.5236  -15.8816 C   0  0  0  0  0  0  0  0  0  0  0  0
  -27.4339   10.2879  -16.2150 C   0  0  0  0  0  0  0  0  0  0  0  0
  -26.0601   10.1599  -16.4188 C   0  0  0  0  0  0  0  0  0  0  0  0
  -29.3916   11.5864  -15.7191 N   0  0  0  0  0  0  0  0  0  0  0  0
  -29.9200   11.6164  -16.5797 H   0  0  0  0  0  0  0  0  0  0  0  0
  -30.1473   11.4850  -14.5852 C   0  0  0  0  0  0  0  0  0  0  0  0
  -29.1171   11.7226  -13.1766 S   0  0  0  0  0  0  0  0  0  0  0  0
  -31.4187   11.2446  -14.5506 N   0  0  0  0  0  0  0  0  0  0  0  0
  -29.1842   13.0618  -13.2166 H   0  0  0  0  0  0  0  0  0  0  0  0
  -32.1952   11.1501  -13.3888 C   0  0  0  0  0  0  0  0  0  0  0  0
  -32.9425   12.2193  -12.8837 C   0  0  0  0  0  0  0  0  0  0  0  0
  -33.7235   12.0712  -11.7384 C   0  0  0  0  0  0  0  0  0  0  0  0
  -33.8314   10.8259  -11.1278 C   0  0  0  0  0  0  0  0  0  0  0  0
  -33.1578    9.7282  -11.6606 C   0  0  0  0  0  0  0  0  0  0  0  0
  -32.3424    9.8947  -12.7841 C   0  0  0  0  0  0  0  0  0  0  0  0
  -23.2125   11.4888  -17.8099 C   0  0  0  0  0  0  0  0  0  0  0  0
  -23.9567   11.7943  -18.9354 C   0  0  0  0  0  0  0  0  0  0  0  0
  -23.2699   12.2108  -20.0486 C   0  0  0  0  0  0  0  0  0  0  0  0
  -21.9359   12.3323  -20.0917 N   0  0  0  0  0  0  0  0  0  0  0  0
  -21.2767   11.9880  -18.9803 C   0  0  0  0  0  0  0  0  0  0  0  0
  -21.8718   11.5629  -17.8537 N   0  0  0  0  0  0  0  0  0  0  0  0
  -19.8891   12.1105  -19.0122 N   0  0  0  0  0  0  0  0  0  0  0  0
  -19.6398   13.0870  -18.9316 H   0  0  0  0  0  0  0  0  0  0  0  0
  -18.9898   11.3381  -19.7642 C   0  0  0  0  0  0  0  0  0  0  0  0
  -19.4896   10.4204  -20.6903 C   0  0  0  0  0  0  0  0  0  0  0  0
  -18.6208    9.6698  -21.4834 C   0  0  0  0  0  0  0  0  0  0  0  0
  -17.2393    9.8111  -21.3417 C   0  0  0  0  0  0  0  0  0  0  0  0
  -16.7101   10.6935  -20.3934 C   0  0  0  0  0  0  0  0  0  0  0  0
  -17.5991   11.4497  -19.6150 C   0  0  0  0  0  0  0  0  0  0  0  0
  -15.2255   10.8005  -20.1735 C   0  0  0  0  0  0  0  0  0  0  0  0
  -14.4860    9.2360  -19.7273 S   0  0  0  0  0  0  0  0  0  0  0  0
  -12.9928    9.6563  -18.8633 C   0  0  0  0  0  0  0  0  0  0  0  0
  -15.3688    8.6170  -18.7520 O   0  0  0  0  0  0  0  0  0  0  0  0
  -14.1241    8.5112  -20.9315 O   0  0  0  0  0  0  0  0  0  0  0  0
  1  2  1  0  0  0
  2  3  1  0  0  0
  2 21  1  0  0  0
  3  4  1  0  0  0
  3  8  2  0  0  0
  4  5  2  0  0  0
  5  6  1  0  0  0
  6  9  1  0  0  0
  6  7  2  0  0  0
  9 11  1  0  0  0
  9 10  1  0  0  0
 11 12  1  0  0  0
 11 13  2  0  0  0
 12 14  1  0  0  0
 13 15  1  0  0  0
 15 16  1  0  0  0
 15 20  2  0  0  0
 16 17  2  0  0  0
 17 18  1  0  0  0
 18 19  2  0  0  0
 19 20  1  0  0  0
  7  8  1  0  0  0
 21 22  1  0  0  0
 21 26  2  0  0  0
 22 23  2  0  0  0
 23 24  1  0  0  0
 24 25  2  0  0  0
 25 27  1  0  0  0
 25 26  1  0  0  0
 27 29  1  0  0  0
 27 28  1  0  0  0
 29 30  1  0  0  0
 29 34  2  0  0  0
 30 31  2  0  0  0
 31 32  1  0  0  0
 32 33  2  0  0  0
 33 35  1  0  0  0
 33 34  1  0  0  0
 35 36  1  0  0  0
 36 37  1  0  0  0
 36 38  2  0  0  0
 36 39  2  0  0  0
M  END
> <minimizedAffinity>
-6.57527

$$$$
