CHEMBL1929557


 33 36  0  0  0  0  0  0  0  0999 V2000
  -28.9146   -4.9941   -6.8861 C   0  0  0  0  0  0  0  0  0  0  0  0
  -28.5378   -4.4689   -8.1037 C   0  0  0  0  0  0  0  0  0  0  0  0
  -28.1733   -3.1020   -7.9006 C   0  0  0  0  0  0  0  0  0  0  0  0
  -27.9197   -1.9857   -8.7105 C   0  0  0  0  0  0  0  0  0  0  0  0
  -27.7517   -0.7861   -8.0975 N   0  0  0  0  0  0  0  0  0  0  0  0
  -27.8531   -0.6953   -6.7610 C   0  0  0  0  0  0  0  0  0  0  0  0
  -27.9130    0.5792   -6.2536 N   0  0  0  0  0  0  0  0  0  0  0  0
  -27.9878   -1.7175   -5.9038 N   0  0  0  0  0  0  0  0  0  0  0  0
  -28.1677   -2.8921   -6.5343 C   0  0  0  0  0  0  0  0  0  0  0  0
  -28.5059   -4.0795   -5.9175 N   0  0  0  0  0  0  0  0  0  0  0  0
  -27.6178    1.2891   -6.9094 H   0  0  0  0  0  0  0  0  0  0  0  0
  -27.7338    0.6715   -5.2688 H   0  0  0  0  0  0  0  0  0  0  0  0
  -28.6487   -4.1622   -4.9313 H   0  0  0  0  0  0  0  0  0  0  0  0
  -27.9953   -2.0529  -10.1082 N   0  0  0  0  0  0  0  0  0  0  0  0
  -28.9151   -2.2618  -10.4707 H   0  0  0  0  0  0  0  0  0  0  0  0
  -26.9956   -1.7871  -11.0485 C   0  0  0  0  0  0  0  0  0  0  0  0
  -25.7032   -1.4199  -10.6508 C   0  0  0  0  0  0  0  0  0  0  0  0
  -24.7109   -1.1466  -11.5922 C   0  0  0  0  0  0  0  0  0  0  0  0
  -25.0157   -1.2004  -12.9486 C   0  0  0  0  0  0  0  0  0  0  0  0
  -23.7996   -0.8454  -14.1121 Cl  0  0  0  0  0  0  0  0  0  0  0  0
  -26.3023   -1.5324  -13.3672 C   0  0  0  0  0  0  0  0  0  0  0  0
  -27.2875   -1.8264  -12.4190 C   0  0  0  0  0  0  0  0  0  0  0  0
  -29.7973   -6.1848   -6.5558 C   0  0  0  0  0  0  0  0  0  0  0  0
  -28.3502   -8.7688   -8.9841 C   0  0  0  0  0  0  0  0  0  0  0  0
  -29.3692   -9.7205   -9.0111 C   0  0  0  0  0  0  0  0  0  0  0  0
  -30.5820   -9.4625   -8.3913 C   0  0  0  0  0  0  0  0  0  0  0  0
  -30.7959   -8.2671   -7.6866 C   0  0  0  0  0  0  0  0  0  0  0  0
  -29.7159   -7.3778   -7.4954 C   0  0  0  0  0  0  0  0  0  0  0  0
  -28.5269   -7.6159   -8.2054 C   0  0  0  0  0  0  0  0  0  0  0  0
  -27.1518   -9.7870  -10.7647 C   0  0  0  0  0  0  0  0  0  0  0  0
  -27.1616   -8.8886   -9.6530 O   0  0  0  0  0  0  0  0  0  0  0  0
  -32.0294   -7.8626   -7.2557 O   0  0  0  0  0  0  0  0  0  0  0  0
  -33.0660   -8.8458   -7.2499 C   0  0  0  0  0  0  0  0  0  0  0  0
 30 31  1  0  0  0
 31 24  1  0  0  0
 24 25  1  0  0  0
 24 29  2  0  0  0
 25 26  2  0  0  0
 26 27  1  0  0  0
 27 32  1  0  0  0
 27 28  2  0  0  0
 32 33  1  0  0  0
 28 23  1  0  0  0
 28 29  1  0  0  0
 23  1  1  0  0  0
  1  2  2  0  0  0
  1 10  1  0  0  0
  2  3  1  0  0  0
  3  4  1  0  0  0
  3  9  2  0  0  0
  4 14  1  0  0  0
  4  5  2  0  0  0
 14 16  1  0  0  0
 14 15  1  0  0  0
 16 17  1  0  0  0
 16 22  2  0  0  0
 17 18  2  0  0  0
 18 19  1  0  0  0
 19 20  1  0  0  0
 19 21  2  0  0  0
 21 22  1  0  0  0
  5  6  1  0  0  0
  6  7  1  0  0  0
  6  8  2  0  0  0
  7 11  1  0  0  0
  7 12  1  0  0  0
  8  9  1  0  0  0
  9 10  1  0  0  0
 10 13  1  0  0  0
M  END
> <minimizedAffinity>
-9.60342

$$$$
