CHEMBL3950069


 33 36  0  0  0  0  0  0  0  0999 V2000
  -29.9570   -6.2494   -5.9993 N   0  0  0  0  0  0  0  0  0  0  0  0
  -29.3731   -4.9785   -6.2501 C   0  0  0  0  0  0  0  0  0  0  0  0
  -29.3670   -3.9518   -5.2975 C   0  0  0  0  0  0  0  0  0  0  0  0
  -28.9335   -2.6683   -5.6274 C   0  0  0  0  0  0  0  0  0  0  0  0
  -28.4449   -2.3866   -6.8889 C   0  0  0  0  0  0  0  0  0  0  0  0
  -28.0585   -1.1304   -7.1674 N   0  0  0  0  0  0  0  0  0  0  0  0
  -27.5611   -0.9276   -8.4083 C   0  0  0  0  0  0  0  0  0  0  0  0
  -27.4405   -1.9385   -9.3499 C   0  0  0  0  0  0  0  0  0  0  0  0
  -27.8579   -3.1995   -9.0782 N   0  0  0  0  0  0  0  0  0  0  0  0
  -28.3651   -3.4224   -7.8489 C   0  0  0  0  0  0  0  0  0  0  0  0
  -28.8356   -4.6870   -7.5136 C   0  0  0  0  0  0  0  0  0  0  0  0
  -26.8353   -1.7019  -10.6446 C   0  0  0  0  0  0  0  0  0  0  0  0
  -27.3913   -1.7104  -11.9451 C   0  0  0  0  0  0  0  0  0  0  0  0
  -26.5010   -1.4062  -12.8924 N   0  0  0  0  0  0  0  0  0  0  0  0
  -25.3668   -1.1960  -12.2000 N   0  0  0  0  0  0  0  0  0  0  0  0
  -24.1627   -0.8013  -12.8881 C   0  0  0  0  0  0  0  0  0  0  0  0
  -25.5122   -1.3672  -10.8546 C   0  0  0  0  0  0  0  0  0  0  0  0
  -31.5359   -9.0288   -7.9895 C   0  0  0  0  0  0  0  0  0  0  0  0
  -30.4696   -9.4596   -8.7658 C   0  0  0  0  0  0  0  0  0  0  0  0
  -29.2567   -8.7996   -8.6565 C   0  0  0  0  0  0  0  0  0  0  0  0
  -28.2202   -9.2102   -9.4007 F   0  0  0  0  0  0  0  0  0  0  0  0
  -29.0813   -7.7280   -7.7815 C   0  0  0  0  0  0  0  0  0  0  0  0
  -30.1207   -7.2806   -6.9598 C   0  0  0  0  0  0  0  0  0  0  0  0
  -31.3548   -7.9500   -7.1054 C   0  0  0  0  0  0  0  0  0  0  0  0
  -33.1374  -10.3945   -6.8819 C   0  0  0  0  0  0  0  0  0  0  0  0
  -32.7923   -9.5723   -7.9918 O   0  0  0  0  0  0  0  0  0  0  0  0
  -30.2806   -6.5371   -4.5736 C   0  0  0  0  0  0  0  0  0  0  0  0
  -29.1834   -7.3615   -3.8374 C   0  0  0  0  0  0  0  0  0  0  0  0
  -29.4951   -8.7636   -3.5329 N   0  0  0  0  0  0  0  0  0  0  0  0
  -30.4714   -8.9348   -3.7871 H   0  0  0  0  0  0  0  0  0  0  0  0
  -28.6315   -9.7462   -4.1902 C   0  0  0  0  0  0  0  0  0  0  0  0
  -29.3413  -10.5399   -5.2865 C   0  0  0  0  0  0  0  0  0  0  0  0
  -27.4163   -9.0182   -4.7638 C   0  0  0  0  0  0  0  0  0  0  0  0
 25 26  1  0  0  0
 26 18  1  0  0  0
 18 19  1  0  0  0
 18 24  2  0  0  0
 19 20  2  0  0  0
 20 21  1  0  0  0
 20 22  1  0  0  0
 22 23  2  0  0  0
 23  1  1  0  0  0
 23 24  1  0  0  0
  1 27  1  0  0  0
  1  2  1  0  0  0
 27 28  1  0  0  0
 28 29  1  0  0  0
 29 31  1  0  0  0
 29 30  1  0  0  0
 31 32  1  0  0  0
 31 33  1  0  0  0
  2  3  1  0  0  0
  2 11  2  0  0  0
  3  4  2  0  0  0
  4  5  1  0  0  0
  5  6  1  0  0  0
  5 10  2  0  0  0
  6  7  2  0  0  0
  7  8  1  0  0  0
  8 12  1  0  0  0
  8  9  2  0  0  0
 12 13  1  0  0  0
 12 17  2  0  0  0
 13 14  2  0  0  0
 14 15  1  0  0  0
 15 16  1  0  0  0
 15 17  1  0  0  0
  9 10  1  0  0  0
 10 11  1  0  0  0
M  END
> <minimizedAffinity>
-8.49293

$$$$
