CHEMBL83279


 30 34  0  0  0  0  0  0  0  0999 V2000
  -25.2015  -11.4391   -6.4872 N   0  0  0  0  0  0  0  0  0  0  0  0
  -25.7570  -11.6975   -7.7217 C   0  0  0  0  0  0  0  0  0  0  0  0
  -26.8318  -10.9872   -7.9430 N   0  0  0  0  0  0  0  0  0  0  0  0
  -27.0055  -10.2883   -6.7843 C   0  0  0  0  0  0  0  0  0  0  0  0
  -27.8897   -9.2418   -6.5472 C   0  0  0  0  0  0  0  0  0  0  0  0
  -27.9500   -8.6084   -5.2908 C   0  0  0  0  0  0  0  0  0  0  0  0
  -27.1337   -9.1106   -4.2632 C   0  0  0  0  0  0  0  0  0  0  0  0
  -26.1859  -10.1346   -4.4885 C   0  0  0  0  0  0  0  0  0  0  0  0
  -26.1123  -10.6678   -5.7856 C   0  0  0  0  0  0  0  0  0  0  0  0
  -21.0646  -11.7750   -6.0329 C   0  0  0  0  0  0  0  0  0  0  0  0
  -21.6055  -11.3343   -7.2377 C   0  0  0  0  0  0  0  0  0  0  0  0
  -22.9815  -11.2050   -7.3589 C   0  0  0  0  0  0  0  0  0  0  0  0
  -23.8084  -11.5062   -6.2665 C   0  0  0  0  0  0  0  0  0  0  0  0
  -23.2810  -11.8897   -5.0364 C   0  0  0  0  0  0  0  0  0  0  0  0
  -21.8948  -12.0429   -4.9359 C   0  0  0  0  0  0  0  0  0  0  0  0
  -28.8136   -7.4148   -5.1659 C   0  0  0  0  0  0  0  0  0  0  0  0
  -28.7249   -6.4081   -6.1386 C   0  0  0  0  0  0  0  0  0  0  0  0
  -29.3067   -5.1612   -5.9581 C   0  0  0  0  0  0  0  0  0  0  0  0
  -30.0656   -4.8925   -4.8218 C   0  0  0  0  0  0  0  0  0  0  0  0
  -30.2405   -5.9020   -3.8777 C   0  0  0  0  0  0  0  0  0  0  0  0
  -29.6153   -7.1528   -4.0421 C   0  0  0  0  0  0  0  0  0  0  0  0
  -30.6552   -3.6796   -4.5520 O   0  0  0  0  0  0  0  0  0  0  0  0
  -30.0445   -2.9821   -3.4586 C   0  0  0  0  0  0  0  0  0  0  0  0
  -28.7675   -2.2567   -3.8841 C   0  0  0  0  0  0  0  0  0  0  0  0
  -28.9881   -1.3558   -5.0389 N   0  0  0  0  0  0  0  0  0  0  0  0
  -29.6768   -0.1097   -4.6612 C   0  0  0  0  0  0  0  0  0  0  0  0
  -29.9243    0.7883   -5.8721 C   0  0  0  0  0  0  0  0  0  0  0  0
  -28.6304    1.0950   -6.6085 C   0  0  0  0  0  0  0  0  0  0  0  0
  -27.8962   -0.1976   -6.9401 C   0  0  0  0  0  0  0  0  0  0  0  0
  -27.7043   -1.0647   -5.6949 C   0  0  0  0  0  0  0  0  0  0  0  0
 10 11  1  0  0  0
 10 15  2  0  0  0
 11 12  2  0  0  0
 12 13  1  0  0  0
 13  1  1  0  0  0
 13 14  2  0  0  0
  1  2  1  0  0  0
  1  9  1  0  0  0
  2  3  2  0  0  0
  3  4  1  0  0  0
  4  5  1  0  0  0
  4  9  2  0  0  0
  5  6  2  0  0  0
  6 16  1  0  0  0
  6  7  1  0  0  0
 16 17  1  0  0  0
 16 21  2  0  0  0
 17 18  2  0  0  0
 18 19  1  0  0  0
 19 22  1  0  0  0
 19 20  2  0  0  0
 22 23  1  0  0  0
 23 24  1  0  0  0
 24 25  1  0  0  0
 25 26  1  0  0  0
 25 30  1  0  0  0
 26 27  1  0  0  0
 27 28  1  0  0  0
 28 29  1  0  0  0
 29 30  1  0  0  0
 20 21  1  0  0  0
  7  8  2  0  0  0
  8  9  1  0  0  0
 14 15  1  0  0  0
M  END
> <minimizedAffinity>
-7.90708

$$$$
