CHEMBL3690527


 36 39  0  0  0  0  0  0  0  0999 V2000
  -29.6578   -7.4129   -5.6878 C   0  0  0  0  0  0  0  0  0  0  0  0
  -28.6412   -7.1904   -4.6279 C   0  0  0  0  0  0  0  0  0  0  0  0
  -28.2835   -5.9295   -4.2957 C   0  0  0  0  0  0  0  0  0  0  0  0
  -29.0522   -4.8722   -4.8078 N   0  0  0  0  0  0  0  0  0  0  0  0
  -29.1357   -3.5044   -4.4820 C   0  0  0  0  0  0  0  0  0  0  0  0
  -30.3754   -3.6257   -3.8361 C   0  0  0  0  0  0  0  0  0  0  0  0
  -31.1784   -4.4632   -4.5955 N   0  0  0  0  0  0  0  0  0  0  0  0
  -30.3141   -5.1580   -5.3194 C   0  0  0  0  0  0  0  0  0  0  0  0
  -30.4418   -6.3666   -6.0478 C   0  0  0  0  0  0  0  0  0  0  0  0
  -30.3939  -12.4644   -8.1907 C   0  0  0  0  0  0  0  0  0  0  0  0
  -30.2265  -11.1316   -7.5389 C   0  0  0  0  0  0  0  0  0  0  0  0
  -29.2224  -10.8977   -6.6222 C   0  0  0  0  0  0  0  0  0  0  0  0
  -29.0150   -9.7155   -6.0196 N   0  0  0  0  0  0  0  0  0  0  0  0
  -29.8641   -8.7278   -6.3487 C   0  0  0  0  0  0  0  0  0  0  0  0
  -30.8817   -8.8541   -7.2238 N   0  0  0  0  0  0  0  0  0  0  0  0
  -31.0481  -10.0506   -7.8006 C   0  0  0  0  0  0  0  0  0  0  0  0
  -32.0737  -10.1295   -8.7431 N   0  0  0  0  0  0  0  0  0  0  0  0
  -32.5738   -9.2436   -8.7321 H   0  0  0  0  0  0  0  0  0  0  0  0
  -32.6925  -10.9149   -8.5830 H   0  0  0  0  0  0  0  0  0  0  0  0
  -28.9289   -2.4024   -5.4925 C   0  0  0  0  0  0  0  0  0  0  0  0
  -29.1516   -1.0619   -5.1628 C   0  0  0  0  0  0  0  0  0  0  0  0
  -28.6765   -0.0433   -5.9948 C   0  0  0  0  0  0  0  0  0  0  0  0
  -27.9956   -0.3453   -7.1773 C   0  0  0  0  0  0  0  0  0  0  0  0
  -27.7957   -1.6678   -7.5678 C   0  0  0  0  0  0  0  0  0  0  0  0
  -28.2833   -2.6848   -6.7266 C   0  0  0  0  0  0  0  0  0  0  0  0
  -27.1077   -2.0372   -8.7542 N   0  0  0  0  0  0  0  0  0  0  0  0
  -27.4143   -1.6349  -10.0372 C   0  0  0  0  0  0  0  0  0  0  0  0
  -28.3006   -0.8567  -10.3807 O   0  0  0  0  0  0  0  0  0  0  0  0
  -26.6272   -2.2583  -10.9810 N   0  0  0  0  0  0  0  0  0  0  0  0
  -26.3258   -2.6694   -8.6490 H   0  0  0  0  0  0  0  0  0  0  0  0
  -25.6742   -2.4504  -10.7057 H   0  0  0  0  0  0  0  0  0  0  0  0
  -26.8620   -1.9662  -12.4031 C   0  0  0  0  0  0  0  0  0  0  0  0
  -25.6451   -1.5057  -13.2207 C   0  0  0  0  0  0  0  0  0  0  0  0
  -25.9444   -1.3494  -14.5304 F   0  0  0  0  0  0  0  0  0  0  0  0
  -25.2211   -0.2963  -12.7713 F   0  0  0  0  0  0  0  0  0  0  0  0
  -24.6023   -2.3552  -13.1212 F   0  0  0  0  0  0  0  0  0  0  0  0
 10 11  1  0  0  0
 11 12  1  0  0  0
 11 16  2  0  0  0
 12 13  2  0  0  0
 13 14  1  0  0  0
 14  1  1  0  0  0
 14 15  2  0  0  0
  1  2  1  0  0  0
  1  9  2  0  0  0
  2  3  2  0  0  0
  3  4  1  0  0  0
  4  5  1  0  0  0
  4  8  1  0  0  0
  5 20  1  0  0  0
  5  6  2  0  0  0
 20 21  1  0  0  0
 20 25  2  0  0  0
 21 22  2  0  0  0
 22 23  1  0  0  0
 23 24  2  0  0  0
 24 26  1  0  0  0
 24 25  1  0  0  0
 26 27  1  0  0  0
 26 30  1  0  0  0
 27 28  2  0  0  0
 27 29  1  0  0  0
 29 32  1  0  0  0
 29 31  1  0  0  0
 32 33  1  0  0  0
 33 34  1  0  0  0
 33 35  1  0  0  0
 33 36  1  0  0  0
  6  7  1  0  0  0
  7  8  2  0  0  0
  8  9  1  0  0  0
 15 16  1  0  0  0
 16 17  1  0  0  0
 17 18  1  0  0  0
 17 19  1  0  0  0
M  END
> <minimizedAffinity>
-9.90910

$$$$
