CHEMBL3909723


 35 37  0  0  0  0  0  0  0  0999 V2000
  -30.0500   -5.2480   -7.2281 C   0  0  0  0  0  0  0  0  0  0  0  0
  -30.6005   -6.3195   -7.2279 C   0  0  0  0  0  0  0  0  0  0  0  0
  -27.8310   -2.5291   -8.5736 C   0  0  0  0  0  0  0  0  0  0  0  0
  -27.9232   -1.6207   -7.5129 C   0  0  0  0  0  0  0  0  0  0  0  0
  -28.6692   -1.9145   -6.3742 C   0  0  0  0  0  0  0  0  0  0  0  0
  -29.3538   -3.1201   -6.2878 C   0  0  0  0  0  0  0  0  0  0  0  0
  -29.3260   -4.0192   -7.3595 C   0  0  0  0  0  0  0  0  0  0  0  0
  -28.5800   -3.7159   -8.5103 C   0  0  0  0  0  0  0  0  0  0  0  0
  -27.2737   -1.4347  -10.7507 C   0  0  0  0  0  0  0  0  0  0  0  0
  -28.2879   -0.7489  -10.8421 O   0  0  0  0  0  0  0  0  0  0  0  0
  -26.9938   -2.2961   -9.6904 N   0  0  0  0  0  0  0  0  0  0  0  0
  -26.0541   -2.6765   -9.6757 H   0  0  0  0  0  0  0  0  0  0  0  0
  -27.4330   -2.0439  -13.9345 C   0  0  0  0  0  0  0  0  0  0  0  0
  -26.2612   -1.6184  -13.1247 C   0  0  0  0  0  0  0  0  0  0  0  0
  -24.9400   -1.3903  -13.5963 C   0  0  0  0  0  0  0  0  0  0  0  0
  -24.1953   -1.0118  -12.5087 C   0  0  0  0  0  0  0  0  0  0  0  0
  -24.9620   -0.9799  -11.3894 O   0  0  0  0  0  0  0  0  0  0  0  0
  -26.2259   -1.3592  -11.7566 C   0  0  0  0  0  0  0  0  0  0  0  0
  -31.1919   -7.6185   -7.3061 C   0  0  0  0  0  0  0  0  0  0  0  0
  -32.4985   -7.8265   -6.8750 C   0  0  0  0  0  0  0  0  0  0  0  0
  -33.1276   -9.0257   -6.9115 N   0  0  0  0  0  0  0  0  0  0  0  0
  -32.4121  -10.0692   -7.3979 C   0  0  0  0  0  0  0  0  0  0  0  0
  -31.0978   -9.9668   -7.8404 C   0  0  0  0  0  0  0  0  0  0  0  0
  -30.4784   -8.7122   -7.7936 C   0  0  0  0  0  0  0  0  0  0  0  0
  -30.3986  -11.1802   -8.3384 C   0  0  0  0  0  0  0  0  0  0  0  0
  -30.7175  -12.2510   -7.8296 O   0  0  0  0  0  0  0  0  0  0  0  0
  -29.3465  -11.0759   -9.2658 N   0  0  0  0  0  0  0  0  0  0  0  0
  -27.8829  -11.2692   -8.8148 S   0  0  0  0  0  0  0  0  0  0  0  0
  -27.4211   -9.8737   -7.8041 C   0  0  0  0  0  0  0  0  0  0  0  0
  -27.3963  -12.4650   -8.1539 O   0  0  0  0  0  0  0  0  0  0  0  0
  -26.8537  -11.0272  -10.2569 C   0  0  0  0  0  0  0  0  0  0  0  0
  -27.0955   -9.6668  -10.9054 C   0  0  0  0  0  0  0  0  0  0  0  0
  -27.8962   -9.7901  -12.1926 C   0  0  0  0  0  0  0  0  0  0  0  0
  -29.2888   -9.7843  -11.9113 O   0  0  0  0  0  0  0  0  0  0  0  0
  -29.4840  -10.5730  -11.3750 H   0  0  0  0  0  0  0  0  0  0  0  0
 13 14  1  0  0  0
 14 15  1  0  0  0
 14 18  2  0  0  0
 15 16  2  0  0  0
 16 17  1  0  0  0
 17 18  1  0  0  0
 18  9  1  0  0  0
  9 10  2  0  0  0
  9 11  1  0  0  0
 11  3  1  0  0  0
 11 12  1  0  0  0
  3  4  1  0  0  0
  3  8  2  0  0  0
  4  5  2  0  0  0
  5  6  1  0  0  0
  6  7  2  0  0  0
  7  1  1  0  0  0
  7  8  1  0  0  0
  1  2  3  0  0  0
  2 19  1  0  0  0
 19 20  1  0  0  0
 19 24  2  0  0  0
 20 21  2  0  0  0
 21 22  1  0  0  0
 22 23  2  0  0  0
 23 25  1  0  0  0
 23 24  1  0  0  0
 25 26  2  0  0  0
 25 27  1  0  0  0
 27 28  2  0  0  0
 28 29  1  0  0  0
 28 30  2  0  0  0
 28 31  1  0  0  0
 31 32  1  0  0  0
 32 33  1  0  0  0
 33 34  1  0  0  0
 34 35  1  0  0  0
M  END
> <minimizedAffinity>
-8.77129

$$$$
