CHEMBL4215703


 36 40  0  0  0  0  0  0  0  0999 V2000
  -29.0911   -6.9622   -4.1922 C   0  0  0  0  0  0  0  0  0  0  0  0
  -29.4575   -7.4333   -3.1252 O   0  0  0  0  0  0  0  0  0  0  0  0
  -28.1579   -7.5238   -5.0559 N   0  0  0  0  0  0  0  0  0  0  0  0
  -27.9263   -6.9678   -5.8756 H   0  0  0  0  0  0  0  0  0  0  0  0
  -31.6540   -5.8267   -2.9406 C   0  0  0  0  0  0  0  0  0  0  0  0
  -30.8802   -5.0678   -3.9715 C   0  0  0  0  0  0  0  0  0  0  0  0
  -31.2753   -3.8548   -4.3597 C   0  0  0  0  0  0  0  0  0  0  0  0
  -30.5706   -3.0853   -5.3941 C   0  0  0  0  0  0  0  0  0  0  0  0
  -31.0511   -1.9875   -5.6828 O   0  0  0  0  0  0  0  0  0  0  0  0
  -29.4636   -3.7090   -5.9730 N   0  0  0  0  0  0  0  0  0  0  0  0
  -29.0116   -4.9716   -5.5926 N   0  0  0  0  0  0  0  0  0  0  0  0
  -29.6553   -5.5941   -4.6467 C   0  0  0  0  0  0  0  0  0  0  0  0
  -28.6816   -3.0727   -6.9929 C   0  0  0  0  0  0  0  0  0  0  0  0
  -28.2770   -1.7297   -6.8812 C   0  0  0  0  0  0  0  0  0  0  0  0
  -27.5483   -1.1051   -7.8956 C   0  0  0  0  0  0  0  0  0  0  0  0
  -27.2264   -1.8179   -9.0415 C   0  0  0  0  0  0  0  0  0  0  0  0
  -26.5446   -1.2163  -10.0252 F   0  0  0  0  0  0  0  0  0  0  0  0
  -27.6024   -3.1487   -9.1804 C   0  0  0  0  0  0  0  0  0  0  0  0
  -28.3135   -3.7783   -8.1522 C   0  0  0  0  0  0  0  0  0  0  0  0
  -27.4533   -8.7371   -4.8420 C   0  0  0  0  0  0  0  0  0  0  0  0
  -26.4856   -8.8883   -3.8416 C   0  0  0  0  0  0  0  0  0  0  0  0
  -25.7792  -10.0857   -3.6808 C   0  0  0  0  0  0  0  0  0  0  0  0
  -26.0050  -11.1553   -4.5406 C   0  0  0  0  0  0  0  0  0  0  0  0
  -26.9928  -11.0271   -5.5164 C   0  0  0  0  0  0  0  0  0  0  0  0
  -27.2688  -12.0582   -6.3302 F   0  0  0  0  0  0  0  0  0  0  0  0
  -27.7170   -9.8335   -5.6709 C   0  0  0  0  0  0  0  0  0  0  0  0
  -25.3623  -12.3612   -4.3771 O   0  0  0  0  0  0  0  0  0  0  0  0
  -23.9707  -12.3475   -4.2893 C   0  0  0  0  0  0  0  0  0  0  0  0
  -23.3641  -12.4646   -3.0844 N   0  0  0  0  0  0  0  0  0  0  0  0
  -22.0290  -12.3601   -3.0400 C   0  0  0  0  0  0  0  0  0  0  0  0
  -21.2049  -12.0588   -4.0465 N   0  0  0  0  0  0  0  0  0  0  0  0
  -21.8103  -12.0023   -5.2564 C   0  0  0  0  0  0  0  0  0  0  0  0
  -21.1385  -11.7686   -6.4910 C   0  0  0  0  0  0  0  0  0  0  0  0
  -21.9487  -12.0398   -7.5697 C   0  0  0  0  0  0  0  0  0  0  0  0
  -23.5834  -12.2326   -7.0976 S   0  0  0  0  0  0  0  0  0  0  0  0
  -23.1791  -12.1937   -5.4266 C   0  0  0  0  0  0  0  0  0  0  0  0
  5  6  1  0  0  0
  6  7  2  0  0  0
  6 12  1  0  0  0
  7  8  1  0  0  0
  8  9  2  0  0  0
  8 10  1  0  0  0
 10 13  1  0  0  0
 10 11  1  0  0  0
 13 14  1  0  0  0
 13 19  2  0  0  0
 14 15  2  0  0  0
 15 16  1  0  0  0
 16 17  1  0  0  0
 16 18  2  0  0  0
 18 19  1  0  0  0
 11 12  2  0  0  0
 12  1  1  0  0  0
  1  2  2  0  0  0
  1  3  1  0  0  0
  3 20  1  0  0  0
  3  4  1  0  0  0
 20 21  1  0  0  0
 20 26  2  0  0  0
 21 22  2  0  0  0
 22 23  1  0  0  0
 23 27  1  0  0  0
 23 24  2  0  0  0
 27 28  1  0  0  0
 28 29  1  0  0  0
 28 36  2  0  0  0
 29 30  2  0  0  0
 30 31  1  0  0  0
 31 32  2  0  0  0
 32 33  1  0  0  0
 32 36  1  0  0  0
 33 34  2  0  0  0
 34 35  1  0  0  0
 35 36  1  0  0  0
 24 25  1  0  0  0
 24 26  1  0  0  0
M  END
> <minimizedAffinity>
-8.08166

$$$$
