CHEMBL4556134


 24 27  0  0  0  0  0  0  0  0999 V2000
  -27.6325   12.3583  -13.7443 C   0  0  0  0  0  0  0  0  0  0  0  0
  -29.0355   11.8003  -13.7573 C   0  0  0  0  0  0  0  0  0  0  0  0
  -30.0481   12.4381  -14.4803 C   0  0  0  0  0  0  0  0  0  0  0  0
  -31.3652   11.9641  -14.4312 C   0  0  0  0  0  0  0  0  0  0  0  0
  -31.7187   10.8410  -13.6616 C   0  0  0  0  0  0  0  0  0  0  0  0
  -30.6832   10.2003  -12.9576 C   0  0  0  0  0  0  0  0  0  0  0  0
  -29.3652   10.6707  -13.0001 C   0  0  0  0  0  0  0  0  0  0  0  0
  -33.1179   10.3652  -13.5822 C   0  0  0  0  0  0  0  0  0  0  0  0
  -33.5216    9.3544  -12.6971 C   0  0  0  0  0  0  0  0  0  0  0  0
  -34.8492    8.9251  -12.6589 C   0  0  0  0  0  0  0  0  0  0  0  0
  -35.7597    9.5267  -13.5074 C   0  0  0  0  0  0  0  0  0  0  0  0
  -35.4321   10.5015  -14.3767 N   0  0  0  0  0  0  0  0  0  0  0  0
  -34.1303   10.8859  -14.3952 C   0  0  0  0  0  0  0  0  0  0  0  0
  -25.2704   11.2570  -16.2106 C   0  0  0  0  0  0  0  0  0  0  0  0
  -25.5707   12.1358  -15.1950 C   0  0  0  0  0  0  0  0  0  0  0  0
  -26.8141   11.7542  -14.7825 N   0  0  0  0  0  0  0  0  0  0  0  0
  -27.2391   10.6667  -15.4470 N   0  0  0  0  0  0  0  0  0  0  0  0
  -26.3019   10.3576  -16.3353 N   0  0  0  0  0  0  0  0  0  0  0  0
  -21.7483   11.2134  -18.6229 C   0  0  0  0  0  0  0  0  0  0  0  0
  -22.9939   11.3796  -19.2227 C   0  0  0  0  0  0  0  0  0  0  0  0
  -24.1512   11.4018  -18.4386 C   0  0  0  0  0  0  0  0  0  0  0  0
  -24.0785   11.2573  -17.0443 C   0  0  0  0  0  0  0  0  0  0  0  0
  -22.8161   11.0933  -16.4564 C   0  0  0  0  0  0  0  0  0  0  0  0
  -21.6586   11.0711  -17.2404 C   0  0  0  0  0  0  0  0  0  0  0  0
 19 20  1  0  0  0
 19 24  2  0  0  0
 20 21  2  0  0  0
 21 22  1  0  0  0
 22 14  1  0  0  0
 22 23  2  0  0  0
 14 15  2  0  0  0
 14 18  1  0  0  0
 15 16  1  0  0  0
 16  1  1  0  0  0
 16 17  1  0  0  0
  1  2  1  0  0  0
  2  3  1  0  0  0
  2  7  2  0  0  0
  3  4  2  0  0  0
  4  5  1  0  0  0
  5  8  1  0  0  0
  5  6  2  0  0  0
  8  9  1  0  0  0
  8 13  2  0  0  0
  9 10  2  0  0  0
 10 11  1  0  0  0
 11 12  2  0  0  0
 12 13  1  0  0  0
  6  7  1  0  0  0
 17 18  2  0  0  0
 23 24  1  0  0  0
M  END
> <minimizedAffinity>
-5.85427

$$$$
