CHEMBL344319


 25 27  0  0  0  0  0  0  0  0999 V2000
  -15.5178    4.4558  -18.9697 C   0  0  0  0  0  0  0  0  0  0  0  0
  -14.6862    4.6213  -17.7460 C   0  0  0  0  0  0  0  0  0  0  0  0
  -13.2577    4.7279  -17.6358 C   0  0  0  0  0  0  0  0  0  0  0  0
  -12.9779    4.8568  -16.2872 C   0  0  0  0  0  0  0  0  0  0  0  0
  -14.1503    4.7759  -15.5837 N   0  0  0  0  0  0  0  0  0  0  0  0
  -15.1912    4.6047  -16.4543 C   0  0  0  0  0  0  0  0  0  0  0  0
  -14.2216    4.7533  -14.5756 H   0  0  0  0  0  0  0  0  0  0  0  0
  -16.4969    4.3722  -15.9578 C   0  0  0  0  0  0  0  0  0  0  0  0
  -16.9471    3.1265  -15.7371 C   0  0  0  0  0  0  0  0  0  0  0  0
  -16.1424    1.8438  -15.7874 C   0  0  0  0  0  0  0  0  0  0  0  0
  -14.9454    1.6873  -15.9239 O   0  0  0  0  0  0  0  0  0  0  0  0
  -17.0691    0.8343  -15.5937 N   0  0  0  0  0  0  0  0  0  0  0  0
  -18.3464    1.3434  -15.4016 C   0  0  0  0  0  0  0  0  0  0  0  0
  -19.4934    0.6065  -15.1873 C   0  0  0  0  0  0  0  0  0  0  0  0
  -20.6858    1.3129  -15.0402 C   0  0  0  0  0  0  0  0  0  0  0  0
  -20.7025    2.7184  -15.1138 C   0  0  0  0  0  0  0  0  0  0  0  0
  -19.5224    3.4446  -15.3302 C   0  0  0  0  0  0  0  0  0  0  0  0
  -18.3399    2.7400  -15.4651 C   0  0  0  0  0  0  0  0  0  0  0  0
  -16.8065   -0.1382  -15.5829 H   0  0  0  0  0  0  0  0  0  0  0  0
  -12.2240    4.6259  -18.7209 C   0  0  0  0  0  0  0  0  0  0  0  0
  -11.4802    3.2975  -18.7277 C   0  0  0  0  0  0  0  0  0  0  0  0
  -12.3512    2.1746  -19.2364 C   0  0  0  0  0  0  0  0  0  0  0  0
  -12.4995    1.8615  -20.4055 O   0  0  0  0  0  0  0  0  0  0  0  0
  -12.9685    1.5164  -18.2271 O   0  0  0  0  0  0  0  0  0  0  0  0
  -12.7564    1.8726  -17.3433 H   0  0  0  0  0  0  0  0  0  0  0  0
  1  2  1  0  0  0
  2  3  1  0  0  0
  2  6  2  0  0  0
  3 20  1  0  0  0
  3  4  2  0  0  0
 20 21  1  0  0  0
 21 22  1  0  0  0
 22 23  2  0  0  0
 22 24  1  0  0  0
 24 25  1  0  0  0
  4  5  1  0  0  0
  5  6  1  0  0  0
  5  7  1  0  0  0
  6  8  1  0  0  0
  8  9  2  0  0  0
  9 10  1  0  0  0
  9 18  1  0  0  0
 10 11  2  0  0  0
 10 12  1  0  0  0
 12 13  1  0  0  0
 12 19  1  0  0  0
 13 14  1  0  0  0
 13 18  2  0  0  0
 14 15  2  0  0  0
 15 16  1  0  0  0
 16 17  2  0  0  0
 17 18  1  0  0  0
M  END
> <minimizedAffinity>
-6.82511

$$$$
