CHEMBL3754301


 28 30  0  0  0  0  0  0  0  0999 V2000
  -27.5817   -1.8368   -8.7785 C   0  0  0  0  0  0  0  0  0  0  0  0
  -28.0098   -3.0941   -8.3427 C   0  0  0  0  0  0  0  0  0  0  0  0
  -28.5662   -3.2955   -7.0737 C   0  0  0  0  0  0  0  0  0  0  0  0
  -28.7914   -2.1807   -6.2623 C   0  0  0  0  0  0  0  0  0  0  0  0
  -28.3819   -0.8966   -6.6827 C   0  0  0  0  0  0  0  0  0  0  0  0
  -27.7650   -0.7410   -7.9377 C   0  0  0  0  0  0  0  0  0  0  0  0
  -26.6411   -1.6363  -13.6286 C   0  0  0  0  0  0  0  0  0  0  0  0
  -26.4971   -1.6302  -12.1962 N   0  0  0  0  0  0  0  0  0  0  0  0
  -25.3470   -1.4264  -11.4930 C   0  0  0  0  0  0  0  0  0  0  0  0
  -25.5702   -1.4304  -10.1965 N   0  0  0  0  0  0  0  0  0  0  0  0
  -26.9145   -1.6901  -10.0592 C   0  0  0  0  0  0  0  0  0  0  0  0
  -27.5087   -1.8124  -11.2984 C   0  0  0  0  0  0  0  0  0  0  0  0
  -28.8734   -4.5969   -6.5821 N   0  0  0  0  0  0  0  0  0  0  0  0
  -29.7996   -5.4332   -7.1929 C   0  0  0  0  0  0  0  0  0  0  0  0
  -30.3996   -5.1403   -8.2214 O   0  0  0  0  0  0  0  0  0  0  0  0
  -29.9824   -6.6337   -6.5297 N   0  0  0  0  0  0  0  0  0  0  0  0
  -28.1971   -5.0329   -5.9747 H   0  0  0  0  0  0  0  0  0  0  0  0
  -29.7201   -6.6636   -5.5571 H   0  0  0  0  0  0  0  0  0  0  0  0
  -30.8453   -7.6633   -7.0072 C   0  0  0  0  0  0  0  0  0  0  0  0
  -30.4116   -8.6741   -7.8675 C   0  0  0  0  0  0  0  0  0  0  0  0
  -31.3302   -9.5784   -8.3680 C   0  0  0  0  0  0  0  0  0  0  0  0
  -32.6356   -9.5694   -8.0408 N   0  0  0  0  0  0  0  0  0  0  0  0
  -33.0273   -8.6135   -7.1726 C   0  0  0  0  0  0  0  0  0  0  0  0
  -32.1816   -7.6518   -6.6312 C   0  0  0  0  0  0  0  0  0  0  0  0
  -28.5586    0.3158   -5.8043 C   0  0  0  0  0  0  0  0  0  0  0  0
  -27.6695    0.3690   -4.7725 F   0  0  0  0  0  0  0  0  0  0  0  0
  -28.4063    1.4852   -6.4849 F   0  0  0  0  0  0  0  0  0  0  0  0
  -29.7931    0.3714   -5.2326 F   0  0  0  0  0  0  0  0  0  0  0  0
  7  8  1  0  0  0
  8  9  1  0  0  0
  8 12  1  0  0  0
  9 10  2  0  0  0
 10 11  1  0  0  0
 11  1  1  0  0  0
 11 12  2  0  0  0
  1  2  1  0  0  0
  1  6  2  0  0  0
  2  3  2  0  0  0
  3 13  1  0  0  0
  3  4  1  0  0  0
 13 14  1  0  0  0
 13 17  1  0  0  0
 14 15  2  0  0  0
 14 16  1  0  0  0
 16 19  1  0  0  0
 16 18  1  0  0  0
 19 20  1  0  0  0
 19 24  2  0  0  0
 20 21  2  0  0  0
 21 22  1  0  0  0
 22 23  2  0  0  0
 23 24  1  0  0  0
  4  5  2  0  0  0
  5 25  1  0  0  0
  5  6  1  0  0  0
 25 26  1  0  0  0
 25 27  1  0  0  0
 25 28  1  0  0  0
M  END
> <minimizedAffinity>
-9.09842

$$$$
