CHEMBL3914322


 40 43  0  0  0  0  0  0  0  0999 V2000
  -27.3751   -2.2803   -9.0818 C   0  0  0  0  0  0  0  0  0  0  0  0
  -27.3669   -1.0233   -8.5717 N   0  0  0  0  0  0  0  0  0  0  0  0
  -27.8866   -0.8188   -7.3436 C   0  0  0  0  0  0  0  0  0  0  0  0
  -28.4253   -1.7187   -6.5045 N   0  0  0  0  0  0  0  0  0  0  0  0
  -28.3970   -2.9475   -7.0412 C   0  0  0  0  0  0  0  0  0  0  0  0
  -28.8902   -4.0670   -6.4307 N   0  0  0  0  0  0  0  0  0  0  0  0
  -28.7282   -5.1681   -7.2460 C   0  0  0  0  0  0  0  0  0  0  0  0
  -28.1068   -4.7099   -8.4012 C   0  0  0  0  0  0  0  0  0  0  0  0
  -27.8991   -3.3086   -8.2810 C   0  0  0  0  0  0  0  0  0  0  0  0
  -29.3401   -4.0550   -5.5256 H   0  0  0  0  0  0  0  0  0  0  0  0
  -29.1687   -6.5127   -6.8785 C   0  0  0  0  0  0  0  0  0  0  0  0
  -30.1776   -7.1459   -7.6135 C   0  0  0  0  0  0  0  0  0  0  0  0
  -30.5690   -8.4561   -7.3197 C   0  0  0  0  0  0  0  0  0  0  0  0
  -29.9509   -9.1543   -6.2831 C   0  0  0  0  0  0  0  0  0  0  0  0
  -28.9713   -8.5197   -5.5216 C   0  0  0  0  0  0  0  0  0  0  0  0
  -28.5773   -7.2113   -5.8162 C   0  0  0  0  0  0  0  0  0  0  0  0
  -30.2526  -10.4346   -5.9070 O   0  0  0  0  0  0  0  0  0  0  0  0
  -31.3779  -11.0120   -6.5698 C   0  0  0  0  0  0  0  0  0  0  0  0
  -30.9351  -12.3175   -7.2251 C   0  0  0  0  0  0  0  0  0  0  0  0
  -30.7215  -12.1203   -8.7235 C   0  0  0  0  0  0  0  0  0  0  0  0
  -29.2820  -11.7260   -9.0499 C   0  0  0  0  0  0  0  0  0  0  0  0
  -29.2585  -10.5255   -9.9955 C   0  0  0  0  0  0  0  0  0  0  0  0
  -28.0564  -10.5617  -10.9346 C   0  0  0  0  0  0  0  0  0  0  0  0
  -27.2318   -9.2963  -10.8290 C   0  0  0  0  0  0  0  0  0  0  0  0
  -26.3809   -8.9466  -11.6438 O   0  0  0  0  0  0  0  0  0  0  0  0
  -27.5256   -8.5392   -9.7229 N   0  0  0  0  0  0  0  0  0  0  0  0
  -26.7605   -7.3649   -9.5489 O   0  0  0  0  0  0  0  0  0  0  0  0
  -28.1098   -8.8345   -8.9491 H   0  0  0  0  0  0  0  0  0  0  0  0
  -26.1909   -7.3685  -10.3505 H   0  0  0  0  0  0  0  0  0  0  0  0
  -26.9063   -2.5303  -10.3800 N   0  0  0  0  0  0  0  0  0  0  0  0
  -25.9052   -2.7060  -10.3015 H   0  0  0  0  0  0  0  0  0  0  0  0
  -28.2495   -1.8434  -12.3430 C   0  0  0  0  0  0  0  0  0  0  0  0
  -27.1455   -1.4511  -11.3523 C   0  0  0  0  0  0  0  0  0  0  0  0
  -25.8358   -1.1805  -12.0928 C   0  0  0  0  0  0  0  0  0  0  0  0
  -25.6602   -1.6285  -13.4151 C   0  0  0  0  0  0  0  0  0  0  0  0
  -24.4845   -1.3371  -14.1170 C   0  0  0  0  0  0  0  0  0  0  0  0
  -23.4788   -0.6075  -13.4973 C   0  0  0  0  0  0  0  0  0  0  0  0
  -22.3651   -0.3090  -14.1782 F   0  0  0  0  0  0  0  0  0  0  0  0
  -23.6147   -0.1782  -12.1831 C   0  0  0  0  0  0  0  0  0  0  0  0
  -24.7882   -0.4644  -11.4827 C   0  0  0  0  0  0  0  0  0  0  0  0
 32 33  1  0  0  0
 33 30  1  0  0  0
 33 34  1  0  0  0
 30  1  1  0  0  0
 30 31  1  0  0  0
  1  2  1  0  0  0
  1  9  2  0  0  0
  2  3  2  0  0  0
  3  4  1  0  0  0
  4  5  2  0  0  0
  5  6  1  0  0  0
  5  9  1  0  0  0
  6  7  1  0  0  0
  6 10  1  0  0  0
  7 11  1  0  0  0
  7  8  2  0  0  0
 11 12  1  0  0  0
 11 16  2  0  0  0
 12 13  2  0  0  0
 13 14  1  0  0  0
 14 17  1  0  0  0
 14 15  2  0  0  0
 17 18  1  0  0  0
 18 19  1  0  0  0
 19 20  1  0  0  0
 20 21  1  0  0  0
 21 22  1  0  0  0
 22 23  1  0  0  0
 23 24  1  0  0  0
 24 25  2  0  0  0
 24 26  1  0  0  0
 26 27  1  0  0  0
 26 28  1  0  0  0
 27 29  1  0  0  0
 15 16  1  0  0  0
  8  9  1  0  0  0
 34 35  1  0  0  0
 34 40  2  0  0  0
 35 36  2  0  0  0
 36 37  1  0  0  0
 37 38  1  0  0  0
 37 39  2  0  0  0
 39 40  1  0  0  0
M  END
> <minimizedAffinity>
-9.30420

$$$$
