CHEMBL3754141


 32 36  0  0  0  0  0  0  0  0999 V2000
  -21.5986    1.3212  -13.8863 N   0  0  0  0  0  0  0  0  0  0  0  0
  -21.5298   -0.0504  -13.3300 C   0  0  0  0  0  0  0  0  0  0  0  0
  -22.7372   -0.9824  -13.5852 C   0  0  0  0  0  0  0  0  0  0  0  0
  -23.9498   -0.2341  -13.2548 N   0  0  0  0  0  0  0  0  0  0  0  0
  -24.1559    0.9072  -14.1325 C   0  0  0  0  0  0  0  0  0  0  0  0
  -22.9606    1.8852  -13.9666 C   0  0  0  0  0  0  0  0  0  0  0  0
  -24.8534   -0.7719  -12.3638 C   0  0  0  0  0  0  0  0  0  0  0  0
  -24.5721   -0.6237  -11.0524 N   0  0  0  0  0  0  0  0  0  0  0  0
  -25.4143   -1.0795  -10.0663 N   0  0  0  0  0  0  0  0  0  0  0  0
  -26.6015   -1.6407  -10.3755 C   0  0  0  0  0  0  0  0  0  0  0  0
  -27.0097   -1.7426  -11.7249 C   0  0  0  0  0  0  0  0  0  0  0  0
  -28.3073   -2.1698  -12.1250 C   0  0  0  0  0  0  0  0  0  0  0  0
  -28.6593   -2.3740  -13.4555 C   0  0  0  0  0  0  0  0  0  0  0  0
  -27.7459   -2.0850  -14.4442 C   0  0  0  0  0  0  0  0  0  0  0  0
  -26.5105   -1.5456  -14.0900 C   0  0  0  0  0  0  0  0  0  0  0  0
  -26.0907   -1.3635  -12.7435 C   0  0  0  0  0  0  0  0  0  0  0  0
  -27.3569   -2.1398   -9.1913 C   0  0  0  0  0  0  0  0  0  0  0  0
  -27.6861   -1.2809   -8.1236 C   0  0  0  0  0  0  0  0  0  0  0  0
  -28.4053   -1.7345   -7.0103 C   0  0  0  0  0  0  0  0  0  0  0  0
  -28.8329   -3.0572   -6.9449 C   0  0  0  0  0  0  0  0  0  0  0  0
  -28.4971   -3.9364   -7.9657 C   0  0  0  0  0  0  0  0  0  0  0  0
  -27.7351   -3.4895   -9.0489 C   0  0  0  0  0  0  0  0  0  0  0  0
  -20.7811    1.5273  -15.0787 C   0  0  0  0  0  0  0  0  0  0  0  0
  -20.0606    3.6748  -14.2381 O   0  0  0  0  0  0  0  0  0  0  0  0
  -19.7556    2.6369  -14.8276 C   0  0  0  0  0  0  0  0  0  0  0  0
  -18.3440    2.4535  -15.2820 C   0  0  0  0  0  0  0  0  0  0  0  0
  -17.6556    3.5686  -15.7782 C   0  0  0  0  0  0  0  0  0  0  0  0
  -16.3286    3.4548  -16.2055 C   0  0  0  0  0  0  0  0  0  0  0  0
  -15.6896    2.2184  -16.1551 C   0  0  0  0  0  0  0  0  0  0  0  0
  -14.0612    2.0736  -16.6882 Cl  0  0  0  0  0  0  0  0  0  0  0  0
  -16.3683    1.0957  -15.6850 C   0  0  0  0  0  0  0  0  0  0  0  0
  -17.6944    1.2114  -15.2477 C   0  0  0  0  0  0  0  0  0  0  0  0
 24 25  2  0  0  0
 25 23  1  0  0  0
 25 26  1  0  0  0
 23  1  1  0  0  0
  1  2  1  0  0  0
  1  6  1  0  0  0
  2  3  1  0  0  0
  3  4  1  0  0  0
  4  7  1  0  0  0
  4  5  1  0  0  0
  7  8  1  0  0  0
  7 16  2  0  0  0
  8  9  2  0  0  0
  9 10  1  0  0  0
 10 17  1  0  0  0
 10 11  2  0  0  0
 17 18  1  0  0  0
 17 22  2  0  0  0
 18 19  2  0  0  0
 19 20  1  0  0  0
 20 21  2  0  0  0
 21 22  1  0  0  0
 11 12  1  0  0  0
 11 16  1  0  0  0
 12 13  2  0  0  0
 13 14  1  0  0  0
 14 15  2  0  0  0
 15 16  1  0  0  0
  5  6  1  0  0  0
 26 27  1  0  0  0
 26 32  2  0  0  0
 27 28  2  0  0  0
 28 29  1  0  0  0
 29 30  1  0  0  0
 29 31  2  0  0  0
 31 32  1  0  0  0
M  END
> <minimizedAffinity>
-8.45787

$$$$
