CHEMBL272609


 30 33  0  0  0  0  0  0  0  0999 V2000
  -20.7816    0.9278  -13.9157 C   0  0  0  0  0  0  0  0  0  0  0  0
  -22.1749    0.6198  -14.1313 N   0  0  0  0  0  0  0  0  0  0  0  0
  -22.9062    0.0192  -13.1226 C   0  0  0  0  0  0  0  0  0  0  0  0
  -22.3815   -0.2223  -12.0425 O   0  0  0  0  0  0  0  0  0  0  0  0
  -24.2168   -0.3098  -13.4777 N   0  0  0  0  0  0  0  0  0  0  0  0
  -24.7175   -0.2387  -14.8591 C   0  0  0  0  0  0  0  0  0  0  0  0
  -25.4499   -1.5192  -15.2046 C   0  0  0  0  0  0  0  0  0  0  0  0
  -26.6152   -1.6519  -14.3918 O   0  0  0  0  0  0  0  0  0  0  0  0
  -26.3485   -1.4658  -13.0547 C   0  0  0  0  0  0  0  0  0  0  0  0
  -27.3380   -1.9609  -12.2043 C   0  0  0  0  0  0  0  0  0  0  0  0
  -27.1433   -1.9513  -10.8267 C   0  0  0  0  0  0  0  0  0  0  0  0
  -26.0078   -1.3356  -10.3027 C   0  0  0  0  0  0  0  0  0  0  0  0
  -25.0370   -0.7872  -11.1580 C   0  0  0  0  0  0  0  0  0  0  0  0
  -25.1779   -0.8548  -12.5526 C   0  0  0  0  0  0  0  0  0  0  0  0
  -22.6857    1.2780  -14.6989 H   0  0  0  0  0  0  0  0  0  0  0  0
  -28.0507   -2.4769   -9.9323 O   0  0  0  0  0  0  0  0  0  0  0  0
  -27.9813   -2.1127   -8.5950 C   0  0  0  0  0  0  0  0  0  0  0  0
  -27.8300   -0.7884   -8.1900 C   0  0  0  0  0  0  0  0  0  0  0  0
  -27.7566   -0.5335   -6.8382 C   0  0  0  0  0  0  0  0  0  0  0  0
  -27.8965   -1.4793   -5.8843 N   0  0  0  0  0  0  0  0  0  0  0  0
  -28.1366   -2.7484   -6.2684 C   0  0  0  0  0  0  0  0  0  0  0  0
  -28.4251   -3.7144   -5.3038 C   0  0  0  0  0  0  0  0  0  0  0  0
  -28.7604   -5.0489   -5.6221 C   0  0  0  0  0  0  0  0  0  0  0  0
  -28.7311   -5.4460   -6.9601 C   0  0  0  0  0  0  0  0  0  0  0  0
  -28.4204   -4.4761   -7.9326 C   0  0  0  0  0  0  0  0  0  0  0  0
  -28.1674   -3.1244   -7.6203 C   0  0  0  0  0  0  0  0  0  0  0  0
  -29.3518   -5.7310   -4.5903 O   0  0  0  0  0  0  0  0  0  0  0  0
  -30.7214   -5.4609   -4.3233 C   0  0  0  0  0  0  0  0  0  0  0  0
  -29.0275   -6.6250   -7.5741 O   0  0  0  0  0  0  0  0  0  0  0  0
  -30.3235   -7.1743   -7.5601 C   0  0  0  0  0  0  0  0  0  0  0  0
  1  2  1  0  0  0
  2  3  1  0  0  0
  2 15  1  0  0  0
  3  4  2  0  0  0
  3  5  1  0  0  0
  5  6  1  0  0  0
  5 14  1  0  0  0
  6  7  1  0  0  0
  7  8  1  0  0  0
  8  9  1  0  0  0
  9 10  1  0  0  0
  9 14  2  0  0  0
 10 11  2  0  0  0
 11 16  1  0  0  0
 11 12  1  0  0  0
 16 17  1  0  0  0
 17 18  1  0  0  0
 17 26  2  0  0  0
 18 19  2  0  0  0
 19 20  1  0  0  0
 20 21  2  0  0  0
 21 22  1  0  0  0
 21 26  1  0  0  0
 22 23  2  0  0  0
 23 27  1  0  0  0
 23 24  1  0  0  0
 27 28  1  0  0  0
 24 29  1  0  0  0
 24 25  2  0  0  0
 29 30  1  0  0  0
 25 26  1  0  0  0
 12 13  2  0  0  0
 13 14  1  0  0  0
M  END
> <minimizedAffinity>
-8.15591

$$$$
