CHEMBL3954891


 38 41  0  0  0  0  0  0  0  0999 V2000
  -25.4731   -1.7393  -12.3275 C   0  0  0  0  0  0  0  0  0  0  0  0
  -24.2167   -1.6969  -11.7165 C   0  0  0  0  0  0  0  0  0  0  0  0
  -23.0891   -1.2983  -12.4478 C   0  0  0  0  0  0  0  0  0  0  0  0
  -23.2100   -0.9312  -13.7919 C   0  0  0  0  0  0  0  0  0  0  0  0
  -24.4515   -1.0430  -14.4233 C   0  0  0  0  0  0  0  0  0  0  0  0
  -25.5671   -1.4366  -13.6867 C   0  0  0  0  0  0  0  0  0  0  0  0
  -26.7679   -1.4597  -14.2869 F   0  0  0  0  0  0  0  0  0  0  0  0
  -27.9786   -2.3416   -9.7650 N   0  0  0  0  0  0  0  0  0  0  0  0
  -26.7282   -1.9871  -10.2418 C   0  0  0  0  0  0  0  0  0  0  0  0
  -25.7938   -1.6282   -9.5318 O   0  0  0  0  0  0  0  0  0  0  0  0
  -26.6586   -2.0655  -11.6216 N   0  0  0  0  0  0  0  0  0  0  0  0
  -28.4748   -3.0276  -10.3162 H   0  0  0  0  0  0  0  0  0  0  0  0
  -27.5215   -1.8364  -12.1005 H   0  0  0  0  0  0  0  0  0  0  0  0
  -28.8455   -0.7068   -6.5052 C   0  0  0  0  0  0  0  0  0  0  0  0
  -28.4799   -0.8785   -7.8506 C   0  0  0  0  0  0  0  0  0  0  0  0
  -28.3980   -2.1510   -8.4292 C   0  0  0  0  0  0  0  0  0  0  0  0
  -28.7526   -3.2658   -7.6650 C   0  0  0  0  0  0  0  0  0  0  0  0
  -29.1144   -3.1054   -6.3210 C   0  0  0  0  0  0  0  0  0  0  0  0
  -29.1443   -1.8363   -5.7483 C   0  0  0  0  0  0  0  0  0  0  0  0
  -29.4555   -1.7188   -4.4507 F   0  0  0  0  0  0  0  0  0  0  0  0
  -30.2777    1.0849   -5.5117 C   0  0  0  0  0  0  0  0  0  0  0  0
  -28.8647    0.6695   -5.8927 C   0  0  0  0  0  0  0  0  0  0  0  0
  -28.3489    1.6284   -6.7151 F   0  0  0  0  0  0  0  0  0  0  0  0
  -28.1014    0.7366   -4.7595 F   0  0  0  0  0  0  0  0  0  0  0  0
  -22.0521   -0.5273  -14.4278 O   0  0  0  0  0  0  0  0  0  0  0  0
  -21.7195    0.8136  -14.4506 C   0  0  0  0  0  0  0  0  0  0  0  0
  -22.5008    1.8057  -13.8640 C   0  0  0  0  0  0  0  0  0  0  0  0
  -22.0845    3.1108  -14.0028 C   0  0  0  0  0  0  0  0  0  0  0  0
  -20.9388    3.4635  -14.6139 N   0  0  0  0  0  0  0  0  0  0  0  0
  -20.1452    2.5012  -15.1088 C   0  0  0  0  0  0  0  0  0  0  0  0
  -20.5008    1.1582  -15.0428 C   0  0  0  0  0  0  0  0  0  0  0  0
  -18.9272    2.8533  -15.7169 N   0  0  0  0  0  0  0  0  0  0  0  0
  -17.6868    2.5501  -15.1917 C   0  0  0  0  0  0  0  0  0  0  0  0
  -17.4302    1.9160  -14.1798 O   0  0  0  0  0  0  0  0  0  0  0  0
  -18.9693    3.3785  -16.5754 H   0  0  0  0  0  0  0  0  0  0  0  0
  -16.5523    3.1276  -15.9836 C   0  0  0  0  0  0  0  0  0  0  0  0
  -15.5982    2.2204  -16.7345 C   0  0  0  0  0  0  0  0  0  0  0  0
  -15.1400    2.9103  -15.4843 C   0  0  0  0  0  0  0  0  0  0  0  0
 21 22  1  0  0  0
 22 23  1  0  0  0
 22 24  1  0  0  0
 22 14  1  0  0  0
 14 15  1  0  0  0
 14 19  2  0  0  0
 15 16  2  0  0  0
 16  8  1  0  0  0
 16 17  1  0  0  0
  8  9  1  0  0  0
  8 12  1  0  0  0
  9 10  2  0  0  0
  9 11  1  0  0  0
 11  1  1  0  0  0
 11 13  1  0  0  0
  1  2  1  0  0  0
  1  6  2  0  0  0
  2  3  2  0  0  0
  3  4  1  0  0  0
  4 25  1  0  0  0
  4  5  2  0  0  0
 25 26  1  0  0  0
 26 27  1  0  0  0
 26 31  2  0  0  0
 27 28  2  0  0  0
 28 29  1  0  0  0
 29 30  2  0  0  0
 30 32  1  0  0  0
 30 31  1  0  0  0
 32 33  1  0  0  0
 32 35  1  0  0  0
 33 34  2  0  0  0
 33 36  1  0  0  0
 36 37  1  0  0  0
 36 38  1  0  0  0
 37 38  1  0  0  0
  5  6  1  0  0  0
  6  7  1  0  0  0
 17 18  2  0  0  0
 18 19  1  0  0  0
 19 20  1  0  0  0
M  END
> <minimizedAffinity>
-11.61281

$$$$
