CHEMBL189995


 42 45  0  0  0  0  0  0  0  0999 V2000
  -28.4805   -7.6761   -5.5868 C   0  0  0  0  0  0  0  0  0  0  0  0
  -28.0994   -6.5068   -4.9031 C   0  0  0  0  0  0  0  0  0  0  0  0
  -28.3078   -5.2401   -5.4510 C   0  0  0  0  0  0  0  0  0  0  0  0
  -27.9710   -4.0700   -4.7777 C   0  0  0  0  0  0  0  0  0  0  0  0
  -28.1367   -2.8349   -5.2970 N   0  0  0  0  0  0  0  0  0  0  0  0
  -28.6865   -2.7464   -6.5196 C   0  0  0  0  0  0  0  0  0  0  0  0
  -29.0478   -3.8801   -7.2454 C   0  0  0  0  0  0  0  0  0  0  0  0
  -28.8472   -5.1510   -6.7311 C   0  0  0  0  0  0  0  0  0  0  0  0
  -29.1620   -6.2477   -7.4494 N   0  0  0  0  0  0  0  0  0  0  0  0
  -29.0263   -7.4684   -6.8683 C   0  0  0  0  0  0  0  0  0  0  0  0
  -26.5250  -10.6182   -4.1445 C   0  0  0  0  0  0  0  0  0  0  0  0
  -27.5277  -11.3258   -3.4824 C   0  0  0  0  0  0  0  0  0  0  0  0
  -28.8387  -10.8613   -3.5317 C   0  0  0  0  0  0  0  0  0  0  0  0
  -29.1493   -9.7386   -4.3051 C   0  0  0  0  0  0  0  0  0  0  0  0
  -28.1572   -8.9842   -4.9598 C   0  0  0  0  0  0  0  0  0  0  0  0
  -26.8401   -9.4595   -4.8623 C   0  0  0  0  0  0  0  0  0  0  0  0
  -24.3935  -10.4024   -3.1083 C   0  0  0  0  0  0  0  0  0  0  0  0
  -25.1919  -10.9363   -4.1565 O   0  0  0  0  0  0  0  0  0  0  0  0
  -29.8958  -11.4208   -2.8636 O   0  0  0  0  0  0  0  0  0  0  0  0
  -30.6769  -12.3482   -3.6126 C   0  0  0  0  0  0  0  0  0  0  0  0
  -29.4199   -8.5421   -7.7017 N   0  0  0  0  0  0  0  0  0  0  0  0
  -28.5935   -8.8693   -8.7652 C   0  0  0  0  0  0  0  0  0  0  0  0
  -27.5464   -8.2984   -9.0376 O   0  0  0  0  0  0  0  0  0  0  0  0
  -29.0777   -9.9778   -9.4447 N   0  0  0  0  0  0  0  0  0  0  0  0
  -29.5323   -9.3778   -7.1433 H   0  0  0  0  0  0  0  0  0  0  0  0
  -30.0877  -10.0097   -9.4939 H   0  0  0  0  0  0  0  0  0  0  0  0
  -28.3324  -10.6714  -10.5176 C   0  0  0  0  0  0  0  0  0  0  0  0
  -26.8456  -10.2797  -10.4601 C   0  0  0  0  0  0  0  0  0  0  0  0
  -28.4203  -12.1975  -10.3038 C   0  0  0  0  0  0  0  0  0  0  0  0
  -28.9075  -10.3632  -11.9094 C   0  0  0  0  0  0  0  0  0  0  0  0
  -28.7500   -1.5089   -7.1469 N   0  0  0  0  0  0  0  0  0  0  0  0
  -29.3073   -0.7927   -6.7046 H   0  0  0  0  0  0  0  0  0  0  0  0
  -27.6465   -1.0861   -7.9981 C   0  0  0  0  0  0  0  0  0  0  0  0
  -27.5237   -2.1152   -9.1239 C   0  0  0  0  0  0  0  0  0  0  0  0
  -27.5726   -1.5194  -10.5280 C   0  0  0  0  0  0  0  0  0  0  0  0
  -26.4626   -1.9113  -11.4031 N   0  0  0  0  0  0  0  0  0  0  0  0
  -26.5872   -1.3684  -12.7708 C   0  0  0  0  0  0  0  0  0  0  0  0
  -25.3898   -1.7735  -13.6611 C   0  0  0  0  0  0  0  0  0  0  0  0
  -24.0647   -1.4020  -13.1262 N   0  0  0  0  0  0  0  0  0  0  0  0
  -23.8234    0.0334  -13.2430 C   0  0  0  0  0  0  0  0  0  0  0  0
  -23.9687   -1.8620  -11.7258 C   0  0  0  0  0  0  0  0  0  0  0  0
  -25.1711   -1.4926  -10.8235 C   0  0  0  0  0  0  0  0  0  0  0  0
 17 18  1  0  0  0
 18 11  1  0  0  0
 11 12  1  0  0  0
 11 16  2  0  0  0
 12 13  2  0  0  0
 13 19  1  0  0  0
 13 14  1  0  0  0
 19 20  1  0  0  0
 14 15  2  0  0  0
 15  1  1  0  0  0
 15 16  1  0  0  0
  1  2  1  0  0  0
  1 10  2  0  0  0
  2  3  2  0  0  0
  3  4  1  0  0  0
  3  8  1  0  0  0
  4  5  2  0  0  0
  5  6  1  0  0  0
  6 31  1  0  0  0
  6  7  2  0  0  0
 31 33  1  0  0  0
 31 32  1  0  0  0
 33 34  1  0  0  0
 34 35  1  0  0  0
 35 36  1  0  0  0
 36 37  1  0  0  0
 36 42  1  0  0  0
 37 38  1  0  0  0
 38 39  1  0  0  0
 39 40  1  0  0  0
 39 41  1  0  0  0
 41 42  1  0  0  0
  7  8  1  0  0  0
  8  9  2  0  0  0
  9 10  1  0  0  0
 10 21  1  0  0  0
 21 22  1  0  0  0
 21 25  1  0  0  0
 22 23  2  0  0  0
 22 24  1  0  0  0
 24 27  1  0  0  0
 24 26  1  0  0  0
 27 28  1  0  0  0
 27 29  1  0  0  0
 27 30  1  0  0  0
M  END
> <minimizedAffinity>
-8.79948

$$$$
