CHEMBL3093587


 40 45  0  0  0  0  0  0  0  0999 V2000
  -14.2639    0.9589  -14.2540 C   0  0  0  0  0  0  0  0  0  0  0  0
  -15.4885    0.7516  -13.6130 C   0  0  0  0  0  0  0  0  0  0  0  0
  -15.7413   -0.4008  -12.8428 C   0  0  0  0  0  0  0  0  0  0  0  0
  -14.7748   -1.3913  -12.7162 C   0  0  0  0  0  0  0  0  0  0  0  0
  -13.5784   -1.2541  -13.4251 C   0  0  0  0  0  0  0  0  0  0  0  0
  -13.3348   -0.0954  -14.2049 C   0  0  0  0  0  0  0  0  0  0  0  0
  -14.1904    2.5143  -16.2347 C   0  0  0  0  0  0  0  0  0  0  0  0
  -14.7259    1.7645  -17.0506 O   0  0  0  0  0  0  0  0  0  0  0  0
  -13.9213    2.1904  -14.9050 N   0  0  0  0  0  0  0  0  0  0  0  0
  -13.5851    2.9464  -14.3062 H   0  0  0  0  0  0  0  0  0  0  0  0
  -11.9924    7.0108  -16.5217 C   0  0  0  0  0  0  0  0  0  0  0  0
  -12.6622    5.8127  -17.0283 N   0  0  0  0  0  0  0  0  0  0  0  0
  -12.7894    4.6174  -16.3438 C   0  0  0  0  0  0  0  0  0  0  0  0
  -13.8764    3.8959  -16.6740 C   0  0  0  0  0  0  0  0  0  0  0  0
  -14.6113    4.7897  -17.6175 C   0  0  0  0  0  0  0  0  0  0  0  0
  -15.6268    4.4388  -18.1737 O   0  0  0  0  0  0  0  0  0  0  0  0
  -13.8710    5.9815  -17.7264 N   0  0  0  0  0  0  0  0  0  0  0  0
  -13.9983    6.8806  -18.8079 C   0  0  0  0  0  0  0  0  0  0  0  0
  -13.2302    6.6812  -19.9601 C   0  0  0  0  0  0  0  0  0  0  0  0
  -13.3862    7.5155  -21.0711 C   0  0  0  0  0  0  0  0  0  0  0  0
  -14.2903    8.5768  -21.0281 C   0  0  0  0  0  0  0  0  0  0  0  0
  -15.0474    8.7968  -19.8811 C   0  0  0  0  0  0  0  0  0  0  0  0
  -14.9154    7.9435  -18.7812 C   0  0  0  0  0  0  0  0  0  0  0  0
  -14.8849   -2.5163  -11.8341 O   0  0  0  0  0  0  0  0  0  0  0  0
  -14.9591   -3.8701  -12.2038 C   0  0  0  0  0  0  0  0  0  0  0  0
  -16.4129   -4.2839  -12.3097 C   0  0  0  0  0  0  0  0  0  0  0  0
  -16.5577   -5.6316  -12.3510 C   0  0  0  0  0  0  0  0  0  0  0  0
  -15.5219   -6.3868  -12.9589 C   0  0  0  0  0  0  0  0  0  0  0  0
  -15.5047   -7.4838  -13.6789 N   0  0  0  0  0  0  0  0  0  0  0  0
  -14.2063   -7.6387  -14.0815 C   0  0  0  0  0  0  0  0  0  0  0  0
  -13.3954   -6.7030  -13.4805 C   0  0  0  0  0  0  0  0  0  0  0  0
  -14.2565   -5.8332  -12.8774 N   0  0  0  0  0  0  0  0  0  0  0  0
  -13.9223   -4.6076  -12.4213 N   0  0  0  0  0  0  0  0  0  0  0  0
  -13.7594   -8.5551  -15.0096 N   0  0  0  0  0  0  0  0  0  0  0  0
  -13.7147   -8.3070  -16.3579 C   0  0  0  0  0  0  0  0  0  0  0  0
  -14.1228   -7.3014  -16.9412 O   0  0  0  0  0  0  0  0  0  0  0  0
  -13.3285   -9.3930  -14.6414 H   0  0  0  0  0  0  0  0  0  0  0  0
  -13.0321   -9.3862  -17.1514 C   0  0  0  0  0  0  0  0  0  0  0  0
  -13.1609   -9.3935  -18.6605 C   0  0  0  0  0  0  0  0  0  0  0  0
  -13.8793  -10.4313  -17.8485 C   0  0  0  0  0  0  0  0  0  0  0  0
 11 12  1  0  0  0
 12 13  1  0  0  0
 12 17  1  0  0  0
 13 14  2  0  0  0
 14  7  1  0  0  0
 14 15  1  0  0  0
  7  8  2  0  0  0
  7  9  1  0  0  0
  9  1  1  0  0  0
  9 10  1  0  0  0
  1  2  1  0  0  0
  1  6  2  0  0  0
  2  3  2  0  0  0
  3  4  1  0  0  0
  4 24  1  0  0  0
  4  5  2  0  0  0
 24 25  1  0  0  0
 25 26  1  0  0  0
 25 33  2  0  0  0
 26 27  2  0  0  0
 27 28  1  0  0  0
 28 29  2  0  0  0
 28 32  1  0  0  0
 29 30  1  0  0  0
 30 34  1  0  0  0
 30 31  2  0  0  0
 34 35  1  0  0  0
 34 37  1  0  0  0
 35 36  2  0  0  0
 35 38  1  0  0  0
 38 39  1  0  0  0
 38 40  1  0  0  0
 39 40  1  0  0  0
 31 32  1  0  0  0
 32 33  1  0  0  0
  5  6  1  0  0  0
 15 16  2  0  0  0
 15 17  1  0  0  0
 17 18  1  0  0  0
 18 19  1  0  0  0
 18 23  2  0  0  0
 19 20  2  0  0  0
 20 21  1  0  0  0
 21 22  2  0  0  0
 22 23  1  0  0  0
M  END
> <minimizedAffinity>
-7.58531

$$$$
