CHEMBL3937533


 42 47  0  0  0  0  0  0  0  0999 V2000
  -28.8256   -3.9678   -7.0716 C   0  0  0  0  0  0  0  0  0  0  0  0
  -28.6384   -2.6992   -6.5202 C   0  0  0  0  0  0  0  0  0  0  0  0
  -28.0450   -1.6964   -7.1680 C   0  0  0  0  0  0  0  0  0  0  0  0
  -27.5387   -1.8731   -8.4182 C   0  0  0  0  0  0  0  0  0  0  0  0
  -27.1099   -0.7584   -8.9683 N   0  0  0  0  0  0  0  0  0  0  0  0
  -26.5868   -0.7144  -10.1684 C   0  0  0  0  0  0  0  0  0  0  0  0
  -26.3728   -1.8687  -10.9205 C   0  0  0  0  0  0  0  0  0  0  0  0
  -26.8782   -3.0899  -10.3819 N   0  0  0  0  0  0  0  0  0  0  0  0
  -27.5115   -3.1057   -9.1005 C   0  0  0  0  0  0  0  0  0  0  0  0
  -28.1838   -4.2212   -8.3929 C   0  0  0  0  0  0  0  0  0  0  0  0
  -25.5840   -1.5277  -12.2229 C   0  0  0  0  0  0  0  0  0  0  0  0
  -25.8624   -1.5059  -13.5980 C   0  0  0  0  0  0  0  0  0  0  0  0
  -24.7415   -1.1247  -14.2909 N   0  0  0  0  0  0  0  0  0  0  0  0
  -23.7602   -0.9290  -13.4221 N   0  0  0  0  0  0  0  0  0  0  0  0
  -24.2207   -1.1613  -12.1951 C   0  0  0  0  0  0  0  0  0  0  0  0
  -22.3382   -0.6085  -13.6526 C   0  0  0  0  0  0  0  0  0  0  0  0
  -21.9758    0.8783  -13.5900 C   0  0  0  0  0  0  0  0  0  0  0  0
  -21.5191    1.4381  -14.8895 N   0  0  0  0  0  0  0  0  0  0  0  0
  -20.2580    0.7974  -15.3252 C   0  0  0  0  0  0  0  0  0  0  0  0
  -19.0447    1.2479  -14.4692 C   0  0  0  0  0  0  0  0  0  0  0  0
  -18.8860    2.7195  -14.4575 N   0  0  0  0  0  0  0  0  0  0  0  0
  -20.1515    3.3632  -14.0335 C   0  0  0  0  0  0  0  0  0  0  0  0
  -21.3387    2.9134  -14.9081 C   0  0  0  0  0  0  0  0  0  0  0  0
  -18.3281    3.2225  -15.7374 C   0  0  0  0  0  0  0  0  0  0  0  0
  -16.8255    3.5337  -15.6619 C   0  0  0  0  0  0  0  0  0  0  0  0
  -16.6005    4.9156  -15.6080 O   0  0  0  0  0  0  0  0  0  0  0  0
  -16.7685    5.2686  -16.5203 H   0  0  0  0  0  0  0  0  0  0  0  0
  -29.7149   -4.7946   -6.2227 N   0  0  0  0  0  0  0  0  0  0  0  0
  -28.4799   -8.3314   -5.3306 C   0  0  0  0  0  0  0  0  0  0  0  0
  -29.5186   -9.0728   -5.9060 C   0  0  0  0  0  0  0  0  0  0  0  0
  -30.5754   -8.4442   -6.5550 C   0  0  0  0  0  0  0  0  0  0  0  0
  -30.5947   -7.0439   -6.6533 C   0  0  0  0  0  0  0  0  0  0  0  0
  -29.6257   -6.2417   -6.0845 C   0  0  0  0  0  0  0  0  0  0  0  0
  -28.5400   -6.9100   -5.4090 C   0  0  0  0  0  0  0  0  0  0  0  0
  -27.5216   -9.7969   -3.6082 C   0  0  0  0  0  0  0  0  0  0  0  0
  -27.4256   -8.9503   -4.7102 O   0  0  0  0  0  0  0  0  0  0  0  0
  -31.5702   -9.1998   -7.0699 O   0  0  0  0  0  0  0  0  0  0  0  0
  -32.8385   -8.7204   -7.3249 C   0  0  0  0  0  0  0  0  0  0  0  0
  -30.4905   -4.0262   -5.2113 C   0  0  0  0  0  0  0  0  0  0  0  0
  -30.6280   -4.7098   -3.8293 C   0  0  0  0  0  0  0  0  0  0  0  0
  -31.9422   -5.3862   -3.4702 C   0  0  0  0  0  0  0  0  0  0  0  0
  -31.7030   -3.9622   -3.0133 C   0  0  0  0  0  0  0  0  0  0  0  0
 35 36  1  0  0  0
 36 29  1  0  0  0
 29 30  1  0  0  0
 29 34  2  0  0  0
 30 31  2  0  0  0
 31 37  1  0  0  0
 31 32  1  0  0  0
 37 38  1  0  0  0
 32 33  2  0  0  0
 33 28  1  0  0  0
 33 34  1  0  0  0
 28 39  1  0  0  0
 28  1  1  0  0  0
 39 40  1  0  0  0
 40 41  1  0  0  0
 40 42  1  0  0  0
 41 42  1  0  0  0
  1  2  1  0  0  0
  1 10  2  0  0  0
  2  3  2  0  0  0
  3  4  1  0  0  0
  4  5  1  0  0  0
  4  9  2  0  0  0
  5  6  2  0  0  0
  6  7  1  0  0  0
  7 11  1  0  0  0
  7  8  2  0  0  0
 11 12  1  0  0  0
 11 15  2  0  0  0
 12 13  2  0  0  0
 13 14  1  0  0  0
 14 16  1  0  0  0
 14 15  1  0  0  0
 16 17  1  0  0  0
 17 18  1  0  0  0
 18 19  1  0  0  0
 18 23  1  0  0  0
 19 20  1  0  0  0
 20 21  1  0  0  0
 21 24  1  0  0  0
 21 22  1  0  0  0
 24 25  1  0  0  0
 25 26  1  0  0  0
 26 27  1  0  0  0
 22 23  1  0  0  0
  8  9  1  0  0  0
  9 10  1  0  0  0
M  END
> <minimizedAffinity>
-8.10699

$$$$
