CHEMBL3966929


 49 52  0  0  0  0  0  0  0  0999 V2000
  -15.3541    2.0180  -15.9595 N   0  0  0  0  0  0  0  0  0  0  0  0
  -16.7682    2.1747  -15.6644 C   0  0  0  0  0  0  0  0  0  0  0  0
  -17.3354    0.9989  -15.3175 C   0  0  0  0  0  0  0  0  0  0  0  0
  -18.5094    0.9599  -14.9299 C   0  0  0  0  0  0  0  0  0  0  0  0
  -19.2033    1.9862  -14.8442 C   0  0  0  0  0  0  0  0  0  0  0  0
  -20.1785    1.5170  -14.5234 N   0  0  0  0  0  0  0  0  0  0  0  0
  -21.1166    1.0264  -14.2131 C   0  0  0  0  0  0  0  0  0  0  0  0
  -22.0136    1.8900  -14.0368 C   0  0  0  0  0  0  0  0  0  0  0  0
  -20.9593    3.4531  -14.4501 N   0  0  0  0  0  0  0  0  0  0  0  0
  -19.2844    3.2511  -14.9830 C   0  0  0  0  0  0  0  0  0  0  0  0
  -17.6719    3.4421  -15.5871 C   0  0  0  0  0  0  0  0  0  0  0  0
  -23.4839    0.4697  -13.6488 C   0  0  0  0  0  0  0  0  0  0  0  0
  -24.0405   -0.8260  -14.1909 C   0  0  0  0  0  0  0  0  0  0  0  0
  -24.8013   -1.5592  -13.2410 N   0  0  0  0  0  0  0  0  0  0  0  0
  -24.8565   -0.8748  -12.1088 N   0  0  0  0  0  0  0  0  0  0  0  0
  -25.5274   -1.4179  -10.8599 C   0  0  0  0  0  0  0  0  0  0  0  0
  -24.1269    0.3327  -12.2960 C   0  0  0  0  0  0  0  0  0  0  0  0
  -14.3063    4.7623  -18.2475 C   0  0  0  0  0  0  0  0  0  0  0  0
  -13.5968    5.5319  -17.3551 C   0  0  0  0  0  0  0  0  0  0  0  0
  -13.3310    5.1217  -16.0546 C   0  0  0  0  0  0  0  0  0  0  0  0
  -13.8007    3.8904  -15.6407 C   0  0  0  0  0  0  0  0  0  0  0  0
  -14.5908    3.1157  -16.4927 C   0  0  0  0  0  0  0  0  0  0  0  0
  -14.7429    3.5201  -17.8335 C   0  0  0  0  0  0  0  0  0  0  0  0
  -14.9862    6.7406  -20.8206 H   0  0  0  0  0  0  0  0  0  0  0  0
  -14.6723    6.5699  -19.7786 C   0  0  0  0  0  0  0  0  0  0  0  0
  -13.6606    6.9846  -19.6443 H   0  0  0  0  0  0  0  0  0  0  0  0
  -15.3678    7.1187  -19.1250 H   0  0  0  0  0  0  0  0  0  0  0  0
  -14.6026    5.2257  -19.4864 O   0  0  0  0  0  0  0  0  0  0  0  0
  -12.6728    5.9356  -15.1948 O   0  0  0  0  0  0  0  0  0  0  0  0
  -11.4391    5.5935  -14.6682 C   0  0  0  0  0  0  0  0  0  0  0  0
  -11.5386    4.6545  -14.0910 H   0  0  0  0  0  0  0  0  0  0  0  0
  -10.6997    5.4213  -15.4799 H   0  0  0  0  0  0  0  0  0  0  0  0
  -11.0483    6.3714  -14.0049 H   0  0  0  0  0  0  0  0  0  0  0  0
  -14.6904    0.7452  -15.6866 C   0  0  0  0  0  0  0  0  0  0  0  0
  -15.4390   -0.0783  -15.6671 H   0  0  0  0  0  0  0  0  0  0  0  0
  -13.9527    0.5153  -16.4780 H   0  0  0  0  0  0  0  0  0  0  0  0
  -13.9971    0.7619  -14.3408 C   0  0  0  0  0  0  0  0  0  0  0  0
  -12.9774    1.1112  -14.4655 H   0  0  0  0  0  0  0  0  0  0  0  0
  -14.5433    1.4502  -13.6695 H   0  0  0  0  0  0  0  0  0  0  0  0
  -13.9006   -0.6006  -13.7318 C   0  0  0  0  0  0  0  0  0  0  0  0
  -14.0102   -1.3492  -14.5310 H   0  0  0  0  0  0  0  0  0  0  0  0
  -12.9080   -0.7069  -13.2610 H   0  0  0  0  0  0  0  0  0  0  0  0
  -14.9432   -0.7605  -12.7240 N   0  0  0  0  0  0  0  0  0  0  0  0
  -15.6123    0.0401  -12.8029 H   0  0  0  0  0  0  0  0  0  0  0  0
  -15.6653   -2.0042  -12.9734 C   0  0  0  0  0  0  0  0  0  0  0  0
  -15.7551   -2.8149  -11.7006 C   0  0  0  0  0  0  0  0  0  0  0  0
  -16.7316   -3.7744  -11.8298 F   0  0  0  0  0  0  0  0  0  0  0  0
  -14.5483   -3.4267  -11.4511 F   0  0  0  0  0  0  0  0  0  0  0  0
  -16.0669   -1.9947  -10.6414 F   0  0  0  0  0  0  0  0  0  0  0  0
 24 25  1  0  0  0
 25 26  1  0  0  0
 25 27  1  0  0  0
 25 28  1  0  0  0
 28 18  1  0  0  0
 18 19  1  0  0  0
 18 23  2  0  0  0
 19 20  2  0  0  0
 20 29  1  0  0  0
 20 21  1  0  0  0
 29 30  1  0  0  0
 30 31  1  0  0  0
 30 32  1  0  0  0
 30 33  1  0  0  0
 21 22  2  0  0  0
 22  1  1  0  0  0
 22 23  1  0  0  0
  1  2  1  0  0  0
  1 34  1  0  0  0
  2  3  1  0  0  0
  2 11  2  0  0  0
  3  4  2  0  0  0
  4  5  1  0  0  0
  5  6  1  0  0  0
  5 10  2  0  0  0
  6  7  2  0  0  0
  7  8  1  0  0  0
  8 12  1  0  0  0
  8  9  2  0  0  0
 12 13  1  0  0  0
 12 17  2  0  0  0
 13 14  2  0  0  0
 14 15  1  0  0  0
 15 16  1  0  0  0
 15 17  1  0  0  0
  9 10  1  0  0  0
 10 11  1  0  0  0
 34 35  1  0  0  0
 34 36  1  0  0  0
 34 37  1  0  0  0
 37 38  1  0  0  0
 37 39  1  0  0  0
 37 40  1  0  0  0
 40 41  1  0  0  0
 40 42  1  0  0  0
 40 43  1  0  0  0
 43 45  1  0  0  0
 43 44  1  0  0  0
 45 46  1  0  0  0
 46 47  1  0  0  0
 46 48  1  0  0  0
 46 49  1  0  0  0
M  ISO 1  24   2
M  ISO 1  26   2
M  ISO 1  27   2
M  ISO 1  31   2
M  ISO 1  32   2
M  ISO 1  33   2
M  ISO 1  35   2
M  ISO 1  36   2
M  ISO 1  38   2
M  ISO 1  39   2
M  ISO 1  41   2
M  ISO 1  42   2
M  END
> <minimizedAffinity>
-9.32172

$$$$
