CHEMBL4086643


 41 45  0  0  0  0  0  0  0  0999 V2000
  -28.3542   -6.4028   -7.2908 N   0  0  0  0  0  0  0  0  0  0  0  0
  -29.2651   -5.3797   -6.9765 C   0  0  0  0  0  0  0  0  0  0  0  0
  -30.3856   -5.5665   -6.5160 O   0  0  0  0  0  0  0  0  0  0  0  0
  -27.3763   -6.1661   -7.4115 H   0  0  0  0  0  0  0  0  0  0  0  0
  -28.8863   -3.9417   -7.1778 C   0  0  0  0  0  0  0  0  0  0  0  0
  -29.0344   -2.9656   -6.1871 C   0  0  0  0  0  0  0  0  0  0  0  0
  -28.5332   -1.6717   -6.4145 C   0  0  0  0  0  0  0  0  0  0  0  0
  -27.8823   -1.3598   -7.6057 C   0  0  0  0  0  0  0  0  0  0  0  0
  -27.3951   -0.1238   -7.7584 F   0  0  0  0  0  0  0  0  0  0  0  0
  -27.7092   -2.3149   -8.6092 C   0  0  0  0  0  0  0  0  0  0  0  0
  -28.2188   -3.5998   -8.3906 C   0  0  0  0  0  0  0  0  0  0  0  0
  -26.9589   -1.9656   -9.7911 C   0  0  0  0  0  0  0  0  0  0  0  0
  -26.4998   -1.7384  -10.8781 C   0  0  0  0  0  0  0  0  0  0  0  0
  -26.1554   -1.5597  -12.2690 C   0  0  0  0  0  0  0  0  0  0  0  0
  -27.0502   -1.8987  -13.2787 C   0  0  0  0  0  0  0  0  0  0  0  0
  -26.8503   -1.6450  -14.5960 N   0  0  0  0  0  0  0  0  0  0  0  0
  -25.6656   -1.0824  -14.9280 C   0  0  0  0  0  0  0  0  0  0  0  0
  -24.6413   -0.8042  -14.0221 C   0  0  0  0  0  0  0  0  0  0  0  0
  -23.3761   -0.3524  -14.4440 C   0  0  0  0  0  0  0  0  0  0  0  0
  -22.3709   -0.0895  -13.5143 C   0  0  0  0  0  0  0  0  0  0  0  0
  -22.6377   -0.2135  -12.1572 C   0  0  0  0  0  0  0  0  0  0  0  0
  -23.8908   -0.6559  -11.7293 C   0  0  0  0  0  0  0  0  0  0  0  0
  -24.9058   -1.0081  -12.6493 C   0  0  0  0  0  0  0  0  0  0  0  0
  -29.3365  -10.6032   -7.2493 C   0  0  0  0  0  0  0  0  0  0  0  0
  -29.6634   -9.7376   -6.1940 C   0  0  0  0  0  0  0  0  0  0  0  0
  -29.3771   -8.3715   -6.2272 C   0  0  0  0  0  0  0  0  0  0  0  0
  -28.6892   -7.7966   -7.2897 C   0  0  0  0  0  0  0  0  0  0  0  0
  -28.3587   -8.6414   -8.3629 C   0  0  0  0  0  0  0  0  0  0  0  0
  -28.6771  -10.0470   -8.3658 C   0  0  0  0  0  0  0  0  0  0  0  0
  -28.2391  -10.8606   -9.5731 C   0  0  0  0  0  0  0  0  0  0  0  0
  -28.0287  -12.1873   -9.3635 F   0  0  0  0  0  0  0  0  0  0  0  0
  -29.1372  -10.7905  -10.5969 F   0  0  0  0  0  0  0  0  0  0  0  0
  -27.0656  -10.3932  -10.0917 F   0  0  0  0  0  0  0  0  0  0  0  0
  -29.7320  -12.0690   -7.0685 C   0  0  0  0  0  0  0  0  0  0  0  0
  -33.2261   -8.7801   -7.0462 C   0  0  0  0  0  0  0  0  0  0  0  0
  -32.9204  -10.1460   -7.4681 N   0  0  0  0  0  0  0  0  0  0  0  0
  -31.8069  -10.1559   -8.4295 C   0  0  0  0  0  0  0  0  0  0  0  0
  -31.4121  -11.5954   -8.8366 C   0  0  0  0  0  0  0  0  0  0  0  0
  -31.0021  -12.4656   -7.7099 N   0  0  0  0  0  0  0  0  0  0  0  0
  -32.1207  -12.4307   -6.7257 C   0  0  0  0  0  0  0  0  0  0  0  0
  -32.6070  -11.0098   -6.3133 C   0  0  0  0  0  0  0  0  0  0  0  0
 35 36  1  0  0  0
 36 37  1  0  0  0
 36 41  1  0  0  0
 37 38  1  0  0  0
 38 39  1  0  0  0
 39 34  1  0  0  0
 39 40  1  0  0  0
 34 24  1  0  0  0
 24 25  1  0  0  0
 24 29  2  0  0  0
 25 26  2  0  0  0
 26 27  1  0  0  0
 27  1  1  0  0  0
 27 28  2  0  0  0
  1  2  1  0  0  0
  1  4  1  0  0  0
  2  3  2  0  0  0
  2  5  1  0  0  0
  5  6  1  0  0  0
  5 11  2  0  0  0
  6  7  2  0  0  0
  7  8  1  0  0  0
  8  9  1  0  0  0
  8 10  2  0  0  0
 10 12  1  0  0  0
 10 11  1  0  0  0
 12 13  3  0  0  0
 13 14  1  0  0  0
 14 15  1  0  0  0
 14 23  2  0  0  0
 15 16  2  0  0  0
 16 17  1  0  0  0
 17 18  2  0  0  0
 18 19  1  0  0  0
 18 23  1  0  0  0
 19 20  2  0  0  0
 20 21  1  0  0  0
 21 22  2  0  0  0
 22 23  1  0  0  0
 28 29  1  0  0  0
 29 30  1  0  0  0
 30 31  1  0  0  0
 30 32  1  0  0  0
 30 33  1  0  0  0
 40 41  1  0  0  0
M  END
> <minimizedAffinity>
-11.05450

$$$$
