CHEMBL4227378


 42 44  0  0  0  0  0  0  0  0999 V2000
  -26.6579   -1.3210   -9.6545 N   0  0  0  0  0  0  0  0  0  0  0  0
  -26.1506   -0.5154   -9.3076 H   0  0  0  0  0  0  0  0  0  0  0  0
  -28.9581   -2.9945   -6.5522 C   0  0  0  0  0  0  0  0  0  0  0  0
  -28.4489   -1.6982   -6.4682 C   0  0  0  0  0  0  0  0  0  0  0  0
  -27.7222   -1.1727   -7.5370 C   0  0  0  0  0  0  0  0  0  0  0  0
  -27.4600   -1.9409   -8.6853 C   0  0  0  0  0  0  0  0  0  0  0  0
  -27.9353   -3.2441   -8.7452 C   0  0  0  0  0  0  0  0  0  0  0  0
  -28.6809   -3.7686   -7.6844 C   0  0  0  0  0  0  0  0  0  0  0  0
  -29.7862   -3.4997   -5.4269 C   0  0  0  0  0  0  0  0  0  0  0  0
  -30.0954   -2.7593   -4.5002 O   0  0  0  0  0  0  0  0  0  0  0  0
  -29.7770   -5.8345   -4.6733 C   0  0  0  0  0  0  0  0  0  0  0  0
  -30.2466   -4.9085   -5.5119 C   0  0  0  0  0  0  0  0  0  0  0  0
  -30.1118   -7.1640   -4.6246 N   0  0  0  0  0  0  0  0  0  0  0  0
  -31.0356   -7.3539   -4.2160 H   0  0  0  0  0  0  0  0  0  0  0  0
  -29.4267   -9.0087   -6.0150 C   0  0  0  0  0  0  0  0  0  0  0  0
  -29.3547   -8.3024   -4.8682 C   0  0  0  0  0  0  0  0  0  0  0  0
  -28.4748   -8.8327   -3.7569 C   0  0  0  0  0  0  0  0  0  0  0  0
  -30.2948   -8.6102   -7.1435 C   0  0  0  0  0  0  0  0  0  0  0  0
  -30.0763   -7.6791   -7.9026 O   0  0  0  0  0  0  0  0  0  0  0  0
  -32.6067   -8.7588   -7.3366 C   0  0  0  0  0  0  0  0  0  0  0  0
  -31.3638   -9.4441   -7.1795 O   0  0  0  0  0  0  0  0  0  0  0  0
  -26.2872   -1.6434  -10.9442 C   0  0  0  0  0  0  0  0  0  0  0  0
  -27.2327   -1.9492  -12.2797 S   0  0  0  0  0  0  0  0  0  0  0  0
  -24.9072   -1.6433  -11.1149 N   0  0  0  0  0  0  0  0  0  0  0  0
  -24.3823   -2.2116  -10.4591 H   0  0  0  0  0  0  0  0  0  0  0  0
  -24.1813   -0.8645  -12.0488 C   0  0  0  0  0  0  0  0  0  0  0  0
  -23.2496   -1.4512  -12.9152 C   0  0  0  0  0  0  0  0  0  0  0  0
  -22.4162   -0.6659  -13.7109 C   0  0  0  0  0  0  0  0  0  0  0  0
  -22.5546    0.7192  -13.6686 C   0  0  0  0  0  0  0  0  0  0  0  0
  -23.5417    1.3136  -12.8705 C   0  0  0  0  0  0  0  0  0  0  0  0
  -24.3749    0.5155  -12.0736 C   0  0  0  0  0  0  0  0  0  0  0  0
  -21.3669    1.7286  -14.5367 S   0  0  0  0  0  0  0  0  0  0  0  0
  -21.2816    1.2378  -15.8962 O   0  0  0  0  0  0  0  0  0  0  0  0
  -21.7134    3.1084  -14.2643 O   0  0  0  0  0  0  0  0  0  0  0  0
  -19.9160    1.4287  -13.7406 N   0  0  0  0  0  0  0  0  0  0  0  0
  -19.8959    0.4705  -13.3942 H   0  0  0  0  0  0  0  0  0  0  0  0
  -18.7483    1.7018  -14.4726 C   0  0  0  0  0  0  0  0  0  0  0  0
  -17.8713    0.7076  -14.8692 C   0  0  0  0  0  0  0  0  0  0  0  0
  -16.7622    1.0874  -15.6180 C   0  0  0  0  0  0  0  0  0  0  0  0
  -16.5652    2.4349  -15.9062 C   0  0  0  0  0  0  0  0  0  0  0  0
  -17.4913    3.3512  -15.4312 C   0  0  0  0  0  0  0  0  0  0  0  0
  -18.5890    3.0113  -14.7216 N   0  0  0  0  0  0  0  0  0  0  0  0
 20 21  1  0  0  0
 21 18  1  0  0  0
 18 19  2  0  0  0
 18 15  1  0  0  0
 15 16  2  0  0  0
 16 17  1  0  0  0
 16 13  1  0  0  0
 13 11  1  0  0  0
 13 14  1  0  0  0
 11 12  2  0  0  0
 12  9  1  0  0  0
  9 10  2  0  0  0
  9  3  1  0  0  0
  3  4  1  0  0  0
  3  8  2  0  0  0
  4  5  2  0  0  0
  5  6  1  0  0  0
  6  1  1  0  0  0
  6  7  2  0  0  0
  1 22  1  0  0  0
  1  2  1  0  0  0
 22 23  2  0  0  0
 22 24  1  0  0  0
 24 26  1  0  0  0
 24 25  1  0  0  0
 26 27  1  0  0  0
 26 31  2  0  0  0
 27 28  2  0  0  0
 28 29  1  0  0  0
 29 32  1  0  0  0
 29 30  2  0  0  0
 32 33  2  0  0  0
 32 34  2  0  0  0
 32 35  1  0  0  0
 35 37  1  0  0  0
 35 36  1  0  0  0
 37 38  1  0  0  0
 37 42  2  0  0  0
 38 39  2  0  0  0
 39 40  1  0  0  0
 40 41  2  0  0  0
 41 42  1  0  0  0
 30 31  1  0  0  0
  7  8  1  0  0  0
M  END
> <minimizedAffinity>
-8.90453

$$$$
