CHEMBL3740923


 35 40  0  0  0  0  0  0  0  0999 V2000
  -27.9820  -10.4686   -8.3967 C   0  0  0  0  0  0  0  0  0  0  0  0
  -27.3584  -10.6199   -9.6214 C   0  0  0  0  0  0  0  0  0  0  0  0
  -26.0605  -10.9786   -9.4100 N   0  0  0  0  0  0  0  0  0  0  0  0
  -25.7686  -10.9915   -8.0639 C   0  0  0  0  0  0  0  0  0  0  0  0
  -26.9635  -10.6835   -7.3937 C   0  0  0  0  0  0  0  0  0  0  0  0
  -25.3933  -11.1835  -10.1365 H   0  0  0  0  0  0  0  0  0  0  0  0
  -33.5798   -9.2661   -7.7592 O   0  0  0  0  0  0  0  0  0  0  0  0
  -32.2309   -9.4383   -7.8897 C   0  0  0  0  0  0  0  0  0  0  0  0
  -31.7870  -10.6642   -8.2634 N   0  0  0  0  0  0  0  0  0  0  0  0
  -30.3752  -10.9786   -8.4302 N   0  0  0  0  0  0  0  0  0  0  0  0
  -29.3698  -10.0679   -8.2656 C   0  0  0  0  0  0  0  0  0  0  0  0
  -29.8512   -8.7970   -7.9163 C   0  0  0  0  0  0  0  0  0  0  0  0
  -29.1458   -7.6355   -7.7696 C   0  0  0  0  0  0  0  0  0  0  0  0
  -30.0435   -6.6840   -7.3489 N   0  0  0  0  0  0  0  0  0  0  0  0
  -31.3166   -7.1608   -7.3212 N   0  0  0  0  0  0  0  0  0  0  0  0
  -31.2375   -8.4537   -7.6984 C   0  0  0  0  0  0  0  0  0  0  0  0
  -33.9130  -10.1482   -7.9994 H   0  0  0  0  0  0  0  0  0  0  0  0
  -29.7439   -5.3430   -6.9767 C   0  0  0  0  0  0  0  0  0  0  0  0
  -30.1839   -4.8177   -5.7473 C   0  0  0  0  0  0  0  0  0  0  0  0
  -29.8775   -3.5029   -5.3871 C   0  0  0  0  0  0  0  0  0  0  0  0
  -29.1305   -2.7058   -6.2513 C   0  0  0  0  0  0  0  0  0  0  0  0
  -28.7021   -3.2116   -7.4774 C   0  0  0  0  0  0  0  0  0  0  0  0
  -29.0037   -4.5277   -7.8426 C   0  0  0  0  0  0  0  0  0  0  0  0
  -24.3965  -11.2985   -7.6218 C   0  0  0  0  0  0  0  0  0  0  0  0
  -23.6020  -12.2027   -8.3480 C   0  0  0  0  0  0  0  0  0  0  0  0
  -22.2837  -12.4660   -7.9678 C   0  0  0  0  0  0  0  0  0  0  0  0
  -21.7320  -11.8096   -6.8710 C   0  0  0  0  0  0  0  0  0  0  0  0
  -22.5068  -10.9161   -6.1375 C   0  0  0  0  0  0  0  0  0  0  0  0
  -23.8376  -10.6868   -6.4938 C   0  0  0  0  0  0  0  0  0  0  0  0
  -27.0959  -10.6265   -5.9331 C   0  0  0  0  0  0  0  0  0  0  0  0
  -27.0647   -9.4057   -5.2442 C   0  0  0  0  0  0  0  0  0  0  0  0
  -27.0536   -9.3713   -3.8474 C   0  0  0  0  0  0  0  0  0  0  0  0
  -27.1525  -10.5543   -3.1206 C   0  0  0  0  0  0  0  0  0  0  0  0
  -27.2594  -11.7704   -3.7902 C   0  0  0  0  0  0  0  0  0  0  0  0
  -27.2113  -11.8076   -5.1866 C   0  0  0  0  0  0  0  0  0  0  0  0
  7  8  1  0  0  0
  7 17  1  0  0  0
  8  9  2  0  0  0
  8 16  1  0  0  0
  9 10  1  0  0  0
 10 11  2  0  0  0
 11  1  1  0  0  0
 11 12  1  0  0  0
  1  2  2  0  0  0
  1  5  1  0  0  0
  2  3  1  0  0  0
  3  4  1  0  0  0
  3  6  1  0  0  0
  4 24  1  0  0  0
  4  5  2  0  0  0
 24 25  1  0  0  0
 24 29  2  0  0  0
 25 26  2  0  0  0
 26 27  1  0  0  0
 27 28  2  0  0  0
 28 29  1  0  0  0
  5 30  1  0  0  0
 30 31  1  0  0  0
 30 35  2  0  0  0
 31 32  2  0  0  0
 32 33  1  0  0  0
 33 34  2  0  0  0
 34 35  1  0  0  0
 12 13  2  0  0  0
 12 16  1  0  0  0
 13 14  1  0  0  0
 14 18  1  0  0  0
 14 15  1  0  0  0
 18 19  1  0  0  0
 18 23  2  0  0  0
 19 20  2  0  0  0
 20 21  1  0  0  0
 21 22  2  0  0  0
 22 23  1  0  0  0
 15 16  2  0  0  0
M  END
> <minimizedAffinity>
-9.13872

$$$$
