CHEMBL3986661


 37 41  0  0  0  0  0  0  0  0999 V2000
  -14.7385    3.7585  -16.2037 C   0  0  0  0  0  0  0  0  0  0  0  0
  -14.2659    2.7614  -15.3480 C   0  0  0  0  0  0  0  0  0  0  0  0
  -15.1073    1.7431  -14.9459 C   0  0  0  0  0  0  0  0  0  0  0  0
  -16.4484    1.7552  -15.2484 C   0  0  0  0  0  0  0  0  0  0  0  0
  -17.0835    0.6155  -14.9734 N   0  0  0  0  0  0  0  0  0  0  0  0
  -18.4211    0.6354  -15.0699 C   0  0  0  0  0  0  0  0  0  0  0  0
  -19.1154    1.8028  -15.3340 C   0  0  0  0  0  0  0  0  0  0  0  0
  -18.4634    2.9282  -15.7580 N   0  0  0  0  0  0  0  0  0  0  0  0
  -17.0713    2.9037  -15.7866 C   0  0  0  0  0  0  0  0  0  0  0  0
  -16.1484    3.8837  -16.3263 C   0  0  0  0  0  0  0  0  0  0  0  0
  -20.4571    1.8551  -14.7469 C   0  0  0  0  0  0  0  0  0  0  0  0
  -21.3414    2.8814  -14.3489 C   0  0  0  0  0  0  0  0  0  0  0  0
  -22.5306    2.4152  -13.9256 N   0  0  0  0  0  0  0  0  0  0  0  0
  -22.4143    1.0777  -14.0501 N   0  0  0  0  0  0  0  0  0  0  0  0
  -21.2479    0.7165  -14.6653 C   0  0  0  0  0  0  0  0  0  0  0  0
  -23.2791    0.1566  -13.3301 C   0  0  0  0  0  0  0  0  0  0  0  0
  -22.7061   -0.5259  -12.0946 C   0  0  0  0  0  0  0  0  0  0  0  0
  -23.0736   -1.9003  -12.0273 O   0  0  0  0  0  0  0  0  0  0  0  0
  -23.9245   -1.9371  -11.5539 H   0  0  0  0  0  0  0  0  0  0  0  0
  -13.7336    4.3804  -17.0250 N   0  0  0  0  0  0  0  0  0  0  0  0
  -14.7850    6.7349  -19.7789 C   0  0  0  0  0  0  0  0  0  0  0  0
  -14.1163    7.8891  -19.4085 C   0  0  0  0  0  0  0  0  0  0  0  0
  -13.2178    7.8520  -18.3376 C   0  0  0  0  0  0  0  0  0  0  0  0
  -13.0575    6.6768  -17.5850 C   0  0  0  0  0  0  0  0  0  0  0  0
  -13.7922    5.5244  -17.8634 C   0  0  0  0  0  0  0  0  0  0  0  0
  -14.5592    5.5608  -19.0528 C   0  0  0  0  0  0  0  0  0  0  0  0
  -16.1044    7.8430  -21.4167 C   0  0  0  0  0  0  0  0  0  0  0  0
  -15.6820    6.6238  -20.8091 O   0  0  0  0  0  0  0  0  0  0  0  0
  -12.4480    8.9061  -17.9246 O   0  0  0  0  0  0  0  0  0  0  0  0
  -12.2864    9.0607  -16.5202 C   0  0  0  0  0  0  0  0  0  0  0  0
  -12.6833    3.3571  -17.3769 C   0  0  0  0  0  0  0  0  0  0  0  0
  -13.0087    2.5250  -18.5963 C   0  0  0  0  0  0  0  0  0  0  0  0
  -13.9426    1.5131  -18.7403 C   0  0  0  0  0  0  0  0  0  0  0  0
  -13.7645    0.7901  -19.9563 C   0  0  0  0  0  0  0  0  0  0  0  0
  -12.7691    1.3429  -20.7172 C   0  0  0  0  0  0  0  0  0  0  0  0
  -12.1693    0.7554  -22.2125 Cl  0  0  0  0  0  0  0  0  0  0  0  0
  -12.1089    2.7429  -20.0455 S   0  0  0  0  0  0  0  0  0  0  0  0
 27 28  1  0  0  0
 28 21  1  0  0  0
 21 22  1  0  0  0
 21 26  2  0  0  0
 22 23  2  0  0  0
 23 29  1  0  0  0
 23 24  1  0  0  0
 29 30  1  0  0  0
 24 25  2  0  0  0
 25 20  1  0  0  0
 25 26  1  0  0  0
 20 31  1  0  0  0
 20  1  1  0  0  0
 31 32  1  0  0  0
 32 33  2  0  0  0
 32 37  1  0  0  0
 33 34  1  0  0  0
 34 35  2  0  0  0
 35 36  1  0  0  0
 35 37  1  0  0  0
  1  2  1  0  0  0
  1 10  2  0  0  0
  2  3  2  0  0  0
  3  4  1  0  0  0
  4  5  1  0  0  0
  4  9  2  0  0  0
  5  6  2  0  0  0
  6  7  1  0  0  0
  7 11  1  0  0  0
  7  8  2  0  0  0
 11 12  1  0  0  0
 11 15  2  0  0  0
 12 13  2  0  0  0
 13 14  1  0  0  0
 14 16  1  0  0  0
 14 15  1  0  0  0
 16 17  1  0  0  0
 17 18  1  0  0  0
 18 19  1  0  0  0
  8  9  1  0  0  0
  9 10  1  0  0  0
M  END
> <minimizedAffinity>
-7.50942

$$$$
