CHEMBL361196


 22 25  0  0  0  0  0  0  0  0999 V2000
  -28.9740   -3.1140   -6.3266 C   0  0  0  0  0  0  0  0  0  0  0  0
  -29.0191   -2.3564   -5.2152 N   0  0  0  0  0  0  0  0  0  0  0  0
  -28.4419   -1.1405   -5.2324 C   0  0  0  0  0  0  0  0  0  0  0  0
  -27.7931   -0.5528   -6.2476 N   0  0  0  0  0  0  0  0  0  0  0  0
  -27.7738   -1.3393   -7.3310 C   0  0  0  0  0  0  0  0  0  0  0  0
  -27.1850   -0.9790   -8.5082 O   0  0  0  0  0  0  0  0  0  0  0  0
  -27.3593   -2.0090   -9.3899 C   0  0  0  0  0  0  0  0  0  0  0  0
  -28.0529   -3.0323   -8.7756 C   0  0  0  0  0  0  0  0  0  0  0  0
  -28.3270   -2.6039   -7.4531 C   0  0  0  0  0  0  0  0  0  0  0  0
  -26.8001   -1.8431  -10.7239 C   0  0  0  0  0  0  0  0  0  0  0  0
  -27.5799   -1.8872  -11.8819 C   0  0  0  0  0  0  0  0  0  0  0  0
  -26.9869   -1.6877  -13.1294 C   0  0  0  0  0  0  0  0  0  0  0  0
  -25.6231   -1.4546  -13.1841 C   0  0  0  0  0  0  0  0  0  0  0  0
  -24.8283   -1.4213  -12.0959 N   0  0  0  0  0  0  0  0  0  0  0  0
  -25.4349   -1.6183  -10.9011 C   0  0  0  0  0  0  0  0  0  0  0  0
  -28.0418   -5.6222   -5.1182 O   0  0  0  0  0  0  0  0  0  0  0  0
  -29.0432   -5.5213   -5.8082 C   0  0  0  0  0  0  0  0  0  0  0  0
  -29.5499   -4.3885   -6.3962 N   0  0  0  0  0  0  0  0  0  0  0  0
  -30.4134   -4.4712   -6.9079 H   0  0  0  0  0  0  0  0  0  0  0  0
  -29.8912   -6.7278   -6.0753 C   0  0  0  0  0  0  0  0  0  0  0  0
  -29.5183   -7.6672   -7.1985 C   0  0  0  0  0  0  0  0  0  0  0  0
  -30.7398   -6.8031   -7.3229 C   0  0  0  0  0  0  0  0  0  0  0  0
 16 17  2  0  0  0
 17 18  1  0  0  0
 17 20  1  0  0  0
 18  1  1  0  0  0
 18 19  1  0  0  0
  1  2  1  0  0  0
  1  9  2  0  0  0
  2  3  2  0  0  0
  3  4  1  0  0  0
  4  5  2  0  0  0
  5  6  1  0  0  0
  5  9  1  0  0  0
  6  7  1  0  0  0
  7 10  1  0  0  0
  7  8  2  0  0  0
 10 11  1  0  0  0
 10 15  2  0  0  0
 11 12  2  0  0  0
 12 13  1  0  0  0
 13 14  2  0  0  0
 14 15  1  0  0  0
  8  9  1  0  0  0
 20 21  1  0  0  0
 20 22  1  0  0  0
 21 22  1  0  0  0
M  END
> <minimizedAffinity>
-7.69328

$$$$
