CHEMBL234489


 29 32  0  0  0  0  0  0  0  0999 V2000
  -13.9416    1.5709  -14.5339 C   0  0  0  0  0  0  0  0  0  0  0  0
  -14.2613    2.7594  -15.1550 C   0  0  0  0  0  0  0  0  0  0  0  0
  -15.4925    3.0761  -15.6131 N   0  0  0  0  0  0  0  0  0  0  0  0
  -16.4523    2.1528  -15.4826 C   0  0  0  0  0  0  0  0  0  0  0  0
  -16.2370    0.9773  -14.8758 N   0  0  0  0  0  0  0  0  0  0  0  0
  -14.9987    0.7006  -14.3711 C   0  0  0  0  0  0  0  0  0  0  0  0
  -14.9195   -0.5416  -13.5574 C   0  0  0  0  0  0  0  0  0  0  0  0
  -15.4916   -0.7490  -12.3835 N   0  0  0  0  0  0  0  0  0  0  0  0
  -15.3343   -2.0753  -11.9843 C   0  0  0  0  0  0  0  0  0  0  0  0
  -15.8323   -2.6771  -10.8058 C   0  0  0  0  0  0  0  0  0  0  0  0
  -15.6158   -4.0433  -10.5684 C   0  0  0  0  0  0  0  0  0  0  0  0
  -14.9204   -4.8205  -11.4879 C   0  0  0  0  0  0  0  0  0  0  0  0
  -14.4106   -4.2487  -12.6556 C   0  0  0  0  0  0  0  0  0  0  0  0
  -14.6204   -2.8773  -12.8754 C   0  0  0  0  0  0  0  0  0  0  0  0
  -14.0940   -1.9196  -14.1954 S   0  0  0  0  0  0  0  0  0  0  0  0
  -11.4830    1.2253  -13.8234 N   0  0  0  0  0  0  0  0  0  0  0  0
  -12.6012    1.3513  -14.0956 C   0  0  0  0  0  0  0  0  0  0  0  0
  -17.7116    2.5254  -15.9444 N   0  0  0  0  0  0  0  0  0  0  0  0
  -17.6287    3.0547  -16.7994 H   0  0  0  0  0  0  0  0  0  0  0  0
  -19.0075    2.2504  -15.4901 C   0  0  0  0  0  0  0  0  0  0  0  0
  -19.8468    3.3108  -15.1127 C   0  0  0  0  0  0  0  0  0  0  0  0
  -21.1106    3.0786  -14.5473 C   0  0  0  0  0  0  0  0  0  0  0  0
  -21.5625    1.7722  -14.3409 C   0  0  0  0  0  0  0  0  0  0  0  0
  -20.7475    0.7125  -14.7531 C   0  0  0  0  0  0  0  0  0  0  0  0
  -19.4847    0.9513  -15.3059 C   0  0  0  0  0  0  0  0  0  0  0  0
  -22.8731    1.4854  -13.6440 C   0  0  0  0  0  0  0  0  0  0  0  0
  -23.0609    0.0327  -13.2102 C   0  0  0  0  0  0  0  0  0  0  0  0
  -23.9520   -0.6660  -14.0719 O   0  0  0  0  0  0  0  0  0  0  0  0
  -24.8392   -0.2939  -13.9188 H   0  0  0  0  0  0  0  0  0  0  0  0
 16 17  3  0  0  0
 17  1  1  0  0  0
  1  2  1  0  0  0
  1  6  2  0  0  0
  2  3  2  0  0  0
  3  4  1  0  0  0
  4 18  1  0  0  0
  4  5  2  0  0  0
 18 20  1  0  0  0
 18 19  1  0  0  0
 20 21  1  0  0  0
 20 25  2  0  0  0
 21 22  2  0  0  0
 22 23  1  0  0  0
 23 26  1  0  0  0
 23 24  2  0  0  0
 26 27  1  0  0  0
 27 28  1  0  0  0
 28 29  1  0  0  0
 24 25  1  0  0  0
  5  6  1  0  0  0
  6  7  1  0  0  0
  7  8  2  0  0  0
  7 15  1  0  0  0
  8  9  1  0  0  0
  9 10  1  0  0  0
  9 14  2  0  0  0
 10 11  2  0  0  0
 11 12  1  0  0  0
 12 13  2  0  0  0
 13 14  1  0  0  0
 14 15  1  0  0  0
M  END
> <minimizedAffinity>
-8.26494

$$$$
