CHEMBL231469


 38 42  0  0  0  0  0  0  0  0999 V2000
  -27.4399  -10.6113   -5.7945 C   0  0  0  0  0  0  0  0  0  0  0  0
  -27.7141  -11.0222   -7.1154 C   0  0  0  0  0  0  0  0  0  0  0  0
  -28.2379  -10.1227   -8.0642 C   0  0  0  0  0  0  0  0  0  0  0  0
  -28.4731   -8.8271   -7.6033 C   0  0  0  0  0  0  0  0  0  0  0  0
  -28.9171   -7.7416   -8.3079 O   0  0  0  0  0  0  0  0  0  0  0  0
  -28.9878   -6.7464   -7.3643 C   0  0  0  0  0  0  0  0  0  0  0  0
  -28.6272   -7.1128   -6.1600 N   0  0  0  0  0  0  0  0  0  0  0  0
  -28.2724   -8.4176   -6.3012 C   0  0  0  0  0  0  0  0  0  0  0  0
  -27.7773   -9.3222   -5.3680 C   0  0  0  0  0  0  0  0  0  0  0  0
  -29.4005   -5.5408   -7.7953 N   0  0  0  0  0  0  0  0  0  0  0  0
  -30.2452   -5.4945   -8.3602 H   0  0  0  0  0  0  0  0  0  0  0  0
  -28.8593   -4.3120   -7.3889 C   0  0  0  0  0  0  0  0  0  0  0  0
  -28.7603   -4.0096   -6.0281 C   0  0  0  0  0  0  0  0  0  0  0  0
  -28.3279   -2.7476   -5.6065 C   0  0  0  0  0  0  0  0  0  0  0  0
  -27.9744   -1.7694   -6.5392 C   0  0  0  0  0  0  0  0  0  0  0  0
  -27.5218   -0.2182   -5.9265 Cl  0  0  0  0  0  0  0  0  0  0  0  0
  -28.0130   -2.0520   -7.9079 C   0  0  0  0  0  0  0  0  0  0  0  0
  -28.4813   -3.3236   -8.3116 C   0  0  0  0  0  0  0  0  0  0  0  0
  -27.5871   -1.0597   -8.9713 C   0  0  0  0  0  0  0  0  0  0  0  0
  -27.0595   -1.7032  -10.1774 N   0  0  0  0  0  0  0  0  0  0  0  0
  -27.7686   -1.2889  -11.4026 C   0  0  0  0  0  0  0  0  0  0  0  0
  -27.2257   -2.0512  -12.6308 C   0  0  0  0  0  0  0  0  0  0  0  0
  -25.7723   -1.9013  -12.8548 N   0  0  0  0  0  0  0  0  0  0  0  0
  -25.4501   -0.5687  -13.3584 C   0  0  0  0  0  0  0  0  0  0  0  0
  -25.0602   -2.1943  -11.5928 C   0  0  0  0  0  0  0  0  0  0  0  0
  -25.6132   -1.4713  -10.3382 C   0  0  0  0  0  0  0  0  0  0  0  0
  -26.8459  -11.5196   -4.9401 O   0  0  0  0  0  0  0  0  0  0  0  0
  -23.1764  -11.1178   -4.9342 C   0  0  0  0  0  0  0  0  0  0  0  0
  -24.4515  -11.3145   -5.4454 C   0  0  0  0  0  0  0  0  0  0  0  0
  -25.5328  -11.3126   -4.5611 C   0  0  0  0  0  0  0  0  0  0  0  0
  -25.2937  -11.1429   -3.2016 C   0  0  0  0  0  0  0  0  0  0  0  0
  -23.9838  -10.9569   -2.7836 C   0  0  0  0  0  0  0  0  0  0  0  0
  -22.9137  -10.9409   -3.6109 N   0  0  0  0  0  0  0  0  0  0  0  0
  -20.6860   -9.8026   -7.4724 C   0  0  0  0  0  0  0  0  0  0  0  0
  -21.7709   -9.9339   -6.5382 N   0  0  0  0  0  0  0  0  0  0  0  0
  -22.0050  -11.1163   -5.8686 C   0  0  0  0  0  0  0  0  0  0  0  0
  -21.3054  -12.1195   -6.0120 O   0  0  0  0  0  0  0  0  0  0  0  0
  -22.3363   -9.1303   -6.2729 H   0  0  0  0  0  0  0  0  0  0  0  0
 34 35  1  0  0  0
 35 36  1  0  0  0
 35 38  1  0  0  0
 36 37  2  0  0  0
 36 28  1  0  0  0
 28 29  1  0  0  0
 28 33  2  0  0  0
 29 30  2  0  0  0
 30 27  1  0  0  0
 30 31  1  0  0  0
 27  1  1  0  0  0
  1  2  1  0  0  0
  1  9  2  0  0  0
  2  3  2  0  0  0
  3  4  1  0  0  0
  4  5  1  0  0  0
  4  8  2  0  0  0
  5  6  1  0  0  0
  6 10  1  0  0  0
  6  7  2  0  0  0
 10 12  1  0  0  0
 10 11  1  0  0  0
 12 13  1  0  0  0
 12 18  2  0  0  0
 13 14  2  0  0  0
 14 15  1  0  0  0
 15 16  1  0  0  0
 15 17  2  0  0  0
 17 19  1  0  0  0
 17 18  1  0  0  0
 19 20  1  0  0  0
 20 21  1  0  0  0
 20 26  1  0  0  0
 21 22  1  0  0  0
 22 23  1  0  0  0
 23 24  1  0  0  0
 23 25  1  0  0  0
 25 26  1  0  0  0
  7  8  1  0  0  0
  8  9  1  0  0  0
 31 32  2  0  0  0
 32 33  1  0  0  0
M  END
> <minimizedAffinity>
-8.14068

$$$$
