CHEMBL3740530


 37 41  0  0  0  0  0  0  0  0999 V2000
  -29.9549   -7.9662   -7.7799 C   0  0  0  0  0  0  0  0  0  0  0  0
  -30.6491   -9.1725   -7.8413 C   0  0  0  0  0  0  0  0  0  0  0  0
  -29.9549  -10.3299   -8.1814 C   0  0  0  0  0  0  0  0  0  0  0  0
  -28.6063  -10.2480   -8.5957 C   0  0  0  0  0  0  0  0  0  0  0  0
  -27.8251  -11.3530   -8.9597 C   0  0  0  0  0  0  0  0  0  0  0  0
  -27.5747  -11.2941  -10.3145 C   0  0  0  0  0  0  0  0  0  0  0  0
  -27.1297  -10.0714  -10.8177 C   0  0  0  0  0  0  0  0  0  0  0  0
  -27.2560   -8.9247  -10.0139 C   0  0  0  0  0  0  0  0  0  0  0  0
  -28.1230   -8.9818   -8.9189 C   0  0  0  0  0  0  0  0  0  0  0  0
  -28.7036   -7.8422   -8.3697 C   0  0  0  0  0  0  0  0  0  0  0  0
  -26.4562  -11.4560   -8.1762 C   0  0  0  0  0  0  0  0  0  0  0  0
  -25.5005  -12.0426   -8.6716 O   0  0  0  0  0  0  0  0  0  0  0  0
  -26.4591  -10.8599   -6.9069 N   0  0  0  0  0  0  0  0  0  0  0  0
  -27.2763  -10.3227   -6.6664 H   0  0  0  0  0  0  0  0  0  0  0  0
  -25.5082  -10.9710   -5.8581 C   0  0  0  0  0  0  0  0  0  0  0  0
  -25.6122  -11.8396   -4.7706 C   0  0  0  0  0  0  0  0  0  0  0  0
  -24.6166  -11.8657   -3.7775 C   0  0  0  0  0  0  0  0  0  0  0  0
  -23.5088  -11.0217   -3.8563 C   0  0  0  0  0  0  0  0  0  0  0  0
  -23.4004  -10.1367   -4.9269 C   0  0  0  0  0  0  0  0  0  0  0  0
  -24.3940  -10.1149   -5.9128 C   0  0  0  0  0  0  0  0  0  0  0  0
  -30.6351   -6.8785   -7.2783 O   0  0  0  0  0  0  0  0  0  0  0  0
  -29.9095   -4.3951   -4.8921 C   0  0  0  0  0  0  0  0  0  0  0  0
  -29.4291   -5.0549   -3.8263 N   0  0  0  0  0  0  0  0  0  0  0  0
  -29.3979   -6.3980   -3.9000 C   0  0  0  0  0  0  0  0  0  0  0  0
  -29.8067   -7.1079   -4.9995 C   0  0  0  0  0  0  0  0  0  0  0  0
  -30.2098   -6.3483   -6.0731 C   0  0  0  0  0  0  0  0  0  0  0  0
  -30.2837   -5.0084   -6.0223 N   0  0  0  0  0  0  0  0  0  0  0  0
  -30.0366   -3.0137   -4.7321 N   0  0  0  0  0  0  0  0  0  0  0  0
  -30.9700   -2.8204   -4.3971 H   0  0  0  0  0  0  0  0  0  0  0  0
  -27.8804   -1.1912   -7.1526 C   0  0  0  0  0  0  0  0  0  0  0  0
  -27.9779    0.1196   -6.6902 C   0  0  0  0  0  0  0  0  0  0  0  0
  -28.7939    0.4064   -5.5993 C   0  0  0  0  0  0  0  0  0  0  0  0
  -29.4892   -0.6143   -4.9532 C   0  0  0  0  0  0  0  0  0  0  0  0
  -29.3731   -1.9474   -5.3624 C   0  0  0  0  0  0  0  0  0  0  0  0
  -28.5790   -2.2091   -6.4913 C   0  0  0  0  0  0  0  0  0  0  0  0
  -27.8429   -1.9029   -9.4179 C   0  0  0  0  0  0  0  0  0  0  0  0
  -27.1314   -1.6019   -8.2233 O   0  0  0  0  0  0  0  0  0  0  0  0
 36 37  1  0  0  0
 37 30  1  0  0  0
 30 31  1  0  0  0
 30 35  2  0  0  0
 31 32  2  0  0  0
 32 33  1  0  0  0
 33 34  2  0  0  0
 34 28  1  0  0  0
 34 35  1  0  0  0
 28 22  1  0  0  0
 28 29  1  0  0  0
 22 23  1  0  0  0
 22 27  2  0  0  0
 23 24  2  0  0  0
 24 25  1  0  0  0
 25 26  2  0  0  0
 26 21  1  0  0  0
 26 27  1  0  0  0
 21  1  1  0  0  0
  1  2  1  0  0  0
  1 10  2  0  0  0
  2  3  2  0  0  0
  3  4  1  0  0  0
  4  5  1  0  0  0
  4  9  2  0  0  0
  5 11  1  0  0  0
  5  6  2  0  0  0
 11 12  2  0  0  0
 11 13  1  0  0  0
 13 15  1  0  0  0
 13 14  1  0  0  0
 15 16  1  0  0  0
 15 20  2  0  0  0
 16 17  2  0  0  0
 17 18  1  0  0  0
 18 19  2  0  0  0
 19 20  1  0  0  0
  6  7  1  0  0  0
  7  8  2  0  0  0
  8  9  1  0  0  0
  9 10  1  0  0  0
M  END
> <minimizedAffinity>
-9.34991

$$$$
