CHEMBL2086736


 32 36  0  0  0  0  0  0  0  0999 V2000
  -13.1563   -1.3404  -14.5836 O   0  0  0  0  0  0  0  0  0  0  0  0
  -13.3931   -0.3403  -15.2273 C   0  0  0  0  0  0  0  0  0  0  0  0
  -12.5743    0.1791  -16.2122 N   0  0  0  0  0  0  0  0  0  0  0  0
  -13.1541    1.2640  -16.8478 C   0  0  0  0  0  0  0  0  0  0  0  0
  -12.5898    1.9783  -17.8880 C   0  0  0  0  0  0  0  0  0  0  0  0
  -13.3156    3.0539  -18.3942 C   0  0  0  0  0  0  0  0  0  0  0  0
  -14.5709    3.3949  -17.8490 C   0  0  0  0  0  0  0  0  0  0  0  0
  -15.1179    2.6490  -16.7830 C   0  0  0  0  0  0  0  0  0  0  0  0
  -14.4080    1.5553  -16.2955 C   0  0  0  0  0  0  0  0  0  0  0  0
  -14.6407    0.5317  -15.2375 C   0  0  0  0  0  0  0  0  0  0  0  0
  -15.7298    0.2807  -14.4702 C   0  0  0  0  0  0  0  0  0  0  0  0
  -11.6765   -0.2272  -16.4296 H   0  0  0  0  0  0  0  0  0  0  0  0
  -15.7414   -0.8136  -13.5460 C   0  0  0  0  0  0  0  0  0  0  0  0
  -15.5553   -0.8825  -12.2406 N   0  0  0  0  0  0  0  0  0  0  0  0
  -15.6957   -2.2171  -11.9121 C   0  0  0  0  0  0  0  0  0  0  0  0
  -15.5555   -2.8805  -10.6826 C   0  0  0  0  0  0  0  0  0  0  0  0
  -15.7141   -4.2780  -10.6440 C   0  0  0  0  0  0  0  0  0  0  0  0
  -16.0267   -4.9973  -11.8004 C   0  0  0  0  0  0  0  0  0  0  0  0
  -16.2083   -4.3509  -13.0245 C   0  0  0  0  0  0  0  0  0  0  0  0
  -16.0265   -2.9672  -13.0353 C   0  0  0  0  0  0  0  0  0  0  0  0
  -16.0990   -2.0460  -14.0413 N   0  0  0  0  0  0  0  0  0  0  0  0
  -16.3422   -2.2441  -14.9973 H   0  0  0  0  0  0  0  0  0  0  0  0
  -16.9804    1.0403  -14.6830 C   0  0  0  0  0  0  0  0  0  0  0  0
  -18.0957    0.3858  -15.2286 C   0  0  0  0  0  0  0  0  0  0  0  0
  -19.3033    1.0639  -15.3846 C   0  0  0  0  0  0  0  0  0  0  0  0
  -19.3996    2.4014  -15.0068 C   0  0  0  0  0  0  0  0  0  0  0  0
  -18.2919    3.0607  -14.4703 C   0  0  0  0  0  0  0  0  0  0  0  0
  -17.0841    2.3814  -14.3001 C   0  0  0  0  0  0  0  0  0  0  0  0
  -15.2473    4.5895  -18.4183 C   0  0  0  0  0  0  0  0  0  0  0  0
  -15.6134    4.6459  -19.5842 O   0  0  0  0  0  0  0  0  0  0  0  0
  -15.4800    5.5775  -17.5319 O   0  0  0  0  0  0  0  0  0  0  0  0
  -15.2843    5.3692  -16.6008 H   0  0  0  0  0  0  0  0  0  0  0  0
  1  2  2  0  0  0
  2  3  1  0  0  0
  2 10  1  0  0  0
  3  4  1  0  0  0
  3 12  1  0  0  0
  4  5  1  0  0  0
  4  9  2  0  0  0
  5  6  2  0  0  0
  6  7  1  0  0  0
  7 29  1  0  0  0
  7  8  2  0  0  0
 29 30  2  0  0  0
 29 31  1  0  0  0
 31 32  1  0  0  0
  8  9  1  0  0  0
  9 10  1  0  0  0
 10 11  2  0  0  0
 11 23  1  0  0  0
 11 13  1  0  0  0
 23 24  1  0  0  0
 23 28  2  0  0  0
 24 25  2  0  0  0
 25 26  1  0  0  0
 26 27  2  0  0  0
 27 28  1  0  0  0
 13 14  2  0  0  0
 13 21  1  0  0  0
 14 15  1  0  0  0
 15 16  1  0  0  0
 15 20  2  0  0  0
 16 17  2  0  0  0
 17 18  1  0  0  0
 18 19  2  0  0  0
 19 20  1  0  0  0
 20 21  1  0  0  0
 21 22  1  0  0  0
M  END
> <minimizedAffinity>
-8.79895

$$$$
