CHEMBL3940334


 33 37  0  0  0  0  0  0  0  0999 V2000
  -27.9859   -2.3704   -8.5895 N   0  0  0  0  0  0  0  0  0  0  0  0
  -27.5601   -1.6518   -9.7771 C   0  0  0  0  0  0  0  0  0  0  0  0
  -28.4021   -1.8274  -10.8690 C   0  0  0  0  0  0  0  0  0  0  0  0
  -27.8620   -1.8541  -12.1385 C   0  0  0  0  0  0  0  0  0  0  0  0
  -26.5391   -1.5537  -12.3625 C   0  0  0  0  0  0  0  0  0  0  0  0
  -26.1146   -1.8604  -13.5925 N   0  0  0  0  0  0  0  0  0  0  0  0
  -24.8922   -1.4290  -13.9229 C   0  0  0  0  0  0  0  0  0  0  0  0
  -24.1519   -0.6071  -13.1039 C   0  0  0  0  0  0  0  0  0  0  0  0
  -24.5382   -0.4083  -11.7802 N   0  0  0  0  0  0  0  0  0  0  0  0
  -25.7362   -0.9753  -11.3619 C   0  0  0  0  0  0  0  0  0  0  0  0
  -26.2652   -1.0999  -10.0196 C   0  0  0  0  0  0  0  0  0  0  0  0
  -23.1124    0.1687  -13.7565 C   0  0  0  0  0  0  0  0  0  0  0  0
  -21.8629   -0.2738  -14.2724 C   0  0  0  0  0  0  0  0  0  0  0  0
  -21.0253    0.7330  -14.5532 N   0  0  0  0  0  0  0  0  0  0  0  0
  -21.7312    1.8247  -14.2161 N   0  0  0  0  0  0  0  0  0  0  0  0
  -21.3064    3.1338  -14.6543 C   0  0  0  0  0  0  0  0  0  0  0  0
  -22.8994    1.5256  -13.5664 C   0  0  0  0  0  0  0  0  0  0  0  0
  -28.5735    0.0303   -5.8108 C   0  0  0  0  0  0  0  0  0  0  0  0
  -28.2989   -0.7462   -4.6859 C   0  0  0  0  0  0  0  0  0  0  0  0
  -27.8867   -2.0658   -4.8389 C   0  0  0  0  0  0  0  0  0  0  0  0
  -27.7642   -2.6090   -6.1290 C   0  0  0  0  0  0  0  0  0  0  0  0
  -28.0078   -1.8473   -7.2801 C   0  0  0  0  0  0  0  0  0  0  0  0
  -28.3820   -0.5006   -7.0928 C   0  0  0  0  0  0  0  0  0  0  0  0
  -30.4209    1.4169   -5.3474 C   0  0  0  0  0  0  0  0  0  0  0  0
  -29.0147    1.2993   -5.5391 O   0  0  0  0  0  0  0  0  0  0  0  0
  -27.5996   -2.9284   -3.8126 O   0  0  0  0  0  0  0  0  0  0  0  0
  -27.8176   -4.3134   -4.0631 C   0  0  0  0  0  0  0  0  0  0  0  0
  -27.5885   -3.8140   -8.8044 C   0  0  0  0  0  0  0  0  0  0  0  0
  -28.2247   -4.9594   -7.9718 C   0  0  0  0  0  0  0  0  0  0  0  0
  -28.0083   -6.4104   -8.3783 C   0  0  0  0  0  0  0  0  0  0  0  0
  -29.1158   -7.1323   -7.6312 C   0  0  0  0  0  0  0  0  0  0  0  0
  -30.2013   -6.0868   -7.4698 C   0  0  0  0  0  0  0  0  0  0  0  0
  -29.6212   -4.7993   -7.7075 O   0  0  0  0  0  0  0  0  0  0  0  0
 24 25  1  0  0  0
 25 18  1  0  0  0
 18 19  1  0  0  0
 18 23  2  0  0  0
 19 20  2  0  0  0
 20 26  1  0  0  0
 20 21  1  0  0  0
 26 27  1  0  0  0
 21 22  2  0  0  0
 22  1  1  0  0  0
 22 23  1  0  0  0
  1 28  1  0  0  0
  1  2  1  0  0  0
 28 29  1  0  0  0
 29 30  1  0  0  0
 29 33  1  0  0  0
 30 31  1  0  0  0
 31 32  1  0  0  0
 32 33  1  0  0  0
  2  3  1  0  0  0
  2 11  2  0  0  0
  3  4  2  0  0  0
  4  5  1  0  0  0
  5  6  1  0  0  0
  5 10  2  0  0  0
  6  7  2  0  0  0
  7  8  1  0  0  0
  8 12  1  0  0  0
  8  9  2  0  0  0
 12 13  1  0  0  0
 12 17  2  0  0  0
 13 14  2  0  0  0
 14 15  1  0  0  0
 15 16  1  0  0  0
 15 17  1  0  0  0
  9 10  1  0  0  0
 10 11  1  0  0  0
M  END
> <minimizedAffinity>
-8.26253

$$$$
