CHEMBL209922


 40 45  0  0  0  0  0  0  0  0999 V2000
  -13.3398   -3.3780  -12.0941 C   0  0  0  0  0  0  0  0  0  0  0  0
  -12.4668   -3.2306  -13.2008 C   0  0  0  0  0  0  0  0  0  0  0  0
  -12.6871   -2.2605  -14.1842 C   0  0  0  0  0  0  0  0  0  0  0  0
  -13.8094   -1.4785  -14.0538 C   0  0  0  0  0  0  0  0  0  0  0  0
  -14.7321   -1.6367  -12.9874 C   0  0  0  0  0  0  0  0  0  0  0  0
  -14.4884   -2.5693  -11.9947 C   0  0  0  0  0  0  0  0  0  0  0  0
  -15.9562   -0.7097  -13.0976 C   0  0  0  0  0  0  0  0  0  0  0  0
  -15.5476   -0.0075  -14.3467 C   0  0  0  0  0  0  0  0  0  0  0  0
  -15.9989    0.9461  -15.2668 C   0  0  0  0  0  0  0  0  0  0  0  0
  -15.0930    1.1331  -16.2521 N   0  0  0  0  0  0  0  0  0  0  0  0
  -14.0921    0.2613  -15.9671 N   0  0  0  0  0  0  0  0  0  0  0  0
  -14.3528   -0.4398  -14.8506 C   0  0  0  0  0  0  0  0  0  0  0  0
  -13.2921    0.2138  -16.5885 H   0  0  0  0  0  0  0  0  0  0  0  0
  -17.3075    1.6653  -15.2331 C   0  0  0  0  0  0  0  0  0  0  0  0
  -17.4821    2.9845  -15.5942 C   0  0  0  0  0  0  0  0  0  0  0  0
  -18.8439    3.3940  -15.4873 C   0  0  0  0  0  0  0  0  0  0  0  0
  -19.6555    2.3733  -15.0372 C   0  0  0  0  0  0  0  0  0  0  0  0
  -18.7747    0.9374  -14.7645 S   0  0  0  0  0  0  0  0  0  0  0  0
  -21.1195    2.3847  -14.7963 C   0  0  0  0  0  0  0  0  0  0  0  0
  -21.5636    1.0355  -14.5259 N   0  0  0  0  0  0  0  0  0  0  0  0
  -22.7853    0.9116  -13.9157 C   0  0  0  0  0  0  0  0  0  0  0  0
  -23.4242    1.8973  -13.5626 O   0  0  0  0  0  0  0  0  0  0  0  0
  -23.1508   -0.3989  -13.7303 N   0  0  0  0  0  0  0  0  0  0  0  0
  -21.3434    0.3338  -15.2173 H   0  0  0  0  0  0  0  0  0  0  0  0
  -22.3935   -1.0715  -13.7176 H   0  0  0  0  0  0  0  0  0  0  0  0
  -24.3579   -0.8107  -13.1102 C   0  0  0  0  0  0  0  0  0  0  0  0
  -24.4938   -0.8525  -11.7170 C   0  0  0  0  0  0  0  0  0  0  0  0
  -25.6483   -1.3648  -11.1238 C   0  0  0  0  0  0  0  0  0  0  0  0
  -26.6967   -1.8171  -11.9176 C   0  0  0  0  0  0  0  0  0  0  0  0
  -26.6047   -1.7248  -13.3066 C   0  0  0  0  0  0  0  0  0  0  0  0
  -25.4460   -1.2132  -13.9004 C   0  0  0  0  0  0  0  0  0  0  0  0
  -25.3775   -1.1312  -15.6272 Cl  0  0  0  0  0  0  0  0  0  0  0  0
  -13.0186   -4.3816  -11.0023 C   0  0  0  0  0  0  0  0  0  0  0  0
  -11.4880   -4.1908   -6.4871 C   0  0  0  0  0  0  0  0  0  0  0  0
  -11.0487   -4.4234   -7.8596 N   0  0  0  0  0  0  0  0  0  0  0  0
  -11.7333   -5.5892   -8.4425 C   0  0  0  0  0  0  0  0  0  0  0  0
  -11.3202   -5.8112   -9.9154 C   0  0  0  0  0  0  0  0  0  0  0  0
  -11.5860   -4.6577  -10.8025 N   0  0  0  0  0  0  0  0  0  0  0  0
  -10.9191   -3.4774  -10.1963 C   0  0  0  0  0  0  0  0  0  0  0  0
  -11.2545   -3.2290   -8.6998 C   0  0  0  0  0  0  0  0  0  0  0  0
 34 35  1  0  0  0
 35 36  1  0  0  0
 35 40  1  0  0  0
 36 37  1  0  0  0
 37 38  1  0  0  0
 38 33  1  0  0  0
 38 39  1  0  0  0
 33  1  1  0  0  0
  1  2  1  0  0  0
  1  6  2  0  0  0
  2  3  2  0  0  0
  3  4  1  0  0  0
  4  5  2  0  0  0
  4 12  1  0  0  0
  5  6  1  0  0  0
  5  7  1  0  0  0
  7  8  1  0  0  0
  8  9  1  0  0  0
  8 12  2  0  0  0
  9 14  1  0  0  0
  9 10  2  0  0  0
 14 15  2  0  0  0
 14 18  1  0  0  0
 15 16  1  0  0  0
 16 17  2  0  0  0
 17 19  1  0  0  0
 17 18  1  0  0  0
 19 20  1  0  0  0
 20 21  1  0  0  0
 20 24  1  0  0  0
 21 22  2  0  0  0
 21 23  1  0  0  0
 23 26  1  0  0  0
 23 25  1  0  0  0
 26 27  1  0  0  0
 26 31  2  0  0  0
 27 28  2  0  0  0
 28 29  1  0  0  0
 29 30  2  0  0  0
 30 31  1  0  0  0
 31 32  1  0  0  0
 10 11  1  0  0  0
 11 12  1  0  0  0
 11 13  1  0  0  0
 39 40  1  0  0  0
M  END
> <minimizedAffinity>
-9.98744

$$$$
