CHEMBL99832


 21 23  0  0  0  0  0  0  0  0999 V2000
  -20.3311    2.6161  -14.9580 C   0  0  0  0  0  0  0  0  0  0  0  0
  -21.3070    3.3468  -14.4681 N   0  0  0  0  0  0  0  0  0  0  0  0
  -22.2749    2.5520  -13.9068 C   0  0  0  0  0  0  0  0  0  0  0  0
  -22.0596    1.1903  -13.9735 C   0  0  0  0  0  0  0  0  0  0  0  0
  -20.5419    0.9189  -14.7350 S   0  0  0  0  0  0  0  0  0  0  0  0
  -22.9226    0.1015  -13.5047 C   0  0  0  0  0  0  0  0  0  0  0  0
  -22.6992   -0.4671  -12.2381 C   0  0  0  0  0  0  0  0  0  0  0  0
  -23.4694   -1.5393  -11.7847 C   0  0  0  0  0  0  0  0  0  0  0  0
  -24.4819   -2.0550  -12.5880 C   0  0  0  0  0  0  0  0  0  0  0  0
  -24.7256   -1.4964  -13.8404 C   0  0  0  0  0  0  0  0  0  0  0  0
  -23.9516   -0.4266  -14.2964 C   0  0  0  0  0  0  0  0  0  0  0  0
  -19.2325    3.0845  -15.5805 N   0  0  0  0  0  0  0  0  0  0  0  0
  -19.3132    3.7929  -16.2965 H   0  0  0  0  0  0  0  0  0  0  0  0
  -16.4058    1.4653  -14.1525 C   0  0  0  0  0  0  0  0  0  0  0  0
  -15.3739    1.6549  -15.0537 C   0  0  0  0  0  0  0  0  0  0  0  0
  -15.6432    2.3795  -16.2005 C   0  0  0  0  0  0  0  0  0  0  0  0
  -16.9250    2.8816  -16.3940 C   0  0  0  0  0  0  0  0  0  0  0  0
  -17.9181    2.6509  -15.4415 C   0  0  0  0  0  0  0  0  0  0  0  0
  -17.6609    1.9386  -14.3243 N   0  0  0  0  0  0  0  0  0  0  0  0
  -15.5124   -0.5345  -13.3404 C   0  0  0  0  0  0  0  0  0  0  0  0
  -16.0999    0.7235  -13.0279 O   0  0  0  0  0  0  0  0  0  0  0  0
 20 21  1  0  0  0
 21 14  1  0  0  0
 14 15  1  0  0  0
 14 19  2  0  0  0
 15 16  2  0  0  0
 16 17  1  0  0  0
 17 18  2  0  0  0
 18 12  1  0  0  0
 18 19  1  0  0  0
 12  1  1  0  0  0
 12 13  1  0  0  0
  1  2  2  0  0  0
  1  5  1  0  0  0
  2  3  1  0  0  0
  3  4  2  0  0  0
  4  6  1  0  0  0
  4  5  1  0  0  0
  6  7  1  0  0  0
  6 11  2  0  0  0
  7  8  2  0  0  0
  8  9  1  0  0  0
  9 10  2  0  0  0
 10 11  1  0  0  0
M  END
> <minimizedAffinity>
-8.12652

$$$$
