CHEMBL3959345


 36 40  0  0  0  0  0  0  0  0999 V2000
  -28.4827   -9.8782   -5.6526 N   0  0  0  0  0  0  0  0  0  0  0  0
  -28.4828   -8.4688   -5.2324 C   0  0  0  0  0  0  0  0  0  0  0  0
  -28.8764   -8.2976   -3.9136 C   0  0  0  0  0  0  0  0  0  0  0  0
  -29.3931   -7.1379   -3.4652 C   0  0  0  0  0  0  0  0  0  0  0  0
  -29.4553   -6.0558   -4.2755 C   0  0  0  0  0  0  0  0  0  0  0  0
  -30.2325   -5.0631   -3.8481 N   0  0  0  0  0  0  0  0  0  0  0  0
  -30.3087   -3.9061   -4.4777 C   0  0  0  0  0  0  0  0  0  0  0  0
  -29.3647   -3.6137   -5.4552 C   0  0  0  0  0  0  0  0  0  0  0  0
  -28.6802   -4.6864   -6.0595 N   0  0  0  0  0  0  0  0  0  0  0  0
  -28.7911   -5.9776   -5.5120 C   0  0  0  0  0  0  0  0  0  0  0  0
  -28.3120   -7.2564   -6.0584 C   0  0  0  0  0  0  0  0  0  0  0  0
  -28.9469   -2.1440   -5.3671 C   0  0  0  0  0  0  0  0  0  0  0  0
  -27.5897   -1.7582   -5.2320 C   0  0  0  0  0  0  0  0  0  0  0  0
  -27.4445   -0.4629   -5.4722 N   0  0  0  0  0  0  0  0  0  0  0  0
  -28.6305    0.0287   -5.7367 N   0  0  0  0  0  0  0  0  0  0  0  0
  -28.7583    1.3987   -6.2082 C   0  0  0  0  0  0  0  0  0  0  0  0
  -29.5905   -0.9377   -5.6484 C   0  0  0  0  0  0  0  0  0  0  0  0
  -31.2857  -11.2870   -7.7762 C   0  0  0  0  0  0  0  0  0  0  0  0
  -30.6612  -11.2900   -9.0436 C   0  0  0  0  0  0  0  0  0  0  0  0
  -29.3305  -10.8600   -9.1807 C   0  0  0  0  0  0  0  0  0  0  0  0
  -28.6351  -10.4388   -8.0501 C   0  0  0  0  0  0  0  0  0  0  0  0
  -29.2121  -10.4574   -6.7675 C   0  0  0  0  0  0  0  0  0  0  0  0
  -30.5482  -10.8818   -6.6400 C   0  0  0  0  0  0  0  0  0  0  0  0
  -33.3120  -11.6480   -6.4277 C   0  0  0  0  0  0  0  0  0  0  0  0
  -32.5971  -11.6226   -7.6130 O   0  0  0  0  0  0  0  0  0  0  0  0
  -28.6832  -10.8092  -10.3758 O   0  0  0  0  0  0  0  0  0  0  0  0
  -27.3766  -10.4205  -10.5861 C   0  0  0  0  0  0  0  0  0  0  0  0
  -27.7011  -10.8022   -4.7734 C   0  0  0  0  0  0  0  0  0  0  0  0
  -26.6149  -11.6339   -5.5390 C   0  0  0  0  0  0  0  0  0  0  0  0
  -25.4223  -10.8314   -5.9542 N   0  0  0  0  0  0  0  0  0  0  0  0
  -24.7148  -11.2545   -7.1992 C   0  0  0  0  0  0  0  0  0  0  0  0
  -23.2051  -11.1925   -6.9100 C   0  0  0  0  0  0  0  0  0  0  0  0
  -23.1042  -10.3666   -5.6430 C   0  0  0  0  0  0  0  0  0  0  0  0
  -23.1031   -8.9806   -5.9174 O   0  0  0  0  0  0  0  0  0  0  0  0
  -24.3747  -10.8078   -4.9195 C   0  0  0  0  0  0  0  0  0  0  0  0
  -23.9413   -8.7308   -6.3804 H   0  0  0  0  0  0  0  0  0  0  0  0
 24 25  1  0  0  0
 25 18  1  0  0  0
 18 19  1  0  0  0
 18 23  2  0  0  0
 19 20  2  0  0  0
 20 26  1  0  0  0
 20 21  1  0  0  0
 26 27  1  0  0  0
 21 22  2  0  0  0
 22  1  1  0  0  0
 22 23  1  0  0  0
  1 28  1  0  0  0
  1  2  1  0  0  0
 28 29  1  0  0  0
 29 30  1  0  0  0
 30 31  1  0  0  0
 30 35  1  0  0  0
 31 32  1  0  0  0
 32 33  1  0  0  0
 33 34  1  0  0  0
 33 35  1  0  0  0
 34 36  1  0  0  0
  2  3  1  0  0  0
  2 11  2  0  0  0
  3  4  2  0  0  0
  4  5  1  0  0  0
  5  6  1  0  0  0
  5 10  2  0  0  0
  6  7  2  0  0  0
  7  8  1  0  0  0
  8 12  1  0  0  0
  8  9  2  0  0  0
 12 13  1  0  0  0
 12 17  2  0  0  0
 13 14  2  0  0  0
 14 15  1  0  0  0
 15 16  1  0  0  0
 15 17  1  0  0  0
  9 10  1  0  0  0
 10 11  1  0  0  0
M  END
> <minimizedAffinity>
-8.09638

$$$$
