CHEMBL4067871


 37 41  0  0  0  0  0  0  0  0999 V2000
  -19.7607    1.4455  -15.0878 C   0  0  0  0  0  0  0  0  0  0  0  0
  -19.4691    2.6016  -15.7919 C   0  0  0  0  0  0  0  0  0  0  0  0
  -18.2235    3.0154  -16.1403 N   0  0  0  0  0  0  0  0  0  0  0  0
  -17.1464    2.2516  -15.7833 C   0  0  0  0  0  0  0  0  0  0  0  0
  -17.2969    1.0963  -14.9837 C   0  0  0  0  0  0  0  0  0  0  0  0
  -18.6364    0.7094  -14.6948 C   0  0  0  0  0  0  0  0  0  0  0  0
  -16.1832    0.2958  -14.3888 C   0  0  0  0  0  0  0  0  0  0  0  0
  -14.9555    0.8948  -14.0473 C   0  0  0  0  0  0  0  0  0  0  0  0
  -13.8844    0.1472  -13.5413 C   0  0  0  0  0  0  0  0  0  0  0  0
  -14.0230   -1.2296  -13.3173 C   0  0  0  0  0  0  0  0  0  0  0  0
  -12.9926   -2.0311  -12.8151 C   0  0  0  0  0  0  0  0  0  0  0  0
  -13.1071   -3.3541  -12.5527 N   0  0  0  0  0  0  0  0  0  0  0  0
  -14.3089   -3.9128  -12.8006 C   0  0  0  0  0  0  0  0  0  0  0  0
  -15.3924   -3.2176  -13.3150 C   0  0  0  0  0  0  0  0  0  0  0  0
  -15.2486   -1.8534  -13.6009 C   0  0  0  0  0  0  0  0  0  0  0  0
  -16.2927   -1.0926  -14.1665 C   0  0  0  0  0  0  0  0  0  0  0  0
  -15.8671    2.8015  -16.3240 C   0  0  0  0  0  0  0  0  0  0  0  0
  -14.9736    1.9382  -16.9988 C   0  0  0  0  0  0  0  0  0  0  0  0
  -13.7734    2.4029  -17.5415 C   0  0  0  0  0  0  0  0  0  0  0  0
  -12.6962    1.3042  -18.3143 Cl  0  0  0  0  0  0  0  0  0  0  0  0
  -13.4344    3.7482  -17.4567 C   0  0  0  0  0  0  0  0  0  0  0  0
  -14.2778    4.6226  -16.7773 C   0  0  0  0  0  0  0  0  0  0  0  0
  -15.4552    4.1427  -16.1878 C   0  0  0  0  0  0  0  0  0  0  0  0
  -16.1958    5.0136  -15.4348 O   0  0  0  0  0  0  0  0  0  0  0  0
  -15.9579    5.9252  -15.6709 H   0  0  0  0  0  0  0  0  0  0  0  0
  -21.0300    0.9392  -14.8503 N   0  0  0  0  0  0  0  0  0  0  0  0
  -21.1930   -0.0186  -15.1480 H   0  0  0  0  0  0  0  0  0  0  0  0
  -21.8819    1.3084  -13.7147 C   0  0  0  0  0  0  0  0  0  0  0  0
  -22.6995    0.0976  -13.2571 C   0  0  0  0  0  0  0  0  0  0  0  0
  -23.6682   -0.4353  -14.1235 C   0  0  0  0  0  0  0  0  0  0  0  0
  -24.3784   -1.5844  -13.7769 C   0  0  0  0  0  0  0  0  0  0  0  0
  -24.1479   -2.2131  -12.5564 C   0  0  0  0  0  0  0  0  0  0  0  0
  -23.2226   -1.6690  -11.6680 C   0  0  0  0  0  0  0  0  0  0  0  0
  -22.5169   -0.5174  -12.0112 C   0  0  0  0  0  0  0  0  0  0  0  0
  -22.0729    3.7990  -13.9344 O   0  0  0  0  0  0  0  0  0  0  0  0
  -22.7562    2.5484  -14.0701 C   0  0  0  0  0  0  0  0  0  0  0  0
  -22.6835    4.4856  -14.2544 H   0  0  0  0  0  0  0  0  0  0  0  0
 35 36  1  0  0  0
 35 37  1  0  0  0
 28 29  1  0  0  0
 28 26  1  0  0  0
 28 36  1  0  0  0
 26  1  1  0  0  0
 26 27  1  0  0  0
  1  2  1  0  0  0
  1  6  2  0  0  0
  2  3  2  0  0  0
  3  4  1  0  0  0
  4 17  1  0  0  0
  4  5  2  0  0  0
 17 18  1  0  0  0
 17 23  2  0  0  0
 18 19  2  0  0  0
 19 20  1  0  0  0
 19 21  1  0  0  0
 21 22  2  0  0  0
 22 23  1  0  0  0
 23 24  1  0  0  0
 24 25  1  0  0  0
  5  7  1  0  0  0
  5  6  1  0  0  0
  7  8  1  0  0  0
  7 16  2  0  0  0
  8  9  2  0  0  0
  9 10  1  0  0  0
 10 11  1  0  0  0
 10 15  2  0  0  0
 11 12  2  0  0  0
 12 13  1  0  0  0
 13 14  2  0  0  0
 14 15  1  0  0  0
 15 16  1  0  0  0
 29 30  1  0  0  0
 29 34  2  0  0  0
 30 31  2  0  0  0
 31 32  1  0  0  0
 32 33  2  0  0  0
 33 34  1  0  0  0
M  END
> <minimizedAffinity>
-10.04121

$$$$
