CHEMBL1242293


 25 28  0  0  0  0  0  0  0  0999 V2000
  -29.1217   -9.6669   -9.1694 N   0  0  0  0  0  0  0  0  0  0  0  0
  -28.6765   -8.4529   -8.7787 N   0  0  0  0  0  0  0  0  0  0  0  0
  -29.6140   -8.0061   -7.9192 C   0  0  0  0  0  0  0  0  0  0  0  0
  -30.7015   -8.9320   -7.8224 C   0  0  0  0  0  0  0  0  0  0  0  0
  -31.9428   -9.0407   -7.1785 C   0  0  0  0  0  0  0  0  0  0  0  0
  -32.5309   -8.0658   -6.3839 N   0  0  0  0  0  0  0  0  0  0  0  0
  -32.6559  -10.1783   -7.3291 N   0  0  0  0  0  0  0  0  0  0  0  0
  -32.1566  -11.1531   -8.1100 C   0  0  0  0  0  0  0  0  0  0  0  0
  -31.0080  -11.1479   -8.8019 N   0  0  0  0  0  0  0  0  0  0  0  0
  -30.3248  -10.0030   -8.6129 C   0  0  0  0  0  0  0  0  0  0  0  0
  -32.3541   -7.1073   -6.6503 H   0  0  0  0  0  0  0  0  0  0  0  0
  -33.5023   -8.2907   -6.1954 H   0  0  0  0  0  0  0  0  0  0  0  0
  -29.4134   -6.7345   -7.2219 C   0  0  0  0  0  0  0  0  0  0  0  0
  -30.0689   -5.5703   -7.6275 C   0  0  0  0  0  0  0  0  0  0  0  0
  -29.9624   -4.3403   -7.0645 N   0  0  0  0  0  0  0  0  0  0  0  0
  -29.2030   -4.3486   -5.9571 C   0  0  0  0  0  0  0  0  0  0  0  0
  -29.0015   -3.2613   -5.1563 N   0  0  0  0  0  0  0  0  0  0  0  0
  -28.2534   -3.6230   -4.0648 C   0  0  0  0  0  0  0  0  0  0  0  0
  -27.9217   -4.9558   -4.2053 C   0  0  0  0  0  0  0  0  0  0  0  0
  -28.5258   -5.4283   -5.4022 C   0  0  0  0  0  0  0  0  0  0  0  0
  -28.6099   -6.6605   -6.0744 C   0  0  0  0  0  0  0  0  0  0  0  0
  -29.3997   -2.3529   -5.3414 H   0  0  0  0  0  0  0  0  0  0  0  0
  -28.8795  -10.3058  -11.5423 C   0  0  0  0  0  0  0  0  0  0  0  0
  -28.3496  -10.4658  -10.1170 C   0  0  0  0  0  0  0  0  0  0  0  0
  -26.8539  -10.1539  -10.0521 C   0  0  0  0  0  0  0  0  0  0  0  0
 23 24  1  0  0  0
 24 25  1  0  0  0
 24  1  1  0  0  0
  1  2  1  0  0  0
  1 10  1  0  0  0
  2  3  2  0  0  0
  3 13  1  0  0  0
  3  4  1  0  0  0
 13 14  1  0  0  0
 13 21  2  0  0  0
 14 15  2  0  0  0
 15 16  1  0  0  0
 16 17  1  0  0  0
 16 20  2  0  0  0
 17 18  1  0  0  0
 17 22  1  0  0  0
 18 19  2  0  0  0
 19 20  1  0  0  0
 20 21  1  0  0  0
  4  5  1  0  0  0
  4 10  2  0  0  0
  5  6  1  0  0  0
  5  7  2  0  0  0
  6 11  1  0  0  0
  6 12  1  0  0  0
  7  8  1  0  0  0
  8  9  2  0  0  0
  9 10  1  0  0  0
M  END
> <minimizedAffinity>
-7.60932

$$$$
