CHEMBL272453


 33 36  0  0  0  0  0  0  0  0999 V2000
  -20.5549    1.0837  -14.9090 C   0  0  0  0  0  0  0  0  0  0  0  0
  -20.0834    2.3307  -14.4982 C   0  0  0  0  0  0  0  0  0  0  0  0
  -18.7308    2.6537  -14.5999 C   0  0  0  0  0  0  0  0  0  0  0  0
  -17.7878    1.7302  -15.0817 C   0  0  0  0  0  0  0  0  0  0  0  0
  -18.2676    0.4361  -15.3636 C   0  0  0  0  0  0  0  0  0  0  0  0
  -19.6341    0.1112  -15.2919 C   0  0  0  0  0  0  0  0  0  0  0  0
  -16.3741    2.1266  -15.2625 C   0  0  0  0  0  0  0  0  0  0  0  0
  -15.9919    2.9784  -16.3360 C   0  0  0  0  0  0  0  0  0  0  0  0
  -14.6713    3.3790  -16.5553 C   0  0  0  0  0  0  0  0  0  0  0  0
  -13.6588    2.9795  -15.6915 C   0  0  0  0  0  0  0  0  0  0  0  0
  -14.0352    2.1349  -14.6518 C   0  0  0  0  0  0  0  0  0  0  0  0
  -13.1813    1.6342  -13.7240 O   0  0  0  0  0  0  0  0  0  0  0  0
  -13.8621    0.7780  -12.8862 N   0  0  0  0  0  0  0  0  0  0  0  0
  -15.1214    0.7601  -13.3281 C   0  0  0  0  0  0  0  0  0  0  0  0
  -16.0514   -0.0663  -12.8104 N   0  0  0  0  0  0  0  0  0  0  0  0
  -15.3235    1.6662  -14.4190 C   0  0  0  0  0  0  0  0  0  0  0  0
  -15.6928   -0.8068  -12.2134 H   0  0  0  0  0  0  0  0  0  0  0  0
  -16.8013   -0.3915  -13.4186 H   0  0  0  0  0  0  0  0  0  0  0  0
  -23.9286   -0.0925  -14.2621 N   0  0  0  0  0  0  0  0  0  0  0  0
  -22.5680    0.0512  -14.0545 C   0  0  0  0  0  0  0  0  0  0  0  0
  -21.9745   -0.4355  -13.0945 O   0  0  0  0  0  0  0  0  0  0  0  0
  -21.9444    0.8289  -15.0209 N   0  0  0  0  0  0  0  0  0  0  0  0
  -24.2264   -0.1051  -15.2304 H   0  0  0  0  0  0  0  0  0  0  0  0
  -22.5192    1.5721  -15.3969 H   0  0  0  0  0  0  0  0  0  0  0  0
  -26.5143   -1.7779  -11.3547 C   0  0  0  0  0  0  0  0  0  0  0  0
  -25.3160   -1.1834  -10.9716 C   0  0  0  0  0  0  0  0  0  0  0  0
  -24.4817   -0.6055  -11.9267 C   0  0  0  0  0  0  0  0  0  0  0  0
  -24.7960   -0.6461  -13.2926 C   0  0  0  0  0  0  0  0  0  0  0  0
  -25.9964   -1.2384  -13.6802 C   0  0  0  0  0  0  0  0  0  0  0  0
  -26.8419   -1.8138  -12.7191 C   0  0  0  0  0  0  0  0  0  0  0  0
  -28.3039   -2.5595  -13.2661 Cl  0  0  0  0  0  0  0  0  0  0  0  0
  -27.4523   -1.7009   -9.1890 C   0  0  0  0  0  0  0  0  0  0  0  0
  -27.3743   -2.3548  -10.4546 O   0  0  0  0  0  0  0  0  0  0  0  0
 32 33  1  0  0  0
 33 25  1  0  0  0
 25 26  1  0  0  0
 25 30  2  0  0  0
 26 27  2  0  0  0
 27 28  1  0  0  0
 28 19  1  0  0  0
 28 29  2  0  0  0
 19 20  1  0  0  0
 19 23  1  0  0  0
 20 21  2  0  0  0
 20 22  1  0  0  0
 22  1  1  0  0  0
 22 24  1  0  0  0
  1  2  1  0  0  0
  1  6  2  0  0  0
  2  3  2  0  0  0
  3  4  1  0  0  0
  4  7  1  0  0  0
  4  5  2  0  0  0
  7  8  1  0  0  0
  7 16  2  0  0  0
  8  9  2  0  0  0
  9 10  1  0  0  0
 10 11  2  0  0  0
 11 12  1  0  0  0
 11 16  1  0  0  0
 12 13  1  0  0  0
 13 14  2  0  0  0
 14 15  1  0  0  0
 14 16  1  0  0  0
 15 17  1  0  0  0
 15 18  1  0  0  0
  5  6  1  0  0  0
 29 30  1  0  0  0
 30 31  1  0  0  0
M  END
> <minimizedAffinity>
-8.99165

$$$$
