CHEMBL516243


 29 31  0  0  0  0  0  0  0  0999 V2000
  -27.1611   -6.0089   -4.2810 O   0  0  0  0  0  0  0  0  0  0  0  0
  -28.2697   -6.4898   -4.5066 C   0  0  0  0  0  0  0  0  0  0  0  0
  -29.4225   -5.7658   -4.7599 N   0  0  0  0  0  0  0  0  0  0  0  0
  -30.2864   -6.2923   -4.7527 H   0  0  0  0  0  0  0  0  0  0  0  0
  -29.4663   -4.3610   -4.8657 C   0  0  0  0  0  0  0  0  0  0  0  0
  -29.5190   -3.7107   -6.1041 C   0  0  0  0  0  0  0  0  0  0  0  0
  -29.4750   -2.3212   -6.2013 C   0  0  0  0  0  0  0  0  0  0  0  0
  -29.4537   -1.5469   -5.0509 C   0  0  0  0  0  0  0  0  0  0  0  0
  -29.4194   -2.1876   -3.8068 C   0  0  0  0  0  0  0  0  0  0  0  0
  -29.4434   -3.5862   -3.7072 C   0  0  0  0  0  0  0  0  0  0  0  0
  -29.4409   -0.1874   -5.0069 O   0  0  0  0  0  0  0  0  0  0  0  0
  -28.2176    0.5092   -5.2154 C   0  0  0  0  0  0  0  0  0  0  0  0
  -27.1306   -0.2874   -5.2922 F   0  0  0  0  0  0  0  0  0  0  0  0
  -28.3096    1.1782   -6.3875 F   0  0  0  0  0  0  0  0  0  0  0  0
  -28.0318    1.4124   -4.2294 F   0  0  0  0  0  0  0  0  0  0  0  0
  -28.4443   -7.9589   -4.4983 C   0  0  0  0  0  0  0  0  0  0  0  0
  -28.7221   -8.6151   -3.3651 N   0  0  0  0  0  0  0  0  0  0  0  0
  -28.9105  -10.2265   -3.7183 S   0  0  0  0  0  0  0  0  0  0  0  0
  -28.6217  -10.0885   -5.3984 C   0  0  0  0  0  0  0  0  0  0  0  0
  -28.3602   -8.7727   -5.6947 C   0  0  0  0  0  0  0  0  0  0  0  0
  -28.0231   -8.2775   -6.9201 N   0  0  0  0  0  0  0  0  0  0  0  0
  -27.0424   -8.0017   -7.0565 H   0  0  0  0  0  0  0  0  0  0  0  0
  -28.9180   -7.5388   -7.7901 C   0  0  0  0  0  0  0  0  0  0  0  0
  -30.2698   -8.2032   -7.8095 C   0  0  0  0  0  0  0  0  0  0  0  0
  -31.3538   -7.6263   -7.1362 C   0  0  0  0  0  0  0  0  0  0  0  0
  -32.5859   -8.2525   -7.1917 C   0  0  0  0  0  0  0  0  0  0  0  0
  -32.8174   -9.3980   -7.8690 N   0  0  0  0  0  0  0  0  0  0  0  0
  -31.7605   -9.9441   -8.5059 C   0  0  0  0  0  0  0  0  0  0  0  0
  -30.4875   -9.3958   -8.5118 C   0  0  0  0  0  0  0  0  0  0  0  0
  1  2  2  0  0  0
  2  3  1  0  0  0
  2 16  1  0  0  0
  3  5  1  0  0  0
  3  4  1  0  0  0
  5  6  1  0  0  0
  5 10  2  0  0  0
  6  7  2  0  0  0
  7  8  1  0  0  0
  8 11  1  0  0  0
  8  9  2  0  0  0
 11 12  1  0  0  0
 12 13  1  0  0  0
 12 14  1  0  0  0
 12 15  1  0  0  0
  9 10  1  0  0  0
 16 17  2  0  0  0
 16 20  1  0  0  0
 17 18  1  0  0  0
 18 19  1  0  0  0
 19 20  2  0  0  0
 20 21  1  0  0  0
 21 23  1  0  0  0
 21 22  1  0  0  0
 23 24  1  0  0  0
 24 25  1  0  0  0
 24 29  2  0  0  0
 25 26  2  0  0  0
 26 27  1  0  0  0
 27 28  2  0  0  0
 28 29  1  0  0  0
M  END
> <minimizedAffinity>
-8.36557

$$$$
