CHEMBL605957


 31 34  0  0  0  0  0  0  0  0999 V2000
  -31.0628   -8.3548   -7.3130 C   0  0  0  0  0  0  0  0  0  0  0  0
  -30.3005   -9.2966   -7.9145 C   0  0  0  0  0  0  0  0  0  0  0  0
  -31.1981  -10.4297   -8.2966 C   0  0  0  0  0  0  0  0  0  0  0  0
  -30.8567  -11.4880   -8.7961 O   0  0  0  0  0  0  0  0  0  0  0  0
  -32.4358  -10.0481   -7.9862 N   0  0  0  0  0  0  0  0  0  0  0  0
  -32.4663   -8.7994   -7.4612 C   0  0  0  0  0  0  0  0  0  0  0  0
  -33.4469   -8.1320   -7.2292 O   0  0  0  0  0  0  0  0  0  0  0  0
  -33.2688  -10.5829   -8.2003 H   0  0  0  0  0  0  0  0  0  0  0  0
  -28.9207   -9.2268   -8.2597 C   0  0  0  0  0  0  0  0  0  0  0  0
  -28.4258   -9.4244   -9.5308 C   0  0  0  0  0  0  0  0  0  0  0  0
  -27.0598   -9.3519   -9.4157 N   0  0  0  0  0  0  0  0  0  0  0  0
  -26.7926   -9.8641   -8.1677 C   0  0  0  0  0  0  0  0  0  0  0  0
  -25.8130  -10.7469   -7.7262 C   0  0  0  0  0  0  0  0  0  0  0  0
  -25.7954  -11.0120   -6.3573 C   0  0  0  0  0  0  0  0  0  0  0  0
  -26.6328  -10.3117   -5.4846 C   0  0  0  0  0  0  0  0  0  0  0  0
  -26.4492  -10.5913   -3.6216 Br  0  0  0  0  0  0  0  0  0  0  0  0
  -27.6501   -9.4725   -5.9570 C   0  0  0  0  0  0  0  0  0  0  0  0
  -27.8140   -9.3850   -7.3550 C   0  0  0  0  0  0  0  0  0  0  0  0
  -26.5776   -8.5265   -9.7354 H   0  0  0  0  0  0  0  0  0  0  0  0
  -30.5060   -5.5388   -4.8160 C   0  0  0  0  0  0  0  0  0  0  0  0
  -30.8713   -6.7817   -5.3712 C   0  0  0  0  0  0  0  0  0  0  0  0
  -30.7056   -7.0486   -6.7424 C   0  0  0  0  0  0  0  0  0  0  0  0
  -30.2193   -6.0286   -7.5685 C   0  0  0  0  0  0  0  0  0  0  0  0
  -29.8775   -4.7748   -7.0367 C   0  0  0  0  0  0  0  0  0  0  0  0
  -29.9826   -4.5320   -5.6491 C   0  0  0  0  0  0  0  0  0  0  0  0
  -32.0774   -5.0748   -3.0835 C   0  0  0  0  0  0  0  0  0  0  0  0
  -30.7246   -5.2264   -3.4948 O   0  0  0  0  0  0  0  0  0  0  0  0
  -29.3728   -3.7493   -7.8030 O   0  0  0  0  0  0  0  0  0  0  0  0
  -28.0563   -3.9303   -8.3093 C   0  0  0  0  0  0  0  0  0  0  0  0
  -29.6156   -3.2632   -5.2588 O   0  0  0  0  0  0  0  0  0  0  0  0
  -28.3426   -3.0929   -4.6477 C   0  0  0  0  0  0  0  0  0  0  0  0
 26 27  1  0  0  0
 27 20  1  0  0  0
 20 21  1  0  0  0
 20 25  2  0  0  0
 21 22  2  0  0  0
 22  1  1  0  0  0
 22 23  1  0  0  0
  1  2  2  0  0  0
  1  6  1  0  0  0
  2  9  1  0  0  0
  2  3  1  0  0  0
  9 10  2  0  0  0
  9 18  1  0  0  0
 10 11  1  0  0  0
 11 12  1  0  0  0
 11 19  1  0  0  0
 12 13  1  0  0  0
 12 18  2  0  0  0
 13 14  2  0  0  0
 14 15  1  0  0  0
 15 16  1  0  0  0
 15 17  2  0  0  0
 17 18  1  0  0  0
  3  4  2  0  0  0
  3  5  1  0  0  0
  5  6  1  0  0  0
  5  8  1  0  0  0
  6  7  2  0  0  0
 23 24  2  0  0  0
 24 28  1  0  0  0
 24 25  1  0  0  0
 28 29  1  0  0  0
 25 30  1  0  0  0
 30 31  1  0  0  0
M  END
> <minimizedAffinity>
-7.66552

$$$$
