CHEMBL3951316


 35 39  0  0  0  0  0  0  0  0999 V2000
  -28.5855  -10.2264   -6.1874 N   0  0  0  0  0  0  0  0  0  0  0  0
  -28.7804   -8.8233   -5.8424 C   0  0  0  0  0  0  0  0  0  0  0  0
  -29.0246   -8.5826   -4.4851 C   0  0  0  0  0  0  0  0  0  0  0  0
  -29.1270   -7.3181   -3.9477 C   0  0  0  0  0  0  0  0  0  0  0  0
  -29.1654   -6.1999   -4.7134 C   0  0  0  0  0  0  0  0  0  0  0  0
  -29.4469   -5.1412   -3.9423 N   0  0  0  0  0  0  0  0  0  0  0  0
  -29.4694   -3.9553   -4.5199 C   0  0  0  0  0  0  0  0  0  0  0  0
  -29.1689   -3.7677   -5.8454 C   0  0  0  0  0  0  0  0  0  0  0  0
  -28.9056   -4.8892   -6.6731 N   0  0  0  0  0  0  0  0  0  0  0  0
  -28.9388   -6.2083   -6.0973 C   0  0  0  0  0  0  0  0  0  0  0  0
  -28.7468   -7.6117   -6.6409 C   0  0  0  0  0  0  0  0  0  0  0  0
  -29.0015   -2.3526   -6.2258 C   0  0  0  0  0  0  0  0  0  0  0  0
  -27.9140   -1.7203   -6.8755 C   0  0  0  0  0  0  0  0  0  0  0  0
  -27.9037   -0.3849   -6.7220 N   0  0  0  0  0  0  0  0  0  0  0  0
  -28.9833   -0.1439   -5.9599 N   0  0  0  0  0  0  0  0  0  0  0  0
  -29.4565    1.2069   -5.7540 C   0  0  0  0  0  0  0  0  0  0  0  0
  -29.5741   -1.2945   -5.5123 C   0  0  0  0  0  0  0  0  0  0  0  0
  -25.1269  -11.8223   -7.2197 C   0  0  0  0  0  0  0  0  0  0  0  0
  -25.1498  -11.6089   -8.5981 C   0  0  0  0  0  0  0  0  0  0  0  0
  -26.2427  -10.9855   -9.1609 C   0  0  0  0  0  0  0  0  0  0  0  0
  -27.3481  -10.6486   -8.3456 C   0  0  0  0  0  0  0  0  0  0  0  0
  -27.4024  -10.7627   -6.9267 C   0  0  0  0  0  0  0  0  0  0  0  0
  -26.2346  -11.3813   -6.3843 C   0  0  0  0  0  0  0  0  0  0  0  0
  -22.7270  -12.0892   -7.0355 C   0  0  0  0  0  0  0  0  0  0  0  0
  -24.0579  -12.4608   -6.6086 O   0  0  0  0  0  0  0  0  0  0  0  0
  -26.3631  -10.6407  -10.4832 O   0  0  0  0  0  0  0  0  0  0  0  0
  -27.6400  -10.2197  -10.9628 C   0  0  0  0  0  0  0  0  0  0  0  0
  -29.7365  -11.1544   -5.9156 C   0  0  0  0  0  0  0  0  0  0  0  0
  -30.5906  -11.6551   -7.1346 C   0  0  0  0  0  0  0  0  0  0  0  0
  -30.9908  -10.4719   -8.0565 C   0  0  0  0  0  0  0  0  0  0  0  0
  -32.1461   -9.6226   -7.5228 C   0  0  0  0  0  0  0  0  0  0  0  0
  -33.3002  -10.3472   -7.0603 N   0  0  0  0  0  0  0  0  0  0  0  0
  -33.1326  -11.6654   -6.4916 C   0  0  0  0  0  0  0  0  0  0  0  0
  -31.8756  -12.4594   -6.8732 C   0  0  0  0  0  0  0  0  0  0  0  0
  -34.1417  -10.2330   -7.6192 H   0  0  0  0  0  0  0  0  0  0  0  0
 24 25  1  0  0  0
 25 18  1  0  0  0
 18 19  1  0  0  0
 18 23  2  0  0  0
 19 20  2  0  0  0
 20 26  1  0  0  0
 20 21  1  0  0  0
 26 27  1  0  0  0
 21 22  2  0  0  0
 22  1  1  0  0  0
 22 23  1  0  0  0
  1 28  1  0  0  0
  1  2  1  0  0  0
 28 29  1  0  0  0
 29 30  1  0  0  0
 29 34  1  0  0  0
 30 31  1  0  0  0
 31 32  1  0  0  0
 32 33  1  0  0  0
 32 35  1  0  0  0
 33 34  1  0  0  0
  2  3  1  0  0  0
  2 11  2  0  0  0
  3  4  2  0  0  0
  4  5  1  0  0  0
  5  6  1  0  0  0
  5 10  2  0  0  0
  6  7  2  0  0  0
  7  8  1  0  0  0
  8 12  1  0  0  0
  8  9  2  0  0  0
 12 13  1  0  0  0
 12 17  2  0  0  0
 13 14  2  0  0  0
 14 15  1  0  0  0
 15 16  1  0  0  0
 15 17  1  0  0  0
  9 10  1  0  0  0
 10 11  1  0  0  0
M  END
> <minimizedAffinity>
-7.88937

$$$$
