CHEMBL3656116


 38 41  0  0  0  0  0  0  0  0999 V2000
  -20.7470    1.2375  -14.8578 C   0  0  0  0  0  0  0  0  0  0  0  0
  -20.4364    2.5250  -14.4026 C   0  0  0  0  0  0  0  0  0  0  0  0
  -19.1222    2.9942  -14.4233 C   0  0  0  0  0  0  0  0  0  0  0  0
  -18.0883    2.1537  -14.8330 C   0  0  0  0  0  0  0  0  0  0  0  0
  -18.3919    0.8572  -15.2648 C   0  0  0  0  0  0  0  0  0  0  0  0
  -19.7150    0.3881  -15.2568 C   0  0  0  0  0  0  0  0  0  0  0  0
  -24.0305   -0.1800  -14.2206 N   0  0  0  0  0  0  0  0  0  0  0  0
  -22.7135    0.1590  -13.9557 C   0  0  0  0  0  0  0  0  0  0  0  0
  -22.1302   -0.0675  -12.9008 O   0  0  0  0  0  0  0  0  0  0  0  0
  -22.1011    0.8332  -15.0110 N   0  0  0  0  0  0  0  0  0  0  0  0
  -24.3390   -0.1215  -15.1796 H   0  0  0  0  0  0  0  0  0  0  0  0
  -22.7078    1.4684  -15.5090 H   0  0  0  0  0  0  0  0  0  0  0  0
  -28.3164   -2.5377  -13.3325 C   0  0  0  0  0  0  0  0  0  0  0  0
  -27.0408   -1.9184  -12.8441 C   0  0  0  0  0  0  0  0  0  0  0  0
  -26.7591   -1.9140  -11.4741 C   0  0  0  0  0  0  0  0  0  0  0  0
  -25.5849   -1.3427  -11.0083 C   0  0  0  0  0  0  0  0  0  0  0  0
  -24.6847   -0.7689  -11.9024 C   0  0  0  0  0  0  0  0  0  0  0  0
  -24.9272   -0.7607  -13.2868 C   0  0  0  0  0  0  0  0  0  0  0  0
  -26.1180   -1.3433  -13.7447 C   0  0  0  0  0  0  0  0  0  0  0  0
  -16.7670    2.5384  -14.9244 O   0  0  0  0  0  0  0  0  0  0  0  0
  -15.7638    1.5930  -14.8780 C   0  0  0  0  0  0  0  0  0  0  0  0
  -14.4980    1.7737  -15.4267 C   0  0  0  0  0  0  0  0  0  0  0  0
  -13.5872    0.7389  -15.3177 C   0  0  0  0  0  0  0  0  0  0  0  0
  -13.8351   -0.4171  -14.6670 N   0  0  0  0  0  0  0  0  0  0  0  0
  -15.0539   -0.5496  -14.0890 C   0  0  0  0  0  0  0  0  0  0  0  0
  -16.0408    0.4247  -14.1699 C   0  0  0  0  0  0  0  0  0  0  0  0
  -15.2293   -1.8092  -13.3703 C   0  0  0  0  0  0  0  0  0  0  0  0
  -14.7223   -2.2842  -12.1727 C   0  0  0  0  0  0  0  0  0  0  0  0
  -15.2247   -3.6054  -11.9457 C   0  0  0  0  0  0  0  0  0  0  0  0
  -16.0319   -3.8901  -13.0341 C   0  0  0  0  0  0  0  0  0  0  0  0
  -16.0252   -2.8145  -13.8780 N   0  0  0  0  0  0  0  0  0  0  0  0
  -16.5213   -2.7342  -14.7586 H   0  0  0  0  0  0  0  0  0  0  0  0
  -14.9820   -4.5256  -10.8384 C   0  0  0  0  0  0  0  0  0  0  0  0
  -15.2564   -4.2613   -9.6661 O   0  0  0  0  0  0  0  0  0  0  0  0
  -14.4088   -5.7245  -11.1842 N   0  0  0  0  0  0  0  0  0  0  0  0
  -14.0893   -6.6159  -10.1358 O   0  0  0  0  0  0  0  0  0  0  0  0
  -14.0639   -5.9550  -12.1048 H   0  0  0  0  0  0  0  0  0  0  0  0
  -14.3971   -6.1237   -9.3431 H   0  0  0  0  0  0  0  0  0  0  0  0
 13 14  1  0  0  0
 14 15  1  0  0  0
 14 19  2  0  0  0
 15 16  2  0  0  0
 16 17  1  0  0  0
 17 18  2  0  0  0
 18  7  1  0  0  0
 18 19  1  0  0  0
  7  8  1  0  0  0
  7 11  1  0  0  0
  8  9  2  0  0  0
  8 10  1  0  0  0
 10  1  1  0  0  0
 10 12  1  0  0  0
  1  2  1  0  0  0
  1  6  2  0  0  0
  2  3  2  0  0  0
  3  4  1  0  0  0
  4 20  1  0  0  0
  4  5  2  0  0  0
 20 21  1  0  0  0
 21 22  1  0  0  0
 21 26  2  0  0  0
 22 23  2  0  0  0
 23 24  1  0  0  0
 24 25  2  0  0  0
 25 27  1  0  0  0
 25 26  1  0  0  0
 27 28  2  0  0  0
 27 31  1  0  0  0
 28 29  1  0  0  0
 29 33  1  0  0  0
 29 30  2  0  0  0
 33 34  2  0  0  0
 33 35  1  0  0  0
 35 36  1  0  0  0
 35 37  1  0  0  0
 36 38  1  0  0  0
 30 31  1  0  0  0
 31 32  1  0  0  0
  5  6  1  0  0  0
M  END
> <minimizedAffinity>
-10.49891

$$$$
