CHEMBL162


 37 44  0  0  0  0  0  0  0  0999 V2000
  -13.2745   -1.5432  -13.4646 C   0  0  0  0  0  0  0  0  0  0  0  0
  -12.1953   -2.6642  -12.9160 C   0  0  0  0  0  0  0  0  0  0  0  0
  -11.9642   -4.0612  -13.7565 C   0  0  0  0  0  0  0  0  0  0  0  0
  -12.0890   -3.3698  -14.9771 O   0  0  0  0  0  0  0  0  0  0  0  0
  -13.4823   -3.1719  -15.2708 C   0  0  0  0  0  0  0  0  0  0  0  0
  -14.6840   -3.7797  -14.3311 C   0  0  0  0  0  0  0  0  0  0  0  0
  -13.6818   -1.6882  -15.0064 C   0  0  0  0  0  0  0  0  0  0  0  0
  -13.4845   -3.8899  -16.4926 N   0  0  0  0  0  0  0  0  0  0  0  0
  -13.0568   -3.7291  -17.8028 C   0  0  0  0  0  0  0  0  0  0  0  0
  -12.1966   -2.7930  -18.3898 C   0  0  0  0  0  0  0  0  0  0  0  0
  -12.0617   -2.7928  -19.7781 C   0  0  0  0  0  0  0  0  0  0  0  0
  -12.6890   -3.7385  -20.5510 C   0  0  0  0  0  0  0  0  0  0  0  0
  -13.3310   -4.8446  -19.9668 C   0  0  0  0  0  0  0  0  0  0  0  0
  -13.4055   -4.9152  -18.5654 C   0  0  0  0  0  0  0  0  0  0  0  0
  -13.4713   -5.9541  -17.6136 C   0  0  0  0  0  0  0  0  0  0  0  0
  -13.3785   -7.3201  -17.8426 C   0  0  0  0  0  0  0  0  0  0  0  0
  -13.0975   -8.0749  -16.6818 C   0  0  0  0  0  0  0  0  0  0  0  0
  -12.7200   -7.2927  -15.5589 C   0  0  0  0  0  0  0  0  0  0  0  0
  -12.5606   -7.7389  -14.2322 C   0  0  0  0  0  0  0  0  0  0  0  0
  -12.4382   -9.0155  -13.6531 C   0  0  0  0  0  0  0  0  0  0  0  0
  -13.0610   -9.2413  -12.4407 C   0  0  0  0  0  0  0  0  0  0  0  0
  -13.7876   -8.2149  -11.8384 C   0  0  0  0  0  0  0  0  0  0  0  0
  -13.6531   -6.8741  -12.2528 C   0  0  0  0  0  0  0  0  0  0  0  0
  -12.8435   -6.5811  -13.3672 C   0  0  0  0  0  0  0  0  0  0  0  0
  -12.6151   -5.3644  -14.0609 N   0  0  0  0  0  0  0  0  0  0  0  0
  -12.7960   -5.9148  -15.3391 C   0  0  0  0  0  0  0  0  0  0  0  0
  -13.3083   -5.2324  -16.4467 C   0  0  0  0  0  0  0  0  0  0  0  0
  -13.3709   -9.4506  -16.9979 C   0  0  0  0  0  0  0  0  0  0  0  0
  -13.4102  -10.4732  -16.3292 O   0  0  0  0  0  0  0  0  0  0  0  0
  -13.7143   -9.4257  -18.3497 N   0  0  0  0  0  0  0  0  0  0  0  0
  -13.7022   -8.1315  -19.0033 C   0  0  0  0  0  0  0  0  0  0  0  0
  -14.0833  -10.2592  -18.7857 H   0  0  0  0  0  0  0  0  0  0  0  0
  -14.2405    0.7806  -13.2355 C   0  0  0  0  0  0  0  0  0  0  0  0
  -13.1065   -0.1062  -13.2372 N   0  0  0  0  0  0  0  0  0  0  0  0
  -12.3239    0.1363  -12.6314 H   0  0  0  0  0  0  0  0  0  0  0  0
  -12.9393   -0.8179  -15.8756 O   0  0  0  0  0  0  0  0  0  0  0  0
  -13.8097   -0.0504  -16.7139 C   0  0  0  0  0  0  0  0  0  0  0  0
 33 34  1  0  0  0
 34  1  1  0  0  0
 34 35  1  0  0  0
  1  2  1  0  0  0
  1  7  1  0  0  0
  2  3  1  0  0  0
  3  4  1  0  0  0
  3 25  1  0  0  0
  4  5  1  0  0  0
  5  7  1  0  0  0
  5  8  1  0  0  0
  5  6  1  0  0  0
  7 36  1  0  0  0
 36 37  1  0  0  0
  8  9  1  0  0  0
  8 27  1  0  0  0
  9 10  1  0  0  0
  9 14  2  0  0  0
 10 11  2  0  0  0
 11 12  1  0  0  0
 12 13  2  0  0  0
 13 14  1  0  0  0
 14 15  1  0  0  0
 15 16  1  0  0  0
 15 27  2  0  0  0
 16 17  2  0  0  0
 16 31  1  0  0  0
 17 18  1  0  0  0
 17 28  1  0  0  0
 18 19  1  0  0  0
 18 26  2  0  0  0
 19 20  1  0  0  0
 19 24  2  0  0  0
 20 21  2  0  0  0
 21 22  1  0  0  0
 22 23  2  0  0  0
 23 24  1  0  0  0
 24 25  1  0  0  0
 25 26  1  0  0  0
 26 27  1  0  0  0
 28 30  1  0  0  0
 28 29  2  0  0  0
 30 31  1  0  0  0
 30 32  1  0  0  0
M  END
> <minimizedAffinity>
-6.64762

$$$$
