CHEMBL2004515


 19 22  0  0  0  0  0  0  0  0999 V2000
  -28.7473   -8.8529   -9.0996 C   0  0  0  0  0  0  0  0  0  0  0  0
  -28.6260   -7.7382   -8.3590 N   0  0  0  0  0  0  0  0  0  0  0  0
  -29.6801   -7.3473   -7.5879 C   0  0  0  0  0  0  0  0  0  0  0  0
  -30.8558   -8.1185   -7.6203 C   0  0  0  0  0  0  0  0  0  0  0  0
  -32.1618   -8.0828   -7.0429 C   0  0  0  0  0  0  0  0  0  0  0  0
  -32.8685   -9.1675   -7.5155 C   0  0  0  0  0  0  0  0  0  0  0  0
  -32.0516   -9.8518   -8.3756 N   0  0  0  0  0  0  0  0  0  0  0  0
  -30.8312   -9.2350   -8.4448 C   0  0  0  0  0  0  0  0  0  0  0  0
  -29.8129   -9.6619   -9.2057 N   0  0  0  0  0  0  0  0  0  0  0  0
  -32.2904  -10.6797   -8.9014 H   0  0  0  0  0  0  0  0  0  0  0  0
  -29.5398   -6.1036   -6.8170 C   0  0  0  0  0  0  0  0  0  0  0  0
  -29.9655   -4.8683   -7.3757 C   0  0  0  0  0  0  0  0  0  0  0  0
  -29.8917   -3.6647   -6.6626 C   0  0  0  0  0  0  0  0  0  0  0  0
  -29.3809   -3.7111   -5.3872 C   0  0  0  0  0  0  0  0  0  0  0  0
  -28.9423   -4.8874   -4.8334 C   0  0  0  0  0  0  0  0  0  0  0  0
  -28.9935   -6.0825   -5.5202 C   0  0  0  0  0  0  0  0  0  0  0  0
  -28.4704   -4.7247   -3.5685 O   0  0  0  0  0  0  0  0  0  0  0  0
  -28.6156   -3.2987   -3.4101 C   0  0  0  0  0  0  0  0  0  0  0  0
  -29.2374   -2.6557   -4.5428 O   0  0  0  0  0  0  0  0  0  0  0  0
  1  2  1  0  0  0
  1  9  2  0  0  0
  2  3  2  0  0  0
  3 11  1  0  0  0
  3  4  1  0  0  0
 11 12  1  0  0  0
 11 16  2  0  0  0
 12 13  2  0  0  0
 13 14  1  0  0  0
 14 15  2  0  0  0
 14 19  1  0  0  0
 15 16  1  0  0  0
 15 17  1  0  0  0
 17 18  1  0  0  0
 18 19  1  0  0  0
  4  5  1  0  0  0
  4  8  2  0  0  0
  5  6  2  0  0  0
  6  7  1  0  0  0
  7  8  1  0  0  0
  7 10  1  0  0  0
  8  9  1  0  0  0
M  END
> <minimizedAffinity>
-7.37648

$$$$
