CHEMBL4227092


 38 40  0  0  0  0  0  0  0  0999 V2000
  -26.1786   10.7849  -16.2811 N   0  0  0  0  0  0  0  0  0  0  0  0
  -25.6747   10.3200  -17.0269 H   0  0  0  0  0  0  0  0  0  0  0  0
  -29.7211   11.4707  -15.5313 C   0  0  0  0  0  0  0  0  0  0  0  0
  -30.3794   10.5083  -16.2953 C   0  0  0  0  0  0  0  0  0  0  0  0
  -29.6455    9.5975  -17.0579 C   0  0  0  0  0  0  0  0  0  0  0  0
  -28.2466    9.6463  -17.0730 C   0  0  0  0  0  0  0  0  0  0  0  0
  -27.5760   10.6403  -16.3703 C   0  0  0  0  0  0  0  0  0  0  0  0
  -28.3267   11.5609  -15.6114 C   0  0  0  0  0  0  0  0  0  0  0  0
  -30.6379   12.5473  -14.4483 S   0  0  0  0  0  0  0  0  0  0  0  0
  -33.6301    9.6627  -12.5692 C   0  0  0  0  0  0  0  0  0  0  0  0
  -34.0293   10.9831  -12.7575 C   0  0  0  0  0  0  0  0  0  0  0  0
  -33.1327   11.9032  -13.3086 C   0  0  0  0  0  0  0  0  0  0  0  0
  -31.8488   11.4915  -13.6610 C   0  0  0  0  0  0  0  0  0  0  0  0
  -31.4374   10.2158  -13.4427 N   0  0  0  0  0  0  0  0  0  0  0  0
  -32.3232    9.3380  -12.8962 C   0  0  0  0  0  0  0  0  0  0  0  0
  -34.7310    6.5862  -10.6733 C   0  0  0  0  0  0  0  0  0  0  0  0
  -33.9451    7.6239  -11.2933 N   0  0  0  0  0  0  0  0  0  0  0  0
  -34.5380    8.6210  -12.0370 C   0  0  0  0  0  0  0  0  0  0  0  0
  -35.7461    8.7013  -12.2274 O   0  0  0  0  0  0  0  0  0  0  0  0
  -32.9773    7.7141  -11.0150 H   0  0  0  0  0  0  0  0  0  0  0  0
  -25.3295   11.5346  -15.4850 C   0  0  0  0  0  0  0  0  0  0  0  0
  -23.6728   11.4810  -15.3509 S   0  0  0  0  0  0  0  0  0  0  0  0
  -26.0207   12.4838  -14.7289 N   0  0  0  0  0  0  0  0  0  0  0  0
  -26.3660   13.2933  -15.2360 H   0  0  0  0  0  0  0  0  0  0  0  0
  -26.1566   12.4663  -13.3212 C   0  0  0  0  0  0  0  0  0  0  0  0
  -25.0211   12.4671  -12.5013 C   0  0  0  0  0  0  0  0  0  0  0  0
  -25.1101   12.2338  -11.1278 C   0  0  0  0  0  0  0  0  0  0  0  0
  -26.3803   12.0847  -10.5619 C   0  0  0  0  0  0  0  0  0  0  0  0
  -27.5412   12.1991  -11.3517 C   0  0  0  0  0  0  0  0  0  0  0  0
  -27.4191   12.4035  -12.7406 C   0  0  0  0  0  0  0  0  0  0  0  0
  -23.8544   12.0861  -10.3033 C   0  0  0  0  0  0  0  0  0  0  0  0
  -22.7607   12.6515  -10.8856 F   0  0  0  0  0  0  0  0  0  0  0  0
  -23.9592   12.6589   -9.0750 F   0  0  0  0  0  0  0  0  0  0  0  0
  -23.5319   10.7827  -10.0938 F   0  0  0  0  0  0  0  0  0  0  0  0
  -28.9105   12.0723  -10.7249 C   0  0  0  0  0  0  0  0  0  0  0  0
  -29.3033   10.7811  -10.5459 F   0  0  0  0  0  0  0  0  0  0  0  0
  -28.9727   12.6582   -9.4994 F   0  0  0  0  0  0  0  0  0  0  0  0
  -29.8809   12.6590  -11.4765 F   0  0  0  0  0  0  0  0  0  0  0  0
 16 17  1  0  0  0
 17 18  1  0  0  0
 17 20  1  0  0  0
 18 19  2  0  0  0
 18 10  1  0  0  0
 10 11  1  0  0  0
 10 15  2  0  0  0
 11 12  2  0  0  0
 12 13  1  0  0  0
 13  9  1  0  0  0
 13 14  2  0  0  0
  9  3  1  0  0  0
  3  4  1  0  0  0
  3  8  2  0  0  0
  4  5  2  0  0  0
  5  6  1  0  0  0
  6  7  2  0  0  0
  7  1  1  0  0  0
  7  8  1  0  0  0
  1 21  1  0  0  0
  1  2  1  0  0  0
 21 22  2  0  0  0
 21 23  1  0  0  0
 23 25  1  0  0  0
 23 24  1  0  0  0
 25 26  1  0  0  0
 25 30  2  0  0  0
 26 27  2  0  0  0
 27 31  1  0  0  0
 27 28  1  0  0  0
 31 32  1  0  0  0
 31 33  1  0  0  0
 31 34  1  0  0  0
 28 29  2  0  0  0
 29 35  1  0  0  0
 29 30  1  0  0  0
 35 36  1  0  0  0
 35 37  1  0  0  0
 35 38  1  0  0  0
 14 15  1  0  0  0
M  END
> <minimizedAffinity>
0.17834

$$$$
