CHEMBL3690403


 44 48  0  0  0  0  0  0  0  0999 V2000
  -28.8998   -5.3226   -6.8967 C   0  0  0  0  0  0  0  0  0  0  0  0
  -29.6824   -4.4697   -5.9886 C   0  0  0  0  0  0  0  0  0  0  0  0
  -29.4675   -3.1475   -5.9341 C   0  0  0  0  0  0  0  0  0  0  0  0
  -28.6575   -2.5412   -6.8913 N   0  0  0  0  0  0  0  0  0  0  0  0
  -28.4919   -1.1941   -7.2115 C   0  0  0  0  0  0  0  0  0  0  0  0
  -27.6058   -1.2202   -8.2774 C   0  0  0  0  0  0  0  0  0  0  0  0
  -27.2600   -2.5006   -8.6345 N   0  0  0  0  0  0  0  0  0  0  0  0
  -27.9439   -3.2829   -7.8272 C   0  0  0  0  0  0  0  0  0  0  0  0
  -28.0646   -4.7095   -7.7765 C   0  0  0  0  0  0  0  0  0  0  0  0
  -29.2623   -0.0687   -6.6544 C   0  0  0  0  0  0  0  0  0  0  0  0
  -29.4328    0.0339   -5.2658 C   0  0  0  0  0  0  0  0  0  0  0  0
  -30.1704    1.0661   -4.7038 C   0  0  0  0  0  0  0  0  0  0  0  0
  -30.7796    2.0055   -5.5249 C   0  0  0  0  0  0  0  0  0  0  0  0
  -30.6568    1.9333   -6.9143 C   0  0  0  0  0  0  0  0  0  0  0  0
  -29.9060    0.8794   -7.4750 C   0  0  0  0  0  0  0  0  0  0  0  0
  -31.2659    2.8797   -7.7787 N   0  0  0  0  0  0  0  0  0  0  0  0
  -32.6007    2.9214   -8.1266 C   0  0  0  0  0  0  0  0  0  0  0  0
  -33.4863    2.1614   -7.7574 O   0  0  0  0  0  0  0  0  0  0  0  0
  -32.8830    3.9157   -9.0325 N   0  0  0  0  0  0  0  0  0  0  0  0
  -30.6702    3.5870   -8.1720 H   0  0  0  0  0  0  0  0  0  0  0  0
  -32.3269    4.7551   -8.9692 H   0  0  0  0  0  0  0  0  0  0  0  0
  -34.2823    4.0747   -9.4639 C   0  0  0  0  0  0  0  0  0  0  0  0
  -34.6166    5.3785  -10.2060 C   0  0  0  0  0  0  0  0  0  0  0  0
  -34.9818    5.1560  -11.4895 F   0  0  0  0  0  0  0  0  0  0  0  0
  -35.6679    5.9912   -9.6032 F   0  0  0  0  0  0  0  0  0  0  0  0
  -33.5914    6.2553  -10.2028 F   0  0  0  0  0  0  0  0  0  0  0  0
  -28.5959   -8.8556   -6.1526 N   0  0  0  0  0  0  0  0  0  0  0  0
  -28.2522   -7.5563   -5.8859 C   0  0  0  0  0  0  0  0  0  0  0  0
  -28.9769   -6.7599   -6.7550 C   0  0  0  0  0  0  0  0  0  0  0  0
  -29.7325   -7.6935   -7.5027 C   0  0  0  0  0  0  0  0  0  0  0  0
  -29.5094   -8.9600   -7.1362 N   0  0  0  0  0  0  0  0  0  0  0  0
  -25.2735  -11.3801   -3.5794 C   0  0  0  0  0  0  0  0  0  0  0  0
  -25.0235  -12.4658   -3.0739 O   0  0  0  0  0  0  0  0  0  0  0  0
  -26.5654  -10.9127   -3.7116 N   0  0  0  0  0  0  0  0  0  0  0  0
  -27.6382  -11.7039   -3.1374 C   0  0  0  0  0  0  0  0  0  0  0  0
  -28.5801  -12.1816   -4.2353 C   0  0  0  0  0  0  0  0  0  0  0  0
  -29.1476  -10.9879   -5.0020 C   0  0  0  0  0  0  0  0  0  0  0  0
  -28.0350  -10.0573   -5.5342 C   0  0  0  0  0  0  0  0  0  0  0  0
  -26.9912   -9.7090   -4.4437 C   0  0  0  0  0  0  0  0  0  0  0  0
  -24.3029  -10.5168   -4.0421 O   0  0  0  0  0  0  0  0  0  0  0  0
  -24.2733  -11.8968   -6.1004 C   0  0  0  0  0  0  0  0  0  0  0  0
  -23.4746  -10.9818   -5.1599 C   0  0  0  0  0  0  0  0  0  0  0  0
  -22.1732  -11.6400   -4.6687 C   0  0  0  0  0  0  0  0  0  0  0  0
  -23.0759   -9.7318   -5.9645 C   0  0  0  0  0  0  0  0  0  0  0  0
 41 42  1  0  0  0
 42 43  1  0  0  0
 42 44  1  0  0  0
 42 40  1  0  0  0
 40 32  1  0  0  0
 32 33  2  0  0  0
 32 34  1  0  0  0
 34 35  1  0  0  0
 34 39  1  0  0  0
 35 36  1  0  0  0
 36 37  1  0  0  0
 37 38  1  0  0  0
 38 27  1  0  0  0
 38 39  1  0  0  0
 27 28  1  0  0  0
 27 31  1  0  0  0
 28 29  2  0  0  0
 29  1  1  0  0  0
 29 30  1  0  0  0
  1  2  1  0  0  0
  1  9  2  0  0  0
  2  3  2  0  0  0
  3  4  1  0  0  0
  4  5  1  0  0  0
  4  8  1  0  0  0
  5 10  1  0  0  0
  5  6  2  0  0  0
 10 11  1  0  0  0
 10 15  2  0  0  0
 11 12  2  0  0  0
 12 13  1  0  0  0
 13 14  2  0  0  0
 14 16  1  0  0  0
 14 15  1  0  0  0
 16 17  1  0  0  0
 16 20  1  0  0  0
 17 18  2  0  0  0
 17 19  1  0  0  0
 19 22  1  0  0  0
 19 21  1  0  0  0
 22 23  1  0  0  0
 23 24  1  0  0  0
 23 25  1  0  0  0
 23 26  1  0  0  0
  6  7  1  0  0  0
  7  8  2  0  0  0
  8  9  1  0  0  0
 30 31  2  0  0  0
M  END
> <minimizedAffinity>
-7.12020

$$$$
