CHEMBL3947826


 31 35  0  0  0  0  0  0  0  0999 V2000
  -15.0622    2.8157  -16.6808 C   0  0  0  0  0  0  0  0  0  0  0  0
  -16.0099    3.7395  -17.0097 C   0  0  0  0  0  0  0  0  0  0  0  0
  -17.1641    3.7988  -16.2845 C   0  0  0  0  0  0  0  0  0  0  0  0
  -17.5423    2.8568  -15.3766 C   0  0  0  0  0  0  0  0  0  0  0  0
  -18.3972    3.3574  -14.5297 N   0  0  0  0  0  0  0  0  0  0  0  0
  -19.3727    2.5691  -14.0683 C   0  0  0  0  0  0  0  0  0  0  0  0
  -19.5208    1.2739  -14.4992 C   0  0  0  0  0  0  0  0  0  0  0  0
  -18.4069    0.6882  -15.1528 N   0  0  0  0  0  0  0  0  0  0  0  0
  -17.1869    1.5418  -15.5563 C   0  0  0  0  0  0  0  0  0  0  0  0
  -15.6641    1.6168  -16.0888 C   0  0  0  0  0  0  0  0  0  0  0  0
  -21.0448    1.0363  -14.6472 C   0  0  0  0  0  0  0  0  0  0  0  0
  -21.9827    2.0232  -14.1427 C   0  0  0  0  0  0  0  0  0  0  0  0
  -23.1528    1.5496  -13.7118 N   0  0  0  0  0  0  0  0  0  0  0  0
  -23.0438    0.2276  -13.8842 N   0  0  0  0  0  0  0  0  0  0  0  0
  -24.1497   -0.6008  -13.4204 C   0  0  0  0  0  0  0  0  0  0  0  0
  -21.7802   -0.1268  -14.3974 C   0  0  0  0  0  0  0  0  0  0  0  0
  -13.6816    3.2912  -16.9116 N   0  0  0  0  0  0  0  0  0  0  0  0
  -11.6033    5.9046  -14.8915 C   0  0  0  0  0  0  0  0  0  0  0  0
  -11.4156    6.8232  -15.9284 C   0  0  0  0  0  0  0  0  0  0  0  0
  -12.0252    6.6283  -17.1492 C   0  0  0  0  0  0  0  0  0  0  0  0
  -12.7845    5.4813  -17.4072 C   0  0  0  0  0  0  0  0  0  0  0  0
  -12.9565    4.4589  -16.4524 C   0  0  0  0  0  0  0  0  0  0  0  0
  -12.3887    4.7252  -15.1172 C   0  0  0  0  0  0  0  0  0  0  0  0
  -10.8159    7.4530  -13.2307 C   0  0  0  0  0  0  0  0  0  0  0  0
  -10.9495    6.1023  -13.6915 O   0  0  0  0  0  0  0  0  0  0  0  0
  -12.6593    3.8370  -14.0859 O   0  0  0  0  0  0  0  0  0  0  0  0
  -11.8304    2.6842  -13.8781 C   0  0  0  0  0  0  0  0  0  0  0  0
  -12.9033    2.3095  -17.7769 C   0  0  0  0  0  0  0  0  0  0  0  0
  -13.3502    2.1871  -19.2390 C   0  0  0  0  0  0  0  0  0  0  0  0
  -13.9814    0.8927  -19.7399 C   0  0  0  0  0  0  0  0  0  0  0  0
  -12.6264    1.2892  -20.2315 C   0  0  0  0  0  0  0  0  0  0  0  0
 24 25  1  0  0  0
 25 18  1  0  0  0
 18 19  1  0  0  0
 18 23  2  0  0  0
 19 20  2  0  0  0
 20 21  1  0  0  0
 21 22  2  0  0  0
 22 17  1  0  0  0
 22 23  1  0  0  0
 17 28  1  0  0  0
 17  1  1  0  0  0
 28 29  1  0  0  0
 29 30  1  0  0  0
 29 31  1  0  0  0
 30 31  1  0  0  0
  1  2  1  0  0  0
  1 10  2  0  0  0
  2  3  2  0  0  0
  3  4  1  0  0  0
  4  5  1  0  0  0
  4  9  2  0  0  0
  5  6  2  0  0  0
  6  7  1  0  0  0
  7 11  1  0  0  0
  7  8  2  0  0  0
 11 12  1  0  0  0
 11 16  2  0  0  0
 12 13  2  0  0  0
 13 14  1  0  0  0
 14 15  1  0  0  0
 14 16  1  0  0  0
  8  9  1  0  0  0
  9 10  1  0  0  0
 23 26  1  0  0  0
 26 27  1  0  0  0
M  END
> <minimizedAffinity>
-6.85034

$$$$
