CHEMBL2018772


 36 38  0  0  0  0  0  0  0  0999 V2000
  -13.9609    0.6660  -13.6033 C   0  0  0  0  0  0  0  0  0  0  0  0
  -13.4363    1.3408  -12.5629 N   0  0  0  0  0  0  0  0  0  0  0  0
  -12.5849    2.3322  -12.8198 C   0  0  0  0  0  0  0  0  0  0  0  0
  -12.1862    2.7133  -14.0294 N   0  0  0  0  0  0  0  0  0  0  0  0
  -12.6944    2.0384  -15.0583 C   0  0  0  0  0  0  0  0  0  0  0  0
  -12.3236    2.4614  -16.3187 C   0  0  0  0  0  0  0  0  0  0  0  0
  -12.7986    1.8660  -17.4986 C   0  0  0  0  0  0  0  0  0  0  0  0
  -13.6684    0.7781  -17.3989 C   0  0  0  0  0  0  0  0  0  0  0  0
  -14.0328    0.3244  -16.1202 C   0  0  0  0  0  0  0  0  0  0  0  0
  -13.5825    0.9673  -14.9322 C   0  0  0  0  0  0  0  0  0  0  0  0
  -14.8711   -0.4011  -13.3598 N   0  0  0  0  0  0  0  0  0  0  0  0
  -15.7597   -0.0369  -13.0347 H   0  0  0  0  0  0  0  0  0  0  0  0
  -14.0820   -4.2281  -11.6567 C   0  0  0  0  0  0  0  0  0  0  0  0
  -15.3114   -3.6084  -11.4488 C   0  0  0  0  0  0  0  0  0  0  0  0
  -15.5875   -2.3493  -11.9917 C   0  0  0  0  0  0  0  0  0  0  0  0
  -14.6534   -1.6726  -12.7731 C   0  0  0  0  0  0  0  0  0  0  0  0
  -13.3871   -2.2677  -12.9123 C   0  0  0  0  0  0  0  0  0  0  0  0
  -13.0999   -3.5299  -12.3609 C   0  0  0  0  0  0  0  0  0  0  0  0
  -13.5634   -7.8110  -11.2491 N   0  0  0  0  0  0  0  0  0  0  0  0
  -13.7632   -6.6541  -11.9722 C   0  0  0  0  0  0  0  0  0  0  0  0
  -13.8716   -6.6734  -13.1930 O   0  0  0  0  0  0  0  0  0  0  0  0
  -13.7982   -5.5290  -11.1773 N   0  0  0  0  0  0  0  0  0  0  0  0
  -14.0194   -7.8240  -10.3479 H   0  0  0  0  0  0  0  0  0  0  0  0
  -13.3082   -5.6076  -10.2997 H   0  0  0  0  0  0  0  0  0  0  0  0
  -12.1954   -9.6847  -12.1315 C   0  0  0  0  0  0  0  0  0  0  0  0
  -13.5629   -9.0490  -12.0100 C   0  0  0  0  0  0  0  0  0  0  0  0
  -14.2387    0.0460  -18.4056 O   0  0  0  0  0  0  0  0  0  0  0  0
  -13.4984   -1.0306  -18.9654 C   0  0  0  0  0  0  0  0  0  0  0  0
  -12.4441    2.3487  -18.7363 O   0  0  0  0  0  0  0  0  0  0  0  0
  -12.3030    3.7710  -18.7962 C   0  0  0  0  0  0  0  0  0  0  0  0
  -13.6120    4.4291  -19.2391 C   0  0  0  0  0  0  0  0  0  0  0  0
  -14.2990    5.1606  -18.1505 N   0  0  0  0  0  0  0  0  0  0  0  0
  -14.5875    6.5706  -18.4665 C   0  0  0  0  0  0  0  0  0  0  0  0
  -14.8103    6.8995  -19.9395 C   0  0  0  0  0  0  0  0  0  0  0  0
  -15.4726    4.3940  -17.7055 C   0  0  0  0  0  0  0  0  0  0  0  0
  -15.5717    4.2318  -16.1929 C   0  0  0  0  0  0  0  0  0  0  0  0
 25 26  1  0  0  0
 26 19  1  0  0  0
 19 20  1  0  0  0
 19 23  1  0  0  0
 20 21  2  0  0  0
 20 22  1  0  0  0
 22 13  1  0  0  0
 22 24  1  0  0  0
 13 14  1  0  0  0
 13 18  2  0  0  0
 14 15  2  0  0  0
 15 16  1  0  0  0
 16 11  1  0  0  0
 16 17  2  0  0  0
 11  1  1  0  0  0
 11 12  1  0  0  0
  1  2  1  0  0  0
  1 10  2  0  0  0
  2  3  2  0  0  0
  3  4  1  0  0  0
  4  5  2  0  0  0
  5  6  1  0  0  0
  5 10  1  0  0  0
  6  7  2  0  0  0
  7 29  1  0  0  0
  7  8  1  0  0  0
 29 30  1  0  0  0
 30 31  1  0  0  0
 31 32  1  0  0  0
 32 33  1  0  0  0
 32 35  1  0  0  0
 33 34  1  0  0  0
 35 36  1  0  0  0
  8 27  1  0  0  0
  8  9  2  0  0  0
 27 28  1  0  0  0
  9 10  1  0  0  0
 17 18  1  0  0  0
M  END
> <minimizedAffinity>
-5.80718

$$$$
