CHEMBL3694708


 35 38  0  0  0  0  0  0  0  0999 V2000
  -23.3377    0.1305  -13.6602 C   0  0  0  0  0  0  0  0  0  0  0  0
  -22.1082   -0.5962  -14.0180 C   0  0  0  0  0  0  0  0  0  0  0  0
  -21.0004    0.0755  -14.3796 C   0  0  0  0  0  0  0  0  0  0  0  0
  -21.0067    1.4722  -14.3848 N   0  0  0  0  0  0  0  0  0  0  0  0
  -20.0178    2.3966  -14.7005 C   0  0  0  0  0  0  0  0  0  0  0  0
  -20.6684    3.6206  -14.5895 C   0  0  0  0  0  0  0  0  0  0  0  0
  -21.9648    3.4921  -14.1882 N   0  0  0  0  0  0  0  0  0  0  0  0
  -22.1495    2.2005  -14.0551 C   0  0  0  0  0  0  0  0  0  0  0  0
  -23.3181    1.4853  -13.6755 C   0  0  0  0  0  0  0  0  0  0  0  0
  -18.6303    2.1488  -15.1238 C   0  0  0  0  0  0  0  0  0  0  0  0
  -17.9734    3.1644  -15.8364 C   0  0  0  0  0  0  0  0  0  0  0  0
  -16.6506    3.0222  -16.2339 C   0  0  0  0  0  0  0  0  0  0  0  0
  -15.9546    1.8611  -15.9144 C   0  0  0  0  0  0  0  0  0  0  0  0
  -16.5528    0.8459  -15.1682 C   0  0  0  0  0  0  0  0  0  0  0  0
  -17.9023    0.9886  -14.7892 C   0  0  0  0  0  0  0  0  0  0  0  0
  -15.8491   -0.3236  -14.7787 N   0  0  0  0  0  0  0  0  0  0  0  0
  -15.5618   -0.6878  -13.4827 C   0  0  0  0  0  0  0  0  0  0  0  0
  -15.8912   -0.1115  -12.4575 O   0  0  0  0  0  0  0  0  0  0  0  0
  -14.7758   -1.8186  -13.3955 N   0  0  0  0  0  0  0  0  0  0  0  0
  -15.5870   -0.9712  -15.5053 H   0  0  0  0  0  0  0  0  0  0  0  0
  -14.8656   -2.5077  -14.1270 H   0  0  0  0  0  0  0  0  0  0  0  0
  -14.4391   -2.3129  -12.0481 C   0  0  0  0  0  0  0  0  0  0  0  0
  -15.5050   -3.1859  -11.3610 C   0  0  0  0  0  0  0  0  0  0  0  0
  -14.9815   -4.3245  -10.8518 F   0  0  0  0  0  0  0  0  0  0  0  0
  -16.0476   -2.5068  -10.3180 F   0  0  0  0  0  0  0  0  0  0  0  0
  -16.5170   -3.5170  -12.1892 F   0  0  0  0  0  0  0  0  0  0  0  0
  -26.5459   -1.3613  -12.2307 C   0  0  0  0  0  0  0  0  0  0  0  0
  -26.4647   -1.7356  -13.4879 N   0  0  0  0  0  0  0  0  0  0  0  0
  -25.3504   -1.2240  -14.1130 N   0  0  0  0  0  0  0  0  0  0  0  0
  -24.5967   -0.4782  -13.3218 C   0  0  0  0  0  0  0  0  0  0  0  0
  -25.2508   -0.3602  -11.7196 S   0  0  0  0  0  0  0  0  0  0  0  0
  -27.6194   -1.7990  -11.2865 C   0  0  0  0  0  0  0  0  0  0  0  0
  -27.2848   -1.5123   -9.8255 C   0  0  0  0  0  0  0  0  0  0  0  0
  -28.0762   -2.7192   -7.9579 C   0  0  0  0  0  0  0  0  0  0  0  0
  -27.2225   -2.7343   -9.0926 O   0  0  0  0  0  0  0  0  0  0  0  0
 34 35  1  0  0  0
 35 33  1  0  0  0
 33 32  1  0  0  0
 32 27  1  0  0  0
 27 28  2  0  0  0
 27 31  1  0  0  0
 28 29  1  0  0  0
 29 30  2  0  0  0
 30  1  1  0  0  0
 30 31  1  0  0  0
  1  2  1  0  0  0
  1  9  2  0  0  0
  2  3  2  0  0  0
  3  4  1  0  0  0
  4  5  1  0  0  0
  4  8  1  0  0  0
  5 10  1  0  0  0
  5  6  2  0  0  0
 10 11  1  0  0  0
 10 15  2  0  0  0
 11 12  2  0  0  0
 12 13  1  0  0  0
 13 14  2  0  0  0
 14 16  1  0  0  0
 14 15  1  0  0  0
 16 17  1  0  0  0
 16 20  1  0  0  0
 17 18  2  0  0  0
 17 19  1  0  0  0
 19 22  1  0  0  0
 19 21  1  0  0  0
 22 23  1  0  0  0
 23 24  1  0  0  0
 23 25  1  0  0  0
 23 26  1  0  0  0
  6  7  1  0  0  0
  7  8  2  0  0  0
  8  9  1  0  0  0
M  END
> <minimizedAffinity>
-9.54282

$$$$
