CHEMBL3125882


 41 45  0  0  0  0  0  0  0  0999 V2000
  -21.2889    1.0490  -14.7603 C   0  0  0  0  0  0  0  0  0  0  0  0
  -21.5800    2.3638  -14.3939 C   0  0  0  0  0  0  0  0  0  0  0  0
  -20.5445    3.2799  -14.2327 C   0  0  0  0  0  0  0  0  0  0  0  0
  -19.2240    2.8719  -14.4173 C   0  0  0  0  0  0  0  0  0  0  0  0
  -18.9255    1.5620  -14.8004 C   0  0  0  0  0  0  0  0  0  0  0  0
  -19.9689    0.6690  -15.0423 C   0  0  0  0  0  0  0  0  0  0  0  0
  -17.5973    1.0927  -14.9448 N   0  0  0  0  0  0  0  0  0  0  0  0
  -16.7244    1.5613  -15.9112 C   0  0  0  0  0  0  0  0  0  0  0  0
  -16.9575    2.4991  -16.6662 O   0  0  0  0  0  0  0  0  0  0  0  0
  -15.5470    0.8265  -15.9356 N   0  0  0  0  0  0  0  0  0  0  0  0
  -17.1582    0.6781  -14.1337 H   0  0  0  0  0  0  0  0  0  0  0  0
  -15.6837   -0.1577  -15.7275 H   0  0  0  0  0  0  0  0  0  0  0  0
  -14.4881    1.1678  -16.8170 C   0  0  0  0  0  0  0  0  0  0  0  0
  -14.3732    0.4963  -18.0462 C   0  0  0  0  0  0  0  0  0  0  0  0
  -13.3223    0.7666  -18.9216 C   0  0  0  0  0  0  0  0  0  0  0  0
  -12.3708    1.7187  -18.5820 C   0  0  0  0  0  0  0  0  0  0  0  0
  -12.4842    2.4105  -17.3764 C   0  0  0  0  0  0  0  0  0  0  0  0
  -13.5494    2.1572  -16.4839 C   0  0  0  0  0  0  0  0  0  0  0  0
  -13.5621    2.9078  -15.1803 C   0  0  0  0  0  0  0  0  0  0  0  0
  -13.8114    2.1244  -14.0883 F   0  0  0  0  0  0  0  0  0  0  0  0
  -12.3794    3.5319  -14.9219 F   0  0  0  0  0  0  0  0  0  0  0  0
  -14.5127    3.8833  -15.1484 F   0  0  0  0  0  0  0  0  0  0  0  0
  -22.3713    0.2048  -14.8498 O   0  0  0  0  0  0  0  0  0  0  0  0
  -24.2651   -0.7940  -13.8446 C   0  0  0  0  0  0  0  0  0  0  0  0
  -22.9934   -0.2235  -13.6951 C   0  0  0  0  0  0  0  0  0  0  0  0
  -22.4412   -0.0641  -12.4216 C   0  0  0  0  0  0  0  0  0  0  0  0
  -23.1023   -0.5579  -11.2926 C   0  0  0  0  0  0  0  0  0  0  0  0
  -24.3645   -1.1674  -11.4269 C   0  0  0  0  0  0  0  0  0  0  0  0
  -25.1296   -1.6631  -10.3871 N   0  0  0  0  0  0  0  0  0  0  0  0
  -26.2578   -2.1128  -10.8587 C   0  0  0  0  0  0  0  0  0  0  0  0
  -26.4677   -2.0503  -12.5458 S   0  0  0  0  0  0  0  0  0  0  0  0
  -24.9328   -1.2741  -12.7026 C   0  0  0  0  0  0  0  0  0  0  0  0
  -27.3425   -2.6186  -10.2135 N   0  0  0  0  0  0  0  0  0  0  0  0
  -27.6950   -2.2938   -8.9316 C   0  0  0  0  0  0  0  0  0  0  0  0
  -27.1374   -1.5643   -8.1321 O   0  0  0  0  0  0  0  0  0  0  0  0
  -27.9329   -3.2407  -10.7436 H   0  0  0  0  0  0  0  0  0  0  0  0
  -29.0003   -2.9619   -8.5822 C   0  0  0  0  0  0  0  0  0  0  0  0
  -28.4643   -4.3040   -7.9149 C   0  0  0  0  0  0  0  0  0  0  0  0
  -29.7365   -3.7780   -7.5252 C   0  0  0  0  0  0  0  0  0  0  0  0
  -25.4249   -0.9556  -16.1574 N   0  0  0  0  0  0  0  0  0  0  0  0
  -24.9131   -0.8980  -15.1148 C   0  0  0  0  0  0  0  0  0  0  0  0
 40 41  3  0  0  0
 41 24  1  0  0  0
 24 25  1  0  0  0
 24 32  2  0  0  0
 25 23  1  0  0  0
 25 26  2  0  0  0
 23  1  1  0  0  0
  1  2  1  0  0  0
  1  6  2  0  0  0
  2  3  2  0  0  0
  3  4  1  0  0  0
  4  5  2  0  0  0
  5  7  1  0  0  0
  5  6  1  0  0  0
  7  8  1  0  0  0
  7 11  1  0  0  0
  8  9  2  0  0  0
  8 10  1  0  0  0
 10 13  1  0  0  0
 10 12  1  0  0  0
 13 14  1  0  0  0
 13 18  2  0  0  0
 14 15  2  0  0  0
 15 16  1  0  0  0
 16 17  2  0  0  0
 17 18  1  0  0  0
 18 19  1  0  0  0
 19 20  1  0  0  0
 19 21  1  0  0  0
 19 22  1  0  0  0
 26 27  1  0  0  0
 27 28  2  0  0  0
 28 29  1  0  0  0
 28 32  1  0  0  0
 29 30  2  0  0  0
 30 33  1  0  0  0
 30 31  1  0  0  0
 33 34  1  0  0  0
 33 36  1  0  0  0
 34 35  2  0  0  0
 34 37  1  0  0  0
 37 38  1  0  0  0
 37 39  1  0  0  0
 38 39  1  0  0  0
 31 32  1  0  0  0
M  END
> <minimizedAffinity>
-9.57552

$$$$
