CHEMBL3956120


 34 38  0  0  0  0  0  0  0  0999 V2000
  -15.0943   -0.0044  -14.3829 N   0  0  0  0  0  0  0  0  0  0  0  0
  -15.1092   -1.2458  -13.6331 C   0  0  0  0  0  0  0  0  0  0  0  0
  -15.9293   -1.2462  -12.5085 C   0  0  0  0  0  0  0  0  0  0  0  0
  -15.6314   -2.0510  -11.4233 C   0  0  0  0  0  0  0  0  0  0  0  0
  -14.6076   -2.9781  -11.4717 C   0  0  0  0  0  0  0  0  0  0  0  0
  -14.3098   -3.5113  -10.2852 N   0  0  0  0  0  0  0  0  0  0  0  0
  -13.4606   -4.5444  -10.2876 C   0  0  0  0  0  0  0  0  0  0  0  0
  -12.9872   -5.1050  -11.4547 C   0  0  0  0  0  0  0  0  0  0  0  0
  -13.1954   -4.4872  -12.6718 N   0  0  0  0  0  0  0  0  0  0  0  0
  -13.9745   -3.3176  -12.6918 C   0  0  0  0  0  0  0  0  0  0  0  0
  -14.2043   -2.3527  -13.7626 C   0  0  0  0  0  0  0  0  0  0  0  0
  -12.4866   -6.4760  -11.3254 C   0  0  0  0  0  0  0  0  0  0  0  0
  -11.2863   -6.9280  -10.7100 C   0  0  0  0  0  0  0  0  0  0  0  0
  -10.9732   -8.1910  -11.0280 N   0  0  0  0  0  0  0  0  0  0  0  0
  -11.9614   -8.5587  -11.8599 N   0  0  0  0  0  0  0  0  0  0  0  0
  -12.0977   -9.9390  -12.2675 C   0  0  0  0  0  0  0  0  0  0  0  0
  -12.7991   -7.5228  -12.1816 C   0  0  0  0  0  0  0  0  0  0  0  0
  -18.5870    1.1595  -15.2362 C   0  0  0  0  0  0  0  0  0  0  0  0
  -18.3472    2.4564  -15.6972 C   0  0  0  0  0  0  0  0  0  0  0  0
  -17.0505    2.9444  -15.7248 C   0  0  0  0  0  0  0  0  0  0  0  0
  -15.9985    2.1241  -15.2915 C   0  0  0  0  0  0  0  0  0  0  0  0
  -16.1748    0.7937  -14.8527 C   0  0  0  0  0  0  0  0  0  0  0  0
  -17.5067    0.3382  -14.8318 C   0  0  0  0  0  0  0  0  0  0  0  0
  -20.9088    1.4908  -14.7820 C   0  0  0  0  0  0  0  0  0  0  0  0
  -19.8407    0.6057  -15.1244 O   0  0  0  0  0  0  0  0  0  0  0  0
  -16.6698    4.1977  -16.1301 O   0  0  0  0  0  0  0  0  0  0  0  0
  -15.4908    4.2932  -16.9202 C   0  0  0  0  0  0  0  0  0  0  0  0
  -13.7561    0.1299  -15.0875 C   0  0  0  0  0  0  0  0  0  0  0  0
  -12.6644    1.0528  -14.4472 C   0  0  0  0  0  0  0  0  0  0  0  0
  -13.0190    1.7750  -13.1331 C   0  0  0  0  0  0  0  0  0  0  0  0
  -11.9182    2.7754  -12.7455 C   0  0  0  0  0  0  0  0  0  0  0  0
  -11.7247    3.7446  -13.7757 O   0  0  0  0  0  0  0  0  0  0  0  0
  -11.2844    3.1466  -14.9888 C   0  0  0  0  0  0  0  0  0  0  0  0
  -12.3131    2.1440  -15.4937 C   0  0  0  0  0  0  0  0  0  0  0  0
 24 25  1  0  0  0
 25 18  1  0  0  0
 18 19  1  0  0  0
 18 23  2  0  0  0
 19 20  2  0  0  0
 20 26  1  0  0  0
 20 21  1  0  0  0
 26 27  1  0  0  0
 21 22  2  0  0  0
 22  1  1  0  0  0
 22 23  1  0  0  0
  1 28  1  0  0  0
  1  2  1  0  0  0
 28 29  1  0  0  0
 29 30  1  0  0  0
 29 34  1  0  0  0
 30 31  1  0  0  0
 31 32  1  0  0  0
 32 33  1  0  0  0
 33 34  1  0  0  0
  2  3  1  0  0  0
  2 11  2  0  0  0
  3  4  2  0  0  0
  4  5  1  0  0  0
  5  6  1  0  0  0
  5 10  2  0  0  0
  6  7  2  0  0  0
  7  8  1  0  0  0
  8 12  1  0  0  0
  8  9  2  0  0  0
 12 13  1  0  0  0
 12 17  2  0  0  0
 13 14  2  0  0  0
 14 15  1  0  0  0
 15 16  1  0  0  0
 15 17  1  0  0  0
  9 10  1  0  0  0
 10 11  1  0  0  0
M  END
> <minimizedAffinity>
-7.76933

$$$$
