CHEMBL464510


 38 42  0  0  0  0  0  0  0  0999 V2000
  -14.8066    0.7121  -14.5092 C   0  0  0  0  0  0  0  0  0  0  0  0
  -15.1894    1.6444  -15.4742 C   0  0  0  0  0  0  0  0  0  0  0  0
  -16.4845    2.1628  -15.4689 C   0  0  0  0  0  0  0  0  0  0  0  0
  -17.3933    1.8238  -14.4636 C   0  0  0  0  0  0  0  0  0  0  0  0
  -16.9552    1.0157  -13.4066 C   0  0  0  0  0  0  0  0  0  0  0  0
  -15.6729    0.4576  -13.4454 C   0  0  0  0  0  0  0  0  0  0  0  0
  -15.2930   -0.3592  -12.4514 F   0  0  0  0  0  0  0  0  0  0  0  0
  -18.7339    2.2765  -14.4803 N   0  0  0  0  0  0  0  0  0  0  0  0
  -19.8106    1.5483  -14.9674 C   0  0  0  0  0  0  0  0  0  0  0  0
  -19.7483    0.3969  -15.4016 O   0  0  0  0  0  0  0  0  0  0  0  0
  -18.9290    3.1495  -13.9894 H   0  0  0  0  0  0  0  0  0  0  0  0
  -21.1534    2.2365  -14.9755 C   0  0  0  0  0  0  0  0  0  0  0  0
  -22.2350    1.5282  -14.2206 C   0  0  0  0  0  0  0  0  0  0  0  0
  -22.9863    2.1700  -13.4884 O   0  0  0  0  0  0  0  0  0  0  0  0
  -22.2102    0.1462  -14.3331 N   0  0  0  0  0  0  0  0  0  0  0  0
  -21.3133   -0.2754  -14.5498 H   0  0  0  0  0  0  0  0  0  0  0  0
  -23.1058   -0.6324  -13.5748 C   0  0  0  0  0  0  0  0  0  0  0  0
  -24.3834   -0.9299  -14.0580 C   0  0  0  0  0  0  0  0  0  0  0  0
  -25.3080   -1.5727  -13.2382 C   0  0  0  0  0  0  0  0  0  0  0  0
  -24.9594   -1.9048  -11.9311 C   0  0  0  0  0  0  0  0  0  0  0  0
  -23.6688   -1.6492  -11.4643 C   0  0  0  0  0  0  0  0  0  0  0  0
  -22.7268   -1.0434  -12.2975 C   0  0  0  0  0  0  0  0  0  0  0  0
  -13.6002    0.0422  -14.5340 O   0  0  0  0  0  0  0  0  0  0  0  0
  -13.8056   -4.5746  -14.7416 C   0  0  0  0  0  0  0  0  0  0  0  0
  -13.3211   -4.4586  -16.0199 C   0  0  0  0  0  0  0  0  0  0  0  0
  -13.1686   -3.0968  -16.4160 C   0  0  0  0  0  0  0  0  0  0  0  0
  -12.7464   -2.6783  -17.6412 N   0  0  0  0  0  0  0  0  0  0  0  0
  -12.6964   -1.3462  -17.8199 C   0  0  0  0  0  0  0  0  0  0  0  0
  -13.0035   -0.4006  -16.8610 C   0  0  0  0  0  0  0  0  0  0  0  0
  -13.3545   -0.8290  -15.5806 C   0  0  0  0  0  0  0  0  0  0  0  0
  -13.4926   -2.2118  -15.3859 C   0  0  0  0  0  0  0  0  0  0  0  0
  -14.0240   -3.0611  -13.9932 S   0  0  0  0  0  0  0  0  0  0  0  0
  -13.5134   -8.6933  -11.9714 C   0  0  0  0  0  0  0  0  0  0  0  0
  -13.9783   -7.6847  -12.8874 N   0  0  0  0  0  0  0  0  0  0  0  0
  -15.2250   -7.5879  -13.4313 C   0  0  0  0  0  0  0  0  0  0  0  0
  -15.3504   -6.4916  -14.1478 N   0  0  0  0  0  0  0  0  0  0  0  0
  -14.1209   -5.8783  -14.0886 C   0  0  0  0  0  0  0  0  0  0  0  0
  -13.2467   -6.6211  -13.3267 C   0  0  0  0  0  0  0  0  0  0  0  0
 33 34  1  0  0  0
 34 35  1  0  0  0
 34 38  1  0  0  0
 35 36  2  0  0  0
 36 37  1  0  0  0
 37 24  1  0  0  0
 37 38  2  0  0  0
 24 25  2  0  0  0
 24 32  1  0  0  0
 25 26  1  0  0  0
 26 27  1  0  0  0
 26 31  2  0  0  0
 27 28  2  0  0  0
 28 29  1  0  0  0
 29 30  2  0  0  0
 30 23  1  0  0  0
 30 31  1  0  0  0
 23  1  1  0  0  0
  1  2  1  0  0  0
  1  6  2  0  0  0
  2  3  2  0  0  0
  3  4  1  0  0  0
  4  8  1  0  0  0
  4  5  2  0  0  0
  8  9  1  0  0  0
  8 11  1  0  0  0
  9 10  2  0  0  0
  9 12  1  0  0  0
 12 13  1  0  0  0
 13 14  2  0  0  0
 13 15  1  0  0  0
 15 17  1  0  0  0
 15 16  1  0  0  0
 17 18  1  0  0  0
 17 22  2  0  0  0
 18 19  2  0  0  0
 19 20  1  0  0  0
 20 21  2  0  0  0
 21 22  1  0  0  0
  5  6  1  0  0  0
  6  7  1  0  0  0
 31 32  1  0  0  0
M  END
> <minimizedAffinity>
-9.05354

$$$$
