CHEMBL1681934


 30 31  0  0  0  0  0  0  0  0999 V2000
  -14.1601   -1.9785  -13.2935 C   0  0  0  0  0  0  0  0  0  0  0  0
  -15.0699   -1.6470  -12.2917 C   0  0  0  0  0  0  0  0  0  0  0  0
  -15.9227   -0.5561  -12.4472 C   0  0  0  0  0  0  0  0  0  0  0  0
  -15.8714    0.2539  -13.5850 C   0  0  0  0  0  0  0  0  0  0  0  0
  -14.8445    0.0065  -14.5147 C   0  0  0  0  0  0  0  0  0  0  0  0
  -14.6331    1.0325  -15.8931 Cl  0  0  0  0  0  0  0  0  0  0  0  0
  -13.9944   -1.1116  -14.3759 C   0  0  0  0  0  0  0  0  0  0  0  0
  -16.8335    1.2889  -13.7843 N   0  0  0  0  0  0  0  0  0  0  0  0
  -18.0022    1.0999  -14.4958 C   0  0  0  0  0  0  0  0  0  0  0  0
  -18.2964    0.0815  -15.1042 O   0  0  0  0  0  0  0  0  0  0  0  0
  -18.8823    2.1588  -14.4293 N   0  0  0  0  0  0  0  0  0  0  0  0
  -16.5226    2.2369  -13.6299 H   0  0  0  0  0  0  0  0  0  0  0  0
  -18.5067    3.0810  -14.2761 H   0  0  0  0  0  0  0  0  0  0  0  0
  -20.1781    2.0267  -15.0999 C   0  0  0  0  0  0  0  0  0  0  0  0
  -21.1779    1.2598  -14.2440 C   0  0  0  0  0  0  0  0  0  0  0  0
  -20.7355    3.3877  -15.5096 C   0  0  0  0  0  0  0  0  0  0  0  0
  -13.4177   -3.1471  -13.2263 O   0  0  0  0  0  0  0  0  0  0  0  0
  -13.5917   -4.3921  -11.1664 C   0  0  0  0  0  0  0  0  0  0  0  0
  -12.9981   -4.6798   -9.9389 C   0  0  0  0  0  0  0  0  0  0  0  0
  -13.4875   -5.6598   -9.0749 N   0  0  0  0  0  0  0  0  0  0  0  0
  -11.8408   -4.1273   -9.5406 N   0  0  0  0  0  0  0  0  0  0  0  0
  -11.2837   -3.2464  -10.3746 C   0  0  0  0  0  0  0  0  0  0  0  0
  -11.7787   -2.8750  -11.5571 N   0  0  0  0  0  0  0  0  0  0  0  0
  -12.9170   -3.4853  -11.9615 C   0  0  0  0  0  0  0  0  0  0  0  0
  -14.5053   -5.6205   -9.0039 H   0  0  0  0  0  0  0  0  0  0  0  0
  -13.0001   -5.6092   -8.1872 H   0  0  0  0  0  0  0  0  0  0  0  0
  -15.9395   -4.7645  -10.8493 N   0  0  0  0  0  0  0  0  0  0  0  0
  -14.8748   -4.9982  -11.5533 C   0  0  0  0  0  0  0  0  0  0  0  0
  -16.8322   -5.5784  -12.7815 C   0  0  0  0  0  0  0  0  0  0  0  0
  -17.0396   -5.4478  -11.3759 O   0  0  0  0  0  0  0  0  0  0  0  0
 29 30  1  0  0  0
 30 27  1  0  0  0
 27 28  2  0  0  0
 28 18  1  0  0  0
 18 19  1  0  0  0
 18 24  2  0  0  0
 19 20  1  0  0  0
 19 21  2  0  0  0
 20 25  1  0  0  0
 20 26  1  0  0  0
 21 22  1  0  0  0
 22 23  2  0  0  0
 23 24  1  0  0  0
 24 17  1  0  0  0
 17  1  1  0  0  0
  1  2  1  0  0  0
  1  7  2  0  0  0
  2  3  2  0  0  0
  3  4  1  0  0  0
  4  8  1  0  0  0
  4  5  2  0  0  0
  8  9  1  0  0  0
  8 12  1  0  0  0
  9 10  2  0  0  0
  9 11  1  0  0  0
 11 14  1  0  0  0
 11 13  1  0  0  0
 14 15  1  0  0  0
 14 16  1  0  0  0
  5  6  1  0  0  0
  5  7  1  0  0  0
M  END
> <minimizedAffinity>
-7.27107

$$$$
