CHEMBL1276891


 33 37  0  0  0  0  0  0  0  0999 V2000
  -29.5481   -5.7206   -3.7727 C   0  0  0  0  0  0  0  0  0  0  0  0
  -29.5029   -5.9131   -5.2513 C   0  0  0  0  0  0  0  0  0  0  0  0
  -29.5847   -4.9367   -6.2421 C   0  0  0  0  0  0  0  0  0  0  0  0
  -29.4924   -5.5733   -7.4571 N   0  0  0  0  0  0  0  0  0  0  0  0
  -29.3418   -6.9140   -7.2588 C   0  0  0  0  0  0  0  0  0  0  0  0
  -29.3478   -7.1724   -5.9094 C   0  0  0  0  0  0  0  0  0  0  0  0
  -29.2037   -8.5108   -5.3630 C   0  0  0  0  0  0  0  0  0  0  0  0
  -29.2685   -8.7292   -4.1557 O   0  0  0  0  0  0  0  0  0  0  0  0
  -28.9846   -9.5243   -6.3037 N   0  0  0  0  0  0  0  0  0  0  0  0
  -29.0384   -9.3356   -7.7668 C   0  0  0  0  0  0  0  0  0  0  0  0
  -29.1904   -7.9104   -8.3340 C   0  0  0  0  0  0  0  0  0  0  0  0
  -29.5224   -5.1158   -8.3651 H   0  0  0  0  0  0  0  0  0  0  0  0
  -29.7249   -3.5323   -6.1300 C   0  0  0  0  0  0  0  0  0  0  0  0
  -28.8958   -2.6209   -5.6025 C   0  0  0  0  0  0  0  0  0  0  0  0
  -27.5386   -2.7334   -4.9542 C   0  0  0  0  0  0  0  0  0  0  0  0
  -26.8773   -3.7357   -4.7638 O   0  0  0  0  0  0  0  0  0  0  0  0
  -27.1912   -1.4301   -4.6123 N   0  0  0  0  0  0  0  0  0  0  0  0
  -28.1853   -0.5284   -4.9779 C   0  0  0  0  0  0  0  0  0  0  0  0
  -28.1809    0.8441   -4.7960 C   0  0  0  0  0  0  0  0  0  0  0  0
  -29.2991    1.5531   -5.2457 C   0  0  0  0  0  0  0  0  0  0  0  0
  -30.3705    0.8820   -5.8539 C   0  0  0  0  0  0  0  0  0  0  0  0
  -31.4296    1.5841   -6.2763 F   0  0  0  0  0  0  0  0  0  0  0  0
  -30.3614   -0.4958   -6.0311 C   0  0  0  0  0  0  0  0  0  0  0  0
  -29.2508   -1.1928   -5.5847 C   0  0  0  0  0  0  0  0  0  0  0  0
  -26.3209   -1.1994   -4.1607 H   0  0  0  0  0  0  0  0  0  0  0  0
  -28.9074  -10.9011   -5.8046 C   0  0  0  0  0  0  0  0  0  0  0  0
  -27.5086  -11.5035   -6.0291 C   0  0  0  0  0  0  0  0  0  0  0  0
  -26.3339  -10.6899   -5.7287 N   0  0  0  0  0  0  0  0  0  0  0  0
  -26.1062  -10.3969   -4.3076 C   0  0  0  0  0  0  0  0  0  0  0  0
  -25.0279   -9.3031   -4.1989 C   0  0  0  0  0  0  0  0  0  0  0  0
  -23.7992   -9.7129   -4.8217 O   0  0  0  0  0  0  0  0  0  0  0  0
  -24.0240  -10.0660   -6.1973 C   0  0  0  0  0  0  0  0  0  0  0  0
  -25.0796  -11.1791   -6.3214 C   0  0  0  0  0  0  0  0  0  0  0  0
  1  2  1  0  0  0
  2  3  2  0  0  0
  2  6  1  0  0  0
  3 13  1  0  0  0
  3  4  1  0  0  0
 13 14  2  0  0  0
 14 15  1  0  0  0
 14 24  1  0  0  0
 15 16  2  0  0  0
 15 17  1  0  0  0
 17 18  1  0  0  0
 17 25  1  0  0  0
 18 19  1  0  0  0
 18 24  2  0  0  0
 19 20  2  0  0  0
 20 21  1  0  0  0
 21 22  1  0  0  0
 21 23  2  0  0  0
 23 24  1  0  0  0
  4  5  1  0  0  0
  4 12  1  0  0  0
  5  6  2  0  0  0
  5 11  1  0  0  0
  6  7  1  0  0  0
  7  8  2  0  0  0
  7  9  1  0  0  0
  9 26  1  0  0  0
  9 10  1  0  0  0
 26 27  1  0  0  0
 27 28  1  0  0  0
 28 29  1  0  0  0
 28 33  1  0  0  0
 29 30  1  0  0  0
 30 31  1  0  0  0
 31 32  1  0  0  0
 32 33  1  0  0  0
 10 11  1  0  0  0
M  END
> <minimizedAffinity>
-8.41314

$$$$
