CHEMBL4549295


 34 37  0  0  0  0  0  0  0  0999 V2000
  -27.7401   -1.8838   -9.1012 C   0  0  0  0  0  0  0  0  0  0  0  0
  -27.6741   -0.9501   -8.0553 C   0  0  0  0  0  0  0  0  0  0  0  0
  -28.2122   -1.2499   -6.8006 C   0  0  0  0  0  0  0  0  0  0  0  0
  -28.8219   -2.4837   -6.5861 C   0  0  0  0  0  0  0  0  0  0  0  0
  -28.9140   -3.4108   -7.6226 C   0  0  0  0  0  0  0  0  0  0  0  0
  -28.3875   -3.1072   -8.8845 C   0  0  0  0  0  0  0  0  0  0  0  0
  -25.7542   -1.5213  -10.4830 N   0  0  0  0  0  0  0  0  0  0  0  0
  -27.1397   -1.5065  -10.4154 C   0  0  0  0  0  0  0  0  0  0  0  0
  -27.9033   -1.1898  -11.3221 O   0  0  0  0  0  0  0  0  0  0  0  0
  -25.2146   -1.7409   -9.6576 H   0  0  0  0  0  0  0  0  0  0  0  0
  -23.6479   -0.2612  -13.0889 N   0  0  0  0  0  0  0  0  0  0  0  0
  -24.0503   -0.2574  -11.7711 C   0  0  0  0  0  0  0  0  0  0  0  0
  -25.0237   -1.2116  -11.6219 C   0  0  0  0  0  0  0  0  0  0  0  0
  -25.1116   -1.7989  -12.8994 C   0  0  0  0  0  0  0  0  0  0  0  0
  -24.2929   -1.2339  -13.7913 N   0  0  0  0  0  0  0  0  0  0  0  0
  -19.8131    3.3122  -15.4321 C   0  0  0  0  0  0  0  0  0  0  0  0
  -20.8342    2.3786  -14.8532 C   0  0  0  0  0  0  0  0  0  0  0  0
  -20.6639    0.9949  -14.9488 C   0  0  0  0  0  0  0  0  0  0  0  0
  -21.5968    0.1228  -14.3828 C   0  0  0  0  0  0  0  0  0  0  0  0
  -22.7194    0.6235  -13.7089 C   0  0  0  0  0  0  0  0  0  0  0  0
  -22.9033    2.0109  -13.6251 C   0  0  0  0  0  0  0  0  0  0  0  0
  -21.9607    2.8809  -14.1902 C   0  0  0  0  0  0  0  0  0  0  0  0
  -29.3065   -2.8131   -5.3008 N   0  0  0  0  0  0  0  0  0  0  0  0
  -30.0700   -2.2840   -4.8868 H   0  0  0  0  0  0  0  0  0  0  0  0
  -28.4349   -3.7930   -4.2600 S   0  0  0  0  0  0  0  0  0  0  0  0
  -27.0435   -3.6319   -4.6267 O   0  0  0  0  0  0  0  0  0  0  0  0
  -28.8854   -3.5753   -2.9024 O   0  0  0  0  0  0  0  0  0  0  0  0
  -28.9188   -5.4386   -4.7445 C   0  0  0  0  0  0  0  0  0  0  0  0
  -30.2314   -5.6718   -5.1747 C   0  0  0  0  0  0  0  0  0  0  0  0
  -30.5931   -6.9420   -5.6311 C   0  0  0  0  0  0  0  0  0  0  0  0
  -29.6438   -7.9641   -5.6635 C   0  0  0  0  0  0  0  0  0  0  0  0
  -30.0870   -9.5203   -6.2477 Cl  0  0  0  0  0  0  0  0  0  0  0  0
  -28.3349   -7.7305   -5.2382 C   0  0  0  0  0  0  0  0  0  0  0  0
  -27.9660   -6.4620   -4.7822 C   0  0  0  0  0  0  0  0  0  0  0  0
 16 17  1  0  0  0
 17 18  1  0  0  0
 17 22  2  0  0  0
 18 19  2  0  0  0
 19 20  1  0  0  0
 20 11  1  0  0  0
 20 21  2  0  0  0
 11 12  1  0  0  0
 11 15  1  0  0  0
 12 13  2  0  0  0
 13  7  1  0  0  0
 13 14  1  0  0  0
  7  8  1  0  0  0
  7 10  1  0  0  0
  8  9  2  0  0  0
  8  1  1  0  0  0
  1  2  1  0  0  0
  1  6  2  0  0  0
  2  3  2  0  0  0
  3  4  1  0  0  0
  4 23  1  0  0  0
  4  5  2  0  0  0
 23 25  1  0  0  0
 23 24  1  0  0  0
 25 26  2  0  0  0
 25 27  2  0  0  0
 25 28  1  0  0  0
 28 29  1  0  0  0
 28 34  2  0  0  0
 29 30  2  0  0  0
 30 31  1  0  0  0
 31 32  1  0  0  0
 31 33  2  0  0  0
 33 34  1  0  0  0
  5  6  1  0  0  0
 14 15  2  0  0  0
 21 22  1  0  0  0
M  END
> <minimizedAffinity>
-10.85807

$$$$
