CHEMBL3622961


 32 36  0  0  0  0  0  0  0  0999 V2000
  -19.3703    2.2249  -15.0670 C   0  0  0  0  0  0  0  0  0  0  0  0
  -20.0199    3.4003  -14.7829 C   0  0  0  0  0  0  0  0  0  0  0  0
  -21.3185    3.2673  -14.3396 C   0  0  0  0  0  0  0  0  0  0  0  0
  -21.9187    2.0732  -14.1634 N   0  0  0  0  0  0  0  0  0  0  0  0
  -21.2243    0.9723  -14.4987 C   0  0  0  0  0  0  0  0  0  0  0  0
  -19.9617    1.0157  -14.9382 N   0  0  0  0  0  0  0  0  0  0  0  0
  -14.9380    0.7360  -16.4044 C   0  0  0  0  0  0  0  0  0  0  0  0
  -16.0540    1.6580  -16.0634 C   0  0  0  0  0  0  0  0  0  0  0  0
  -17.2367    1.1718  -15.6559 N   0  0  0  0  0  0  0  0  0  0  0  0
  -18.0327    2.2685  -15.5699 N   0  0  0  0  0  0  0  0  0  0  0  0
  -17.3801    3.3956  -16.0164 C   0  0  0  0  0  0  0  0  0  0  0  0
  -16.0435    3.0763  -16.1705 C   0  0  0  0  0  0  0  0  0  0  0  0
  -14.8757    3.9502  -16.5212 C   0  0  0  0  0  0  0  0  0  0  0  0
  -14.2083    4.5233  -15.3346 N   0  0  0  0  0  0  0  0  0  0  0  0
  -13.0022    5.3283  -15.6300 C   0  0  0  0  0  0  0  0  0  0  0  0
  -12.1396    4.0481  -15.6501 C   0  0  0  0  0  0  0  0  0  0  0  0
  -11.9388    3.3821  -16.9233 O   0  0  0  0  0  0  0  0  0  0  0  0
  -13.2749    3.5040  -14.7430 C   0  0  0  0  0  0  0  0  0  0  0  0
  -12.1643    4.0471  -17.5974 H   0  0  0  0  0  0  0  0  0  0  0  0
  -21.8890   -0.2454  -14.3396 N   0  0  0  0  0  0  0  0  0  0  0  0
  -21.2693   -0.9992  -14.5996 H   0  0  0  0  0  0  0  0  0  0  0  0
  -23.0095   -0.5998  -13.5699 C   0  0  0  0  0  0  0  0  0  0  0  0
  -22.8885   -0.6597  -12.1720 C   0  0  0  0  0  0  0  0  0  0  0  0
  -23.9439   -1.0648  -11.3344 C   0  0  0  0  0  0  0  0  0  0  0  0
  -25.1527   -1.4162  -11.9453 C   0  0  0  0  0  0  0  0  0  0  0  0
  -25.3244   -1.3480  -13.3262 C   0  0  0  0  0  0  0  0  0  0  0  0
  -24.2397   -0.9650  -14.1417 C   0  0  0  0  0  0  0  0  0  0  0  0
  -26.6857   -1.6662  -13.5146 C   0  0  0  0  0  0  0  0  0  0  0  0
  -27.5842   -1.5508  -14.9294 Cl  0  0  0  0  0  0  0  0  0  0  0  0
  -27.3070   -2.0133  -12.3927 N   0  0  0  0  0  0  0  0  0  0  0  0
  -26.3636   -1.8474  -11.4559 N   0  0  0  0  0  0  0  0  0  0  0  0
  -26.7378   -2.0772  -10.0829 C   0  0  0  0  0  0  0  0  0  0  0  0
  7  8  1  0  0  0
  8  9  2  0  0  0
  8 12  1  0  0  0
  9 10  1  0  0  0
 10  1  1  0  0  0
 10 11  1  0  0  0
  1  2  1  0  0  0
  1  6  2  0  0  0
  2  3  2  0  0  0
  3  4  1  0  0  0
  4  5  2  0  0  0
  5 20  1  0  0  0
  5  6  1  0  0  0
 20 22  1  0  0  0
 20 21  1  0  0  0
 22 23  1  0  0  0
 22 27  2  0  0  0
 23 24  2  0  0  0
 24 25  1  0  0  0
 25 26  2  0  0  0
 25 31  1  0  0  0
 26 27  1  0  0  0
 26 28  1  0  0  0
 28 29  1  0  0  0
 28 30  2  0  0  0
 30 31  1  0  0  0
 31 32  1  0  0  0
 11 12  2  0  0  0
 12 13  1  0  0  0
 13 14  1  0  0  0
 14 15  1  0  0  0
 14 18  1  0  0  0
 15 16  1  0  0  0
 16 17  1  0  0  0
 16 18  1  0  0  0
 17 19  1  0  0  0
M  END
> <minimizedAffinity>
-9.76506

$$$$
