CHEMBL3973929


 39 43  0  0  0  0  0  0  0  0999 V2000
  -28.1368   -2.3802   -8.5068 N   0  0  0  0  0  0  0  0  0  0  0  0
  -27.3683   -2.0549   -9.6952 C   0  0  0  0  0  0  0  0  0  0  0  0
  -26.1233   -1.5127   -9.4789 C   0  0  0  0  0  0  0  0  0  0  0  0
  -25.3823   -1.1622  -10.5673 C   0  0  0  0  0  0  0  0  0  0  0  0
  -25.8147   -1.1755  -11.8644 C   0  0  0  0  0  0  0  0  0  0  0  0
  -25.2950   -0.1695  -12.3656 N   0  0  0  0  0  0  0  0  0  0  0  0
  -24.1698   -0.4146  -12.9551 C   0  0  0  0  0  0  0  0  0  0  0  0
  -24.2548   -0.6474  -14.2766 C   0  0  0  0  0  0  0  0  0  0  0  0
  -25.6654   -1.4805  -13.9760 N   0  0  0  0  0  0  0  0  0  0  0  0
  -26.7126   -1.7919  -12.5810 C   0  0  0  0  0  0  0  0  0  0  0  0
  -27.8050   -2.1153  -11.1780 C   0  0  0  0  0  0  0  0  0  0  0  0
  -22.7271    0.3770  -14.3687 C   0  0  0  0  0  0  0  0  0  0  0  0
  -22.2741    1.8442  -13.9607 C   0  0  0  0  0  0  0  0  0  0  0  0
  -20.9711    2.2360  -14.1380 N   0  0  0  0  0  0  0  0  0  0  0  0
  -20.3438    1.1596  -14.6252 N   0  0  0  0  0  0  0  0  0  0  0  0
  -18.8535    1.1850  -14.8598 C   0  0  0  0  0  0  0  0  0  0  0  0
  -21.3369    0.0786  -14.7687 C   0  0  0  0  0  0  0  0  0  0  0  0
  -28.7692    0.5981   -6.2089 C   0  0  0  0  0  0  0  0  0  0  0  0
  -28.4733    0.0312   -5.0238 C   0  0  0  0  0  0  0  0  0  0  0  0
  -28.0103   -1.2809   -4.9479 C   0  0  0  0  0  0  0  0  0  0  0  0
  -27.8277   -2.0416   -6.1027 C   0  0  0  0  0  0  0  0  0  0  0  0
  -28.1900   -1.5420   -7.3459 C   0  0  0  0  0  0  0  0  0  0  0  0
  -28.5178   -0.1699   -7.3077 C   0  0  0  0  0  0  0  0  0  0  0  0
  -30.7724    1.7589   -6.5522 C   0  0  0  0  0  0  0  0  0  0  0  0
  -29.3605    1.8061   -6.4292 O   0  0  0  0  0  0  0  0  0  0  0  0
  -27.7596   -1.9039   -3.7591 O   0  0  0  0  0  0  0  0  0  0  0  0
  -28.7690   -2.8273   -3.3570 C   0  0  0  0  0  0  0  0  0  0  0  0
  -28.3437   -3.8525   -8.3949 C   0  0  0  0  0  0  0  0  0  0  0  0
  -29.7227   -4.2161   -7.9259 C   0  0  0  0  0  0  0  0  0  0  0  0
  -29.9799   -5.5152   -7.3705 N   0  0  0  0  0  0  0  0  0  0  0  0
  -28.7935   -6.3410   -7.6439 C   0  0  0  0  0  0  0  0  0  0  0  0
  -29.0608   -7.7092   -7.0670 C   0  0  0  0  0  0  0  0  0  0  0  0
  -29.3071   -7.6198   -5.5575 C   0  0  0  0  0  0  0  0  0  0  0  0
  -30.4222   -6.6145   -5.2677 C   0  0  0  0  0  0  0  0  0  0  0  0
  -30.1318   -5.2947   -5.9252 C   0  0  0  0  0  0  0  0  0  0  0  0
  -28.0231   -7.2031   -4.8297 C   0  0  0  0  0  0  0  0  0  0  0  0
  -27.2032   -8.4160   -4.4388 C   0  0  0  0  0  0  0  0  0  0  0  0
  -25.8842   -8.0277   -4.1077 O   0  0  0  0  0  0  0  0  0  0  0  0
  -25.4967   -7.6175   -4.9002 H   0  0  0  0  0  0  0  0  0  0  0  0
 24 25  1  0  0  0
 25 18  1  0  0  0
 18 19  1  0  0  0
 18 23  2  0  0  0
 19 20  2  0  0  0
 20 26  1  0  0  0
 20 21  1  0  0  0
 26 27  1  0  0  0
 21 22  2  0  0  0
 22  1  1  0  0  0
 22 23  1  0  0  0
  1 28  1  0  0  0
  1  2  1  0  0  0
 28 29  1  0  0  0
 29 30  1  0  0  0
 30 31  1  0  0  0
 30 35  1  0  0  0
 31 32  1  0  0  0
 32 33  1  0  0  0
 33 36  1  0  0  0
 33 34  1  0  0  0
 36 37  1  0  0  0
 37 38  1  0  0  0
 38 39  1  0  0  0
 34 35  1  0  0  0
  2  3  1  0  0  0
  2 11  2  0  0  0
  3  4  2  0  0  0
  4  5  1  0  0  0
  5  6  1  0  0  0
  5 10  2  0  0  0
  6  7  2  0  0  0
  7  8  1  0  0  0
  8 12  1  0  0  0
  8  9  2  0  0  0
 12 13  1  0  0  0
 12 17  2  0  0  0
 13 14  2  0  0  0
 14 15  1  0  0  0
 15 16  1  0  0  0
 15 17  1  0  0  0
  9 10  1  0  0  0
 10 11  1  0  0  0
M  END
> <minimizedAffinity>
-8.95929

$$$$
