CHEMBL4634918


 56 61  0  0  0  0  0  0  0  0999 V2000
  -28.4353   -5.7131   -6.9943 C   0  0  0  0  0  0  0  0  0  0  0  0
  -28.5166   -4.8404   -8.0295 N   0  0  0  0  0  0  0  0  0  0  0  0
  -28.7181   -3.5446   -7.7888 C   0  0  0  0  0  0  0  0  0  0  0  0
  -28.7422   -3.0286   -6.5654 N   0  0  0  0  0  0  0  0  0  0  0  0
  -28.5164   -3.8780   -5.5611 C   0  0  0  0  0  0  0  0  0  0  0  0
  -28.3213   -5.2484   -5.6984 C   0  0  0  0  0  0  0  0  0  0  0  0
  -28.4916   -7.0891   -7.3573 N   0  0  0  0  0  0  0  0  0  0  0  0
  -27.8727   -7.6482   -6.7695 H   0  0  0  0  0  0  0  0  0  0  0  0
  -29.9307   -9.0299   -8.0378 C   0  0  0  0  0  0  0  0  0  0  0  0
  -31.2226   -9.5782   -8.1900 C   0  0  0  0  0  0  0  0  0  0  0  0
  -32.3320   -8.9200   -7.6709 C   0  0  0  0  0  0  0  0  0  0  0  0
  -32.1601   -7.7588   -6.9371 C   0  0  0  0  0  0  0  0  0  0  0  0
  -30.8806   -7.2181   -6.7965 C   0  0  0  0  0  0  0  0  0  0  0  0
  -29.7523   -7.7782   -7.4249 C   0  0  0  0  0  0  0  0  0  0  0  0
  -28.5447  -10.0249   -8.5130 S   0  0  0  0  0  0  0  0  0  0  0  0
  -29.0115  -11.3901   -8.7217 O   0  0  0  0  0  0  0  0  0  0  0  0
  -27.4938   -9.7253   -7.5661 O   0  0  0  0  0  0  0  0  0  0  0  0
  -28.0862   -9.3946   -9.9988 N   0  0  0  0  0  0  0  0  0  0  0  0
  -28.7151   -8.6250  -10.2534 H   0  0  0  0  0  0  0  0  0  0  0  0
  -28.8170  -10.0719  -12.2108 C   0  0  0  0  0  0  0  0  0  0  0  0
  -27.8357  -10.3480  -11.0862 C   0  0  0  0  0  0  0  0  0  0  0  0
  -28.9174   -2.7324   -8.9007 N   0  0  0  0  0  0  0  0  0  0  0  0
  -29.7229   -2.1420   -8.7463 H   0  0  0  0  0  0  0  0  0  0  0  0
  -27.9597   -2.2085   -9.7848 C   0  0  0  0  0  0  0  0  0  0  0  0
  -26.7193   -1.7281   -9.3779 C   0  0  0  0  0  0  0  0  0  0  0  0
  -25.7991   -1.2315  -10.3087 C   0  0  0  0  0  0  0  0  0  0  0  0
  -26.0839   -1.1764  -11.6856 C   0  0  0  0  0  0  0  0  0  0  0  0
  -27.3381   -1.6928  -12.1014 C   0  0  0  0  0  0  0  0  0  0  0  0
  -28.2470   -2.1990  -11.1505 C   0  0  0  0  0  0  0  0  0  0  0  0
  -25.2022   -0.5324  -12.5862 N   0  0  0  0  0  0  0  0  0  0  0  0
  -24.2353    0.3813  -11.9676 C   0  0  0  0  0  0  0  0  0  0  0  0
  -23.7351    1.3412  -13.0356 C   0  0  0  0  0  0  0  0  0  0  0  0
  -22.9996    0.6248  -14.1910 C   0  0  0  0  0  0  0  0  0  0  0  0
  -23.9119   -0.5417  -14.6862 C   0  0  0  0  0  0  0  0  0  0  0  0
  -24.5570   -1.4067  -13.5816 C   0  0  0  0  0  0  0  0  0  0  0  0
  -21.6018    0.1719  -13.9178 N   0  0  0  0  0  0  0  0  0  0  0  0
  -20.7934    1.0765  -13.0679 C   0  0  0  0  0  0  0  0  0  0  0  0
  -20.4311    2.4351  -13.7192 C   0  0  0  0  0  0  0  0  0  0  0  0
  -19.6605    2.2753  -14.9611 N   0  0  0  0  0  0  0  0  0  0  0  0
  -19.4794    3.5706  -15.6236 C   0  0  0  0  0  0  0  0  0  0  0  0
  -20.3108    1.3087  -15.8660 C   0  0  0  0  0  0  0  0  0  0  0  0
  -20.8172    0.0016  -15.1785 C   0  0  0  0  0  0  0  0  0  0  0  0
  -27.6344   -1.6675  -13.4479 O   0  0  0  0  0  0  0  0  0  0  0  0
  -28.5917   -2.6335  -13.8845 C   0  0  0  0  0  0  0  0  0  0  0  0
  -28.1293   -6.0077   -4.4167 C   0  0  0  0  0  0  0  0  0  0  0  0
  -28.8087   -7.3626   -4.2335 C   0  0  0  0  0  0  0  0  0  0  0  0
  -27.9516   -8.6036   -4.2007 C   0  0  0  0  0  0  0  0  0  0  0  0
  -26.5508   -8.5834   -4.2554 C   0  0  0  0  0  0  0  0  0  0  0  0
  -25.8175   -9.7571   -4.0516 C   0  0  0  0  0  0  0  0  0  0  0  0
  -26.4794  -10.9508   -3.7451 C   0  0  0  0  0  0  0  0  0  0  0  0
  -27.8703  -10.9870   -3.6901 C   0  0  0  0  0  0  0  0  0  0  0  0
  -28.5943   -9.8236   -3.9485 C   0  0  0  0  0  0  0  0  0  0  0  0
  -24.4492   -9.8325   -4.0491 O   0  0  0  0  0  0  0  0  0  0  0  0
  -23.8973  -11.0555   -3.5701 C   0  0  0  0  0  0  0  0  0  0  0  0
  -28.6439  -12.0669   -3.3725 O   0  0  0  0  0  0  0  0  0  0  0  0
  -30.0222  -11.8255   -3.1317 C   0  0  0  0  0  0  0  0  0  0  0  0
 20 21  1  0  0  0
 21 18  1  0  0  0
 18 15  1  0  0  0
 18 19  1  0  0  0
 15 16  2  0  0  0
 15 17  2  0  0  0
 15  9  1  0  0  0
  9 10  1  0  0  0
  9 14  2  0  0  0
 10 11  2  0  0  0
 11 12  1  0  0  0
 12 13  2  0  0  0
 13 14  1  0  0  0
 14  7  1  0  0  0
  7  1  1  0  0  0
  7  8  1  0  0  0
  1  2  1  0  0  0
  1  6  2  0  0  0
  2  3  2  0  0  0
  3 22  1  0  0  0
  3  4  1  0  0  0
 22 24  1  0  0  0
 22 23  1  0  0  0
 24 25  1  0  0  0
 24 29  2  0  0  0
 25 26  2  0  0  0
 26 27  1  0  0  0
 27 30  1  0  0  0
 27 28  2  0  0  0
 30 31  1  0  0  0
 30 35  1  0  0  0
 31 32  1  0  0  0
 32 33  1  0  0  0
 33 36  1  0  0  0
 33 34  1  0  0  0
 36 37  1  0  0  0
 36 42  1  0  0  0
 37 38  1  0  0  0
 38 39  1  0  0  0
 39 40  1  0  0  0
 39 41  1  0  0  0
 41 42  1  0  0  0
 34 35  1  0  0  0
 28 43  1  0  0  0
 28 29  1  0  0  0
 43 44  1  0  0  0
  4  5  2  0  0  0
  5  6  1  0  0  0
  6 45  1  0  0  0
 45 46  1  0  0  0
 46 47  1  0  0  0
 47 48  1  0  0  0
 47 52  2  0  0  0
 48 49  2  0  0  0
 49 53  1  0  0  0
 49 50  1  0  0  0
 53 54  1  0  0  0
 50 51  2  0  0  0
 51 55  1  0  0  0
 51 52  1  0  0  0
 55 56  1  0  0  0
M  END
> <minimizedAffinity>
-7.48060

$$$$
