CHEMBL3939306


 46 49  0  0  0  0  0  0  0  0999 V2000
  -22.9195    0.3534  -13.6899 C   0  0  0  0  0  0  0  0  0  0  0  0
  -23.6366   -0.5142  -14.5268 C   0  0  0  0  0  0  0  0  0  0  0  0
  -24.8086   -1.1401  -14.0834 C   0  0  0  0  0  0  0  0  0  0  0  0
  -25.2798   -0.9042  -12.7878 C   0  0  0  0  0  0  0  0  0  0  0  0
  -24.5539   -0.0576  -11.9399 C   0  0  0  0  0  0  0  0  0  0  0  0
  -23.4078    0.5987  -12.4003 C   0  0  0  0  0  0  0  0  0  0  0  0
  -18.1163    1.3426  -15.1535 C   0  0  0  0  0  0  0  0  0  0  0  0
  -17.6202    2.5503  -15.5283 N   0  0  0  0  0  0  0  0  0  0  0  0
  -18.4249    3.6278  -15.5186 C   0  0  0  0  0  0  0  0  0  0  0  0
  -19.7116    3.7016  -15.1500 N   0  0  0  0  0  0  0  0  0  0  0  0
  -20.1768    2.4978  -14.7883 C   0  0  0  0  0  0  0  0  0  0  0  0
  -21.4544    2.2706  -14.3680 N   0  0  0  0  0  0  0  0  0  0  0  0
  -21.6509    0.9270  -14.1404 C   0  0  0  0  0  0  0  0  0  0  0  0
  -20.4303    0.3062  -14.3970 C   0  0  0  0  0  0  0  0  0  0  0  0
  -19.4794    1.2986  -14.7750 C   0  0  0  0  0  0  0  0  0  0  0  0
  -22.1531    2.9951  -14.2761 H   0  0  0  0  0  0  0  0  0  0  0  0
  -17.2852    0.2096  -15.1745 N   0  0  0  0  0  0  0  0  0  0  0  0
  -17.8555   -0.6154  -14.9869 H   0  0  0  0  0  0  0  0  0  0  0  0
  -14.8587    0.4339  -15.1116 C   0  0  0  0  0  0  0  0  0  0  0  0
  -16.1265    0.2752  -14.2580 C   0  0  0  0  0  0  0  0  0  0  0  0
  -16.0274   -1.0064  -13.4340 C   0  0  0  0  0  0  0  0  0  0  0  0
  -15.8531   -0.9776  -12.0401 C   0  0  0  0  0  0  0  0  0  0  0  0
  -15.7375   -2.1697  -11.3137 C   0  0  0  0  0  0  0  0  0  0  0  0
  -15.8137   -3.3986  -11.9682 C   0  0  0  0  0  0  0  0  0  0  0  0
  -15.9964   -3.4407  -13.3465 C   0  0  0  0  0  0  0  0  0  0  0  0
  -16.0845   -2.2553  -14.0726 C   0  0  0  0  0  0  0  0  0  0  0  0
  -26.5302   -1.5227  -12.2609 C   0  0  0  0  0  0  0  0  0  0  0  0
  -27.2215   -2.2216  -12.9961 O   0  0  0  0  0  0  0  0  0  0  0  0
  -26.8310   -1.3015  -10.9318 N   0  0  0  0  0  0  0  0  0  0  0  0
  -26.1544   -0.8579  -10.3253 H   0  0  0  0  0  0  0  0  0  0  0  0
  -27.9576   -1.9702  -10.2965 C   0  0  0  0  0  0  0  0  0  0  0  0
  -27.6607   -2.4857   -8.8749 C   0  0  0  0  0  0  0  0  0  0  0  0
  -27.4929   -1.3779   -7.9200 N   0  0  0  0  0  0  0  0  0  0  0  0
  -27.8907   -0.5249   -8.3119 H   0  0  0  0  0  0  0  0  0  0  0  0
  -28.1603   -1.6891   -6.6555 C   0  0  0  0  0  0  0  0  0  0  0  0
  -27.3666   -1.0852   -5.4992 C   0  0  0  0  0  0  0  0  0  0  0  0
  -28.1945   -1.0960   -4.2168 C   0  0  0  0  0  0  0  0  0  0  0  0
  -29.4458   -1.9563   -4.3783 C   0  0  0  0  0  0  0  0  0  0  0  0
  -29.5868   -2.9257   -3.2092 C   0  0  0  0  0  0  0  0  0  0  0  0
  -28.6558   -4.1278   -3.3464 C   0  0  0  0  0  0  0  0  0  0  0  0
  -29.4184   -5.3454   -3.8220 C   0  0  0  0  0  0  0  0  0  0  0  0
  -30.1098   -5.3839   -4.8314 O   0  0  0  0  0  0  0  0  0  0  0  0
  -29.2749   -6.4423   -3.0112 N   0  0  0  0  0  0  0  0  0  0  0  0
  -29.9820   -7.6002   -3.4115 O   0  0  0  0  0  0  0  0  0  0  0  0
  -28.7455   -6.4909   -2.1497 H   0  0  0  0  0  0  0  0  0  0  0  0
  -30.4173   -7.3065   -4.2285 H   0  0  0  0  0  0  0  0  0  0  0  0
 19 20  1  0  0  0
 20 17  1  0  0  0
 20 21  1  0  0  0
 17  7  1  0  0  0
 17 18  1  0  0  0
  7  8  1  0  0  0
  7 15  2  0  0  0
  8  9  2  0  0  0
  9 10  1  0  0  0
 10 11  2  0  0  0
 11 12  1  0  0  0
 11 15  1  0  0  0
 12 13  1  0  0  0
 12 16  1  0  0  0
 13  1  1  0  0  0
 13 14  2  0  0  0
  1  2  1  0  0  0
  1  6  2  0  0  0
  2  3  2  0  0  0
  3  4  1  0  0  0
  4 27  1  0  0  0
  4  5  2  0  0  0
 27 28  2  0  0  0
 27 29  1  0  0  0
 29 31  1  0  0  0
 29 30  1  0  0  0
 31 32  1  0  0  0
 32 33  1  0  0  0
 33 35  1  0  0  0
 33 34  1  0  0  0
 35 36  1  0  0  0
 36 37  1  0  0  0
 37 38  1  0  0  0
 38 39  1  0  0  0
 39 40  1  0  0  0
 40 41  1  0  0  0
 41 42  2  0  0  0
 41 43  1  0  0  0
 43 44  1  0  0  0
 43 45  1  0  0  0
 44 46  1  0  0  0
  5  6  1  0  0  0
 14 15  1  0  0  0
 21 22  1  0  0  0
 21 26  2  0  0  0
 22 23  2  0  0  0
 23 24  1  0  0  0
 24 25  2  0  0  0
 25 26  1  0  0  0
M  END
> <minimizedAffinity>
-10.09229

$$$$
