CHEMBL1253916


 37 40  0  0  0  0  0  0  0  0999 V2000
  -29.6843   -7.2019   -4.8201 C   0  0  0  0  0  0  0  0  0  0  0  0
  -29.0447   -7.9878   -3.8580 C   0  0  0  0  0  0  0  0  0  0  0  0
  -28.8046   -9.3483   -4.0763 C   0  0  0  0  0  0  0  0  0  0  0  0
  -29.1584   -9.9506   -5.2847 C   0  0  0  0  0  0  0  0  0  0  0  0
  -29.8370   -9.1982   -6.2412 C   0  0  0  0  0  0  0  0  0  0  0  0
  -30.0884   -7.8317   -6.0137 C   0  0  0  0  0  0  0  0  0  0  0  0
  -30.9189   -6.9403   -7.2457 Cl  0  0  0  0  0  0  0  0  0  0  0  0
  -28.2864   -4.8644   -5.8912 O   0  0  0  0  0  0  0  0  0  0  0  0
  -29.2286   -4.7512   -5.1186 C   0  0  0  0  0  0  0  0  0  0  0  0
  -29.6665   -3.5369   -4.6030 N   0  0  0  0  0  0  0  0  0  0  0  0
  -29.9629   -5.8186   -4.6230 N   0  0  0  0  0  0  0  0  0  0  0  0
  -30.3418   -3.5804   -3.8545 H   0  0  0  0  0  0  0  0  0  0  0  0
  -30.8235   -5.6167   -4.1328 H   0  0  0  0  0  0  0  0  0  0  0  0
  -29.0885   -2.2669   -4.8617 C   0  0  0  0  0  0  0  0  0  0  0  0
  -27.7204   -2.0015   -4.7464 C   0  0  0  0  0  0  0  0  0  0  0  0
  -27.2167   -0.7163   -4.9518 C   0  0  0  0  0  0  0  0  0  0  0  0
  -28.0757    0.3226   -5.2950 C   0  0  0  0  0  0  0  0  0  0  0  0
  -29.4455    0.0780   -5.4542 C   0  0  0  0  0  0  0  0  0  0  0  0
  -29.9413   -1.2232   -5.2446 C   0  0  0  0  0  0  0  0  0  0  0  0
  -30.3854    1.1922   -5.8395 C   0  0  0  0  0  0  0  0  0  0  0  0
  -31.5728    0.7589   -6.3473 F   0  0  0  0  0  0  0  0  0  0  0  0
  -30.7009    1.9913   -4.7830 F   0  0  0  0  0  0  0  0  0  0  0  0
  -29.8542    2.0166   -6.7845 F   0  0  0  0  0  0  0  0  0  0  0  0
  -28.9194  -11.2917   -5.5394 O   0  0  0  0  0  0  0  0  0  0  0  0
  -28.4599  -11.6009   -6.8198 C   0  0  0  0  0  0  0  0  0  0  0  0
  -29.3602  -11.9837   -7.7580 N   0  0  0  0  0  0  0  0  0  0  0  0
  -28.9383  -12.1937   -9.0112 C   0  0  0  0  0  0  0  0  0  0  0  0
  -27.6886  -12.1151   -9.4660 N   0  0  0  0  0  0  0  0  0  0  0  0
  -26.7866  -11.7974   -8.5160 C   0  0  0  0  0  0  0  0  0  0  0  0
  -25.3928  -11.6494   -8.6711 C   0  0  0  0  0  0  0  0  0  0  0  0
  -24.8836  -11.3150   -7.4401 C   0  0  0  0  0  0  0  0  0  0  0  0
  -25.9294  -11.2486   -6.5414 N   0  0  0  0  0  0  0  0  0  0  0  0
  -27.1161  -11.5402   -7.1830 C   0  0  0  0  0  0  0  0  0  0  0  0
  -25.7261  -10.8615   -5.1530 C   0  0  0  0  0  0  0  0  0  0  0  0
  -24.7356   -9.7123   -4.9742 C   0  0  0  0  0  0  0  0  0  0  0  0
  -25.3182   -8.5904   -4.3153 O   0  0  0  0  0  0  0  0  0  0  0  0
  -25.7501   -8.0415   -4.9955 H   0  0  0  0  0  0  0  0  0  0  0  0
  8  9  2  0  0  0
  9 10  1  0  0  0
  9 11  1  0  0  0
 10 14  1  0  0  0
 10 12  1  0  0  0
 14 15  1  0  0  0
 14 19  2  0  0  0
 15 16  2  0  0  0
 16 17  1  0  0  0
 17 18  2  0  0  0
 18 20  1  0  0  0
 18 19  1  0  0  0
 20 21  1  0  0  0
 20 22  1  0  0  0
 20 23  1  0  0  0
 11  1  1  0  0  0
 11 13  1  0  0  0
  1  2  1  0  0  0
  1  6  2  0  0  0
  2  3  2  0  0  0
  3  4  1  0  0  0
  4 24  1  0  0  0
  4  5  2  0  0  0
 24 25  1  0  0  0
 25 26  1  0  0  0
 25 33  2  0  0  0
 26 27  2  0  0  0
 27 28  1  0  0  0
 28 29  2  0  0  0
 29 30  1  0  0  0
 29 33  1  0  0  0
 30 31  2  0  0  0
 31 32  1  0  0  0
 32 34  1  0  0  0
 32 33  1  0  0  0
 34 35  1  0  0  0
 35 36  1  0  0  0
 36 37  1  0  0  0
  5  6  1  0  0  0
  6  7  1  0  0  0
M  END
> <minimizedAffinity>
-8.78738

$$$$
