CHEMBL3781610


 32 36  0  0  0  0  0  0  0  0999 V2000
  -16.1586    2.2966  -15.6738 C   0  0  0  0  0  0  0  0  0  0  0  0
  -16.0087    3.6515  -15.9838 C   0  0  0  0  0  0  0  0  0  0  0  0
  -14.8996    4.3731  -15.7372 N   0  0  0  0  0  0  0  0  0  0  0  0
  -13.8933    3.7053  -15.1319 C   0  0  0  0  0  0  0  0  0  0  0  0
  -13.9299    2.3811  -14.7349 C   0  0  0  0  0  0  0  0  0  0  0  0
  -12.8632    1.8332  -14.1218 N   0  0  0  0  0  0  0  0  0  0  0  0
  -12.9923    0.5423  -13.7474 C   0  0  0  0  0  0  0  0  0  0  0  0
  -14.1367   -0.2147  -13.9722 C   0  0  0  0  0  0  0  0  0  0  0  0
  -15.2086    0.3435  -14.6061 N   0  0  0  0  0  0  0  0  0  0  0  0
  -15.1105    1.6495  -14.9944 C   0  0  0  0  0  0  0  0  0  0  0  0
  -14.2584   -1.6093  -13.4993 C   0  0  0  0  0  0  0  0  0  0  0  0
  -13.1497   -2.4614  -13.4371 C   0  0  0  0  0  0  0  0  0  0  0  0
  -13.2833   -3.8116  -13.0666 C   0  0  0  0  0  0  0  0  0  0  0  0
  -14.5214   -4.3779  -12.7318 C   0  0  0  0  0  0  0  0  0  0  0  0
  -15.6204   -3.5143  -12.7658 C   0  0  0  0  0  0  0  0  0  0  0  0
  -15.4954   -2.1651  -13.1329 C   0  0  0  0  0  0  0  0  0  0  0  0
  -14.6429   -5.7044  -12.3687 N   0  0  0  0  0  0  0  0  0  0  0  0
  -14.0451   -6.2433  -11.1459 C   0  0  0  0  0  0  0  0  0  0  0  0
  -13.2072   -7.4715  -11.5083 C   0  0  0  0  0  0  0  0  0  0  0  0
  -14.0157   -8.4979  -12.3012 C   0  0  0  0  0  0  0  0  0  0  0  0
  -14.7006   -7.8570  -13.5093 C   0  0  0  0  0  0  0  0  0  0  0  0
  -15.5119   -6.6302  -13.0984 C   0  0  0  0  0  0  0  0  0  0  0  0
  -17.3665    1.6056  -15.9894 N   0  0  0  0  0  0  0  0  0  0  0  0
  -17.4476    1.5370  -17.0089 H   0  0  0  0  0  0  0  0  0  0  0  0
  -20.7996    1.1386  -14.5437 C   0  0  0  0  0  0  0  0  0  0  0  0
  -21.0803    2.4411  -14.1378 C   0  0  0  0  0  0  0  0  0  0  0  0
  -20.1411    3.4534  -14.3493 C   0  0  0  0  0  0  0  0  0  0  0  0
  -18.9215    3.1678  -14.9700 C   0  0  0  0  0  0  0  0  0  0  0  0
  -18.6336    1.8730  -15.4100 C   0  0  0  0  0  0  0  0  0  0  0  0
  -19.5788    0.8642  -15.1713 C   0  0  0  0  0  0  0  0  0  0  0  0
  -22.7573    0.2172  -13.5554 C   0  0  0  0  0  0  0  0  0  0  0  0
  -21.6151    0.0513  -14.3855 O   0  0  0  0  0  0  0  0  0  0  0  0
 31 32  1  0  0  0
 32 25  1  0  0  0
 25 26  1  0  0  0
 25 30  2  0  0  0
 26 27  2  0  0  0
 27 28  1  0  0  0
 28 29  2  0  0  0
 29 23  1  0  0  0
 29 30  1  0  0  0
 23  1  1  0  0  0
 23 24  1  0  0  0
  1  2  1  0  0  0
  1 10  2  0  0  0
  2  3  2  0  0  0
  3  4  1  0  0  0
  4  5  2  0  0  0
  5  6  1  0  0  0
  5 10  1  0  0  0
  6  7  2  0  0  0
  7  8  1  0  0  0
  8 11  1  0  0  0
  8  9  2  0  0  0
 11 12  1  0  0  0
 11 16  2  0  0  0
 12 13  2  0  0  0
 13 14  1  0  0  0
 14 17  1  0  0  0
 14 15  2  0  0  0
 17 18  1  0  0  0
 17 22  1  0  0  0
 18 19  1  0  0  0
 19 20  1  0  0  0
 20 21  1  0  0  0
 21 22  1  0  0  0
 15 16  1  0  0  0
  9 10  1  0  0  0
M  END
> <minimizedAffinity>
-9.02915

$$$$
