CHEMBL3656102


 43 46  0  0  0  0  0  0  0  0999 V2000
  -22.0128    0.8197  -14.3229 C   0  0  0  0  0  0  0  0  0  0  0  0
  -22.7244    1.9432  -13.9182 C   0  0  0  0  0  0  0  0  0  0  0  0
  -22.1064    3.1752  -14.0152 C   0  0  0  0  0  0  0  0  0  0  0  0
  -20.8329    3.3540  -14.4351 N   0  0  0  0  0  0  0  0  0  0  0  0
  -20.1388    2.2382  -14.7626 C   0  0  0  0  0  0  0  0  0  0  0  0
  -20.6857    0.9597  -14.7134 C   0  0  0  0  0  0  0  0  0  0  0  0
  -18.7616    2.4770  -15.1827 C   0  0  0  0  0  0  0  0  0  0  0  0
  -17.7123    1.6071  -15.4187 C   0  0  0  0  0  0  0  0  0  0  0  0
  -16.5477    2.3558  -15.7801 C   0  0  0  0  0  0  0  0  0  0  0  0
  -16.9494    3.6797  -15.7820 C   0  0  0  0  0  0  0  0  0  0  0  0
  -18.2735    3.7449  -15.4298 N   0  0  0  0  0  0  0  0  0  0  0  0
  -18.8373    4.5840  -15.3443 H   0  0  0  0  0  0  0  0  0  0  0  0
  -15.1961    1.8869  -16.0862 C   0  0  0  0  0  0  0  0  0  0  0  0
  -14.9316    1.2120  -17.0761 O   0  0  0  0  0  0  0  0  0  0  0  0
  -14.2290    2.2739  -15.1830 N   0  0  0  0  0  0  0  0  0  0  0  0
  -14.4811    2.8552  -14.3983 H   0  0  0  0  0  0  0  0  0  0  0  0
  -12.8395    1.8916  -15.3321 C   0  0  0  0  0  0  0  0  0  0  0  0
  -12.3447    1.0946  -14.1423 C   0  0  0  0  0  0  0  0  0  0  0  0
  -13.2306    1.3777  -12.9593 C   0  0  0  0  0  0  0  0  0  0  0  0
  -14.2745    0.7810  -12.7424 O   0  0  0  0  0  0  0  0  0  0  0  0
  -12.7379    2.3170  -12.1261 O   0  0  0  0  0  0  0  0  0  0  0  0
  -11.8809    2.6915  -12.4056 H   0  0  0  0  0  0  0  0  0  0  0  0
  -22.5267   -0.4604  -14.3225 O   0  0  0  0  0  0  0  0  0  0  0  0
  -26.1111   -1.1629  -12.2739 C   0  0  0  0  0  0  0  0  0  0  0  0
  -25.9974   -1.5546  -13.6122 C   0  0  0  0  0  0  0  0  0  0  0  0
  -24.8066   -1.3574  -14.3126 C   0  0  0  0  0  0  0  0  0  0  0  0
  -23.7340   -0.7059  -13.7024 C   0  0  0  0  0  0  0  0  0  0  0  0
  -23.8413   -0.3191  -12.3621 C   0  0  0  0  0  0  0  0  0  0  0  0
  -25.0358   -0.5223  -11.6532 C   0  0  0  0  0  0  0  0  0  0  0  0
  -28.3169   -2.2460   -9.6036 N   0  0  0  0  0  0  0  0  0  0  0  0
  -27.1305   -1.8792  -10.2160 C   0  0  0  0  0  0  0  0  0  0  0  0
  -26.0392   -1.8402   -9.6522 O   0  0  0  0  0  0  0  0  0  0  0  0
  -27.2819   -1.4825  -11.5348 N   0  0  0  0  0  0  0  0  0  0  0  0
  -29.1616   -2.0772  -10.1189 H   0  0  0  0  0  0  0  0  0  0  0  0
  -28.0783   -0.8823  -11.6878 H   0  0  0  0  0  0  0  0  0  0  0  0
  -29.5745   -5.8629   -6.4460 C   0  0  0  0  0  0  0  0  0  0  0  0
  -29.0955   -4.4621   -6.6972 C   0  0  0  0  0  0  0  0  0  0  0  0
  -28.8621   -3.6111   -5.6132 C   0  0  0  0  0  0  0  0  0  0  0  0
  -28.3924   -2.3240   -5.8280 C   0  0  0  0  0  0  0  0  0  0  0  0
  -28.1703   -1.8692   -7.1287 C   0  0  0  0  0  0  0  0  0  0  0  0
  -27.5868   -0.6665   -7.2295 F   0  0  0  0  0  0  0  0  0  0  0  0
  -28.4484   -2.6709   -8.2485 C   0  0  0  0  0  0  0  0  0  0  0  0
  -28.8842   -3.9878   -8.0109 C   0  0  0  0  0  0  0  0  0  0  0  0
 36 37  1  0  0  0
 37 38  1  0  0  0
 37 43  2  0  0  0
 38 39  2  0  0  0
 39 40  1  0  0  0
 40 41  1  0  0  0
 40 42  2  0  0  0
 42 30  1  0  0  0
 42 43  1  0  0  0
 30 31  1  0  0  0
 30 34  1  0  0  0
 31 32  2  0  0  0
 31 33  1  0  0  0
 33 24  1  0  0  0
 33 35  1  0  0  0
 24 25  1  0  0  0
 24 29  2  0  0  0
 25 26  2  0  0  0
 26 27  1  0  0  0
 27 23  1  0  0  0
 27 28  2  0  0  0
 23  1  1  0  0  0
  1  2  1  0  0  0
  1  6  2  0  0  0
  2  3  2  0  0  0
  3  4  1  0  0  0
  4  5  2  0  0  0
  5  7  1  0  0  0
  5  6  1  0  0  0
  7  8  2  0  0  0
  7 11  1  0  0  0
  8  9  1  0  0  0
  9 13  1  0  0  0
  9 10  2  0  0  0
 13 14  2  0  0  0
 13 15  1  0  0  0
 15 17  1  0  0  0
 15 16  1  0  0  0
 17 18  1  0  0  0
 18 19  1  0  0  0
 19 20  2  0  0  0
 19 21  1  0  0  0
 21 22  1  0  0  0
 10 11  1  0  0  0
 11 12  1  0  0  0
 28 29  1  0  0  0
M  END
> <minimizedAffinity>
-11.83773

$$$$
