CHEMBL3690457


 40 44  0  0  0  0  0  0  0  0999 V2000
  -14.4698   -1.4193  -14.1560 C   0  0  0  0  0  0  0  0  0  0  0  0
  -13.6447   -2.5072  -14.6752 C   0  0  0  0  0  0  0  0  0  0  0  0
  -13.8002   -3.7506  -14.1915 C   0  0  0  0  0  0  0  0  0  0  0  0
  -14.7132   -3.9941  -13.1585 N   0  0  0  0  0  0  0  0  0  0  0  0
  -15.0224   -5.1584  -12.4451 C   0  0  0  0  0  0  0  0  0  0  0  0
  -16.0410   -4.7553  -11.5927 C   0  0  0  0  0  0  0  0  0  0  0  0
  -16.3413   -3.4258  -11.7225 N   0  0  0  0  0  0  0  0  0  0  0  0
  -15.5236   -2.9773  -12.6458 C   0  0  0  0  0  0  0  0  0  0  0  0
  -15.3731   -1.6625  -13.1821 C   0  0  0  0  0  0  0  0  0  0  0  0
  -14.1741    2.4867  -15.7012 C   0  0  0  0  0  0  0  0  0  0  0  0
  -15.3077    2.1304  -15.0749 N   0  0  0  0  0  0  0  0  0  0  0  0
  -15.3935    0.8698  -14.5943 C   0  0  0  0  0  0  0  0  0  0  0  0
  -14.3924   -0.0664  -14.7159 C   0  0  0  0  0  0  0  0  0  0  0  0
  -13.2721    0.3891  -15.3710 C   0  0  0  0  0  0  0  0  0  0  0  0
  -13.1432    1.6393  -15.8583 N   0  0  0  0  0  0  0  0  0  0  0  0
  -15.0463    5.6998  -19.1797 O   0  0  0  0  0  0  0  0  0  0  0  0
  -14.5489    5.3688  -18.1023 C   0  0  0  0  0  0  0  0  0  0  0  0
  -14.9981    4.0999  -17.3439 C   0  0  0  0  0  0  0  0  0  0  0  0
  -14.0779    3.7369  -16.2607 N   0  0  0  0  0  0  0  0  0  0  0  0
  -13.5765    4.8382  -15.4499 C   0  0  0  0  0  0  0  0  0  0  0  0
  -12.8063    5.7690  -16.3885 C   0  0  0  0  0  0  0  0  0  0  0  0
  -13.6164    6.1929  -17.5154 N   0  0  0  0  0  0  0  0  0  0  0  0
  -13.2977    6.9503  -18.1060 H   0  0  0  0  0  0  0  0  0  0  0  0
  -14.3607   -6.4758  -12.5409 C   0  0  0  0  0  0  0  0  0  0  0  0
  -13.7443   -7.0394  -11.4190 C   0  0  0  0  0  0  0  0  0  0  0  0
  -13.1160   -8.2723  -11.4896 C   0  0  0  0  0  0  0  0  0  0  0  0
  -13.1622   -9.0108  -12.6689 C   0  0  0  0  0  0  0  0  0  0  0  0
  -13.8386   -8.5301  -13.7925 C   0  0  0  0  0  0  0  0  0  0  0  0
  -14.4077   -7.2456  -13.7303 C   0  0  0  0  0  0  0  0  0  0  0  0
  -13.9893   -9.3094  -14.9715 N   0  0  0  0  0  0  0  0  0  0  0  0
  -13.1579   -9.2727  -16.0791 C   0  0  0  0  0  0  0  0  0  0  0  0
  -12.1720   -8.5662  -16.2426 O   0  0  0  0  0  0  0  0  0  0  0  0
  -13.5608  -10.1291  -17.0843 N   0  0  0  0  0  0  0  0  0  0  0  0
  -14.7563   -9.9689  -14.9912 H   0  0  0  0  0  0  0  0  0  0  0  0
  -14.0271  -10.9717  -16.8076 H   0  0  0  0  0  0  0  0  0  0  0  0
  -12.7365  -10.1845  -18.3030 C   0  0  0  0  0  0  0  0  0  0  0  0
  -13.2775   -9.4243  -19.5276 C   0  0  0  0  0  0  0  0  0  0  0  0
  -13.9048   -8.2778  -19.1785 F   0  0  0  0  0  0  0  0  0  0  0  0
  -12.2471   -9.0756  -20.3404 F   0  0  0  0  0  0  0  0  0  0  0  0
  -14.1301  -10.1678  -20.2589 F   0  0  0  0  0  0  0  0  0  0  0  0
 16 17  2  0  0  0
 17 18  1  0  0  0
 17 22  1  0  0  0
 18 19  1  0  0  0
 19 10  1  0  0  0
 19 20  1  0  0  0
 10 11  1  0  0  0
 10 15  2  0  0  0
 11 12  2  0  0  0
 12 13  1  0  0  0
 13  1  1  0  0  0
 13 14  2  0  0  0
  1  2  1  0  0  0
  1  9  2  0  0  0
  2  3  2  0  0  0
  3  4  1  0  0  0
  4  5  1  0  0  0
  4  8  1  0  0  0
  5 24  1  0  0  0
  5  6  2  0  0  0
 24 25  1  0  0  0
 24 29  2  0  0  0
 25 26  2  0  0  0
 26 27  1  0  0  0
 27 28  2  0  0  0
 28 30  1  0  0  0
 28 29  1  0  0  0
 30 31  1  0  0  0
 30 34  1  0  0  0
 31 32  2  0  0  0
 31 33  1  0  0  0
 33 36  1  0  0  0
 33 35  1  0  0  0
 36 37  1  0  0  0
 37 38  1  0  0  0
 37 39  1  0  0  0
 37 40  1  0  0  0
  6  7  1  0  0  0
  7  8  2  0  0  0
  8  9  1  0  0  0
 14 15  1  0  0  0
 20 21  1  0  0  0
 21 22  1  0  0  0
 22 23  1  0  0  0
M  END
> <minimizedAffinity>
-7.79684

$$$$
