CHEMBL3128225


 41 45  0  0  0  0  0  0  0  0999 V2000
  -29.3224   -7.9952   -7.9563 C   0  0  0  0  0  0  0  0  0  0  0  0
  -30.6769   -8.3120   -8.0442 C   0  0  0  0  0  0  0  0  0  0  0  0
  -31.5607   -7.8489   -7.0702 C   0  0  0  0  0  0  0  0  0  0  0  0
  -31.0911   -7.0687   -6.0102 C   0  0  0  0  0  0  0  0  0  0  0  0
  -29.7273   -6.7495   -5.9106 C   0  0  0  0  0  0  0  0  0  0  0  0
  -28.8507   -7.2035   -6.9093 C   0  0  0  0  0  0  0  0  0  0  0  0
  -28.4195   -8.5031   -8.9229 N   0  0  0  0  0  0  0  0  0  0  0  0
  -28.3930   -8.0696   -9.8428 H   0  0  0  0  0  0  0  0  0  0  0  0
  -27.9662  -10.1197   -8.9070 S   0  0  0  0  0  0  0  0  0  0  0  0
  -26.5637  -10.2330   -9.2425 O   0  0  0  0  0  0  0  0  0  0  0  0
  -28.9754  -10.8225   -9.6736 O   0  0  0  0  0  0  0  0  0  0  0  0
  -28.4415  -11.4684   -4.5522 C   0  0  0  0  0  0  0  0  0  0  0  0
  -29.4364  -11.7494   -5.5023 C   0  0  0  0  0  0  0  0  0  0  0  0
  -29.3002  -11.3291   -6.8287 C   0  0  0  0  0  0  0  0  0  0  0  0
  -28.1739  -10.6005   -7.2082 C   0  0  0  0  0  0  0  0  0  0  0  0
  -27.1766  -10.3104   -6.2778 C   0  0  0  0  0  0  0  0  0  0  0  0
  -27.3018  -10.7433   -4.9509 C   0  0  0  0  0  0  0  0  0  0  0  0
  -29.8350  -12.2675   -2.7914 C   0  0  0  0  0  0  0  0  0  0  0  0
  -28.5588  -11.8184   -3.2329 O   0  0  0  0  0  0  0  0  0  0  0  0
  -26.2566  -10.3466   -4.1555 O   0  0  0  0  0  0  0  0  0  0  0  0
  -25.9432   -8.9590   -4.1599 C   0  0  0  0  0  0  0  0  0  0  0  0
  -29.2033   -5.9375   -4.7445 C   0  0  0  0  0  0  0  0  0  0  0  0
  -29.8082   -4.6192   -4.7502 N   0  0  0  0  0  0  0  0  0  0  0  0
  -30.3142   -4.3848   -3.9045 H   0  0  0  0  0  0  0  0  0  0  0  0
  -29.0057   -3.5833   -5.2284 C   0  0  0  0  0  0  0  0  0  0  0  0
  -28.3058   -2.7992   -4.3689 N   0  0  0  0  0  0  0  0  0  0  0  0
  -27.5074   -1.8309   -4.8705 C   0  0  0  0  0  0  0  0  0  0  0  0
  -27.3032   -1.4974   -6.1567 N   0  0  0  0  0  0  0  0  0  0  0  0
  -28.0170   -2.2860   -6.9779 C   0  0  0  0  0  0  0  0  0  0  0  0
  -28.8576   -3.3212   -6.5994 C   0  0  0  0  0  0  0  0  0  0  0  0
  -29.3434   -3.8386   -7.8154 C   0  0  0  0  0  0  0  0  0  0  0  0
  -28.8644   -3.1971   -8.8859 N   0  0  0  0  0  0  0  0  0  0  0  0
  -28.0570   -2.2468   -8.3521 N   0  0  0  0  0  0  0  0  0  0  0  0
  -27.2994   -1.3589   -9.2191 C   0  0  0  0  0  0  0  0  0  0  0  0
  -27.6681   -1.4929  -10.6999 C   0  0  0  0  0  0  0  0  0  0  0  0
  -26.4623   -1.5207  -11.6084 C   0  0  0  0  0  0  0  0  0  0  0  0
  -25.1677   -1.4619  -11.0727 C   0  0  0  0  0  0  0  0  0  0  0  0
  -24.0515   -1.5158  -11.9098 C   0  0  0  0  0  0  0  0  0  0  0  0
  -24.2180   -1.6229  -13.2890 C   0  0  0  0  0  0  0  0  0  0  0  0
  -25.5005   -1.6724  -13.8325 C   0  0  0  0  0  0  0  0  0  0  0  0
  -26.6184   -1.6192  -12.9972 C   0  0  0  0  0  0  0  0  0  0  0  0
 18 19  1  0  0  0
 19 12  1  0  0  0
 12 13  1  0  0  0
 12 17  2  0  0  0
 13 14  2  0  0  0
 14 15  1  0  0  0
 15  9  1  0  0  0
 15 16  2  0  0  0
  9 10  2  0  0  0
  9 11  2  0  0  0
  9  7  1  0  0  0
  7  1  1  0  0  0
  7  8  1  0  0  0
  1  2  1  0  0  0
  1  6  2  0  0  0
  2  3  2  0  0  0
  3  4  1  0  0  0
  4  5  2  0  0  0
  5 22  1  0  0  0
  5  6  1  0  0  0
 22 23  1  0  0  0
 23 25  1  0  0  0
 23 24  1  0  0  0
 25 26  1  0  0  0
 25 30  2  0  0  0
 26 27  2  0  0  0
 27 28  1  0  0  0
 28 29  2  0  0  0
 29 30  1  0  0  0
 29 33  1  0  0  0
 30 31  1  0  0  0
 31 32  2  0  0  0
 32 33  1  0  0  0
 33 34  1  0  0  0
 34 35  1  0  0  0
 35 36  1  0  0  0
 36 37  1  0  0  0
 36 41  2  0  0  0
 37 38  2  0  0  0
 38 39  1  0  0  0
 39 40  2  0  0  0
 40 41  1  0  0  0
 16 17  1  0  0  0
 17 20  1  0  0  0
 20 21  1  0  0  0
M  END
> <minimizedAffinity>
-8.83561

$$$$
