CHEMBL270985


 39 43  0  0  0  0  0  0  0  0999 V2000
  -28.0880  -10.3760   -8.4765 C   0  0  0  0  0  0  0  0  0  0  0  0
  -27.5329   -9.1403   -8.1721 C   0  0  0  0  0  0  0  0  0  0  0  0
  -28.3431   -8.1458   -7.6128 C   0  0  0  0  0  0  0  0  0  0  0  0
  -29.7527   -8.2840   -7.5098 C   0  0  0  0  0  0  0  0  0  0  0  0
  -30.6500   -7.3452   -6.9153 C   0  0  0  0  0  0  0  0  0  0  0  0
  -32.0356   -7.5994   -6.8932 C   0  0  0  0  0  0  0  0  0  0  0  0
  -32.5573   -8.7634   -7.4411 C   0  0  0  0  0  0  0  0  0  0  0  0
  -31.6958   -9.7064   -7.9869 C   0  0  0  0  0  0  0  0  0  0  0  0
  -30.3096   -9.4925   -8.0122 C   0  0  0  0  0  0  0  0  0  0  0  0
  -29.4737  -10.5210   -8.4752 C   0  0  0  0  0  0  0  0  0  0  0  0
  -30.2414   -6.0995   -6.1948 C   0  0  0  0  0  0  0  0  0  0  0  0
  -30.2167   -6.1393   -4.9677 O   0  0  0  0  0  0  0  0  0  0  0  0
  -30.0014   -4.9789   -6.9686 N   0  0  0  0  0  0  0  0  0  0  0  0
  -30.2234   -5.0480   -7.9530 H   0  0  0  0  0  0  0  0  0  0  0  0
  -29.6368   -3.6957   -6.5030 C   0  0  0  0  0  0  0  0  0  0  0  0
  -30.2025   -3.0823   -5.3831 C   0  0  0  0  0  0  0  0  0  0  0  0
  -29.8839   -1.7598   -5.0543 C   0  0  0  0  0  0  0  0  0  0  0  0
  -28.9792   -1.0291   -5.8326 C   0  0  0  0  0  0  0  0  0  0  0  0
  -28.3518   -1.6720   -6.9096 C   0  0  0  0  0  0  0  0  0  0  0  0
  -28.6736   -2.9944   -7.2362 C   0  0  0  0  0  0  0  0  0  0  0  0
  -28.7009    0.4264   -5.5484 C   0  0  0  0  0  0  0  0  0  0  0  0
  -29.8249    1.1799   -5.3926 F   0  0  0  0  0  0  0  0  0  0  0  0
  -27.9681    0.6081   -4.4157 F   0  0  0  0  0  0  0  0  0  0  0  0
  -27.9925    1.0209   -6.5497 F   0  0  0  0  0  0  0  0  0  0  0  0
  -27.3645  -11.5233   -8.7110 O   0  0  0  0  0  0  0  0  0  0  0  0
  -25.8314  -11.9455   -3.7491 C   0  0  0  0  0  0  0  0  0  0  0  0
  -24.7487  -12.1703   -4.6182 C   0  0  0  0  0  0  0  0  0  0  0  0
  -24.8826  -12.1785   -6.0012 C   0  0  0  0  0  0  0  0  0  0  0  0
  -23.7674  -12.2454   -6.7478 N   0  0  0  0  0  0  0  0  0  0  0  0
  -23.8837  -12.1195   -8.0846 C   0  0  0  0  0  0  0  0  0  0  0  0
  -25.0803  -11.8958   -8.7330 C   0  0  0  0  0  0  0  0  0  0  0  0
  -26.2396  -11.8294   -7.9590 C   0  0  0  0  0  0  0  0  0  0  0  0
  -26.1704  -12.0573   -6.5576 C   0  0  0  0  0  0  0  0  0  0  0  0
  -27.2638  -12.1189   -5.6630 C   0  0  0  0  0  0  0  0  0  0  0  0
  -27.1170  -11.9538   -4.2827 C   0  0  0  0  0  0  0  0  0  0  0  0
  -24.3119  -11.8125   -1.9316 C   0  0  0  0  0  0  0  0  0  0  0  0
  -25.6594  -11.7552   -2.4059 O   0  0  0  0  0  0  0  0  0  0  0  0
  -28.3276  -11.7733   -3.6738 O   0  0  0  0  0  0  0  0  0  0  0  0
  -29.0596  -10.5765   -3.8847 C   0  0  0  0  0  0  0  0  0  0  0  0
 36 37  1  0  0  0
 37 26  1  0  0  0
 26 27  1  0  0  0
 26 35  2  0  0  0
 27 28  2  0  0  0
 28 29  1  0  0  0
 28 33  1  0  0  0
 29 30  2  0  0  0
 30 31  1  0  0  0
 31 32  2  0  0  0
 32 25  1  0  0  0
 32 33  1  0  0  0
 25  1  1  0  0  0
  1  2  1  0  0  0
  1 10  2  0  0  0
  2  3  2  0  0  0
  3  4  1  0  0  0
  4  5  1  0  0  0
  4  9  2  0  0  0
  5 11  1  0  0  0
  5  6  2  0  0  0
 11 12  2  0  0  0
 11 13  1  0  0  0
 13 15  1  0  0  0
 13 14  1  0  0  0
 15 16  1  0  0  0
 15 20  2  0  0  0
 16 17  2  0  0  0
 17 18  1  0  0  0
 18 21  1  0  0  0
 18 19  2  0  0  0
 21 22  1  0  0  0
 21 23  1  0  0  0
 21 24  1  0  0  0
 19 20  1  0  0  0
  6  7  1  0  0  0
  7  8  2  0  0  0
  8  9  1  0  0  0
  9 10  1  0  0  0
 33 34  2  0  0  0
 34 35  1  0  0  0
 35 38  1  0  0  0
 38 39  1  0  0  0
M  END
> <minimizedAffinity>
-8.99803

$$$$
