CHEMBL3775086


 25 27  0  0  0  0  0  0  0  0999 V2000
  -29.1025  -10.2627   -9.5120 C   0  0  0  0  0  0  0  0  0  0  0  0
  -30.4869  -10.1846   -9.2712 C   0  0  0  0  0  0  0  0  0  0  0  0
  -31.0279   -9.3819   -8.2786 C   0  0  0  0  0  0  0  0  0  0  0  0
  -32.3577   -9.2954   -8.1690 N   0  0  0  0  0  0  0  0  0  0  0  0
  -32.8267   -8.4656   -7.2328 C   0  0  0  0  0  0  0  0  0  0  0  0
  -32.0913   -7.7194   -6.4087 N   0  0  0  0  0  0  0  0  0  0  0  0
  -30.7538   -7.8139   -6.5253 C   0  0  0  0  0  0  0  0  0  0  0  0
  -30.1533   -8.6717   -7.4564 C   0  0  0  0  0  0  0  0  0  0  0  0
  -28.7606   -8.8447   -7.6053 C   0  0  0  0  0  0  0  0  0  0  0  0
  -28.2243   -9.6219   -8.6358 C   0  0  0  0  0  0  0  0  0  0  0  0
  -28.8544  -10.3864  -11.8646 C   0  0  0  0  0  0  0  0  0  0  0  0
  -28.6048  -10.9641  -10.5812 O   0  0  0  0  0  0  0  0  0  0  0  0
  -29.9273   -6.9939   -5.7067 N   0  0  0  0  0  0  0  0  0  0  0  0
  -29.0788   -7.4985   -5.4715 H   0  0  0  0  0  0  0  0  0  0  0  0
  -29.6830   -5.6274   -5.9569 C   0  0  0  0  0  0  0  0  0  0  0  0
  -29.7487   -4.6956   -4.9132 C   0  0  0  0  0  0  0  0  0  0  0  0
  -29.6030   -3.3276   -5.1415 C   0  0  0  0  0  0  0  0  0  0  0  0
  -29.7574   -2.3513   -4.0177 C   0  0  0  0  0  0  0  0  0  0  0  0
  -29.3446   -2.8858   -6.4448 C   0  0  0  0  0  0  0  0  0  0  0  0
  -29.2405   -3.8137   -7.4812 C   0  0  0  0  0  0  0  0  0  0  0  0
  -29.0129   -3.4152   -8.7687 O   0  0  0  0  0  0  0  0  0  0  0  0
  -29.3953   -5.1758   -7.2473 C   0  0  0  0  0  0  0  0  0  0  0  0
  -29.0152   -2.4444   -8.7914 H   0  0  0  0  0  0  0  0  0  0  0  0
  -26.8595   -9.5930   -8.6130 O   0  0  0  0  0  0  0  0  0  0  0  0
  -26.1491  -10.3494   -7.6505 C   0  0  0  0  0  0  0  0  0  0  0  0
 11 12  1  0  0  0
 12  1  1  0  0  0
  1  2  1  0  0  0
  1 10  2  0  0  0
  2  3  2  0  0  0
  3  4  1  0  0  0
  3  8  1  0  0  0
  4  5  2  0  0  0
  5  6  1  0  0  0
  6  7  2  0  0  0
  7 13  1  0  0  0
  7  8  1  0  0  0
 13 15  1  0  0  0
 13 14  1  0  0  0
 15 16  1  0  0  0
 15 22  2  0  0  0
 16 17  2  0  0  0
 17 18  1  0  0  0
 17 19  1  0  0  0
 19 20  2  0  0  0
 20 21  1  0  0  0
 20 22  1  0  0  0
 21 23  1  0  0  0
  8  9  2  0  0  0
  9 10  1  0  0  0
 10 24  1  0  0  0
 24 25  1  0  0  0
M  END
> <minimizedAffinity>
-7.19148

$$$$
