CHEMBL3979687


 31 34  0  0  0  0  0  0  0  0999 V2000
  -28.8283   -6.3139   -5.3066 C   0  0  0  0  0  0  0  0  0  0  0  0
  -28.1931   -7.5470   -5.1175 C   0  0  0  0  0  0  0  0  0  0  0  0
  -28.2173   -8.5403   -6.1192 C   0  0  0  0  0  0  0  0  0  0  0  0
  -27.7687   -9.8573   -5.9405 C   0  0  0  0  0  0  0  0  0  0  0  0
  -27.7471  -10.7438   -6.9527 N   0  0  0  0  0  0  0  0  0  0  0  0
  -28.2061  -10.3221   -8.1328 C   0  0  0  0  0  0  0  0  0  0  0  0
  -28.6942   -9.1061   -8.3951 N   0  0  0  0  0  0  0  0  0  0  0  0
  -28.7054   -8.2358   -7.3843 C   0  0  0  0  0  0  0  0  0  0  0  0
  -29.2571   -6.9785   -7.5924 C   0  0  0  0  0  0  0  0  0  0  0  0
  -29.3966   -6.0314   -6.5631 C   0  0  0  0  0  0  0  0  0  0  0  0
  -27.7584   -4.6761   -3.9408 C   0  0  0  0  0  0  0  0  0  0  0  0
  -28.9460   -5.3845   -4.3053 O   0  0  0  0  0  0  0  0  0  0  0  0
  -27.4053  -10.2925   -4.6326 N   0  0  0  0  0  0  0  0  0  0  0  0
  -28.0141  -11.0614   -4.3783 H   0  0  0  0  0  0  0  0  0  0  0  0
  -26.0711  -10.5031   -4.2252 C   0  0  0  0  0  0  0  0  0  0  0  0
  -25.0149  -10.0196   -5.0058 C   0  0  0  0  0  0  0  0  0  0  0  0
  -23.6896  -10.2569   -4.6493 C   0  0  0  0  0  0  0  0  0  0  0  0
  -23.4022  -10.9730   -3.4883 C   0  0  0  0  0  0  0  0  0  0  0  0
  -21.7403  -11.2804   -3.1306 Cl  0  0  0  0  0  0  0  0  0  0  0  0
  -24.4473  -11.4257   -2.6737 C   0  0  0  0  0  0  0  0  0  0  0  0
  -24.1605  -12.3041   -1.2130 Cl  0  0  0  0  0  0  0  0  0  0  0  0
  -25.7787  -11.1812   -3.0353 C   0  0  0  0  0  0  0  0  0  0  0  0
  -30.0967   -4.8457   -6.7314 O   0  0  0  0  0  0  0  0  0  0  0  0
  -29.5487   -3.9745   -7.7385 C   0  0  0  0  0  0  0  0  0  0  0  0
  -28.3896   -3.1109   -7.2288 C   0  0  0  0  0  0  0  0  0  0  0  0
  -28.8696   -1.6943   -6.8005 C   0  0  0  0  0  0  0  0  0  0  0  0
  -27.8050   -0.6072   -7.0544 C   0  0  0  0  0  0  0  0  0  0  0  0
  -28.1888    0.7682   -6.5018 C   0  0  0  0  0  0  0  0  0  0  0  0
  -28.6296    0.7081   -5.0452 C   0  0  0  0  0  0  0  0  0  0  0  0
  -29.7529   -0.3037   -4.8630 C   0  0  0  0  0  0  0  0  0  0  0  0
  -29.3200   -1.6934   -5.3298 C   0  0  0  0  0  0  0  0  0  0  0  0
 11 12  1  0  0  0
 12  1  1  0  0  0
  1  2  1  0  0  0
  1 10  2  0  0  0
  2  3  2  0  0  0
  3  4  1  0  0  0
  3  8  1  0  0  0
  4 13  1  0  0  0
  4  5  2  0  0  0
 13 15  1  0  0  0
 13 14  1  0  0  0
 15 16  1  0  0  0
 15 22  2  0  0  0
 16 17  2  0  0  0
 17 18  1  0  0  0
 18 19  1  0  0  0
 18 20  2  0  0  0
 20 21  1  0  0  0
 20 22  1  0  0  0
  5  6  1  0  0  0
  6  7  2  0  0  0
  7  8  1  0  0  0
  8  9  2  0  0  0
  9 10  1  0  0  0
 10 23  1  0  0  0
 23 24  1  0  0  0
 24 25  1  0  0  0
 25 26  1  0  0  0
 26 27  1  0  0  0
 26 31  1  0  0  0
 27 28  1  0  0  0
 28 29  1  0  0  0
 29 30  1  0  0  0
 30 31  1  0  0  0
M  END
> <minimizedAffinity>
-8.01823

$$$$
