CHEMBL4104302


 36 39  0  0  0  0  0  0  0  0999 V2000
  -26.6869  -10.9789   -5.5044 C   0  0  0  0  0  0  0  0  0  0  0  0
  -27.1514  -10.3510   -6.6580 C   0  0  0  0  0  0  0  0  0  0  0  0
  -28.0490   -9.2868   -6.5601 C   0  0  0  0  0  0  0  0  0  0  0  0
  -28.4922   -8.8275   -5.3173 C   0  0  0  0  0  0  0  0  0  0  0  0
  -28.0574   -9.4851   -4.1614 C   0  0  0  0  0  0  0  0  0  0  0  0
  -27.1847  -10.5720   -4.2703 C   0  0  0  0  0  0  0  0  0  0  0  0
  -26.8150  -11.1898   -3.1350 F   0  0  0  0  0  0  0  0  0  0  0  0
  -29.3694   -7.7417   -5.1650 N   0  0  0  0  0  0  0  0  0  0  0  0
  -29.0115   -6.4284   -4.9169 C   0  0  0  0  0  0  0  0  0  0  0  0
  -27.8906   -5.9794   -4.7532 O   0  0  0  0  0  0  0  0  0  0  0  0
  -30.3637   -7.9401   -5.1650 H   0  0  0  0  0  0  0  0  0  0  0  0
  -30.1673   -5.4887   -4.8299 C   0  0  0  0  0  0  0  0  0  0  0  0
  -31.0261   -5.5204   -3.5627 C   0  0  0  0  0  0  0  0  0  0  0  0
  -31.5601   -6.1039   -4.8315 C   0  0  0  0  0  0  0  0  0  0  0  0
  -29.8770   -4.1413   -5.3855 C   0  0  0  0  0  0  0  0  0  0  0  0
  -30.4553   -3.8215   -6.4190 O   0  0  0  0  0  0  0  0  0  0  0  0
  -28.9841   -3.3533   -4.6762 N   0  0  0  0  0  0  0  0  0  0  0  0
  -28.2964   -3.8288   -4.1057 H   0  0  0  0  0  0  0  0  0  0  0  0
  -28.7114   -2.0488   -5.1248 C   0  0  0  0  0  0  0  0  0  0  0  0
  -29.4379   -0.9647   -4.6126 C   0  0  0  0  0  0  0  0  0  0  0  0
  -29.3254    0.2928   -5.1969 C   0  0  0  0  0  0  0  0  0  0  0  0
  -28.4896    0.4532   -6.2929 C   0  0  0  0  0  0  0  0  0  0  0  0
  -28.4485    1.6358   -6.9193 F   0  0  0  0  0  0  0  0  0  0  0  0
  -27.7097   -0.6013   -6.7634 C   0  0  0  0  0  0  0  0  0  0  0  0
  -27.7898   -1.8553   -6.1525 C   0  0  0  0  0  0  0  0  0  0  0  0
  -25.7802  -11.9950   -5.6931 O   0  0  0  0  0  0  0  0  0  0  0  0
  -21.6208  -11.4621   -8.0881 N   0  0  0  0  0  0  0  0  0  0  0  0
  -22.3781  -11.5069   -6.9167 C   0  0  0  0  0  0  0  0  0  0  0  0
  -21.6784  -11.2616   -5.7900 N   0  0  0  0  0  0  0  0  0  0  0  0
  -22.3658  -11.1895   -4.6327 C   0  0  0  0  0  0  0  0  0  0  0  0
  -23.7326  -11.3605   -4.5396 C   0  0  0  0  0  0  0  0  0  0  0  0
  -24.4339  -11.7035   -5.6951 C   0  0  0  0  0  0  0  0  0  0  0  0
  -23.7603  -11.7256   -6.9192 C   0  0  0  0  0  0  0  0  0  0  0  0
  -24.6063  -12.0331   -8.3989 Cl  0  0  0  0  0  0  0  0  0  0  0  0
  -20.6440  -11.3910   -7.8160 H   0  0  0  0  0  0  0  0  0  0  0  0
  -21.8135  -12.2503   -8.6956 H   0  0  0  0  0  0  0  0  0  0  0  0
 27 28  1  0  0  0
 27 35  1  0  0  0
 27 36  1  0  0  0
 28 29  1  0  0  0
 28 33  2  0  0  0
 29 30  2  0  0  0
 30 31  1  0  0  0
 31 32  2  0  0  0
 32 26  1  0  0  0
 32 33  1  0  0  0
 26  1  1  0  0  0
  1  2  1  0  0  0
  1  6  2  0  0  0
  2  3  2  0  0  0
  3  4  1  0  0  0
  4  8  1  0  0  0
  4  5  2  0  0  0
  8  9  1  0  0  0
  8 11  1  0  0  0
  9 10  2  0  0  0
  9 12  1  0  0  0
 12 15  1  0  0  0
 12 13  1  0  0  0
 12 14  1  0  0  0
 15 16  2  0  0  0
 15 17  1  0  0  0
 17 19  1  0  0  0
 17 18  1  0  0  0
 19 20  1  0  0  0
 19 25  2  0  0  0
 20 21  2  0  0  0
 21 22  1  0  0  0
 22 23  1  0  0  0
 22 24  2  0  0  0
 24 25  1  0  0  0
 13 14  1  0  0  0
  5  6  1  0  0  0
  6  7  1  0  0  0
 33 34  1  0  0  0
M  END
> <minimizedAffinity>
-8.62332

$$$$
