CHEMBL209908


 45 50  0  0  0  0  0  0  0  0999 V2000
  -12.6078    2.2699  -16.2021 C   0  0  0  0  0  0  0  0  0  0  0  0
  -11.6786    2.4135  -16.9972 O   0  0  0  0  0  0  0  0  0  0  0  0
  -13.5024    1.1883  -16.1746 N   0  0  0  0  0  0  0  0  0  0  0  0
  -13.3920    0.0589  -17.0608 C   0  0  0  0  0  0  0  0  0  0  0  0
  -12.9754   -1.1962  -16.6130 C   0  0  0  0  0  0  0  0  0  0  0  0
  -13.0019   -2.3139  -17.4708 C   0  0  0  0  0  0  0  0  0  0  0  0
  -13.4214   -2.2209  -18.8109 C   0  0  0  0  0  0  0  0  0  0  0  0
  -13.7775   -0.9429  -19.2653 C   0  0  0  0  0  0  0  0  0  0  0  0
  -13.7491    0.1714  -18.4170 C   0  0  0  0  0  0  0  0  0  0  0  0
  -13.4997   -3.4048  -19.7062 C   0  0  0  0  0  0  0  0  0  0  0  0
  -14.1807   -4.5769  -19.3281 C   0  0  0  0  0  0  0  0  0  0  0  0
  -14.2739   -5.6809  -20.1855 C   0  0  0  0  0  0  0  0  0  0  0  0
  -13.6985   -5.6353  -21.4510 C   0  0  0  0  0  0  0  0  0  0  0  0
  -13.0210   -4.4913  -21.8549 C   0  0  0  0  0  0  0  0  0  0  0  0
  -12.9169   -3.3965  -20.9894 C   0  0  0  0  0  0  0  0  0  0  0  0
  -14.6377    1.2154  -15.3125 C   0  0  0  0  0  0  0  0  0  0  0  0
  -14.5193    0.6985  -14.0349 C   0  0  0  0  0  0  0  0  0  0  0  0
  -15.6574    0.6872  -13.2802 C   0  0  0  0  0  0  0  0  0  0  0  0
  -16.8460    1.1209  -13.7353 N   0  0  0  0  0  0  0  0  0  0  0  0
  -16.8824    1.6434  -14.9623 C   0  0  0  0  0  0  0  0  0  0  0  0
  -15.8011    1.7263  -15.7598 N   0  0  0  0  0  0  0  0  0  0  0  0
  -18.1358    2.0104  -15.4417 N   0  0  0  0  0  0  0  0  0  0  0  0
  -18.0573    2.3784  -16.3782 H   0  0  0  0  0  0  0  0  0  0  0  0
  -19.4014    1.5483  -15.0774 C   0  0  0  0  0  0  0  0  0  0  0  0
  -20.2468    2.3744  -14.3381 C   0  0  0  0  0  0  0  0  0  0  0  0
  -21.4769    1.9028  -13.8561 C   0  0  0  0  0  0  0  0  0  0  0  0
  -21.9348    0.6061  -14.1227 C   0  0  0  0  0  0  0  0  0  0  0  0
  -21.1263   -0.1633  -14.9604 C   0  0  0  0  0  0  0  0  0  0  0  0
  -19.8659    0.2764  -15.3964 C   0  0  0  0  0  0  0  0  0  0  0  0
  -23.1469    0.1676  -13.6190 N   0  0  0  0  0  0  0  0  0  0  0  0
  -23.8486    0.8695  -12.5325 C   0  0  0  0  0  0  0  0  0  0  0  0
  -24.6503   -0.1687  -11.7111 C   0  0  0  0  0  0  0  0  0  0  0  0
  -25.6151   -0.9341  -12.5375 N   0  0  0  0  0  0  0  0  0  0  0  0
  -26.2776   -1.9538  -11.7277 C   0  0  0  0  0  0  0  0  0  0  0  0
  -24.8983   -1.5613  -13.6750 C   0  0  0  0  0  0  0  0  0  0  0  0
  -24.0876   -0.5418  -14.5107 C   0  0  0  0  0  0  0  0  0  0  0  0
  -12.8503    3.1839  -15.1640 O   0  0  0  0  0  0  0  0  0  0  0  0
  -13.7076    5.4476  -16.8814 C   0  0  0  0  0  0  0  0  0  0  0  0
  -12.6238    5.5362  -15.8433 C   0  0  0  0  0  0  0  0  0  0  0  0
  -12.1033    6.8035  -15.5373 C   0  0  0  0  0  0  0  0  0  0  0  0
  -11.2132    6.9793  -14.4773 C   0  0  0  0  0  0  0  0  0  0  0  0
  -10.8329    5.8919  -13.6953 C   0  0  0  0  0  0  0  0  0  0  0  0
  -11.3191    4.6086  -13.9786 C   0  0  0  0  0  0  0  0  0  0  0  0
  -10.9296    3.4646  -13.0872 C   0  0  0  0  0  0  0  0  0  0  0  0
  -12.2003    4.4401  -15.0674 C   0  0  0  0  0  0  0  0  0  0  0  0
 38 39  1  0  0  0
 39 40  1  0  0  0
 39 45  2  0  0  0
 40 41  2  0  0  0
 41 42  1  0  0  0
 42 43  2  0  0  0
 43 44  1  0  0  0
 43 45  1  0  0  0
 45 37  1  0  0  0
 37  1  1  0  0  0
  1  2  2  0  0  0
  1  3  1  0  0  0
  3  4  1  0  0  0
  3 16  1  0  0  0
  4  5  1  0  0  0
  4  9  2  0  0  0
  5  6  2  0  0  0
  6  7  1  0  0  0
  7 10  1  0  0  0
  7  8  2  0  0  0
 10 11  1  0  0  0
 10 15  2  0  0  0
 11 12  2  0  0  0
 12 13  1  0  0  0
 13 14  2  0  0  0
 14 15  1  0  0  0
  8  9  1  0  0  0
 16 17  1  0  0  0
 16 21  2  0  0  0
 17 18  2  0  0  0
 18 19  1  0  0  0
 19 20  2  0  0  0
 20 22  1  0  0  0
 20 21  1  0  0  0
 22 24  1  0  0  0
 22 23  1  0  0  0
 24 25  1  0  0  0
 24 29  2  0  0  0
 25 26  2  0  0  0
 26 27  1  0  0  0
 27 30  1  0  0  0
 27 28  2  0  0  0
 30 31  1  0  0  0
 30 36  1  0  0  0
 31 32  1  0  0  0
 32 33  1  0  0  0
 33 34  1  0  0  0
 33 35  1  0  0  0
 35 36  1  0  0  0
 28 29  1  0  0  0
M  END
> <minimizedAffinity>
-9.02523

$$$$
