CHEMBL451401


 15 16  0  0  0  0  0  0  0  0999 V2000
  -25.5631   -1.6203  -11.9193 C   0  0  0  0  0  0  0  0  0  0  0  0
  -24.2965   -1.5625  -11.3170 C   0  0  0  0  0  0  0  0  0  0  0  0
  -23.1510   -1.3170  -12.0791 C   0  0  0  0  0  0  0  0  0  0  0  0
  -23.2367   -1.1163  -13.4644 C   0  0  0  0  0  0  0  0  0  0  0  0
  -24.4961   -1.1888  -14.0843 C   0  0  0  0  0  0  0  0  0  0  0  0
  -25.0040   -1.0517  -15.3951 C   0  0  0  0  0  0  0  0  0  0  0  0
  -26.3281   -1.2270  -15.4618 N   0  0  0  0  0  0  0  0  0  0  0  0
  -26.6711   -1.4895  -14.1845 N   0  0  0  0  0  0  0  0  0  0  0  0
  -25.6168   -1.4519  -13.3080 C   0  0  0  0  0  0  0  0  0  0  0  0
  -27.6412   -1.6924  -13.9588 H   0  0  0  0  0  0  0  0  0  0  0  0
  -26.7613   -2.7181  -10.1156 N   0  0  0  0  0  0  0  0  0  0  0  0
  -26.8150   -1.8460  -11.1655 C   0  0  0  0  0  0  0  0  0  0  0  0
  -27.8343   -1.2215  -11.4302 O   0  0  0  0  0  0  0  0  0  0  0  0
  -27.5825   -2.7561   -9.5249 H   0  0  0  0  0  0  0  0  0  0  0  0
  -25.8826   -2.9985   -9.7039 H   0  0  0  0  0  0  0  0  0  0  0  0
 11 12  1  0  0  0
 11 14  1  0  0  0
 11 15  1  0  0  0
 12 13  2  0  0  0
 12  1  1  0  0  0
  1  2  1  0  0  0
  1  9  2  0  0  0
  2  3  2  0  0  0
  3  4  1  0  0  0
  4  5  2  0  0  0
  5  6  1  0  0  0
  5  9  1  0  0  0
  6  7  2  0  0  0
  7  8  1  0  0  0
  8  9  1  0  0  0
  8 10  1  0  0  0
M  END
> <minimizedAffinity>
-6.34041

$$$$
