CHEMBL3986286


 40 43  0  0  0  0  0  0  0  0999 V2000
  -27.3712   -2.3155   -9.0574 C   0  0  0  0  0  0  0  0  0  0  0  0
  -27.3289   -1.0485   -8.5783 N   0  0  0  0  0  0  0  0  0  0  0  0
  -27.8587   -0.7935   -7.3645 C   0  0  0  0  0  0  0  0  0  0  0  0
  -28.4342   -1.6557   -6.5127 N   0  0  0  0  0  0  0  0  0  0  0  0
  -28.4468   -2.8954   -7.0179 C   0  0  0  0  0  0  0  0  0  0  0  0
  -28.9805   -3.9848   -6.3888 N   0  0  0  0  0  0  0  0  0  0  0  0
  -28.8583   -5.1114   -7.1750 C   0  0  0  0  0  0  0  0  0  0  0  0
  -28.2175   -4.7012   -8.3384 C   0  0  0  0  0  0  0  0  0  0  0  0
  -27.9479   -3.3059   -8.2444 C   0  0  0  0  0  0  0  0  0  0  0  0
  -29.4244   -3.9405   -5.4846 H   0  0  0  0  0  0  0  0  0  0  0  0
  -29.3409   -6.4297   -6.7634 C   0  0  0  0  0  0  0  0  0  0  0  0
  -30.4234   -7.0243   -7.4201 C   0  0  0  0  0  0  0  0  0  0  0  0
  -30.8318   -8.3233   -7.0966 C   0  0  0  0  0  0  0  0  0  0  0  0
  -30.1488   -9.0687   -6.1321 C   0  0  0  0  0  0  0  0  0  0  0  0
  -29.1343   -8.4374   -5.4094 C   0  0  0  0  0  0  0  0  0  0  0  0
  -28.7184   -7.1406   -5.7316 C   0  0  0  0  0  0  0  0  0  0  0  0
  -30.4563  -10.3950   -5.8062 N   0  0  0  0  0  0  0  0  0  0  0  0
  -31.3993  -10.6266   -6.1146 H   0  0  0  0  0  0  0  0  0  0  0  0
  -29.4795  -11.4126   -6.1789 C   0  0  0  0  0  0  0  0  0  0  0  0
  -29.9742  -12.1447   -7.4255 C   0  0  0  0  0  0  0  0  0  0  0  0
  -29.0881  -11.8172   -8.6256 C   0  0  0  0  0  0  0  0  0  0  0  0
  -29.7399  -10.7909   -9.5509 C   0  0  0  0  0  0  0  0  0  0  0  0
  -28.9261  -10.6362  -10.8353 C   0  0  0  0  0  0  0  0  0  0  0  0
  -27.4272  -10.5852  -10.5555 C   0  0  0  0  0  0  0  0  0  0  0  0
  -26.8951   -9.1700  -10.6186 C   0  0  0  0  0  0  0  0  0  0  0  0
  -26.3022   -8.6876  -11.5804 O   0  0  0  0  0  0  0  0  0  0  0  0
  -27.1325   -8.4438   -9.4794 N   0  0  0  0  0  0  0  0  0  0  0  0
  -26.6442   -7.1195   -9.4610 O   0  0  0  0  0  0  0  0  0  0  0  0
  -27.5787   -8.7916   -8.6390 H   0  0  0  0  0  0  0  0  0  0  0  0
  -26.2329   -7.0382  -10.3503 H   0  0  0  0  0  0  0  0  0  0  0  0
  -26.8732   -2.6207  -10.3330 N   0  0  0  0  0  0  0  0  0  0  0  0
  -25.9232   -2.9615  -10.1999 H   0  0  0  0  0  0  0  0  0  0  0  0
  -27.6323   -1.8532  -12.5593 C   0  0  0  0  0  0  0  0  0  0  0  0
  -26.8644   -1.4962  -11.2778 C   0  0  0  0  0  0  0  0  0  0  0  0
  -25.4160   -1.1647  -11.6257 C   0  0  0  0  0  0  0  0  0  0  0  0
  -25.0505    0.1436  -11.9809 C   0  0  0  0  0  0  0  0  0  0  0  0
  -23.7368    0.4388  -12.3555 C   0  0  0  0  0  0  0  0  0  0  0  0
  -22.7726   -0.5673  -12.3789 C   0  0  0  0  0  0  0  0  0  0  0  0
  -23.1162   -1.8672  -12.0163 C   0  0  0  0  0  0  0  0  0  0  0  0
  -24.4260   -2.1624  -11.6359 C   0  0  0  0  0  0  0  0  0  0  0  0
 33 34  1  0  0  0
 34 31  1  0  0  0
 34 35  1  0  0  0
 31  1  1  0  0  0
 31 32  1  0  0  0
  1  2  1  0  0  0
  1  9  2  0  0  0
  2  3  2  0  0  0
  3  4  1  0  0  0
  4  5  2  0  0  0
  5  6  1  0  0  0
  5  9  1  0  0  0
  6  7  1  0  0  0
  6 10  1  0  0  0
  7 11  1  0  0  0
  7  8  2  0  0  0
 11 12  1  0  0  0
 11 16  2  0  0  0
 12 13  2  0  0  0
 13 14  1  0  0  0
 14 17  1  0  0  0
 14 15  2  0  0  0
 17 19  1  0  0  0
 17 18  1  0  0  0
 19 20  1  0  0  0
 20 21  1  0  0  0
 21 22  1  0  0  0
 22 23  1  0  0  0
 23 24  1  0  0  0
 24 25  1  0  0  0
 25 26  2  0  0  0
 25 27  1  0  0  0
 27 28  1  0  0  0
 27 29  1  0  0  0
 28 30  1  0  0  0
 15 16  1  0  0  0
  8  9  1  0  0  0
 35 36  1  0  0  0
 35 40  2  0  0  0
 36 37  2  0  0  0
 37 38  1  0  0  0
 38 39  2  0  0  0
 39 40  1  0  0  0
M  END
> <minimizedAffinity>
-9.65142

$$$$
