CHEMBL3896869


 38 41  0  0  0  0  0  0  0  0999 V2000
  -15.9223   -3.1399  -13.4908 C   0  0  0  0  0  0  0  0  0  0  0  0
  -14.7240   -2.2436  -13.3370 C   0  0  0  0  0  0  0  0  0  0  0  0
  -13.6931   -2.7033  -12.4921 C   0  0  0  0  0  0  0  0  0  0  0  0
  -12.4648   -2.0467  -12.4005 C   0  0  0  0  0  0  0  0  0  0  0  0
  -12.2937   -0.8500  -13.0757 C   0  0  0  0  0  0  0  0  0  0  0  0
  -13.3327   -0.3458  -13.8676 C   0  0  0  0  0  0  0  0  0  0  0  0
  -14.5594   -1.0202  -14.0199 C   0  0  0  0  0  0  0  0  0  0  0  0
  -15.6130   -0.4840  -14.8198 N   0  0  0  0  0  0  0  0  0  0  0  0
  -16.6414    0.3302  -14.3597 C   0  0  0  0  0  0  0  0  0  0  0  0
  -16.7635    0.7287  -13.2057 O   0  0  0  0  0  0  0  0  0  0  0  0
  -17.5916    0.6025  -15.3358 N   0  0  0  0  0  0  0  0  0  0  0  0
  -15.6393   -0.7621  -15.7888 H   0  0  0  0  0  0  0  0  0  0  0  0
  -17.7394   -0.1485  -15.9936 H   0  0  0  0  0  0  0  0  0  0  0  0
  -18.7371    1.3768  -15.0088 C   0  0  0  0  0  0  0  0  0  0  0  0
  -18.6584    2.7673  -15.1068 C   0  0  0  0  0  0  0  0  0  0  0  0
  -19.8011    3.5448  -14.9019 C   0  0  0  0  0  0  0  0  0  0  0  0
  -21.0035    2.9391  -14.5436 C   0  0  0  0  0  0  0  0  0  0  0  0
  -22.0846    3.7130  -14.3761 F   0  0  0  0  0  0  0  0  0  0  0  0
  -21.0954    1.5594  -14.3720 C   0  0  0  0  0  0  0  0  0  0  0  0
  -19.9510    0.7800  -14.6270 C   0  0  0  0  0  0  0  0  0  0  0  0
  -22.3936    0.9335  -13.9292 C   0  0  0  0  0  0  0  0  0  0  0  0
  -22.2405    0.0994  -12.6665 C   0  0  0  0  0  0  0  0  0  0  0  0
  -23.3545    1.8752  -13.6784 F   0  0  0  0  0  0  0  0  0  0  0  0
  -22.9443    0.1313  -14.8892 F   0  0  0  0  0  0  0  0  0  0  0  0
  -11.3927   -2.5111  -11.6616 O   0  0  0  0  0  0  0  0  0  0  0  0
  -11.6033   -3.5202  -10.7412 C   0  0  0  0  0  0  0  0  0  0  0  0
  -11.7105   -3.2922   -9.3721 C   0  0  0  0  0  0  0  0  0  0  0  0
  -11.8076   -4.3881   -8.5476 C   0  0  0  0  0  0  0  0  0  0  0  0
  -11.8829   -5.6496   -9.0041 N   0  0  0  0  0  0  0  0  0  0  0  0
  -11.8761   -5.8671  -10.3304 C   0  0  0  0  0  0  0  0  0  0  0  0
  -11.7354   -4.8212  -11.2375 C   0  0  0  0  0  0  0  0  0  0  0  0
  -12.0051   -7.1822  -10.8131 N   0  0  0  0  0  0  0  0  0  0  0  0
  -13.1395   -7.6602  -11.4433 C   0  0  0  0  0  0  0  0  0  0  0  0
  -14.1766   -7.0524  -11.6667 O   0  0  0  0  0  0  0  0  0  0  0  0
  -11.2282   -7.8067  -10.6781 H   0  0  0  0  0  0  0  0  0  0  0  0
  -13.1083   -9.0882  -11.8854 C   0  0  0  0  0  0  0  0  0  0  0  0
  -11.7768   -9.7845  -12.0486 C   0  0  0  0  0  0  0  0  0  0  0  0
  -12.6880   -9.6168  -13.2306 C   0  0  0  0  0  0  0  0  0  0  0  0
  1  2  1  0  0  0
  2  3  1  0  0  0
  2  7  2  0  0  0
  3  4  2  0  0  0
  4 25  1  0  0  0
  4  5  1  0  0  0
 25 26  1  0  0  0
 26 27  1  0  0  0
 26 31  2  0  0  0
 27 28  2  0  0  0
 28 29  1  0  0  0
 29 30  2  0  0  0
 30 32  1  0  0  0
 30 31  1  0  0  0
 32 33  1  0  0  0
 32 35  1  0  0  0
 33 34  2  0  0  0
 33 36  1  0  0  0
 36 37  1  0  0  0
 36 38  1  0  0  0
 37 38  1  0  0  0
  5  6  2  0  0  0
  6  7  1  0  0  0
  7  8  1  0  0  0
  8  9  1  0  0  0
  8 12  1  0  0  0
  9 10  2  0  0  0
  9 11  1  0  0  0
 11 14  1  0  0  0
 11 13  1  0  0  0
 14 15  1  0  0  0
 14 20  2  0  0  0
 15 16  2  0  0  0
 16 17  1  0  0  0
 17 18  1  0  0  0
 17 19  2  0  0  0
 19 21  1  0  0  0
 19 20  1  0  0  0
 21 22  1  0  0  0
 21 23  1  0  0  0
 21 24  1  0  0  0
M  END
> <minimizedAffinity>
-9.69879

$$$$
