CHEMBL3931839


 37 40  0  0  0  0  0  0  0  0999 V2000
  -24.5072   -1.2404  -12.7425 C   0  0  0  0  0  0  0  0  0  0  0  0
  -24.5664   -1.2497  -11.3437 C   0  0  0  0  0  0  0  0  0  0  0  0
  -25.7497   -1.5791  -10.6712 C   0  0  0  0  0  0  0  0  0  0  0  0
  -26.9004   -1.8876  -11.3903 C   0  0  0  0  0  0  0  0  0  0  0  0
  -26.8690   -1.7686  -12.7811 C   0  0  0  0  0  0  0  0  0  0  0  0
  -27.9775   -1.9468  -13.5141 F   0  0  0  0  0  0  0  0  0  0  0  0
  -25.6811   -1.4863  -13.4571 C   0  0  0  0  0  0  0  0  0  0  0  0
  -22.8836    1.1744  -12.8095 O   0  0  0  0  0  0  0  0  0  0  0  0
  -22.6169    0.1987  -13.5002 C   0  0  0  0  0  0  0  0  0  0  0  0
  -21.5813    0.1701  -14.4295 N   0  0  0  0  0  0  0  0  0  0  0  0
  -23.3305   -0.9832  -13.4869 N   0  0  0  0  0  0  0  0  0  0  0  0
  -21.5787   -0.5985  -15.0826 H   0  0  0  0  0  0  0  0  0  0  0  0
  -22.9326   -1.7648  -13.9843 H   0  0  0  0  0  0  0  0  0  0  0  0
  -20.7146    1.2562  -14.7157 C   0  0  0  0  0  0  0  0  0  0  0  0
  -21.1711    2.5385  -15.0057 C   0  0  0  0  0  0  0  0  0  0  0  0
  -20.2564    3.5142  -15.3505 C   0  0  0  0  0  0  0  0  0  0  0  0
  -18.9286    3.3030  -15.4108 N   0  0  0  0  0  0  0  0  0  0  0  0
  -18.4731    2.0575  -15.1023 C   0  0  0  0  0  0  0  0  0  0  0  0
  -19.3389    1.0206  -14.7329 C   0  0  0  0  0  0  0  0  0  0  0  0
  -16.9803    1.7774  -15.1925 C   0  0  0  0  0  0  0  0  0  0  0  0
  -16.4214    1.3082  -14.0418 F   0  0  0  0  0  0  0  0  0  0  0  0
  -16.6813    0.8569  -16.1554 F   0  0  0  0  0  0  0  0  0  0  0  0
  -16.2640    2.8926  -15.5243 F   0  0  0  0  0  0  0  0  0  0  0  0
  -28.0040   -2.2375  -10.6467 O   0  0  0  0  0  0  0  0  0  0  0  0
  -28.0045   -2.0392   -9.2816 C   0  0  0  0  0  0  0  0  0  0  0  0
  -27.7073   -0.8324   -8.6579 C   0  0  0  0  0  0  0  0  0  0  0  0
  -27.6620   -0.8183   -7.2817 C   0  0  0  0  0  0  0  0  0  0  0  0
  -27.9632   -1.8834   -6.5174 N   0  0  0  0  0  0  0  0  0  0  0  0
  -28.3284   -3.0273   -7.1190 C   0  0  0  0  0  0  0  0  0  0  0  0
  -28.3649   -3.1430   -8.5027 C   0  0  0  0  0  0  0  0  0  0  0  0
  -28.6773   -4.1447   -6.3425 N   0  0  0  0  0  0  0  0  0  0  0  0
  -29.8271   -4.2298   -5.5825 C   0  0  0  0  0  0  0  0  0  0  0  0
  -30.6990   -3.3847   -5.4552 O   0  0  0  0  0  0  0  0  0  0  0  0
  -28.0324   -4.9149   -6.3217 H   0  0  0  0  0  0  0  0  0  0  0  0
  -30.0146   -5.4950   -4.8083 C   0  0  0  0  0  0  0  0  0  0  0  0
  -30.8557   -6.6024   -5.3953 C   0  0  0  0  0  0  0  0  0  0  0  0
  -31.2646   -5.9503   -4.1053 C   0  0  0  0  0  0  0  0  0  0  0  0
  8  9  2  0  0  0
  9 10  1  0  0  0
  9 11  1  0  0  0
 10 14  1  0  0  0
 10 12  1  0  0  0
 14 15  1  0  0  0
 14 19  2  0  0  0
 15 16  2  0  0  0
 16 17  1  0  0  0
 17 18  2  0  0  0
 18 20  1  0  0  0
 18 19  1  0  0  0
 20 21  1  0  0  0
 20 22  1  0  0  0
 20 23  1  0  0  0
 11  1  1  0  0  0
 11 13  1  0  0  0
  1  2  1  0  0  0
  1  7  2  0  0  0
  2  3  2  0  0  0
  3  4  1  0  0  0
  4 24  1  0  0  0
  4  5  2  0  0  0
 24 25  1  0  0  0
 25 26  1  0  0  0
 25 30  2  0  0  0
 26 27  2  0  0  0
 27 28  1  0  0  0
 28 29  2  0  0  0
 29 31  1  0  0  0
 29 30  1  0  0  0
 31 32  1  0  0  0
 31 34  1  0  0  0
 32 33  2  0  0  0
 32 35  1  0  0  0
 35 36  1  0  0  0
 35 37  1  0  0  0
 36 37  1  0  0  0
  5  6  1  0  0  0
  5  7  1  0  0  0
M  END
> <minimizedAffinity>
-10.09496

$$$$
