CHEMBL189226


 33 36  0  0  0  0  0  0  0  0999 V2000
  -29.0973   -5.7569   -5.0729 C   0  0  0  0  0  0  0  0  0  0  0  0
  -28.9293   -5.4178   -3.7306 C   0  0  0  0  0  0  0  0  0  0  0  0
  -28.4329   -4.2419   -3.2838 N   0  0  0  0  0  0  0  0  0  0  0  0
  -28.1312   -3.3243   -4.2320 C   0  0  0  0  0  0  0  0  0  0  0  0
  -28.2764   -3.5140   -5.6056 C   0  0  0  0  0  0  0  0  0  0  0  0
  -28.7696   -4.7689   -6.0030 C   0  0  0  0  0  0  0  0  0  0  0  0
  -28.0136   -2.4567   -6.5882 C   0  0  0  0  0  0  0  0  0  0  0  0
  -27.7862   -1.1230   -6.2585 C   0  0  0  0  0  0  0  0  0  0  0  0
  -27.6544   -0.1467   -7.1858 N   0  0  0  0  0  0  0  0  0  0  0  0
  -27.7579   -0.5632   -8.4713 C   0  0  0  0  0  0  0  0  0  0  0  0
  -27.9176   -1.8974   -8.8457 C   0  0  0  0  0  0  0  0  0  0  0  0
  -28.0488   -2.8412   -7.8925 N   0  0  0  0  0  0  0  0  0  0  0  0
  -28.0408   -2.2501  -10.2119 N   0  0  0  0  0  0  0  0  0  0  0  0
  -28.9626   -2.0164  -10.5668 H   0  0  0  0  0  0  0  0  0  0  0  0
  -27.0836   -1.9517  -11.2149 C   0  0  0  0  0  0  0  0  0  0  0  0
  -27.4345   -1.8074  -12.5632 C   0  0  0  0  0  0  0  0  0  0  0  0
  -26.4622   -1.6119  -13.5469 C   0  0  0  0  0  0  0  0  0  0  0  0
  -25.1180   -1.5661  -13.1911 C   0  0  0  0  0  0  0  0  0  0  0  0
  -24.7572   -1.7246  -11.8544 C   0  0  0  0  0  0  0  0  0  0  0  0
  -23.0917   -1.6798  -11.4149 Cl  0  0  0  0  0  0  0  0  0  0  0  0
  -25.7265   -1.9288  -10.8726 C   0  0  0  0  0  0  0  0  0  0  0  0
  -29.6464   -6.9859   -5.4469 N   0  0  0  0  0  0  0  0  0  0  0  0
  -29.0344   -7.5175   -6.0578 H   0  0  0  0  0  0  0  0  0  0  0  0
  -31.0629   -7.0063   -5.8183 C   0  0  0  0  0  0  0  0  0  0  0  0
  -31.2348   -7.5060   -7.2530 C   0  0  0  0  0  0  0  0  0  0  0  0
  -29.8800   -7.8128   -7.9125 C   0  0  0  0  0  0  0  0  0  0  0  0
  -27.2299   -9.8572  -11.4214 C   0  0  0  0  0  0  0  0  0  0  0  0
  -27.8295  -10.0495  -10.1061 N   0  0  0  0  0  0  0  0  0  0  0  0
  -27.2858   -9.0995   -9.1227 C   0  0  0  0  0  0  0  0  0  0  0  0
  -27.9262   -9.3175   -7.7327 C   0  0  0  0  0  0  0  0  0  0  0  0
  -29.4004   -9.1874   -7.7047 N   0  0  0  0  0  0  0  0  0  0  0  0
  -29.9515  -10.0865   -8.7523 C   0  0  0  0  0  0  0  0  0  0  0  0
  -29.2988   -9.9472  -10.1558 C   0  0  0  0  0  0  0  0  0  0  0  0
 27 28  1  0  0  0
 28 29  1  0  0  0
 28 33  1  0  0  0
 29 30  1  0  0  0
 30 31  1  0  0  0
 31 26  1  0  0  0
 31 32  1  0  0  0
 26 25  1  0  0  0
 25 24  1  0  0  0
 24 22  1  0  0  0
 22  1  1  0  0  0
 22 23  1  0  0  0
  1  2  1  0  0  0
  1  6  2  0  0  0
  2  3  2  0  0  0
  3  4  1  0  0  0
  4  5  2  0  0  0
  5  7  1  0  0  0
  5  6  1  0  0  0
  7  8  1  0  0  0
  7 12  2  0  0  0
  8  9  2  0  0  0
  9 10  1  0  0  0
 10 11  2  0  0  0
 11 13  1  0  0  0
 11 12  1  0  0  0
 13 15  1  0  0  0
 13 14  1  0  0  0
 15 16  1  0  0  0
 15 21  2  0  0  0
 16 17  2  0  0  0
 17 18  1  0  0  0
 18 19  2  0  0  0
 19 20  1  0  0  0
 19 21  1  0  0  0
 32 33  1  0  0  0
M  END
> <minimizedAffinity>
-8.24059

$$$$
