CHEMBL3690592


 36 39  0  0  0  0  0  0  0  0999 V2000
  -29.5724   -2.5553   -5.4686 C   0  0  0  0  0  0  0  0  0  0  0  0
  -29.3485   -1.2725   -4.9911 C   0  0  0  0  0  0  0  0  0  0  0  0
  -28.5912   -0.5248   -5.8508 N   0  0  0  0  0  0  0  0  0  0  0  0
  -28.3480   -1.3145   -6.8721 C   0  0  0  0  0  0  0  0  0  0  0  0
  -27.6074   -1.0819   -8.0684 C   0  0  0  0  0  0  0  0  0  0  0  0
  -27.4988   -2.0356   -9.0271 C   0  0  0  0  0  0  0  0  0  0  0  0
  -28.1783   -3.3205   -8.8181 C   0  0  0  0  0  0  0  0  0  0  0  0
  -28.8898   -3.5414   -7.7057 C   0  0  0  0  0  0  0  0  0  0  0  0
  -28.9543   -2.5580   -6.7168 N   0  0  0  0  0  0  0  0  0  0  0  0
  -30.8145   -6.0656   -4.7385 C   0  0  0  0  0  0  0  0  0  0  0  0
  -31.5613   -5.8309   -3.5850 C   0  0  0  0  0  0  0  0  0  0  0  0
  -31.7569   -4.5362   -3.1175 C   0  0  0  0  0  0  0  0  0  0  0  0
  -31.1735   -3.4626   -3.7838 C   0  0  0  0  0  0  0  0  0  0  0  0
  -30.3197   -3.6710   -4.8728 C   0  0  0  0  0  0  0  0  0  0  0  0
  -30.1842   -4.9787   -5.3711 C   0  0  0  0  0  0  0  0  0  0  0  0
  -31.0189   -6.9278   -7.5785 O   0  0  0  0  0  0  0  0  0  0  0  0
  -30.7620   -7.6758   -6.6451 C   0  0  0  0  0  0  0  0  0  0  0  0
  -30.5099   -9.0153   -6.8564 N   0  0  0  0  0  0  0  0  0  0  0  0
  -30.6576   -7.3467   -5.3111 N   0  0  0  0  0  0  0  0  0  0  0  0
  -30.7414   -9.6307   -6.0892 H   0  0  0  0  0  0  0  0  0  0  0  0
  -30.3671   -8.0848   -4.6891 H   0  0  0  0  0  0  0  0  0  0  0  0
  -30.7164   -9.5625   -8.2030 C   0  0  0  0  0  0  0  0  0  0  0  0
  -29.4390   -9.7256   -9.0389 C   0  0  0  0  0  0  0  0  0  0  0  0
  -28.5544  -10.5641   -8.4491 F   0  0  0  0  0  0  0  0  0  0  0  0
  -29.6895  -10.1844  -10.2814 F   0  0  0  0  0  0  0  0  0  0  0  0
  -28.8136   -8.5284   -9.1655 F   0  0  0  0  0  0  0  0  0  0  0  0
  -26.7330   -1.7419  -10.2689 C   0  0  0  0  0  0  0  0  0  0  0  0
  -27.3883   -1.7373  -11.4424 N   0  0  0  0  0  0  0  0  0  0  0  0
  -26.6551   -1.5119  -12.5477 C   0  0  0  0  0  0  0  0  0  0  0  0
  -25.2980   -1.2899  -12.5296 C   0  0  0  0  0  0  0  0  0  0  0  0
  -24.7180   -1.3023  -11.2821 C   0  0  0  0  0  0  0  0  0  0  0  0
  -25.4073   -1.5221  -10.1440 N   0  0  0  0  0  0  0  0  0  0  0  0
  -24.5047   -1.0622  -13.7617 C   0  0  0  0  0  0  0  0  0  0  0  0
  -24.2017    0.2475  -13.9764 F   0  0  0  0  0  0  0  0  0  0  0  0
  -23.3156   -1.7231  -13.7438 F   0  0  0  0  0  0  0  0  0  0  0  0
  -25.1513   -1.4842  -14.8812 F   0  0  0  0  0  0  0  0  0  0  0  0
 16 17  2  0  0  0
 17 18  1  0  0  0
 17 19  1  0  0  0
 18 22  1  0  0  0
 18 20  1  0  0  0
 22 23  1  0  0  0
 23 24  1  0  0  0
 23 25  1  0  0  0
 23 26  1  0  0  0
 19 10  1  0  0  0
 19 21  1  0  0  0
 10 11  1  0  0  0
 10 15  2  0  0  0
 11 12  2  0  0  0
 12 13  1  0  0  0
 13 14  2  0  0  0
 14  1  1  0  0  0
 14 15  1  0  0  0
  1  2  2  0  0  0
  1  9  1  0  0  0
  2  3  1  0  0  0
  3  4  2  0  0  0
  4  5  1  0  0  0
  4  9  1  0  0  0
  5  6  2  0  0  0
  6 27  1  0  0  0
  6  7  1  0  0  0
 27 28  1  0  0  0
 27 32  2  0  0  0
 28 29  2  0  0  0
 29 30  1  0  0  0
 30 33  1  0  0  0
 30 31  2  0  0  0
 33 34  1  0  0  0
 33 35  1  0  0  0
 33 36  1  0  0  0
 31 32  1  0  0  0
  7  8  2  0  0  0
  8  9  1  0  0  0
M  END
> <minimizedAffinity>
-10.71467

$$$$
