CHEMBL3808450


 33 37  0  0  0  0  0  0  0  0999 V2000
  -18.2532    2.6391  -15.0647 C   0  0  0  0  0  0  0  0  0  0  0  0
  -17.7634    3.3202  -16.1660 C   0  0  0  0  0  0  0  0  0  0  0  0
  -16.4300    3.0962  -16.3640 N   0  0  0  0  0  0  0  0  0  0  0  0
  -16.0799    2.2526  -15.4176 C   0  0  0  0  0  0  0  0  0  0  0  0
  -14.8314    1.6175  -15.1547 C   0  0  0  0  0  0  0  0  0  0  0  0
  -14.6973    0.7747  -14.1133 C   0  0  0  0  0  0  0  0  0  0  0  0
  -15.8432    0.4772  -13.2518 C   0  0  0  0  0  0  0  0  0  0  0  0
  -17.0230    1.0749  -13.4943 C   0  0  0  0  0  0  0  0  0  0  0  0
  -17.1526    1.9451  -14.5783 N   0  0  0  0  0  0  0  0  0  0  0  0
  -20.1972    1.3156  -14.6913 N   0  0  0  0  0  0  0  0  0  0  0  0
  -19.5955    2.5559  -14.5372 C   0  0  0  0  0  0  0  0  0  0  0  0
  -20.1305    3.5260  -14.0154 O   0  0  0  0  0  0  0  0  0  0  0  0
  -19.7328    0.5941  -15.2173 H   0  0  0  0  0  0  0  0  0  0  0  0
  -23.2306   -0.1061  -13.4807 C   0  0  0  0  0  0  0  0  0  0  0  0
  -21.9145   -0.2782  -13.8557 C   0  0  0  0  0  0  0  0  0  0  0  0
  -21.4656    1.0209  -14.2180 C   0  0  0  0  0  0  0  0  0  0  0  0
  -22.4431    1.9099  -14.0339 N   0  0  0  0  0  0  0  0  0  0  0  0
  -23.5337    1.2162  -13.5844 O   0  0  0  0  0  0  0  0  0  0  0  0
  -25.2430   -0.3003  -12.0249 C   0  0  0  0  0  0  0  0  0  0  0  0
  -24.3382   -1.0241  -13.0363 C   0  0  0  0  0  0  0  0  0  0  0  0
  -23.7307   -2.2737  -12.3751 C   0  0  0  0  0  0  0  0  0  0  0  0
  -25.2056   -1.4786  -14.2285 C   0  0  0  0  0  0  0  0  0  0  0  0
  -13.5042    0.0834  -13.9315 O   0  0  0  0  0  0  0  0  0  0  0  0
  -13.5013   -1.2969  -13.8472 C   0  0  0  0  0  0  0  0  0  0  0  0
  -13.5671   -1.8998  -12.6406 N   0  0  0  0  0  0  0  0  0  0  0  0
  -13.5580   -3.2473  -12.6499 C   0  0  0  0  0  0  0  0  0  0  0  0
  -13.4503   -4.0389  -13.7299 N   0  0  0  0  0  0  0  0  0  0  0  0
  -13.3598   -3.3699  -14.8867 C   0  0  0  0  0  0  0  0  0  0  0  0
  -13.3824   -2.0061  -15.0061 C   0  0  0  0  0  0  0  0  0  0  0  0
  -13.2874   -1.5956  -16.4213 C   0  0  0  0  0  0  0  0  0  0  0  0
  -13.1875   -2.8474  -17.2152 N   0  0  0  0  0  0  0  0  0  0  0  0
  -13.2008   -3.9797  -16.2491 C   0  0  0  0  0  0  0  0  0  0  0  0
  -12.2944   -2.8545  -17.7060 H   0  0  0  0  0  0  0  0  0  0  0  0
 19 20  1  0  0  0
 20 21  1  0  0  0
 20 22  1  0  0  0
 20 14  1  0  0  0
 14 15  2  0  0  0
 14 18  1  0  0  0
 15 16  1  0  0  0
 16 10  1  0  0  0
 16 17  2  0  0  0
 10 11  1  0  0  0
 10 13  1  0  0  0
 11 12  2  0  0  0
 11  1  1  0  0  0
  1  2  2  0  0  0
  1  9  1  0  0  0
  2  3  1  0  0  0
  3  4  2  0  0  0
  4  5  1  0  0  0
  4  9  1  0  0  0
  5  6  2  0  0  0
  6 23  1  0  0  0
  6  7  1  0  0  0
 23 24  1  0  0  0
 24 25  1  0  0  0
 24 29  2  0  0  0
 25 26  2  0  0  0
 26 27  1  0  0  0
 27 28  2  0  0  0
 28 29  1  0  0  0
 28 32  1  0  0  0
 29 30  1  0  0  0
 30 31  1  0  0  0
 31 32  1  0  0  0
 31 33  1  0  0  0
  7  8  2  0  0  0
  8  9  1  0  0  0
 17 18  1  0  0  0
M  END
> <minimizedAffinity>
-8.81751

$$$$
