CHEMBL1289601


 34 37  0  0  0  0  0  0  0  0999 V2000
  -29.0475   -1.9487   -5.8814 C   0  0  0  0  0  0  0  0  0  0  0  0
  -29.8472   -2.2712   -4.7726 C   0  0  0  0  0  0  0  0  0  0  0  0
  -30.3914   -3.5330   -4.5734 C   0  0  0  0  0  0  0  0  0  0  0  0
  -31.1228   -3.7237   -3.4634 N   0  0  0  0  0  0  0  0  0  0  0  0
  -31.6202   -4.9526   -3.2261 C   0  0  0  0  0  0  0  0  0  0  0  0
  -31.4294   -6.0250   -4.0686 C   0  0  0  0  0  0  0  0  0  0  0  0
  -30.6825   -5.8259   -5.2282 C   0  0  0  0  0  0  0  0  0  0  0  0
  -30.1277   -4.5505   -5.5081 C   0  0  0  0  0  0  0  0  0  0  0  0
  -29.3092   -4.2307   -6.6180 C   0  0  0  0  0  0  0  0  0  0  0  0
  -28.7684   -2.9521   -6.8198 C   0  0  0  0  0  0  0  0  0  0  0  0
  -27.9086   -2.8066   -8.0419 C   0  0  0  0  0  0  0  0  0  0  0  0
  -27.6802   -3.9079   -8.8095 N   0  0  0  0  0  0  0  0  0  0  0  0
  -27.4386   -1.7296   -8.3741 O   0  0  0  0  0  0  0  0  0  0  0  0
  -28.0737   -4.8100   -8.5811 H   0  0  0  0  0  0  0  0  0  0  0  0
  -27.1573   -3.7871   -9.6648 H   0  0  0  0  0  0  0  0  0  0  0  0
  -27.5194   -0.3014   -5.0864 C   0  0  0  0  0  0  0  0  0  0  0  0
  -28.4895   -0.7051   -6.0534 O   0  0  0  0  0  0  0  0  0  0  0  0
  -30.3939   -6.9902   -5.9125 O   0  0  0  0  0  0  0  0  0  0  0  0
  -29.4255   -7.8641   -5.4835 C   0  0  0  0  0  0  0  0  0  0  0  0
  -29.0446   -8.0558   -4.1616 C   0  0  0  0  0  0  0  0  0  0  0  0
  -28.0884   -9.0215   -3.8478 C   0  0  0  0  0  0  0  0  0  0  0  0
  -27.4098   -9.7341   -4.8427 C   0  0  0  0  0  0  0  0  0  0  0  0
  -27.7926   -9.5272   -6.1765 C   0  0  0  0  0  0  0  0  0  0  0  0
  -27.0172  -10.3684   -7.4743 Cl  0  0  0  0  0  0  0  0  0  0  0  0
  -28.7963   -8.6021   -6.4922 C   0  0  0  0  0  0  0  0  0  0  0  0
  -26.3474  -10.6280   -4.5306 N   0  0  0  0  0  0  0  0  0  0  0  0
  -25.0302  -10.2406   -4.3809 C   0  0  0  0  0  0  0  0  0  0  0  0
  -24.6011   -9.0945   -4.5204 O   0  0  0  0  0  0  0  0  0  0  0  0
  -24.1820  -11.2720   -4.0426 N   0  0  0  0  0  0  0  0  0  0  0  0
  -26.5486  -11.6095   -4.6179 H   0  0  0  0  0  0  0  0  0  0  0  0
  -24.4812  -12.2263   -4.1879 H   0  0  0  0  0  0  0  0  0  0  0  0
  -22.7828  -11.0030   -3.8817 C   0  0  0  0  0  0  0  0  0  0  0  0
  -21.7495  -12.0841   -3.8074 C   0  0  0  0  0  0  0  0  0  0  0  0
  -22.1059  -11.3089   -2.5731 C   0  0  0  0  0  0  0  0  0  0  0  0
 16 17  1  0  0  0
 17  1  1  0  0  0
  1  2  1  0  0  0
  1 10  2  0  0  0
  2  3  2  0  0  0
  3  4  1  0  0  0
  3  8  1  0  0  0
  4  5  2  0  0  0
  5  6  1  0  0  0
  6  7  2  0  0  0
  7 18  1  0  0  0
  7  8  1  0  0  0
 18 19  1  0  0  0
 19 20  1  0  0  0
 19 25  2  0  0  0
 20 21  2  0  0  0
 21 22  1  0  0  0
 22 26  1  0  0  0
 22 23  2  0  0  0
 26 27  1  0  0  0
 26 30  1  0  0  0
 27 28  2  0  0  0
 27 29  1  0  0  0
 29 32  1  0  0  0
 29 31  1  0  0  0
 32 33  1  0  0  0
 32 34  1  0  0  0
 33 34  1  0  0  0
 23 24  1  0  0  0
 23 25  1  0  0  0
  8  9  2  0  0  0
  9 10  1  0  0  0
 10 11  1  0  0  0
 11 12  1  0  0  0
 11 13  2  0  0  0
 12 14  1  0  0  0
 12 15  1  0  0  0
M  END
> <minimizedAffinity>
-8.76327

$$$$
