CHEMBL3690578


 31 34  0  0  0  0  0  0  0  0999 V2000
  -29.2939   -2.7954   -5.3246 C   0  0  0  0  0  0  0  0  0  0  0  0
  -29.1419   -1.4927   -4.8698 C   0  0  0  0  0  0  0  0  0  0  0  0
  -28.5185   -0.6909   -5.7845 N   0  0  0  0  0  0  0  0  0  0  0  0
  -28.2917   -1.4687   -6.8184 C   0  0  0  0  0  0  0  0  0  0  0  0
  -27.6498   -1.1883   -8.0577 C   0  0  0  0  0  0  0  0  0  0  0  0
  -27.5369   -2.1375   -9.0193 C   0  0  0  0  0  0  0  0  0  0  0  0
  -28.1171   -3.4656   -8.7737 C   0  0  0  0  0  0  0  0  0  0  0  0
  -28.7364   -3.7302   -7.6143 C   0  0  0  0  0  0  0  0  0  0  0  0
  -28.7918   -2.7534   -6.6201 N   0  0  0  0  0  0  0  0  0  0  0  0
  -29.6159   -6.1409   -3.5461 C   0  0  0  0  0  0  0  0  0  0  0  0
  -30.9853   -6.1394   -3.2758 C   0  0  0  0  0  0  0  0  0  0  0  0
  -31.7920   -5.0793   -3.6862 C   0  0  0  0  0  0  0  0  0  0  0  0
  -31.2348   -4.0069   -4.3772 C   0  0  0  0  0  0  0  0  0  0  0  0
  -29.8572   -3.9588   -4.6290 C   0  0  0  0  0  0  0  0  0  0  0  0
  -29.0551   -5.0195   -4.1689 C   0  0  0  0  0  0  0  0  0  0  0  0
  -27.4071   -9.0438   -3.5652 N   0  0  0  0  0  0  0  0  0  0  0  0
  -28.1712   -8.0577   -4.1603 C   0  0  0  0  0  0  0  0  0  0  0  0
  -28.2545   -7.9559   -5.3754 O   0  0  0  0  0  0  0  0  0  0  0  0
  -28.7641   -7.2283   -3.2303 N   0  0  0  0  0  0  0  0  0  0  0  0
  -27.7651   -9.3942   -2.6891 H   0  0  0  0  0  0  0  0  0  0  0  0
  -28.3371   -7.2315   -2.3154 H   0  0  0  0  0  0  0  0  0  0  0  0
  -25.2902   -9.7719   -4.6192 C   0  0  0  0  0  0  0  0  0  0  0  0
  -26.7773   -9.9988   -4.4588 C   0  0  0  0  0  0  0  0  0  0  0  0
  -26.8624   -1.8056  -10.2995 C   0  0  0  0  0  0  0  0  0  0  0  0
  -27.5946   -1.7980  -11.4287 N   0  0  0  0  0  0  0  0  0  0  0  0
  -26.9364   -1.5161  -12.5722 C   0  0  0  0  0  0  0  0  0  0  0  0
  -25.5883   -1.2413  -12.6379 C   0  0  0  0  0  0  0  0  0  0  0  0
  -24.9392   -1.2703  -11.4228 C   0  0  0  0  0  0  0  0  0  0  0  0
  -25.5418   -1.5449  -10.2472 N   0  0  0  0  0  0  0  0  0  0  0  0
  -24.8475   -0.9559  -13.7399 O   0  0  0  0  0  0  0  0  0  0  0  0
  -23.5596   -0.3997  -13.4977 C   0  0  0  0  0  0  0  0  0  0  0  0
 22 23  1  0  0  0
 23 16  1  0  0  0
 16 17  1  0  0  0
 16 20  1  0  0  0
 17 18  2  0  0  0
 17 19  1  0  0  0
 19 10  1  0  0  0
 19 21  1  0  0  0
 10 11  1  0  0  0
 10 15  2  0  0  0
 11 12  2  0  0  0
 12 13  1  0  0  0
 13 14  2  0  0  0
 14  1  1  0  0  0
 14 15  1  0  0  0
  1  2  2  0  0  0
  1  9  1  0  0  0
  2  3  1  0  0  0
  3  4  2  0  0  0
  4  5  1  0  0  0
  4  9  1  0  0  0
  5  6  2  0  0  0
  6 24  1  0  0  0
  6  7  1  0  0  0
 24 25  1  0  0  0
 24 29  2  0  0  0
 25 26  2  0  0  0
 26 27  1  0  0  0
 27 30  1  0  0  0
 27 28  2  0  0  0
 30 31  1  0  0  0
 28 29  1  0  0  0
  7  8  2  0  0  0
  8  9  1  0  0  0
M  END
> <minimizedAffinity>
-9.24962

$$$$
