CHEMBL3928646


 37 42  0  0  0  0  0  0  0  0999 V2000
  -19.0457    1.6833  -15.4178 C   0  0  0  0  0  0  0  0  0  0  0  0
  -19.7935    2.8191  -15.6830 C   0  0  0  0  0  0  0  0  0  0  0  0
  -20.9730    3.0467  -15.0285 C   0  0  0  0  0  0  0  0  0  0  0  0
  -21.5822    2.0875  -14.2583 C   0  0  0  0  0  0  0  0  0  0  0  0
  -22.6101    2.5934  -13.5520 N   0  0  0  0  0  0  0  0  0  0  0  0
  -23.4535    1.7238  -12.9936 C   0  0  0  0  0  0  0  0  0  0  0  0
  -23.3592    0.3674  -13.2079 C   0  0  0  0  0  0  0  0  0  0  0  0
  -22.1879   -0.1589  -13.7639 N   0  0  0  0  0  0  0  0  0  0  0  0
  -21.1815    0.7465  -14.2634 C   0  0  0  0  0  0  0  0  0  0  0  0
  -19.7849    0.6095  -14.8041 C   0  0  0  0  0  0  0  0  0  0  0  0
  -24.6763   -0.3186  -13.0506 C   0  0  0  0  0  0  0  0  0  0  0  0
  -25.2537   -1.4330  -13.7204 C   0  0  0  0  0  0  0  0  0  0  0  0
  -26.2485   -2.0311  -13.0377 N   0  0  0  0  0  0  0  0  0  0  0  0
  -26.3113   -1.3535  -11.8732 N   0  0  0  0  0  0  0  0  0  0  0  0
  -25.3490   -0.3648  -11.8208 C   0  0  0  0  0  0  0  0  0  0  0  0
  -27.4390   -1.5447  -10.9539 C   0  0  0  0  0  0  0  0  0  0  0  0
  -27.2043   -1.9065   -9.4466 C   0  0  0  0  0  0  0  0  0  0  0  0
  -27.9943   -3.2024   -9.0898 C   0  0  0  0  0  0  0  0  0  0  0  0
  -28.2285   -3.4206   -7.5959 C   0  0  0  0  0  0  0  0  0  0  0  0
  -28.7622   -2.2440   -7.0013 O   0  0  0  0  0  0  0  0  0  0  0  0
  -27.8238   -1.1759   -7.0634 C   0  0  0  0  0  0  0  0  0  0  0  0
  -27.5919   -0.7504   -8.5115 C   0  0  0  0  0  0  0  0  0  0  0  0
  -17.6209    1.8311  -15.6109 N   0  0  0  0  0  0  0  0  0  0  0  0
  -15.3531   -0.1688  -13.3138 C   0  0  0  0  0  0  0  0  0  0  0  0
  -14.2629   -0.4000  -14.1600 C   0  0  0  0  0  0  0  0  0  0  0  0
  -14.2684    0.1227  -15.4444 C   0  0  0  0  0  0  0  0  0  0  0  0
  -15.3678    0.8761  -15.8778 C   0  0  0  0  0  0  0  0  0  0  0  0
  -16.4863    1.1585  -15.0639 C   0  0  0  0  0  0  0  0  0  0  0  0
  -16.4472    0.6222  -13.7603 C   0  0  0  0  0  0  0  0  0  0  0  0
  -15.5531   -2.1271  -11.9400 C   0  0  0  0  0  0  0  0  0  0  0  0
  -15.4475   -0.7010  -12.0439 O   0  0  0  0  0  0  0  0  0  0  0  0
  -13.2826   -0.0399  -16.3770 O   0  0  0  0  0  0  0  0  0  0  0  0
  -13.6913   -0.1470  -17.7318 C   0  0  0  0  0  0  0  0  0  0  0  0
  -17.2722    2.9807  -16.5626 C   0  0  0  0  0  0  0  0  0  0  0  0
  -16.5094    4.1565  -15.9436 C   0  0  0  0  0  0  0  0  0  0  0  0
  -15.6401    5.1029  -16.7786 C   0  0  0  0  0  0  0  0  0  0  0  0
  -14.9886    4.0955  -15.8901 C   0  0  0  0  0  0  0  0  0  0  0  0
 30 31  1  0  0  0
 31 24  1  0  0  0
 24 25  1  0  0  0
 24 29  2  0  0  0
 25 26  2  0  0  0
 26 32  1  0  0  0
 26 27  1  0  0  0
 32 33  1  0  0  0
 27 28  2  0  0  0
 28 23  1  0  0  0
 28 29  1  0  0  0
 23 34  1  0  0  0
 23  1  1  0  0  0
 34 35  1  0  0  0
 35 36  1  0  0  0
 35 37  1  0  0  0
 36 37  1  0  0  0
  1  2  1  0  0  0
  1 10  2  0  0  0
  2  3  2  0  0  0
  3  4  1  0  0  0
  4  5  1  0  0  0
  4  9  2  0  0  0
  5  6  2  0  0  0
  6  7  1  0  0  0
  7 11  1  0  0  0
  7  8  2  0  0  0
 11 12  1  0  0  0
 11 15  2  0  0  0
 12 13  2  0  0  0
 13 14  1  0  0  0
 14 16  1  0  0  0
 14 15  1  0  0  0
 16 17  1  0  0  0
 17 18  1  0  0  0
 17 22  1  0  0  0
 18 19  1  0  0  0
 19 20  1  0  0  0
 20 21  1  0  0  0
 21 22  1  0  0  0
  8  9  1  0  0  0
  9 10  1  0  0  0
M  END
> <minimizedAffinity>
-8.35085

$$$$
