CHEMBL2018882


 34 37  0  0  0  0  0  0  0  0999 V2000
  -28.5711   -8.3564   -4.8471 C   0  0  0  0  0  0  0  0  0  0  0  0
  -27.5708   -7.4073   -4.6556 C   0  0  0  0  0  0  0  0  0  0  0  0
  -27.9046   -6.0694   -4.4617 C   0  0  0  0  0  0  0  0  0  0  0  0
  -29.2325   -5.6368   -4.5245 C   0  0  0  0  0  0  0  0  0  0  0  0
  -30.2206   -6.5815   -4.8362 C   0  0  0  0  0  0  0  0  0  0  0  0
  -29.8920   -7.9385   -5.0031 C   0  0  0  0  0  0  0  0  0  0  0  0
  -29.6181   -4.3011   -4.2372 N   0  0  0  0  0  0  0  0  0  0  0  0
  -29.3362   -3.1960   -5.0255 C   0  0  0  0  0  0  0  0  0  0  0  0
  -28.8392   -3.2394   -6.1468 O   0  0  0  0  0  0  0  0  0  0  0  0
  -29.6304   -1.9959   -4.3858 N   0  0  0  0  0  0  0  0  0  0  0  0
  -30.1870   -4.1487   -3.4190 H   0  0  0  0  0  0  0  0  0  0  0  0
  -29.4814   -2.0084   -3.3873 H   0  0  0  0  0  0  0  0  0  0  0  0
  -29.3802   -0.7653   -5.0477 C   0  0  0  0  0  0  0  0  0  0  0  0
  -28.1076   -0.1763   -5.0293 C   0  0  0  0  0  0  0  0  0  0  0  0
  -27.8988    1.0848   -5.5882 C   0  0  0  0  0  0  0  0  0  0  0  0
  -28.9635    1.7685   -6.1666 C   0  0  0  0  0  0  0  0  0  0  0  0
  -30.2232    1.1701   -6.2097 C   0  0  0  0  0  0  0  0  0  0  0  0
  -31.6790    2.1271   -6.9476 Br  0  0  0  0  0  0  0  0  0  0  0  0
  -30.4340   -0.1055   -5.6785 C   0  0  0  0  0  0  0  0  0  0  0  0
  -28.2866   -9.7057   -4.9052 O   0  0  0  0  0  0  0  0  0  0  0  0
  -28.7496  -10.7105   -9.8562 C   0  0  0  0  0  0  0  0  0  0  0  0
  -27.4046  -10.8318   -9.4737 C   0  0  0  0  0  0  0  0  0  0  0  0
  -26.9865  -10.6440   -8.1674 C   0  0  0  0  0  0  0  0  0  0  0  0
  -25.7082  -10.9094   -7.8733 N   0  0  0  0  0  0  0  0  0  0  0  0
  -25.3560  -10.8210   -6.5877 C   0  0  0  0  0  0  0  0  0  0  0  0
  -26.1559  -10.4681   -5.5862 N   0  0  0  0  0  0  0  0  0  0  0  0
  -27.4203  -10.1257   -5.9241 C   0  0  0  0  0  0  0  0  0  0  0  0
  -27.9187  -10.2211   -7.2226 C   0  0  0  0  0  0  0  0  0  0  0  0
  -29.2434   -9.9435   -7.6279 C   0  0  0  0  0  0  0  0  0  0  0  0
  -29.6753  -10.2052   -8.9363 C   0  0  0  0  0  0  0  0  0  0  0  0
  -28.8173  -10.1141  -12.1495 C   0  0  0  0  0  0  0  0  0  0  0  0
  -29.1538  -11.0554  -11.1241 O   0  0  0  0  0  0  0  0  0  0  0  0
  -31.0070   -9.9444   -9.0879 O   0  0  0  0  0  0  0  0  0  0  0  0
  -31.7858   -9.5584   -7.9681 C   0  0  0  0  0  0  0  0  0  0  0  0
 31 32  1  0  0  0
 32 21  1  0  0  0
 21 22  1  0  0  0
 21 30  2  0  0  0
 22 23  2  0  0  0
 23 24  1  0  0  0
 23 28  1  0  0  0
 24 25  2  0  0  0
 25 26  1  0  0  0
 26 27  2  0  0  0
 27 20  1  0  0  0
 27 28  1  0  0  0
 20  1  1  0  0  0
  1  2  1  0  0  0
  1  6  2  0  0  0
  2  3  2  0  0  0
  3  4  1  0  0  0
  4  7  1  0  0  0
  4  5  2  0  0  0
  7  8  1  0  0  0
  7 11  1  0  0  0
  8  9  2  0  0  0
  8 10  1  0  0  0
 10 13  1  0  0  0
 10 12  1  0  0  0
 13 14  1  0  0  0
 13 19  2  0  0  0
 14 15  2  0  0  0
 15 16  1  0  0  0
 16 17  2  0  0  0
 17 18  1  0  0  0
 17 19  1  0  0  0
  5  6  1  0  0  0
 28 29  2  0  0  0
 29 30  1  0  0  0
 30 33  1  0  0  0
 33 34  1  0  0  0
M  END
> <minimizedAffinity>
-7.46297

$$$$
