CHEMBL1997041


 18 20  0  0  0  0  0  0  0  0999 V2000
  -29.2757   -3.8761   -5.8422 C   0  0  0  0  0  0  0  0  0  0  0  0
  -28.7586   -4.4673   -6.9581 N   0  0  0  0  0  0  0  0  0  0  0  0
  -29.1337   -5.7252   -7.2525 C   0  0  0  0  0  0  0  0  0  0  0  0
  -29.9893   -6.5112   -6.5807 N   0  0  0  0  0  0  0  0  0  0  0  0
  -30.4851   -5.8880   -5.5024 C   0  0  0  0  0  0  0  0  0  0  0  0
  -31.3910   -6.4453   -4.6435 N   0  0  0  0  0  0  0  0  0  0  0  0
  -31.7075   -5.5489   -3.6578 C   0  0  0  0  0  0  0  0  0  0  0  0
  -30.9959   -4.3935   -3.9013 C   0  0  0  0  0  0  0  0  0  0  0  0
  -30.1969   -4.6017   -5.0655 C   0  0  0  0  0  0  0  0  0  0  0  0
  -31.7649   -7.3774   -4.7509 H   0  0  0  0  0  0  0  0  0  0  0  0
  -30.4127    1.0169   -5.6009 C   0  0  0  0  0  0  0  0  0  0  0  0
  -29.4318   -0.1010   -5.4257 C   0  0  0  0  0  0  0  0  0  0  0  0
  -29.7783   -1.4304   -5.7164 C   0  0  0  0  0  0  0  0  0  0  0  0
  -28.8633   -2.4930   -5.5551 C   0  0  0  0  0  0  0  0  0  0  0  0
  -27.5639   -2.1652   -5.1258 C   0  0  0  0  0  0  0  0  0  0  0  0
  -27.2102   -0.8486   -4.8184 C   0  0  0  0  0  0  0  0  0  0  0  0
  -28.1445    0.1670   -4.9652 C   0  0  0  0  0  0  0  0  0  0  0  0
  -27.7890    1.4242   -4.6646 F   0  0  0  0  0  0  0  0  0  0  0  0
 11 12  1  0  0  0
 12 13  1  0  0  0
 12 17  2  0  0  0
 13 14  2  0  0  0
 14  1  1  0  0  0
 14 15  1  0  0  0
  1  2  1  0  0  0
  1  9  2  0  0  0
  2  3  2  0  0  0
  3  4  1  0  0  0
  4  5  2  0  0  0
  5  6  1  0  0  0
  5  9  1  0  0  0
  6  7  1  0  0  0
  6 10  1  0  0  0
  7  8  2  0  0  0
  8  9  1  0  0  0
 15 16  2  0  0  0
 16 17  1  0  0  0
 17 18  1  0  0  0
M  END
> <minimizedAffinity>
-8.36616

$$$$
