CHEMBL2036870


 26 29  0  0  0  0  0  0  0  0999 V2000
  -16.0481    0.7475  -15.3315 C   0  0  0  0  0  0  0  0  0  0  0  0
  -15.2446    1.2173  -16.3493 C   0  0  0  0  0  0  0  0  0  0  0  0
  -13.9936    0.6709  -16.4109 C   0  0  0  0  0  0  0  0  0  0  0  0
  -13.5659   -0.2763  -15.5624 N   0  0  0  0  0  0  0  0  0  0  0  0
  -14.4149   -0.6926  -14.6087 C   0  0  0  0  0  0  0  0  0  0  0  0
  -15.6519   -0.2009  -14.4533 N   0  0  0  0  0  0  0  0  0  0  0  0
  -17.0533    3.7168  -15.6655 C   0  0  0  0  0  0  0  0  0  0  0  0
  -17.8389    2.5574  -15.3193 N   0  0  0  0  0  0  0  0  0  0  0  0
  -17.4228    1.2451  -15.1939 C   0  0  0  0  0  0  0  0  0  0  0  0
  -18.4678    0.4645  -14.9470 N   0  0  0  0  0  0  0  0  0  0  0  0
  -19.5569    1.2898  -14.8528 C   0  0  0  0  0  0  0  0  0  0  0  0
  -20.8951    0.9782  -14.5682 C   0  0  0  0  0  0  0  0  0  0  0  0
  -21.8364    2.0147  -14.5377 C   0  0  0  0  0  0  0  0  0  0  0  0
  -21.4540    3.3325  -14.7907 C   0  0  0  0  0  0  0  0  0  0  0  0
  -20.1232    3.6599  -15.0746 C   0  0  0  0  0  0  0  0  0  0  0  0
  -19.1985    2.6087  -15.0914 C   0  0  0  0  0  0  0  0  0  0  0  0
  -14.0064   -1.6701  -13.6982 N   0  0  0  0  0  0  0  0  0  0  0  0
  -13.2509   -1.3027  -13.1347 H   0  0  0  0  0  0  0  0  0  0  0  0
  -14.8255   -2.5843  -13.0092 C   0  0  0  0  0  0  0  0  0  0  0  0
  -15.4473   -3.6660  -13.6471 C   0  0  0  0  0  0  0  0  0  0  0  0
  -16.2534   -4.5584  -12.9372 C   0  0  0  0  0  0  0  0  0  0  0  0
  -16.4461   -4.3857  -11.5703 C   0  0  0  0  0  0  0  0  0  0  0  0
  -15.8371   -3.3116  -10.9301 C   0  0  0  0  0  0  0  0  0  0  0  0
  -15.9945   -3.1093   -9.5900 O   0  0  0  0  0  0  0  0  0  0  0  0
  -15.0419   -2.4105  -11.6358 C   0  0  0  0  0  0  0  0  0  0  0  0
  -16.5440   -3.8270   -9.2341 H   0  0  0  0  0  0  0  0  0  0  0  0
  7  8  1  0  0  0
  8  9  1  0  0  0
  8 16  1  0  0  0
  9  1  1  0  0  0
  9 10  2  0  0  0
  1  2  1  0  0  0
  1  6  2  0  0  0
  2  3  2  0  0  0
  3  4  1  0  0  0
  4  5  2  0  0  0
  5 17  1  0  0  0
  5  6  1  0  0  0
 17 19  1  0  0  0
 17 18  1  0  0  0
 19 20  1  0  0  0
 19 25  2  0  0  0
 20 21  2  0  0  0
 21 22  1  0  0  0
 22 23  2  0  0  0
 23 24  1  0  0  0
 23 25  1  0  0  0
 24 26  1  0  0  0
 10 11  1  0  0  0
 11 12  1  0  0  0
 11 16  2  0  0  0
 12 13  2  0  0  0
 13 14  1  0  0  0
 14 15  2  0  0  0
 15 16  1  0  0  0
M  END
> <minimizedAffinity>
-8.57329

$$$$
