CHEMBL406845


 23 25  0  0  0  0  0  0  0  0999 V2000
  -28.9776   -2.7130   -5.9279 N   0  0  0  0  0  0  0  0  0  0  0  0
  -28.8415   -3.6902   -6.8574 N   0  0  0  0  0  0  0  0  0  0  0  0
  -29.5754   -4.7193   -6.3894 C   0  0  0  0  0  0  0  0  0  0  0  0
  -30.1520   -4.4058   -5.1207 C   0  0  0  0  0  0  0  0  0  0  0  0
  -30.9457   -5.0128   -4.1294 C   0  0  0  0  0  0  0  0  0  0  0  0
  -31.4172   -6.3195   -4.1539 N   0  0  0  0  0  0  0  0  0  0  0  0
  -31.2827   -4.3042   -3.0325 N   0  0  0  0  0  0  0  0  0  0  0  0
  -30.8322   -3.0445   -2.9190 C   0  0  0  0  0  0  0  0  0  0  0  0
  -30.0560   -2.3697   -3.7757 N   0  0  0  0  0  0  0  0  0  0  0  0
  -29.7508   -3.1034   -4.8606 C   0  0  0  0  0  0  0  0  0  0  0  0
  -30.7614   -6.9904   -4.5345 H   0  0  0  0  0  0  0  0  0  0  0  0
  -31.7939   -6.5620   -3.2435 H   0  0  0  0  0  0  0  0  0  0  0  0
  -29.6525   -5.9800   -7.1435 C   0  0  0  0  0  0  0  0  0  0  0  0
  -28.5228   -6.4844   -7.8063 C   0  0  0  0  0  0  0  0  0  0  0  0
  -28.5502   -7.7511   -8.4036 C   0  0  0  0  0  0  0  0  0  0  0  0
  -29.7065   -8.5244   -8.3349 C   0  0  0  0  0  0  0  0  0  0  0  0
  -29.7178  -10.1171   -8.9834 Cl  0  0  0  0  0  0  0  0  0  0  0  0
  -30.8540   -8.0157   -7.7355 C   0  0  0  0  0  0  0  0  0  0  0  0
  -30.8343   -6.7342   -7.1769 C   0  0  0  0  0  0  0  0  0  0  0  0
  -29.3569   -0.2352   -5.8974 C   0  0  0  0  0  0  0  0  0  0  0  0
  -28.3510   -1.3888   -6.1183 C   0  0  0  0  0  0  0  0  0  0  0  0
  -27.8033   -1.2450   -7.5536 C   0  0  0  0  0  0  0  0  0  0  0  0
  -27.2041   -1.2051   -5.1048 C   0  0  0  0  0  0  0  0  0  0  0  0
 20 21  1  0  0  0
 21 22  1  0  0  0
 21 23  1  0  0  0
 21  1  1  0  0  0
  1  2  1  0  0  0
  1 10  1  0  0  0
  2  3  2  0  0  0
  3 13  1  0  0  0
  3  4  1  0  0  0
 13 14  1  0  0  0
 13 19  2  0  0  0
 14 15  2  0  0  0
 15 16  1  0  0  0
 16 17  1  0  0  0
 16 18  2  0  0  0
 18 19  1  0  0  0
  4  5  1  0  0  0
  4 10  2  0  0  0
  5  6  1  0  0  0
  5  7  2  0  0  0
  6 11  1  0  0  0
  6 12  1  0  0  0
  7  8  1  0  0  0
  8  9  2  0  0  0
  9 10  1  0  0  0
M  END
> <minimizedAffinity>
-8.09769

$$$$
