CHEMBL3978551


 37 40  0  0  0  0  0  0  0  0999 V2000
  -29.4175   -6.3449   -5.3659 C   0  0  0  0  0  0  0  0  0  0  0  0
  -28.2622   -6.0159   -4.6495 C   0  0  0  0  0  0  0  0  0  0  0  0
  -28.0152   -4.7065   -4.2273 C   0  0  0  0  0  0  0  0  0  0  0  0
  -28.9507   -3.7023   -4.4673 C   0  0  0  0  0  0  0  0  0  0  0  0
  -30.0864   -4.0176   -5.2135 C   0  0  0  0  0  0  0  0  0  0  0  0
  -30.9794   -3.0633   -5.5154 F   0  0  0  0  0  0  0  0  0  0  0  0
  -30.3255   -5.3228   -5.6606 C   0  0  0  0  0  0  0  0  0  0  0  0
  -27.9312   -7.9325   -7.2987 O   0  0  0  0  0  0  0  0  0  0  0  0
  -28.9741   -8.3385   -6.8022 C   0  0  0  0  0  0  0  0  0  0  0  0
  -29.5984   -9.5205   -7.1759 N   0  0  0  0  0  0  0  0  0  0  0  0
  -29.6944   -7.6527   -5.8366 N   0  0  0  0  0  0  0  0  0  0  0  0
  -30.5296   -9.6741   -6.8232 H   0  0  0  0  0  0  0  0  0  0  0  0
  -30.4310   -8.1590   -5.3667 H   0  0  0  0  0  0  0  0  0  0  0  0
  -29.1593  -10.3969   -8.1999 C   0  0  0  0  0  0  0  0  0  0  0  0
  -28.6463  -11.6756   -7.9610 C   0  0  0  0  0  0  0  0  0  0  0  0
  -28.1575  -12.4627   -9.0054 C   0  0  0  0  0  0  0  0  0  0  0  0
  -28.1920  -11.9874  -10.3116 C   0  0  0  0  0  0  0  0  0  0  0  0
  -28.7364  -10.7264  -10.5860 C   0  0  0  0  0  0  0  0  0  0  0  0
  -29.2233   -9.9405   -9.5219 C   0  0  0  0  0  0  0  0  0  0  0  0
  -28.7953  -10.2006  -11.9952 C   0  0  0  0  0  0  0  0  0  0  0  0
  -29.0475  -11.1599  -12.9307 F   0  0  0  0  0  0  0  0  0  0  0  0
  -29.7675   -9.2595  -12.1571 F   0  0  0  0  0  0  0  0  0  0  0  0
  -27.6331   -9.6033  -12.3785 F   0  0  0  0  0  0  0  0  0  0  0  0
  -28.7891   -2.4007   -4.0393 O   0  0  0  0  0  0  0  0  0  0  0  0
  -28.6897   -1.3975   -4.9840 C   0  0  0  0  0  0  0  0  0  0  0  0
  -29.2358   -0.1291   -4.8104 C   0  0  0  0  0  0  0  0  0  0  0  0
  -29.0247    0.8002   -5.8028 C   0  0  0  0  0  0  0  0  0  0  0  0
  -28.3727    0.5260   -6.9455 N   0  0  0  0  0  0  0  0  0  0  0  0
  -27.9059   -0.7176   -7.1449 C   0  0  0  0  0  0  0  0  0  0  0  0
  -28.0405   -1.7121   -6.1805 C   0  0  0  0  0  0  0  0  0  0  0  0
  -27.2778   -1.0318   -8.3620 N   0  0  0  0  0  0  0  0  0  0  0  0
  -27.7194   -2.0158   -9.2249 C   0  0  0  0  0  0  0  0  0  0  0  0
  -28.7122   -2.7203   -9.1182 O   0  0  0  0  0  0  0  0  0  0  0  0
  -26.4370   -0.5283   -8.5957 H   0  0  0  0  0  0  0  0  0  0  0  0
  -26.8185   -2.2214  -10.4043 C   0  0  0  0  0  0  0  0  0  0  0  0
  -26.0344   -1.0573  -10.9746 C   0  0  0  0  0  0  0  0  0  0  0  0
  -27.2066   -1.6082  -11.7322 C   0  0  0  0  0  0  0  0  0  0  0  0
  8  9  2  0  0  0
  9 10  1  0  0  0
  9 11  1  0  0  0
 10 14  1  0  0  0
 10 12  1  0  0  0
 14 15  1  0  0  0
 14 19  2  0  0  0
 15 16  2  0  0  0
 16 17  1  0  0  0
 17 18  2  0  0  0
 18 20  1  0  0  0
 18 19  1  0  0  0
 20 21  1  0  0  0
 20 22  1  0  0  0
 20 23  1  0  0  0
 11  1  1  0  0  0
 11 13  1  0  0  0
  1  2  1  0  0  0
  1  7  2  0  0  0
  2  3  2  0  0  0
  3  4  1  0  0  0
  4 24  1  0  0  0
  4  5  2  0  0  0
 24 25  1  0  0  0
 25 26  1  0  0  0
 25 30  2  0  0  0
 26 27  2  0  0  0
 27 28  1  0  0  0
 28 29  2  0  0  0
 29 31  1  0  0  0
 29 30  1  0  0  0
 31 32  1  0  0  0
 31 34  1  0  0  0
 32 33  2  0  0  0
 32 35  1  0  0  0
 35 36  1  0  0  0
 35 37  1  0  0  0
 36 37  1  0  0  0
  5  6  1  0  0  0
  5  7  1  0  0  0
M  END
> <minimizedAffinity>
-8.89734

$$$$
