CHEMBL1972576


 35 38  0  0  0  0  0  0  0  0999 V2000
  -19.7875    1.2233  -15.1690 C   0  0  0  0  0  0  0  0  0  0  0  0
  -19.9825    2.5699  -15.4741 C   0  0  0  0  0  0  0  0  0  0  0  0
  -18.8999    3.4423  -15.5683 C   0  0  0  0  0  0  0  0  0  0  0  0
  -17.5936    2.9974  -15.3610 C   0  0  0  0  0  0  0  0  0  0  0  0
  -17.4085    1.6596  -14.9762 C   0  0  0  0  0  0  0  0  0  0  0  0
  -18.5033    0.7791  -14.8605 C   0  0  0  0  0  0  0  0  0  0  0  0
  -22.8133   -0.6216  -14.4286 N   0  0  0  0  0  0  0  0  0  0  0  0
  -21.8252    0.3246  -14.2484 C   0  0  0  0  0  0  0  0  0  0  0  0
  -21.7737    1.1130  -13.3127 O   0  0  0  0  0  0  0  0  0  0  0  0
  -20.8702    0.3143  -15.2673 N   0  0  0  0  0  0  0  0  0  0  0  0
  -22.6431   -1.3471  -15.1121 H   0  0  0  0  0  0  0  0  0  0  0  0
  -21.2519    0.1546  -16.1880 H   0  0  0  0  0  0  0  0  0  0  0  0
  -27.5435   -1.2349  -11.2016 C   0  0  0  0  0  0  0  0  0  0  0  0
  -26.3110   -1.0799  -12.0416 C   0  0  0  0  0  0  0  0  0  0  0  0
  -25.1997   -0.4143  -11.5310 C   0  0  0  0  0  0  0  0  0  0  0  0
  -24.0491   -0.2583  -12.3066 C   0  0  0  0  0  0  0  0  0  0  0  0
  -23.9670   -0.7686  -13.6081 C   0  0  0  0  0  0  0  0  0  0  0  0
  -25.0829   -1.4395  -14.1188 C   0  0  0  0  0  0  0  0  0  0  0  0
  -26.2453   -1.5919  -13.3426 C   0  0  0  0  0  0  0  0  0  0  0  0
  -16.4556    3.8305  -15.5354 N   0  0  0  0  0  0  0  0  0  0  0  0
  -15.3637    3.5413  -16.3475 C   0  0  0  0  0  0  0  0  0  0  0  0
  -15.2291    2.5054  -16.9924 O   0  0  0  0  0  0  0  0  0  0  0  0
  -16.4471    4.6988  -15.0197 H   0  0  0  0  0  0  0  0  0  0  0  0
  -14.3021    4.5471  -16.4230 C   0  0  0  0  0  0  0  0  0  0  0  0
  -13.4717    4.9138  -15.3787 C   0  0  0  0  0  0  0  0  0  0  0  0
  -12.2268    5.9809  -15.8685 S   0  0  0  0  0  0  0  0  0  0  0  0
  -12.7733    5.9819  -17.4802 C   0  0  0  0  0  0  0  0  0  0  0  0
  -12.1133    6.6812  -18.4189 N   0  0  0  0  0  0  0  0  0  0  0  0
  -12.6846    6.5796  -19.6214 C   0  0  0  0  0  0  0  0  0  0  0  0
  -13.7976    5.9069  -19.9416 N   0  0  0  0  0  0  0  0  0  0  0  0
  -14.4373    5.2244  -18.9751 C   0  0  0  0  0  0  0  0  0  0  0  0
  -15.6018    4.5736  -19.3612 N   0  0  0  0  0  0  0  0  0  0  0  0
  -13.9126    5.2147  -17.6632 C   0  0  0  0  0  0  0  0  0  0  0  0
  -15.6265    4.4491  -20.3659 H   0  0  0  0  0  0  0  0  0  0  0  0
  -15.7892    3.7244  -18.8234 H   0  0  0  0  0  0  0  0  0  0  0  0
 13 14  1  0  0  0
 14 15  1  0  0  0
 14 19  2  0  0  0
 15 16  2  0  0  0
 16 17  1  0  0  0
 17  7  1  0  0  0
 17 18  2  0  0  0
  7  8  1  0  0  0
  7 11  1  0  0  0
  8  9  2  0  0  0
  8 10  1  0  0  0
 10  1  1  0  0  0
 10 12  1  0  0  0
  1  2  1  0  0  0
  1  6  2  0  0  0
  2  3  2  0  0  0
  3  4  1  0  0  0
  4 20  1  0  0  0
  4  5  2  0  0  0
 20 21  1  0  0  0
 20 23  1  0  0  0
 21 22  2  0  0  0
 21 24  1  0  0  0
 24 25  2  0  0  0
 24 33  1  0  0  0
 25 26  1  0  0  0
 26 27  1  0  0  0
 27 28  1  0  0  0
 27 33  2  0  0  0
 28 29  2  0  0  0
 29 30  1  0  0  0
 30 31  2  0  0  0
 31 32  1  0  0  0
 31 33  1  0  0  0
 32 34  1  0  0  0
 32 35  1  0  0  0
  5  6  1  0  0  0
 18 19  1  0  0  0
M  END
> <minimizedAffinity>
-9.73274

$$$$
