CHEMBL3690453


 34 37  0  0  0  0  0  0  0  0999 V2000
  -27.4126   -2.0977   -9.1940 C   0  0  0  0  0  0  0  0  0  0  0  0
  -28.0299   -3.4115   -8.9521 C   0  0  0  0  0  0  0  0  0  0  0  0
  -28.6485   -3.6670   -7.7856 C   0  0  0  0  0  0  0  0  0  0  0  0
  -28.7416   -2.6653   -6.8224 N   0  0  0  0  0  0  0  0  0  0  0  0
  -29.3241   -2.6443   -5.5580 C   0  0  0  0  0  0  0  0  0  0  0  0
  -29.0243   -1.3740   -5.0780 C   0  0  0  0  0  0  0  0  0  0  0  0
  -28.3270   -0.6238   -5.9774 N   0  0  0  0  0  0  0  0  0  0  0  0
  -28.1780   -1.4021   -7.0103 C   0  0  0  0  0  0  0  0  0  0  0  0
  -27.5218   -1.1418   -8.2463 C   0  0  0  0  0  0  0  0  0  0  0  0
  -24.7103   -1.4116  -11.5229 C   0  0  0  0  0  0  0  0  0  0  0  0
  -25.3754   -1.2017  -12.7217 C   0  0  0  0  0  0  0  0  0  0  0  0
  -26.7239   -1.2595  -12.8245 N   0  0  0  0  0  0  0  0  0  0  0  0
  -27.3713   -1.5459  -11.6699 C   0  0  0  0  0  0  0  0  0  0  0  0
  -26.7139   -1.7808  -10.4599 C   0  0  0  0  0  0  0  0  0  0  0  0
  -25.3647   -1.6989  -10.3762 N   0  0  0  0  0  0  0  0  0  0  0  0
  -22.8496   -0.4175  -12.5072 C   0  0  0  0  0  0  0  0  0  0  0  0
  -23.3357   -1.3180  -11.5136 O   0  0  0  0  0  0  0  0  0  0  0  0
  -30.0676   -3.7082   -4.8681 C   0  0  0  0  0  0  0  0  0  0  0  0
  -30.8966   -3.3311   -3.7995 C   0  0  0  0  0  0  0  0  0  0  0  0
  -31.6952   -4.2615   -3.1526 C   0  0  0  0  0  0  0  0  0  0  0  0
  -31.6909   -5.5848   -3.5741 C   0  0  0  0  0  0  0  0  0  0  0  0
  -30.9177   -5.9979   -4.6615 C   0  0  0  0  0  0  0  0  0  0  0  0
  -30.0800   -5.0551   -5.2850 C   0  0  0  0  0  0  0  0  0  0  0  0
  -30.9846   -7.3238   -5.1824 N   0  0  0  0  0  0  0  0  0  0  0  0
  -31.0370   -7.6457   -6.5163 C   0  0  0  0  0  0  0  0  0  0  0  0
  -31.0260   -6.8656   -7.4619 O   0  0  0  0  0  0  0  0  0  0  0  0
  -31.1573   -8.9930   -6.7691 N   0  0  0  0  0  0  0  0  0  0  0  0
  -30.8828   -8.0787   -4.5225 H   0  0  0  0  0  0  0  0  0  0  0  0
  -30.8427   -9.6530   -6.0732 H   0  0  0  0  0  0  0  0  0  0  0  0
  -31.2092   -9.4216   -8.1764 C   0  0  0  0  0  0  0  0  0  0  0  0
  -29.8757   -9.8194   -8.8322 C   0  0  0  0  0  0  0  0  0  0  0  0
  -29.2354   -8.7688   -9.3844 F   0  0  0  0  0  0  0  0  0  0  0  0
  -29.0421  -10.3364   -7.8899 F   0  0  0  0  0  0  0  0  0  0  0  0
  -30.0295  -10.7663   -9.7808 F   0  0  0  0  0  0  0  0  0  0  0  0
 16 17  1  0  0  0
 17 10  1  0  0  0
 10 11  1  0  0  0
 10 15  2  0  0  0
 11 12  2  0  0  0
 12 13  1  0  0  0
 13 14  2  0  0  0
 14  1  1  0  0  0
 14 15  1  0  0  0
  1  2  1  0  0  0
  1  9  2  0  0  0
  2  3  2  0  0  0
  3  4  1  0  0  0
  4  5  1  0  0  0
  4  8  1  0  0  0
  5 18  1  0  0  0
  5  6  2  0  0  0
 18 19  1  0  0  0
 18 23  2  0  0  0
 19 20  2  0  0  0
 20 21  1  0  0  0
 21 22  2  0  0  0
 22 24  1  0  0  0
 22 23  1  0  0  0
 24 25  1  0  0  0
 24 28  1  0  0  0
 25 26  2  0  0  0
 25 27  1  0  0  0
 27 30  1  0  0  0
 27 29  1  0  0  0
 30 31  1  0  0  0
 31 32  1  0  0  0
 31 33  1  0  0  0
 31 34  1  0  0  0
  6  7  1  0  0  0
  7  8  2  0  0  0
  8  9  1  0  0  0
M  END
> <minimizedAffinity>
-9.86532

$$$$
