CHEMBL3702610


 32 35  0  0  0  0  0  0  0  0999 V2000
  -28.4807   -2.0429   -6.8419 C   0  0  0  0  0  0  0  0  0  0  0  0
  -29.1774   -1.2764   -5.9091 C   0  0  0  0  0  0  0  0  0  0  0  0
  -29.8320   -1.9201   -4.8575 C   0  0  0  0  0  0  0  0  0  0  0  0
  -29.8016   -3.3189   -4.7459 C   0  0  0  0  0  0  0  0  0  0  0  0
  -29.1206   -4.1172   -5.6742 C   0  0  0  0  0  0  0  0  0  0  0  0
  -28.4545   -3.4437   -6.7032 C   0  0  0  0  0  0  0  0  0  0  0  0
  -29.1543   -5.4995   -5.6110 N   0  0  0  0  0  0  0  0  0  0  0  0
  -30.0706   -6.2054   -4.7056 C   0  0  0  0  0  0  0  0  0  0  0  0
  -31.2397   -6.7919   -5.4880 C   0  0  0  0  0  0  0  0  0  0  0  0
  -30.7495   -7.5741   -6.6759 C   0  0  0  0  0  0  0  0  0  0  0  0
  -31.5945   -8.5041   -7.1782 N   0  0  0  0  0  0  0  0  0  0  0  0
  -31.1773   -9.1975   -8.2393 C   0  0  0  0  0  0  0  0  0  0  0  0
  -32.0279  -10.1522   -8.7533 N   0  0  0  0  0  0  0  0  0  0  0  0
  -30.0098   -9.0083   -8.8622 N   0  0  0  0  0  0  0  0  0  0  0  0
  -29.1985   -8.0698   -8.3387 C   0  0  0  0  0  0  0  0  0  0  0  0
  -29.5096   -7.3082   -7.2330 C   0  0  0  0  0  0  0  0  0  0  0  0
  -28.5382   -6.3151   -6.6605 C   0  0  0  0  0  0  0  0  0  0  0  0
  -32.9809   -9.9208   -8.5072 H   0  0  0  0  0  0  0  0  0  0  0  0
  -31.8221  -10.2984   -9.7305 H   0  0  0  0  0  0  0  0  0  0  0  0
  -27.6214   -2.3508   -9.1329 N   0  0  0  0  0  0  0  0  0  0  0  0
  -27.8406   -1.4900   -8.0692 C   0  0  0  0  0  0  0  0  0  0  0  0
  -27.5564   -0.2954   -8.0430 O   0  0  0  0  0  0  0  0  0  0  0  0
  -27.9805   -3.2933   -9.0697 H   0  0  0  0  0  0  0  0  0  0  0  0
  -25.5898   -1.2962  -12.7202 C   0  0  0  0  0  0  0  0  0  0  0  0
  -26.9293   -1.6866  -12.7594 C   0  0  0  0  0  0  0  0  0  0  0  0
  -27.6085   -2.0298  -11.5895 C   0  0  0  0  0  0  0  0  0  0  0  0
  -26.9709   -2.0109  -10.3483 C   0  0  0  0  0  0  0  0  0  0  0  0
  -25.6243   -1.6339  -10.3040 C   0  0  0  0  0  0  0  0  0  0  0  0
  -24.9411   -1.2779  -11.4791 C   0  0  0  0  0  0  0  0  0  0  0  0
  -24.8664   -0.9586  -14.0010 C   0  0  0  0  0  0  0  0  0  0  0  0
  -22.8251    0.5233  -13.9781 C   0  0  0  0  0  0  0  0  0  0  0  0
  -23.3423   -0.9010  -13.8417 C   0  0  0  0  0  0  0  0  0  0  0  0
 31 32  1  0  0  0
 32 30  1  0  0  0
 30 24  1  0  0  0
 24 25  1  0  0  0
 24 29  2  0  0  0
 25 26  2  0  0  0
 26 27  1  0  0  0
 27 20  1  0  0  0
 27 28  2  0  0  0
 20 21  1  0  0  0
 20 23  1  0  0  0
 21 22  2  0  0  0
 21  1  1  0  0  0
  1  2  1  0  0  0
  1  6  2  0  0  0
  2  3  2  0  0  0
  3  4  1  0  0  0
  4  5  2  0  0  0
  5  7  1  0  0  0
  5  6  1  0  0  0
  7  8  1  0  0  0
  7 17  1  0  0  0
  8  9  1  0  0  0
  9 10  1  0  0  0
 10 11  1  0  0  0
 10 16  2  0  0  0
 11 12  2  0  0  0
 12 13  1  0  0  0
 12 14  1  0  0  0
 13 18  1  0  0  0
 13 19  1  0  0  0
 14 15  2  0  0  0
 15 16  1  0  0  0
 16 17  1  0  0  0
 28 29  1  0  0  0
M  END
> <minimizedAffinity>
-9.44169

$$$$
