CHEMBL397089


 37 40  0  0  0  0  0  0  0  0999 V2000
  -26.9931   -1.6163   -9.1595 C   0  0  0  0  0  0  0  0  0  0  0  0
  -26.1000   -0.7181   -9.7698 C   0  0  0  0  0  0  0  0  0  0  0  0
  -25.9996   -0.6066  -11.1567 C   0  0  0  0  0  0  0  0  0  0  0  0
  -26.8657   -1.3647  -11.9450 C   0  0  0  0  0  0  0  0  0  0  0  0
  -27.8480   -2.1639  -11.3452 C   0  0  0  0  0  0  0  0  0  0  0  0
  -27.9332   -2.2924   -9.9463 C   0  0  0  0  0  0  0  0  0  0  0  0
  -29.0377   -3.1087   -9.3414 C   0  0  0  0  0  0  0  0  0  0  0  0
  -25.0325    0.2123  -11.7930 N   0  0  0  0  0  0  0  0  0  0  0  0
  -23.9588   -0.2488  -12.5395 C   0  0  0  0  0  0  0  0  0  0  0  0
  -23.6240   -1.4195  -12.6922 O   0  0  0  0  0  0  0  0  0  0  0  0
  -25.0890    1.2033  -11.6026 H   0  0  0  0  0  0  0  0  0  0  0  0
  -23.0886    0.7758  -13.1745 C   0  0  0  0  0  0  0  0  0  0  0  0
  -23.4575    2.1186  -13.2929 C   0  0  0  0  0  0  0  0  0  0  0  0
  -22.6228    3.0062  -13.9792 C   0  0  0  0  0  0  0  0  0  0  0  0
  -21.4197    2.5613  -14.5369 C   0  0  0  0  0  0  0  0  0  0  0  0
  -21.0293    1.2215  -14.4145 C   0  0  0  0  0  0  0  0  0  0  0  0
  -21.8816    0.3341  -13.7413 C   0  0  0  0  0  0  0  0  0  0  0  0
  -19.7216    0.7211  -14.9773 C   0  0  0  0  0  0  0  0  0  0  0  0
  -19.8087   -0.5239  -15.5261 F   0  0  0  0  0  0  0  0  0  0  0  0
  -19.2434    1.5280  -15.9640 F   0  0  0  0  0  0  0  0  0  0  0  0
  -18.7362    0.6476  -14.0409 F   0  0  0  0  0  0  0  0  0  0  0  0
  -26.9337   -1.8450   -7.7857 O   0  0  0  0  0  0  0  0  0  0  0  0
  -28.5448   -1.6334   -5.9729 C   0  0  0  0  0  0  0  0  0  0  0  0
  -29.5223   -0.7849   -5.3954 C   0  0  0  0  0  0  0  0  0  0  0  0
  -29.7086    0.5249   -5.8221 C   0  0  0  0  0  0  0  0  0  0  0  0
  -28.8618    1.0030   -6.7921 C   0  0  0  0  0  0  0  0  0  0  0  0
  -27.8936    0.2583   -7.3547 N   0  0  0  0  0  0  0  0  0  0  0  0
  -27.7954   -1.0629   -7.0057 C   0  0  0  0  0  0  0  0  0  0  0  0
  -28.9419   -5.1984   -5.7631 C   0  0  0  0  0  0  0  0  0  0  0  0
  -28.1171   -5.5693   -4.7968 N   0  0  0  0  0  0  0  0  0  0  0  0
  -27.4742   -4.5723   -4.1922 C   0  0  0  0  0  0  0  0  0  0  0  0
  -27.5812   -3.2746   -4.4688 N   0  0  0  0  0  0  0  0  0  0  0  0
  -28.4240   -3.0052   -5.4583 C   0  0  0  0  0  0  0  0  0  0  0  0
  -29.1394   -3.9355   -6.1138 N   0  0  0  0  0  0  0  0  0  0  0  0
  -28.9176   -6.7896   -7.5676 C   0  0  0  0  0  0  0  0  0  0  0  0
  -29.6459   -6.1345   -6.5090 N   0  0  0  0  0  0  0  0  0  0  0  0
  -30.1346   -6.7380   -5.8574 H   0  0  0  0  0  0  0  0  0  0  0  0
 35 36  1  0  0  0
 36 29  1  0  0  0
 36 37  1  0  0  0
 29 30  1  0  0  0
 29 34  2  0  0  0
 30 31  2  0  0  0
 31 32  1  0  0  0
 32 33  2  0  0  0
 33 23  1  0  0  0
 33 34  1  0  0  0
 23 24  1  0  0  0
 23 28  2  0  0  0
 24 25  2  0  0  0
 25 26  1  0  0  0
 26 27  2  0  0  0
 27 28  1  0  0  0
 28 22  1  0  0  0
 22  1  1  0  0  0
  1  2  1  0  0  0
  1  6  2  0  0  0
  2  3  2  0  0  0
  3  8  1  0  0  0
  3  4  1  0  0  0
  8  9  1  0  0  0
  8 11  1  0  0  0
  9 10  2  0  0  0
  9 12  1  0  0  0
 12 13  1  0  0  0
 12 17  2  0  0  0
 13 14  2  0  0  0
 14 15  1  0  0  0
 15 16  2  0  0  0
 16 18  1  0  0  0
 16 17  1  0  0  0
 18 19  1  0  0  0
 18 20  1  0  0  0
 18 21  1  0  0  0
  4  5  2  0  0  0
  5  6  1  0  0  0
  6  7  1  0  0  0
M  END
> <minimizedAffinity>
-7.51522

$$$$
