CHEMBL65848


 38 43  0  0  0  0  0  0  0  0999 V2000
  -28.4923   -5.1361   -8.0711 C   0  0  0  0  0  0  0  0  0  0  0  0
  -28.3516   -4.2561   -7.0610 C   0  0  0  0  0  0  0  0  0  0  0  0
  -28.3292   -4.4858   -5.5677 C   0  0  0  0  0  0  0  0  0  0  0  0
  -28.4740   -5.5324   -4.9657 O   0  0  0  0  0  0  0  0  0  0  0  0
  -28.1014   -3.2515   -5.0019 N   0  0  0  0  0  0  0  0  0  0  0  0
  -27.9957   -2.2633   -5.9624 C   0  0  0  0  0  0  0  0  0  0  0  0
  -27.7867   -0.9830   -5.6552 N   0  0  0  0  0  0  0  0  0  0  0  0
  -27.7120   -0.1929   -6.7296 C   0  0  0  0  0  0  0  0  0  0  0  0
  -27.8274   -0.5910   -8.0111 N   0  0  0  0  0  0  0  0  0  0  0  0
  -28.0451   -1.9044   -8.2613 C   0  0  0  0  0  0  0  0  0  0  0  0
  -28.1466   -2.8001   -7.2282 C   0  0  0  0  0  0  0  0  0  0  0  0
  -28.0233   -3.0721   -4.0137 H   0  0  0  0  0  0  0  0  0  0  0  0
  -31.0771   -6.8579   -7.0584 C   0  0  0  0  0  0  0  0  0  0  0  0
  -29.7809   -7.3148   -7.6293 C   0  0  0  0  0  0  0  0  0  0  0  0
  -29.4560   -8.6759   -7.8759 C   0  0  0  0  0  0  0  0  0  0  0  0
  -28.2290   -8.7289   -8.5058 C   0  0  0  0  0  0  0  0  0  0  0  0
  -27.7302   -7.4457   -8.4537 N   0  0  0  0  0  0  0  0  0  0  0  0
  -28.6936   -6.5499   -8.0469 C   0  0  0  0  0  0  0  0  0  0  0  0
  -26.8003   -7.1943   -8.7707 H   0  0  0  0  0  0  0  0  0  0  0  0
  -27.5766   -9.9145   -9.0293 C   0  0  0  0  0  0  0  0  0  0  0  0
  -27.7334  -10.2411  -10.2064 O   0  0  0  0  0  0  0  0  0  0  0  0
  -26.7143  -10.6350   -8.2035 N   0  0  0  0  0  0  0  0  0  0  0  0
  -26.3699  -10.3400   -6.8086 C   0  0  0  0  0  0  0  0  0  0  0  0
  -24.8705  -10.4939   -6.5422 C   0  0  0  0  0  0  0  0  0  0  0  0
  -24.3796  -11.7618   -6.9895 O   0  0  0  0  0  0  0  0  0  0  0  0
  -24.6112  -11.9135   -8.3992 C   0  0  0  0  0  0  0  0  0  0  0  0
  -26.1084  -11.8674   -8.7146 C   0  0  0  0  0  0  0  0  0  0  0  0
  -28.2170   -2.3267   -9.5937 N   0  0  0  0  0  0  0  0  0  0  0  0
  -29.1860   -2.1930   -9.8647 H   0  0  0  0  0  0  0  0  0  0  0  0
  -27.3315   -2.0777  -10.6637 C   0  0  0  0  0  0  0  0  0  0  0  0
  -27.8017   -1.8150  -11.9666 C   0  0  0  0  0  0  0  0  0  0  0  0
  -26.9263   -1.5197  -13.0130 C   0  0  0  0  0  0  0  0  0  0  0  0
  -25.5713   -1.4726  -12.7396 C   0  0  0  0  0  0  0  0  0  0  0  0
  -25.0941   -1.6916  -11.4515 C   0  0  0  0  0  0  0  0  0  0  0  0
  -25.9586   -1.9755  -10.4039 C   0  0  0  0  0  0  0  0  0  0  0  0
  -23.6099   -1.5749  -11.3798 C   0  0  0  0  0  0  0  0  0  0  0  0
  -23.2039   -1.2921  -12.8337 C   0  0  0  0  0  0  0  0  0  0  0  0
  -24.4687   -1.1858  -13.7002 C   0  0  0  0  0  0  0  0  0  0  0  0
 13 14  1  0  0  0
 14 15  1  0  0  0
 14 18  2  0  0  0
 15 16  2  0  0  0
 16 20  1  0  0  0
 16 17  1  0  0  0
 20 21  2  0  0  0
 20 22  1  0  0  0
 22 23  1  0  0  0
 22 27  1  0  0  0
 23 24  1  0  0  0
 24 25  1  0  0  0
 25 26  1  0  0  0
 26 27  1  0  0  0
 17 18  1  0  0  0
 17 19  1  0  0  0
 18  1  1  0  0  0
  1  2  2  0  0  0
  2  3  1  0  0  0
  2 11  1  0  0  0
  3  4  2  0  0  0
  3  5  1  0  0  0
  5  6  1  0  0  0
  5 12  1  0  0  0
  6  7  1  0  0  0
  6 11  2  0  0  0
  7  8  2  0  0  0
  8  9  1  0  0  0
  9 10  2  0  0  0
 10 28  1  0  0  0
 10 11  1  0  0  0
 28 30  1  0  0  0
 28 29  1  0  0  0
 30 31  1  0  0  0
 30 35  2  0  0  0
 31 32  2  0  0  0
 32 33  1  0  0  0
 33 34  2  0  0  0
 33 38  1  0  0  0
 34 35  1  0  0  0
 34 36  1  0  0  0
 36 37  1  0  0  0
 37 38  1  0  0  0
M  END
> <minimizedAffinity>
-10.63900

$$$$
