CHEMBL371239


 24 27  0  0  0  0  0  0  0  0999 V2000
  -18.4745    2.0772  -15.2264 C   0  0  0  0  0  0  0  0  0  0  0  0
  -19.4410    1.1085  -14.8564 C   0  0  0  0  0  0  0  0  0  0  0  0
  -20.6636    1.6924  -14.4570 C   0  0  0  0  0  0  0  0  0  0  0  0
  -21.9032    1.4490  -13.9495 C   0  0  0  0  0  0  0  0  0  0  0  0
  -22.4647    2.7376  -13.9205 N   0  0  0  0  0  0  0  0  0  0  0  0
  -21.6184    3.7360  -14.3367 N   0  0  0  0  0  0  0  0  0  0  0  0
  -20.5561    3.0537  -14.6450 C   0  0  0  0  0  0  0  0  0  0  0  0
  -19.0891    3.7663  -15.2401 S   0  0  0  0  0  0  0  0  0  0  0  0
  -23.4054    2.9907  -13.6408 H   0  0  0  0  0  0  0  0  0  0  0  0
  -13.5303   -1.6729  -13.0427 C   0  0  0  0  0  0  0  0  0  0  0  0
  -14.5693   -1.1856  -13.9475 N   0  0  0  0  0  0  0  0  0  0  0  0
  -15.6911   -0.6272  -13.1787 C   0  0  0  0  0  0  0  0  0  0  0  0
  -16.8150   -0.1213  -14.0939 C   0  0  0  0  0  0  0  0  0  0  0  0
  -16.3418    0.8265  -15.1132 N   0  0  0  0  0  0  0  0  0  0  0  0
  -17.0832    1.8890  -15.6503 C   0  0  0  0  0  0  0  0  0  0  0  0
  -16.5565    2.6435  -16.4704 O   0  0  0  0  0  0  0  0  0  0  0  0
  -15.1136    0.4175  -15.8027 C   0  0  0  0  0  0  0  0  0  0  0  0
  -14.0371   -0.1435  -14.8504 C   0  0  0  0  0  0  0  0  0  0  0  0
  -22.5994    0.2410  -13.5166 C   0  0  0  0  0  0  0  0  0  0  0  0
  -22.3234   -0.3485  -12.2734 C   0  0  0  0  0  0  0  0  0  0  0  0
  -23.0097   -1.4925  -11.8554 C   0  0  0  0  0  0  0  0  0  0  0  0
  -23.9771   -2.0661  -12.6773 C   0  0  0  0  0  0  0  0  0  0  0  0
  -24.2459   -1.5062  -13.9224 C   0  0  0  0  0  0  0  0  0  0  0  0
  -23.5600   -0.3619  -14.3399 C   0  0  0  0  0  0  0  0  0  0  0  0
 10 11  1  0  0  0
 11 12  1  0  0  0
 11 18  1  0  0  0
 12 13  1  0  0  0
 13 14  1  0  0  0
 14 15  1  0  0  0
 14 17  1  0  0  0
 15 16  2  0  0  0
 15  1  1  0  0  0
  1  2  2  0  0  0
  1  8  1  0  0  0
  2  3  1  0  0  0
  3  4  2  0  0  0
  3  7  1  0  0  0
  4 19  1  0  0  0
  4  5  1  0  0  0
 19 20  1  0  0  0
 19 24  2  0  0  0
 20 21  2  0  0  0
 21 22  1  0  0  0
 22 23  2  0  0  0
 23 24  1  0  0  0
  5  6  1  0  0  0
  5  9  1  0  0  0
  6  7  2  0  0  0
  7  8  1  0  0  0
 17 18  1  0  0  0
M  END
> <minimizedAffinity>
-9.06697

$$$$
