CHEMBL3287304


 44 48  0  0  0  0  0  0  0  0999 V2000
  -12.2518   -4.3184  -15.1323 C   0  0  0  0  0  0  0  0  0  0  0  0
  -12.5391   -3.5273  -14.0202 C   0  0  0  0  0  0  0  0  0  0  0  0
  -13.1304   -2.2733  -14.1835 C   0  0  0  0  0  0  0  0  0  0  0  0
  -13.3825   -1.7695  -15.4590 C   0  0  0  0  0  0  0  0  0  0  0  0
  -12.9909   -2.5214  -16.5741 C   0  0  0  0  0  0  0  0  0  0  0  0
  -12.4294   -3.7934  -16.4119 C   0  0  0  0  0  0  0  0  0  0  0  0
  -14.0247   -0.5423  -15.6902 N   0  0  0  0  0  0  0  0  0  0  0  0
  -13.5844    0.7147  -15.3271 C   0  0  0  0  0  0  0  0  0  0  0  0
  -12.5538    1.0158  -14.7451 O   0  0  0  0  0  0  0  0  0  0  0  0
  -14.9624   -0.5882  -16.0806 H   0  0  0  0  0  0  0  0  0  0  0  0
  -14.5523    1.8055  -15.6823 C   0  0  0  0  0  0  0  0  0  0  0  0
  -14.5351    2.3217  -17.1280 C   0  0  0  0  0  0  0  0  0  0  0  0
  -13.9753    3.1718  -16.0325 C   0  0  0  0  0  0  0  0  0  0  0  0
  -15.8992    1.6324  -15.0678 C   0  0  0  0  0  0  0  0  0  0  0  0
  -15.9555    0.9987  -14.0107 O   0  0  0  0  0  0  0  0  0  0  0  0
  -16.9752    2.1723  -15.7406 N   0  0  0  0  0  0  0  0  0  0  0  0
  -16.8632    2.3840  -16.7230 H   0  0  0  0  0  0  0  0  0  0  0  0
  -18.2848    2.0876  -15.2212 C   0  0  0  0  0  0  0  0  0  0  0  0
  -19.0039    0.8849  -15.2704 C   0  0  0  0  0  0  0  0  0  0  0  0
  -20.3334    0.8391  -14.8527 C   0  0  0  0  0  0  0  0  0  0  0  0
  -20.9425    2.0024  -14.4046 C   0  0  0  0  0  0  0  0  0  0  0  0
  -22.2377    1.9783  -14.0637 F   0  0  0  0  0  0  0  0  0  0  0  0
  -20.2297    3.1948  -14.3136 C   0  0  0  0  0  0  0  0  0  0  0  0
  -18.8835    3.2319  -14.6890 C   0  0  0  0  0  0  0  0  0  0  0  0
  -11.7608   -5.6029  -15.0508 O   0  0  0  0  0  0  0  0  0  0  0  0
  -14.4066   -7.1733  -13.3432 C   0  0  0  0  0  0  0  0  0  0  0  0
  -14.3654   -8.4560  -13.7407 N   0  0  0  0  0  0  0  0  0  0  0  0
  -13.3933   -8.8076  -14.5921 C   0  0  0  0  0  0  0  0  0  0  0  0
  -12.4478   -7.9309  -15.0498 C   0  0  0  0  0  0  0  0  0  0  0  0
  -12.6016   -6.6227  -14.6425 C   0  0  0  0  0  0  0  0  0  0  0  0
  -13.5542   -6.2337  -13.7724 N   0  0  0  0  0  0  0  0  0  0  0  0
  -15.3989   -6.7672  -12.4473 N   0  0  0  0  0  0  0  0  0  0  0  0
  -16.2951   -7.0065  -12.8560 H   0  0  0  0  0  0  0  0  0  0  0  0
  -14.5591   -4.1086   -9.9349 C   0  0  0  0  0  0  0  0  0  0  0  0
  -15.3928   -3.0834  -10.4008 C   0  0  0  0  0  0  0  0  0  0  0  0
  -16.2331   -3.2934  -11.4950 C   0  0  0  0  0  0  0  0  0  0  0  0
  -16.2328   -4.5206  -12.1572 C   0  0  0  0  0  0  0  0  0  0  0  0
  -15.4205   -5.5665  -11.7137 C   0  0  0  0  0  0  0  0  0  0  0  0
  -14.5785   -5.3418  -10.6117 C   0  0  0  0  0  0  0  0  0  0  0  0
  -13.5700   -3.8865   -8.8165 C   0  0  0  0  0  0  0  0  0  0  0  0
  -10.9812   -3.1125   -7.9750 C   0  0  0  0  0  0  0  0  0  0  0  0
  -11.8790   -3.7061   -9.3877 S   0  0  0  0  0  0  0  0  0  0  0  0
  -11.8179   -2.6897  -10.4248 O   0  0  0  0  0  0  0  0  0  0  0  0
  -11.3817   -5.0413   -9.6687 O   0  0  0  0  0  0  0  0  0  0  0  0
 41 42  1  0  0  0
 42 43  2  0  0  0
 42 44  2  0  0  0
 42 40  1  0  0  0
 40 34  1  0  0  0
 34 35  1  0  0  0
 34 39  2  0  0  0
 35 36  2  0  0  0
 36 37  1  0  0  0
 37 38  2  0  0  0
 38 32  1  0  0  0
 38 39  1  0  0  0
 32 26  1  0  0  0
 32 33  1  0  0  0
 26 27  1  0  0  0
 26 31  2  0  0  0
 27 28  2  0  0  0
 28 29  1  0  0  0
 29 30  2  0  0  0
 30 25  1  0  0  0
 30 31  1  0  0  0
 25  1  1  0  0  0
  1  2  1  0  0  0
  1  6  2  0  0  0
  2  3  2  0  0  0
  3  4  1  0  0  0
  4  7  1  0  0  0
  4  5  2  0  0  0
  7  8  1  0  0  0
  7 10  1  0  0  0
  8  9  2  0  0  0
  8 11  1  0  0  0
 11 14  1  0  0  0
 11 12  1  0  0  0
 11 13  1  0  0  0
 14 15  2  0  0  0
 14 16  1  0  0  0
 16 18  1  0  0  0
 16 17  1  0  0  0
 18 19  1  0  0  0
 18 24  2  0  0  0
 19 20  2  0  0  0
 20 21  1  0  0  0
 21 22  1  0  0  0
 21 23  2  0  0  0
 23 24  1  0  0  0
 12 13  1  0  0  0
  5  6  1  0  0  0
M  END
> <minimizedAffinity>
-9.07492

$$$$
