CHEMBL4785657


 34 38  0  0  0  0  0  0  0  0999 V2000
  -30.1535   -5.7588   -3.8747 C   0  0  0  0  0  0  0  0  0  0  0  0
  -29.3136   -6.6026   -3.2735 N   0  0  0  0  0  0  0  0  0  0  0  0
  -28.8621   -7.6486   -3.9899 C   0  0  0  0  0  0  0  0  0  0  0  0
  -29.1489   -7.7791   -5.3310 C   0  0  0  0  0  0  0  0  0  0  0  0
  -30.0072   -6.8522   -5.8679 C   0  0  0  0  0  0  0  0  0  0  0  0
  -30.5429   -5.8653   -5.1431 N   0  0  0  0  0  0  0  0  0  0  0  0
  -30.7808   -2.6219   -2.3463 O   0  0  0  0  0  0  0  0  0  0  0  0
  -30.3238   -3.3825   -3.1894 C   0  0  0  0  0  0  0  0  0  0  0  0
  -29.5898   -3.0148   -4.2938 N   0  0  0  0  0  0  0  0  0  0  0  0
  -30.6432   -4.7132   -3.1148 N   0  0  0  0  0  0  0  0  0  0  0  0
  -29.3166   -3.7838   -4.9003 H   0  0  0  0  0  0  0  0  0  0  0  0
  -31.3379   -4.9483   -2.4278 H   0  0  0  0  0  0  0  0  0  0  0  0
  -29.2364   -1.7260   -4.7250 C   0  0  0  0  0  0  0  0  0  0  0  0
  -30.1434   -0.8118   -5.2571 C   0  0  0  0  0  0  0  0  0  0  0  0
  -29.7045    0.4460   -5.6761 C   0  0  0  0  0  0  0  0  0  0  0  0
  -28.3556    0.7864   -5.5857 C   0  0  0  0  0  0  0  0  0  0  0  0
  -27.4436   -0.1242   -5.0584 C   0  0  0  0  0  0  0  0  0  0  0  0
  -27.8850   -1.3714   -4.6172 C   0  0  0  0  0  0  0  0  0  0  0  0
  -28.0109   -8.6084   -3.4094 N   0  0  0  0  0  0  0  0  0  0  0  0
  -27.9359   -8.5570   -2.3993 H   0  0  0  0  0  0  0  0  0  0  0  0
  -26.9357   -9.2277   -4.1679 C   0  0  0  0  0  0  0  0  0  0  0  0
  -26.1448  -10.2936   -3.4646 C   0  0  0  0  0  0  0  0  0  0  0  0
  -25.4921   -8.9920   -3.8214 C   0  0  0  0  0  0  0  0  0  0  0  0
  -30.4609   -6.8726   -7.5806 S   0  0  0  0  0  0  0  0  0  0  0  0
  -31.4488   -8.3081   -7.6990 C   0  0  0  0  0  0  0  0  0  0  0  0
  -32.6660   -8.5385   -7.0952 C   0  0  0  0  0  0  0  0  0  0  0  0
  -33.0805   -9.7623   -7.5462 N   0  0  0  0  0  0  0  0  0  0  0  0
  -31.9686  -10.4855   -7.9017 C   0  0  0  0  0  0  0  0  0  0  0  0
  -31.7215  -11.8594   -7.9320 C   0  0  0  0  0  0  0  0  0  0  0  0
  -30.5009  -12.2636   -8.4779 C   0  0  0  0  0  0  0  0  0  0  0  0
  -29.6491  -11.3440   -9.0915 C   0  0  0  0  0  0  0  0  0  0  0  0
  -29.9103   -9.9697   -9.0298 C   0  0  0  0  0  0  0  0  0  0  0  0
  -31.0296   -9.5335   -8.2979 C   0  0  0  0  0  0  0  0  0  0  0  0
  -34.0362  -10.0912   -7.5897 H   0  0  0  0  0  0  0  0  0  0  0  0
  7  8  2  0  0  0
  8  9  1  0  0  0
  8 10  1  0  0  0
  9 13  1  0  0  0
  9 11  1  0  0  0
 13 14  1  0  0  0
 13 18  2  0  0  0
 14 15  2  0  0  0
 15 16  1  0  0  0
 16 17  2  0  0  0
 17 18  1  0  0  0
 10  1  1  0  0  0
 10 12  1  0  0  0
  1  2  1  0  0  0
  1  6  2  0  0  0
  2  3  2  0  0  0
  3 19  1  0  0  0
  3  4  1  0  0  0
 19 21  1  0  0  0
 19 20  1  0  0  0
 21 22  1  0  0  0
 21 23  1  0  0  0
 22 23  1  0  0  0
  4  5  2  0  0  0
  5 24  1  0  0  0
  5  6  1  0  0  0
 24 25  1  0  0  0
 25 26  2  0  0  0
 25 33  1  0  0  0
 26 27  1  0  0  0
 27 28  1  0  0  0
 27 34  1  0  0  0
 28 29  1  0  0  0
 28 33  2  0  0  0
 29 30  2  0  0  0
 30 31  1  0  0  0
 31 32  2  0  0  0
 32 33  1  0  0  0
M  END
> <minimizedAffinity>
-9.22152

$$$$
