CHEMBL3938359


 47 51  0  0  0  0  0  0  0  0999 V2000
  -16.3903   -1.5850  -14.0919 O   0  0  0  0  0  0  0  0  0  0  0  0
  -15.9303   -0.9363  -13.1612 C   0  0  0  0  0  0  0  0  0  0  0  0
  -15.9243    0.4525  -13.1165 N   0  0  0  0  0  0  0  0  0  0  0  0
  -15.3185   -1.5062  -12.0579 N   0  0  0  0  0  0  0  0  0  0  0  0
  -15.2597    0.8911  -12.4994 H   0  0  0  0  0  0  0  0  0  0  0  0
  -15.0179   -0.8855  -11.3228 H   0  0  0  0  0  0  0  0  0  0  0  0
  -15.1199   -2.8957  -11.8551 C   0  0  0  0  0  0  0  0  0  0  0  0
  -13.8667   -3.4716  -11.6104 C   0  0  0  0  0  0  0  0  0  0  0  0
  -13.7230   -4.8443  -11.3972 C   0  0  0  0  0  0  0  0  0  0  0  0
  -14.8293   -5.6872  -11.4828 C   0  0  0  0  0  0  0  0  0  0  0  0
  -16.0842   -5.1111  -11.6947 C   0  0  0  0  0  0  0  0  0  0  0  0
  -17.1795   -5.8875  -11.7250 F   0  0  0  0  0  0  0  0  0  0  0  0
  -16.2368   -3.7349  -11.8848 C   0  0  0  0  0  0  0  0  0  0  0  0
  -14.7590   -7.0502  -11.3209 O   0  0  0  0  0  0  0  0  0  0  0  0
  -13.9683   -7.7856  -12.1798 C   0  0  0  0  0  0  0  0  0  0  0  0
  -12.8431   -8.4969  -11.7669 C   0  0  0  0  0  0  0  0  0  0  0  0
  -12.1670   -9.2270  -12.7148 C   0  0  0  0  0  0  0  0  0  0  0  0
  -12.5047   -9.2456  -14.0170 N   0  0  0  0  0  0  0  0  0  0  0  0
  -13.5552   -8.5107  -14.4277 C   0  0  0  0  0  0  0  0  0  0  0  0
  -14.3126   -7.7606  -13.5369 C   0  0  0  0  0  0  0  0  0  0  0  0
  -13.9008   -8.4866  -15.7913 N   0  0  0  0  0  0  0  0  0  0  0  0
  -13.3530   -7.6070  -16.7034 C   0  0  0  0  0  0  0  0  0  0  0  0
  -12.4998   -6.7507  -16.5124 O   0  0  0  0  0  0  0  0  0  0  0  0
  -14.5932   -9.1439  -16.1050 H   0  0  0  0  0  0  0  0  0  0  0  0
  -13.9293   -7.7449  -18.0815 C   0  0  0  0  0  0  0  0  0  0  0  0
  -13.2382   -8.6170  -19.1074 C   0  0  0  0  0  0  0  0  0  0  0  0
  -13.1952   -7.1220  -19.2464 C   0  0  0  0  0  0  0  0  0  0  0  0
  -16.5395    1.2753  -14.0951 C   0  0  0  0  0  0  0  0  0  0  0  0
  -15.7952    2.0340  -15.0014 C   0  0  0  0  0  0  0  0  0  0  0  0
  -16.3902    2.8846  -15.9323 C   0  0  0  0  0  0  0  0  0  0  0  0
  -17.7796    2.9980  -15.9414 C   0  0  0  0  0  0  0  0  0  0  0  0
  -18.5627    2.1968  -15.0853 C   0  0  0  0  0  0  0  0  0  0  0  0
  -17.9296    1.3293  -14.1719 C   0  0  0  0  0  0  0  0  0  0  0  0
  -15.6205    3.6216  -16.8533 N   0  0  0  0  0  0  0  0  0  0  0  0
  -14.5917    4.5017  -16.5370 C   0  0  0  0  0  0  0  0  0  0  0  0
  -14.1531    4.7505  -15.4168 O   0  0  0  0  0  0  0  0  0  0  0  0
  -15.6927    3.4177  -17.8477 H   0  0  0  0  0  0  0  0  0  0  0  0
  -13.9918    5.2040  -17.7527 C   0  0  0  0  0  0  0  0  0  0  0  0
  -12.6295    5.7958  -17.4559 C   0  0  0  0  0  0  0  0  0  0  0  0
  -12.4705    6.8207  -18.5593 C   0  0  0  0  0  0  0  0  0  0  0  0
  -13.8896    7.2727  -18.8792 C   0  0  0  0  0  0  0  0  0  0  0  0
  -14.8034    6.3795  -18.1571 N   0  0  0  0  0  0  0  0  0  0  0  0
  -15.5453    6.0616  -18.7839 H   0  0  0  0  0  0  0  0  0  0  0  0
  -20.0692    2.2327  -15.1459 C   0  0  0  0  0  0  0  0  0  0  0  0
  -20.5647    3.2136  -15.9495 F   0  0  0  0  0  0  0  0  0  0  0  0
  -20.5927    1.0657  -15.6159 F   0  0  0  0  0  0  0  0  0  0  0  0
  -20.6364    2.4268  -13.9232 F   0  0  0  0  0  0  0  0  0  0  0  0
  1  2  2  0  0  0
  2  3  1  0  0  0
  2  4  1  0  0  0
  3 28  1  0  0  0
  3  5  1  0  0  0
 28 29  1  0  0  0
 28 33  2  0  0  0
 29 30  2  0  0  0
 30 34  1  0  0  0
 30 31  1  0  0  0
 34 35  1  0  0  0
 34 37  1  0  0  0
 35 36  2  0  0  0
 35 38  1  0  0  0
 38 39  1  0  0  0
 38 42  1  0  0  0
 39 40  1  0  0  0
 40 41  1  0  0  0
 41 42  1  0  0  0
 42 43  1  0  0  0
 31 32  2  0  0  0
 32 44  1  0  0  0
 32 33  1  0  0  0
 44 45  1  0  0  0
 44 46  1  0  0  0
 44 47  1  0  0  0
  4  7  1  0  0  0
  4  6  1  0  0  0
  7  8  1  0  0  0
  7 13  2  0  0  0
  8  9  2  0  0  0
  9 10  1  0  0  0
 10 14  1  0  0  0
 10 11  2  0  0  0
 14 15  1  0  0  0
 15 16  1  0  0  0
 15 20  2  0  0  0
 16 17  2  0  0  0
 17 18  1  0  0  0
 18 19  2  0  0  0
 19 21  1  0  0  0
 19 20  1  0  0  0
 21 22  1  0  0  0
 21 24  1  0  0  0
 22 23  2  0  0  0
 22 25  1  0  0  0
 25 26  1  0  0  0
 25 27  1  0  0  0
 26 27  1  0  0  0
 11 12  1  0  0  0
 11 13  1  0  0  0
M  END
> <minimizedAffinity>
-9.74737

$$$$
