CHEMBL4463765


 38 41  0  0  0  0  0  0  0  0999 V2000
  -23.8028   12.1864  -19.3490 C   0  0  0  0  0  0  0  0  0  0  0  0
  -22.4773   12.0209  -19.7775 C   0  0  0  0  0  0  0  0  0  0  0  0
  -21.4451   11.5993  -18.8975 C   0  0  0  0  0  0  0  0  0  0  0  0
  -20.1026   11.3801  -19.2537 C   0  0  0  0  0  0  0  0  0  0  0  0
  -19.1986   10.8937  -18.3767 N   0  0  0  0  0  0  0  0  0  0  0  0
  -19.6246   10.6537  -17.1382 C   0  0  0  0  0  0  0  0  0  0  0  0
  -20.8635   10.8636  -16.6828 N   0  0  0  0  0  0  0  0  0  0  0  0
  -21.7618   11.3215  -17.5627 C   0  0  0  0  0  0  0  0  0  0  0  0
  -23.0765   11.4963  -17.1522 C   0  0  0  0  0  0  0  0  0  0  0  0
  -24.1123   11.8889  -18.0260 C   0  0  0  0  0  0  0  0  0  0  0  0
  -24.1420   12.6382  -21.6615 C   0  0  0  0  0  0  0  0  0  0  0  0
  -24.6833   12.4770  -20.3536 O   0  0  0  0  0  0  0  0  0  0  0  0
  -19.6647   11.6817  -20.5761 N   0  0  0  0  0  0  0  0  0  0  0  0
  -19.6687   12.6884  -20.6980 H   0  0  0  0  0  0  0  0  0  0  0  0
  -18.5381   11.0673  -21.1758 C   0  0  0  0  0  0  0  0  0  0  0  0
  -18.6411    9.7748  -21.7017 C   0  0  0  0  0  0  0  0  0  0  0  0
  -17.5200    9.0995  -22.1817 C   0  0  0  0  0  0  0  0  0  0  0  0
  -16.2586    9.7050  -22.1554 C   0  0  0  0  0  0  0  0  0  0  0  0
  -15.0615    8.8993  -22.5734 C   0  0  0  0  0  0  0  0  0  0  0  0
  -16.1670   11.0317  -21.7042 C   0  0  0  0  0  0  0  0  0  0  0  0
  -14.5082   11.9605  -21.6777 Br  0  0  0  0  0  0  0  0  0  0  0  0
  -17.2981   11.7115  -21.2263 C   0  0  0  0  0  0  0  0  0  0  0  0
  -25.3276   11.8834  -17.4026 O   0  0  0  0  0  0  0  0  0  0  0  0
  -25.6936   10.8369  -16.5098 C   0  0  0  0  0  0  0  0  0  0  0  0
  -26.2181   11.2667  -15.1337 C   0  0  0  0  0  0  0  0  0  0  0  0
  -27.4565   12.0201  -15.2321 N   0  0  0  0  0  0  0  0  0  0  0  0
  -28.6569   11.4490  -14.8619 C   0  0  0  0  0  0  0  0  0  0  0  0
  -28.7344   10.2729  -14.5193 O   0  0  0  0  0  0  0  0  0  0  0  0
  -27.3925   13.0223  -15.4141 H   0  0  0  0  0  0  0  0  0  0  0  0
  -29.8591   12.3565  -14.9014 C   0  0  0  0  0  0  0  0  0  0  0  0
  -30.9198   11.8366  -14.0649 N   0  0  0  0  0  0  0  0  0  0  0  0
  -32.0812   11.2378  -14.4586 C   0  0  0  0  0  0  0  0  0  0  0  0
  -32.7972   10.9153  -13.4054 N   0  0  0  0  0  0  0  0  0  0  0  0
  -32.0126   11.3518  -12.3660 C   0  0  0  0  0  0  0  0  0  0  0  0
  -30.8478   11.9327  -12.7206 N   0  0  0  0  0  0  0  0  0  0  0  0
  -32.3909   11.1843  -10.9684 N   0  0  0  0  0  0  0  0  0  0  0  0
  -33.4318   10.5534  -10.7374 O   0  0  0  0  0  0  0  0  0  0  0  0
  -31.6482   11.6783  -10.1025 O   0  0  0  0  0  0  0  0  0  0  0  0
 11 12  1  0  0  0
 12  1  1  0  0  0
  1  2  1  0  0  0
  1 10  2  0  0  0
  2  3  2  0  0  0
  3  4  1  0  0  0
  3  8  1  0  0  0
  4 13  1  0  0  0
  4  5  2  0  0  0
 13 15  1  0  0  0
 13 14  1  0  0  0
 15 16  1  0  0  0
 15 22  2  0  0  0
 16 17  2  0  0  0
 17 18  1  0  0  0
 18 19  1  0  0  0
 18 20  2  0  0  0
 20 21  1  0  0  0
 20 22  1  0  0  0
  5  6  1  0  0  0
  6  7  2  0  0  0
  7  8  1  0  0  0
  8  9  2  0  0  0
  9 10  1  0  0  0
 10 23  1  0  0  0
 23 24  1  0  0  0
 24 25  1  0  0  0
 25 26  1  0  0  0
 26 27  1  0  0  0
 26 29  1  0  0  0
 27 28  2  0  0  0
 27 30  1  0  0  0
 30 31  1  0  0  0
 31 32  1  0  0  0
 31 35  1  0  0  0
 32 33  2  0  0  0
 33 34  1  0  0  0
 34 36  1  0  0  0
 34 35  2  0  0  0
 36 37  2  0  0  0
 36 38  1  0  0  0
M  CHG 1  36   1
M  CHG 1  38  -1
M  END
> <minimizedAffinity>
-2.37870

$$$$
