CHEMBL4094115


 43 47  0  0  0  0  0  0  0  0999 V2000
  -22.8700   -0.5426  -13.2388 C   0  0  0  0  0  0  0  0  0  0  0  0
  -22.2774   -0.2759  -12.2008 O   0  0  0  0  0  0  0  0  0  0  0  0
  -22.3881   -0.3678  -14.5326 N   0  0  0  0  0  0  0  0  0  0  0  0
  -23.0515   -0.4361  -15.2909 H   0  0  0  0  0  0  0  0  0  0  0  0
  -28.3816   -2.3571  -13.0254 C   0  0  0  0  0  0  0  0  0  0  0  0
  -26.9620   -1.8569  -13.0229 C   0  0  0  0  0  0  0  0  0  0  0  0
  -26.3057   -1.6864  -14.2485 C   0  0  0  0  0  0  0  0  0  0  0  0
  -24.9780   -1.2631  -14.2882 C   0  0  0  0  0  0  0  0  0  0  0  0
  -24.2802   -1.0009  -13.1013 C   0  0  0  0  0  0  0  0  0  0  0  0
  -24.9260   -1.1414  -11.8727 C   0  0  0  0  0  0  0  0  0  0  0  0
  -26.2635   -1.5746  -11.8304 C   0  0  0  0  0  0  0  0  0  0  0  0
  -26.8955   -1.7421  -10.5525 C   0  0  0  0  0  0  0  0  0  0  0  0
  -27.3904   -1.8773   -9.4645 C   0  0  0  0  0  0  0  0  0  0  0  0
  -27.9386   -2.0177   -8.1511 C   0  0  0  0  0  0  0  0  0  0  0  0
  -27.9581   -0.9518   -7.2685 C   0  0  0  0  0  0  0  0  0  0  0  0
  -28.5044   -1.0146   -6.0362 N   0  0  0  0  0  0  0  0  0  0  0  0
  -29.0626   -2.2033   -5.6838 C   0  0  0  0  0  0  0  0  0  0  0  0
  -29.1095   -3.3592   -6.4740 C   0  0  0  0  0  0  0  0  0  0  0  0
  -28.5134   -3.2227   -7.7382 C   0  0  0  0  0  0  0  0  0  0  0  0
  -29.7468   -4.5249   -6.0982 N   0  0  0  0  0  0  0  0  0  0  0  0
  -30.5652   -4.6103   -4.8742 C   0  0  0  0  0  0  0  0  0  0  0  0
  -30.3183   -5.9731   -4.2091 C   0  0  0  0  0  0  0  0  0  0  0  0
  -30.6257   -7.0535   -5.1069 O   0  0  0  0  0  0  0  0  0  0  0  0
  -29.8126   -6.9698   -6.2897 C   0  0  0  0  0  0  0  0  0  0  0  0
  -30.0108   -5.6342   -7.0333 C   0  0  0  0  0  0  0  0  0  0  0  0
  -21.1226    0.1927  -14.8393 C   0  0  0  0  0  0  0  0  0  0  0  0
  -20.0706   -0.5648  -15.3509 C   0  0  0  0  0  0  0  0  0  0  0  0
  -18.8027   -0.0092  -15.5160 C   0  0  0  0  0  0  0  0  0  0  0  0
  -18.5466    1.3250  -15.1752 C   0  0  0  0  0  0  0  0  0  0  0  0
  -19.6100    2.1336  -14.7169 C   0  0  0  0  0  0  0  0  0  0  0  0
  -20.8969    1.5493  -14.5776 C   0  0  0  0  0  0  0  0  0  0  0  0
  -19.4639    3.5873  -14.3014 C   0  0  0  0  0  0  0  0  0  0  0  0
  -18.4818    3.8905  -13.4147 F   0  0  0  0  0  0  0  0  0  0  0  0
  -19.2028    4.3837  -15.3815 F   0  0  0  0  0  0  0  0  0  0  0  0
  -20.6203    4.0799  -13.7678 F   0  0  0  0  0  0  0  0  0  0  0  0
  -17.1121    1.8088  -15.2759 C   0  0  0  0  0  0  0  0  0  0  0  0
  -16.1375    0.7560  -14.9950 N   0  0  0  0  0  0  0  0  0  0  0  0
  -14.8767    0.8693  -15.7435 C   0  0  0  0  0  0  0  0  0  0  0  0
  -13.9370   -0.3165  -15.4178 C   0  0  0  0  0  0  0  0  0  0  0  0
  -13.6292   -0.4873  -13.9835 N   0  0  0  0  0  0  0  0  0  0  0  0
  -12.7158    0.5484  -13.5093 C   0  0  0  0  0  0  0  0  0  0  0  0
  -14.8922   -0.4938  -13.2168 C   0  0  0  0  0  0  0  0  0  0  0  0
  -15.8668    0.6602  -13.5496 C   0  0  0  0  0  0  0  0  0  0  0  0
  5  6  1  0  0  0
  6  7  1  0  0  0
  6 11  2  0  0  0
  7  8  2  0  0  0
  8  9  1  0  0  0
  9  1  1  0  0  0
  9 10  2  0  0  0
  1  2  2  0  0  0
  1  3  1  0  0  0
  3 26  1  0  0  0
  3  4  1  0  0  0
 26 27  1  0  0  0
 26 31  2  0  0  0
 27 28  2  0  0  0
 28 29  1  0  0  0
 29 36  1  0  0  0
 29 30  2  0  0  0
 36 37  1  0  0  0
 37 38  1  0  0  0
 37 43  1  0  0  0
 38 39  1  0  0  0
 39 40  1  0  0  0
 40 41  1  0  0  0
 40 42  1  0  0  0
 42 43  1  0  0  0
 30 32  1  0  0  0
 30 31  1  0  0  0
 32 33  1  0  0  0
 32 34  1  0  0  0
 32 35  1  0  0  0
 10 11  1  0  0  0
 11 12  1  0  0  0
 12 13  3  0  0  0
 13 14  1  0  0  0
 14 15  1  0  0  0
 14 19  2  0  0  0
 15 16  2  0  0  0
 16 17  1  0  0  0
 17 18  2  0  0  0
 18 20  1  0  0  0
 18 19  1  0  0  0
 20 21  1  0  0  0
 20 25  1  0  0  0
 21 22  1  0  0  0
 22 23  1  0  0  0
 23 24  1  0  0  0
 24 25  1  0  0  0
M  END
> <minimizedAffinity>
-10.96518

$$$$
