CHEMBL4177247


 34 38  0  0  0  0  0  0  0  0999 V2000
  -29.7340   -6.3012   -6.7162 C   0  0  0  0  0  0  0  0  0  0  0  0
  -30.0760   -5.4975   -5.6215 C   0  0  0  0  0  0  0  0  0  0  0  0
  -29.7047   -4.1464   -5.5661 C   0  0  0  0  0  0  0  0  0  0  0  0
  -28.9785   -3.6440   -6.6535 C   0  0  0  0  0  0  0  0  0  0  0  0
  -28.5839   -4.4397   -7.7155 C   0  0  0  0  0  0  0  0  0  0  0  0
  -28.9335   -5.7905   -7.7444 C   0  0  0  0  0  0  0  0  0  0  0  0
  -27.8731   -3.7217   -8.6280 N   0  0  0  0  0  0  0  0  0  0  0  0
  -27.8115   -2.4861   -8.1806 C   0  0  0  0  0  0  0  0  0  0  0  0
  -28.5079   -2.3892   -6.9878 N   0  0  0  0  0  0  0  0  0  0  0  0
  -28.7982   -1.2159   -6.2020 C   0  0  0  0  0  0  0  0  0  0  0  0
  -27.2030   -1.4315   -8.7851 N   0  0  0  0  0  0  0  0  0  0  0  0
  -27.1386   -0.5344   -8.3240 H   0  0  0  0  0  0  0  0  0  0  0  0
  -26.7988   -1.4011  -10.1434 C   0  0  0  0  0  0  0  0  0  0  0  0
  -27.7695   -1.3271  -11.1469 C   0  0  0  0  0  0  0  0  0  0  0  0
  -27.4195   -1.4710  -12.4952 C   0  0  0  0  0  0  0  0  0  0  0  0
  -26.0885   -1.6797  -12.8760 C   0  0  0  0  0  0  0  0  0  0  0  0
  -25.7984   -1.9188  -14.5596 Cl  0  0  0  0  0  0  0  0  0  0  0  0
  -25.0840   -1.7058  -11.9102 C   0  0  0  0  0  0  0  0  0  0  0  0
  -25.4645   -1.5636  -10.5536 C   0  0  0  0  0  0  0  0  0  0  0  0
  -23.6150   -1.8769  -12.2009 C   0  0  0  0  0  0  0  0  0  0  0  0
  -23.2569   -3.0190  -12.8461 F   0  0  0  0  0  0  0  0  0  0  0  0
  -23.1324   -0.8636  -12.9790 F   0  0  0  0  0  0  0  0  0  0  0  0
  -22.8555   -1.8566  -11.0674 F   0  0  0  0  0  0  0  0  0  0  0  0
  -30.1778   -7.6057   -6.6932 O   0  0  0  0  0  0  0  0  0  0  0  0
  -27.7243  -12.2854   -9.5583 C   0  0  0  0  0  0  0  0  0  0  0  0
  -28.4592  -11.1214   -9.1178 N   0  0  0  0  0  0  0  0  0  0  0  0
  -29.4549  -10.6145   -9.8796 N   0  0  0  0  0  0  0  0  0  0  0  0
  -29.9120   -9.5923   -9.1465 C   0  0  0  0  0  0  0  0  0  0  0  0
  -29.2074   -9.4363   -7.9349 C   0  0  0  0  0  0  0  0  0  0  0  0
  -29.2268   -8.6114   -6.8174 C   0  0  0  0  0  0  0  0  0  0  0  0
  -28.3022   -8.8032   -5.8385 N   0  0  0  0  0  0  0  0  0  0  0  0
  -27.4542   -9.8396   -5.9642 C   0  0  0  0  0  0  0  0  0  0  0  0
  -27.3631  -10.7122   -6.9842 N   0  0  0  0  0  0  0  0  0  0  0  0
  -28.2658  -10.4475   -7.9430 C   0  0  0  0  0  0  0  0  0  0  0  0
 25 26  1  0  0  0
 26 27  1  0  0  0
 26 34  1  0  0  0
 27 28  2  0  0  0
 28 29  1  0  0  0
 29 30  1  0  0  0
 29 34  2  0  0  0
 30 24  1  0  0  0
 30 31  2  0  0  0
 24  1  1  0  0  0
  1  2  1  0  0  0
  1  6  2  0  0  0
  2  3  2  0  0  0
  3  4  1  0  0  0
  4  5  2  0  0  0
  4  9  1  0  0  0
  5  6  1  0  0  0
  5  7  1  0  0  0
  7  8  2  0  0  0
  8 11  1  0  0  0
  8  9  1  0  0  0
 11 13  1  0  0  0
 11 12  1  0  0  0
 13 14  1  0  0  0
 13 19  2  0  0  0
 14 15  2  0  0  0
 15 16  1  0  0  0
 16 17  1  0  0  0
 16 18  2  0  0  0
 18 20  1  0  0  0
 18 19  1  0  0  0
 20 21  1  0  0  0
 20 22  1  0  0  0
 20 23  1  0  0  0
  9 10  1  0  0  0
 31 32  1  0  0  0
 32 33  2  0  0  0
 33 34  1  0  0  0
M  END
> <minimizedAffinity>
-9.84546

$$$$
