CHEMBL3942671


 36 40  0  0  0  0  0  0  0  0999 V2000
  -28.3678   11.7700  -14.7237 C   0  0  0  0  0  0  0  0  0  0  0  0
  -27.1188   11.4137  -15.2433 C   0  0  0  0  0  0  0  0  0  0  0  0
  -25.9164   11.6502  -14.5251 C   0  0  0  0  0  0  0  0  0  0  0  0
  -24.6178   11.3118  -14.9598 C   0  0  0  0  0  0  0  0  0  0  0  0
  -23.5344   11.5592  -14.2019 N   0  0  0  0  0  0  0  0  0  0  0  0
  -23.7371   12.1340  -13.0159 C   0  0  0  0  0  0  0  0  0  0  0  0
  -24.9168   12.5007  -12.5113 N   0  0  0  0  0  0  0  0  0  0  0  0
  -25.9954   12.2495  -13.2617 C   0  0  0  0  0  0  0  0  0  0  0  0
  -27.2428   12.5789  -12.7514 C   0  0  0  0  0  0  0  0  0  0  0  0
  -28.4393   12.3120  -13.4359 C   0  0  0  0  0  0  0  0  0  0  0  0
  -29.1518   10.4103  -16.4984 C   0  0  0  0  0  0  0  0  0  0  0  0
  -29.4252   11.4030  -15.5103 O   0  0  0  0  0  0  0  0  0  0  0  0
  -24.4466   10.6792  -16.2252 N   0  0  0  0  0  0  0  0  0  0  0  0
  -25.3522   10.3750  -16.5682 H   0  0  0  0  0  0  0  0  0  0  0  0
  -23.5970   11.0793  -17.2844 C   0  0  0  0  0  0  0  0  0  0  0  0
  -22.2103   10.8861  -17.2566 C   0  0  0  0  0  0  0  0  0  0  0  0
  -21.3971   11.2989  -18.3171 C   0  0  0  0  0  0  0  0  0  0  0  0
  -21.9657   11.8746  -19.4503 C   0  0  0  0  0  0  0  0  0  0  0  0
  -20.9036   12.4001  -20.7069 Cl  0  0  0  0  0  0  0  0  0  0  0  0
  -23.3541   12.0021  -19.5328 C   0  0  0  0  0  0  0  0  0  0  0  0
  -24.1396   12.6573  -20.9274 Cl  0  0  0  0  0  0  0  0  0  0  0  0
  -24.1616   11.5940  -18.4616 C   0  0  0  0  0  0  0  0  0  0  0  0
  -29.5547   12.5955  -12.6865 O   0  0  0  0  0  0  0  0  0  0  0  0
  -29.3670   12.5616  -11.2774 C   0  0  0  0  0  0  0  0  0  0  0  0
  -30.6487   12.6433  -10.5163 C   0  0  0  0  0  0  0  0  0  0  0  0
  -31.7971   12.5627  -11.1574 N   0  0  0  0  0  0  0  0  0  0  0  0
  -32.8286   12.3337  -10.2728 C   0  0  0  0  0  0  0  0  0  0  0  0
  -32.4619   12.4229   -8.9414 C   0  0  0  0  0  0  0  0  0  0  0  0
  -30.7640   12.6567   -8.8095 S   0  0  0  0  0  0  0  0  0  0  0  0
  -34.1813   12.0146  -10.8301 C   0  0  0  0  0  0  0  0  0  0  0  0
  -34.3303   10.6343  -11.3114 N   0  0  0  0  0  0  0  0  0  0  0  0
  -33.1201   10.0053  -11.8551 C   0  0  0  0  0  0  0  0  0  0  0  0
  -32.9526   10.1113  -13.3812 C   0  0  0  0  0  0  0  0  0  0  0  0
  -34.1196    9.6490  -14.0682 O   0  0  0  0  0  0  0  0  0  0  0  0
  -35.2608   10.4236  -13.6818 C   0  0  0  0  0  0  0  0  0  0  0  0
  -35.5005   10.3663  -12.1628 C   0  0  0  0  0  0  0  0  0  0  0  0
 11 12  1  0  0  0
 12  1  1  0  0  0
  1  2  1  0  0  0
  1 10  2  0  0  0
  2  3  2  0  0  0
  3  4  1  0  0  0
  3  8  1  0  0  0
  4 13  1  0  0  0
  4  5  2  0  0  0
 13 15  1  0  0  0
 13 14  1  0  0  0
 15 16  1  0  0  0
 15 22  2  0  0  0
 16 17  2  0  0  0
 17 18  1  0  0  0
 18 19  1  0  0  0
 18 20  2  0  0  0
 20 21  1  0  0  0
 20 22  1  0  0  0
  5  6  1  0  0  0
  6  7  2  0  0  0
  7  8  1  0  0  0
  8  9  2  0  0  0
  9 10  1  0  0  0
 10 23  1  0  0  0
 23 24  1  0  0  0
 24 25  1  0  0  0
 25 26  2  0  0  0
 25 29  1  0  0  0
 26 27  1  0  0  0
 27 30  1  0  0  0
 27 28  2  0  0  0
 30 31  1  0  0  0
 31 32  1  0  0  0
 31 36  1  0  0  0
 32 33  1  0  0  0
 33 34  1  0  0  0
 34 35  1  0  0  0
 35 36  1  0  0  0
 28 29  1  0  0  0
M  END
> <minimizedAffinity>
-6.06811

$$$$
