CHEMBL3690489


 40 44  0  0  0  0  0  0  0  0999 V2000
  -23.9499   -0.2447  -13.8784 C   0  0  0  0  0  0  0  0  0  0  0  0
  -24.6185   -1.0523  -14.7890 C   0  0  0  0  0  0  0  0  0  0  0  0
  -25.5795   -1.8228  -14.1940 N   0  0  0  0  0  0  0  0  0  0  0  0
  -25.5384   -1.4986  -12.9226 C   0  0  0  0  0  0  0  0  0  0  0  0
  -26.3266   -1.9694  -11.8296 C   0  0  0  0  0  0  0  0  0  0  0  0
  -26.1420   -1.5031  -10.5709 C   0  0  0  0  0  0  0  0  0  0  0  0
  -25.1184   -0.4648  -10.3565 C   0  0  0  0  0  0  0  0  0  0  0  0
  -24.3993    0.0097  -11.3862 C   0  0  0  0  0  0  0  0  0  0  0  0
  -24.5821   -0.5171  -12.6672 N   0  0  0  0  0  0  0  0  0  0  0  0
  -20.5273    1.1618  -14.7620 C   0  0  0  0  0  0  0  0  0  0  0  0
  -20.7537    2.5237  -14.5816 C   0  0  0  0  0  0  0  0  0  0  0  0
  -22.0091    2.9784  -14.1757 C   0  0  0  0  0  0  0  0  0  0  0  0
  -23.0429    2.0703  -13.9330 C   0  0  0  0  0  0  0  0  0  0  0  0
  -22.8464    0.6966  -14.1172 C   0  0  0  0  0  0  0  0  0  0  0  0
  -21.5882    0.2652  -14.5659 C   0  0  0  0  0  0  0  0  0  0  0  0
  -17.7634    2.0361  -14.0679 O   0  0  0  0  0  0  0  0  0  0  0  0
  -18.0311    1.0543  -14.7449 C   0  0  0  0  0  0  0  0  0  0  0  0
  -17.0426    0.2217  -15.2321 N   0  0  0  0  0  0  0  0  0  0  0  0
  -19.2787    0.6074  -15.1111 N   0  0  0  0  0  0  0  0  0  0  0  0
  -17.2643   -0.2712  -16.0851 H   0  0  0  0  0  0  0  0  0  0  0  0
  -19.3024   -0.2519  -15.6371 H   0  0  0  0  0  0  0  0  0  0  0  0
  -15.6430    0.6324  -15.0811 C   0  0  0  0  0  0  0  0  0  0  0  0
  -15.0543    1.3654  -16.2945 C   0  0  0  0  0  0  0  0  0  0  0  0
  -15.7097    2.5231  -16.5483 F   0  0  0  0  0  0  0  0  0  0  0  0
  -13.7451    1.6467  -16.1427 F   0  0  0  0  0  0  0  0  0  0  0  0
  -15.1811    0.5971  -17.4050 F   0  0  0  0  0  0  0  0  0  0  0  0
  -27.0436   -1.9549   -9.4679 C   0  0  0  0  0  0  0  0  0  0  0  0
  -27.7059   -3.1801   -9.4543 C   0  0  0  0  0  0  0  0  0  0  0  0
  -28.5894   -3.4753   -8.4107 C   0  0  0  0  0  0  0  0  0  0  0  0
  -28.7748   -2.5372   -7.4142 C   0  0  0  0  0  0  0  0  0  0  0  0
  -28.0823   -1.3805   -7.4069 N   0  0  0  0  0  0  0  0  0  0  0  0
  -27.2165   -1.0887   -8.4442 N   0  0  0  0  0  0  0  0  0  0  0  0
  -29.6834   -2.8189   -6.4061 O   0  0  0  0  0  0  0  0  0  0  0  0
  -29.1972   -3.8056   -5.4720 C   0  0  0  0  0  0  0  0  0  0  0  0
  -30.2966   -4.8053   -5.0954 C   0  0  0  0  0  0  0  0  0  0  0  0
  -31.2252   -4.3231   -3.9828 C   0  0  0  0  0  0  0  0  0  0  0  0
  -30.4969   -3.8277   -2.8180 N   0  0  0  0  0  0  0  0  0  0  0  0
  -29.6409   -2.7060   -3.1913 C   0  0  0  0  0  0  0  0  0  0  0  0
  -28.6083   -3.0946   -4.2453 C   0  0  0  0  0  0  0  0  0  0  0  0
  -29.9343   -4.5772   -2.4150 H   0  0  0  0  0  0  0  0  0  0  0  0
 16 17  2  0  0  0
 17 18  1  0  0  0
 17 19  1  0  0  0
 18 22  1  0  0  0
 18 20  1  0  0  0
 22 23  1  0  0  0
 23 24  1  0  0  0
 23 25  1  0  0  0
 23 26  1  0  0  0
 19 10  1  0  0  0
 19 21  1  0  0  0
 10 11  1  0  0  0
 10 15  2  0  0  0
 11 12  2  0  0  0
 12 13  1  0  0  0
 13 14  2  0  0  0
 14  1  1  0  0  0
 14 15  1  0  0  0
  1  2  2  0  0  0
  1  9  1  0  0  0
  2  3  1  0  0  0
  3  4  2  0  0  0
  4  5  1  0  0  0
  4  9  1  0  0  0
  5  6  2  0  0  0
  6 27  1  0  0  0
  6  7  1  0  0  0
 27 28  1  0  0  0
 27 32  2  0  0  0
 28 29  2  0  0  0
 29 30  1  0  0  0
 30 33  1  0  0  0
 30 31  2  0  0  0
 33 34  1  0  0  0
 34 35  1  0  0  0
 34 39  1  0  0  0
 35 36  1  0  0  0
 36 37  1  0  0  0
 37 38  1  0  0  0
 37 40  1  0  0  0
 38 39  1  0  0  0
 31 32  1  0  0  0
  7  8  2  0  0  0
  8  9  1  0  0  0
M  END
> <minimizedAffinity>
-9.50404

$$$$
