CHEMBL1940857


 23 25  0  0  0  0  0  0  0  0999 V2000
  -21.5575    0.2693  -14.9238 C   0  0  0  0  0  0  0  0  0  0  0  0
  -22.5564   -0.1054  -13.8710 C   0  0  0  0  0  0  0  0  0  0  0  0
  -22.2567   -0.0270  -12.5116 C   0  0  0  0  0  0  0  0  0  0  0  0
  -23.2174   -0.3782  -11.5605 C   0  0  0  0  0  0  0  0  0  0  0  0
  -24.4897   -0.8286  -11.9628 C   0  0  0  0  0  0  0  0  0  0  0  0
  -25.4788   -1.2222  -11.0427 C   0  0  0  0  0  0  0  0  0  0  0  0
  -26.7185   -1.7130  -11.4787 C   0  0  0  0  0  0  0  0  0  0  0  0
  -26.8828   -1.7776  -12.8656 C   0  0  0  0  0  0  0  0  0  0  0  0
  -28.2570   -2.4666  -13.6510 Cl  0  0  0  0  0  0  0  0  0  0  0  0
  -25.9706   -1.3727  -13.7781 N   0  0  0  0  0  0  0  0  0  0  0  0
  -24.7941   -0.9144  -13.3321 C   0  0  0  0  0  0  0  0  0  0  0  0
  -23.8355   -0.5374  -14.2585 C   0  0  0  0  0  0  0  0  0  0  0  0
  -27.6637   -2.1795  -10.4421 C   0  0  0  0  0  0  0  0  0  0  0  0
  -27.3778   -2.3398   -9.1404 C   0  0  0  0  0  0  0  0  0  0  0  0
  -28.4146   -2.8030   -8.1749 C   0  0  0  0  0  0  0  0  0  0  0  0
  -29.2340   -3.6653   -8.4641 O   0  0  0  0  0  0  0  0  0  0  0  0
  -28.3361   -2.1325   -6.8784 C   0  0  0  0  0  0  0  0  0  0  0  0
  -28.2016   -0.7090   -6.6553 C   0  0  0  0  0  0  0  0  0  0  0  0
  -28.1585   -0.3963   -5.3208 C   0  0  0  0  0  0  0  0  0  0  0  0
  -27.9909    1.1712   -4.6430 Cl  0  0  0  0  0  0  0  0  0  0  0  0
  -28.2907   -1.7452   -4.3150 S   0  0  0  0  0  0  0  0  0  0  0  0
  -28.4049   -2.7809   -5.6600 C   0  0  0  0  0  0  0  0  0  0  0  0
  -28.5347   -4.4705   -5.3497 Cl  0  0  0  0  0  0  0  0  0  0  0  0
  1  2  1  0  0  0
  2  3  1  0  0  0
  2 12  2  0  0  0
  3  4  2  0  0  0
  4  5  1  0  0  0
  5  6  1  0  0  0
  5 11  2  0  0  0
  6  7  2  0  0  0
  7 13  1  0  0  0
  7  8  1  0  0  0
 13 14  2  0  0  0
 14 15  1  0  0  0
 15 16  2  0  0  0
 15 17  1  0  0  0
 17 18  1  0  0  0
 17 22  2  0  0  0
 18 19  2  0  0  0
 19 20  1  0  0  0
 19 21  1  0  0  0
 21 22  1  0  0  0
 22 23  1  0  0  0
  8  9  1  0  0  0
  8 10  2  0  0  0
 10 11  1  0  0  0
 11 12  1  0  0  0
M  END
> <minimizedAffinity>
-9.79890

$$$$
