CHEMBL4161551


 41 46  0  0  0  0  0  0  0  0999 V2000
  -18.5589    2.3394  -14.8408 C   0  0  0  0  0  0  0  0  0  0  0  0
  -17.8013    2.5622  -16.0135 C   0  0  0  0  0  0  0  0  0  0  0  0
  -16.5437    1.9567  -16.1944 C   0  0  0  0  0  0  0  0  0  0  0  0
  -16.0480    1.1397  -15.1929 C   0  0  0  0  0  0  0  0  0  0  0  0
  -16.8174    0.9257  -14.0405 C   0  0  0  0  0  0  0  0  0  0  0  0
  -18.0613    1.4905  -13.8436 C   0  0  0  0  0  0  0  0  0  0  0  0
  -16.1460    0.1107  -13.1377 N   0  0  0  0  0  0  0  0  0  0  0  0
  -14.8988   -0.2437  -13.6152 C   0  0  0  0  0  0  0  0  0  0  0  0
  -14.0189   -0.8152  -12.9984 O   0  0  0  0  0  0  0  0  0  0  0  0
  -14.8278    0.3323  -15.0098 C   0  0  0  0  0  0  0  0  0  0  0  0
  -13.7896    0.0324  -15.8215 C   0  0  0  0  0  0  0  0  0  0  0  0
  -16.4587   -0.1213  -12.2071 H   0  0  0  0  0  0  0  0  0  0  0  0
  -13.5384    0.8120  -17.0512 C   0  0  0  0  0  0  0  0  0  0  0  0
  -14.1055    0.3501  -18.2519 C   0  0  0  0  0  0  0  0  0  0  0  0
  -13.9482    1.0697  -19.4370 C   0  0  0  0  0  0  0  0  0  0  0  0
  -13.2246    2.2577  -19.4333 C   0  0  0  0  0  0  0  0  0  0  0  0
  -12.6514    2.7247  -18.2492 C   0  0  0  0  0  0  0  0  0  0  0  0
  -12.8092    2.0066  -17.0603 C   0  0  0  0  0  0  0  0  0  0  0  0
  -19.8716    2.9899  -14.5806 C   0  0  0  0  0  0  0  0  0  0  0  0
  -20.2044    4.0441  -15.0933 O   0  0  0  0  0  0  0  0  0  0  0  0
  -21.5485    1.3731  -14.4238 C   0  0  0  0  0  0  0  0  0  0  0  0
  -20.6339    2.2362  -13.7466 O   0  0  0  0  0  0  0  0  0  0  0  0
  -12.7751   -0.8909  -15.5467 N   0  0  0  0  0  0  0  0  0  0  0  0
  -12.6164   -0.9286  -14.5292 H   0  0  0  0  0  0  0  0  0  0  0  0
  -12.8763   -2.2716  -15.9366 C   0  0  0  0  0  0  0  0  0  0  0  0
  -12.7867   -2.7044  -17.2712 C   0  0  0  0  0  0  0  0  0  0  0  0
  -12.9325   -4.0525  -17.6027 C   0  0  0  0  0  0  0  0  0  0  0  0
  -13.1492   -4.9638  -16.5819 C   0  0  0  0  0  0  0  0  0  0  0  0
  -13.1630   -4.5765  -15.2389 C   0  0  0  0  0  0  0  0  0  0  0  0
  -13.0252   -3.2337  -14.9157 C   0  0  0  0  0  0  0  0  0  0  0  0
  -13.3511   -5.7157  -14.4299 N   0  0  0  0  0  0  0  0  0  0  0  0
  -13.3564   -5.9111  -13.0651 C   0  0  0  0  0  0  0  0  0  0  0  0
  -13.6267   -7.0285  -12.5989 O   0  0  0  0  0  0  0  0  0  0  0  0
  -13.6615   -6.8573  -15.3063 C   0  0  0  0  0  0  0  0  0  0  0  0
  -13.3649   -6.4343  -16.7424 C   0  0  0  0  0  0  0  0  0  0  0  0
  -13.0231   -4.7979  -12.1089 C   0  0  0  0  0  0  0  0  0  0  0  0
  -14.2039   -4.1159  -11.6154 N   0  0  0  0  0  0  0  0  0  0  0  0
  -15.4686   -4.1347  -12.1359 C   0  0  0  0  0  0  0  0  0  0  0  0
  -16.2325   -3.3349  -11.3224 C   0  0  0  0  0  0  0  0  0  0  0  0
  -15.3495   -2.8999  -10.3199 C   0  0  0  0  0  0  0  0  0  0  0  0
  -14.1166   -3.3871  -10.4807 N   0  0  0  0  0  0  0  0  0  0  0  0
 21 22  1  0  0  0
 22 19  1  0  0  0
 19 20  2  0  0  0
 19  1  1  0  0  0
  1  2  1  0  0  0
  1  6  2  0  0  0
  2  3  2  0  0  0
  3  4  1  0  0  0
  4  5  2  0  0  0
  4 10  1  0  0  0
  5  6  1  0  0  0
  5  7  1  0  0  0
  7  8  1  0  0  0
  7 12  1  0  0  0
  8  9  2  0  0  0
  8 10  1  0  0  0
 10 11  2  0  0  0
 11 23  1  0  0  0
 11 13  1  0  0  0
 23 25  1  0  0  0
 23 24  1  0  0  0
 25 26  1  0  0  0
 25 30  2  0  0  0
 26 27  2  0  0  0
 27 28  1  0  0  0
 28 29  2  0  0  0
 28 35  1  0  0  0
 29 30  1  0  0  0
 29 31  1  0  0  0
 31 32  1  0  0  0
 31 34  1  0  0  0
 32 33  2  0  0  0
 32 36  1  0  0  0
 36 37  1  0  0  0
 37 38  1  0  0  0
 37 41  1  0  0  0
 38 39  2  0  0  0
 39 40  1  0  0  0
 40 41  2  0  0  0
 34 35  1  0  0  0
 13 14  1  0  0  0
 13 18  2  0  0  0
 14 15  2  0  0  0
 15 16  1  0  0  0
 16 17  2  0  0  0
 17 18  1  0  0  0
M  END
> <minimizedAffinity>
-8.37377

$$$$
