CHEMBL4522385


 36 40  0  0  0  0  0  0  0  0999 V2000
  -26.1017   -1.1845  -11.7799 C   0  0  0  0  0  0  0  0  0  0  0  0
  -27.4867   -1.0420  -11.6700 C   0  0  0  0  0  0  0  0  0  0  0  0
  -28.1414   -1.3199  -10.4585 C   0  0  0  0  0  0  0  0  0  0  0  0
  -27.4085   -1.7087   -9.3282 C   0  0  0  0  0  0  0  0  0  0  0  0
  -26.0342   -1.9292   -9.4691 C   0  0  0  0  0  0  0  0  0  0  0  0
  -25.3874   -1.6842  -10.6916 C   0  0  0  0  0  0  0  0  0  0  0  0
  -28.0594   -1.8567   -8.0613 N   0  0  0  0  0  0  0  0  0  0  0  0
  -28.4032   -0.8191   -7.2229 C   0  0  0  0  0  0  0  0  0  0  0  0
  -29.0255   -1.2933   -6.1039 C   0  0  0  0  0  0  0  0  0  0  0  0
  -29.0591   -2.6764   -6.1849 C   0  0  0  0  0  0  0  0  0  0  0  0
  -29.5626   -3.5415   -5.2840 N   0  0  0  0  0  0  0  0  0  0  0  0
  -29.4176   -4.8144   -5.6414 C   0  0  0  0  0  0  0  0  0  0  0  0
  -28.8410   -5.2848   -6.7560 N   0  0  0  0  0  0  0  0  0  0  0  0
  -28.3344   -4.4156   -7.6534 C   0  0  0  0  0  0  0  0  0  0  0  0
  -27.6955   -5.0112   -8.7302 N   0  0  0  0  0  0  0  0  0  0  0  0
  -28.4559   -3.0459   -7.4016 C   0  0  0  0  0  0  0  0  0  0  0  0
  -29.4949   -0.2186   -5.2116 C   0  0  0  0  0  0  0  0  0  0  0  0
  -29.4224    1.0183   -6.1615 C   0  0  0  0  0  0  0  0  0  0  0  0
  -28.3954    0.6624   -7.2946 C   0  0  0  0  0  0  0  0  0  0  0  0
  -27.5810   -6.0005   -8.5307 H   0  0  0  0  0  0  0  0  0  0  0  0
  -26.8452   -4.5402   -9.0122 H   0  0  0  0  0  0  0  0  0  0  0  0
  -24.0647   -0.4395  -12.9386 C   0  0  0  0  0  0  0  0  0  0  0  0
  -23.3712   -0.3766  -11.9250 O   0  0  0  0  0  0  0  0  0  0  0  0
  -25.3986   -0.8345  -12.9558 N   0  0  0  0  0  0  0  0  0  0  0  0
  -25.7206   -1.2526  -13.8234 H   0  0  0  0  0  0  0  0  0  0  0  0
  -23.4909   -0.0749  -14.2994 C   0  0  0  0  0  0  0  0  0  0  0  0
  -20.1374    2.6718  -14.4814 C   0  0  0  0  0  0  0  0  0  0  0  0
  -19.9742    1.3343  -14.8260 C   0  0  0  0  0  0  0  0  0  0  0  0
  -21.0587    0.4509  -14.7296 C   0  0  0  0  0  0  0  0  0  0  0  0
  -20.8723   -0.8231  -15.0885 F   0  0  0  0  0  0  0  0  0  0  0  0
  -22.3121    0.8653  -14.2893 C   0  0  0  0  0  0  0  0  0  0  0  0
  -22.4502    2.2085  -13.9333 C   0  0  0  0  0  0  0  0  0  0  0  0
  -23.6388    2.6737  -13.5238 F   0  0  0  0  0  0  0  0  0  0  0  0
  -21.3833    3.1051  -14.0256 C   0  0  0  0  0  0  0  0  0  0  0  0
  -18.0121    3.3421  -15.3206 C   0  0  0  0  0  0  0  0  0  0  0  0
  -19.1756    3.6408  -14.5535 O   0  0  0  0  0  0  0  0  0  0  0  0
 35 36  1  0  0  0
 36 27  1  0  0  0
 27 28  1  0  0  0
 27 34  2  0  0  0
 28 29  2  0  0  0
 29 30  1  0  0  0
 29 31  1  0  0  0
 31 26  1  0  0  0
 31 32  2  0  0  0
 26 22  1  0  0  0
 22 23  2  0  0  0
 22 24  1  0  0  0
 24  1  1  0  0  0
 24 25  1  0  0  0
  1  2  1  0  0  0
  1  6  2  0  0  0
  2  3  2  0  0  0
  3  4  1  0  0  0
  4  7  1  0  0  0
  4  5  2  0  0  0
  7  8  1  0  0  0
  7 16  1  0  0  0
  8  9  2  0  0  0
  8 19  1  0  0  0
  9 10  1  0  0  0
  9 17  1  0  0  0
 10 11  1  0  0  0
 10 16  2  0  0  0
 11 12  2  0  0  0
 12 13  1  0  0  0
 13 14  2  0  0  0
 14 15  1  0  0  0
 14 16  1  0  0  0
 15 20  1  0  0  0
 15 21  1  0  0  0
 17 18  1  0  0  0
 18 19  1  0  0  0
  5  6  1  0  0  0
 32 33  1  0  0  0
 32 34  1  0  0  0
M  END
> <minimizedAffinity>
-9.26887

$$$$
