CHEMBL1977681


 21 23  0  0  0  0  0  0  0  0999 V2000
  -30.1926   -6.3782   -5.9939 C   0  0  0  0  0  0  0  0  0  0  0  0
  -29.8949   -5.0299   -6.2330 C   0  0  0  0  0  0  0  0  0  0  0  0
  -29.3393   -4.4668   -5.0846 C   0  0  0  0  0  0  0  0  0  0  0  0
  -28.8610   -3.2197   -4.6623 C   0  0  0  0  0  0  0  0  0  0  0  0
  -28.3895   -3.3557   -3.3916 N   0  0  0  0  0  0  0  0  0  0  0  0
  -28.6257   -4.6524   -3.0622 N   0  0  0  0  0  0  0  0  0  0  0  0
  -29.1929   -5.3273   -4.0768 C   0  0  0  0  0  0  0  0  0  0  0  0
  -29.7226   -6.8639   -4.3737 S   0  0  0  0  0  0  0  0  0  0  0  0
  -28.3657   -4.9793   -2.1382 H   0  0  0  0  0  0  0  0  0  0  0  0
  -28.7984   -1.9257   -5.3390 C   0  0  0  0  0  0  0  0  0  0  0  0
  -29.4669   -0.8180   -4.7883 C   0  0  0  0  0  0  0  0  0  0  0  0
  -29.4446    0.4265   -5.4261 C   0  0  0  0  0  0  0  0  0  0  0  0
  -28.7538    0.5829   -6.6253 C   0  0  0  0  0  0  0  0  0  0  0  0
  -28.0938   -0.5071   -7.1882 C   0  0  0  0  0  0  0  0  0  0  0  0
  -28.1243   -1.7482   -6.5505 C   0  0  0  0  0  0  0  0  0  0  0  0
  -27.5145   -2.7733   -7.1628 F   0  0  0  0  0  0  0  0  0  0  0  0
  -32.7665   -8.7739   -7.3115 C   0  0  0  0  0  0  0  0  0  0  0  0
  -32.0237   -7.8366   -6.5147 N   0  0  0  0  0  0  0  0  0  0  0  0
  -30.8068   -7.3237   -6.9182 C   0  0  0  0  0  0  0  0  0  0  0  0
  -30.2958   -7.6462   -7.9880 O   0  0  0  0  0  0  0  0  0  0  0  0
  -32.4069   -7.5148   -5.6357 H   0  0  0  0  0  0  0  0  0  0  0  0
 17 18  1  0  0  0
 18 19  1  0  0  0
 18 21  1  0  0  0
 19 20  2  0  0  0
 19  1  1  0  0  0
  1  2  2  0  0  0
  1  8  1  0  0  0
  2  3  1  0  0  0
  3  4  1  0  0  0
  3  7  2  0  0  0
  4 10  1  0  0  0
  4  5  2  0  0  0
 10 11  1  0  0  0
 10 15  2  0  0  0
 11 12  2  0  0  0
 12 13  1  0  0  0
 13 14  2  0  0  0
 14 15  1  0  0  0
 15 16  1  0  0  0
  5  6  1  0  0  0
  6  7  1  0  0  0
  6  9  1  0  0  0
  7  8  1  0  0  0
M  END
> <minimizedAffinity>
-7.93004

$$$$
