CHEMBL3901672


 35 37  0  0  0  0  0  0  0  0999 V2000
  -27.5520   -1.4910   -8.4375 C   0  0  0  0  0  0  0  0  0  0  0  0
  -27.3364   -1.5162   -9.6174 C   0  0  0  0  0  0  0  0  0  0  0  0
  -28.1972   -2.5921   -4.9365 C   0  0  0  0  0  0  0  0  0  0  0  0
  -28.3204   -1.3473   -4.3422 C   0  0  0  0  0  0  0  0  0  0  0  0
  -28.2144   -0.1705   -5.0185 N   0  0  0  0  0  0  0  0  0  0  0  0
  -27.9771   -0.2274   -6.3452 C   0  0  0  0  0  0  0  0  0  0  0  0
  -27.9803    0.9956   -7.0107 N   0  0  0  0  0  0  0  0  0  0  0  0
  -27.8259   -1.4420   -7.0310 C   0  0  0  0  0  0  0  0  0  0  0  0
  -27.9305   -2.6325   -6.3078 C   0  0  0  0  0  0  0  0  0  0  0  0
  -28.0054    1.7371   -6.3168 H   0  0  0  0  0  0  0  0  0  0  0  0
  -27.2204    1.0891   -7.6731 H   0  0  0  0  0  0  0  0  0  0  0  0
  -28.3608   -3.8448   -4.1494 C   0  0  0  0  0  0  0  0  0  0  0  0
  -27.3494   -4.5352   -4.0199 O   0  0  0  0  0  0  0  0  0  0  0  0
  -30.3946   -5.9400   -5.6773 C   0  0  0  0  0  0  0  0  0  0  0  0
  -30.1053   -5.7130   -3.9335 S   0  0  0  0  0  0  0  0  0  0  0  0
  -31.7647   -5.8091   -3.2952 C   0  0  0  0  0  0  0  0  0  0  0  0
  -29.4100   -6.8906   -3.4508 O   0  0  0  0  0  0  0  0  0  0  0  0
  -29.6183   -4.2674   -3.6892 N   0  0  0  0  0  0  0  0  0  0  0  0
  -27.0781   -1.5029  -11.0230 C   0  0  0  0  0  0  0  0  0  0  0  0
  -27.8797   -2.2550  -11.8836 C   0  0  0  0  0  0  0  0  0  0  0  0
  -27.5898   -2.2837  -13.2431 C   0  0  0  0  0  0  0  0  0  0  0  0
  -26.5018   -1.5617  -13.7401 C   0  0  0  0  0  0  0  0  0  0  0  0
  -25.7037   -0.7830  -12.8951 C   0  0  0  0  0  0  0  0  0  0  0  0
  -26.0014   -0.7609  -11.5277 C   0  0  0  0  0  0  0  0  0  0  0  0
  -24.5898   -0.0359  -13.3564 N   0  0  0  0  0  0  0  0  0  0  0  0
  -23.2912   -0.5139  -13.4417 C   0  0  0  0  0  0  0  0  0  0  0  0
  -22.9296   -1.6627  -13.2131 O   0  0  0  0  0  0  0  0  0  0  0  0
  -24.7903    0.8761  -13.7444 H   0  0  0  0  0  0  0  0  0  0  0  0
  -22.2483    0.4376  -13.9178 C   0  0  0  0  0  0  0  0  0  0  0  0
  -21.0788    0.0320  -14.5696 C   0  0  0  0  0  0  0  0  0  0  0  0
  -20.1723    0.9958  -15.0313 C   0  0  0  0  0  0  0  0  0  0  0  0
  -20.4390    2.3555  -14.8492 C   0  0  0  0  0  0  0  0  0  0  0  0
  -19.3215    3.5333  -15.4177 Cl  0  0  0  0  0  0  0  0  0  0  0  0
  -21.6082    2.7660  -14.2173 C   0  0  0  0  0  0  0  0  0  0  0  0
  -22.5101    1.8084  -13.7553 C   0  0  0  0  0  0  0  0  0  0  0  0
 14 15  1  0  0  0
 15 16  1  0  0  0
 15 17  2  0  0  0
 15 18  2  0  0  0
 18 12  1  0  0  0
 12 13  2  0  0  0
 12  3  1  0  0  0
  3  4  1  0  0  0
  3  9  2  0  0  0
  4  5  2  0  0  0
  5  6  1  0  0  0
  6  7  1  0  0  0
  6  8  2  0  0  0
  7 10  1  0  0  0
  7 11  1  0  0  0
  8  1  1  0  0  0
  8  9  1  0  0  0
  1  2  3  0  0  0
  2 19  1  0  0  0
 19 20  1  0  0  0
 19 24  2  0  0  0
 20 21  2  0  0  0
 21 22  1  0  0  0
 22 23  2  0  0  0
 23 25  1  0  0  0
 23 24  1  0  0  0
 25 26  1  0  0  0
 25 28  1  0  0  0
 26 27  2  0  0  0
 26 29  1  0  0  0
 29 30  1  0  0  0
 29 35  2  0  0  0
 30 31  2  0  0  0
 31 32  1  0  0  0
 32 33  1  0  0  0
 32 34  2  0  0  0
 34 35  1  0  0  0
M  END
> <minimizedAffinity>
-10.83157

$$$$
