CHEMBL2086752


 40 45  0  0  0  0  0  0  0  0999 V2000
  -27.9524   -3.5002   -8.5993 C   0  0  0  0  0  0  0  0  0  0  0  0
  -28.1786   -2.5743   -7.5629 C   0  0  0  0  0  0  0  0  0  0  0  0
  -28.7149   -2.9734   -6.3390 C   0  0  0  0  0  0  0  0  0  0  0  0
  -28.9761   -4.3169   -6.1692 C   0  0  0  0  0  0  0  0  0  0  0  0
  -28.7150   -5.2871   -7.1413 C   0  0  0  0  0  0  0  0  0  0  0  0
  -28.1867   -4.8735   -8.3592 C   0  0  0  0  0  0  0  0  0  0  0  0
  -29.1074   -6.5916   -6.5356 C   0  0  0  0  0  0  0  0  0  0  0  0
  -29.0321   -7.8583   -7.0148 C   0  0  0  0  0  0  0  0  0  0  0  0
  -29.5977   -6.2597   -5.1363 C   0  0  0  0  0  0  0  0  0  0  0  0
  -29.9327   -7.0090   -4.2344 O   0  0  0  0  0  0  0  0  0  0  0  0
  -29.5012   -4.8896   -5.0222 N   0  0  0  0  0  0  0  0  0  0  0  0
  -29.7482   -4.4017   -4.1729 H   0  0  0  0  0  0  0  0  0  0  0  0
  -29.4321   -8.9756   -6.2082 C   0  0  0  0  0  0  0  0  0  0  0  0
  -30.4611   -9.8039   -6.2660 N   0  0  0  0  0  0  0  0  0  0  0  0
  -30.2879  -10.6878   -5.2154 C   0  0  0  0  0  0  0  0  0  0  0  0
  -31.0905  -11.7490   -4.7616 C   0  0  0  0  0  0  0  0  0  0  0  0
  -30.6873  -12.4657   -3.6220 C   0  0  0  0  0  0  0  0  0  0  0  0
  -29.4985  -12.1527   -2.9591 C   0  0  0  0  0  0  0  0  0  0  0  0
  -28.6658  -11.1291   -3.4190 C   0  0  0  0  0  0  0  0  0  0  0  0
  -29.1027  -10.4223   -4.5396 C   0  0  0  0  0  0  0  0  0  0  0  0
  -28.5588   -9.3695   -5.2225 N   0  0  0  0  0  0  0  0  0  0  0  0
  -27.6741   -8.9347   -5.0192 H   0  0  0  0  0  0  0  0  0  0  0  0
  -28.4026   -8.1293   -8.3245 C   0  0  0  0  0  0  0  0  0  0  0  0
  -27.1405   -7.5831   -8.6056 C   0  0  0  0  0  0  0  0  0  0  0  0
  -26.4921   -7.8908   -9.7995 C   0  0  0  0  0  0  0  0  0  0  0  0
  -27.1030   -8.7387  -10.7209 C   0  0  0  0  0  0  0  0  0  0  0  0
  -28.3627   -9.2771  -10.4524 C   0  0  0  0  0  0  0  0  0  0  0  0
  -29.0121   -8.9789   -9.2533 C   0  0  0  0  0  0  0  0  0  0  0  0
  -27.4222   -3.1245   -9.8461 N   0  0  0  0  0  0  0  0  0  0  0  0
  -26.4718   -3.4860   -9.9275 H   0  0  0  0  0  0  0  0  0  0  0  0
  -25.5266   -1.4643  -12.4600 N   0  0  0  0  0  0  0  0  0  0  0  0
  -26.7977   -2.1844  -12.6444 C   0  0  0  0  0  0  0  0  0  0  0  0
  -27.8859   -1.5951  -11.7585 C   0  0  0  0  0  0  0  0  0  0  0  0
  -27.5053   -1.7119  -10.2828 C   0  0  0  0  0  0  0  0  0  0  0  0
  -26.1469   -1.0230  -10.0896 C   0  0  0  0  0  0  0  0  0  0  0  0
  -25.0839   -1.5562  -11.0576 C   0  0  0  0  0  0  0  0  0  0  0  0
  -24.4821   -1.9908  -13.3670 C   0  0  0  0  0  0  0  0  0  0  0  0
  -23.1685   -1.1985  -13.2654 C   0  0  0  0  0  0  0  0  0  0  0  0
  -21.9678    0.6500  -14.0354 C   0  0  0  0  0  0  0  0  0  0  0  0
  -23.2597    0.0526  -13.9489 O   0  0  0  0  0  0  0  0  0  0  0  0
 39 40  1  0  0  0
 40 38  1  0  0  0
 38 37  1  0  0  0
 37 31  1  0  0  0
 31 32  1  0  0  0
 31 36  1  0  0  0
 32 33  1  0  0  0
 33 34  1  0  0  0
 34 29  1  0  0  0
 34 35  1  0  0  0
 29  1  1  0  0  0
 29 30  1  0  0  0
  1  2  1  0  0  0
  1  6  2  0  0  0
  2  3  2  0  0  0
  3  4  1  0  0  0
  4  5  2  0  0  0
  4 11  1  0  0  0
  5  6  1  0  0  0
  5  7  1  0  0  0
  7  8  2  0  0  0
  7  9  1  0  0  0
  8 23  1  0  0  0
  8 13  1  0  0  0
 23 24  1  0  0  0
 23 28  2  0  0  0
 24 25  2  0  0  0
 25 26  1  0  0  0
 26 27  2  0  0  0
 27 28  1  0  0  0
 13 14  2  0  0  0
 13 21  1  0  0  0
 14 15  1  0  0  0
 15 16  1  0  0  0
 15 20  2  0  0  0
 16 17  2  0  0  0
 17 18  1  0  0  0
 18 19  2  0  0  0
 19 20  1  0  0  0
 20 21  1  0  0  0
 21 22  1  0  0  0
  9 10  2  0  0  0
  9 11  1  0  0  0
 11 12  1  0  0  0
 35 36  1  0  0  0
M  END
> <minimizedAffinity>
-6.12758

$$$$
