CHEMBL452522


 36 40  0  0  0  0  0  0  0  0999 V2000
  -20.3584    1.9718  -15.1478 C   0  0  0  0  0  0  0  0  0  0  0  0
  -20.4775    0.5744  -15.1076 C   0  0  0  0  0  0  0  0  0  0  0  0
  -21.5232   -0.0406  -14.4176 C   0  0  0  0  0  0  0  0  0  0  0  0
  -22.4867    0.7336  -13.7633 C   0  0  0  0  0  0  0  0  0  0  0  0
  -22.3512    2.1297  -13.7738 C   0  0  0  0  0  0  0  0  0  0  0  0
  -21.2834    2.7455  -14.4450 C   0  0  0  0  0  0  0  0  0  0  0  0
  -23.6340    0.0970  -13.1108 C   0  0  0  0  0  0  0  0  0  0  0  0
  -23.7532    0.1264  -11.6167 C   0  0  0  0  0  0  0  0  0  0  0  0
  -24.6962   -0.4031  -10.8961 N   0  0  0  0  0  0  0  0  0  0  0  0
  -25.6820   -1.0569  -11.5845 C   0  0  0  0  0  0  0  0  0  0  0  0
  -26.8116   -1.7393  -11.1745 C   0  0  0  0  0  0  0  0  0  0  0  0
  -27.4004   -2.2136  -12.3606 C   0  0  0  0  0  0  0  0  0  0  0  0
  -26.7240   -1.8673  -13.4574 N   0  0  0  0  0  0  0  0  0  0  0  0
  -25.6720   -1.1308  -12.9844 N   0  0  0  0  0  0  0  0  0  0  0  0
  -24.6414   -0.5302  -13.7583 C   0  0  0  0  0  0  0  0  0  0  0  0
  -24.7409   -0.6539  -15.1475 N   0  0  0  0  0  0  0  0  0  0  0  0
  -25.3578   -1.4239  -15.4140 H   0  0  0  0  0  0  0  0  0  0  0  0
  -23.8528   -0.6344  -15.6398 H   0  0  0  0  0  0  0  0  0  0  0  0
  -27.3156   -1.9583   -9.8118 C   0  0  0  0  0  0  0  0  0  0  0  0
  -27.4487   -0.9178   -8.8390 C   0  0  0  0  0  0  0  0  0  0  0  0
  -27.9489   -1.3802   -7.6398 C   0  0  0  0  0  0  0  0  0  0  0  0
  -28.2520   -3.0613   -7.6755 S   0  0  0  0  0  0  0  0  0  0  0  0
  -27.7173   -3.1745   -9.2973 C   0  0  0  0  0  0  0  0  0  0  0  0
  -17.1373    3.1149  -16.4046 N   0  0  0  0  0  0  0  0  0  0  0  0
  -18.0332    2.4957  -15.5358 C   0  0  0  0  0  0  0  0  0  0  0  0
  -17.7201    1.8763  -14.5241 O   0  0  0  0  0  0  0  0  0  0  0  0
  -19.3617    2.6033  -15.9441 N   0  0  0  0  0  0  0  0  0  0  0  0
  -17.5203    3.6871  -17.1400 H   0  0  0  0  0  0  0  0  0  0  0  0
  -19.4906    2.5474  -16.9430 H   0  0  0  0  0  0  0  0  0  0  0  0
  -12.8861    5.5149  -15.3246 C   0  0  0  0  0  0  0  0  0  0  0  0
  -13.6292    4.2809  -15.7439 C   0  0  0  0  0  0  0  0  0  0  0  0
  -12.9046    3.1060  -15.9933 C   0  0  0  0  0  0  0  0  0  0  0  0
  -13.5658    1.9512  -16.3718 C   0  0  0  0  0  0  0  0  0  0  0  0
  -14.9488    1.9495  -16.5085 C   0  0  0  0  0  0  0  0  0  0  0  0
  -15.7160    3.0995  -16.2679 C   0  0  0  0  0  0  0  0  0  0  0  0
  -15.0371    4.2684  -15.8819 C   0  0  0  0  0  0  0  0  0  0  0  0
 30 31  1  0  0  0
 31 32  1  0  0  0
 31 36  2  0  0  0
 32 33  2  0  0  0
 33 34  1  0  0  0
 34 35  2  0  0  0
 35 24  1  0  0  0
 35 36  1  0  0  0
 24 25  1  0  0  0
 24 28  1  0  0  0
 25 26  2  0  0  0
 25 27  1  0  0  0
 27  1  1  0  0  0
 27 29  1  0  0  0
  1  2  1  0  0  0
  1  6  2  0  0  0
  2  3  2  0  0  0
  3  4  1  0  0  0
  4  7  1  0  0  0
  4  5  2  0  0  0
  7  8  1  0  0  0
  7 15  2  0  0  0
  8  9  2  0  0  0
  9 10  1  0  0  0
 10 11  2  0  0  0
 10 14  1  0  0  0
 11 19  1  0  0  0
 11 12  1  0  0  0
 19 20  1  0  0  0
 19 23  2  0  0  0
 20 21  2  0  0  0
 21 22  1  0  0  0
 22 23  1  0  0  0
 12 13  2  0  0  0
 13 14  1  0  0  0
 14 15  1  0  0  0
 15 16  1  0  0  0
 16 17  1  0  0  0
 16 18  1  0  0  0
  5  6  1  0  0  0
M  END
> <minimizedAffinity>
-9.03970

$$$$
