CHEMBL600795


 22 24  0  0  0  0  0  0  0  0999 V2000
  -23.0993   -1.6759  -12.2619 C   0  0  0  0  0  0  0  0  0  0  0  0
  -24.0313   -0.6549  -12.9323 C   0  0  0  0  0  0  0  0  0  0  0  0
  -25.4488   -1.2375  -12.9430 C   0  0  0  0  0  0  0  0  0  0  0  0
  -26.0989   -1.4472  -14.1876 C   0  0  0  0  0  0  0  0  0  0  0  0
  -25.2952   -1.2361  -15.7108 Cl  0  0  0  0  0  0  0  0  0  0  0  0
  -27.4507   -1.8083  -14.2638 C   0  0  0  0  0  0  0  0  0  0  0  0
  -28.1892   -1.9881  -13.1030 C   0  0  0  0  0  0  0  0  0  0  0  0
  -27.5659   -1.8267  -11.8730 C   0  0  0  0  0  0  0  0  0  0  0  0
  -28.3044   -2.0133  -10.7681 F   0  0  0  0  0  0  0  0  0  0  0  0
  -26.2160   -1.4506  -11.7769 C   0  0  0  0  0  0  0  0  0  0  0  0
  -25.5938   -1.2226  -10.1781 Cl  0  0  0  0  0  0  0  0  0  0  0  0
  -23.5598   -0.2969  -14.2433 O   0  0  0  0  0  0  0  0  0  0  0  0
  -22.5447    0.6187  -14.3114 C   0  0  0  0  0  0  0  0  0  0  0  0
  -22.8604    1.9226  -13.9276 C   0  0  0  0  0  0  0  0  0  0  0  0
  -21.8907    2.9302  -13.9845 C   0  0  0  0  0  0  0  0  0  0  0  0
  -20.5895    2.6688  -14.3999 C   0  0  0  0  0  0  0  0  0  0  0  0
  -19.6834    3.6654  -14.4491 N   0  0  0  0  0  0  0  0  0  0  0  0
  -18.4267    3.3595  -14.8400 C   0  0  0  0  0  0  0  0  0  0  0  0
  -18.0134    2.0873  -15.1932 C   0  0  0  0  0  0  0  0  0  0  0  0
  -18.9526    1.0648  -15.1468 C   0  0  0  0  0  0  0  0  0  0  0  0
  -20.2652    1.3429  -14.7518 C   0  0  0  0  0  0  0  0  0  0  0  0
  -21.2372    0.3300  -14.6981 C   0  0  0  0  0  0  0  0  0  0  0  0
  1  2  1  0  0  0
  2 12  1  0  0  0
  2  3  1  0  0  0
 12 13  1  0  0  0
 13 14  1  0  0  0
 13 22  2  0  0  0
 14 15  2  0  0  0
 15 16  1  0  0  0
 16 17  1  0  0  0
 16 21  2  0  0  0
 17 18  2  0  0  0
 18 19  1  0  0  0
 19 20  2  0  0  0
 20 21  1  0  0  0
 21 22  1  0  0  0
  3  4  1  0  0  0
  3 10  2  0  0  0
  4  5  1  0  0  0
  4  6  2  0  0  0
  6  7  1  0  0  0
  7  8  2  0  0  0
  8  9  1  0  0  0
  8 10  1  0  0  0
 10 11  1  0  0  0
M  END
> <minimizedAffinity>
-9.58605

$$$$
