CHEMBL3900295


 35 39  0  0  0  0  0  0  0  0999 V2000
  -29.3441   -5.4012   -7.0695 C   0  0  0  0  0  0  0  0  0  0  0  0
  -29.0029   -4.4253   -8.0125 C   0  0  0  0  0  0  0  0  0  0  0  0
  -28.5499   -3.1446   -7.6111 C   0  0  0  0  0  0  0  0  0  0  0  0
  -28.1612   -2.1130   -8.4711 C   0  0  0  0  0  0  0  0  0  0  0  0
  -27.6775   -0.9424   -8.0110 N   0  0  0  0  0  0  0  0  0  0  0  0
  -27.5906   -0.7945   -6.6903 C   0  0  0  0  0  0  0  0  0  0  0  0
  -27.9485   -1.7005   -5.7850 N   0  0  0  0  0  0  0  0  0  0  0  0
  -28.4214   -2.8566   -6.2532 C   0  0  0  0  0  0  0  0  0  0  0  0
  -28.8261   -3.8041   -5.3362 C   0  0  0  0  0  0  0  0  0  0  0  0
  -29.3659   -5.0494   -5.7134 C   0  0  0  0  0  0  0  0  0  0  0  0
  -28.6719   -7.3714   -8.1892 C   0  0  0  0  0  0  0  0  0  0  0  0
  -29.6726   -6.6818   -7.4299 O   0  0  0  0  0  0  0  0  0  0  0  0
  -28.2746   -2.2882   -9.8791 N   0  0  0  0  0  0  0  0  0  0  0  0
  -29.1833   -1.9505  -10.1802 H   0  0  0  0  0  0  0  0  0  0  0  0
  -27.2353   -1.9707  -10.7791 C   0  0  0  0  0  0  0  0  0  0  0  0
  -25.9643   -1.6321  -10.2936 C   0  0  0  0  0  0  0  0  0  0  0  0
  -24.9537   -1.2204  -11.1594 C   0  0  0  0  0  0  0  0  0  0  0  0
  -25.2002   -1.1525  -12.5298 C   0  0  0  0  0  0  0  0  0  0  0  0
  -23.9271   -0.5768  -13.5440 Cl  0  0  0  0  0  0  0  0  0  0  0  0
  -26.4517   -1.5307  -13.0305 C   0  0  0  0  0  0  0  0  0  0  0  0
  -26.8245   -1.4784  -14.7177 Cl  0  0  0  0  0  0  0  0  0  0  0  0
  -27.4625   -1.9489  -12.1570 C   0  0  0  0  0  0  0  0  0  0  0  0
  -29.9340   -5.9231   -4.7946 O   0  0  0  0  0  0  0  0  0  0  0  0
  -28.9311   -6.6068   -4.0204 C   0  0  0  0  0  0  0  0  0  0  0  0
  -28.6110   -8.0224   -4.3577 C   0  0  0  0  0  0  0  0  0  0  0  0
  -29.3288   -9.1851   -4.1829 C   0  0  0  0  0  0  0  0  0  0  0  0
  -28.3727  -10.5382   -4.6596 S   0  0  0  0  0  0  0  0  0  0  0  0
  -27.0700   -9.4836   -5.0491 C   0  0  0  0  0  0  0  0  0  0  0  0
  -27.3498   -8.2073   -4.9113 N   0  0  0  0  0  0  0  0  0  0  0  0
  -25.7272  -10.0029   -5.5128 C   0  0  0  0  0  0  0  0  0  0  0  0
  -24.5297   -9.5486   -4.7674 N   0  0  0  0  0  0  0  0  0  0  0  0
  -23.2643  -10.0768   -5.2800 C   0  0  0  0  0  0  0  0  0  0  0  0
  -22.9444  -11.2970   -4.4379 C   0  0  0  0  0  0  0  0  0  0  0  0
  -23.5591  -10.9885   -3.0845 C   0  0  0  0  0  0  0  0  0  0  0  0
  -24.5590   -9.8618   -3.3323 C   0  0  0  0  0  0  0  0  0  0  0  0
 11 12  1  0  0  0
 12  1  1  0  0  0
  1  2  1  0  0  0
  1 10  2  0  0  0
  2  3  2  0  0  0
  3  4  1  0  0  0
  3  8  1  0  0  0
  4 13  1  0  0  0
  4  5  2  0  0  0
 13 15  1  0  0  0
 13 14  1  0  0  0
 15 16  1  0  0  0
 15 22  2  0  0  0
 16 17  2  0  0  0
 17 18  1  0  0  0
 18 19  1  0  0  0
 18 20  2  0  0  0
 20 21  1  0  0  0
 20 22  1  0  0  0
  5  6  1  0  0  0
  6  7  2  0  0  0
  7  8  1  0  0  0
  8  9  2  0  0  0
  9 10  1  0  0  0
 10 23  1  0  0  0
 23 24  1  0  0  0
 24 25  1  0  0  0
 25 26  2  0  0  0
 25 29  1  0  0  0
 26 27  1  0  0  0
 27 28  1  0  0  0
 28 30  1  0  0  0
 28 29  2  0  0  0
 30 31  1  0  0  0
 31 32  1  0  0  0
 31 35  1  0  0  0
 32 33  1  0  0  0
 33 34  1  0  0  0
 34 35  1  0  0  0
M  END
> <minimizedAffinity>
-8.54483

$$$$
