CHEMBL3288521


 33 37  0  0  0  0  0  0  0  0999 V2000
  -27.2944   -1.5946   -9.3958 C   0  0  0  0  0  0  0  0  0  0  0  0
  -25.9416   -1.2261   -9.4666 C   0  0  0  0  0  0  0  0  0  0  0  0
  -25.2888   -1.0463  -10.6933 C   0  0  0  0  0  0  0  0  0  0  0  0
  -25.9184   -1.3465  -11.9207 C   0  0  0  0  0  0  0  0  0  0  0  0
  -25.3148   -1.2954  -13.2090 C   0  0  0  0  0  0  0  0  0  0  0  0
  -26.0540   -1.6289  -14.3626 C   0  0  0  0  0  0  0  0  0  0  0  0
  -27.3867   -2.0057  -14.2663 C   0  0  0  0  0  0  0  0  0  0  0  0
  -27.9994   -2.0293  -13.0206 C   0  0  0  0  0  0  0  0  0  0  0  0
  -27.2879   -1.7024  -11.8559 C   0  0  0  0  0  0  0  0  0  0  0  0
  -27.9541   -1.7366  -10.6214 C   0  0  0  0  0  0  0  0  0  0  0  0
  -27.4397   -4.9733   -8.8589 N   0  0  0  0  0  0  0  0  0  0  0  0
  -28.1108   -4.4409   -7.8249 C   0  0  0  0  0  0  0  0  0  0  0  0
  -28.6818   -5.2429   -6.9320 N   0  0  0  0  0  0  0  0  0  0  0  0
  -29.2061   -4.4023   -6.0397 N   0  0  0  0  0  0  0  0  0  0  0  0
  -29.0008   -3.0795   -6.3188 C   0  0  0  0  0  0  0  0  0  0  0  0
  -29.3878   -1.9478   -5.5971 C   0  0  0  0  0  0  0  0  0  0  0  0
  -29.0565   -0.7108   -6.1325 C   0  0  0  0  0  0  0  0  0  0  0  0
  -28.3874   -0.6233   -7.3506 C   0  0  0  0  0  0  0  0  0  0  0  0
  -27.9880   -1.7646   -8.0969 C   0  0  0  0  0  0  0  0  0  0  0  0
  -28.3001   -3.0439   -7.5306 C   0  0  0  0  0  0  0  0  0  0  0  0
  -27.3085   -5.9782   -8.8145 H   0  0  0  0  0  0  0  0  0  0  0  0
  -26.6347   -4.4856   -9.2333 H   0  0  0  0  0  0  0  0  0  0  0  0
  -29.6965   -4.7940   -5.2447 H   0  0  0  0  0  0  0  0  0  0  0  0
  -23.9180   -0.8453  -13.4749 C   0  0  0  0  0  0  0  0  0  0  0  0
  -23.0206   -1.6550  -13.2636 O   0  0  0  0  0  0  0  0  0  0  0  0
  -23.7444    0.4690  -13.8722 N   0  0  0  0  0  0  0  0  0  0  0  0
  -24.5599    1.0695  -13.8595 H   0  0  0  0  0  0  0  0  0  0  0  0
  -22.5073    1.0923  -14.1629 C   0  0  0  0  0  0  0  0  0  0  0  0
  -21.3761    0.4161  -14.6145 C   0  0  0  0  0  0  0  0  0  0  0  0
  -20.1746    1.1025  -14.7902 C   0  0  0  0  0  0  0  0  0  0  0  0
  -20.1473    2.4609  -14.5313 C   0  0  0  0  0  0  0  0  0  0  0  0
  -21.2295    3.1684  -14.1452 N   0  0  0  0  0  0  0  0  0  0  0  0
  -22.3788    2.4684  -13.9754 C   0  0  0  0  0  0  0  0  0  0  0  0
 11 12  1  0  0  0
 11 21  1  0  0  0
 11 22  1  0  0  0
 12 13  2  0  0  0
 12 20  1  0  0  0
 13 14  1  0  0  0
 14 15  1  0  0  0
 14 23  1  0  0  0
 15 16  1  0  0  0
 15 20  2  0  0  0
 16 17  2  0  0  0
 17 18  1  0  0  0
 18 19  2  0  0  0
 19  1  1  0  0  0
 19 20  1  0  0  0
  1  2  1  0  0  0
  1 10  2  0  0  0
  2  3  2  0  0  0
  3  4  1  0  0  0
  4  5  1  0  0  0
  4  9  2  0  0  0
  5 24  1  0  0  0
  5  6  2  0  0  0
 24 25  2  0  0  0
 24 26  1  0  0  0
 26 28  1  0  0  0
 26 27  1  0  0  0
 28 29  1  0  0  0
 28 33  2  0  0  0
 29 30  2  0  0  0
 30 31  1  0  0  0
 31 32  2  0  0  0
 32 33  1  0  0  0
  6  7  1  0  0  0
  7  8  2  0  0  0
  8  9  1  0  0  0
  9 10  1  0  0  0
M  END
> <minimizedAffinity>
-9.79653

$$$$
