CHEMBL427050


 27 31  0  0  0  0  0  0  0  0999 V2000
  -21.7086    0.9248  -14.2304 C   0  0  0  0  0  0  0  0  0  0  0  0
  -22.0073    2.3133  -14.2348 C   0  0  0  0  0  0  0  0  0  0  0  0
  -21.0884    3.2671  -14.6720 C   0  0  0  0  0  0  0  0  0  0  0  0
  -19.8422    2.8240  -15.0669 C   0  0  0  0  0  0  0  0  0  0  0  0
  -19.5197    1.4393  -15.0171 C   0  0  0  0  0  0  0  0  0  0  0  0
  -20.4321    0.4826  -14.6236 C   0  0  0  0  0  0  0  0  0  0  0  0
  -18.1568    1.3816  -15.4178 C   0  0  0  0  0  0  0  0  0  0  0  0
  -17.1353    0.5162  -15.5360 N   0  0  0  0  0  0  0  0  0  0  0  0
  -15.9924    1.1381  -15.9292 N   0  0  0  0  0  0  0  0  0  0  0  0
  -16.3102    2.4537  -16.0032 C   0  0  0  0  0  0  0  0  0  0  0  0
  -17.6717    2.6289  -15.6976 C   0  0  0  0  0  0  0  0  0  0  0  0
  -18.6893    3.7057  -15.5707 C   0  0  0  0  0  0  0  0  0  0  0  0
  -17.1110   -0.4821  -15.3621 H   0  0  0  0  0  0  0  0  0  0  0  0
  -15.3224    3.4775  -16.3445 C   0  0  0  0  0  0  0  0  0  0  0  0
  -14.1961    3.6774  -15.5361 C   0  0  0  0  0  0  0  0  0  0  0  0
  -13.2516    4.6557  -15.8611 C   0  0  0  0  0  0  0  0  0  0  0  0
  -13.4252    5.4458  -16.9964 C   0  0  0  0  0  0  0  0  0  0  0  0
  -14.5412    5.2597  -17.8082 C   0  0  0  0  0  0  0  0  0  0  0  0
  -15.4846    4.2817  -17.4831 C   0  0  0  0  0  0  0  0  0  0  0  0
  -22.7839   -0.0641  -13.8136 C   0  0  0  0  0  0  0  0  0  0  0  0
  -26.8468   -2.0486  -12.2006 C   0  0  0  0  0  0  0  0  0  0  0  0
  -25.5525   -1.5236  -11.7762 N   0  0  0  0  0  0  0  0  0  0  0  0
  -24.4495   -2.2902  -12.3773 C   0  0  0  0  0  0  0  0  0  0  0  0
  -23.0737   -1.7081  -11.9811 C   0  0  0  0  0  0  0  0  0  0  0  0
  -22.8768   -0.2902  -12.3592 N   0  0  0  0  0  0  0  0  0  0  0  0
  -24.0100    0.4757  -11.7831 C   0  0  0  0  0  0  0  0  0  0  0  0
  -25.4207   -0.0907  -12.1030 C   0  0  0  0  0  0  0  0  0  0  0  0
 21 22  1  0  0  0
 22 23  1  0  0  0
 22 27  1  0  0  0
 23 24  1  0  0  0
 24 25  1  0  0  0
 25 20  1  0  0  0
 25 26  1  0  0  0
 20  1  1  0  0  0
  1  2  1  0  0  0
  1  6  2  0  0  0
  2  3  2  0  0  0
  3  4  1  0  0  0
  4  5  2  0  0  0
  4 12  1  0  0  0
  5  6  1  0  0  0
  5  7  1  0  0  0
  7  8  1  0  0  0
  7 11  2  0  0  0
  8  9  1  0  0  0
  8 13  1  0  0  0
  9 10  2  0  0  0
 10 14  1  0  0  0
 10 11  1  0  0  0
 14 15  1  0  0  0
 14 19  2  0  0  0
 15 16  2  0  0  0
 16 17  1  0  0  0
 17 18  2  0  0  0
 18 19  1  0  0  0
 11 12  1  0  0  0
 26 27  1  0  0  0
M  END
> <minimizedAffinity>
-9.93564

$$$$
