CHEMBL2023492


 32 35  0  0  0  0  0  0  0  0999 V2000
  -30.0073   -5.3193   -6.3276 C   0  0  0  0  0  0  0  0  0  0  0  0
  -30.0833   -4.9007   -7.6516 C   0  0  0  0  0  0  0  0  0  0  0  0
  -29.3333   -3.7932   -8.0615 C   0  0  0  0  0  0  0  0  0  0  0  0
  -28.5584   -3.0537   -7.1445 C   0  0  0  0  0  0  0  0  0  0  0  0
  -28.7016   -3.3390   -5.7764 C   0  0  0  0  0  0  0  0  0  0  0  0
  -29.3983   -4.4899   -5.3833 C   0  0  0  0  0  0  0  0  0  0  0  0
  -28.1049   -2.6662   -4.7427 O   0  0  0  0  0  0  0  0  0  0  0  0
  -28.7225   -2.7590   -3.4598 C   0  0  0  0  0  0  0  0  0  0  0  0
  -30.4603   -6.5326   -5.8622 O   0  0  0  0  0  0  0  0  0  0  0  0
  -28.6734   -9.6972   -9.6529 C   0  0  0  0  0  0  0  0  0  0  0  0
  -27.9855   -8.8644   -8.7901 C   0  0  0  0  0  0  0  0  0  0  0  0
  -28.6697   -8.2261   -7.7579 C   0  0  0  0  0  0  0  0  0  0  0  0
  -30.0768   -8.3003   -7.6255 C   0  0  0  0  0  0  0  0  0  0  0  0
  -30.8723   -7.5378   -6.7229 C   0  0  0  0  0  0  0  0  0  0  0  0
  -32.2329   -7.8189   -6.6043 C   0  0  0  0  0  0  0  0  0  0  0  0
  -32.7790   -8.7824   -7.4253 C   0  0  0  0  0  0  0  0  0  0  0  0
  -32.0766   -9.4531   -8.3608 N   0  0  0  0  0  0  0  0  0  0  0  0
  -30.7567   -9.2099   -8.4669 C   0  0  0  0  0  0  0  0  0  0  0  0
  -30.0429   -9.8851   -9.4582 C   0  0  0  0  0  0  0  0  0  0  0  0
  -28.8538  -10.3778  -11.9156 C   0  0  0  0  0  0  0  0  0  0  0  0
  -28.1209  -10.3888  -10.6944 O   0  0  0  0  0  0  0  0  0  0  0  0
  -27.5922   -2.0053   -7.6438 C   0  0  0  0  0  0  0  0  0  0  0  0
  -27.6671   -1.6949   -9.1243 C   0  0  0  0  0  0  0  0  0  0  0  0
  -28.4995   -0.8986   -9.5537 O   0  0  0  0  0  0  0  0  0  0  0  0
  -26.7248   -2.3598   -9.8885 N   0  0  0  0  0  0  0  0  0  0  0  0
  -26.1635   -3.0861   -9.4625 H   0  0  0  0  0  0  0  0  0  0  0  0
  -26.5043   -2.0846  -11.2269 C   0  0  0  0  0  0  0  0  0  0  0  0
  -27.4060   -2.0297  -12.3141 C   0  0  0  0  0  0  0  0  0  0  0  0
  -26.8009   -1.7056  -13.4597 N   0  0  0  0  0  0  0  0  0  0  0  0
  -25.5168   -1.5472  -13.1059 N   0  0  0  0  0  0  0  0  0  0  0  0
  -24.5440   -1.1730  -14.1028 C   0  0  0  0  0  0  0  0  0  0  0  0
  -25.2861   -1.7581  -11.7746 C   0  0  0  0  0  0  0  0  0  0  0  0
 20 21  1  0  0  0
 21 10  1  0  0  0
 10 11  1  0  0  0
 10 19  2  0  0  0
 11 12  2  0  0  0
 12 13  1  0  0  0
 13 14  1  0  0  0
 13 18  2  0  0  0
 14  9  1  0  0  0
 14 15  2  0  0  0
  9  1  1  0  0  0
  1  2  1  0  0  0
  1  6  2  0  0  0
  2  3  2  0  0  0
  3  4  1  0  0  0
  4 22  1  0  0  0
  4  5  2  0  0  0
 22 23  1  0  0  0
 23 24  2  0  0  0
 23 25  1  0  0  0
 25 27  1  0  0  0
 25 26  1  0  0  0
 27 28  1  0  0  0
 27 32  2  0  0  0
 28 29  2  0  0  0
 29 30  1  0  0  0
 30 31  1  0  0  0
 30 32  1  0  0  0
  5  7  1  0  0  0
  5  6  1  0  0  0
  7  8  1  0  0  0
 15 16  1  0  0  0
 16 17  2  0  0  0
 17 18  1  0  0  0
 18 19  1  0  0  0
M  END
> <minimizedAffinity>
-8.88267

$$$$
