CHEMBL3690377


 39 43  0  0  0  0  0  0  0  0999 V2000
  -22.3311    0.2748  -13.8064 C   0  0  0  0  0  0  0  0  0  0  0  0
  -22.6312    0.2614  -12.3688 C   0  0  0  0  0  0  0  0  0  0  0  0
  -23.7725   -0.2844  -11.9215 C   0  0  0  0  0  0  0  0  0  0  0  0
  -24.7044   -0.7982  -12.8257 N   0  0  0  0  0  0  0  0  0  0  0  0
  -25.9688   -1.3594  -12.6305 C   0  0  0  0  0  0  0  0  0  0  0  0
  -26.3672   -1.7168  -13.9109 C   0  0  0  0  0  0  0  0  0  0  0  0
  -25.4470   -1.3711  -14.8612 N   0  0  0  0  0  0  0  0  0  0  0  0
  -24.4622   -0.8085  -14.1991 C   0  0  0  0  0  0  0  0  0  0  0  0
  -23.2349   -0.2492  -14.6680 C   0  0  0  0  0  0  0  0  0  0  0  0
  -18.6546    1.7321  -15.3530 C   0  0  0  0  0  0  0  0  0  0  0  0
  -19.5154    2.5993  -14.6910 C   0  0  0  0  0  0  0  0  0  0  0  0
  -20.7230    2.1458  -14.1811 C   0  0  0  0  0  0  0  0  0  0  0  0
  -21.0561    0.8131  -14.3398 C   0  0  0  0  0  0  0  0  0  0  0  0
  -20.2060   -0.0292  -14.9674 N   0  0  0  0  0  0  0  0  0  0  0  0
  -18.9902    0.4330  -15.4606 N   0  0  0  0  0  0  0  0  0  0  0  0
  -13.9990    3.5473  -17.7963 C   0  0  0  0  0  0  0  0  0  0  0  0
  -14.8985    3.2384  -16.6872 N   0  0  0  0  0  0  0  0  0  0  0  0
  -16.1501    4.0352  -16.7918 C   0  0  0  0  0  0  0  0  0  0  0  0
  -17.1853    3.6791  -15.6886 C   0  0  0  0  0  0  0  0  0  0  0  0
  -17.4527    2.2457  -15.8058 N   0  0  0  0  0  0  0  0  0  0  0  0
  -16.2546    1.4235  -15.5863 C   0  0  0  0  0  0  0  0  0  0  0  0
  -15.2191    1.7907  -16.6724 C   0  0  0  0  0  0  0  0  0  0  0  0
  -26.7240   -1.4566  -11.3671 C   0  0  0  0  0  0  0  0  0  0  0  0
  -27.6019   -0.4289  -10.9933 C   0  0  0  0  0  0  0  0  0  0  0  0
  -28.3397   -0.5087   -9.8228 C   0  0  0  0  0  0  0  0  0  0  0  0
  -28.2764   -1.6566   -9.0432 C   0  0  0  0  0  0  0  0  0  0  0  0
  -27.4804   -2.7439   -9.4122 C   0  0  0  0  0  0  0  0  0  0  0  0
  -26.6705   -2.6158  -10.5573 C   0  0  0  0  0  0  0  0  0  0  0  0
  -27.4875   -3.9670   -8.6846 N   0  0  0  0  0  0  0  0  0  0  0  0
  -28.5550   -4.4639   -7.9704 C   0  0  0  0  0  0  0  0  0  0  0  0
  -29.6588   -3.9354   -7.8241 O   0  0  0  0  0  0  0  0  0  0  0  0
  -28.2910   -5.6578   -7.3343 N   0  0  0  0  0  0  0  0  0  0  0  0
  -26.6562   -4.5417   -8.7454 H   0  0  0  0  0  0  0  0  0  0  0  0
  -27.6171   -6.2743   -7.7705 H   0  0  0  0  0  0  0  0  0  0  0  0
  -29.3691   -6.2668   -6.5449 C   0  0  0  0  0  0  0  0  0  0  0  0
  -30.1735   -7.3844   -7.2274 C   0  0  0  0  0  0  0  0  0  0  0  0
  -31.3750   -6.9536   -7.6738 F   0  0  0  0  0  0  0  0  0  0  0  0
  -29.4943   -7.8406   -8.3120 F   0  0  0  0  0  0  0  0  0  0  0  0
  -30.3798   -8.4418   -6.4147 F   0  0  0  0  0  0  0  0  0  0  0  0
 16 17  1  0  0  0
 17 18  1  0  0  0
 17 22  1  0  0  0
 18 19  1  0  0  0
 19 20  1  0  0  0
 20 10  1  0  0  0
 20 21  1  0  0  0
 10 11  1  0  0  0
 10 15  2  0  0  0
 11 12  2  0  0  0
 12 13  1  0  0  0
 13  1  1  0  0  0
 13 14  2  0  0  0
  1  2  1  0  0  0
  1  9  2  0  0  0
  2  3  2  0  0  0
  3  4  1  0  0  0
  4  5  1  0  0  0
  4  8  1  0  0  0
  5 23  1  0  0  0
  5  6  2  0  0  0
 23 24  1  0  0  0
 23 28  2  0  0  0
 24 25  2  0  0  0
 25 26  1  0  0  0
 26 27  2  0  0  0
 27 29  1  0  0  0
 27 28  1  0  0  0
 29 30  1  0  0  0
 29 33  1  0  0  0
 30 31  2  0  0  0
 30 32  1  0  0  0
 32 35  1  0  0  0
 32 34  1  0  0  0
 35 36  1  0  0  0
 36 37  1  0  0  0
 36 38  1  0  0  0
 36 39  1  0  0  0
  6  7  1  0  0  0
  7  8  2  0  0  0
  8  9  1  0  0  0
 14 15  1  0  0  0
 21 22  1  0  0  0
M  END
> <minimizedAffinity>
-9.39746

$$$$
