CHEMBL3943535


 32 35  0  0  0  0  0  0  0  0999 V2000
  -29.0676   -8.2373   -5.0293 C   0  0  0  0  0  0  0  0  0  0  0  0
  -29.4188   -8.0534   -3.7486 N   0  0  0  0  0  0  0  0  0  0  0  0
  -29.8041   -6.8071   -3.3970 C   0  0  0  0  0  0  0  0  0  0  0  0
  -29.8522   -5.7399   -4.2689 C   0  0  0  0  0  0  0  0  0  0  0  0
  -29.4863   -6.0322   -5.5711 C   0  0  0  0  0  0  0  0  0  0  0  0
  -29.0877   -7.2596   -5.9504 N   0  0  0  0  0  0  0  0  0  0  0  0
  -29.4804   -4.9688   -6.6408 C   0  0  0  0  0  0  0  0  0  0  0  0
  -30.3973   -3.8200   -6.2426 C   0  0  0  0  0  0  0  0  0  0  0  0
  -30.0558   -3.3817   -4.8882 N   0  0  0  0  0  0  0  0  0  0  0  0
  -29.4486   -2.1715   -4.5318 C   0  0  0  0  0  0  0  0  0  0  0  0
  -29.3728   -1.8537   -3.3425 O   0  0  0  0  0  0  0  0  0  0  0  0
  -30.3308   -4.3768   -3.8554 C   0  0  0  0  0  0  0  0  0  0  0  0
  -28.9197   -1.3007   -5.5770 C   0  0  0  0  0  0  0  0  0  0  0  0
  -27.8913   -1.7328   -6.3747 O   0  0  0  0  0  0  0  0  0  0  0  0
  -27.6092   -0.7499   -7.2608 C   0  0  0  0  0  0  0  0  0  0  0  0
  -28.4006    0.3447   -7.0249 C   0  0  0  0  0  0  0  0  0  0  0  0
  -29.2259    0.0156   -5.9115 C   0  0  0  0  0  0  0  0  0  0  0  0
  -30.2223    0.9036   -5.2608 C   0  0  0  0  0  0  0  0  0  0  0  0
  -28.6634   -9.5230   -5.4142 N   0  0  0  0  0  0  0  0  0  0  0  0
  -29.0671  -10.1776   -4.7550 H   0  0  0  0  0  0  0  0  0  0  0  0
  -25.8032  -10.6895   -7.5277 C   0  0  0  0  0  0  0  0  0  0  0  0
  -27.0935  -10.3341   -7.1114 C   0  0  0  0  0  0  0  0  0  0  0  0
  -27.3564   -9.8586   -5.8224 C   0  0  0  0  0  0  0  0  0  0  0  0
  -26.2885   -9.6581   -4.9561 C   0  0  0  0  0  0  0  0  0  0  0  0
  -24.9878  -10.0184   -5.3346 C   0  0  0  0  0  0  0  0  0  0  0  0
  -24.7315  -10.5056   -6.6358 C   0  0  0  0  0  0  0  0  0  0  0  0
  -26.5241  -11.0410   -9.7802 C   0  0  0  0  0  0  0  0  0  0  0  0
  -25.5491  -11.2343   -8.7610 O   0  0  0  0  0  0  0  0  0  0  0  0
  -23.9071   -9.8803   -4.4928 O   0  0  0  0  0  0  0  0  0  0  0  0
  -23.9748  -10.6394   -3.2895 C   0  0  0  0  0  0  0  0  0  0  0  0
  -23.4206  -10.8432   -6.8848 O   0  0  0  0  0  0  0  0  0  0  0  0
  -23.0670  -12.2100   -6.7182 C   0  0  0  0  0  0  0  0  0  0  0  0
 27 28  1  0  0  0
 28 21  1  0  0  0
 21 22  1  0  0  0
 21 26  2  0  0  0
 22 23  2  0  0  0
 23 19  1  0  0  0
 23 24  1  0  0  0
 19  1  1  0  0  0
 19 20  1  0  0  0
  1  2  1  0  0  0
  1  6  2  0  0  0
  2  3  2  0  0  0
  3  4  1  0  0  0
  4  5  2  0  0  0
  4 12  1  0  0  0
  5  6  1  0  0  0
  5  7  1  0  0  0
  7  8  1  0  0  0
  8  9  1  0  0  0
  9 10  1  0  0  0
  9 12  1  0  0  0
 10 11  2  0  0  0
 10 13  1  0  0  0
 13 14  1  0  0  0
 13 17  2  0  0  0
 14 15  1  0  0  0
 15 16  2  0  0  0
 16 17  1  0  0  0
 17 18  1  0  0  0
 24 25  2  0  0  0
 25 29  1  0  0  0
 25 26  1  0  0  0
 29 30  1  0  0  0
 26 31  1  0  0  0
 31 32  1  0  0  0
M  END
> <minimizedAffinity>
-7.92917

$$$$
