CHEMBL1996510


 35 40  0  0  0  0  0  0  0  0999 V2000
  -32.5213   -9.4446   -8.5253 O   0  0  0  0  0  0  0  0  0  0  0  0
  -32.0575  -10.0969   -7.6085 C   0  0  0  0  0  0  0  0  0  0  0  0
  -32.7036  -11.0361   -6.8961 N   0  0  0  0  0  0  0  0  0  0  0  0
  -31.9142  -11.5264   -5.9167 C   0  0  0  0  0  0  0  0  0  0  0  0
  -32.2719  -12.3456   -5.0955 O   0  0  0  0  0  0  0  0  0  0  0  0
  -30.5853  -10.8650   -6.0489 C   0  0  0  0  0  0  0  0  0  0  0  0
  -30.6892  -10.0087   -7.0801 C   0  0  0  0  0  0  0  0  0  0  0  0
  -33.6687  -11.2904   -7.0183 H   0  0  0  0  0  0  0  0  0  0  0  0
  -29.4879  -11.1040   -5.1802 C   0  0  0  0  0  0  0  0  0  0  0  0
  -29.5276  -10.9470   -3.8080 C   0  0  0  0  0  0  0  0  0  0  0  0
  -28.3189  -11.3327   -3.2987 N   0  0  0  0  0  0  0  0  0  0  0  0
  -27.4744  -11.7063   -4.3160 C   0  0  0  0  0  0  0  0  0  0  0  0
  -26.1533  -12.1638   -4.2634 C   0  0  0  0  0  0  0  0  0  0  0  0
  -25.5198  -12.4650   -5.4720 C   0  0  0  0  0  0  0  0  0  0  0  0
  -26.1782  -12.3076   -6.6860 C   0  0  0  0  0  0  0  0  0  0  0  0
  -27.4964  -11.8466   -6.7192 C   0  0  0  0  0  0  0  0  0  0  0  0
  -28.1727  -11.5525   -5.5155 C   0  0  0  0  0  0  0  0  0  0  0  0
  -28.0816  -11.3443   -2.3164 H   0  0  0  0  0  0  0  0  0  0  0  0
  -29.6946   -9.0863   -7.6155 C   0  0  0  0  0  0  0  0  0  0  0  0
  -29.6243   -7.9229   -6.9393 N   0  0  0  0  0  0  0  0  0  0  0  0
  -28.7876   -6.9837   -7.3846 C   0  0  0  0  0  0  0  0  0  0  0  0
  -27.9744   -7.1877   -8.4327 N   0  0  0  0  0  0  0  0  0  0  0  0
  -28.0195   -8.3591   -9.0806 C   0  0  0  0  0  0  0  0  0  0  0  0
  -27.1638   -8.5718  -10.1582 C   0  0  0  0  0  0  0  0  0  0  0  0
  -27.1717   -9.7666  -10.8877 C   0  0  0  0  0  0  0  0  0  0  0  0
  -28.0587  -10.7771  -10.5443 C   0  0  0  0  0  0  0  0  0  0  0  0
  -28.9158  -10.5923   -9.4631 C   0  0  0  0  0  0  0  0  0  0  0  0
  -28.8960   -9.3829   -8.7207 C   0  0  0  0  0  0  0  0  0  0  0  0
  -28.7449   -5.7795   -6.7274 N   0  0  0  0  0  0  0  0  0  0  0  0
  -29.0992   -5.6835   -5.3106 C   0  0  0  0  0  0  0  0  0  0  0  0
  -30.3210   -4.7635   -5.0891 C   0  0  0  0  0  0  0  0  0  0  0  0
  -30.2085   -3.4506   -5.7595 N   0  0  0  0  0  0  0  0  0  0  0  0
  -29.9698   -3.6802   -7.2000 C   0  0  0  0  0  0  0  0  0  0  0  0
  -28.7160   -4.5359   -7.4932 C   0  0  0  0  0  0  0  0  0  0  0  0
  -29.3943   -2.9696   -5.3773 H   0  0  0  0  0  0  0  0  0  0  0  0
  1  2  2  0  0  0
  2  3  1  0  0  0
  2  7  1  0  0  0
  3  4  1  0  0  0
  3  8  1  0  0  0
  4  5  2  0  0  0
  4  6  1  0  0  0
  6  9  1  0  0  0
  6  7  2  0  0  0
  9 10  2  0  0  0
  9 17  1  0  0  0
 10 11  1  0  0  0
 11 12  1  0  0  0
 11 18  1  0  0  0
 12 13  1  0  0  0
 12 17  2  0  0  0
 13 14  2  0  0  0
 14 15  1  0  0  0
 15 16  2  0  0  0
 16 17  1  0  0  0
  7 19  1  0  0  0
 19 20  1  0  0  0
 19 28  2  0  0  0
 20 21  2  0  0  0
 21 29  1  0  0  0
 21 22  1  0  0  0
 29 30  1  0  0  0
 29 34  1  0  0  0
 30 31  1  0  0  0
 31 32  1  0  0  0
 32 33  1  0  0  0
 32 35  1  0  0  0
 33 34  1  0  0  0
 22 23  2  0  0  0
 23 24  1  0  0  0
 23 28  1  0  0  0
 24 25  2  0  0  0
 25 26  1  0  0  0
 26 27  2  0  0  0
 27 28  1  0  0  0
M  END
> <minimizedAffinity>
-7.42564

$$$$
