CHEMBL180331


 34 37  0  0  0  0  0  0  0  0999 V2000
  -16.7953    2.1765  -15.9131 C   0  0  0  0  0  0  0  0  0  0  0  0
  -17.2595    1.0747  -15.2070 C   0  0  0  0  0  0  0  0  0  0  0  0
  -18.5484    1.0988  -14.6701 C   0  0  0  0  0  0  0  0  0  0  0  0
  -19.3588    2.2394  -14.7572 C   0  0  0  0  0  0  0  0  0  0  0  0
  -18.7972    3.4035  -15.2910 C   0  0  0  0  0  0  0  0  0  0  0  0
  -17.5211    3.3686  -15.8726 C   0  0  0  0  0  0  0  0  0  0  0  0
  -20.7276    2.2598  -14.3530 N   0  0  0  0  0  0  0  0  0  0  0  0
  -21.5168    1.1374  -14.2330 C   0  0  0  0  0  0  0  0  0  0  0  0
  -21.1343   -0.0050  -14.4753 O   0  0  0  0  0  0  0  0  0  0  0  0
  -22.8124    1.4119  -13.8069 N   0  0  0  0  0  0  0  0  0  0  0  0
  -21.1703    3.1623  -14.2977 H   0  0  0  0  0  0  0  0  0  0  0  0
  -23.1883    2.3149  -14.0449 H   0  0  0  0  0  0  0  0  0  0  0  0
  -23.7414    0.3875  -13.4744 C   0  0  0  0  0  0  0  0  0  0  0  0
  -24.2378   -0.5121  -14.4317 C   0  0  0  0  0  0  0  0  0  0  0  0
  -25.2153   -1.4515  -14.1043 C   0  0  0  0  0  0  0  0  0  0  0  0
  -25.6750   -1.5213  -12.8013 C   0  0  0  0  0  0  0  0  0  0  0  0
  -26.6255   -2.4102  -12.4850 F   0  0  0  0  0  0  0  0  0  0  0  0
  -25.1592   -0.6814  -11.8197 C   0  0  0  0  0  0  0  0  0  0  0  0
  -24.1845    0.2706  -12.1523 C   0  0  0  0  0  0  0  0  0  0  0  0
  -15.6722    2.1715  -16.7032 O   0  0  0  0  0  0  0  0  0  0  0  0
  -11.9138    5.2026  -14.5929 C   0  0  0  0  0  0  0  0  0  0  0  0
  -12.3702    5.7134  -15.8128 C   0  0  0  0  0  0  0  0  0  0  0  0
  -13.3469    5.0927  -16.5776 C   0  0  0  0  0  0  0  0  0  0  0  0
  -13.7433    5.7229  -17.6916 N   0  0  0  0  0  0  0  0  0  0  0  0
  -14.7219    5.1682  -18.4297 C   0  0  0  0  0  0  0  0  0  0  0  0
  -15.3575    3.9977  -18.0893 C   0  0  0  0  0  0  0  0  0  0  0  0
  -14.9531    3.3356  -16.9310 C   0  0  0  0  0  0  0  0  0  0  0  0
  -13.8725    3.8546  -16.1556 C   0  0  0  0  0  0  0  0  0  0  0  0
  -13.2892    3.2703  -15.0029 C   0  0  0  0  0  0  0  0  0  0  0  0
  -12.3837    3.9566  -14.1852 C   0  0  0  0  0  0  0  0  0  0  0  0
  -11.0412    7.2726  -13.8467 C   0  0  0  0  0  0  0  0  0  0  0  0
  -10.9844    5.8459  -13.8167 O   0  0  0  0  0  0  0  0  0  0  0  0
  -12.0209    3.2659  -13.0608 O   0  0  0  0  0  0  0  0  0  0  0  0
  -12.0698    1.8442  -13.1361 C   0  0  0  0  0  0  0  0  0  0  0  0
 31 32  1  0  0  0
 32 21  1  0  0  0
 21 22  1  0  0  0
 21 30  2  0  0  0
 22 23  2  0  0  0
 23 24  1  0  0  0
 23 28  1  0  0  0
 24 25  2  0  0  0
 25 26  1  0  0  0
 26 27  2  0  0  0
 27 20  1  0  0  0
 27 28  1  0  0  0
 20  1  1  0  0  0
  1  2  1  0  0  0
  1  6  2  0  0  0
  2  3  2  0  0  0
  3  4  1  0  0  0
  4  7  1  0  0  0
  4  5  2  0  0  0
  7  8  1  0  0  0
  7 11  1  0  0  0
  8  9  2  0  0  0
  8 10  1  0  0  0
 10 13  1  0  0  0
 10 12  1  0  0  0
 13 14  1  0  0  0
 13 19  2  0  0  0
 14 15  2  0  0  0
 15 16  1  0  0  0
 16 17  1  0  0  0
 16 18  2  0  0  0
 18 19  1  0  0  0
  5  6  1  0  0  0
 28 29  2  0  0  0
 29 30  1  0  0  0
 30 33  1  0  0  0
 33 34  1  0  0  0
M  END
> <minimizedAffinity>
-9.29870

$$$$
