CHEMBL4246128


 31 33  0  0  0  0  0  0  0  0999 V2000
  -23.7950   -1.2647  -11.7540 N   0  0  0  0  0  0  0  0  0  0  0  0
  -23.3943   -1.2856  -10.8184 H   0  0  0  0  0  0  0  0  0  0  0  0
  -25.1690   -1.5617  -11.6553 C   0  0  0  0  0  0  0  0  0  0  0  0
  -25.9265   -1.7463  -12.7927 C   0  0  0  0  0  0  0  0  0  0  0  0
  -27.2609   -1.9449  -12.5881 C   0  0  0  0  0  0  0  0  0  0  0  0
  -28.3454   -2.0389  -13.9137 Cl  0  0  0  0  0  0  0  0  0  0  0  0
  -27.8424   -2.0243  -11.3868 N   0  0  0  0  0  0  0  0  0  0  0  0
  -27.0217   -1.8946  -10.3387 C   0  0  0  0  0  0  0  0  0  0  0  0
  -25.6951   -1.6574  -10.4269 N   0  0  0  0  0  0  0  0  0  0  0  0
  -27.6310   -1.9700   -8.9956 C   0  0  0  0  0  0  0  0  0  0  0  0
  -27.5848   -0.8699   -8.1154 C   0  0  0  0  0  0  0  0  0  0  0  0
  -28.1228   -0.9332   -6.8252 C   0  0  0  0  0  0  0  0  0  0  0  0
  -28.7253   -2.1043   -6.3766 C   0  0  0  0  0  0  0  0  0  0  0  0
  -28.8019   -3.1988   -7.2372 C   0  0  0  0  0  0  0  0  0  0  0  0
  -28.2652   -3.1333   -8.5281 C   0  0  0  0  0  0  0  0  0  0  0  0
  -29.2634   -2.3060   -5.1358 O   0  0  0  0  0  0  0  0  0  0  0  0
  -30.0585   -3.4741   -4.9680 C   0  0  0  0  0  0  0  0  0  0  0  0
  -22.0954    1.7579  -14.1738 C   0  0  0  0  0  0  0  0  0  0  0  0
  -21.6605    0.4399  -14.2920 C   0  0  0  0  0  0  0  0  0  0  0  0
  -22.2345   -0.5626  -13.5126 C   0  0  0  0  0  0  0  0  0  0  0  0
  -23.2181   -0.2647  -12.5629 C   0  0  0  0  0  0  0  0  0  0  0  0
  -23.6605    1.0565  -12.4555 C   0  0  0  0  0  0  0  0  0  0  0  0
  -23.0870    2.0652  -13.2411 C   0  0  0  0  0  0  0  0  0  0  0  0
  -21.6047    2.8084  -14.9044 O   0  0  0  0  0  0  0  0  0  0  0  0
  -20.3809    3.3654  -14.4014 C   0  0  0  0  0  0  0  0  0  0  0  0
  -19.2752    3.2053  -15.4525 C   0  0  0  0  0  0  0  0  0  0  0  0
  -17.9267    2.9194  -14.9120 N   0  0  0  0  0  0  0  0  0  0  0  0
  -17.9672    0.3927  -15.0675 C   0  0  0  0  0  0  0  0  0  0  0  0
  -17.9622    1.6372  -14.1841 C   0  0  0  0  0  0  0  0  0  0  0  0
  -16.8447    3.0075  -15.9072 C   0  0  0  0  0  0  0  0  0  0  0  0
  -16.2771    4.4001  -16.1627 C   0  0  0  0  0  0  0  0  0  0  0  0
 28 29  1  0  0  0
 29 27  1  0  0  0
 27 30  1  0  0  0
 27 26  1  0  0  0
 30 31  1  0  0  0
 26 25  1  0  0  0
 25 24  1  0  0  0
 24 18  1  0  0  0
 18 19  1  0  0  0
 18 23  2  0  0  0
 19 20  2  0  0  0
 20 21  1  0  0  0
 21  1  1  0  0  0
 21 22  2  0  0  0
  1  3  1  0  0  0
  1  2  1  0  0  0
  3  4  1  0  0  0
  3  9  2  0  0  0
  4  5  2  0  0  0
  5  6  1  0  0  0
  5  7  1  0  0  0
  7  8  2  0  0  0
  8 10  1  0  0  0
  8  9  1  0  0  0
 10 11  1  0  0  0
 10 15  2  0  0  0
 11 12  2  0  0  0
 12 13  1  0  0  0
 13 16  1  0  0  0
 13 14  2  0  0  0
 16 17  1  0  0  0
 14 15  1  0  0  0
 22 23  1  0  0  0
M  END
> <minimizedAffinity>
-8.57137

$$$$
