CHEMBL3935930


 35 38  0  0  0  0  0  0  0  0999 V2000
  -15.3065   -0.0457  -13.7533 C   0  0  0  0  0  0  0  0  0  0  0  0
  -16.4474    0.5042  -13.1567 C   0  0  0  0  0  0  0  0  0  0  0  0
  -17.3741    1.2357  -13.9040 C   0  0  0  0  0  0  0  0  0  0  0  0
  -17.1624    1.4492  -15.2617 C   0  0  0  0  0  0  0  0  0  0  0  0
  -15.9600    1.0187  -15.8255 C   0  0  0  0  0  0  0  0  0  0  0  0
  -15.6629    1.2904  -17.1060 F   0  0  0  0  0  0  0  0  0  0  0  0
  -15.0471    0.2562  -15.0914 C   0  0  0  0  0  0  0  0  0  0  0  0
  -15.7811   -2.7892  -12.9508 O   0  0  0  0  0  0  0  0  0  0  0  0
  -14.7028   -2.2423  -12.7631 C   0  0  0  0  0  0  0  0  0  0  0  0
  -14.4216   -0.9239  -13.0814 N   0  0  0  0  0  0  0  0  0  0  0  0
  -13.6041   -2.8982  -12.2379 N   0  0  0  0  0  0  0  0  0  0  0  0
  -13.4488   -0.6602  -13.0566 H   0  0  0  0  0  0  0  0  0  0  0  0
  -12.9319   -2.3487  -11.7223 H   0  0  0  0  0  0  0  0  0  0  0  0
  -13.5198   -4.3040  -12.0702 C   0  0  0  0  0  0  0  0  0  0  0  0
  -12.9153   -5.1502  -13.0070 C   0  0  0  0  0  0  0  0  0  0  0  0
  -12.8501   -6.5259  -12.7785 C   0  0  0  0  0  0  0  0  0  0  0  0
  -12.1019   -7.5481  -13.9434 Cl  0  0  0  0  0  0  0  0  0  0  0  0
  -13.3813   -7.0760  -11.6145 C   0  0  0  0  0  0  0  0  0  0  0  0
  -13.9742   -6.2441  -10.6664 C   0  0  0  0  0  0  0  0  0  0  0  0
  -14.0331   -4.8693  -10.8966 C   0  0  0  0  0  0  0  0  0  0  0  0
  -14.6096   -4.0789   -9.9770 F   0  0  0  0  0  0  0  0  0  0  0  0
  -18.1535    2.1367  -15.9254 O   0  0  0  0  0  0  0  0  0  0  0  0
  -19.3901    2.3073  -15.3402 C   0  0  0  0  0  0  0  0  0  0  0  0
  -19.9221    3.5290  -14.9448 C   0  0  0  0  0  0  0  0  0  0  0  0
  -21.1395    3.5172  -14.2990 C   0  0  0  0  0  0  0  0  0  0  0  0
  -21.8613    2.4018  -14.0938 N   0  0  0  0  0  0  0  0  0  0  0  0
  -21.3816    1.2310  -14.5417 C   0  0  0  0  0  0  0  0  0  0  0  0
  -20.1496    1.1454  -15.1796 C   0  0  0  0  0  0  0  0  0  0  0  0
  -22.1273    0.0553  -14.3662 N   0  0  0  0  0  0  0  0  0  0  0  0
  -22.5165   -0.4433  -13.1356 C   0  0  0  0  0  0  0  0  0  0  0  0
  -22.2842    0.0426  -12.0382 O   0  0  0  0  0  0  0  0  0  0  0  0
  -22.3596   -0.4733  -15.1890 H   0  0  0  0  0  0  0  0  0  0  0  0
  -23.2861   -1.7199  -13.1483 C   0  0  0  0  0  0  0  0  0  0  0  0
  -24.7872   -1.6791  -13.3165 C   0  0  0  0  0  0  0  0  0  0  0  0
  -24.1826   -2.2507  -12.0651 C   0  0  0  0  0  0  0  0  0  0  0  0
  8  9  2  0  0  0
  9 10  1  0  0  0
  9 11  1  0  0  0
 10  1  1  0  0  0
 10 12  1  0  0  0
  1  2  1  0  0  0
  1  7  2  0  0  0
  2  3  2  0  0  0
  3  4  1  0  0  0
  4 22  1  0  0  0
  4  5  2  0  0  0
 22 23  1  0  0  0
 23 24  1  0  0  0
 23 28  2  0  0  0
 24 25  2  0  0  0
 25 26  1  0  0  0
 26 27  2  0  0  0
 27 29  1  0  0  0
 27 28  1  0  0  0
 29 30  1  0  0  0
 29 32  1  0  0  0
 30 31  2  0  0  0
 30 33  1  0  0  0
 33 34  1  0  0  0
 33 35  1  0  0  0
 34 35  1  0  0  0
  5  6  1  0  0  0
  5  7  1  0  0  0
 11 14  1  0  0  0
 11 13  1  0  0  0
 14 15  1  0  0  0
 14 20  2  0  0  0
 15 16  2  0  0  0
 16 17  1  0  0  0
 16 18  1  0  0  0
 18 19  2  0  0  0
 19 20  1  0  0  0
 20 21  1  0  0  0
M  END
> <minimizedAffinity>
-9.15420

$$$$
