CHEMBL3910894


 37 40  0  0  0  0  0  0  0  0999 V2000
  -28.7278   -4.1102   -8.1752 C   0  0  0  0  0  0  0  0  0  0  0  0
  -29.8949   -3.7568   -7.4979 C   0  0  0  0  0  0  0  0  0  0  0  0
  -30.6362   -4.7418   -6.8366 C   0  0  0  0  0  0  0  0  0  0  0  0
  -30.1928   -6.0699   -6.8222 C   0  0  0  0  0  0  0  0  0  0  0  0
  -29.0039   -6.4087   -7.4718 C   0  0  0  0  0  0  0  0  0  0  0  0
  -28.3129   -5.4408   -8.1868 C   0  0  0  0  0  0  0  0  0  0  0  0
  -27.1966   -5.7875   -8.8443 F   0  0  0  0  0  0  0  0  0  0  0  0
  -26.7522   -1.2087   -9.1521 N   0  0  0  0  0  0  0  0  0  0  0  0
  -27.4450   -2.0362   -8.3109 C   0  0  0  0  0  0  0  0  0  0  0  0
  -27.5676   -1.7146   -7.1306 O   0  0  0  0  0  0  0  0  0  0  0  0
  -27.9673   -3.1664   -8.8743 N   0  0  0  0  0  0  0  0  0  0  0  0
  -26.4410   -0.3604   -8.7032 H   0  0  0  0  0  0  0  0  0  0  0  0
  -27.4152   -3.5036   -9.6629 H   0  0  0  0  0  0  0  0  0  0  0  0
  -25.0461   -1.4285  -12.3922 C   0  0  0  0  0  0  0  0  0  0  0  0
  -26.1518   -1.5540  -13.2352 C   0  0  0  0  0  0  0  0  0  0  0  0
  -27.4090   -1.5949  -12.6694 C   0  0  0  0  0  0  0  0  0  0  0  0
  -27.6259   -1.5066  -11.3384 N   0  0  0  0  0  0  0  0  0  0  0  0
  -26.5584   -1.3621  -10.5282 C   0  0  0  0  0  0  0  0  0  0  0  0
  -25.2557   -1.3422  -11.0092 C   0  0  0  0  0  0  0  0  0  0  0  0
  -22.7744   -0.4256  -12.1919 C   0  0  0  0  0  0  0  0  0  0  0  0
  -23.6488   -1.4024  -12.9606 C   0  0  0  0  0  0  0  0  0  0  0  0
  -23.6334   -1.0379  -14.2749 F   0  0  0  0  0  0  0  0  0  0  0  0
  -23.0494   -2.6273  -12.9161 F   0  0  0  0  0  0  0  0  0  0  0  0
  -30.9507   -6.9628   -6.0911 O   0  0  0  0  0  0  0  0  0  0  0  0
  -31.4465   -8.0941   -6.7046 C   0  0  0  0  0  0  0  0  0  0  0  0
  -32.7992   -8.4121   -6.7458 C   0  0  0  0  0  0  0  0  0  0  0  0
  -33.1660   -9.5622   -7.4033 C   0  0  0  0  0  0  0  0  0  0  0  0
  -32.2807  -10.4108   -7.9546 N   0  0  0  0  0  0  0  0  0  0  0  0
  -30.9657  -10.1389   -7.8628 C   0  0  0  0  0  0  0  0  0  0  0  0
  -30.5083   -8.9790   -7.2492 C   0  0  0  0  0  0  0  0  0  0  0  0
  -30.0397  -11.0392   -8.4158 N   0  0  0  0  0  0  0  0  0  0  0  0
  -29.3983  -10.8249   -9.6256 C   0  0  0  0  0  0  0  0  0  0  0  0
  -29.5611   -9.8947  -10.4012 O   0  0  0  0  0  0  0  0  0  0  0  0
  -29.8301  -11.8734   -7.8961 H   0  0  0  0  0  0  0  0  0  0  0  0
  -28.3773  -11.8641   -9.9627 C   0  0  0  0  0  0  0  0  0  0  0  0
  -27.5770  -12.4658   -8.8251 C   0  0  0  0  0  0  0  0  0  0  0  0
  -26.8980  -11.5565   -9.8043 C   0  0  0  0  0  0  0  0  0  0  0  0
 20 21  1  0  0  0
 21 22  1  0  0  0
 21 23  1  0  0  0
 21 14  1  0  0  0
 14 15  1  0  0  0
 14 19  2  0  0  0
 15 16  2  0  0  0
 16 17  1  0  0  0
 17 18  2  0  0  0
 18  8  1  0  0  0
 18 19  1  0  0  0
  8  9  1  0  0  0
  8 12  1  0  0  0
  9 10  2  0  0  0
  9 11  1  0  0  0
 11  1  1  0  0  0
 11 13  1  0  0  0
  1  2  1  0  0  0
  1  6  2  0  0  0
  2  3  2  0  0  0
  3  4  1  0  0  0
  4 24  1  0  0  0
  4  5  2  0  0  0
 24 25  1  0  0  0
 25 26  1  0  0  0
 25 30  2  0  0  0
 26 27  2  0  0  0
 27 28  1  0  0  0
 28 29  2  0  0  0
 29 31  1  0  0  0
 29 30  1  0  0  0
 31 32  1  0  0  0
 31 34  1  0  0  0
 32 33  2  0  0  0
 32 35  1  0  0  0
 35 36  1  0  0  0
 35 37  1  0  0  0
 36 37  1  0  0  0
  5  6  1  0  0  0
  6  7  1  0  0  0
M  END
> <minimizedAffinity>
-9.41138

$$$$
