CHEMBL3656034


 40 44  0  0  0  0  0  0  0  0999 V2000
  -24.8170   -1.5849  -12.7435 C   0  0  0  0  0  0  0  0  0  0  0  0
  -25.7757   -1.5946  -13.7561 C   0  0  0  0  0  0  0  0  0  0  0  0
  -27.1067   -1.7089  -13.3989 C   0  0  0  0  0  0  0  0  0  0  0  0
  -27.5315   -1.8604  -12.1266 N   0  0  0  0  0  0  0  0  0  0  0  0
  -26.5731   -1.9245  -11.1666 C   0  0  0  0  0  0  0  0  0  0  0  0
  -25.2184   -1.8067  -11.4320 C   0  0  0  0  0  0  0  0  0  0  0  0
  -27.0906   -2.0786   -9.8167 C   0  0  0  0  0  0  0  0  0  0  0  0
  -27.3813   -1.1597   -8.8216 C   0  0  0  0  0  0  0  0  0  0  0  0
  -27.9335   -1.8524   -7.7011 C   0  0  0  0  0  0  0  0  0  0  0  0
  -27.8777   -3.1939   -8.0294 C   0  0  0  0  0  0  0  0  0  0  0  0
  -27.4142   -3.3142   -9.3089 N   0  0  0  0  0  0  0  0  0  0  0  0
  -27.3080   -4.1749   -9.8324 H   0  0  0  0  0  0  0  0  0  0  0  0
  -28.4332   -1.2346   -6.4696 C   0  0  0  0  0  0  0  0  0  0  0  0
  -28.8276   -0.0690   -6.4696 O   0  0  0  0  0  0  0  0  0  0  0  0
  -28.5238   -2.0260   -5.3359 N   0  0  0  0  0  0  0  0  0  0  0  0
  -29.1840   -1.5392   -4.1379 C   0  0  0  0  0  0  0  0  0  0  0  0
  -29.2656   -2.7394   -3.1967 C   0  0  0  0  0  0  0  0  0  0  0  0
  -29.0268   -3.9488   -4.0931 C   0  0  0  0  0  0  0  0  0  0  0  0
  -28.4600   -5.0391   -3.3879 O   0  0  0  0  0  0  0  0  0  0  0  0
  -28.0964   -3.3995   -5.1597 C   0  0  0  0  0  0  0  0  0  0  0  0
  -27.6765   -4.7227   -2.9062 H   0  0  0  0  0  0  0  0  0  0  0  0
  -23.4682   -1.4024  -12.9423 O   0  0  0  0  0  0  0  0  0  0  0  0
  -21.1254    1.0504  -14.3172 C   0  0  0  0  0  0  0  0  0  0  0  0
  -21.8576    2.2381  -14.2229 C   0  0  0  0  0  0  0  0  0  0  0  0
  -23.1281    2.2268  -13.6316 C   0  0  0  0  0  0  0  0  0  0  0  0
  -23.6737    1.0365  -13.1453 C   0  0  0  0  0  0  0  0  0  0  0  0
  -22.9850   -0.1662  -13.3097 C   0  0  0  0  0  0  0  0  0  0  0  0
  -21.6996   -0.1467  -13.8537 C   0  0  0  0  0  0  0  0  0  0  0  0
  -18.8552    1.9601  -14.6844 N   0  0  0  0  0  0  0  0  0  0  0  0
  -19.7832    0.9555  -14.9621 C   0  0  0  0  0  0  0  0  0  0  0  0
  -19.5637   -0.0409  -15.6289 O   0  0  0  0  0  0  0  0  0  0  0  0
  -19.0719    2.5950  -13.9295 H   0  0  0  0  0  0  0  0  0  0  0  0
  -15.5922    4.4569  -17.4703 C   0  0  0  0  0  0  0  0  0  0  0  0
  -15.9230    3.2874  -16.5860 C   0  0  0  0  0  0  0  0  0  0  0  0
  -14.9367    2.3379  -16.3030 C   0  0  0  0  0  0  0  0  0  0  0  0
  -15.2369    1.2423  -15.5031 C   0  0  0  0  0  0  0  0  0  0  0  0
  -16.5177    1.0861  -14.9720 C   0  0  0  0  0  0  0  0  0  0  0  0
  -16.7380   -0.0531  -14.3047 F   0  0  0  0  0  0  0  0  0  0  0  0
  -17.5287    2.0319  -15.2059 C   0  0  0  0  0  0  0  0  0  0  0  0
  -17.2125    3.1258  -16.0371 C   0  0  0  0  0  0  0  0  0  0  0  0
 33 34  1  0  0  0
 34 35  1  0  0  0
 34 40  2  0  0  0
 35 36  2  0  0  0
 36 37  1  0  0  0
 37 38  1  0  0  0
 37 39  2  0  0  0
 39 29  1  0  0  0
 39 40  1  0  0  0
 29 30  1  0  0  0
 29 32  1  0  0  0
 30 31  2  0  0  0
 30 23  1  0  0  0
 23 24  1  0  0  0
 23 28  2  0  0  0
 24 25  2  0  0  0
 25 26  1  0  0  0
 26 27  2  0  0  0
 27 22  1  0  0  0
 27 28  1  0  0  0
 22  1  1  0  0  0
  1  2  1  0  0  0
  1  6  2  0  0  0
  2  3  2  0  0  0
  3  4  1  0  0  0
  4  5  2  0  0  0
  5  7  1  0  0  0
  5  6  1  0  0  0
  7  8  2  0  0  0
  7 11  1  0  0  0
  8  9  1  0  0  0
  9 13  1  0  0  0
  9 10  2  0  0  0
 13 14  2  0  0  0
 13 15  1  0  0  0
 15 16  1  0  0  0
 15 20  1  0  0  0
 16 17  1  0  0  0
 17 18  1  0  0  0
 18 19  1  0  0  0
 18 20  1  0  0  0
 19 21  1  0  0  0
 10 11  1  0  0  0
 11 12  1  0  0  0
M  END
> <minimizedAffinity>
-12.11964

$$$$
