CHEMBL427725


 27 29  0  0  0  0  0  0  0  0999 V2000
  -29.2268   -3.0436   -6.8407 C   0  0  0  0  0  0  0  0  0  0  0  0
  -29.8559   -2.6539   -5.6413 C   0  0  0  0  0  0  0  0  0  0  0  0
  -29.3923   -1.5621   -4.9150 C   0  0  0  0  0  0  0  0  0  0  0  0
  -28.3141   -0.8326   -5.3921 C   0  0  0  0  0  0  0  0  0  0  0  0
  -27.7241   -1.1683   -6.6131 C   0  0  0  0  0  0  0  0  0  0  0  0
  -28.1596   -2.2757   -7.3685 C   0  0  0  0  0  0  0  0  0  0  0  0
  -29.0498   -5.4417   -7.1292 N   0  0  0  0  0  0  0  0  0  0  0  0
  -29.7308   -4.2892   -7.5030 C   0  0  0  0  0  0  0  0  0  0  0  0
  -30.6634   -4.2101   -8.2914 O   0  0  0  0  0  0  0  0  0  0  0  0
  -28.3113   -5.3460   -6.4469 H   0  0  0  0  0  0  0  0  0  0  0  0
  -29.5089   -9.3105   -8.7802 C   0  0  0  0  0  0  0  0  0  0  0  0
  -30.5535   -8.7336   -8.0507 C   0  0  0  0  0  0  0  0  0  0  0  0
  -30.4197   -7.4638   -7.4847 C   0  0  0  0  0  0  0  0  0  0  0  0
  -29.2357   -6.7477   -7.6311 C   0  0  0  0  0  0  0  0  0  0  0  0
  -28.1755   -7.3312   -8.3379 C   0  0  0  0  0  0  0  0  0  0  0  0
  -28.3081   -8.6048   -8.9045 C   0  0  0  0  0  0  0  0  0  0  0  0
  -29.6909  -10.6601   -9.4311 C   0  0  0  0  0  0  0  0  0  0  0  0
  -28.9714  -10.3395  -11.8590 C   0  0  0  0  0  0  0  0  0  0  0  0
  -28.6452  -10.9685  -10.5107 C   0  0  0  0  0  0  0  0  0  0  0  0
  -27.5521   -2.5486   -8.7403 C   0  0  0  0  0  0  0  0  0  0  0  0
  -27.9509   -1.5736   -9.8633 C   0  0  0  0  0  0  0  0  0  0  0  0
  -26.9988   -1.5920  -11.0345 C   0  0  0  0  0  0  0  0  0  0  0  0
  -27.4765   -1.7435  -12.3403 C   0  0  0  0  0  0  0  0  0  0  0  0
  -26.5689   -1.7276  -13.3890 C   0  0  0  0  0  0  0  0  0  0  0  0
  -25.2374   -1.5788  -13.2280 N   0  0  0  0  0  0  0  0  0  0  0  0
  -24.7956   -1.4477  -11.9586 C   0  0  0  0  0  0  0  0  0  0  0  0
  -25.6232   -1.4493  -10.8451 C   0  0  0  0  0  0  0  0  0  0  0  0
 18 19  1  0  0  0
 19 17  1  0  0  0
 17 11  1  0  0  0
 11 12  1  0  0  0
 11 16  2  0  0  0
 12 13  2  0  0  0
 13 14  1  0  0  0
 14  7  1  0  0  0
 14 15  2  0  0  0
  7  8  1  0  0  0
  7 10  1  0  0  0
  8  9  2  0  0  0
  8  1  1  0  0  0
  1  2  1  0  0  0
  1  6  2  0  0  0
  2  3  2  0  0  0
  3  4  1  0  0  0
  4  5  2  0  0  0
  5  6  1  0  0  0
  6 20  1  0  0  0
 20 21  1  0  0  0
 21 22  1  0  0  0
 22 23  1  0  0  0
 22 27  2  0  0  0
 23 24  2  0  0  0
 24 25  1  0  0  0
 25 26  2  0  0  0
 26 27  1  0  0  0
 15 16  1  0  0  0
M  END
> <minimizedAffinity>
-8.76437

$$$$
