CHEMBL2032020


 39 43  0  0  0  0  0  0  0  0999 V2000
  -18.3208    1.8823  -15.3202 C   0  0  0  0  0  0  0  0  0  0  0  0
  -18.7385    0.5488  -15.4007 C   0  0  0  0  0  0  0  0  0  0  0  0
  -20.0950    0.2059  -15.2739 C   0  0  0  0  0  0  0  0  0  0  0  0
  -21.0588    1.1945  -15.0687 C   0  0  0  0  0  0  0  0  0  0  0  0
  -20.6398    2.5248  -15.0181 C   0  0  0  0  0  0  0  0  0  0  0  0
  -21.5256    3.5252  -14.8932 F   0  0  0  0  0  0  0  0  0  0  0  0
  -19.2870    2.8669  -15.1004 C   0  0  0  0  0  0  0  0  0  0  0  0
  -15.8640    1.7351  -14.8870 C   0  0  0  0  0  0  0  0  0  0  0  0
  -15.8894    0.7739  -14.1228 O   0  0  0  0  0  0  0  0  0  0  0  0
  -16.9782    2.3073  -15.4709 N   0  0  0  0  0  0  0  0  0  0  0  0
  -16.8059    3.0505  -16.1494 H   0  0  0  0  0  0  0  0  0  0  0  0
  -12.3655    2.5434  -15.8466 N   0  0  0  0  0  0  0  0  0  0  0  0
  -13.3962    1.6843  -15.4602 C   0  0  0  0  0  0  0  0  0  0  0  0
  -13.2058    0.2100  -15.2610 C   0  0  0  0  0  0  0  0  0  0  0  0
  -14.5635    2.3322  -15.2866 C   0  0  0  0  0  0  0  0  0  0  0  0
  -14.2703    3.7591  -15.5798 C   0  0  0  0  0  0  0  0  0  0  0  0
  -15.1459    4.6142  -15.5290 O   0  0  0  0  0  0  0  0  0  0  0  0
  -12.9016    3.8617  -15.9206 N   0  0  0  0  0  0  0  0  0  0  0  0
  -12.1845    5.0838  -16.1312 C   0  0  0  0  0  0  0  0  0  0  0  0
  -11.7522    5.8472  -15.0310 C   0  0  0  0  0  0  0  0  0  0  0  0
  -11.0399    7.0467  -15.1856 C   0  0  0  0  0  0  0  0  0  0  0  0
  -10.7346    7.5229  -16.4533 C   0  0  0  0  0  0  0  0  0  0  0  0
  -11.1604    6.8060  -17.5590 C   0  0  0  0  0  0  0  0  0  0  0  0
  -11.8861    5.6163  -17.3931 C   0  0  0  0  0  0  0  0  0  0  0  0
  -10.7080    2.1371  -17.6061 C   0  0  0  0  0  0  0  0  0  0  0  0
  -10.9896    2.1539  -16.1071 C   0  0  0  0  0  0  0  0  0  0  0  0
  -22.3668    0.7591  -14.9961 O   0  0  0  0  0  0  0  0  0  0  0  0
  -22.8135    0.1100  -13.8579 C   0  0  0  0  0  0  0  0  0  0  0  0
  -22.0415    0.0414  -12.7004 C   0  0  0  0  0  0  0  0  0  0  0  0
  -22.5896   -0.5681  -11.5944 C   0  0  0  0  0  0  0  0  0  0  0  0
  -23.8023   -1.1539  -11.5838 N   0  0  0  0  0  0  0  0  0  0  0  0
  -24.5175   -1.1581  -12.7209 C   0  0  0  0  0  0  0  0  0  0  0  0
  -25.7498   -1.7977  -12.7178 C   0  0  0  0  0  0  0  0  0  0  0  0
  -26.5532   -1.8737  -13.8549 C   0  0  0  0  0  0  0  0  0  0  0  0
  -26.1100   -1.2979  -15.0381 C   0  0  0  0  0  0  0  0  0  0  0  0
  -24.8763   -0.6319  -15.0658 C   0  0  0  0  0  0  0  0  0  0  0  0
  -24.0657   -0.5479  -13.9078 C   0  0  0  0  0  0  0  0  0  0  0  0
  -27.7332   -2.5471  -13.6771 O   0  0  0  0  0  0  0  0  0  0  0  0
  -28.7172   -1.9288  -12.8576 C   0  0  0  0  0  0  0  0  0  0  0  0
 25 26  1  0  0  0
 26 12  1  0  0  0
 12 13  1  0  0  0
 12 18  1  0  0  0
 13 14  1  0  0  0
 13 15  2  0  0  0
 15  8  1  0  0  0
 15 16  1  0  0  0
  8  9  2  0  0  0
  8 10  1  0  0  0
 10  1  1  0  0  0
 10 11  1  0  0  0
  1  2  1  0  0  0
  1  7  2  0  0  0
  2  3  2  0  0  0
  3  4  1  0  0  0
  4 27  1  0  0  0
  4  5  2  0  0  0
 27 28  1  0  0  0
 28 29  1  0  0  0
 28 37  2  0  0  0
 29 30  2  0  0  0
 30 31  1  0  0  0
 31 32  2  0  0  0
 32 33  1  0  0  0
 32 37  1  0  0  0
 33 34  2  0  0  0
 34 38  1  0  0  0
 34 35  1  0  0  0
 38 39  1  0  0  0
 35 36  2  0  0  0
 36 37  1  0  0  0
  5  6  1  0  0  0
  5  7  1  0  0  0
 16 17  2  0  0  0
 16 18  1  0  0  0
 18 19  1  0  0  0
 19 20  1  0  0  0
 19 24  2  0  0  0
 20 21  2  0  0  0
 21 22  1  0  0  0
 22 23  2  0  0  0
 23 24  1  0  0  0
M  END
> <minimizedAffinity>
-7.92315

$$$$
