CHEMBL3354192


 29 32  0  0  0  0  0  0  0  0999 V2000
  -27.2148   -2.8911   -9.2549 N   0  0  0  0  0  0  0  0  0  0  0  0
  -27.4534   -3.8611   -9.3930 H   0  0  0  0  0  0  0  0  0  0  0  0
  -27.7418   -2.4375   -8.0404 C   0  0  0  0  0  0  0  0  0  0  0  0
  -28.5624   -3.2435   -7.2565 C   0  0  0  0  0  0  0  0  0  0  0  0
  -29.0692   -2.7142   -6.0661 C   0  0  0  0  0  0  0  0  0  0  0  0
  -29.8771   -3.1794   -4.9910 C   0  0  0  0  0  0  0  0  0  0  0  0
  -30.0675   -2.2175   -4.0745 N   0  0  0  0  0  0  0  0  0  0  0  0
  -29.3913   -1.1627   -4.5637 N   0  0  0  0  0  0  0  0  0  0  0  0
  -28.7598   -1.4027   -5.7499 C   0  0  0  0  0  0  0  0  0  0  0  0
  -27.9674   -0.6151   -6.5679 C   0  0  0  0  0  0  0  0  0  0  0  0
  -27.4643   -1.1536   -7.7092 N   0  0  0  0  0  0  0  0  0  0  0  0
  -29.3989   -0.3030   -4.0261 H   0  0  0  0  0  0  0  0  0  0  0  0
  -30.4728   -4.5473   -4.7816 C   0  0  0  0  0  0  0  0  0  0  0  0
  -29.4175   -5.5897   -4.4044 C   0  0  0  0  0  0  0  0  0  0  0  0
  -31.5950   -4.5267   -3.7412 C   0  0  0  0  0  0  0  0  0  0  0  0
  -25.3979   -1.0177  -11.7495 C   0  0  0  0  0  0  0  0  0  0  0  0
  -26.2449   -0.9939  -12.7856 N   0  0  0  0  0  0  0  0  0  0  0  0
  -27.4536   -1.5548  -12.6082 C   0  0  0  0  0  0  0  0  0  0  0  0
  -27.8520   -2.1545  -11.4399 C   0  0  0  0  0  0  0  0  0  0  0  0
  -26.9283   -2.1621  -10.4216 C   0  0  0  0  0  0  0  0  0  0  0  0
  -25.7290   -1.5760  -10.5761 N   0  0  0  0  0  0  0  0  0  0  0  0
  -22.4343    0.3827  -14.0383 C   0  0  0  0  0  0  0  0  0  0  0  0
  -23.6470    1.1912  -13.5628 C   0  0  0  0  0  0  0  0  0  0  0  0
  -23.9340    0.9093  -12.0897 C   0  0  0  0  0  0  0  0  0  0  0  0
  -24.1210   -0.5227  -11.8940 N   0  0  0  0  0  0  0  0  0  0  0  0
  -23.0329   -1.3866  -12.3336 C   0  0  0  0  0  0  0  0  0  0  0  0
  -22.6924   -1.1116  -13.7992 C   0  0  0  0  0  0  0  0  0  0  0  0
  -20.3784    1.6229  -14.0533 C   0  0  0  0  0  0  0  0  0  0  0  0
  -21.2277    0.7317  -13.3437 O   0  0  0  0  0  0  0  0  0  0  0  0
 28 29  1  0  0  0
 29 22  1  0  0  0
 22 23  1  0  0  0
 22 27  1  0  0  0
 23 24  1  0  0  0
 24 25  1  0  0  0
 25 16  1  0  0  0
 25 26  1  0  0  0
 16 17  1  0  0  0
 16 21  2  0  0  0
 17 18  2  0  0  0
 18 19  1  0  0  0
 19 20  2  0  0  0
 20  1  1  0  0  0
 20 21  1  0  0  0
  1  3  1  0  0  0
  1  2  1  0  0  0
  3  4  1  0  0  0
  3 11  2  0  0  0
  4  5  2  0  0  0
  5  6  1  0  0  0
  5  9  1  0  0  0
  6 13  1  0  0  0
  6  7  2  0  0  0
 13 14  1  0  0  0
 13 15  1  0  0  0
  7  8  1  0  0  0
  8  9  1  0  0  0
  8 12  1  0  0  0
  9 10  2  0  0  0
 10 11  1  0  0  0
 26 27  1  0  0  0
M  END
> <minimizedAffinity>
-8.86148

$$$$
