CHEMBL4228868


 32 34  0  0  0  0  0  0  0  0999 V2000
  -29.9376   -3.7570   -4.3125 C   0  0  0  0  0  0  0  0  0  0  0  0
  -31.1920   -4.3378   -4.1011 C   0  0  0  0  0  0  0  0  0  0  0  0
  -31.2916   -5.6920   -3.8014 C   0  0  0  0  0  0  0  0  0  0  0  0
  -30.1387   -6.4691   -3.7421 C   0  0  0  0  0  0  0  0  0  0  0  0
  -28.8793   -5.9166   -4.0339 C   0  0  0  0  0  0  0  0  0  0  0  0
  -28.7856   -4.5535   -4.2993 C   0  0  0  0  0  0  0  0  0  0  0  0
  -27.8223   -6.8419   -4.1162 N   0  0  0  0  0  0  0  0  0  0  0  0
  -27.0352   -6.6177   -3.5196 H   0  0  0  0  0  0  0  0  0  0  0  0
  -27.7326   -8.1186   -4.6364 C   0  0  0  0  0  0  0  0  0  0  0  0
  -27.4830   -9.5705   -3.8607 S   0  0  0  0  0  0  0  0  0  0  0  0
  -27.9459   -8.1501   -6.0085 N   0  0  0  0  0  0  0  0  0  0  0  0
  -27.3664   -7.5211   -6.5556 H   0  0  0  0  0  0  0  0  0  0  0  0
  -28.9800   -8.8442   -6.6801 C   0  0  0  0  0  0  0  0  0  0  0  0
  -28.7145   -9.9778   -7.4631 C   0  0  0  0  0  0  0  0  0  0  0  0
  -29.7263  -10.5760   -8.2138 C   0  0  0  0  0  0  0  0  0  0  0  0
  -31.0073  -10.0558   -8.1599 C   0  0  0  0  0  0  0  0  0  0  0  0
  -31.9572  -10.6084   -8.9292 F   0  0  0  0  0  0  0  0  0  0  0  0
  -31.3003   -8.9777   -7.3229 C   0  0  0  0  0  0  0  0  0  0  0  0
  -32.8982   -8.3411   -7.2514 Cl  0  0  0  0  0  0  0  0  0  0  0  0
  -30.2895   -8.3814   -6.5613 C   0  0  0  0  0  0  0  0  0  0  0  0
  -29.7969   -2.0144   -4.6634 S   0  0  0  0  0  0  0  0  0  0  0  0
  -27.6926   -1.9722   -8.6874 C   0  0  0  0  0  0  0  0  0  0  0  0
  -28.4420   -3.0890   -8.3183 C   0  0  0  0  0  0  0  0  0  0  0  0
  -29.0616   -3.1113   -7.0659 C   0  0  0  0  0  0  0  0  0  0  0  0
  -28.9150   -2.0176   -6.2168 C   0  0  0  0  0  0  0  0  0  0  0  0
  -28.1785   -0.9339   -6.5522 N   0  0  0  0  0  0  0  0  0  0  0  0
  -27.5715   -0.9412   -7.7667 C   0  0  0  0  0  0  0  0  0  0  0  0
  -27.2793   -1.7737  -12.4373 C   0  0  0  0  0  0  0  0  0  0  0  0
  -27.8238   -1.9656  -11.1161 N   0  0  0  0  0  0  0  0  0  0  0  0
  -27.0226   -1.8396   -9.9992 C   0  0  0  0  0  0  0  0  0  0  0  0
  -25.8222   -1.5910  -10.0534 O   0  0  0  0  0  0  0  0  0  0  0  0
  -28.8288   -1.9937  -11.0160 H   0  0  0  0  0  0  0  0  0  0  0  0
 28 29  1  0  0  0
 29 30  1  0  0  0
 29 32  1  0  0  0
 30 31  2  0  0  0
 30 22  1  0  0  0
 22 23  1  0  0  0
 22 27  2  0  0  0
 23 24  2  0  0  0
 24 25  1  0  0  0
 25 21  1  0  0  0
 25 26  2  0  0  0
 21  1  1  0  0  0
  1  2  1  0  0  0
  1  6  2  0  0  0
  2  3  2  0  0  0
  3  4  1  0  0  0
  4  5  2  0  0  0
  5  7  1  0  0  0
  5  6  1  0  0  0
  7  9  1  0  0  0
  7  8  1  0  0  0
  9 10  2  0  0  0
  9 11  1  0  0  0
 11 13  1  0  0  0
 11 12  1  0  0  0
 13 14  1  0  0  0
 13 20  2  0  0  0
 14 15  2  0  0  0
 15 16  1  0  0  0
 16 17  1  0  0  0
 16 18  2  0  0  0
 18 19  1  0  0  0
 18 20  1  0  0  0
 26 27  1  0  0  0
M  END
> <minimizedAffinity>
-8.71411

$$$$
