CHEMBL3690513


 36 39  0  0  0  0  0  0  0  0999 V2000
  -19.1482    1.7150  -15.1242 C   0  0  0  0  0  0  0  0  0  0  0  0
  -19.7583    0.3980  -15.2898 C   0  0  0  0  0  0  0  0  0  0  0  0
  -21.0155    0.1906  -14.8652 C   0  0  0  0  0  0  0  0  0  0  0  0
  -21.7361    1.2391  -14.2860 N   0  0  0  0  0  0  0  0  0  0  0  0
  -23.0458    1.3090  -13.8200 C   0  0  0  0  0  0  0  0  0  0  0  0
  -23.1393    2.5916  -13.2933 C   0  0  0  0  0  0  0  0  0  0  0  0
  -21.9894    3.3100  -13.4523 N   0  0  0  0  0  0  0  0  0  0  0  0
  -21.1647    2.4945  -14.0658 C   0  0  0  0  0  0  0  0  0  0  0  0
  -19.8315    2.7085  -14.5147 C   0  0  0  0  0  0  0  0  0  0  0  0
  -15.2575    2.7240  -16.4677 C   0  0  0  0  0  0  0  0  0  0  0  0
  -16.2634    3.6191  -16.5768 N   0  0  0  0  0  0  0  0  0  0  0  0
  -17.4925    3.2621  -16.1424 C   0  0  0  0  0  0  0  0  0  0  0  0
  -17.7980    2.0213  -15.6078 C   0  0  0  0  0  0  0  0  0  0  0  0
  -16.7702    1.0860  -15.5426 C   0  0  0  0  0  0  0  0  0  0  0  0
  -15.4744    1.4319  -15.9620 C   0  0  0  0  0  0  0  0  0  0  0  0
  -14.3877    0.3961  -15.9138 C   0  0  0  0  0  0  0  0  0  0  0  0
  -13.8913    3.6797  -18.2023 C   0  0  0  0  0  0  0  0  0  0  0  0
  -13.9620    3.1018  -16.8677 N   0  0  0  0  0  0  0  0  0  0  0  0
  -13.5894    3.7409  -16.1723 H   0  0  0  0  0  0  0  0  0  0  0  0
  -24.0748    0.2586  -13.8471 C   0  0  0  0  0  0  0  0  0  0  0  0
  -24.0845   -0.6443  -14.9204 C   0  0  0  0  0  0  0  0  0  0  0  0
  -25.0185   -1.6739  -14.9804 C   0  0  0  0  0  0  0  0  0  0  0  0
  -25.9613   -1.8208  -13.9669 C   0  0  0  0  0  0  0  0  0  0  0  0
  -25.9693   -0.9583  -12.8700 C   0  0  0  0  0  0  0  0  0  0  0  0
  -25.0157    0.0755  -12.8156 C   0  0  0  0  0  0  0  0  0  0  0  0
  -26.8967   -1.0717  -11.8059 N   0  0  0  0  0  0  0  0  0  0  0  0
  -26.6364   -1.5446  -10.5380 C   0  0  0  0  0  0  0  0  0  0  0  0
  -25.5601   -1.9202  -10.0934 O   0  0  0  0  0  0  0  0  0  0  0  0
  -27.7724   -1.6052   -9.7606 N   0  0  0  0  0  0  0  0  0  0  0  0
  -27.8457   -0.7916  -11.9982 H   0  0  0  0  0  0  0  0  0  0  0  0
  -28.4891   -0.9195   -9.9497 H   0  0  0  0  0  0  0  0  0  0  0  0
  -27.6281   -2.0415   -8.3662 C   0  0  0  0  0  0  0  0  0  0  0  0
  -28.3026   -3.3754   -8.0067 C   0  0  0  0  0  0  0  0  0  0  0  0
  -29.5402   -3.4777   -8.5442 F   0  0  0  0  0  0  0  0  0  0  0  0
  -27.5761   -4.4083   -8.5047 F   0  0  0  0  0  0  0  0  0  0  0  0
  -28.4025   -3.5622   -6.6750 F   0  0  0  0  0  0  0  0  0  0  0  0
 17 18  1  0  0  0
 18 10  1  0  0  0
 18 19  1  0  0  0
 10 11  1  0  0  0
 10 15  2  0  0  0
 11 12  2  0  0  0
 12 13  1  0  0  0
 13  1  1  0  0  0
 13 14  2  0  0  0
  1  2  1  0  0  0
  1  9  2  0  0  0
  2  3  2  0  0  0
  3  4  1  0  0  0
  4  5  1  0  0  0
  4  8  1  0  0  0
  5 20  1  0  0  0
  5  6  2  0  0  0
 20 21  1  0  0  0
 20 25  2  0  0  0
 21 22  2  0  0  0
 22 23  1  0  0  0
 23 24  2  0  0  0
 24 26  1  0  0  0
 24 25  1  0  0  0
 26 27  1  0  0  0
 26 30  1  0  0  0
 27 28  2  0  0  0
 27 29  1  0  0  0
 29 32  1  0  0  0
 29 31  1  0  0  0
 32 33  1  0  0  0
 33 34  1  0  0  0
 33 35  1  0  0  0
 33 36  1  0  0  0
  6  7  1  0  0  0
  7  8  2  0  0  0
  8  9  1  0  0  0
 14 15  1  0  0  0
 15 16  1  0  0  0
M  END
> <minimizedAffinity>
-8.52456

$$$$
