CHEMBL3690583


 36 39  0  0  0  0  0  0  0  0999 V2000
  -23.8396   -0.2092  -14.0810 C   0  0  0  0  0  0  0  0  0  0  0  0
  -24.5921   -0.8917  -15.0257 C   0  0  0  0  0  0  0  0  0  0  0  0
  -25.5972   -1.6297  -14.4580 N   0  0  0  0  0  0  0  0  0  0  0  0
  -25.4957   -1.4151  -13.1649 C   0  0  0  0  0  0  0  0  0  0  0  0
  -26.2952   -1.8899  -12.0806 C   0  0  0  0  0  0  0  0  0  0  0  0
  -26.0312   -1.5280  -10.7999 C   0  0  0  0  0  0  0  0  0  0  0  0
  -24.8857   -0.6435  -10.5427 C   0  0  0  0  0  0  0  0  0  0  0  0
  -24.1591   -0.1598  -11.5599 C   0  0  0  0  0  0  0  0  0  0  0  0
  -24.4440   -0.5494  -12.8697 N   0  0  0  0  0  0  0  0  0  0  0  0
  -26.9371   -1.9546   -9.6988 C   0  0  0  0  0  0  0  0  0  0  0  0
  -27.3289   -3.2411   -9.6987 N   0  0  0  0  0  0  0  0  0  0  0  0
  -28.0163   -3.6575   -8.6219 C   0  0  0  0  0  0  0  0  0  0  0  0
  -28.3304   -2.8461   -7.5555 C   0  0  0  0  0  0  0  0  0  0  0  0
  -27.9245   -1.5358   -7.6666 C   0  0  0  0  0  0  0  0  0  0  0  0
  -28.1296   -0.6024   -6.6583 N   0  0  0  0  0  0  0  0  0  0  0  0
  -27.2286   -1.0800   -8.7200 N   0  0  0  0  0  0  0  0  0  0  0  0
  -29.0886   -0.5333   -6.3335 H   0  0  0  0  0  0  0  0  0  0  0  0
  -27.7774    0.2976   -6.9811 H   0  0  0  0  0  0  0  0  0  0  0  0
  -29.0479   -3.3784   -6.3726 C   0  0  0  0  0  0  0  0  0  0  0  0
  -28.3149   -3.3027   -5.2234 F   0  0  0  0  0  0  0  0  0  0  0  0
  -30.2115   -2.7283   -6.0999 F   0  0  0  0  0  0  0  0  0  0  0  0
  -29.3724   -4.6960   -6.5063 F   0  0  0  0  0  0  0  0  0  0  0  0
  -20.3674    1.0918  -14.9034 C   0  0  0  0  0  0  0  0  0  0  0  0
  -20.5778    2.4648  -14.7617 C   0  0  0  0  0  0  0  0  0  0  0  0
  -21.7917    2.9524  -14.2950 C   0  0  0  0  0  0  0  0  0  0  0  0
  -22.8237    2.0709  -14.0008 C   0  0  0  0  0  0  0  0  0  0  0  0
  -22.6976    0.6997  -14.2599 C   0  0  0  0  0  0  0  0  0  0  0  0
  -21.4449    0.2173  -14.6894 C   0  0  0  0  0  0  0  0  0  0  0  0
  -16.8387    0.2155  -15.1890 N   0  0  0  0  0  0  0  0  0  0  0  0
  -17.9069    0.8950  -14.6425 C   0  0  0  0  0  0  0  0  0  0  0  0
  -17.7600    1.6644  -13.7009 O   0  0  0  0  0  0  0  0  0  0  0  0
  -19.1021    0.5579  -15.2507 N   0  0  0  0  0  0  0  0  0  0  0  0
  -16.9171   -0.0805  -16.1496 H   0  0  0  0  0  0  0  0  0  0  0  0
  -19.0956   -0.2959  -15.7885 H   0  0  0  0  0  0  0  0  0  0  0  0
  -15.1174   -0.6477  -13.6420 C   0  0  0  0  0  0  0  0  0  0  0  0
  -15.5058    0.4215  -14.6491 C   0  0  0  0  0  0  0  0  0  0  0  0
 35 36  1  0  0  0
 36 29  1  0  0  0
 29 30  1  0  0  0
 29 33  1  0  0  0
 30 31  2  0  0  0
 30 32  1  0  0  0
 32 23  1  0  0  0
 32 34  1  0  0  0
 23 24  1  0  0  0
 23 28  2  0  0  0
 24 25  2  0  0  0
 25 26  1  0  0  0
 26 27  2  0  0  0
 27  1  1  0  0  0
 27 28  1  0  0  0
  1  2  2  0  0  0
  1  9  1  0  0  0
  2  3  1  0  0  0
  3  4  2  0  0  0
  4  5  1  0  0  0
  4  9  1  0  0  0
  5  6  2  0  0  0
  6 10  1  0  0  0
  6  7  1  0  0  0
 10 11  1  0  0  0
 10 16  2  0  0  0
 11 12  2  0  0  0
 12 13  1  0  0  0
 13 19  1  0  0  0
 13 14  2  0  0  0
 19 20  1  0  0  0
 19 21  1  0  0  0
 19 22  1  0  0  0
 14 15  1  0  0  0
 14 16  1  0  0  0
 15 17  1  0  0  0
 15 18  1  0  0  0
  7  8  2  0  0  0
  8  9  1  0  0  0
M  END
> <minimizedAffinity>
-9.10394

$$$$
