CHEMBL366019


 35 37  0  0  0  0  0  0  0  0999 V2000
  -26.1773  -10.3900   -6.4034 C   0  0  0  0  0  0  0  0  0  0  0  0
  -26.6991  -10.2473   -7.6623 C   0  0  0  0  0  0  0  0  0  0  0  0
  -27.7586   -9.4081   -7.6069 N   0  0  0  0  0  0  0  0  0  0  0  0
  -28.4777   -9.0613   -8.6810 N   0  0  0  0  0  0  0  0  0  0  0  0
  -29.3908   -8.1871   -8.4311 C   0  0  0  0  0  0  0  0  0  0  0  0
  -29.6605   -7.6214   -7.2192 N   0  0  0  0  0  0  0  0  0  0  0  0
  -28.9782   -7.9671   -6.1613 C   0  0  0  0  0  0  0  0  0  0  0  0
  -27.9395   -8.9607   -6.3242 C   0  0  0  0  0  0  0  0  0  0  0  0
  -26.9763   -9.5831   -5.5090 C   0  0  0  0  0  0  0  0  0  0  0  0
  -23.7780  -10.7694   -6.1986 C   0  0  0  0  0  0  0  0  0  0  0  0
  -23.3737   -9.6343   -6.4080 O   0  0  0  0  0  0  0  0  0  0  0  0
  -25.0819  -11.1843   -6.0993 N   0  0  0  0  0  0  0  0  0  0  0  0
  -25.2214  -12.1385   -5.8072 H   0  0  0  0  0  0  0  0  0  0  0  0
  -22.9507  -11.8418   -6.0528 O   0  0  0  0  0  0  0  0  0  0  0  0
  -22.0333  -11.5294   -3.8502 C   0  0  0  0  0  0  0  0  0  0  0  0
  -21.7381  -11.5433   -5.3408 C   0  0  0  0  0  0  0  0  0  0  0  0
  -26.6618   -9.4192   -4.0316 C   0  0  0  0  0  0  0  0  0  0  0  0
  -26.7341  -10.7374   -3.2623 C   0  0  0  0  0  0  0  0  0  0  0  0
  -25.3825   -8.6450   -3.7224 C   0  0  0  0  0  0  0  0  0  0  0  0
  -29.2919   -7.3762   -4.9540 N   0  0  0  0  0  0  0  0  0  0  0  0
  -29.9673   -7.9092   -4.4177 H   0  0  0  0  0  0  0  0  0  0  0  0
  -29.4867   -5.9809   -4.7948 C   0  0  0  0  0  0  0  0  0  0  0  0
  -28.6415   -5.0327   -5.3985 C   0  0  0  0  0  0  0  0  0  0  0  0
  -28.8484   -3.6556   -5.2109 C   0  0  0  0  0  0  0  0  0  0  0  0
  -29.9006   -3.2356   -4.3960 C   0  0  0  0  0  0  0  0  0  0  0  0
  -30.1308   -1.9334   -4.1724 F   0  0  0  0  0  0  0  0  0  0  0  0
  -30.7441   -4.1564   -3.7806 C   0  0  0  0  0  0  0  0  0  0  0  0
  -30.5278   -5.5133   -3.9828 C   0  0  0  0  0  0  0  0  0  0  0  0
  -31.3492   -6.3975   -3.3969 F   0  0  0  0  0  0  0  0  0  0  0  0
  -27.9578   -2.6940   -5.9268 C   0  0  0  0  0  0  0  0  0  0  0  0
  -27.1754   -2.0036   -5.2802 O   0  0  0  0  0  0  0  0  0  0  0  0
  -28.0566   -2.6765   -7.2989 N   0  0  0  0  0  0  0  0  0  0  0  0
  -28.8810   -3.0168   -7.7839 H   0  0  0  0  0  0  0  0  0  0  0  0
  -27.3195   -1.6797   -7.9736 O   0  0  0  0  0  0  0  0  0  0  0  0
  -27.6837   -1.7321   -9.3512 C   0  0  0  0  0  0  0  0  0  0  0  0
 15 16  1  0  0  0
 16 14  1  0  0  0
 14 10  1  0  0  0
 10 11  2  0  0  0
 10 12  1  0  0  0
 12  1  1  0  0  0
 12 13  1  0  0  0
  1  2  2  0  0  0
  1  9  1  0  0  0
  2  3  1  0  0  0
  3  4  1  0  0  0
  3  8  1  0  0  0
  4  5  2  0  0  0
  5  6  1  0  0  0
  6  7  2  0  0  0
  7 20  1  0  0  0
  7  8  1  0  0  0
 20 22  1  0  0  0
 20 21  1  0  0  0
 22 23  1  0  0  0
 22 28  2  0  0  0
 23 24  2  0  0  0
 24 30  1  0  0  0
 24 25  1  0  0  0
 30 31  2  0  0  0
 30 32  1  0  0  0
 32 34  1  0  0  0
 32 33  1  0  0  0
 34 35  1  0  0  0
 25 26  1  0  0  0
 25 27  2  0  0  0
 27 28  1  0  0  0
 28 29  1  0  0  0
  8  9  2  0  0  0
  9 17  1  0  0  0
 17 18  1  0  0  0
 17 19  1  0  0  0
M  END
> <minimizedAffinity>
-8.05405

$$$$
