CHEMBL3690477


 29 31  0  0  0  0  0  0  0  0999 V2000
  -28.6941   -3.4233   -7.1499 C   0  0  0  0  0  0  0  0  0  0  0  0
  -28.7445   -2.1772   -6.5155 C   0  0  0  0  0  0  0  0  0  0  0  0
  -28.1546   -1.0574   -7.0908 C   0  0  0  0  0  0  0  0  0  0  0  0
  -27.5581   -1.1540   -8.3405 C   0  0  0  0  0  0  0  0  0  0  0  0
  -27.5384   -2.3603   -9.0422 C   0  0  0  0  0  0  0  0  0  0  0  0
  -28.0944   -3.5001   -8.4266 C   0  0  0  0  0  0  0  0  0  0  0  0
  -32.4479   -5.5494   -2.0792 N   0  0  0  0  0  0  0  0  0  0  0  0
  -31.6892   -5.3100   -3.2008 C   0  0  0  0  0  0  0  0  0  0  0  0
  -31.2382   -3.9390   -3.4141 C   0  0  0  0  0  0  0  0  0  0  0  0
  -30.4452   -3.6450   -4.4578 C   0  0  0  0  0  0  0  0  0  0  0  0
  -30.0886   -4.6449   -5.3683 N   0  0  0  0  0  0  0  0  0  0  0  0
  -29.3164   -4.6054   -6.5314 C   0  0  0  0  0  0  0  0  0  0  0  0
  -29.3096   -5.9227   -6.9662 C   0  0  0  0  0  0  0  0  0  0  0  0
  -30.0413   -6.7460   -6.1551 N   0  0  0  0  0  0  0  0  0  0  0  0
  -30.5077   -5.9657   -5.2064 C   0  0  0  0  0  0  0  0  0  0  0  0
  -31.3272   -6.2700   -4.0794 C   0  0  0  0  0  0  0  0  0  0  0  0
  -33.0059   -4.7590   -1.7692 H   0  0  0  0  0  0  0  0  0  0  0  0
  -32.9777   -6.4163   -2.1100 H   0  0  0  0  0  0  0  0  0  0  0  0
  -27.0205   -2.4736  -10.3593 N   0  0  0  0  0  0  0  0  0  0  0  0
  -25.9599   -1.7496  -10.8680 C   0  0  0  0  0  0  0  0  0  0  0  0
  -25.2394   -0.9713  -10.2618 O   0  0  0  0  0  0  0  0  0  0  0  0
  -25.7899   -1.9273  -12.2225 N   0  0  0  0  0  0  0  0  0  0  0  0
  -27.5194   -3.0686  -10.9973 H   0  0  0  0  0  0  0  0  0  0  0  0
  -26.0306   -2.8274  -12.6055 H   0  0  0  0  0  0  0  0  0  0  0  0
  -24.6853   -1.1928  -12.8632 C   0  0  0  0  0  0  0  0  0  0  0  0
  -23.2917   -1.8303  -12.7449 C   0  0  0  0  0  0  0  0  0  0  0  0
  -23.3380   -3.1801  -12.8310 F   0  0  0  0  0  0  0  0  0  0  0  0
  -22.5036   -1.4023  -13.7644 F   0  0  0  0  0  0  0  0  0  0  0  0
  -22.6678   -1.5014  -11.5948 F   0  0  0  0  0  0  0  0  0  0  0  0
  7  8  1  0  0  0
  7 17  1  0  0  0
  7 18  1  0  0  0
  8  9  1  0  0  0
  8 16  2  0  0  0
  9 10  2  0  0  0
 10 11  1  0  0  0
 11 12  1  0  0  0
 11 15  1  0  0  0
 12  1  1  0  0  0
 12 13  2  0  0  0
  1  2  1  0  0  0
  1  6  2  0  0  0
  2  3  2  0  0  0
  3  4  1  0  0  0
  4  5  2  0  0  0
  5 19  1  0  0  0
  5  6  1  0  0  0
 19 20  1  0  0  0
 19 23  1  0  0  0
 20 21  2  0  0  0
 20 22  1  0  0  0
 22 25  1  0  0  0
 22 24  1  0  0  0
 25 26  1  0  0  0
 26 27  1  0  0  0
 26 28  1  0  0  0
 26 29  1  0  0  0
 13 14  1  0  0  0
 14 15  2  0  0  0
 15 16  1  0  0  0
M  END
> <minimizedAffinity>
-9.61986

$$$$
