CHEMBL3642837


 41 44  0  0  0  0  0  0  0  0999 V2000
  -29.9953   -3.0504   -5.1374 C   0  0  0  0  0  0  0  0  0  0  0  0
  -29.2662   -2.7264   -6.4138 C   0  0  0  0  0  0  0  0  0  0  0  0
  -28.6381   -1.4667   -6.5159 C   0  0  0  0  0  0  0  0  0  0  0  0
  -27.9453   -1.0957   -7.6702 C   0  0  0  0  0  0  0  0  0  0  0  0
  -27.8416   -1.9972   -8.7199 C   0  0  0  0  0  0  0  0  0  0  0  0
  -28.4189   -3.2585   -8.6004 C   0  0  0  0  0  0  0  0  0  0  0  0
  -29.2041   -3.6264   -7.4997 C   0  0  0  0  0  0  0  0  0  0  0  0
  -27.1308   -1.6254   -9.9723 C   0  0  0  0  0  0  0  0  0  0  0  0
  -27.7945   -1.2442  -10.9246 O   0  0  0  0  0  0  0  0  0  0  0  0
  -25.7531   -1.8311   -9.9458 N   0  0  0  0  0  0  0  0  0  0  0  0
  -25.3801   -2.3355   -9.1507 H   0  0  0  0  0  0  0  0  0  0  0  0
  -24.8589   -1.5943  -11.0107 C   0  0  0  0  0  0  0  0  0  0  0  0
  -23.5227   -1.2754  -10.8262 C   0  0  0  0  0  0  0  0  0  0  0  0
  -22.7061   -0.9689  -11.9190 C   0  0  0  0  0  0  0  0  0  0  0  0
  -23.2046   -0.9354  -13.2264 C   0  0  0  0  0  0  0  0  0  0  0  0
  -24.5521   -1.2934  -13.4300 C   0  0  0  0  0  0  0  0  0  0  0  0
  -25.3517   -1.6591  -12.3168 C   0  0  0  0  0  0  0  0  0  0  0  0
  -22.3762   -0.5587  -14.3142 N   0  0  0  0  0  0  0  0  0  0  0  0
  -21.5880    0.5824  -14.4047 C   0  0  0  0  0  0  0  0  0  0  0  0
  -21.5763    1.5066  -13.5928 O   0  0  0  0  0  0  0  0  0  0  0  0
  -22.3995   -1.1401  -15.1507 H   0  0  0  0  0  0  0  0  0  0  0  0
  -20.7836    0.7184  -15.6853 C   0  0  0  0  0  0  0  0  0  0  0  0
  -19.0497    0.9175  -15.3649 Cl  0  0  0  0  0  0  0  0  0  0  0  0
  -25.2462   -1.2329  -14.7663 C   0  0  0  0  0  0  0  0  0  0  0  0
  -26.6084   -1.2444  -14.6945 F   0  0  0  0  0  0  0  0  0  0  0  0
  -24.9233   -0.1154  -15.4749 F   0  0  0  0  0  0  0  0  0  0  0  0
  -24.9129   -2.2846  -15.5683 F   0  0  0  0  0  0  0  0  0  0  0  0
  -29.9292   -4.8345   -7.5087 N   0  0  0  0  0  0  0  0  0  0  0  0
  -30.8180   -4.8576   -7.9875 H   0  0  0  0  0  0  0  0  0  0  0  0
  -29.5321   -6.1352   -7.1720 C   0  0  0  0  0  0  0  0  0  0  0  0
  -29.5556   -6.5509   -5.8948 N   0  0  0  0  0  0  0  0  0  0  0  0
  -29.1939   -7.8094   -5.6203 C   0  0  0  0  0  0  0  0  0  0  0  0
  -28.7766   -8.6828   -6.5809 C   0  0  0  0  0  0  0  0  0  0  0  0
  -28.7598   -8.1954   -7.8733 C   0  0  0  0  0  0  0  0  0  0  0  0
  -29.1245   -6.9233   -8.1749 N   0  0  0  0  0  0  0  0  0  0  0  0
  -28.3785   -9.0391   -9.0124 C   0  0  0  0  0  0  0  0  0  0  0  0
  -29.2792   -9.9235   -9.6291 C   0  0  0  0  0  0  0  0  0  0  0  0
  -28.8902  -10.6809  -10.7260 C   0  0  0  0  0  0  0  0  0  0  0  0
  -27.5946  -10.5463  -11.1879 C   0  0  0  0  0  0  0  0  0  0  0  0
  -26.6833   -9.7238  -10.6264 N   0  0  0  0  0  0  0  0  0  0  0  0
  -27.0986   -8.9905   -9.5629 C   0  0  0  0  0  0  0  0  0  0  0  0
  1  2  1  0  0  0
  2  3  1  0  0  0
  2  7  2  0  0  0
  3  4  2  0  0  0
  4  5  1  0  0  0
  5  8  1  0  0  0
  5  6  2  0  0  0
  8  9  2  0  0  0
  8 10  1  0  0  0
 10 12  1  0  0  0
 10 11  1  0  0  0
 12 13  1  0  0  0
 12 17  2  0  0  0
 13 14  2  0  0  0
 14 15  1  0  0  0
 15 18  1  0  0  0
 15 16  2  0  0  0
 18 19  1  0  0  0
 18 21  1  0  0  0
 19 20  2  0  0  0
 19 22  1  0  0  0
 22 23  1  0  0  0
 16 24  1  0  0  0
 16 17  1  0  0  0
 24 25  1  0  0  0
 24 26  1  0  0  0
 24 27  1  0  0  0
  6  7  1  0  0  0
  7 28  1  0  0  0
 28 30  1  0  0  0
 28 29  1  0  0  0
 30 31  1  0  0  0
 30 35  2  0  0  0
 31 32  2  0  0  0
 32 33  1  0  0  0
 33 34  2  0  0  0
 34 36  1  0  0  0
 34 35  1  0  0  0
 36 37  1  0  0  0
 36 41  2  0  0  0
 37 38  2  0  0  0
 38 39  1  0  0  0
 39 40  2  0  0  0
 40 41  1  0  0  0
M  END
> <minimizedAffinity>
-9.55845

$$$$
