CHEMBL3397924


 38 41  0  0  0  0  0  0  0  0999 V2000
  -26.9256   -9.7587   -5.9197 C   0  0  0  0  0  0  0  0  0  0  0  0
  -27.9554  -10.3234   -6.2657 O   0  0  0  0  0  0  0  0  0  0  0  0
  -26.8901   -8.5388   -5.2346 N   0  0  0  0  0  0  0  0  0  0  0  0
  -26.0193   -8.0223   -5.2472 H   0  0  0  0  0  0  0  0  0  0  0  0
  -23.1438  -11.7213   -6.5657 C   0  0  0  0  0  0  0  0  0  0  0  0
  -23.3916  -10.9651   -5.4245 C   0  0  0  0  0  0  0  0  0  0  0  0
  -24.6029  -10.2900   -5.2875 C   0  0  0  0  0  0  0  0  0  0  0  0
  -25.5989  -10.3609   -6.2803 C   0  0  0  0  0  0  0  0  0  0  0  0
  -25.3773  -11.0913   -7.4900 C   0  0  0  0  0  0  0  0  0  0  0  0
  -24.1137  -11.7483   -7.5907 C   0  0  0  0  0  0  0  0  0  0  0  0
  -23.7357  -12.4658   -8.7118 O   0  0  0  0  0  0  0  0  0  0  0  0
  -24.2547  -12.1849   -9.4805 H   0  0  0  0  0  0  0  0  0  0  0  0
  -26.3900  -11.1769   -8.5882 C   0  0  0  0  0  0  0  0  0  0  0  0
  -27.3473  -12.2146   -8.6614 C   0  0  0  0  0  0  0  0  0  0  0  0
  -28.2588  -12.3137   -9.7177 C   0  0  0  0  0  0  0  0  0  0  0  0
  -28.3218  -11.3159  -10.6847 C   0  0  0  0  0  0  0  0  0  0  0  0
  -27.4364  -10.2546  -10.6073 C   0  0  0  0  0  0  0  0  0  0  0  0
  -27.5055   -9.2095  -11.4902 O   0  0  0  0  0  0  0  0  0  0  0  0
  -26.4672  -10.2060   -9.6142 C   0  0  0  0  0  0  0  0  0  0  0  0
  -28.2472   -9.3615  -12.0954 H   0  0  0  0  0  0  0  0  0  0  0  0
  -20.8503  -12.1629   -6.0295 C   0  0  0  0  0  0  0  0  0  0  0  0
  -22.0113  -12.4622   -6.7886 O   0  0  0  0  0  0  0  0  0  0  0  0
  -28.0739   -7.8078   -4.9644 C   0  0  0  0  0  0  0  0  0  0  0  0
  -28.7247   -7.8837   -3.7301 C   0  0  0  0  0  0  0  0  0  0  0  0
  -29.9393   -7.2185   -3.5168 C   0  0  0  0  0  0  0  0  0  0  0  0
  -30.5233   -6.4642   -4.5385 C   0  0  0  0  0  0  0  0  0  0  0  0
  -29.8666   -6.3947   -5.7766 C   0  0  0  0  0  0  0  0  0  0  0  0
  -30.5672   -5.5457   -7.1125 Cl  0  0  0  0  0  0  0  0  0  0  0  0
  -28.6294   -7.0245   -5.9783 C   0  0  0  0  0  0  0  0  0  0  0  0
  -31.7208   -5.8019   -4.4063 O   0  0  0  0  0  0  0  0  0  0  0  0
  -31.8256   -4.9404   -3.2643 C   0  0  0  0  0  0  0  0  0  0  0  0
  -31.3884   -3.5148   -3.6460 C   0  0  0  0  0  0  0  0  0  0  0  0
  -30.1146   -3.4461   -4.3994 N   0  0  0  0  0  0  0  0  0  0  0  0
  -29.9972   -2.2045   -5.1835 C   0  0  0  0  0  0  0  0  0  0  0  0
  -28.6929   -2.1615   -5.9812 C   0  0  0  0  0  0  0  0  0  0  0  0
  -27.4849   -2.3138   -5.0697 C   0  0  0  0  0  0  0  0  0  0  0  0
  -27.6334   -3.5629   -4.2110 C   0  0  0  0  0  0  0  0  0  0  0  0
  -28.9759   -3.5793   -3.4723 C   0  0  0  0  0  0  0  0  0  0  0  0
 21 22  1  0  0  0
 22  5  1  0  0  0
  5  6  1  0  0  0
  5 10  2  0  0  0
  6  7  2  0  0  0
  7  8  1  0  0  0
  8  1  1  0  0  0
  8  9  2  0  0  0
  1  2  2  0  0  0
  1  3  1  0  0  0
  3 23  1  0  0  0
  3  4  1  0  0  0
 23 24  1  0  0  0
 23 29  2  0  0  0
 24 25  2  0  0  0
 25 26  1  0  0  0
 26 30  1  0  0  0
 26 27  2  0  0  0
 30 31  1  0  0  0
 31 32  1  0  0  0
 32 33  1  0  0  0
 33 34  1  0  0  0
 33 38  1  0  0  0
 34 35  1  0  0  0
 35 36  1  0  0  0
 36 37  1  0  0  0
 37 38  1  0  0  0
 27 28  1  0  0  0
 27 29  1  0  0  0
  9 13  1  0  0  0
  9 10  1  0  0  0
 13 14  1  0  0  0
 13 19  2  0  0  0
 14 15  2  0  0  0
 15 16  1  0  0  0
 16 17  2  0  0  0
 17 18  1  0  0  0
 17 19  1  0  0  0
 18 20  1  0  0  0
 10 11  1  0  0  0
 11 12  1  0  0  0
M  END
> <minimizedAffinity>
-7.84710

$$$$
