CHEMBL271795


 32 35  0  0  0  0  0  0  0  0999 V2000
  -29.8629   -6.0959   -4.9774 C   0  0  0  0  0  0  0  0  0  0  0  0
  -28.8050   -6.9598   -4.6948 C   0  0  0  0  0  0  0  0  0  0  0  0
  -28.7090   -8.2061   -5.3326 C   0  0  0  0  0  0  0  0  0  0  0  0
  -29.6722   -8.6323   -6.2631 C   0  0  0  0  0  0  0  0  0  0  0  0
  -30.7783   -7.7788   -6.4488 C   0  0  0  0  0  0  0  0  0  0  0  0
  -30.8670   -6.5177   -5.8385 C   0  0  0  0  0  0  0  0  0  0  0  0
  -29.5468   -9.9309   -6.9804 C   0  0  0  0  0  0  0  0  0  0  0  0
  -30.0091  -11.1310   -6.3798 C   0  0  0  0  0  0  0  0  0  0  0  0
  -30.0251  -12.3484   -7.0515 C   0  0  0  0  0  0  0  0  0  0  0  0
  -29.6329  -12.4163   -8.3804 C   0  0  0  0  0  0  0  0  0  0  0  0
  -29.1277  -11.2525   -8.9809 C   0  0  0  0  0  0  0  0  0  0  0  0
  -28.5909  -11.0579  -10.6011 S   0  0  0  0  0  0  0  0  0  0  0  0
  -28.0367   -9.5220  -10.4261 N   0  0  0  0  0  0  0  0  0  0  0  0
  -28.2516   -9.1199   -9.1801 C   0  0  0  0  0  0  0  0  0  0  0  0
  -27.7686   -7.9281   -8.7726 N   0  0  0  0  0  0  0  0  0  0  0  0
  -28.9984  -10.0266   -8.3082 C   0  0  0  0  0  0  0  0  0  0  0  0
  -27.1383   -7.4338   -9.3933 H   0  0  0  0  0  0  0  0  0  0  0  0
  -27.6117   -7.7386   -7.7871 H   0  0  0  0  0  0  0  0  0  0  0  0
  -29.5507   -2.5081   -4.5334 N   0  0  0  0  0  0  0  0  0  0  0  0
  -29.4718   -3.7117   -5.2068 C   0  0  0  0  0  0  0  0  0  0  0  0
  -29.1390   -3.8599   -6.3743 O   0  0  0  0  0  0  0  0  0  0  0  0
  -29.9156   -4.7878   -4.4359 N   0  0  0  0  0  0  0  0  0  0  0  0
  -29.9928   -2.5268   -3.6233 H   0  0  0  0  0  0  0  0  0  0  0  0
  -30.7251   -4.5788   -3.8748 H   0  0  0  0  0  0  0  0  0  0  0  0
  -31.1464    1.8371   -6.3283 C   0  0  0  0  0  0  0  0  0  0  0  0
  -30.0216    0.9016   -5.9921 C   0  0  0  0  0  0  0  0  0  0  0  0
  -28.7048    1.2824   -6.2694 C   0  0  0  0  0  0  0  0  0  0  0  0
  -27.6559    0.4422   -5.9247 C   0  0  0  0  0  0  0  0  0  0  0  0
  -27.9088   -0.7878   -5.3153 C   0  0  0  0  0  0  0  0  0  0  0  0
  -26.8316   -1.4582   -4.8962 F   0  0  0  0  0  0  0  0  0  0  0  0
  -29.2162   -1.2298   -5.0739 C   0  0  0  0  0  0  0  0  0  0  0  0
  -30.2703   -0.3605   -5.3963 C   0  0  0  0  0  0  0  0  0  0  0  0
 25 26  1  0  0  0
 26 27  1  0  0  0
 26 32  2  0  0  0
 27 28  2  0  0  0
 28 29  1  0  0  0
 29 30  1  0  0  0
 29 31  2  0  0  0
 31 19  1  0  0  0
 31 32  1  0  0  0
 19 20  1  0  0  0
 19 23  1  0  0  0
 20 21  2  0  0  0
 20 22  1  0  0  0
 22  1  1  0  0  0
 22 24  1  0  0  0
  1  2  1  0  0  0
  1  6  2  0  0  0
  2  3  2  0  0  0
  3  4  1  0  0  0
  4  7  1  0  0  0
  4  5  2  0  0  0
  7  8  1  0  0  0
  7 16  2  0  0  0
  8  9  2  0  0  0
  9 10  1  0  0  0
 10 11  2  0  0  0
 11 12  1  0  0  0
 11 16  1  0  0  0
 12 13  1  0  0  0
 13 14  2  0  0  0
 14 15  1  0  0  0
 14 16  1  0  0  0
 15 17  1  0  0  0
 15 18  1  0  0  0
  5  6  1  0  0  0
M  END
> <minimizedAffinity>
-8.89868

$$$$
