CHEMBL4590229


 39 42  0  0  0  0  0  0  0  0999 V2000
  -25.3596   -1.3503  -12.4130 C   0  0  0  0  0  0  0  0  0  0  0  0
  -26.6949   -1.5597  -12.7778 C   0  0  0  0  0  0  0  0  0  0  0  0
  -27.6961   -1.7527  -11.8132 C   0  0  0  0  0  0  0  0  0  0  0  0
  -27.3897   -1.7715  -10.4536 C   0  0  0  0  0  0  0  0  0  0  0  0
  -26.0441   -1.6437  -10.0934 C   0  0  0  0  0  0  0  0  0  0  0  0
  -25.0407   -1.4266  -11.0551 C   0  0  0  0  0  0  0  0  0  0  0  0
  -23.7336    1.0292  -12.5439 O   0  0  0  0  0  0  0  0  0  0  0  0
  -23.5719    0.1148  -13.3431 C   0  0  0  0  0  0  0  0  0  0  0  0
  -24.3319   -1.0489  -13.3449 N   0  0  0  0  0  0  0  0  0  0  0  0
  -22.6017    0.1286  -14.3384 N   0  0  0  0  0  0  0  0  0  0  0  0
  -23.9943   -1.8143  -13.9114 H   0  0  0  0  0  0  0  0  0  0  0  0
  -22.7222   -0.5092  -15.1095 H   0  0  0  0  0  0  0  0  0  0  0  0
  -21.6043    1.1322  -14.4785 C   0  0  0  0  0  0  0  0  0  0  0  0
  -21.8773    2.4984  -14.3391 C   0  0  0  0  0  0  0  0  0  0  0  0
  -20.8826    3.4610  -14.5135 C   0  0  0  0  0  0  0  0  0  0  0  0
  -19.5795    3.0697  -14.7889 C   0  0  0  0  0  0  0  0  0  0  0  0
  -19.2583    1.7081  -14.8750 C   0  0  0  0  0  0  0  0  0  0  0  0
  -20.2833    0.7447  -14.7382 C   0  0  0  0  0  0  0  0  0  0  0  0
  -17.8252    1.2802  -15.0732 C   0  0  0  0  0  0  0  0  0  0  0  0
  -17.0041    1.6269  -14.0420 F   0  0  0  0  0  0  0  0  0  0  0  0
  -17.7077   -0.0715  -15.1993 F   0  0  0  0  0  0  0  0  0  0  0  0
  -17.2638    1.8106  -16.1933 F   0  0  0  0  0  0  0  0  0  0  0  0
  -28.4174   -1.9685   -9.5100 N   0  0  0  0  0  0  0  0  0  0  0  0
  -29.2780   -1.4528   -9.6987 H   0  0  0  0  0  0  0  0  0  0  0  0
  -28.4343   -2.7197   -8.3133 C   0  0  0  0  0  0  0  0  0  0  0  0
  -28.5985   -4.1127   -8.3794 C   0  0  0  0  0  0  0  0  0  0  0  0
  -28.6571   -4.8707   -7.2196 C   0  0  0  0  0  0  0  0  0  0  0  0
  -28.4699   -4.2260   -5.9962 C   0  0  0  0  0  0  0  0  0  0  0  0
  -28.1473   -2.8787   -5.8670 C   0  0  0  0  0  0  0  0  0  0  0  0
  -27.7849   -2.3783   -4.6691 N   0  0  0  0  0  0  0  0  0  0  0  0
  -27.5133   -1.0752   -4.5907 C   0  0  0  0  0  0  0  0  0  0  0  0
  -27.6727   -0.1984   -5.5808 N   0  0  0  0  0  0  0  0  0  0  0  0
  -28.0263   -0.7429   -6.7557 C   0  0  0  0  0  0  0  0  0  0  0  0
  -28.2874    0.2113   -7.6915 O   0  0  0  0  0  0  0  0  0  0  0  0
  -28.2071   -2.1019   -7.0295 C   0  0  0  0  0  0  0  0  0  0  0  0
  -28.2205    1.0107   -7.1324 H   0  0  0  0  0  0  0  0  0  0  0  0
  -28.7100   -4.9854   -4.7912 N   0  0  0  0  0  0  0  0  0  0  0  0
  -27.7840   -5.7142   -4.3966 O   0  0  0  0  0  0  0  0  0  0  0  0
  -29.8408   -4.9257   -4.2967 O   0  0  0  0  0  0  0  0  0  0  0  0
  7  8  2  0  0  0
  8  9  1  0  0  0
  8 10  1  0  0  0
  9  1  1  0  0  0
  9 11  1  0  0  0
  1  2  1  0  0  0
  1  6  2  0  0  0
  2  3  2  0  0  0
  3  4  1  0  0  0
  4 23  1  0  0  0
  4  5  2  0  0  0
 23 25  1  0  0  0
 23 24  1  0  0  0
 25 26  1  0  0  0
 25 35  2  0  0  0
 26 27  2  0  0  0
 27 28  1  0  0  0
 28 37  1  0  0  0
 28 29  2  0  0  0
 37 38  2  0  0  0
 37 39  1  0  0  0
 29 30  1  0  0  0
 29 35  1  0  0  0
 30 31  2  0  0  0
 31 32  1  0  0  0
 32 33  2  0  0  0
 33 34  1  0  0  0
 33 35  1  0  0  0
 34 36  1  0  0  0
  5  6  1  0  0  0
 10 13  1  0  0  0
 10 12  1  0  0  0
 13 14  1  0  0  0
 13 18  2  0  0  0
 14 15  2  0  0  0
 15 16  1  0  0  0
 16 17  2  0  0  0
 17 19  1  0  0  0
 17 18  1  0  0  0
 19 20  1  0  0  0
 19 21  1  0  0  0
 19 22  1  0  0  0
M  CHG 1  37   1
M  CHG 1  39  -1
M  END
> <minimizedAffinity>
-11.20651

$$$$
