CHEMBL4291192


 37 40  0  0  0  0  0  0  0  0999 V2000
  -29.0078   -8.3413   -4.8059 C   0  0  0  0  0  0  0  0  0  0  0  0
  -29.5710   -7.1372   -4.5113 C   0  0  0  0  0  0  0  0  0  0  0  0
  -30.7772   -6.8147   -5.1735 N   0  0  0  0  0  0  0  0  0  0  0  0
  -31.5880   -5.6457   -4.8722 C   0  0  0  0  0  0  0  0  0  0  0  0
  -31.3699   -7.6362   -6.1353 C   0  0  0  0  0  0  0  0  0  0  0  0
  -32.4607   -7.4110   -6.6582 O   0  0  0  0  0  0  0  0  0  0  0  0
  -30.7049   -8.7462   -6.5046 N   0  0  0  0  0  0  0  0  0  0  0  0
  -29.5085   -9.2451   -5.9035 C   0  0  0  0  0  0  0  0  0  0  0  0
  -31.1939   -9.3315   -7.1688 H   0  0  0  0  0  0  0  0  0  0  0  0
  -28.4610   -9.5073   -6.9780 C   0  0  0  0  0  0  0  0  0  0  0  0
  -27.7508  -10.7198   -7.0027 C   0  0  0  0  0  0  0  0  0  0  0  0
  -26.9181  -11.0327   -8.0742 C   0  0  0  0  0  0  0  0  0  0  0  0
  -26.7500  -10.1216   -9.1133 C   0  0  0  0  0  0  0  0  0  0  0  0
  -27.3921   -8.8848   -9.0683 C   0  0  0  0  0  0  0  0  0  0  0  0
  -28.2426   -8.5754   -8.0054 C   0  0  0  0  0  0  0  0  0  0  0  0
  -27.8430   -8.9104   -4.0536 C   0  0  0  0  0  0  0  0  0  0  0  0
  -27.8793   -9.7708   -3.1894 O   0  0  0  0  0  0  0  0  0  0  0  0
  -26.7023   -8.3884   -4.5868 O   0  0  0  0  0  0  0  0  0  0  0  0
  -24.7441   -9.7055   -4.9554 C   0  0  0  0  0  0  0  0  0  0  0  0
  -25.4608   -8.7766   -3.9948 C   0  0  0  0  0  0  0  0  0  0  0  0
  -29.0204   -6.2163   -3.4098 C   0  0  0  0  0  0  0  0  0  0  0  0
  -27.7483   -5.0445   -3.9958 S   0  0  0  0  0  0  0  0  0  0  0  0
  -28.6480   -3.5140   -3.8931 C   0  0  0  0  0  0  0  0  0  0  0  0
  -29.7367   -3.1639   -2.6640 S   0  0  0  0  0  0  0  0  0  0  0  0
  -28.2480   -2.5914   -4.8797 N   0  0  0  0  0  0  0  0  0  0  0  0
  -28.0028   -3.0613   -6.2946 C   0  0  0  0  0  0  0  0  0  0  0  0
  -27.6805   -1.9164   -7.2890 C   0  0  0  0  0  0  0  0  0  0  0  0
  -27.5533   -2.3737   -8.7405 C   0  0  0  0  0  0  0  0  0  0  0  0
  -28.8076   -3.0952   -9.2006 C   0  0  0  0  0  0  0  0  0  0  0  0
  -29.0829   -4.2823   -8.2950 C   0  0  0  0  0  0  0  0  0  0  0  0
  -29.2201   -3.8501   -6.8369 C   0  0  0  0  0  0  0  0  0  0  0  0
  -28.7427   -1.1806   -4.6585 C   0  0  0  0  0  0  0  0  0  0  0  0
  -30.0087   -0.8054   -5.4719 C   0  0  0  0  0  0  0  0  0  0  0  0
  -30.3577    0.6840   -5.4559 C   0  0  0  0  0  0  0  0  0  0  0  0
  -29.1484    1.5500   -5.7753 C   0  0  0  0  0  0  0  0  0  0  0  0
  -28.0424    1.2933   -4.7638 C   0  0  0  0  0  0  0  0  0  0  0  0
  -27.5897   -0.1653   -4.7883 C   0  0  0  0  0  0  0  0  0  0  0  0
 19 20  1  0  0  0
 20 18  1  0  0  0
 18 16  1  0  0  0
 16 17  2  0  0  0
 16  1  1  0  0  0
  1  2  2  0  0  0
  1  8  1  0  0  0
  2 21  1  0  0  0
  2  3  1  0  0  0
 21 22  1  0  0  0
 22 23  1  0  0  0
 23 24  2  0  0  0
 23 25  1  0  0  0
 25 26  1  0  0  0
 25 32  1  0  0  0
 26 27  1  0  0  0
 26 31  1  0  0  0
 27 28  1  0  0  0
 28 29  1  0  0  0
 29 30  1  0  0  0
 30 31  1  0  0  0
 32 33  1  0  0  0
 32 37  1  0  0  0
 33 34  1  0  0  0
 34 35  1  0  0  0
 35 36  1  0  0  0
 36 37  1  0  0  0
  3  4  1  0  0  0
  3  5  1  0  0  0
  5  6  2  0  0  0
  5  7  1  0  0  0
  7  8  1  0  0  0
  7  9  1  0  0  0
  8 10  1  0  0  0
 10 11  1  0  0  0
 10 15  2  0  0  0
 11 12  2  0  0  0
 12 13  1  0  0  0
 13 14  2  0  0  0
 14 15  1  0  0  0
M  END
> <minimizedAffinity>
-6.89982

$$$$
