CHEMBL1987143


 18 20  0  0  0  0  0  0  0  0999 V2000
  -27.9451   -6.0028   -8.3876 N   0  0  0  0  0  0  0  0  0  0  0  0
  -28.8470   -6.2171   -7.4105 C   0  0  0  0  0  0  0  0  0  0  0  0
  -29.4828   -7.3412   -7.1542 N   0  0  0  0  0  0  0  0  0  0  0  0
  -30.3369   -7.1294   -6.0944 N   0  0  0  0  0  0  0  0  0  0  0  0
  -30.2081   -5.8757   -5.7215 C   0  0  0  0  0  0  0  0  0  0  0  0
  -30.8441   -5.1012   -4.7164 C   0  0  0  0  0  0  0  0  0  0  0  0
  -30.4996   -3.8077   -4.5540 C   0  0  0  0  0  0  0  0  0  0  0  0
  -29.4773   -3.1693   -5.3856 C   0  0  0  0  0  0  0  0  0  0  0  0
  -28.8874   -3.9096   -6.3488 C   0  0  0  0  0  0  0  0  0  0  0  0
  -29.2577   -5.2457   -6.5133 N   0  0  0  0  0  0  0  0  0  0  0  0
  -27.6000   -6.8219   -8.8824 H   0  0  0  0  0  0  0  0  0  0  0  0
  -27.3198   -5.2078   -8.3999 H   0  0  0  0  0  0  0  0  0  0  0  0
  -29.0848   -1.7592   -5.2406 C   0  0  0  0  0  0  0  0  0  0  0  0
  -30.0351   -0.7455   -5.4168 C   0  0  0  0  0  0  0  0  0  0  0  0
  -29.6590    0.5962   -5.3265 C   0  0  0  0  0  0  0  0  0  0  0  0
  -28.3348    0.9328   -5.0486 C   0  0  0  0  0  0  0  0  0  0  0  0
  -27.3884   -0.0707   -4.8450 C   0  0  0  0  0  0  0  0  0  0  0  0
  -27.7615   -1.4143   -4.9383 C   0  0  0  0  0  0  0  0  0  0  0  0
  1  2  1  0  0  0
  1 11  1  0  0  0
  1 12  1  0  0  0
  2  3  2  0  0  0
  2 10  1  0  0  0
  3  4  1  0  0  0
  4  5  2  0  0  0
  5  6  1  0  0  0
  5 10  1  0  0  0
  6  7  2  0  0  0
  7  8  1  0  0  0
  8 13  1  0  0  0
  8  9  2  0  0  0
 13 14  1  0  0  0
 13 18  2  0  0  0
 14 15  2  0  0  0
 15 16  1  0  0  0
 16 17  2  0  0  0
 17 18  1  0  0  0
  9 10  1  0  0  0
M  END
> <minimizedAffinity>
-7.33487

$$$$
