CHEMBL213290


 42 46  0  0  0  0  0  0  0  0999 V2000
  -14.4337    1.7377  -14.5759 C   0  0  0  0  0  0  0  0  0  0  0  0
  -14.6148    2.7134  -15.7141 C   0  0  0  0  0  0  0  0  0  0  0  0
  -13.4347    3.2930  -16.2235 C   0  0  0  0  0  0  0  0  0  0  0  0
  -13.4667    4.1650  -17.3070 C   0  0  0  0  0  0  0  0  0  0  0  0
  -14.6863    4.4958  -17.8875 C   0  0  0  0  0  0  0  0  0  0  0  0
  -15.8691    3.9502  -17.3749 C   0  0  0  0  0  0  0  0  0  0  0  0
  -15.8749    3.0518  -16.2795 C   0  0  0  0  0  0  0  0  0  0  0  0
  -17.1851    2.5280  -15.8001 C   0  0  0  0  0  0  0  0  0  0  0  0
  -17.3829    1.1744  -15.4929 C   0  0  0  0  0  0  0  0  0  0  0  0
  -18.6120    0.6901  -15.0297 C   0  0  0  0  0  0  0  0  0  0  0  0
  -19.6708    1.5359  -14.7761 C   0  0  0  0  0  0  0  0  0  0  0  0
  -20.7945    1.0290  -14.2711 N   0  0  0  0  0  0  0  0  0  0  0  0
  -21.8233    1.8547  -14.0799 C   0  0  0  0  0  0  0  0  0  0  0  0
  -21.7706    3.1760  -14.3044 N   0  0  0  0  0  0  0  0  0  0  0  0
  -20.6088    3.6710  -14.7707 C   0  0  0  0  0  0  0  0  0  0  0  0
  -19.5029    2.8904  -15.0552 C   0  0  0  0  0  0  0  0  0  0  0  0
  -18.2847    3.3790  -15.5773 C   0  0  0  0  0  0  0  0  0  0  0  0
  -22.9999    1.2503  -13.6725 N   0  0  0  0  0  0  0  0  0  0  0  0
  -23.5115    0.9669  -14.4982 H   0  0  0  0  0  0  0  0  0  0  0  0
  -22.8918    0.2645  -12.6094 C   0  0  0  0  0  0  0  0  0  0  0  0
  -24.3046   -0.0422  -12.0492 C   0  0  0  0  0  0  0  0  0  0  0  0
  -24.6415   -1.4707  -11.8861 N   0  0  0  0  0  0  0  0  0  0  0  0
  -24.9016   -2.0817  -13.2127 C   0  0  0  0  0  0  0  0  0  0  0  0
  -26.2313   -1.6460  -13.8605 C   0  0  0  0  0  0  0  0  0  0  0  0
  -27.3467   -1.8726  -12.9884 O   0  0  0  0  0  0  0  0  0  0  0  0
  -27.1545   -1.2175  -11.7282 C   0  0  0  0  0  0  0  0  0  0  0  0
  -25.8504   -1.6793  -11.0572 C   0  0  0  0  0  0  0  0  0  0  0  0
  -14.6857    5.3915  -19.0814 C   0  0  0  0  0  0  0  0  0  0  0  0
  -15.5011    5.1578  -19.9664 O   0  0  0  0  0  0  0  0  0  0  0  0
  -13.7164    6.3736  -19.0879 N   0  0  0  0  0  0  0  0  0  0  0  0
  -12.9901    6.2950  -18.3861 H   0  0  0  0  0  0  0  0  0  0  0  0
  -13.5025    7.3486  -20.1006 C   0  0  0  0  0  0  0  0  0  0  0  0
  -12.5524    7.1427  -21.1076 C   0  0  0  0  0  0  0  0  0  0  0  0
  -12.3035    8.1169  -22.0716 C   0  0  0  0  0  0  0  0  0  0  0  0
  -13.0023    9.3149  -22.0387 C   0  0  0  0  0  0  0  0  0  0  0  0
  -13.9801    9.5537  -21.0560 C   0  0  0  0  0  0  0  0  0  0  0  0
  -14.2537    8.5495  -20.0856 C   0  0  0  0  0  0  0  0  0  0  0  0
  -15.3266    8.7620  -19.0417 C   0  0  0  0  0  0  0  0  0  0  0  0
  -14.6875   10.8929  -21.0631 C   0  0  0  0  0  0  0  0  0  0  0  0
  -14.3633   11.6795  -22.1292 F   0  0  0  0  0  0  0  0  0  0  0  0
  -16.0439   10.7705  -21.0994 F   0  0  0  0  0  0  0  0  0  0  0  0
  -14.4033   11.6414  -19.9606 F   0  0  0  0  0  0  0  0  0  0  0  0
  1  2  1  0  0  0
  2  3  1  0  0  0
  2  7  2  0  0  0
  3  4  2  0  0  0
  4  5  1  0  0  0
  5 28  1  0  0  0
  5  6  2  0  0  0
 28 29  2  0  0  0
 28 30  1  0  0  0
 30 32  1  0  0  0
 30 31  1  0  0  0
 32 33  1  0  0  0
 32 37  2  0  0  0
 33 34  2  0  0  0
 34 35  1  0  0  0
 35 36  2  0  0  0
 36 39  1  0  0  0
 36 37  1  0  0  0
 39 40  1  0  0  0
 39 41  1  0  0  0
 39 42  1  0  0  0
 37 38  1  0  0  0
  6  7  1  0  0  0
  7  8  1  0  0  0
  8  9  1  0  0  0
  8 17  2  0  0  0
  9 10  2  0  0  0
 10 11  1  0  0  0
 11 12  1  0  0  0
 11 16  2  0  0  0
 12 13  2  0  0  0
 13 18  1  0  0  0
 13 14  1  0  0  0
 18 20  1  0  0  0
 18 19  1  0  0  0
 20 21  1  0  0  0
 21 22  1  0  0  0
 22 23  1  0  0  0
 22 27  1  0  0  0
 23 24  1  0  0  0
 24 25  1  0  0  0
 25 26  1  0  0  0
 26 27  1  0  0  0
 14 15  2  0  0  0
 15 16  1  0  0  0
 16 17  1  0  0  0
M  END
> <minimizedAffinity>
-9.28488

$$$$
