CHEMBL3678948


 37 41  0  0  0  0  0  0  0  0999 V2000
  -25.9299   -1.8323  -11.3079 C   0  0  0  0  0  0  0  0  0  0  0  0
  -24.7761   -1.6120  -10.7061 N   0  0  0  0  0  0  0  0  0  0  0  0
  -23.9855   -0.9880  -11.6154 C   0  0  0  0  0  0  0  0  0  0  0  0
  -22.6812   -0.5188  -11.5534 C   0  0  0  0  0  0  0  0  0  0  0  0
  -22.1418    0.0909  -12.6337 N   0  0  0  0  0  0  0  0  0  0  0  0
  -22.8779    0.1901  -13.7615 C   0  0  0  0  0  0  0  0  0  0  0  0
  -24.1475   -0.2396  -13.9104 N   0  0  0  0  0  0  0  0  0  0  0  0
  -24.6507   -0.8098  -12.8092 C   0  0  0  0  0  0  0  0  0  0  0  0
  -25.9089   -1.3334  -12.6062 N   0  0  0  0  0  0  0  0  0  0  0  0
  -27.0110   -1.3486  -13.5645 C   0  0  0  0  0  0  0  0  0  0  0  0
  -26.4912   -1.5749  -14.9864 C   0  0  0  0  0  0  0  0  0  0  0  0
  -28.1473   -2.3335  -13.2597 C   0  0  0  0  0  0  0  0  0  0  0  0
  -27.0158   -2.4429  -10.7707 N   0  0  0  0  0  0  0  0  0  0  0  0
  -27.5627   -3.1040  -11.3059 H   0  0  0  0  0  0  0  0  0  0  0  0
  -28.3941   -3.3131   -7.4201 C   0  0  0  0  0  0  0  0  0  0  0  0
  -28.3685   -2.0812   -6.7630 C   0  0  0  0  0  0  0  0  0  0  0  0
  -27.9110   -0.9564   -7.4365 C   0  0  0  0  0  0  0  0  0  0  0  0
  -27.4689   -1.0702   -8.7553 C   0  0  0  0  0  0  0  0  0  0  0  0
  -27.4604   -2.3011   -9.4318 C   0  0  0  0  0  0  0  0  0  0  0  0
  -27.9485   -3.4212   -8.7425 C   0  0  0  0  0  0  0  0  0  0  0  0
  -29.2924   -5.4423   -6.1695 C   0  0  0  0  0  0  0  0  0  0  0  0
  -28.8878   -4.4611   -6.7237 C   0  0  0  0  0  0  0  0  0  0  0  0
  -22.2514    0.8385  -14.8207 N   0  0  0  0  0  0  0  0  0  0  0  0
  -22.9168    1.3721  -15.3605 H   0  0  0  0  0  0  0  0  0  0  0  0
  -20.9064    1.1860  -14.9671 C   0  0  0  0  0  0  0  0  0  0  0  0
  -20.5546    2.5329  -15.0090 C   0  0  0  0  0  0  0  0  0  0  0  0
  -19.2318    2.9142  -15.2524 C   0  0  0  0  0  0  0  0  0  0  0  0
  -18.2088    1.9736  -15.4420 C   0  0  0  0  0  0  0  0  0  0  0  0
  -18.5665    0.6256  -15.3588 C   0  0  0  0  0  0  0  0  0  0  0  0
  -19.8946    0.2382  -15.1401 C   0  0  0  0  0  0  0  0  0  0  0  0
  -16.9099    2.4010  -15.6370 N   0  0  0  0  0  0  0  0  0  0  0  0
  -15.7801    1.4628  -15.6755 C   0  0  0  0  0  0  0  0  0  0  0  0
  -14.5170    2.1881  -15.1498 C   0  0  0  0  0  0  0  0  0  0  0  0
  -14.2083    3.4192  -15.9166 N   0  0  0  0  0  0  0  0  0  0  0  0
  -13.0352    4.0886  -15.3632 C   0  0  0  0  0  0  0  0  0  0  0  0
  -15.3861    4.3192  -15.8817 C   0  0  0  0  0  0  0  0  0  0  0  0
  -16.6679    3.6341  -16.4089 C   0  0  0  0  0  0  0  0  0  0  0  0
 21 22  3  0  0  0
 22 15  1  0  0  0
 15 16  1  0  0  0
 15 20  2  0  0  0
 16 17  2  0  0  0
 17 18  1  0  0  0
 18 19  2  0  0  0
 19 13  1  0  0  0
 19 20  1  0  0  0
 13  1  1  0  0  0
 13 14  1  0  0  0
  1  2  2  0  0  0
  1  9  1  0  0  0
  2  3  1  0  0  0
  3  4  1  0  0  0
  3  8  2  0  0  0
  4  5  2  0  0  0
  5  6  1  0  0  0
  6 23  1  0  0  0
  6  7  2  0  0  0
 23 25  1  0  0  0
 23 24  1  0  0  0
 25 26  1  0  0  0
 25 30  2  0  0  0
 26 27  2  0  0  0
 27 28  1  0  0  0
 28 31  1  0  0  0
 28 29  2  0  0  0
 31 32  1  0  0  0
 31 37  1  0  0  0
 32 33  1  0  0  0
 33 34  1  0  0  0
 34 35  1  0  0  0
 34 36  1  0  0  0
 36 37  1  0  0  0
 29 30  1  0  0  0
  7  8  1  0  0  0
  8  9  1  0  0  0
  9 10  1  0  0  0
 10 11  1  0  0  0
 10 12  1  0  0  0
M  END
> <minimizedAffinity>
-9.52835

$$$$
