CHEMBL2031898


 40 44  0  0  0  0  0  0  0  0999 V2000
  -28.8006   -4.6495   -6.8541 C   0  0  0  0  0  0  0  0  0  0  0  0
  -28.3314   -5.4525   -7.8906 C   0  0  0  0  0  0  0  0  0  0  0  0
  -27.6799   -4.8906   -8.9997 C   0  0  0  0  0  0  0  0  0  0  0  0
  -27.4083   -3.5202   -9.0933 C   0  0  0  0  0  0  0  0  0  0  0  0
  -27.8668   -2.7186   -8.0267 C   0  0  0  0  0  0  0  0  0  0  0  0
  -27.6083   -1.0065   -8.0325 Cl  0  0  0  0  0  0  0  0  0  0  0  0
  -28.5495   -3.2759   -6.9190 C   0  0  0  0  0  0  0  0  0  0  0  0
  -26.6952   -2.9464  -10.2037 N   0  0  0  0  0  0  0  0  0  0  0  0
  -27.2173   -2.0515  -11.1284 C   0  0  0  0  0  0  0  0  0  0  0  0
  -28.3765   -1.6480  -11.1051 O   0  0  0  0  0  0  0  0  0  0  0  0
  -25.7261   -3.2491  -10.3240 H   0  0  0  0  0  0  0  0  0  0  0  0
  -26.3130   -1.5313  -12.1872 C   0  0  0  0  0  0  0  0  0  0  0  0
  -26.5400   -1.4954  -13.5220 C   0  0  0  0  0  0  0  0  0  0  0  0
  -27.6769   -2.1042  -14.2894 C   0  0  0  0  0  0  0  0  0  0  0  0
  -25.5503   -0.7844  -14.2130 N   0  0  0  0  0  0  0  0  0  0  0  0
  -25.1973   -0.9824  -15.6175 C   0  0  0  0  0  0  0  0  0  0  0  0
  -24.5060   -0.5829  -13.2970 N   0  0  0  0  0  0  0  0  0  0  0  0
  -24.9534   -0.9451  -12.0230 C   0  0  0  0  0  0  0  0  0  0  0  0
  -24.4087   -0.8184  -10.9303 O   0  0  0  0  0  0  0  0  0  0  0  0
  -23.4355    0.3010  -13.5525 C   0  0  0  0  0  0  0  0  0  0  0  0
  -22.2177   -0.2212  -14.0015 C   0  0  0  0  0  0  0  0  0  0  0  0
  -21.1623    0.6335  -14.3323 C   0  0  0  0  0  0  0  0  0  0  0  0
  -21.3041    2.0097  -14.1788 C   0  0  0  0  0  0  0  0  0  0  0  0
  -22.5098    2.5398  -13.7156 C   0  0  0  0  0  0  0  0  0  0  0  0
  -23.5815    1.6863  -13.4230 C   0  0  0  0  0  0  0  0  0  0  0  0
  -29.4690   -5.1419   -5.7425 O   0  0  0  0  0  0  0  0  0  0  0  0
  -27.8762   -9.9288   -4.8222 C   0  0  0  0  0  0  0  0  0  0  0  0
  -29.1927   -9.9538   -5.2995 C   0  0  0  0  0  0  0  0  0  0  0  0
  -29.9043   -8.8017   -5.6035 C   0  0  0  0  0  0  0  0  0  0  0  0
  -31.1300   -8.9510   -6.1276 N   0  0  0  0  0  0  0  0  0  0  0  0
  -31.8236   -7.8458   -6.4564 C   0  0  0  0  0  0  0  0  0  0  0  0
  -31.3419   -6.5625   -6.3008 C   0  0  0  0  0  0  0  0  0  0  0  0
  -30.0434   -6.4078   -5.8139 C   0  0  0  0  0  0  0  0  0  0  0  0
  -29.3062   -7.5423   -5.3865 C   0  0  0  0  0  0  0  0  0  0  0  0
  -28.0316   -7.5153   -4.7793 C   0  0  0  0  0  0  0  0  0  0  0  0
  -27.3070   -8.6909   -4.5018 C   0  0  0  0  0  0  0  0  0  0  0  0
  -27.5883  -11.9224   -3.5621 C   0  0  0  0  0  0  0  0  0  0  0  0
  -27.1619  -11.0868   -4.6441 O   0  0  0  0  0  0  0  0  0  0  0  0
  -26.0886   -8.4243   -3.9384 O   0  0  0  0  0  0  0  0  0  0  0  0
  -24.9531   -9.1788   -4.3328 C   0  0  0  0  0  0  0  0  0  0  0  0
 37 38  1  0  0  0
 38 27  1  0  0  0
 27 28  1  0  0  0
 27 36  2  0  0  0
 28 29  2  0  0  0
 29 30  1  0  0  0
 29 34  1  0  0  0
 30 31  2  0  0  0
 31 32  1  0  0  0
 32 33  2  0  0  0
 33 26  1  0  0  0
 33 34  1  0  0  0
 26  1  1  0  0  0
  1  2  1  0  0  0
  1  7  2  0  0  0
  2  3  2  0  0  0
  3  4  1  0  0  0
  4  8  1  0  0  0
  4  5  2  0  0  0
  8  9  1  0  0  0
  8 11  1  0  0  0
  9 10  2  0  0  0
  9 12  1  0  0  0
 12 13  2  0  0  0
 12 18  1  0  0  0
 13 14  1  0  0  0
 13 15  1  0  0  0
 15 16  1  0  0  0
 15 17  1  0  0  0
 17 20  1  0  0  0
 17 18  1  0  0  0
 20 21  1  0  0  0
 20 25  2  0  0  0
 21 22  2  0  0  0
 22 23  1  0  0  0
 23 24  2  0  0  0
 24 25  1  0  0  0
 18 19  2  0  0  0
  5  6  1  0  0  0
  5  7  1  0  0  0
 34 35  2  0  0  0
 35 36  1  0  0  0
 36 39  1  0  0  0
 39 40  1  0  0  0
M  END
> <minimizedAffinity>
-7.20811

$$$$
