CHEMBL474538


 33 37  0  0  0  0  0  0  0  0999 V2000
  -15.1579    4.7657  -16.4413 N   0  0  0  0  0  0  0  0  0  0  0  0
  -15.4128    3.5213  -15.8899 C   0  0  0  0  0  0  0  0  0  0  0  0
  -16.6530    3.0604  -16.0504 N   0  0  0  0  0  0  0  0  0  0  0  0
  -17.0161    1.8577  -15.5667 C   0  0  0  0  0  0  0  0  0  0  0  0
  -16.0285    1.1272  -14.8856 C   0  0  0  0  0  0  0  0  0  0  0  0
  -15.9440   -0.1409  -14.2502 C   0  0  0  0  0  0  0  0  0  0  0  0
  -14.6490   -0.3079  -13.7987 C   0  0  0  0  0  0  0  0  0  0  0  0
  -13.9746    0.8685  -14.0685 N   0  0  0  0  0  0  0  0  0  0  0  0
  -14.7878    1.7229  -14.7574 C   0  0  0  0  0  0  0  0  0  0  0  0
  -14.4214    2.9215  -15.2221 N   0  0  0  0  0  0  0  0  0  0  0  0
  -16.0384    5.2406  -16.5872 H   0  0  0  0  0  0  0  0  0  0  0  0
  -14.4554    5.2449  -15.8981 H   0  0  0  0  0  0  0  0  0  0  0  0
  -13.0157    1.0594  -13.8414 H   0  0  0  0  0  0  0  0  0  0  0  0
  -18.3002    1.3238  -15.7382 N   0  0  0  0  0  0  0  0  0  0  0  0
  -18.2884    0.3752  -16.0906 H   0  0  0  0  0  0  0  0  0  0  0  0
  -19.5246    1.6981  -15.1614 C   0  0  0  0  0  0  0  0  0  0  0  0
  -19.8953    3.0270  -14.9547 C   0  0  0  0  0  0  0  0  0  0  0  0
  -21.1319    3.3581  -14.3714 C   0  0  0  0  0  0  0  0  0  0  0  0
  -22.0106    2.3564  -13.9975 C   0  0  0  0  0  0  0  0  0  0  0  0
  -21.6627    1.0297  -14.2244 C   0  0  0  0  0  0  0  0  0  0  0  0
  -22.8592   -0.3501  -13.7162 Br  0  0  0  0  0  0  0  0  0  0  0  0
  -20.4404    0.6990  -14.8054 C   0  0  0  0  0  0  0  0  0  0  0  0
  -13.9969   -1.5413  -13.2684 C   0  0  0  0  0  0  0  0  0  0  0  0
  -14.8734   -2.7039  -12.9114 C   0  0  0  0  0  0  0  0  0  0  0  0
  -15.7317   -2.5430  -11.8095 C   0  0  0  0  0  0  0  0  0  0  0  0
  -16.2894   -3.6492  -11.1805 C   0  0  0  0  0  0  0  0  0  0  0  0
  -15.8913   -4.9241  -11.5652 C   0  0  0  0  0  0  0  0  0  0  0  0
  -15.1194   -5.1058  -12.7187 C   0  0  0  0  0  0  0  0  0  0  0  0
  -14.7833   -6.3970  -13.1298 C   0  0  0  0  0  0  0  0  0  0  0  0
  -14.5385   -6.6417  -14.4730 C   0  0  0  0  0  0  0  0  0  0  0  0
  -14.3204   -5.5698  -15.3263 C   0  0  0  0  0  0  0  0  0  0  0  0
  -14.2770   -4.2685  -14.8079 C   0  0  0  0  0  0  0  0  0  0  0  0
  -14.7299   -3.9932  -13.4947 C   0  0  0  0  0  0  0  0  0  0  0  0
  1  2  1  0  0  0
  1 11  1  0  0  0
  1 12  1  0  0  0
  2  3  1  0  0  0
  2 10  2  0  0  0
  3  4  2  0  0  0
  4 14  1  0  0  0
  4  5  1  0  0  0
 14 16  1  0  0  0
 14 15  1  0  0  0
 16 17  1  0  0  0
 16 22  2  0  0  0
 17 18  2  0  0  0
 18 19  1  0  0  0
 19 20  2  0  0  0
 20 21  1  0  0  0
 20 22  1  0  0  0
  5  6  1  0  0  0
  5  9  2  0  0  0
  6  7  2  0  0  0
  7 23  1  0  0  0
  7  8  1  0  0  0
 23 24  1  0  0  0
 24 25  1  0  0  0
 24 33  2  0  0  0
 25 26  2  0  0  0
 26 27  1  0  0  0
 27 28  2  0  0  0
 28 29  1  0  0  0
 28 33  1  0  0  0
 29 30  2  0  0  0
 30 31  1  0  0  0
 31 32  2  0  0  0
 32 33  1  0  0  0
  8  9  1  0  0  0
  8 13  1  0  0  0
  9 10  1  0  0  0
M  END
> <minimizedAffinity>
-9.61901

$$$$
