CHEMBL3676380


 40 42  0  0  0  0  0  0  0  0999 V2000
  -28.0411   -3.3344   -8.0097 C   0  0  0  0  0  0  0  0  0  0  0  0
  -28.6100   -3.0608   -6.7630 C   0  0  0  0  0  0  0  0  0  0  0  0
  -28.6663   -1.7537   -6.2413 C   0  0  0  0  0  0  0  0  0  0  0  0
  -29.2117   -1.4378   -4.9867 C   0  0  0  0  0  0  0  0  0  0  0  0
  -29.2731   -0.1734   -4.5397 N   0  0  0  0  0  0  0  0  0  0  0  0
  -28.7332    0.7562   -5.3359 C   0  0  0  0  0  0  0  0  0  0  0  0
  -28.1809    0.5626   -6.5403 N   0  0  0  0  0  0  0  0  0  0  0  0
  -28.1680   -0.6942   -6.9969 C   0  0  0  0  0  0  0  0  0  0  0  0
  -27.6524   -0.9676   -8.2652 C   0  0  0  0  0  0  0  0  0  0  0  0
  -27.6196   -2.2642   -8.8094 C   0  0  0  0  0  0  0  0  0  0  0  0
  -28.8262   -5.6267   -7.9866 C   0  0  0  0  0  0  0  0  0  0  0  0
  -29.9042   -5.3744   -7.4596 O   0  0  0  0  0  0  0  0  0  0  0  0
  -27.8641   -4.6959   -8.3397 N   0  0  0  0  0  0  0  0  0  0  0  0
  -26.9407   -5.0478   -8.5176 H   0  0  0  0  0  0  0  0  0  0  0  0
  -29.1988   -8.0319   -7.8761 C   0  0  0  0  0  0  0  0  0  0  0  0
  -28.3941   -7.0248   -8.2382 C   0  0  0  0  0  0  0  0  0  0  0  0
  -29.7016   -2.4844   -4.1734 N   0  0  0  0  0  0  0  0  0  0  0  0
  -30.5901   -2.2429   -3.7384 H   0  0  0  0  0  0  0  0  0  0  0  0
  -29.4716   -3.8687   -4.2615 C   0  0  0  0  0  0  0  0  0  0  0  0
  -28.1813   -4.4094   -4.2569 C   0  0  0  0  0  0  0  0  0  0  0  0
  -27.9840   -5.7903   -4.1590 C   0  0  0  0  0  0  0  0  0  0  0  0
  -29.0823   -6.6440   -4.0734 C   0  0  0  0  0  0  0  0  0  0  0  0
  -28.8095   -8.4972   -3.8257 Br  0  0  0  0  0  0  0  0  0  0  0  0
  -30.3761   -6.1367   -4.1259 C   0  0  0  0  0  0  0  0  0  0  0  0
  -30.5560   -4.7601   -4.2116 C   0  0  0  0  0  0  0  0  0  0  0  0
  -31.8079   -4.2714   -4.2212 F   0  0  0  0  0  0  0  0  0  0  0  0
  -27.0517   -2.3199  -10.0587 O   0  0  0  0  0  0  0  0  0  0  0  0
  -27.8130   -1.7396  -11.1108 C   0  0  0  0  0  0  0  0  0  0  0  0
  -27.0107   -1.6571  -12.4052 C   0  0  0  0  0  0  0  0  0  0  0  0
  -25.8654   -0.7759  -12.2398 N   0  0  0  0  0  0  0  0  0  0  0  0
  -24.8541   -0.7241  -13.1844 C   0  0  0  0  0  0  0  0  0  0  0  0
  -24.9069   -1.3189  -14.2570 O   0  0  0  0  0  0  0  0  0  0  0  0
  -25.5731   -0.5148  -11.2979 H   0  0  0  0  0  0  0  0  0  0  0  0
  -23.6413    0.1357  -12.7693 C   0  0  0  0  0  0  0  0  0  0  0  0
  -22.6943   -0.7766  -11.9456 C   0  0  0  0  0  0  0  0  0  0  0  0
  -23.1726   -2.1174  -11.8047 O   0  0  0  0  0  0  0  0  0  0  0  0
  -23.8599   -2.0926  -11.1125 H   0  0  0  0  0  0  0  0  0  0  0  0
  -23.0412    0.7815  -13.9851 N   0  0  0  0  0  0  0  0  0  0  0  0
  -22.9776    2.2432  -13.8171 C   0  0  0  0  0  0  0  0  0  0  0  0
  -21.6698    0.2969  -14.2084 C   0  0  0  0  0  0  0  0  0  0  0  0
 15 16  2  0  0  0
 16 11  1  0  0  0
 11 12  2  0  0  0
 11 13  1  0  0  0
 13  1  1  0  0  0
 13 14  1  0  0  0
  1  2  1  0  0  0
  1 10  2  0  0  0
  2  3  2  0  0  0
  3  4  1  0  0  0
  3  8  1  0  0  0
  4 17  1  0  0  0
  4  5  2  0  0  0
 17 19  1  0  0  0
 17 18  1  0  0  0
 19 20  1  0  0  0
 19 25  2  0  0  0
 20 21  2  0  0  0
 21 22  1  0  0  0
 22 23  1  0  0  0
 22 24  2  0  0  0
 24 25  1  0  0  0
 25 26  1  0  0  0
  5  6  1  0  0  0
  6  7  2  0  0  0
  7  8  1  0  0  0
  8  9  2  0  0  0
  9 10  1  0  0  0
 10 27  1  0  0  0
 27 28  1  0  0  0
 28 29  1  0  0  0
 29 30  1  0  0  0
 30 31  1  0  0  0
 30 33  1  0  0  0
 31 32  2  0  0  0
 31 34  1  0  0  0
 34 35  1  0  0  0
 34 38  1  0  0  0
 35 36  1  0  0  0
 36 37  1  0  0  0
 38 39  1  0  0  0
 38 40  1  0  0  0
M  END
> <minimizedAffinity>
-8.75701

$$$$
