CHEMBL3917141


 38 42  0  0  0  0  0  0  0  0999 V2000
  -17.0624    2.0262  -15.4657 N   0  0  0  0  0  0  0  0  0  0  0  0
  -18.5105    1.9530  -15.5098 C   0  0  0  0  0  0  0  0  0  0  0  0
  -19.1575    3.1650  -15.7328 C   0  0  0  0  0  0  0  0  0  0  0  0
  -20.4251    3.3808  -15.2213 C   0  0  0  0  0  0  0  0  0  0  0  0
  -21.1309    2.3704  -14.6128 C   0  0  0  0  0  0  0  0  0  0  0  0
  -22.2460    2.7701  -13.9826 N   0  0  0  0  0  0  0  0  0  0  0  0
  -23.0403    1.8075  -13.5122 C   0  0  0  0  0  0  0  0  0  0  0  0
  -22.7885    0.4667  -13.7490 C   0  0  0  0  0  0  0  0  0  0  0  0
  -21.5959    0.0533  -14.2776 N   0  0  0  0  0  0  0  0  0  0  0  0
  -20.6951    1.0292  -14.6671 C   0  0  0  0  0  0  0  0  0  0  0  0
  -19.3184    0.8596  -15.0791 C   0  0  0  0  0  0  0  0  0  0  0  0
  -23.9223   -0.4291  -13.5903 C   0  0  0  0  0  0  0  0  0  0  0  0
  -24.6880   -1.0818  -14.5929 C   0  0  0  0  0  0  0  0  0  0  0  0
  -25.8205   -1.6173  -14.1201 N   0  0  0  0  0  0  0  0  0  0  0  0
  -25.7887   -1.3104  -12.8125 N   0  0  0  0  0  0  0  0  0  0  0  0
  -26.7273   -1.9154  -11.8968 C   0  0  0  0  0  0  0  0  0  0  0  0
  -24.7532   -0.4791  -12.4820 C   0  0  0  0  0  0  0  0  0  0  0  0
  -15.3231   -0.4166  -13.1436 C   0  0  0  0  0  0  0  0  0  0  0  0
  -14.2112   -0.7464  -13.9044 C   0  0  0  0  0  0  0  0  0  0  0  0
  -14.0045   -0.1215  -15.1307 C   0  0  0  0  0  0  0  0  0  0  0  0
  -14.9315    0.8173  -15.6134 C   0  0  0  0  0  0  0  0  0  0  0  0
  -16.1088    1.1225  -14.9247 C   0  0  0  0  0  0  0  0  0  0  0  0
  -16.2315    0.5338  -13.6463 C   0  0  0  0  0  0  0  0  0  0  0  0
  -15.5730   -2.3470  -11.7683 C   0  0  0  0  0  0  0  0  0  0  0  0
  -15.6116   -0.9263  -11.9045 O   0  0  0  0  0  0  0  0  0  0  0  0
  -12.9356   -0.3397  -15.9589 O   0  0  0  0  0  0  0  0  0  0  0  0
  -11.8471   -1.0733  -15.4106 C   0  0  0  0  0  0  0  0  0  0  0  0
  -16.6531    3.4843  -15.5567 C   0  0  0  0  0  0  0  0  0  0  0  0
  -16.0113    3.7680  -16.9355 C   0  0  0  0  0  0  0  0  0  0  0  0
  -14.6579    4.3625  -17.0053 N   0  0  0  0  0  0  0  0  0  0  0  0
  -14.1790    4.4693  -15.6090 C   0  0  0  0  0  0  0  0  0  0  0  0
  -12.7632    5.0189  -15.4994 C   0  0  0  0  0  0  0  0  0  0  0  0
  -11.7726    4.2103  -16.3420 C   0  0  0  0  0  0  0  0  0  0  0  0
  -12.3096    4.1032  -17.7746 C   0  0  0  0  0  0  0  0  0  0  0  0
  -13.7455    3.5639  -17.8311 C   0  0  0  0  0  0  0  0  0  0  0  0
  -11.4835    2.8256  -15.7441 C   0  0  0  0  0  0  0  0  0  0  0  0
  -10.8987    1.9678  -16.7159 O   0  0  0  0  0  0  0  0  0  0  0  0
  -11.5194    1.9023  -17.4616 H   0  0  0  0  0  0  0  0  0  0  0  0
 24 25  1  0  0  0
 25 18  1  0  0  0
 18 19  1  0  0  0
 18 23  2  0  0  0
 19 20  2  0  0  0
 20 26  1  0  0  0
 20 21  1  0  0  0
 26 27  1  0  0  0
 21 22  2  0  0  0
 22  1  1  0  0  0
 22 23  1  0  0  0
  1 28  1  0  0  0
  1  2  1  0  0  0
 28 29  1  0  0  0
 29 30  1  0  0  0
 30 31  1  0  0  0
 30 35  1  0  0  0
 31 32  1  0  0  0
 32 33  1  0  0  0
 33 36  1  0  0  0
 33 34  1  0  0  0
 36 37  1  0  0  0
 37 38  1  0  0  0
 34 35  1  0  0  0
  2  3  1  0  0  0
  2 11  2  0  0  0
  3  4  2  0  0  0
  4  5  1  0  0  0
  5  6  1  0  0  0
  5 10  2  0  0  0
  6  7  2  0  0  0
  7  8  1  0  0  0
  8 12  1  0  0  0
  8  9  2  0  0  0
 12 13  1  0  0  0
 12 17  2  0  0  0
 13 14  2  0  0  0
 14 15  1  0  0  0
 15 16  1  0  0  0
 15 17  1  0  0  0
  9 10  1  0  0  0
 10 11  1  0  0  0
M  END
> <minimizedAffinity>
-8.65023

$$$$
