CHEMBL420087


 14 15  0  0  0  0  0  0  0  0999 V2000
  -28.0133   -1.9160  -10.2332 N   0  0  0  0  0  0  0  0  0  0  0  0
  -28.8140   -1.4443  -10.6372 H   0  0  0  0  0  0  0  0  0  0  0  0
  -28.4898   -3.6889   -5.1687 Cl  0  0  0  0  0  0  0  0  0  0  0  0
  -28.1677   -2.8305   -6.6135 C   0  0  0  0  0  0  0  0  0  0  0  0
  -27.6991   -1.5515   -6.7347 C   0  0  0  0  0  0  0  0  0  0  0  0
  -27.5613   -1.1183   -8.0314 N   0  0  0  0  0  0  0  0  0  0  0  0
  -27.9466   -2.0441   -8.8870 C   0  0  0  0  0  0  0  0  0  0  0  0
  -28.4277   -3.5309   -8.1337 S   0  0  0  0  0  0  0  0  0  0  0  0
  -26.9160   -1.7383  -11.0805 C   0  0  0  0  0  0  0  0  0  0  0  0
  -27.0082   -1.7522  -12.4709 C   0  0  0  0  0  0  0  0  0  0  0  0
  -25.8552   -1.6957  -13.2468 C   0  0  0  0  0  0  0  0  0  0  0  0
  -24.6282   -1.5799  -12.6179 C   0  0  0  0  0  0  0  0  0  0  0  0
  -24.6167   -1.5034  -11.2367 C   0  0  0  0  0  0  0  0  0  0  0  0
  -25.7249   -1.5786  -10.4621 N   0  0  0  0  0  0  0  0  0  0  0  0
  3  4  1  0  0  0
  4  5  2  0  0  0
  4  8  1  0  0  0
  5  6  1  0  0  0
  6  7  2  0  0  0
  7  1  1  0  0  0
  7  8  1  0  0  0
  1  9  1  0  0  0
  1  2  1  0  0  0
  9 10  1  0  0  0
  9 14  2  0  0  0
 10 11  2  0  0  0
 11 12  1  0  0  0
 12 13  2  0  0  0
 13 14  1  0  0  0
M  END
> <minimizedAffinity>
-5.78899

$$$$
