CHEMBL468185


 32 36  0  0  0  0  0  0  0  0999 V2000
  -13.3165    0.6541  -14.0704 C   0  0  0  0  0  0  0  0  0  0  0  0
  -11.9576    0.3360  -13.8600 C   0  0  0  0  0  0  0  0  0  0  0  0
  -10.9533    0.9795  -14.5693 C   0  0  0  0  0  0  0  0  0  0  0  0
  -11.3033    1.8728  -15.5677 C   0  0  0  0  0  0  0  0  0  0  0  0
  -12.6525    2.1601  -15.8223 C   0  0  0  0  0  0  0  0  0  0  0  0
  -13.6951    1.5776  -15.0777 C   0  0  0  0  0  0  0  0  0  0  0  0
  -14.3536   -0.0627  -13.2633 C   0  0  0  0  0  0  0  0  0  0  0  0
  -14.9820    0.5665  -12.4137 O   0  0  0  0  0  0  0  0  0  0  0  0
  -15.4648   -6.2134  -13.6943 C   0  0  0  0  0  0  0  0  0  0  0  0
  -15.5913   -4.9250  -12.9383 C   0  0  0  0  0  0  0  0  0  0  0  0
  -16.1193   -4.9099  -11.6358 C   0  0  0  0  0  0  0  0  0  0  0  0
  -16.2749   -3.7252  -10.9243 C   0  0  0  0  0  0  0  0  0  0  0  0
  -15.8850   -2.5070  -11.4843 C   0  0  0  0  0  0  0  0  0  0  0  0
  -15.2900   -2.4800  -12.7654 C   0  0  0  0  0  0  0  0  0  0  0  0
  -14.6657   -1.4602  -13.5690 C   0  0  0  0  0  0  0  0  0  0  0  0
  -14.3376   -2.0574  -14.7728 C   0  0  0  0  0  0  0  0  0  0  0  0
  -14.6500   -3.3839  -14.6989 N   0  0  0  0  0  0  0  0  0  0  0  0
  -15.1898   -3.6834  -13.4678 C   0  0  0  0  0  0  0  0  0  0  0  0
  -14.4850   -4.0613  -15.4292 H   0  0  0  0  0  0  0  0  0  0  0  0
  -15.0234    2.0476  -15.1813 N   0  0  0  0  0  0  0  0  0  0  0  0
  -15.4028    2.2345  -14.2411 H   0  0  0  0  0  0  0  0  0  0  0  0
  -16.0119    1.3292  -15.9683 C   0  0  0  0  0  0  0  0  0  0  0  0
  -17.4330    1.7753  -15.6565 C   0  0  0  0  0  0  0  0  0  0  0  0
  -17.7117    3.1320  -15.7689 C   0  0  0  0  0  0  0  0  0  0  0  0
  -18.9146    3.6683  -15.3200 C   0  0  0  0  0  0  0  0  0  0  0  0
  -19.9216    2.8717  -14.8215 C   0  0  0  0  0  0  0  0  0  0  0  0
  -21.0418    3.4923  -14.4528 N   0  0  0  0  0  0  0  0  0  0  0  0
  -22.0974    2.7385  -14.1150 C   0  0  0  0  0  0  0  0  0  0  0  0
  -22.0752    1.3623  -14.1292 C   0  0  0  0  0  0  0  0  0  0  0  0
  -20.8737    0.7153  -14.4420 C   0  0  0  0  0  0  0  0  0  0  0  0
  -19.7326    1.4685  -14.8060 C   0  0  0  0  0  0  0  0  0  0  0  0
  -18.4607    0.9335  -15.1624 C   0  0  0  0  0  0  0  0  0  0  0  0
  9 10  1  0  0  0
 10 11  1  0  0  0
 10 18  2  0  0  0
 11 12  2  0  0  0
 12 13  1  0  0  0
 13 14  2  0  0  0
 14 15  1  0  0  0
 14 18  1  0  0  0
 15  7  1  0  0  0
 15 16  2  0  0  0
  7  8  2  0  0  0
  7  1  1  0  0  0
  1  2  1  0  0  0
  1  6  2  0  0  0
  2  3  2  0  0  0
  3  4  1  0  0  0
  4  5  2  0  0  0
  5  6  1  0  0  0
  6 20  1  0  0  0
 20 22  1  0  0  0
 20 21  1  0  0  0
 22 23  1  0  0  0
 23 24  1  0  0  0
 23 32  2  0  0  0
 24 25  2  0  0  0
 25 26  1  0  0  0
 26 27  1  0  0  0
 26 31  2  0  0  0
 27 28  2  0  0  0
 28 29  1  0  0  0
 29 30  2  0  0  0
 30 31  1  0  0  0
 31 32  1  0  0  0
 16 17  1  0  0  0
 17 18  1  0  0  0
 17 19  1  0  0  0
M  END
> <minimizedAffinity>
-9.89459

$$$$
