CHEMBL270193


 43 47  0  0  0  0  0  0  0  0999 V2000
  -28.9119   -4.4996   -6.0175 C   0  0  0  0  0  0  0  0  0  0  0  0
  -28.6141   -3.5934   -4.9343 C   0  0  0  0  0  0  0  0  0  0  0  0
  -28.6396   -4.3178   -3.7625 C   0  0  0  0  0  0  0  0  0  0  0  0
  -28.9839   -5.6020   -4.0648 N   0  0  0  0  0  0  0  0  0  0  0  0
  -29.1495   -6.5732   -3.1533 N   0  0  0  0  0  0  0  0  0  0  0  0
  -29.5038   -7.7098   -3.6573 C   0  0  0  0  0  0  0  0  0  0  0  0
  -29.6996   -7.9862   -4.9831 N   0  0  0  0  0  0  0  0  0  0  0  0
  -29.5168   -7.0609   -5.8819 C   0  0  0  0  0  0  0  0  0  0  0  0
  -29.1366   -5.7449   -5.4141 C   0  0  0  0  0  0  0  0  0  0  0  0
  -28.3304   -2.1217   -4.9486 C   0  0  0  0  0  0  0  0  0  0  0  0
  -27.1392   -1.5938   -4.7583 N   0  0  0  0  0  0  0  0  0  0  0  0
  -27.2521   -0.2403   -4.9571 N   0  0  0  0  0  0  0  0  0  0  0  0
  -28.5183   -0.0118   -5.2055 C   0  0  0  0  0  0  0  0  0  0  0  0
  -29.2731   -1.1486   -5.2079 O   0  0  0  0  0  0  0  0  0  0  0  0
  -29.1615    1.1405   -5.4581 N   0  0  0  0  0  0  0  0  0  0  0  0
  -28.8535    1.9597   -4.9445 H   0  0  0  0  0  0  0  0  0  0  0  0
  -30.5820    1.0834   -5.7524 C   0  0  0  0  0  0  0  0  0  0  0  0
  -30.9649    2.1820   -6.7417 C   0  0  0  0  0  0  0  0  0  0  0  0
  -32.3019    1.8848   -7.4317 C   0  0  0  0  0  0  0  0  0  0  0  0
  -32.5247    2.7202   -8.6898 C   0  0  0  0  0  0  0  0  0  0  0  0
  -32.0795    4.0964   -8.5095 N   0  0  0  0  0  0  0  0  0  0  0  0
  -32.6048    4.5263   -7.7492 H   0  0  0  0  0  0  0  0  0  0  0  0
  -32.3003    4.6339   -9.3467 H   0  0  0  0  0  0  0  0  0  0  0  0
  -27.9786   -5.0226   -8.3595 C   0  0  0  0  0  0  0  0  0  0  0  0
  -28.9380   -4.1940   -7.5039 C   0  0  0  0  0  0  0  0  0  0  0  0
  -30.3685   -4.2198   -8.0476 C   0  0  0  0  0  0  0  0  0  0  0  0
  -29.6707   -7.3718   -7.2185 N   0  0  0  0  0  0  0  0  0  0  0  0
  -29.7250   -6.5767   -7.8457 H   0  0  0  0  0  0  0  0  0  0  0  0
  -29.2528   -8.5646   -7.8461 C   0  0  0  0  0  0  0  0  0  0  0  0
  -27.9248   -9.0156   -7.7934 C   0  0  0  0  0  0  0  0  0  0  0  0
  -27.5342  -10.2325   -8.3846 C   0  0  0  0  0  0  0  0  0  0  0  0
  -28.4960  -10.9918   -9.0510 C   0  0  0  0  0  0  0  0  0  0  0  0
  -28.1769  -12.1589   -9.6327 F   0  0  0  0  0  0  0  0  0  0  0  0
  -29.8201  -10.5673   -9.1222 C   0  0  0  0  0  0  0  0  0  0  0  0
  -30.1855   -9.3705   -8.5140 C   0  0  0  0  0  0  0  0  0  0  0  0
  -31.4668   -8.9771   -8.5722 F   0  0  0  0  0  0  0  0  0  0  0  0
  -26.1118  -10.6561   -8.2354 C   0  0  0  0  0  0  0  0  0  0  0  0
  -25.5591  -11.2335   -9.1686 O   0  0  0  0  0  0  0  0  0  0  0  0
  -25.4661  -10.3619   -7.0482 N   0  0  0  0  0  0  0  0  0  0  0  0
  -25.9713   -9.8872   -6.3072 H   0  0  0  0  0  0  0  0  0  0  0  0
  -24.0935  -10.7037   -6.8252 C   0  0  0  0  0  0  0  0  0  0  0  0
  -23.6296  -11.1379   -5.4628 C   0  0  0  0  0  0  0  0  0  0  0  0
  -23.1896   -9.8140   -6.0163 C   0  0  0  0  0  0  0  0  0  0  0  0
 24 25  1  0  0  0
 25 26  1  0  0  0
 25  1  1  0  0  0
  1  2  1  0  0  0
  1  9  2  0  0  0
  2 10  1  0  0  0
  2  3  2  0  0  0
 10 11  2  0  0  0
 10 14  1  0  0  0
 11 12  1  0  0  0
 12 13  2  0  0  0
 13 15  1  0  0  0
 13 14  1  0  0  0
 15 17  1  0  0  0
 15 16  1  0  0  0
 17 18  1  0  0  0
 18 19  1  0  0  0
 19 20  1  0  0  0
 20 21  1  0  0  0
 21 22  1  0  0  0
 21 23  1  0  0  0
  3  4  1  0  0  0
  4  5  1  0  0  0
  4  9  1  0  0  0
  5  6  2  0  0  0
  6  7  1  0  0  0
  7  8  2  0  0  0
  8 27  1  0  0  0
  8  9  1  0  0  0
 27 29  1  0  0  0
 27 28  1  0  0  0
 29 30  1  0  0  0
 29 35  2  0  0  0
 30 31  2  0  0  0
 31 37  1  0  0  0
 31 32  1  0  0  0
 37 38  2  0  0  0
 37 39  1  0  0  0
 39 41  1  0  0  0
 39 40  1  0  0  0
 41 42  1  0  0  0
 41 43  1  0  0  0
 42 43  1  0  0  0
 32 33  1  0  0  0
 32 34  2  0  0  0
 34 35  1  0  0  0
 35 36  1  0  0  0
M  END
> <minimizedAffinity>
-8.44899

$$$$
