CHEMBL4470543


 37 41  0  0  0  0  0  0  0  0999 V2000
  -24.7919   -1.5029  -12.7431 C   0  0  0  0  0  0  0  0  0  0  0  0
  -26.1385   -1.5961  -13.1197 C   0  0  0  0  0  0  0  0  0  0  0  0
  -27.1777   -1.6326  -12.1578 C   0  0  0  0  0  0  0  0  0  0  0  0
  -26.8991   -1.5981  -10.7841 C   0  0  0  0  0  0  0  0  0  0  0  0
  -25.5435   -1.5987  -10.4100 C   0  0  0  0  0  0  0  0  0  0  0  0
  -24.5016   -1.5809  -11.3780 C   0  0  0  0  0  0  0  0  0  0  0  0
  -21.9792   -0.0056  -14.5885 N   0  0  0  0  0  0  0  0  0  0  0  0
  -23.0652   -0.0482  -13.7198 C   0  0  0  0  0  0  0  0  0  0  0  0
  -23.3814    0.8862  -12.9769 O   0  0  0  0  0  0  0  0  0  0  0  0
  -23.7393   -1.2679  -13.6937 N   0  0  0  0  0  0  0  0  0  0  0  0
  -21.8482   -0.7880  -15.2140 H   0  0  0  0  0  0  0  0  0  0  0  0
  -23.1869   -2.0688  -13.9556 H   0  0  0  0  0  0  0  0  0  0  0  0
  -18.8691    1.9825  -15.2338 C   0  0  0  0  0  0  0  0  0  0  0  0
  -19.7098    0.8844  -15.1135 C   0  0  0  0  0  0  0  0  0  0  0  0
  -21.0246    1.0599  -14.6709 C   0  0  0  0  0  0  0  0  0  0  0  0
  -21.4133    2.3567  -14.3239 C   0  0  0  0  0  0  0  0  0  0  0  0
  -20.4965    3.3960  -14.4746 C   0  0  0  0  0  0  0  0  0  0  0  0
  -19.2362    3.2408  -14.9267 N   0  0  0  0  0  0  0  0  0  0  0  0
  -16.7812    2.8740  -15.8398 C   0  0  0  0  0  0  0  0  0  0  0  0
  -17.5917    1.7150  -15.6895 O   0  0  0  0  0  0  0  0  0  0  0  0
  -27.8783   -1.4273   -9.7858 O   0  0  0  0  0  0  0  0  0  0  0  0
  -28.0505   -2.4189   -8.8020 C   0  0  0  0  0  0  0  0  0  0  0  0
  -27.8965   -3.6863   -9.2617 N   0  0  0  0  0  0  0  0  0  0  0  0
  -28.0240   -4.6728   -8.3802 C   0  0  0  0  0  0  0  0  0  0  0  0
  -28.2814   -4.5210   -7.0959 N   0  0  0  0  0  0  0  0  0  0  0  0
  -28.3526   -3.2822   -6.6260 C   0  0  0  0  0  0  0  0  0  0  0  0
  -28.5476   -3.2696   -5.2463 C   0  0  0  0  0  0  0  0  0  0  0  0
  -28.4889   -2.1086   -4.5040 C   0  0  0  0  0  0  0  0  0  0  0  0
  -28.3053   -0.9252   -5.1921 C   0  0  0  0  0  0  0  0  0  0  0  0
  -28.3506   -0.8716   -6.6034 C   0  0  0  0  0  0  0  0  0  0  0  0
  -28.2477   -2.0984   -7.3959 C   0  0  0  0  0  0  0  0  0  0  0  0
  -28.5598    0.3530   -7.1990 O   0  0  0  0  0  0  0  0  0  0  0  0
  -29.0174    1.4152   -6.3029 C   0  0  0  0  0  0  0  0  0  0  0  0
  -29.1887    1.0692   -4.8271 C   0  0  0  0  0  0  0  0  0  0  0  0
  -28.1394    0.2093   -4.4367 O   0  0  0  0  0  0  0  0  0  0  0  0
  -28.6424   -2.0200   -3.1489 O   0  0  0  0  0  0  0  0  0  0  0  0
  -29.7257   -2.7455   -2.5805 C   0  0  0  0  0  0  0  0  0  0  0  0
 19 20  1  0  0  0
 20 13  1  0  0  0
 13 14  1  0  0  0
 13 18  2  0  0  0
 14 15  2  0  0  0
 15  7  1  0  0  0
 15 16  1  0  0  0
  7  8  1  0  0  0
  7 11  1  0  0  0
  8  9  2  0  0  0
  8 10  1  0  0  0
 10  1  1  0  0  0
 10 12  1  0  0  0
  1  2  1  0  0  0
  1  6  2  0  0  0
  2  3  2  0  0  0
  3  4  1  0  0  0
  4 21  1  0  0  0
  4  5  2  0  0  0
 21 22  1  0  0  0
 22 23  1  0  0  0
 22 31  2  0  0  0
 23 24  2  0  0  0
 24 25  1  0  0  0
 25 26  2  0  0  0
 26 27  1  0  0  0
 26 31  1  0  0  0
 27 28  2  0  0  0
 28 36  1  0  0  0
 28 29  1  0  0  0
 36 37  1  0  0  0
 29 30  2  0  0  0
 29 35  1  0  0  0
 30 31  1  0  0  0
 30 32  1  0  0  0
 32 33  1  0  0  0
 33 34  1  0  0  0
 34 35  1  0  0  0
  5  6  1  0  0  0
 16 17  2  0  0  0
 17 18  1  0  0  0
M  END
> <minimizedAffinity>
-9.58227

$$$$
