CHEMBL523745


 33 37  0  0  0  0  0  0  0  0999 V2000
  -14.4813   -4.6215  -12.3209 C   0  0  0  0  0  0  0  0  0  0  0  0
  -15.5733   -4.0969  -11.6060 C   0  0  0  0  0  0  0  0  0  0  0  0
  -15.9436   -2.7501  -11.6501 C   0  0  0  0  0  0  0  0  0  0  0  0
  -15.1714   -1.9359  -12.4657 C   0  0  0  0  0  0  0  0  0  0  0  0
  -15.2150   -0.5962  -12.7268 N   0  0  0  0  0  0  0  0  0  0  0  0
  -14.2501   -0.2995  -13.6564 C   0  0  0  0  0  0  0  0  0  0  0  0
  -13.5658   -1.3888  -13.9765 N   0  0  0  0  0  0  0  0  0  0  0  0
  -14.1099   -2.4022  -13.2273 C   0  0  0  0  0  0  0  0  0  0  0  0
  -13.7514   -3.7555  -13.1534 C   0  0  0  0  0  0  0  0  0  0  0  0
  -15.8273    0.0811  -12.2885 H   0  0  0  0  0  0  0  0  0  0  0  0
  -14.1224    1.0369  -14.1350 C   0  0  0  0  0  0  0  0  0  0  0  0
  -14.7133    1.3853  -15.3089 C   0  0  0  0  0  0  0  0  0  0  0  0
  -15.5555    0.5458  -16.0387 N   0  0  0  0  0  0  0  0  0  0  0  0
  -14.4343    2.7326  -15.8733 C   0  0  0  0  0  0  0  0  0  0  0  0
  -14.9537    3.1612  -17.1051 C   0  0  0  0  0  0  0  0  0  0  0  0
  -14.5724    4.3894  -17.6472 C   0  0  0  0  0  0  0  0  0  0  0  0
  -15.1598    4.8556  -19.1960 Cl  0  0  0  0  0  0  0  0  0  0  0  0
  -13.7037    5.2310  -16.9585 C   0  0  0  0  0  0  0  0  0  0  0  0
  -13.2191    4.8473  -15.7098 C   0  0  0  0  0  0  0  0  0  0  0  0
  -13.5769    3.6044  -15.1828 C   0  0  0  0  0  0  0  0  0  0  0  0
  -13.0616    3.2287  -13.9425 N   0  0  0  0  0  0  0  0  0  0  0  0
  -13.3113    2.0220  -13.3575 C   0  0  0  0  0  0  0  0  0  0  0  0
  -12.8809    1.7832  -12.2292 O   0  0  0  0  0  0  0  0  0  0  0  0
  -15.4691   -0.4277  -15.7122 H   0  0  0  0  0  0  0  0  0  0  0  0
  -15.3936    0.5733  -17.0391 H   0  0  0  0  0  0  0  0  0  0  0  0
  -12.4817    3.8684  -13.4131 H   0  0  0  0  0  0  0  0  0  0  0  0
  -12.5892   -9.8547  -12.5934 C   0  0  0  0  0  0  0  0  0  0  0  0
  -13.4968   -8.7778  -12.2084 N   0  0  0  0  0  0  0  0  0  0  0  0
  -12.7819   -7.7694  -11.3884 C   0  0  0  0  0  0  0  0  0  0  0  0
  -13.6817   -6.5731  -10.9984 C   0  0  0  0  0  0  0  0  0  0  0  0
  -14.2080   -5.9726  -12.2283 N   0  0  0  0  0  0  0  0  0  0  0  0
  -14.9699   -6.9176  -13.0639 C   0  0  0  0  0  0  0  0  0  0  0  0
  -14.0644   -8.1218  -13.4117 C   0  0  0  0  0  0  0  0  0  0  0  0
 27 28  1  0  0  0
 28 29  1  0  0  0
 28 33  1  0  0  0
 29 30  1  0  0  0
 30 31  1  0  0  0
 31  1  1  0  0  0
 31 32  1  0  0  0
  1  2  1  0  0  0
  1  9  2  0  0  0
  2  3  2  0  0  0
  3  4  1  0  0  0
  4  5  1  0  0  0
  4  8  2  0  0  0
  5  6  1  0  0  0
  5 10  1  0  0  0
  6 11  1  0  0  0
  6  7  2  0  0  0
 11 12  2  0  0  0
 11 22  1  0  0  0
 12 13  1  0  0  0
 12 14  1  0  0  0
 13 24  1  0  0  0
 13 25  1  0  0  0
 14 15  1  0  0  0
 14 20  2  0  0  0
 15 16  2  0  0  0
 16 17  1  0  0  0
 16 18  1  0  0  0
 18 19  2  0  0  0
 19 20  1  0  0  0
 20 21  1  0  0  0
 21 22  1  0  0  0
 21 26  1  0  0  0
 22 23  2  0  0  0
  7  8  1  0  0  0
  8  9  1  0  0  0
 32 33  1  0  0  0
M  END
> <minimizedAffinity>
-8.24496

$$$$
