CHEMBL3927733


 35 38  0  0  0  0  0  0  0  0999 V2000
  -16.7754    2.2384  -15.6439 N   0  0  0  0  0  0  0  0  0  0  0  0
  -18.2216    2.1382  -15.6047 C   0  0  0  0  0  0  0  0  0  0  0  0
  -18.8833    3.3504  -15.8040 C   0  0  0  0  0  0  0  0  0  0  0  0
  -20.1305    3.5378  -15.2791 C   0  0  0  0  0  0  0  0  0  0  0  0
  -20.8392    2.5205  -14.6662 C   0  0  0  0  0  0  0  0  0  0  0  0
  -21.9582    2.9211  -14.0515 N   0  0  0  0  0  0  0  0  0  0  0  0
  -22.7609    1.9616  -13.5884 C   0  0  0  0  0  0  0  0  0  0  0  0
  -22.4967    0.6229  -13.7875 C   0  0  0  0  0  0  0  0  0  0  0  0
  -21.2862    0.1986  -14.3125 N   0  0  0  0  0  0  0  0  0  0  0  0
  -20.3818    1.1850  -14.7157 C   0  0  0  0  0  0  0  0  0  0  0  0
  -19.0044    1.0340  -15.1497 C   0  0  0  0  0  0  0  0  0  0  0  0
  -23.6100   -0.2861  -13.5397 C   0  0  0  0  0  0  0  0  0  0  0  0
  -24.4187   -1.0057  -14.4616 C   0  0  0  0  0  0  0  0  0  0  0  0
  -25.4893   -1.5724  -13.8876 N   0  0  0  0  0  0  0  0  0  0  0  0
  -25.3714   -1.2153  -12.5978 N   0  0  0  0  0  0  0  0  0  0  0  0
  -26.1035   -1.9183  -11.5702 C   0  0  0  0  0  0  0  0  0  0  0  0
  -24.3872   -0.2867  -12.3907 C   0  0  0  0  0  0  0  0  0  0  0  0
  -15.2286   -0.4118  -13.4706 C   0  0  0  0  0  0  0  0  0  0  0  0
  -13.9495    0.1142  -13.2697 C   0  0  0  0  0  0  0  0  0  0  0  0
  -13.6139    1.3397  -13.8384 C   0  0  0  0  0  0  0  0  0  0  0  0
  -14.5571    2.0139  -14.6404 C   0  0  0  0  0  0  0  0  0  0  0  0
  -15.8473    1.4966  -14.8801 C   0  0  0  0  0  0  0  0  0  0  0  0
  -16.1651    0.2845  -14.2563 C   0  0  0  0  0  0  0  0  0  0  0  0
  -16.3872   -4.0250  -13.3939 C   0  0  0  0  0  0  0  0  0  0  0  0
  -15.8824   -2.7524  -13.8487 N   0  0  0  0  0  0  0  0  0  0  0  0
  -15.6171   -1.7524  -12.9436 C   0  0  0  0  0  0  0  0  0  0  0  0
  -15.6948   -1.9239  -11.7288 O   0  0  0  0  0  0  0  0  0  0  0  0
  -15.6689   -2.6424  -14.8290 H   0  0  0  0  0  0  0  0  0  0  0  0
  -12.4049    1.9690  -13.6771 O   0  0  0  0  0  0  0  0  0  0  0  0
  -12.2333    2.7673  -12.5062 C   0  0  0  0  0  0  0  0  0  0  0  0
  -16.4489    3.6840  -15.9407 C   0  0  0  0  0  0  0  0  0  0  0  0
  -15.6957    4.0022  -17.2574 C   0  0  0  0  0  0  0  0  0  0  0  0
  -15.0407    5.3149  -17.3412 N   0  0  0  0  0  0  0  0  0  0  0  0
  -15.7467    6.0247  -17.5392 H   0  0  0  0  0  0  0  0  0  0  0  0
  -14.4116    5.3189  -18.1457 H   0  0  0  0  0  0  0  0  0  0  0  0
 24 25  1  0  0  0
 25 26  1  0  0  0
 25 28  1  0  0  0
 26 27  2  0  0  0
 26 18  1  0  0  0
 18 19  1  0  0  0
 18 23  2  0  0  0
 19 20  2  0  0  0
 20 29  1  0  0  0
 20 21  1  0  0  0
 29 30  1  0  0  0
 21 22  2  0  0  0
 22  1  1  0  0  0
 22 23  1  0  0  0
  1 31  1  0  0  0
  1  2  1  0  0  0
 31 32  1  0  0  0
 32 33  1  0  0  0
 33 34  1  0  0  0
 33 35  1  0  0  0
  2  3  1  0  0  0
  2 11  2  0  0  0
  3  4  2  0  0  0
  4  5  1  0  0  0
  5  6  1  0  0  0
  5 10  2  0  0  0
  6  7  2  0  0  0
  7  8  1  0  0  0
  8 12  1  0  0  0
  8  9  2  0  0  0
 12 13  1  0  0  0
 12 17  2  0  0  0
 13 14  2  0  0  0
 14 15  1  0  0  0
 15 16  1  0  0  0
 15 17  1  0  0  0
  9 10  1  0  0  0
 10 11  1  0  0  0
M  END
> <minimizedAffinity>
-9.25989

$$$$
