CHEMBL1910893


 31 35  0  0  0  0  0  0  0  0999 V2000
  -23.3487    0.1973  -13.6949 C   0  0  0  0  0  0  0  0  0  0  0  0
  -22.2213   -0.5533  -14.0508 C   0  0  0  0  0  0  0  0  0  0  0  0
  -21.0345    0.0810  -14.4208 C   0  0  0  0  0  0  0  0  0  0  0  0
  -21.0264    1.4810  -14.4255 C   0  0  0  0  0  0  0  0  0  0  0  0
  -20.1093    2.5364  -14.7285 C   0  0  0  0  0  0  0  0  0  0  0  0
  -20.6639    3.7404  -14.4841 N   0  0  0  0  0  0  0  0  0  0  0  0
  -21.9165    3.4509  -14.0834 N   0  0  0  0  0  0  0  0  0  0  0  0
  -22.1897    2.1182  -14.0314 C   0  0  0  0  0  0  0  0  0  0  0  0
  -23.3564    1.5574  -13.6616 N   0  0  0  0  0  0  0  0  0  0  0  0
  -22.5473    4.2070  -13.8525 H   0  0  0  0  0  0  0  0  0  0  0  0
  -28.2525   -2.2063  -12.1990 O   0  0  0  0  0  0  0  0  0  0  0  0
  -27.0676   -1.6565  -12.5838 C   0  0  0  0  0  0  0  0  0  0  0  0
  -26.5638   -1.8355  -13.8666 C   0  0  0  0  0  0  0  0  0  0  0  0
  -25.3456   -1.2405  -14.2151 C   0  0  0  0  0  0  0  0  0  0  0  0
  -24.6177   -0.4584  -13.2986 C   0  0  0  0  0  0  0  0  0  0  0  0
  -25.1527   -0.3210  -12.0008 C   0  0  0  0  0  0  0  0  0  0  0  0
  -26.3704   -0.9072  -11.6500 C   0  0  0  0  0  0  0  0  0  0  0  0
  -28.6210   -2.7022  -12.9482 H   0  0  0  0  0  0  0  0  0  0  0  0
  -18.7392    2.4204  -15.2336 C   0  0  0  0  0  0  0  0  0  0  0  0
  -18.0196    1.2288  -15.1061 C   0  0  0  0  0  0  0  0  0  0  0  0
  -16.7055    1.1274  -15.5812 C   0  0  0  0  0  0  0  0  0  0  0  0
  -16.0663    2.2006  -16.2104 C   0  0  0  0  0  0  0  0  0  0  0  0
  -16.8067    3.3851  -16.3446 C   0  0  0  0  0  0  0  0  0  0  0  0
  -18.1204    3.4982  -15.8693 C   0  0  0  0  0  0  0  0  0  0  0  0
  -14.7783    2.1088  -16.6988 N   0  0  0  0  0  0  0  0  0  0  0  0
  -14.0795    3.2407  -17.3230 C   0  0  0  0  0  0  0  0  0  0  0  0
  -13.6995    2.9247  -18.7857 C   0  0  0  0  0  0  0  0  0  0  0  0
  -12.9561    1.6552  -18.9405 N   0  0  0  0  0  0  0  0  0  0  0  0
  -13.7679    0.5657  -18.3558 C   0  0  0  0  0  0  0  0  0  0  0  0
  -14.1433    0.7938  -16.8720 C   0  0  0  0  0  0  0  0  0  0  0  0
  -12.0970    1.7284  -18.3946 H   0  0  0  0  0  0  0  0  0  0  0  0
 11 12  1  0  0  0
 11 18  1  0  0  0
 12 13  1  0  0  0
 12 17  2  0  0  0
 13 14  2  0  0  0
 14 15  1  0  0  0
 15  1  1  0  0  0
 15 16  2  0  0  0
  1  2  1  0  0  0
  1  9  2  0  0  0
  2  3  2  0  0  0
  3  4  1  0  0  0
  4  5  1  0  0  0
  4  8  2  0  0  0
  5 19  1  0  0  0
  5  6  2  0  0  0
 19 20  1  0  0  0
 19 24  2  0  0  0
 20 21  2  0  0  0
 21 22  1  0  0  0
 22 25  1  0  0  0
 22 23  2  0  0  0
 25 26  1  0  0  0
 25 30  1  0  0  0
 26 27  1  0  0  0
 27 28  1  0  0  0
 28 29  1  0  0  0
 28 31  1  0  0  0
 29 30  1  0  0  0
 23 24  1  0  0  0
  6  7  1  0  0  0
  7  8  1  0  0  0
  7 10  1  0  0  0
  8  9  1  0  0  0
 16 17  1  0  0  0
M  END
> <minimizedAffinity>
-11.01287

$$$$
