CHEMBL213909


 44 49  0  0  0  0  0  0  0  0999 V2000
  -30.0094   -4.9371   -6.9056 C   0  0  0  0  0  0  0  0  0  0  0  0
  -30.2548   -5.0857   -5.5612 C   0  0  0  0  0  0  0  0  0  0  0  0
  -30.4092   -6.4542   -5.2192 C   0  0  0  0  0  0  0  0  0  0  0  0
  -30.1064   -7.3699   -6.2214 C   0  0  0  0  0  0  0  0  0  0  0  0
  -29.7797   -6.4951   -7.6611 S   0  0  0  0  0  0  0  0  0  0  0  0
  -30.0785   -8.8257   -6.0504 C   0  0  0  0  0  0  0  0  0  0  0  0
  -29.3868   -9.5805   -5.1101 N   0  0  0  0  0  0  0  0  0  0  0  0
  -29.1131  -10.8868   -5.5054 N   0  0  0  0  0  0  0  0  0  0  0  0
  -29.7455  -11.0057   -6.6793 C   0  0  0  0  0  0  0  0  0  0  0  0
  -30.4469   -9.7845   -6.9792 C   0  0  0  0  0  0  0  0  0  0  0  0
  -30.7335   -9.7181   -8.4292 C   0  0  0  0  0  0  0  0  0  0  0  0
  -29.4434  -10.4921   -8.7789 C   0  0  0  0  0  0  0  0  0  0  0  0
  -28.1988   -9.8269   -8.7090 C   0  0  0  0  0  0  0  0  0  0  0  0
  -27.0225  -10.5329   -8.4171 C   0  0  0  0  0  0  0  0  0  0  0  0
  -27.0912  -11.8679   -8.7119 C   0  0  0  0  0  0  0  0  0  0  0  0
  -28.3108  -12.4632   -8.3963 C   0  0  0  0  0  0  0  0  0  0  0  0
  -29.3930  -11.6659   -8.0250 C   0  0  0  0  0  0  0  0  0  0  0  0
  -28.9174   -9.2442   -4.2771 H   0  0  0  0  0  0  0  0  0  0  0  0
  -26.0471  -10.1305   -7.3108 C   0  0  0  0  0  0  0  0  0  0  0  0
  -25.2330  -11.2415   -6.7397 N   0  0  0  0  0  0  0  0  0  0  0  0
  -23.5274  -11.0131   -7.1799 C   0  0  0  0  0  0  0  0  0  0  0  0
  -22.1364  -11.7051   -5.9504 C   0  0  0  0  0  0  0  0  0  0  0  0
  -22.7071  -11.9605   -3.9627 N   0  0  0  0  0  0  0  0  0  0  0  0
  -22.4784  -11.1321   -2.6642 C   0  0  0  0  0  0  0  0  0  0  0  0
  -24.5194  -12.1413   -3.6710 C   0  0  0  0  0  0  0  0  0  0  0  0
  -25.6803  -11.6410   -5.0381 C   0  0  0  0  0  0  0  0  0  0  0  0
  -29.9057   -3.6591   -7.7002 C   0  0  0  0  0  0  0  0  0  0  0  0
  -28.1768   -2.2575   -9.6014 N   0  0  0  0  0  0  0  0  0  0  0  0
  -27.9060   -2.0491   -8.2312 C   0  0  0  0  0  0  0  0  0  0  0  0
  -26.9945   -1.3494   -7.7935 O   0  0  0  0  0  0  0  0  0  0  0  0
  -28.8440   -2.6914   -7.3258 N   0  0  0  0  0  0  0  0  0  0  0  0
  -29.1703   -2.2559   -9.7324 H   0  0  0  0  0  0  0  0  0  0  0  0
  -23.1295   -2.0900  -12.4072 C   0  0  0  0  0  0  0  0  0  0  0  0
  -24.6235   -1.6612  -12.1834 C   0  0  0  0  0  0  0  0  0  0  0  0
  -25.4070   -1.7555  -13.8103 C   0  0  0  0  0  0  0  0  0  0  0  0
  -27.1928   -1.8070  -13.8560 C   0  0  0  0  0  0  0  0  0  0  0  0
  -28.2023   -1.8165  -12.4061 C   0  0  0  0  0  0  0  0  0  0  0  0
  -27.5741   -1.6466  -10.8041 C   0  0  0  0  0  0  0  0  0  0  0  0
  -25.8006   -1.3531  -10.6526 C   0  0  0  0  0  0  0  0  0  0  0  0
  -28.5310   -2.6898   -5.8443 C   0  0  0  0  0  0  0  0  0  0  0  0
  -29.1490   -1.5248   -5.0053 C   0  0  0  0  0  0  0  0  0  0  0  0
  -29.0423   -0.1127   -5.6096 C   0  0  0  0  0  0  0  0  0  0  0  0
  -30.3904    0.6046   -5.6555 C   0  0  0  0  0  0  0  0  0  0  0  0
  -28.0491    0.7414   -4.8044 C   0  0  0  0  0  0  0  0  0  0  0  0
 33 34  1  0  0  0
 34 35  1  0  0  0
 34 39  2  0  0  0
 35 36  2  0  0  0
 36 37  1  0  0  0
 37 38  2  0  0  0
 38 28  1  0  0  0
 38 39  1  0  0  0
 28 29  1  0  0  0
 28 32  1  0  0  0
 29 30  2  0  0  0
 29 31  1  0  0  0
 31 40  1  0  0  0
 31 27  1  0  0  0
 40 41  1  0  0  0
 41 42  1  0  0  0
 42 43  1  0  0  0
 42 44  1  0  0  0
 27  1  1  0  0  0
  1  2  2  0  0  0
  1  5  1  0  0  0
  2  3  1  0  0  0
  3  4  2  0  0  0
  4  6  1  0  0  0
  4  5  1  0  0  0
  6  7  1  0  0  0
  6 10  2  0  0  0
  7  8  1  0  0  0
  7 18  1  0  0  0
  8  9  2  0  0  0
  9 10  1  0  0  0
  9 17  1  0  0  0
 10 11  1  0  0  0
 11 12  1  0  0  0
 12 13  1  0  0  0
 12 17  2  0  0  0
 13 14  2  0  0  0
 14 19  1  0  0  0
 14 15  1  0  0  0
 19 20  1  0  0  0
 20 21  1  0  0  0
 20 26  1  0  0  0
 21 22  1  0  0  0
 22 23  1  0  0  0
 23 24  1  0  0  0
 23 25  1  0  0  0
 25 26  1  0  0  0
 15 16  2  0  0  0
 16 17  1  0  0  0
M  END
> <minimizedAffinity>
-11.07222

$$$$
