CHEMBL4238195


 37 41  0  0  0  0  0  0  0  0999 V2000
  -20.5645    1.0198  -14.8175 C   0  0  0  0  0  0  0  0  0  0  0  0
  -20.1159    2.2533  -14.3470 C   0  0  0  0  0  0  0  0  0  0  0  0
  -18.7676    2.6011  -14.4464 C   0  0  0  0  0  0  0  0  0  0  0  0
  -17.8179    1.7161  -14.9850 C   0  0  0  0  0  0  0  0  0  0  0  0
  -18.2700    0.4262  -15.3092 C   0  0  0  0  0  0  0  0  0  0  0  0
  -19.6305    0.0808  -15.2448 C   0  0  0  0  0  0  0  0  0  0  0  0
  -16.4277    2.1523  -15.1648 C   0  0  0  0  0  0  0  0  0  0  0  0
  -16.0472    3.1132  -16.1327 C   0  0  0  0  0  0  0  0  0  0  0  0
  -14.7101    3.5523  -16.3521 C   0  0  0  0  0  0  0  0  0  0  0  0
  -13.6243    3.0894  -15.6736 N   0  0  0  0  0  0  0  0  0  0  0  0
  -13.9294    2.1566  -14.7357 C   0  0  0  0  0  0  0  0  0  0  0  0
  -13.0551    1.5447  -13.9339 N   0  0  0  0  0  0  0  0  0  0  0  0
  -13.8069    0.6716  -13.1708 O   0  0  0  0  0  0  0  0  0  0  0  0
  -15.1229    0.7392  -13.5267 C   0  0  0  0  0  0  0  0  0  0  0  0
  -15.9321   -0.1272  -12.8855 N   0  0  0  0  0  0  0  0  0  0  0  0
  -15.2744    1.7036  -14.4980 C   0  0  0  0  0  0  0  0  0  0  0  0
  -15.4862   -0.8475  -12.3232 H   0  0  0  0  0  0  0  0  0  0  0  0
  -16.7610   -0.4680  -13.3662 H   0  0  0  0  0  0  0  0  0  0  0  0
  -14.4147    4.5865  -17.3762 C   0  0  0  0  0  0  0  0  0  0  0  0
  -13.3556    5.5020  -17.2174 C   0  0  0  0  0  0  0  0  0  0  0  0
  -13.0876    6.4860  -18.1732 C   0  0  0  0  0  0  0  0  0  0  0  0
  -13.8674    6.5709  -19.3209 C   0  0  0  0  0  0  0  0  0  0  0  0
  -14.9116    5.6709  -19.5138 C   0  0  0  0  0  0  0  0  0  0  0  0
  -15.1803    4.6896  -18.5527 C   0  0  0  0  0  0  0  0  0  0  0  0
  -23.9392   -0.1404  -14.1717 N   0  0  0  0  0  0  0  0  0  0  0  0
  -22.5923    0.0417  -13.9142 C   0  0  0  0  0  0  0  0  0  0  0  0
  -22.0173   -0.3271  -12.8963 O   0  0  0  0  0  0  0  0  0  0  0  0
  -21.9490    0.7411  -14.9334 N   0  0  0  0  0  0  0  0  0  0  0  0
  -24.2454    0.0064  -15.1211 H   0  0  0  0  0  0  0  0  0  0  0  0
  -22.5152    1.4470  -15.3805 H   0  0  0  0  0  0  0  0  0  0  0  0
  -28.2296   -2.5174  -13.5053 C   0  0  0  0  0  0  0  0  0  0  0  0
  -27.0010   -1.8682  -12.9431 C   0  0  0  0  0  0  0  0  0  0  0  0
  -26.8104   -1.8156  -11.5602 C   0  0  0  0  0  0  0  0  0  0  0  0
  -25.6836   -1.2053  -11.0273 C   0  0  0  0  0  0  0  0  0  0  0  0
  -24.7335   -0.6454  -11.8781 C   0  0  0  0  0  0  0  0  0  0  0  0
  -24.8823   -0.6960  -13.2680 C   0  0  0  0  0  0  0  0  0  0  0  0
  -26.0309   -1.3072  -13.7928 C   0  0  0  0  0  0  0  0  0  0  0  0
 31 32  1  0  0  0
 32 33  1  0  0  0
 32 37  2  0  0  0
 33 34  2  0  0  0
 34 35  1  0  0  0
 35 36  2  0  0  0
 36 25  1  0  0  0
 36 37  1  0  0  0
 25 26  1  0  0  0
 25 29  1  0  0  0
 26 27  2  0  0  0
 26 28  1  0  0  0
 28  1  1  0  0  0
 28 30  1  0  0  0
  1  2  1  0  0  0
  1  6  2  0  0  0
  2  3  2  0  0  0
  3  4  1  0  0  0
  4  7  1  0  0  0
  4  5  2  0  0  0
  7  8  2  0  0  0
  7 16  1  0  0  0
  8  9  1  0  0  0
  9 19  1  0  0  0
  9 10  2  0  0  0
 19 20  1  0  0  0
 19 24  2  0  0  0
 20 21  2  0  0  0
 21 22  1  0  0  0
 22 23  2  0  0  0
 23 24  1  0  0  0
 10 11  1  0  0  0
 11 12  2  0  0  0
 11 16  1  0  0  0
 12 13  1  0  0  0
 13 14  1  0  0  0
 14 15  1  0  0  0
 14 16  2  0  0  0
 15 17  1  0  0  0
 15 18  1  0  0  0
  5  6  1  0  0  0
M  END
> <minimizedAffinity>
-10.20183

$$$$
