CHEMBL3690399


 32 35  0  0  0  0  0  0  0  0999 V2000
  -27.9972   -7.7505   -4.6306 C   0  0  0  0  0  0  0  0  0  0  0  0
  -29.0027   -8.0886   -3.7326 C   0  0  0  0  0  0  0  0  0  0  0  0
  -29.8408   -7.1858   -3.1599 N   0  0  0  0  0  0  0  0  0  0  0  0
  -29.6700   -5.8865   -3.4979 C   0  0  0  0  0  0  0  0  0  0  0  0
  -28.7364   -5.4379   -4.4236 C   0  0  0  0  0  0  0  0  0  0  0  0
  -27.8920   -6.4051   -4.9890 C   0  0  0  0  0  0  0  0  0  0  0  0
  -28.6003   -4.0436   -4.8414 C   0  0  0  0  0  0  0  0  0  0  0  0
  -28.1986   -2.9495   -4.0887 C   0  0  0  0  0  0  0  0  0  0  0  0
  -27.8894   -1.8722   -4.8680 N   0  0  0  0  0  0  0  0  0  0  0  0
  -28.0762   -2.2833   -6.1019 C   0  0  0  0  0  0  0  0  0  0  0  0
  -27.7251   -1.6743   -7.3381 C   0  0  0  0  0  0  0  0  0  0  0  0
  -27.9884   -2.2910   -8.5150 C   0  0  0  0  0  0  0  0  0  0  0  0
  -28.7605   -3.5418   -8.5073 C   0  0  0  0  0  0  0  0  0  0  0  0
  -29.0193   -4.1610   -7.3438 C   0  0  0  0  0  0  0  0  0  0  0  0
  -28.6277   -3.5629   -6.1451 N   0  0  0  0  0  0  0  0  0  0  0  0
  -27.3872   -1.7378   -9.7549 C   0  0  0  0  0  0  0  0  0  0  0  0
  -26.0423   -1.6837   -9.8177 N   0  0  0  0  0  0  0  0  0  0  0  0
  -25.5091   -1.3301  -10.9997 C   0  0  0  0  0  0  0  0  0  0  0  0
  -26.2629   -1.0171  -12.1048 C   0  0  0  0  0  0  0  0  0  0  0  0
  -27.6239   -1.0928  -11.9324 C   0  0  0  0  0  0  0  0  0  0  0  0
  -28.2152   -1.4606  -10.7827 N   0  0  0  0  0  0  0  0  0  0  0  0
  -25.4825   -8.8044   -3.4988 O   0  0  0  0  0  0  0  0  0  0  0  0
  -25.8888   -9.0705   -4.6201 C   0  0  0  0  0  0  0  0  0  0  0  0
  -25.1801   -9.8841   -5.4791 N   0  0  0  0  0  0  0  0  0  0  0  0
  -27.0634   -8.6464   -5.1902 N   0  0  0  0  0  0  0  0  0  0  0  0
  -25.3087   -9.6967   -6.4637 H   0  0  0  0  0  0  0  0  0  0  0  0
  -27.2768   -9.0163   -6.1034 H   0  0  0  0  0  0  0  0  0  0  0  0
  -23.8380  -10.3277   -5.0861 C   0  0  0  0  0  0  0  0  0  0  0  0
  -22.7818  -10.2900   -6.2005 C   0  0  0  0  0  0  0  0  0  0  0  0
  -22.5377   -9.0274   -6.6228 F   0  0  0  0  0  0  0  0  0  0  0  0
  -21.6122  -10.8411   -5.8192 F   0  0  0  0  0  0  0  0  0  0  0  0
  -23.2252  -10.9820   -7.2801 F   0  0  0  0  0  0  0  0  0  0  0  0
 22 23  2  0  0  0
 23 24  1  0  0  0
 23 25  1  0  0  0
 24 28  1  0  0  0
 24 26  1  0  0  0
 28 29  1  0  0  0
 29 30  1  0  0  0
 29 31  1  0  0  0
 29 32  1  0  0  0
 25  1  1  0  0  0
 25 27  1  0  0  0
  1  2  1  0  0  0
  1  6  2  0  0  0
  2  3  2  0  0  0
  3  4  1  0  0  0
  4  5  2  0  0  0
  5  7  1  0  0  0
  5  6  1  0  0  0
  7  8  2  0  0  0
  7 15  1  0  0  0
  8  9  1  0  0  0
  9 10  2  0  0  0
 10 11  1  0  0  0
 10 15  1  0  0  0
 11 12  2  0  0  0
 12 16  1  0  0  0
 12 13  1  0  0  0
 16 17  1  0  0  0
 16 21  2  0  0  0
 17 18  2  0  0  0
 18 19  1  0  0  0
 19 20  2  0  0  0
 20 21  1  0  0  0
 13 14  2  0  0  0
 14 15  1  0  0  0
M  END
> <minimizedAffinity>
-9.30864

$$$$
