CHEMBL3321900


 29 33  0  0  0  0  0  0  0  0999 V2000
  -23.4677    0.2123  -13.3408 C   0  0  0  0  0  0  0  0  0  0  0  0
  -24.5528   -0.1714  -13.9847 N   0  0  0  0  0  0  0  0  0  0  0  0
  -25.3039   -0.8723  -13.0793 C   0  0  0  0  0  0  0  0  0  0  0  0
  -26.5289   -1.5181  -13.2528 C   0  0  0  0  0  0  0  0  0  0  0  0
  -27.0940   -2.1744  -12.1538 C   0  0  0  0  0  0  0  0  0  0  0  0
  -26.4830   -2.1771  -10.8843 C   0  0  0  0  0  0  0  0  0  0  0  0
  -25.2336   -1.5519  -10.7217 C   0  0  0  0  0  0  0  0  0  0  0  0
  -24.6859   -0.9063  -11.8375 C   0  0  0  0  0  0  0  0  0  0  0  0
  -23.5230   -0.2050  -12.0290 N   0  0  0  0  0  0  0  0  0  0  0  0
  -22.8335   -0.0023  -11.3230 H   0  0  0  0  0  0  0  0  0  0  0  0
  -19.1208    0.4080  -15.4285 F   0  0  0  0  0  0  0  0  0  0  0  0
  -20.1914    1.0555  -14.9495 C   0  0  0  0  0  0  0  0  0  0  0  0
  -20.2310    2.4431  -15.0073 C   0  0  0  0  0  0  0  0  0  0  0  0
  -21.3417    3.1190  -14.5071 C   0  0  0  0  0  0  0  0  0  0  0  0
  -22.4098    2.3988  -13.9618 C   0  0  0  0  0  0  0  0  0  0  0  0
  -22.3740    0.9965  -13.9121 C   0  0  0  0  0  0  0  0  0  0  0  0
  -21.2440    0.3309  -14.4045 C   0  0  0  0  0  0  0  0  0  0  0  0
  -27.0462   -2.9129   -9.8126 N   0  0  0  0  0  0  0  0  0  0  0  0
  -26.5525   -3.7716   -9.6010 H   0  0  0  0  0  0  0  0  0  0  0  0
  -27.5784   -2.3567   -8.6214 C   0  0  0  0  0  0  0  0  0  0  0  0
  -27.3233   -1.0606   -8.3610 N   0  0  0  0  0  0  0  0  0  0  0  0
  -27.8811   -0.5437   -7.2661 C   0  0  0  0  0  0  0  0  0  0  0  0
  -28.6763   -1.1889   -6.4101 N   0  0  0  0  0  0  0  0  0  0  0  0
  -28.9166   -2.4772   -6.6692 C   0  0  0  0  0  0  0  0  0  0  0  0
  -29.7735   -3.1692   -5.8228 C   0  0  0  0  0  0  0  0  0  0  0  0
  -30.0806   -4.5166   -6.0223 C   0  0  0  0  0  0  0  0  0  0  0  0
  -29.5124   -5.2023   -7.0877 C   0  0  0  0  0  0  0  0  0  0  0  0
  -28.6598   -4.5273   -7.9603 C   0  0  0  0  0  0  0  0  0  0  0  0
  -28.3608   -3.1540   -7.7653 C   0  0  0  0  0  0  0  0  0  0  0  0
 11 12  1  0  0  0
 12 13  1  0  0  0
 12 17  2  0  0  0
 13 14  2  0  0  0
 14 15  1  0  0  0
 15 16  2  0  0  0
 16  1  1  0  0  0
 16 17  1  0  0  0
  1  2  2  0  0  0
  1  9  1  0  0  0
  2  3  1  0  0  0
  3  4  1  0  0  0
  3  8  2  0  0  0
  4  5  2  0  0  0
  5  6  1  0  0  0
  6 18  1  0  0  0
  6  7  2  0  0  0
 18 20  1  0  0  0
 18 19  1  0  0  0
 20 21  1  0  0  0
 20 29  2  0  0  0
 21 22  2  0  0  0
 22 23  1  0  0  0
 23 24  2  0  0  0
 24 25  1  0  0  0
 24 29  1  0  0  0
 25 26  2  0  0  0
 26 27  1  0  0  0
 27 28  2  0  0  0
 28 29  1  0  0  0
  7  8  1  0  0  0
  8  9  1  0  0  0
  9 10  1  0  0  0
M  END
> <minimizedAffinity>
-10.85541

$$$$
