CHEMBL3593284


 41 45  0  0  0  0  0  0  0  0999 V2000
  -26.4410   -1.9916  -10.7178 C   0  0  0  0  0  0  0  0  0  0  0  0
  -27.1192   -1.1357  -11.4417 N   0  0  0  0  0  0  0  0  0  0  0  0
  -26.3064   -0.4261  -12.2772 C   0  0  0  0  0  0  0  0  0  0  0  0
  -24.9577   -0.6968  -12.1670 C   0  0  0  0  0  0  0  0  0  0  0  0
  -24.7312   -1.8995  -10.9601 S   0  0  0  0  0  0  0  0  0  0  0  0
  -23.8665   -0.0616  -12.9011 C   0  0  0  0  0  0  0  0  0  0  0  0
  -23.8052    1.3313  -12.9103 C   0  0  0  0  0  0  0  0  0  0  0  0
  -22.8393    1.9998  -13.6566 C   0  0  0  0  0  0  0  0  0  0  0  0
  -21.8989    1.3120  -14.4286 C   0  0  0  0  0  0  0  0  0  0  0  0
  -21.9361   -0.0865  -14.4010 C   0  0  0  0  0  0  0  0  0  0  0  0
  -22.9137   -0.7663  -13.6467 C   0  0  0  0  0  0  0  0  0  0  0  0
  -20.9309    1.9697  -15.2414 N   0  0  0  0  0  0  0  0  0  0  0  0
  -19.5721    1.9582  -14.9957 C   0  0  0  0  0  0  0  0  0  0  0  0
  -19.0646    1.3621  -14.0476 O   0  0  0  0  0  0  0  0  0  0  0  0
  -18.8216    2.6944  -15.8958 N   0  0  0  0  0  0  0  0  0  0  0  0
  -21.2697    2.4742  -16.0475 H   0  0  0  0  0  0  0  0  0  0  0  0
  -19.2862    3.4242  -16.4082 H   0  0  0  0  0  0  0  0  0  0  0  0
  -17.3940    2.7517  -15.8371 C   0  0  0  0  0  0  0  0  0  0  0  0
  -16.6854    3.9632  -15.8658 C   0  0  0  0  0  0  0  0  0  0  0  0
  -15.2942    3.9971  -15.9108 C   0  0  0  0  0  0  0  0  0  0  0  0
  -14.5765    2.8111  -15.8837 C   0  0  0  0  0  0  0  0  0  0  0  0
  -15.2577    1.5973  -15.7990 C   0  0  0  0  0  0  0  0  0  0  0  0
  -16.6631    1.5644  -15.7683 C   0  0  0  0  0  0  0  0  0  0  0  0
  -26.9898   -2.8988   -9.8681 N   0  0  0  0  0  0  0  0  0  0  0  0
  -27.3399   -3.7752  -10.2301 H   0  0  0  0  0  0  0  0  0  0  0  0
  -27.9345    0.3863   -6.5282 C   0  0  0  0  0  0  0  0  0  0  0  0
  -28.0549   -1.0219   -7.0231 C   0  0  0  0  0  0  0  0  0  0  0  0
  -27.5521   -1.2971   -8.2471 N   0  0  0  0  0  0  0  0  0  0  0  0
  -27.6174   -2.5738   -8.6525 C   0  0  0  0  0  0  0  0  0  0  0  0
  -28.2452   -3.5190   -7.8707 C   0  0  0  0  0  0  0  0  0  0  0  0
  -28.7315   -3.1700   -6.6313 C   0  0  0  0  0  0  0  0  0  0  0  0
  -28.6220   -1.9144   -6.1854 N   0  0  0  0  0  0  0  0  0  0  0  0
  -29.2274   -4.1985   -5.8350 N   0  0  0  0  0  0  0  0  0  0  0  0
  -28.5673   -5.4903   -5.9003 C   0  0  0  0  0  0  0  0  0  0  0  0
  -29.6256   -6.5490   -5.5709 C   0  0  0  0  0  0  0  0  0  0  0  0
  -30.3190   -6.2923   -4.2219 C   0  0  0  0  0  0  0  0  0  0  0  0
  -29.4444   -6.6268   -3.0918 N   0  0  0  0  0  0  0  0  0  0  0  0
  -30.8172   -4.8418   -4.1217 C   0  0  0  0  0  0  0  0  0  0  0  0
  -29.7447   -3.8264   -4.5161 C   0  0  0  0  0  0  0  0  0  0  0  0
  -28.6145   -6.0360   -3.0932 H   0  0  0  0  0  0  0  0  0  0  0  0
  -29.1084   -7.5842   -3.1962 H   0  0  0  0  0  0  0  0  0  0  0  0
 26 27  1  0  0  0
 27 28  1  0  0  0
 27 32  2  0  0  0
 28 29  2  0  0  0
 29 24  1  0  0  0
 29 30  1  0  0  0
 24  1  1  0  0  0
 24 25  1  0  0  0
  1  2  2  0  0  0
  1  5  1  0  0  0
  2  3  1  0  0  0
  3  4  2  0  0  0
  4  6  1  0  0  0
  4  5  1  0  0  0
  6  7  1  0  0  0
  6 11  2  0  0  0
  7  8  2  0  0  0
  8  9  1  0  0  0
  9 12  1  0  0  0
  9 10  2  0  0  0
 12 13  1  0  0  0
 12 16  1  0  0  0
 13 14  2  0  0  0
 13 15  1  0  0  0
 15 18  1  0  0  0
 15 17  1  0  0  0
 18 19  1  0  0  0
 18 23  2  0  0  0
 19 20  2  0  0  0
 20 21  1  0  0  0
 21 22  2  0  0  0
 22 23  1  0  0  0
 10 11  1  0  0  0
 30 31  2  0  0  0
 31 33  1  0  0  0
 31 32  1  0  0  0
 33 34  1  0  0  0
 33 39  1  0  0  0
 34 35  1  0  0  0
 35 36  1  0  0  0
 36 37  1  0  0  0
 36 38  1  0  0  0
 37 40  1  0  0  0
 37 41  1  0  0  0
 38 39  1  0  0  0
M  END
> <minimizedAffinity>
-11.21707

$$$$
