CHEMBL3747669


 35 39  0  0  0  0  0  0  0  0999 V2000
  -29.5796   -6.6071   -6.2451 C   0  0  0  0  0  0  0  0  0  0  0  0
  -28.7302   -6.3721   -7.3269 C   0  0  0  0  0  0  0  0  0  0  0  0
  -28.4406   -5.0762   -7.7522 C   0  0  0  0  0  0  0  0  0  0  0  0
  -28.9813   -4.0052   -7.0270 C   0  0  0  0  0  0  0  0  0  0  0  0
  -29.7539   -4.2159   -5.8790 C   0  0  0  0  0  0  0  0  0  0  0  0
  -30.0284   -2.9439   -5.3150 C   0  0  0  0  0  0  0  0  0  0  0  0
  -29.3912   -2.0046   -6.0907 C   0  0  0  0  0  0  0  0  0  0  0  0
  -28.7917   -2.6295   -7.1704 N   0  0  0  0  0  0  0  0  0  0  0  0
  -27.9503   -1.9950   -8.1145 C   0  0  0  0  0  0  0  0  0  0  0  0
  -27.1383   -1.1778   -7.7057 O   0  0  0  0  0  0  0  0  0  0  0  0
  -28.2444   -2.3425   -9.4112 N   0  0  0  0  0  0  0  0  0  0  0  0
  -30.0655   -5.5370   -5.4877 C   0  0  0  0  0  0  0  0  0  0  0  0
  -29.2227   -2.4384   -9.6406 H   0  0  0  0  0  0  0  0  0  0  0  0
  -27.4618   -1.8025  -10.4279 C   0  0  0  0  0  0  0  0  0  0  0  0
  -26.1104   -2.1156  -10.6960 C   0  0  0  0  0  0  0  0  0  0  0  0
  -25.7563   -1.3285  -11.7700 C   0  0  0  0  0  0  0  0  0  0  0  0
  -26.8494   -0.5893  -12.1282 O   0  0  0  0  0  0  0  0  0  0  0  0
  -27.9374   -0.9435  -11.3339 N   0  0  0  0  0  0  0  0  0  0  0  0
  -24.4833   -1.1412  -12.5672 C   0  0  0  0  0  0  0  0  0  0  0  0
  -23.4328   -2.1922  -12.1509 C   0  0  0  0  0  0  0  0  0  0  0  0
  -24.7394   -1.3047  -14.0773 C   0  0  0  0  0  0  0  0  0  0  0  0
  -23.8896    0.2564  -12.3174 C   0  0  0  0  0  0  0  0  0  0  0  0
  -29.9272   -7.8707   -5.8165 O   0  0  0  0  0  0  0  0  0  0  0  0
  -27.4300  -12.1475   -7.5494 C   0  0  0  0  0  0  0  0  0  0  0  0
  -28.8952  -11.7234   -7.5040 C   0  0  0  0  0  0  0  0  0  0  0  0
  -29.0130  -10.2611   -7.0356 C   0  0  0  0  0  0  0  0  0  0  0  0
  -30.4093   -9.7387   -7.1867 C   0  0  0  0  0  0  0  0  0  0  0  0
  -31.3284  -10.3568   -8.0215 C   0  0  0  0  0  0  0  0  0  0  0  0
  -32.5849   -9.8901   -8.1952 N   0  0  0  0  0  0  0  0  0  0  0  0
  -32.9108   -8.7869   -7.5090 C   0  0  0  0  0  0  0  0  0  0  0  0
  -32.1042   -8.1052   -6.6926 N   0  0  0  0  0  0  0  0  0  0  0  0
  -30.8477   -8.5798   -6.5817 C   0  0  0  0  0  0  0  0  0  0  0  0
  -30.9582  -11.6374   -8.7437 C   0  0  0  0  0  0  0  0  0  0  0  0
  -29.5074  -11.8939   -8.8320 N   0  0  0  0  0  0  0  0  0  0  0  0
  -29.1029  -11.2198   -9.4828 H   0  0  0  0  0  0  0  0  0  0  0  0
 24 25  1  0  0  0
 25 26  1  0  0  0
 25 34  1  0  0  0
 26 27  1  0  0  0
 27 28  1  0  0  0
 27 32  2  0  0  0
 28 29  2  0  0  0
 28 33  1  0  0  0
 29 30  1  0  0  0
 30 31  2  0  0  0
 31 32  1  0  0  0
 32 23  1  0  0  0
 23  1  1  0  0  0
  1  2  1  0  0  0
  1 12  2  0  0  0
  2  3  2  0  0  0
  3  4  1  0  0  0
  4  5  2  0  0  0
  4  8  1  0  0  0
  5  6  1  0  0  0
  5 12  1  0  0  0
  6  7  2  0  0  0
  7  8  1  0  0  0
  8  9  1  0  0  0
  9 10  2  0  0  0
  9 11  1  0  0  0
 11 14  1  0  0  0
 11 13  1  0  0  0
 14 15  1  0  0  0
 14 18  2  0  0  0
 15 16  2  0  0  0
 16 19  1  0  0  0
 16 17  1  0  0  0
 19 20  1  0  0  0
 19 21  1  0  0  0
 19 22  1  0  0  0
 17 18  1  0  0  0
 33 34  1  0  0  0
 34 35  1  0  0  0
M  END
> <minimizedAffinity>
-10.55474

$$$$
