CHEMBL3928923


 40 43  0  0  0  0  0  0  0  0999 V2000
  -28.9970   -8.7839   -6.2311 N   0  0  0  0  0  0  0  0  0  0  0  0
  -28.9545   -7.3834   -5.7697 C   0  0  0  0  0  0  0  0  0  0  0  0
  -29.5051   -6.4805   -6.6265 C   0  0  0  0  0  0  0  0  0  0  0  0
  -29.4226   -5.1686   -6.2919 C   0  0  0  0  0  0  0  0  0  0  0  0
  -28.7250   -4.6708   -5.2478 C   0  0  0  0  0  0  0  0  0  0  0  0
  -28.0808   -3.7234   -5.7890 N   0  0  0  0  0  0  0  0  0  0  0  0
  -28.7568   -2.6451   -5.7077 C   0  0  0  0  0  0  0  0  0  0  0  0
  -28.6334   -2.0785   -4.5451 C   0  0  0  0  0  0  0  0  0  0  0  0
  -28.2850   -3.3315   -3.5547 N   0  0  0  0  0  0  0  0  0  0  0  0
  -28.3210   -5.0274   -4.0485 C   0  0  0  0  0  0  0  0  0  0  0  0
  -28.3418   -6.7411   -4.5222 C   0  0  0  0  0  0  0  0  0  0  0  0
  -28.8284   -0.3804   -5.1249 C   0  0  0  0  0  0  0  0  0  0  0  0
  -28.1481    0.6057   -6.1063 C   0  0  0  0  0  0  0  0  0  0  0  0
  -28.9101    1.5898   -6.6858 N   0  0  0  0  0  0  0  0  0  0  0  0
  -30.1751    1.3404   -6.3222 N   0  0  0  0  0  0  0  0  0  0  0  0
  -31.3077    2.1792   -6.8520 C   0  0  0  0  0  0  0  0  0  0  0  0
  -30.1651    0.1756   -5.4712 C   0  0  0  0  0  0  0  0  0  0  0  0
  -26.0975  -10.5125   -7.8127 C   0  0  0  0  0  0  0  0  0  0  0  0
  -27.2937   -9.8321   -7.6202 C   0  0  0  0  0  0  0  0  0  0  0  0
  -27.8208   -9.6050   -6.3751 C   0  0  0  0  0  0  0  0  0  0  0  0
  -27.0277  -10.1823   -5.3716 C   0  0  0  0  0  0  0  0  0  0  0  0
  -25.9039  -10.9711   -5.4720 C   0  0  0  0  0  0  0  0  0  0  0  0
  -25.3502  -11.0509   -6.7296 C   0  0  0  0  0  0  0  0  0  0  0  0
  -23.9325  -11.5521   -6.8414 C   0  0  0  0  0  0  0  0  0  0  0  0
  -23.6962  -12.0222   -8.1796 O   0  0  0  0  0  0  0  0  0  0  0  0
  -23.8807  -11.2595   -8.7553 H   0  0  0  0  0  0  0  0  0  0  0  0
  -22.9070  -10.4971   -6.4481 C   0  0  0  0  0  0  0  0  0  0  0  0
  -23.4778   -9.2660   -6.4572 F   0  0  0  0  0  0  0  0  0  0  0  0
  -22.3597  -10.7627   -5.2381 F   0  0  0  0  0  0  0  0  0  0  0  0
  -21.8803  -10.4374   -7.3187 F   0  0  0  0  0  0  0  0  0  0  0  0
  -26.8516  -10.8277  -10.0430 C   0  0  0  0  0  0  0  0  0  0  0  0
  -25.7660  -10.7667   -9.1145 O   0  0  0  0  0  0  0  0  0  0  0  0
  -25.3542  -11.5720   -4.3604 O   0  0  0  0  0  0  0  0  0  0  0  0
  -24.9914  -10.7464   -3.2262 C   0  0  0  0  0  0  0  0  0  0  0  0
  -30.1830   -9.0502   -7.1209 C   0  0  0  0  0  0  0  0  0  0  0  0
  -30.9032  -10.3662   -6.8905 C   0  0  0  0  0  0  0  0  0  0  0  0
  -32.3767  -10.4690   -7.0679 C   0  0  0  0  0  0  0  0  0  0  0  0
  -32.8056   -9.4816   -8.0628 N   0  0  0  0  0  0  0  0  0  0  0  0
  -32.6277   -8.5282   -7.7439 H   0  0  0  0  0  0  0  0  0  0  0  0
  -33.8134   -9.5523   -8.1823 H   0  0  0  0  0  0  0  0  0  0  0  0
 31 32  1  0  0  0
 32 18  1  0  0  0
 18 19  1  0  0  0
 18 23  2  0  0  0
 19 20  2  0  0  0
 20  1  1  0  0  0
 20 21  1  0  0  0
  1 35  1  0  0  0
  1  2  1  0  0  0
 35 36  1  0  0  0
 36 37  1  0  0  0
 37 38  1  0  0  0
 38 39  1  0  0  0
 38 40  1  0  0  0
  2  3  1  0  0  0
  2 11  2  0  0  0
  3  4  2  0  0  0
  4  5  1  0  0  0
  5  6  1  0  0  0
  5 10  2  0  0  0
  6  7  2  0  0  0
  7  8  1  0  0  0
  8 12  1  0  0  0
  8  9  2  0  0  0
 12 13  1  0  0  0
 12 17  2  0  0  0
 13 14  2  0  0  0
 14 15  1  0  0  0
 15 16  1  0  0  0
 15 17  1  0  0  0
  9 10  1  0  0  0
 10 11  1  0  0  0
 21 22  2  0  0  0
 22 33  1  0  0  0
 22 23  1  0  0  0
 33 34  1  0  0  0
 23 24  1  0  0  0
 24 25  1  0  0  0
 24 27  1  0  0  0
 25 26  1  0  0  0
 27 28  1  0  0  0
 27 29  1  0  0  0
 27 30  1  0  0  0
M  END
> <minimizedAffinity>
-8.43043

$$$$
