CHEMBL3288519


 35 39  0  0  0  0  0  0  0  0999 V2000
  -14.5706    3.9947  -16.7964 C   0  0  0  0  0  0  0  0  0  0  0  0
  -13.8386    3.0805  -16.0270 C   0  0  0  0  0  0  0  0  0  0  0  0
  -14.4633    2.0606  -15.2940 C   0  0  0  0  0  0  0  0  0  0  0  0
  -15.8716    1.9757  -15.1861 C   0  0  0  0  0  0  0  0  0  0  0  0
  -16.5998    1.0600  -14.3723 C   0  0  0  0  0  0  0  0  0  0  0  0
  -18.0118    1.0782  -14.3756 C   0  0  0  0  0  0  0  0  0  0  0  0
  -18.7131    1.9895  -15.1564 C   0  0  0  0  0  0  0  0  0  0  0  0
  -18.0141    2.8772  -15.9604 C   0  0  0  0  0  0  0  0  0  0  0  0
  -16.6111    2.8797  -15.9863 C   0  0  0  0  0  0  0  0  0  0  0  0
  -15.9549    3.7975  -16.8234 C   0  0  0  0  0  0  0  0  0  0  0  0
  -12.3870    5.5227  -14.6358 N   0  0  0  0  0  0  0  0  0  0  0  0
  -12.2882    6.2335  -15.7706 C   0  0  0  0  0  0  0  0  0  0  0  0
  -11.4964    7.3003  -15.8086 N   0  0  0  0  0  0  0  0  0  0  0  0
  -11.5981    7.7285  -17.0665 N   0  0  0  0  0  0  0  0  0  0  0  0
  -12.4321    6.9813  -17.8529 C   0  0  0  0  0  0  0  0  0  0  0  0
  -12.7520    7.1307  -19.2041 C   0  0  0  0  0  0  0  0  0  0  0  0
  -13.6509    6.2247  -19.7487 C   0  0  0  0  0  0  0  0  0  0  0  0
  -14.2175    5.2297  -18.9571 C   0  0  0  0  0  0  0  0  0  0  0  0
  -13.9068    5.0651  -17.5794 C   0  0  0  0  0  0  0  0  0  0  0  0
  -12.9528    5.9799  -17.0232 C   0  0  0  0  0  0  0  0  0  0  0  0
  -11.7402    5.7901  -13.9014 H   0  0  0  0  0  0  0  0  0  0  0  0
  -12.5398    4.5227  -14.6839 H   0  0  0  0  0  0  0  0  0  0  0  0
  -11.0673    8.5479  -17.3369 H   0  0  0  0  0  0  0  0  0  0  0  0
  -16.0001    0.0016  -13.5048 C   0  0  0  0  0  0  0  0  0  0  0  0
  -15.3114    0.3744  -12.5583 O   0  0  0  0  0  0  0  0  0  0  0  0
  -16.2380   -1.3146  -13.8589 N   0  0  0  0  0  0  0  0  0  0  0  0
  -16.7670   -1.4771  -14.7062 H   0  0  0  0  0  0  0  0  0  0  0  0
  -15.7851   -2.4706  -13.1802 C   0  0  0  0  0  0  0  0  0  0  0  0
  -15.4088   -2.4841  -11.8341 C   0  0  0  0  0  0  0  0  0  0  0  0
  -14.9141   -3.6534  -11.2504 C   0  0  0  0  0  0  0  0  0  0  0  0
  -14.3600   -3.6319   -9.4411 Br  0  0  0  0  0  0  0  0  0  0  0  0
  -14.8076   -4.8281  -11.9865 C   0  0  0  0  0  0  0  0  0  0  0  0
  -15.2116   -4.8252  -13.3175 C   0  0  0  0  0  0  0  0  0  0  0  0
  -15.0945   -6.4188  -14.3298 Br  0  0  0  0  0  0  0  0  0  0  0  0
  -15.6949   -3.6585  -13.9173 C   0  0  0  0  0  0  0  0  0  0  0  0
 11 12  1  0  0  0
 11 21  1  0  0  0
 11 22  1  0  0  0
 12 13  2  0  0  0
 12 20  1  0  0  0
 13 14  1  0  0  0
 14 15  1  0  0  0
 14 23  1  0  0  0
 15 16  1  0  0  0
 15 20  2  0  0  0
 16 17  2  0  0  0
 17 18  1  0  0  0
 18 19  2  0  0  0
 19  1  1  0  0  0
 19 20  1  0  0  0
  1  2  1  0  0  0
  1 10  2  0  0  0
  2  3  2  0  0  0
  3  4  1  0  0  0
  4  5  1  0  0  0
  4  9  2  0  0  0
  5 24  1  0  0  0
  5  6  2  0  0  0
 24 25  2  0  0  0
 24 26  1  0  0  0
 26 28  1  0  0  0
 26 27  1  0  0  0
 28 29  1  0  0  0
 28 35  2  0  0  0
 29 30  2  0  0  0
 30 31  1  0  0  0
 30 32  1  0  0  0
 32 33  2  0  0  0
 33 34  1  0  0  0
 33 35  1  0  0  0
  6  7  1  0  0  0
  7  8  2  0  0  0
  8  9  1  0  0  0
  9 10  1  0  0  0
M  END
> <minimizedAffinity>
-9.26500

$$$$
