CHEMBL177434


 28 30  0  0  0  0  0  0  0  0999 V2000
  -29.7476   -7.2310   -6.0343 C   0  0  0  0  0  0  0  0  0  0  0  0
  -28.5720   -7.6742   -5.4359 C   0  0  0  0  0  0  0  0  0  0  0  0
  -27.7781   -6.8810   -4.6811 N   0  0  0  0  0  0  0  0  0  0  0  0
  -28.2042   -5.6005   -4.5664 C   0  0  0  0  0  0  0  0  0  0  0  0
  -29.3703   -5.1043   -5.1564 C   0  0  0  0  0  0  0  0  0  0  0  0
  -30.1354   -5.9348   -5.8986 N   0  0  0  0  0  0  0  0  0  0  0  0
  -31.0484   -9.7548   -8.5408 C   0  0  0  0  0  0  0  0  0  0  0  0
  -30.1719   -9.0205   -7.7427 C   0  0  0  0  0  0  0  0  0  0  0  0
  -30.6613   -8.1008   -6.7971 C   0  0  0  0  0  0  0  0  0  0  0  0
  -32.0493   -8.0158   -6.6533 C   0  0  0  0  0  0  0  0  0  0  0  0
  -32.8534   -8.8132   -7.4459 C   0  0  0  0  0  0  0  0  0  0  0  0
  -32.3827   -9.6624   -8.3783 N   0  0  0  0  0  0  0  0  0  0  0  0
  -30.5170  -10.6606   -9.4817 N   0  0  0  0  0  0  0  0  0  0  0  0
  -30.8727  -11.5936   -9.2899 H   0  0  0  0  0  0  0  0  0  0  0  0
  -29.0529  -10.6458   -9.5106 C   0  0  0  0  0  0  0  0  0  0  0  0
  -28.5548  -10.2323  -10.8932 C   0  0  0  0  0  0  0  0  0  0  0  0
  -26.7222   -8.8513  -11.6060 O   0  0  0  0  0  0  0  0  0  0  0  0
  -27.0442  -10.0316  -10.8818 C   0  0  0  0  0  0  0  0  0  0  0  0
  -25.7568   -8.7449  -11.5589 H   0  0  0  0  0  0  0  0  0  0  0  0
  -29.6413   -3.7237   -5.0728 N   0  0  0  0  0  0  0  0  0  0  0  0
  -30.5987   -3.5159   -4.8182 H   0  0  0  0  0  0  0  0  0  0  0  0
  -28.9370   -2.6078   -5.5650 C   0  0  0  0  0  0  0  0  0  0  0  0
  -28.4707   -2.6558   -6.8902 C   0  0  0  0  0  0  0  0  0  0  0  0
  -27.9129   -1.5315   -7.5072 C   0  0  0  0  0  0  0  0  0  0  0  0
  -27.8104   -0.3337   -6.8057 C   0  0  0  0  0  0  0  0  0  0  0  0
  -28.2518   -0.2750   -5.4881 C   0  0  0  0  0  0  0  0  0  0  0  0
  -28.1335    1.2017   -4.6090 Cl  0  0  0  0  0  0  0  0  0  0  0  0
  -28.8115   -1.3976   -4.8760 C   0  0  0  0  0  0  0  0  0  0  0  0
 17 18  1  0  0  0
 17 19  1  0  0  0
 18 16  1  0  0  0
 16 15  1  0  0  0
 15 13  1  0  0  0
 13  7  1  0  0  0
 13 14  1  0  0  0
  7  8  1  0  0  0
  7 12  2  0  0  0
  8  9  2  0  0  0
  9  1  1  0  0  0
  9 10  1  0  0  0
  1  2  1  0  0  0
  1  6  2  0  0  0
  2  3  2  0  0  0
  3  4  1  0  0  0
  4  5  2  0  0  0
  5 20  1  0  0  0
  5  6  1  0  0  0
 20 22  1  0  0  0
 20 21  1  0  0  0
 22 23  1  0  0  0
 22 28  2  0  0  0
 23 24  2  0  0  0
 24 25  1  0  0  0
 25 26  2  0  0  0
 26 27  1  0  0  0
 26 28  1  0  0  0
 10 11  2  0  0  0
 11 12  1  0  0  0
M  END
> <minimizedAffinity>
-8.28808

$$$$
