CHEMBL3671497


 36 38  0  0  0  0  0  0  0  0999 V2000
  -29.7231   -5.1998   -7.0679 C   0  0  0  0  0  0  0  0  0  0  0  0
  -29.0614   -4.3871   -7.9877 C   0  0  0  0  0  0  0  0  0  0  0  0
  -28.5280   -3.1468   -7.5855 C   0  0  0  0  0  0  0  0  0  0  0  0
  -28.0094   -2.1893   -8.4689 C   0  0  0  0  0  0  0  0  0  0  0  0
  -27.5248   -1.0147   -8.0298 N   0  0  0  0  0  0  0  0  0  0  0  0
  -27.5875   -0.7843   -6.7175 C   0  0  0  0  0  0  0  0  0  0  0  0
  -28.1094   -1.6009   -5.7992 N   0  0  0  0  0  0  0  0  0  0  0  0
  -28.5896   -2.7680   -6.2355 C   0  0  0  0  0  0  0  0  0  0  0  0
  -29.2106   -3.6225   -5.3263 C   0  0  0  0  0  0  0  0  0  0  0  0
  -29.7752   -4.8426   -5.7153 C   0  0  0  0  0  0  0  0  0  0  0  0
  -29.9679   -7.5046   -7.8491 C   0  0  0  0  0  0  0  0  0  0  0  0
  -30.7177   -8.4659   -7.9984 O   0  0  0  0  0  0  0  0  0  0  0  0
  -30.4889   -6.2605   -7.5763 N   0  0  0  0  0  0  0  0  0  0  0  0
  -31.4344   -6.3539   -7.2193 H   0  0  0  0  0  0  0  0  0  0  0  0
  -27.9497   -8.6111   -8.6313 C   0  0  0  0  0  0  0  0  0  0  0  0
  -28.4906   -7.6358   -7.8924 C   0  0  0  0  0  0  0  0  0  0  0  0
  -28.0645   -2.4141   -9.8717 N   0  0  0  0  0  0  0  0  0  0  0  0
  -28.3290   -3.3741  -10.0777 H   0  0  0  0  0  0  0  0  0  0  0  0
  -27.1025   -1.9246  -10.7869 C   0  0  0  0  0  0  0  0  0  0  0  0
  -25.8182   -1.5616  -10.3579 C   0  0  0  0  0  0  0  0  0  0  0  0
  -24.8352   -1.1910  -11.2763 C   0  0  0  0  0  0  0  0  0  0  0  0
  -25.1404   -1.1578  -12.6352 C   0  0  0  0  0  0  0  0  0  0  0  0
  -23.7813   -0.7499  -13.8829 Br  0  0  0  0  0  0  0  0  0  0  0  0
  -26.4287   -1.4448  -13.0796 C   0  0  0  0  0  0  0  0  0  0  0  0
  -27.3989   -1.8136  -12.1509 C   0  0  0  0  0  0  0  0  0  0  0  0
  -28.6354   -2.1092  -12.5823 F   0  0  0  0  0  0  0  0  0  0  0  0
  -30.4150   -5.5454   -4.7195 O   0  0  0  0  0  0  0  0  0  0  0  0
  -29.5343   -6.1274   -3.7500 C   0  0  0  0  0  0  0  0  0  0  0  0
  -28.9955   -7.4788   -4.2220 C   0  0  0  0  0  0  0  0  0  0  0  0
  -27.5422   -7.4649   -4.2840 N   0  0  0  0  0  0  0  0  0  0  0  0
  -26.8066   -8.5925   -4.1242 C   0  0  0  0  0  0  0  0  0  0  0  0
  -25.4690   -8.3578   -4.1011 N   0  0  0  0  0  0  0  0  0  0  0  0
  -27.2558   -9.7217   -4.0020 O   0  0  0  0  0  0  0  0  0  0  0  0
  -27.0591   -6.5873   -4.4095 H   0  0  0  0  0  0  0  0  0  0  0  0
  -25.1496   -7.5213   -3.6355 H   0  0  0  0  0  0  0  0  0  0  0  0
  -24.9245   -9.1867   -3.8926 H   0  0  0  0  0  0  0  0  0  0  0  0
 15 16  2  0  0  0
 16 11  1  0  0  0
 11 12  2  0  0  0
 11 13  1  0  0  0
 13  1  1  0  0  0
 13 14  1  0  0  0
  1  2  1  0  0  0
  1 10  2  0  0  0
  2  3  2  0  0  0
  3  4  1  0  0  0
  3  8  1  0  0  0
  4 17  1  0  0  0
  4  5  2  0  0  0
 17 19  1  0  0  0
 17 18  1  0  0  0
 19 20  1  0  0  0
 19 25  2  0  0  0
 20 21  2  0  0  0
 21 22  1  0  0  0
 22 23  1  0  0  0
 22 24  2  0  0  0
 24 25  1  0  0  0
 25 26  1  0  0  0
  5  6  1  0  0  0
  6  7  2  0  0  0
  7  8  1  0  0  0
  8  9  2  0  0  0
  9 10  1  0  0  0
 10 27  1  0  0  0
 27 28  1  0  0  0
 28 29  1  0  0  0
 29 30  1  0  0  0
 30 31  1  0  0  0
 30 34  1  0  0  0
 31 32  1  0  0  0
 31 33  2  0  0  0
 32 35  1  0  0  0
 32 36  1  0  0  0
M  END
> <minimizedAffinity>
-8.90312

$$$$
