CHEMBL3740930


 42 47  0  0  0  0  0  0  0  0999 V2000
  -27.6146  -10.7369   -5.5433 C   0  0  0  0  0  0  0  0  0  0  0  0
  -27.7828  -11.7802   -4.9300 O   0  0  0  0  0  0  0  0  0  0  0  0
  -25.2168  -12.4655   -7.1105 C   0  0  0  0  0  0  0  0  0  0  0  0
  -26.2564  -11.5148   -7.5983 C   0  0  0  0  0  0  0  0  0  0  0  0
  -26.3459  -11.2780   -8.9469 N   0  0  0  0  0  0  0  0  0  0  0  0
  -27.4057  -10.4632   -9.2636 C   0  0  0  0  0  0  0  0  0  0  0  0
  -28.0342  -10.1443   -8.0537 C   0  0  0  0  0  0  0  0  0  0  0  0
  -27.2677  -10.7815   -6.9792 C   0  0  0  0  0  0  0  0  0  0  0  0
  -25.7324  -11.6912   -9.6372 H   0  0  0  0  0  0  0  0  0  0  0  0
  -27.6668  -10.1142  -10.6742 C   0  0  0  0  0  0  0  0  0  0  0  0
  -26.7464   -9.3458  -11.4073 C   0  0  0  0  0  0  0  0  0  0  0  0
  -26.9634   -9.0597  -12.7587 C   0  0  0  0  0  0  0  0  0  0  0  0
  -28.0880   -9.5634  -13.4059 C   0  0  0  0  0  0  0  0  0  0  0  0
  -29.0157  -10.3158  -12.6927 C   0  0  0  0  0  0  0  0  0  0  0  0
  -28.8226  -10.5568  -11.3304 C   0  0  0  0  0  0  0  0  0  0  0  0
  -29.2538   -9.3125   -7.9506 C   0  0  0  0  0  0  0  0  0  0  0  0
  -29.1832   -7.9111   -7.8832 C   0  0  0  0  0  0  0  0  0  0  0  0
  -30.3297   -7.1329   -7.6830 C   0  0  0  0  0  0  0  0  0  0  0  0
  -31.5825   -7.7350   -7.6455 C   0  0  0  0  0  0  0  0  0  0  0  0
  -31.6836   -9.1150   -7.7845 C   0  0  0  0  0  0  0  0  0  0  0  0
  -30.5280   -9.8971   -7.8992 C   0  0  0  0  0  0  0  0  0  0  0  0
  -27.7905   -9.4395   -4.8839 C   0  0  0  0  0  0  0  0  0  0  0  0
  -28.9596   -8.7164   -4.7377 C   0  0  0  0  0  0  0  0  0  0  0  0
  -28.6411   -7.5081   -4.1675 N   0  0  0  0  0  0  0  0  0  0  0  0
  -27.3491   -7.4900   -3.7480 N   0  0  0  0  0  0  0  0  0  0  0  0
  -26.8359   -8.6784   -4.1364 C   0  0  0  0  0  0  0  0  0  0  0  0
  -29.4931   -6.3771   -3.9981 C   0  0  0  0  0  0  0  0  0  0  0  0
  -30.8874   -6.5159   -3.9574 C   0  0  0  0  0  0  0  0  0  0  0  0
  -31.7050   -5.3951   -3.7700 C   0  0  0  0  0  0  0  0  0  0  0  0
  -31.1417   -4.1257   -3.6369 C   0  0  0  0  0  0  0  0  0  0  0  0
  -29.7538   -3.9810   -3.6926 C   0  0  0  0  0  0  0  0  0  0  0  0
  -28.9312   -5.0973   -3.8749 C   0  0  0  0  0  0  0  0  0  0  0  0
  -25.4527   -9.0630   -3.7764 C   0  0  0  0  0  0  0  0  0  0  0  0
  -24.5957   -8.2304   -3.5169 O   0  0  0  0  0  0  0  0  0  0  0  0
  -25.2181  -10.4295   -3.8134 N   0  0  0  0  0  0  0  0  0  0  0  0
  -26.0083  -10.9918   -4.1123 H   0  0  0  0  0  0  0  0  0  0  0  0
  -23.9652  -11.0508   -3.6187 C   0  0  0  0  0  0  0  0  0  0  0  0
  -23.5986  -11.6947   -2.4305 C   0  0  0  0  0  0  0  0  0  0  0  0
  -22.3217  -12.2294   -2.2604 C   0  0  0  0  0  0  0  0  0  0  0  0
  -21.3925  -12.1465   -3.2902 C   0  0  0  0  0  0  0  0  0  0  0  0
  -21.7530  -11.5411   -4.4928 C   0  0  0  0  0  0  0  0  0  0  0  0
  -23.0355  -11.0036   -4.6628 C   0  0  0  0  0  0  0  0  0  0  0  0
  3  4  1  0  0  0
  4  5  1  0  0  0
  4  8  2  0  0  0
  5  6  1  0  0  0
  5  9  1  0  0  0
  6 10  1  0  0  0
  6  7  2  0  0  0
 10 11  1  0  0  0
 10 15  2  0  0  0
 11 12  2  0  0  0
 12 13  1  0  0  0
 13 14  2  0  0  0
 14 15  1  0  0  0
  7 16  1  0  0  0
  7  8  1  0  0  0
 16 17  1  0  0  0
 16 21  2  0  0  0
 17 18  2  0  0  0
 18 19  1  0  0  0
 19 20  2  0  0  0
 20 21  1  0  0  0
  8  1  1  0  0  0
  1  2  2  0  0  0
  1 22  1  0  0  0
 22 23  2  0  0  0
 22 26  1  0  0  0
 23 24  1  0  0  0
 24 27  1  0  0  0
 24 25  1  0  0  0
 27 28  1  0  0  0
 27 32  2  0  0  0
 28 29  2  0  0  0
 29 30  1  0  0  0
 30 31  2  0  0  0
 31 32  1  0  0  0
 25 26  2  0  0  0
 26 33  1  0  0  0
 33 34  2  0  0  0
 33 35  1  0  0  0
 35 37  1  0  0  0
 35 36  1  0  0  0
 37 38  1  0  0  0
 37 42  2  0  0  0
 38 39  2  0  0  0
 39 40  1  0  0  0
 40 41  2  0  0  0
 41 42  1  0  0  0
M  END
> <minimizedAffinity>
-9.13343

$$$$
