CHEMBL1172422


 37 40  0  0  0  0  0  0  0  0999 V2000
  -14.9482    1.6607  -16.6302 C   0  0  0  0  0  0  0  0  0  0  0  0
  -15.9260    2.5015  -16.2492 C   0  0  0  0  0  0  0  0  0  0  0  0
  -15.9159    4.0109  -16.3628 C   0  0  0  0  0  0  0  0  0  0  0  0
  -15.0147    4.7509  -16.7194 O   0  0  0  0  0  0  0  0  0  0  0  0
  -17.1689    4.4102  -15.9356 N   0  0  0  0  0  0  0  0  0  0  0  0
  -17.9384    3.3277  -15.5280 C   0  0  0  0  0  0  0  0  0  0  0  0
  -19.2221    3.4000  -15.0235 C   0  0  0  0  0  0  0  0  0  0  0  0
  -19.8633    2.2173  -14.6372 C   0  0  0  0  0  0  0  0  0  0  0  0
  -19.1493    1.0017  -14.7301 C   0  0  0  0  0  0  0  0  0  0  0  0
  -17.8359    0.9521  -15.2601 C   0  0  0  0  0  0  0  0  0  0  0  0
  -17.2373    2.1318  -15.6715 C   0  0  0  0  0  0  0  0  0  0  0  0
  -17.4580    5.3756  -15.9102 H   0  0  0  0  0  0  0  0  0  0  0  0
  -10.6967    4.0064  -16.4370 C   0  0  0  0  0  0  0  0  0  0  0  0
  -11.7407    3.1756  -17.0949 C   0  0  0  0  0  0  0  0  0  0  0  0
  -12.8458    2.7680  -16.3848 N   0  0  0  0  0  0  0  0  0  0  0  0
  -13.7202    2.0975  -17.1979 C   0  0  0  0  0  0  0  0  0  0  0  0
  -13.1492    2.0287  -18.4589 C   0  0  0  0  0  0  0  0  0  0  0  0
  -13.7576    1.4078  -19.6698 C   0  0  0  0  0  0  0  0  0  0  0  0
  -11.8945    2.7424  -18.4070 C   0  0  0  0  0  0  0  0  0  0  0  0
  -13.0204    2.9982  -15.4156 H   0  0  0  0  0  0  0  0  0  0  0  0
  -10.9872    3.0432  -19.5777 C   0  0  0  0  0  0  0  0  0  0  0  0
  -11.3107    4.2619  -20.4226 C   0  0  0  0  0  0  0  0  0  0  0  0
  -11.7745    4.1721  -21.5493 O   0  0  0  0  0  0  0  0  0  0  0  0
  -11.0642    5.4699  -19.8635 O   0  0  0  0  0  0  0  0  0  0  0  0
  -10.6980    5.4067  -18.9581 H   0  0  0  0  0  0  0  0  0  0  0  0
  -21.2032    2.2178  -14.1508 N   0  0  0  0  0  0  0  0  0  0  0  0
  -21.9371    1.0607  -13.9191 C   0  0  0  0  0  0  0  0  0  0  0  0
  -21.4852   -0.0765  -14.0397 O   0  0  0  0  0  0  0  0  0  0  0  0
  -23.2533    1.3118  -13.5439 N   0  0  0  0  0  0  0  0  0  0  0  0
  -21.5414    3.0604  -13.7063 H   0  0  0  0  0  0  0  0  0  0  0  0
  -23.6755    2.0991  -14.0145 H   0  0  0  0  0  0  0  0  0  0  0  0
  -24.1106    0.2046  -13.2904 C   0  0  0  0  0  0  0  0  0  0  0  0
  -24.5204   -0.6396  -14.3308 C   0  0  0  0  0  0  0  0  0  0  0  0
  -25.4513   -1.6545  -14.0981 C   0  0  0  0  0  0  0  0  0  0  0  0
  -25.9860   -1.8262  -12.8243 C   0  0  0  0  0  0  0  0  0  0  0  0
  -25.5624   -1.0055  -11.7780 C   0  0  0  0  0  0  0  0  0  0  0  0
  -24.6060   -0.0072  -12.0021 C   0  0  0  0  0  0  0  0  0  0  0  0
 13 14  1  0  0  0
 14 15  1  0  0  0
 14 19  2  0  0  0
 15 16  1  0  0  0
 15 20  1  0  0  0
 16  1  1  0  0  0
 16 17  2  0  0  0
  1  2  2  0  0  0
  2  3  1  0  0  0
  2 11  1  0  0  0
  3  4  2  0  0  0
  3  5  1  0  0  0
  5  6  1  0  0  0
  5 12  1  0  0  0
  6  7  1  0  0  0
  6 11  2  0  0  0
  7  8  2  0  0  0
  8 26  1  0  0  0
  8  9  1  0  0  0
 26 27  1  0  0  0
 26 30  1  0  0  0
 27 28  2  0  0  0
 27 29  1  0  0  0
 29 32  1  0  0  0
 29 31  1  0  0  0
 32 33  1  0  0  0
 32 37  2  0  0  0
 33 34  2  0  0  0
 34 35  1  0  0  0
 35 36  2  0  0  0
 36 37  1  0  0  0
  9 10  2  0  0  0
 10 11  1  0  0  0
 17 18  1  0  0  0
 17 19  1  0  0  0
 19 21  1  0  0  0
 21 22  1  0  0  0
 22 23  2  0  0  0
 22 24  1  0  0  0
 24 25  1  0  0  0
M  END
> <minimizedAffinity>
-8.93213

$$$$
