CHEMBL4799113


 49 53  0  0  0  0  0  0  0  0999 V2000
  -16.5374    0.8174  -15.1114 C   0  0  0  0  0  0  0  0  0  0  0  0
  -15.2236    0.8736  -15.5980 C   0  0  0  0  0  0  0  0  0  0  0  0
  -14.1350    0.4333  -14.8271 C   0  0  0  0  0  0  0  0  0  0  0  0
  -14.3443   -0.0865  -13.5510 C   0  0  0  0  0  0  0  0  0  0  0  0
  -15.6420   -0.0868  -13.0378 C   0  0  0  0  0  0  0  0  0  0  0  0
  -15.8918   -0.5173  -11.7921 F   0  0  0  0  0  0  0  0  0  0  0  0
  -16.7265    0.3171  -13.8165 C   0  0  0  0  0  0  0  0  0  0  0  0
  -17.6682    1.1931  -15.8660 N   0  0  0  0  0  0  0  0  0  0  0  0
  -17.5011    1.2303  -16.8731 H   0  0  0  0  0  0  0  0  0  0  0  0
  -18.8401    1.7912  -15.4218 C   0  0  0  0  0  0  0  0  0  0  0  0
  -19.8843    1.0871  -15.1121 N   0  0  0  0  0  0  0  0  0  0  0  0
  -21.2415    1.5335  -14.3254 S   0  0  0  0  0  0  0  0  0  0  0  0
  -20.9982    2.8826  -13.8623 O   0  0  0  0  0  0  0  0  0  0  0  0
  -22.3642    1.2527  -15.1890 O   0  0  0  0  0  0  0  0  0  0  0  0
  -21.3655    0.4697  -12.8811 C   0  0  0  0  0  0  0  0  0  0  0  0
  -22.7738   -0.1045  -12.8191 C   0  0  0  0  0  0  0  0  0  0  0  0
  -23.8280    0.6027  -12.2127 C   0  0  0  0  0  0  0  0  0  0  0  0
  -25.1131    0.0467  -12.1285 C   0  0  0  0  0  0  0  0  0  0  0  0
  -25.3583   -1.2211  -12.6502 C   0  0  0  0  0  0  0  0  0  0  0  0
  -26.9315   -1.9090  -12.5369 Cl  0  0  0  0  0  0  0  0  0  0  0  0
  -24.3256   -1.9399  -13.2585 C   0  0  0  0  0  0  0  0  0  0  0  0
  -23.0461   -1.3812  -13.3399 C   0  0  0  0  0  0  0  0  0  0  0  0
  -18.8104    3.3240  -15.4057 C   0  0  0  0  0  0  0  0  0  0  0  0
  -17.4466    3.9975  -15.5646 C   0  0  0  0  0  0  0  0  0  0  0  0
  -15.5386    4.4182  -16.8520 C   0  0  0  0  0  0  0  0  0  0  0  0
  -16.8176    3.7604  -16.8291 O   0  0  0  0  0  0  0  0  0  0  0  0
  -13.2335   -0.5366  -12.8710 O   0  0  0  0  0  0  0  0  0  0  0  0
  -12.4638   -1.5506  -13.4167 C   0  0  0  0  0  0  0  0  0  0  0  0
  -11.3743   -1.3081  -14.2486 C   0  0  0  0  0  0  0  0  0  0  0  0
  -10.7241   -2.3876  -14.8018 C   0  0  0  0  0  0  0  0  0  0  0  0
  -11.0286   -3.6704  -14.5136 N   0  0  0  0  0  0  0  0  0  0  0  0
  -12.0210   -3.9078  -13.6372 C   0  0  0  0  0  0  0  0  0  0  0  0
  -12.3131   -5.2224  -13.2826 C   0  0  0  0  0  0  0  0  0  0  0  0
  -13.3491   -5.5922  -12.3886 C   0  0  0  0  0  0  0  0  0  0  0  0
  -14.1155   -4.5815  -11.7995 C   0  0  0  0  0  0  0  0  0  0  0  0
  -13.8164   -3.2475  -12.1675 C   0  0  0  0  0  0  0  0  0  0  0  0
  -12.7882   -2.8865  -13.0670 C   0  0  0  0  0  0  0  0  0  0  0  0
  -15.1315   -4.5321  -10.8981 O   0  0  0  0  0  0  0  0  0  0  0  0
  -15.9365   -3.4430  -10.5066 C   0  0  0  0  0  0  0  0  0  0  0  0
  -13.3774   -6.9578  -12.2614 O   0  0  0  0  0  0  0  0  0  0  0  0
  -12.3400   -7.7032  -12.8643 C   0  0  0  0  0  0  0  0  0  0  0  0
  -12.8181   -8.8735  -13.6996 C   0  0  0  0  0  0  0  0  0  0  0  0
  -13.4005   -8.4543  -15.0393 C   0  0  0  0  0  0  0  0  0  0  0  0
  -12.3525   -8.2406  -16.0564 N   0  0  0  0  0  0  0  0  0  0  0  0
  -12.4007   -6.8459  -16.5561 C   0  0  0  0  0  0  0  0  0  0  0  0
  -13.6124   -6.5486  -17.4648 C   0  0  0  0  0  0  0  0  0  0  0  0
  -13.7373   -7.4940  -18.5372 O   0  0  0  0  0  0  0  0  0  0  0  0
  -13.7599   -8.8398  -18.0435 C   0  0  0  0  0  0  0  0  0  0  0  0
  -12.4874   -9.1283  -17.2359 C   0  0  0  0  0  0  0  0  0  0  0  0
 25 26  1  0  0  0
 26 24  1  0  0  0
 24 23  1  0  0  0
 23 10  1  0  0  0
 10 11  2  0  0  0
 10  8  1  0  0  0
 11 12  1  0  0  0
 12 13  2  0  0  0
 12 14  2  0  0  0
 12 15  1  0  0  0
 15 16  1  0  0  0
 16 17  1  0  0  0
 16 22  2  0  0  0
 17 18  2  0  0  0
 18 19  1  0  0  0
 19 20  1  0  0  0
 19 21  2  0  0  0
 21 22  1  0  0  0
  8  1  1  0  0  0
  8  9  1  0  0  0
  1  2  1  0  0  0
  1  7  2  0  0  0
  2  3  2  0  0  0
  3  4  1  0  0  0
  4 27  1  0  0  0
  4  5  2  0  0  0
 27 28  1  0  0  0
 28 29  1  0  0  0
 28 37  2  0  0  0
 29 30  2  0  0  0
 30 31  1  0  0  0
 31 32  2  0  0  0
 32 33  1  0  0  0
 32 37  1  0  0  0
 33 34  2  0  0  0
 34 40  1  0  0  0
 34 35  1  0  0  0
 40 41  1  0  0  0
 41 42  1  0  0  0
 42 43  1  0  0  0
 43 44  1  0  0  0
 44 45  1  0  0  0
 44 49  1  0  0  0
 45 46  1  0  0  0
 46 47  1  0  0  0
 47 48  1  0  0  0
 48 49  1  0  0  0
 35 38  1  0  0  0
 35 36  2  0  0  0
 38 39  1  0  0  0
 36 37  1  0  0  0
  5  6  1  0  0  0
  5  7  1  0  0  0
M  END
> <minimizedAffinity>
-7.25633

$$$$
