CHEMBL3696084


 40 42  0  0  0  0  0  0  0  0999 V2000
  -21.5832    0.3967  -14.3952 C   0  0  0  0  0  0  0  0  0  0  0  0
  -20.8194   -0.6028  -14.8564 N   0  0  0  0  0  0  0  0  0  0  0  0
  -19.4687   -0.0034  -15.5679 S   0  0  0  0  0  0  0  0  0  0  0  0
  -19.8293    1.6294  -15.2722 C   0  0  0  0  0  0  0  0  0  0  0  0
  -21.0235    1.7292  -14.5752 C   0  0  0  0  0  0  0  0  0  0  0  0
  -25.2626   -0.8564  -12.5936 C   0  0  0  0  0  0  0  0  0  0  0  0
  -24.2740   -0.2215  -11.8402 C   0  0  0  0  0  0  0  0  0  0  0  0
  -23.0963    0.2161  -12.4441 C   0  0  0  0  0  0  0  0  0  0  0  0
  -22.8771    0.0085  -13.8128 C   0  0  0  0  0  0  0  0  0  0  0  0
  -23.8640   -0.6521  -14.5591 C   0  0  0  0  0  0  0  0  0  0  0  0
  -25.0465   -1.0954  -13.9501 C   0  0  0  0  0  0  0  0  0  0  0  0
  -27.7985   -1.9294  -10.2436 N   0  0  0  0  0  0  0  0  0  0  0  0
  -26.5228   -1.6084  -10.6781 C   0  0  0  0  0  0  0  0  0  0  0  0
  -25.5140   -1.6307   -9.9814 O   0  0  0  0  0  0  0  0  0  0  0  0
  -26.4996   -1.2126  -12.0070 N   0  0  0  0  0  0  0  0  0  0  0  0
  -28.4979   -2.0970  -10.9429 H   0  0  0  0  0  0  0  0  0  0  0  0
  -27.3160   -0.7036  -12.3140 H   0  0  0  0  0  0  0  0  0  0  0  0
  -29.0938   -3.0162   -4.7499 C   0  0  0  0  0  0  0  0  0  0  0  0
  -28.7528   -2.7344   -6.1793 C   0  0  0  0  0  0  0  0  0  0  0  0
  -29.0530   -3.6713   -7.1630 C   0  0  0  0  0  0  0  0  0  0  0  0
  -28.7416   -3.4210   -8.4985 C   0  0  0  0  0  0  0  0  0  0  0  0
  -28.1363   -2.2225   -8.8926 C   0  0  0  0  0  0  0  0  0  0  0  0
  -27.8388   -1.2771   -7.9084 C   0  0  0  0  0  0  0  0  0  0  0  0
  -28.1453   -1.5294   -6.5618 C   0  0  0  0  0  0  0  0  0  0  0  0
  -18.9860    2.6185  -15.7575 N   0  0  0  0  0  0  0  0  0  0  0  0
  -17.6301    2.5221  -15.5200 C   0  0  0  0  0  0  0  0  0  0  0  0
  -17.0892    1.6751  -14.8182 O   0  0  0  0  0  0  0  0  0  0  0  0
  -16.9148    3.5289  -16.1209 N   0  0  0  0  0  0  0  0  0  0  0  0
  -19.3646    3.5605  -15.7484 H   0  0  0  0  0  0  0  0  0  0  0  0
  -17.3870    4.1929  -16.7174 H   0  0  0  0  0  0  0  0  0  0  0  0
  -15.4853    3.6380  -15.9105 C   0  0  0  0  0  0  0  0  0  0  0  0
  -14.6810    3.1328  -17.1037 C   0  0  0  0  0  0  0  0  0  0  0  0
  -14.1423    1.7171  -16.9270 C   0  0  0  0  0  0  0  0  0  0  0  0
  -15.2265    0.7939  -16.9432 O   0  0  0  0  0  0  0  0  0  0  0  0
  -15.7143    0.9096  -16.1103 H   0  0  0  0  0  0  0  0  0  0  0  0
  -21.5202    3.0123  -14.1123 C   0  0  0  0  0  0  0  0  0  0  0  0
  -22.8745    3.1411  -14.0000 N   0  0  0  0  0  0  0  0  0  0  0  0
  -20.7760    3.9221  -13.7563 O   0  0  0  0  0  0  0  0  0  0  0  0
  -23.5022    2.3500  -14.0702 H   0  0  0  0  0  0  0  0  0  0  0  0
  -23.2272    3.9797  -13.5571 H   0  0  0  0  0  0  0  0  0  0  0  0
 18 19  1  0  0  0
 19 20  1  0  0  0
 19 24  2  0  0  0
 20 21  2  0  0  0
 21 22  1  0  0  0
 22 12  1  0  0  0
 22 23  2  0  0  0
 12 13  1  0  0  0
 12 16  1  0  0  0
 13 14  2  0  0  0
 13 15  1  0  0  0
 15  6  1  0  0  0
 15 17  1  0  0  0
  6  7  1  0  0  0
  6 11  2  0  0  0
  7  8  2  0  0  0
  8  9  1  0  0  0
  9  1  1  0  0  0
  9 10  2  0  0  0
  1  2  2  0  0  0
  1  5  1  0  0  0
  2  3  1  0  0  0
  3  4  1  0  0  0
  4 25  1  0  0  0
  4  5  2  0  0  0
 25 26  1  0  0  0
 25 29  1  0  0  0
 26 27  2  0  0  0
 26 28  1  0  0  0
 28 31  1  0  0  0
 28 30  1  0  0  0
 31 32  1  0  0  0
 32 33  1  0  0  0
 33 34  1  0  0  0
 34 35  1  0  0  0
  5 36  1  0  0  0
 36 37  1  0  0  0
 36 38  2  0  0  0
 37 39  1  0  0  0
 37 40  1  0  0  0
 10 11  1  0  0  0
 23 24  1  0  0  0
M  END
> <minimizedAffinity>
-9.00723

$$$$
