CHEMBL3907764


 31 34  0  0  0  0  0  0  0  0999 V2000
  -12.7204    0.9888  -13.2552 C   0  0  0  0  0  0  0  0  0  0  0  0
  -13.5160    1.4289  -14.3098 C   0  0  0  0  0  0  0  0  0  0  0  0
  -13.5014    0.7816  -15.5591 C   0  0  0  0  0  0  0  0  0  0  0  0
  -14.2165    1.2433  -16.6752 C   0  0  0  0  0  0  0  0  0  0  0  0
  -14.2255    0.5716  -17.8399 N   0  0  0  0  0  0  0  0  0  0  0  0
  -13.4915   -0.5450  -17.8867 C   0  0  0  0  0  0  0  0  0  0  0  0
  -12.7481   -1.0479  -16.8991 N   0  0  0  0  0  0  0  0  0  0  0  0
  -12.7578   -0.3887  -15.7307 C   0  0  0  0  0  0  0  0  0  0  0  0
  -12.0298   -0.8710  -14.6410 C   0  0  0  0  0  0  0  0  0  0  0  0
  -12.0232   -0.2248  -13.3977 C   0  0  0  0  0  0  0  0  0  0  0  0
  -12.0494    3.0006  -12.1235 C   0  0  0  0  0  0  0  0  0  0  0  0
  -12.6203    1.6959  -12.0893 O   0  0  0  0  0  0  0  0  0  0  0  0
  -14.9022    2.4923  -16.5857 N   0  0  0  0  0  0  0  0  0  0  0  0
  -14.6982    3.0321  -17.4222 H   0  0  0  0  0  0  0  0  0  0  0  0
  -16.2350    2.6419  -16.1533 C   0  0  0  0  0  0  0  0  0  0  0  0
  -16.7613    3.9171  -15.9138 C   0  0  0  0  0  0  0  0  0  0  0  0
  -18.0582    4.0780  -15.4274 C   0  0  0  0  0  0  0  0  0  0  0  0
  -18.8540    2.9601  -15.1837 C   0  0  0  0  0  0  0  0  0  0  0  0
  -20.4283    3.2257  -14.5246 Cl  0  0  0  0  0  0  0  0  0  0  0  0
  -18.3588    1.6814  -15.4623 C   0  0  0  0  0  0  0  0  0  0  0  0
  -19.2929    0.2521  -15.1968 Cl  0  0  0  0  0  0  0  0  0  0  0  0
  -17.0574    1.5262  -15.9604 C   0  0  0  0  0  0  0  0  0  0  0  0
  -11.3128   -0.8920  -12.4138 O   0  0  0  0  0  0  0  0  0  0  0  0
  -11.3025   -2.3225  -12.5468 C   0  0  0  0  0  0  0  0  0  0  0  0
  -12.0615   -3.0483  -11.4129 C   0  0  0  0  0  0  0  0  0  0  0  0
  -13.5370   -2.8748  -11.5033 N   0  0  0  0  0  0  0  0  0  0  0  0
  -14.0735   -3.3591  -12.7871 C   0  0  0  0  0  0  0  0  0  0  0  0
  -15.5744   -3.1060  -12.9089 C   0  0  0  0  0  0  0  0  0  0  0  0
  -16.3339   -3.7566  -11.7654 C   0  0  0  0  0  0  0  0  0  0  0  0
  -15.7394   -3.3227  -10.4300 C   0  0  0  0  0  0  0  0  0  0  0  0
  -14.2189   -3.5436  -10.3815 C   0  0  0  0  0  0  0  0  0  0  0  0
 11 12  1  0  0  0
 12  1  1  0  0  0
  1  2  1  0  0  0
  1 10  2  0  0  0
  2  3  2  0  0  0
  3  4  1  0  0  0
  3  8  1  0  0  0
  4 13  1  0  0  0
  4  5  2  0  0  0
 13 15  1  0  0  0
 13 14  1  0  0  0
 15 16  1  0  0  0
 15 22  2  0  0  0
 16 17  2  0  0  0
 17 18  1  0  0  0
 18 19  1  0  0  0
 18 20  2  0  0  0
 20 21  1  0  0  0
 20 22  1  0  0  0
  5  6  1  0  0  0
  6  7  2  0  0  0
  7  8  1  0  0  0
  8  9  2  0  0  0
  9 10  1  0  0  0
 10 23  1  0  0  0
 23 24  1  0  0  0
 24 25  1  0  0  0
 25 26  1  0  0  0
 26 27  1  0  0  0
 26 31  1  0  0  0
 27 28  1  0  0  0
 28 29  1  0  0  0
 29 30  1  0  0  0
 30 31  1  0  0  0
M  END
> <minimizedAffinity>
-7.31815

$$$$
