CHEMBL3916828


 32 36  0  0  0  0  0  0  0  0999 V2000
  -15.5034   -3.1328  -12.4752 C   0  0  0  0  0  0  0  0  0  0  0  0
  -15.8769   -1.8907  -12.9786 C   0  0  0  0  0  0  0  0  0  0  0  0
  -14.9147   -0.9041  -13.2709 C   0  0  0  0  0  0  0  0  0  0  0  0
  -15.2432    0.4131  -13.6358 C   0  0  0  0  0  0  0  0  0  0  0  0
  -14.2996    1.3336  -13.8841 N   0  0  0  0  0  0  0  0  0  0  0  0
  -13.0272    0.9249  -13.7831 C   0  0  0  0  0  0  0  0  0  0  0  0
  -12.6081   -0.2933  -13.4142 N   0  0  0  0  0  0  0  0  0  0  0  0
  -13.5524   -1.1966  -13.1313 C   0  0  0  0  0  0  0  0  0  0  0  0
  -13.1850   -2.4433  -12.6235 C   0  0  0  0  0  0  0  0  0  0  0  0
  -14.1435   -3.3903  -12.2486 C   0  0  0  0  0  0  0  0  0  0  0  0
  -16.8441   -4.9480  -13.2321 C   0  0  0  0  0  0  0  0  0  0  0  0
  -16.3930   -4.1286  -12.1578 O   0  0  0  0  0  0  0  0  0  0  0  0
  -16.6026    0.7900  -13.6732 N   0  0  0  0  0  0  0  0  0  0  0  0
  -17.1663    0.0721  -13.2254 H   0  0  0  0  0  0  0  0  0  0  0  0
  -17.1318    1.2180  -14.9797 C   0  0  0  0  0  0  0  0  0  0  0  0
  -18.5796    0.7600  -15.1708 C   0  0  0  0  0  0  0  0  0  0  0  0
  -19.4441    1.7451  -14.5884 O   0  0  0  0  0  0  0  0  0  0  0  0
  -18.6613    2.9328  -14.3666 C   0  0  0  0  0  0  0  0  0  0  0  0
  -17.2985    2.7363  -15.0301 C   0  0  0  0  0  0  0  0  0  0  0  0
  -17.3567    3.2292  -16.3794 O   0  0  0  0  0  0  0  0  0  0  0  0
  -16.1872    3.9630  -16.7401 C   0  0  0  0  0  0  0  0  0  0  0  0
  -13.8556   -4.4942  -11.4936 O   0  0  0  0  0  0  0  0  0  0  0  0
  -12.8141   -5.3867  -11.9148 C   0  0  0  0  0  0  0  0  0  0  0  0
  -12.7826   -6.6327  -11.0364 C   0  0  0  0  0  0  0  0  0  0  0  0
  -13.7325   -7.5842  -11.5497 O   0  0  0  0  0  0  0  0  0  0  0  0
  -14.0267   -7.2257  -12.9063 C   0  0  0  0  0  0  0  0  0  0  0  0
  -13.4457   -8.2603  -13.8660 C   0  0  0  0  0  0  0  0  0  0  0  0
  -14.4376   -9.1292  -14.3896 O   0  0  0  0  0  0  0  0  0  0  0  0
  -12.8143   -7.3817  -14.9280 C   0  0  0  0  0  0  0  0  0  0  0  0
  -12.2481   -6.2965  -14.1726 O   0  0  0  0  0  0  0  0  0  0  0  0
  -13.2937   -5.9333  -13.2479 C   0  0  0  0  0  0  0  0  0  0  0  0
  -14.8830   -9.5317  -13.6209 H   0  0  0  0  0  0  0  0  0  0  0  0
 11 12  1  0  0  0
 12  1  1  0  0  0
  1  2  1  0  0  0
  1 10  2  0  0  0
  2  3  2  0  0  0
  3  4  1  0  0  0
  3  8  1  0  0  0
  4 13  1  0  0  0
  4  5  2  0  0  0
 13 14  1  0  0  0
 15 16  1  0  0  0
 15 19  1  0  0  0
 15 13  1  0  0  0
 16 17  1  0  0  0
 17 18  1  0  0  0
 18 19  1  0  0  0
 19 20  1  0  0  0
 20 21  1  0  0  0
  5  6  1  0  0  0
  6  7  2  0  0  0
  7  8  1  0  0  0
  8  9  2  0  0  0
  9 10  1  0  0  0
 10 22  1  0  0  0
 23 24  1  0  0  0
 23 31  1  0  0  0
 23 22  1  0  0  0
 24 25  1  0  0  0
 25 26  1  0  0  0
 26 27  1  0  0  0
 26 31  1  0  0  0
 27 28  1  0  0  0
 27 29  1  0  0  0
 28 32  1  0  0  0
 29 30  1  0  0  0
 30 31  1  0  0  0
M  END
> <minimizedAffinity>
-6.66276

$$$$
