CHEMBL3959849


 34 37  0  0  0  0  0  0  0  0999 V2000
  -27.5482   -1.8709   -9.1031 C   0  0  0  0  0  0  0  0  0  0  0  0
  -27.5143   -0.7853   -8.2052 C   0  0  0  0  0  0  0  0  0  0  0  0
  -28.0246   -0.9116   -6.9167 C   0  0  0  0  0  0  0  0  0  0  0  0
  -28.5743   -2.1223   -6.4990 C   0  0  0  0  0  0  0  0  0  0  0  0
  -29.0502   -2.2536   -5.2421 N   0  0  0  0  0  0  0  0  0  0  0  0
  -29.5876   -3.4159   -4.7992 C   0  0  0  0  0  0  0  0  0  0  0  0
  -29.6651   -4.5412   -5.6521 C   0  0  0  0  0  0  0  0  0  0  0  0
  -29.1612   -4.3943   -6.9199 N   0  0  0  0  0  0  0  0  0  0  0  0
  -28.6235   -3.2225   -7.3676 C   0  0  0  0  0  0  0  0  0  0  0  0
  -28.1157   -3.0942   -8.6713 C   0  0  0  0  0  0  0  0  0  0  0  0
  -23.8090   -0.4375  -12.5956 H   0  0  0  0  0  0  0  0  0  0  0  0
  -24.3616   -1.3384  -12.9355 C   0  0  0  0  0  0  0  0  0  0  0  0
  -24.5993   -1.2303  -14.0152 H   0  0  0  0  0  0  0  0  0  0  0  0
  -23.7242   -2.2357  -12.7929 H   0  0  0  0  0  0  0  0  0  0  0  0
  -25.5845   -1.4811  -12.1598 N   0  0  0  0  0  0  0  0  0  0  0  0
  -25.6514   -1.6167  -10.8238 C   0  0  0  0  0  0  0  0  0  0  0  0
  -26.9838   -1.7184  -10.4709 C   0  0  0  0  0  0  0  0  0  0  0  0
  -27.6779   -1.6378  -11.6729 C   0  0  0  0  0  0  0  0  0  0  0  0
  -26.7997   -1.4918  -12.6826 N   0  0  0  0  0  0  0  0  0  0  0  0
  -30.2274   -5.8244   -5.2534 N   0  0  0  0  0  0  0  0  0  0  0  0
  -29.4570   -7.0370   -5.4746 C   0  0  0  0  0  0  0  0  0  0  0  0
  -29.7417   -7.8809   -6.5710 C   0  0  0  0  0  0  0  0  0  0  0  0
  -28.9208   -8.9895   -6.8718 C   0  0  0  0  0  0  0  0  0  0  0  0
  -27.8248   -9.2779   -6.0571 C   0  0  0  0  0  0  0  0  0  0  0  0
  -27.5206   -8.4668   -4.9542 C   0  0  0  0  0  0  0  0  0  0  0  0
  -28.3270   -7.3607   -4.6777 C   0  0  0  0  0  0  0  0  0  0  0  0
  -29.1229   -9.7790   -7.9579 O   0  0  0  0  0  0  0  0  0  0  0  0
  -30.3003   -9.8917   -8.6648 C   0  0  0  0  0  0  0  0  0  0  0  0
  -26.4458   -8.6952   -4.1528 O   0  0  0  0  0  0  0  0  0  0  0  0
  -25.3180   -9.4116   -4.4956 C   0  0  0  0  0  0  0  0  0  0  0  0
  -31.5370   -6.0284   -4.5865 C   0  0  0  0  0  0  0  0  0  0  0  0
  -31.7276   -5.7087   -3.1006 C   0  0  0  0  0  0  0  0  0  0  0  0
  -31.0266   -6.6544   -2.3349 O   0  0  0  0  0  0  0  0  0  0  0  0
  -31.6707   -7.3572   -2.0642 H   0  0  0  0  0  0  0  0  0  0  0  0
 11 12  1  0  0  0
 12 13  1  0  0  0
 12 14  1  0  0  0
 12 15  1  0  0  0
 15 16  1  0  0  0
 15 19  1  0  0  0
 16 17  2  0  0  0
 17  1  1  0  0  0
 17 18  1  0  0  0
  1  2  1  0  0  0
  1 10  2  0  0  0
  2  3  2  0  0  0
  3  4  1  0  0  0
  4  5  1  0  0  0
  4  9  2  0  0  0
  5  6  2  0  0  0
  6  7  1  0  0  0
  7 20  1  0  0  0
  7  8  2  0  0  0
 20 31  1  0  0  0
 20 21  1  0  0  0
 31 32  1  0  0  0
 32 33  1  0  0  0
 33 34  1  0  0  0
 21 22  1  0  0  0
 21 26  2  0  0  0
 22 23  2  0  0  0
 23 27  1  0  0  0
 23 24  1  0  0  0
 27 28  1  0  0  0
 24 25  2  0  0  0
 25 29  1  0  0  0
 25 26  1  0  0  0
 29 30  1  0  0  0
  8  9  1  0  0  0
  9 10  1  0  0  0
 18 19  2  0  0  0
M  ISO 1  11   2
M  ISO 1  13   2
M  ISO 1  14   2
M  END
> <minimizedAffinity>
-8.29914

$$$$
