CHEMBL598000


 28 31  0  0  0  0  0  0  0  0999 V2000
  -16.9510   -4.9402  -11.0221 O   0  0  0  0  0  0  0  0  0  0  0  0
  -16.1054   -4.5252  -11.8133 C   0  0  0  0  0  0  0  0  0  0  0  0
  -15.1197   -3.4479  -11.4290 C   0  0  0  0  0  0  0  0  0  0  0  0
  -15.2911   -2.2520  -12.2961 C   0  0  0  0  0  0  0  0  0  0  0  0
  -15.7940   -1.0585  -11.8274 C   0  0  0  0  0  0  0  0  0  0  0  0
  -16.0224    0.0123  -12.6062 N   0  0  0  0  0  0  0  0  0  0  0  0
  -15.6972   -0.1069  -13.8991 C   0  0  0  0  0  0  0  0  0  0  0  0
  -15.1826   -1.2277  -14.4375 N   0  0  0  0  0  0  0  0  0  0  0  0
  -15.0049   -2.3022  -13.6448 C   0  0  0  0  0  0  0  0  0  0  0  0
  -14.5075   -3.5292  -14.3035 C   0  0  0  0  0  0  0  0  0  0  0  0
  -13.4871   -3.4249  -15.2719 C   0  0  0  0  0  0  0  0  0  0  0  0
  -12.9920   -4.5481  -15.9401 C   0  0  0  0  0  0  0  0  0  0  0  0
  -13.5484   -5.7981  -15.7012 C   0  0  0  0  0  0  0  0  0  0  0  0
  -14.5851   -5.9277  -14.7809 C   0  0  0  0  0  0  0  0  0  0  0  0
  -15.0286   -4.8193  -14.0424 C   0  0  0  0  0  0  0  0  0  0  0  0
  -15.9853   -5.1073  -13.0481 N   0  0  0  0  0  0  0  0  0  0  0  0
  -16.5329   -5.9557  -13.1386 H   0  0  0  0  0  0  0  0  0  0  0  0
  -15.9615    0.9941  -14.7107 N   0  0  0  0  0  0  0  0  0  0  0  0
  -15.2035    1.1673  -15.3536 H   0  0  0  0  0  0  0  0  0  0  0  0
  -17.1897    1.6133  -14.9709 C   0  0  0  0  0  0  0  0  0  0  0  0
  -17.2231    2.9607  -15.3457 C   0  0  0  0  0  0  0  0  0  0  0  0
  -18.4431    3.6286  -15.5118 C   0  0  0  0  0  0  0  0  0  0  0  0
  -19.6395    2.9405  -15.3148 C   0  0  0  0  0  0  0  0  0  0  0  0
  -20.8341    3.5935  -15.4598 O   0  0  0  0  0  0  0  0  0  0  0  0
  -19.6237    1.5914  -14.9690 C   0  0  0  0  0  0  0  0  0  0  0  0
  -21.0787    0.6953  -14.7336 Cl  0  0  0  0  0  0  0  0  0  0  0  0
  -18.4063    0.9376  -14.7906 C   0  0  0  0  0  0  0  0  0  0  0  0
  -20.6684    4.5412  -15.5859 H   0  0  0  0  0  0  0  0  0  0  0  0
  1  2  2  0  0  0
  2  3  1  0  0  0
  2 16  1  0  0  0
  3  4  1  0  0  0
  4  5  1  0  0  0
  4  9  2  0  0  0
  5  6  2  0  0  0
  6  7  1  0  0  0
  7 18  1  0  0  0
  7  8  2  0  0  0
 18 20  1  0  0  0
 18 19  1  0  0  0
 20 21  1  0  0  0
 20 27  2  0  0  0
 21 22  2  0  0  0
 22 23  1  0  0  0
 23 24  1  0  0  0
 23 25  2  0  0  0
 24 28  1  0  0  0
 25 26  1  0  0  0
 25 27  1  0  0  0
  8  9  1  0  0  0
  9 10  1  0  0  0
 10 11  1  0  0  0
 10 15  2  0  0  0
 11 12  2  0  0  0
 12 13  1  0  0  0
 13 14  2  0  0  0
 14 15  1  0  0  0
 15 16  1  0  0  0
 16 17  1  0  0  0
M  END
> <minimizedAffinity>
-8.19092

$$$$
