CHEMBL4075720


 35 39  0  0  0  0  0  0  0  0999 V2000
  -30.3274   -7.9436   -6.3887 N   0  0  0  0  0  0  0  0  0  0  0  0
  -30.0914   -8.3915   -7.6810 C   0  0  0  0  0  0  0  0  0  0  0  0
  -29.3985   -7.8411   -8.5368 O   0  0  0  0  0  0  0  0  0  0  0  0
  -30.9431   -8.5423   -5.8444 H   0  0  0  0  0  0  0  0  0  0  0  0
  -28.8870   -4.3161   -4.7209 C   0  0  0  0  0  0  0  0  0  0  0  0
  -28.0488   -5.4265   -4.8545 C   0  0  0  0  0  0  0  0  0  0  0  0
  -28.5128   -6.6213   -5.3980 C   0  0  0  0  0  0  0  0  0  0  0  0
  -29.8392   -6.7610   -5.7979 C   0  0  0  0  0  0  0  0  0  0  0  0
  -30.7073   -5.6774   -5.6091 C   0  0  0  0  0  0  0  0  0  0  0  0
  -30.2317   -4.4583   -5.0880 C   0  0  0  0  0  0  0  0  0  0  0  0
  -28.3122   -3.0167   -4.1896 C   0  0  0  0  0  0  0  0  0  0  0  0
  -29.9883    1.1296   -6.0208 C   0  0  0  0  0  0  0  0  0  0  0  0
  -28.8521    0.2122   -6.0362 N   0  0  0  0  0  0  0  0  0  0  0  0
  -28.2503    0.0966   -4.6977 C   0  0  0  0  0  0  0  0  0  0  0  0
  -27.0788   -0.9131   -4.6869 C   0  0  0  0  0  0  0  0  0  0  0  0
  -27.4376   -2.2833   -5.1230 N   0  0  0  0  0  0  0  0  0  0  0  0
  -28.0852   -2.1578   -6.4535 C   0  0  0  0  0  0  0  0  0  0  0  0
  -29.2406   -1.1203   -6.5348 C   0  0  0  0  0  0  0  0  0  0  0  0
  -30.7586   -9.6632   -7.9891 C   0  0  0  0  0  0  0  0  0  0  0  0
  -32.0084   -9.7274   -8.5004 N   0  0  0  0  0  0  0  0  0  0  0  0
  -32.2382  -11.0526   -8.6038 N   0  0  0  0  0  0  0  0  0  0  0  0
  -31.1955  -11.8277   -8.2016 C   0  0  0  0  0  0  0  0  0  0  0  0
  -30.2257  -10.9649   -7.7619 C   0  0  0  0  0  0  0  0  0  0  0  0
  -33.1376  -11.3648   -8.9543 H   0  0  0  0  0  0  0  0  0  0  0  0
  -29.0202  -11.2775   -7.2194 N   0  0  0  0  0  0  0  0  0  0  0  0
  -28.2805  -11.5764   -7.8560 H   0  0  0  0  0  0  0  0  0  0  0  0
  -28.4957  -10.8141   -5.9932 C   0  0  0  0  0  0  0  0  0  0  0  0
  -29.3320  -10.6172   -4.9417 N   0  0  0  0  0  0  0  0  0  0  0  0
  -28.8573  -10.1073   -3.8002 C   0  0  0  0  0  0  0  0  0  0  0  0
  -27.6022   -9.7564   -3.5337 N   0  0  0  0  0  0  0  0  0  0  0  0
  -26.7823   -9.9722   -4.5738 C   0  0  0  0  0  0  0  0  0  0  0  0
  -25.1254   -9.5912   -4.4483 S   0  0  0  0  0  0  0  0  0  0  0  0
  -24.8237  -10.1117   -6.0461 C   0  0  0  0  0  0  0  0  0  0  0  0
  -25.9694  -10.5683   -6.6645 C   0  0  0  0  0  0  0  0  0  0  0  0
  -27.1308  -10.4872   -5.8156 C   0  0  0  0  0  0  0  0  0  0  0  0
 12 13  1  0  0  0
 13 14  1  0  0  0
 13 18  1  0  0  0
 14 15  1  0  0  0
 15 16  1  0  0  0
 16 11  1  0  0  0
 16 17  1  0  0  0
 11  5  1  0  0  0
  5  6  1  0  0  0
  5 10  2  0  0  0
  6  7  2  0  0  0
  7  8  1  0  0  0
  8  1  1  0  0  0
  8  9  2  0  0  0
  1  2  1  0  0  0
  1  4  1  0  0  0
  2  3  2  0  0  0
  2 19  1  0  0  0
 19 20  2  0  0  0
 19 23  1  0  0  0
 20 21  1  0  0  0
 21 22  1  0  0  0
 21 24  1  0  0  0
 22 23  2  0  0  0
 23 25  1  0  0  0
 25 27  1  0  0  0
 25 26  1  0  0  0
 27 28  1  0  0  0
 27 35  2  0  0  0
 28 29  2  0  0  0
 29 30  1  0  0  0
 30 31  2  0  0  0
 31 32  1  0  0  0
 31 35  1  0  0  0
 32 33  1  0  0  0
 33 34  2  0  0  0
 34 35  1  0  0  0
  9 10  1  0  0  0
 17 18  1  0  0  0
M  END
> <minimizedAffinity>
-7.87164

$$$$
