CHEMBL4061297


 29 32  0  0  0  0  0  0  0  0999 V2000
  -27.9465    0.9235   -6.0565 N   0  0  0  0  0  0  0  0  0  0  0  0
  -28.1795   -0.3991   -6.3919 C   0  0  0  0  0  0  0  0  0  0  0  0
  -27.6512   -0.8338   -7.5471 N   0  0  0  0  0  0  0  0  0  0  0  0
  -27.8511   -2.1185   -7.9439 C   0  0  0  0  0  0  0  0  0  0  0  0
  -28.6030   -2.9529   -7.0940 C   0  0  0  0  0  0  0  0  0  0  0  0
  -29.1182   -2.3624   -5.9539 C   0  0  0  0  0  0  0  0  0  0  0  0
  -28.9551   -1.0950   -5.5561 N   0  0  0  0  0  0  0  0  0  0  0  0
  -29.8460   -3.2942   -5.2719 N   0  0  0  0  0  0  0  0  0  0  0  0
  -29.7835   -4.5111   -5.9099 C   0  0  0  0  0  0  0  0  0  0  0  0
  -30.3457   -5.7454   -5.5592 C   0  0  0  0  0  0  0  0  0  0  0  0
  -30.0930   -6.8376   -6.3927 C   0  0  0  0  0  0  0  0  0  0  0  0
  -29.3188   -6.6845   -7.5343 C   0  0  0  0  0  0  0  0  0  0  0  0
  -29.0499   -7.7381   -8.3591 O   0  0  0  0  0  0  0  0  0  0  0  0
  -28.7742   -5.4512   -7.8842 C   0  0  0  0  0  0  0  0  0  0  0  0
  -29.0068   -4.3295   -7.0618 C   0  0  0  0  0  0  0  0  0  0  0  0
  -27.7552    1.4491   -6.8973 H   0  0  0  0  0  0  0  0  0  0  0  0
  -28.6994    1.2531   -5.4689 H   0  0  0  0  0  0  0  0  0  0  0  0
  -30.3317   -3.1040   -4.4083 H   0  0  0  0  0  0  0  0  0  0  0  0
  -29.4642   -8.5355   -7.9919 H   0  0  0  0  0  0  0  0  0  0  0  0
  -27.3767   -2.5568   -9.1768 N   0  0  0  0  0  0  0  0  0  0  0  0
  -26.3962   -2.7927   -9.1606 H   0  0  0  0  0  0  0  0  0  0  0  0
  -27.7845   -1.8561  -10.3781 C   0  0  0  0  0  0  0  0  0  0  0  0
  -26.6024   -1.6131  -11.2926 C   0  0  0  0  0  0  0  0  0  0  0  0
  -26.7282   -1.7171  -12.6881 C   0  0  0  0  0  0  0  0  0  0  0  0
  -25.6267   -1.4859  -13.5189 C   0  0  0  0  0  0  0  0  0  0  0  0
  -24.3935   -1.1581  -12.9594 C   0  0  0  0  0  0  0  0  0  0  0  0
  -23.0384   -0.8706  -13.9808 Cl  0  0  0  0  0  0  0  0  0  0  0  0
  -24.2503   -1.0631  -11.5774 C   0  0  0  0  0  0  0  0  0  0  0  0
  -25.3496   -1.2952  -10.7478 C   0  0  0  0  0  0  0  0  0  0  0  0
  1  2  1  0  0  0
  1 16  1  0  0  0
  1 17  1  0  0  0
  2  3  1  0  0  0
  2  7  2  0  0  0
  3  4  2  0  0  0
  4 20  1  0  0  0
  4  5  1  0  0  0
 20 22  1  0  0  0
 20 21  1  0  0  0
 22 23  1  0  0  0
 23 24  1  0  0  0
 23 29  2  0  0  0
 24 25  2  0  0  0
 25 26  1  0  0  0
 26 27  1  0  0  0
 26 28  2  0  0  0
 28 29  1  0  0  0
  5  6  2  0  0  0
  5 15  1  0  0  0
  6  7  1  0  0  0
  6  8  1  0  0  0
  8  9  1  0  0  0
  8 18  1  0  0  0
  9 10  1  0  0  0
  9 15  2  0  0  0
 10 11  2  0  0  0
 11 12  1  0  0  0
 12 13  1  0  0  0
 12 14  2  0  0  0
 13 19  1  0  0  0
 14 15  1  0  0  0
M  END
> <minimizedAffinity>
-9.74113

$$$$
