CHEMBL1254277


 34 37  0  0  0  0  0  0  0  0999 V2000
  -29.8433   -9.2115   -7.1930 C   0  0  0  0  0  0  0  0  0  0  0  0
  -30.9371   -8.3724   -7.3984 C   0  0  0  0  0  0  0  0  0  0  0  0
  -31.0532   -7.1733   -6.6949 C   0  0  0  0  0  0  0  0  0  0  0  0
  -30.0687   -6.7647   -5.7917 C   0  0  0  0  0  0  0  0  0  0  0  0
  -28.9353   -7.5872   -5.6408 C   0  0  0  0  0  0  0  0  0  0  0  0
  -27.6404   -7.1254   -4.5855 Cl  0  0  0  0  0  0  0  0  0  0  0  0
  -28.8199   -8.8000   -6.3368 C   0  0  0  0  0  0  0  0  0  0  0  0
  -30.1706   -5.5456   -5.0642 N   0  0  0  0  0  0  0  0  0  0  0  0
  -29.6955   -4.3124   -5.4846 C   0  0  0  0  0  0  0  0  0  0  0  0
  -29.2147   -4.0717   -6.5834 O   0  0  0  0  0  0  0  0  0  0  0  0
  -29.7692   -3.3598   -4.4760 N   0  0  0  0  0  0  0  0  0  0  0  0
  -30.7841   -5.5590   -4.2642 H   0  0  0  0  0  0  0  0  0  0  0  0
  -29.6260   -3.7310   -3.5468 H   0  0  0  0  0  0  0  0  0  0  0  0
  -29.2969   -2.0445   -4.7121 C   0  0  0  0  0  0  0  0  0  0  0  0
  -27.9688   -1.7205   -4.4663 C   0  0  0  0  0  0  0  0  0  0  0  0
  -27.4292   -0.5021   -4.7060 N   0  0  0  0  0  0  0  0  0  0  0  0
  -28.2611    0.4502   -5.1896 C   0  0  0  0  0  0  0  0  0  0  0  0
  -29.6112    0.2481   -5.4370 C   0  0  0  0  0  0  0  0  0  0  0  0
  -30.1268   -1.0345   -5.2054 C   0  0  0  0  0  0  0  0  0  0  0  0
  -30.4804    1.3726   -5.9071 C   0  0  0  0  0  0  0  0  0  0  0  0
  -30.8847    2.2019   -4.9034 F   0  0  0  0  0  0  0  0  0  0  0  0
  -29.8732    2.1713   -6.8254 F   0  0  0  0  0  0  0  0  0  0  0  0
  -31.6261    0.9282   -6.4963 F   0  0  0  0  0  0  0  0  0  0  0  0
  -29.6825  -10.4132   -7.8524 O   0  0  0  0  0  0  0  0  0  0  0  0
  -27.9033  -12.2359   -6.1099 C   0  0  0  0  0  0  0  0  0  0  0  0
  -27.0837  -11.9816   -7.2742 N   0  0  0  0  0  0  0  0  0  0  0  0
  -25.8091  -12.4655   -7.4453 C   0  0  0  0  0  0  0  0  0  0  0  0
  -25.3533  -12.0313   -8.6714 C   0  0  0  0  0  0  0  0  0  0  0  0
  -26.3876  -11.2679   -9.2580 C   0  0  0  0  0  0  0  0  0  0  0  0
  -26.3974  -10.6377  -10.4506 N   0  0  0  0  0  0  0  0  0  0  0  0
  -27.5473  -10.0048  -10.7083 C   0  0  0  0  0  0  0  0  0  0  0  0
  -28.6376   -9.9291   -9.9278 N   0  0  0  0  0  0  0  0  0  0  0  0
  -28.5951  -10.5242   -8.7137 C   0  0  0  0  0  0  0  0  0  0  0  0
  -27.4585  -11.2425   -8.3712 C   0  0  0  0  0  0  0  0  0  0  0  0
 25 26  1  0  0  0
 26 27  1  0  0  0
 26 34  1  0  0  0
 27 28  2  0  0  0
 28 29  1  0  0  0
 29 30  1  0  0  0
 29 34  2  0  0  0
 30 31  2  0  0  0
 31 32  1  0  0  0
 32 33  2  0  0  0
 33 24  1  0  0  0
 33 34  1  0  0  0
 24  1  1  0  0  0
  1  2  1  0  0  0
  1  7  2  0  0  0
  2  3  2  0  0  0
  3  4  1  0  0  0
  4  8  1  0  0  0
  4  5  2  0  0  0
  8  9  1  0  0  0
  8 12  1  0  0  0
  9 10  2  0  0  0
  9 11  1  0  0  0
 11 14  1  0  0  0
 11 13  1  0  0  0
 14 15  1  0  0  0
 14 19  2  0  0  0
 15 16  2  0  0  0
 16 17  1  0  0  0
 17 18  2  0  0  0
 18 20  1  0  0  0
 18 19  1  0  0  0
 20 21  1  0  0  0
 20 22  1  0  0  0
 20 23  1  0  0  0
  5  6  1  0  0  0
  5  7  1  0  0  0
M  END
> <minimizedAffinity>
-8.68466

$$$$
