CHEMBL1993243


 28 31  0  0  0  0  0  0  0  0999 V2000
  -29.0599   -7.7363   -6.0494 C   0  0  0  0  0  0  0  0  0  0  0  0
  -28.7739   -7.5871   -7.3940 C   0  0  0  0  0  0  0  0  0  0  0  0
  -28.6134   -6.4113   -8.0157 N   0  0  0  0  0  0  0  0  0  0  0  0
  -28.7426   -5.2571   -7.3292 C   0  0  0  0  0  0  0  0  0  0  0  0
  -28.6331   -4.1392   -8.1240 N   0  0  0  0  0  0  0  0  0  0  0  0
  -28.9808   -5.2789   -5.9215 C   0  0  0  0  0  0  0  0  0  0  0  0
  -29.0542   -4.2164   -4.9143 C   0  0  0  0  0  0  0  0  0  0  0  0
  -29.4107   -4.6963   -3.6719 C   0  0  0  0  0  0  0  0  0  0  0  0
  -29.5781   -6.3761   -3.6407 S   0  0  0  0  0  0  0  0  0  0  0  0
  -29.1819   -6.5354   -5.3217 C   0  0  0  0  0  0  0  0  0  0  0  0
  -28.2248   -4.3327   -9.0297 H   0  0  0  0  0  0  0  0  0  0  0  0
  -28.5494   -3.2173   -7.7372 H   0  0  0  0  0  0  0  0  0  0  0  0
  -28.8084   -2.7833   -5.0698 C   0  0  0  0  0  0  0  0  0  0  0  0
  -27.4854   -2.2863   -5.0550 C   0  0  0  0  0  0  0  0  0  0  0  0
  -27.2161   -0.9491   -5.3600 C   0  0  0  0  0  0  0  0  0  0  0  0
  -28.2912   -0.1287   -5.6144 C   0  0  0  0  0  0  0  0  0  0  0  0
  -29.5863   -0.5832   -5.5301 C   0  0  0  0  0  0  0  0  0  0  0  0
  -29.8811   -1.8989   -5.2559 C   0  0  0  0  0  0  0  0  0  0  0  0
  -30.4963    0.3912   -5.8011 O   0  0  0  0  0  0  0  0  0  0  0  0
  -29.6195    1.4178   -6.3063 C   0  0  0  0  0  0  0  0  0  0  0  0
  -28.2307    1.1758   -5.9950 O   0  0  0  0  0  0  0  0  0  0  0  0
  -28.2861   -9.6747   -4.7146 C   0  0  0  0  0  0  0  0  0  0  0  0
  -29.2474   -9.0287   -5.3922 C   0  0  0  0  0  0  0  0  0  0  0  0
  -30.4078  -12.1717   -2.9298 C   0  0  0  0  0  0  0  0  0  0  0  0
  -29.9098  -10.9918   -3.5812 N   0  0  0  0  0  0  0  0  0  0  0  0
  -28.6217  -10.9563   -4.0554 C   0  0  0  0  0  0  0  0  0  0  0  0
  -27.8300  -11.8832   -3.9554 O   0  0  0  0  0  0  0  0  0  0  0  0
  -30.5244  -10.1991   -3.6989 H   0  0  0  0  0  0  0  0  0  0  0  0
 24 25  1  0  0  0
 25 26  1  0  0  0
 25 28  1  0  0  0
 26 27  2  0  0  0
 26 22  1  0  0  0
 22 23  2  0  0  0
 23  1  1  0  0  0
  1  2  1  0  0  0
  1 10  2  0  0  0
  2  3  2  0  0  0
  3  4  1  0  0  0
  4  5  1  0  0  0
  4  6  2  0  0  0
  5 11  1  0  0  0
  5 12  1  0  0  0
  6  7  1  0  0  0
  6 10  1  0  0  0
  7 13  1  0  0  0
  7  8  2  0  0  0
 13 14  1  0  0  0
 13 18  2  0  0  0
 14 15  2  0  0  0
 15 16  1  0  0  0
 16 17  2  0  0  0
 16 21  1  0  0  0
 17 18  1  0  0  0
 17 19  1  0  0  0
 19 20  1  0  0  0
 20 21  1  0  0  0
  8  9  1  0  0  0
  9 10  1  0  0  0
M  END
> <minimizedAffinity>
-8.17405

$$$$
