CHEMBL255746


 32 35  0  0  0  0  0  0  0  0999 V2000
  -29.6216   -8.7488   -7.2125 C   0  0  0  0  0  0  0  0  0  0  0  0
  -28.7156   -8.3265   -6.2270 C   0  0  0  0  0  0  0  0  0  0  0  0
  -28.9146   -7.1523   -5.4991 C   0  0  0  0  0  0  0  0  0  0  0  0
  -30.0026   -6.3241   -5.7639 C   0  0  0  0  0  0  0  0  0  0  0  0
  -30.9506   -6.7503   -6.6936 C   0  0  0  0  0  0  0  0  0  0  0  0
  -30.7703   -7.9603   -7.3887 C   0  0  0  0  0  0  0  0  0  0  0  0
  -27.1133   -7.9561   -9.4004 N   0  0  0  0  0  0  0  0  0  0  0  0
  -27.3897   -9.2442   -9.6654 C   0  0  0  0  0  0  0  0  0  0  0  0
  -26.7151   -9.8933  -10.6126 N   0  0  0  0  0  0  0  0  0  0  0  0
  -27.2168  -11.1359  -10.5570 N   0  0  0  0  0  0  0  0  0  0  0  0
  -28.1821  -11.3004   -9.6121 C   0  0  0  0  0  0  0  0  0  0  0  0
  -28.8051  -12.4643   -9.3506 N   0  0  0  0  0  0  0  0  0  0  0  0
  -29.7187  -12.3531   -8.3709 C   0  0  0  0  0  0  0  0  0  0  0  0
  -30.0255  -11.1818   -7.6940 C   0  0  0  0  0  0  0  0  0  0  0  0
  -29.3437   -9.9733   -7.9842 C   0  0  0  0  0  0  0  0  0  0  0  0
  -28.3636  -10.0587   -9.0057 C   0  0  0  0  0  0  0  0  0  0  0  0
  -26.2771   -7.5992   -9.8546 H   0  0  0  0  0  0  0  0  0  0  0  0
  -27.2081   -7.6238   -8.4482 H   0  0  0  0  0  0  0  0  0  0  0  0
  -26.8516  -11.8429  -11.1814 H   0  0  0  0  0  0  0  0  0  0  0  0
  -30.1786   -5.0849   -5.1082 N   0  0  0  0  0  0  0  0  0  0  0  0
  -29.6302   -3.8926   -5.5527 C   0  0  0  0  0  0  0  0  0  0  0  0
  -29.0794   -3.7378   -6.6374 O   0  0  0  0  0  0  0  0  0  0  0  0
  -29.7492   -2.8899   -4.6021 N   0  0  0  0  0  0  0  0  0  0  0  0
  -30.9646   -4.9983   -4.4797 H   0  0  0  0  0  0  0  0  0  0  0  0
  -29.6864   -3.2130   -3.6468 H   0  0  0  0  0  0  0  0  0  0  0  0
  -29.3175   -1.5686   -4.8628 C   0  0  0  0  0  0  0  0  0  0  0  0
  -28.0198   -1.1442   -4.5461 C   0  0  0  0  0  0  0  0  0  0  0  0
  -27.6242    0.1725   -4.7809 C   0  0  0  0  0  0  0  0  0  0  0  0
  -28.5293    1.0789   -5.3269 C   0  0  0  0  0  0  0  0  0  0  0  0
  -29.8185    0.6558   -5.6490 C   0  0  0  0  0  0  0  0  0  0  0  0
  -30.9489    1.7891   -6.2836 Cl  0  0  0  0  0  0  0  0  0  0  0  0
  -30.2120   -0.6680   -5.4421 C   0  0  0  0  0  0  0  0  0  0  0  0
  7  8  1  0  0  0
  7 17  1  0  0  0
  7 18  1  0  0  0
  8  9  2  0  0  0
  8 16  1  0  0  0
  9 10  1  0  0  0
 10 11  1  0  0  0
 10 19  1  0  0  0
 11 12  1  0  0  0
 11 16  2  0  0  0
 12 13  2  0  0  0
 13 14  1  0  0  0
 14 15  2  0  0  0
 15  1  1  0  0  0
 15 16  1  0  0  0
  1  2  1  0  0  0
  1  6  2  0  0  0
  2  3  2  0  0  0
  3  4  1  0  0  0
  4 20  1  0  0  0
  4  5  2  0  0  0
 20 21  1  0  0  0
 20 24  1  0  0  0
 21 22  2  0  0  0
 21 23  1  0  0  0
 23 26  1  0  0  0
 23 25  1  0  0  0
 26 27  1  0  0  0
 26 32  2  0  0  0
 27 28  2  0  0  0
 28 29  1  0  0  0
 29 30  2  0  0  0
 30 31  1  0  0  0
 30 32  1  0  0  0
  5  6  1  0  0  0
M  END
> <minimizedAffinity>
-9.10793

$$$$
