CHEMBL3690522


 36 39  0  0  0  0  0  0  0  0999 V2000
  -30.6488   11.8968  -12.9984 C   0  0  0  0  0  0  0  0  0  0  0  0
  -30.8503   12.6296  -14.2720 C   0  0  0  0  0  0  0  0  0  0  0  0
  -29.8610   12.6589  -15.1931 C   0  0  0  0  0  0  0  0  0  0  0  0
  -28.7590   11.8111  -15.0018 N   0  0  0  0  0  0  0  0  0  0  0  0
  -27.6971   11.4124  -15.8361 C   0  0  0  0  0  0  0  0  0  0  0  0
  -28.1698   10.1031  -16.0088 C   0  0  0  0  0  0  0  0  0  0  0  0
  -28.6484    9.6463  -14.7916 N   0  0  0  0  0  0  0  0  0  0  0  0
  -28.8817   10.7530  -14.1078 C   0  0  0  0  0  0  0  0  0  0  0  0
  -29.6281   11.0030  -12.9298 C   0  0  0  0  0  0  0  0  0  0  0  0
  -33.9819   12.6590   -8.5300 N   0  0  0  0  0  0  0  0  0  0  0  0
  -33.1649   12.3519   -9.6261 C   0  0  0  0  0  0  0  0  0  0  0  0
  -33.5955   12.5086  -10.9274 C   0  0  0  0  0  0  0  0  0  0  0  0
  -32.8146   12.3642  -12.0219 N   0  0  0  0  0  0  0  0  0  0  0  0
  -31.5166   12.0777  -11.8057 C   0  0  0  0  0  0  0  0  0  0  0  0
  -30.9640   11.9499  -10.5909 N   0  0  0  0  0  0  0  0  0  0  0  0
  -31.7989   12.1173   -9.5490 C   0  0  0  0  0  0  0  0  0  0  0  0
  -31.0089   11.9719   -8.0216 Cl  0  0  0  0  0  0  0  0  0  0  0  0
  -34.9715   12.4717   -8.6621 H   0  0  0  0  0  0  0  0  0  0  0  0
  -33.6298   12.2916   -7.6465 H   0  0  0  0  0  0  0  0  0  0  0  0
  -26.2545   11.6430  -15.4941 C   0  0  0  0  0  0  0  0  0  0  0  0
  -25.6917   11.1703  -14.3008 C   0  0  0  0  0  0  0  0  0  0  0  0
  -24.3037   11.1350  -14.1337 C   0  0  0  0  0  0  0  0  0  0  0  0
  -23.4494   11.5954  -15.1392 C   0  0  0  0  0  0  0  0  0  0  0  0
  -23.9694   12.1339  -16.3097 C   0  0  0  0  0  0  0  0  0  0  0  0
  -25.3640   12.1697  -16.4731 C   0  0  0  0  0  0  0  0  0  0  0  0
  -23.1510   12.6016  -17.3789 N   0  0  0  0  0  0  0  0  0  0  0  0
  -22.5012   11.8294  -18.3201 C   0  0  0  0  0  0  0  0  0  0  0  0
  -22.5311   10.6136  -18.4298 O   0  0  0  0  0  0  0  0  0  0  0  0
  -21.7063   12.5876  -19.1601 N   0  0  0  0  0  0  0  0  0  0  0  0
  -23.0032   13.5983  -17.4297 H   0  0  0  0  0  0  0  0  0  0  0  0
  -22.0334   13.5187  -19.3752 H   0  0  0  0  0  0  0  0  0  0  0  0
  -20.9313   11.9018  -20.2065 C   0  0  0  0  0  0  0  0  0  0  0  0
  -19.4858   11.5299  -19.8360 C   0  0  0  0  0  0  0  0  0  0  0  0
  -19.3175   11.4054  -18.5053 F   0  0  0  0  0  0  0  0  0  0  0  0
  -19.1768   10.3186  -20.3827 F   0  0  0  0  0  0  0  0  0  0  0  0
  -18.5848   12.4125  -20.3067 F   0  0  0  0  0  0  0  0  0  0  0  0
 10 11  1  0  0  0
 10 18  1  0  0  0
 10 19  1  0  0  0
 11 12  1  0  0  0
 11 16  2  0  0  0
 12 13  2  0  0  0
 13 14  1  0  0  0
 14  1  1  0  0  0
 14 15  2  0  0  0
  1  2  1  0  0  0
  1  9  2  0  0  0
  2  3  2  0  0  0
  3  4  1  0  0  0
  4  5  1  0  0  0
  4  8  1  0  0  0
  5 20  1  0  0  0
  5  6  2  0  0  0
 20 21  1  0  0  0
 20 25  2  0  0  0
 21 22  2  0  0  0
 22 23  1  0  0  0
 23 24  2  0  0  0
 24 26  1  0  0  0
 24 25  1  0  0  0
 26 27  1  0  0  0
 26 30  1  0  0  0
 27 28  2  0  0  0
 27 29  1  0  0  0
 29 32  1  0  0  0
 29 31  1  0  0  0
 32 33  1  0  0  0
 33 34  1  0  0  0
 33 35  1  0  0  0
 33 36  1  0  0  0
  6  7  1  0  0  0
  7  8  2  0  0  0
  8  9  1  0  0  0
 15 16  1  0  0  0
 16 17  1  0  0  0
M  END
> <minimizedAffinity>
-5.78636

$$$$
