CHEMBL370328


 47 50  0  0  0  0  0  0  0  0999 V2000
  -16.2863    2.8861  -16.1138 C   0  0  0  0  0  0  0  0  0  0  0  0
  -17.4866    3.5867  -15.9093 C   0  0  0  0  0  0  0  0  0  0  0  0
  -18.6548    2.9456  -15.4871 C   0  0  0  0  0  0  0  0  0  0  0  0
  -19.8147    3.6514  -15.1981 C   0  0  0  0  0  0  0  0  0  0  0  0
  -20.9400    3.0846  -14.7304 N   0  0  0  0  0  0  0  0  0  0  0  0
  -20.9429    1.7549  -14.5391 C   0  0  0  0  0  0  0  0  0  0  0  0
  -19.8323    0.9705  -14.8703 C   0  0  0  0  0  0  0  0  0  0  0  0
  -18.6550    1.5598  -15.3394 C   0  0  0  0  0  0  0  0  0  0  0  0
  -17.5434    0.8371  -15.6188 N   0  0  0  0  0  0  0  0  0  0  0  0
  -16.3799    1.4931  -15.9226 C   0  0  0  0  0  0  0  0  0  0  0  0
  -13.8969    4.9042  -18.3266 C   0  0  0  0  0  0  0  0  0  0  0  0
  -12.9617    5.3528  -17.3897 C   0  0  0  0  0  0  0  0  0  0  0  0
  -13.0932    4.9736  -16.0577 C   0  0  0  0  0  0  0  0  0  0  0  0
  -14.1097    4.0936  -15.6810 C   0  0  0  0  0  0  0  0  0  0  0  0
  -15.0981    3.6507  -16.5879 C   0  0  0  0  0  0  0  0  0  0  0  0
  -14.9587    4.0805  -17.9165 C   0  0  0  0  0  0  0  0  0  0  0  0
  -13.4438    6.5077  -20.0212 C   0  0  0  0  0  0  0  0  0  0  0  0
  -13.8993    5.2078  -19.6613 O   0  0  0  0  0  0  0  0  0  0  0  0
  -12.2843    5.4051  -15.0403 O   0  0  0  0  0  0  0  0  0  0  0  0
  -11.9122    6.7799  -15.0878 C   0  0  0  0  0  0  0  0  0  0  0  0
  -15.2537    0.6437  -16.0688 N   0  0  0  0  0  0  0  0  0  0  0  0
  -14.5911    0.2595  -14.9108 C   0  0  0  0  0  0  0  0  0  0  0  0
  -14.9172    0.5922  -13.7805 O   0  0  0  0  0  0  0  0  0  0  0  0
  -13.5504   -0.6121  -15.1963 N   0  0  0  0  0  0  0  0  0  0  0  0
  -15.5192   -0.2003  -16.5550 H   0  0  0  0  0  0  0  0  0  0  0  0
  -13.0717   -0.4008  -16.0634 H   0  0  0  0  0  0  0  0  0  0  0  0
  -12.7689   -1.3246  -14.1589 C   0  0  0  0  0  0  0  0  0  0  0  0
  -13.7214   -2.0186  -13.1694 C   0  0  0  0  0  0  0  0  0  0  0  0
  -11.9079   -2.4217  -14.8208 C   0  0  0  0  0  0  0  0  0  0  0  0
  -11.8188   -0.3837  -13.4010 C   0  0  0  0  0  0  0  0  0  0  0  0
  -22.1130    1.1797  -13.9754 N   0  0  0  0  0  0  0  0  0  0  0  0
  -23.1353    1.9420  -13.4026 C   0  0  0  0  0  0  0  0  0  0  0  0
  -23.0340    3.4496  -13.3832 C   0  0  0  0  0  0  0  0  0  0  0  0
  -24.1577    1.4199  -12.9423 O   0  0  0  0  0  0  0  0  0  0  0  0
  -22.5003   -0.2026  -14.3048 C   0  0  0  0  0  0  0  0  0  0  0  0
  -22.6066   -1.2395  -13.1829 C   0  0  0  0  0  0  0  0  0  0  0  0
  -24.0259   -1.8033  -13.0359 C   0  0  0  0  0  0  0  0  0  0  0  0
  -24.3956   -1.8907  -11.5511 C   0  0  0  0  0  0  0  0  0  0  0  0
  -25.7083   -1.1979  -11.2098 C   0  0  0  0  0  0  0  0  0  0  0  0
  -26.1014   -1.5347   -9.8825 O   0  0  0  0  0  0  0  0  0  0  0  0
  -27.3562   -2.2171   -9.8723 C   0  0  0  0  0  0  0  0  0  0  0  0
  -27.9297   -2.2814   -8.4783 C   0  0  0  0  0  0  0  0  0  0  0  0
  -27.7516   -1.2007   -7.6007 C   0  0  0  0  0  0  0  0  0  0  0  0
  -28.3294   -1.2131   -6.3296 C   0  0  0  0  0  0  0  0  0  0  0  0
  -29.0982   -2.3020   -5.9240 C   0  0  0  0  0  0  0  0  0  0  0  0
  -29.2882   -3.3789   -6.7871 C   0  0  0  0  0  0  0  0  0  0  0  0
  -28.7121   -3.3665   -8.0589 C   0  0  0  0  0  0  0  0  0  0  0  0
 17 18  1  0  0  0
 18 11  1  0  0  0
 11 12  1  0  0  0
 11 16  2  0  0  0
 12 13  2  0  0  0
 13 19  1  0  0  0
 13 14  1  0  0  0
 19 20  1  0  0  0
 14 15  2  0  0  0
 15  1  1  0  0  0
 15 16  1  0  0  0
  1  2  1  0  0  0
  1 10  2  0  0  0
  2  3  2  0  0  0
  3  4  1  0  0  0
  3  8  1  0  0  0
  4  5  2  0  0  0
  5  6  1  0  0  0
  6 31  1  0  0  0
  6  7  2  0  0  0
 31 35  1  0  0  0
 31 32  1  0  0  0
 35 36  1  0  0  0
 36 37  1  0  0  0
 37 38  1  0  0  0
 38 39  1  0  0  0
 39 40  1  0  0  0
 40 41  1  0  0  0
 41 42  1  0  0  0
 42 43  1  0  0  0
 42 47  2  0  0  0
 43 44  2  0  0  0
 44 45  1  0  0  0
 45 46  2  0  0  0
 46 47  1  0  0  0
 32 33  1  0  0  0
 32 34  2  0  0  0
  7  8  1  0  0  0
  8  9  2  0  0  0
  9 10  1  0  0  0
 10 21  1  0  0  0
 21 22  1  0  0  0
 21 25  1  0  0  0
 22 23  2  0  0  0
 22 24  1  0  0  0
 24 27  1  0  0  0
 24 26  1  0  0  0
 27 28  1  0  0  0
 27 29  1  0  0  0
 27 30  1  0  0  0
M  END
> <minimizedAffinity>
-8.85106

$$$$
