CHEMBL443563


 25 27  0  0  0  0  0  0  0  0999 V2000
  -30.7102   -6.2275   -5.1909 N   0  0  0  0  0  0  0  0  0  0  0  0
  -31.5914   -6.1379   -4.7052 H   0  0  0  0  0  0  0  0  0  0  0  0
  -31.7446   -8.9282   -7.5872 C   0  0  0  0  0  0  0  0  0  0  0  0
  -31.7748   -7.9596   -6.5813 C   0  0  0  0  0  0  0  0  0  0  0  0
  -30.6823   -7.1420   -6.2665 C   0  0  0  0  0  0  0  0  0  0  0  0
  -29.5246   -7.2907   -7.0362 C   0  0  0  0  0  0  0  0  0  0  0  0
  -29.4654   -8.2429   -8.0694 C   0  0  0  0  0  0  0  0  0  0  0  0
  -30.5882   -9.0454   -8.3702 C   0  0  0  0  0  0  0  0  0  0  0  0
  -33.1130  -10.7262   -6.7952 C   0  0  0  0  0  0  0  0  0  0  0  0
  -32.7963   -9.7803   -7.8146 O   0  0  0  0  0  0  0  0  0  0  0  0
  -28.3562   -8.4108   -8.8660 O   0  0  0  0  0  0  0  0  0  0  0  0
  -27.3007   -9.1810   -8.3039 C   0  0  0  0  0  0  0  0  0  0  0  0
  -30.4191   -9.9502   -9.3933 O   0  0  0  0  0  0  0  0  0  0  0  0
  -30.1527  -11.2922   -9.0005 C   0  0  0  0  0  0  0  0  0  0  0  0
  -29.7368   -5.3511   -4.8685 C   0  0  0  0  0  0  0  0  0  0  0  0
  -28.5510   -5.5538   -4.3353 N   0  0  0  0  0  0  0  0  0  0  0  0
  -27.9814   -4.3208   -4.2721 C   0  0  0  0  0  0  0  0  0  0  0  0
  -28.8424   -3.3780   -4.7792 C   0  0  0  0  0  0  0  0  0  0  0  0
  -29.9891   -4.0332   -5.1575 O   0  0  0  0  0  0  0  0  0  0  0  0
  -28.7640   -1.9414   -4.9741 C   0  0  0  0  0  0  0  0  0  0  0  0
  -29.9192   -1.2211   -5.3203 C   0  0  0  0  0  0  0  0  0  0  0  0
  -29.8718    0.1594   -5.5181 C   0  0  0  0  0  0  0  0  0  0  0  0
  -28.6659    0.8388   -5.3707 C   0  0  0  0  0  0  0  0  0  0  0  0
  -27.5126    0.1399   -5.0215 C   0  0  0  0  0  0  0  0  0  0  0  0
  -27.5604   -1.2422   -4.8241 C   0  0  0  0  0  0  0  0  0  0  0  0
  9 10  1  0  0  0
 10  3  1  0  0  0
  3  4  1  0  0  0
  3  8  2  0  0  0
  4  5  2  0  0  0
  5  1  1  0  0  0
  5  6  1  0  0  0
  1 15  1  0  0  0
  1  2  1  0  0  0
 15 16  2  0  0  0
 15 19  1  0  0  0
 16 17  1  0  0  0
 17 18  2  0  0  0
 18 20  1  0  0  0
 18 19  1  0  0  0
 20 21  1  0  0  0
 20 25  2  0  0  0
 21 22  2  0  0  0
 22 23  1  0  0  0
 23 24  2  0  0  0
 24 25  1  0  0  0
  6  7  2  0  0  0
  7 11  1  0  0  0
  7  8  1  0  0  0
 11 12  1  0  0  0
  8 13  1  0  0  0
 13 14  1  0  0  0
M  END
> <minimizedAffinity>
-7.43091

$$$$
