CHEMBL4218175


 31 35  0  0  0  0  0  0  0  0999 V2000
  -32.1930  -11.4504   -7.6323 C   0  0  0  0  0  0  0  0  0  0  0  0
  -32.6747  -10.3242   -7.0757 N   0  0  0  0  0  0  0  0  0  0  0  0
  -31.8541   -9.2644   -6.9185 C   0  0  0  0  0  0  0  0  0  0  0  0
  -30.5250   -9.3645   -7.3031 C   0  0  0  0  0  0  0  0  0  0  0  0
  -29.3531   -8.5554   -7.2950 C   0  0  0  0  0  0  0  0  0  0  0  0
  -28.3231   -9.2005   -7.8671 N   0  0  0  0  0  0  0  0  0  0  0  0
  -28.8382  -10.3995   -8.2274 N   0  0  0  0  0  0  0  0  0  0  0  0
  -30.1506  -10.5614   -7.8798 C   0  0  0  0  0  0  0  0  0  0  0  0
  -30.9334  -11.6398   -8.0663 N   0  0  0  0  0  0  0  0  0  0  0  0
  -29.2176   -7.1986   -6.7683 C   0  0  0  0  0  0  0  0  0  0  0  0
  -29.6998   -6.1049   -7.4896 C   0  0  0  0  0  0  0  0  0  0  0  0
  -29.5006   -4.8021   -7.0318 C   0  0  0  0  0  0  0  0  0  0  0  0
  -28.8442   -4.5369   -5.8244 C   0  0  0  0  0  0  0  0  0  0  0  0
  -28.4110   -5.6416   -5.0803 C   0  0  0  0  0  0  0  0  0  0  0  0
  -28.5881   -6.9577   -5.5436 C   0  0  0  0  0  0  0  0  0  0  0  0
  -28.7204   -3.2312   -5.3945 N   0  0  0  0  0  0  0  0  0  0  0  0
  -29.8629   -2.4686   -4.8772 C   0  0  0  0  0  0  0  0  0  0  0  0
  -29.6657   -0.9730   -5.2302 C   0  0  0  0  0  0  0  0  0  0  0  0
  -28.3847   -0.4293   -4.7186 N   0  0  0  0  0  0  0  0  0  0  0  0
  -28.2281    0.9701   -5.1037 C   0  0  0  0  0  0  0  0  0  0  0  0
  -27.2668   -1.2445   -5.2494 C   0  0  0  0  0  0  0  0  0  0  0  0
  -27.4173   -2.7441   -4.9046 C   0  0  0  0  0  0  0  0  0  0  0  0
  -34.1221  -12.4653   -6.6657 C   0  0  0  0  0  0  0  0  0  0  0  0
  -33.1377  -12.4650   -7.7204 N   0  0  0  0  0  0  0  0  0  0  0  0
  -33.5117  -12.3925   -8.6616 H   0  0  0  0  0  0  0  0  0  0  0  0
  -27.9888  -11.3585   -8.9061 C   0  0  0  0  0  0  0  0  0  0  0  0
  -27.8495  -11.0959  -10.4090 C   0  0  0  0  0  0  0  0  0  0  0  0
  -26.8511   -9.9738  -10.7019 C   0  0  0  0  0  0  0  0  0  0  0  0
  -27.2409   -9.4208  -12.0702 C   0  0  0  0  0  0  0  0  0  0  0  0
  -28.6488   -9.9300  -12.3613 C   0  0  0  0  0  0  0  0  0  0  0  0
  -29.1284  -10.5938  -11.0788 C   0  0  0  0  0  0  0  0  0  0  0  0
 23 24  1  0  0  0
 24  1  1  0  0  0
 24 25  1  0  0  0
  1  2  1  0  0  0
  1  9  2  0  0  0
  2  3  2  0  0  0
  3  4  1  0  0  0
  4  5  1  0  0  0
  4  8  2  0  0  0
  5 10  1  0  0  0
  5  6  2  0  0  0
 10 11  1  0  0  0
 10 15  2  0  0  0
 11 12  2  0  0  0
 12 13  1  0  0  0
 13 16  1  0  0  0
 13 14  2  0  0  0
 16 17  1  0  0  0
 16 22  1  0  0  0
 17 18  1  0  0  0
 18 19  1  0  0  0
 19 20  1  0  0  0
 19 21  1  0  0  0
 21 22  1  0  0  0
 14 15  1  0  0  0
  6  7  1  0  0  0
  7 26  1  0  0  0
  7  8  1  0  0  0
 26 27  1  0  0  0
 27 28  1  0  0  0
 27 31  1  0  0  0
 28 29  1  0  0  0
 29 30  1  0  0  0
 30 31  1  0  0  0
  8  9  1  0  0  0
M  END
> <minimizedAffinity>
-8.59048

$$$$
