CHEMBL1983923


 30 33  0  0  0  0  0  0  0  0999 V2000
  -15.1790   -0.0188  -14.7520 C   0  0  0  0  0  0  0  0  0  0  0  0
  -14.4454    0.8094  -15.5671 C   0  0  0  0  0  0  0  0  0  0  0  0
  -15.0347    1.9763  -16.0183 C   0  0  0  0  0  0  0  0  0  0  0  0
  -16.3115    2.2633  -15.7243 N   0  0  0  0  0  0  0  0  0  0  0  0
  -16.9576    1.3977  -14.9291 C   0  0  0  0  0  0  0  0  0  0  0  0
  -16.4387    0.2770  -14.4176 N   0  0  0  0  0  0  0  0  0  0  0  0
  -14.3089    2.8155  -16.8357 N   0  0  0  0  0  0  0  0  0  0  0  0
  -13.3587    3.7668  -16.2611 C   0  0  0  0  0  0  0  0  0  0  0  0
  -13.3921    5.0425  -17.1430 C   0  0  0  0  0  0  0  0  0  0  0  0
  -13.1100    4.7677  -18.5766 N   0  0  0  0  0  0  0  0  0  0  0  0
  -13.2461    5.9873  -19.3685 C   0  0  0  0  0  0  0  0  0  0  0  0
  -14.0330    3.7235  -19.0823 C   0  0  0  0  0  0  0  0  0  0  0  0
  -14.0004    2.4427  -18.2212 C   0  0  0  0  0  0  0  0  0  0  0  0
  -14.5502   -1.1574  -14.2182 N   0  0  0  0  0  0  0  0  0  0  0  0
  -13.9213   -1.5987  -14.8763 H   0  0  0  0  0  0  0  0  0  0  0  0
  -16.6813   -4.9168  -11.8148 C   0  0  0  0  0  0  0  0  0  0  0  0
  -16.0130   -3.6703  -12.2360 C   0  0  0  0  0  0  0  0  0  0  0  0
  -15.6490   -3.2087  -13.4769 C   0  0  0  0  0  0  0  0  0  0  0  0
  -15.0340   -1.9568  -13.2491 C   0  0  0  0  0  0  0  0  0  0  0  0
  -15.0582   -1.6312  -11.9570 N   0  0  0  0  0  0  0  0  0  0  0  0
  -15.6203   -2.6955  -11.3619 N   0  0  0  0  0  0  0  0  0  0  0  0
  -15.7138   -2.6873  -10.3528 H   0  0  0  0  0  0  0  0  0  0  0  0
  -18.3368    1.6653  -14.5250 C   0  0  0  0  0  0  0  0  0  0  0  0
  -19.4151    0.9575  -14.8935 C   0  0  0  0  0  0  0  0  0  0  0  0
  -20.7897    1.3029  -14.4971 C   0  0  0  0  0  0  0  0  0  0  0  0
  -21.7530    0.3290  -14.1919 C   0  0  0  0  0  0  0  0  0  0  0  0
  -23.0392    0.6965  -13.7869 C   0  0  0  0  0  0  0  0  0  0  0  0
  -23.3725    2.0428  -13.6647 C   0  0  0  0  0  0  0  0  0  0  0  0
  -22.4205    3.0209  -13.9448 C   0  0  0  0  0  0  0  0  0  0  0  0
  -21.1342    2.6526  -14.3531 C   0  0  0  0  0  0  0  0  0  0  0  0
 16 17  1  0  0  0
 17 18  2  0  0  0
 17 21  1  0  0  0
 18 19  1  0  0  0
 19 14  1  0  0  0
 19 20  2  0  0  0
 14  1  1  0  0  0
 14 15  1  0  0  0
  1  2  1  0  0  0
  1  6  2  0  0  0
  2  3  2  0  0  0
  3  7  1  0  0  0
  3  4  1  0  0  0
  7  8  1  0  0  0
  7 13  1  0  0  0
  8  9  1  0  0  0
  9 10  1  0  0  0
 10 11  1  0  0  0
 10 12  1  0  0  0
 12 13  1  0  0  0
  4  5  2  0  0  0
  5 23  1  0  0  0
  5  6  1  0  0  0
 23 24  2  0  0  0
 24 25  1  0  0  0
 25 26  1  0  0  0
 25 30  2  0  0  0
 26 27  2  0  0  0
 27 28  1  0  0  0
 28 29  2  0  0  0
 29 30  1  0  0  0
 20 21  1  0  0  0
 21 22  1  0  0  0
M  END
> <minimizedAffinity>
-8.58502

$$$$
