CHEMBL4163581


 31 34  0  0  0  0  0  0  0  0999 V2000
  -28.0645   -1.8143   -8.1221 C   0  0  0  0  0  0  0  0  0  0  0  0
  -27.9685   -0.7432   -7.2297 C   0  0  0  0  0  0  0  0  0  0  0  0
  -28.0537   -0.9622   -5.8563 C   0  0  0  0  0  0  0  0  0  0  0  0
  -28.2515   -2.2484   -5.3468 C   0  0  0  0  0  0  0  0  0  0  0  0
  -28.4009   -3.3422   -6.2069 C   0  0  0  0  0  0  0  0  0  0  0  0
  -28.2788   -3.0979   -7.5934 C   0  0  0  0  0  0  0  0  0  0  0  0
  -28.7731   -4.6931   -5.7062 C   0  0  0  0  0  0  0  0  0  0  0  0
  -29.2193   -4.8631   -4.3764 C   0  0  0  0  0  0  0  0  0  0  0  0
  -29.2867   -6.1193   -3.7922 C   0  0  0  0  0  0  0  0  0  0  0  0
  -29.0435   -7.2233   -4.5904 C   0  0  0  0  0  0  0  0  0  0  0  0
  -29.0842   -8.5805   -4.0673 C   0  0  0  0  0  0  0  0  0  0  0  0
  -28.4924   -8.8826   -3.0397 O   0  0  0  0  0  0  0  0  0  0  0  0
  -29.6961   -9.4625   -4.9100 N   0  0  0  0  0  0  0  0  0  0  0  0
  -29.5179   -9.2965   -6.2560 C   0  0  0  0  0  0  0  0  0  0  0  0
  -28.9999   -8.2466   -6.8057 N   0  0  0  0  0  0  0  0  0  0  0  0
  -28.8453   -7.1210   -5.9626 C   0  0  0  0  0  0  0  0  0  0  0  0
  -28.6365   -5.8525   -6.4997 C   0  0  0  0  0  0  0  0  0  0  0  0
  -30.6607   -9.6340   -4.6554 H   0  0  0  0  0  0  0  0  0  0  0  0
  -25.7325   -1.7579   -9.8798 O   0  0  0  0  0  0  0  0  0  0  0  0
  -26.8838   -1.6292  -10.3194 C   0  0  0  0  0  0  0  0  0  0  0  0
  -27.1749   -1.3687  -11.6494 N   0  0  0  0  0  0  0  0  0  0  0  0
  -28.0170   -1.6815   -9.5323 N   0  0  0  0  0  0  0  0  0  0  0  0
  -28.1248   -1.1147  -11.8590 H   0  0  0  0  0  0  0  0  0  0  0  0
  -28.9128   -1.6282  -10.0080 H   0  0  0  0  0  0  0  0  0  0  0  0
  -26.2232   -1.1827  -12.6856 C   0  0  0  0  0  0  0  0  0  0  0  0
  -26.4372   -1.5613  -14.0122 C   0  0  0  0  0  0  0  0  0  0  0  0
  -25.4351   -1.4141  -14.9745 C   0  0  0  0  0  0  0  0  0  0  0  0
  -24.2043   -0.8740  -14.6091 C   0  0  0  0  0  0  0  0  0  0  0  0
  -23.9967   -0.4649  -13.3061 C   0  0  0  0  0  0  0  0  0  0  0  0
  -22.4709    0.1989  -12.8518 Cl  0  0  0  0  0  0  0  0  0  0  0  0
  -24.9990   -0.6042  -12.3372 C   0  0  0  0  0  0  0  0  0  0  0  0
 19 20  2  0  0  0
 20 21  1  0  0  0
 20 22  1  0  0  0
 21 25  1  0  0  0
 21 23  1  0  0  0
 25 26  1  0  0  0
 25 31  2  0  0  0
 26 27  2  0  0  0
 27 28  1  0  0  0
 28 29  2  0  0  0
 29 30  1  0  0  0
 29 31  1  0  0  0
 22  1  1  0  0  0
 22 24  1  0  0  0
  1  2  1  0  0  0
  1  6  2  0  0  0
  2  3  2  0  0  0
  3  4  1  0  0  0
  4  5  2  0  0  0
  5  7  1  0  0  0
  5  6  1  0  0  0
  7  8  1  0  0  0
  7 17  2  0  0  0
  8  9  2  0  0  0
  9 10  1  0  0  0
 10 11  1  0  0  0
 10 16  2  0  0  0
 11 12  2  0  0  0
 11 13  1  0  0  0
 13 14  1  0  0  0
 13 18  1  0  0  0
 14 15  2  0  0  0
 15 16  1  0  0  0
 16 17  1  0  0  0
M  END
> <minimizedAffinity>
-10.55266

$$$$
