CHEMBL3940672


 37 42  0  0  0  0  0  0  0  0999 V2000
  -28.1118   -8.6161   -5.8433 N   0  0  0  0  0  0  0  0  0  0  0  0
  -28.3447   -7.2298   -5.3792 C   0  0  0  0  0  0  0  0  0  0  0  0
  -28.4129   -6.3336   -6.4142 C   0  0  0  0  0  0  0  0  0  0  0  0
  -28.6554   -5.1338   -6.1940 C   0  0  0  0  0  0  0  0  0  0  0  0
  -28.8488   -4.6890   -5.0216 C   0  0  0  0  0  0  0  0  0  0  0  0
  -28.9065   -3.6061   -5.1941 N   0  0  0  0  0  0  0  0  0  0  0  0
  -28.9515   -2.5360   -5.4097 C   0  0  0  0  0  0  0  0  0  0  0  0
  -29.3171   -1.9148   -4.3794 C   0  0  0  0  0  0  0  0  0  0  0  0
  -29.2988   -3.3184   -3.1809 N   0  0  0  0  0  0  0  0  0  0  0  0
  -28.9283   -4.9506   -3.7751 C   0  0  0  0  0  0  0  0  0  0  0  0
  -28.5492   -6.6506   -3.9376 C   0  0  0  0  0  0  0  0  0  0  0  0
  -29.3839   -0.0711   -5.3332 C   0  0  0  0  0  0  0  0  0  0  0  0
  -28.5270    0.8119   -6.2337 C   0  0  0  0  0  0  0  0  0  0  0  0
  -29.2809    1.8046   -6.9239 N   0  0  0  0  0  0  0  0  0  0  0  0
  -30.5657    1.7048   -6.6096 N   0  0  0  0  0  0  0  0  0  0  0  0
  -31.6363    2.5874   -7.2409 C   0  0  0  0  0  0  0  0  0  0  0  0
  -30.7020    0.6250   -5.6857 C   0  0  0  0  0  0  0  0  0  0  0  0
  -31.0469   -9.5486   -8.0956 C   0  0  0  0  0  0  0  0  0  0  0  0
  -30.3956   -9.8613   -9.1497 C   0  0  0  0  0  0  0  0  0  0  0  0
  -29.0456   -9.7776   -9.2669 C   0  0  0  0  0  0  0  0  0  0  0  0
  -28.2853   -9.4206   -8.1730 C   0  0  0  0  0  0  0  0  0  0  0  0
  -28.8981   -9.1769   -6.9573 C   0  0  0  0  0  0  0  0  0  0  0  0
  -30.3139   -9.4505   -6.9600 C   0  0  0  0  0  0  0  0  0  0  0  0
  -33.2377   -8.7121   -7.2369 C   0  0  0  0  0  0  0  0  0  0  0  0
  -32.4201   -9.3883   -8.2642 O   0  0  0  0  0  0  0  0  0  0  0  0
  -28.5127   -9.9133  -10.4861 O   0  0  0  0  0  0  0  0  0  0  0  0
  -27.2533  -10.4622  -10.6670 C   0  0  0  0  0  0  0  0  0  0  0  0
  -27.3209   -9.4715   -4.9403 C   0  0  0  0  0  0  0  0  0  0  0  0
  -26.0238   -9.9177   -5.5217 C   0  0  0  0  0  0  0  0  0  0  0  0
  -24.8386   -9.8792   -4.7270 N   0  0  0  0  0  0  0  0  0  0  0  0
  -23.6547   -9.8360   -5.6265 C   0  0  0  0  0  0  0  0  0  0  0  0
  -22.9012  -11.1096   -5.2610 C   0  0  0  0  0  0  0  0  0  0  0  0
  -24.0222  -12.1173   -5.0658 C   0  0  0  0  0  0  0  0  0  0  0  0
  -24.6925  -11.2052   -4.0510 C   0  0  0  0  0  0  0  0  0  0  0  0
  -23.5859  -10.9781   -3.0649 C   0  0  0  0  0  0  0  0  0  0  0  0
  -22.3938  -10.8597   -3.9025 N   0  0  0  0  0  0  0  0  0  0  0  0
  -21.7335  -11.6021   -3.5957 H   0  0  0  0  0  0  0  0  0  0  0  0
 24 25  1  0  0  0
 25 18  1  0  0  0
 18 19  1  0  0  0
 18 23  2  0  0  0
 19 20  2  0  0  0
 20 26  1  0  0  0
 20 21  1  0  0  0
 26 27  1  0  0  0
 21 22  2  0  0  0
 22  1  1  0  0  0
 22 23  1  0  0  0
  1 28  1  0  0  0
  1  2  1  0  0  0
 28 29  1  0  0  0
 29 30  1  0  0  0
 30 31  1  0  0  0
 30 34  1  0  0  0
 31 32  1  0  0  0
 32 33  1  0  0  0
 32 36  1  0  0  0
 33 34  1  0  0  0
 34 35  1  0  0  0
 35 36  1  0  0  0
 36 37  1  0  0  0
  2  3  1  0  0  0
  2 11  2  0  0  0
  3  4  2  0  0  0
  4  5  1  0  0  0
  5  6  1  0  0  0
  5 10  2  0  0  0
  6  7  2  0  0  0
  7  8  1  0  0  0
  8 12  1  0  0  0
  8  9  2  0  0  0
 12 13  1  0  0  0
 12 17  2  0  0  0
 13 14  2  0  0  0
 14 15  1  0  0  0
 15 16  1  0  0  0
 15 17  1  0  0  0
  9 10  1  0  0  0
 10 11  1  0  0  0
M  END
> <minimizedAffinity>
-8.99779

$$$$
