CHEMBL593293


 33 37  0  0  0  0  0  0  0  0999 V2000
  -15.5041    2.9120  -16.5956 C   0  0  0  0  0  0  0  0  0  0  0  0
  -16.3777    3.9199  -16.1748 C   0  0  0  0  0  0  0  0  0  0  0  0
  -17.5991    3.6019  -15.5888 C   0  0  0  0  0  0  0  0  0  0  0  0
  -17.9810    2.2649  -15.4028 C   0  0  0  0  0  0  0  0  0  0  0  0
  -17.0600    1.2522  -15.7219 C   0  0  0  0  0  0  0  0  0  0  0  0
  -15.8389    1.5811  -16.3152 C   0  0  0  0  0  0  0  0  0  0  0  0
  -14.9523    0.6056  -16.6943 O   0  0  0  0  0  0  0  0  0  0  0  0
  -15.3657   -0.2596  -16.5338 H   0  0  0  0  0  0  0  0  0  0  0  0
  -19.3358    1.9269  -14.9363 C   0  0  0  0  0  0  0  0  0  0  0  0
  -19.8592    0.7173  -14.9180 N   0  0  0  0  0  0  0  0  0  0  0  0
  -21.1621    0.7709  -14.4368 C   0  0  0  0  0  0  0  0  0  0  0  0
  -22.0253   -0.3263  -14.2408 C   0  0  0  0  0  0  0  0  0  0  0  0
  -23.3186   -0.1190  -13.7507 C   0  0  0  0  0  0  0  0  0  0  0  0
  -23.7655    1.1678  -13.4524 C   0  0  0  0  0  0  0  0  0  0  0  0
  -22.9316    2.2726  -13.6385 C   0  0  0  0  0  0  0  0  0  0  0  0
  -21.6348    2.0470  -14.1293 C   0  0  0  0  0  0  0  0  0  0  0  0
  -20.4059    3.1909  -14.4534 S   0  0  0  0  0  0  0  0  0  0  0  0
  -14.3263    3.2395  -17.2990 N   0  0  0  0  0  0  0  0  0  0  0  0
  -14.0195    2.4644  -17.8857 H   0  0  0  0  0  0  0  0  0  0  0  0
  -11.9139    7.5106  -15.9581 C   0  0  0  0  0  0  0  0  0  0  0  0
  -12.5092    7.7010  -17.2158 C   0  0  0  0  0  0  0  0  0  0  0  0
  -13.2056    6.6906  -17.8712 C   0  0  0  0  0  0  0  0  0  0  0  0
  -13.8327    6.9893  -19.0101 N   0  0  0  0  0  0  0  0  0  0  0  0
  -14.5773    6.0183  -19.5492 C   0  0  0  0  0  0  0  0  0  0  0  0
  -14.7473    4.7944  -19.0509 N   0  0  0  0  0  0  0  0  0  0  0  0
  -14.0898    4.4948  -17.9106 C   0  0  0  0  0  0  0  0  0  0  0  0
  -13.2561    5.4291  -17.2776 C   0  0  0  0  0  0  0  0  0  0  0  0
  -12.5556    5.1936  -16.0789 C   0  0  0  0  0  0  0  0  0  0  0  0
  -11.8898    6.2260  -15.4075 C   0  0  0  0  0  0  0  0  0  0  0  0
  -11.1394    9.7515  -16.0251 C   0  0  0  0  0  0  0  0  0  0  0  0
  -11.3445    8.5539  -15.2744 O   0  0  0  0  0  0  0  0  0  0  0  0
  -11.3200    5.7801  -14.2487 O   0  0  0  0  0  0  0  0  0  0  0  0
  -11.3150    4.3916  -13.9616 C   0  0  0  0  0  0  0  0  0  0  0  0
 30 31  1  0  0  0
 31 20  1  0  0  0
 20 21  1  0  0  0
 20 29  2  0  0  0
 21 22  2  0  0  0
 22 23  1  0  0  0
 22 27  1  0  0  0
 23 24  2  0  0  0
 24 25  1  0  0  0
 25 26  2  0  0  0
 26 18  1  0  0  0
 26 27  1  0  0  0
 18  1  1  0  0  0
 18 19  1  0  0  0
  1  2  1  0  0  0
  1  6  2  0  0  0
  2  3  2  0  0  0
  3  4  1  0  0  0
  4  9  1  0  0  0
  4  5  2  0  0  0
  9 10  2  0  0  0
  9 17  1  0  0  0
 10 11  1  0  0  0
 11 12  1  0  0  0
 11 16  2  0  0  0
 12 13  2  0  0  0
 13 14  1  0  0  0
 14 15  2  0  0  0
 15 16  1  0  0  0
 16 17  1  0  0  0
  5  6  1  0  0  0
  6  7  1  0  0  0
  7  8  1  0  0  0
 27 28  2  0  0  0
 28 29  1  0  0  0
 29 32  1  0  0  0
 32 33  1  0  0  0
M  END
> <minimizedAffinity>
-8.23956

$$$$
