CHEMBL231649


 29 32  0  0  0  0  0  0  0  0999 V2000
  -16.1481   -3.4541  -10.9537 C   0  0  0  0  0  0  0  0  0  0  0  0
  -16.1357   -4.9700  -11.3229 C   0  0  0  0  0  0  0  0  0  0  0  0
  -16.7435   -5.2598  -12.7093 C   0  0  0  0  0  0  0  0  0  0  0  0
  -15.9425   -4.5679  -13.8195 C   0  0  0  0  0  0  0  0  0  0  0  0
  -15.7057   -3.1612  -13.4286 C   0  0  0  0  0  0  0  0  0  0  0  0
  -15.3627   -2.1707  -14.2890 N   0  0  0  0  0  0  0  0  0  0  0  0
  -15.2180   -0.9936  -13.6229 C   0  0  0  0  0  0  0  0  0  0  0  0
  -15.4927   -1.2585  -12.3026 C   0  0  0  0  0  0  0  0  0  0  0  0
  -15.7792   -2.6346  -12.1597 C   0  0  0  0  0  0  0  0  0  0  0  0
  -15.2472   -2.2948  -15.3003 H   0  0  0  0  0  0  0  0  0  0  0  0
  -14.8736    0.2235  -14.2472 C   0  0  0  0  0  0  0  0  0  0  0  0
  -15.6485    1.0712  -14.9183 C   0  0  0  0  0  0  0  0  0  0  0  0
  -17.1210    1.0469  -15.2577 C   0  0  0  0  0  0  0  0  0  0  0  0
  -17.9480    0.1990  -14.9785 O   0  0  0  0  0  0  0  0  0  0  0  0
  -17.3487    2.2127  -15.9722 N   0  0  0  0  0  0  0  0  0  0  0  0
  -16.1836    2.9569  -16.1136 C   0  0  0  0  0  0  0  0  0  0  0  0
  -16.0365    4.1662  -16.7596 C   0  0  0  0  0  0  0  0  0  0  0  0
  -14.7585    4.7365  -16.7720 C   0  0  0  0  0  0  0  0  0  0  0  0
  -13.6780    4.0911  -16.1456 C   0  0  0  0  0  0  0  0  0  0  0  0
  -11.9621    4.8857  -16.1744 Br  0  0  0  0  0  0  0  0  0  0  0  0
  -13.8455    2.8687  -15.4973 C   0  0  0  0  0  0  0  0  0  0  0  0
  -15.1121    2.3112  -15.4916 C   0  0  0  0  0  0  0  0  0  0  0  0
  -18.2596    2.4604  -16.3284 H   0  0  0  0  0  0  0  0  0  0  0  0
  -15.1949   -3.2146   -9.7579 C   0  0  0  0  0  0  0  0  0  0  0  0
  -13.8244   -3.8479   -9.9349 C   0  0  0  0  0  0  0  0  0  0  0  0
  -12.3043   -4.4929   -8.2202 O   0  0  0  0  0  0  0  0  0  0  0  0
  -13.3410   -4.7304   -8.8211 C   0  0  0  0  0  0  0  0  0  0  0  0
  -14.0667   -5.8339   -8.5707 O   0  0  0  0  0  0  0  0  0  0  0  0
  -14.8587   -5.9789   -9.1192 H   0  0  0  0  0  0  0  0  0  0  0  0
 26 27  2  0  0  0
 27 28  1  0  0  0
 27 25  1  0  0  0
 28 29  1  0  0  0
 25 24  1  0  0  0
 24  1  1  0  0  0
  1  2  1  0  0  0
  1  9  1  0  0  0
  2  3  1  0  0  0
  3  4  1  0  0  0
  4  5  1  0  0  0
  5  6  1  0  0  0
  5  9  2  0  0  0
  6  7  1  0  0  0
  6 10  1  0  0  0
  7 11  1  0  0  0
  7  8  2  0  0  0
 11 12  2  0  0  0
 12 13  1  0  0  0
 12 22  1  0  0  0
 13 14  2  0  0  0
 13 15  1  0  0  0
 15 16  1  0  0  0
 15 23  1  0  0  0
 16 17  1  0  0  0
 16 22  2  0  0  0
 17 18  2  0  0  0
 18 19  1  0  0  0
 19 20  1  0  0  0
 19 21  2  0  0  0
 21 22  1  0  0  0
  8  9  1  0  0  0
M  END
> <minimizedAffinity>
-8.61993

$$$$
