CHEMBL4205803


 40 43  0  0  0  0  0  0  0  0999 V2000
  -27.8184   -2.2253  -10.4417 N   0  0  0  0  0  0  0  0  0  0  0  0
  -26.5927   -1.6407  -10.7424 C   0  0  0  0  0  0  0  0  0  0  0  0
  -25.7639   -1.2741   -9.9117 O   0  0  0  0  0  0  0  0  0  0  0  0
  -26.4062   -1.4431  -12.1068 N   0  0  0  0  0  0  0  0  0  0  0  0
  -28.4621   -2.3881  -11.1989 H   0  0  0  0  0  0  0  0  0  0  0  0
  -27.2462   -1.1796  -12.5985 H   0  0  0  0  0  0  0  0  0  0  0  0
  -29.0342   -3.0456   -6.4383 C   0  0  0  0  0  0  0  0  0  0  0  0
  -29.4474   -3.8425   -7.5173 C   0  0  0  0  0  0  0  0  0  0  0  0
  -29.0553   -3.5787   -8.8200 C   0  0  0  0  0  0  0  0  0  0  0  0
  -28.2746   -2.4727   -9.1211 C   0  0  0  0  0  0  0  0  0  0  0  0
  -27.9334   -1.6057   -8.0758 C   0  0  0  0  0  0  0  0  0  0  0  0
  -28.2705   -1.8948   -6.7164 C   0  0  0  0  0  0  0  0  0  0  0  0
  -27.7744   -0.9308   -5.6562 C   0  0  0  0  0  0  0  0  0  0  0  0
  -28.6935   -0.4944   -4.7570 F   0  0  0  0  0  0  0  0  0  0  0  0
  -26.7589   -1.4597   -4.9155 F   0  0  0  0  0  0  0  0  0  0  0  0
  -27.2580    0.2033   -6.2162 F   0  0  0  0  0  0  0  0  0  0  0  0
  -29.4522   -3.5243   -5.0589 C   0  0  0  0  0  0  0  0  0  0  0  0
  -29.8231   -7.1788   -4.5275 N   0  0  0  0  0  0  0  0  0  0  0  0
  -29.1325   -6.5569   -5.6778 C   0  0  0  0  0  0  0  0  0  0  0  0
  -28.0258   -5.5412   -5.2807 C   0  0  0  0  0  0  0  0  0  0  0  0
  -28.4940   -4.4403   -4.4039 N   0  0  0  0  0  0  0  0  0  0  0  0
  -29.1405   -5.0793   -3.2271 C   0  0  0  0  0  0  0  0  0  0  0  0
  -30.2396   -6.1172   -3.5852 C   0  0  0  0  0  0  0  0  0  0  0  0
  -28.4986   -9.2659   -4.9220 C   0  0  0  0  0  0  0  0  0  0  0  0
  -28.9614   -8.2071   -3.9313 C   0  0  0  0  0  0  0  0  0  0  0  0
  -25.2111   -0.8165  -12.5378 C   0  0  0  0  0  0  0  0  0  0  0  0
  -24.6506    0.2392  -11.8235 C   0  0  0  0  0  0  0  0  0  0  0  0
  -23.5371    0.9217  -12.3202 C   0  0  0  0  0  0  0  0  0  0  0  0
  -22.9516    0.5733  -13.5502 C   0  0  0  0  0  0  0  0  0  0  0  0
  -23.5232   -0.5110  -14.2450 C   0  0  0  0  0  0  0  0  0  0  0  0
  -24.6251   -1.2185  -13.7389 C   0  0  0  0  0  0  0  0  0  0  0  0
  -21.7891    1.3198  -14.0797 C   0  0  0  0  0  0  0  0  0  0  0  0
  -20.7088    0.6724  -14.6712 C   0  0  0  0  0  0  0  0  0  0  0  0
  -19.6134    1.4000  -15.1603 C   0  0  0  0  0  0  0  0  0  0  0  0
  -19.6054    2.7816  -15.0646 C   0  0  0  0  0  0  0  0  0  0  0  0
  -20.6333    3.4374  -14.4961 N   0  0  0  0  0  0  0  0  0  0  0  0
  -21.6769    2.7101  -14.0126 C   0  0  0  0  0  0  0  0  0  0  0  0
  -18.6010    3.5797  -15.5279 N   0  0  0  0  0  0  0  0  0  0  0  0
  -17.2559    3.2059  -15.8665 C   0  0  0  0  0  0  0  0  0  0  0  0
  -18.8605    4.5586  -15.5533 H   0  0  0  0  0  0  0  0  0  0  0  0
 24 25  1  0  0  0
 25 18  1  0  0  0
 18 19  1  0  0  0
 18 23  1  0  0  0
 19 20  1  0  0  0
 20 21  1  0  0  0
 21 17  1  0  0  0
 21 22  1  0  0  0
 17  7  1  0  0  0
  7  8  1  0  0  0
  7 12  2  0  0  0
  8  9  2  0  0  0
  9 10  1  0  0  0
 10  1  1  0  0  0
 10 11  2  0  0  0
  1  2  1  0  0  0
  1  5  1  0  0  0
  2  3  2  0  0  0
  2  4  1  0  0  0
  4 26  1  0  0  0
  4  6  1  0  0  0
 26 27  1  0  0  0
 26 31  2  0  0  0
 27 28  2  0  0  0
 28 29  1  0  0  0
 29 32  1  0  0  0
 29 30  2  0  0  0
 32 33  1  0  0  0
 32 37  2  0  0  0
 33 34  2  0  0  0
 34 35  1  0  0  0
 35 38  1  0  0  0
 35 36  2  0  0  0
 38 39  1  0  0  0
 38 40  1  0  0  0
 36 37  1  0  0  0
 30 31  1  0  0  0
 11 12  1  0  0  0
 12 13  1  0  0  0
 13 14  1  0  0  0
 13 15  1  0  0  0
 13 16  1  0  0  0
 22 23  1  0  0  0
M  END
> <minimizedAffinity>
-11.31648

$$$$
