CHEMBL3690499


 33 36  0  0  0  0  0  0  0  0999 V2000
  -28.1168   -2.5993   -5.3355 C   0  0  0  0  0  0  0  0  0  0  0  0
  -27.9100   -1.4577   -4.5290 C   0  0  0  0  0  0  0  0  0  0  0  0
  -27.7896   -0.1839   -5.0676 C   0  0  0  0  0  0  0  0  0  0  0  0
  -27.8535   -0.0202   -6.4438 C   0  0  0  0  0  0  0  0  0  0  0  0
  -28.0577   -1.1151   -7.2936 C   0  0  0  0  0  0  0  0  0  0  0  0
  -28.1555   -2.4178   -6.7292 C   0  0  0  0  0  0  0  0  0  0  0  0
  -29.9118   -7.3510   -6.2896 C   0  0  0  0  0  0  0  0  0  0  0  0
  -28.7768   -7.4847   -5.3441 C   0  0  0  0  0  0  0  0  0  0  0  0
  -28.1324   -6.3777   -4.9098 C   0  0  0  0  0  0  0  0  0  0  0  0
  -28.7001   -5.1187   -5.2055 N   0  0  0  0  0  0  0  0  0  0  0  0
  -28.5054   -3.8623   -4.6178 C   0  0  0  0  0  0  0  0  0  0  0  0
  -29.7053   -3.8969   -3.8819 C   0  0  0  0  0  0  0  0  0  0  0  0
  -30.6951   -4.4256   -4.6880 N   0  0  0  0  0  0  0  0  0  0  0  0
  -30.0265   -5.0858   -5.6176 C   0  0  0  0  0  0  0  0  0  0  0  0
  -30.4618   -6.1260   -6.4676 C   0  0  0  0  0  0  0  0  0  0  0  0
  -29.5087  -11.7109   -8.3871 C   0  0  0  0  0  0  0  0  0  0  0  0
  -30.3538  -10.5319   -8.0268 C   0  0  0  0  0  0  0  0  0  0  0  0
  -31.6711  -10.4355   -8.4202 C   0  0  0  0  0  0  0  0  0  0  0  0
  -32.4165   -9.3683   -8.0838 N   0  0  0  0  0  0  0  0  0  0  0  0
  -31.8364   -8.3770   -7.3566 N   0  0  0  0  0  0  0  0  0  0  0  0
  -30.5382   -8.4927   -6.9970 C   0  0  0  0  0  0  0  0  0  0  0  0
  -29.7664   -9.5581   -7.3027 N   0  0  0  0  0  0  0  0  0  0  0  0
  -28.1821   -0.9212   -8.7038 N   0  0  0  0  0  0  0  0  0  0  0  0
  -27.4576   -1.5990   -9.6579 C   0  0  0  0  0  0  0  0  0  0  0  0
  -26.5320   -2.3846   -9.4890 O   0  0  0  0  0  0  0  0  0  0  0  0
  -27.8612   -1.2792  -10.9427 N   0  0  0  0  0  0  0  0  0  0  0  0
  -28.6583   -0.0845   -9.0065 H   0  0  0  0  0  0  0  0  0  0  0  0
  -28.8489   -1.0883  -11.0467 H   0  0  0  0  0  0  0  0  0  0  0  0
  -27.2190   -1.9881  -12.0668 C   0  0  0  0  0  0  0  0  0  0  0  0
  -25.9113   -1.3693  -12.5892 C   0  0  0  0  0  0  0  0  0  0  0  0
  -25.7039   -0.1315  -12.0844 F   0  0  0  0  0  0  0  0  0  0  0  0
  -24.8590   -2.1311  -12.1982 F   0  0  0  0  0  0  0  0  0  0  0  0
  -25.8736   -1.2949  -13.9326 F   0  0  0  0  0  0  0  0  0  0  0  0
 16 17  1  0  0  0
 17 18  1  0  0  0
 17 22  2  0  0  0
 18 19  2  0  0  0
 19 20  1  0  0  0
 20 21  2  0  0  0
 21  7  1  0  0  0
 21 22  1  0  0  0
  7  8  1  0  0  0
  7 15  2  0  0  0
  8  9  2  0  0  0
  9 10  1  0  0  0
 10 11  1  0  0  0
 10 14  1  0  0  0
 11  1  1  0  0  0
 11 12  2  0  0  0
  1  2  1  0  0  0
  1  6  2  0  0  0
  2  3  2  0  0  0
  3  4  1  0  0  0
  4  5  2  0  0  0
  5 23  1  0  0  0
  5  6  1  0  0  0
 23 24  1  0  0  0
 23 27  1  0  0  0
 24 25  2  0  0  0
 24 26  1  0  0  0
 26 29  1  0  0  0
 26 28  1  0  0  0
 29 30  1  0  0  0
 30 31  1  0  0  0
 30 32  1  0  0  0
 30 33  1  0  0  0
 12 13  1  0  0  0
 13 14  2  0  0  0
 14 15  1  0  0  0
M  END
> <minimizedAffinity>
-9.79266

$$$$
