CHEMBL422918


 35 39  0  0  0  0  0  0  0  0999 V2000
  -21.5854    1.3910  -14.2681 N   0  0  0  0  0  0  0  0  0  0  0  0
  -20.7873    0.3848  -14.7925 C   0  0  0  0  0  0  0  0  0  0  0  0
  -19.5710    0.6315  -15.2831 C   0  0  0  0  0  0  0  0  0  0  0  0
  -19.0492    1.9865  -15.3065 C   0  0  0  0  0  0  0  0  0  0  0  0
  -19.8354    2.9888  -14.8626 C   0  0  0  0  0  0  0  0  0  0  0  0
  -21.2039    2.7332  -14.3444 C   0  0  0  0  0  0  0  0  0  0  0  0
  -21.8984    3.6870  -13.9956 O   0  0  0  0  0  0  0  0  0  0  0  0
  -17.6925    2.2852  -15.7846 C   0  0  0  0  0  0  0  0  0  0  0  0
  -16.6095    1.2753  -15.8022 C   0  0  0  0  0  0  0  0  0  0  0  0
  -15.4300    1.5684  -16.3950 C   0  0  0  0  0  0  0  0  0  0  0  0
  -15.1945    2.9019  -16.7873 N   0  0  0  0  0  0  0  0  0  0  0  0
  -13.9929    3.5928  -17.0081 C   0  0  0  0  0  0  0  0  0  0  0  0
  -13.9815    4.1909  -15.7380 C   0  0  0  0  0  0  0  0  0  0  0  0
  -15.2657    4.6258  -15.4649 N   0  0  0  0  0  0  0  0  0  0  0  0
  -16.0282    3.8859  -16.2562 C   0  0  0  0  0  0  0  0  0  0  0  0
  -17.3951    3.5560  -16.1318 C   0  0  0  0  0  0  0  0  0  0  0  0
  -13.6665    4.4255  -18.2129 C   0  0  0  0  0  0  0  0  0  0  0  0
  -12.6350    3.9729  -19.0630 C   0  0  0  0  0  0  0  0  0  0  0  0
  -12.0894    4.7787  -20.0627 C   0  0  0  0  0  0  0  0  0  0  0  0
  -12.5879    6.0578  -20.2600 C   0  0  0  0  0  0  0  0  0  0  0  0
  -13.6333    6.5196  -19.4586 C   0  0  0  0  0  0  0  0  0  0  0  0
  -14.1728    5.7129  -18.4384 C   0  0  0  0  0  0  0  0  0  0  0  0
  -22.8967    1.1046  -13.7061 C   0  0  0  0  0  0  0  0  0  0  0  0
  -23.5027   -0.2570  -14.0454 C   0  0  0  0  0  0  0  0  0  0  0  0
  -23.5024   -1.2390  -12.8643 C   0  0  0  0  0  0  0  0  0  0  0  0
  -26.7996   -1.1686  -10.9551 C   0  0  0  0  0  0  0  0  0  0  0  0
  -27.7450   -1.2129  -12.1681 C   0  0  0  0  0  0  0  0  0  0  0  0
  -27.1876   -2.0725  -13.2939 C   0  0  0  0  0  0  0  0  0  0  0  0
  -25.7649   -1.6620  -13.6605 C   0  0  0  0  0  0  0  0  0  0  0  0
  -24.8697   -1.6554  -12.4953 N   0  0  0  0  0  0  0  0  0  0  0  0
  -25.3887   -0.7744  -11.4296 C   0  0  0  0  0  0  0  0  0  0  0  0
  -26.8335   -2.5004  -10.1600 C   0  0  0  0  0  0  0  0  0  0  0  0
  -27.6892   -1.0729   -8.3596 C   0  0  0  0  0  0  0  0  0  0  0  0
  -27.1459   -2.3813   -8.7196 N   0  0  0  0  0  0  0  0  0  0  0  0
  -28.0959   -3.4291   -8.3291 C   0  0  0  0  0  0  0  0  0  0  0  0
 33 34  1  0  0  0
 34 35  1  0  0  0
 34 32  1  0  0  0
 32 26  1  0  0  0
 26 27  1  0  0  0
 26 31  1  0  0  0
 27 28  1  0  0  0
 28 29  1  0  0  0
 29 30  1  0  0  0
 30 25  1  0  0  0
 30 31  1  0  0  0
 25 24  1  0  0  0
 24 23  1  0  0  0
 23  1  1  0  0  0
  1  2  1  0  0  0
  1  6  1  0  0  0
  2  3  2  0  0  0
  3  4  1  0  0  0
  4  8  1  0  0  0
  4  5  2  0  0  0
  8  9  1  0  0  0
  8 16  2  0  0  0
  9 10  2  0  0  0
 10 11  1  0  0  0
 11 12  1  0  0  0
 11 15  1  0  0  0
 12 17  1  0  0  0
 12 13  2  0  0  0
 17 18  1  0  0  0
 17 22  2  0  0  0
 18 19  2  0  0  0
 19 20  1  0  0  0
 20 21  2  0  0  0
 21 22  1  0  0  0
 13 14  1  0  0  0
 14 15  2  0  0  0
 15 16  1  0  0  0
  5  6  1  0  0  0
  6  7  2  0  0  0
M  END
> <minimizedAffinity>
-9.64562

$$$$
