CHEMBL472302


 31 34  0  0  0  0  0  0  0  0999 V2000
  -20.2570    2.6149  -14.4979 C   0  0  0  0  0  0  0  0  0  0  0  0
  -21.5158    3.1866  -14.2756 C   0  0  0  0  0  0  0  0  0  0  0  0
  -22.6444    2.3814  -14.0891 C   0  0  0  0  0  0  0  0  0  0  0  0
  -22.5252    0.9894  -14.1128 C   0  0  0  0  0  0  0  0  0  0  0  0
  -21.2761    0.4185  -14.3959 C   0  0  0  0  0  0  0  0  0  0  0  0
  -20.1505    1.2281  -14.6126 C   0  0  0  0  0  0  0  0  0  0  0  0
  -23.6861    0.1425  -13.8061 C   0  0  0  0  0  0  0  0  0  0  0  0
  -24.3515   -0.6429  -14.8989 C   0  0  0  0  0  0  0  0  0  0  0  0
  -25.3843   -1.4240  -14.7857 N   0  0  0  0  0  0  0  0  0  0  0  0
  -25.9027   -1.5332  -13.5281 C   0  0  0  0  0  0  0  0  0  0  0  0
  -26.9741   -2.2470  -13.0433 C   0  0  0  0  0  0  0  0  0  0  0  0
  -27.0264   -1.9424  -11.6753 C   0  0  0  0  0  0  0  0  0  0  0  0
  -26.0701   -1.0970  -11.2929 N   0  0  0  0  0  0  0  0  0  0  0  0
  -25.3521   -0.8585  -12.4342 N   0  0  0  0  0  0  0  0  0  0  0  0
  -24.2154   -0.0141  -12.5722 C   0  0  0  0  0  0  0  0  0  0  0  0
  -23.7417    0.6022  -11.4133 N   0  0  0  0  0  0  0  0  0  0  0  0
  -24.4537    0.6128  -10.6781 H   0  0  0  0  0  0  0  0  0  0  0  0
  -23.2900    1.4977  -11.5698 H   0  0  0  0  0  0  0  0  0  0  0  0
  -16.9532    3.9100  -15.3010 N   0  0  0  0  0  0  0  0  0  0  0  0
  -18.0070    3.0046  -15.3245 C   0  0  0  0  0  0  0  0  0  0  0  0
  -18.0393    1.9771  -15.9927 O   0  0  0  0  0  0  0  0  0  0  0  0
  -19.0800    3.4123  -14.5309 N   0  0  0  0  0  0  0  0  0  0  0  0
  -16.9527    4.5911  -14.5567 H   0  0  0  0  0  0  0  0  0  0  0  0
  -19.2189    4.4124  -14.5116 H   0  0  0  0  0  0  0  0  0  0  0  0
  -14.4349    5.5720  -19.2536 C   0  0  0  0  0  0  0  0  0  0  0  0
  -14.5549    4.6562  -18.0709 C   0  0  0  0  0  0  0  0  0  0  0  0
  -13.5250    3.7516  -17.7951 C   0  0  0  0  0  0  0  0  0  0  0  0
  -13.6233    2.8970  -16.7074 C   0  0  0  0  0  0  0  0  0  0  0  0
  -14.7486    2.9416  -15.8838 C   0  0  0  0  0  0  0  0  0  0  0  0
  -15.7891    3.8422  -16.1198 C   0  0  0  0  0  0  0  0  0  0  0  0
  -15.6855    4.6996  -17.2267 C   0  0  0  0  0  0  0  0  0  0  0  0
 25 26  1  0  0  0
 26 27  1  0  0  0
 26 31  2  0  0  0
 27 28  2  0  0  0
 28 29  1  0  0  0
 29 30  2  0  0  0
 30 19  1  0  0  0
 30 31  1  0  0  0
 19 20  1  0  0  0
 19 23  1  0  0  0
 20 21  2  0  0  0
 20 22  1  0  0  0
 22  1  1  0  0  0
 22 24  1  0  0  0
  1  2  1  0  0  0
  1  6  2  0  0  0
  2  3  2  0  0  0
  3  4  1  0  0  0
  4  7  1  0  0  0
  4  5  2  0  0  0
  7  8  1  0  0  0
  7 15  2  0  0  0
  8  9  2  0  0  0
  9 10  1  0  0  0
 10 11  2  0  0  0
 10 14  1  0  0  0
 11 12  1  0  0  0
 12 13  2  0  0  0
 13 14  1  0  0  0
 14 15  1  0  0  0
 15 16  1  0  0  0
 16 17  1  0  0  0
 16 18  1  0  0  0
  5  6  1  0  0  0
M  END
> <minimizedAffinity>
-8.85092

$$$$
