CHEMBL2103868


 39 43  0  0  0  0  0  0  0  0999 V2000
  -29.5247   -6.7858   -4.0192 C   0  0  0  0  0  0  0  0  0  0  0  0
  -30.6294   -5.9398   -3.8764 C   0  0  0  0  0  0  0  0  0  0  0  0
  -30.5681   -4.6169   -4.3229 C   0  0  0  0  0  0  0  0  0  0  0  0
  -29.3836   -4.0929   -4.8412 C   0  0  0  0  0  0  0  0  0  0  0  0
  -28.2508   -4.9178   -4.8865 C   0  0  0  0  0  0  0  0  0  0  0  0
  -28.3164   -6.2583   -4.4674 C   0  0  0  0  0  0  0  0  0  0  0  0
  -29.2833   -2.7795   -5.3489 N   0  0  0  0  0  0  0  0  0  0  0  0
  -28.1253   -2.0376   -5.5008 C   0  0  0  0  0  0  0  0  0  0  0  0
  -26.9715   -2.3916   -5.3034 O   0  0  0  0  0  0  0  0  0  0  0  0
  -30.1571   -2.3140   -5.5800 H   0  0  0  0  0  0  0  0  0  0  0  0
  -28.3612   -0.6254   -5.9281 C   0  0  0  0  0  0  0  0  0  0  0  0
  -27.9918    0.4787   -4.9344 C   0  0  0  0  0  0  0  0  0  0  0  0
  -29.4326    0.1999   -5.2132 C   0  0  0  0  0  0  0  0  0  0  0  0
  -28.1724   -0.3714   -7.3903 C   0  0  0  0  0  0  0  0  0  0  0  0
  -28.5537    0.6987   -7.8411 O   0  0  0  0  0  0  0  0  0  0  0  0
  -27.5734   -1.4155   -8.0746 N   0  0  0  0  0  0  0  0  0  0  0  0
  -27.3626   -2.2530   -7.5407 H   0  0  0  0  0  0  0  0  0  0  0  0
  -27.2983   -1.4515   -9.4588 C   0  0  0  0  0  0  0  0  0  0  0  0
  -28.2998   -1.4524  -10.4358 C   0  0  0  0  0  0  0  0  0  0  0  0
  -27.9783   -1.5746  -11.7892 C   0  0  0  0  0  0  0  0  0  0  0  0
  -26.6493   -1.6845  -12.1682 C   0  0  0  0  0  0  0  0  0  0  0  0
  -26.3430   -1.8397  -13.4625 F   0  0  0  0  0  0  0  0  0  0  0  0
  -25.6343   -1.6386  -11.2203 C   0  0  0  0  0  0  0  0  0  0  0  0
  -25.9567   -1.5074   -9.8646 C   0  0  0  0  0  0  0  0  0  0  0  0
  -29.5943   -8.1505   -3.7861 O   0  0  0  0  0  0  0  0  0  0  0  0
  -29.5067  -10.2501   -8.4771 C   0  0  0  0  0  0  0  0  0  0  0  0
  -28.2489  -10.3420   -7.8755 C   0  0  0  0  0  0  0  0  0  0  0  0
  -28.0276   -9.9653   -6.5674 C   0  0  0  0  0  0  0  0  0  0  0  0
  -26.8497  -10.3266   -6.0451 N   0  0  0  0  0  0  0  0  0  0  0  0
  -26.6659  -10.1368   -4.7307 C   0  0  0  0  0  0  0  0  0  0  0  0
  -27.5794   -9.4986   -3.9255 C   0  0  0  0  0  0  0  0  0  0  0  0
  -28.7310   -8.9663   -4.5106 C   0  0  0  0  0  0  0  0  0  0  0  0
  -29.0341   -9.2947   -5.8500 C   0  0  0  0  0  0  0  0  0  0  0  0
  -30.2653   -9.0634   -6.5031 C   0  0  0  0  0  0  0  0  0  0  0  0
  -30.5344   -9.5938   -7.7829 C   0  0  0  0  0  0  0  0  0  0  0  0
  -28.9928  -10.3034  -10.8113 C   0  0  0  0  0  0  0  0  0  0  0  0
  -29.7568  -10.7950   -9.7098 O   0  0  0  0  0  0  0  0  0  0  0  0
  -31.8342   -9.4077   -8.1781 O   0  0  0  0  0  0  0  0  0  0  0  0
  -32.7305   -8.7632   -7.2809 C   0  0  0  0  0  0  0  0  0  0  0  0
 36 37  1  0  0  0
 37 26  1  0  0  0
 26 27  1  0  0  0
 26 35  2  0  0  0
 27 28  2  0  0  0
 28 29  1  0  0  0
 28 33  1  0  0  0
 29 30  2  0  0  0
 30 31  1  0  0  0
 31 32  2  0  0  0
 32 25  1  0  0  0
 32 33  1  0  0  0
 25  1  1  0  0  0
  1  2  1  0  0  0
  1  6  2  0  0  0
  2  3  2  0  0  0
  3  4  1  0  0  0
  4  7  1  0  0  0
  4  5  2  0  0  0
  7  8  1  0  0  0
  7 10  1  0  0  0
  8  9  2  0  0  0
  8 11  1  0  0  0
 11 14  1  0  0  0
 11 12  1  0  0  0
 11 13  1  0  0  0
 14 15  2  0  0  0
 14 16  1  0  0  0
 16 18  1  0  0  0
 16 17  1  0  0  0
 18 19  1  0  0  0
 18 24  2  0  0  0
 19 20  2  0  0  0
 20 21  1  0  0  0
 21 22  1  0  0  0
 21 23  2  0  0  0
 23 24  1  0  0  0
 12 13  1  0  0  0
  5  6  1  0  0  0
 33 34  2  0  0  0
 34 35  1  0  0  0
 35 38  1  0  0  0
 38 39  1  0  0  0
M  END
> <minimizedAffinity>
-8.76754

$$$$
