CHEMBL2408615


 36 41  0  0  0  0  0  0  0  0999 V2000
  -25.5844   -8.9013   -3.0238 N   0  0  0  0  0  0  0  0  0  0  0  0
  -26.2696   -9.1526   -4.1969 C   0  0  0  0  0  0  0  0  0  0  0  0
  -25.8067  -10.1305   -4.9964 N   0  0  0  0  0  0  0  0  0  0  0  0
  -26.4206  -10.3633   -6.1794 C   0  0  0  0  0  0  0  0  0  0  0  0
  -27.5250   -9.6625   -6.6796 C   0  0  0  0  0  0  0  0  0  0  0  0
  -28.0550   -8.6527   -5.8435 C   0  0  0  0  0  0  0  0  0  0  0  0
  -29.0954   -7.6548   -5.8860 C   0  0  0  0  0  0  0  0  0  0  0  0
  -29.0558   -6.9955   -4.6647 C   0  0  0  0  0  0  0  0  0  0  0  0
  -28.0337   -7.4646   -3.9007 O   0  0  0  0  0  0  0  0  0  0  0  0
  -27.4097   -8.4486   -4.6148 C   0  0  0  0  0  0  0  0  0  0  0  0
  -24.9776   -9.6669   -2.7587 H   0  0  0  0  0  0  0  0  0  0  0  0
  -26.1038   -8.4284   -2.2983 H   0  0  0  0  0  0  0  0  0  0  0  0
  -29.8716   -5.9167   -4.1067 C   0  0  0  0  0  0  0  0  0  0  0  0
  -31.2010   -6.1548   -3.7114 C   0  0  0  0  0  0  0  0  0  0  0  0
  -32.0723   -5.1176   -3.3916 C   0  0  0  0  0  0  0  0  0  0  0  0
  -31.6212   -3.8015   -3.4101 C   0  0  0  0  0  0  0  0  0  0  0  0
  -30.2717   -3.5222   -3.7243 C   0  0  0  0  0  0  0  0  0  0  0  0
  -29.6940   -2.2614   -3.7464 N   0  0  0  0  0  0  0  0  0  0  0  0
  -28.4243   -2.3049   -4.1001 N   0  0  0  0  0  0  0  0  0  0  0  0
  -27.8981   -3.8496   -4.4419 S   0  0  0  0  0  0  0  0  0  0  0  0
  -29.4208   -4.5843   -4.0750 C   0  0  0  0  0  0  0  0  0  0  0  0
  -28.0311   -9.9296   -8.0040 C   0  0  0  0  0  0  0  0  0  0  0  0
  -29.3413  -10.0479   -8.5193 C   0  0  0  0  0  0  0  0  0  0  0  0
  -29.3655  -10.1574   -9.8492 N   0  0  0  0  0  0  0  0  0  0  0  0
  -28.0638  -10.1927  -10.1906 N   0  0  0  0  0  0  0  0  0  0  0  0
  -27.2292  -10.1397   -9.1083 C   0  0  0  0  0  0  0  0  0  0  0  0
  -27.6623  -10.2133  -11.5939 C   0  0  0  0  0  0  0  0  0  0  0  0
  -28.8690  -10.3441  -12.5346 C   0  0  0  0  0  0  0  0  0  0  0  0
  -28.4473  -10.3381  -13.9954 C   0  0  0  0  0  0  0  0  0  0  0  0
  -27.6136   -9.0978  -14.3297 C   0  0  0  0  0  0  0  0  0  0  0  0
  -27.1921   -9.1545  -15.6866 O   0  0  0  0  0  0  0  0  0  0  0  0
  -26.3953   -8.9867  -13.4149 C   0  0  0  0  0  0  0  0  0  0  0  0
  -26.7998   -8.9890  -11.9434 C   0  0  0  0  0  0  0  0  0  0  0  0
  -26.5739   -9.8979  -15.7876 H   0  0  0  0  0  0  0  0  0  0  0  0
  -30.0454   -7.3116   -6.9775 C   0  0  0  0  0  0  0  0  0  0  0  0
  -31.2916   -7.7915   -6.7072 F   0  0  0  0  0  0  0  0  0  0  0  0
  1  2  1  0  0  0
  1 11  1  0  0  0
  1 12  1  0  0  0
  2  3  1  0  0  0
  2 10  2  0  0  0
  3  4  2  0  0  0
  4  5  1  0  0  0
  5 22  1  0  0  0
  5  6  2  0  0  0
 22 23  1  0  0  0
 22 26  2  0  0  0
 23 24  2  0  0  0
 24 25  1  0  0  0
 25 26  1  0  0  0
 27 28  1  0  0  0
 27 33  1  0  0  0
 27 25  1  0  0  0
 28 29  1  0  0  0
 29 30  1  0  0  0
 30 31  1  0  0  0
 30 32  1  0  0  0
 31 34  1  0  0  0
 32 33  1  0  0  0
  6  7  1  0  0  0
  6 10  1  0  0  0
  7 35  1  0  0  0
  7  8  2  0  0  0
 35 36  1  0  0  0
  8 13  1  0  0  0
  8  9  1  0  0  0
 13 14  1  0  0  0
 13 21  2  0  0  0
 14 15  2  0  0  0
 15 16  1  0  0  0
 16 17  2  0  0  0
 17 18  1  0  0  0
 17 21  1  0  0  0
 18 19  2  0  0  0
 19 20  1  0  0  0
 20 21  1  0  0  0
  9 10  1  0  0  0
M  END
> <minimizedAffinity>
-7.82711

$$$$
