CHEMBL3671585


 37 39  0  0  0  0  0  0  0  0999 V2000
  -28.6144   -5.6000   -5.6919 C   0  0  0  0  0  0  0  0  0  0  0  0
  -28.3901   -6.8966   -5.2280 C   0  0  0  0  0  0  0  0  0  0  0  0
  -28.4357   -8.0069   -6.0854 C   0  0  0  0  0  0  0  0  0  0  0  0
  -28.2563   -9.3277   -5.6448 C   0  0  0  0  0  0  0  0  0  0  0  0
  -28.2933  -10.3642   -6.4992 N   0  0  0  0  0  0  0  0  0  0  0  0
  -28.5518  -10.0710   -7.7763 C   0  0  0  0  0  0  0  0  0  0  0  0
  -28.7397   -8.8485   -8.2959 N   0  0  0  0  0  0  0  0  0  0  0  0
  -28.6704   -7.8162   -7.4442 C   0  0  0  0  0  0  0  0  0  0  0  0
  -28.8301   -6.5060   -7.9119 C   0  0  0  0  0  0  0  0  0  0  0  0
  -28.7694   -5.3847   -7.0657 C   0  0  0  0  0  0  0  0  0  0  0  0
  -30.0140   -4.2883   -4.2091 C   0  0  0  0  0  0  0  0  0  0  0  0
  -31.0642   -4.8414   -4.5294 O   0  0  0  0  0  0  0  0  0  0  0  0
  -28.7610   -4.6131   -4.6903 N   0  0  0  0  0  0  0  0  0  0  0  0
  -27.9968   -3.9684   -4.5275 H   0  0  0  0  0  0  0  0  0  0  0  0
  -28.8360   -2.6636   -2.8207 C   0  0  0  0  0  0  0  0  0  0  0  0
  -30.0017   -3.1280   -3.2871 C   0  0  0  0  0  0  0  0  0  0  0  0
  -28.0386   -9.5677   -4.2695 N   0  0  0  0  0  0  0  0  0  0  0  0
  -28.9107   -9.7110   -3.7657 H   0  0  0  0  0  0  0  0  0  0  0  0
  -26.9233  -10.1514   -3.6418 C   0  0  0  0  0  0  0  0  0  0  0  0
  -26.9625  -11.4529   -3.1317 C   0  0  0  0  0  0  0  0  0  0  0  0
  -25.7998  -12.0740   -2.6672 C   0  0  0  0  0  0  0  0  0  0  0  0
  -24.5867  -11.3882   -2.6965 C   0  0  0  0  0  0  0  0  0  0  0  0
  -23.1460  -12.1873   -2.2021 Cl  0  0  0  0  0  0  0  0  0  0  0  0
  -24.5293  -10.0758   -3.1507 C   0  0  0  0  0  0  0  0  0  0  0  0
  -25.6927   -9.4754   -3.6239 C   0  0  0  0  0  0  0  0  0  0  0  0
  -25.6245   -8.2185   -4.0926 F   0  0  0  0  0  0  0  0  0  0  0  0
  -29.0003   -4.1934   -7.7104 O   0  0  0  0  0  0  0  0  0  0  0  0
  -27.8619   -3.5343   -8.2582 C   0  0  0  0  0  0  0  0  0  0  0  0
  -28.2386   -2.1615   -8.8216 C   0  0  0  0  0  0  0  0  0  0  0  0
  -27.9366   -2.0638  -10.2412 N   0  0  0  0  0  0  0  0  0  0  0  0
  -26.6765   -1.6995  -10.6810 C   0  0  0  0  0  0  0  0  0  0  0  0
  -25.7246   -1.5673   -9.9233 O   0  0  0  0  0  0  0  0  0  0  0  0
  -28.7008   -1.9571  -10.9067 H   0  0  0  0  0  0  0  0  0  0  0  0
  -26.5777   -1.4203  -12.1853 C   0  0  0  0  0  0  0  0  0  0  0  0
  -25.1610   -1.3487  -12.6248 N   0  0  0  0  0  0  0  0  0  0  0  0
  -25.0545   -1.5582  -14.0758 C   0  0  0  0  0  0  0  0  0  0  0  0
  -24.6270   -0.0175  -12.3035 C   0  0  0  0  0  0  0  0  0  0  0  0
 15 16  2  0  0  0
 16 11  1  0  0  0
 11 12  2  0  0  0
 11 13  1  0  0  0
 13  1  1  0  0  0
 13 14  1  0  0  0
  1  2  1  0  0  0
  1 10  2  0  0  0
  2  3  2  0  0  0
  3  4  1  0  0  0
  3  8  1  0  0  0
  4 17  1  0  0  0
  4  5  2  0  0  0
 17 19  1  0  0  0
 17 18  1  0  0  0
 19 20  1  0  0  0
 19 25  2  0  0  0
 20 21  2  0  0  0
 21 22  1  0  0  0
 22 23  1  0  0  0
 22 24  2  0  0  0
 24 25  1  0  0  0
 25 26  1  0  0  0
  5  6  1  0  0  0
  6  7  2  0  0  0
  7  8  1  0  0  0
  8  9  2  0  0  0
  9 10  1  0  0  0
 10 27  1  0  0  0
 27 28  1  0  0  0
 28 29  1  0  0  0
 29 30  1  0  0  0
 30 31  1  0  0  0
 30 33  1  0  0  0
 31 32  2  0  0  0
 31 34  1  0  0  0
 34 35  1  0  0  0
 35 36  1  0  0  0
 35 37  1  0  0  0
M  END
> <minimizedAffinity>
-7.98571

$$$$
