CHEMBL2063743


 40 45  0  0  0  0  0  0  0  0999 V2000
  -27.7428   -9.0641   -8.4355 C   0  0  0  0  0  0  0  0  0  0  0  0
  -27.9666  -10.1728   -7.6188 C   0  0  0  0  0  0  0  0  0  0  0  0
  -27.5873  -11.4519   -8.0347 C   0  0  0  0  0  0  0  0  0  0  0  0
  -27.0148  -11.6415   -9.2938 C   0  0  0  0  0  0  0  0  0  0  0  0
  -26.7805  -10.5407  -10.1178 C   0  0  0  0  0  0  0  0  0  0  0  0
  -27.1533   -9.2691   -9.6890 C   0  0  0  0  0  0  0  0  0  0  0  0
  -26.9308   -8.2214  -10.4980 F   0  0  0  0  0  0  0  0  0  0  0  0
  -28.6659   -7.3687   -6.8621 C   0  0  0  0  0  0  0  0  0  0  0  0
  -28.8406   -8.1202   -5.9054 O   0  0  0  0  0  0  0  0  0  0  0  0
  -28.1123   -7.7490   -8.0698 N   0  0  0  0  0  0  0  0  0  0  0  0
  -27.8348   -7.0256   -8.7277 H   0  0  0  0  0  0  0  0  0  0  0  0
  -29.1412   -3.6995   -5.7369 C   0  0  0  0  0  0  0  0  0  0  0  0
  -30.0945   -3.3272   -6.7096 C   0  0  0  0  0  0  0  0  0  0  0  0
  -30.5469   -4.2244   -7.6683 C   0  0  0  0  0  0  0  0  0  0  0  0
  -30.0401   -5.5175   -7.6824 C   0  0  0  0  0  0  0  0  0  0  0  0
  -29.1227   -5.9544   -6.7068 C   0  0  0  0  0  0  0  0  0  0  0  0
  -28.7167   -5.0537   -5.7076 C   0  0  0  0  0  0  0  0  0  0  0  0
  -27.7496   -5.5718   -4.3587 Cl  0  0  0  0  0  0  0  0  0  0  0  0
  -28.6072   -2.6225   -4.7755 C   0  0  0  0  0  0  0  0  0  0  0  0
  -27.2310   -2.0185   -5.0737 C   0  0  0  0  0  0  0  0  0  0  0  0
  -28.4512   -1.2195   -5.3830 C   0  0  0  0  0  0  0  0  0  0  0  0
  -29.2976   -2.7181   -2.2546 N   0  0  0  0  0  0  0  0  0  0  0  0
  -28.9888   -2.6636   -3.3742 C   0  0  0  0  0  0  0  0  0  0  0  0
  -27.9237  -12.4660   -7.1714 O   0  0  0  0  0  0  0  0  0  0  0  0
  -27.4950  -12.4016   -5.8510 C   0  0  0  0  0  0  0  0  0  0  0  0
  -28.5241  -12.2782   -4.9241 C   0  0  0  0  0  0  0  0  0  0  0  0
  -28.2079  -12.2263   -3.5721 C   0  0  0  0  0  0  0  0  0  0  0  0
  -26.8533  -12.2981   -3.2201 C   0  0  0  0  0  0  0  0  0  0  0  0
  -26.3296  -12.3144   -1.9533 N   0  0  0  0  0  0  0  0  0  0  0  0
  -25.0275  -12.3986   -2.0250 C   0  0  0  0  0  0  0  0  0  0  0  0
  -24.3377  -12.4020   -3.5874 S   0  0  0  0  0  0  0  0  0  0  0  0
  -25.9163  -12.3715   -4.2461 C   0  0  0  0  0  0  0  0  0  0  0  0
  -26.1680  -12.4174   -5.5699 N   0  0  0  0  0  0  0  0  0  0  0  0
  -24.1438  -12.4659   -0.9824 N   0  0  0  0  0  0  0  0  0  0  0  0
  -22.9000  -11.8926   -1.1055 C   0  0  0  0  0  0  0  0  0  0  0  0
  -22.4984  -11.1838   -2.0162 O   0  0  0  0  0  0  0  0  0  0  0  0
  -24.4377  -12.9250   -0.1362 H   0  0  0  0  0  0  0  0  0  0  0  0
  -21.9717  -12.2120    0.0218 C   0  0  0  0  0  0  0  0  0  0  0  0
  -22.2418  -11.6652    1.4080 C   0  0  0  0  0  0  0  0  0  0  0  0
  -21.1294  -11.0876    0.5841 C   0  0  0  0  0  0  0  0  0  0  0  0
 22 23  3  0  0  0
 23 19  1  0  0  0
 19 12  1  0  0  0
 19 20  1  0  0  0
 19 21  1  0  0  0
 12 13  1  0  0  0
 12 17  2  0  0  0
 13 14  2  0  0  0
 14 15  1  0  0  0
 15 16  2  0  0  0
 16  8  1  0  0  0
 16 17  1  0  0  0
  8  9  2  0  0  0
  8 10  1  0  0  0
 10  1  1  0  0  0
 10 11  1  0  0  0
  1  2  1  0  0  0
  1  6  2  0  0  0
  2  3  2  0  0  0
  3 24  1  0  0  0
  3  4  1  0  0  0
 24 25  1  0  0  0
 25 26  1  0  0  0
 25 33  2  0  0  0
 26 27  2  0  0  0
 27 28  1  0  0  0
 28 29  1  0  0  0
 28 32  2  0  0  0
 29 30  2  0  0  0
 30 34  1  0  0  0
 30 31  1  0  0  0
 34 35  1  0  0  0
 34 37  1  0  0  0
 35 36  2  0  0  0
 35 38  1  0  0  0
 38 39  1  0  0  0
 38 40  1  0  0  0
 39 40  1  0  0  0
 31 32  1  0  0  0
 32 33  1  0  0  0
  4  5  2  0  0  0
  5  6  1  0  0  0
  6  7  1  0  0  0
 17 18  1  0  0  0
 20 21  1  0  0  0
M  END
> <minimizedAffinity>
-5.34587

$$$$
