CHEMBL224547


 35 40  0  0  0  0  0  0  0  0999 V2000
  -22.9218    0.5891  -13.7611 C   0  0  0  0  0  0  0  0  0  0  0  0
  -23.0993    1.9891  -13.9255 C   0  0  0  0  0  0  0  0  0  0  0  0
  -22.0668    2.8561  -14.3121 C   0  0  0  0  0  0  0  0  0  0  0  0
  -20.8352    2.2983  -14.5387 C   0  0  0  0  0  0  0  0  0  0  0  0
  -20.6035    0.9081  -14.3922 C   0  0  0  0  0  0  0  0  0  0  0  0
  -21.6412    0.0602  -14.0072 C   0  0  0  0  0  0  0  0  0  0  0  0
  -19.1491    0.5054  -14.7122 C   0  0  0  0  0  0  0  0  0  0  0  0
  -18.6322    1.8658  -15.0495 C   0  0  0  0  0  0  0  0  0  0  0  0
  -17.4667    2.5417  -15.4473 C   0  0  0  0  0  0  0  0  0  0  0  0
  -17.6998    3.8658  -15.5767 N   0  0  0  0  0  0  0  0  0  0  0  0
  -19.0140    4.0168  -15.2598 N   0  0  0  0  0  0  0  0  0  0  0  0
  -19.5862    2.8401  -14.9447 C   0  0  0  0  0  0  0  0  0  0  0  0
  -19.4198    4.9456  -15.2847 H   0  0  0  0  0  0  0  0  0  0  0  0
  -27.8989   -1.7666  -12.6767 C   0  0  0  0  0  0  0  0  0  0  0  0
  -26.4447   -1.6690  -12.7749 N   0  0  0  0  0  0  0  0  0  0  0  0
  -26.0254   -1.4296  -14.1762 C   0  0  0  0  0  0  0  0  0  0  0  0
  -24.4871   -1.2859  -14.3237 C   0  0  0  0  0  0  0  0  0  0  0  0
  -24.0174   -0.2020  -13.4450 N   0  0  0  0  0  0  0  0  0  0  0  0
  -24.3996   -0.4008  -12.0322 C   0  0  0  0  0  0  0  0  0  0  0  0
  -25.9354   -0.5659  -11.9269 C   0  0  0  0  0  0  0  0  0  0  0  0
  -16.1489    1.9267  -15.6902 C   0  0  0  0  0  0  0  0  0  0  0  0
  -15.2893    2.2443  -16.7199 C   0  0  0  0  0  0  0  0  0  0  0  0
  -13.8584    1.3099  -16.6964 S   0  0  0  0  0  0  0  0  0  0  0  0
  -14.3666    0.4496  -15.3085 C   0  0  0  0  0  0  0  0  0  0  0  0
  -15.5964    0.8913  -14.8599 C   0  0  0  0  0  0  0  0  0  0  0  0
  -13.5750   -0.5896  -14.7265 C   0  0  0  0  0  0  0  0  0  0  0  0
  -12.9379   -1.4576  -14.1887 C   0  0  0  0  0  0  0  0  0  0  0  0
  -12.2082   -2.5495  -13.5271 C   0  0  0  0  0  0  0  0  0  0  0  0
  -12.6659   -2.6977  -12.1800 O   0  0  0  0  0  0  0  0  0  0  0  0
  -13.8591   -3.3548  -12.0230 C   0  0  0  0  0  0  0  0  0  0  0  0
  -15.0545   -2.7681  -11.6000 C   0  0  0  0  0  0  0  0  0  0  0  0
  -16.2158   -3.5365  -11.4875 C   0  0  0  0  0  0  0  0  0  0  0  0
  -16.1927   -4.8952  -11.8068 C   0  0  0  0  0  0  0  0  0  0  0  0
  -15.0136   -5.4768  -12.2538 C   0  0  0  0  0  0  0  0  0  0  0  0
  -13.8517   -4.7100  -12.3676 C   0  0  0  0  0  0  0  0  0  0  0  0
 14 15  1  0  0  0
 15 16  1  0  0  0
 15 20  1  0  0  0
 16 17  1  0  0  0
 17 18  1  0  0  0
 18  1  1  0  0  0
 18 19  1  0  0  0
  1  2  1  0  0  0
  1  6  2  0  0  0
  2  3  2  0  0  0
  3  4  1  0  0  0
  4  5  2  0  0  0
  4 12  1  0  0  0
  5  6  1  0  0  0
  5  7  1  0  0  0
  7  8  1  0  0  0
  8  9  1  0  0  0
  8 12  2  0  0  0
  9 21  1  0  0  0
  9 10  2  0  0  0
 21 22  2  0  0  0
 21 25  1  0  0  0
 22 23  1  0  0  0
 23 24  1  0  0  0
 24 26  1  0  0  0
 24 25  2  0  0  0
 26 27  3  0  0  0
 27 28  1  0  0  0
 28 29  1  0  0  0
 29 30  1  0  0  0
 30 31  1  0  0  0
 30 35  2  0  0  0
 31 32  2  0  0  0
 32 33  1  0  0  0
 33 34  2  0  0  0
 34 35  1  0  0  0
 10 11  1  0  0  0
 11 12  1  0  0  0
 11 13  1  0  0  0
 19 20  1  0  0  0
M  END
> <minimizedAffinity>
-9.97424

$$$$
