CHEMBL493877


 39 43  0  0  0  0  0  0  0  0999 V2000
  -28.0024  -10.5931   -9.2692 N   0  0  0  0  0  0  0  0  0  0  0  0
  -27.6600   -9.1790   -9.1899 C   0  0  0  0  0  0  0  0  0  0  0  0
  -28.3292   -8.3858   -8.0581 C   0  0  0  0  0  0  0  0  0  0  0  0
  -29.8121   -8.6466   -7.9321 C   0  0  0  0  0  0  0  0  0  0  0  0
  -30.2971   -9.8799   -8.4120 C   0  0  0  0  0  0  0  0  0  0  0  0
  -31.6632  -10.1833   -8.2759 C   0  0  0  0  0  0  0  0  0  0  0  0
  -32.5389   -9.2932   -7.6640 C   0  0  0  0  0  0  0  0  0  0  0  0
  -32.0594   -8.0878   -7.1593 C   0  0  0  0  0  0  0  0  0  0  0  0
  -30.7023   -7.7421   -7.2901 C   0  0  0  0  0  0  0  0  0  0  0  0
  -29.3983  -10.9362   -9.0246 C   0  0  0  0  0  0  0  0  0  0  0  0
  -30.2123   -6.4942   -6.6147 C   0  0  0  0  0  0  0  0  0  0  0  0
  -29.9776   -6.5617   -5.4069 O   0  0  0  0  0  0  0  0  0  0  0  0
  -30.1031   -5.3528   -7.3961 N   0  0  0  0  0  0  0  0  0  0  0  0
  -30.2789   -5.4412   -8.3879 H   0  0  0  0  0  0  0  0  0  0  0  0
  -29.7792   -4.0422   -6.9483 C   0  0  0  0  0  0  0  0  0  0  0  0
  -30.4479   -3.3918   -5.9151 C   0  0  0  0  0  0  0  0  0  0  0  0
  -30.1141   -2.0852   -5.5318 C   0  0  0  0  0  0  0  0  0  0  0  0
  -29.0986   -1.3682   -6.1776 C   0  0  0  0  0  0  0  0  0  0  0  0
  -28.4057   -2.0361   -7.2052 C   0  0  0  0  0  0  0  0  0  0  0  0
  -28.7406   -3.3510   -7.5825 C   0  0  0  0  0  0  0  0  0  0  0  0
  -28.7566    0.0876   -5.8025 C   0  0  0  0  0  0  0  0  0  0  0  0
  -27.6424    0.2048   -4.7350 C   0  0  0  0  0  0  0  0  0  0  0  0
  -28.2810    0.8590   -7.0506 C   0  0  0  0  0  0  0  0  0  0  0  0
  -30.0037    0.7906   -5.2233 C   0  0  0  0  0  0  0  0  0  0  0  0
  -27.0148  -11.5393   -8.7410 C   0  0  0  0  0  0  0  0  0  0  0  0
  -23.9528  -10.6522   -4.5122 C   0  0  0  0  0  0  0  0  0  0  0  0
  -25.1729  -11.2015   -4.0943 C   0  0  0  0  0  0  0  0  0  0  0  0
  -26.2115  -11.4908   -4.9664 C   0  0  0  0  0  0  0  0  0  0  0  0
  -27.3118  -12.0588   -4.4505 N   0  0  0  0  0  0  0  0  0  0  0  0
  -28.2989  -12.4054   -5.2949 C   0  0  0  0  0  0  0  0  0  0  0  0
  -28.2285  -12.2328   -6.6621 C   0  0  0  0  0  0  0  0  0  0  0  0
  -27.0803  -11.6502   -7.2206 C   0  0  0  0  0  0  0  0  0  0  0  0
  -26.0509  -11.2140   -6.3427 C   0  0  0  0  0  0  0  0  0  0  0  0
  -24.8790  -10.5313   -6.7343 C   0  0  0  0  0  0  0  0  0  0  0  0
  -23.8291  -10.2464   -5.8432 C   0  0  0  0  0  0  0  0  0  0  0  0
  -22.1473  -11.7108   -3.4083 C   0  0  0  0  0  0  0  0  0  0  0  0
  -22.9024  -10.5167   -3.6423 O   0  0  0  0  0  0  0  0  0  0  0  0
  -22.7944   -9.6267   -6.4843 O   0  0  0  0  0  0  0  0  0  0  0  0
  -21.6853  -10.3636   -6.9676 C   0  0  0  0  0  0  0  0  0  0  0  0
 36 37  1  0  0  0
 37 26  1  0  0  0
 26 27  1  0  0  0
 26 35  2  0  0  0
 27 28  2  0  0  0
 28 29  1  0  0  0
 28 33  1  0  0  0
 29 30  2  0  0  0
 30 31  1  0  0  0
 31 32  2  0  0  0
 32 25  1  0  0  0
 32 33  1  0  0  0
 25  1  1  0  0  0
  1  2  1  0  0  0
  1 10  1  0  0  0
  2  3  1  0  0  0
  3  4  1  0  0  0
  4  5  1  0  0  0
  4  9  2  0  0  0
  5  6  2  0  0  0
  5 10  1  0  0  0
  6  7  1  0  0  0
  7  8  2  0  0  0
  8  9  1  0  0  0
  9 11  1  0  0  0
 11 12  2  0  0  0
 11 13  1  0  0  0
 13 15  1  0  0  0
 13 14  1  0  0  0
 15 16  1  0  0  0
 15 20  2  0  0  0
 16 17  2  0  0  0
 17 18  1  0  0  0
 18 21  1  0  0  0
 18 19  2  0  0  0
 21 22  1  0  0  0
 21 23  1  0  0  0
 21 24  1  0  0  0
 19 20  1  0  0  0
 33 34  2  0  0  0
 34 35  1  0  0  0
 35 38  1  0  0  0
 38 39  1  0  0  0
M  END
> <minimizedAffinity>
-9.50285

$$$$
