CHEMBL3648103


 28 29  0  0  0  0  0  0  0  0999 V2000
  -28.6412   -9.2139   -5.5615 C   0  0  0  0  0  0  0  0  0  0  0  0
  -29.3726   -8.1224   -5.8975 N   0  0  0  0  0  0  0  0  0  0  0  0
  -29.7667   -7.3065   -4.9165 C   0  0  0  0  0  0  0  0  0  0  0  0
  -29.4218   -7.4931   -3.6318 N   0  0  0  0  0  0  0  0  0  0  0  0
  -28.6499   -8.5578   -3.3364 C   0  0  0  0  0  0  0  0  0  0  0  0
  -28.2300   -9.4720   -4.2691 C   0  0  0  0  0  0  0  0  0  0  0  0
  -27.1910  -10.9442   -3.7144 Br  0  0  0  0  0  0  0  0  0  0  0  0
  -30.5499   -6.2145   -5.2774 N   0  0  0  0  0  0  0  0  0  0  0  0
  -31.5349   -6.4153   -5.1999 H   0  0  0  0  0  0  0  0  0  0  0  0
  -30.1731   -4.8792   -5.4617 C   0  0  0  0  0  0  0  0  0  0  0  0
  -29.6725   -4.4603   -6.7008 C   0  0  0  0  0  0  0  0  0  0  0  0
  -29.1663   -3.1652   -6.8676 C   0  0  0  0  0  0  0  0  0  0  0  0
  -29.1630   -2.2762   -5.7878 C   0  0  0  0  0  0  0  0  0  0  0  0
  -29.6879   -2.6622   -4.5588 C   0  0  0  0  0  0  0  0  0  0  0  0
  -30.1802   -3.9571   -4.4044 C   0  0  0  0  0  0  0  0  0  0  0  0
  -28.4287   -0.6664   -5.9971 S   0  0  0  0  0  0  0  0  0  0  0  0
  -29.7259    0.4982   -5.6588 C   0  0  0  0  0  0  0  0  0  0  0  0
  -27.3885   -0.5467   -4.8684 N   0  0  0  0  0  0  0  0  0  0  0  0
  -28.1393   -0.5412   -7.4132 O   0  0  0  0  0  0  0  0  0  0  0  0
  -27.7820   -0.6912   -3.9394 H   0  0  0  0  0  0  0  0  0  0  0  0
  -28.2104  -10.2576   -6.9481 S   0  0  0  0  0  0  0  0  0  0  0  0
  -28.4779   -9.1029   -8.3814 C   0  0  0  0  0  0  0  0  0  0  0  0
  -27.1716   -8.8948   -9.1997 C   0  0  0  0  0  0  0  0  0  0  0  0
  -27.1547   -9.6589  -10.5223 C   0  0  0  0  0  0  0  0  0  0  0  0
  -26.9787   -7.5125   -9.5207 O   0  0  0  0  0  0  0  0  0  0  0  0
  -27.7603   -7.2021  -10.0104 H   0  0  0  0  0  0  0  0  0  0  0  0
  -30.4588  -10.7048   -8.8570 C   0  0  0  0  0  0  0  0  0  0  0  0
  -29.6876   -9.4578   -9.2708 C   0  0  0  0  0  0  0  0  0  0  0  0
 27 28  1  0  0  0
 28 22  1  0  0  0
 22 21  1  0  0  0
 22 23  1  0  0  0
 21  1  1  0  0  0
  1  2  1  0  0  0
  1  6  2  0  0  0
  2  3  2  0  0  0
  3  8  1  0  0  0
  3  4  1  0  0  0
  8 10  1  0  0  0
  8  9  1  0  0  0
 10 11  1  0  0  0
 10 15  2  0  0  0
 11 12  2  0  0  0
 12 13  1  0  0  0
 13 16  1  0  0  0
 13 14  2  0  0  0
 16 17  1  0  0  0
 16 18  2  0  0  0
 16 19  2  0  0  0
 18 20  1  0  0  0
 14 15  1  0  0  0
  4  5  2  0  0  0
  5  6  1  0  0  0
  6  7  1  0  0  0
 23 24  1  0  0  0
 23 25  1  0  0  0
 25 26  1  0  0  0
M  END
> <minimizedAffinity>
-6.95542

$$$$
