CHEMBL2032024


 42 46  0  0  0  0  0  0  0  0999 V2000
  -16.7390    2.4403  -14.9288 N   0  0  0  0  0  0  0  0  0  0  0  0
  -15.6943    2.0172  -15.7391 C   0  0  0  0  0  0  0  0  0  0  0  0
  -15.7716    1.1122  -16.5652 O   0  0  0  0  0  0  0  0  0  0  0  0
  -16.5181    3.1115  -14.1928 H   0  0  0  0  0  0  0  0  0  0  0  0
  -20.8277    1.2329  -15.2424 C   0  0  0  0  0  0  0  0  0  0  0  0
  -19.8131    0.2848  -15.2333 C   0  0  0  0  0  0  0  0  0  0  0  0
  -18.4759    0.6738  -15.0889 C   0  0  0  0  0  0  0  0  0  0  0  0
  -18.0982    2.0204  -15.0423 C   0  0  0  0  0  0  0  0  0  0  0  0
  -19.1087    2.9850  -15.1519 C   0  0  0  0  0  0  0  0  0  0  0  0
  -20.4564    2.5848  -15.2413 C   0  0  0  0  0  0  0  0  0  0  0  0
  -21.4011    3.5341  -15.3022 F   0  0  0  0  0  0  0  0  0  0  0  0
  -22.1769    0.9419  -15.2144 O   0  0  0  0  0  0  0  0  0  0  0  0
  -26.4541   -1.7259  -14.0217 C   0  0  0  0  0  0  0  0  0  0  0  0
  -25.9935   -1.2367  -15.2336 C   0  0  0  0  0  0  0  0  0  0  0  0
  -24.7273   -0.6648  -15.3101 C   0  0  0  0  0  0  0  0  0  0  0  0
  -23.9330   -0.4738  -14.1571 C   0  0  0  0  0  0  0  0  0  0  0  0
  -22.7270    0.2700  -14.1294 C   0  0  0  0  0  0  0  0  0  0  0  0
  -21.9751    0.3287  -12.9574 C   0  0  0  0  0  0  0  0  0  0  0  0
  -22.4746   -0.3038  -11.8382 C   0  0  0  0  0  0  0  0  0  0  0  0
  -23.6573   -0.9528  -11.8056 N   0  0  0  0  0  0  0  0  0  0  0  0
  -24.3800   -1.0243  -12.9379 C   0  0  0  0  0  0  0  0  0  0  0  0
  -25.6259   -1.6442  -12.8985 C   0  0  0  0  0  0  0  0  0  0  0  0
  -28.2853   -2.0622  -12.5534 C   0  0  0  0  0  0  0  0  0  0  0  0
  -27.6774   -2.3050  -13.8192 O   0  0  0  0  0  0  0  0  0  0  0  0
  -14.4121    2.7445  -15.5957 C   0  0  0  0  0  0  0  0  0  0  0  0
  -13.2117    2.2589  -15.2088 C   0  0  0  0  0  0  0  0  0  0  0  0
  -12.9134    0.8691  -14.7304 C   0  0  0  0  0  0  0  0  0  0  0  0
  -12.1956    3.2285  -15.2777 N   0  0  0  0  0  0  0  0  0  0  0  0
  -12.8577    4.4597  -15.4671 N   0  0  0  0  0  0  0  0  0  0  0  0
  -14.1948    4.2022  -15.8081 C   0  0  0  0  0  0  0  0  0  0  0  0
  -15.0550    4.9511  -16.2335 O   0  0  0  0  0  0  0  0  0  0  0  0
  -12.1853    5.6318  -15.8636 C   0  0  0  0  0  0  0  0  0  0  0  0
  -12.1689    6.7191  -14.9840 C   0  0  0  0  0  0  0  0  0  0  0  0
  -11.4600    7.8768  -15.3072 C   0  0  0  0  0  0  0  0  0  0  0  0
  -10.7930    7.9667  -16.5276 C   0  0  0  0  0  0  0  0  0  0  0  0
  -10.8165    6.8920  -17.4159 C   0  0  0  0  0  0  0  0  0  0  0  0
  -11.4973    5.7189  -17.0789 C   0  0  0  0  0  0  0  0  0  0  0  0
  -10.9924    3.2293  -14.4186 C   0  0  0  0  0  0  0  0  0  0  0  0
  -11.2832    3.9359  -13.0763 C   0  0  0  0  0  0  0  0  0  0  0  0
  -12.1304    3.1432  -12.1780 N   0  0  0  0  0  0  0  0  0  0  0  0
  -13.0672    3.0652  -12.5733 H   0  0  0  0  0  0  0  0  0  0  0  0
  -12.2446    3.6474  -11.2980 H   0  0  0  0  0  0  0  0  0  0  0  0
 23 24  1  0  0  0
 24 13  1  0  0  0
 13 14  1  0  0  0
 13 22  2  0  0  0
 14 15  2  0  0  0
 15 16  1  0  0  0
 16 17  1  0  0  0
 16 21  2  0  0  0
 17 12  1  0  0  0
 17 18  2  0  0  0
 12  5  1  0  0  0
  5  6  1  0  0  0
  5 10  2  0  0  0
  6  7  2  0  0  0
  7  8  1  0  0  0
  8  1  1  0  0  0
  8  9  2  0  0  0
  1  2  1  0  0  0
  1  4  1  0  0  0
  2  3  2  0  0  0
  2 25  1  0  0  0
 25 26  2  0  0  0
 25 30  1  0  0  0
 26 27  1  0  0  0
 26 28  1  0  0  0
 28 38  1  0  0  0
 28 29  1  0  0  0
 38 39  1  0  0  0
 39 40  1  0  0  0
 40 41  1  0  0  0
 40 42  1  0  0  0
 29 32  1  0  0  0
 29 30  1  0  0  0
 32 33  1  0  0  0
 32 37  2  0  0  0
 33 34  2  0  0  0
 34 35  1  0  0  0
 35 36  2  0  0  0
 36 37  1  0  0  0
 30 31  2  0  0  0
  9 10  1  0  0  0
 10 11  1  0  0  0
 18 19  1  0  0  0
 19 20  2  0  0  0
 20 21  1  0  0  0
 21 22  1  0  0  0
M  END
> <minimizedAffinity>
-8.62397

$$$$
