CHEMBL1084974


 44 49  0  0  0  0  0  0  0  0999 V2000
  -22.7912    1.2589  -14.1598 C   0  0  0  0  0  0  0  0  0  0  0  0
  -22.9032    2.5671  -13.6563 C   0  0  0  0  0  0  0  0  0  0  0  0
  -21.7574    3.2484  -13.6759 N   0  0  0  0  0  0  0  0  0  0  0  0
  -20.8540    2.3550  -14.1806 N   0  0  0  0  0  0  0  0  0  0  0  0
  -19.4697    2.5902  -14.4188 C   0  0  0  0  0  0  0  0  0  0  0  0
  -18.9702    3.8431  -14.0595 N   0  0  0  0  0  0  0  0  0  0  0  0
  -18.7463    1.6064  -14.9953 C   0  0  0  0  0  0  0  0  0  0  0  0
  -19.4940    0.3440  -15.2959 C   0  0  0  0  0  0  0  0  0  0  0  0
  -20.7479    0.1141  -15.0783 N   0  0  0  0  0  0  0  0  0  0  0  0
  -21.4569    1.1381  -14.5132 C   0  0  0  0  0  0  0  0  0  0  0  0
  -19.7270    4.5245  -13.9499 H   0  0  0  0  0  0  0  0  0  0  0  0
  -18.2058    4.1705  -14.6427 H   0  0  0  0  0  0  0  0  0  0  0  0
  -25.4555   -1.2613  -13.2461 C   0  0  0  0  0  0  0  0  0  0  0  0
  -25.8188   -1.6841  -14.5308 C   0  0  0  0  0  0  0  0  0  0  0  0
  -25.1960   -1.1797  -15.6759 C   0  0  0  0  0  0  0  0  0  0  0  0
  -24.1918   -0.2231  -15.5580 C   0  0  0  0  0  0  0  0  0  0  0  0
  -23.7917    0.2157  -14.2943 C   0  0  0  0  0  0  0  0  0  0  0  0
  -24.4181   -0.3242  -13.1587 C   0  0  0  0  0  0  0  0  0  0  0  0
  -28.1968   -1.2224   -8.4277 C   0  0  0  0  0  0  0  0  0  0  0  0
  -27.5783   -1.8081   -9.6113 N   0  0  0  0  0  0  0  0  0  0  0  0
  -28.2006   -1.2775  -10.8446 C   0  0  0  0  0  0  0  0  0  0  0  0
  -27.5807   -1.8856  -12.1231 C   0  0  0  0  0  0  0  0  0  0  0  0
  -26.1275   -1.6832  -12.1196 N   0  0  0  0  0  0  0  0  0  0  0  0
  -25.4358   -2.1164  -10.8959 C   0  0  0  0  0  0  0  0  0  0  0  0
  -26.1261   -1.5159   -9.6492 C   0  0  0  0  0  0  0  0  0  0  0  0
  -17.3307    1.7030  -15.3587 C   0  0  0  0  0  0  0  0  0  0  0  0
  -16.8584    2.7651  -16.1389 C   0  0  0  0  0  0  0  0  0  0  0  0
  -15.4922    2.8789  -16.4195 C   0  0  0  0  0  0  0  0  0  0  0  0
  -14.5963    1.9265  -15.9370 C   0  0  0  0  0  0  0  0  0  0  0  0
  -15.0675    0.8501  -15.1855 C   0  0  0  0  0  0  0  0  0  0  0  0
  -16.4280    0.7413  -14.8914 C   0  0  0  0  0  0  0  0  0  0  0  0
  -13.2157    2.0414  -16.2437 N   0  0  0  0  0  0  0  0  0  0  0  0
  -12.8225    1.4486  -16.9755 H   0  0  0  0  0  0  0  0  0  0  0  0
  -12.1046    2.4921  -15.0592 S   0  0  0  0  0  0  0  0  0  0  0  0
  -12.7095    2.2362  -13.7697 O   0  0  0  0  0  0  0  0  0  0  0  0
  -10.8267    1.9009  -15.4046 O   0  0  0  0  0  0  0  0  0  0  0  0
  -11.9399    4.2577  -15.2237 C   0  0  0  0  0  0  0  0  0  0  0  0
  -12.4324    4.8582  -16.3950 C   0  0  0  0  0  0  0  0  0  0  0  0
  -12.4168    6.2445  -16.5347 C   0  0  0  0  0  0  0  0  0  0  0  0
  -11.9189    7.0355  -15.5040 C   0  0  0  0  0  0  0  0  0  0  0  0
  -11.3979    6.4402  -14.3495 C   0  0  0  0  0  0  0  0  0  0  0  0
  -10.8514    7.5104  -13.1017 Cl  0  0  0  0  0  0  0  0  0  0  0  0
  -11.3762    5.0407  -14.2073 C   0  0  0  0  0  0  0  0  0  0  0  0
  -10.6986    4.3400  -12.7706 Cl  0  0  0  0  0  0  0  0  0  0  0  0
 19 20  1  0  0  0
 20 21  1  0  0  0
 20 25  1  0  0  0
 21 22  1  0  0  0
 22 23  1  0  0  0
 23 13  1  0  0  0
 23 24  1  0  0  0
 13 14  1  0  0  0
 13 18  2  0  0  0
 14 15  2  0  0  0
 15 16  1  0  0  0
 16 17  2  0  0  0
 17  1  1  0  0  0
 17 18  1  0  0  0
  1  2  1  0  0  0
  1 10  2  0  0  0
  2  3  2  0  0  0
  3  4  1  0  0  0
  4  5  1  0  0  0
  4 10  1  0  0  0
  5  6  1  0  0  0
  5  7  2  0  0  0
  6 11  1  0  0  0
  6 12  1  0  0  0
  7 26  1  0  0  0
  7  8  1  0  0  0
 26 27  1  0  0  0
 26 31  2  0  0  0
 27 28  2  0  0  0
 28 29  1  0  0  0
 29 32  1  0  0  0
 29 30  2  0  0  0
 32 34  1  0  0  0
 32 33  1  0  0  0
 34 35  2  0  0  0
 34 36  2  0  0  0
 34 37  1  0  0  0
 37 38  1  0  0  0
 37 43  2  0  0  0
 38 39  2  0  0  0
 39 40  1  0  0  0
 40 41  2  0  0  0
 41 42  1  0  0  0
 41 43  1  0  0  0
 43 44  1  0  0  0
 30 31  1  0  0  0
  8  9  2  0  0  0
  9 10  1  0  0  0
 24 25  1  0  0  0
M  END
> <minimizedAffinity>
-8.40515

$$$$
