CHEMBL3644033


 29 30  0  0  0  0  0  0  0  0999 V2000
  -17.1579    1.1618  -15.0293 C   0  0  0  0  0  0  0  0  0  0  0  0
  -17.0458    0.1559  -14.1260 N   0  0  0  0  0  0  0  0  0  0  0  0
  -15.8581    0.0302  -13.5056 C   0  0  0  0  0  0  0  0  0  0  0  0
  -14.7870    0.7705  -13.8222 N   0  0  0  0  0  0  0  0  0  0  0  0
  -14.9350    1.7401  -14.7311 C   0  0  0  0  0  0  0  0  0  0  0  0
  -16.1299    2.0207  -15.3410 C   0  0  0  0  0  0  0  0  0  0  0  0
  -16.2044    3.2165  -16.2133 C   0  0  0  0  0  0  0  0  0  0  0  0
  -16.0138    4.4158  -15.6052 F   0  0  0  0  0  0  0  0  0  0  0  0
  -15.2696    3.1615  -17.2080 F   0  0  0  0  0  0  0  0  0  0  0  0
  -17.4022    3.3101  -16.8572 F   0  0  0  0  0  0  0  0  0  0  0  0
  -15.7177   -0.8819  -12.4585 N   0  0  0  0  0  0  0  0  0  0  0  0
  -15.4936   -0.4552  -11.5755 H   0  0  0  0  0  0  0  0  0  0  0  0
  -15.5725   -2.2781  -12.5743 C   0  0  0  0  0  0  0  0  0  0  0  0
  -15.9444   -3.1466  -11.5313 C   0  0  0  0  0  0  0  0  0  0  0  0
  -15.6849   -4.5182  -11.5855 C   0  0  0  0  0  0  0  0  0  0  0  0
  -15.0347   -5.0432  -12.6991 C   0  0  0  0  0  0  0  0  0  0  0  0
  -14.6571   -4.2072  -13.7540 C   0  0  0  0  0  0  0  0  0  0  0  0
  -14.9393   -2.8327  -13.6938 C   0  0  0  0  0  0  0  0  0  0  0  0
  -14.5711   -6.7617  -12.7013 S   0  0  0  0  0  0  0  0  0  0  0  0
  -13.1676   -6.8269  -13.7811 C   0  0  0  0  0  0  0  0  0  0  0  0
  -14.1211   -7.0931  -11.3628 O   0  0  0  0  0  0  0  0  0  0  0  0
  -15.6495   -7.5048  -13.3246 O   0  0  0  0  0  0  0  0  0  0  0  0
  -18.3857    1.4222  -15.6040 O   0  0  0  0  0  0  0  0  0  0  0  0
  -19.5196    1.5878  -14.7334 C   0  0  0  0  0  0  0  0  0  0  0  0
  -20.5252    0.4904  -15.1033 C   0  0  0  0  0  0  0  0  0  0  0  0
  -21.5454    3.1191  -14.3461 C   0  0  0  0  0  0  0  0  0  0  0  0
  -20.1640    2.9757  -14.9657 C   0  0  0  0  0  0  0  0  0  0  0  0
  -19.3382    4.0214  -14.4407 O   0  0  0  0  0  0  0  0  0  0  0  0
  -19.1644    3.8066  -13.5065 H   0  0  0  0  0  0  0  0  0  0  0  0
 26 27  1  0  0  0
 27 28  1  0  0  0
 27 24  1  0  0  0
 28 29  1  0  0  0
 24 25  1  0  0  0
 24 23  1  0  0  0
 23  1  1  0  0  0
  1  2  1  0  0  0
  1  6  2  0  0  0
  2  3  2  0  0  0
  3 11  1  0  0  0
  3  4  1  0  0  0
 11 13  1  0  0  0
 11 12  1  0  0  0
 13 14  1  0  0  0
 13 18  2  0  0  0
 14 15  2  0  0  0
 15 16  1  0  0  0
 16 19  1  0  0  0
 16 17  2  0  0  0
 19 20  1  0  0  0
 19 21  2  0  0  0
 19 22  2  0  0  0
 17 18  1  0  0  0
  4  5  2  0  0  0
  5  6  1  0  0  0
  6  7  1  0  0  0
  7  8  1  0  0  0
  7  9  1  0  0  0
  7 10  1  0  0  0
M  END
> <minimizedAffinity>
-7.74987

$$$$
