CHEMBL4092638


 34 37  0  0  0  0  0  0  0  0999 V2000
  -25.7179   -1.4437  -12.2133 N   0  0  0  0  0  0  0  0  0  0  0  0
  -26.0299   -1.5406  -10.8674 C   0  0  0  0  0  0  0  0  0  0  0  0
  -25.4282   -0.9728   -9.9624 O   0  0  0  0  0  0  0  0  0  0  0  0
  -27.0940   -2.4024  -10.6294 N   0  0  0  0  0  0  0  0  0  0  0  0
  -26.3909   -1.8090  -12.8698 H   0  0  0  0  0  0  0  0  0  0  0  0
  -27.1431   -3.1935  -11.2539 H   0  0  0  0  0  0  0  0  0  0  0  0
  -22.2237    0.5009  -13.7062 C   0  0  0  0  0  0  0  0  0  0  0  0
  -23.2893    1.2287  -13.1738 C   0  0  0  0  0  0  0  0  0  0  0  0
  -24.4389    0.6055  -12.6937 C   0  0  0  0  0  0  0  0  0  0  0  0
  -24.5876   -0.7772  -12.7403 C   0  0  0  0  0  0  0  0  0  0  0  0
  -23.5529   -1.5257  -13.3123 C   0  0  0  0  0  0  0  0  0  0  0  0
  -22.3911   -0.8900  -13.7893 C   0  0  0  0  0  0  0  0  0  0  0  0
  -21.0306    1.1257  -14.1043 N   0  0  0  0  0  0  0  0  0  0  0  0
  -21.0273    3.2986  -15.3373 C   0  0  0  0  0  0  0  0  0  0  0  0
  -20.9952    2.5954  -13.9913 C   0  0  0  0  0  0  0  0  0  0  0  0
  -20.2904    0.4830  -15.2037 C   0  0  0  0  0  0  0  0  0  0  0  0
  -18.7824    0.6952  -15.1346 C   0  0  0  0  0  0  0  0  0  0  0  0
  -27.5324   -2.6176   -9.2986 C   0  0  0  0  0  0  0  0  0  0  0  0
  -27.7094   -3.9028   -8.7867 C   0  0  0  0  0  0  0  0  0  0  0  0
  -28.3148   -4.0955   -7.5406 C   0  0  0  0  0  0  0  0  0  0  0  0
  -28.7204   -3.0071   -6.7436 C   0  0  0  0  0  0  0  0  0  0  0  0
  -28.4022   -1.7299   -7.2268 C   0  0  0  0  0  0  0  0  0  0  0  0
  -27.8436   -1.5258   -8.4973 C   0  0  0  0  0  0  0  0  0  0  0  0
  -29.4061   -3.2240   -5.4546 C   0  0  0  0  0  0  0  0  0  0  0  0
  -29.3276   -2.2620   -4.4219 C   0  0  0  0  0  0  0  0  0  0  0  0
  -29.9665   -2.4627   -3.2082 C   0  0  0  0  0  0  0  0  0  0  0  0
  -30.7089   -3.5344   -2.8929 N   0  0  0  0  0  0  0  0  0  0  0  0
  -30.7658   -4.4375   -3.8895 C   0  0  0  0  0  0  0  0  0  0  0  0
  -31.4471   -5.6104   -3.8206 N   0  0  0  0  0  0  0  0  0  0  0  0
  -31.3442   -6.3707   -4.9113 N   0  0  0  0  0  0  0  0  0  0  0  0
  -30.5447   -5.6580   -5.7235 C   0  0  0  0  0  0  0  0  0  0  0  0
  -30.1944   -6.2819   -7.0255 C   0  0  0  0  0  0  0  0  0  0  0  0
  -30.1661   -4.3930   -5.1481 C   0  0  0  0  0  0  0  0  0  0  0  0
  -31.9918   -5.9401   -3.0317 H   0  0  0  0  0  0  0  0  0  0  0  0
 14 15  1  0  0  0
 15 13  1  0  0  0
 13 16  1  0  0  0
 13  7  1  0  0  0
 16 17  1  0  0  0
  7  8  1  0  0  0
  7 12  2  0  0  0
  8  9  2  0  0  0
  9 10  1  0  0  0
 10  1  1  0  0  0
 10 11  2  0  0  0
  1  2  1  0  0  0
  1  5  1  0  0  0
  2  3  2  0  0  0
  2  4  1  0  0  0
  4 18  1  0  0  0
  4  6  1  0  0  0
 18 19  1  0  0  0
 18 23  2  0  0  0
 19 20  2  0  0  0
 20 21  1  0  0  0
 21 24  1  0  0  0
 21 22  2  0  0  0
 24 25  1  0  0  0
 24 33  2  0  0  0
 25 26  2  0  0  0
 26 27  1  0  0  0
 27 28  2  0  0  0
 28 29  1  0  0  0
 28 33  1  0  0  0
 29 30  1  0  0  0
 29 34  1  0  0  0
 30 31  2  0  0  0
 31 32  1  0  0  0
 31 33  1  0  0  0
 22 23  1  0  0  0
 11 12  1  0  0  0
M  END
> <minimizedAffinity>
-9.52188

$$$$
