CHEMBL3893498


 32 35  0  0  0  0  0  0  0  0999 V2000
  -28.8795   -3.4963   -6.7925 C   0  0  0  0  0  0  0  0  0  0  0  0
  -28.6710   -2.5834   -5.7487 C   0  0  0  0  0  0  0  0  0  0  0  0
  -28.0806   -1.3288   -5.9640 C   0  0  0  0  0  0  0  0  0  0  0  0
  -27.6748   -0.9455   -7.2415 C   0  0  0  0  0  0  0  0  0  0  0  0
  -27.8663   -1.8272   -8.3024 C   0  0  0  0  0  0  0  0  0  0  0  0
  -28.4670   -3.0820   -8.0664 C   0  0  0  0  0  0  0  0  0  0  0  0
  -28.5966   -9.0184   -4.2615 C   0  0  0  0  0  0  0  0  0  0  0  0
  -29.1308   -8.2681   -3.2852 N   0  0  0  0  0  0  0  0  0  0  0  0
  -29.5421   -7.0353   -3.6357 C   0  0  0  0  0  0  0  0  0  0  0  0
  -29.4398   -6.5227   -4.9125 C   0  0  0  0  0  0  0  0  0  0  0  0
  -28.8960   -7.3824   -5.8515 C   0  0  0  0  0  0  0  0  0  0  0  0
  -28.4692   -8.6271   -5.5406 N   0  0  0  0  0  0  0  0  0  0  0  0
  -28.6869   -6.9358   -7.2751 C   0  0  0  0  0  0  0  0  0  0  0  0
  -29.5786   -5.7486   -7.6223 C   0  0  0  0  0  0  0  0  0  0  0  0
  -29.4711   -4.7267   -6.5747 N   0  0  0  0  0  0  0  0  0  0  0  0
  -29.9292   -5.1422   -5.2465 C   0  0  0  0  0  0  0  0  0  0  0  0
  -29.5641  -11.4430   -3.4011 C   0  0  0  0  0  0  0  0  0  0  0  0
  -27.9991  -10.6227   -3.7865 S   0  0  0  0  0  0  0  0  0  0  0  0
  -27.5477   -1.4812   -9.7151 C   0  0  0  0  0  0  0  0  0  0  0  0
  -28.4681   -1.0131  -10.3855 O   0  0  0  0  0  0  0  0  0  0  0  0
  -26.2709   -1.7667  -10.1835 N   0  0  0  0  0  0  0  0  0  0  0  0
  -25.6720   -2.3367   -9.5984 H   0  0  0  0  0  0  0  0  0  0  0  0
  -25.8300   -1.5278  -11.5128 C   0  0  0  0  0  0  0  0  0  0  0  0
  -26.5401   -1.9756  -12.6325 C   0  0  0  0  0  0  0  0  0  0  0  0
  -26.0468   -1.7957  -13.9255 C   0  0  0  0  0  0  0  0  0  0  0  0
  -24.8279   -1.1601  -14.1206 C   0  0  0  0  0  0  0  0  0  0  0  0
  -24.1021   -0.6755  -13.0223 C   0  0  0  0  0  0  0  0  0  0  0  0
  -24.6262   -0.8412  -11.7205 C   0  0  0  0  0  0  0  0  0  0  0  0
  -22.7601   -0.0175  -13.2361 C   0  0  0  0  0  0  0  0  0  0  0  0
  -22.0228   -0.5895  -14.2305 F   0  0  0  0  0  0  0  0  0  0  0  0
  -22.8680    1.2986  -13.5630 F   0  0  0  0  0  0  0  0  0  0  0  0
  -21.9766   -0.0646  -12.1229 F   0  0  0  0  0  0  0  0  0  0  0  0
 17 18  1  0  0  0
 18  7  1  0  0  0
  7  8  1  0  0  0
  7 12  2  0  0  0
  8  9  2  0  0  0
  9 10  1  0  0  0
 10 11  2  0  0  0
 10 16  1  0  0  0
 11 12  1  0  0  0
 11 13  1  0  0  0
 13 14  1  0  0  0
 14 15  1  0  0  0
 15  1  1  0  0  0
 15 16  1  0  0  0
  1  2  1  0  0  0
  1  6  2  0  0  0
  2  3  2  0  0  0
  3  4  1  0  0  0
  4  5  2  0  0  0
  5 19  1  0  0  0
  5  6  1  0  0  0
 19 20  2  0  0  0
 19 21  1  0  0  0
 21 23  1  0  0  0
 21 22  1  0  0  0
 23 24  1  0  0  0
 23 28  2  0  0  0
 24 25  2  0  0  0
 25 26  1  0  0  0
 26 27  2  0  0  0
 27 29  1  0  0  0
 27 28  1  0  0  0
 29 30  1  0  0  0
 29 31  1  0  0  0
 29 32  1  0  0  0
M  END
> <minimizedAffinity>
-10.87688

$$$$
