CHEMBL3933264


 41 44  0  0  0  0  0  0  0  0999 V2000
  -14.0860   -0.8567  -14.3742 C   0  0  0  0  0  0  0  0  0  0  0  0
  -12.8243   -0.2823  -14.1855 C   0  0  0  0  0  0  0  0  0  0  0  0
  -11.8682   -0.9247  -13.3857 C   0  0  0  0  0  0  0  0  0  0  0  0
  -12.1624   -2.1527  -12.7860 C   0  0  0  0  0  0  0  0  0  0  0  0
  -13.4469   -2.6906  -12.9198 C   0  0  0  0  0  0  0  0  0  0  0  0
  -14.3833   -2.0555  -13.7298 C   0  0  0  0  0  0  0  0  0  0  0  0
  -15.5602   -2.6594  -13.9561 F   0  0  0  0  0  0  0  0  0  0  0  0
  -17.0514    0.8669  -15.5837 N   0  0  0  0  0  0  0  0  0  0  0  0
  -16.1836    0.3307  -14.6391 C   0  0  0  0  0  0  0  0  0  0  0  0
  -16.3078    0.4090  -13.4243 O   0  0  0  0  0  0  0  0  0  0  0  0
  -15.0648   -0.2612  -15.2165 N   0  0  0  0  0  0  0  0  0  0  0  0
  -16.7477    0.8526  -16.5432 H   0  0  0  0  0  0  0  0  0  0  0  0
  -14.6804    0.2661  -15.9922 H   0  0  0  0  0  0  0  0  0  0  0  0
  -21.8325    0.6783  -14.2204 C   0  0  0  0  0  0  0  0  0  0  0  0
  -20.6214    1.4636  -14.6396 C   0  0  0  0  0  0  0  0  0  0  0  0
  -20.7264    2.8510  -14.7844 C   0  0  0  0  0  0  0  0  0  0  0  0
  -19.6149    3.5968  -15.1401 C   0  0  0  0  0  0  0  0  0  0  0  0
  -18.3920    2.9689  -15.3689 C   0  0  0  0  0  0  0  0  0  0  0  0
  -17.3498    3.7850  -15.5726 F   0  0  0  0  0  0  0  0  0  0  0  0
  -18.2540    1.5737  -15.2912 C   0  0  0  0  0  0  0  0  0  0  0  0
  -19.3823    0.8342  -14.8944 C   0  0  0  0  0  0  0  0  0  0  0  0
  -11.1418   -2.7468  -12.0710 O   0  0  0  0  0  0  0  0  0  0  0  0
  -11.4497   -3.6750  -11.0934 C   0  0  0  0  0  0  0  0  0  0  0  0
  -11.6228   -3.3432   -9.7487 C   0  0  0  0  0  0  0  0  0  0  0  0
  -11.8219   -4.3501   -8.8271 C   0  0  0  0  0  0  0  0  0  0  0  0
  -11.9485   -5.6534   -9.1232 N   0  0  0  0  0  0  0  0  0  0  0  0
  -11.8985   -5.9670  -10.4449 C   0  0  0  0  0  0  0  0  0  0  0  0
  -12.0751   -7.2773  -10.9723 C   0  0  0  0  0  0  0  0  0  0  0  0
  -12.0029   -7.3180  -12.3502 C   0  0  0  0  0  0  0  0  0  0  0  0
  -11.6647   -5.7658  -12.9930 S   0  0  0  0  0  0  0  0  0  0  0  0
  -11.6583   -5.0218  -11.4429 C   0  0  0  0  0  0  0  0  0  0  0  0
  -12.1826   -8.4898  -13.1972 C   0  0  0  0  0  0  0  0  0  0  0  0
  -11.8870   -9.6271  -12.8373 O   0  0  0  0  0  0  0  0  0  0  0  0
  -12.7277   -8.2497  -14.4414 N   0  0  0  0  0  0  0  0  0  0  0  0
  -12.9574   -7.2933  -14.6829 H   0  0  0  0  0  0  0  0  0  0  0  0
  -12.9483   -9.2973  -15.4204 C   0  0  0  0  0  0  0  0  0  0  0  0
  -13.3248   -8.7285  -16.7842 C   0  0  0  0  0  0  0  0  0  0  0  0
  -13.6240   -7.2601  -16.6531 C   0  0  0  0  0  0  0  0  0  0  0  0
  -12.8952   -6.3653  -17.0355 O   0  0  0  0  0  0  0  0  0  0  0  0
  -14.7896   -7.0077  -15.9989 O   0  0  0  0  0  0  0  0  0  0  0  0
  -15.2904   -7.8100  -15.7543 H   0  0  0  0  0  0  0  0  0  0  0  0
 14 15  1  0  0  0
 15 16  1  0  0  0
 15 21  2  0  0  0
 16 17  2  0  0  0
 17 18  1  0  0  0
 18 19  1  0  0  0
 18 20  2  0  0  0
 20  8  1  0  0  0
 20 21  1  0  0  0
  8  9  1  0  0  0
  8 12  1  0  0  0
  9 10  2  0  0  0
  9 11  1  0  0  0
 11  1  1  0  0  0
 11 13  1  0  0  0
  1  2  1  0  0  0
  1  6  2  0  0  0
  2  3  2  0  0  0
  3  4  1  0  0  0
  4 22  1  0  0  0
  4  5  2  0  0  0
 22 23  1  0  0  0
 23 24  1  0  0  0
 23 31  2  0  0  0
 24 25  2  0  0  0
 25 26  1  0  0  0
 26 27  2  0  0  0
 27 28  1  0  0  0
 27 31  1  0  0  0
 28 29  2  0  0  0
 29 32  1  0  0  0
 29 30  1  0  0  0
 32 33  2  0  0  0
 32 34  1  0  0  0
 34 36  1  0  0  0
 34 35  1  0  0  0
 36 37  1  0  0  0
 37 38  1  0  0  0
 38 39  2  0  0  0
 38 40  1  0  0  0
 40 41  1  0  0  0
 30 31  1  0  0  0
  5  6  1  0  0  0
  6  7  1  0  0  0
M  END
> <minimizedAffinity>
-8.52289

$$$$
