CHEMBL2006873


 33 37  0  0  0  0  0  0  0  0999 V2000
  -14.1276   -1.9106  -13.0404 C   0  0  0  0  0  0  0  0  0  0  0  0
  -13.4737   -0.9778  -13.8568 C   0  0  0  0  0  0  0  0  0  0  0  0
  -14.1995    0.0031  -14.5391 C   0  0  0  0  0  0  0  0  0  0  0  0
  -15.5839    0.0811  -14.3663 C   0  0  0  0  0  0  0  0  0  0  0  0
  -16.2461   -0.8523  -13.5606 C   0  0  0  0  0  0  0  0  0  0  0  0
  -15.5193   -1.8509  -12.9145 C   0  0  0  0  0  0  0  0  0  0  0  0
  -11.8814   -4.7015   -9.6740 C   0  0  0  0  0  0  0  0  0  0  0  0
  -11.4279   -6.0349   -9.6858 C   0  0  0  0  0  0  0  0  0  0  0  0
  -11.5119   -6.8142  -10.8408 C   0  0  0  0  0  0  0  0  0  0  0  0
  -12.0532   -6.3039  -12.0260 C   0  0  0  0  0  0  0  0  0  0  0  0
  -12.4988   -4.9828  -11.9920 C   0  0  0  0  0  0  0  0  0  0  0  0
  -13.0966   -4.1885  -12.9356 N   0  0  0  0  0  0  0  0  0  0  0  0
  -13.3954   -2.9747  -12.3660 C   0  0  0  0  0  0  0  0  0  0  0  0
  -12.9401   -2.9254  -11.1296 N   0  0  0  0  0  0  0  0  0  0  0  0
  -12.4189   -4.1741  -10.8612 C   0  0  0  0  0  0  0  0  0  0  0  0
  -13.3124   -4.4583  -13.8842 H   0  0  0  0  0  0  0  0  0  0  0  0
  -11.4781   -2.5928   -8.5330 N   0  0  0  0  0  0  0  0  0  0  0  0
  -11.8242   -3.9080   -8.4248 C   0  0  0  0  0  0  0  0  0  0  0  0
  -12.0933   -4.4069   -7.3374 O   0  0  0  0  0  0  0  0  0  0  0  0
  -11.4637   -2.0123   -7.7066 H   0  0  0  0  0  0  0  0  0  0  0  0
  -11.2697   -2.1774   -9.4410 H   0  0  0  0  0  0  0  0  0  0  0  0
  -16.3152    1.1418  -14.9576 N   0  0  0  0  0  0  0  0  0  0  0  0
  -15.8090    2.2563  -15.5873 C   0  0  0  0  0  0  0  0  0  0  0  0
  -16.8574    3.0807  -15.9385 C   0  0  0  0  0  0  0  0  0  0  0  0
  -18.0563    2.4729  -15.4765 C   0  0  0  0  0  0  0  0  0  0  0  0
  -17.6890    1.2630  -14.9246 C   0  0  0  0  0  0  0  0  0  0  0  0
  -19.4439    3.0265  -15.5184 C   0  0  0  0  0  0  0  0  0  0  0  0
  -20.3421    2.3127  -14.5957 N   0  0  0  0  0  0  0  0  0  0  0  0
  -21.5572    3.0992  -14.3190 C   0  0  0  0  0  0  0  0  0  0  0  0
  -22.5492    2.3381  -13.4379 C   0  0  0  0  0  0  0  0  0  0  0  0
  -22.9094    0.9934  -14.0521 C   0  0  0  0  0  0  0  0  0  0  0  0
  -21.6403    0.1980  -14.3202 C   0  0  0  0  0  0  0  0  0  0  0  0
  -20.6628    0.9989  -15.1787 C   0  0  0  0  0  0  0  0  0  0  0  0
 17 18  1  0  0  0
 17 20  1  0  0  0
 17 21  1  0  0  0
 18 19  2  0  0  0
 18  7  1  0  0  0
  7  8  1  0  0  0
  7 15  2  0  0  0
  8  9  2  0  0  0
  9 10  1  0  0  0
 10 11  2  0  0  0
 11 12  1  0  0  0
 11 15  1  0  0  0
 12 13  1  0  0  0
 12 16  1  0  0  0
 13  1  1  0  0  0
 13 14  2  0  0  0
  1  2  1  0  0  0
  1  6  2  0  0  0
  2  3  2  0  0  0
  3  4  1  0  0  0
  4 22  1  0  0  0
  4  5  2  0  0  0
 22 23  1  0  0  0
 22 26  1  0  0  0
 23 24  2  0  0  0
 24 25  1  0  0  0
 25 27  1  0  0  0
 25 26  2  0  0  0
 27 28  1  0  0  0
 28 29  1  0  0  0
 28 33  1  0  0  0
 29 30  1  0  0  0
 30 31  1  0  0  0
 31 32  1  0  0  0
 32 33  1  0  0  0
  5  6  1  0  0  0
 14 15  1  0  0  0
M  END
> <minimizedAffinity>
-8.27238

$$$$
