CHEMBL3694686


 37 40  0  0  0  0  0  0  0  0999 V2000
  -20.0051    2.4080  -14.5196 C   0  0  0  0  0  0  0  0  0  0  0  0
  -20.6133    3.6013  -14.1543 C   0  0  0  0  0  0  0  0  0  0  0  0
  -21.9439    3.4456  -13.8829 N   0  0  0  0  0  0  0  0  0  0  0  0
  -22.1755    2.1638  -14.0496 C   0  0  0  0  0  0  0  0  0  0  0  0
  -23.3834    1.4275  -13.8891 C   0  0  0  0  0  0  0  0  0  0  0  0
  -23.4055    0.0766  -14.0126 C   0  0  0  0  0  0  0  0  0  0  0  0
  -22.1618   -0.6146  -14.3809 C   0  0  0  0  0  0  0  0  0  0  0  0
  -21.0212    0.0761  -14.5359 C   0  0  0  0  0  0  0  0  0  0  0  0
  -21.0230    1.4653  -14.3928 N   0  0  0  0  0  0  0  0  0  0  0  0
  -16.6275    0.7205  -14.9413 C   0  0  0  0  0  0  0  0  0  0  0  0
  -15.9019    1.7406  -15.5518 C   0  0  0  0  0  0  0  0  0  0  0  0
  -16.5217    2.9554  -15.8387 C   0  0  0  0  0  0  0  0  0  0  0  0
  -15.5369    4.3302  -16.6871 Br  0  0  0  0  0  0  0  0  0  0  0  0
  -17.8551    3.1753  -15.4958 C   0  0  0  0  0  0  0  0  0  0  0  0
  -18.6072    2.1572  -14.8955 C   0  0  0  0  0  0  0  0  0  0  0  0
  -17.9900    0.9138  -14.6809 C   0  0  0  0  0  0  0  0  0  0  0  0
  -15.7675   -0.1545  -12.2608 O   0  0  0  0  0  0  0  0  0  0  0  0
  -15.6740   -0.8450  -13.2647 C   0  0  0  0  0  0  0  0  0  0  0  0
  -15.1857   -2.1327  -13.2166 N   0  0  0  0  0  0  0  0  0  0  0  0
  -16.0616   -0.5109  -14.5440 N   0  0  0  0  0  0  0  0  0  0  0  0
  -14.7132   -2.4463  -14.0546 H   0  0  0  0  0  0  0  0  0  0  0  0
  -16.1654   -1.2872  -15.1798 H   0  0  0  0  0  0  0  0  0  0  0  0
  -14.6271   -2.6196  -11.9487 C   0  0  0  0  0  0  0  0  0  0  0  0
  -15.6326   -3.3249  -11.0278 C   0  0  0  0  0  0  0  0  0  0  0  0
  -16.7116   -3.7731  -11.7122 F   0  0  0  0  0  0  0  0  0  0  0  0
  -15.0875   -4.3676  -10.3708 F   0  0  0  0  0  0  0  0  0  0  0  0
  -16.0968   -2.4536  -10.0979 F   0  0  0  0  0  0  0  0  0  0  0  0
  -24.6661   -0.6761  -13.7652 C   0  0  0  0  0  0  0  0  0  0  0  0
  -25.4391   -1.1636  -14.8004 C   0  0  0  0  0  0  0  0  0  0  0  0
  -26.6083   -1.7909  -14.4475 C   0  0  0  0  0  0  0  0  0  0  0  0
  -27.0173   -1.9338  -13.1774 N   0  0  0  0  0  0  0  0  0  0  0  0
  -26.2213   -1.4179  -12.2097 C   0  0  0  0  0  0  0  0  0  0  0  0
  -25.0478   -0.7858  -12.4724 N   0  0  0  0  0  0  0  0  0  0  0  0
  -26.6751   -1.5383  -10.7482 C   0  0  0  0  0  0  0  0  0  0  0  0
  -27.8888   -0.9615  -10.4929 F   0  0  0  0  0  0  0  0  0  0  0  0
  -26.7970   -2.8345  -10.3291 F   0  0  0  0  0  0  0  0  0  0  0  0
  -25.8068   -0.9498   -9.8696 F   0  0  0  0  0  0  0  0  0  0  0  0
 17 18  2  0  0  0
 18 19  1  0  0  0
 18 20  1  0  0  0
 19 23  1  0  0  0
 19 21  1  0  0  0
 23 24  1  0  0  0
 24 25  1  0  0  0
 24 26  1  0  0  0
 24 27  1  0  0  0
 20 10  1  0  0  0
 20 22  1  0  0  0
 10 11  1  0  0  0
 10 16  2  0  0  0
 11 12  2  0  0  0
 12 13  1  0  0  0
 12 14  1  0  0  0
 14 15  2  0  0  0
 15  1  1  0  0  0
 15 16  1  0  0  0
  1  2  2  0  0  0
  1  9  1  0  0  0
  2  3  1  0  0  0
  3  4  2  0  0  0
  4  5  1  0  0  0
  4  9  1  0  0  0
  5  6  2  0  0  0
  6 28  1  0  0  0
  6  7  1  0  0  0
 28 29  1  0  0  0
 28 33  2  0  0  0
 29 30  2  0  0  0
 30 31  1  0  0  0
 31 32  2  0  0  0
 32 34  1  0  0  0
 32 33  1  0  0  0
 34 35  1  0  0  0
 34 36  1  0  0  0
 34 37  1  0  0  0
  7  8  2  0  0  0
  8  9  1  0  0  0
M  END
> <minimizedAffinity>
-10.58567

$$$$
