CHEMBL400216


 30 32  0  0  0  0  0  0  0  0999 V2000
  -26.1163   -9.2648   -5.6670 N   0  0  0  0  0  0  0  0  0  0  0  0
  -27.2303   -9.9279   -6.1665 C   0  0  0  0  0  0  0  0  0  0  0  0
  -27.3476  -11.1482   -6.1135 O   0  0  0  0  0  0  0  0  0  0  0  0
  -26.0864   -8.2620   -5.7492 H   0  0  0  0  0  0  0  0  0  0  0  0
  -21.3998  -11.7949   -3.5489 C   0  0  0  0  0  0  0  0  0  0  0  0
  -22.6129  -11.1244   -4.1405 C   0  0  0  0  0  0  0  0  0  0  0  0
  -23.6294  -10.7145   -3.2714 C   0  0  0  0  0  0  0  0  0  0  0  0
  -24.7810  -10.0807   -3.7483 C   0  0  0  0  0  0  0  0  0  0  0  0
  -24.9582   -9.8577   -5.1102 C   0  0  0  0  0  0  0  0  0  0  0  0
  -23.9460  -10.2683   -5.9863 C   0  0  0  0  0  0  0  0  0  0  0  0
  -22.7607  -10.8897   -5.5209 C   0  0  0  0  0  0  0  0  0  0  0  0
  -21.7195  -11.2588   -6.5594 C   0  0  0  0  0  0  0  0  0  0  0  0
  -21.1180  -12.4649   -6.3834 F   0  0  0  0  0  0  0  0  0  0  0  0
  -22.2469  -11.2902   -7.8161 F   0  0  0  0  0  0  0  0  0  0  0  0
  -20.7064  -10.3472   -6.6120 F   0  0  0  0  0  0  0  0  0  0  0  0
  -28.2596   -9.0838   -6.7616 C   0  0  0  0  0  0  0  0  0  0  0  0
  -29.3390   -8.4461   -6.1530 C   0  0  0  0  0  0  0  0  0  0  0  0
  -30.0293   -7.7999   -7.1996 C   0  0  0  0  0  0  0  0  0  0  0  0
  -29.4344   -7.9589   -8.3775 N   0  0  0  0  0  0  0  0  0  0  0  0
  -28.3418   -8.6899   -8.0861 N   0  0  0  0  0  0  0  0  0  0  0  0
  -27.3917   -8.8902   -9.1578 C   0  0  0  0  0  0  0  0  0  0  0  0
  -29.7632   -8.4307   -4.8617 N   0  0  0  0  0  0  0  0  0  0  0  0
  -30.7460   -8.6103   -4.6627 H   0  0  0  0  0  0  0  0  0  0  0  0
  -29.1105   -7.6642   -3.8092 C   0  0  0  0  0  0  0  0  0  0  0  0
  -29.6448   -6.2494   -3.7599 C   0  0  0  0  0  0  0  0  0  0  0  0
  -28.7794   -5.1520   -3.7864 C   0  0  0  0  0  0  0  0  0  0  0  0
  -29.3211   -3.8746   -3.7942 C   0  0  0  0  0  0  0  0  0  0  0  0
  -30.6466   -3.6203   -3.7757 N   0  0  0  0  0  0  0  0  0  0  0  0
  -31.4679   -4.6909   -3.7555 C   0  0  0  0  0  0  0  0  0  0  0  0
  -31.0229   -6.0033   -3.7481 C   0  0  0  0  0  0  0  0  0  0  0  0
  5  6  1  0  0  0
  6  7  1  0  0  0
  6 11  2  0  0  0
  7  8  2  0  0  0
  8  9  1  0  0  0
  9  1  1  0  0  0
  9 10  2  0  0  0
  1  2  1  0  0  0
  1  4  1  0  0  0
  2  3  2  0  0  0
  2 16  1  0  0  0
 16 17  2  0  0  0
 16 20  1  0  0  0
 17 22  1  0  0  0
 17 18  1  0  0  0
 22 24  1  0  0  0
 22 23  1  0  0  0
 24 25  1  0  0  0
 25 26  1  0  0  0
 25 30  2  0  0  0
 26 27  2  0  0  0
 27 28  1  0  0  0
 28 29  2  0  0  0
 29 30  1  0  0  0
 18 19  2  0  0  0
 19 20  1  0  0  0
 20 21  1  0  0  0
 10 11  1  0  0  0
 11 12  1  0  0  0
 12 13  1  0  0  0
 12 14  1  0  0  0
 12 15  1  0  0  0
M  END
> <minimizedAffinity>
-8.28642

$$$$
