CHEMBL1969502


 29 33  0  0  0  0  0  0  0  0999 V2000
  -32.4362  -10.3689   -7.6339 O   0  0  0  0  0  0  0  0  0  0  0  0
  -31.3311  -10.1911   -8.1580 C   0  0  0  0  0  0  0  0  0  0  0  0
  -30.8947  -11.1364   -9.0631 N   0  0  0  0  0  0  0  0  0  0  0  0
  -29.8213  -11.3108   -9.8764 N   0  0  0  0  0  0  0  0  0  0  0  0
  -28.8098  -10.5193  -10.0321 C   0  0  0  0  0  0  0  0  0  0  0  0
  -28.5710   -9.2765   -9.3692 C   0  0  0  0  0  0  0  0  0  0  0  0
  -27.4776   -8.4612   -9.5930 C   0  0  0  0  0  0  0  0  0  0  0  0
  -27.5718   -7.3870   -8.7513 N   0  0  0  0  0  0  0  0  0  0  0  0
  -28.7031   -7.5033   -7.9836 C   0  0  0  0  0  0  0  0  0  0  0  0
  -29.1773   -6.6658   -6.9716 C   0  0  0  0  0  0  0  0  0  0  0  0
  -30.3652   -7.0101   -6.3176 C   0  0  0  0  0  0  0  0  0  0  0  0
  -31.0697   -8.1425   -6.7359 C   0  0  0  0  0  0  0  0  0  0  0  0
  -30.5726   -8.9931   -7.7625 C   0  0  0  0  0  0  0  0  0  0  0  0
  -29.3624   -8.6645   -8.3755 C   0  0  0  0  0  0  0  0  0  0  0  0
  -31.5672  -11.8947   -9.1526 H   0  0  0  0  0  0  0  0  0  0  0  0
  -26.9052   -6.6289   -8.6782 H   0  0  0  0  0  0  0  0  0  0  0  0
  -30.8866   -6.2246   -5.2561 N   0  0  0  0  0  0  0  0  0  0  0  0
  -30.2869   -6.0671   -4.0136 C   0  0  0  0  0  0  0  0  0  0  0  0
  -29.2968   -6.6605   -3.6121 O   0  0  0  0  0  0  0  0  0  0  0  0
  -31.7901   -5.7981   -5.4001 H   0  0  0  0  0  0  0  0  0  0  0  0
  -30.9302   -5.0403   -3.1277 C   0  0  0  0  0  0  0  0  0  0  0  0
  -32.0746   -4.2420   -3.7208 C   0  0  0  0  0  0  0  0  0  0  0  0
  -30.7972   -3.5373   -3.3516 C   0  0  0  0  0  0  0  0  0  0  0  0
  -29.8044   -3.0201   -4.3673 C   0  0  0  0  0  0  0  0  0  0  0  0
  -30.0630   -2.9748   -5.7465 C   0  0  0  0  0  0  0  0  0  0  0  0
  -29.0963   -2.5317   -6.6560 C   0  0  0  0  0  0  0  0  0  0  0  0
  -27.8527   -2.1050   -6.1998 C   0  0  0  0  0  0  0  0  0  0  0  0
  -27.5833   -2.1040   -4.8354 C   0  0  0  0  0  0  0  0  0  0  0  0
  -28.5507   -2.5521   -3.9338 C   0  0  0  0  0  0  0  0  0  0  0  0
  1  2  2  0  0  0
  2  3  1  0  0  0
  2 13  1  0  0  0
  3  4  1  0  0  0
  3 15  1  0  0  0
  4  5  2  0  0  0
  5  6  1  0  0  0
  6  7  2  0  0  0
  6 14  1  0  0  0
  7  8  1  0  0  0
  8  9  1  0  0  0
  8 16  1  0  0  0
  9 10  1  0  0  0
  9 14  2  0  0  0
 10 11  2  0  0  0
 11 17  1  0  0  0
 11 12  1  0  0  0
 17 18  1  0  0  0
 17 20  1  0  0  0
 18 19  2  0  0  0
 18 21  1  0  0  0
 21 22  1  0  0  0
 21 23  1  0  0  0
 22 23  1  0  0  0
 23 24  1  0  0  0
 24 25  1  0  0  0
 24 29  2  0  0  0
 25 26  2  0  0  0
 26 27  1  0  0  0
 27 28  2  0  0  0
 28 29  1  0  0  0
 12 13  2  0  0  0
 13 14  1  0  0  0
M  END
> <minimizedAffinity>
-8.85561

$$$$
