CHEMBL13485


 32 34  0  0  0  0  0  0  0  0999 V2000
  -14.1859    0.5244  -15.2898 C   0  0  0  0  0  0  0  0  0  0  0  0
  -14.7491    0.9102  -16.4985 C   0  0  0  0  0  0  0  0  0  0  0  0
  -14.1988    1.1957  -17.8510 C   0  0  0  0  0  0  0  0  0  0  0  0
  -16.1074    0.9544  -16.3215 N   0  0  0  0  0  0  0  0  0  0  0  0
  -16.4763    0.6201  -15.0428 C   0  0  0  0  0  0  0  0  0  0  0  0
  -15.2974    0.3234  -14.3700 C   0  0  0  0  0  0  0  0  0  0  0  0
  -15.1688   -0.1223  -12.9514 C   0  0  0  0  0  0  0  0  0  0  0  0
  -16.7472    1.2759  -17.0356 H   0  0  0  0  0  0  0  0  0  0  0  0
  -17.8637    0.5577  -14.6955 C   0  0  0  0  0  0  0  0  0  0  0  0
  -18.7070    1.6057  -14.6275 C   0  0  0  0  0  0  0  0  0  0  0  0
  -18.3634    3.0708  -14.8241 C   0  0  0  0  0  0  0  0  0  0  0  0
  -17.2913    3.5935  -15.0540 O   0  0  0  0  0  0  0  0  0  0  0  0
  -19.5574    3.7474  -14.7390 N   0  0  0  0  0  0  0  0  0  0  0  0
  -20.6105    2.8908  -14.4797 C   0  0  0  0  0  0  0  0  0  0  0  0
  -21.9270    3.2827  -14.3392 C   0  0  0  0  0  0  0  0  0  0  0  0
  -22.8585    2.2823  -14.0789 C   0  0  0  0  0  0  0  0  0  0  0  0
  -22.4455    0.9414  -13.9760 C   0  0  0  0  0  0  0  0  0  0  0  0
  -23.6389   -0.2627  -13.6609 Cl  0  0  0  0  0  0  0  0  0  0  0  0
  -21.0965    0.5670  -14.1260 C   0  0  0  0  0  0  0  0  0  0  0  0
  -20.1696    1.5660  -14.3818 C   0  0  0  0  0  0  0  0  0  0  0  0
  -19.6142    4.7465  -14.8587 H   0  0  0  0  0  0  0  0  0  0  0  0
  -12.3853   -1.0380  -14.8361 N   0  0  0  0  0  0  0  0  0  0  0  0
  -12.7672    0.2763  -15.0102 C   0  0  0  0  0  0  0  0  0  0  0  0
  -11.9523    1.1996  -14.9400 O   0  0  0  0  0  0  0  0  0  0  0  0
  -12.9892   -1.7665  -15.1948 H   0  0  0  0  0  0  0  0  0  0  0  0
  -10.9990   -1.3557  -14.5667 C   0  0  0  0  0  0  0  0  0  0  0  0
  -10.7495   -2.7926  -14.0549 C   0  0  0  0  0  0  0  0  0  0  0  0
  -11.9612   -3.5604  -13.6738 N   0  0  0  0  0  0  0  0  0  0  0  0
  -11.4246   -6.0151  -13.2933 C   0  0  0  0  0  0  0  0  0  0  0  0
  -11.9098   -4.9235  -14.2388 C   0  0  0  0  0  0  0  0  0  0  0  0
  -12.1725   -3.5413  -12.2113 C   0  0  0  0  0  0  0  0  0  0  0  0
  -13.5983   -3.2903  -11.7165 C   0  0  0  0  0  0  0  0  0  0  0  0
 29 30  1  0  0  0
 30 28  1  0  0  0
 28 31  1  0  0  0
 28 27  1  0  0  0
 31 32  1  0  0  0
 27 26  1  0  0  0
 26 22  1  0  0  0
 22 23  1  0  0  0
 22 25  1  0  0  0
 23 24  2  0  0  0
 23  1  1  0  0  0
  1  2  2  0  0  0
  1  6  1  0  0  0
  2  3  1  0  0  0
  2  4  1  0  0  0
  4  5  1  0  0  0
  4  8  1  0  0  0
  5  9  1  0  0  0
  5  6  2  0  0  0
  9 10  2  0  0  0
 10 11  1  0  0  0
 10 20  1  0  0  0
 11 12  2  0  0  0
 11 13  1  0  0  0
 13 14  1  0  0  0
 13 21  1  0  0  0
 14 15  1  0  0  0
 14 20  2  0  0  0
 15 16  2  0  0  0
 16 17  1  0  0  0
 17 18  1  0  0  0
 17 19  2  0  0  0
 19 20  1  0  0  0
  6  7  1  0  0  0
M  END
> <minimizedAffinity>
-6.90035

$$$$
