CHEMBL220550


 41 45  0  0  0  0  0  0  0  0999 V2000
  -15.2241    1.6857  -15.5312 C   0  0  0  0  0  0  0  0  0  0  0  0
  -14.8228    0.5796  -14.7663 C   0  0  0  0  0  0  0  0  0  0  0  0
  -15.7491   -0.1116  -13.9757 C   0  0  0  0  0  0  0  0  0  0  0  0
  -17.0504    0.3765  -13.8411 C   0  0  0  0  0  0  0  0  0  0  0  0
  -17.4387    1.5126  -14.5510 C   0  0  0  0  0  0  0  0  0  0  0  0
  -16.5442    2.1603  -15.4217 C   0  0  0  0  0  0  0  0  0  0  0  0
  -17.0258    3.3394  -16.2179 C   0  0  0  0  0  0  0  0  0  0  0  0
  -15.3278   -1.3865  -13.3306 C   0  0  0  0  0  0  0  0  0  0  0  0
  -14.2860   -1.4117  -12.6862 O   0  0  0  0  0  0  0  0  0  0  0  0
  -16.1318   -2.4793  -13.6273 N   0  0  0  0  0  0  0  0  0  0  0  0
  -16.7879   -2.3616  -14.3789 H   0  0  0  0  0  0  0  0  0  0  0  0
  -15.8452   -3.8014  -13.2197 C   0  0  0  0  0  0  0  0  0  0  0  0
  -15.3955   -4.7086  -14.2004 C   0  0  0  0  0  0  0  0  0  0  0  0
  -15.0486   -6.0466  -13.9179 C   0  0  0  0  0  0  0  0  0  0  0  0
  -15.1596   -6.4698  -12.5942 C   0  0  0  0  0  0  0  0  0  0  0  0
  -15.5922   -5.5710  -11.6043 C   0  0  0  0  0  0  0  0  0  0  0  0
  -15.9280   -4.2333  -11.8896 C   0  0  0  0  0  0  0  0  0  0  0  0
  -14.5065   -6.8883  -15.0699 C   0  0  0  0  0  0  0  0  0  0  0  0
  -13.5684   -8.0703  -14.7293 C   0  0  0  0  0  0  0  0  0  0  0  0
  -13.0612   -8.8110  -15.9830 C   0  0  0  0  0  0  0  0  0  0  0  0
  -12.5362   -7.8791  -17.0749 C   0  0  0  0  0  0  0  0  0  0  0  0
  -13.5460   -6.7849  -17.3878 C   0  0  0  0  0  0  0  0  0  0  0  0
  -13.8400   -5.9822  -16.1245 C   0  0  0  0  0  0  0  0  0  0  0  0
  -16.3254   -3.5590  -10.7637 O   0  0  0  0  0  0  0  0  0  0  0  0
  -15.3930   -3.0668   -9.8161 C   0  0  0  0  0  0  0  0  0  0  0  0
  -14.3448    2.3700  -16.3682 O   0  0  0  0  0  0  0  0  0  0  0  0
  -13.8825    2.7171  -18.7267 C   0  0  0  0  0  0  0  0  0  0  0  0
  -13.6535    2.0767  -19.9684 C   0  0  0  0  0  0  0  0  0  0  0  0
  -13.6217    0.6919  -20.0857 C   0  0  0  0  0  0  0  0  0  0  0  0
  -13.8657   -0.0552  -18.9561 C   0  0  0  0  0  0  0  0  0  0  0  0
  -14.1433    0.4903  -17.7584 N   0  0  0  0  0  0  0  0  0  0  0  0
  -14.1068    1.8479  -17.6418 C   0  0  0  0  0  0  0  0  0  0  0  0
  -12.7369    6.0487  -17.7950 C   0  0  0  0  0  0  0  0  0  0  0  0
  -13.6526    6.9009  -18.2595 N   0  0  0  0  0  0  0  0  0  0  0  0
  -14.6832    6.3687  -18.9392 C   0  0  0  0  0  0  0  0  0  0  0  0
  -14.8354    5.0213  -19.1726 C   0  0  0  0  0  0  0  0  0  0  0  0
  -13.8416    4.2010  -18.6837 C   0  0  0  0  0  0  0  0  0  0  0  0
  -12.7813    4.7267  -18.0116 N   0  0  0  0  0  0  0  0  0  0  0  0
  -11.6605    6.0800  -15.6452 C   0  0  0  0  0  0  0  0  0  0  0  0
  -11.7643    6.6022  -16.9876 N   0  0  0  0  0  0  0  0  0  0  0  0
  -10.9027    6.5974  -17.5272 H   0  0  0  0  0  0  0  0  0  0  0  0
 39 40  1  0  0  0
 40 33  1  0  0  0
 40 41  1  0  0  0
 33 34  1  0  0  0
 33 38  2  0  0  0
 34 35  2  0  0  0
 35 36  1  0  0  0
 36 37  2  0  0  0
 37 27  1  0  0  0
 37 38  1  0  0  0
 27 28  1  0  0  0
 27 32  2  0  0  0
 28 29  2  0  0  0
 29 30  1  0  0  0
 30 31  2  0  0  0
 31 32  1  0  0  0
 32 26  1  0  0  0
 26  1  1  0  0  0
  1  2  1  0  0  0
  1  6  2  0  0  0
  2  3  2  0  0  0
  3  8  1  0  0  0
  3  4  1  0  0  0
  8  9  2  0  0  0
  8 10  1  0  0  0
 10 12  1  0  0  0
 10 11  1  0  0  0
 12 13  1  0  0  0
 12 17  2  0  0  0
 13 14  2  0  0  0
 14 18  1  0  0  0
 14 15  1  0  0  0
 18 19  1  0  0  0
 18 23  1  0  0  0
 19 20  1  0  0  0
 20 21  1  0  0  0
 21 22  1  0  0  0
 22 23  1  0  0  0
 15 16  2  0  0  0
 16 17  1  0  0  0
 17 24  1  0  0  0
 24 25  1  0  0  0
  4  5  2  0  0  0
  5  6  1  0  0  0
  6  7  1  0  0  0
M  END
> <minimizedAffinity>
-7.96979

$$$$
