CHEMBL3938494


 45 49  0  0  0  0  0  0  0  0999 V2000
  -28.3036  -11.0356   -4.8207 C   0  0  0  0  0  0  0  0  0  0  0  0
  -28.7737  -10.6526   -6.0735 C   0  0  0  0  0  0  0  0  0  0  0  0
  -27.9960  -10.8354   -7.2395 C   0  0  0  0  0  0  0  0  0  0  0  0
  -28.3810  -10.3891   -8.5102 C   0  0  0  0  0  0  0  0  0  0  0  0
  -27.6786  -10.6880   -9.6164 N   0  0  0  0  0  0  0  0  0  0  0  0
  -26.5585  -11.3857   -9.4357 C   0  0  0  0  0  0  0  0  0  0  0  0
  -26.0545  -11.7873   -8.2646 N   0  0  0  0  0  0  0  0  0  0  0  0
  -26.7788  -11.5117   -7.1712 C   0  0  0  0  0  0  0  0  0  0  0  0
  -26.3278  -11.9253   -5.9253 C   0  0  0  0  0  0  0  0  0  0  0  0
  -27.0758  -11.7150   -4.7573 C   0  0  0  0  0  0  0  0  0  0  0  0
  -29.8580  -11.7580   -3.1261 C   0  0  0  0  0  0  0  0  0  0  0  0
  -28.9776  -10.7765   -3.6605 O   0  0  0  0  0  0  0  0  0  0  0  0
  -29.5158   -9.5568   -8.6143 N   0  0  0  0  0  0  0  0  0  0  0  0
  -30.3513  -10.1125   -8.7587 H   0  0  0  0  0  0  0  0  0  0  0  0
  -29.7563   -8.3012   -8.0384 C   0  0  0  0  0  0  0  0  0  0  0  0
  -28.7891   -7.3030   -8.1719 C   0  0  0  0  0  0  0  0  0  0  0  0
  -28.8660   -6.1222   -7.4409 C   0  0  0  0  0  0  0  0  0  0  0  0
  -29.8899   -5.9130   -6.5120 C   0  0  0  0  0  0  0  0  0  0  0  0
  -30.8966   -6.8825   -6.4204 C   0  0  0  0  0  0  0  0  0  0  0  0
  -32.2069   -6.7038   -5.3002 Cl  0  0  0  0  0  0  0  0  0  0  0  0
  -30.8280   -8.0616   -7.1681 C   0  0  0  0  0  0  0  0  0  0  0  0
  -29.8959   -4.7884   -5.6384 N   0  0  0  0  0  0  0  0  0  0  0  0
  -29.7747   -3.4752   -6.0364 C   0  0  0  0  0  0  0  0  0  0  0  0
  -29.7287   -3.0990   -7.2051 O   0  0  0  0  0  0  0  0  0  0  0  0
  -29.6494   -2.6086   -4.9629 N   0  0  0  0  0  0  0  0  0  0  0  0
  -29.8211   -5.0054   -4.6504 H   0  0  0  0  0  0  0  0  0  0  0  0
  -29.1724   -3.0001   -4.1656 H   0  0  0  0  0  0  0  0  0  0  0  0
  -29.4537   -1.2206   -5.1959 C   0  0  0  0  0  0  0  0  0  0  0  0
  -30.5622   -0.3925   -5.4323 C   0  0  0  0  0  0  0  0  0  0  0  0
  -30.3903    0.9621   -5.7133 C   0  0  0  0  0  0  0  0  0  0  0  0
  -29.1096    1.4992   -5.7577 C   0  0  0  0  0  0  0  0  0  0  0  0
  -28.0024    0.6844   -5.5112 C   0  0  0  0  0  0  0  0  0  0  0  0
  -28.1589   -0.6833   -5.2265 C   0  0  0  0  0  0  0  0  0  0  0  0
  -26.9344   -1.5313   -5.0312 C   0  0  0  0  0  0  0  0  0  0  0  0
  -26.4762  -12.2294   -3.6312 O   0  0  0  0  0  0  0  0  0  0  0  0
  -25.6851  -11.3030   -2.8932 C   0  0  0  0  0  0  0  0  0  0  0  0
  -24.3335  -11.9184   -2.5608 C   0  0  0  0  0  0  0  0  0  0  0  0
  -23.2378  -11.0528   -3.1967 C   0  0  0  0  0  0  0  0  0  0  0  0
  -23.0236  -11.3395   -4.6140 N   0  0  0  0  0  0  0  0  0  0  0  0
  -23.2881  -10.1778   -5.4799 C   0  0  0  0  0  0  0  0  0  0  0  0
  -23.0842  -10.5463   -6.9643 C   0  0  0  0  0  0  0  0  0  0  0  0
  -21.7361  -11.0512   -7.2901 N   0  0  0  0  0  0  0  0  0  0  0  0
  -20.7474   -9.9769   -7.2669 C   0  0  0  0  0  0  0  0  0  0  0  0
  -21.3882  -12.1353   -6.3467 C   0  0  0  0  0  0  0  0  0  0  0  0
  -21.6460  -11.8204   -4.8520 C   0  0  0  0  0  0  0  0  0  0  0  0
 11 12  1  0  0  0
 12  1  1  0  0  0
  1  2  1  0  0  0
  1 10  2  0  0  0
  2  3  2  0  0  0
  3  4  1  0  0  0
  3  8  1  0  0  0
  4 13  1  0  0  0
  4  5  2  0  0  0
 13 15  1  0  0  0
 13 14  1  0  0  0
 15 16  1  0  0  0
 15 21  2  0  0  0
 16 17  2  0  0  0
 17 18  1  0  0  0
 18 22  1  0  0  0
 18 19  2  0  0  0
 22 23  1  0  0  0
 22 26  1  0  0  0
 23 24  2  0  0  0
 23 25  1  0  0  0
 25 28  1  0  0  0
 25 27  1  0  0  0
 28 29  1  0  0  0
 28 33  2  0  0  0
 29 30  2  0  0  0
 30 31  1  0  0  0
 31 32  2  0  0  0
 32 33  1  0  0  0
 33 34  1  0  0  0
 19 20  1  0  0  0
 19 21  1  0  0  0
  5  6  1  0  0  0
  6  7  2  0  0  0
  7  8  1  0  0  0
  8  9  2  0  0  0
  9 10  1  0  0  0
 10 35  1  0  0  0
 35 36  1  0  0  0
 36 37  1  0  0  0
 37 38  1  0  0  0
 38 39  1  0  0  0
 39 40  1  0  0  0
 39 45  1  0  0  0
 40 41  1  0  0  0
 41 42  1  0  0  0
 42 43  1  0  0  0
 42 44  1  0  0  0
 44 45  1  0  0  0
M  END
> <minimizedAffinity>
-8.30027

$$$$
