CHEMBL3648100


 25 26  0  0  0  0  0  0  0  0999 V2000
  -28.3507   -5.8030   -8.1903 N   0  0  0  0  0  0  0  0  0  0  0  0
  -27.5603   -5.9957   -8.7876 H   0  0  0  0  0  0  0  0  0  0  0  0
  -28.3367   -3.3100   -5.6335 C   0  0  0  0  0  0  0  0  0  0  0  0
  -28.3693   -4.5291   -6.2297 N   0  0  0  0  0  0  0  0  0  0  0  0
  -28.2492   -4.5619   -7.5634 C   0  0  0  0  0  0  0  0  0  0  0  0
  -28.0290   -3.4646   -8.3050 N   0  0  0  0  0  0  0  0  0  0  0  0
  -27.9853   -2.2765   -7.6809 C   0  0  0  0  0  0  0  0  0  0  0  0
  -28.1609   -2.1281   -6.3307 C   0  0  0  0  0  0  0  0  0  0  0  0
  -28.1148   -0.3975   -5.5816 Br  0  0  0  0  0  0  0  0  0  0  0  0
  -28.5423   -3.3310   -3.8565 S   0  0  0  0  0  0  0  0  0  0  0  0
  -30.3713   -3.1812   -3.7441 C   0  0  0  0  0  0  0  0  0  0  0  0
  -30.6940   -2.7684   -2.3074 C   0  0  0  0  0  0  0  0  0  0  0  0
  -32.0589   -4.9943   -3.1042 C   0  0  0  0  0  0  0  0  0  0  0  0
  -31.0522   -4.5049   -4.1367 C   0  0  0  0  0  0  0  0  0  0  0  0
  -29.1564   -6.8917   -7.8227 C   0  0  0  0  0  0  0  0  0  0  0  0
  -28.6679   -8.1981   -7.9371 C   0  0  0  0  0  0  0  0  0  0  0  0
  -29.5063   -9.2978   -7.7088 C   0  0  0  0  0  0  0  0  0  0  0  0
  -30.8447   -9.0935   -7.3554 C   0  0  0  0  0  0  0  0  0  0  0  0
  -31.3385   -7.8030   -7.1980 C   0  0  0  0  0  0  0  0  0  0  0  0
  -30.4945   -6.7185   -7.4338 C   0  0  0  0  0  0  0  0  0  0  0  0
  -31.9148  -10.5059   -7.1584 S   0  0  0  0  0  0  0  0  0  0  0  0
  -31.4699  -11.6280   -8.4614 C   0  0  0  0  0  0  0  0  0  0  0  0
  -31.4902  -11.1528   -5.8250 N   0  0  0  0  0  0  0  0  0  0  0  0
  -33.2520  -10.0400   -7.4705 O   0  0  0  0  0  0  0  0  0  0  0  0
  -30.4927  -11.3605   -5.7770 H   0  0  0  0  0  0  0  0  0  0  0  0
 13 14  1  0  0  0
 14 11  1  0  0  0
 11 12  1  0  0  0
 11 10  1  0  0  0
 10  3  1  0  0  0
  3  4  1  0  0  0
  3  8  2  0  0  0
  4  5  2  0  0  0
  5  1  1  0  0  0
  5  6  1  0  0  0
  1 15  1  0  0  0
  1  2  1  0  0  0
 15 16  1  0  0  0
 15 20  2  0  0  0
 16 17  2  0  0  0
 17 18  1  0  0  0
 18 21  1  0  0  0
 18 19  2  0  0  0
 21 22  1  0  0  0
 21 23  2  0  0  0
 21 24  2  0  0  0
 23 25  1  0  0  0
 19 20  1  0  0  0
  6  7  2  0  0  0
  7  8  1  0  0  0
  8  9  1  0  0  0
M  END
> <minimizedAffinity>
-7.19050

$$$$
