CHEMBL3901357


 37 41  0  0  0  0  0  0  0  0999 V2000
  -28.2238   -9.3192   -5.6537 N   0  0  0  0  0  0  0  0  0  0  0  0
  -28.3266   -8.0283   -4.9965 C   0  0  0  0  0  0  0  0  0  0  0  0
  -29.1113   -8.0384   -3.8394 C   0  0  0  0  0  0  0  0  0  0  0  0
  -29.7619   -6.8937   -3.4335 C   0  0  0  0  0  0  0  0  0  0  0  0
  -29.5801   -5.6921   -4.0723 C   0  0  0  0  0  0  0  0  0  0  0  0
  -30.4204   -4.7294   -3.6819 N   0  0  0  0  0  0  0  0  0  0  0  0
  -30.2030   -3.5021   -4.1799 C   0  0  0  0  0  0  0  0  0  0  0  0
  -29.1259   -3.2286   -4.9948 C   0  0  0  0  0  0  0  0  0  0  0  0
  -28.3147   -4.2296   -5.4761 N   0  0  0  0  0  0  0  0  0  0  0  0
  -28.5739   -5.5339   -5.0552 C   0  0  0  0  0  0  0  0  0  0  0  0
  -27.9764   -6.7575   -5.5346 C   0  0  0  0  0  0  0  0  0  0  0  0
  -28.8334   -1.8189   -5.2162 C   0  0  0  0  0  0  0  0  0  0  0  0
  -27.7686   -1.0286   -4.7116 C   0  0  0  0  0  0  0  0  0  0  0  0
  -27.9378    0.2796   -4.9422 N   0  0  0  0  0  0  0  0  0  0  0  0
  -29.1099    0.3291   -5.5975 N   0  0  0  0  0  0  0  0  0  0  0  0
  -29.4963    1.5203   -6.3165 C   0  0  0  0  0  0  0  0  0  0  0  0
  -29.7619   -0.8738   -5.6174 C   0  0  0  0  0  0  0  0  0  0  0  0
  -30.8962   -9.8015   -8.2494 C   0  0  0  0  0  0  0  0  0  0  0  0
  -30.1387  -10.2119   -9.3460 C   0  0  0  0  0  0  0  0  0  0  0  0
  -28.7620  -10.3681   -9.2205 C   0  0  0  0  0  0  0  0  0  0  0  0
  -28.1313  -10.1097   -7.9984 C   0  0  0  0  0  0  0  0  0  0  0  0
  -28.8518   -9.7075   -6.8625 C   0  0  0  0  0  0  0  0  0  0  0  0
  -30.2517   -9.5839   -7.0134 C   0  0  0  0  0  0  0  0  0  0  0  0
  -32.7849   -8.6494   -7.3297 C   0  0  0  0  0  0  0  0  0  0  0  0
  -32.2453   -9.5579   -8.2927 O   0  0  0  0  0  0  0  0  0  0  0  0
  -27.9031  -10.7527  -10.2187 O   0  0  0  0  0  0  0  0  0  0  0  0
  -27.1202   -9.7361  -10.8294 C   0  0  0  0  0  0  0  0  0  0  0  0
  -28.1815  -10.3444   -4.5330 C   0  0  0  0  0  0  0  0  0  0  0  0
  -27.8812  -11.8313   -4.8992 C   0  0  0  0  0  0  0  0  0  0  0  0
  -26.4773  -12.2082   -4.6023 N   0  0  0  0  0  0  0  0  0  0  0  0
  -26.0755  -12.4653   -3.2157 C   0  0  0  0  0  0  0  0  0  0  0  0
  -25.1685  -11.4220   -2.5214 C   0  0  0  0  0  0  0  0  0  0  0  0
  -24.5076  -12.0262   -1.2750 C   0  0  0  0  0  0  0  0  0  0  0  0
  -24.0908  -10.8679   -3.4530 C   0  0  0  0  0  0  0  0  0  0  0  0
  -24.7326  -10.4004   -4.7594 C   0  0  0  0  0  0  0  0  0  0  0  0
  -23.6757   -9.7982   -5.6851 C   0  0  0  0  0  0  0  0  0  0  0  0
  -25.4448  -11.5858   -5.4276 C   0  0  0  0  0  0  0  0  0  0  0  0
 24 25  1  0  0  0
 25 18  1  0  0  0
 18 19  1  0  0  0
 18 23  2  0  0  0
 19 20  2  0  0  0
 20 26  1  0  0  0
 20 21  1  0  0  0
 26 27  1  0  0  0
 21 22  2  0  0  0
 22  1  1  0  0  0
 22 23  1  0  0  0
  1 28  1  0  0  0
  1  2  1  0  0  0
 28 29  1  0  0  0
 29 30  1  0  0  0
 30 31  1  0  0  0
 30 37  1  0  0  0
 31 32  1  0  0  0
 32 33  1  0  0  0
 32 34  1  0  0  0
 34 35  1  0  0  0
 35 36  1  0  0  0
 35 37  1  0  0  0
  2  3  1  0  0  0
  2 11  2  0  0  0
  3  4  2  0  0  0
  4  5  1  0  0  0
  5  6  1  0  0  0
  5 10  2  0  0  0
  6  7  2  0  0  0
  7  8  1  0  0  0
  8 12  1  0  0  0
  8  9  2  0  0  0
 12 13  1  0  0  0
 12 17  2  0  0  0
 13 14  2  0  0  0
 14 15  1  0  0  0
 15 16  1  0  0  0
 15 17  1  0  0  0
  9 10  1  0  0  0
 10 11  1  0  0  0
M  END
> <minimizedAffinity>
-8.36366

$$$$
