CHEMBL3931458


 41 45  0  0  0  0  0  0  0  0999 V2000
  -16.1681    1.1511  -14.3483 C   0  0  0  0  0  0  0  0  0  0  0  0
  -17.5082    1.3838  -14.4729 N   0  0  0  0  0  0  0  0  0  0  0  0
  -18.0069    2.2289  -15.4238 C   0  0  0  0  0  0  0  0  0  0  0  0
  -17.1594    2.8332  -16.2719 N   0  0  0  0  0  0  0  0  0  0  0  0
  -15.8137    2.6326  -16.0957 C   0  0  0  0  0  0  0  0  0  0  0  0
  -15.2440    1.7870  -15.1575 C   0  0  0  0  0  0  0  0  0  0  0  0
  -13.7605    1.6614  -15.0698 C   0  0  0  0  0  0  0  0  0  0  0  0
  -13.2018    1.9779  -13.8633 F   0  0  0  0  0  0  0  0  0  0  0  0
  -13.3443    0.3902  -15.3283 F   0  0  0  0  0  0  0  0  0  0  0  0
  -13.1116    2.4535  -15.9699 F   0  0  0  0  0  0  0  0  0  0  0  0
  -19.4161    2.4851  -15.5894 N   0  0  0  0  0  0  0  0  0  0  0  0
  -19.5308    3.2422  -16.2522 H   0  0  0  0  0  0  0  0  0  0  0  0
  -20.5337    2.0859  -14.8219 C   0  0  0  0  0  0  0  0  0  0  0  0
  -20.7064    0.7395  -14.5383 C   0  0  0  0  0  0  0  0  0  0  0  0
  -21.9458    0.2781  -14.0695 C   0  0  0  0  0  0  0  0  0  0  0  0
  -22.9149    0.9891  -13.3994 C   0  0  0  0  0  0  0  0  0  0  0  0
  -22.7994    2.3175  -13.6702 N   0  0  0  0  0  0  0  0  0  0  0  0
  -21.6955    2.8017  -14.4517 C   0  0  0  0  0  0  0  0  0  0  0  0
  -23.9046    0.3172  -12.2873 C   0  0  0  0  0  0  0  0  0  0  0  0
  -23.1482   -0.8904  -11.7004 C   0  0  0  0  0  0  0  0  0  0  0  0
  -23.4992   -2.2283  -12.3557 C   0  0  0  0  0  0  0  0  0  0  0  0
  -24.8746   -2.6828  -12.1936 N   0  0  0  0  0  0  0  0  0  0  0  0
  -25.8730   -1.7107  -12.5883 C   0  0  0  0  0  0  0  0  0  0  0  0
  -25.4970   -0.2299  -12.1793 C   0  0  0  0  0  0  0  0  0  0  0  0
  -25.0477   -2.9582  -11.2308 H   0  0  0  0  0  0  0  0  0  0  0  0
  -15.6519    0.2395  -13.2344 C   0  0  0  0  0  0  0  0  0  0  0  0
  -15.5313   -1.2333  -13.5831 C   0  0  0  0  0  0  0  0  0  0  0  0
  -14.1261   -3.1226  -12.6490 C   0  0  0  0  0  0  0  0  0  0  0  0
  -14.0346   -4.1489  -11.6573 C   0  0  0  0  0  0  0  0  0  0  0  0
  -14.5421   -3.9625  -10.3796 C   0  0  0  0  0  0  0  0  0  0  0  0
  -15.4946   -2.9918  -10.1932 C   0  0  0  0  0  0  0  0  0  0  0  0
  -15.8877   -2.2137  -11.2776 C   0  0  0  0  0  0  0  0  0  0  0  0
  -15.1795   -2.2095  -12.4908 C   0  0  0  0  0  0  0  0  0  0  0  0
  -12.8218   -2.8705  -13.4387 C   0  0  0  0  0  0  0  0  0  0  0  0
  -12.0403   -3.9045  -14.2456 C   0  0  0  0  0  0  0  0  0  0  0  0
  -12.7762   -2.8771  -15.0113 C   0  0  0  0  0  0  0  0  0  0  0  0
  -10.9813   -2.2657  -11.9845 N   0  0  0  0  0  0  0  0  0  0  0  0
  -12.0129   -1.8414  -12.6646 C   0  0  0  0  0  0  0  0  0  0  0  0
  -12.0645   -0.6019  -12.7647 O   0  0  0  0  0  0  0  0  0  0  0  0
  -10.3614   -1.4631  -11.8978 H   0  0  0  0  0  0  0  0  0  0  0  0
  -10.5671   -3.0819  -12.4292 H   0  0  0  0  0  0  0  0  0  0  0  0
 37 38  1  0  0  0
 37 40  1  0  0  0
 37 41  1  0  0  0
 38 39  2  0  0  0
 38 34  1  0  0  0
 34 28  1  0  0  0
 34 35  1  0  0  0
 34 36  1  0  0  0
 28 29  1  0  0  0
 28 33  2  0  0  0
 29 30  2  0  0  0
 30 31  1  0  0  0
 31 32  2  0  0  0
 32 33  1  0  0  0
 33 27  1  0  0  0
 27 26  1  0  0  0
 26  1  1  0  0  0
  1  2  1  0  0  0
  1  6  2  0  0  0
  2  3  2  0  0  0
  3 11  1  0  0  0
  3  4  1  0  0  0
 11 13  1  0  0  0
 11 12  1  0  0  0
 13 14  1  0  0  0
 13 18  2  0  0  0
 14 15  2  0  0  0
 15 16  1  0  0  0
 16 19  1  0  0  0
 16 17  2  0  0  0
 19 20  1  0  0  0
 19 24  1  0  0  0
 20 21  1  0  0  0
 21 22  1  0  0  0
 22 23  1  0  0  0
 22 25  1  0  0  0
 23 24  1  0  0  0
 17 18  1  0  0  0
  4  5  2  0  0  0
  5  6  1  0  0  0
  6  7  1  0  0  0
  7  8  1  0  0  0
  7  9  1  0  0  0
  7 10  1  0  0  0
 35 36  1  0  0  0
M  END
> <minimizedAffinity>
-9.23075

$$$$
