CHEMBL3973321


 36 40  0  0  0  0  0  0  0  0999 V2000
  -27.7543  -10.1166   -4.5918 N   0  0  0  0  0  0  0  0  0  0  0  0
  -28.3407   -8.7951   -4.4838 C   0  0  0  0  0  0  0  0  0  0  0  0
  -27.6711   -7.7817   -5.1763 C   0  0  0  0  0  0  0  0  0  0  0  0
  -28.1224   -6.5241   -5.1621 C   0  0  0  0  0  0  0  0  0  0  0  0
  -29.1528   -6.1086   -4.3139 C   0  0  0  0  0  0  0  0  0  0  0  0
  -28.7068   -5.0258   -3.8188 N   0  0  0  0  0  0  0  0  0  0  0  0
  -29.1001   -4.0181   -4.4738 C   0  0  0  0  0  0  0  0  0  0  0  0
  -30.2176   -3.4870   -4.0381 C   0  0  0  0  0  0  0  0  0  0  0  0
  -30.7843   -5.0320   -3.6242 N   0  0  0  0  0  0  0  0  0  0  0  0
  -30.0847   -6.6718   -3.6698 C   0  0  0  0  0  0  0  0  0  0  0  0
  -29.4494   -8.2694   -3.6776 C   0  0  0  0  0  0  0  0  0  0  0  0
  -29.3797   -1.9099   -4.4979 C   0  0  0  0  0  0  0  0  0  0  0  0
  -27.9625   -1.1924   -4.3771 C   0  0  0  0  0  0  0  0  0  0  0  0
  -27.7263   -0.0020   -5.0338 N   0  0  0  0  0  0  0  0  0  0  0  0
  -28.8590    0.2623   -5.6973 N   0  0  0  0  0  0  0  0  0  0  0  0
  -28.9353    1.4300   -6.6513 C   0  0  0  0  0  0  0  0  0  0  0  0
  -29.8364   -0.7863   -5.3680 C   0  0  0  0  0  0  0  0  0  0  0  0
  -23.9401  -10.2467   -4.8334 C   0  0  0  0  0  0  0  0  0  0  0  0
  -23.6590  -10.8054   -3.6317 C   0  0  0  0  0  0  0  0  0  0  0  0
  -24.6860  -11.2102   -2.7790 C   0  0  0  0  0  0  0  0  0  0  0  0
  -26.0226  -11.0544   -3.1378 C   0  0  0  0  0  0  0  0  0  0  0  0
  -26.3729  -10.4013   -4.3129 C   0  0  0  0  0  0  0  0  0  0  0  0
  -25.2606  -10.1584   -5.1502 C   0  0  0  0  0  0  0  0  0  0  0  0
  -22.4759  -10.6417   -6.6128 C   0  0  0  0  0  0  0  0  0  0  0  0
  -23.0523   -9.7102   -5.7151 O   0  0  0  0  0  0  0  0  0  0  0  0
  -24.4415  -11.7393   -1.5424 O   0  0  0  0  0  0  0  0  0  0  0  0
  -23.1375  -12.2949   -1.3908 C   0  0  0  0  0  0  0  0  0  0  0  0
  -28.5257  -11.0138   -5.5135 C   0  0  0  0  0  0  0  0  0  0  0  0
  -28.3170  -10.7158   -6.9727 C   0  0  0  0  0  0  0  0  0  0  0  0
  -29.4665  -10.7168   -7.9060 C   0  0  0  0  0  0  0  0  0  0  0  0
  -30.3273   -9.5619   -7.6476 N   0  0  0  0  0  0  0  0  0  0  0  0
  -31.5880   -9.6553   -6.9505 C   0  0  0  0  0  0  0  0  0  0  0  0
  -32.2189   -8.2862   -7.1515 C   0  0  0  0  0  0  0  0  0  0  0  0
  -31.0193   -7.3589   -7.2942 C   0  0  0  0  0  0  0  0  0  0  0  0
  -29.9944   -8.2439   -7.9551 C   0  0  0  0  0  0  0  0  0  0  0  0
  -29.0259   -7.8540   -8.5844 O   0  0  0  0  0  0  0  0  0  0  0  0
 24 25  1  0  0  0
 25 18  1  0  0  0
 18 19  1  0  0  0
 18 23  2  0  0  0
 19 20  2  0  0  0
 20 26  1  0  0  0
 20 21  1  0  0  0
 26 27  1  0  0  0
 21 22  2  0  0  0
 22  1  1  0  0  0
 22 23  1  0  0  0
  1 28  1  0  0  0
  1  2  1  0  0  0
 28 29  1  0  0  0
 29 30  1  0  0  0
 30 31  1  0  0  0
 31 32  1  0  0  0
 31 35  1  0  0  0
 32 33  1  0  0  0
 33 34  1  0  0  0
 34 35  1  0  0  0
 35 36  2  0  0  0
  2  3  1  0  0  0
  2 11  2  0  0  0
  3  4  2  0  0  0
  4  5  1  0  0  0
  5  6  1  0  0  0
  5 10  2  0  0  0
  6  7  2  0  0  0
  7  8  1  0  0  0
  8 12  1  0  0  0
  8  9  2  0  0  0
 12 13  1  0  0  0
 12 17  2  0  0  0
 13 14  2  0  0  0
 14 15  1  0  0  0
 15 16  1  0  0  0
 15 17  1  0  0  0
  9 10  1  0  0  0
 10 11  1  0  0  0
M  END
> <minimizedAffinity>
-8.34201

$$$$
