CHEMBL392513


 29 31  0  0  0  0  0  0  0  0999 V2000
  -28.3330   -2.3447  -13.4857 C   0  0  0  0  0  0  0  0  0  0  0  0
  -26.9326   -1.8761  -13.5970 C   0  0  0  0  0  0  0  0  0  0  0  0
  -26.4193   -1.6359  -14.8085 N   0  0  0  0  0  0  0  0  0  0  0  0
  -25.1589   -1.1231  -14.5856 O   0  0  0  0  0  0  0  0  0  0  0  0
  -24.9096   -1.0651  -13.2478 C   0  0  0  0  0  0  0  0  0  0  0  0
  -26.0030   -1.5628  -12.5667 C   0  0  0  0  0  0  0  0  0  0  0  0
  -26.1338   -1.6221  -11.1276 C   0  0  0  0  0  0  0  0  0  0  0  0
  -25.1437   -1.5163  -10.4034 O   0  0  0  0  0  0  0  0  0  0  0  0
  -27.4140   -1.8938  -10.6641 N   0  0  0  0  0  0  0  0  0  0  0  0
  -28.0174   -2.3967  -11.3023 H   0  0  0  0  0  0  0  0  0  0  0  0
  -27.6943   -2.0125   -9.2838 C   0  0  0  0  0  0  0  0  0  0  0  0
  -28.0734   -3.2343   -8.7201 C   0  0  0  0  0  0  0  0  0  0  0  0
  -28.4205   -3.3152   -7.3683 C   0  0  0  0  0  0  0  0  0  0  0  0
  -28.4178   -2.1680   -6.5640 C   0  0  0  0  0  0  0  0  0  0  0  0
  -28.0002   -0.9513   -7.1293 C   0  0  0  0  0  0  0  0  0  0  0  0
  -27.6105   -0.8800   -8.4726 C   0  0  0  0  0  0  0  0  0  0  0  0
  -28.8793   -2.2212   -5.1272 C   0  0  0  0  0  0  0  0  0  0  0  0
  -27.8743   -2.4573   -4.2371 F   0  0  0  0  0  0  0  0  0  0  0  0
  -29.4682   -1.0618   -4.7248 F   0  0  0  0  0  0  0  0  0  0  0  0
  -29.8019   -3.2016   -4.9144 F   0  0  0  0  0  0  0  0  0  0  0  0
  -23.7074   -0.5993  -12.8312 N   0  0  0  0  0  0  0  0  0  0  0  0
  -23.6938    0.1774  -12.1722 H   0  0  0  0  0  0  0  0  0  0  0  0
  -22.5329   -0.6770  -13.6854 C   0  0  0  0  0  0  0  0  0  0  0  0
  -21.9577    0.6711  -14.0718 C   0  0  0  0  0  0  0  0  0  0  0  0
  -20.7613    0.8416  -14.7738 C   0  0  0  0  0  0  0  0  0  0  0  0
  -20.3463    2.1271  -15.0959 C   0  0  0  0  0  0  0  0  0  0  0  0
  -21.0330    3.2442  -14.7754 N   0  0  0  0  0  0  0  0  0  0  0  0
  -22.1831    3.0674  -14.0973 C   0  0  0  0  0  0  0  0  0  0  0  0
  -22.6803    1.8245  -13.7319 C   0  0  0  0  0  0  0  0  0  0  0  0
  1  2  1  0  0  0
  2  3  2  0  0  0
  2  6  1  0  0  0
  3  4  1  0  0  0
  4  5  1  0  0  0
  5 21  1  0  0  0
  5  6  2  0  0  0
 21 23  1  0  0  0
 21 22  1  0  0  0
 23 24  1  0  0  0
 24 25  1  0  0  0
 24 29  2  0  0  0
 25 26  2  0  0  0
 26 27  1  0  0  0
 27 28  2  0  0  0
 28 29  1  0  0  0
  6  7  1  0  0  0
  7  8  2  0  0  0
  7  9  1  0  0  0
  9 11  1  0  0  0
  9 10  1  0  0  0
 11 12  1  0  0  0
 11 16  2  0  0  0
 12 13  2  0  0  0
 13 14  1  0  0  0
 14 17  1  0  0  0
 14 15  2  0  0  0
 17 18  1  0  0  0
 17 19  1  0  0  0
 17 20  1  0  0  0
 15 16  1  0  0  0
M  END
> <minimizedAffinity>
-9.77686

$$$$
