CHEMBL190980


 36 40  0  0  0  0  0  0  0  0999 V2000
  -29.6607   -7.7138   -5.9931 C   0  0  0  0  0  0  0  0  0  0  0  0
  -29.5668   -8.6961   -5.1378 N   0  0  0  0  0  0  0  0  0  0  0  0
  -29.0796   -8.4793   -3.8825 C   0  0  0  0  0  0  0  0  0  0  0  0
  -28.6397   -7.3599   -3.4133 N   0  0  0  0  0  0  0  0  0  0  0  0
  -28.7120   -6.3423   -4.2807 N   0  0  0  0  0  0  0  0  0  0  0  0
  -28.2724   -5.0850   -4.0025 C   0  0  0  0  0  0  0  0  0  0  0  0
  -28.5504   -4.2831   -5.0811 C   0  0  0  0  0  0  0  0  0  0  0  0
  -29.1480   -5.1148   -6.1086 C   0  0  0  0  0  0  0  0  0  0  0  0
  -29.2274   -6.4021   -5.5526 C   0  0  0  0  0  0  0  0  0  0  0  0
  -28.2304   -2.8156   -5.0916 C   0  0  0  0  0  0  0  0  0  0  0  0
  -27.0125   -2.3212   -4.9981 N   0  0  0  0  0  0  0  0  0  0  0  0
  -27.1239   -0.9513   -5.0219 N   0  0  0  0  0  0  0  0  0  0  0  0
  -28.4063   -0.6825   -5.1339 C   0  0  0  0  0  0  0  0  0  0  0  0
  -29.1749   -1.8168   -5.2007 O   0  0  0  0  0  0  0  0  0  0  0  0
  -28.9301    0.7434   -5.1567 C   0  0  0  0  0  0  0  0  0  0  0  0
  -30.3145    1.0015   -5.7143 C   0  0  0  0  0  0  0  0  0  0  0  0
  -29.1181    1.4518   -6.4801 C   0  0  0  0  0  0  0  0  0  0  0  0
  -29.5496   -4.6091   -7.4820 C   0  0  0  0  0  0  0  0  0  0  0  0
  -30.8710   -3.8425   -7.4931 C   0  0  0  0  0  0  0  0  0  0  0  0
  -28.4202   -3.8906   -8.2191 C   0  0  0  0  0  0  0  0  0  0  0  0
  -30.1770   -7.9918   -7.2385 N   0  0  0  0  0  0  0  0  0  0  0  0
  -30.8137   -7.3360   -7.6613 H   0  0  0  0  0  0  0  0  0  0  0  0
  -28.3941  -10.1040   -9.7670 C   0  0  0  0  0  0  0  0  0  0  0  0
  -28.7709   -8.9918   -8.9979 C   0  0  0  0  0  0  0  0  0  0  0  0
  -29.8233   -9.0700   -8.0765 C   0  0  0  0  0  0  0  0  0  0  0  0
  -30.4882  -10.2995   -7.9496 C   0  0  0  0  0  0  0  0  0  0  0  0
  -31.4962  -10.4149   -7.0713 F   0  0  0  0  0  0  0  0  0  0  0  0
  -30.1271  -11.4146   -8.7023 C   0  0  0  0  0  0  0  0  0  0  0  0
  -29.0752  -11.3089   -9.6051 C   0  0  0  0  0  0  0  0  0  0  0  0
  -28.7315  -12.3922  -10.3178 F   0  0  0  0  0  0  0  0  0  0  0  0
  -27.5492   -9.2923  -11.8899 N   0  0  0  0  0  0  0  0  0  0  0  0
  -27.2629   -9.9459  -10.7124 C   0  0  0  0  0  0  0  0  0  0  0  0
  -26.1754  -10.4384  -10.4272 O   0  0  0  0  0  0  0  0  0  0  0  0
  -28.3143   -8.6273  -11.9474 H   0  0  0  0  0  0  0  0  0  0  0  0
  -26.8771   -9.0101  -14.0688 C   0  0  0  0  0  0  0  0  0  0  0  0
  -26.4354   -9.0062  -12.7127 O   0  0  0  0  0  0  0  0  0  0  0  0
 35 36  1  0  0  0
 36 31  1  0  0  0
 31 32  1  0  0  0
 31 34  1  0  0  0
 32 33  2  0  0  0
 32 23  1  0  0  0
 23 24  1  0  0  0
 23 29  2  0  0  0
 24 25  2  0  0  0
 25 21  1  0  0  0
 25 26  1  0  0  0
 21  1  1  0  0  0
 21 22  1  0  0  0
  1  2  2  0  0  0
  1  9  1  0  0  0
  2  3  1  0  0  0
  3  4  2  0  0  0
  4  5  1  0  0  0
  5  6  1  0  0  0
  5  9  1  0  0  0
  6  7  2  0  0  0
  7 10  1  0  0  0
  7  8  1  0  0  0
 10 11  2  0  0  0
 10 14  1  0  0  0
 11 12  1  0  0  0
 12 13  2  0  0  0
 13 15  1  0  0  0
 13 14  1  0  0  0
 15 16  1  0  0  0
 15 17  1  0  0  0
 16 17  1  0  0  0
  8 18  1  0  0  0
  8  9  2  0  0  0
 18 19  1  0  0  0
 18 20  1  0  0  0
 26 27  1  0  0  0
 26 28  2  0  0  0
 28 29  1  0  0  0
 29 30  1  0  0  0
M  END
> <minimizedAffinity>
-9.05321

$$$$
