CHEMBL3948661


 39 43  0  0  0  0  0  0  0  0999 V2000
  -17.2068    1.1829  -15.1230 C   0  0  0  0  0  0  0  0  0  0  0  0
  -18.5049    0.7497  -14.8189 C   0  0  0  0  0  0  0  0  0  0  0  0
  -19.5952    1.6539  -14.7529 C   0  0  0  0  0  0  0  0  0  0  0  0
  -20.9149    1.3392  -14.4052 C   0  0  0  0  0  0  0  0  0  0  0  0
  -21.9006    2.2623  -14.4146 N   0  0  0  0  0  0  0  0  0  0  0  0
  -21.5711    3.5046  -14.7628 C   0  0  0  0  0  0  0  0  0  0  0  0
  -20.3493    3.9156  -15.0956 N   0  0  0  0  0  0  0  0  0  0  0  0
  -19.3904    2.9894  -15.0846 C   0  0  0  0  0  0  0  0  0  0  0  0
  -18.1184    3.3964  -15.4157 C   0  0  0  0  0  0  0  0  0  0  0  0
  -17.0023    2.5391  -15.3885 C   0  0  0  0  0  0  0  0  0  0  0  0
  -15.7315   -0.3122  -13.9543 C   0  0  0  0  0  0  0  0  0  0  0  0
  -16.3075    0.1579  -15.1636 O   0  0  0  0  0  0  0  0  0  0  0  0
  -21.2436    0.0137  -14.0147 N   0  0  0  0  0  0  0  0  0  0  0  0
  -20.4844   -0.3717  -13.4624 H   0  0  0  0  0  0  0  0  0  0  0  0
  -22.5238   -0.3433  -13.5415 C   0  0  0  0  0  0  0  0  0  0  0  0
  -22.7331   -0.5314  -12.1674 C   0  0  0  0  0  0  0  0  0  0  0  0
  -23.9569   -0.9852  -11.6834 C   0  0  0  0  0  0  0  0  0  0  0  0
  -24.9990   -1.2474  -12.5702 C   0  0  0  0  0  0  0  0  0  0  0  0
  -26.4725   -1.8624  -11.9120 Cl  0  0  0  0  0  0  0  0  0  0  0  0
  -24.8176   -1.0244  -13.9404 C   0  0  0  0  0  0  0  0  0  0  0  0
  -26.0687   -1.3229  -15.0955 Cl  0  0  0  0  0  0  0  0  0  0  0  0
  -23.5850   -0.5652  -14.4227 C   0  0  0  0  0  0  0  0  0  0  0  0
  -15.7372    3.0241  -15.6336 O   0  0  0  0  0  0  0  0  0  0  0  0
  -15.4617    3.1815  -17.0348 C   0  0  0  0  0  0  0  0  0  0  0  0
  -14.6265    4.3901  -17.3390 C   0  0  0  0  0  0  0  0  0  0  0  0
  -13.5507    4.7014  -16.5053 C   0  0  0  0  0  0  0  0  0  0  0  0
  -12.8072    5.8601  -16.7242 C   0  0  0  0  0  0  0  0  0  0  0  0
  -13.1170    6.7234  -17.7572 C   0  0  0  0  0  0  0  0  0  0  0  0
  -12.3379    7.8017  -17.9108 N   0  0  0  0  0  0  0  0  0  0  0  0
  -12.6009    8.6747  -18.9178 C   0  0  0  0  0  0  0  0  0  0  0  0
  -13.6751    8.4975  -19.7788 C   0  0  0  0  0  0  0  0  0  0  0  0
  -14.4838    7.3790  -19.6096 C   0  0  0  0  0  0  0  0  0  0  0  0
  -15.8137    7.1941  -20.7034 Cl  0  0  0  0  0  0  0  0  0  0  0  0
  -14.2152    6.4448  -18.5922 C   0  0  0  0  0  0  0  0  0  0  0  0
  -14.9675    5.2690  -18.3679 C   0  0  0  0  0  0  0  0  0  0  0  0
  -11.6786    9.8655  -19.1199 C   0  0  0  0  0  0  0  0  0  0  0  0
  -11.0039    9.8557  -20.3033 F   0  0  0  0  0  0  0  0  0  0  0  0
  -12.3561   11.0494  -19.0867 F   0  0  0  0  0  0  0  0  0  0  0  0
  -10.7281    9.9579  -18.1468 F   0  0  0  0  0  0  0  0  0  0  0  0
 11 12  1  0  0  0
 12  1  1  0  0  0
  1  2  1  0  0  0
  1 10  2  0  0  0
  2  3  2  0  0  0
  3  4  1  0  0  0
  3  8  1  0  0  0
  4 13  1  0  0  0
  4  5  2  0  0  0
 13 15  1  0  0  0
 13 14  1  0  0  0
 15 16  1  0  0  0
 15 22  2  0  0  0
 16 17  2  0  0  0
 17 18  1  0  0  0
 18 19  1  0  0  0
 18 20  2  0  0  0
 20 21  1  0  0  0
 20 22  1  0  0  0
  5  6  1  0  0  0
  6  7  2  0  0  0
  7  8  1  0  0  0
  8  9  2  0  0  0
  9 10  1  0  0  0
 10 23  1  0  0  0
 23 24  1  0  0  0
 24 25  1  0  0  0
 25 26  1  0  0  0
 25 35  2  0  0  0
 26 27  2  0  0  0
 27 28  1  0  0  0
 28 29  1  0  0  0
 28 34  2  0  0  0
 29 30  2  0  0  0
 30 36  1  0  0  0
 30 31  1  0  0  0
 36 37  1  0  0  0
 36 38  1  0  0  0
 36 39  1  0  0  0
 31 32  2  0  0  0
 32 33  1  0  0  0
 32 34  1  0  0  0
 34 35  1  0  0  0
M  END
> <minimizedAffinity>
-8.87305

$$$$
