CHEMBL3920518


 35 38  0  0  0  0  0  0  0  0999 V2000
  -18.5857    1.5003  -15.2638 C   0  0  0  0  0  0  0  0  0  0  0  0
  -18.5295    2.8627  -15.5787 C   0  0  0  0  0  0  0  0  0  0  0  0
  -19.6353    3.6826  -15.3705 C   0  0  0  0  0  0  0  0  0  0  0  0
  -20.8030    3.1362  -14.8554 C   0  0  0  0  0  0  0  0  0  0  0  0
  -20.8483    1.7823  -14.4845 C   0  0  0  0  0  0  0  0  0  0  0  0
  -19.7240    0.9683  -14.6488 C   0  0  0  0  0  0  0  0  0  0  0  0
  -22.1631    1.2393  -14.0688 C   0  0  0  0  0  0  0  0  0  0  0  0
  -23.0291    2.0619  -13.7905 O   0  0  0  0  0  0  0  0  0  0  0  0
  -22.2801   -0.1378  -13.9837 N   0  0  0  0  0  0  0  0  0  0  0  0
  -21.4397   -0.7019  -14.0362 H   0  0  0  0  0  0  0  0  0  0  0  0
  -23.4369   -0.8056  -13.5051 C   0  0  0  0  0  0  0  0  0  0  0  0
  -24.5716   -1.0254  -14.2916 C   0  0  0  0  0  0  0  0  0  0  0  0
  -25.7461   -1.5579  -13.7435 C   0  0  0  0  0  0  0  0  0  0  0  0
  -26.9747   -1.6789  -14.5987 C   0  0  0  0  0  0  0  0  0  0  0  0
  -25.7760   -1.8979  -12.3880 C   0  0  0  0  0  0  0  0  0  0  0  0
  -24.6271   -1.7540  -11.6069 C   0  0  0  0  0  0  0  0  0  0  0  0
  -23.4678   -1.2230  -12.1717 C   0  0  0  0  0  0  0  0  0  0  0  0
  -22.3806   -1.0636  -11.3994 F   0  0  0  0  0  0  0  0  0  0  0  0
  -17.4522    0.7964  -15.6053 O   0  0  0  0  0  0  0  0  0  0  0  0
  -13.5491    3.1443  -15.2723 C   0  0  0  0  0  0  0  0  0  0  0  0
  -13.2736    2.3705  -14.1544 C   0  0  0  0  0  0  0  0  0  0  0  0
  -14.2644    1.3747  -13.9062 C   0  0  0  0  0  0  0  0  0  0  0  0
  -14.2907    0.5216  -12.8477 N   0  0  0  0  0  0  0  0  0  0  0  0
  -15.3547   -0.3034  -12.7914 C   0  0  0  0  0  0  0  0  0  0  0  0
  -16.4240   -0.2921  -13.6682 C   0  0  0  0  0  0  0  0  0  0  0  0
  -16.4307    0.6386  -14.7027 C   0  0  0  0  0  0  0  0  0  0  0  0
  -15.2711    1.4101  -14.8639 C   0  0  0  0  0  0  0  0  0  0  0  0
  -14.8309    2.4406  -16.1581 S   0  0  0  0  0  0  0  0  0  0  0  0
  -11.7617    4.1579  -16.7203 N   0  0  0  0  0  0  0  0  0  0  0  0
  -12.7734    4.2994  -15.7331 C   0  0  0  0  0  0  0  0  0  0  0  0
  -13.0568    5.4217  -15.3082 O   0  0  0  0  0  0  0  0  0  0  0  0
  -11.4994    6.0212  -18.3699 C   0  0  0  0  0  0  0  0  0  0  0  0
  -11.0242    5.3761  -17.0770 C   0  0  0  0  0  0  0  0  0  0  0  0
  -11.3124    2.8633  -17.2499 C   0  0  0  0  0  0  0  0  0  0  0  0
  -11.8446    2.4086  -18.5987 C   0  0  0  0  0  0  0  0  0  0  0  0
 32 33  1  0  0  0
 33 29  1  0  0  0
 29 34  1  0  0  0
 29 30  1  0  0  0
 34 35  1  0  0  0
 30 31  2  0  0  0
 30 20  1  0  0  0
 20 21  2  0  0  0
 20 28  1  0  0  0
 21 22  1  0  0  0
 22 23  1  0  0  0
 22 27  2  0  0  0
 23 24  2  0  0  0
 24 25  1  0  0  0
 25 26  2  0  0  0
 26 19  1  0  0  0
 26 27  1  0  0  0
 19  1  1  0  0  0
  1  2  1  0  0  0
  1  6  2  0  0  0
  2  3  2  0  0  0
  3  4  1  0  0  0
  4  5  2  0  0  0
  5  7  1  0  0  0
  5  6  1  0  0  0
  7  8  2  0  0  0
  7  9  1  0  0  0
  9 11  1  0  0  0
  9 10  1  0  0  0
 11 12  1  0  0  0
 11 17  2  0  0  0
 12 13  2  0  0  0
 13 14  1  0  0  0
 13 15  1  0  0  0
 15 16  2  0  0  0
 16 17  1  0  0  0
 17 18  1  0  0  0
 27 28  1  0  0  0
M  END
> <minimizedAffinity>
-9.63502

$$$$
