CHEMBL410295


 41 47  0  0  0  0  0  0  0  0999 V2000
  -14.4331    0.6538  -15.1848 N   0  0  0  0  0  0  0  0  0  0  0  0
  -14.3306    0.1341  -13.8989 C   0  0  0  0  0  0  0  0  0  0  0  0
  -14.7464    0.6703  -12.8753 O   0  0  0  0  0  0  0  0  0  0  0  0
  -13.6720   -1.1770  -13.7660 C   0  0  0  0  0  0  0  0  0  0  0  0
  -13.4700   -1.7774  -12.5444 C   0  0  0  0  0  0  0  0  0  0  0  0
  -12.8786   -2.9863  -12.3909 N   0  0  0  0  0  0  0  0  0  0  0  0
  -12.5185   -3.6336  -13.5069 C   0  0  0  0  0  0  0  0  0  0  0  0
  -12.6575   -3.1078  -14.7383 N   0  0  0  0  0  0  0  0  0  0  0  0
  -13.2211   -1.8875  -14.8500 C   0  0  0  0  0  0  0  0  0  0  0  0
  -13.3701   -1.2928  -16.1182 N   0  0  0  0  0  0  0  0  0  0  0  0
  -13.0009   -1.7549  -17.3666 C   0  0  0  0  0  0  0  0  0  0  0  0
  -12.3693   -2.9182  -17.8326 C   0  0  0  0  0  0  0  0  0  0  0  0
  -12.1648   -3.0348  -19.2137 C   0  0  0  0  0  0  0  0  0  0  0  0
  -12.5678   -2.0295  -20.0926 C   0  0  0  0  0  0  0  0  0  0  0  0
  -13.1887   -0.8716  -19.6128 C   0  0  0  0  0  0  0  0  0  0  0  0
  -13.4052   -0.7392  -18.2308 C   0  0  0  0  0  0  0  0  0  0  0  0
  -13.9864    0.2979  -17.5497 N   0  0  0  0  0  0  0  0  0  0  0  0
  -13.9604   -0.0556  -16.2829 C   0  0  0  0  0  0  0  0  0  0  0  0
  -12.7136    2.9905  -15.4907 C   0  0  0  0  0  0  0  0  0  0  0  0
  -14.2128    3.0601  -15.5856 C   0  0  0  0  0  0  0  0  0  0  0  0
  -14.8185    4.2996  -15.8413 C   0  0  0  0  0  0  0  0  0  0  0  0
  -16.2024    4.4051  -15.9552 C   0  0  0  0  0  0  0  0  0  0  0  0
  -17.0022    3.2738  -15.8169 C   0  0  0  0  0  0  0  0  0  0  0  0
  -16.4313    2.0191  -15.5556 C   0  0  0  0  0  0  0  0  0  0  0  0
  -17.3359    0.8275  -15.4063 C   0  0  0  0  0  0  0  0  0  0  0  0
  -15.0271    1.9158  -15.4321 C   0  0  0  0  0  0  0  0  0  0  0  0
  -11.9592   -4.8984  -13.3645 N   0  0  0  0  0  0  0  0  0  0  0  0
  -11.5415   -5.0462  -12.4596 H   0  0  0  0  0  0  0  0  0  0  0  0
  -12.1293   -6.0063  -14.1996 C   0  0  0  0  0  0  0  0  0  0  0  0
  -11.2714   -6.2128  -15.2772 C   0  0  0  0  0  0  0  0  0  0  0  0
  -11.5550   -7.2041  -16.2261 C   0  0  0  0  0  0  0  0  0  0  0  0
  -12.6817   -8.0348  -16.1181 C   0  0  0  0  0  0  0  0  0  0  0  0
  -13.4888   -7.8673  -14.9930 C   0  0  0  0  0  0  0  0  0  0  0  0
  -13.2214   -6.8677  -14.0574 C   0  0  0  0  0  0  0  0  0  0  0  0
  -12.9183   -9.0094  -17.0734 N   0  0  0  0  0  0  0  0  0  0  0  0
  -13.0139  -10.4250  -16.6832 C   0  0  0  0  0  0  0  0  0  0  0  0
  -12.6580  -11.2958  -17.9069 C   0  0  0  0  0  0  0  0  0  0  0  0
  -13.5404  -11.0264  -19.0667 N   0  0  0  0  0  0  0  0  0  0  0  0
  -13.1294  -11.8356  -20.2103 C   0  0  0  0  0  0  0  0  0  0  0  0
  -13.4818   -9.5817  -19.4007 C   0  0  0  0  0  0  0  0  0  0  0  0
  -13.8216   -8.6744  -18.1932 C   0  0  0  0  0  0  0  0  0  0  0  0
 19 20  1  0  0  0
 20 21  1  0  0  0
 20 26  2  0  0  0
 21 22  2  0  0  0
 22 23  1  0  0  0
 23 24  2  0  0  0
 24 25  1  0  0  0
 24 26  1  0  0  0
 26  1  1  0  0  0
  1  2  1  0  0  0
  1 18  1  0  0  0
  2  3  2  0  0  0
  2  4  1  0  0  0
  4  5  1  0  0  0
  4  9  2  0  0  0
  5  6  2  0  0  0
  6  7  1  0  0  0
  7 27  1  0  0  0
  7  8  2  0  0  0
 27 29  1  0  0  0
 27 28  1  0  0  0
 29 30  1  0  0  0
 29 34  2  0  0  0
 30 31  2  0  0  0
 31 32  1  0  0  0
 32 35  1  0  0  0
 32 33  2  0  0  0
 35 36  1  0  0  0
 35 41  1  0  0  0
 36 37  1  0  0  0
 37 38  1  0  0  0
 38 39  1  0  0  0
 38 40  1  0  0  0
 40 41  1  0  0  0
 33 34  1  0  0  0
  8  9  1  0  0  0
  9 10  1  0  0  0
 10 11  1  0  0  0
 10 18  1  0  0  0
 11 12  1  0  0  0
 11 16  2  0  0  0
 12 13  2  0  0  0
 13 14  1  0  0  0
 14 15  2  0  0  0
 15 16  1  0  0  0
 16 17  1  0  0  0
 17 18  2  0  0  0
M  END
> <minimizedAffinity>
-7.28618

$$$$
