CHEMBL1242200


 24 26  0  0  0  0  0  0  0  0999 V2000
  -29.3724   -7.9886   -7.8643 C   0  0  0  0  0  0  0  0  0  0  0  0
  -28.2849   -8.4074   -8.5393 N   0  0  0  0  0  0  0  0  0  0  0  0
  -28.6010   -9.6532   -8.9525 N   0  0  0  0  0  0  0  0  0  0  0  0
  -29.8672  -10.0363   -8.6055 C   0  0  0  0  0  0  0  0  0  0  0  0
  -30.4598  -11.2093   -8.8851 N   0  0  0  0  0  0  0  0  0  0  0  0
  -31.7076  -11.2578   -8.3958 C   0  0  0  0  0  0  0  0  0  0  0  0
  -32.3682  -10.2981   -7.7232 N   0  0  0  0  0  0  0  0  0  0  0  0
  -31.7392   -9.1319   -7.4700 C   0  0  0  0  0  0  0  0  0  0  0  0
  -32.4904   -8.1775   -6.7983 N   0  0  0  0  0  0  0  0  0  0  0  0
  -30.4158   -8.9690   -7.9073 C   0  0  0  0  0  0  0  0  0  0  0  0
  -33.4706   -8.4370   -6.7834 H   0  0  0  0  0  0  0  0  0  0  0  0
  -32.2948   -7.2153   -7.0414 H   0  0  0  0  0  0  0  0  0  0  0  0
  -29.8137   -5.2259   -5.3132 C   0  0  0  0  0  0  0  0  0  0  0  0
  -29.3100   -4.1307   -6.0105 C   0  0  0  0  0  0  0  0  0  0  0  0
  -28.8229   -4.3068   -7.3055 C   0  0  0  0  0  0  0  0  0  0  0  0
  -28.0933   -2.8289   -8.2346 Br  0  0  0  0  0  0  0  0  0  0  0  0
  -28.8569   -5.5585   -7.9192 C   0  0  0  0  0  0  0  0  0  0  0  0
  -29.3548   -6.6694   -7.2241 C   0  0  0  0  0  0  0  0  0  0  0  0
  -29.7938   -6.4926   -5.9060 C   0  0  0  0  0  0  0  0  0  0  0  0
  -31.6088   -5.7615   -3.8642 C   0  0  0  0  0  0  0  0  0  0  0  0
  -30.3159   -5.1924   -4.0411 O   0  0  0  0  0  0  0  0  0  0  0  0
  -27.6263  -10.4470   -9.6934 C   0  0  0  0  0  0  0  0  0  0  0  0
  -27.1976   -9.7498  -10.9848 C   0  0  0  0  0  0  0  0  0  0  0  0
  -26.4137  -10.7949   -8.8298 C   0  0  0  0  0  0  0  0  0  0  0  0
 20 21  1  0  0  0
 21 13  1  0  0  0
 13 14  1  0  0  0
 13 19  2  0  0  0
 14 15  2  0  0  0
 15 16  1  0  0  0
 15 17  1  0  0  0
 17 18  2  0  0  0
 18  1  1  0  0  0
 18 19  1  0  0  0
  1  2  2  0  0  0
  1 10  1  0  0  0
  2  3  1  0  0  0
  3 22  1  0  0  0
  3  4  1  0  0  0
 22 23  1  0  0  0
 22 24  1  0  0  0
  4  5  1  0  0  0
  4 10  2  0  0  0
  5  6  2  0  0  0
  6  7  1  0  0  0
  7  8  2  0  0  0
  8  9  1  0  0  0
  8 10  1  0  0  0
  9 11  1  0  0  0
  9 12  1  0  0  0
M  END
> <minimizedAffinity>
-7.37385

$$$$
