CHEMBL3898255


 34 37  0  0  0  0  0  0  0  0999 V2000
  -29.3794   -4.3569   -6.0435 C   0  0  0  0  0  0  0  0  0  0  0  0
  -29.3836   -4.7986   -7.3424 C   0  0  0  0  0  0  0  0  0  0  0  0
  -28.7919   -4.0439   -8.2734 C   0  0  0  0  0  0  0  0  0  0  0  0
  -28.1563   -2.8637   -8.0201 C   0  0  0  0  0  0  0  0  0  0  0  0
  -27.1946   -2.9947   -8.8306 N   0  0  0  0  0  0  0  0  0  0  0  0
  -27.4490   -2.6010  -10.0113 C   0  0  0  0  0  0  0  0  0  0  0  0
  -26.8855   -1.4596   -9.9922 C   0  0  0  0  0  0  0  0  0  0  0  0
  -27.1926   -0.9685   -8.3589 N   0  0  0  0  0  0  0  0  0  0  0  0
  -27.9166   -1.9973   -7.0798 C   0  0  0  0  0  0  0  0  0  0  0  0
  -28.6644   -3.0644   -5.8005 C   0  0  0  0  0  0  0  0  0  0  0  0
  -26.2627   -1.6483  -11.7527 C   0  0  0  0  0  0  0  0  0  0  0  0
  -24.6887   -1.4333  -12.1947 C   0  0  0  0  0  0  0  0  0  0  0  0
  -23.4677   -1.4603  -11.3411 C   0  0  0  0  0  0  0  0  0  0  0  0
  -24.3203   -1.2917  -13.4865 N   0  0  0  0  0  0  0  0  0  0  0  0
  -25.4251   -1.3504  -14.2017 N   0  0  0  0  0  0  0  0  0  0  0  0
  -25.2829   -1.2398  -15.7261 C   0  0  0  0  0  0  0  0  0  0  0  0
  -26.5958   -1.5308  -13.2801 C   0  0  0  0  0  0  0  0  0  0  0  0
  -27.8214   -1.6572  -14.1088 C   0  0  0  0  0  0  0  0  0  0  0  0
  -30.0819   -5.2388   -5.1148 N   0  0  0  0  0  0  0  0  0  0  0  0
  -30.1425   -8.9380   -6.1117 C   0  0  0  0  0  0  0  0  0  0  0  0
  -29.4244   -9.4407   -5.0904 C   0  0  0  0  0  0  0  0  0  0  0  0
  -28.9710   -8.6381   -4.0515 C   0  0  0  0  0  0  0  0  0  0  0  0
  -29.2674   -7.2784   -4.0287 C   0  0  0  0  0  0  0  0  0  0  0  0
  -29.9318   -6.6733   -5.0857 C   0  0  0  0  0  0  0  0  0  0  0  0
  -30.4521   -7.6124   -6.0098 C   0  0  0  0  0  0  0  0  0  0  0  0
  -31.9067   -9.7079   -7.4394 C   0  0  0  0  0  0  0  0  0  0  0  0
  -30.5024   -9.5969   -7.2490 O   0  0  0  0  0  0  0  0  0  0  0  0
  -28.1853   -9.1203   -3.0453 O   0  0  0  0  0  0  0  0  0  0  0  0
  -27.1573  -10.0125   -3.4749 C   0  0  0  0  0  0  0  0  0  0  0  0
  -31.3445   -4.6276   -4.5991 C   0  0  0  0  0  0  0  0  0  0  0  0
  -31.2805   -4.1973   -3.1577 C   0  0  0  0  0  0  0  0  0  0  0  0
  -30.6907   -2.8853   -2.8250 C   0  0  0  0  0  0  0  0  0  0  0  0
  -29.3378   -3.0582   -2.4143 O   0  0  0  0  0  0  0  0  0  0  0  0
  -29.3109   -3.6203   -1.6178 H   0  0  0  0  0  0  0  0  0  0  0  0
 26 27  1  0  0  0
 27 20  1  0  0  0
 20 21  1  0  0  0
 20 25  2  0  0  0
 21 22  2  0  0  0
 22 28  1  0  0  0
 22 23  1  0  0  0
 28 29  1  0  0  0
 23 24  2  0  0  0
 24 19  1  0  0  0
 24 25  1  0  0  0
 19 30  1  0  0  0
 19  1  1  0  0  0
 30 31  1  0  0  0
 31 32  1  0  0  0
 32 33  1  0  0  0
 33 34  1  0  0  0
  1  2  1  0  0  0
  1 10  2  0  0  0
  2  3  2  0  0  0
  3  4  1  0  0  0
  4  5  1  0  0  0
  4  9  2  0  0  0
  5  6  2  0  0  0
  6  7  1  0  0  0
  7 11  1  0  0  0
  7  8  2  0  0  0
 11 12  1  0  0  0
 11 17  2  0  0  0
 12 13  1  0  0  0
 12 14  2  0  0  0
 14 15  1  0  0  0
 15 16  1  0  0  0
 15 17  1  0  0  0
 17 18  1  0  0  0
  8  9  1  0  0  0
  9 10  1  0  0  0
M  END
> <minimizedAffinity>
-8.57750

$$$$
