CHEMBL606964


 35 39  0  0  0  0  0  0  0  0999 V2000
  -15.4491    0.1648  -14.3666 N   0  0  0  0  0  0  0  0  0  0  0  0
  -14.2467    0.0067  -15.1431 C   0  0  0  0  0  0  0  0  0  0  0  0
  -13.7006   -1.3703  -15.0271 C   0  0  0  0  0  0  0  0  0  0  0  0
  -12.7319   -1.8708  -15.8686 C   0  0  0  0  0  0  0  0  0  0  0  0
  -12.2302   -3.1170  -15.7744 N   0  0  0  0  0  0  0  0  0  0  0  0
  -12.6887   -3.8718  -14.7692 C   0  0  0  0  0  0  0  0  0  0  0  0
  -13.6370   -3.4616  -13.9138 N   0  0  0  0  0  0  0  0  0  0  0  0
  -14.1347   -2.2240  -14.0423 C   0  0  0  0  0  0  0  0  0  0  0  0
  -15.0987   -1.7747  -13.1092 N   0  0  0  0  0  0  0  0  0  0  0  0
  -15.5900   -0.4760  -13.1440 C   0  0  0  0  0  0  0  0  0  0  0  0
  -16.2321    0.0115  -12.2131 O   0  0  0  0  0  0  0  0  0  0  0  0
  -15.8101   -2.7623  -12.2804 C   0  0  0  0  0  0  0  0  0  0  0  0
  -15.0147   -3.1249  -10.9973 C   0  0  0  0  0  0  0  0  0  0  0  0
  -14.7303   -4.6196  -11.0796 C   0  0  0  0  0  0  0  0  0  0  0  0
  -15.9052   -5.1544  -11.8779 C   0  0  0  0  0  0  0  0  0  0  0  0
  -17.0546   -5.2738  -11.0431 O   0  0  0  0  0  0  0  0  0  0  0  0
  -16.1254   -4.1026  -12.9649 C   0  0  0  0  0  0  0  0  0  0  0  0
  -17.2074   -4.4336  -10.5793 H   0  0  0  0  0  0  0  0  0  0  0  0
  -18.5391    2.8021  -15.5191 C   0  0  0  0  0  0  0  0  0  0  0  0
  -17.2114    3.2256  -15.5363 C   0  0  0  0  0  0  0  0  0  0  0  0
  -16.1705    2.3602  -15.1981 C   0  0  0  0  0  0  0  0  0  0  0  0
  -16.4687    1.0648  -14.7759 C   0  0  0  0  0  0  0  0  0  0  0  0
  -17.8054    0.6362  -14.7616 C   0  0  0  0  0  0  0  0  0  0  0  0
  -18.8353    1.4975  -15.1417 C   0  0  0  0  0  0  0  0  0  0  0  0
  -20.8352    3.2399  -15.1663 C   0  0  0  0  0  0  0  0  0  0  0  0
  -19.6292    3.5607  -15.8457 O   0  0  0  0  0  0  0  0  0  0  0  0
  -12.1558   -5.1495  -14.6259 N   0  0  0  0  0  0  0  0  0  0  0  0
  -11.1957   -5.1968  -14.9306 H   0  0  0  0  0  0  0  0  0  0  0  0
  -12.6359   -6.2051  -13.8375 C   0  0  0  0  0  0  0  0  0  0  0  0
  -11.9951   -6.5124  -12.6299 C   0  0  0  0  0  0  0  0  0  0  0  0
  -12.3784   -7.6328  -11.8854 C   0  0  0  0  0  0  0  0  0  0  0  0
  -13.4119   -8.4430  -12.3407 C   0  0  0  0  0  0  0  0  0  0  0  0
  -13.7665   -9.5239  -11.6347 F   0  0  0  0  0  0  0  0  0  0  0  0
  -14.0749   -8.1517  -13.5219 C   0  0  0  0  0  0  0  0  0  0  0  0
  -13.6823   -7.0398  -14.2665 C   0  0  0  0  0  0  0  0  0  0  0  0
 25 26  1  0  0  0
 26 19  1  0  0  0
 19 20  1  0  0  0
 19 24  2  0  0  0
 20 21  2  0  0  0
 21 22  1  0  0  0
 22  1  1  0  0  0
 22 23  2  0  0  0
  1  2  1  0  0  0
  1 10  1  0  0  0
  2  3  1  0  0  0
  3  4  1  0  0  0
  3  8  2  0  0  0
  4  5  2  0  0  0
  5  6  1  0  0  0
  6 27  1  0  0  0
  6  7  2  0  0  0
 27 29  1  0  0  0
 27 28  1  0  0  0
 29 30  1  0  0  0
 29 35  2  0  0  0
 30 31  2  0  0  0
 31 32  1  0  0  0
 32 33  1  0  0  0
 32 34  2  0  0  0
 34 35  1  0  0  0
  7  8  1  0  0  0
  8  9  1  0  0  0
  9 12  1  0  0  0
  9 10  1  0  0  0
 12 13  1  0  0  0
 12 17  1  0  0  0
 13 14  1  0  0  0
 14 15  1  0  0  0
 15 16  1  0  0  0
 15 17  1  0  0  0
 16 18  1  0  0  0
 10 11  2  0  0  0
 23 24  1  0  0  0
M  END
> <minimizedAffinity>
-8.51945

$$$$
