CHEMBL213430


 41 46  0  0  0  0  0  0  0  0999 V2000
  -22.0283    1.4315  -13.9863 C   0  0  0  0  0  0  0  0  0  0  0  0
  -22.4199    2.7603  -14.0134 N   0  0  0  0  0  0  0  0  0  0  0  0
  -21.4651    3.6269  -14.4538 N   0  0  0  0  0  0  0  0  0  0  0  0
  -20.4522    2.8123  -14.7086 C   0  0  0  0  0  0  0  0  0  0  0  0
  -20.7347    1.4635  -14.4492 C   0  0  0  0  0  0  0  0  0  0  0  0
  -19.5881    0.5518  -14.7206 C   0  0  0  0  0  0  0  0  0  0  0  0
  -18.5860    1.6140  -15.1838 C   0  0  0  0  0  0  0  0  0  0  0  0
  -17.2824    1.3897  -15.5986 C   0  0  0  0  0  0  0  0  0  0  0  0
  -16.5032    2.4873  -16.0117 C   0  0  0  0  0  0  0  0  0  0  0  0
  -17.0499    3.7947  -15.9743 C   0  0  0  0  0  0  0  0  0  0  0  0
  -18.3656    4.0257  -15.5528 C   0  0  0  0  0  0  0  0  0  0  0  0
  -19.1089    2.9313  -15.1708 C   0  0  0  0  0  0  0  0  0  0  0  0
  -23.3139    3.1404  -13.7258 H   0  0  0  0  0  0  0  0  0  0  0  0
  -24.3065   -1.2330  -12.2548 C   0  0  0  0  0  0  0  0  0  0  0  0
  -23.7259   -1.8200  -13.3616 C   0  0  0  0  0  0  0  0  0  0  0  0
  -22.9466   -0.9023  -14.1226 C   0  0  0  0  0  0  0  0  0  0  0  0
  -22.8351    0.3363  -13.5229 C   0  0  0  0  0  0  0  0  0  0  0  0
  -23.7903    0.4008  -12.0972 S   0  0  0  0  0  0  0  0  0  0  0  0
  -25.1880   -1.8757  -11.2169 C   0  0  0  0  0  0  0  0  0  0  0  0
  -26.5794   -1.4105  -11.2968 N   0  0  0  0  0  0  0  0  0  0  0  0
  -27.5013   -1.4625  -10.2466 C   0  0  0  0  0  0  0  0  0  0  0  0
  -28.7056   -1.3175  -10.4388 O   0  0  0  0  0  0  0  0  0  0  0  0
  -26.9498   -1.6314   -8.9937 N   0  0  0  0  0  0  0  0  0  0  0  0
  -26.0720   -1.1428   -8.8874 H   0  0  0  0  0  0  0  0  0  0  0  0
  -27.7629   -1.6796   -7.8340 C   0  0  0  0  0  0  0  0  0  0  0  0
  -28.3322   -2.9050   -7.4824 C   0  0  0  0  0  0  0  0  0  0  0  0
  -29.0970   -3.0102   -6.3193 C   0  0  0  0  0  0  0  0  0  0  0  0
  -29.3598   -1.8801   -5.5438 C   0  0  0  0  0  0  0  0  0  0  0  0
  -28.8442   -0.6356   -5.9169 C   0  0  0  0  0  0  0  0  0  0  0  0
  -29.1832    0.5936   -5.1190 C   0  0  0  0  0  0  0  0  0  0  0  0
  -28.0179   -0.5441   -7.0490 C   0  0  0  0  0  0  0  0  0  0  0  0
  -27.6523   -2.2908  -13.3641 C   0  0  0  0  0  0  0  0  0  0  0  0
  -27.1214   -1.0750  -12.6176 C   0  0  0  0  0  0  0  0  0  0  0  0
  -15.0846    2.2643  -16.5094 C   0  0  0  0  0  0  0  0  0  0  0  0
  -14.0597    2.7599  -15.5771 N   0  0  0  0  0  0  0  0  0  0  0  0
  -13.8144    1.8208  -14.4641 C   0  0  0  0  0  0  0  0  0  0  0  0
  -12.7292    2.3537  -13.5002 C   0  0  0  0  0  0  0  0  0  0  0  0
  -11.4370    2.6740  -14.1379 N   0  0  0  0  0  0  0  0  0  0  0  0
  -10.6966    1.4637  -14.4841 C   0  0  0  0  0  0  0  0  0  0  0  0
  -11.6797    3.5260  -15.3197 C   0  0  0  0  0  0  0  0  0  0  0  0
  -12.7872    3.0257  -16.2793 C   0  0  0  0  0  0  0  0  0  0  0  0
 32 33  1  0  0  0
 33 20  1  0  0  0
 20 19  1  0  0  0
 20 21  1  0  0  0
 19 14  1  0  0  0
 14 15  2  0  0  0
 14 18  1  0  0  0
 15 16  1  0  0  0
 16 17  2  0  0  0
 17  1  1  0  0  0
 17 18  1  0  0  0
  1  2  1  0  0  0
  1  5  2  0  0  0
  2  3  1  0  0  0
  2 13  1  0  0  0
  3  4  2  0  0  0
  4  5  1  0  0  0
  4 12  1  0  0  0
  5  6  1  0  0  0
  6  7  1  0  0  0
  7  8  1  0  0  0
  7 12  2  0  0  0
  8  9  2  0  0  0
  9 34  1  0  0  0
  9 10  1  0  0  0
 34 35  1  0  0  0
 35 36  1  0  0  0
 35 41  1  0  0  0
 36 37  1  0  0  0
 37 38  1  0  0  0
 38 39  1  0  0  0
 38 40  1  0  0  0
 40 41  1  0  0  0
 10 11  2  0  0  0
 11 12  1  0  0  0
 21 22  2  0  0  0
 21 23  1  0  0  0
 23 25  1  0  0  0
 23 24  1  0  0  0
 25 26  1  0  0  0
 25 31  2  0  0  0
 26 27  2  0  0  0
 27 28  1  0  0  0
 28 29  2  0  0  0
 29 30  1  0  0  0
 29 31  1  0  0  0
M  END
> <minimizedAffinity>
-11.00717

$$$$
