CHEMBL240608


 29 31  0  0  0  0  0  0  0  0999 V2000
  -15.8945    1.0693  -14.6209 C   0  0  0  0  0  0  0  0  0  0  0  0
  -14.7903    1.8510  -15.0773 C   0  0  0  0  0  0  0  0  0  0  0  0
  -13.3685    1.8396  -14.6442 C   0  0  0  0  0  0  0  0  0  0  0  0
  -15.1589    2.6865  -16.0529 N   0  0  0  0  0  0  0  0  0  0  0  0
  -16.5128    2.4965  -16.2140 O   0  0  0  0  0  0  0  0  0  0  0  0
  -16.9708    1.5613  -15.3364 C   0  0  0  0  0  0  0  0  0  0  0  0
  -15.6066   -1.2316  -14.0208 N   0  0  0  0  0  0  0  0  0  0  0  0
  -15.8806    0.0617  -13.5896 C   0  0  0  0  0  0  0  0  0  0  0  0
  -16.1102    0.3820  -12.4281 O   0  0  0  0  0  0  0  0  0  0  0  0
  -15.4993   -1.3908  -15.0130 H   0  0  0  0  0  0  0  0  0  0  0  0
  -15.1597   -4.6271  -11.5410 C   0  0  0  0  0  0  0  0  0  0  0  0
  -16.1250   -4.5986  -12.5557 C   0  0  0  0  0  0  0  0  0  0  0  0
  -16.2774   -3.4809  -13.3614 C   0  0  0  0  0  0  0  0  0  0  0  0
  -15.4915   -2.3492  -13.1719 C   0  0  0  0  0  0  0  0  0  0  0  0
  -14.5883   -2.3312  -12.1035 C   0  0  0  0  0  0  0  0  0  0  0  0
  -14.3959   -3.4745  -11.3015 C   0  0  0  0  0  0  0  0  0  0  0  0
  -14.0842   -6.7154  -11.2263 C   0  0  0  0  0  0  0  0  0  0  0  0
  -15.0127   -5.7403  -10.7486 O   0  0  0  0  0  0  0  0  0  0  0  0
  -13.4509   -3.3056  -10.3235 O   0  0  0  0  0  0  0  0  0  0  0  0
  -12.0989   -3.5858  -10.6711 C   0  0  0  0  0  0  0  0  0  0  0  0
  -18.3030    1.3119  -15.2960 N   0  0  0  0  0  0  0  0  0  0  0  0
  -18.6650    0.5207  -14.7728 H   0  0  0  0  0  0  0  0  0  0  0  0
  -19.2469    2.4235  -15.3173 C   0  0  0  0  0  0  0  0  0  0  0  0
  -20.6159    2.0220  -14.8174 C   0  0  0  0  0  0  0  0  0  0  0  0
  -21.0175    0.6831  -14.7064 C   0  0  0  0  0  0  0  0  0  0  0  0
  -22.2562    0.4010  -14.1486 C   0  0  0  0  0  0  0  0  0  0  0  0
  -23.1124    1.3418  -13.6964 N   0  0  0  0  0  0  0  0  0  0  0  0
  -22.7133    2.6238  -13.8081 C   0  0  0  0  0  0  0  0  0  0  0  0
  -21.4987    3.0059  -14.3553 C   0  0  0  0  0  0  0  0  0  0  0  0
 17 18  1  0  0  0
 18 11  1  0  0  0
 11 12  1  0  0  0
 11 16  2  0  0  0
 12 13  2  0  0  0
 13 14  1  0  0  0
 14  7  1  0  0  0
 14 15  2  0  0  0
  7  8  1  0  0  0
  7 10  1  0  0  0
  8  9  2  0  0  0
  8  1  1  0  0  0
  1  2  1  0  0  0
  1  6  2  0  0  0
  2  3  1  0  0  0
  2  4  2  0  0  0
  4  5  1  0  0  0
  5  6  1  0  0  0
  6 21  1  0  0  0
 21 23  1  0  0  0
 21 22  1  0  0  0
 23 24  1  0  0  0
 24 25  1  0  0  0
 24 29  2  0  0  0
 25 26  2  0  0  0
 26 27  1  0  0  0
 27 28  2  0  0  0
 28 29  1  0  0  0
 15 16  1  0  0  0
 16 19  1  0  0  0
 19 20  1  0  0  0
M  END
> <minimizedAffinity>
-8.04262

$$$$
