CHEMBL3690452


 34 37  0  0  0  0  0  0  0  0999 V2000
  -28.9449   -3.9282   -6.4797 C   0  0  0  0  0  0  0  0  0  0  0  0
  -28.5392   -4.5539   -7.7457 C   0  0  0  0  0  0  0  0  0  0  0  0
  -27.9730   -3.8193   -8.7167 C   0  0  0  0  0  0  0  0  0  0  0  0
  -27.7912   -2.4456   -8.5362 N   0  0  0  0  0  0  0  0  0  0  0  0
  -27.3284   -1.4504   -9.4011 C   0  0  0  0  0  0  0  0  0  0  0  0
  -27.3172   -0.3106   -8.6091 C   0  0  0  0  0  0  0  0  0  0  0  0
  -27.7920   -0.5451   -7.3468 N   0  0  0  0  0  0  0  0  0  0  0  0
  -28.0995   -1.8218   -7.3291 C   0  0  0  0  0  0  0  0  0  0  0  0
  -28.6835   -2.6115   -6.2944 C   0  0  0  0  0  0  0  0  0  0  0  0
  -30.7246   -6.0920   -3.3639 C   0  0  0  0  0  0  0  0  0  0  0  0
  -31.2232   -4.8662   -3.7822 C   0  0  0  0  0  0  0  0  0  0  0  0
  -30.6692   -4.1588   -4.7996 N   0  0  0  0  0  0  0  0  0  0  0  0
  -29.5920   -4.7237   -5.4054 C   0  0  0  0  0  0  0  0  0  0  0  0
  -29.1026   -5.9541   -4.9650 C   0  0  0  0  0  0  0  0  0  0  0  0
  -29.6555   -6.6661   -3.9509 N   0  0  0  0  0  0  0  0  0  0  0  0
  -32.3323   -5.8838   -1.6895 C   0  0  0  0  0  0  0  0  0  0  0  0
  -31.3496   -6.7135   -2.3051 O   0  0  0  0  0  0  0  0  0  0  0  0
  -27.0054   -1.5941  -10.8318 C   0  0  0  0  0  0  0  0  0  0  0  0
  -28.0247   -1.8194  -11.7668 C   0  0  0  0  0  0  0  0  0  0  0  0
  -27.7360   -1.9847  -13.1150 C   0  0  0  0  0  0  0  0  0  0  0  0
  -26.4308   -1.8447  -13.5677 C   0  0  0  0  0  0  0  0  0  0  0  0
  -25.3933   -1.5260  -12.6878 C   0  0  0  0  0  0  0  0  0  0  0  0
  -25.6865   -1.4371  -11.3121 C   0  0  0  0  0  0  0  0  0  0  0  0
  -24.0697   -1.2814  -13.1346 N   0  0  0  0  0  0  0  0  0  0  0  0
  -23.4298   -0.0564  -13.1401 C   0  0  0  0  0  0  0  0  0  0  0  0
  -23.8762    1.0148  -12.7552 O   0  0  0  0  0  0  0  0  0  0  0  0
  -22.1684   -0.1168  -13.6932 N   0  0  0  0  0  0  0  0  0  0  0  0
  -23.5360   -2.0803  -13.4414 H   0  0  0  0  0  0  0  0  0  0  0  0
  -21.6531   -0.9761  -13.5689 H   0  0  0  0  0  0  0  0  0  0  0  0
  -21.3876    1.1291  -13.7558 C   0  0  0  0  0  0  0  0  0  0  0  0
  -20.2366    1.1633  -14.7744 C   0  0  0  0  0  0  0  0  0  0  0  0
  -20.1159   -0.0036  -15.4480 F   0  0  0  0  0  0  0  0  0  0  0  0
  -20.4759    2.1253  -15.7024 F   0  0  0  0  0  0  0  0  0  0  0  0
  -19.0480    1.4484  -14.2041 F   0  0  0  0  0  0  0  0  0  0  0  0
 16 17  1  0  0  0
 17 10  1  0  0  0
 10 11  1  0  0  0
 10 15  2  0  0  0
 11 12  2  0  0  0
 12 13  1  0  0  0
 13  1  1  0  0  0
 13 14  2  0  0  0
  1  2  1  0  0  0
  1  9  2  0  0  0
  2  3  2  0  0  0
  3  4  1  0  0  0
  4  5  1  0  0  0
  4  8  1  0  0  0
  5 18  1  0  0  0
  5  6  2  0  0  0
 18 19  1  0  0  0
 18 23  2  0  0  0
 19 20  2  0  0  0
 20 21  1  0  0  0
 21 22  2  0  0  0
 22 24  1  0  0  0
 22 23  1  0  0  0
 24 25  1  0  0  0
 24 28  1  0  0  0
 25 26  2  0  0  0
 25 27  1  0  0  0
 27 30  1  0  0  0
 27 29  1  0  0  0
 30 31  1  0  0  0
 31 32  1  0  0  0
 31 33  1  0  0  0
 31 34  1  0  0  0
  6  7  1  0  0  0
  7  8  2  0  0  0
  8  9  1  0  0  0
 14 15  1  0  0  0
M  END
> <minimizedAffinity>
-8.65206

$$$$
