CHEMBL468618


 39 43  0  0  0  0  0  0  0  0999 V2000
  -24.2720   -0.3163  -12.4048 C   0  0  0  0  0  0  0  0  0  0  0  0
  -24.4256    1.0709  -12.4269 C   0  0  0  0  0  0  0  0  0  0  0  0
  -23.4992    1.8754  -13.0859 C   0  0  0  0  0  0  0  0  0  0  0  0
  -22.3534    1.3364  -13.6965 C   0  0  0  0  0  0  0  0  0  0  0  0
  -22.2085   -0.0533  -13.6849 C   0  0  0  0  0  0  0  0  0  0  0  0
  -23.1485   -0.8898  -13.0306 C   0  0  0  0  0  0  0  0  0  0  0  0
  -22.9501   -2.3789  -13.0736 C   0  0  0  0  0  0  0  0  0  0  0  0
  -21.4563    2.2457  -14.3064 N   0  0  0  0  0  0  0  0  0  0  0  0
  -21.8130    3.1905  -14.2282 H   0  0  0  0  0  0  0  0  0  0  0  0
  -20.1797    2.0774  -14.7024 C   0  0  0  0  0  0  0  0  0  0  0  0
  -19.3693    1.0413  -14.7158 N   0  0  0  0  0  0  0  0  0  0  0  0
  -18.1605    1.5147  -15.1824 C   0  0  0  0  0  0  0  0  0  0  0  0
  -16.9346    0.8594  -15.3768 C   0  0  0  0  0  0  0  0  0  0  0  0
  -15.8277    1.6065  -15.8209 C   0  0  0  0  0  0  0  0  0  0  0  0
  -15.9285    2.9851  -16.0784 C   0  0  0  0  0  0  0  0  0  0  0  0
  -17.1654    3.6375  -15.9238 C   0  0  0  0  0  0  0  0  0  0  0  0
  -18.2397    2.8692  -15.4733 C   0  0  0  0  0  0  0  0  0  0  0  0
  -19.5401    3.1860  -15.2025 N   0  0  0  0  0  0  0  0  0  0  0  0
  -19.9601    4.0930  -15.3160 H   0  0  0  0  0  0  0  0  0  0  0  0
  -14.7249    3.7978  -16.5006 C   0  0  0  0  0  0  0  0  0  0  0  0
  -14.0427    4.3544  -15.4624 F   0  0  0  0  0  0  0  0  0  0  0  0
  -13.8151    3.0600  -17.1960 F   0  0  0  0  0  0  0  0  0  0  0  0
  -15.0649    4.8326  -17.3204 F   0  0  0  0  0  0  0  0  0  0  0  0
  -25.1486   -1.1330  -11.7077 O   0  0  0  0  0  0  0  0  0  0  0  0
  -27.4441   -1.9021  -11.5848 C   0  0  0  0  0  0  0  0  0  0  0  0
  -28.5812   -2.2799  -12.3313 C   0  0  0  0  0  0  0  0  0  0  0  0
  -28.5789   -2.2620  -13.7239 C   0  0  0  0  0  0  0  0  0  0  0  0
  -27.4175   -1.8869  -14.3627 C   0  0  0  0  0  0  0  0  0  0  0  0
  -26.2893   -1.5522  -13.7103 N   0  0  0  0  0  0  0  0  0  0  0  0
  -26.3214   -1.5327  -12.3477 C   0  0  0  0  0  0  0  0  0  0  0  0
  -27.9521   -3.1176   -8.1901 C   0  0  0  0  0  0  0  0  0  0  0  0
  -27.7659   -2.0642   -7.3899 N   0  0  0  0  0  0  0  0  0  0  0  0
  -27.4503   -0.9016   -7.9848 C   0  0  0  0  0  0  0  0  0  0  0  0
  -27.3156   -0.7486   -9.3434 C   0  0  0  0  0  0  0  0  0  0  0  0
  -27.5314   -1.8759  -10.1068 C   0  0  0  0  0  0  0  0  0  0  0  0
  -27.8245   -3.0704   -9.5241 N   0  0  0  0  0  0  0  0  0  0  0  0
  -29.7372   -4.4344   -7.2680 C   0  0  0  0  0  0  0  0  0  0  0  0
  -28.3287   -4.2847   -7.5431 N   0  0  0  0  0  0  0  0  0  0  0  0
  -27.9059   -5.0423   -8.0687 H   0  0  0  0  0  0  0  0  0  0  0  0
 37 38  1  0  0  0
 38 31  1  0  0  0
 38 39  1  0  0  0
 31 32  1  0  0  0
 31 36  2  0  0  0
 32 33  2  0  0  0
 33 34  1  0  0  0
 34 35  2  0  0  0
 35 25  1  0  0  0
 35 36  1  0  0  0
 25 26  1  0  0  0
 25 30  2  0  0  0
 26 27  2  0  0  0
 27 28  1  0  0  0
 28 29  2  0  0  0
 29 30  1  0  0  0
 30 24  1  0  0  0
 24  1  1  0  0  0
  1  2  1  0  0  0
  1  6  2  0  0  0
  2  3  2  0  0  0
  3  4  1  0  0  0
  4  8  1  0  0  0
  4  5  2  0  0  0
  8 10  1  0  0  0
  8  9  1  0  0  0
 10 11  2  0  0  0
 10 18  1  0  0  0
 11 12  1  0  0  0
 12 13  1  0  0  0
 12 17  2  0  0  0
 13 14  2  0  0  0
 14 15  1  0  0  0
 15 20  1  0  0  0
 15 16  2  0  0  0
 20 21  1  0  0  0
 20 22  1  0  0  0
 20 23  1  0  0  0
 16 17  1  0  0  0
 17 18  1  0  0  0
 18 19  1  0  0  0
  5  6  1  0  0  0
  6  7  1  0  0  0
M  END
> <minimizedAffinity>
-8.26136

$$$$
