CHEMBL268825


 34 38  0  0  0  0  0  0  0  0999 V2000
  -18.3409    1.3293  -15.2895 C   0  0  0  0  0  0  0  0  0  0  0  0
  -16.8873    1.7175  -15.3331 C   0  0  0  0  0  0  0  0  0  0  0  0
  -16.4740    2.7574  -16.1924 C   0  0  0  0  0  0  0  0  0  0  0  0
  -15.1258    3.1340  -16.3177 C   0  0  0  0  0  0  0  0  0  0  0  0
  -14.2122    2.3919  -15.5664 C   0  0  0  0  0  0  0  0  0  0  0  0
  -14.6095    1.4107  -14.6695 C   0  0  0  0  0  0  0  0  0  0  0  0
  -13.6845    0.8074  -13.9298 N   0  0  0  0  0  0  0  0  0  0  0  0
  -14.0712   -0.1389  -13.0493 N   0  0  0  0  0  0  0  0  0  0  0  0
  -15.3690   -0.4941  -12.9442 C   0  0  0  0  0  0  0  0  0  0  0  0
  -16.3410    0.0940  -13.6570 N   0  0  0  0  0  0  0  0  0  0  0  0
  -15.9559    1.0537  -14.5264 C   0  0  0  0  0  0  0  0  0  0  0  0
  -14.7100    4.2477  -17.2141 C   0  0  0  0  0  0  0  0  0  0  0  0
  -15.3278    4.3687  -18.4801 C   0  0  0  0  0  0  0  0  0  0  0  0
  -15.0396    5.4216  -19.3543 C   0  0  0  0  0  0  0  0  0  0  0  0
  -14.0875    6.3695  -19.0093 C   0  0  0  0  0  0  0  0  0  0  0  0
  -13.4346    6.2690  -17.7856 C   0  0  0  0  0  0  0  0  0  0  0  0
  -13.7518    5.2377  -16.8871 C   0  0  0  0  0  0  0  0  0  0  0  0
  -12.9469    5.3330  -15.3531 Cl  0  0  0  0  0  0  0  0  0  0  0  0
  -15.7312   -1.5113  -12.0647 N   0  0  0  0  0  0  0  0  0  0  0  0
  -16.2068   -1.1637  -11.2460 H   0  0  0  0  0  0  0  0  0  0  0  0
  -15.8781   -2.8721  -12.3727 C   0  0  0  0  0  0  0  0  0  0  0  0
  -16.2556   -3.7721  -11.3731 C   0  0  0  0  0  0  0  0  0  0  0  0
  -16.3125   -5.1456  -11.6362 C   0  0  0  0  0  0  0  0  0  0  0  0
  -16.0216   -5.6292  -12.9152 C   0  0  0  0  0  0  0  0  0  0  0  0
  -15.6293   -4.7457  -13.9103 C   0  0  0  0  0  0  0  0  0  0  0  0
  -15.5613   -3.3831  -13.6424 C   0  0  0  0  0  0  0  0  0  0  0  0
  -16.0763   -6.9357  -13.3072 O   0  0  0  0  0  0  0  0  0  0  0  0
  -14.8271   -7.4892  -13.7184 C   0  0  0  0  0  0  0  0  0  0  0  0
  -14.0607   -7.9346  -12.4675 C   0  0  0  0  0  0  0  0  0  0  0  0
  -12.6386   -7.5427  -12.4875 N   0  0  0  0  0  0  0  0  0  0  0  0
  -12.1576   -7.0438  -11.1899 C   0  0  0  0  0  0  0  0  0  0  0  0
  -12.5356   -5.5794  -11.1815 C   0  0  0  0  0  0  0  0  0  0  0  0
  -12.2337   -5.1622  -12.6066 C   0  0  0  0  0  0  0  0  0  0  0  0
  -12.4223   -6.4310  -13.4352 C   0  0  0  0  0  0  0  0  0  0  0  0
  1  2  1  0  0  0
  2  3  1  0  0  0
  2 11  2  0  0  0
  3  4  2  0  0  0
  4 12  1  0  0  0
  4  5  1  0  0  0
 12 13  1  0  0  0
 12 17  2  0  0  0
 13 14  2  0  0  0
 14 15  1  0  0  0
 15 16  2  0  0  0
 16 17  1  0  0  0
 17 18  1  0  0  0
  5  6  2  0  0  0
  6  7  1  0  0  0
  6 11  1  0  0  0
  7  8  2  0  0  0
  8  9  1  0  0  0
  9 19  1  0  0  0
  9 10  2  0  0  0
 19 21  1  0  0  0
 19 20  1  0  0  0
 21 22  1  0  0  0
 21 26  2  0  0  0
 22 23  2  0  0  0
 23 24  1  0  0  0
 24 27  1  0  0  0
 24 25  2  0  0  0
 27 28  1  0  0  0
 28 29  1  0  0  0
 29 30  1  0  0  0
 30 31  1  0  0  0
 30 34  1  0  0  0
 31 32  1  0  0  0
 32 33  1  0  0  0
 33 34  1  0  0  0
 25 26  1  0  0  0
 10 11  1  0  0  0
M  END
> <minimizedAffinity>
-8.12599

$$$$
