CHEMBL3951245


 37 41  0  0  0  0  0  0  0  0999 V2000
  -15.1721    0.4246  -14.8222 C   0  0  0  0  0  0  0  0  0  0  0  0
  -15.9913   -0.0117  -13.8183 C   0  0  0  0  0  0  0  0  0  0  0  0
  -15.5258   -0.9717  -12.9813 C   0  0  0  0  0  0  0  0  0  0  0  0
  -14.3734   -1.6412  -13.1297 C   0  0  0  0  0  0  0  0  0  0  0  0
  -14.2505   -2.2466  -11.9873 N   0  0  0  0  0  0  0  0  0  0  0  0
  -13.4281   -3.2599  -11.8787 C   0  0  0  0  0  0  0  0  0  0  0  0
  -12.6525   -3.7525  -12.8834 C   0  0  0  0  0  0  0  0  0  0  0  0
  -12.5964   -2.9531  -14.0714 N   0  0  0  0  0  0  0  0  0  0  0  0
  -13.5434   -1.7009  -14.2439 C   0  0  0  0  0  0  0  0  0  0  0  0
  -14.0005   -0.4154  -15.1064 C   0  0  0  0  0  0  0  0  0  0  0  0
  -12.0806   -5.1038  -12.3871 C   0  0  0  0  0  0  0  0  0  0  0  0
  -11.5590   -5.5462  -11.1237 C   0  0  0  0  0  0  0  0  0  0  0  0
  -11.7378   -6.8667  -10.8660 N   0  0  0  0  0  0  0  0  0  0  0  0
  -12.4323   -7.3367  -11.9147 N   0  0  0  0  0  0  0  0  0  0  0  0
  -12.5914   -6.3430  -12.8681 C   0  0  0  0  0  0  0  0  0  0  0  0
  -13.1072   -8.6543  -11.8747 C   0  0  0  0  0  0  0  0  0  0  0  0
  -12.2676   -9.8875  -12.2553 C   0  0  0  0  0  0  0  0  0  0  0  0
  -12.1957  -10.0751  -13.6649 O   0  0  0  0  0  0  0  0  0  0  0  0
  -13.1237  -10.1294  -13.9753 H   0  0  0  0  0  0  0  0  0  0  0  0
  -15.5780    1.7485  -15.3057 N   0  0  0  0  0  0  0  0  0  0  0  0
  -12.7312    4.2850  -15.0573 C   0  0  0  0  0  0  0  0  0  0  0  0
  -12.9412    4.9584  -16.2545 C   0  0  0  0  0  0  0  0  0  0  0  0
  -14.0240    4.6258  -17.0654 C   0  0  0  0  0  0  0  0  0  0  0  0
  -14.9232    3.6312  -16.6838 C   0  0  0  0  0  0  0  0  0  0  0  0
  -14.7291    2.8916  -15.5190 C   0  0  0  0  0  0  0  0  0  0  0  0
  -13.6340    3.2773  -14.6845 C   0  0  0  0  0  0  0  0  0  0  0  0
  -11.0607    3.8738  -13.3796 C   0  0  0  0  0  0  0  0  0  0  0  0
  -11.6395    4.7264  -14.3591 O   0  0  0  0  0  0  0  0  0  0  0  0
  -14.2786    5.2275  -18.2684 O   0  0  0  0  0  0  0  0  0  0  0  0
  -13.8886    6.5985  -18.2934 C   0  0  0  0  0  0  0  0  0  0  0  0
  -16.8209    1.7475  -16.2100 C   0  0  0  0  0  0  0  0  0  0  0  0
  -18.0108    2.2053  -15.4778 C   0  0  0  0  0  0  0  0  0  0  0  0
  -18.9753    1.5191  -14.8092 C   0  0  0  0  0  0  0  0  0  0  0  0
  -20.0128    2.4337  -14.6465 C   0  0  0  0  0  0  0  0  0  0  0  0
  -21.3951    2.0799  -14.2789 C   0  0  0  0  0  0  0  0  0  0  0  0
  -19.6437    3.6755  -14.9981 N   0  0  0  0  0  0  0  0  0  0  0  0
  -18.3580    3.5317  -15.5214 O   0  0  0  0  0  0  0  0  0  0  0  0
 27 28  1  0  0  0
 28 21  1  0  0  0
 21 22  1  0  0  0
 21 26  2  0  0  0
 22 23  2  0  0  0
 23 29  1  0  0  0
 23 24  1  0  0  0
 29 30  1  0  0  0
 24 25  2  0  0  0
 25 20  1  0  0  0
 25 26  1  0  0  0
 20 31  1  0  0  0
 20  1  1  0  0  0
 31 32  1  0  0  0
 32 33  2  0  0  0
 32 37  1  0  0  0
 33 34  1  0  0  0
 34 35  1  0  0  0
 34 36  2  0  0  0
 36 37  1  0  0  0
  1  2  1  0  0  0
  1 10  2  0  0  0
  2  3  2  0  0  0
  3  4  1  0  0  0
  4  5  1  0  0  0
  4  9  2  0  0  0
  5  6  2  0  0  0
  6  7  1  0  0  0
  7 11  1  0  0  0
  7  8  2  0  0  0
 11 12  1  0  0  0
 11 15  2  0  0  0
 12 13  2  0  0  0
 13 14  1  0  0  0
 14 16  1  0  0  0
 14 15  1  0  0  0
 16 17  1  0  0  0
 17 18  1  0  0  0
 18 19  1  0  0  0
  8  9  1  0  0  0
  9 10  1  0  0  0
M  END
> <minimizedAffinity>
-7.28324

$$$$
