CHEMBL3671568


 39 42  0  0  0  0  0  0  0  0999 V2000
  -29.8337   -4.9947   -7.0747 C   0  0  0  0  0  0  0  0  0  0  0  0
  -29.1244   -4.2487   -8.0180 C   0  0  0  0  0  0  0  0  0  0  0  0
  -28.5632   -3.0040   -7.6645 C   0  0  0  0  0  0  0  0  0  0  0  0
  -27.9773   -2.1072   -8.5717 C   0  0  0  0  0  0  0  0  0  0  0  0
  -27.4706   -0.9269   -8.1677 N   0  0  0  0  0  0  0  0  0  0  0  0
  -27.5760   -0.6268   -6.8737 C   0  0  0  0  0  0  0  0  0  0  0  0
  -28.1602   -1.3805   -5.9400 N   0  0  0  0  0  0  0  0  0  0  0  0
  -28.6560   -2.5548   -6.3396 C   0  0  0  0  0  0  0  0  0  0  0  0
  -29.3158   -3.3432   -5.4042 C   0  0  0  0  0  0  0  0  0  0  0  0
  -29.8897   -4.5727   -5.7401 C   0  0  0  0  0  0  0  0  0  0  0  0
  -30.1367   -7.3348   -7.6991 C   0  0  0  0  0  0  0  0  0  0  0  0
  -30.9056   -8.2891   -7.7606 O   0  0  0  0  0  0  0  0  0  0  0  0
  -30.6246   -6.0554   -7.5391 N   0  0  0  0  0  0  0  0  0  0  0  0
  -31.5694   -6.1143   -7.1663 H   0  0  0  0  0  0  0  0  0  0  0  0
  -28.1091   -8.2783   -8.6754 C   0  0  0  0  0  0  0  0  0  0  0  0
  -28.6594   -7.5023   -7.7337 C   0  0  0  0  0  0  0  0  0  0  0  0
  -27.9876   -2.3907   -9.9642 N   0  0  0  0  0  0  0  0  0  0  0  0
  -28.1936   -3.3718  -10.1374 H   0  0  0  0  0  0  0  0  0  0  0  0
  -27.0214   -1.8882  -10.8689 C   0  0  0  0  0  0  0  0  0  0  0  0
  -25.7464   -1.5243  -10.4239 C   0  0  0  0  0  0  0  0  0  0  0  0
  -24.7508   -1.1472  -11.3353 C   0  0  0  0  0  0  0  0  0  0  0  0
  -25.0443   -1.1106  -12.6971 C   0  0  0  0  0  0  0  0  0  0  0  0
  -23.6671   -0.7010  -13.9244 Br  0  0  0  0  0  0  0  0  0  0  0  0
  -26.3279   -1.3961  -13.1544 C   0  0  0  0  0  0  0  0  0  0  0  0
  -27.3053   -1.7729  -12.2370 C   0  0  0  0  0  0  0  0  0  0  0  0
  -28.5324   -2.0750  -12.6824 F   0  0  0  0  0  0  0  0  0  0  0  0
  -30.5113   -5.2230   -4.7010 O   0  0  0  0  0  0  0  0  0  0  0  0
  -29.6574   -5.5696   -3.6044 C   0  0  0  0  0  0  0  0  0  0  0  0
  -29.5171   -7.0894   -3.4784 C   0  0  0  0  0  0  0  0  0  0  0  0
  -28.3364   -7.5765   -4.1784 N   0  0  0  0  0  0  0  0  0  0  0  0
  -27.7949   -8.8230   -3.9054 C   0  0  0  0  0  0  0  0  0  0  0  0
  -28.3444   -9.6250   -3.1536 O   0  0  0  0  0  0  0  0  0  0  0  0
  -27.8093   -6.9320   -4.7545 H   0  0  0  0  0  0  0  0  0  0  0  0
  -26.4424   -9.0949   -4.6109 C   0  0  0  0  0  0  0  0  0  0  0  0
  -25.2797   -9.1097   -3.6142 C   0  0  0  0  0  0  0  0  0  0  0  0
  -25.0136  -10.5828   -3.3071 C   0  0  0  0  0  0  0  0  0  0  0  0
  -26.0427  -11.3548   -4.1182 C   0  0  0  0  0  0  0  0  0  0  0  0
  -26.3424  -10.4373   -5.2155 N   0  0  0  0  0  0  0  0  0  0  0  0
  -27.4645  -10.8706   -6.0273 C   0  0  0  0  0  0  0  0  0  0  0  0
 15 16  2  0  0  0
 16 11  1  0  0  0
 11 12  2  0  0  0
 11 13  1  0  0  0
 13  1  1  0  0  0
 13 14  1  0  0  0
  1  2  1  0  0  0
  1 10  2  0  0  0
  2  3  2  0  0  0
  3  4  1  0  0  0
  3  8  1  0  0  0
  4 17  1  0  0  0
  4  5  2  0  0  0
 17 19  1  0  0  0
 17 18  1  0  0  0
 19 20  1  0  0  0
 19 25  2  0  0  0
 20 21  2  0  0  0
 21 22  1  0  0  0
 22 23  1  0  0  0
 22 24  2  0  0  0
 24 25  1  0  0  0
 25 26  1  0  0  0
  5  6  1  0  0  0
  6  7  2  0  0  0
  7  8  1  0  0  0
  8  9  2  0  0  0
  9 10  1  0  0  0
 10 27  1  0  0  0
 27 28  1  0  0  0
 28 29  1  0  0  0
 29 30  1  0  0  0
 30 31  1  0  0  0
 30 33  1  0  0  0
 31 32  2  0  0  0
 31 34  1  0  0  0
 34 35  1  0  0  0
 34 38  1  0  0  0
 35 36  1  0  0  0
 36 37  1  0  0  0
 37 38  1  0  0  0
 38 39  1  0  0  0
M  END
> <minimizedAffinity>
-9.36236

$$$$
