CHEMBL1082437


 33 39  0  0  0  0  0  0  0  0999 V2000
  -13.3213   -9.1787  -11.7529 C   0  0  0  0  0  0  0  0  0  0  0  0
  -12.6218   -8.0661  -12.3577 N   0  0  0  0  0  0  0  0  0  0  0  0
  -11.5024   -7.5761  -11.7779 N   0  0  0  0  0  0  0  0  0  0  0  0
  -11.7640   -6.2542  -11.7290 C   0  0  0  0  0  0  0  0  0  0  0  0
  -13.1027   -5.9536  -12.1355 C   0  0  0  0  0  0  0  0  0  0  0  0
  -13.2814   -7.0533  -12.9798 C   0  0  0  0  0  0  0  0  0  0  0  0
  -13.9139   -7.0828  -14.3315 C   0  0  0  0  0  0  0  0  0  0  0  0
  -14.8889   -5.9255  -14.3751 C   0  0  0  0  0  0  0  0  0  0  0  0
  -14.1436   -4.7172  -13.8792 C   0  0  0  0  0  0  0  0  0  0  0  0
  -13.7313   -4.7182  -12.5584 C   0  0  0  0  0  0  0  0  0  0  0  0
  -14.4151   -3.6957  -11.8624 C   0  0  0  0  0  0  0  0  0  0  0  0
  -14.8063   -2.4794  -12.5368 C   0  0  0  0  0  0  0  0  0  0  0  0
  -14.2626   -2.3519  -13.8409 C   0  0  0  0  0  0  0  0  0  0  0  0
  -14.0580   -1.2577  -14.6570 C   0  0  0  0  0  0  0  0  0  0  0  0
  -14.4373    0.0867  -14.7490 C   0  0  0  0  0  0  0  0  0  0  0  0
  -13.9015    0.9069  -15.7829 C   0  0  0  0  0  0  0  0  0  0  0  0
  -12.8588    0.4272  -16.5730 C   0  0  0  0  0  0  0  0  0  0  0  0
  -12.4474   -0.9029  -16.4822 C   0  0  0  0  0  0  0  0  0  0  0  0
  -13.1343   -1.7475  -15.6141 C   0  0  0  0  0  0  0  0  0  0  0  0
  -13.0305   -3.1152  -15.4286 N   0  0  0  0  0  0  0  0  0  0  0  0
  -12.0189   -4.0072  -15.9559 C   0  0  0  0  0  0  0  0  0  0  0  0
  -13.9130   -3.5066  -14.4662 C   0  0  0  0  0  0  0  0  0  0  0  0
  -15.7335   -1.6781  -11.7490 C   0  0  0  0  0  0  0  0  0  0  0  0
  -15.8597   -2.5560  -10.5879 N   0  0  0  0  0  0  0  0  0  0  0  0
  -15.1025   -3.7345  -10.5994 C   0  0  0  0  0  0  0  0  0  0  0  0
  -15.1965   -4.5827   -9.7223 O   0  0  0  0  0  0  0  0  0  0  0  0
  -16.6154   -2.4832   -9.9198 H   0  0  0  0  0  0  0  0  0  0  0  0
  -14.5261    2.2864  -15.9640 C   0  0  0  0  0  0  0  0  0  0  0  0
  -14.2710    3.1135  -17.2375 C   0  0  0  0  0  0  0  0  0  0  0  0
  -13.1387    4.1437  -17.1620 C   0  0  0  0  0  0  0  0  0  0  0  0
  -12.8895    4.6791  -15.7569 C   0  0  0  0  0  0  0  0  0  0  0  0
  -12.9470    3.5512  -14.7523 C   0  0  0  0  0  0  0  0  0  0  0  0
  -14.2735    3.0318  -14.7727 O   0  0  0  0  0  0  0  0  0  0  0  0
  1  2  1  0  0  0
  2  3  1  0  0  0
  2  6  1  0  0  0
  3  4  2  0  0  0
  4  5  1  0  0  0
  5  6  2  0  0  0
  5 10  1  0  0  0
  6  7  1  0  0  0
  7  8  1  0  0  0
  8  9  1  0  0  0
  9 10  1  0  0  0
  9 22  2  0  0  0
 10 11  2  0  0  0
 11 12  1  0  0  0
 11 25  1  0  0  0
 12 13  2  0  0  0
 12 23  1  0  0  0
 13 14  1  0  0  0
 13 22  1  0  0  0
 14 15  1  0  0  0
 14 19  2  0  0  0
 15 16  2  0  0  0
 16 28  1  0  0  0
 16 17  1  0  0  0
 28 29  1  0  0  0
 28 33  1  0  0  0
 29 30  1  0  0  0
 30 31  1  0  0  0
 31 32  1  0  0  0
 32 33  1  0  0  0
 17 18  2  0  0  0
 18 19  1  0  0  0
 19 20  1  0  0  0
 20 21  1  0  0  0
 20 22  1  0  0  0
 23 24  1  0  0  0
 24 25  1  0  0  0
 24 27  1  0  0  0
 25 26  2  0  0  0
M  END
> <minimizedAffinity>
-7.39307

$$$$
