CHEMBL4533153


 46 50  0  0  0  0  0  0  0  0999 V2000
  -23.2185   -0.8459  -13.4933 C   0  0  0  0  0  0  0  0  0  0  0  0
  -23.0430   -1.1826  -12.1574 C   0  0  0  0  0  0  0  0  0  0  0  0
  -24.0826   -1.7640  -11.4296 C   0  0  0  0  0  0  0  0  0  0  0  0
  -25.3587   -1.9652  -11.9725 C   0  0  0  0  0  0  0  0  0  0  0  0
  -25.5606   -1.5789  -13.2991 C   0  0  0  0  0  0  0  0  0  0  0  0
  -24.4904   -1.0445  -14.0485 C   0  0  0  0  0  0  0  0  0  0  0  0
  -24.7066   -0.7408  -15.3380 F   0  0  0  0  0  0  0  0  0  0  0  0
  -26.4187   -2.5245  -11.2004 N   0  0  0  0  0  0  0  0  0  0  0  0
  -26.7763   -2.0574   -9.9468 C   0  0  0  0  0  0  0  0  0  0  0  0
  -26.1733   -1.2039   -9.3284 O   0  0  0  0  0  0  0  0  0  0  0  0
  -27.9256   -2.6063   -9.3770 N   0  0  0  0  0  0  0  0  0  0  0  0
  -26.8993   -3.3310  -11.5679 H   0  0  0  0  0  0  0  0  0  0  0  0
  -28.5029   -3.3176   -9.8108 H   0  0  0  0  0  0  0  0  0  0  0  0
  -28.3689   -2.2189   -7.8005 S   0  0  0  0  0  0  0  0  0  0  0  0
  -27.2976   -2.7668   -6.9872 O   0  0  0  0  0  0  0  0  0  0  0  0
  -28.6719   -0.8057   -7.7613 O   0  0  0  0  0  0  0  0  0  0  0  0
  -29.8609   -3.2178   -7.5260 C   0  0  0  0  0  0  0  0  0  0  0  0
  -29.4896   -4.5379   -6.8891 C   0  0  0  0  0  0  0  0  0  0  0  0
  -29.5645   -4.6974   -5.4942 C   0  0  0  0  0  0  0  0  0  0  0  0
  -29.2344   -5.9155   -4.8999 C   0  0  0  0  0  0  0  0  0  0  0  0
  -28.8256   -6.9753   -5.6931 C   0  0  0  0  0  0  0  0  0  0  0  0
  -28.5110   -8.1472   -5.1276 F   0  0  0  0  0  0  0  0  0  0  0  0
  -28.7539   -6.8482   -7.0773 C   0  0  0  0  0  0  0  0  0  0  0  0
  -29.0861   -5.6297   -7.6741 C   0  0  0  0  0  0  0  0  0  0  0  0
  -22.2172   -0.3535  -14.3141 O   0  0  0  0  0  0  0  0  0  0  0  0
  -18.2202    1.1008  -15.0274 C   0  0  0  0  0  0  0  0  0  0  0  0
  -19.5341    0.6615  -14.9870 C   0  0  0  0  0  0  0  0  0  0  0  0
  -20.5855    1.4933  -14.5811 C   0  0  0  0  0  0  0  0  0  0  0  0
  -21.8702    0.9920  -14.2801 C   0  0  0  0  0  0  0  0  0  0  0  0
  -22.8932    1.8837  -13.9838 C   0  0  0  0  0  0  0  0  0  0  0  0
  -22.5842    3.2295  -13.9379 C   0  0  0  0  0  0  0  0  0  0  0  0
  -21.3417    3.7298  -14.1277 N   0  0  0  0  0  0  0  0  0  0  0  0
  -20.3507    2.8743  -14.4355 C   0  0  0  0  0  0  0  0  0  0  0  0
  -19.0530    3.3428  -14.6268 C   0  0  0  0  0  0  0  0  0  0  0  0
  -17.9791    2.4798  -14.9106 C   0  0  0  0  0  0  0  0  0  0  0  0
  -16.3281   -0.0910  -14.1103 C   0  0  0  0  0  0  0  0  0  0  0  0
  -17.1932    0.2159  -15.2016 O   0  0  0  0  0  0  0  0  0  0  0  0
  -16.7757    3.1368  -15.0676 O   0  0  0  0  0  0  0  0  0  0  0  0
  -16.6867    3.9394  -16.2384 C   0  0  0  0  0  0  0  0  0  0  0  0
  -15.3233    3.8587  -16.9006 C   0  0  0  0  0  0  0  0  0  0  0  0
  -14.3184    4.5282  -15.9482 C   0  0  0  0  0  0  0  0  0  0  0  0
  -13.0371    3.8237  -15.8437 N   0  0  0  0  0  0  0  0  0  0  0  0
  -13.2468    2.3675  -15.7379 C   0  0  0  0  0  0  0  0  0  0  0  0
  -13.3823    2.0866  -14.2546 C   0  0  0  0  0  0  0  0  0  0  0  0
  -12.4394    3.0856  -13.6177 C   0  0  0  0  0  0  0  0  0  0  0  0
  -12.2798    4.2013  -14.6416 C   0  0  0  0  0  0  0  0  0  0  0  0
 36 37  1  0  0  0
 37 26  1  0  0  0
 26 27  1  0  0  0
 26 35  2  0  0  0
 27 28  2  0  0  0
 28 29  1  0  0  0
 28 33  1  0  0  0
 29 25  1  0  0  0
 29 30  2  0  0  0
 25  1  1  0  0  0
  1  2  1  0  0  0
  1  6  2  0  0  0
  2  3  2  0  0  0
  3  4  1  0  0  0
  4  8  1  0  0  0
  4  5  2  0  0  0
  8  9  1  0  0  0
  8 12  1  0  0  0
  9 10  2  0  0  0
  9 11  1  0  0  0
 11 14  1  0  0  0
 11 13  1  0  0  0
 14 15  2  0  0  0
 14 16  2  0  0  0
 14 17  1  0  0  0
 17 18  1  0  0  0
 18 19  1  0  0  0
 18 24  2  0  0  0
 19 20  2  0  0  0
 20 21  1  0  0  0
 21 22  1  0  0  0
 21 23  2  0  0  0
 23 24  1  0  0  0
  5  6  1  0  0  0
  6  7  1  0  0  0
 30 31  1  0  0  0
 31 32  2  0  0  0
 32 33  1  0  0  0
 33 34  2  0  0  0
 34 35  1  0  0  0
 35 38  1  0  0  0
 38 39  1  0  0  0
 39 40  1  0  0  0
 40 41  1  0  0  0
 41 42  1  0  0  0
 42 43  1  0  0  0
 42 46  1  0  0  0
 43 44  1  0  0  0
 44 45  1  0  0  0
 45 46  1  0  0  0
M  END
> <minimizedAffinity>
-10.00246

$$$$
