CHEMBL1956891


 29 32  0  0  0  0  0  0  0  0999 V2000
  -27.0111    8.1450  -17.7548 N   0  0  0  0  0  0  0  0  0  0  0  0
  -26.8322    9.2866  -16.9972 C   0  0  0  0  0  0  0  0  0  0  0  0
  -27.9465    9.9363  -16.6448 N   0  0  0  0  0  0  0  0  0  0  0  0
  -27.8712   11.0814  -15.9183 C   0  0  0  0  0  0  0  0  0  0  0  0
  -26.5947   11.5313  -15.5455 C   0  0  0  0  0  0  0  0  0  0  0  0
  -26.0587   12.6530  -14.8527 C   0  0  0  0  0  0  0  0  0  0  0  0
  -24.6842   12.5384  -14.8705 C   0  0  0  0  0  0  0  0  0  0  0  0
  -24.3655   11.3761  -15.5339 N   0  0  0  0  0  0  0  0  0  0  0  0
  -25.5183   10.7601  -15.9605 C   0  0  0  0  0  0  0  0  0  0  0  0
  -25.5811    9.6233  -16.6720 N   0  0  0  0  0  0  0  0  0  0  0  0
  -27.9540    7.8010  -17.6114 H   0  0  0  0  0  0  0  0  0  0  0  0
  -26.2501    7.5010  -17.6057 H   0  0  0  0  0  0  0  0  0  0  0  0
  -29.0454   11.7671  -15.5686 N   0  0  0  0  0  0  0  0  0  0  0  0
  -29.6031   12.0538  -16.3621 H   0  0  0  0  0  0  0  0  0  0  0  0
  -29.8003   11.6158  -14.3860 C   0  0  0  0  0  0  0  0  0  0  0  0
  -29.3248   12.0303  -13.1346 C   0  0  0  0  0  0  0  0  0  0  0  0
  -30.0902   11.8744  -11.9794 C   0  0  0  0  0  0  0  0  0  0  0  0
  -31.3682   11.3219  -12.0638 C   0  0  0  0  0  0  0  0  0  0  0  0
  -31.8594   10.9272  -13.3059 C   0  0  0  0  0  0  0  0  0  0  0  0
  -33.6036   10.2020  -13.4244 Br  0  0  0  0  0  0  0  0  0  0  0  0
  -31.0867   11.0655  -14.4593 C   0  0  0  0  0  0  0  0  0  0  0  0
  -23.0114   10.9237  -15.8285 C   0  0  0  0  0  0  0  0  0  0  0  0
  -22.5469   11.3809  -17.1912 C   0  0  0  0  0  0  0  0  0  0  0  0
  -23.3961   12.1286  -18.0228 C   0  0  0  0  0  0  0  0  0  0  0  0
  -22.9785   12.5255  -19.2951 C   0  0  0  0  0  0  0  0  0  0  0  0
  -21.7030   12.1897  -19.7404 C   0  0  0  0  0  0  0  0  0  0  0  0
  -21.1986   12.6520  -21.3190 Cl  0  0  0  0  0  0  0  0  0  0  0  0
  -20.8352   11.4760  -18.9171 C   0  0  0  0  0  0  0  0  0  0  0  0
  -21.2548   11.0734  -17.6460 C   0  0  0  0  0  0  0  0  0  0  0  0
  1  2  1  0  0  0
  1 11  1  0  0  0
  1 12  1  0  0  0
  2  3  1  0  0  0
  2 10  2  0  0  0
  3  4  2  0  0  0
  4 13  1  0  0  0
  4  5  1  0  0  0
 13 15  1  0  0  0
 13 14  1  0  0  0
 15 16  1  0  0  0
 15 21  2  0  0  0
 16 17  2  0  0  0
 17 18  1  0  0  0
 18 19  2  0  0  0
 19 20  1  0  0  0
 19 21  1  0  0  0
  5  6  1  0  0  0
  5  9  2  0  0  0
  6  7  2  0  0  0
  7  8  1  0  0  0
  8 22  1  0  0  0
  8  9  1  0  0  0
 22 23  1  0  0  0
 23 24  1  0  0  0
 23 29  2  0  0  0
 24 25  2  0  0  0
 25 26  1  0  0  0
 26 27  1  0  0  0
 26 28  2  0  0  0
 28 29  1  0  0  0
  9 10  1  0  0  0
M  END
> <minimizedAffinity>
-5.43782

$$$$
