CHEMBL438653


 38 41  0  0  0  0  0  0  0  0999 V2000
  -26.1549   -1.1949  -11.5358 C   0  0  0  0  0  0  0  0  0  0  0  0
  -25.5683   -1.5068  -10.3076 C   0  0  0  0  0  0  0  0  0  0  0  0
  -26.3513   -1.9110   -9.2227 C   0  0  0  0  0  0  0  0  0  0  0  0
  -27.7486   -1.9856   -9.3203 C   0  0  0  0  0  0  0  0  0  0  0  0
  -28.3197   -1.5406  -10.5290 C   0  0  0  0  0  0  0  0  0  0  0  0
  -27.5407   -1.1642  -11.6312 C   0  0  0  0  0  0  0  0  0  0  0  0
  -28.5752   -2.4756   -8.1951 C   0  0  0  0  0  0  0  0  0  0  0  0
  -29.2969   -3.6869   -8.2855 C   0  0  0  0  0  0  0  0  0  0  0  0
  -30.0234   -4.2112   -7.2130 C   0  0  0  0  0  0  0  0  0  0  0  0
  -30.0261   -3.5907   -5.9625 C   0  0  0  0  0  0  0  0  0  0  0  0
  -29.3115   -2.3923   -5.8801 C   0  0  0  0  0  0  0  0  0  0  0  0
  -29.0685   -1.5800   -4.8060 N   0  0  0  0  0  0  0  0  0  0  0  0
  -28.4970   -0.4087   -5.1163 N   0  0  0  0  0  0  0  0  0  0  0  0
  -28.2902   -0.5024   -6.4261 C   0  0  0  0  0  0  0  0  0  0  0  0
  -27.8228    0.5351   -7.1417 N   0  0  0  0  0  0  0  0  0  0  0  0
  -28.6633   -1.7808   -6.9553 C   0  0  0  0  0  0  0  0  0  0  0  0
  -29.2931   -1.7718   -3.8370 H   0  0  0  0  0  0  0  0  0  0  0  0
  -27.8393    1.4353   -6.6761 H   0  0  0  0  0  0  0  0  0  0  0  0
  -28.0652    0.5957   -8.1264 H   0  0  0  0  0  0  0  0  0  0  0  0
  -30.6797   -4.0384   -4.8421 O   0  0  0  0  0  0  0  0  0  0  0  0
  -29.8998   -4.8789   -3.9806 C   0  0  0  0  0  0  0  0  0  0  0  0
  -30.4106   -6.3281   -4.0361 C   0  0  0  0  0  0  0  0  0  0  0  0
  -29.4685   -7.2611   -4.6913 N   0  0  0  0  0  0  0  0  0  0  0  0
  -29.9612   -7.7294   -5.9890 C   0  0  0  0  0  0  0  0  0  0  0  0
  -28.1622   -6.6205   -4.8647 C   0  0  0  0  0  0  0  0  0  0  0  0
  -23.7329    0.1168  -13.8991 N   0  0  0  0  0  0  0  0  0  0  0  0
  -24.4225    0.0412  -12.7009 C   0  0  0  0  0  0  0  0  0  0  0  0
  -24.2145    0.7676  -11.7275 O   0  0  0  0  0  0  0  0  0  0  0  0
  -25.3685   -0.9725  -12.6937 N   0  0  0  0  0  0  0  0  0  0  0  0
  -24.1560   -0.3447  -14.6920 H   0  0  0  0  0  0  0  0  0  0  0  0
  -25.1188   -1.7924  -13.2301 H   0  0  0  0  0  0  0  0  0  0  0  0
  -18.9772    0.4865  -15.2348 C   0  0  0  0  0  0  0  0  0  0  0  0
  -20.2652    1.1244  -14.8052 C   0  0  0  0  0  0  0  0  0  0  0  0
  -20.3332    2.5139  -14.6614 C   0  0  0  0  0  0  0  0  0  0  0  0
  -21.5186    3.1159  -14.2607 C   0  0  0  0  0  0  0  0  0  0  0  0
  -22.6444    2.3349  -14.0031 C   0  0  0  0  0  0  0  0  0  0  0  0
  -22.6127    0.9444  -14.1512 C   0  0  0  0  0  0  0  0  0  0  0  0
  -21.4090    0.3444  -14.5498 C   0  0  0  0  0  0  0  0  0  0  0  0
 32 33  1  0  0  0
 33 34  1  0  0  0
 33 38  2  0  0  0
 34 35  2  0  0  0
 35 36  1  0  0  0
 36 37  2  0  0  0
 37 26  1  0  0  0
 37 38  1  0  0  0
 26 27  1  0  0  0
 26 30  1  0  0  0
 27 28  2  0  0  0
 27 29  1  0  0  0
 29  1  1  0  0  0
 29 31  1  0  0  0
  1  2  1  0  0  0
  1  6  2  0  0  0
  2  3  2  0  0  0
  3  4  1  0  0  0
  4  7  1  0  0  0
  4  5  2  0  0  0
  7  8  1  0  0  0
  7 16  2  0  0  0
  8  9  2  0  0  0
  9 10  1  0  0  0
 10 20  1  0  0  0
 10 11  2  0  0  0
 20 21  1  0  0  0
 21 22  1  0  0  0
 22 23  1  0  0  0
 23 24  1  0  0  0
 23 25  1  0  0  0
 11 12  1  0  0  0
 11 16  1  0  0  0
 12 13  1  0  0  0
 12 17  1  0  0  0
 13 14  2  0  0  0
 14 15  1  0  0  0
 14 16  1  0  0  0
 15 18  1  0  0  0
 15 19  1  0  0  0
  5  6  1  0  0  0
M  END
> <minimizedAffinity>
-9.15067

$$$$
