CHEMBL3297898


 21 23  0  0  0  0  0  0  0  0999 V2000
  -16.0544    1.8305  -15.5713 C   0  0  0  0  0  0  0  0  0  0  0  0
  -15.2430    1.9031  -16.6644 N   0  0  0  0  0  0  0  0  0  0  0  0
  -14.2555    0.9960  -16.8434 C   0  0  0  0  0  0  0  0  0  0  0  0
  -13.4721    1.0944  -18.1173 C   0  0  0  0  0  0  0  0  0  0  0  0
  -13.9343   -0.0121  -16.0197 N   0  0  0  0  0  0  0  0  0  0  0  0
  -14.7073   -0.0275  -14.9271 C   0  0  0  0  0  0  0  0  0  0  0  0
  -14.5847   -0.9744  -13.9479 O   0  0  0  0  0  0  0  0  0  0  0  0
  -15.5245   -0.7001  -13.0012 C   0  0  0  0  0  0  0  0  0  0  0  0
  -15.6362   -1.6316  -11.8625 C   0  0  0  0  0  0  0  0  0  0  0  0
  -16.2187    0.4363  -13.3392 C   0  0  0  0  0  0  0  0  0  0  0  0
  -15.7383    0.8412  -14.6170 C   0  0  0  0  0  0  0  0  0  0  0  0
  -17.1629    2.6983  -15.4507 N   0  0  0  0  0  0  0  0  0  0  0  0
  -16.8970    4.0706  -15.8753 C   0  0  0  0  0  0  0  0  0  0  0  0
  -21.1682    1.7875  -14.3904 C   0  0  0  0  0  0  0  0  0  0  0  0
  -20.6234    3.0327  -14.1049 C   0  0  0  0  0  0  0  0  0  0  0  0
  -19.2805    3.2896  -14.3961 C   0  0  0  0  0  0  0  0  0  0  0  0
  -18.4564    2.3415  -15.0307 C   0  0  0  0  0  0  0  0  0  0  0  0
  -19.0118    1.0804  -15.2742 C   0  0  0  0  0  0  0  0  0  0  0  0
  -20.3504    0.8074  -14.9551 C   0  0  0  0  0  0  0  0  0  0  0  0
  -22.7017    0.0239  -13.9788 C   0  0  0  0  0  0  0  0  0  0  0  0
  -22.4651    1.4149  -14.1706 O   0  0  0  0  0  0  0  0  0  0  0  0
 20 21  1  0  0  0
 21 14  1  0  0  0
 14 15  1  0  0  0
 14 19  2  0  0  0
 15 16  2  0  0  0
 16 17  1  0  0  0
 17 12  1  0  0  0
 17 18  2  0  0  0
 12 13  1  0  0  0
 12  1  1  0  0  0
  1  2  1  0  0  0
  1 11  2  0  0  0
  2  3  2  0  0  0
  3  4  1  0  0  0
  3  5  1  0  0  0
  5  6  2  0  0  0
  6  7  1  0  0  0
  6 11  1  0  0  0
  7  8  1  0  0  0
  8  9  1  0  0  0
  8 10  2  0  0  0
 10 11  1  0  0  0
 18 19  1  0  0  0
M  END
> <minimizedAffinity>
-7.18783

$$$$
