CHEMBL80302


 28 32  0  0  0  0  0  0  0  0999 V2000
  -29.0749   -7.6030   -4.8848 C   0  0  0  0  0  0  0  0  0  0  0  0
  -29.7428   -8.4220   -5.7334 N   0  0  0  0  0  0  0  0  0  0  0  0
  -30.4034   -7.9128   -6.7781 C   0  0  0  0  0  0  0  0  0  0  0  0
  -30.4987   -6.6309   -7.1172 N   0  0  0  0  0  0  0  0  0  0  0  0
  -29.8497   -5.7940   -6.2746 C   0  0  0  0  0  0  0  0  0  0  0  0
  -29.7809   -4.3862   -6.4452 C   0  0  0  0  0  0  0  0  0  0  0  0
  -29.0548   -3.7478   -5.4582 C   0  0  0  0  0  0  0  0  0  0  0  0
  -28.4647   -4.8885   -4.3167 S   0  0  0  0  0  0  0  0  0  0  0  0
  -29.1496   -6.2273   -5.1550 C   0  0  0  0  0  0  0  0  0  0  0  0
  -28.7960   -2.3045   -5.3224 C   0  0  0  0  0  0  0  0  0  0  0  0
  -29.8588   -1.3933   -5.4550 C   0  0  0  0  0  0  0  0  0  0  0  0
  -29.6445   -0.0158   -5.3679 C   0  0  0  0  0  0  0  0  0  0  0  0
  -28.3622    0.4747   -5.1435 C   0  0  0  0  0  0  0  0  0  0  0  0
  -27.2959   -0.4113   -5.0096 C   0  0  0  0  0  0  0  0  0  0  0  0
  -27.5102   -1.7894   -5.1015 C   0  0  0  0  0  0  0  0  0  0  0  0
  -28.3047   -8.1176   -3.8231 N   0  0  0  0  0  0  0  0  0  0  0  0
  -28.1845   -7.4488   -3.0723 H   0  0  0  0  0  0  0  0  0  0  0  0
  -21.9175  -11.6983   -5.2212 C   0  0  0  0  0  0  0  0  0  0  0  0
  -23.2270  -11.1044   -4.8638 C   0  0  0  0  0  0  0  0  0  0  0  0
  -23.6810   -9.8007   -4.9018 C   0  0  0  0  0  0  0  0  0  0  0  0
  -25.0326   -9.7903   -4.4552 C   0  0  0  0  0  0  0  0  0  0  0  0
  -26.0165   -8.7879   -4.3003 C   0  0  0  0  0  0  0  0  0  0  0  0
  -27.3126   -9.1245   -3.8620 C   0  0  0  0  0  0  0  0  0  0  0  0
  -27.5647  -10.4549   -3.5077 C   0  0  0  0  0  0  0  0  0  0  0  0
  -26.6130  -11.4694   -3.6504 C   0  0  0  0  0  0  0  0  0  0  0  0
  -25.3619  -11.1052   -4.1396 C   0  0  0  0  0  0  0  0  0  0  0  0
  -24.2591  -11.8809   -4.4013 N   0  0  0  0  0  0  0  0  0  0  0  0
  -24.2259  -12.8826   -4.2716 H   0  0  0  0  0  0  0  0  0  0  0  0
 18 19  1  0  0  0
 19 20  2  0  0  0
 19 27  1  0  0  0
 20 21  1  0  0  0
 21 22  1  0  0  0
 21 26  2  0  0  0
 22 23  2  0  0  0
 23 16  1  0  0  0
 23 24  1  0  0  0
 16  1  1  0  0  0
 16 17  1  0  0  0
  1  2  1  0  0  0
  1  9  2  0  0  0
  2  3  2  0  0  0
  3  4  1  0  0  0
  4  5  2  0  0  0
  5  6  1  0  0  0
  5  9  1  0  0  0
  6  7  2  0  0  0
  7 10  1  0  0  0
  7  8  1  0  0  0
 10 11  1  0  0  0
 10 15  2  0  0  0
 11 12  2  0  0  0
 12 13  1  0  0  0
 13 14  2  0  0  0
 14 15  1  0  0  0
  8  9  1  0  0  0
 24 25  2  0  0  0
 25 26  1  0  0  0
 26 27  1  0  0  0
 27 28  1  0  0  0
M  END
> <minimizedAffinity>
-8.81481

$$$$
