CHEMBL3098313


 28 31  0  0  0  0  0  0  0  0999 V2000
  -29.9961   -8.9952   -7.8507 N   0  0  0  0  0  0  0  0  0  0  0  0
  -30.3846   -9.7399   -7.2824 H   0  0  0  0  0  0  0  0  0  0  0  0
  -28.9724   -9.4829   -8.7131 C   0  0  0  0  0  0  0  0  0  0  0  0
  -29.2643   -9.5132  -10.0268 N   0  0  0  0  0  0  0  0  0  0  0  0
  -28.4097  -10.1167  -10.8409 C   0  0  0  0  0  0  0  0  0  0  0  0
  -28.9034  -10.3015  -12.4612 Cl  0  0  0  0  0  0  0  0  0  0  0  0
  -27.2685  -10.6960  -10.5042 N   0  0  0  0  0  0  0  0  0  0  0  0
  -26.9467  -10.6342   -9.2227 C   0  0  0  0  0  0  0  0  0  0  0  0
  -25.7651  -11.2747   -8.9051 C   0  0  0  0  0  0  0  0  0  0  0  0
  -25.3278  -11.2657   -7.6071 C   0  0  0  0  0  0  0  0  0  0  0  0
  -26.0201  -10.6243   -6.6183 C   0  0  0  0  0  0  0  0  0  0  0  0
  -27.2309   -9.9949   -6.8814 C   0  0  0  0  0  0  0  0  0  0  0  0
  -27.7400  -10.0060   -8.2218 C   0  0  0  0  0  0  0  0  0  0  0  0
  -25.3628  -10.6951   -5.4279 O   0  0  0  0  0  0  0  0  0  0  0  0
  -24.1488  -11.3905   -5.8137 C   0  0  0  0  0  0  0  0  0  0  0  0
  -24.1865  -11.8671   -7.1696 O   0  0  0  0  0  0  0  0  0  0  0  0
  -29.9414   -5.2242   -5.8438 C   0  0  0  0  0  0  0  0  0  0  0  0
  -30.6540   -6.2874   -5.3007 C   0  0  0  0  0  0  0  0  0  0  0  0
  -30.6425   -7.5298   -5.9487 C   0  0  0  0  0  0  0  0  0  0  0  0
  -29.9886   -7.7323   -7.1808 C   0  0  0  0  0  0  0  0  0  0  0  0
  -29.2688   -6.6455   -7.7026 C   0  0  0  0  0  0  0  0  0  0  0  0
  -29.2555   -5.3953   -7.0505 C   0  0  0  0  0  0  0  0  0  0  0  0
  -30.0015   -3.6281   -5.0433 S   0  0  0  0  0  0  0  0  0  0  0  0
  -30.8552   -3.7580   -3.8806 O   0  0  0  0  0  0  0  0  0  0  0  0
  -30.2838   -2.6442   -6.0679 O   0  0  0  0  0  0  0  0  0  0  0  0
  -27.6722   -4.5492   -3.9971 C   0  0  0  0  0  0  0  0  0  0  0  0
  -28.4065   -3.3781   -4.5031 N   0  0  0  0  0  0  0  0  0  0  0  0
  -27.5766   -2.4538   -5.2901 C   0  0  0  0  0  0  0  0  0  0  0  0
 26 27  1  0  0  0
 27 28  1  0  0  0
 27 23  1  0  0  0
 23 24  2  0  0  0
 23 25  2  0  0  0
 23 17  1  0  0  0
 17 18  1  0  0  0
 17 22  2  0  0  0
 18 19  2  0  0  0
 19 20  1  0  0  0
 20  1  1  0  0  0
 20 21  2  0  0  0
  1  3  1  0  0  0
  1  2  1  0  0  0
  3  4  1  0  0  0
  3 13  2  0  0  0
  4  5  2  0  0  0
  5  6  1  0  0  0
  5  7  1  0  0  0
  7  8  2  0  0  0
  8  9  1  0  0  0
  8 13  1  0  0  0
  9 10  2  0  0  0
 10 11  1  0  0  0
 10 16  1  0  0  0
 11 12  2  0  0  0
 11 14  1  0  0  0
 12 13  1  0  0  0
 14 15  1  0  0  0
 15 16  1  0  0  0
 21 22  1  0  0  0
M  END
> <minimizedAffinity>
-7.55578

$$$$
