CHEMBL2349000


 33 37  0  0  0  0  0  0  0  0999 V2000
  -18.3706    2.7602  -16.1376 O   0  0  0  0  0  0  0  0  0  0  0  0
  -19.5608    2.3990  -15.4988 C   0  0  0  0  0  0  0  0  0  0  0  0
  -20.2387    3.5953  -14.9333 C   0  0  0  0  0  0  0  0  0  0  0  0
  -21.3641    3.3750  -14.2277 C   0  0  0  0  0  0  0  0  0  0  0  0
  -21.8396    2.0526  -14.0952 C   0  0  0  0  0  0  0  0  0  0  0  0
  -22.8925    1.5724  -13.4770 N   0  0  0  0  0  0  0  0  0  0  0  0
  -22.8768    0.2256  -13.7046 C   0  0  0  0  0  0  0  0  0  0  0  0
  -21.7858   -0.1283  -14.4645 C   0  0  0  0  0  0  0  0  0  0  0  0
  -21.1205    1.0473  -14.7086 N   0  0  0  0  0  0  0  0  0  0  0  0
  -19.9646    1.1652  -15.4146 N   0  0  0  0  0  0  0  0  0  0  0  0
  -23.8423   -0.6349  -13.2262 N   0  0  0  0  0  0  0  0  0  0  0  0
  -24.8078   -1.2023  -14.0356 C   0  0  0  0  0  0  0  0  0  0  0  0
  -24.9610   -1.0384  -15.2363 O   0  0  0  0  0  0  0  0  0  0  0  0
  -23.8274   -0.8434  -12.2397 H   0  0  0  0  0  0  0  0  0  0  0  0
  -25.7787   -2.0824  -13.3028 C   0  0  0  0  0  0  0  0  0  0  0  0
  -27.2727   -1.8715  -13.4671 C   0  0  0  0  0  0  0  0  0  0  0  0
  -26.6010   -1.4735  -12.1864 C   0  0  0  0  0  0  0  0  0  0  0  0
  -15.9208    0.3685  -14.6656 C   0  0  0  0  0  0  0  0  0  0  0  0
  -14.7445    1.1059  -14.8191 C   0  0  0  0  0  0  0  0  0  0  0  0
  -14.7496    2.3795  -15.3671 C   0  0  0  0  0  0  0  0  0  0  0  0
  -15.9483    2.9360  -15.7941 C   0  0  0  0  0  0  0  0  0  0  0  0
  -17.1257    2.1880  -15.7366 C   0  0  0  0  0  0  0  0  0  0  0  0
  -17.1236    0.9073  -15.1591 C   0  0  0  0  0  0  0  0  0  0  0  0
  -15.8455   -1.0878  -12.6362 C   0  0  0  0  0  0  0  0  0  0  0  0
  -15.8006   -0.1857  -11.8096 O   0  0  0  0  0  0  0  0  0  0  0  0
  -15.9205   -0.8943  -14.0248 N   0  0  0  0  0  0  0  0  0  0  0  0
  -16.1035   -1.7131  -14.5963 H   0  0  0  0  0  0  0  0  0  0  0  0
  -15.8158   -6.1284  -12.0612 C   0  0  0  0  0  0  0  0  0  0  0  0
  -15.8626   -4.6539  -11.9111 C   0  0  0  0  0  0  0  0  0  0  0  0
  -15.8159   -3.6589  -12.9098 C   0  0  0  0  0  0  0  0  0  0  0  0
  -15.8760   -2.4710  -12.2170 C   0  0  0  0  0  0  0  0  0  0  0  0
  -15.9636   -2.7480  -10.8853 O   0  0  0  0  0  0  0  0  0  0  0  0
  -15.9537   -4.1119  -10.6929 N   0  0  0  0  0  0  0  0  0  0  0  0
 28 29  1  0  0  0
 29 30  1  0  0  0
 29 33  2  0  0  0
 30 31  2  0  0  0
 31 24  1  0  0  0
 31 32  1  0  0  0
 24 25  2  0  0  0
 24 26  1  0  0  0
 26 18  1  0  0  0
 26 27  1  0  0  0
 18 19  1  0  0  0
 18 23  2  0  0  0
 19 20  2  0  0  0
 20 21  1  0  0  0
 21 22  2  0  0  0
 22  1  1  0  0  0
 22 23  1  0  0  0
  1  2  1  0  0  0
  2  3  1  0  0  0
  2 10  2  0  0  0
  3  4  2  0  0  0
  4  5  1  0  0  0
  5  6  2  0  0  0
  5  9  1  0  0  0
  6  7  1  0  0  0
  7 11  1  0  0  0
  7  8  2  0  0  0
 11 12  1  0  0  0
 11 14  1  0  0  0
 12 13  2  0  0  0
 12 15  1  0  0  0
 15 16  1  0  0  0
 15 17  1  0  0  0
 16 17  1  0  0  0
  8  9  1  0  0  0
  9 10  1  0  0  0
 32 33  1  0  0  0
M  END
> <minimizedAffinity>
-10.05214

$$$$
