CHEMBL3322563


 34 37  0  0  0  0  0  0  0  0999 V2000
  -24.2077   12.0305  -16.7829 C   0  0  0  0  0  0  0  0  0  0  0  0
  -23.0729   11.3419  -16.3076 C   0  0  0  0  0  0  0  0  0  0  0  0
  -21.9600   11.1058  -17.1319 C   0  0  0  0  0  0  0  0  0  0  0  0
  -21.9978   11.5727  -18.4277 C   0  0  0  0  0  0  0  0  0  0  0  0
  -23.1328   12.2385  -18.8969 C   0  0  0  0  0  0  0  0  0  0  0  0
  -24.2521   12.4562  -18.1155 C   0  0  0  0  0  0  0  0  0  0  0  0
  -22.9467   12.6590  -20.2087 N   0  0  0  0  0  0  0  0  0  0  0  0
  -21.6895   12.3174  -20.6804 C   0  0  0  0  0  0  0  0  0  0  0  0
  -21.2626   12.5585  -21.7909 O   0  0  0  0  0  0  0  0  0  0  0  0
  -21.0314   11.5829  -19.5329 C   0  0  0  0  0  0  0  0  0  0  0  0
  -19.7965   11.0572  -19.5028 C   0  0  0  0  0  0  0  0  0  0  0  0
  -23.6036   13.1831  -20.7660 H   0  0  0  0  0  0  0  0  0  0  0  0
  -18.8991   11.1970  -20.5825 C   0  0  0  0  0  0  0  0  0  0  0  0
  -17.8787   12.0866  -20.8478 C   0  0  0  0  0  0  0  0  0  0  0  0
  -17.3944   11.8045  -22.1481 C   0  0  0  0  0  0  0  0  0  0  0  0
  -18.1040   10.7254  -22.6252 C   0  0  0  0  0  0  0  0  0  0  0  0
  -19.0053   10.3521  -21.6606 N   0  0  0  0  0  0  0  0  0  0  0  0
  -19.6861    9.6107  -21.7582 H   0  0  0  0  0  0  0  0  0  0  0  0
  -26.3254   11.4755  -15.5810 C   0  0  0  0  0  0  0  0  0  0  0  0
  -26.4028   10.2855  -15.8911 O   0  0  0  0  0  0  0  0  0  0  0  0
  -25.3226   12.3354  -15.9758 N   0  0  0  0  0  0  0  0  0  0  0  0
  -25.3088   13.2507  -15.5202 H   0  0  0  0  0  0  0  0  0  0  0  0
  -27.4294   12.0714  -14.7277 C   0  0  0  0  0  0  0  0  0  0  0  0
  -29.1485   10.9888  -15.9827 O   0  0  0  0  0  0  0  0  0  0  0  0
  -28.8297   11.5479  -14.9363 C   0  0  0  0  0  0  0  0  0  0  0  0
  -29.6616   11.7567  -13.8460 N   0  0  0  0  0  0  0  0  0  0  0  0
  -29.3259   12.3720  -13.1135 H   0  0  0  0  0  0  0  0  0  0  0  0
  -30.9979   11.3200  -13.7219 C   0  0  0  0  0  0  0  0  0  0  0  0
  -32.0680   11.9128  -14.4003 C   0  0  0  0  0  0  0  0  0  0  0  0
  -33.3740   11.4548  -14.2060 C   0  0  0  0  0  0  0  0  0  0  0  0
  -33.6081   10.4007  -13.3349 C   0  0  0  0  0  0  0  0  0  0  0  0
  -34.8617    9.9760  -13.1331 F   0  0  0  0  0  0  0  0  0  0  0  0
  -32.5571    9.7800  -12.6724 C   0  0  0  0  0  0  0  0  0  0  0  0
  -31.2495   10.2312  -12.8747 C   0  0  0  0  0  0  0  0  0  0  0  0
 24 25  2  0  0  0
 25 23  1  0  0  0
 25 26  1  0  0  0
 23 19  1  0  0  0
 19 20  2  0  0  0
 19 21  1  0  0  0
 21  1  1  0  0  0
 21 22  1  0  0  0
  1  2  1  0  0  0
  1  6  2  0  0  0
  2  3  2  0  0  0
  3  4  1  0  0  0
  4  5  2  0  0  0
  4 10  1  0  0  0
  5  6  1  0  0  0
  5  7  1  0  0  0
  7  8  1  0  0  0
  7 12  1  0  0  0
  8  9  2  0  0  0
  8 10  1  0  0  0
 10 11  2  0  0  0
 11 13  1  0  0  0
 13 14  2  0  0  0
 13 17  1  0  0  0
 14 15  1  0  0  0
 15 16  2  0  0  0
 16 17  1  0  0  0
 17 18  1  0  0  0
 26 28  1  0  0  0
 26 27  1  0  0  0
 28 29  1  0  0  0
 28 34  2  0  0  0
 29 30  2  0  0  0
 30 31  1  0  0  0
 31 32  1  0  0  0
 31 33  2  0  0  0
 33 34  1  0  0  0
M  END
> <minimizedAffinity>
-6.46803

$$$$
