CHEMBL271796


 34 37  0  0  0  0  0  0  0  0999 V2000
  -29.4743   -8.8043   -7.1614 C   0  0  0  0  0  0  0  0  0  0  0  0
  -28.5901   -8.4637   -6.1375 C   0  0  0  0  0  0  0  0  0  0  0  0
  -28.7039   -7.2634   -5.4345 C   0  0  0  0  0  0  0  0  0  0  0  0
  -29.7721   -6.3946   -5.6536 C   0  0  0  0  0  0  0  0  0  0  0  0
  -30.7323   -6.7662   -6.5969 C   0  0  0  0  0  0  0  0  0  0  0  0
  -30.5744   -7.9477   -7.3511 C   0  0  0  0  0  0  0  0  0  0  0  0
  -27.1020   -7.9687   -9.4701 N   0  0  0  0  0  0  0  0  0  0  0  0
  -27.3777   -9.2578   -9.7324 C   0  0  0  0  0  0  0  0  0  0  0  0
  -26.7400   -9.9192  -10.6977 N   0  0  0  0  0  0  0  0  0  0  0  0
  -27.2580  -11.1967  -10.6923 O   0  0  0  0  0  0  0  0  0  0  0  0
  -28.1943  -11.3015   -9.7229 C   0  0  0  0  0  0  0  0  0  0  0  0
  -28.9050  -12.4659   -9.4415 C   0  0  0  0  0  0  0  0  0  0  0  0
  -29.8152  -12.4012   -8.3926 C   0  0  0  0  0  0  0  0  0  0  0  0
  -29.9922  -11.2124   -7.6755 C   0  0  0  0  0  0  0  0  0  0  0  0
  -29.2693  -10.0273   -7.9674 C   0  0  0  0  0  0  0  0  0  0  0  0
  -28.3313  -10.0895   -9.0471 C   0  0  0  0  0  0  0  0  0  0  0  0
  -26.4737   -7.4864  -10.1040 H   0  0  0  0  0  0  0  0  0  0  0  0
  -27.7769   -7.3569   -9.0275 H   0  0  0  0  0  0  0  0  0  0  0  0
  -29.9369   -5.1908   -4.9281 N   0  0  0  0  0  0  0  0  0  0  0  0
  -29.5985   -3.9306   -5.3884 C   0  0  0  0  0  0  0  0  0  0  0  0
  -29.2597   -3.6719   -6.5418 O   0  0  0  0  0  0  0  0  0  0  0  0
  -29.6379   -2.9744   -4.3839 N   0  0  0  0  0  0  0  0  0  0  0  0
  -30.4858   -5.2302   -4.0800 H   0  0  0  0  0  0  0  0  0  0  0  0
  -29.4031   -3.3292   -3.4676 H   0  0  0  0  0  0  0  0  0  0  0  0
  -29.2639   -1.6360   -4.6552 C   0  0  0  0  0  0  0  0  0  0  0  0
  -27.9419   -1.2497   -4.4343 C   0  0  0  0  0  0  0  0  0  0  0  0
  -27.5222    0.0344   -4.7882 C   0  0  0  0  0  0  0  0  0  0  0  0
  -28.4302    0.9511   -5.3225 C   0  0  0  0  0  0  0  0  0  0  0  0
  -29.7714    0.5929   -5.5141 C   0  0  0  0  0  0  0  0  0  0  0  0
  -30.1759   -0.7088   -5.1762 C   0  0  0  0  0  0  0  0  0  0  0  0
  -30.7716    1.5693   -6.0822 C   0  0  0  0  0  0  0  0  0  0  0  0
  -30.2599    2.3509   -7.0758 F   0  0  0  0  0  0  0  0  0  0  0  0
  -31.8649    0.9608   -6.6172 F   0  0  0  0  0  0  0  0  0  0  0  0
  -31.2456    2.4349   -5.1424 F   0  0  0  0  0  0  0  0  0  0  0  0
  7  8  1  0  0  0
  7 17  1  0  0  0
  7 18  1  0  0  0
  8  9  2  0  0  0
  8 16  1  0  0  0
  9 10  1  0  0  0
 10 11  1  0  0  0
 11 12  1  0  0  0
 11 16  2  0  0  0
 12 13  2  0  0  0
 13 14  1  0  0  0
 14 15  2  0  0  0
 15  1  1  0  0  0
 15 16  1  0  0  0
  1  2  1  0  0  0
  1  6  2  0  0  0
  2  3  2  0  0  0
  3  4  1  0  0  0
  4 19  1  0  0  0
  4  5  2  0  0  0
 19 20  1  0  0  0
 19 23  1  0  0  0
 20 21  2  0  0  0
 20 22  1  0  0  0
 22 25  1  0  0  0
 22 24  1  0  0  0
 25 26  1  0  0  0
 25 30  2  0  0  0
 26 27  2  0  0  0
 27 28  1  0  0  0
 28 29  2  0  0  0
 29 31  1  0  0  0
 29 30  1  0  0  0
 31 32  1  0  0  0
 31 33  1  0  0  0
 31 34  1  0  0  0
  5  6  1  0  0  0
M  END
> <minimizedAffinity>
-9.42810

$$$$
