CHEMBL404881


 37 40  0  0  0  0  0  0  0  0999 V2000
  -23.0515   -1.0161  -13.4321 C   0  0  0  0  0  0  0  0  0  0  0  0
  -22.7112   -1.3376  -12.1168 C   0  0  0  0  0  0  0  0  0  0  0  0
  -23.7139   -1.6825  -11.2046 C   0  0  0  0  0  0  0  0  0  0  0  0
  -25.0532   -1.7557  -11.6056 C   0  0  0  0  0  0  0  0  0  0  0  0
  -25.3540   -1.6217  -12.9596 C   0  0  0  0  0  0  0  0  0  0  0  0
  -24.3547   -1.2491  -13.8638 C   0  0  0  0  0  0  0  0  0  0  0  0
  -24.6826   -1.0718  -15.1520 F   0  0  0  0  0  0  0  0  0  0  0  0
  -26.0061   -1.9537  -10.5736 N   0  0  0  0  0  0  0  0  0  0  0  0
  -25.5986   -2.1310   -9.6520 H   0  0  0  0  0  0  0  0  0  0  0  0
  -27.3714   -1.7648  -10.5244 C   0  0  0  0  0  0  0  0  0  0  0  0
  -28.3228   -0.6812  -11.3677 S   0  0  0  0  0  0  0  0  0  0  0  0
  -28.0399   -2.5618   -9.5971 N   0  0  0  0  0  0  0  0  0  0  0  0
  -27.9615   -2.5352   -8.2097 C   0  0  0  0  0  0  0  0  0  0  0  0
  -27.2063   -1.7873   -7.5880 O   0  0  0  0  0  0  0  0  0  0  0  0
  -28.6985   -3.2027  -10.0247 H   0  0  0  0  0  0  0  0  0  0  0  0
  -28.9062   -3.4991   -7.5135 C   0  0  0  0  0  0  0  0  0  0  0  0
  -28.9422   -3.3248   -6.0163 C   0  0  0  0  0  0  0  0  0  0  0  0
  -29.7173   -2.3089   -5.4381 C   0  0  0  0  0  0  0  0  0  0  0  0
  -29.7615   -2.1517   -4.0518 C   0  0  0  0  0  0  0  0  0  0  0  0
  -29.0407   -3.0134   -3.2282 C   0  0  0  0  0  0  0  0  0  0  0  0
  -28.2823   -4.0381   -3.7899 C   0  0  0  0  0  0  0  0  0  0  0  0
  -28.2350   -4.1971   -5.1767 C   0  0  0  0  0  0  0  0  0  0  0  0
  -22.1489   -0.4293  -14.2997 O   0  0  0  0  0  0  0  0  0  0  0  0
  -18.2713    2.8432  -14.8231 C   0  0  0  0  0  0  0  0  0  0  0  0
  -19.4442    3.5529  -14.5267 C   0  0  0  0  0  0  0  0  0  0  0  0
  -20.6678    2.9332  -14.3452 C   0  0  0  0  0  0  0  0  0  0  0  0
  -21.6963    3.7113  -13.9774 N   0  0  0  0  0  0  0  0  0  0  0  0
  -22.8938    3.1307  -13.7845 C   0  0  0  0  0  0  0  0  0  0  0  0
  -23.1205    1.7843  -13.9515 C   0  0  0  0  0  0  0  0  0  0  0  0
  -22.0330    0.9609  -14.2616 C   0  0  0  0  0  0  0  0  0  0  0  0
  -20.7678    1.5420  -14.5215 C   0  0  0  0  0  0  0  0  0  0  0  0
  -19.6110    0.8340  -14.9202 C   0  0  0  0  0  0  0  0  0  0  0  0
  -18.3624    1.4667  -15.0691 C   0  0  0  0  0  0  0  0  0  0  0  0
  -16.6151    3.8481  -16.2005 C   0  0  0  0  0  0  0  0  0  0  0  0
  -17.0602    3.4809  -14.8911 O   0  0  0  0  0  0  0  0  0  0  0  0
  -17.3806    0.5818  -15.4162 O   0  0  0  0  0  0  0  0  0  0  0  0
  -16.5266    0.0306  -14.4275 C   0  0  0  0  0  0  0  0  0  0  0  0
 34 35  1  0  0  0
 35 24  1  0  0  0
 24 25  1  0  0  0
 24 33  2  0  0  0
 25 26  2  0  0  0
 26 27  1  0  0  0
 26 31  1  0  0  0
 27 28  2  0  0  0
 28 29  1  0  0  0
 29 30  2  0  0  0
 30 23  1  0  0  0
 30 31  1  0  0  0
 23  1  1  0  0  0
  1  2  1  0  0  0
  1  6  2  0  0  0
  2  3  2  0  0  0
  3  4  1  0  0  0
  4  8  1  0  0  0
  4  5  2  0  0  0
  8 10  1  0  0  0
  8  9  1  0  0  0
 10 11  2  0  0  0
 10 12  1  0  0  0
 12 13  1  0  0  0
 12 15  1  0  0  0
 13 14  2  0  0  0
 13 16  1  0  0  0
 16 17  1  0  0  0
 17 18  1  0  0  0
 17 22  2  0  0  0
 18 19  2  0  0  0
 19 20  1  0  0  0
 20 21  2  0  0  0
 21 22  1  0  0  0
  5  6  1  0  0  0
  6  7  1  0  0  0
 31 32  2  0  0  0
 32 33  1  0  0  0
 33 36  1  0  0  0
 36 37  1  0  0  0
M  END
> <minimizedAffinity>
-10.19029

$$$$
