CHEMBL3903811


 37 40  0  0  0  0  0  0  0  0999 V2000
  -28.3763   -9.5491   -5.8172 N   0  0  0  0  0  0  0  0  0  0  0  0
  -28.5363   -8.1730   -5.3228 C   0  0  0  0  0  0  0  0  0  0  0  0
  -29.0290   -8.1362   -4.0178 C   0  0  0  0  0  0  0  0  0  0  0  0
  -29.5224   -7.0199   -3.4464 C   0  0  0  0  0  0  0  0  0  0  0  0
  -29.4969   -5.8365   -4.0999 C   0  0  0  0  0  0  0  0  0  0  0  0
  -30.1374   -4.8447   -3.4897 N   0  0  0  0  0  0  0  0  0  0  0  0
  -30.1302   -3.6123   -3.9521 C   0  0  0  0  0  0  0  0  0  0  0  0
  -29.3416   -3.2768   -5.0523 C   0  0  0  0  0  0  0  0  0  0  0  0
  -28.7379   -4.3150   -5.7876 N   0  0  0  0  0  0  0  0  0  0  0  0
  -28.8501   -5.6465   -5.3376 C   0  0  0  0  0  0  0  0  0  0  0  0
  -28.3727   -6.8712   -6.0039 C   0  0  0  0  0  0  0  0  0  0  0  0
  -29.0725   -1.7604   -5.1306 C   0  0  0  0  0  0  0  0  0  0  0  0
  -27.8722   -1.1717   -4.6672 C   0  0  0  0  0  0  0  0  0  0  0  0
  -27.8023    0.1086   -5.0321 N   0  0  0  0  0  0  0  0  0  0  0  0
  -28.8971    0.3930   -5.6970 N   0  0  0  0  0  0  0  0  0  0  0  0
  -29.0437    1.6915   -6.3370 C   0  0  0  0  0  0  0  0  0  0  0  0
  -29.7227   -0.6920   -5.7561 C   0  0  0  0  0  0  0  0  0  0  0  0
  -31.3087  -11.2561   -7.6570 C   0  0  0  0  0  0  0  0  0  0  0  0
  -30.7091  -11.5093   -8.8904 C   0  0  0  0  0  0  0  0  0  0  0  0
  -29.3794  -11.1654   -9.1094 C   0  0  0  0  0  0  0  0  0  0  0  0
  -28.6273  -10.5597   -8.0826 C   0  0  0  0  0  0  0  0  0  0  0  0
  -29.1799  -10.2383   -6.8412 C   0  0  0  0  0  0  0  0  0  0  0  0
  -30.5547  -10.6232   -6.6454 C   0  0  0  0  0  0  0  0  0  0  0  0
  -33.1136  -12.0061   -6.1847 C   0  0  0  0  0  0  0  0  0  0  0  0
  -32.6098  -11.5929   -7.4037 O   0  0  0  0  0  0  0  0  0  0  0  0
  -28.8505  -11.4039  -10.3314 O   0  0  0  0  0  0  0  0  0  0  0  0
  -28.8700  -10.5011  -11.3706 C   0  0  0  0  0  0  0  0  0  0  0  0
  -27.3561  -10.3399   -5.0664 C   0  0  0  0  0  0  0  0  0  0  0  0
  -25.9550   -9.9877   -5.6159 C   0  0  0  0  0  0  0  0  0  0  0  0
  -25.3917   -8.9985   -4.7918 O   0  0  0  0  0  0  0  0  0  0  0  0
  -25.3648   -9.3640   -3.8663 H   0  0  0  0  0  0  0  0  0  0  0  0
  -24.9692  -11.1708   -5.7433 C   0  0  0  0  0  0  0  0  0  0  0  0
  -23.9765  -10.9783   -6.8209 N   0  0  0  0  0  0  0  0  0  0  0  0
  -24.3059  -10.1791   -7.4153 H   0  0  0  0  0  0  0  0  0  0  0  0
  -22.6426  -10.5976   -6.2927 C   0  0  0  0  0  0  0  0  0  0  0  0
  -22.3901  -11.1879   -4.8962 C   0  0  0  0  0  0  0  0  0  0  0  0
  -21.5376  -11.0869   -7.2429 C   0  0  0  0  0  0  0  0  0  0  0  0
 24 25  1  0  0  0
 25 18  1  0  0  0
 18 19  1  0  0  0
 18 23  2  0  0  0
 19 20  2  0  0  0
 20 26  1  0  0  0
 20 21  1  0  0  0
 26 27  1  0  0  0
 21 22  2  0  0  0
 22  1  1  0  0  0
 22 23  1  0  0  0
  1 28  1  0  0  0
  1  2  1  0  0  0
 28 29  1  0  0  0
 29 30  1  0  0  0
 29 32  1  0  0  0
 30 31  1  0  0  0
 32 33  1  0  0  0
 33 35  1  0  0  0
 33 34  1  0  0  0
 35 36  1  0  0  0
 35 37  1  0  0  0
  2  3  1  0  0  0
  2 11  2  0  0  0
  3  4  2  0  0  0
  4  5  1  0  0  0
  5  6  1  0  0  0
  5 10  2  0  0  0
  6  7  2  0  0  0
  7  8  1  0  0  0
  8 12  1  0  0  0
  8  9  2  0  0  0
 12 13  1  0  0  0
 12 17  2  0  0  0
 13 14  2  0  0  0
 14 15  1  0  0  0
 15 16  1  0  0  0
 15 17  1  0  0  0
  9 10  1  0  0  0
 10 11  1  0  0  0
M  END
> <minimizedAffinity>
-7.52795

$$$$
