CHEMBL3809912


 31 33  0  0  0  0  0  0  0  0999 V2000
  -26.0174   -2.5045  -11.0347 N   0  0  0  0  0  0  0  0  0  0  0  0
  -26.6055   -2.2216   -9.8112 C   0  0  0  0  0  0  0  0  0  0  0  0
  -26.4079   -1.1874   -9.1836 O   0  0  0  0  0  0  0  0  0  0  0  0
  -27.4429   -3.2229   -9.3420 N   0  0  0  0  0  0  0  0  0  0  0  0
  -26.1826   -3.4119  -11.4460 H   0  0  0  0  0  0  0  0  0  0  0  0
  -27.2571   -4.1636   -9.6536 H   0  0  0  0  0  0  0  0  0  0  0  0
  -23.3728    0.1397  -13.0900 C   0  0  0  0  0  0  0  0  0  0  0  0
  -24.5448    0.6135  -12.5078 C   0  0  0  0  0  0  0  0  0  0  0  0
  -25.4185   -0.2501  -11.8545 C   0  0  0  0  0  0  0  0  0  0  0  0
  -25.1570   -1.6155  -11.7403 C   0  0  0  0  0  0  0  0  0  0  0  0
  -23.9956   -2.1061  -12.3486 C   0  0  0  0  0  0  0  0  0  0  0  0
  -23.1093   -1.2343  -13.0192 C   0  0  0  0  0  0  0  0  0  0  0  0
  -19.5735    2.5443  -15.0515 N   0  0  0  0  0  0  0  0  0  0  0  0
  -20.7928    2.2579  -14.5906 C   0  0  0  0  0  0  0  0  0  0  0  0
  -21.1966    0.9711  -14.2016 C   0  0  0  0  0  0  0  0  0  0  0  0
  -22.4934    1.1074  -13.7360 C   0  0  0  0  0  0  0  0  0  0  0  0
  -22.7724    2.4385  -13.8996 N   0  0  0  0  0  0  0  0  0  0  0  0
  -21.7614    3.1509  -14.4293 N   0  0  0  0  0  0  0  0  0  0  0  0
  -18.9237    1.8292  -15.3498 H   0  0  0  0  0  0  0  0  0  0  0  0
  -19.4107    3.4677  -15.4331 H   0  0  0  0  0  0  0  0  0  0  0  0
  -23.6126    2.9335  -13.6274 H   0  0  0  0  0  0  0  0  0  0  0  0
  -28.2513   -3.0658   -8.1795 C   0  0  0  0  0  0  0  0  0  0  0  0
  -29.3332   -3.9132   -7.9007 C   0  0  0  0  0  0  0  0  0  0  0  0
  -30.1660   -3.6998   -6.8046 C   0  0  0  0  0  0  0  0  0  0  0  0
  -29.9007   -2.6542   -5.9333 C   0  0  0  0  0  0  0  0  0  0  0  0
  -28.7885   -1.8261   -6.1446 C   0  0  0  0  0  0  0  0  0  0  0  0
  -27.9670   -2.0371   -7.2754 C   0  0  0  0  0  0  0  0  0  0  0  0
  -28.4775   -0.7222   -5.1662 C   0  0  0  0  0  0  0  0  0  0  0  0
  -29.4993    0.1646   -5.0006 F   0  0  0  0  0  0  0  0  0  0  0  0
  -28.1956   -1.1988   -3.9217 F   0  0  0  0  0  0  0  0  0  0  0  0
  -27.3972    0.0190   -5.5366 F   0  0  0  0  0  0  0  0  0  0  0  0
 13 14  1  0  0  0
 13 19  1  0  0  0
 13 20  1  0  0  0
 14 15  1  0  0  0
 14 18  2  0  0  0
 15 16  2  0  0  0
 16  7  1  0  0  0
 16 17  1  0  0  0
  7  8  1  0  0  0
  7 12  2  0  0  0
  8  9  2  0  0  0
  9 10  1  0  0  0
 10  1  1  0  0  0
 10 11  2  0  0  0
  1  2  1  0  0  0
  1  5  1  0  0  0
  2  3  2  0  0  0
  2  4  1  0  0  0
  4 22  1  0  0  0
  4  6  1  0  0  0
 22 23  1  0  0  0
 22 27  2  0  0  0
 23 24  2  0  0  0
 24 25  1  0  0  0
 25 26  2  0  0  0
 26 28  1  0  0  0
 26 27  1  0  0  0
 28 29  1  0  0  0
 28 30  1  0  0  0
 28 31  1  0  0  0
 11 12  1  0  0  0
 17 18  1  0  0  0
 17 21  1  0  0  0
M  END
> <minimizedAffinity>
-10.94774

$$$$
