CHEMBL3976280


 38 43  0  0  0  0  0  0  0  0999 V2000
  -14.7286    0.2969  -15.1262 C   0  0  0  0  0  0  0  0  0  0  0  0
  -15.0303    0.6999  -16.4309 C   0  0  0  0  0  0  0  0  0  0  0  0
  -15.9685    1.6947  -16.6273 C   0  0  0  0  0  0  0  0  0  0  0  0
  -16.7822    2.1227  -15.6126 C   0  0  0  0  0  0  0  0  0  0  0  0
  -17.4823    3.2411  -15.8780 N   0  0  0  0  0  0  0  0  0  0  0  0
  -18.5367    3.4881  -15.0925 C   0  0  0  0  0  0  0  0  0  0  0  0
  -18.9708    2.5513  -14.1743 C   0  0  0  0  0  0  0  0  0  0  0  0
  -18.1159    1.5577  -13.7297 N   0  0  0  0  0  0  0  0  0  0  0  0
  -16.9061    1.3760  -14.4315 C   0  0  0  0  0  0  0  0  0  0  0  0
  -15.7385    0.5439  -14.1502 C   0  0  0  0  0  0  0  0  0  0  0  0
  -20.4372    2.4049  -14.1573 C   0  0  0  0  0  0  0  0  0  0  0  0
  -21.5262    3.2121  -14.5492 C   0  0  0  0  0  0  0  0  0  0  0  0
  -22.7082    2.5691  -14.5008 N   0  0  0  0  0  0  0  0  0  0  0  0
  -22.3968    1.3279  -14.0655 N   0  0  0  0  0  0  0  0  0  0  0  0
  -21.0356    1.1622  -13.9659 C   0  0  0  0  0  0  0  0  0  0  0  0
  -23.3863    0.5187  -13.3578 C   0  0  0  0  0  0  0  0  0  0  0  0
  -23.7081   -0.9445  -13.7809 C   0  0  0  0  0  0  0  0  0  0  0  0
  -25.1968   -1.3120  -13.8123 C   0  0  0  0  0  0  0  0  0  0  0  0
  -25.8325   -1.2286  -12.4227 C   0  0  0  0  0  0  0  0  0  0  0  0
  -25.1514   -2.0629  -11.4269 N   0  0  0  0  0  0  0  0  0  0  0  0
  -23.7020   -1.8772  -11.3952 C   0  0  0  0  0  0  0  0  0  0  0  0
  -23.0523   -1.9376  -12.7838 C   0  0  0  0  0  0  0  0  0  0  0  0
  -25.3677   -3.0434  -11.5972 H   0  0  0  0  0  0  0  0  0  0  0  0
  -13.3737   -0.1814  -14.9506 N   0  0  0  0  0  0  0  0  0  0  0  0
  -11.7142   -2.5181  -12.4526 C   0  0  0  0  0  0  0  0  0  0  0  0
  -11.8701   -3.7407  -13.0825 C   0  0  0  0  0  0  0  0  0  0  0  0
  -12.4688   -3.7924  -14.3410 C   0  0  0  0  0  0  0  0  0  0  0  0
  -12.9184   -2.6105  -14.9656 C   0  0  0  0  0  0  0  0  0  0  0  0
  -12.8613   -1.3627  -14.3351 C   0  0  0  0  0  0  0  0  0  0  0  0
  -12.2035   -1.3531  -13.0786 C   0  0  0  0  0  0  0  0  0  0  0  0
  -10.7121   -3.4963  -10.5163 C   0  0  0  0  0  0  0  0  0  0  0  0
  -11.1052   -2.3279  -11.2359 O   0  0  0  0  0  0  0  0  0  0  0  0
  -12.6754   -4.9371  -15.0662 O   0  0  0  0  0  0  0  0  0  0  0  0
  -14.0101   -5.1839  -15.5006 C   0  0  0  0  0  0  0  0  0  0  0  0
  -12.4437    1.0153  -14.9474 C   0  0  0  0  0  0  0  0  0  0  0  0
  -12.8140    2.1746  -14.0267 C   0  0  0  0  0  0  0  0  0  0  0  0
  -11.7103    3.2038  -13.8314 C   0  0  0  0  0  0  0  0  0  0  0  0
  -12.2348    2.4558  -12.6471 C   0  0  0  0  0  0  0  0  0  0  0  0
 31 32  1  0  0  0
 32 25  1  0  0  0
 25 26  1  0  0  0
 25 30  2  0  0  0
 26 27  2  0  0  0
 27 33  1  0  0  0
 27 28  1  0  0  0
 33 34  1  0  0  0
 28 29  2  0  0  0
 29 24  1  0  0  0
 29 30  1  0  0  0
 24 35  1  0  0  0
 24  1  1  0  0  0
 35 36  1  0  0  0
 36 37  1  0  0  0
 36 38  1  0  0  0
 37 38  1  0  0  0
  1  2  1  0  0  0
  1 10  2  0  0  0
  2  3  2  0  0  0
  3  4  1  0  0  0
  4  5  1  0  0  0
  4  9  2  0  0  0
  5  6  2  0  0  0
  6  7  1  0  0  0
  7 11  1  0  0  0
  7  8  2  0  0  0
 11 12  1  0  0  0
 11 15  2  0  0  0
 12 13  2  0  0  0
 13 14  1  0  0  0
 14 16  1  0  0  0
 14 15  1  0  0  0
 16 17  1  0  0  0
 17 18  1  0  0  0
 17 22  1  0  0  0
 18 19  1  0  0  0
 19 20  1  0  0  0
 20 21  1  0  0  0
 20 23  1  0  0  0
 21 22  1  0  0  0
  8  9  1  0  0  0
  9 10  1  0  0  0
M  END
> <minimizedAffinity>
-7.84046

$$$$
