CHEMBL3323614


 30 34  0  0  0  0  0  0  0  0999 V2000
  -26.5723   -1.9098  -10.1747 C   0  0  0  0  0  0  0  0  0  0  0  0
  -26.7845   -1.0637   -9.1827 N   0  0  0  0  0  0  0  0  0  0  0  0
  -27.5907   -1.7159   -8.2855 C   0  0  0  0  0  0  0  0  0  0  0  0
  -28.1368   -1.2613   -7.0818 C   0  0  0  0  0  0  0  0  0  0  0  0
  -28.9498   -2.1351   -6.3488 C   0  0  0  0  0  0  0  0  0  0  0  0
  -29.2272   -3.4395   -6.7902 C   0  0  0  0  0  0  0  0  0  0  0  0
  -28.6668   -3.9003   -7.9948 C   0  0  0  0  0  0  0  0  0  0  0  0
  -27.8600   -3.0077   -8.7096 C   0  0  0  0  0  0  0  0  0  0  0  0
  -27.1857   -3.1129   -9.8970 N   0  0  0  0  0  0  0  0  0  0  0  0
  -27.1634   -3.9236  -10.4978 H   0  0  0  0  0  0  0  0  0  0  0  0
  -22.3101   -0.5748  -11.9511 F   0  0  0  0  0  0  0  0  0  0  0  0
  -23.5745   -0.9405  -12.1956 C   0  0  0  0  0  0  0  0  0  0  0  0
  -24.0186   -1.0213  -13.5060 C   0  0  0  0  0  0  0  0  0  0  0  0
  -25.3362   -1.3983  -13.7575 C   0  0  0  0  0  0  0  0  0  0  0  0
  -26.2045   -1.6997  -12.6953 C   0  0  0  0  0  0  0  0  0  0  0  0
  -27.9900   -2.1427  -13.1869 Br  0  0  0  0  0  0  0  0  0  0  0  0
  -25.7558   -1.6287  -11.3618 C   0  0  0  0  0  0  0  0  0  0  0  0
  -24.4237   -1.2323  -11.1347 C   0  0  0  0  0  0  0  0  0  0  0  0
  -30.1065   -4.2748   -6.0702 N   0  0  0  0  0  0  0  0  0  0  0  0
  -30.9546   -3.8197   -5.7513 H   0  0  0  0  0  0  0  0  0  0  0  0
  -29.8282   -5.4779   -5.3697 C   0  0  0  0  0  0  0  0  0  0  0  0
  -29.4497   -5.4492   -4.0248 C   0  0  0  0  0  0  0  0  0  0  0  0
  -29.1616   -6.6359   -3.3847 C   0  0  0  0  0  0  0  0  0  0  0  0
  -29.2288   -7.8414   -3.9784 N   0  0  0  0  0  0  0  0  0  0  0  0
  -29.5850   -7.8868   -5.2710 C   0  0  0  0  0  0  0  0  0  0  0  0
  -29.6531   -9.1317   -5.8806 C   0  0  0  0  0  0  0  0  0  0  0  0
  -30.0013   -9.2789   -7.2242 C   0  0  0  0  0  0  0  0  0  0  0  0
  -30.2762   -8.1547   -7.9889 C   0  0  0  0  0  0  0  0  0  0  0  0
  -30.2150   -6.8914   -7.4010 C   0  0  0  0  0  0  0  0  0  0  0  0
  -29.8873   -6.7330   -6.0315 C   0  0  0  0  0  0  0  0  0  0  0  0
 11 12  1  0  0  0
 12 13  1  0  0  0
 12 18  2  0  0  0
 13 14  2  0  0  0
 14 15  1  0  0  0
 15 16  1  0  0  0
 15 17  2  0  0  0
 17  1  1  0  0  0
 17 18  1  0  0  0
  1  2  2  0  0  0
  1  9  1  0  0  0
  2  3  1  0  0  0
  3  4  1  0  0  0
  3  8  2  0  0  0
  4  5  2  0  0  0
  5  6  1  0  0  0
  6 19  1  0  0  0
  6  7  2  0  0  0
 19 21  1  0  0  0
 19 20  1  0  0  0
 21 22  1  0  0  0
 21 30  2  0  0  0
 22 23  2  0  0  0
 23 24  1  0  0  0
 24 25  2  0  0  0
 25 26  1  0  0  0
 25 30  1  0  0  0
 26 27  2  0  0  0
 27 28  1  0  0  0
 28 29  2  0  0  0
 29 30  1  0  0  0
  7  8  1  0  0  0
  8  9  1  0  0  0
  9 10  1  0  0  0
M  END
> <minimizedAffinity>
-10.24710

$$$$
