CHEMBL1242373


 33 37  0  0  0  0  0  0  0  0999 V2000
  -26.3142   -1.5576  -11.9397 C   0  0  0  0  0  0  0  0  0  0  0  0
  -26.2997   -1.5911  -13.3389 C   0  0  0  0  0  0  0  0  0  0  0  0
  -25.3876   -0.7462  -14.1262 C   0  0  0  0  0  0  0  0  0  0  0  0
  -24.3693    0.0638  -13.5419 C   0  0  0  0  0  0  0  0  0  0  0  0
  -24.2339   -0.2526  -12.1805 C   0  0  0  0  0  0  0  0  0  0  0  0
  -25.2912   -0.7820  -11.3768 C   0  0  0  0  0  0  0  0  0  0  0  0
  -22.8278   -0.8230  -11.8339 C   0  0  0  0  0  0  0  0  0  0  0  0
  -22.3215   -1.6479  -13.0768 C   0  0  0  0  0  0  0  0  0  0  0  0
  -22.2051   -0.6522  -14.1960 C   0  0  0  0  0  0  0  0  0  0  0  0
  -20.8092   -0.4779  -15.1265 S   0  0  0  0  0  0  0  0  0  0  0  0
  -20.8466    1.1787  -14.7636 C   0  0  0  0  0  0  0  0  0  0  0  0
  -19.6627    1.8509  -14.8094 N   0  0  0  0  0  0  0  0  0  0  0  0
  -19.7654    3.0725  -14.2860 C   0  0  0  0  0  0  0  0  0  0  0  0
  -20.8831    3.6588  -13.8892 N   0  0  0  0  0  0  0  0  0  0  0  0
  -22.0597    2.9952  -13.9250 C   0  0  0  0  0  0  0  0  0  0  0  0
  -23.1304    3.8160  -13.5605 N   0  0  0  0  0  0  0  0  0  0  0  0
  -22.0921    1.6227  -14.3080 C   0  0  0  0  0  0  0  0  0  0  0  0
  -23.0701    0.4292  -14.2897 C   0  0  0  0  0  0  0  0  0  0  0  0
  -22.7013    4.7250  -13.3936 H   0  0  0  0  0  0  0  0  0  0  0  0
  -23.7995    3.8762  -14.3207 H   0  0  0  0  0  0  0  0  0  0  0  0
  -28.3084   -3.0938   -9.1264 N   0  0  0  0  0  0  0  0  0  0  0  0
  -27.3509   -2.1366   -9.6010 C   0  0  0  0  0  0  0  0  0  0  0  0
  -26.8068   -1.2831   -8.9127 O   0  0  0  0  0  0  0  0  0  0  0  0
  -27.1573   -2.2676  -10.9952 N   0  0  0  0  0  0  0  0  0  0  0  0
  -28.5377   -3.8503   -9.7615 H   0  0  0  0  0  0  0  0  0  0  0  0
  -27.8846   -2.8082  -11.4385 H   0  0  0  0  0  0  0  0  0  0  0  0
  -29.2079   -1.1944   -4.4964 C   0  0  0  0  0  0  0  0  0  0  0  0
  -29.3443   -2.2804   -5.5413 C   0  0  0  0  0  0  0  0  0  0  0  0
  -30.0594   -3.4277   -5.2059 C   0  0  0  0  0  0  0  0  0  0  0  0
  -30.1968   -4.4563   -6.1387 C   0  0  0  0  0  0  0  0  0  0  0  0
  -29.6279   -4.3558   -7.4197 C   0  0  0  0  0  0  0  0  0  0  0  0
  -28.9120   -3.2268   -7.8193 C   0  0  0  0  0  0  0  0  0  0  0  0
  -28.7759   -2.1858   -6.8461 C   0  0  0  0  0  0  0  0  0  0  0  0
 27 28  1  0  0  0
 28 29  1  0  0  0
 28 33  2  0  0  0
 29 30  2  0  0  0
 30 31  1  0  0  0
 31 32  2  0  0  0
 32 21  1  0  0  0
 32 33  1  0  0  0
 21 22  1  0  0  0
 21 25  1  0  0  0
 22 23  2  0  0  0
 22 24  1  0  0  0
 24  1  1  0  0  0
 24 26  1  0  0  0
  1  2  1  0  0  0
  1  6  2  0  0  0
  2  3  2  0  0  0
  3  4  1  0  0  0
  4  5  2  0  0  0
  4 18  1  0  0  0
  5  6  1  0  0  0
  5  7  1  0  0  0
  7  8  1  0  0  0
  8  9  1  0  0  0
  9 10  1  0  0  0
  9 18  2  0  0  0
 10 11  1  0  0  0
 11 12  1  0  0  0
 11 17  2  0  0  0
 12 13  2  0  0  0
 13 14  1  0  0  0
 14 15  2  0  0  0
 15 16  1  0  0  0
 15 17  1  0  0  0
 16 19  1  0  0  0
 16 20  1  0  0  0
 17 18  1  0  0  0
M  END
> <minimizedAffinity>
-8.70543

$$$$
