CHEMBL426009


 37 42  0  0  0  0  0  0  0  0999 V2000
  -22.3825    1.2365  -13.9990 C   0  0  0  0  0  0  0  0  0  0  0  0
  -22.3323    2.6515  -14.0310 C   0  0  0  0  0  0  0  0  0  0  0  0
  -21.2047    3.3564  -14.4611 C   0  0  0  0  0  0  0  0  0  0  0  0
  -20.1018    2.6007  -14.7754 C   0  0  0  0  0  0  0  0  0  0  0  0
  -20.0783    1.1898  -14.6748 C   0  0  0  0  0  0  0  0  0  0  0  0
  -21.2266    0.4974  -14.3093 C   0  0  0  0  0  0  0  0  0  0  0  0
  -18.6936    0.5935  -14.9855 C   0  0  0  0  0  0  0  0  0  0  0  0
  -18.0023    1.8743  -15.3086 C   0  0  0  0  0  0  0  0  0  0  0  0
  -16.7604    2.3913  -15.6905 C   0  0  0  0  0  0  0  0  0  0  0  0
  -16.7949    3.7347  -15.8036 N   0  0  0  0  0  0  0  0  0  0  0  0
  -18.0799    4.0617  -15.5110 N   0  0  0  0  0  0  0  0  0  0  0  0
  -18.8002    2.9753  -15.1908 C   0  0  0  0  0  0  0  0  0  0  0  0
  -18.3636    5.0340  -15.5580 H   0  0  0  0  0  0  0  0  0  0  0  0
  -15.5685    1.5799  -15.9245 C   0  0  0  0  0  0  0  0  0  0  0  0
  -14.7417    1.6841  -17.0216 C   0  0  0  0  0  0  0  0  0  0  0  0
  -13.4617    0.5601  -16.9783 S   0  0  0  0  0  0  0  0  0  0  0  0
  -14.0020   -0.0766  -15.4897 C   0  0  0  0  0  0  0  0  0  0  0  0
  -15.1263    0.5651  -15.0212 C   0  0  0  0  0  0  0  0  0  0  0  0
  -13.3333   -1.1458  -14.8391 C   0  0  0  0  0  0  0  0  0  0  0  0
  -12.7515   -2.1260  -14.2062 C   0  0  0  0  0  0  0  0  0  0  0  0
  -12.0734   -3.2689  -13.4683 C   0  0  0  0  0  0  0  0  0  0  0  0
  -12.6436   -3.3888  -12.1338 N   0  0  0  0  0  0  0  0  0  0  0  0
  -12.5229   -2.5406  -11.5874 H   0  0  0  0  0  0  0  0  0  0  0  0
  -13.9526   -3.8905  -12.0568 C   0  0  0  0  0  0  0  0  0  0  0  0
  -14.2687   -5.2111  -12.4025 C   0  0  0  0  0  0  0  0  0  0  0  0
  -15.5663   -5.7086  -12.2688 C   0  0  0  0  0  0  0  0  0  0  0  0
  -16.5689   -4.8998  -11.7497 C   0  0  0  0  0  0  0  0  0  0  0  0
  -16.2681   -3.5999  -11.3522 C   0  0  0  0  0  0  0  0  0  0  0  0
  -14.9652   -3.1058  -11.4881 C   0  0  0  0  0  0  0  0  0  0  0  0
  -23.6758    0.5320  -13.6080 C   0  0  0  0  0  0  0  0  0  0  0  0
  -26.6993   -1.8402  -10.6988 C   0  0  0  0  0  0  0  0  0  0  0  0
  -25.6528   -1.9990  -11.7017 N   0  0  0  0  0  0  0  0  0  0  0  0
  -26.0398   -1.3796  -12.9791 C   0  0  0  0  0  0  0  0  0  0  0  0
  -24.9251   -1.5767  -14.0307 C   0  0  0  0  0  0  0  0  0  0  0  0
  -23.6388   -0.9451  -13.6622 N   0  0  0  0  0  0  0  0  0  0  0  0
  -23.2568   -1.5079  -12.3389 C   0  0  0  0  0  0  0  0  0  0  0  0
  -24.3633   -1.4453  -11.2442 C   0  0  0  0  0  0  0  0  0  0  0  0
 31 32  1  0  0  0
 32 33  1  0  0  0
 32 37  1  0  0  0
 33 34  1  0  0  0
 34 35  1  0  0  0
 35 30  1  0  0  0
 35 36  1  0  0  0
 30  1  1  0  0  0
  1  2  1  0  0  0
  1  6  2  0  0  0
  2  3  2  0  0  0
  3  4  1  0  0  0
  4  5  2  0  0  0
  4 12  1  0  0  0
  5  6  1  0  0  0
  5  7  1  0  0  0
  7  8  1  0  0  0
  8  9  1  0  0  0
  8 12  2  0  0  0
  9 14  1  0  0  0
  9 10  2  0  0  0
 14 15  2  0  0  0
 14 18  1  0  0  0
 15 16  1  0  0  0
 16 17  1  0  0  0
 17 19  1  0  0  0
 17 18  2  0  0  0
 19 20  3  0  0  0
 20 21  1  0  0  0
 21 22  1  0  0  0
 22 24  1  0  0  0
 22 23  1  0  0  0
 24 25  1  0  0  0
 24 29  2  0  0  0
 25 26  2  0  0  0
 26 27  1  0  0  0
 27 28  2  0  0  0
 28 29  1  0  0  0
 10 11  1  0  0  0
 11 12  1  0  0  0
 11 13  1  0  0  0
 36 37  1  0  0  0
M  END
> <minimizedAffinity>
-10.74188

$$$$
