CHEMBL3948698


 34 38  0  0  0  0  0  0  0  0999 V2000
  -15.8864    2.5033  -15.6316 N   0  0  0  0  0  0  0  0  0  0  0  0
  -15.2281    1.3862  -14.9459 C   0  0  0  0  0  0  0  0  0  0  0  0
  -14.2358    0.7816  -15.7144 C   0  0  0  0  0  0  0  0  0  0  0  0
  -13.7555   -0.4304  -15.4271 C   0  0  0  0  0  0  0  0  0  0  0  0
  -14.1743   -1.0942  -14.3266 C   0  0  0  0  0  0  0  0  0  0  0  0
  -13.7714   -2.3528  -14.2822 N   0  0  0  0  0  0  0  0  0  0  0  0
  -14.0117   -3.1348  -13.2657 C   0  0  0  0  0  0  0  0  0  0  0  0
  -14.6167   -2.6457  -12.1030 C   0  0  0  0  0  0  0  0  0  0  0  0
  -15.1668   -1.3386  -12.1574 N   0  0  0  0  0  0  0  0  0  0  0  0
  -14.9933   -0.5486  -13.3216 C   0  0  0  0  0  0  0  0  0  0  0  0
  -15.5710    0.7635  -13.6500 C   0  0  0  0  0  0  0  0  0  0  0  0
  -14.3769   -3.6088  -10.9119 C   0  0  0  0  0  0  0  0  0  0  0  0
  -14.7915   -4.9654  -10.9672 C   0  0  0  0  0  0  0  0  0  0  0  0
  -14.3479   -5.6478   -9.9261 N   0  0  0  0  0  0  0  0  0  0  0  0
  -13.6635   -4.8274   -9.1680 N   0  0  0  0  0  0  0  0  0  0  0  0
  -12.9725   -5.3615   -8.0010 C   0  0  0  0  0  0  0  0  0  0  0  0
  -13.6687   -3.5624   -9.6959 C   0  0  0  0  0  0  0  0  0  0  0  0
  -13.3191    5.2096  -16.0512 C   0  0  0  0  0  0  0  0  0  0  0  0
  -13.5623    5.6598  -17.3677 C   0  0  0  0  0  0  0  0  0  0  0  0
  -14.6010    5.1001  -18.1307 C   0  0  0  0  0  0  0  0  0  0  0  0
  -15.3942    4.0881  -17.5440 C   0  0  0  0  0  0  0  0  0  0  0  0
  -15.1547    3.6097  -16.2183 C   0  0  0  0  0  0  0  0  0  0  0  0
  -14.1039    4.1983  -15.5092 C   0  0  0  0  0  0  0  0  0  0  0  0
  -11.3344    4.9354  -14.6446 C   0  0  0  0  0  0  0  0  0  0  0  0
  -12.2989    5.6536  -15.2780 O   0  0  0  0  0  0  0  0  0  0  0  0
  -14.7725    5.5094  -19.4279 O   0  0  0  0  0  0  0  0  0  0  0  0
  -14.2547    6.6674  -19.9954 C   0  0  0  0  0  0  0  0  0  0  0  0
  -15.3641    7.5298  -20.6012 C   0  0  0  0  0  0  0  0  0  0  0  0
  -16.2784    6.7264  -21.3011 O   0  0  0  0  0  0  0  0  0  0  0  0
  -15.7919    6.3482  -22.0813 H   0  0  0  0  0  0  0  0  0  0  0  0
  -17.3320    2.2692  -15.9823 C   0  0  0  0  0  0  0  0  0  0  0  0
  -18.3653    2.8051  -14.9615 C   0  0  0  0  0  0  0  0  0  0  0  0
  -19.4518    1.7885  -14.7861 C   0  0  0  0  0  0  0  0  0  0  0  0
  -19.7896    3.1735  -15.3694 C   0  0  0  0  0  0  0  0  0  0  0  0
 24 25  1  0  0  0
 25 18  1  0  0  0
 18 19  1  0  0  0
 18 23  2  0  0  0
 19 20  2  0  0  0
 20 26  1  0  0  0
 20 21  1  0  0  0
 26 27  1  0  0  0
 27 28  1  0  0  0
 28 29  1  0  0  0
 29 30  1  0  0  0
 21 22  2  0  0  0
 22  1  1  0  0  0
 22 23  1  0  0  0
  1 31  1  0  0  0
  1  2  1  0  0  0
 31 32  1  0  0  0
 32 33  1  0  0  0
 32 34  1  0  0  0
 33 34  1  0  0  0
  2  3  1  0  0  0
  2 11  2  0  0  0
  3  4  2  0  0  0
  4  5  1  0  0  0
  5  6  1  0  0  0
  5 10  2  0  0  0
  6  7  2  0  0  0
  7  8  1  0  0  0
  8 12  1  0  0  0
  8  9  2  0  0  0
 12 13  1  0  0  0
 12 17  2  0  0  0
 13 14  2  0  0  0
 14 15  1  0  0  0
 15 16  1  0  0  0
 15 17  1  0  0  0
  9 10  1  0  0  0
 10 11  1  0  0  0
M  END
> <minimizedAffinity>
-7.21856

$$$$
