CHEMBL240642


 26 28  0  0  0  0  0  0  0  0999 V2000
  -30.0034   -3.0733   -4.8511 C   0  0  0  0  0  0  0  0  0  0  0  0
  -29.1296   -2.5366   -5.8732 N   0  0  0  0  0  0  0  0  0  0  0  0
  -28.4178   -1.4275   -5.5944 N   0  0  0  0  0  0  0  0  0  0  0  0
  -27.6943   -1.2403   -6.6942 C   0  0  0  0  0  0  0  0  0  0  0  0
  -27.9389   -2.2244   -7.6796 C   0  0  0  0  0  0  0  0  0  0  0  0
  -28.8740   -3.0773   -7.1202 C   0  0  0  0  0  0  0  0  0  0  0  0
  -29.5556   -4.2626   -7.5837 C   0  0  0  0  0  0  0  0  0  0  0  0
  -30.6050   -4.1683   -8.2122 O   0  0  0  0  0  0  0  0  0  0  0  0
  -28.9908   -5.4743   -7.2170 N   0  0  0  0  0  0  0  0  0  0  0  0
  -28.2260   -5.4315   -6.5485 H   0  0  0  0  0  0  0  0  0  0  0  0
  -29.4793   -6.7513   -7.5817 C   0  0  0  0  0  0  0  0  0  0  0  0
  -30.7323   -7.2270   -7.1772 C   0  0  0  0  0  0  0  0  0  0  0  0
  -31.1518   -8.5204   -7.4978 C   0  0  0  0  0  0  0  0  0  0  0  0
  -30.3243   -9.3460   -8.2475 C   0  0  0  0  0  0  0  0  0  0  0  0
  -30.8147  -10.9574   -8.5910 Cl  0  0  0  0  0  0  0  0  0  0  0  0
  -29.0994   -8.8709   -8.7109 C   0  0  0  0  0  0  0  0  0  0  0  0
  -28.6812   -7.5724   -8.3866 C   0  0  0  0  0  0  0  0  0  0  0  0
  -27.3289   -2.2493   -8.8934 N   0  0  0  0  0  0  0  0  0  0  0  0
  -26.3205   -2.0942   -8.8808 H   0  0  0  0  0  0  0  0  0  0  0  0
  -27.8984   -1.5931  -10.0715 C   0  0  0  0  0  0  0  0  0  0  0  0
  -26.8893   -1.5598  -11.1977 C   0  0  0  0  0  0  0  0  0  0  0  0
  -27.3225   -1.7313  -12.5172 C   0  0  0  0  0  0  0  0  0  0  0  0
  -26.3850   -1.7229  -13.5386 C   0  0  0  0  0  0  0  0  0  0  0  0
  -25.0635   -1.5378  -13.3417 N   0  0  0  0  0  0  0  0  0  0  0  0
  -24.6636   -1.3385  -12.0692 C   0  0  0  0  0  0  0  0  0  0  0  0
  -25.5242   -1.3354  -10.9820 C   0  0  0  0  0  0  0  0  0  0  0  0
  1  2  1  0  0  0
  2  3  1  0  0  0
  2  6  1  0  0  0
  3  4  2  0  0  0
  4  5  1  0  0  0
  5 18  1  0  0  0
  5  6  2  0  0  0
 18 20  1  0  0  0
 18 19  1  0  0  0
 20 21  1  0  0  0
 21 22  1  0  0  0
 21 26  2  0  0  0
 22 23  2  0  0  0
 23 24  1  0  0  0
 24 25  2  0  0  0
 25 26  1  0  0  0
  6  7  1  0  0  0
  7  8  2  0  0  0
  7  9  1  0  0  0
  9 11  1  0  0  0
  9 10  1  0  0  0
 11 12  1  0  0  0
 11 17  2  0  0  0
 12 13  2  0  0  0
 13 14  1  0  0  0
 14 15  1  0  0  0
 14 16  2  0  0  0
 16 17  1  0  0  0
M  END
> <minimizedAffinity>
-7.85868

$$$$
