CHEMBL46694


 36 40  0  0  0  0  0  0  0  0999 V2000
  -29.3641   -7.5760   -8.1583 N   0  0  0  0  0  0  0  0  0  0  0  0
  -30.0346   -7.5042   -8.9096 H   0  0  0  0  0  0  0  0  0  0  0  0
  -28.3131  -10.3270   -5.8648 C   0  0  0  0  0  0  0  0  0  0  0  0
  -29.5012  -11.0514   -5.7851 C   0  0  0  0  0  0  0  0  0  0  0  0
  -30.6318  -10.6792   -6.5326 C   0  0  0  0  0  0  0  0  0  0  0  0
  -31.9135  -11.4451   -6.3853 C   0  0  0  0  0  0  0  0  0  0  0  0
  -30.5867   -9.5209   -7.3291 C   0  0  0  0  0  0  0  0  0  0  0  0
  -29.4247   -8.7480   -7.3838 C   0  0  0  0  0  0  0  0  0  0  0  0
  -28.2864   -9.2030   -6.6947 C   0  0  0  0  0  0  0  0  0  0  0  0
  -27.1327  -10.6312   -4.9755 C   0  0  0  0  0  0  0  0  0  0  0  0
  -21.4020  -12.3354   -4.2371 C   0  0  0  0  0  0  0  0  0  0  0  0
  -22.2190  -11.3629   -3.4230 C   0  0  0  0  0  0  0  0  0  0  0  0
  -21.9153  -11.1272   -2.2526 O   0  0  0  0  0  0  0  0  0  0  0  0
  -23.3196  -10.7779   -4.0477 N   0  0  0  0  0  0  0  0  0  0  0  0
  -23.8178  -11.2504   -5.3427 C   0  0  0  0  0  0  0  0  0  0  0  0
  -24.8738  -10.3354   -5.9873 C   0  0  0  0  0  0  0  0  0  0  0  0
  -25.9148   -9.8377   -5.0938 N   0  0  0  0  0  0  0  0  0  0  0  0
  -25.3557   -9.2930   -3.8588 C   0  0  0  0  0  0  0  0  0  0  0  0
  -24.2984  -10.1564   -3.1555 C   0  0  0  0  0  0  0  0  0  0  0  0
  -29.1185   -6.3013   -7.6344 C   0  0  0  0  0  0  0  0  0  0  0  0
  -28.2880   -5.4692   -8.2826 N   0  0  0  0  0  0  0  0  0  0  0  0
  -28.2166   -4.1973   -7.8628 C   0  0  0  0  0  0  0  0  0  0  0  0
  -28.9460   -3.7126   -6.8121 C   0  0  0  0  0  0  0  0  0  0  0  0
  -29.6946   -4.6544   -6.1400 C   0  0  0  0  0  0  0  0  0  0  0  0
  -29.7816   -5.9452   -6.5347 N   0  0  0  0  0  0  0  0  0  0  0  0
  -30.3562   -4.2812   -4.9397 N   0  0  0  0  0  0  0  0  0  0  0  0
  -31.3253   -5.0237   -4.2948 C   0  0  0  0  0  0  0  0  0  0  0  0
  -31.5823   -4.3609   -3.1230 C   0  0  0  0  0  0  0  0  0  0  0  0
  -30.8671   -3.1999   -3.0596 N   0  0  0  0  0  0  0  0  0  0  0  0
  -30.1693   -3.1190   -4.1870 C   0  0  0  0  0  0  0  0  0  0  0  0
  -29.3929   -1.9251   -4.5842 C   0  0  0  0  0  0  0  0  0  0  0  0
  -30.0376   -0.8686   -5.2402 C   0  0  0  0  0  0  0  0  0  0  0  0
  -29.3374    0.2903   -5.5943 C   0  0  0  0  0  0  0  0  0  0  0  0
  -27.9835    0.4148   -5.2879 C   0  0  0  0  0  0  0  0  0  0  0  0
  -27.3165   -0.6391   -4.6768 C   0  0  0  0  0  0  0  0  0  0  0  0
  -28.0090   -1.8118   -4.3699 C   0  0  0  0  0  0  0  0  0  0  0  0
 11 12  1  0  0  0
 12 13  2  0  0  0
 12 14  1  0  0  0
 14 15  1  0  0  0
 14 19  1  0  0  0
 15 16  1  0  0  0
 16 17  1  0  0  0
 17 10  1  0  0  0
 17 18  1  0  0  0
 10  3  1  0  0  0
  3  4  1  0  0  0
  3  9  2  0  0  0
  4  5  2  0  0  0
  5  6  1  0  0  0
  5  7  1  0  0  0
  7  8  2  0  0  0
  8  1  1  0  0  0
  8  9  1  0  0  0
  1 20  1  0  0  0
  1  2  1  0  0  0
 20 21  1  0  0  0
 20 25  2  0  0  0
 21 22  2  0  0  0
 22 23  1  0  0  0
 23 24  2  0  0  0
 24 26  1  0  0  0
 24 25  1  0  0  0
 26 27  1  0  0  0
 26 30  1  0  0  0
 27 28  2  0  0  0
 28 29  1  0  0  0
 29 30  2  0  0  0
 30 31  1  0  0  0
 31 32  1  0  0  0
 31 36  2  0  0  0
 32 33  2  0  0  0
 33 34  1  0  0  0
 34 35  2  0  0  0
 35 36  1  0  0  0
 18 19  1  0  0  0
M  END
> <minimizedAffinity>
-9.55850

$$$$
