CHEMBL1257911


 26 29  0  0  0  0  0  0  0  0999 V2000
  -32.4632   -4.8336   -2.9623 N   0  0  0  0  0  0  0  0  0  0  0  0
  -31.3415   -4.3068   -3.6094 C   0  0  0  0  0  0  0  0  0  0  0  0
  -30.5809   -3.3211   -2.9886 C   0  0  0  0  0  0  0  0  0  0  0  0
  -29.3984   -2.8675   -3.5702 C   0  0  0  0  0  0  0  0  0  0  0  0
  -28.9281   -3.4158   -4.7747 C   0  0  0  0  0  0  0  0  0  0  0  0
  -29.6412   -4.4790   -5.3653 C   0  0  0  0  0  0  0  0  0  0  0  0
  -30.8405   -4.9125   -4.7670 C   0  0  0  0  0  0  0  0  0  0  0  0
  -29.1440   -5.2079   -6.5950 C   0  0  0  0  0  0  0  0  0  0  0  0
  -28.5945   -4.6802   -7.6496 N   0  0  0  0  0  0  0  0  0  0  0  0
  -28.3355   -3.3186   -7.7015 C   0  0  0  0  0  0  0  0  0  0  0  0
  -28.3281   -2.5771   -8.8501 C   0  0  0  0  0  0  0  0  0  0  0  0
  -27.8538   -1.3544   -8.4794 N   0  0  0  0  0  0  0  0  0  0  0  0
  -27.5422   -1.2586   -7.1724 N   0  0  0  0  0  0  0  0  0  0  0  0
  -27.8618   -2.4623   -6.6895 C   0  0  0  0  0  0  0  0  0  0  0  0
  -27.8109   -2.7968   -5.3811 N   0  0  0  0  0  0  0  0  0  0  0  0
  -32.9289   -4.1714   -2.3469 H   0  0  0  0  0  0  0  0  0  0  0  0
  -33.1215   -5.2985   -3.5800 H   0  0  0  0  0  0  0  0  0  0  0  0
  -27.7084   -0.5395   -9.0655 H   0  0  0  0  0  0  0  0  0  0  0  0
  -27.4077   -2.0647   -4.8089 H   0  0  0  0  0  0  0  0  0  0  0  0
  -29.2280   -6.7231   -6.6164 C   0  0  0  0  0  0  0  0  0  0  0  0
  -30.0701   -7.3356   -7.5643 C   0  0  0  0  0  0  0  0  0  0  0  0
  -30.2878   -8.7170   -7.5475 C   0  0  0  0  0  0  0  0  0  0  0  0
  -29.6936   -9.5056   -6.5681 C   0  0  0  0  0  0  0  0  0  0  0  0
  -28.8532   -8.9179   -5.6248 C   0  0  0  0  0  0  0  0  0  0  0  0
  -28.6050   -7.5370   -5.6500 C   0  0  0  0  0  0  0  0  0  0  0  0
  -27.4664   -6.9588   -4.4798 Cl  0  0  0  0  0  0  0  0  0  0  0  0
  1  2  1  0  0  0
  1 16  1  0  0  0
  1 17  1  0  0  0
  2  3  1  0  0  0
  2  7  2  0  0  0
  3  4  2  0  0  0
  4  5  1  0  0  0
  5  6  2  0  0  0
  5 15  1  0  0  0
  6  7  1  0  0  0
  6  8  1  0  0  0
  8 20  1  0  0  0
  8  9  2  0  0  0
 20 21  1  0  0  0
 20 25  2  0  0  0
 21 22  2  0  0  0
 22 23  1  0  0  0
 23 24  2  0  0  0
 24 25  1  0  0  0
 25 26  1  0  0  0
  9 10  1  0  0  0
 10 11  2  0  0  0
 10 14  1  0  0  0
 11 12  1  0  0  0
 12 13  1  0  0  0
 12 18  1  0  0  0
 13 14  2  0  0  0
 14 15  1  0  0  0
 15 19  1  0  0  0
M  END
> <minimizedAffinity>
-7.92676

$$$$
