CHEMBL4517008


 32 35  0  0  0  0  0  0  0  0999 V2000
  -26.9214   -9.1992   -5.4856 O   0  0  0  0  0  0  0  0  0  0  0  0
  -26.8693   -8.6989   -4.3681 C   0  0  0  0  0  0  0  0  0  0  0  0
  -27.7236   -7.6892   -3.9445 N   0  0  0  0  0  0  0  0  0  0  0  0
  -25.9199   -9.0857   -3.4173 N   0  0  0  0  0  0  0  0  0  0  0  0
  -27.5676   -7.2965   -3.0298 H   0  0  0  0  0  0  0  0  0  0  0  0
  -26.1849   -9.0308   -2.4450 H   0  0  0  0  0  0  0  0  0  0  0  0
  -24.8626   -9.9867   -3.7621 C   0  0  0  0  0  0  0  0  0  0  0  0
  -24.4183  -10.9381   -2.8431 C   0  0  0  0  0  0  0  0  0  0  0  0
  -23.2167  -11.6124   -3.0178 C   0  0  0  0  0  0  0  0  0  0  0  0
  -22.5304  -11.5087   -4.2152 C   0  0  0  0  0  0  0  0  0  0  0  0
  -21.3327  -12.2081   -4.3682 C   0  0  0  0  0  0  0  0  0  0  0  0
  -20.8409  -12.4467   -5.6418 C   0  0  0  0  0  0  0  0  0  0  0  0
  -21.4726  -11.8741   -6.7419 C   0  0  0  0  0  0  0  0  0  0  0  0
  -22.5365  -10.9776   -6.5585 C   0  0  0  0  0  0  0  0  0  0  0  0
  -23.1032  -10.7825   -5.2830 C   0  0  0  0  0  0  0  0  0  0  0  0
  -24.2328   -9.9463   -5.0143 C   0  0  0  0  0  0  0  0  0  0  0  0
  -28.6856   -7.0393   -4.7828 C   0  0  0  0  0  0  0  0  0  0  0  0
  -29.7295   -7.7379   -5.4080 C   0  0  0  0  0  0  0  0  0  0  0  0
  -30.5948   -7.1120   -6.2943 C   0  0  0  0  0  0  0  0  0  0  0  0
  -30.4605   -5.7576   -6.5459 C   0  0  0  0  0  0  0  0  0  0  0  0
  -29.4686   -5.0075   -5.9117 C   0  0  0  0  0  0  0  0  0  0  0  0
  -28.5805   -5.6559   -5.0241 C   0  0  0  0  0  0  0  0  0  0  0  0
  -29.3408   -3.6103   -6.1306 N   0  0  0  0  0  0  0  0  0  0  0  0
  -29.6008   -2.6028   -5.2163 C   0  0  0  0  0  0  0  0  0  0  0  0
  -30.0430   -2.7566   -4.0752 O   0  0  0  0  0  0  0  0  0  0  0  0
  -29.0201   -3.2886   -7.0367 H   0  0  0  0  0  0  0  0  0  0  0  0
  -29.3258   -1.2148   -5.6835 C   0  0  0  0  0  0  0  0  0  0  0  0
  -30.2151   -0.1994   -5.3405 C   0  0  0  0  0  0  0  0  0  0  0  0
  -29.9275    1.0905   -5.7525 C   0  0  0  0  0  0  0  0  0  0  0  0
  -28.7713    1.3268   -6.4913 C   0  0  0  0  0  0  0  0  0  0  0  0
  -27.9436    0.2499   -6.7898 C   0  0  0  0  0  0  0  0  0  0  0  0
  -28.1883   -1.0240   -6.4043 N   0  0  0  0  0  0  0  0  0  0  0  0
  1  2  2  0  0  0
  2  3  1  0  0  0
  2  4  1  0  0  0
  3 17  1  0  0  0
  3  5  1  0  0  0
 17 18  1  0  0  0
 17 22  2  0  0  0
 18 19  2  0  0  0
 19 20  1  0  0  0
 20 21  2  0  0  0
 21 23  1  0  0  0
 21 22  1  0  0  0
 23 24  1  0  0  0
 23 26  1  0  0  0
 24 25  2  0  0  0
 24 27  1  0  0  0
 27 28  1  0  0  0
 27 32  2  0  0  0
 28 29  2  0  0  0
 29 30  1  0  0  0
 30 31  2  0  0  0
 31 32  1  0  0  0
  4  7  1  0  0  0
  4  6  1  0  0  0
  7  8  1  0  0  0
  7 16  2  0  0  0
  8  9  2  0  0  0
  9 10  1  0  0  0
 10 11  1  0  0  0
 10 15  2  0  0  0
 11 12  2  0  0  0
 12 13  1  0  0  0
 13 14  2  0  0  0
 14 15  1  0  0  0
 15 16  1  0  0  0
M  END
> <minimizedAffinity>
-9.62238

$$$$
