CHEMBL272670


 31 34  0  0  0  0  0  0  0  0999 V2000
  -29.3205   -5.9876   -6.2987 C   0  0  0  0  0  0  0  0  0  0  0  0
  -29.3059   -5.5895   -7.6308 C   0  0  0  0  0  0  0  0  0  0  0  0
  -28.8180   -4.3304   -7.9916 C   0  0  0  0  0  0  0  0  0  0  0  0
  -28.4214   -3.3752   -7.0267 C   0  0  0  0  0  0  0  0  0  0  0  0
  -27.9429   -2.0622   -7.3295 C   0  0  0  0  0  0  0  0  0  0  0  0
  -27.6129   -1.1785   -6.2881 C   0  0  0  0  0  0  0  0  0  0  0  0
  -27.7038   -1.5798   -4.9620 C   0  0  0  0  0  0  0  0  0  0  0  0
  -28.1428   -2.8659   -4.6550 C   0  0  0  0  0  0  0  0  0  0  0  0
  -28.5078   -3.7705   -5.6634 C   0  0  0  0  0  0  0  0  0  0  0  0
  -28.9538   -5.0649   -5.3157 C   0  0  0  0  0  0  0  0  0  0  0  0
  -27.8290   -1.5486   -8.7398 C   0  0  0  0  0  0  0  0  0  0  0  0
  -28.6142   -0.7004   -9.1431 O   0  0  0  0  0  0  0  0  0  0  0  0
  -26.8131   -2.1261   -9.4947 N   0  0  0  0  0  0  0  0  0  0  0  0
  -26.3380   -2.9235   -9.0926 H   0  0  0  0  0  0  0  0  0  0  0  0
  -26.5088   -1.8521  -10.8470 C   0  0  0  0  0  0  0  0  0  0  0  0
  -27.4226   -1.9952  -11.8945 C   0  0  0  0  0  0  0  0  0  0  0  0
  -27.0185   -1.8125  -13.2220 C   0  0  0  0  0  0  0  0  0  0  0  0
  -25.6989   -1.4751  -13.5052 C   0  0  0  0  0  0  0  0  0  0  0  0
  -25.1820   -1.3276  -15.1389 Cl  0  0  0  0  0  0  0  0  0  0  0  0
  -24.7919   -1.2699  -12.4693 C   0  0  0  0  0  0  0  0  0  0  0  0
  -25.2013   -1.4428  -11.1426 C   0  0  0  0  0  0  0  0  0  0  0  0
  -29.7081   -7.2491   -5.8970 O   0  0  0  0  0  0  0  0  0  0  0  0
  -31.0810   -9.5152   -8.3656 C   0  0  0  0  0  0  0  0  0  0  0  0
  -30.1350   -8.8220   -7.6290 C   0  0  0  0  0  0  0  0  0  0  0  0
  -30.6233   -7.9147   -6.7177 C   0  0  0  0  0  0  0  0  0  0  0  0
  -31.9369   -7.6489   -6.5720 N   0  0  0  0  0  0  0  0  0  0  0  0
  -32.7609   -8.4104   -7.2806 C   0  0  0  0  0  0  0  0  0  0  0  0
  -32.3980   -9.3360   -8.1640 N   0  0  0  0  0  0  0  0  0  0  0  0
  -29.3917  -10.1035   -9.9719 C   0  0  0  0  0  0  0  0  0  0  0  0
  -30.6504  -10.4517   -9.3237 N   0  0  0  0  0  0  0  0  0  0  0  0
  -30.6017  -11.3763   -8.8834 H   0  0  0  0  0  0  0  0  0  0  0  0
 29 30  1  0  0  0
 30 23  1  0  0  0
 30 31  1  0  0  0
 23 24  1  0  0  0
 23 28  2  0  0  0
 24 25  2  0  0  0
 25 22  1  0  0  0
 25 26  1  0  0  0
 22  1  1  0  0  0
  1  2  1  0  0  0
  1 10  2  0  0  0
  2  3  2  0  0  0
  3  4  1  0  0  0
  4  5  1  0  0  0
  4  9  2  0  0  0
  5 11  1  0  0  0
  5  6  2  0  0  0
 11 12  2  0  0  0
 11 13  1  0  0  0
 13 15  1  0  0  0
 13 14  1  0  0  0
 15 16  1  0  0  0
 15 21  2  0  0  0
 16 17  2  0  0  0
 17 18  1  0  0  0
 18 19  1  0  0  0
 18 20  2  0  0  0
 20 21  1  0  0  0
  6  7  1  0  0  0
  7  8  2  0  0  0
  8  9  1  0  0  0
  9 10  1  0  0  0
 26 27  2  0  0  0
 27 28  1  0  0  0
M  END
> <minimizedAffinity>
-9.95641

$$$$
