CHEMBL1172814


 34 37  0  0  0  0  0  0  0  0999 V2000
  -20.4169    1.5225  -15.2674 C   0  0  0  0  0  0  0  0  0  0  0  0
  -20.2334    2.9166  -15.4150 C   0  0  0  0  0  0  0  0  0  0  0  0
  -18.9610    3.4798  -15.5501 C   0  0  0  0  0  0  0  0  0  0  0  0
  -17.8726    2.6301  -15.5359 C   0  0  0  0  0  0  0  0  0  0  0  0
  -18.0574    1.2554  -15.3542 C   0  0  0  0  0  0  0  0  0  0  0  0
  -19.3068    0.6757  -15.1960 C   0  0  0  0  0  0  0  0  0  0  0  0
  -16.8293    0.6010  -15.3861 N   0  0  0  0  0  0  0  0  0  0  0  0
  -15.7826    1.4902  -15.5816 C   0  0  0  0  0  0  0  0  0  0  0  0
  -14.6011    1.2037  -15.6440 O   0  0  0  0  0  0  0  0  0  0  0  0
  -16.4235    2.8523  -15.6960 C   0  0  0  0  0  0  0  0  0  0  0  0
  -15.8967    4.0680  -15.9130 C   0  0  0  0  0  0  0  0  0  0  0  0
  -16.6853   -0.3931  -15.2975 H   0  0  0  0  0  0  0  0  0  0  0  0
  -23.4719   -0.1404  -14.2051 N   0  0  0  0  0  0  0  0  0  0  0  0
  -22.1925    0.3755  -14.0743 C   0  0  0  0  0  0  0  0  0  0  0  0
  -21.5314    0.3625  -13.0416 O   0  0  0  0  0  0  0  0  0  0  0  0
  -21.7261    0.9690  -15.2433 N   0  0  0  0  0  0  0  0  0  0  0  0
  -23.8296   -0.2594  -15.1419 H   0  0  0  0  0  0  0  0  0  0  0  0
  -22.4332    1.4470  -15.7828 H   0  0  0  0  0  0  0  0  0  0  0  0
  -25.8990   -1.6801  -11.0554 C   0  0  0  0  0  0  0  0  0  0  0  0
  -24.7733   -0.9081  -10.7747 C   0  0  0  0  0  0  0  0  0  0  0  0
  -23.9765   -0.3999  -11.8002 C   0  0  0  0  0  0  0  0  0  0  0  0
  -24.2549   -0.6632  -13.1400 C   0  0  0  0  0  0  0  0  0  0  0  0
  -25.3684   -1.4606  -13.4288 C   0  0  0  0  0  0  0  0  0  0  0  0
  -26.2011   -1.9572  -12.4001 C   0  0  0  0  0  0  0  0  0  0  0  0
  -27.8975   -1.5629   -9.7746 C   0  0  0  0  0  0  0  0  0  0  0  0
  -26.6680   -2.2252  -10.0617 O   0  0  0  0  0  0  0  0  0  0  0  0
  -27.2486   -2.7169  -12.8643 O   0  0  0  0  0  0  0  0  0  0  0  0
  -28.1796   -2.0640  -13.7225 C   0  0  0  0  0  0  0  0  0  0  0  0
  -14.5394    4.4494  -16.0848 C   0  0  0  0  0  0  0  0  0  0  0  0
  -13.9212    5.0965  -17.1425 C   0  0  0  0  0  0  0  0  0  0  0  0
  -12.5575    5.2844  -16.8160 C   0  0  0  0  0  0  0  0  0  0  0  0
  -12.3674    4.7404  -15.5686 C   0  0  0  0  0  0  0  0  0  0  0  0
  -13.5661    4.2263  -15.1400 N   0  0  0  0  0  0  0  0  0  0  0  0
  -13.7027    3.7557  -14.2511 H   0  0  0  0  0  0  0  0  0  0  0  0
 25 26  1  0  0  0
 26 19  1  0  0  0
 19 20  1  0  0  0
 19 24  2  0  0  0
 20 21  2  0  0  0
 21 22  1  0  0  0
 22 13  1  0  0  0
 22 23  2  0  0  0
 13 14  1  0  0  0
 13 17  1  0  0  0
 14 15  2  0  0  0
 14 16  1  0  0  0
 16  1  1  0  0  0
 16 18  1  0  0  0
  1  2  1  0  0  0
  1  6  2  0  0  0
  2  3  2  0  0  0
  3  4  1  0  0  0
  4  5  2  0  0  0
  4 10  1  0  0  0
  5  6  1  0  0  0
  5  7  1  0  0  0
  7  8  1  0  0  0
  7 12  1  0  0  0
  8  9  2  0  0  0
  8 10  1  0  0  0
 10 11  2  0  0  0
 11 29  1  0  0  0
 29 30  2  0  0  0
 29 33  1  0  0  0
 30 31  1  0  0  0
 31 32  2  0  0  0
 32 33  1  0  0  0
 33 34  1  0  0  0
 23 24  1  0  0  0
 24 27  1  0  0  0
 27 28  1  0  0  0
M  END
> <minimizedAffinity>
-8.93687

$$$$
