CHEMBL386760


 51 55  0  0  0  0  0  0  0  0999 V2000
  -12.0123   -2.0172  -13.4740 C   0  0  0  0  0  0  0  0  0  0  0  0
  -11.1544   -1.0569  -12.9693 C   0  0  0  0  0  0  0  0  0  0  0  0
  -11.4737    0.2378  -13.2570 C   0  0  0  0  0  0  0  0  0  0  0  0
  -12.5824    0.5749  -13.9199 N   0  0  0  0  0  0  0  0  0  0  0  0
  -13.3748   -0.4123  -14.3659 C   0  0  0  0  0  0  0  0  0  0  0  0
  -13.0629   -1.7068  -14.2614 N   0  0  0  0  0  0  0  0  0  0  0  0
  -11.8097   -3.3735  -13.1149 N   0  0  0  0  0  0  0  0  0  0  0  0
  -11.4119   -4.2900  -14.0925 C   0  0  0  0  0  0  0  0  0  0  0  0
  -11.0094   -3.9941  -15.2124 O   0  0  0  0  0  0  0  0  0  0  0  0
  -12.2004   -4.0438   -8.9342 C   0  0  0  0  0  0  0  0  0  0  0  0
  -10.9530   -4.0800   -9.5580 C   0  0  0  0  0  0  0  0  0  0  0  0
  -10.8543   -3.9088  -10.9451 C   0  0  0  0  0  0  0  0  0  0  0  0
  -11.9993   -3.6945  -11.7491 C   0  0  0  0  0  0  0  0  0  0  0  0
  -13.2511   -3.7427  -11.1207 C   0  0  0  0  0  0  0  0  0  0  0  0
  -13.3428   -3.8764   -9.7221 C   0  0  0  0  0  0  0  0  0  0  0  0
  -11.3603   -3.7861   -6.7219 C   0  0  0  0  0  0  0  0  0  0  0  0
  -12.4228   -4.1660   -7.5913 O   0  0  0  0  0  0  0  0  0  0  0  0
  -14.4482   -3.7072  -11.7905 O   0  0  0  0  0  0  0  0  0  0  0  0
  -15.5828   -3.6036  -10.9212 C   0  0  0  0  0  0  0  0  0  0  0  0
  -11.6268   -5.6183  -13.6968 O   0  0  0  0  0  0  0  0  0  0  0  0
  -12.8872   -6.2844  -13.7157 C   0  0  0  0  0  0  0  0  0  0  0  0
  -13.8589   -6.0340  -14.7039 C   0  0  0  0  0  0  0  0  0  0  0  0
  -13.6468   -5.3617  -16.0267 C   0  0  0  0  0  0  0  0  0  0  0  0
  -15.1866   -6.4161  -14.4379 C   0  0  0  0  0  0  0  0  0  0  0  0
  -15.5335   -7.0653  -13.2589 C   0  0  0  0  0  0  0  0  0  0  0  0
  -14.5498   -7.3794  -12.3281 C   0  0  0  0  0  0  0  0  0  0  0  0
  -13.2175   -6.9909  -12.5387 C   0  0  0  0  0  0  0  0  0  0  0  0
  -12.1803   -7.3772  -11.5209 C   0  0  0  0  0  0  0  0  0  0  0  0
  -14.6081   -0.0769  -14.9260 N   0  0  0  0  0  0  0  0  0  0  0  0
  -15.2448   -0.8559  -14.9048 H   0  0  0  0  0  0  0  0  0  0  0  0
  -14.8704    0.9984  -15.7874 C   0  0  0  0  0  0  0  0  0  0  0  0
  -14.1626    1.1481  -16.9780 C   0  0  0  0  0  0  0  0  0  0  0  0
  -14.3428    2.2794  -17.7951 C   0  0  0  0  0  0  0  0  0  0  0  0
  -15.2754    3.2837  -17.4321 C   0  0  0  0  0  0  0  0  0  0  0  0
  -16.0449    3.0942  -16.2704 C   0  0  0  0  0  0  0  0  0  0  0  0
  -15.8278    1.9677  -15.4700 C   0  0  0  0  0  0  0  0  0  0  0  0
  -13.6781    2.3905  -18.9918 O   0  0  0  0  0  0  0  0  0  0  0  0
  -13.5309    1.2103  -19.7718 C   0  0  0  0  0  0  0  0  0  0  0  0
  -16.9906    3.9353  -15.7362 O   0  0  0  0  0  0  0  0  0  0  0  0
  -18.2644    3.3880  -15.4272 C   0  0  0  0  0  0  0  0  0  0  0  0
  -15.4887    4.4680  -18.0917 O   0  0  0  0  0  0  0  0  0  0  0  0
  -14.5597    5.5305  -17.9375 C   0  0  0  0  0  0  0  0  0  0  0  0
  -14.4244    6.2681  -19.2653 C   0  0  0  0  0  0  0  0  0  0  0  0
  -15.0129    7.6761  -19.1329 C   0  0  0  0  0  0  0  0  0  0  0  0
  -15.3215    8.3156  -20.4174 N   0  0  0  0  0  0  0  0  0  0  0  0
  -16.2373    7.5156  -21.2528 C   0  0  0  0  0  0  0  0  0  0  0  0
  -16.6143    8.2364  -22.5694 C   0  0  0  0  0  0  0  0  0  0  0  0
  -17.1662    9.5952  -22.4054 N   0  0  0  0  0  0  0  0  0  0  0  0
  -18.5373    9.5621  -21.9035 C   0  0  0  0  0  0  0  0  0  0  0  0
  -16.2758   10.3669  -21.5155 C   0  0  0  0  0  0  0  0  0  0  0  0
  -15.9014    9.6572  -20.1933 C   0  0  0  0  0  0  0  0  0  0  0  0
 16 17  1  0  0  0
 17 10  1  0  0  0
 10 11  1  0  0  0
 10 15  2  0  0  0
 11 12  2  0  0  0
 12 13  1  0  0  0
 13  7  1  0  0  0
 13 14  2  0  0  0
  7  8  1  0  0  0
  7  1  1  0  0  0
  8  9  2  0  0  0
  8 20  1  0  0  0
 20 21  1  0  0  0
 21 22  1  0  0  0
 21 27  2  0  0  0
 22 23  1  0  0  0
 22 24  2  0  0  0
 24 25  1  0  0  0
 25 26  2  0  0  0
 26 27  1  0  0  0
 27 28  1  0  0  0
  1  2  1  0  0  0
  1  6  2  0  0  0
  2  3  2  0  0  0
  3  4  1  0  0  0
  4  5  2  0  0  0
  5 29  1  0  0  0
  5  6  1  0  0  0
 29 31  1  0  0  0
 29 30  1  0  0  0
 31 32  1  0  0  0
 31 36  2  0  0  0
 32 33  2  0  0  0
 33 37  1  0  0  0
 33 34  1  0  0  0
 37 38  1  0  0  0
 34 41  1  0  0  0
 34 35  2  0  0  0
 41 42  1  0  0  0
 42 43  1  0  0  0
 43 44  1  0  0  0
 44 45  1  0  0  0
 45 46  1  0  0  0
 45 51  1  0  0  0
 46 47  1  0  0  0
 47 48  1  0  0  0
 48 49  1  0  0  0
 48 50  1  0  0  0
 50 51  1  0  0  0
 35 39  1  0  0  0
 35 36  1  0  0  0
 39 40  1  0  0  0
 14 18  1  0  0  0
 14 15  1  0  0  0
 18 19  1  0  0  0
M  END
> <minimizedAffinity>
-6.44606

$$$$
