CHEMBL329457


 23 26  0  0  0  0  0  0  0  0999 V2000
  -29.7969   -6.3629   -6.9755 C   0  0  0  0  0  0  0  0  0  0  0  0
  -29.1747   -5.1157   -7.5152 C   0  0  0  0  0  0  0  0  0  0  0  0
  -29.1189   -3.9627   -6.9173 N   0  0  0  0  0  0  0  0  0  0  0  0
  -29.6905   -3.8993   -5.6715 C   0  0  0  0  0  0  0  0  0  0  0  0
  -29.8168   -2.8698   -4.7543 C   0  0  0  0  0  0  0  0  0  0  0  0
  -30.5179   -3.4499   -3.6754 C   0  0  0  0  0  0  0  0  0  0  0  0
  -30.8173   -4.7343   -3.8682 N   0  0  0  0  0  0  0  0  0  0  0  0
  -30.3068   -5.0168   -5.0907 N   0  0  0  0  0  0  0  0  0  0  0  0
  -30.3454   -6.2368   -5.7569 C   0  0  0  0  0  0  0  0  0  0  0  0
  -29.8189  -10.0318   -9.1587 C   0  0  0  0  0  0  0  0  0  0  0  0
  -30.9438   -9.6395   -8.4330 C   0  0  0  0  0  0  0  0  0  0  0  0
  -30.9353   -8.4362   -7.7176 C   0  0  0  0  0  0  0  0  0  0  0  0
  -29.8038   -7.6136   -7.7269 C   0  0  0  0  0  0  0  0  0  0  0  0
  -28.6790   -8.0044   -8.4580 C   0  0  0  0  0  0  0  0  0  0  0  0
  -28.6916   -9.2065   -9.1699 C   0  0  0  0  0  0  0  0  0  0  0  0
  -28.3849  -11.5227  -10.3309 C   0  0  0  0  0  0  0  0  0  0  0  0
  -29.6926  -11.1812   -9.8882 O   0  0  0  0  0  0  0  0  0  0  0  0
  -29.3150   -1.5171   -4.9228 C   0  0  0  0  0  0  0  0  0  0  0  0
  -30.1544   -0.4862   -5.3575 C   0  0  0  0  0  0  0  0  0  0  0  0
  -29.6578    0.8109   -5.4840 C   0  0  0  0  0  0  0  0  0  0  0  0
  -28.3301    1.0425   -5.1655 C   0  0  0  0  0  0  0  0  0  0  0  0
  -27.4851    0.0810   -4.7416 N   0  0  0  0  0  0  0  0  0  0  0  0
  -27.9953   -1.1728   -4.6354 C   0  0  0  0  0  0  0  0  0  0  0  0
 16 17  1  0  0  0
 17 10  1  0  0  0
 10 11  1  0  0  0
 10 15  2  0  0  0
 11 12  2  0  0  0
 12 13  1  0  0  0
 13  1  1  0  0  0
 13 14  2  0  0  0
  1  2  1  0  0  0
  1  9  2  0  0  0
  2  3  2  0  0  0
  3  4  1  0  0  0
  4  5  2  0  0  0
  4  8  1  0  0  0
  5 18  1  0  0  0
  5  6  1  0  0  0
 18 19  1  0  0  0
 18 23  2  0  0  0
 19 20  2  0  0  0
 20 21  1  0  0  0
 21 22  2  0  0  0
 22 23  1  0  0  0
  6  7  2  0  0  0
  7  8  1  0  0  0
  8  9  1  0  0  0
 14 15  1  0  0  0
M  END
> <minimizedAffinity>
-8.26810

$$$$
