CHEMBL3891619


 37 41  0  0  0  0  0  0  0  0999 V2000
  -13.9393   -3.5620  -13.4111 C   0  0  0  0  0  0  0  0  0  0  0  0
  -12.8381   -2.8063  -13.8284 C   0  0  0  0  0  0  0  0  0  0  0  0
  -12.8849   -1.4893  -14.0335 C   0  0  0  0  0  0  0  0  0  0  0  0
  -14.0520   -0.8278  -13.9820 C   0  0  0  0  0  0  0  0  0  0  0  0
  -13.9255    0.4889  -14.0306 N   0  0  0  0  0  0  0  0  0  0  0  0
  -14.9628    1.2938  -14.1061 C   0  0  0  0  0  0  0  0  0  0  0  0
  -16.2356    0.7918  -14.3054 C   0  0  0  0  0  0  0  0  0  0  0  0
  -16.4262   -0.5985  -14.1046 N   0  0  0  0  0  0  0  0  0  0  0  0
  -15.3063   -1.4451  -13.8702 C   0  0  0  0  0  0  0  0  0  0  0  0
  -15.2666   -2.8978  -13.5257 C   0  0  0  0  0  0  0  0  0  0  0  0
  -17.1279    1.8533  -14.9953 C   0  0  0  0  0  0  0  0  0  0  0  0
  -16.9300    3.1735  -15.3963 C   0  0  0  0  0  0  0  0  0  0  0  0
  -18.1346    3.7475  -15.6863 N   0  0  0  0  0  0  0  0  0  0  0  0
  -19.0855    2.8368  -15.5176 N   0  0  0  0  0  0  0  0  0  0  0  0
  -18.5257    1.6875  -15.1677 C   0  0  0  0  0  0  0  0  0  0  0  0
  -20.5556    3.0673  -15.5769 C   0  0  0  0  0  0  0  0  0  0  0  0
  -21.2250    2.8512  -14.1883 C   0  0  0  0  0  0  0  0  0  0  0  0
  -22.2705    3.7639  -13.9881 O   0  0  0  0  0  0  0  0  0  0  0  0
  -21.8747    4.5500  -13.5252 H   0  0  0  0  0  0  0  0  0  0  0  0
  -13.5110   -4.8569  -12.8141 N   0  0  0  0  0  0  0  0  0  0  0  0
  -13.0396   -8.5705  -13.4454 C   0  0  0  0  0  0  0  0  0  0  0  0
  -12.8439   -8.5905  -14.8302 C   0  0  0  0  0  0  0  0  0  0  0  0
  -12.8774   -7.4256  -15.5852 C   0  0  0  0  0  0  0  0  0  0  0  0
  -13.0727   -6.2031  -14.9097 C   0  0  0  0  0  0  0  0  0  0  0  0
  -13.2891   -6.1374  -13.4837 C   0  0  0  0  0  0  0  0  0  0  0  0
  -13.3047   -7.3566  -12.7879 C   0  0  0  0  0  0  0  0  0  0  0  0
  -11.7564  -10.1225  -12.1138 C   0  0  0  0  0  0  0  0  0  0  0  0
  -12.9331   -9.7087  -12.7161 O   0  0  0  0  0  0  0  0  0  0  0  0
  -12.7334   -7.4719  -16.9504 O   0  0  0  0  0  0  0  0  0  0  0  0
  -13.5460   -8.1696  -17.8384 C   0  0  0  0  0  0  0  0  0  0  0  0
  -13.9580   -7.2905  -19.0228 C   0  0  0  0  0  0  0  0  0  0  0  0
  -14.4332   -6.0557  -18.5613 O   0  0  0  0  0  0  0  0  0  0  0  0
  -15.2835   -6.2435  -18.0798 H   0  0  0  0  0  0  0  0  0  0  0  0
  -13.1539   -4.7754  -11.3519 C   0  0  0  0  0  0  0  0  0  0  0  0
  -14.3682   -4.7565  -10.3780 C   0  0  0  0  0  0  0  0  0  0  0  0
  -14.7566   -3.4156   -9.7078 C   0  0  0  0  0  0  0  0  0  0  0  0
  -13.9778   -4.5201   -8.9440 C   0  0  0  0  0  0  0  0  0  0  0  0
 27 28  1  0  0  0
 28 21  1  0  0  0
 21 22  1  0  0  0
 21 26  2  0  0  0
 22 23  2  0  0  0
 23 29  1  0  0  0
 23 24  1  0  0  0
 29 30  1  0  0  0
 30 31  1  0  0  0
 31 32  1  0  0  0
 32 33  1  0  0  0
 24 25  2  0  0  0
 25 20  1  0  0  0
 25 26  1  0  0  0
 20 34  1  0  0  0
 20  1  1  0  0  0
 34 35  1  0  0  0
 35 36  1  0  0  0
 35 37  1  0  0  0
 36 37  1  0  0  0
  1  2  1  0  0  0
  1 10  2  0  0  0
  2  3  2  0  0  0
  3  4  1  0  0  0
  4  5  1  0  0  0
  4  9  2  0  0  0
  5  6  2  0  0  0
  6  7  1  0  0  0
  7 11  1  0  0  0
  7  8  2  0  0  0
 11 12  1  0  0  0
 11 15  2  0  0  0
 12 13  2  0  0  0
 13 14  1  0  0  0
 14 16  1  0  0  0
 14 15  1  0  0  0
 16 17  1  0  0  0
 17 18  1  0  0  0
 18 19  1  0  0  0
  8  9  1  0  0  0
  9 10  1  0  0  0
M  END
> <minimizedAffinity>
-6.77349

$$$$
