CHEMBL1762534


 36 40  0  0  0  0  0  0  0  0999 V2000
  -28.4217   -7.6190   -3.5073 N   0  0  0  0  0  0  0  0  0  0  0  0
  -28.5952   -8.0093   -2.5929 H   0  0  0  0  0  0  0  0  0  0  0  0
  -29.9008   -4.7306   -4.9869 C   0  0  0  0  0  0  0  0  0  0  0  0
  -31.1467   -4.7068   -4.3791 C   0  0  0  0  0  0  0  0  0  0  0  0
  -31.4330   -5.7136   -3.4997 C   0  0  0  0  0  0  0  0  0  0  0  0
  -30.5635   -6.6809   -3.2018 N   0  0  0  0  0  0  0  0  0  0  0  0
  -29.3664   -6.6391   -3.8034 C   0  0  0  0  0  0  0  0  0  0  0  0
  -29.0094   -5.7015   -4.6931 N   0  0  0  0  0  0  0  0  0  0  0  0
  -29.5305   -3.7216   -5.9015 N   0  0  0  0  0  0  0  0  0  0  0  0
  -29.4547   -4.1716   -7.2879 C   0  0  0  0  0  0  0  0  0  0  0  0
  -29.4823   -0.1519   -5.3830 C   0  0  0  0  0  0  0  0  0  0  0  0
  -28.1666    0.1330   -5.0698 C   0  0  0  0  0  0  0  0  0  0  0  0
  -27.2661   -0.9195   -5.0358 C   0  0  0  0  0  0  0  0  0  0  0  0
  -27.7269   -2.2047   -5.3118 C   0  0  0  0  0  0  0  0  0  0  0  0
  -29.0701   -2.4246   -5.6309 C   0  0  0  0  0  0  0  0  0  0  0  0
  -29.9422   -1.3913   -5.6552 N   0  0  0  0  0  0  0  0  0  0  0  0
  -30.2379    1.7126   -6.5677 C   0  0  0  0  0  0  0  0  0  0  0  0
  -30.3583    0.9165   -5.3923 O   0  0  0  0  0  0  0  0  0  0  0  0
  -27.8055   -8.4943   -4.4200 C   0  0  0  0  0  0  0  0  0  0  0  0
  -28.5539   -8.9902   -5.4930 C   0  0  0  0  0  0  0  0  0  0  0  0
  -28.0296   -9.9281   -6.3870 C   0  0  0  0  0  0  0  0  0  0  0  0
  -26.7052  -10.3402   -6.1740 C   0  0  0  0  0  0  0  0  0  0  0  0
  -25.8958   -9.8399   -5.1415 C   0  0  0  0  0  0  0  0  0  0  0  0
  -26.4754   -8.9160   -4.2749 C   0  0  0  0  0  0  0  0  0  0  0  0
  -28.7604  -10.4239   -7.4454 N   0  0  0  0  0  0  0  0  0  0  0  0
  -28.6727  -11.8174   -7.8937 C   0  0  0  0  0  0  0  0  0  0  0  0
  -28.2284  -11.8650   -9.3602 C   0  0  0  0  0  0  0  0  0  0  0  0
  -29.0974  -11.0801  -10.1964 O   0  0  0  0  0  0  0  0  0  0  0  0
  -29.0866   -9.7053   -9.7720 C   0  0  0  0  0  0  0  0  0  0  0  0
  -29.5566   -9.5480   -8.3141 C   0  0  0  0  0  0  0  0  0  0  0  0
  -24.5688  -10.2157   -5.0658 N   0  0  0  0  0  0  0  0  0  0  0  0
  -23.5788   -9.8117   -6.0716 C   0  0  0  0  0  0  0  0  0  0  0  0
  -22.5267  -10.9329   -6.1793 C   0  0  0  0  0  0  0  0  0  0  0  0
  -21.9229  -11.2315   -4.9058 O   0  0  0  0  0  0  0  0  0  0  0  0
  -22.9277  -11.6214   -3.9499 C   0  0  0  0  0  0  0  0  0  0  0  0
  -23.9726  -10.5128   -3.7551 C   0  0  0  0  0  0  0  0  0  0  0  0
 17 18  1  0  0  0
 18 11  1  0  0  0
 11 12  1  0  0  0
 11 16  2  0  0  0
 12 13  2  0  0  0
 13 14  1  0  0  0
 14 15  2  0  0  0
 15  9  1  0  0  0
 15 16  1  0  0  0
  9 10  1  0  0  0
  9  3  1  0  0  0
  3  4  1  0  0  0
  3  8  2  0  0  0
  4  5  2  0  0  0
  5  6  1  0  0  0
  6  7  2  0  0  0
  7  1  1  0  0  0
  7  8  1  0  0  0
  1 19  1  0  0  0
  1  2  1  0  0  0
 19 20  1  0  0  0
 19 24  2  0  0  0
 20 21  2  0  0  0
 21 25  1  0  0  0
 21 22  1  0  0  0
 25 26  1  0  0  0
 25 30  1  0  0  0
 26 27  1  0  0  0
 27 28  1  0  0  0
 28 29  1  0  0  0
 29 30  1  0  0  0
 22 23  2  0  0  0
 23 31  1  0  0  0
 23 24  1  0  0  0
 31 32  1  0  0  0
 31 36  1  0  0  0
 32 33  1  0  0  0
 33 34  1  0  0  0
 34 35  1  0  0  0
 35 36  1  0  0  0
M  END
> <minimizedAffinity>
-9.21874

$$$$
