CHEMBL205421


 31 34  0  0  0  0  0  0  0  0999 V2000
  -16.6883    0.7865  -14.2221 C   0  0  0  0  0  0  0  0  0  0  0  0
  -16.6058    0.9744  -12.9227 N   0  0  0  0  0  0  0  0  0  0  0  0
  -15.6154    0.1316  -12.4570 N   0  0  0  0  0  0  0  0  0  0  0  0
  -15.1174   -0.4902  -13.5050 C   0  0  0  0  0  0  0  0  0  0  0  0
  -15.7702   -0.1299  -14.6628 O   0  0  0  0  0  0  0  0  0  0  0  0
  -14.0112   -1.4420  -13.6382 C   0  0  0  0  0  0  0  0  0  0  0  0
  -12.6976   -0.9569  -13.5329 C   0  0  0  0  0  0  0  0  0  0  0  0
  -11.5652   -1.6976  -13.6271 N   0  0  0  0  0  0  0  0  0  0  0  0
  -11.7293   -3.0100  -13.8481 C   0  0  0  0  0  0  0  0  0  0  0  0
  -12.9718   -3.6066  -13.9769 C   0  0  0  0  0  0  0  0  0  0  0  0
  -14.1490   -2.8335  -13.8583 C   0  0  0  0  0  0  0  0  0  0  0  0
  -15.4711   -3.5768  -14.0147 C   0  0  0  0  0  0  0  0  0  0  0  0
  -16.2520   -3.7082  -12.6901 C   0  0  0  0  0  0  0  0  0  0  0  0
  -15.4859   -4.0835  -11.4394 C   0  0  0  0  0  0  0  0  0  0  0  0
  -15.2828   -3.2350  -10.3498 C   0  0  0  0  0  0  0  0  0  0  0  0
  -14.5794   -3.7135   -9.2509 C   0  0  0  0  0  0  0  0  0  0  0  0
  -14.0704   -4.9615   -9.1596 N   0  0  0  0  0  0  0  0  0  0  0  0
  -14.2638   -5.7646  -10.2240 C   0  0  0  0  0  0  0  0  0  0  0  0
  -14.9515   -5.3797  -11.3619 C   0  0  0  0  0  0  0  0  0  0  0  0
  -17.4614    1.4356  -15.1189 N   0  0  0  0  0  0  0  0  0  0  0  0
  -16.9523    1.9133  -15.8542 H   0  0  0  0  0  0  0  0  0  0  0  0
  -21.1009    1.4194  -14.2711 C   0  0  0  0  0  0  0  0  0  0  0  0
  -21.4403    2.7555  -14.5147 C   0  0  0  0  0  0  0  0  0  0  0  0
  -20.4768    3.6528  -14.9627 C   0  0  0  0  0  0  0  0  0  0  0  0
  -19.1641    3.2267  -15.1737 C   0  0  0  0  0  0  0  0  0  0  0  0
  -18.7860    1.8957  -14.9640 C   0  0  0  0  0  0  0  0  0  0  0  0
  -19.7731    1.0013  -14.5028 C   0  0  0  0  0  0  0  0  0  0  0  0
  -22.0755   -0.7777  -14.3460 F   0  0  0  0  0  0  0  0  0  0  0  0
  -22.1397    0.4504  -13.7572 C   0  0  0  0  0  0  0  0  0  0  0  0
  -23.4123    0.8909  -13.9600 F   0  0  0  0  0  0  0  0  0  0  0  0
  -22.0300    0.2254  -12.4188 F   0  0  0  0  0  0  0  0  0  0  0  0
 28 29  1  0  0  0
 29 30  1  0  0  0
 29 31  1  0  0  0
 29 22  1  0  0  0
 22 23  1  0  0  0
 22 27  2  0  0  0
 23 24  2  0  0  0
 24 25  1  0  0  0
 25 26  2  0  0  0
 26 20  1  0  0  0
 26 27  1  0  0  0
 20  1  1  0  0  0
 20 21  1  0  0  0
  1  2  2  0  0  0
  1  5  1  0  0  0
  2  3  1  0  0  0
  3  4  2  0  0  0
  4  6  1  0  0  0
  4  5  1  0  0  0
  6  7  1  0  0  0
  6 11  2  0  0  0
  7  8  2  0  0  0
  8  9  1  0  0  0
  9 10  2  0  0  0
 10 11  1  0  0  0
 11 12  1  0  0  0
 12 13  1  0  0  0
 13 14  1  0  0  0
 14 15  1  0  0  0
 14 19  2  0  0  0
 15 16  2  0  0  0
 16 17  1  0  0  0
 17 18  2  0  0  0
 18 19  1  0  0  0
M  END
> <minimizedAffinity>
-9.23042

$$$$
