CHEMBL195917


 31 34  0  0  0  0  0  0  0  0999 V2000
  -28.6242   -3.8011   -4.7572 C   0  0  0  0  0  0  0  0  0  0  0  0
  -27.9179   -4.5708   -5.6050 N   0  0  0  0  0  0  0  0  0  0  0  0
  -28.3856   -5.7890   -6.0209 N   0  0  0  0  0  0  0  0  0  0  0  0
  -29.5756   -6.2612   -5.5863 C   0  0  0  0  0  0  0  0  0  0  0  0
  -30.3269   -5.5428   -4.6266 C   0  0  0  0  0  0  0  0  0  0  0  0
  -31.5481   -5.9960   -4.0580 C   0  0  0  0  0  0  0  0  0  0  0  0
  -32.3009   -5.2149   -3.1821 C   0  0  0  0  0  0  0  0  0  0  0  0
  -31.8326   -3.9711   -2.8004 C   0  0  0  0  0  0  0  0  0  0  0  0
  -30.6146   -3.5143   -3.2993 C   0  0  0  0  0  0  0  0  0  0  0  0
  -29.8397   -4.2746   -4.2124 C   0  0  0  0  0  0  0  0  0  0  0  0
  -29.9866   -7.5182   -6.2676 C   0  0  0  0  0  0  0  0  0  0  0  0
  -29.3219   -8.7314   -5.9991 C   0  0  0  0  0  0  0  0  0  0  0  0
  -29.6468   -9.9139   -6.6778 C   0  0  0  0  0  0  0  0  0  0  0  0
  -30.6691   -9.9215   -7.6287 C   0  0  0  0  0  0  0  0  0  0  0  0
  -31.3391   -8.7325   -7.9208 C   0  0  0  0  0  0  0  0  0  0  0  0
  -30.9768   -7.5463   -7.2690 C   0  0  0  0  0  0  0  0  0  0  0  0
  -30.9589  -11.1809   -8.3554 C   0  0  0  0  0  0  0  0  0  0  0  0
  -32.2633  -11.4360   -8.6861 N   0  0  0  0  0  0  0  0  0  0  0  0
  -30.0755  -11.9805   -8.6393 O   0  0  0  0  0  0  0  0  0  0  0  0
  -33.0388  -10.9389   -8.2741 H   0  0  0  0  0  0  0  0  0  0  0  0
  -32.4497  -12.3348   -9.1120 H   0  0  0  0  0  0  0  0  0  0  0  0
  -28.2045   -2.4763   -4.4818 N   0  0  0  0  0  0  0  0  0  0  0  0
  -27.3160   -2.4503   -3.9946 H   0  0  0  0  0  0  0  0  0  0  0  0
  -29.4490    1.0227   -6.5313 C   0  0  0  0  0  0  0  0  0  0  0  0
  -28.2896    0.3634   -6.9260 C   0  0  0  0  0  0  0  0  0  0  0  0
  -27.8529   -0.7753   -6.2396 C   0  0  0  0  0  0  0  0  0  0  0  0
  -28.5360   -1.2653   -5.1211 C   0  0  0  0  0  0  0  0  0  0  0  0
  -29.7080   -0.5969   -4.7398 C   0  0  0  0  0  0  0  0  0  0  0  0
  -30.1593    0.5334   -5.4360 C   0  0  0  0  0  0  0  0  0  0  0  0
  -31.4003    2.2696   -7.0440 C   0  0  0  0  0  0  0  0  0  0  0  0
  -29.9869    2.1242   -7.1372 O   0  0  0  0  0  0  0  0  0  0  0  0
 30 31  1  0  0  0
 31 24  1  0  0  0
 24 25  1  0  0  0
 24 29  2  0  0  0
 25 26  2  0  0  0
 26 27  1  0  0  0
 27 22  1  0  0  0
 27 28  2  0  0  0
 22  1  1  0  0  0
 22 23  1  0  0  0
  1  2  1  0  0  0
  1 10  2  0  0  0
  2  3  2  0  0  0
  3  4  1  0  0  0
  4 11  1  0  0  0
  4  5  2  0  0  0
 11 12  1  0  0  0
 11 16  2  0  0  0
 12 13  2  0  0  0
 13 14  1  0  0  0
 14 17  1  0  0  0
 14 15  2  0  0  0
 17 18  1  0  0  0
 17 19  2  0  0  0
 18 20  1  0  0  0
 18 21  1  0  0  0
 15 16  1  0  0  0
  5  6  1  0  0  0
  5 10  1  0  0  0
  6  7  2  0  0  0
  7  8  1  0  0  0
  8  9  2  0  0  0
  9 10  1  0  0  0
 28 29  1  0  0  0
M  END
> <minimizedAffinity>
-8.33887

$$$$
