CHEMBL3925306


 39 44  0  0  0  0  0  0  0  0999 V2000
  -28.8455   -5.3245   -5.8242 C   0  0  0  0  0  0  0  0  0  0  0  0
  -28.6867   -5.7262   -7.1433 C   0  0  0  0  0  0  0  0  0  0  0  0
  -28.4009   -4.8675   -8.0075 C   0  0  0  0  0  0  0  0  0  0  0  0
  -28.2585   -3.6433   -7.7027 C   0  0  0  0  0  0  0  0  0  0  0  0
  -27.7018   -3.2270   -8.4996 N   0  0  0  0  0  0  0  0  0  0  0  0
  -27.1204   -2.8346   -9.3565 C   0  0  0  0  0  0  0  0  0  0  0  0
  -27.5956   -1.5738   -9.4420 C   0  0  0  0  0  0  0  0  0  0  0  0
  -28.1367   -1.2810   -7.7488 N   0  0  0  0  0  0  0  0  0  0  0  0
  -28.3752   -2.7193   -6.7808 C   0  0  0  0  0  0  0  0  0  0  0  0
  -28.6660   -3.8007   -5.4920 C   0  0  0  0  0  0  0  0  0  0  0  0
  -27.1314   -1.3360  -11.3766 C   0  0  0  0  0  0  0  0  0  0  0  0
  -27.9949   -1.7541  -12.5759 C   0  0  0  0  0  0  0  0  0  0  0  0
  -27.2614   -1.8376  -13.7549 N   0  0  0  0  0  0  0  0  0  0  0  0
  -26.0026   -1.5682  -13.4858 N   0  0  0  0  0  0  0  0  0  0  0  0
  -25.8327   -1.2805  -12.1466 C   0  0  0  0  0  0  0  0  0  0  0  0
  -25.0042   -1.5819  -14.5281 C   0  0  0  0  0  0  0  0  0  0  0  0
  -24.1316   -0.3448  -14.6723 C   0  0  0  0  0  0  0  0  0  0  0  0
  -23.0317   -0.1096  -13.6173 C   0  0  0  0  0  0  0  0  0  0  0  0
  -23.3114    1.2051  -12.8891 C   0  0  0  0  0  0  0  0  0  0  0  0
  -22.9292    2.4356  -13.7437 C   0  0  0  0  0  0  0  0  0  0  0  0
  -21.5682    2.3671  -14.2506 N   0  0  0  0  0  0  0  0  0  0  0  0
  -21.2855    1.1251  -14.9863 C   0  0  0  0  0  0  0  0  0  0  0  0
  -21.6066   -0.1210  -14.1764 C   0  0  0  0  0  0  0  0  0  0  0  0
  -20.9589    2.3922  -13.4299 H   0  0  0  0  0  0  0  0  0  0  0  0
  -29.2689   -6.4349   -4.9632 N   0  0  0  0  0  0  0  0  0  0  0  0
  -30.3923   -9.4694   -6.9377 C   0  0  0  0  0  0  0  0  0  0  0  0
  -29.4141  -10.2750   -6.6976 C   0  0  0  0  0  0  0  0  0  0  0  0
  -28.3852   -9.9756   -5.9005 C   0  0  0  0  0  0  0  0  0  0  0  0
  -28.3709   -8.7429   -5.2769 C   0  0  0  0  0  0  0  0  0  0  0  0
  -29.4124   -7.8165   -5.4883 C   0  0  0  0  0  0  0  0  0  0  0  0
  -30.5331   -8.3311   -6.2658 C   0  0  0  0  0  0  0  0  0  0  0  0
  -31.1604  -11.0275   -8.5558 C   0  0  0  0  0  0  0  0  0  0  0  0
  -31.1486   -9.7723   -7.9835 O   0  0  0  0  0  0  0  0  0  0  0  0
  -27.3689  -10.8524   -5.8554 O   0  0  0  0  0  0  0  0  0  0  0  0
  -26.0578  -10.4536   -6.1097 C   0  0  0  0  0  0  0  0  0  0  0  0
  -29.8185   -6.0234   -3.6459 C   0  0  0  0  0  0  0  0  0  0  0  0
  -31.2385   -5.5945   -3.7379 C   0  0  0  0  0  0  0  0  0  0  0  0
  -31.8346   -4.1543   -3.5360 C   0  0  0  0  0  0  0  0  0  0  0  0
  -32.4169   -5.3842   -2.7812 C   0  0  0  0  0  0  0  0  0  0  0  0
 32 33  1  0  0  0
 33 26  1  0  0  0
 26 27  1  0  0  0
 26 31  2  0  0  0
 27 28  2  0  0  0
 28 34  1  0  0  0
 28 29  1  0  0  0
 34 35  1  0  0  0
 29 30  2  0  0  0
 30 25  1  0  0  0
 30 31  1  0  0  0
 25 36  1  0  0  0
 25  1  1  0  0  0
 36 37  1  0  0  0
 37 38  1  0  0  0
 37 39  1  0  0  0
 38 39  1  0  0  0
  1  2  1  0  0  0
  1 10  2  0  0  0
  2  3  2  0  0  0
  3  4  1  0  0  0
  4  5  1  0  0  0
  4  9  2  0  0  0
  5  6  2  0  0  0
  6  7  1  0  0  0
  7 11  1  0  0  0
  7  8  2  0  0  0
 11 12  1  0  0  0
 11 15  2  0  0  0
 12 13  2  0  0  0
 13 14  1  0  0  0
 14 16  1  0  0  0
 14 15  1  0  0  0
 16 17  1  0  0  0
 17 18  1  0  0  0
 18 19  1  0  0  0
 18 23  1  0  0  0
 19 20  1  0  0  0
 20 21  1  0  0  0
 21 22  1  0  0  0
 21 24  1  0  0  0
 22 23  1  0  0  0
  8  9  1  0  0  0
  9 10  1  0  0  0
M  END
> <minimizedAffinity>
-9.18713

$$$$
