CHEMBL224035


 30 33  0  0  0  0  0  0  0  0999 V2000
  -16.5479    0.8548  -14.9648 C   0  0  0  0  0  0  0  0  0  0  0  0
  -15.5357    1.5529  -15.6190 C   0  0  0  0  0  0  0  0  0  0  0  0
  -15.8256    2.8084  -16.1317 C   0  0  0  0  0  0  0  0  0  0  0  0
  -17.0497    3.3837  -16.0921 N   0  0  0  0  0  0  0  0  0  0  0  0
  -18.0430    2.6843  -15.5057 C   0  0  0  0  0  0  0  0  0  0  0  0
  -17.7994    1.4598  -14.8841 C   0  0  0  0  0  0  0  0  0  0  0  0
  -19.3275    3.2336  -15.5731 N   0  0  0  0  0  0  0  0  0  0  0  0
  -19.4642    3.7028  -16.4575 H   0  0  0  0  0  0  0  0  0  0  0  0
  -20.4068    2.6959  -14.9532 C   0  0  0  0  0  0  0  0  0  0  0  0
  -21.3892    3.3859  -14.4116 N   0  0  0  0  0  0  0  0  0  0  0  0
  -22.3249    2.5560  -13.8537 C   0  0  0  0  0  0  0  0  0  0  0  0
  -22.0695    1.2059  -13.9575 C   0  0  0  0  0  0  0  0  0  0  0  0
  -20.5786    0.9893  -14.7883 S   0  0  0  0  0  0  0  0  0  0  0  0
  -22.8902    0.0905  -13.4824 C   0  0  0  0  0  0  0  0  0  0  0  0
  -22.6089   -0.4919  -12.2356 C   0  0  0  0  0  0  0  0  0  0  0  0
  -23.3489   -1.5795  -11.7695 C   0  0  0  0  0  0  0  0  0  0  0  0
  -24.3797   -2.0985  -12.5457 C   0  0  0  0  0  0  0  0  0  0  0  0
  -24.6686   -1.5359  -13.7868 C   0  0  0  0  0  0  0  0  0  0  0  0
  -23.9264   -0.4485  -14.2546 C   0  0  0  0  0  0  0  0  0  0  0  0
  -16.3450   -0.5037  -14.3323 C   0  0  0  0  0  0  0  0  0  0  0  0
  -14.6985   -3.4303  -12.7552 N   0  0  0  0  0  0  0  0  0  0  0  0
  -14.3330   -2.8098  -14.0609 C   0  0  0  0  0  0  0  0  0  0  0  0
  -14.0569   -1.3039  -13.9100 C   0  0  0  0  0  0  0  0  0  0  0  0
  -15.2149   -0.5512  -13.3916 N   0  0  0  0  0  0  0  0  0  0  0  0
  -15.6112   -1.1524  -12.0936 C   0  0  0  0  0  0  0  0  0  0  0  0
  -15.8266   -2.6845  -12.1029 C   0  0  0  0  0  0  0  0  0  0  0  0
  -13.9497   -5.4687  -11.1400 C   0  0  0  0  0  0  0  0  0  0  0  0
  -13.4154   -3.8778  -11.7381 S   0  0  0  0  0  0  0  0  0  0  0  0
  -13.4090   -2.9702  -10.6143 O   0  0  0  0  0  0  0  0  0  0  0  0
  -12.2275   -4.0742  -12.5446 O   0  0  0  0  0  0  0  0  0  0  0  0
 27 28  1  0  0  0
 28 29  2  0  0  0
 28 30  2  0  0  0
 28 21  1  0  0  0
 21 22  1  0  0  0
 21 26  1  0  0  0
 22 23  1  0  0  0
 23 24  1  0  0  0
 24 20  1  0  0  0
 24 25  1  0  0  0
 20  1  1  0  0  0
  1  2  1  0  0  0
  1  6  2  0  0  0
  2  3  2  0  0  0
  3  4  1  0  0  0
  4  5  2  0  0  0
  5  7  1  0  0  0
  5  6  1  0  0  0
  7  9  1  0  0  0
  7  8  1  0  0  0
  9 10  2  0  0  0
  9 13  1  0  0  0
 10 11  1  0  0  0
 11 12  2  0  0  0
 12 14  1  0  0  0
 12 13  1  0  0  0
 14 15  1  0  0  0
 14 19  2  0  0  0
 15 16  2  0  0  0
 16 17  1  0  0  0
 17 18  2  0  0  0
 18 19  1  0  0  0
 25 26  1  0  0  0
M  END
> <minimizedAffinity>
-9.21043

$$$$
