CHEMBL3671483


 41 44  0  0  0  0  0  0  0  0999 V2000
  -29.2683   -9.1755   -5.4100 C   0  0  0  0  0  0  0  0  0  0  0  0
  -28.2606   -9.9075   -6.0529 C   0  0  0  0  0  0  0  0  0  0  0  0
  -26.9138   -9.8405   -5.6196 C   0  0  0  0  0  0  0  0  0  0  0  0
  -25.8174  -10.4466   -6.2535 C   0  0  0  0  0  0  0  0  0  0  0  0
  -24.5658  -10.3887   -5.7486 N   0  0  0  0  0  0  0  0  0  0  0  0
  -24.4095   -9.6958   -4.6215 C   0  0  0  0  0  0  0  0  0  0  0  0
  -25.3726   -9.0504   -3.9560 N   0  0  0  0  0  0  0  0  0  0  0  0
  -26.6005   -9.1258   -4.4599 C   0  0  0  0  0  0  0  0  0  0  0  0
  -27.6166   -8.4488   -3.8090 C   0  0  0  0  0  0  0  0  0  0  0  0
  -28.9345   -8.4053   -4.2911 C   0  0  0  0  0  0  0  0  0  0  0  0
  -30.9361   -8.2635   -6.9493 C   0  0  0  0  0  0  0  0  0  0  0  0
  -30.1457   -7.6287   -7.6442 O   0  0  0  0  0  0  0  0  0  0  0  0
  -30.5734   -9.1537   -5.9626 N   0  0  0  0  0  0  0  0  0  0  0  0
  -31.1798   -9.9355   -5.7478 H   0  0  0  0  0  0  0  0  0  0  0  0
  -33.1768   -9.1917   -7.2216 C   0  0  0  0  0  0  0  0  0  0  0  0
  -32.4055   -8.1042   -7.1266 C   0  0  0  0  0  0  0  0  0  0  0  0
  -26.0034  -11.1042   -7.4833 N   0  0  0  0  0  0  0  0  0  0  0  0
  -25.9223  -12.1149   -7.4013 H   0  0  0  0  0  0  0  0  0  0  0  0
  -26.7724  -10.6877   -8.5870 C   0  0  0  0  0  0  0  0  0  0  0  0
  -26.3748   -9.6114   -9.3886 C   0  0  0  0  0  0  0  0  0  0  0  0
  -26.9857   -9.3762  -10.6222 C   0  0  0  0  0  0  0  0  0  0  0  0
  -28.0202  -10.2050  -11.0512 C   0  0  0  0  0  0  0  0  0  0  0  0
  -28.7221   -9.9931  -12.7927 Br  0  0  0  0  0  0  0  0  0  0  0  0
  -28.4983  -11.2208  -10.2302 C   0  0  0  0  0  0  0  0  0  0  0  0
  -27.8685  -11.4535   -9.0108 C   0  0  0  0  0  0  0  0  0  0  0  0
  -28.3030  -12.4645   -8.2405 F   0  0  0  0  0  0  0  0  0  0  0  0
  -29.9333   -7.6835   -3.6818 O   0  0  0  0  0  0  0  0  0  0  0  0
  -29.6288   -6.3012   -3.4464 C   0  0  0  0  0  0  0  0  0  0  0  0
  -29.7808   -5.5012   -4.7466 C   0  0  0  0  0  0  0  0  0  0  0  0
  -28.4149   -5.1679   -5.3646 C   0  0  0  0  0  0  0  0  0  0  0  0
  -27.6463   -4.1765   -4.4966 C   0  0  0  0  0  0  0  0  0  0  0  0
  -28.4337   -2.9598   -4.3015 N   0  0  0  0  0  0  0  0  0  0  0  0
  -27.8621   -1.7636   -4.6899 C   0  0  0  0  0  0  0  0  0  0  0  0
  -26.7434   -1.6975   -5.1976 O   0  0  0  0  0  0  0  0  0  0  0  0
  -28.6209   -0.6428   -4.5080 N   0  0  0  0  0  0  0  0  0  0  0  0
  -29.7630   -3.1597   -3.7175 C   0  0  0  0  0  0  0  0  0  0  0  0
  -30.5671   -4.2001   -4.5061 C   0  0  0  0  0  0  0  0  0  0  0  0
  -29.4100   -0.6624   -3.8889 H   0  0  0  0  0  0  0  0  0  0  0  0
  -28.1533    0.6574   -4.9367 C   0  0  0  0  0  0  0  0  0  0  0  0
  -28.9969    1.1911   -6.0895 C   0  0  0  0  0  0  0  0  0  0  0  0
  -30.4766    1.1213   -5.7581 C   0  0  0  0  0  0  0  0  0  0  0  0
 15 16  2  0  0  0
 16 11  1  0  0  0
 11 12  2  0  0  0
 11 13  1  0  0  0
 13  1  1  0  0  0
 13 14  1  0  0  0
  1  2  1  0  0  0
  1 10  2  0  0  0
  2  3  2  0  0  0
  3  4  1  0  0  0
  3  8  1  0  0  0
  4 17  1  0  0  0
  4  5  2  0  0  0
 17 19  1  0  0  0
 17 18  1  0  0  0
 19 20  1  0  0  0
 19 25  2  0  0  0
 20 21  2  0  0  0
 21 22  1  0  0  0
 22 23  1  0  0  0
 22 24  2  0  0  0
 24 25  1  0  0  0
 25 26  1  0  0  0
  5  6  1  0  0  0
  6  7  2  0  0  0
  7  8  1  0  0  0
  8  9  2  0  0  0
  9 10  1  0  0  0
 10 27  1  0  0  0
 27 28  1  0  0  0
 28 29  1  0  0  0
 29 30  1  0  0  0
 29 37  1  0  0  0
 30 31  1  0  0  0
 31 32  1  0  0  0
 32 33  1  0  0  0
 32 36  1  0  0  0
 33 34  2  0  0  0
 33 35  1  0  0  0
 35 39  1  0  0  0
 35 38  1  0  0  0
 39 40  1  0  0  0
 40 41  1  0  0  0
 36 37  1  0  0  0
M  END
> <minimizedAffinity>
-9.00239

$$$$
