CHEMBL218631


 32 34  0  0  0  0  0  0  0  0999 V2000
  -24.7798   -0.6558  -13.6640 C   0  0  0  0  0  0  0  0  0  0  0  0
  -25.3166   -1.3466  -14.7565 C   0  0  0  0  0  0  0  0  0  0  0  0
  -26.5255   -2.0361  -14.6314 C   0  0  0  0  0  0  0  0  0  0  0  0
  -27.2063   -2.0344  -13.4175 C   0  0  0  0  0  0  0  0  0  0  0  0
  -28.3719   -2.6960  -13.3478 F   0  0  0  0  0  0  0  0  0  0  0  0
  -26.6924   -1.3624  -12.3093 C   0  0  0  0  0  0  0  0  0  0  0  0
  -25.4609   -0.6835  -12.4392 C   0  0  0  0  0  0  0  0  0  0  0  0
  -27.4081   -1.3090  -11.0018 C   0  0  0  0  0  0  0  0  0  0  0  0
  -28.2429   -0.4142  -10.8590 O   0  0  0  0  0  0  0  0  0  0  0  0
  -27.0597   -2.2465  -10.0369 N   0  0  0  0  0  0  0  0  0  0  0  0
  -26.2553   -2.8349  -10.2268 H   0  0  0  0  0  0  0  0  0  0  0  0
  -27.6077   -2.3349   -8.7351 C   0  0  0  0  0  0  0  0  0  0  0  0
  -28.1788   -3.5067   -8.2389 C   0  0  0  0  0  0  0  0  0  0  0  0
  -28.8127   -3.5233   -6.9973 C   0  0  0  0  0  0  0  0  0  0  0  0
  -28.8950   -2.3583   -6.2426 C   0  0  0  0  0  0  0  0  0  0  0  0
  -28.3028   -1.1743   -6.7032 C   0  0  0  0  0  0  0  0  0  0  0  0
  -27.6129   -1.1856   -7.9328 C   0  0  0  0  0  0  0  0  0  0  0  0
  -28.4722    0.1091   -5.9263 C   0  0  0  0  0  0  0  0  0  0  0  0
  -27.5242    0.2903   -4.9625 F   0  0  0  0  0  0  0  0  0  0  0  0
  -28.4219    1.2184   -6.7122 F   0  0  0  0  0  0  0  0  0  0  0  0
  -29.6692    0.1638   -5.2768 F   0  0  0  0  0  0  0  0  0  0  0  0
  -22.5549    0.7276  -14.0006 C   0  0  0  0  0  0  0  0  0  0  0  0
  -23.5614    0.0916  -13.8199 C   0  0  0  0  0  0  0  0  0  0  0  0
  -18.0541    3.7396  -15.1109 N   0  0  0  0  0  0  0  0  0  0  0  0
  -19.1528    2.9816  -14.7779 C   0  0  0  0  0  0  0  0  0  0  0  0
  -20.2365    3.6214  -14.3259 N   0  0  0  0  0  0  0  0  0  0  0  0
  -21.3290    2.8636  -14.0752 C   0  0  0  0  0  0  0  0  0  0  0  0
  -21.3751    1.4973  -14.2413 C   0  0  0  0  0  0  0  0  0  0  0  0
  -20.1909    0.9414  -14.6786 C   0  0  0  0  0  0  0  0  0  0  0  0
  -19.0729    1.6571  -14.9449 N   0  0  0  0  0  0  0  0  0  0  0  0
  -18.0604    4.6431  -14.6608 H   0  0  0  0  0  0  0  0  0  0  0  0
  -17.2003    3.2022  -15.1141 H   0  0  0  0  0  0  0  0  0  0  0  0
 24 25  1  0  0  0
 24 31  1  0  0  0
 24 32  1  0  0  0
 25 26  1  0  0  0
 25 30  2  0  0  0
 26 27  2  0  0  0
 27 28  1  0  0  0
 28 22  1  0  0  0
 28 29  2  0  0  0
 22 23  3  0  0  0
 23  1  1  0  0  0
  1  2  1  0  0  0
  1  7  2  0  0  0
  2  3  2  0  0  0
  3  4  1  0  0  0
  4  5  1  0  0  0
  4  6  2  0  0  0
  6  8  1  0  0  0
  6  7  1  0  0  0
  8  9  2  0  0  0
  8 10  1  0  0  0
 10 12  1  0  0  0
 10 11  1  0  0  0
 12 13  1  0  0  0
 12 17  2  0  0  0
 13 14  2  0  0  0
 14 15  1  0  0  0
 15 16  2  0  0  0
 16 18  1  0  0  0
 16 17  1  0  0  0
 18 19  1  0  0  0
 18 20  1  0  0  0
 18 21  1  0  0  0
 29 30  1  0  0  0
M  END
> <minimizedAffinity>
-11.49010

$$$$
