CHEMBL3353362


 38 44  0  0  0  0  0  0  0  0999 V2000
  -14.7926    4.0988  -17.5883 C   0  0  0  0  0  0  0  0  0  0  0  0
  -14.4266    2.7430  -17.4785 C   0  0  0  0  0  0  0  0  0  0  0  0
  -15.1155    1.8309  -16.6600 C   0  0  0  0  0  0  0  0  0  0  0  0
  -16.2234    2.2856  -15.9253 C   0  0  0  0  0  0  0  0  0  0  0  0
  -17.1382    1.7350  -14.9734 C   0  0  0  0  0  0  0  0  0  0  0  0
  -18.0593    2.6396  -14.6091 N   0  0  0  0  0  0  0  0  0  0  0  0
  -17.7280    3.7428  -15.2959 N   0  0  0  0  0  0  0  0  0  0  0  0
  -16.6165    3.6092  -16.0805 C   0  0  0  0  0  0  0  0  0  0  0  0
  -15.9400    4.5267  -16.8991 C   0  0  0  0  0  0  0  0  0  0  0  0
  -18.2970    4.5712  -15.1716 H   0  0  0  0  0  0  0  0  0  0  0  0
  -13.2205    7.4898  -20.0406 O   0  0  0  0  0  0  0  0  0  0  0  0
  -12.9362    7.3154  -18.8630 C   0  0  0  0  0  0  0  0  0  0  0  0
  -12.5989    8.2780  -17.9333 N   0  0  0  0  0  0  0  0  0  0  0  0
  -12.2616    7.7093  -16.7060 C   0  0  0  0  0  0  0  0  0  0  0  0
  -11.8175    8.3882  -15.5888 C   0  0  0  0  0  0  0  0  0  0  0  0
  -11.4542    7.6240  -14.4840 C   0  0  0  0  0  0  0  0  0  0  0  0
  -11.4979    6.2182  -14.5495 C   0  0  0  0  0  0  0  0  0  0  0  0
  -11.9463    5.5559  -15.7051 C   0  0  0  0  0  0  0  0  0  0  0  0
  -12.3850    6.3086  -16.7843 C   0  0  0  0  0  0  0  0  0  0  0  0
  -12.9167    5.9759  -18.1537 C   0  0  0  0  0  0  0  0  0  0  0  0
  -12.5859    4.6934  -18.8593 C   0  0  0  0  0  0  0  0  0  0  0  0
  -14.0300    5.0101  -18.5219 C   0  0  0  0  0  0  0  0  0  0  0  0
  -12.5378    9.2583  -18.1632 H   0  0  0  0  0  0  0  0  0  0  0  0
  -17.0625    0.4056  -14.4306 C   0  0  0  0  0  0  0  0  0  0  0  0
  -16.1275   -0.0070  -13.5555 C   0  0  0  0  0  0  0  0  0  0  0  0
  -15.9723   -1.3863  -13.0660 C   0  0  0  0  0  0  0  0  0  0  0  0
  -16.0641   -2.4352  -13.9915 C   0  0  0  0  0  0  0  0  0  0  0  0
  -15.9536   -3.7666  -13.5802 C   0  0  0  0  0  0  0  0  0  0  0  0
  -15.7422   -4.0780  -12.2317 C   0  0  0  0  0  0  0  0  0  0  0  0
  -15.6134   -3.0301  -11.3102 C   0  0  0  0  0  0  0  0  0  0  0  0
  -15.7196   -1.7000  -11.7249 C   0  0  0  0  0  0  0  0  0  0  0  0
  -15.7183   -5.5181  -11.7660 C   0  0  0  0  0  0  0  0  0  0  0  0
  -14.6044   -6.3265  -12.3044 N   0  0  0  0  0  0  0  0  0  0  0  0
  -13.7701   -6.8597  -11.2127 C   0  0  0  0  0  0  0  0  0  0  0  0
  -12.7163   -7.8553  -11.6925 C   0  0  0  0  0  0  0  0  0  0  0  0
  -13.3494   -8.9833  -12.4926 C   0  0  0  0  0  0  0  0  0  0  0  0
  -14.1280   -8.3972  -13.6570 C   0  0  0  0  0  0  0  0  0  0  0  0
  -15.1601   -7.3787  -13.1752 C   0  0  0  0  0  0  0  0  0  0  0  0
 11 12  2  0  0  0
 12 13  1  0  0  0
 12 20  1  0  0  0
 13 14  1  0  0  0
 13 23  1  0  0  0
 14 15  1  0  0  0
 14 19  2  0  0  0
 15 16  2  0  0  0
 16 17  1  0  0  0
 17 18  2  0  0  0
 18 19  1  0  0  0
 20 19  1  0  0  0
 20 21  1  0  0  0
 20 22  1  0  0  0
 21 22  1  0  0  0
 22  1  1  0  0  0
  1  2  1  0  0  0
  1  9  2  0  0  0
  2  3  2  0  0  0
  3  4  1  0  0  0
  4  5  1  0  0  0
  4  8  2  0  0  0
  5 24  1  0  0  0
  5  6  2  0  0  0
 24 25  2  0  0  0
 25 26  1  0  0  0
 26 27  1  0  0  0
 26 31  2  0  0  0
 27 28  2  0  0  0
 28 29  1  0  0  0
 29 32  1  0  0  0
 29 30  2  0  0  0
 32 33  1  0  0  0
 33 34  1  0  0  0
 33 38  1  0  0  0
 34 35  1  0  0  0
 35 36  1  0  0  0
 36 37  1  0  0  0
 37 38  1  0  0  0
 30 31  1  0  0  0
  6  7  1  0  0  0
  7  8  1  0  0  0
  7 10  1  0  0  0
  8  9  1  0  0  0
M  END
> <minimizedAffinity>
-9.56371

$$$$
