CHEMBL4584219


 28 31  0  0  0  0  0  0  0  0999 V2000
  -28.8382   -7.7192   -5.5052 C   0  0  0  0  0  0  0  0  0  0  0  0
  -29.9475   -7.5422   -6.3522 C   0  0  0  0  0  0  0  0  0  0  0  0
  -30.3968   -6.2686   -6.7237 C   0  0  0  0  0  0  0  0  0  0  0  0
  -29.6505   -5.2112   -6.2265 C   0  0  0  0  0  0  0  0  0  0  0  0
  -29.8135   -3.8860   -6.4984 O   0  0  0  0  0  0  0  0  0  0  0  0
  -28.7996   -3.2726   -5.7986 C   0  0  0  0  0  0  0  0  0  0  0  0
  -28.0574   -4.1000   -5.0848 N   0  0  0  0  0  0  0  0  0  0  0  0
  -28.5771   -5.3379   -5.3629 C   0  0  0  0  0  0  0  0  0  0  0  0
  -28.1807   -6.6148   -4.9437 C   0  0  0  0  0  0  0  0  0  0  0  0
  -28.7285   -1.8194   -5.9359 C   0  0  0  0  0  0  0  0  0  0  0  0
  -29.1659   -1.0177   -4.8621 C   0  0  0  0  0  0  0  0  0  0  0  0
  -29.0976    0.3759   -4.9173 C   0  0  0  0  0  0  0  0  0  0  0  0
  -28.5938    0.9992   -6.0529 C   0  0  0  0  0  0  0  0  0  0  0  0
  -28.1656    0.2290   -7.1330 C   0  0  0  0  0  0  0  0  0  0  0  0
  -28.2314   -1.1718   -7.0801 C   0  0  0  0  0  0  0  0  0  0  0  0
  -27.6663   -2.0956   -8.6457 Br  0  0  0  0  0  0  0  0  0  0  0  0
  -28.3337   -9.5177   -3.9304 C   0  0  0  0  0  0  0  0  0  0  0  0
  -28.7787   -8.9386   -2.9442 O   0  0  0  0  0  0  0  0  0  0  0  0
  -28.3316   -9.0056   -5.2228 N   0  0  0  0  0  0  0  0  0  0  0  0
  -28.3812   -9.6965   -5.9629 H   0  0  0  0  0  0  0  0  0  0  0  0
  -27.7315  -10.9046   -3.8141 C   0  0  0  0  0  0  0  0  0  0  0  0
  -22.0599  -11.3186   -2.5256 C   0  0  0  0  0  0  0  0  0  0  0  0
  -23.5231  -11.1834   -2.8303 C   0  0  0  0  0  0  0  0  0  0  0  0
  -24.4690  -11.9556   -2.1517 C   0  0  0  0  0  0  0  0  0  0  0  0
  -25.8280  -11.8363   -2.4517 C   0  0  0  0  0  0  0  0  0  0  0  0
  -26.2705  -10.9430   -3.4378 C   0  0  0  0  0  0  0  0  0  0  0  0
  -25.3198  -10.1700   -4.1181 C   0  0  0  0  0  0  0  0  0  0  0  0
  -23.9588  -10.2885   -3.8151 C   0  0  0  0  0  0  0  0  0  0  0  0
 22 23  1  0  0  0
 23 24  1  0  0  0
 23 28  2  0  0  0
 24 25  2  0  0  0
 25 26  1  0  0  0
 26 21  1  0  0  0
 26 27  2  0  0  0
 21 17  1  0  0  0
 17 18  2  0  0  0
 17 19  1  0  0  0
 19  1  1  0  0  0
 19 20  1  0  0  0
  1  2  1  0  0  0
  1  9  2  0  0  0
  2  3  2  0  0  0
  3  4  1  0  0  0
  4  5  1  0  0  0
  4  8  2  0  0  0
  5  6  1  0  0  0
  6 10  1  0  0  0
  6  7  2  0  0  0
 10 11  1  0  0  0
 10 15  2  0  0  0
 11 12  2  0  0  0
 12 13  1  0  0  0
 13 14  2  0  0  0
 14 15  1  0  0  0
 15 16  1  0  0  0
  7  8  1  0  0  0
  8  9  1  0  0  0
 27 28  1  0  0  0
M  END
> <minimizedAffinity>
-8.86609

$$$$
