CHEMBL3944594


 29 32  0  0  0  0  0  0  0  0999 V2000
  -29.8710   -5.2619   -6.2699 C   0  0  0  0  0  0  0  0  0  0  0  0
  -29.1919   -5.4705   -7.4773 C   0  0  0  0  0  0  0  0  0  0  0  0
  -28.4972   -4.4258   -8.1038 C   0  0  0  0  0  0  0  0  0  0  0  0
  -28.5190   -3.1423   -7.5221 C   0  0  0  0  0  0  0  0  0  0  0  0
  -27.9524   -1.8631   -7.8136 C   0  0  0  0  0  0  0  0  0  0  0  0
  -28.3315   -0.9490   -6.9045 N   0  0  0  0  0  0  0  0  0  0  0  0
  -29.1201   -1.6258   -6.0600 N   0  0  0  0  0  0  0  0  0  0  0  0
  -29.2555   -2.9539   -6.3568 C   0  0  0  0  0  0  0  0  0  0  0  0
  -29.9476   -3.9815   -5.7062 C   0  0  0  0  0  0  0  0  0  0  0  0
  -29.5364   -1.1205   -5.2867 H   0  0  0  0  0  0  0  0  0  0  0  0
  -30.5306   -6.3854   -5.5484 C   0  0  0  0  0  0  0  0  0  0  0  0
  -31.1222   -6.1559   -4.4965 O   0  0  0  0  0  0  0  0  0  0  0  0
  -32.2890   -9.8614   -8.5356 N   0  0  0  0  0  0  0  0  0  0  0  0
  -31.4126   -9.4951   -7.5066 C   0  0  0  0  0  0  0  0  0  0  0  0
  -30.3654  -10.3472   -7.1440 C   0  0  0  0  0  0  0  0  0  0  0  0
  -29.4234   -9.9569   -6.1914 C   0  0  0  0  0  0  0  0  0  0  0  0
  -29.4904   -8.6843   -5.6295 C   0  0  0  0  0  0  0  0  0  0  0  0
  -30.4679   -7.7808   -6.0636 C   0  0  0  0  0  0  0  0  0  0  0  0
  -31.4264   -8.1931   -6.9990 C   0  0  0  0  0  0  0  0  0  0  0  0
  -32.4305  -10.8640   -8.6138 H   0  0  0  0  0  0  0  0  0  0  0  0
  -33.1696   -9.3542   -8.5181 H   0  0  0  0  0  0  0  0  0  0  0  0
  -27.0903   -1.5695   -8.9261 C   0  0  0  0  0  0  0  0  0  0  0  0
  -27.4152   -1.8118  -10.2091 C   0  0  0  0  0  0  0  0  0  0  0  0
  -26.5760   -1.5657  -11.3913 C   0  0  0  0  0  0  0  0  0  0  0  0
  -25.2333   -1.1758  -11.3092 C   0  0  0  0  0  0  0  0  0  0  0  0
  -24.4583   -1.0440  -12.4664 C   0  0  0  0  0  0  0  0  0  0  0  0
  -25.0142   -1.3070  -13.7167 C   0  0  0  0  0  0  0  0  0  0  0  0
  -26.3472   -1.6961  -13.8132 C   0  0  0  0  0  0  0  0  0  0  0  0
  -27.1212   -1.8262  -12.6575 C   0  0  0  0  0  0  0  0  0  0  0  0
 13 14  1  0  0  0
 13 20  1  0  0  0
 13 21  1  0  0  0
 14 15  1  0  0  0
 14 19  2  0  0  0
 15 16  2  0  0  0
 16 17  1  0  0  0
 17 18  2  0  0  0
 18 11  1  0  0  0
 18 19  1  0  0  0
 11 12  2  0  0  0
 11  1  1  0  0  0
  1  2  1  0  0  0
  1  9  2  0  0  0
  2  3  2  0  0  0
  3  4  1  0  0  0
  4  5  1  0  0  0
  4  8  2  0  0  0
  5 22  1  0  0  0
  5  6  2  0  0  0
 22 23  2  0  0  0
 23 24  1  0  0  0
 24 25  1  0  0  0
 24 29  2  0  0  0
 25 26  2  0  0  0
 26 27  1  0  0  0
 27 28  2  0  0  0
 28 29  1  0  0  0
  6  7  1  0  0  0
  7  8  1  0  0  0
  7 10  1  0  0  0
  8  9  1  0  0  0
M  END
> <minimizedAffinity>
-9.69239

$$$$
