CHEMBL4570075


 25 28  0  0  0  0  0  0  0  0999 V2000
  -25.9192   11.0459  -14.4183 C   0  0  0  0  0  0  0  0  0  0  0  0
  -25.0219   11.2506  -15.6114 C   0  0  0  0  0  0  0  0  0  0  0  0
  -24.3086   12.4422  -15.7758 C   0  0  0  0  0  0  0  0  0  0  0  0
  -23.4719   12.6212  -16.8839 C   0  0  0  0  0  0  0  0  0  0  0  0
  -23.3074   11.6207  -17.8591 C   0  0  0  0  0  0  0  0  0  0  0  0
  -24.0326   10.4303  -17.6775 C   0  0  0  0  0  0  0  0  0  0  0  0
  -24.8834   10.2500  -16.5788 C   0  0  0  0  0  0  0  0  0  0  0  0
  -22.4200   11.8254  -19.0254 C   0  0  0  0  0  0  0  0  0  0  0  0
  -21.0475   11.5333  -18.9823 C   0  0  0  0  0  0  0  0  0  0  0  0
  -20.2288   11.7712  -20.0866 C   0  0  0  0  0  0  0  0  0  0  0  0
  -20.8056   12.2871  -21.2316 C   0  0  0  0  0  0  0  0  0  0  0  0
  -22.1178   12.5721  -21.3379 N   0  0  0  0  0  0  0  0  0  0  0  0
  -22.8829   12.3400  -20.2401 C   0  0  0  0  0  0  0  0  0  0  0  0
  -29.4751   11.3621  -14.6781 C   0  0  0  0  0  0  0  0  0  0  0  0
  -28.3651   11.3549  -13.8619 C   0  0  0  0  0  0  0  0  0  0  0  0
  -27.3167   11.2759  -14.7332 N   0  0  0  0  0  0  0  0  0  0  0  0
  -27.7428   11.2467  -16.0097 N   0  0  0  0  0  0  0  0  0  0  0  0
  -29.0692   11.2959  -15.9868 N   0  0  0  0  0  0  0  0  0  0  0  0
  -33.1971    9.3893  -11.9834 C   0  0  0  0  0  0  0  0  0  0  0  0
  -32.7026   10.4125  -12.9614 C   0  0  0  0  0  0  0  0  0  0  0  0
  -33.5614   11.3870  -13.4818 C   0  0  0  0  0  0  0  0  0  0  0  0
  -33.0809   12.3461  -14.3731 C   0  0  0  0  0  0  0  0  0  0  0  0
  -31.7369   12.3394  -14.7517 C   0  0  0  0  0  0  0  0  0  0  0  0
  -30.8610   11.3667  -14.2533 C   0  0  0  0  0  0  0  0  0  0  0  0
  -31.3546   10.4093  -13.3541 C   0  0  0  0  0  0  0  0  0  0  0  0
 19 20  1  0  0  0
 20 21  1  0  0  0
 20 25  2  0  0  0
 21 22  2  0  0  0
 22 23  1  0  0  0
 23 24  2  0  0  0
 24 14  1  0  0  0
 24 25  1  0  0  0
 14 15  2  0  0  0
 14 18  1  0  0  0
 15 16  1  0  0  0
 16  1  1  0  0  0
 16 17  1  0  0  0
  1  2  1  0  0  0
  2  3  1  0  0  0
  2  7  2  0  0  0
  3  4  2  0  0  0
  4  5  1  0  0  0
  5  8  1  0  0  0
  5  6  2  0  0  0
  8  9  1  0  0  0
  8 13  2  0  0  0
  9 10  2  0  0  0
 10 11  1  0  0  0
 11 12  2  0  0  0
 12 13  1  0  0  0
  6  7  1  0  0  0
 17 18  2  0  0  0
M  END
> <minimizedAffinity>
-5.90986

$$$$
