CHEMBL3690509


 30 34  0  0  0  0  0  0  0  0999 V2000
  -14.3942   -2.7834  -11.5882 C   0  0  0  0  0  0  0  0  0  0  0  0
  -15.6209   -1.9806  -11.6607 C   0  0  0  0  0  0  0  0  0  0  0  0
  -15.8202   -1.1349  -12.6832 C   0  0  0  0  0  0  0  0  0  0  0  0
  -14.8405   -0.9872  -13.6692 N   0  0  0  0  0  0  0  0  0  0  0  0
  -14.7646   -0.1382  -14.7770 C   0  0  0  0  0  0  0  0  0  0  0  0
  -13.5906   -0.5306  -15.4048 C   0  0  0  0  0  0  0  0  0  0  0  0
  -12.9311   -1.5145  -14.7162 N   0  0  0  0  0  0  0  0  0  0  0  0
  -13.6758   -1.7563  -13.6614 C   0  0  0  0  0  0  0  0  0  0  0  0
  -13.4726   -2.6611  -12.5733 C   0  0  0  0  0  0  0  0  0  0  0  0
  -12.1312   -5.1919   -7.9999 C   0  0  0  0  0  0  0  0  0  0  0  0
  -13.2123   -4.8184   -8.9262 C   0  0  0  0  0  0  0  0  0  0  0  0
  -14.4238   -5.3061   -9.0356 N   0  0  0  0  0  0  0  0  0  0  0  0
  -15.0264   -4.5992  -10.0491 N   0  0  0  0  0  0  0  0  0  0  0  0
  -14.1552   -3.7122  -10.5173 C   0  0  0  0  0  0  0  0  0  0  0  0
  -12.9590   -3.8151   -9.8170 O   0  0  0  0  0  0  0  0  0  0  0  0
  -15.6994    0.9482  -15.1282 C   0  0  0  0  0  0  0  0  0  0  0  0
  -15.3884    1.8366  -16.1675 C   0  0  0  0  0  0  0  0  0  0  0  0
  -16.2326    2.8916  -16.4893 C   0  0  0  0  0  0  0  0  0  0  0  0
  -17.4539    3.0214  -15.8438 C   0  0  0  0  0  0  0  0  0  0  0  0
  -17.8634    2.0865  -14.8904 C   0  0  0  0  0  0  0  0  0  0  0  0
  -16.9575    1.0814  -14.4965 C   0  0  0  0  0  0  0  0  0  0  0  0
  -19.1709    2.1142  -14.3331 N   0  0  0  0  0  0  0  0  0  0  0  0
  -20.1614    1.1848  -14.6185 C   0  0  0  0  0  0  0  0  0  0  0  0
  -20.0457    0.2081  -15.3492 O   0  0  0  0  0  0  0  0  0  0  0  0
  -21.3576    1.4527  -13.9759 N   0  0  0  0  0  0  0  0  0  0  0  0
  -19.3130    2.7015  -13.5279 H   0  0  0  0  0  0  0  0  0  0  0  0
  -21.3987    2.1689  -13.2684 H   0  0  0  0  0  0  0  0  0  0  0  0
  -22.4612    0.5445  -14.1053 C   0  0  0  0  0  0  0  0  0  0  0  0
  -23.5455    0.5161  -13.0616 C   0  0  0  0  0  0  0  0  0  0  0  0
  -22.6215   -0.6555  -13.2170 C   0  0  0  0  0  0  0  0  0  0  0  0
 10 11  1  0  0  0
 11 12  2  0  0  0
 11 15  1  0  0  0
 12 13  1  0  0  0
 13 14  2  0  0  0
 14  1  1  0  0  0
 14 15  1  0  0  0
  1  2  1  0  0  0
  1  9  2  0  0  0
  2  3  2  0  0  0
  3  4  1  0  0  0
  4  5  1  0  0  0
  4  8  1  0  0  0
  5 16  1  0  0  0
  5  6  2  0  0  0
 16 17  1  0  0  0
 16 21  2  0  0  0
 17 18  2  0  0  0
 18 19  1  0  0  0
 19 20  2  0  0  0
 20 22  1  0  0  0
 20 21  1  0  0  0
 22 23  1  0  0  0
 22 26  1  0  0  0
 23 24  2  0  0  0
 23 25  1  0  0  0
 25 28  1  0  0  0
 25 27  1  0  0  0
 28 29  1  0  0  0
 28 30  1  0  0  0
 29 30  1  0  0  0
  6  7  1  0  0  0
  7  8  2  0  0  0
  8  9  1  0  0  0
M  END
> <minimizedAffinity>
-9.07112

$$$$
