CHEMBL269891


 28 31  0  0  0  0  0  0  0  0999 V2000
  -14.6875   -0.8451  -13.4705 C   0  0  0  0  0  0  0  0  0  0  0  0
  -13.5022   -0.4539  -14.1152 C   0  0  0  0  0  0  0  0  0  0  0  0
  -12.4004   -1.3014  -14.1269 C   0  0  0  0  0  0  0  0  0  0  0  0
  -12.4756   -2.5479  -13.5081 C   0  0  0  0  0  0  0  0  0  0  0  0
  -13.6457   -2.9676  -12.8547 C   0  0  0  0  0  0  0  0  0  0  0  0
  -13.7036   -4.2404  -12.2529 C   0  0  0  0  0  0  0  0  0  0  0  0
  -14.8536   -4.6703  -11.5903 C   0  0  0  0  0  0  0  0  0  0  0  0
  -15.9279   -3.7971  -11.4546 C   0  0  0  0  0  0  0  0  0  0  0  0
  -15.9060   -2.5592  -12.0954 C   0  0  0  0  0  0  0  0  0  0  0  0
  -14.7700   -2.1081  -12.8071 C   0  0  0  0  0  0  0  0  0  0  0  0
  -16.1659    0.6390  -12.4172 O   0  0  0  0  0  0  0  0  0  0  0  0
  -15.8330    0.1134  -13.4718 C   0  0  0  0  0  0  0  0  0  0  0  0
  -16.4456    0.2942  -14.7044 N   0  0  0  0  0  0  0  0  0  0  0  0
  -16.1152   -0.2747  -15.4734 H   0  0  0  0  0  0  0  0  0  0  0  0
  -17.5946    1.0756  -14.9610 C   0  0  0  0  0  0  0  0  0  0  0  0
  -17.5657    2.4627  -15.1330 C   0  0  0  0  0  0  0  0  0  0  0  0
  -18.7503    3.1875  -15.2954 C   0  0  0  0  0  0  0  0  0  0  0  0
  -19.9723    2.5247  -15.3015 C   0  0  0  0  0  0  0  0  0  0  0  0
  -21.4307    3.4228  -15.4467 Cl  0  0  0  0  0  0  0  0  0  0  0  0
  -20.0174    1.1388  -15.1756 C   0  0  0  0  0  0  0  0  0  0  0  0
  -18.8311    0.4163  -15.0146 C   0  0  0  0  0  0  0  0  0  0  0  0
  -14.8356   -5.9502  -11.0760 O   0  0  0  0  0  0  0  0  0  0  0  0
  -14.2876   -6.9611  -11.8387 C   0  0  0  0  0  0  0  0  0  0  0  0
  -13.1698   -7.6995  -11.4528 C   0  0  0  0  0  0  0  0  0  0  0  0
  -12.6586   -8.6214  -12.3471 C   0  0  0  0  0  0  0  0  0  0  0  0
  -13.2217   -8.8966  -13.5419 N   0  0  0  0  0  0  0  0  0  0  0  0
  -14.3504   -8.2217  -13.8528 C   0  0  0  0  0  0  0  0  0  0  0  0
  -14.9188   -7.2540  -13.0422 C   0  0  0  0  0  0  0  0  0  0  0  0
 11 12  2  0  0  0
 12 13  1  0  0  0
 12  1  1  0  0  0
 13 15  1  0  0  0
 13 14  1  0  0  0
 15 16  1  0  0  0
 15 21  2  0  0  0
 16 17  2  0  0  0
 17 18  1  0  0  0
 18 19  1  0  0  0
 18 20  2  0  0  0
 20 21  1  0  0  0
  1  2  1  0  0  0
  1 10  2  0  0  0
  2  3  2  0  0  0
  3  4  1  0  0  0
  4  5  2  0  0  0
  5  6  1  0  0  0
  5 10  1  0  0  0
  6  7  2  0  0  0
  7 22  1  0  0  0
  7  8  1  0  0  0
 22 23  1  0  0  0
 23 24  1  0  0  0
 23 28  2  0  0  0
 24 25  2  0  0  0
 25 26  1  0  0  0
 26 27  2  0  0  0
 27 28  1  0  0  0
  8  9  2  0  0  0
  9 10  1  0  0  0
M  END
> <minimizedAffinity>
-8.74719

$$$$
