CHEMBL3690458


 40 44  0  0  0  0  0  0  0  0999 V2000
  -14.3816   -1.2333  -14.1656 C   0  0  0  0  0  0  0  0  0  0  0  0
  -13.4644   -2.3026  -14.5872 C   0  0  0  0  0  0  0  0  0  0  0  0
  -13.5648   -3.5351  -14.0557 C   0  0  0  0  0  0  0  0  0  0  0  0
  -14.5613   -3.8067  -13.1147 N   0  0  0  0  0  0  0  0  0  0  0  0
  -14.9116   -4.9709  -12.4374 C   0  0  0  0  0  0  0  0  0  0  0  0
  -15.9435   -4.5658  -11.5970 C   0  0  0  0  0  0  0  0  0  0  0  0
  -16.2549   -3.2484  -11.7442 N   0  0  0  0  0  0  0  0  0  0  0  0
  -15.4345   -2.8160  -12.6708 C   0  0  0  0  0  0  0  0  0  0  0  0
  -15.3288   -1.5211  -13.2419 C   0  0  0  0  0  0  0  0  0  0  0  0
  -14.0861    2.6806  -15.8203 C   0  0  0  0  0  0  0  0  0  0  0  0
  -15.3393    2.1094  -15.6385 C   0  0  0  0  0  0  0  0  0  0  0  0
  -15.4692    0.8424  -15.0802 C   0  0  0  0  0  0  0  0  0  0  0  0
  -14.3300    0.1386  -14.7318 C   0  0  0  0  0  0  0  0  0  0  0  0
  -13.1169    0.7107  -14.8879 N   0  0  0  0  0  0  0  0  0  0  0  0
  -12.9997    1.9943  -15.4200 N   0  0  0  0  0  0  0  0  0  0  0  0
  -15.0317    6.0621  -19.1060 O   0  0  0  0  0  0  0  0  0  0  0  0
  -14.5077    5.6759  -18.0611 C   0  0  0  0  0  0  0  0  0  0  0  0
  -15.0123    4.4262  -17.2920 C   0  0  0  0  0  0  0  0  0  0  0  0
  -14.0092    3.9659  -16.3199 N   0  0  0  0  0  0  0  0  0  0  0  0
  -13.4501    5.0223  -15.4783 C   0  0  0  0  0  0  0  0  0  0  0  0
  -12.6563    5.9319  -16.4176 C   0  0  0  0  0  0  0  0  0  0  0  0
  -13.4802    6.4170  -17.5120 N   0  0  0  0  0  0  0  0  0  0  0  0
  -13.1366    7.1614  -18.1058 H   0  0  0  0  0  0  0  0  0  0  0  0
  -14.3280   -6.3157  -12.5495 C   0  0  0  0  0  0  0  0  0  0  0  0
  -13.8123   -6.9096  -11.3846 C   0  0  0  0  0  0  0  0  0  0  0  0
  -13.3140   -8.2076  -11.3978 C   0  0  0  0  0  0  0  0  0  0  0  0
  -13.3398   -8.9435  -12.5754 C   0  0  0  0  0  0  0  0  0  0  0  0
  -13.8887   -8.4051  -13.7422 C   0  0  0  0  0  0  0  0  0  0  0  0
  -14.3529   -7.0780  -13.7316 C   0  0  0  0  0  0  0  0  0  0  0  0
  -14.0040   -9.1650  -14.9307 N   0  0  0  0  0  0  0  0  0  0  0  0
  -13.1246   -9.0881  -15.9864 C   0  0  0  0  0  0  0  0  0  0  0  0
  -12.0897   -8.4358  -16.0313 O   0  0  0  0  0  0  0  0  0  0  0  0
  -13.5301   -9.8131  -17.0795 N   0  0  0  0  0  0  0  0  0  0  0  0
  -14.6297   -9.9538  -14.9163 H   0  0  0  0  0  0  0  0  0  0  0  0
  -14.1692  -10.5786  -16.9428 H   0  0  0  0  0  0  0  0  0  0  0  0
  -12.6276   -9.8743  -18.2446 C   0  0  0  0  0  0  0  0  0  0  0  0
  -13.0967   -9.1213  -19.4999 C   0  0  0  0  0  0  0  0  0  0  0  0
  -13.4551   -7.8457  -19.2255 F   0  0  0  0  0  0  0  0  0  0  0  0
  -12.0833   -9.0556  -20.4010 F   0  0  0  0  0  0  0  0  0  0  0  0
  -14.1340   -9.7301  -20.1104 F   0  0  0  0  0  0  0  0  0  0  0  0
 16 17  2  0  0  0
 17 18  1  0  0  0
 17 22  1  0  0  0
 18 19  1  0  0  0
 19 10  1  0  0  0
 19 20  1  0  0  0
 10 11  1  0  0  0
 10 15  2  0  0  0
 11 12  2  0  0  0
 12 13  1  0  0  0
 13  1  1  0  0  0
 13 14  2  0  0  0
  1  2  1  0  0  0
  1  9  2  0  0  0
  2  3  2  0  0  0
  3  4  1  0  0  0
  4  5  1  0  0  0
  4  8  1  0  0  0
  5 24  1  0  0  0
  5  6  2  0  0  0
 24 25  1  0  0  0
 24 29  2  0  0  0
 25 26  2  0  0  0
 26 27  1  0  0  0
 27 28  2  0  0  0
 28 30  1  0  0  0
 28 29  1  0  0  0
 30 31  1  0  0  0
 30 34  1  0  0  0
 31 32  2  0  0  0
 31 33  1  0  0  0
 33 36  1  0  0  0
 33 35  1  0  0  0
 36 37  1  0  0  0
 37 38  1  0  0  0
 37 39  1  0  0  0
 37 40  1  0  0  0
  6  7  1  0  0  0
  7  8  2  0  0  0
  8  9  1  0  0  0
 14 15  1  0  0  0
 20 21  1  0  0  0
 21 22  1  0  0  0
 22 23  1  0  0  0
M  END
> <minimizedAffinity>
-7.72697

$$$$
