CHEMBL4173370


 44 49  0  0  0  0  0  0  0  0999 V2000
  -19.6011    2.3964  -14.8274 C   0  0  0  0  0  0  0  0  0  0  0  0
  -18.9096    3.1224  -15.8262 C   0  0  0  0  0  0  0  0  0  0  0  0
  -17.5124    2.9982  -15.9918 C   0  0  0  0  0  0  0  0  0  0  0  0
  -16.8153    2.1599  -15.1390 C   0  0  0  0  0  0  0  0  0  0  0  0
  -17.5369    1.4367  -14.1761 C   0  0  0  0  0  0  0  0  0  0  0  0
  -18.9007    1.5180  -14.0031 C   0  0  0  0  0  0  0  0  0  0  0  0
  -16.6959    0.7040  -13.3599 N   0  0  0  0  0  0  0  0  0  0  0  0
  -15.3791    0.9848  -13.6409 C   0  0  0  0  0  0  0  0  0  0  0  0
  -14.4640    0.7529  -12.8773 O   0  0  0  0  0  0  0  0  0  0  0  0
  -15.3937    1.7810  -14.9334 C   0  0  0  0  0  0  0  0  0  0  0  0
  -14.2610    2.0001  -15.6460 C   0  0  0  0  0  0  0  0  0  0  0  0
  -16.9608    0.2243  -12.5142 H   0  0  0  0  0  0  0  0  0  0  0  0
  -14.2308    3.0784  -16.6678 C   0  0  0  0  0  0  0  0  0  0  0  0
  -14.4454    2.7416  -18.0144 C   0  0  0  0  0  0  0  0  0  0  0  0
  -14.4482    3.7263  -19.0058 C   0  0  0  0  0  0  0  0  0  0  0  0
  -14.2344    5.0592  -18.6627 C   0  0  0  0  0  0  0  0  0  0  0  0
  -14.0249    5.4084  -17.3281 C   0  0  0  0  0  0  0  0  0  0  0  0
  -14.0302    4.4238  -16.3312 C   0  0  0  0  0  0  0  0  0  0  0  0
  -21.0539    2.5482  -14.5458 C   0  0  0  0  0  0  0  0  0  0  0  0
  -21.5698    3.6229  -14.2751 O   0  0  0  0  0  0  0  0  0  0  0  0
  -22.6731    1.1569  -13.6292 C   0  0  0  0  0  0  0  0  0  0  0  0
  -21.7004    1.3643  -14.6558 O   0  0  0  0  0  0  0  0  0  0  0  0
  -13.0282    1.3588  -15.4899 N   0  0  0  0  0  0  0  0  0  0  0  0
  -12.3273    1.8525  -14.9485 H   0  0  0  0  0  0  0  0  0  0  0  0
  -12.6966    0.0369  -15.8841 C   0  0  0  0  0  0  0  0  0  0  0  0
  -12.7125   -0.3228  -17.2522 C   0  0  0  0  0  0  0  0  0  0  0  0
  -12.6772   -1.6546  -17.6598 C   0  0  0  0  0  0  0  0  0  0  0  0
  -12.6087   -2.6307  -16.6846 C   0  0  0  0  0  0  0  0  0  0  0  0
  -12.5078   -2.3079  -15.3293 C   0  0  0  0  0  0  0  0  0  0  0  0
  -12.5416   -0.9757  -14.9165 C   0  0  0  0  0  0  0  0  0  0  0  0
  -12.4185   -3.4995  -14.5743 N   0  0  0  0  0  0  0  0  0  0  0  0
  -12.2448   -3.6018  -13.2060 C   0  0  0  0  0  0  0  0  0  0  0  0
  -12.1459   -2.6427  -12.4356 O   0  0  0  0  0  0  0  0  0  0  0  0
  -12.6430   -4.6384  -15.4797 C   0  0  0  0  0  0  0  0  0  0  0  0
  -12.6241   -4.1052  -16.9091 C   0  0  0  0  0  0  0  0  0  0  0  0
  -12.1026   -5.0317  -12.6480 C   0  0  0  0  0  0  0  0  0  0  0  0
  -12.9971   -5.2972  -11.4938 N   0  0  0  0  0  0  0  0  0  0  0  0
  -13.0072   -6.7380  -11.1283 C   0  0  0  0  0  0  0  0  0  0  0  0
  -13.6425   -7.6424  -12.2128 C   0  0  0  0  0  0  0  0  0  0  0  0
  -13.6960   -9.0910  -11.7517 C   0  0  0  0  0  0  0  0  0  0  0  0
  -14.9848   -7.2127  -12.5217 O   0  0  0  0  0  0  0  0  0  0  0  0
  -15.0036   -5.8363  -12.9360 C   0  0  0  0  0  0  0  0  0  0  0  0
  -16.4361   -5.4360  -13.2587 C   0  0  0  0  0  0  0  0  0  0  0  0
  -14.3986   -4.9359  -11.8333 C   0  0  0  0  0  0  0  0  0  0  0  0
 21 22  1  0  0  0
 22 19  1  0  0  0
 19 20  2  0  0  0
 19  1  1  0  0  0
  1  2  1  0  0  0
  1  6  2  0  0  0
  2  3  2  0  0  0
  3  4  1  0  0  0
  4  5  2  0  0  0
  4 10  1  0  0  0
  5  6  1  0  0  0
  5  7  1  0  0  0
  7  8  1  0  0  0
  7 12  1  0  0  0
  8  9  2  0  0  0
  8 10  1  0  0  0
 10 11  2  0  0  0
 11 23  1  0  0  0
 11 13  1  0  0  0
 23 25  1  0  0  0
 23 24  1  0  0  0
 25 26  1  0  0  0
 25 30  2  0  0  0
 26 27  2  0  0  0
 27 28  1  0  0  0
 28 29  2  0  0  0
 28 35  1  0  0  0
 29 30  1  0  0  0
 29 31  1  0  0  0
 31 32  1  0  0  0
 31 34  1  0  0  0
 32 33  2  0  0  0
 32 36  1  0  0  0
 36 37  1  0  0  0
 37 38  1  0  0  0
 37 44  1  0  0  0
 38 39  1  0  0  0
 39 40  1  0  0  0
 39 41  1  0  0  0
 41 42  1  0  0  0
 42 43  1  0  0  0
 42 44  1  0  0  0
 34 35  1  0  0  0
 13 14  1  0  0  0
 13 18  2  0  0  0
 14 15  2  0  0  0
 15 16  1  0  0  0
 16 17  2  0  0  0
 17 18  1  0  0  0
M  END
> <minimizedAffinity>
-9.01404

$$$$
