CHEMBL379975


 29 33  0  0  0  0  0  0  0  0999 V2000
  -29.7747   -7.9759   -3.4607 O   0  0  0  0  0  0  0  0  0  0  0  0
  -29.3909   -6.9118   -3.9316 C   0  0  0  0  0  0  0  0  0  0  0  0
  -29.0714   -5.8563   -3.1252 N   0  0  0  0  0  0  0  0  0  0  0  0
  -28.7653   -4.6834   -3.7513 C   0  0  0  0  0  0  0  0  0  0  0  0
  -28.5309   -3.6576   -3.1265 O   0  0  0  0  0  0  0  0  0  0  0  0
  -28.8114   -5.0342   -5.1261 C   0  0  0  0  0  0  0  0  0  0  0  0
  -29.1610   -6.4211   -5.2758 C   0  0  0  0  0  0  0  0  0  0  0  0
  -29.2507   -7.1114   -6.5112 C   0  0  0  0  0  0  0  0  0  0  0  0
  -28.9542   -6.3380   -7.6564 C   0  0  0  0  0  0  0  0  0  0  0  0
  -28.6966   -4.9752   -7.5206 C   0  0  0  0  0  0  0  0  0  0  0  0
  -28.4820   -3.9856   -8.4521 N   0  0  0  0  0  0  0  0  0  0  0  0
  -28.2413   -2.7675   -7.8352 C   0  0  0  0  0  0  0  0  0  0  0  0
  -27.9681   -1.5238   -8.4213 C   0  0  0  0  0  0  0  0  0  0  0  0
  -27.7405   -0.4368   -7.5760 C   0  0  0  0  0  0  0  0  0  0  0  0
  -27.7994   -0.6008   -6.1990 C   0  0  0  0  0  0  0  0  0  0  0  0
  -27.5731    0.4515   -5.3571 O   0  0  0  0  0  0  0  0  0  0  0  0
  -28.0868   -1.8388   -5.6171 C   0  0  0  0  0  0  0  0  0  0  0  0
  -28.3120   -2.9578   -6.4437 C   0  0  0  0  0  0  0  0  0  0  0  0
  -28.6103   -4.3191   -6.3281 C   0  0  0  0  0  0  0  0  0  0  0  0
  -29.1386   -5.9160   -2.1231 H   0  0  0  0  0  0  0  0  0  0  0  0
  -28.5092   -4.1209   -9.4522 H   0  0  0  0  0  0  0  0  0  0  0  0
  -27.3909    1.2429   -5.8886 H   0  0  0  0  0  0  0  0  0  0  0  0
  -29.6220   -8.5496   -6.6096 C   0  0  0  0  0  0  0  0  0  0  0  0
  -28.6410   -9.5524   -6.4599 C   0  0  0  0  0  0  0  0  0  0  0  0
  -28.9531  -10.9182   -6.4525 C   0  0  0  0  0  0  0  0  0  0  0  0
  -30.2517  -11.3380   -6.6944 C   0  0  0  0  0  0  0  0  0  0  0  0
  -31.2352  -10.3881   -6.9393 C   0  0  0  0  0  0  0  0  0  0  0  0
  -30.9363   -9.0152   -6.8767 C   0  0  0  0  0  0  0  0  0  0  0  0
  -32.3002   -7.9656   -7.1112 Cl  0  0  0  0  0  0  0  0  0  0  0  0
  1  2  2  0  0  0
  2  3  1  0  0  0
  2  7  1  0  0  0
  3  4  1  0  0  0
  3 20  1  0  0  0
  4  5  2  0  0  0
  4  6  1  0  0  0
  6  7  1  0  0  0
  6 19  2  0  0  0
  7  8  2  0  0  0
  8 23  1  0  0  0
  8  9  1  0  0  0
 23 24  1  0  0  0
 23 28  2  0  0  0
 24 25  2  0  0  0
 25 26  1  0  0  0
 26 27  2  0  0  0
 27 28  1  0  0  0
 28 29  1  0  0  0
  9 10  2  0  0  0
 10 11  1  0  0  0
 10 19  1  0  0  0
 11 12  1  0  0  0
 11 21  1  0  0  0
 12 13  1  0  0  0
 12 18  2  0  0  0
 13 14  2  0  0  0
 14 15  1  0  0  0
 15 16  1  0  0  0
 15 17  2  0  0  0
 16 22  1  0  0  0
 17 18  1  0  0  0
 18 19  1  0  0  0
M  END
> <minimizedAffinity>
-9.89050

$$$$
