CHEMBL365866


 38 41  0  0  0  0  0  0  0  0999 V2000
  -28.9756   -3.2728   -9.0720 C   0  0  0  0  0  0  0  0  0  0  0  0
  -27.9996   -2.2057   -8.8248 N   0  0  0  0  0  0  0  0  0  0  0  0
  -27.1934   -1.7802   -9.8912 C   0  0  0  0  0  0  0  0  0  0  0  0
  -27.7493   -1.3221  -11.0850 C   0  0  0  0  0  0  0  0  0  0  0  0
  -26.9449   -0.8915  -12.1427 C   0  0  0  0  0  0  0  0  0  0  0  0
  -25.5539   -0.9048  -12.0496 C   0  0  0  0  0  0  0  0  0  0  0  0
  -24.9772   -1.3510  -10.8576 C   0  0  0  0  0  0  0  0  0  0  0  0
  -25.7900   -1.7842   -9.7975 C   0  0  0  0  0  0  0  0  0  0  0  0
  -24.7021   -0.5148  -13.1099 N   0  0  0  0  0  0  0  0  0  0  0  0
  -23.4403    0.0138  -12.9652 C   0  0  0  0  0  0  0  0  0  0  0  0
  -22.8274    0.1509  -11.9120 O   0  0  0  0  0  0  0  0  0  0  0  0
  -22.9027    0.4559  -14.1586 N   0  0  0  0  0  0  0  0  0  0  0  0
  -25.0751   -0.5601  -14.0425 H   0  0  0  0  0  0  0  0  0  0  0  0
  -23.1738   -0.0336  -14.9996 H   0  0  0  0  0  0  0  0  0  0  0  0
  -21.5856    1.0552  -14.1104 C   0  0  0  0  0  0  0  0  0  0  0  0
  -21.5646    2.5529  -14.3684 C   0  0  0  0  0  0  0  0  0  0  0  0
  -20.0992    2.8431  -14.6966 C   0  0  0  0  0  0  0  0  0  0  0  0
  -19.4801    1.5100  -15.1285 C   0  0  0  0  0  0  0  0  0  0  0  0
  -20.6326    0.5157  -15.1722 C   0  0  0  0  0  0  0  0  0  0  0  0
  -28.0642   -1.6665   -7.5200 C   0  0  0  0  0  0  0  0  0  0  0  0
  -27.8534   -0.3213   -7.2970 C   0  0  0  0  0  0  0  0  0  0  0  0
  -27.9345    0.1153   -5.9979 C   0  0  0  0  0  0  0  0  0  0  0  0
  -28.1865   -0.6930   -4.9566 N   0  0  0  0  0  0  0  0  0  0  0  0
  -28.3775   -1.9848   -5.2461 C   0  0  0  0  0  0  0  0  0  0  0  0
  -28.3551   -2.4826   -6.4918 N   0  0  0  0  0  0  0  0  0  0  0  0
  -28.6026   -2.8426   -4.1643 N   0  0  0  0  0  0  0  0  0  0  0  0
  -27.6975   -3.1387   -3.8226 H   0  0  0  0  0  0  0  0  0  0  0  0
  -29.5944   -3.8392   -4.0895 C   0  0  0  0  0  0  0  0  0  0  0  0
  -30.8265   -3.6263   -3.4623 C   0  0  0  0  0  0  0  0  0  0  0  0
  -31.7708   -4.6467   -3.3772 C   0  0  0  0  0  0  0  0  0  0  0  0
  -31.4982   -5.8958   -3.9287 C   0  0  0  0  0  0  0  0  0  0  0  0
  -30.2953   -6.1285   -4.6084 C   0  0  0  0  0  0  0  0  0  0  0  0
  -29.3543   -5.0849   -4.6867 C   0  0  0  0  0  0  0  0  0  0  0  0
  -29.9529   -7.4914   -5.1502 C   0  0  0  0  0  0  0  0  0  0  0  0
  -30.4536   -7.7050   -6.8575 S   0  0  0  0  0  0  0  0  0  0  0  0
  -29.8477   -9.3114   -7.3131 C   0  0  0  0  0  0  0  0  0  0  0  0
  -31.9052   -7.7924   -6.8611 O   0  0  0  0  0  0  0  0  0  0  0  0
  -29.7950   -6.7207   -7.6932 O   0  0  0  0  0  0  0  0  0  0  0  0
  1  2  1  0  0  0
  2  3  1  0  0  0
  2 20  1  0  0  0
  3  4  1  0  0  0
  3  8  2  0  0  0
  4  5  2  0  0  0
  5  6  1  0  0  0
  6  9  1  0  0  0
  6  7  2  0  0  0
  9 10  1  0  0  0
  9 13  1  0  0  0
 10 11  2  0  0  0
 10 12  1  0  0  0
 12 15  1  0  0  0
 12 14  1  0  0  0
 15 16  1  0  0  0
 15 19  1  0  0  0
 16 17  1  0  0  0
 17 18  1  0  0  0
 18 19  1  0  0  0
  7  8  1  0  0  0
 20 21  1  0  0  0
 20 25  2  0  0  0
 21 22  2  0  0  0
 22 23  1  0  0  0
 23 24  2  0  0  0
 24 26  1  0  0  0
 24 25  1  0  0  0
 26 28  1  0  0  0
 26 27  1  0  0  0
 28 29  1  0  0  0
 28 33  2  0  0  0
 29 30  2  0  0  0
 30 31  1  0  0  0
 31 32  2  0  0  0
 32 34  1  0  0  0
 32 33  1  0  0  0
 34 35  1  0  0  0
 35 36  1  0  0  0
 35 37  2  0  0  0
 35 38  2  0  0  0
M  END
> <minimizedAffinity>
-9.12883

$$$$
