CHEMBL209919


 41 46  0  0  0  0  0  0  0  0999 V2000
  -15.0421    3.1598  -16.6431 C   0  0  0  0  0  0  0  0  0  0  0  0
  -14.7811    3.1916  -17.9668 N   0  0  0  0  0  0  0  0  0  0  0  0
  -13.5163    2.7324  -18.0133 N   0  0  0  0  0  0  0  0  0  0  0  0
  -13.0469    2.4263  -16.7728 C   0  0  0  0  0  0  0  0  0  0  0  0
  -13.8069    3.2112  -15.9050 C   0  0  0  0  0  0  0  0  0  0  0  0
  -13.4191    2.9340  -14.4708 C   0  0  0  0  0  0  0  0  0  0  0  0
  -13.0342    1.4656  -14.6785 C   0  0  0  0  0  0  0  0  0  0  0  0
  -13.0919    0.4740  -13.7053 C   0  0  0  0  0  0  0  0  0  0  0  0
  -13.2016   -0.8666  -14.1084 C   0  0  0  0  0  0  0  0  0  0  0  0
  -13.3038   -1.1401  -15.4959 C   0  0  0  0  0  0  0  0  0  0  0  0
  -13.1280   -0.1378  -16.4751 C   0  0  0  0  0  0  0  0  0  0  0  0
  -12.8920    1.1563  -16.0545 C   0  0  0  0  0  0  0  0  0  0  0  0
  -12.9928    2.8335  -18.8772 H   0  0  0  0  0  0  0  0  0  0  0  0
  -18.4685    2.0371  -15.0430 C   0  0  0  0  0  0  0  0  0  0  0  0
  -17.6276    0.9461  -15.0499 C   0  0  0  0  0  0  0  0  0  0  0  0
  -16.4103    1.2262  -15.7305 C   0  0  0  0  0  0  0  0  0  0  0  0
  -16.3393    2.5375  -16.1713 C   0  0  0  0  0  0  0  0  0  0  0  0
  -17.7921    3.3689  -15.8676 S   0  0  0  0  0  0  0  0  0  0  0  0
  -19.7885    2.1599  -14.3802 C   0  0  0  0  0  0  0  0  0  0  0  0
  -22.1980   -0.4303  -13.6974 N   0  0  0  0  0  0  0  0  0  0  0  0
  -21.7188    0.8228  -13.9458 C   0  0  0  0  0  0  0  0  0  0  0  0
  -22.3634    1.8659  -14.0145 O   0  0  0  0  0  0  0  0  0  0  0  0
  -20.3556    0.8475  -14.1768 N   0  0  0  0  0  0  0  0  0  0  0  0
  -21.5729   -1.2118  -13.8139 H   0  0  0  0  0  0  0  0  0  0  0  0
  -19.7969    0.1765  -13.6683 H   0  0  0  0  0  0  0  0  0  0  0  0
  -26.7842   -1.3914  -15.3141 C   0  0  0  0  0  0  0  0  0  0  0  0
  -25.8127   -1.2167  -14.1829 C   0  0  0  0  0  0  0  0  0  0  0  0
  -26.2389   -1.3921  -12.8609 C   0  0  0  0  0  0  0  0  0  0  0  0
  -25.3397   -1.2446  -11.8075 C   0  0  0  0  0  0  0  0  0  0  0  0
  -25.7449   -1.4184  -10.3707 C   0  0  0  0  0  0  0  0  0  0  0  0
  -24.0066   -0.9296  -12.0900 C   0  0  0  0  0  0  0  0  0  0  0  0
  -23.5430   -0.7386  -13.4009 C   0  0  0  0  0  0  0  0  0  0  0  0
  -24.4692   -0.8865  -14.4442 C   0  0  0  0  0  0  0  0  0  0  0  0
  -13.4203   -1.9545  -13.0680 C   0  0  0  0  0  0  0  0  0  0  0  0
  -14.7114   -2.0948  -12.3975 N   0  0  0  0  0  0  0  0  0  0  0  0
  -14.7989   -3.0164  -11.2639 C   0  0  0  0  0  0  0  0  0  0  0  0
  -15.1348   -4.4813  -11.6228 C   0  0  0  0  0  0  0  0  0  0  0  0
  -16.2349   -4.6673  -12.5864 N   0  0  0  0  0  0  0  0  0  0  0  0
  -16.1840   -6.0181  -13.1553 C   0  0  0  0  0  0  0  0  0  0  0  0
  -16.2412   -3.6694  -13.6703 C   0  0  0  0  0  0  0  0  0  0  0  0
  -15.8994   -2.2291  -13.2425 C   0  0  0  0  0  0  0  0  0  0  0  0
 26 27  1  0  0  0
 27 28  1  0  0  0
 27 33  2  0  0  0
 28 29  2  0  0  0
 29 30  1  0  0  0
 29 31  1  0  0  0
 31 32  2  0  0  0
 32 20  1  0  0  0
 32 33  1  0  0  0
 20 21  1  0  0  0
 20 24  1  0  0  0
 21 22  2  0  0  0
 21 23  1  0  0  0
 23 19  1  0  0  0
 23 25  1  0  0  0
 19 14  1  0  0  0
 14 15  2  0  0  0
 14 18  1  0  0  0
 15 16  1  0  0  0
 16 17  2  0  0  0
 17  1  1  0  0  0
 17 18  1  0  0  0
  1  2  2  0  0  0
  1  5  1  0  0  0
  2  3  1  0  0  0
  3  4  1  0  0  0
  3 13  1  0  0  0
  4  5  2  0  0  0
  4 12  1  0  0  0
  5  6  1  0  0  0
  6  7  1  0  0  0
  7  8  1  0  0  0
  7 12  2  0  0  0
  8  9  2  0  0  0
  9 34  1  0  0  0
  9 10  1  0  0  0
 34 35  1  0  0  0
 35 36  1  0  0  0
 35 41  1  0  0  0
 36 37  1  0  0  0
 37 38  1  0  0  0
 38 39  1  0  0  0
 38 40  1  0  0  0
 40 41  1  0  0  0
 10 11  2  0  0  0
 11 12  1  0  0  0
M  END
> <minimizedAffinity>
-8.94027

$$$$
