CHEMBL3753142


 27 29  0  0  0  0  0  0  0  0999 V2000
  -30.5942   -6.8369   -6.7451 C   0  0  0  0  0  0  0  0  0  0  0  0
  -29.8593   -5.7569   -7.2405 C   0  0  0  0  0  0  0  0  0  0  0  0
  -29.6577   -4.5779   -6.4992 C   0  0  0  0  0  0  0  0  0  0  0  0
  -30.2247   -4.5261   -5.2142 C   0  0  0  0  0  0  0  0  0  0  0  0
  -31.0103   -5.5768   -4.7081 C   0  0  0  0  0  0  0  0  0  0  0  0
  -31.1965   -6.7270   -5.4906 C   0  0  0  0  0  0  0  0  0  0  0  0
  -33.0799   -8.3128   -7.3548 O   0  0  0  0  0  0  0  0  0  0  0  0
  -31.9598   -8.6957   -7.6948 C   0  0  0  0  0  0  0  0  0  0  0  0
  -30.7818   -8.0292   -7.4685 N   0  0  0  0  0  0  0  0  0  0  0  0
  -31.8778   -9.8863   -8.3586 N   0  0  0  0  0  0  0  0  0  0  0  0
  -29.9725   -8.4098   -7.9554 H   0  0  0  0  0  0  0  0  0  0  0  0
  -32.7526  -10.3740   -8.4883 H   0  0  0  0  0  0  0  0  0  0  0  0
  -30.7368  -10.4715   -8.8106 C   0  0  0  0  0  0  0  0  0  0  0  0
  -29.8177   -9.9456   -9.5854 N   0  0  0  0  0  0  0  0  0  0  0  0
  -28.8182  -10.8791   -9.7831 C   0  0  0  0  0  0  0  0  0  0  0  0
  -28.9995  -12.0895   -9.1460 C   0  0  0  0  0  0  0  0  0  0  0  0
  -30.4894  -12.0746   -8.2931 S   0  0  0  0  0  0  0  0  0  0  0  0
  -28.9156   -3.4353   -7.0795 C   0  0  0  0  0  0  0  0  0  0  0  0
  -28.4435   -3.4370   -8.4021 C   0  0  0  0  0  0  0  0  0  0  0  0
  -27.8122   -2.3161   -8.9392 C   0  0  0  0  0  0  0  0  0  0  0  0
  -27.6409   -1.2095   -8.1297 C   0  0  0  0  0  0  0  0  0  0  0  0
  -28.0529   -1.1544   -6.8486 N   0  0  0  0  0  0  0  0  0  0  0  0
  -28.6796   -2.2564   -6.3650 C   0  0  0  0  0  0  0  0  0  0  0  0
  -31.6541   -5.4737   -3.3472 C   0  0  0  0  0  0  0  0  0  0  0  0
  -31.2689   -6.4564   -2.4859 F   0  0  0  0  0  0  0  0  0  0  0  0
  -31.3615   -4.2987   -2.7235 F   0  0  0  0  0  0  0  0  0  0  0  0
  -33.0123   -5.5387   -3.4048 F   0  0  0  0  0  0  0  0  0  0  0  0
  7  8  2  0  0  0
  8  9  1  0  0  0
  8 10  1  0  0  0
  9  1  1  0  0  0
  9 11  1  0  0  0
  1  2  1  0  0  0
  1  6  2  0  0  0
  2  3  2  0  0  0
  3 18  1  0  0  0
  3  4  1  0  0  0
 18 19  1  0  0  0
 18 23  2  0  0  0
 19 20  2  0  0  0
 20 21  1  0  0  0
 21 22  2  0  0  0
 22 23  1  0  0  0
  4  5  2  0  0  0
  5 24  1  0  0  0
  5  6  1  0  0  0
 24 25  1  0  0  0
 24 26  1  0  0  0
 24 27  1  0  0  0
 10 13  1  0  0  0
 10 12  1  0  0  0
 13 14  2  0  0  0
 13 17  1  0  0  0
 14 15  1  0  0  0
 15 16  2  0  0  0
 16 17  1  0  0  0
M  END
> <minimizedAffinity>
-8.18619

$$$$
