CHEMBL4208454


 48 53  0  0  0  0  0  0  0  0999 V2000
  -22.2313    1.1559  -13.8866 C   0  0  0  0  0  0  0  0  0  0  0  0
  -21.9988    2.5189  -14.0867 C   0  0  0  0  0  0  0  0  0  0  0  0
  -20.8109    2.9229  -14.7087 C   0  0  0  0  0  0  0  0  0  0  0  0
  -19.9247    1.9698  -15.2266 C   0  0  0  0  0  0  0  0  0  0  0  0
  -20.2267    0.6123  -15.1484 C   0  0  0  0  0  0  0  0  0  0  0  0
  -21.3800    0.2151  -14.4772 C   0  0  0  0  0  0  0  0  0  0  0  0
  -21.5874   -1.0944  -14.2692 F   0  0  0  0  0  0  0  0  0  0  0  0
  -18.6762    2.4088  -15.6868 N   0  0  0  0  0  0  0  0  0  0  0  0
  -17.4745    2.1755  -15.0260 C   0  0  0  0  0  0  0  0  0  0  0  0
  -17.3241    1.5202  -14.0110 O   0  0  0  0  0  0  0  0  0  0  0  0
  -18.6253    2.8263  -16.6082 H   0  0  0  0  0  0  0  0  0  0  0  0
  -16.3028    2.8051  -15.6830 C   0  0  0  0  0  0  0  0  0  0  0  0
  -16.6977    4.2725  -15.9499 C   0  0  0  0  0  0  0  0  0  0  0  0
  -16.0971    3.5671  -17.0569 C   0  0  0  0  0  0  0  0  0  0  0  0
  -15.1881    1.8008  -15.8110 C   0  0  0  0  0  0  0  0  0  0  0  0
  -15.0723    1.1299  -16.8166 O   0  0  0  0  0  0  0  0  0  0  0  0
  -14.4546    1.7867  -14.6310 N   0  0  0  0  0  0  0  0  0  0  0  0
  -14.7281    2.4886  -13.9422 H   0  0  0  0  0  0  0  0  0  0  0  0
  -13.4604    0.9005  -14.2041 C   0  0  0  0  0  0  0  0  0  0  0  0
  -12.1149    1.2372  -14.1131 C   0  0  0  0  0  0  0  0  0  0  0  0
  -11.1794    0.2656  -13.7364 C   0  0  0  0  0  0  0  0  0  0  0  0
  -11.5966   -1.0277  -13.4426 C   0  0  0  0  0  0  0  0  0  0  0  0
  -10.6965   -1.9557  -13.0908 F   0  0  0  0  0  0  0  0  0  0  0  0
  -12.9407   -1.3697  -13.5055 C   0  0  0  0  0  0  0  0  0  0  0  0
  -13.8729   -0.4075  -13.8894 C   0  0  0  0  0  0  0  0  0  0  0  0
  -23.2107    0.6555  -13.0679 O   0  0  0  0  0  0  0  0  0  0  0  0
  -24.9453   -0.5479  -10.3404 C   0  0  0  0  0  0  0  0  0  0  0  0
  -25.7133   -0.9686  -11.5486 C   0  0  0  0  0  0  0  0  0  0  0  0
  -26.9569   -1.5918  -11.4490 C   0  0  0  0  0  0  0  0  0  0  0  0
  -27.5686   -2.0217  -12.9807 S   0  0  0  0  0  0  0  0  0  0  0  0
  -26.2156   -1.3803  -13.7829 C   0  0  0  0  0  0  0  0  0  0  0  0
  -26.1280   -1.5056  -15.1221 N   0  0  0  0  0  0  0  0  0  0  0  0
  -25.0376   -0.9358  -15.6284 C   0  0  0  0  0  0  0  0  0  0  0  0
  -24.1187   -0.2318  -14.9615 N   0  0  0  0  0  0  0  0  0  0  0  0
  -24.2442   -0.0968  -13.6176 C   0  0  0  0  0  0  0  0  0  0  0  0
  -25.3034   -0.7474  -12.9415 C   0  0  0  0  0  0  0  0  0  0  0  0
  -27.6759   -1.9316  -10.2202 C   0  0  0  0  0  0  0  0  0  0  0  0
  -28.6407   -1.2906   -9.8069 O   0  0  0  0  0  0  0  0  0  0  0  0
  -27.2622   -3.0537   -9.5373 N   0  0  0  0  0  0  0  0  0  0  0  0
  -26.6197   -3.6889   -9.9929 H   0  0  0  0  0  0  0  0  0  0  0  0
  -28.0126   -3.5290   -8.3836 C   0  0  0  0  0  0  0  0  0  0  0  0
  -27.8726   -2.6133   -7.1474 C   0  0  0  0  0  0  0  0  0  0  0  0
  -28.7307   -3.0321   -6.0292 N   0  0  0  0  0  0  0  0  0  0  0  0
  -29.2877   -4.3907   -6.1964 C   0  0  0  0  0  0  0  0  0  0  0  0
  -30.2620   -4.6844   -5.0442 C   0  0  0  0  0  0  0  0  0  0  0  0
  -29.6141   -4.5858   -3.7681 O   0  0  0  0  0  0  0  0  0  0  0  0
  -29.0064   -3.2954   -3.6079 C   0  0  0  0  0  0  0  0  0  0  0  0
  -28.0068   -3.0095   -4.7399 C   0  0  0  0  0  0  0  0  0  0  0  0
 27 28  1  0  0  0
 28 29  2  0  0  0
 28 36  1  0  0  0
 29 37  1  0  0  0
 29 30  1  0  0  0
 37 38  2  0  0  0
 37 39  1  0  0  0
 39 41  1  0  0  0
 39 40  1  0  0  0
 41 42  1  0  0  0
 42 43  1  0  0  0
 43 44  1  0  0  0
 43 48  1  0  0  0
 44 45  1  0  0  0
 45 46  1  0  0  0
 46 47  1  0  0  0
 47 48  1  0  0  0
 30 31  1  0  0  0
 31 32  1  0  0  0
 31 36  2  0  0  0
 32 33  2  0  0  0
 33 34  1  0  0  0
 34 35  2  0  0  0
 35 26  1  0  0  0
 35 36  1  0  0  0
 26  1  1  0  0  0
  1  2  1  0  0  0
  1  6  2  0  0  0
  2  3  2  0  0  0
  3  4  1  0  0  0
  4  8  1  0  0  0
  4  5  2  0  0  0
  8  9  1  0  0  0
  8 11  1  0  0  0
  9 10  2  0  0  0
  9 12  1  0  0  0
 12 15  1  0  0  0
 12 13  1  0  0  0
 12 14  1  0  0  0
 15 16  2  0  0  0
 15 17  1  0  0  0
 17 19  1  0  0  0
 17 18  1  0  0  0
 19 20  1  0  0  0
 19 25  2  0  0  0
 20 21  2  0  0  0
 21 22  1  0  0  0
 22 23  1  0  0  0
 22 24  2  0  0  0
 24 25  1  0  0  0
 13 14  1  0  0  0
  5  6  1  0  0  0
  6  7  1  0  0  0
M  END
> <minimizedAffinity>
-8.77311

$$$$
