CHEMBL3919884


 35 39  0  0  0  0  0  0  0  0999 V2000
  -13.7562   -4.5155  -11.1628 N   0  0  0  0  0  0  0  0  0  0  0  0
  -14.1667   -3.2871  -11.8202 C   0  0  0  0  0  0  0  0  0  0  0  0
  -15.3370   -2.7116  -11.3711 C   0  0  0  0  0  0  0  0  0  0  0  0
  -15.7841   -1.6077  -12.0104 C   0  0  0  0  0  0  0  0  0  0  0  0
  -15.2267   -1.0942  -13.1686 C   0  0  0  0  0  0  0  0  0  0  0  0
  -16.2590   -0.8413  -13.8554 N   0  0  0  0  0  0  0  0  0  0  0  0
  -16.7597    0.3010  -13.6026 C   0  0  0  0  0  0  0  0  0  0  0  0
  -16.1931    1.1060  -14.4129 C   0  0  0  0  0  0  0  0  0  0  0  0
  -14.6338    0.4204  -14.5400 N   0  0  0  0  0  0  0  0  0  0  0  0
  -14.1030   -1.0865  -13.7464 C   0  0  0  0  0  0  0  0  0  0  0  0
  -13.5430   -2.5688  -13.0005 C   0  0  0  0  0  0  0  0  0  0  0  0
  -17.6144    2.3144  -14.4434 C   0  0  0  0  0  0  0  0  0  0  0  0
  -18.1950    3.4328  -15.4225 C   0  0  0  0  0  0  0  0  0  0  0  0
  -19.5345    3.7456  -15.4242 N   0  0  0  0  0  0  0  0  0  0  0  0
  -20.1237    2.8454  -14.6316 N   0  0  0  0  0  0  0  0  0  0  0  0
  -21.6311    2.8353  -14.4620 C   0  0  0  0  0  0  0  0  0  0  0  0
  -19.0623    1.9566  -14.1174 C   0  0  0  0  0  0  0  0  0  0  0  0
  -14.2429   -7.1978  -13.8546 C   0  0  0  0  0  0  0  0  0  0  0  0
  -13.4641   -8.1694  -13.3354 C   0  0  0  0  0  0  0  0  0  0  0  0
  -12.8556   -8.0137  -12.0966 C   0  0  0  0  0  0  0  0  0  0  0  0
  -13.0064   -6.8395  -11.3520 C   0  0  0  0  0  0  0  0  0  0  0  0
  -13.7103   -5.7691  -11.8544 C   0  0  0  0  0  0  0  0  0  0  0  0
  -14.3940   -6.1350  -13.0151 C   0  0  0  0  0  0  0  0  0  0  0  0
  -13.9900   -6.5775  -16.0929 C   0  0  0  0  0  0  0  0  0  0  0  0
  -14.8029   -7.1452  -15.0751 O   0  0  0  0  0  0  0  0  0  0  0  0
  -12.0449   -8.9657  -11.5515 O   0  0  0  0  0  0  0  0  0  0  0  0
  -11.9993  -10.1767  -12.2975 C   0  0  0  0  0  0  0  0  0  0  0  0
  -14.0100   -4.4778   -9.6633 C   0  0  0  0  0  0  0  0  0  0  0  0
  -12.7366   -4.3979   -8.8190 C   0  0  0  0  0  0  0  0  0  0  0  0
  -12.5146   -5.3598   -7.6878 C   0  0  0  0  0  0  0  0  0  0  0  0
  -11.2124   -5.1299   -7.1064 O   0  0  0  0  0  0  0  0  0  0  0  0
  -11.1252   -3.7867   -6.6040 C   0  0  0  0  0  0  0  0  0  0  0  0
  -11.2508   -2.7644   -7.7165 C   0  0  0  0  0  0  0  0  0  0  0  0
  -12.5539   -2.9611   -8.3754 N   0  0  0  0  0  0  0  0  0  0  0  0
  -12.6338   -2.3288   -9.1824 H   0  0  0  0  0  0  0  0  0  0  0  0
 24 25  1  0  0  0
 25 18  1  0  0  0
 18 19  1  0  0  0
 18 23  2  0  0  0
 19 20  2  0  0  0
 20 26  1  0  0  0
 20 21  1  0  0  0
 26 27  1  0  0  0
 21 22  2  0  0  0
 22  1  1  0  0  0
 22 23  1  0  0  0
  1 28  1  0  0  0
  1  2  1  0  0  0
 28 29  1  0  0  0
 29 30  1  0  0  0
 29 34  1  0  0  0
 30 31  1  0  0  0
 31 32  1  0  0  0
 32 33  1  0  0  0
 33 34  1  0  0  0
 34 35  1  0  0  0
  2  3  1  0  0  0
  2 11  2  0  0  0
  3  4  2  0  0  0
  4  5  1  0  0  0
  5  6  1  0  0  0
  5 10  2  0  0  0
  6  7  2  0  0  0
  7  8  1  0  0  0
  8 12  1  0  0  0
  8  9  2  0  0  0
 12 13  1  0  0  0
 12 17  2  0  0  0
 13 14  2  0  0  0
 14 15  1  0  0  0
 15 16  1  0  0  0
 15 17  1  0  0  0
  9 10  1  0  0  0
 10 11  1  0  0  0
M  END
> <minimizedAffinity>
-8.53434

$$$$
