CHEMBL1681935


 30 32  0  0  0  0  0  0  0  0999 V2000
  -29.1102   -7.6664   -6.3452 C   0  0  0  0  0  0  0  0  0  0  0  0
  -28.6914   -6.6645   -7.2167 C   0  0  0  0  0  0  0  0  0  0  0  0
  -29.0512   -5.3355   -6.9924 C   0  0  0  0  0  0  0  0  0  0  0  0
  -29.8580   -4.9708   -5.9099 C   0  0  0  0  0  0  0  0  0  0  0  0
  -30.3620   -5.9998   -5.0971 C   0  0  0  0  0  0  0  0  0  0  0  0
  -31.4290   -5.6434   -3.7785 Cl  0  0  0  0  0  0  0  0  0  0  0  0
  -29.9911   -7.3429   -5.3059 C   0  0  0  0  0  0  0  0  0  0  0  0
  -30.1656   -3.6043   -5.6474 N   0  0  0  0  0  0  0  0  0  0  0  0
  -29.2327   -2.6750   -5.2354 C   0  0  0  0  0  0  0  0  0  0  0  0
  -28.0639   -2.9291   -4.9460 O   0  0  0  0  0  0  0  0  0  0  0  0
  -29.7058   -1.3803   -5.1737 N   0  0  0  0  0  0  0  0  0  0  0  0
  -31.1418   -3.3839   -5.4928 H   0  0  0  0  0  0  0  0  0  0  0  0
  -30.6297   -1.1597   -5.5128 H   0  0  0  0  0  0  0  0  0  0  0  0
  -28.7792   -0.3187   -4.8973 C   0  0  0  0  0  0  0  0  0  0  0  0
  -29.1524    1.0850   -5.2909 C   0  0  0  0  0  0  0  0  0  0  0  0
  -27.9827    0.4054   -5.9392 C   0  0  0  0  0  0  0  0  0  0  0  0
  -28.7163   -8.9800   -6.5070 O   0  0  0  0  0  0  0  0  0  0  0  0
  -29.2334   -9.5141   -8.7935 C   0  0  0  0  0  0  0  0  0  0  0  0
  -28.7343   -9.9321  -10.0229 C   0  0  0  0  0  0  0  0  0  0  0  0
  -29.5246  -10.0474  -11.1633 N   0  0  0  0  0  0  0  0  0  0  0  0
  -27.4253  -10.1449  -10.2399 N   0  0  0  0  0  0  0  0  0  0  0  0
  -26.6063   -9.9647   -9.1995 C   0  0  0  0  0  0  0  0  0  0  0  0
  -26.9803   -9.6106   -7.9683 N   0  0  0  0  0  0  0  0  0  0  0  0
  -28.2980   -9.3606   -7.7855 C   0  0  0  0  0  0  0  0  0  0  0  0
  -30.4255  -10.4826  -10.9603 H   0  0  0  0  0  0  0  0  0  0  0  0
  -28.9965  -10.4938  -11.9054 H   0  0  0  0  0  0  0  0  0  0  0  0
  -31.5207  -10.2229   -8.4760 N   0  0  0  0  0  0  0  0  0  0  0  0
  -30.6648   -9.2520   -8.5755 C   0  0  0  0  0  0  0  0  0  0  0  0
  -32.7460   -8.6876   -7.3036 C   0  0  0  0  0  0  0  0  0  0  0  0
  -32.8093   -9.7004   -8.3035 O   0  0  0  0  0  0  0  0  0  0  0  0
 29 30  1  0  0  0
 30 27  1  0  0  0
 27 28  2  0  0  0
 28 18  1  0  0  0
 18 19  1  0  0  0
 18 24  2  0  0  0
 19 20  1  0  0  0
 19 21  2  0  0  0
 20 25  1  0  0  0
 20 26  1  0  0  0
 21 22  1  0  0  0
 22 23  2  0  0  0
 23 24  1  0  0  0
 24 17  1  0  0  0
 17  1  1  0  0  0
  1  2  1  0  0  0
  1  7  2  0  0  0
  2  3  2  0  0  0
  3  4  1  0  0  0
  4  8  1  0  0  0
  4  5  2  0  0  0
  8  9  1  0  0  0
  8 12  1  0  0  0
  9 10  2  0  0  0
  9 11  1  0  0  0
 11 14  1  0  0  0
 11 13  1  0  0  0
 14 15  1  0  0  0
 14 16  1  0  0  0
 15 16  1  0  0  0
  5  6  1  0  0  0
  5  7  1  0  0  0
M  END
> <minimizedAffinity>
-7.91178

$$$$
