CHEMBL3926547


 38 41  0  0  0  0  0  0  0  0999 V2000
  -26.9423   -1.6707  -13.8485 C   0  0  0  0  0  0  0  0  0  0  0  0
  -25.5874   -1.6214  -13.1967 C   0  0  0  0  0  0  0  0  0  0  0  0
  -24.5116   -1.1932  -14.0055 C   0  0  0  0  0  0  0  0  0  0  0  0
  -23.2297   -1.0065  -13.4860 C   0  0  0  0  0  0  0  0  0  0  0  0
  -22.9976   -1.2949  -12.1508 C   0  0  0  0  0  0  0  0  0  0  0  0
  -24.0454   -1.7551  -11.3457 C   0  0  0  0  0  0  0  0  0  0  0  0
  -25.3441   -1.9495  -11.8464 C   0  0  0  0  0  0  0  0  0  0  0  0
  -26.3837   -2.4882  -11.0320 N   0  0  0  0  0  0  0  0  0  0  0  0
  -26.8010   -1.9703   -9.8101 C   0  0  0  0  0  0  0  0  0  0  0  0
  -26.3644   -0.9526   -9.2822 O   0  0  0  0  0  0  0  0  0  0  0  0
  -27.7341   -2.7835   -9.1738 N   0  0  0  0  0  0  0  0  0  0  0  0
  -26.8141   -3.3456  -11.3441 H   0  0  0  0  0  0  0  0  0  0  0  0
  -27.6056   -3.7716   -9.3397 H   0  0  0  0  0  0  0  0  0  0  0  0
  -28.2258   -2.4290   -7.8873 C   0  0  0  0  0  0  0  0  0  0  0  0
  -28.6056   -3.4428   -7.0112 C   0  0  0  0  0  0  0  0  0  0  0  0
  -29.0002   -3.1170   -5.7167 C   0  0  0  0  0  0  0  0  0  0  0  0
  -29.2932   -4.0992   -4.8542 F   0  0  0  0  0  0  0  0  0  0  0  0
  -29.0823   -1.7950   -5.2926 C   0  0  0  0  0  0  0  0  0  0  0  0
  -28.7593   -0.7563   -6.1749 C   0  0  0  0  0  0  0  0  0  0  0  0
  -28.3140   -1.0879   -7.4699 C   0  0  0  0  0  0  0  0  0  0  0  0
  -28.9017    0.6855   -5.7344 C   0  0  0  0  0  0  0  0  0  0  0  0
  -30.3509    1.0919   -5.5201 C   0  0  0  0  0  0  0  0  0  0  0  0
  -28.2203    0.9450   -4.5798 F   0  0  0  0  0  0  0  0  0  0  0  0
  -28.3728    1.5474   -6.6564 F   0  0  0  0  0  0  0  0  0  0  0  0
  -22.1504   -0.6059  -14.2470 O   0  0  0  0  0  0  0  0  0  0  0  0
  -21.8907    0.7581  -14.3380 C   0  0  0  0  0  0  0  0  0  0  0  0
  -20.7581    1.1369  -15.0289 C   0  0  0  0  0  0  0  0  0  0  0  0
  -20.5302    2.4949  -15.1001 C   0  0  0  0  0  0  0  0  0  0  0  0
  -21.3740    3.3830  -14.5591 N   0  0  0  0  0  0  0  0  0  0  0  0
  -22.4297    2.9097  -13.8994 C   0  0  0  0  0  0  0  0  0  0  0  0
  -22.7290    1.6239  -13.7375 N   0  0  0  0  0  0  0  0  0  0  0  0
  -19.3786    2.9588  -15.7606 N   0  0  0  0  0  0  0  0  0  0  0  0
  -18.0975    2.8313  -15.2542 C   0  0  0  0  0  0  0  0  0  0  0  0
  -17.7651    2.3168  -14.1967 O   0  0  0  0  0  0  0  0  0  0  0  0
  -19.4947    3.3897  -16.6639 H   0  0  0  0  0  0  0  0  0  0  0  0
  -17.0473    3.4245  -16.1303 C   0  0  0  0  0  0  0  0  0  0  0  0
  -15.9066    2.5674  -16.6358 C   0  0  0  0  0  0  0  0  0  0  0  0
  -15.6504    3.6014  -15.5774 C   0  0  0  0  0  0  0  0  0  0  0  0
  1  2  1  0  0  0
  2  3  1  0  0  0
  2  7  2  0  0  0
  3  4  2  0  0  0
  4 25  1  0  0  0
  4  5  1  0  0  0
 25 26  1  0  0  0
 26 27  1  0  0  0
 26 31  2  0  0  0
 27 28  2  0  0  0
 28 32  1  0  0  0
 28 29  1  0  0  0
 32 33  1  0  0  0
 32 35  1  0  0  0
 33 34  2  0  0  0
 33 36  1  0  0  0
 36 37  1  0  0  0
 36 38  1  0  0  0
 37 38  1  0  0  0
 29 30  2  0  0  0
 30 31  1  0  0  0
  5  6  2  0  0  0
  6  7  1  0  0  0
  7  8  1  0  0  0
  8  9  1  0  0  0
  8 12  1  0  0  0
  9 10  2  0  0  0
  9 11  1  0  0  0
 11 14  1  0  0  0
 11 13  1  0  0  0
 14 15  1  0  0  0
 14 20  2  0  0  0
 15 16  2  0  0  0
 16 17  1  0  0  0
 16 18  1  0  0  0
 18 19  2  0  0  0
 19 21  1  0  0  0
 19 20  1  0  0  0
 21 22  1  0  0  0
 21 23  1  0  0  0
 21 24  1  0  0  0
M  END
> <minimizedAffinity>
-12.09813

$$$$
