CHEMBL195955


 32 35  0  0  0  0  0  0  0  0999 V2000
  -12.8829   -3.7031  -11.9802 C   0  0  0  0  0  0  0  0  0  0  0  0
  -14.2659   -3.7879  -12.1174 C   0  0  0  0  0  0  0  0  0  0  0  0
  -14.9682   -2.9355  -12.9781 C   0  0  0  0  0  0  0  0  0  0  0  0
  -14.3290   -1.8918  -13.6338 C   0  0  0  0  0  0  0  0  0  0  0  0
  -12.9571   -1.7323  -13.4380 C   0  0  0  0  0  0  0  0  0  0  0  0
  -12.2363   -2.6524  -12.6518 C   0  0  0  0  0  0  0  0  0  0  0  0
  -12.1097   -3.3001   -8.9320 C   0  0  0  0  0  0  0  0  0  0  0  0
  -11.8562   -4.4799   -9.8208 C   0  0  0  0  0  0  0  0  0  0  0  0
  -11.0739   -5.8224   -9.1025 S   0  0  0  0  0  0  0  0  0  0  0  0
  -11.1660   -6.7377  -10.5201 C   0  0  0  0  0  0  0  0  0  0  0  0
  -10.6967   -7.9962  -10.5093 N   0  0  0  0  0  0  0  0  0  0  0  0
  -10.8299   -8.6009  -11.6847 C   0  0  0  0  0  0  0  0  0  0  0  0
  -11.3311   -8.0769  -12.8068 N   0  0  0  0  0  0  0  0  0  0  0  0
  -11.7758   -6.8051  -12.7907 C   0  0  0  0  0  0  0  0  0  0  0  0
  -12.2330   -6.3559  -14.0210 N   0  0  0  0  0  0  0  0  0  0  0  0
  -11.7346   -6.0558  -11.5876 C   0  0  0  0  0  0  0  0  0  0  0  0
  -12.1623   -4.7055  -11.1654 C   0  0  0  0  0  0  0  0  0  0  0  0
  -11.9830   -7.0119  -14.7529 H   0  0  0  0  0  0  0  0  0  0  0  0
  -12.0503   -5.3817  -14.2208 H   0  0  0  0  0  0  0  0  0  0  0  0
  -14.9911   -0.9969  -14.5122 N   0  0  0  0  0  0  0  0  0  0  0  0
  -16.0319   -0.1572  -14.1681 C   0  0  0  0  0  0  0  0  0  0  0  0
  -16.4558    0.0229  -13.0295 O   0  0  0  0  0  0  0  0  0  0  0  0
  -16.5975    0.4440  -15.2852 N   0  0  0  0  0  0  0  0  0  0  0  0
  -14.6145   -0.8933  -15.4402 H   0  0  0  0  0  0  0  0  0  0  0  0
  -16.5983   -0.1333  -16.1128 H   0  0  0  0  0  0  0  0  0  0  0  0
  -17.6758    1.3525  -15.1492 C   0  0  0  0  0  0  0  0  0  0  0  0
  -17.4364    2.7093  -15.3677 C   0  0  0  0  0  0  0  0  0  0  0  0
  -18.4970    3.6190  -15.3246 C   0  0  0  0  0  0  0  0  0  0  0  0
  -19.7862    3.1828  -15.0152 C   0  0  0  0  0  0  0  0  0  0  0  0
  -20.0104    1.8328  -14.7557 C   0  0  0  0  0  0  0  0  0  0  0  0
  -21.7530    1.2398  -14.3139 Br  0  0  0  0  0  0  0  0  0  0  0  0
  -18.9658    0.9174  -14.8270 C   0  0  0  0  0  0  0  0  0  0  0  0
  7  8  1  0  0  0
  8  9  1  0  0  0
  8 17  2  0  0  0
  9 10  1  0  0  0
 10 11  1  0  0  0
 10 16  2  0  0  0
 11 12  2  0  0  0
 12 13  1  0  0  0
 13 14  2  0  0  0
 14 15  1  0  0  0
 14 16  1  0  0  0
 15 18  1  0  0  0
 15 19  1  0  0  0
 16 17  1  0  0  0
 17  1  1  0  0  0
  1  2  1  0  0  0
  1  6  2  0  0  0
  2  3  2  0  0  0
  3  4  1  0  0  0
  4 20  1  0  0  0
  4  5  2  0  0  0
 20 21  1  0  0  0
 20 24  1  0  0  0
 21 22  2  0  0  0
 21 23  1  0  0  0
 23 26  1  0  0  0
 23 25  1  0  0  0
 26 27  1  0  0  0
 26 32  2  0  0  0
 27 28  2  0  0  0
 28 29  1  0  0  0
 29 30  2  0  0  0
 30 31  1  0  0  0
 30 32  1  0  0  0
  5  6  1  0  0  0
M  END
> <minimizedAffinity>
-8.14024

$$$$
