CHEMBL3287588


 46 50  0  0  0  0  0  0  0  0999 V2000
  -29.1326   -6.6948   -4.4186 C   0  0  0  0  0  0  0  0  0  0  0  0
  -28.2171   -5.7861   -3.8979 C   0  0  0  0  0  0  0  0  0  0  0  0
  -28.0658   -4.5351   -4.4999 C   0  0  0  0  0  0  0  0  0  0  0  0
  -28.8320   -4.1840   -5.6170 C   0  0  0  0  0  0  0  0  0  0  0  0
  -29.8247   -5.0571   -6.0665 C   0  0  0  0  0  0  0  0  0  0  0  0
  -29.9734   -6.3013   -5.4611 C   0  0  0  0  0  0  0  0  0  0  0  0
  -30.9359   -7.1207   -5.9112 F   0  0  0  0  0  0  0  0  0  0  0  0
  -28.6540   -2.9825   -6.3222 N   0  0  0  0  0  0  0  0  0  0  0  0
  -28.1329   -2.8530   -7.5944 C   0  0  0  0  0  0  0  0  0  0  0  0
  -27.7872   -3.7449   -8.3574 O   0  0  0  0  0  0  0  0  0  0  0  0
  -28.9648   -2.1294   -5.8677 H   0  0  0  0  0  0  0  0  0  0  0  0
  -27.9980   -1.4373   -8.0443 C   0  0  0  0  0  0  0  0  0  0  0  0
  -27.3661   -0.4165   -7.0945 C   0  0  0  0  0  0  0  0  0  0  0  0
  -28.8414   -0.3863   -7.3308 C   0  0  0  0  0  0  0  0  0  0  0  0
  -27.6374   -1.3253   -9.4828 C   0  0  0  0  0  0  0  0  0  0  0  0
  -28.4179   -0.7462  -10.2248 O   0  0  0  0  0  0  0  0  0  0  0  0
  -26.4411   -1.9090   -9.8692 N   0  0  0  0  0  0  0  0  0  0  0  0
  -26.0598   -2.6366   -9.2793 H   0  0  0  0  0  0  0  0  0  0  0  0
  -25.9818   -1.8104  -11.1968 C   0  0  0  0  0  0  0  0  0  0  0  0
  -24.6441   -1.4950  -11.4708 C   0  0  0  0  0  0  0  0  0  0  0  0
  -24.2249   -1.2915  -12.7845 C   0  0  0  0  0  0  0  0  0  0  0  0
  -25.1523   -1.3837  -13.8130 C   0  0  0  0  0  0  0  0  0  0  0  0
  -24.7710   -1.1199  -15.0693 F   0  0  0  0  0  0  0  0  0  0  0  0
  -26.4748   -1.7349  -13.5568 C   0  0  0  0  0  0  0  0  0  0  0  0
  -26.8860   -1.9883  -12.2457 C   0  0  0  0  0  0  0  0  0  0  0  0
  -29.1858   -7.9344   -3.8333 O   0  0  0  0  0  0  0  0  0  0  0  0
  -26.7345   -9.8504   -5.5908 C   0  0  0  0  0  0  0  0  0  0  0  0
  -26.1813  -10.5732   -4.5976 N   0  0  0  0  0  0  0  0  0  0  0  0
  -26.6165  -10.3549   -3.3450 C   0  0  0  0  0  0  0  0  0  0  0  0
  -27.6028   -9.4607   -3.0396 C   0  0  0  0  0  0  0  0  0  0  0  0
  -28.1369   -8.8054   -4.1197 C   0  0  0  0  0  0  0  0  0  0  0  0
  -27.7036   -8.9507   -5.3917 N   0  0  0  0  0  0  0  0  0  0  0  0
  -26.2935  -10.0306   -6.9092 N   0  0  0  0  0  0  0  0  0  0  0  0
  -25.6140   -9.3072   -7.1100 H   0  0  0  0  0  0  0  0  0  0  0  0
  -25.2340  -11.7995   -8.9815 C   0  0  0  0  0  0  0  0  0  0  0  0
  -26.6204  -11.2164   -9.0286 C   0  0  0  0  0  0  0  0  0  0  0  0
  -27.4602  -11.5445  -10.1062 C   0  0  0  0  0  0  0  0  0  0  0  0
  -28.7561  -11.0319  -10.1913 C   0  0  0  0  0  0  0  0  0  0  0  0
  -29.2287  -10.1453   -9.2217 C   0  0  0  0  0  0  0  0  0  0  0  0
  -28.3843   -9.8091   -8.1556 C   0  0  0  0  0  0  0  0  0  0  0  0
  -27.1031  -10.3709   -8.0130 C   0  0  0  0  0  0  0  0  0  0  0  0
  -30.5982   -9.5356   -9.3269 C   0  0  0  0  0  0  0  0  0  0  0  0
  -31.7705  -10.3130   -8.2227 S   0  0  0  0  0  0  0  0  0  0  0  0
  -30.9766  -10.3563   -6.6298 C   0  0  0  0  0  0  0  0  0  0  0  0
  -32.8920   -9.3959   -8.0964 O   0  0  0  0  0  0  0  0  0  0  0  0
  -32.0080  -11.6793   -8.6500 O   0  0  0  0  0  0  0  0  0  0  0  0
 35 36  1  0  0  0
 36 37  1  0  0  0
 36 41  2  0  0  0
 37 38  2  0  0  0
 38 39  1  0  0  0
 39 42  1  0  0  0
 39 40  2  0  0  0
 42 43  1  0  0  0
 43 44  1  0  0  0
 43 45  2  0  0  0
 43 46  2  0  0  0
 40 41  1  0  0  0
 41 33  1  0  0  0
 33 27  1  0  0  0
 33 34  1  0  0  0
 27 28  1  0  0  0
 27 32  2  0  0  0
 28 29  2  0  0  0
 29 30  1  0  0  0
 30 31  2  0  0  0
 31 26  1  0  0  0
 31 32  1  0  0  0
 26  1  1  0  0  0
  1  2  1  0  0  0
  1  6  2  0  0  0
  2  3  2  0  0  0
  3  4  1  0  0  0
  4  8  1  0  0  0
  4  5  2  0  0  0
  8  9  1  0  0  0
  8 11  1  0  0  0
  9 10  2  0  0  0
  9 12  1  0  0  0
 12 15  1  0  0  0
 12 13  1  0  0  0
 12 14  1  0  0  0
 15 16  2  0  0  0
 15 17  1  0  0  0
 17 19  1  0  0  0
 17 18  1  0  0  0
 19 20  1  0  0  0
 19 25  2  0  0  0
 20 21  2  0  0  0
 21 22  1  0  0  0
 22 23  1  0  0  0
 22 24  2  0  0  0
 24 25  1  0  0  0
 13 14  1  0  0  0
  5  6  1  0  0  0
  6  7  1  0  0  0
M  END
> <minimizedAffinity>
-9.18946

$$$$
