CHEMBL2348996


 34 38  0  0  0  0  0  0  0  0999 V2000
  -20.3889    2.0529  -15.0680 C   0  0  0  0  0  0  0  0  0  0  0  0
  -21.1938    3.1181  -14.6374 C   0  0  0  0  0  0  0  0  0  0  0  0
  -22.3733    2.9056  -13.9285 C   0  0  0  0  0  0  0  0  0  0  0  0
  -22.7966    1.6135  -13.6705 C   0  0  0  0  0  0  0  0  0  0  0  0
  -22.0732    0.5380  -14.1867 C   0  0  0  0  0  0  0  0  0  0  0  0
  -20.8630    0.7435  -14.8758 C   0  0  0  0  0  0  0  0  0  0  0  0
  -17.9075    2.2880  -14.9567 C   0  0  0  0  0  0  0  0  0  0  0  0
  -17.8494    2.0421  -13.7578 O   0  0  0  0  0  0  0  0  0  0  0  0
  -19.1125    2.2758  -15.6662 N   0  0  0  0  0  0  0  0  0  0  0  0
  -19.0660    2.2765  -16.6743 H   0  0  0  0  0  0  0  0  0  0  0  0
  -14.1721    4.1166  -17.9181 C   0  0  0  0  0  0  0  0  0  0  0  0
  -15.0334    3.3381  -16.9973 C   0  0  0  0  0  0  0  0  0  0  0  0
  -16.3455    3.6119  -16.5480 C   0  0  0  0  0  0  0  0  0  0  0  0
  -16.6931    2.5627  -15.7080 C   0  0  0  0  0  0  0  0  0  0  0  0
  -15.5724    1.7480  -15.7001 N   0  0  0  0  0  0  0  0  0  0  0  0
  -15.3113    0.5096  -14.9991 C   0  0  0  0  0  0  0  0  0  0  0  0
  -14.5706    2.2035  -16.4791 N   0  0  0  0  0  0  0  0  0  0  0  0
  -22.4820   -0.7909  -13.9042 O   0  0  0  0  0  0  0  0  0  0  0  0
  -23.7266   -1.0292  -13.3150 C   0  0  0  0  0  0  0  0  0  0  0  0
  -24.7166   -1.3009  -14.3848 C   0  0  0  0  0  0  0  0  0  0  0  0
  -25.9684   -1.5748  -13.9878 C   0  0  0  0  0  0  0  0  0  0  0  0
  -26.2742   -1.5822  -12.6068 C   0  0  0  0  0  0  0  0  0  0  0  0
  -27.3978   -1.8112  -11.9648 N   0  0  0  0  0  0  0  0  0  0  0  0
  -27.0931   -1.6905  -10.6389 C   0  0  0  0  0  0  0  0  0  0  0  0
  -25.7585   -1.3971  -10.4659 C   0  0  0  0  0  0  0  0  0  0  0  0
  -25.2378   -1.3093  -11.7297 N   0  0  0  0  0  0  0  0  0  0  0  0
  -23.9417   -1.0188  -12.0372 N   0  0  0  0  0  0  0  0  0  0  0  0
  -28.0016   -1.8331   -9.6165 N   0  0  0  0  0  0  0  0  0  0  0  0
  -28.0342   -2.9024   -8.7479 C   0  0  0  0  0  0  0  0  0  0  0  0
  -27.2771   -3.8607   -8.7036 O   0  0  0  0  0  0  0  0  0  0  0  0
  -28.7062   -1.1166   -9.5355 H   0  0  0  0  0  0  0  0  0  0  0  0
  -29.1907   -2.8360   -7.7939 C   0  0  0  0  0  0  0  0  0  0  0  0
  -28.9941   -2.4286   -6.3497 C   0  0  0  0  0  0  0  0  0  0  0  0
  -29.2751   -3.8633   -6.6859 C   0  0  0  0  0  0  0  0  0  0  0  0
 11 12  1  0  0  0
 12 13  1  0  0  0
 12 17  2  0  0  0
 13 14  2  0  0  0
 14  7  1  0  0  0
 14 15  1  0  0  0
  7  8  2  0  0  0
  7  9  1  0  0  0
  9  1  1  0  0  0
  9 10  1  0  0  0
  1  2  1  0  0  0
  1  6  2  0  0  0
  2  3  2  0  0  0
  3  4  1  0  0  0
  4  5  2  0  0  0
  5 18  1  0  0  0
  5  6  1  0  0  0
 18 19  1  0  0  0
 19 20  1  0  0  0
 19 27  2  0  0  0
 20 21  2  0  0  0
 21 22  1  0  0  0
 22 23  2  0  0  0
 22 26  1  0  0  0
 23 24  1  0  0  0
 24 28  1  0  0  0
 24 25  2  0  0  0
 28 29  1  0  0  0
 28 31  1  0  0  0
 29 30  2  0  0  0
 29 32  1  0  0  0
 32 33  1  0  0  0
 32 34  1  0  0  0
 33 34  1  0  0  0
 25 26  1  0  0  0
 26 27  1  0  0  0
 15 16  1  0  0  0
 15 17  1  0  0  0
M  END
> <minimizedAffinity>
-9.58550

$$$$
