CHEMBL3099458


 40 42  0  0  0  0  0  0  0  0999 V2000
  -12.8409   -5.6747  -12.8425 C   0  0  0  0  0  0  0  0  0  0  0  0
  -13.0886   -4.3557  -13.2722 C   0  0  0  0  0  0  0  0  0  0  0  0
  -13.1450   -3.2404  -12.4445 C   0  0  0  0  0  0  0  0  0  0  0  0
  -12.9651   -3.4516  -11.0826 C   0  0  0  0  0  0  0  0  0  0  0  0
  -12.7239   -4.7407  -10.5912 C   0  0  0  0  0  0  0  0  0  0  0  0
  -12.6509   -5.8680  -11.4570 C   0  0  0  0  0  0  0  0  0  0  0  0
  -12.0364   -7.5893  -16.0771 C   0  0  0  0  0  0  0  0  0  0  0  0
  -11.9841   -6.6818  -15.0155 C   0  0  0  0  0  0  0  0  0  0  0  0
  -12.8713   -6.7305  -13.9046 C   0  0  0  0  0  0  0  0  0  0  0  0
  -13.8417   -7.7363  -13.9293 C   0  0  0  0  0  0  0  0  0  0  0  0
  -13.8506   -8.7059  -14.9347 C   0  0  0  0  0  0  0  0  0  0  0  0
  -12.9124   -8.6689  -15.9780 C   0  0  0  0  0  0  0  0  0  0  0  0
  -12.8781   -9.8119  -16.9342 C   0  0  0  0  0  0  0  0  0  0  0  0
  -13.7657   -9.8042  -18.1518 C   0  0  0  0  0  0  0  0  0  0  0  0
  -12.0591  -10.7172  -16.7580 O   0  0  0  0  0  0  0  0  0  0  0  0
  -11.7619   -6.5091  -18.2020 C   0  0  0  0  0  0  0  0  0  0  0  0
  -11.3168   -7.4542  -17.2352 O   0  0  0  0  0  0  0  0  0  0  0  0
  -13.3671   -1.9276  -12.9588 N   0  0  0  0  0  0  0  0  0  0  0  0
  -14.5922   -1.4250  -13.3554 C   0  0  0  0  0  0  0  0  0  0  0  0
  -15.6550   -2.0338  -13.3200 O   0  0  0  0  0  0  0  0  0  0  0  0
  -14.5409   -0.1170  -13.8452 N   0  0  0  0  0  0  0  0  0  0  0  0
  -12.5740   -1.3021  -12.9835 H   0  0  0  0  0  0  0  0  0  0  0  0
  -13.7446    0.0520  -14.4395 H   0  0  0  0  0  0  0  0  0  0  0  0
  -15.7683    0.4720  -14.2471 C   0  0  0  0  0  0  0  0  0  0  0  0
  -16.0174    0.7586  -15.5964 C   0  0  0  0  0  0  0  0  0  0  0  0
  -17.1672    1.4504  -15.9852 C   0  0  0  0  0  0  0  0  0  0  0  0
  -18.0859    1.8761  -15.0282 C   0  0  0  0  0  0  0  0  0  0  0  0
  -17.8399    1.5923  -13.6810 C   0  0  0  0  0  0  0  0  0  0  0  0
  -16.7021    0.8681  -13.2883 C   0  0  0  0  0  0  0  0  0  0  0  0
  -19.2094    2.6196  -15.2922 O   0  0  0  0  0  0  0  0  0  0  0  0
  -20.2764    2.4673  -14.3469 C   0  0  0  0  0  0  0  0  0  0  0  0
  -21.0228    1.1660  -14.6381 C   0  0  0  0  0  0  0  0  0  0  0  0
  -21.9628    0.7748  -13.4878 C   0  0  0  0  0  0  0  0  0  0  0  0
  -22.6096   -0.5383  -13.6598 N   0  0  0  0  0  0  0  0  0  0  0  0
  -22.8991   -1.1849  -12.3782 C   0  0  0  0  0  0  0  0  0  0  0  0
  -23.8488   -0.3994  -14.4301 C   0  0  0  0  0  0  0  0  0  0  0  0
  -12.4458   -4.9296   -9.2570 O   0  0  0  0  0  0  0  0  0  0  0  0
  -12.2910   -3.7469   -8.4825 C   0  0  0  0  0  0  0  0  0  0  0  0
  -12.3612   -7.1477  -11.0258 O   0  0  0  0  0  0  0  0  0  0  0  0
  -10.9863   -7.5328  -10.9852 C   0  0  0  0  0  0  0  0  0  0  0  0
 16 17  1  0  0  0
 17  7  1  0  0  0
  7  8  1  0  0  0
  7 12  2  0  0  0
  8  9  2  0  0  0
  9  1  1  0  0  0
  9 10  1  0  0  0
  1  2  1  0  0  0
  1  6  2  0  0  0
  2  3  2  0  0  0
  3 18  1  0  0  0
  3  4  1  0  0  0
 18 19  1  0  0  0
 18 22  1  0  0  0
 19 20  2  0  0  0
 19 21  1  0  0  0
 21 24  1  0  0  0
 21 23  1  0  0  0
 24 25  1  0  0  0
 24 29  2  0  0  0
 25 26  2  0  0  0
 26 27  1  0  0  0
 27 30  1  0  0  0
 27 28  2  0  0  0
 30 31  1  0  0  0
 31 32  1  0  0  0
 32 33  1  0  0  0
 33 34  1  0  0  0
 34 35  1  0  0  0
 34 36  1  0  0  0
 28 29  1  0  0  0
  4  5  2  0  0  0
  5 37  1  0  0  0
  5  6  1  0  0  0
 37 38  1  0  0  0
  6 39  1  0  0  0
 39 40  1  0  0  0
 10 11  2  0  0  0
 11 12  1  0  0  0
 12 13  1  0  0  0
 13 14  1  0  0  0
 13 15  2  0  0  0
M  END
> <minimizedAffinity>
-6.79096

$$$$
