CHEMBL212932


 44 49  0  0  0  0  0  0  0  0999 V2000
  -29.9234   -6.8050   -4.8012 C   0  0  0  0  0  0  0  0  0  0  0  0
  -30.9325   -6.7792   -3.8589 C   0  0  0  0  0  0  0  0  0  0  0  0
  -31.3886   -5.4597   -3.5927 C   0  0  0  0  0  0  0  0  0  0  0  0
  -30.7036   -4.5185   -4.3336 C   0  0  0  0  0  0  0  0  0  0  0  0
  -29.6725   -5.2603   -5.4830 S   0  0  0  0  0  0  0  0  0  0  0  0
  -24.3528  -11.2640   -4.9741 C   0  0  0  0  0  0  0  0  0  0  0  0
  -23.8473  -10.3101   -4.0477 C   0  0  0  0  0  0  0  0  0  0  0  0
  -24.6084   -9.2295   -3.6033 C   0  0  0  0  0  0  0  0  0  0  0  0
  -25.8757   -9.0790   -4.1315 C   0  0  0  0  0  0  0  0  0  0  0  0
  -26.3543   -9.9969   -5.1059 C   0  0  0  0  0  0  0  0  0  0  0  0
  -25.6320  -11.0931   -5.5216 C   0  0  0  0  0  0  0  0  0  0  0  0
  -27.6359   -9.5130   -5.4895 C   0  0  0  0  0  0  0  0  0  0  0  0
  -28.5505   -9.8052   -6.4032 N   0  0  0  0  0  0  0  0  0  0  0  0
  -29.4692   -8.8214   -6.2018 N   0  0  0  0  0  0  0  0  0  0  0  0
  -29.1475   -7.9364   -5.1893 C   0  0  0  0  0  0  0  0  0  0  0  0
  -27.9330   -8.3714   -4.7361 C   0  0  0  0  0  0  0  0  0  0  0  0
  -26.8737   -7.9812   -3.7728 C   0  0  0  0  0  0  0  0  0  0  0  0
  -30.2865   -8.7928   -6.8011 H   0  0  0  0  0  0  0  0  0  0  0  0
  -23.5028  -12.4610   -5.3512 C   0  0  0  0  0  0  0  0  0  0  0  0
  -21.1616   -8.5521   -6.7932 C   0  0  0  0  0  0  0  0  0  0  0  0
  -21.6421   -9.8529   -7.2507 N   0  0  0  0  0  0  0  0  0  0  0  0
  -21.0174  -10.9419   -6.4827 C   0  0  0  0  0  0  0  0  0  0  0  0
  -21.5683  -12.3236   -6.8988 C   0  0  0  0  0  0  0  0  0  0  0  0
  -23.0332  -12.4659   -6.7497 N   0  0  0  0  0  0  0  0  0  0  0  0
  -23.6585  -11.3538   -7.5063 C   0  0  0  0  0  0  0  0  0  0  0  0
  -23.1122   -9.9406   -7.1642 C   0  0  0  0  0  0  0  0  0  0  0  0
  -30.8491   -3.0366   -4.2782 C   0  0  0  0  0  0  0  0  0  0  0  0
  -29.7018   -2.2482   -4.7475 N   0  0  0  0  0  0  0  0  0  0  0  0
  -28.7336   -1.6677   -3.8192 C   0  0  0  0  0  0  0  0  0  0  0  0
  -29.5817   -2.2153   -6.1352 C   0  0  0  0  0  0  0  0  0  0  0  0
  -30.4735   -2.6893   -6.8402 O   0  0  0  0  0  0  0  0  0  0  0  0
  -28.4154   -1.6720   -6.6170 N   0  0  0  0  0  0  0  0  0  0  0  0
  -27.6691   -1.5414   -5.9556 H   0  0  0  0  0  0  0  0  0  0  0  0
  -28.0487   -1.5617   -7.9745 C   0  0  0  0  0  0  0  0  0  0  0  0
  -28.2623   -0.4182   -8.7427 C   0  0  0  0  0  0  0  0  0  0  0  0
  -27.9552   -0.4126  -10.1025 C   0  0  0  0  0  0  0  0  0  0  0  0
  -27.4054   -1.5392  -10.7105 C   0  0  0  0  0  0  0  0  0  0  0  0
  -27.1732   -2.6797   -9.9505 C   0  0  0  0  0  0  0  0  0  0  0  0
  -27.4718   -2.6831   -8.5820 C   0  0  0  0  0  0  0  0  0  0  0  0
  -27.2042   -1.3965  -12.0497 O   0  0  0  0  0  0  0  0  0  0  0  0
  -25.8999   -1.1561  -12.5537 C   0  0  0  0  0  0  0  0  0  0  0  0
  -25.7662   -1.3870  -13.8744 F   0  0  0  0  0  0  0  0  0  0  0  0
  -25.5501    0.1214  -12.2920 F   0  0  0  0  0  0  0  0  0  0  0  0
  -25.0425   -1.9708  -11.9007 F   0  0  0  0  0  0  0  0  0  0  0  0
 20 21  1  0  0  0
 21 22  1  0  0  0
 21 26  1  0  0  0
 22 23  1  0  0  0
 23 24  1  0  0  0
 24 19  1  0  0  0
 24 25  1  0  0  0
 19  6  1  0  0  0
  6  7  1  0  0  0
  6 11  2  0  0  0
  7  8  2  0  0  0
  8  9  1  0  0  0
  9 10  2  0  0  0
  9 17  1  0  0  0
 10 11  1  0  0  0
 10 12  1  0  0  0
 12 13  2  0  0  0
 12 16  1  0  0  0
 13 14  1  0  0  0
 14 15  1  0  0  0
 14 18  1  0  0  0
 15  1  1  0  0  0
 15 16  2  0  0  0
  1  2  2  0  0  0
  1  5  1  0  0  0
  2  3  1  0  0  0
  3  4  2  0  0  0
  4 27  1  0  0  0
  4  5  1  0  0  0
 27 28  1  0  0  0
 28 29  1  0  0  0
 28 30  1  0  0  0
 30 31  2  0  0  0
 30 32  1  0  0  0
 32 34  1  0  0  0
 32 33  1  0  0  0
 34 35  1  0  0  0
 34 39  2  0  0  0
 35 36  2  0  0  0
 36 37  1  0  0  0
 37 40  1  0  0  0
 37 38  2  0  0  0
 40 41  1  0  0  0
 41 42  1  0  0  0
 41 43  1  0  0  0
 41 44  1  0  0  0
 38 39  1  0  0  0
 16 17  1  0  0  0
 25 26  1  0  0  0
M  END
> <minimizedAffinity>
-5.58548

$$$$
