CHEMBL3950267


 34 37  0  0  0  0  0  0  0  0999 V2000
  -14.9039   -2.0411  -13.4199 C   0  0  0  0  0  0  0  0  0  0  0  0
  -15.3293   -2.6217  -12.2181 C   0  0  0  0  0  0  0  0  0  0  0  0
  -14.4164   -3.1378  -11.2917 C   0  0  0  0  0  0  0  0  0  0  0  0
  -13.0486   -3.1076  -11.5654 C   0  0  0  0  0  0  0  0  0  0  0  0
  -12.6242   -2.4087  -12.7202 C   0  0  0  0  0  0  0  0  0  0  0  0
  -13.5411   -1.9241  -13.6661 C   0  0  0  0  0  0  0  0  0  0  0  0
  -12.1286   -4.1123  -10.8852 C   0  0  0  0  0  0  0  0  0  0  0  0
  -11.2454   -4.7885  -11.7604 N   0  0  0  0  0  0  0  0  0  0  0  0
  -12.0406   -5.7830  -12.3157 C   0  0  0  0  0  0  0  0  0  0  0  0
  -12.1155   -6.3074  -13.6054 C   0  0  0  0  0  0  0  0  0  0  0  0
  -13.1518   -7.2172  -13.8375 C   0  0  0  0  0  0  0  0  0  0  0  0
  -13.9834   -7.6575  -12.8028 C   0  0  0  0  0  0  0  0  0  0  0  0
  -13.8278   -7.1789  -11.4969 C   0  0  0  0  0  0  0  0  0  0  0  0
  -12.8893   -6.1588  -11.2786 C   0  0  0  0  0  0  0  0  0  0  0  0
  -12.5740   -5.2743  -10.1925 C   0  0  0  0  0  0  0  0  0  0  0  0
  -10.5564   -4.3003  -12.3049 H   0  0  0  0  0  0  0  0  0  0  0  0
  -12.9239   -5.4823   -8.7978 C   0  0  0  0  0  0  0  0  0  0  0  0
  -11.9140   -5.8072   -7.9446 N   0  0  0  0  0  0  0  0  0  0  0  0
  -14.0769   -5.4520   -8.3810 O   0  0  0  0  0  0  0  0  0  0  0  0
  -10.9659   -5.9602   -8.2629 H   0  0  0  0  0  0  0  0  0  0  0  0
  -12.1884   -6.1087   -7.0234 H   0  0  0  0  0  0  0  0  0  0  0  0
  -17.4404   -0.0443  -15.0983 N   0  0  0  0  0  0  0  0  0  0  0  0
  -16.4936   -0.3714  -14.1433 C   0  0  0  0  0  0  0  0  0  0  0  0
  -16.2226    0.3261  -13.1667 O   0  0  0  0  0  0  0  0  0  0  0  0
  -15.8502   -1.5632  -14.3725 N   0  0  0  0  0  0  0  0  0  0  0  0
  -17.7496   -0.7632  -15.7419 H   0  0  0  0  0  0  0  0  0  0  0  0
  -15.6814   -1.7977  -15.3438 H   0  0  0  0  0  0  0  0  0  0  0  0
  -21.6387    2.4871  -14.2346 C   0  0  0  0  0  0  0  0  0  0  0  0
  -20.2186    2.4349  -14.7179 C   0  0  0  0  0  0  0  0  0  0  0  0
  -19.6182    3.6005  -15.2126 C   0  0  0  0  0  0  0  0  0  0  0  0
  -18.3060    3.5623  -15.6582 C   0  0  0  0  0  0  0  0  0  0  0  0
  -17.5874    2.3787  -15.6231 C   0  0  0  0  0  0  0  0  0  0  0  0
  -18.1515    1.1903  -15.1342 C   0  0  0  0  0  0  0  0  0  0  0  0
  -19.4759    1.2326  -14.6784 C   0  0  0  0  0  0  0  0  0  0  0  0
 28 29  1  0  0  0
 29 30  1  0  0  0
 29 34  2  0  0  0
 30 31  2  0  0  0
 31 32  1  0  0  0
 32 33  2  0  0  0
 33 22  1  0  0  0
 33 34  1  0  0  0
 22 23  1  0  0  0
 22 26  1  0  0  0
 23 24  2  0  0  0
 23 25  1  0  0  0
 25  1  1  0  0  0
 25 27  1  0  0  0
  1  2  1  0  0  0
  1  6  2  0  0  0
  2  3  2  0  0  0
  3  4  1  0  0  0
  4  7  1  0  0  0
  4  5  2  0  0  0
  7  8  1  0  0  0
  7 15  2  0  0  0
  8  9  1  0  0  0
  8 16  1  0  0  0
  9 10  1  0  0  0
  9 14  2  0  0  0
 10 11  2  0  0  0
 11 12  1  0  0  0
 12 13  2  0  0  0
 13 14  1  0  0  0
 14 15  1  0  0  0
 15 17  1  0  0  0
 17 18  1  0  0  0
 17 19  2  0  0  0
 18 20  1  0  0  0
 18 21  1  0  0  0
  5  6  1  0  0  0
M  END
> <minimizedAffinity>
-8.56140

$$$$
