CHEMBL219886


 24 26  0  0  0  0  0  0  0  0999 V2000
  -30.4680   -9.3148   -8.2454 C   0  0  0  0  0  0  0  0  0  0  0  0
  -31.7118   -9.9326   -8.3423 C   0  0  0  0  0  0  0  0  0  0  0  0
  -31.8831  -11.2086   -8.8764 N   0  0  0  0  0  0  0  0  0  0  0  0
  -32.8310   -9.4084   -7.8143 N   0  0  0  0  0  0  0  0  0  0  0  0
  -32.7067   -8.2291   -7.2026 C   0  0  0  0  0  0  0  0  0  0  0  0
  -31.5727   -7.5411   -7.0662 N   0  0  0  0  0  0  0  0  0  0  0  0
  -30.4504   -8.1142   -7.5609 C   0  0  0  0  0  0  0  0  0  0  0  0
  -31.3342  -11.3378   -9.7269 H   0  0  0  0  0  0  0  0  0  0  0  0
  -32.8718  -11.4106   -8.9737 H   0  0  0  0  0  0  0  0  0  0  0  0
  -29.2465  -10.2415  -10.1037 N   0  0  0  0  0  0  0  0  0  0  0  0
  -29.2609   -9.9019   -8.8508 C   0  0  0  0  0  0  0  0  0  0  0  0
  -27.2518   -9.8057  -11.1284 C   0  0  0  0  0  0  0  0  0  0  0  0
  -28.0071  -10.7992  -10.4384 O   0  0  0  0  0  0  0  0  0  0  0  0
  -29.2392   -7.4413   -7.3685 O   0  0  0  0  0  0  0  0  0  0  0  0
  -29.3222   -6.1504   -6.8714 C   0  0  0  0  0  0  0  0  0  0  0  0
  -29.6322   -5.0660   -7.6933 C   0  0  0  0  0  0  0  0  0  0  0  0
  -29.5705   -3.7740   -7.1900 C   0  0  0  0  0  0  0  0  0  0  0  0
  -29.2640   -3.5595   -5.8420 C   0  0  0  0  0  0  0  0  0  0  0  0
  -29.1512   -2.2606   -5.3296 C   0  0  0  0  0  0  0  0  0  0  0  0
  -28.8743   -2.0724   -3.9837 C   0  0  0  0  0  0  0  0  0  0  0  0
  -28.7240   -3.1966   -3.1953 C   0  0  0  0  0  0  0  0  0  0  0  0
  -28.8009   -4.4677   -3.6600 N   0  0  0  0  0  0  0  0  0  0  0  0
  -29.0539   -4.6531   -4.9703 C   0  0  0  0  0  0  0  0  0  0  0  0
  -29.0856   -5.9400   -5.5075 C   0  0  0  0  0  0  0  0  0  0  0  0
 12 13  1  0  0  0
 13 10  1  0  0  0
 10 11  2  0  0  0
 11  1  1  0  0  0
  1  2  1  0  0  0
  1  7  2  0  0  0
  2  3  1  0  0  0
  2  4  2  0  0  0
  3  8  1  0  0  0
  3  9  1  0  0  0
  4  5  1  0  0  0
  5  6  2  0  0  0
  6  7  1  0  0  0
  7 14  1  0  0  0
 14 15  1  0  0  0
 15 16  1  0  0  0
 15 24  2  0  0  0
 16 17  2  0  0  0
 17 18  1  0  0  0
 18 19  1  0  0  0
 18 23  2  0  0  0
 19 20  2  0  0  0
 20 21  1  0  0  0
 21 22  2  0  0  0
 22 23  1  0  0  0
 23 24  1  0  0  0
M  END
> <minimizedAffinity>
-7.81921

$$$$
