CHEMBL3968009


 36 40  0  0  0  0  0  0  0  0999 V2000
  -17.1737    2.2742  -15.6348 N   0  0  0  0  0  0  0  0  0  0  0  0
  -18.5900    1.9654  -15.5692 C   0  0  0  0  0  0  0  0  0  0  0  0
  -19.3989    3.0732  -15.8707 C   0  0  0  0  0  0  0  0  0  0  0  0
  -20.6406    3.1543  -15.2822 C   0  0  0  0  0  0  0  0  0  0  0  0
  -21.1906    2.1511  -14.5393 C   0  0  0  0  0  0  0  0  0  0  0  0
  -22.2469    2.5838  -13.8924 N   0  0  0  0  0  0  0  0  0  0  0  0
  -23.1105    1.6763  -13.4518 C   0  0  0  0  0  0  0  0  0  0  0  0
  -22.9303    0.3426  -13.7068 C   0  0  0  0  0  0  0  0  0  0  0  0
  -21.7205   -0.1270  -14.2144 N   0  0  0  0  0  0  0  0  0  0  0  0
  -20.7009    0.8207  -14.6136 C   0  0  0  0  0  0  0  0  0  0  0  0
  -19.2477    0.8033  -15.0622 C   0  0  0  0  0  0  0  0  0  0  0  0
  -24.1478   -0.4910  -13.4692 C   0  0  0  0  0  0  0  0  0  0  0  0
  -25.0011   -1.2159  -14.3537 C   0  0  0  0  0  0  0  0  0  0  0  0
  -26.0950   -1.7096  -13.7512 N   0  0  0  0  0  0  0  0  0  0  0  0
  -25.9632   -1.2975  -12.4805 N   0  0  0  0  0  0  0  0  0  0  0  0
  -26.6834   -1.9542  -11.4106 C   0  0  0  0  0  0  0  0  0  0  0  0
  -24.9414   -0.3959  -12.3277 C   0  0  0  0  0  0  0  0  0  0  0  0
  -14.7362   -0.0354  -13.9048 C   0  0  0  0  0  0  0  0  0  0  0  0
  -14.0063   -0.4746  -14.9976 C   0  0  0  0  0  0  0  0  0  0  0  0
  -14.1866    0.1319  -16.2407 C   0  0  0  0  0  0  0  0  0  0  0  0
  -15.1791    1.1050  -16.4120 C   0  0  0  0  0  0  0  0  0  0  0  0
  -16.0373    1.4661  -15.3748 C   0  0  0  0  0  0  0  0  0  0  0  0
  -15.6850    0.9840  -14.0860 C   0  0  0  0  0  0  0  0  0  0  0  0
  -15.5041   -1.6376  -12.3108 C   0  0  0  0  0  0  0  0  0  0  0  0
  -14.6369   -0.5490  -12.6358 O   0  0  0  0  0  0  0  0  0  0  0  0
  -13.4822   -0.1727  -17.3739 O   0  0  0  0  0  0  0  0  0  0  0  0
  -13.9281    0.4451  -18.5752 C   0  0  0  0  0  0  0  0  0  0  0  0
  -16.9396    3.7692  -15.5312 C   0  0  0  0  0  0  0  0  0  0  0  0
  -15.7196    4.3242  -16.1897 C   0  0  0  0  0  0  0  0  0  0  0  0
  -14.5580    4.6658  -15.6592 N   0  0  0  0  0  0  0  0  0  0  0  0
  -13.7100    4.9249  -16.7197 N   0  0  0  0  0  0  0  0  0  0  0  0
  -14.4180    4.7421  -17.8138 C   0  0  0  0  0  0  0  0  0  0  0  0
  -14.0736    4.8485  -19.0922 N   0  0  0  0  0  0  0  0  0  0  0  0
  -15.6983    4.3610  -17.5578 O   0  0  0  0  0  0  0  0  0  0  0  0
  -13.0941    4.9254  -19.3312 H   0  0  0  0  0  0  0  0  0  0  0  0
  -14.7039    4.5502  -19.8236 H   0  0  0  0  0  0  0  0  0  0  0  0
 24 25  1  0  0  0
 25 18  1  0  0  0
 18 19  1  0  0  0
 18 23  2  0  0  0
 19 20  2  0  0  0
 20 26  1  0  0  0
 20 21  1  0  0  0
 26 27  1  0  0  0
 21 22  2  0  0  0
 22  1  1  0  0  0
 22 23  1  0  0  0
  1 28  1  0  0  0
  1  2  1  0  0  0
 28 29  1  0  0  0
 29 30  2  0  0  0
 29 34  1  0  0  0
 30 31  1  0  0  0
 31 32  2  0  0  0
 32 33  1  0  0  0
 32 34  1  0  0  0
 33 35  1  0  0  0
 33 36  1  0  0  0
  2  3  1  0  0  0
  2 11  2  0  0  0
  3  4  2  0  0  0
  4  5  1  0  0  0
  5  6  1  0  0  0
  5 10  2  0  0  0
  6  7  2  0  0  0
  7  8  1  0  0  0
  8 12  1  0  0  0
  8  9  2  0  0  0
 12 13  1  0  0  0
 12 17  2  0  0  0
 13 14  2  0  0  0
 14 15  1  0  0  0
 15 16  1  0  0  0
 15 17  1  0  0  0
  9 10  1  0  0  0
 10 11  1  0  0  0
M  END
> <minimizedAffinity>
-8.90605

$$$$
