CHEMBL3968124


 35 38  0  0  0  0  0  0  0  0999 V2000
  -27.7985   -2.1241   -8.7309 N   0  0  0  0  0  0  0  0  0  0  0  0
  -26.9778   -1.7741   -9.8571 C   0  0  0  0  0  0  0  0  0  0  0  0
  -27.6620   -1.3864  -10.9853 C   0  0  0  0  0  0  0  0  0  0  0  0
  -27.0092   -1.1928  -12.1729 C   0  0  0  0  0  0  0  0  0  0  0  0
  -25.6920   -1.2656  -12.3144 C   0  0  0  0  0  0  0  0  0  0  0  0
  -25.4985   -1.3210  -13.5993 N   0  0  0  0  0  0  0  0  0  0  0  0
  -24.3109   -0.9780  -14.0415 C   0  0  0  0  0  0  0  0  0  0  0  0
  -23.3007   -0.4975  -13.2217 C   0  0  0  0  0  0  0  0  0  0  0  0
  -23.4514   -0.7048  -11.8334 N   0  0  0  0  0  0  0  0  0  0  0  0
  -24.7609   -1.2131  -11.2846 C   0  0  0  0  0  0  0  0  0  0  0  0
  -25.5277   -1.6761   -9.9910 C   0  0  0  0  0  0  0  0  0  0  0  0
  -22.4734    0.4735  -14.0582 C   0  0  0  0  0  0  0  0  0  0  0  0
  -21.3286    0.0246  -14.8293 C   0  0  0  0  0  0  0  0  0  0  0  0
  -20.5020    0.9761  -15.2286 N   0  0  0  0  0  0  0  0  0  0  0  0
  -21.1117    2.0981  -14.8375 N   0  0  0  0  0  0  0  0  0  0  0  0
  -20.4447    3.3221  -15.2301 C   0  0  0  0  0  0  0  0  0  0  0  0
  -22.2718    1.8573  -14.0936 C   0  0  0  0  0  0  0  0  0  0  0  0
  -28.0555   -1.3804   -7.5383 C   0  0  0  0  0  0  0  0  0  0  0  0
  -28.6683   -0.1131   -7.5430 C   0  0  0  0  0  0  0  0  0  0  0  0
  -28.9646    0.5473   -6.3379 C   0  0  0  0  0  0  0  0  0  0  0  0
  -28.6783   -0.0660   -5.1197 C   0  0  0  0  0  0  0  0  0  0  0  0
  -28.0632   -1.3096   -5.0984 C   0  0  0  0  0  0  0  0  0  0  0  0
  -27.6837   -1.9206   -6.2899 C   0  0  0  0  0  0  0  0  0  0  0  0
  -29.6218    1.7394   -6.2001 O   0  0  0  0  0  0  0  0  0  0  0  0
  -30.9815    1.7814   -6.6003 C   0  0  0  0  0  0  0  0  0  0  0  0
  -27.8607   -2.0138   -3.9401 O   0  0  0  0  0  0  0  0  0  0  0  0
  -29.0320   -2.7579   -3.5866 C   0  0  0  0  0  0  0  0  0  0  0  0
  -28.0764   -3.6197   -8.4934 C   0  0  0  0  0  0  0  0  0  0  0  0
  -29.3055   -3.8764   -7.5733 C   0  0  0  0  0  0  0  0  0  0  0  0
  -30.5347   -4.0607   -8.2960 O   0  0  0  0  0  0  0  0  0  0  0  0
  -30.5399   -4.9539   -8.6784 H   0  0  0  0  0  0  0  0  0  0  0  0
  -29.1639   -5.1053   -6.6334 C   0  0  0  0  0  0  0  0  0  0  0  0
  -29.1028   -7.1750   -7.8947 C   0  0  0  0  0  0  0  0  0  0  0  0
  -28.3456   -6.2358   -7.0738 N   0  0  0  0  0  0  0  0  0  0  0  0
  -27.5857   -5.8697   -7.6506 H   0  0  0  0  0  0  0  0  0  0  0  0
 33 34  1  0  0  0
 34 32  1  0  0  0
 34 35  1  0  0  0
 29 28  1  0  0  0
 29 30  1  0  0  0
 29 32  1  0  0  0
 30 31  1  0  0  0
 28  1  1  0  0  0
  1 18  1  0  0  0
  1  2  1  0  0  0
 18 19  1  0  0  0
 18 23  2  0  0  0
 19 20  2  0  0  0
 20 24  1  0  0  0
 20 21  1  0  0  0
 24 25  1  0  0  0
 21 22  2  0  0  0
 22 26  1  0  0  0
 22 23  1  0  0  0
 26 27  1  0  0  0
  2  3  1  0  0  0
  2 11  2  0  0  0
  3  4  2  0  0  0
  4  5  1  0  0  0
  5  6  1  0  0  0
  5 10  2  0  0  0
  6  7  2  0  0  0
  7  8  1  0  0  0
  8 12  1  0  0  0
  8  9  2  0  0  0
 12 13  1  0  0  0
 12 17  2  0  0  0
 13 14  2  0  0  0
 14 15  1  0  0  0
 15 16  1  0  0  0
 15 17  1  0  0  0
  9 10  1  0  0  0
 10 11  1  0  0  0
M  END
> <minimizedAffinity>
-7.89960

$$$$
