CHEMBL3910653


 38 41  0  0  0  0  0  0  0  0999 V2000
  -28.0466   -7.9248   -5.1621 C   0  0  0  0  0  0  0  0  0  0  0  0
  -27.8427   -6.7947   -4.3678 C   0  0  0  0  0  0  0  0  0  0  0  0
  -28.4436   -5.5752   -4.6965 C   0  0  0  0  0  0  0  0  0  0  0  0
  -29.2788   -5.4675   -5.8109 C   0  0  0  0  0  0  0  0  0  0  0  0
  -29.4451   -6.5825   -6.6362 C   0  0  0  0  0  0  0  0  0  0  0  0
  -28.8453   -7.7932   -6.3011 C   0  0  0  0  0  0  0  0  0  0  0  0
  -29.0385   -8.8547   -7.1008 F   0  0  0  0  0  0  0  0  0  0  0  0
  -25.3527   -8.5710   -4.2863 O   0  0  0  0  0  0  0  0  0  0  0  0
  -26.1750   -9.4469   -4.5289 C   0  0  0  0  0  0  0  0  0  0  0  0
  -25.9007  -10.8057   -4.4929 N   0  0  0  0  0  0  0  0  0  0  0  0
  -27.4775   -9.1959   -4.9056 N   0  0  0  0  0  0  0  0  0  0  0  0
  -26.6071  -11.4201   -4.8679 H   0  0  0  0  0  0  0  0  0  0  0  0
  -28.1216   -9.9737   -4.9579 H   0  0  0  0  0  0  0  0  0  0  0  0
  -24.6453  -11.3858   -4.1971 C   0  0  0  0  0  0  0  0  0  0  0  0
  -24.3334  -11.9603   -2.9621 C   0  0  0  0  0  0  0  0  0  0  0  0
  -23.0589  -12.4658   -2.7058 C   0  0  0  0  0  0  0  0  0  0  0  0
  -22.0803  -12.4207   -3.6920 C   0  0  0  0  0  0  0  0  0  0  0  0
  -22.3754  -11.8829   -4.9518 C   0  0  0  0  0  0  0  0  0  0  0  0
  -23.6643  -11.3686   -5.1952 C   0  0  0  0  0  0  0  0  0  0  0  0
  -21.3316  -11.8515   -6.0390 C   0  0  0  0  0  0  0  0  0  0  0  0
  -20.1654  -12.4658   -5.6965 F   0  0  0  0  0  0  0  0  0  0  0  0
  -21.7556  -12.4643   -7.1790 F   0  0  0  0  0  0  0  0  0  0  0  0
  -20.9944  -10.5829   -6.4010 F   0  0  0  0  0  0  0  0  0  0  0  0
  -29.8467   -4.2130   -6.1179 N   0  0  0  0  0  0  0  0  0  0  0  0
  -30.5625   -3.9786   -5.4322 H   0  0  0  0  0  0  0  0  0  0  0  0
  -29.1481   -3.0754   -6.5829 C   0  0  0  0  0  0  0  0  0  0  0  0
  -28.7312   -2.1011   -5.6816 C   0  0  0  0  0  0  0  0  0  0  0  0
  -28.0851   -0.9869   -6.1786 C   0  0  0  0  0  0  0  0  0  0  0  0
  -27.8522   -0.7800   -7.4882 N   0  0  0  0  0  0  0  0  0  0  0  0
  -28.2876   -1.6967   -8.3664 C   0  0  0  0  0  0  0  0  0  0  0  0
  -28.9425   -2.8494   -7.9511 C   0  0  0  0  0  0  0  0  0  0  0  0
  -28.1086   -1.5018   -9.7434 N   0  0  0  0  0  0  0  0  0  0  0  0
  -26.8835   -1.4513  -10.3735 C   0  0  0  0  0  0  0  0  0  0  0  0
  -25.7769   -1.6008   -9.8806 O   0  0  0  0  0  0  0  0  0  0  0  0
  -28.9360   -1.3551  -10.2995 H   0  0  0  0  0  0  0  0  0  0  0  0
  -26.9928   -1.1360  -11.8332 C   0  0  0  0  0  0  0  0  0  0  0  0
  -27.4734   -2.1842  -12.8133 C   0  0  0  0  0  0  0  0  0  0  0  0
  -26.0246   -1.7959  -12.7901 C   0  0  0  0  0  0  0  0  0  0  0  0
  8  9  2  0  0  0
  9 10  1  0  0  0
  9 11  1  0  0  0
 10 14  1  0  0  0
 10 12  1  0  0  0
 14 15  1  0  0  0
 14 19  2  0  0  0
 15 16  2  0  0  0
 16 17  1  0  0  0
 17 18  2  0  0  0
 18 20  1  0  0  0
 18 19  1  0  0  0
 20 21  1  0  0  0
 20 22  1  0  0  0
 20 23  1  0  0  0
 11  1  1  0  0  0
 11 13  1  0  0  0
  1  2  1  0  0  0
  1  6  2  0  0  0
  2  3  2  0  0  0
  3  4  1  0  0  0
  4 24  1  0  0  0
  4  5  2  0  0  0
 24 26  1  0  0  0
 24 25  1  0  0  0
 26 27  1  0  0  0
 26 31  2  0  0  0
 27 28  2  0  0  0
 28 29  1  0  0  0
 29 30  2  0  0  0
 30 32  1  0  0  0
 30 31  1  0  0  0
 32 33  1  0  0  0
 32 35  1  0  0  0
 33 34  2  0  0  0
 33 36  1  0  0  0
 36 37  1  0  0  0
 36 38  1  0  0  0
 37 38  1  0  0  0
  5  6  1  0  0  0
  6  7  1  0  0  0
M  END
> <minimizedAffinity>
-8.57763

$$$$
