CHEMBL493876


 40 44  0  0  0  0  0  0  0  0999 V2000
  -14.2032   -6.4258  -14.3400 N   0  0  0  0  0  0  0  0  0  0  0  0
  -14.8880   -5.3376  -15.0327 C   0  0  0  0  0  0  0  0  0  0  0  0
  -14.6469   -3.9337  -14.4595 C   0  0  0  0  0  0  0  0  0  0  0  0
  -14.8768   -3.8647  -12.9670 C   0  0  0  0  0  0  0  0  0  0  0  0
  -14.6907   -5.0546  -12.2339 C   0  0  0  0  0  0  0  0  0  0  0  0
  -14.8667   -5.0362  -10.8399 C   0  0  0  0  0  0  0  0  0  0  0  0
  -15.2238   -3.8648  -10.1769 C   0  0  0  0  0  0  0  0  0  0  0  0
  -15.3888   -2.6795  -10.8931 C   0  0  0  0  0  0  0  0  0  0  0  0
  -15.2071   -2.6575  -12.2869 C   0  0  0  0  0  0  0  0  0  0  0  0
  -14.2720   -6.3642  -12.8803 C   0  0  0  0  0  0  0  0  0  0  0  0
  -15.2214   -1.3306  -13.0001 C   0  0  0  0  0  0  0  0  0  0  0  0
  -14.2767   -0.5729  -12.8040 O   0  0  0  0  0  0  0  0  0  0  0  0
  -16.3289   -1.0487  -13.8104 N   0  0  0  0  0  0  0  0  0  0  0  0
  -17.0130   -1.7798  -13.9361 H   0  0  0  0  0  0  0  0  0  0  0  0
  -16.5671    0.1670  -14.5063 C   0  0  0  0  0  0  0  0  0  0  0  0
  -15.6330    0.7678  -15.3543 C   0  0  0  0  0  0  0  0  0  0  0  0
  -15.9319    1.9497  -16.0386 C   0  0  0  0  0  0  0  0  0  0  0  0
  -17.1696    2.5520  -15.8715 C   0  0  0  0  0  0  0  0  0  0  0  0
  -17.4253    3.6777  -16.5500 F   0  0  0  0  0  0  0  0  0  0  0  0
  -18.1185    2.0049  -15.0168 C   0  0  0  0  0  0  0  0  0  0  0  0
  -17.8087    0.8051  -14.3337 C   0  0  0  0  0  0  0  0  0  0  0  0
  -19.4425    2.6764  -14.8229 C   0  0  0  0  0  0  0  0  0  0  0  0
  -20.0592    3.1122  -15.9561 F   0  0  0  0  0  0  0  0  0  0  0  0
  -20.3468    1.8598  -14.2066 F   0  0  0  0  0  0  0  0  0  0  0  0
  -19.3475    3.7738  -14.0151 F   0  0  0  0  0  0  0  0  0  0  0  0
  -12.8929   -6.8069  -14.8886 C   0  0  0  0  0  0  0  0  0  0  0  0
  -13.5282   -6.9889  -20.1604 C   0  0  0  0  0  0  0  0  0  0  0  0
  -13.5549   -8.2892  -19.6429 C   0  0  0  0  0  0  0  0  0  0  0  0
  -13.3463   -8.5633  -18.3004 C   0  0  0  0  0  0  0  0  0  0  0  0
  -13.4193   -9.8493  -17.9293 N   0  0  0  0  0  0  0  0  0  0  0  0
  -13.2692  -10.1396  -16.6257 C   0  0  0  0  0  0  0  0  0  0  0  0
  -13.0844   -9.1866  -15.6491 C   0  0  0  0  0  0  0  0  0  0  0  0
  -13.0176   -7.8307  -16.0147 C   0  0  0  0  0  0  0  0  0  0  0  0
  -13.0932   -7.5044  -17.3988 C   0  0  0  0  0  0  0  0  0  0  0  0
  -12.9344   -6.2106  -17.9476 C   0  0  0  0  0  0  0  0  0  0  0  0
  -13.1535   -5.9462  -19.3097 C   0  0  0  0  0  0  0  0  0  0  0  0
  -12.7313   -6.9411  -22.3911 C   0  0  0  0  0  0  0  0  0  0  0  0
  -13.8101   -6.7247  -21.4763 O   0  0  0  0  0  0  0  0  0  0  0  0
  -12.9099   -4.6438  -19.6506 O   0  0  0  0  0  0  0  0  0  0  0  0
  -13.9861   -3.7228  -19.5366 C   0  0  0  0  0  0  0  0  0  0  0  0
 37 38  1  0  0  0
 38 27  1  0  0  0
 27 28  1  0  0  0
 27 36  2  0  0  0
 28 29  2  0  0  0
 29 30  1  0  0  0
 29 34  1  0  0  0
 30 31  2  0  0  0
 31 32  1  0  0  0
 32 33  2  0  0  0
 33 26  1  0  0  0
 33 34  1  0  0  0
 26  1  1  0  0  0
  1  2  1  0  0  0
  1 10  1  0  0  0
  2  3  1  0  0  0
  3  4  1  0  0  0
  4  5  1  0  0  0
  4  9  2  0  0  0
  5  6  2  0  0  0
  5 10  1  0  0  0
  6  7  1  0  0  0
  7  8  2  0  0  0
  8  9  1  0  0  0
  9 11  1  0  0  0
 11 12  2  0  0  0
 11 13  1  0  0  0
 13 15  1  0  0  0
 13 14  1  0  0  0
 15 16  1  0  0  0
 15 21  2  0  0  0
 16 17  2  0  0  0
 17 18  1  0  0  0
 18 19  1  0  0  0
 18 20  2  0  0  0
 20 22  1  0  0  0
 20 21  1  0  0  0
 22 23  1  0  0  0
 22 24  1  0  0  0
 22 25  1  0  0  0
 34 35  2  0  0  0
 35 36  1  0  0  0
 36 39  1  0  0  0
 39 40  1  0  0  0
M  END
> <minimizedAffinity>
-8.72805

$$$$
