CHEMBL1974328


 31 33  0  0  0  0  0  0  0  0999 V2000
  -16.4077    0.8567  -15.0566 C   0  0  0  0  0  0  0  0  0  0  0  0
  -16.3634   -0.0506  -14.0393 N   0  0  0  0  0  0  0  0  0  0  0  0
  -15.2866   -0.0843  -13.2358 C   0  0  0  0  0  0  0  0  0  0  0  0
  -14.2137    0.7682  -13.4955 C   0  0  0  0  0  0  0  0  0  0  0  0
  -14.1652    1.6457  -14.5329 N   0  0  0  0  0  0  0  0  0  0  0  0
  -15.2855    1.6550  -15.3197 C   0  0  0  0  0  0  0  0  0  0  0  0
  -15.2688    2.6109  -16.4683 C   0  0  0  0  0  0  0  0  0  0  0  0
  -14.3533    2.3753  -17.4557 N   0  0  0  0  0  0  0  0  0  0  0  0
  -16.0405    3.5728  -16.5433 O   0  0  0  0  0  0  0  0  0  0  0  0
  -13.7569    1.5563  -17.4141 H   0  0  0  0  0  0  0  0  0  0  0  0
  -14.3222    2.9854  -18.2636 H   0  0  0  0  0  0  0  0  0  0  0  0
  -17.6204    0.9784  -15.7679 N   0  0  0  0  0  0  0  0  0  0  0  0
  -17.4614    1.2708  -16.7373 H   0  0  0  0  0  0  0  0  0  0  0  0
  -22.2450    0.2923  -14.1459 C   0  0  0  0  0  0  0  0  0  0  0  0
  -21.0881    1.2064  -14.4234 C   0  0  0  0  0  0  0  0  0  0  0  0
  -21.1606    2.5610  -14.0850 C   0  0  0  0  0  0  0  0  0  0  0  0
  -20.0774    3.3999  -14.3220 C   0  0  0  0  0  0  0  0  0  0  0  0
  -18.9108    2.8898  -14.8905 C   0  0  0  0  0  0  0  0  0  0  0  0
  -18.8039    1.5317  -15.2224 C   0  0  0  0  0  0  0  0  0  0  0  0
  -19.9154    0.7060  -15.0126 C   0  0  0  0  0  0  0  0  0  0  0  0
  -15.2413   -1.0172  -12.2195 N   0  0  0  0  0  0  0  0  0  0  0  0
  -14.6001   -0.8995  -11.4479 H   0  0  0  0  0  0  0  0  0  0  0  0
  -16.0032   -2.2621  -12.3561 C   0  0  0  0  0  0  0  0  0  0  0  0
  -15.6207   -2.9249  -13.6929 C   0  0  0  0  0  0  0  0  0  0  0  0
  -16.3069   -4.2736  -13.8851 C   0  0  0  0  0  0  0  0  0  0  0  0
  -16.0068   -5.2187  -12.7295 C   0  0  0  0  0  0  0  0  0  0  0  0
  -16.4002   -4.5964  -11.3926 C   0  0  0  0  0  0  0  0  0  0  0  0
  -15.7210   -3.2352  -11.1715 C   0  0  0  0  0  0  0  0  0  0  0  0
  -16.1550   -2.6995   -9.8695 N   0  0  0  0  0  0  0  0  0  0  0  0
  -17.1659   -2.5394   -9.9041 H   0  0  0  0  0  0  0  0  0  0  0  0
  -15.7742   -1.7568   -9.7734 H   0  0  0  0  0  0  0  0  0  0  0  0
 14 15  1  0  0  0
 15 16  1  0  0  0
 15 20  2  0  0  0
 16 17  2  0  0  0
 17 18  1  0  0  0
 18 19  2  0  0  0
 19 12  1  0  0  0
 19 20  1  0  0  0
 12  1  1  0  0  0
 12 13  1  0  0  0
  1  2  1  0  0  0
  1  6  2  0  0  0
  2  3  2  0  0  0
  3 21  1  0  0  0
  3  4  1  0  0  0
 21 23  1  0  0  0
 21 22  1  0  0  0
 23 24  1  0  0  0
 23 28  1  0  0  0
 24 25  1  0  0  0
 25 26  1  0  0  0
 26 27  1  0  0  0
 27 28  1  0  0  0
 28 29  1  0  0  0
 29 30  1  0  0  0
 29 31  1  0  0  0
  4  5  2  0  0  0
  5  6  1  0  0  0
  6  7  1  0  0  0
  7  8  1  0  0  0
  7  9  2  0  0  0
  8 10  1  0  0  0
  8 11  1  0  0  0
M  END
> <minimizedAffinity>
-8.54369

$$$$
