CHEMBL3969695


 36 40  0  0  0  0  0  0  0  0999 V2000
  -30.8507   -5.5711   -6.0077 O   0  0  0  0  0  0  0  0  0  0  0  0
  -29.9187   -5.5439   -6.8114 C   0  0  0  0  0  0  0  0  0  0  0  0
  -29.4851   -6.8184   -7.4662 C   0  0  0  0  0  0  0  0  0  0  0  0
  -30.3365   -7.9059   -7.7356 C   0  0  0  0  0  0  0  0  0  0  0  0
  -29.8564   -9.0909   -8.3421 C   0  0  0  0  0  0  0  0  0  0  0  0
  -28.5507   -9.0795   -8.8669 C   0  0  0  0  0  0  0  0  0  0  0  0
  -27.6327   -9.9332   -9.5675 C   0  0  0  0  0  0  0  0  0  0  0  0
  -27.0222   -9.1432  -10.4755 N   0  0  0  0  0  0  0  0  0  0  0  0
  -26.8893   -8.0040   -9.7714 N   0  0  0  0  0  0  0  0  0  0  0  0
  -27.8399   -7.8861   -8.7934 C   0  0  0  0  0  0  0  0  0  0  0  0
  -28.1765   -6.8242   -7.9638 C   0  0  0  0  0  0  0  0  0  0  0  0
  -26.2269   -7.3091  -10.0909 H   0  0  0  0  0  0  0  0  0  0  0  0
  -26.7390  -10.9390   -9.0149 C   0  0  0  0  0  0  0  0  0  0  0  0
  -26.2104  -10.8814   -7.7762 C   0  0  0  0  0  0  0  0  0  0  0  0
  -24.8060  -11.2656   -7.5008 C   0  0  0  0  0  0  0  0  0  0  0  0
  -24.0685  -10.5682   -6.5487 C   0  0  0  0  0  0  0  0  0  0  0  0
  -22.6927  -10.7914   -6.4545 C   0  0  0  0  0  0  0  0  0  0  0  0
  -22.0829  -11.6915   -7.3195 C   0  0  0  0  0  0  0  0  0  0  0  0
  -22.8841  -12.3461   -8.2406 C   0  0  0  0  0  0  0  0  0  0  0  0
  -24.2212  -12.1555   -8.3424 N   0  0  0  0  0  0  0  0  0  0  0  0
  -29.2491   -4.2437   -7.0371 C   0  0  0  0  0  0  0  0  0  0  0  0
  -29.2555   -3.3213   -5.9846 C   0  0  0  0  0  0  0  0  0  0  0  0
  -28.6046   -2.1007   -6.1345 C   0  0  0  0  0  0  0  0  0  0  0  0
  -27.9255   -1.8127   -7.3202 C   0  0  0  0  0  0  0  0  0  0  0  0
  -27.9215   -2.7246   -8.3783 C   0  0  0  0  0  0  0  0  0  0  0  0
  -28.6396   -3.9182   -8.2515 C   0  0  0  0  0  0  0  0  0  0  0  0
  -27.1920   -2.5394   -9.5702 N   0  0  0  0  0  0  0  0  0  0  0  0
  -27.4565   -1.6423  -10.5757 C   0  0  0  0  0  0  0  0  0  0  0  0
  -28.4119   -0.8816  -10.6015 O   0  0  0  0  0  0  0  0  0  0  0  0
  -26.3142   -3.0385   -9.6470 H   0  0  0  0  0  0  0  0  0  0  0  0
  -26.4765   -1.6000  -11.6614 C   0  0  0  0  0  0  0  0  0  0  0  0
  -26.7378   -1.7766  -13.0117 C   0  0  0  0  0  0  0  0  0  0  0  0
  -25.5645   -1.6701  -13.8127 C   0  0  0  0  0  0  0  0  0  0  0  0
  -24.4649   -1.4106  -13.0388 C   0  0  0  0  0  0  0  0  0  0  0  0
  -22.8523   -1.1991  -13.5831 Cl  0  0  0  0  0  0  0  0  0  0  0  0
  -24.8098   -1.3018  -11.3865 S   0  0  0  0  0  0  0  0  0  0  0  0
  1  2  2  0  0  0
  2 21  1  0  0  0
  2  3  1  0  0  0
 21 22  1  0  0  0
 21 26  2  0  0  0
 22 23  2  0  0  0
 23 24  1  0  0  0
 24 25  2  0  0  0
 25 27  1  0  0  0
 25 26  1  0  0  0
 27 28  1  0  0  0
 27 30  1  0  0  0
 28 29  2  0  0  0
 28 31  1  0  0  0
 31 32  2  0  0  0
 31 36  1  0  0  0
 32 33  1  0  0  0
 33 34  2  0  0  0
 34 35  1  0  0  0
 34 36  1  0  0  0
  3  4  1  0  0  0
  3 11  2  0  0  0
  4  5  2  0  0  0
  5  6  1  0  0  0
  6  7  1  0  0  0
  6 10  2  0  0  0
  7 13  1  0  0  0
  7  8  2  0  0  0
 13 14  2  0  0  0
 14 15  1  0  0  0
 15 16  1  0  0  0
 15 20  2  0  0  0
 16 17  2  0  0  0
 17 18  1  0  0  0
 18 19  2  0  0  0
 19 20  1  0  0  0
  8  9  1  0  0  0
  9 10  1  0  0  0
  9 12  1  0  0  0
 10 11  1  0  0  0
M  END
> <minimizedAffinity>
-10.30029

$$$$
