CHEMBL1934322


 40 44  0  0  0  0  0  0  0  0999 V2000
  -30.4781   -5.1268   -5.6852 N   0  0  0  0  0  0  0  0  0  0  0  0
  -31.4071   -4.9995   -6.0636 H   0  0  0  0  0  0  0  0  0  0  0  0
  -27.4792   -1.9346   -8.3777 C   0  0  0  0  0  0  0  0  0  0  0  0
  -27.9339   -3.2145   -8.6710 C   0  0  0  0  0  0  0  0  0  0  0  0
  -28.7272   -3.8985   -7.7487 C   0  0  0  0  0  0  0  0  0  0  0  0
  -29.0548   -3.3101   -6.4902 C   0  0  0  0  0  0  0  0  0  0  0  0
  -29.8304   -3.8850   -5.4653 C   0  0  0  0  0  0  0  0  0  0  0  0
  -30.0387   -3.2322   -4.3061 N   0  0  0  0  0  0  0  0  0  0  0  0
  -29.5274   -2.0084   -4.1661 C   0  0  0  0  0  0  0  0  0  0  0  0
  -28.8097   -1.3649   -5.0762 N   0  0  0  0  0  0  0  0  0  0  0  0
  -28.5787   -2.0264   -6.2128 C   0  0  0  0  0  0  0  0  0  0  0  0
  -27.8296   -1.3591   -7.1537 C   0  0  0  0  0  0  0  0  0  0  0  0
  -26.7101   -1.3138   -9.3324 O   0  0  0  0  0  0  0  0  0  0  0  0
  -26.6111   -2.0481  -10.5552 C   0  0  0  0  0  0  0  0  0  0  0  0
  -22.9312   -1.1215  -13.3502 C   0  0  0  0  0  0  0  0  0  0  0  0
  -24.3659   -0.8644  -13.1975 N   0  0  0  0  0  0  0  0  0  0  0  0
  -25.1162   -2.1250  -13.2881 C   0  0  0  0  0  0  0  0  0  0  0  0
  -26.6193   -1.9084  -13.0966 C   0  0  0  0  0  0  0  0  0  0  0  0
  -26.9325   -1.1896  -11.7814 C   0  0  0  0  0  0  0  0  0  0  0  0
  -26.1178    0.1119  -11.7222 C   0  0  0  0  0  0  0  0  0  0  0  0
  -24.6193   -0.1305  -11.9518 C   0  0  0  0  0  0  0  0  0  0  0  0
  -29.8862   -6.3447   -6.0889 C   0  0  0  0  0  0  0  0  0  0  0  0
  -28.8879   -6.9733   -5.3348 C   0  0  0  0  0  0  0  0  0  0  0  0
  -28.2809   -8.1533   -5.7604 C   0  0  0  0  0  0  0  0  0  0  0  0
  -28.6855   -8.7709   -6.9440 C   0  0  0  0  0  0  0  0  0  0  0  0
  -29.7309   -8.1944   -7.6756 C   0  0  0  0  0  0  0  0  0  0  0  0
  -30.3321   -6.9991   -7.2446 C   0  0  0  0  0  0  0  0  0  0  0  0
  -27.9084   -9.9590   -7.4517 C   0  0  0  0  0  0  0  0  0  0  0  0
  -26.8523  -10.5225   -6.5296 C   0  0  0  0  0  0  0  0  0  0  0  0
  -27.1108  -11.4819   -5.8002 O   0  0  0  0  0  0  0  0  0  0  0  0
  -25.6059   -9.9190   -6.6194 N   0  0  0  0  0  0  0  0  0  0  0  0
  -25.6152   -8.9394   -6.8822 H   0  0  0  0  0  0  0  0  0  0  0  0
  -24.5209  -10.3784   -5.8470 C   0  0  0  0  0  0  0  0  0  0  0  0
  -24.4979  -10.2161   -4.4539 C   0  0  0  0  0  0  0  0  0  0  0  0
  -23.3879  -10.6311   -3.7137 C   0  0  0  0  0  0  0  0  0  0  0  0
  -22.2971  -11.1811   -4.3755 C   0  0  0  0  0  0  0  0  0  0  0  0
  -21.2135  -11.5403   -3.6726 F   0  0  0  0  0  0  0  0  0  0  0  0
  -22.3254  -11.3508   -5.7553 C   0  0  0  0  0  0  0  0  0  0  0  0
  -21.2578  -11.8516   -6.3928 F   0  0  0  0  0  0  0  0  0  0  0  0
  -23.4469  -10.9827   -6.4952 C   0  0  0  0  0  0  0  0  0  0  0  0
 15 16  1  0  0  0
 16 17  1  0  0  0
 16 21  1  0  0  0
 17 18  1  0  0  0
 18 19  1  0  0  0
 19 14  1  0  0  0
 19 20  1  0  0  0
 14 13  1  0  0  0
 13  3  1  0  0  0
  3  4  1  0  0  0
  3 12  2  0  0  0
  4  5  2  0  0  0
  5  6  1  0  0  0
  6  7  1  0  0  0
  6 11  2  0  0  0
  7  1  1  0  0  0
  7  8  2  0  0  0
  1 22  1  0  0  0
  1  2  1  0  0  0
 22 23  1  0  0  0
 22 27  2  0  0  0
 23 24  2  0  0  0
 24 25  1  0  0  0
 25 28  1  0  0  0
 25 26  2  0  0  0
 28 29  1  0  0  0
 29 30  2  0  0  0
 29 31  1  0  0  0
 31 33  1  0  0  0
 31 32  1  0  0  0
 33 34  1  0  0  0
 33 40  2  0  0  0
 34 35  2  0  0  0
 35 36  1  0  0  0
 36 37  1  0  0  0
 36 38  2  0  0  0
 38 39  1  0  0  0
 38 40  1  0  0  0
 26 27  1  0  0  0
  8  9  1  0  0  0
  9 10  2  0  0  0
 10 11  1  0  0  0
 11 12  1  0  0  0
 20 21  1  0  0  0
M  END
> <minimizedAffinity>
-9.87635

$$$$
