CHEMBL118400


 31 35  0  0  0  0  0  0  0  0999 V2000
  -21.4422    1.5268  -14.3878 N   0  0  0  0  0  0  0  0  0  0  0  0
  -20.5866    0.6181  -14.9738 C   0  0  0  0  0  0  0  0  0  0  0  0
  -19.3236    0.9102  -15.2681 C   0  0  0  0  0  0  0  0  0  0  0  0
  -18.8455    2.2711  -15.1747 C   0  0  0  0  0  0  0  0  0  0  0  0
  -19.7373    3.2226  -14.8483 C   0  0  0  0  0  0  0  0  0  0  0  0
  -21.1177    2.8900  -14.4030 C   0  0  0  0  0  0  0  0  0  0  0  0
  -21.8687    3.8020  -14.0643 O   0  0  0  0  0  0  0  0  0  0  0  0
  -17.4831    2.6147  -15.5409 C   0  0  0  0  0  0  0  0  0  0  0  0
  -16.4505    1.5531  -15.8664 C   0  0  0  0  0  0  0  0  0  0  0  0
  -15.1657    1.7391  -16.0012 N   0  0  0  0  0  0  0  0  0  0  0  0
  -14.7936    3.0580  -16.0349 C   0  0  0  0  0  0  0  0  0  0  0  0
  -13.6385    3.7527  -16.3887 C   0  0  0  0  0  0  0  0  0  0  0  0
  -14.1670    4.4622  -17.4948 C   0  0  0  0  0  0  0  0  0  0  0  0
  -15.4051    4.8840  -17.2069 N   0  0  0  0  0  0  0  0  0  0  0  0
  -15.7692    4.0486  -16.2081 N   0  0  0  0  0  0  0  0  0  0  0  0
  -17.0435    3.8650  -15.7229 C   0  0  0  0  0  0  0  0  0  0  0  0
  -12.7576    4.5679  -15.4858 C   0  0  0  0  0  0  0  0  0  0  0  0
  -11.9777    3.9479  -14.4590 C   0  0  0  0  0  0  0  0  0  0  0  0
  -11.0748    4.8094  -13.8825 C   0  0  0  0  0  0  0  0  0  0  0  0
  -11.1999    6.3837  -14.5314 S   0  0  0  0  0  0  0  0  0  0  0  0
  -12.4411    5.9052  -15.6231 C   0  0  0  0  0  0  0  0  0  0  0  0
  -22.7061    1.0910  -13.7752 C   0  0  0  0  0  0  0  0  0  0  0  0
  -22.5761    0.2039  -12.5042 C   0  0  0  0  0  0  0  0  0  0  0  0
  -23.9184   -0.0697  -11.8077 C   0  0  0  0  0  0  0  0  0  0  0  0
  -27.8668   -1.7754  -14.0731 C   0  0  0  0  0  0  0  0  0  0  0  0
  -26.8084   -2.0502  -13.1073 N   0  0  0  0  0  0  0  0  0  0  0  0
  -25.4736   -1.9998  -13.7265 C   0  0  0  0  0  0  0  0  0  0  0  0
  -24.3604   -2.3231  -12.6954 C   0  0  0  0  0  0  0  0  0  0  0  0
  -24.3255   -1.4482  -11.4980 N   0  0  0  0  0  0  0  0  0  0  0  0
  -25.7125   -1.4138  -10.9311 C   0  0  0  0  0  0  0  0  0  0  0  0
  -26.8643   -1.1434  -11.9504 C   0  0  0  0  0  0  0  0  0  0  0  0
 25 26  1  0  0  0
 26 27  1  0  0  0
 26 31  1  0  0  0
 27 28  1  0  0  0
 28 29  1  0  0  0
 29 24  1  0  0  0
 29 30  1  0  0  0
 24 23  1  0  0  0
 23 22  1  0  0  0
 22  1  1  0  0  0
  1  2  1  0  0  0
  1  6  1  0  0  0
  2  3  2  0  0  0
  3  4  1  0  0  0
  4  8  1  0  0  0
  4  5  2  0  0  0
  8  9  1  0  0  0
  8 16  2  0  0  0
  9 10  2  0  0  0
 10 11  1  0  0  0
 11 12  2  0  0  0
 11 15  1  0  0  0
 12 17  1  0  0  0
 12 13  1  0  0  0
 17 18  1  0  0  0
 17 21  2  0  0  0
 18 19  2  0  0  0
 19 20  1  0  0  0
 20 21  1  0  0  0
 13 14  2  0  0  0
 14 15  1  0  0  0
 15 16  1  0  0  0
  5  6  1  0  0  0
  6  7  2  0  0  0
 30 31  1  0  0  0
M  END
> <minimizedAffinity>
-9.18688

$$$$
