CHEMBL3648099


 28 29  0  0  0  0  0  0  0  0999 V2000
  -28.4118   -2.0934   -9.7704 N   0  0  0  0  0  0  0  0  0  0  0  0
  -29.1257   -1.3755   -9.7827 H   0  0  0  0  0  0  0  0  0  0  0  0
  -28.2818   -2.5367   -8.4511 C   0  0  0  0  0  0  0  0  0  0  0  0
  -27.8004   -1.6863   -7.5312 N   0  0  0  0  0  0  0  0  0  0  0  0
  -27.7117   -2.1293   -6.2695 C   0  0  0  0  0  0  0  0  0  0  0  0
  -28.0734   -3.3972   -5.8989 C   0  0  0  0  0  0  0  0  0  0  0  0
  -28.0103   -3.8947   -4.0786 Br  0  0  0  0  0  0  0  0  0  0  0  0
  -28.5458   -4.2346   -6.9080 C   0  0  0  0  0  0  0  0  0  0  0  0
  -28.6451   -3.8074   -8.1844 N   0  0  0  0  0  0  0  0  0  0  0  0
  -28.8293   -5.5864   -6.6009 N   0  0  0  0  0  0  0  0  0  0  0  0
  -29.4081   -5.5944   -5.7601 H   0  0  0  0  0  0  0  0  0  0  0  0
  -29.4366   -6.4090   -7.6666 C   0  0  0  0  0  0  0  0  0  0  0  0
  -30.5783   -7.2104   -7.0202 C   0  0  0  0  0  0  0  0  0  0  0  0
  -28.4163   -7.3829   -8.2890 C   0  0  0  0  0  0  0  0  0  0  0  0
  -27.4641   -6.6868   -9.0947 O   0  0  0  0  0  0  0  0  0  0  0  0
  -27.9955   -6.0799   -9.6448 H   0  0  0  0  0  0  0  0  0  0  0  0
  -25.3040   -1.1895  -12.4659 C   0  0  0  0  0  0  0  0  0  0  0  0
  -26.5714   -1.5297  -12.9395 C   0  0  0  0  0  0  0  0  0  0  0  0
  -27.5905   -1.8292  -12.0318 C   0  0  0  0  0  0  0  0  0  0  0  0
  -27.3464   -1.8233  -10.6532 C   0  0  0  0  0  0  0  0  0  0  0  0
  -26.0644   -1.4724  -10.2012 C   0  0  0  0  0  0  0  0  0  0  0  0
  -25.0426   -1.1617  -11.1008 C   0  0  0  0  0  0  0  0  0  0  0  0
  -23.2642    0.6596  -13.1783 C   0  0  0  0  0  0  0  0  0  0  0  0
  -24.0813   -0.7813  -13.6190 S   0  0  0  0  0  0  0  0  0  0  0  0
  -24.5194   -0.8788  -15.2123 N   0  0  0  0  0  0  0  0  0  0  0  0
  -23.0227   -1.7312  -13.3838 O   0  0  0  0  0  0  0  0  0  0  0  0
  -23.6855   -0.8170  -15.7885 H   0  0  0  0  0  0  0  0  0  0  0  0
  -25.1236   -0.1080  -15.4743 H   0  0  0  0  0  0  0  0  0  0  0  0
 23 24  2  0  0  0
 24 25  1  0  0  0
 24 26  2  0  0  0
 24 17  1  0  0  0
 25 27  1  0  0  0
 25 28  1  0  0  0
 17 18  1  0  0  0
 17 22  2  0  0  0
 18 19  2  0  0  0
 19 20  1  0  0  0
 20  1  1  0  0  0
 20 21  2  0  0  0
  1  3  1  0  0  0
  1  2  1  0  0  0
  3  4  1  0  0  0
  3  9  2  0  0  0
  4  5  2  0  0  0
  5  6  1  0  0  0
  6  7  1  0  0  0
  6  8  2  0  0  0
  8 10  1  0  0  0
  8  9  1  0  0  0
 10 11  1  0  0  0
 12 14  1  0  0  0
 12 13  1  0  0  0
 12 10  1  0  0  0
 14 15  1  0  0  0
 15 16  1  0  0  0
 21 22  1  0  0  0
M  END
> <minimizedAffinity>
-7.29134

$$$$
