CHEMBL571278


 38 42  0  0  0  0  0  0  0  0999 V2000
  -29.3487   -5.8576   -5.9263 C   0  0  0  0  0  0  0  0  0  0  0  0
  -28.3323   -5.7419   -5.0430 N   0  0  0  0  0  0  0  0  0  0  0  0
  -27.7813   -6.8704   -4.5698 C   0  0  0  0  0  0  0  0  0  0  0  0
  -28.2327   -8.1392   -4.8877 C   0  0  0  0  0  0  0  0  0  0  0  0
  -29.3147   -8.3002   -5.7780 C   0  0  0  0  0  0  0  0  0  0  0  0
  -29.8737   -9.5822   -6.1226 C   0  0  0  0  0  0  0  0  0  0  0  0
  -30.9014   -9.6526   -7.0915 C   0  0  0  0  0  0  0  0  0  0  0  0
  -31.5771  -10.9216   -7.5348 C   0  0  0  0  0  0  0  0  0  0  0  0
  -31.3649   -8.4756   -7.6889 C   0  0  0  0  0  0  0  0  0  0  0  0
  -30.8773   -7.2358   -7.3024 C   0  0  0  0  0  0  0  0  0  0  0  0
  -29.8505   -7.1178   -6.3474 C   0  0  0  0  0  0  0  0  0  0  0  0
  -29.9315   -4.6736   -6.4502 N   0  0  0  0  0  0  0  0  0  0  0  0
  -30.7434   -4.9123   -7.0043 H   0  0  0  0  0  0  0  0  0  0  0  0
  -28.4196   -1.2773   -6.4829 C   0  0  0  0  0  0  0  0  0  0  0  0
  -27.7986   -1.2620   -7.7317 C   0  0  0  0  0  0  0  0  0  0  0  0
  -27.8981   -2.3709   -8.5679 C   0  0  0  0  0  0  0  0  0  0  0  0
  -28.6216   -3.4904   -8.1540 C   0  0  0  0  0  0  0  0  0  0  0  0
  -29.2578   -3.5225   -6.9054 C   0  0  0  0  0  0  0  0  0  0  0  0
  -29.1336   -2.4066   -6.0662 C   0  0  0  0  0  0  0  0  0  0  0  0
  -28.2362    0.8242   -4.9067 C   0  0  0  0  0  0  0  0  0  0  0  0
  -28.3279   -0.1351   -5.6328 C   0  0  0  0  0  0  0  0  0  0  0  0
  -29.3898  -10.7320   -5.4577 N   0  0  0  0  0  0  0  0  0  0  0  0
  -30.0954  -11.4333   -5.2369 H   0  0  0  0  0  0  0  0  0  0  0  0
  -28.0928  -11.1624   -5.1214 C   0  0  0  0  0  0  0  0  0  0  0  0
  -27.7188  -11.1105   -3.8171 N   0  0  0  0  0  0  0  0  0  0  0  0
  -26.4428  -11.3982   -3.4936 C   0  0  0  0  0  0  0  0  0  0  0  0
  -25.5019  -11.8145   -4.4074 C   0  0  0  0  0  0  0  0  0  0  0  0
  -25.8899  -11.9072   -5.7377 C   0  0  0  0  0  0  0  0  0  0  0  0
  -27.1873  -11.5288   -6.1447 C   0  0  0  0  0  0  0  0  0  0  0  0
  -27.5130  -11.4009   -7.5864 C   0  0  0  0  0  0  0  0  0  0  0  0
  -27.0875  -10.3051   -8.3213 C   0  0  0  0  0  0  0  0  0  0  0  0
  -27.5461  -10.1635   -9.6123 C   0  0  0  0  0  0  0  0  0  0  0  0
  -28.3452  -11.0823  -10.1685 N   0  0  0  0  0  0  0  0  0  0  0  0
  -28.6840  -12.1310   -9.4042 C   0  0  0  0  0  0  0  0  0  0  0  0
  -28.3170  -12.3412   -8.1302 N   0  0  0  0  0  0  0  0  0  0  0  0
  -27.1549   -9.1263  -10.4386 N   0  0  0  0  0  0  0  0  0  0  0  0
  -27.0609   -9.2798  -11.8758 C   0  0  0  0  0  0  0  0  0  0  0  0
  -26.3568   -8.6642  -10.0076 H   0  0  0  0  0  0  0  0  0  0  0  0
 20 21  3  0  0  0
 21 14  1  0  0  0
 14 15  1  0  0  0
 14 19  2  0  0  0
 15 16  2  0  0  0
 16 17  1  0  0  0
 17 18  2  0  0  0
 18 12  1  0  0  0
 18 19  1  0  0  0
 12  1  1  0  0  0
 12 13  1  0  0  0
  1  2  1  0  0  0
  1 11  2  0  0  0
  2  3  2  0  0  0
  3  4  1  0  0  0
  4  5  2  0  0  0
  5  6  1  0  0  0
  5 11  1  0  0  0
  6 22  1  0  0  0
  6  7  2  0  0  0
 22 24  1  0  0  0
 22 23  1  0  0  0
 24 25  1  0  0  0
 24 29  2  0  0  0
 25 26  2  0  0  0
 26 27  1  0  0  0
 27 28  2  0  0  0
 28 29  1  0  0  0
 29 30  1  0  0  0
 30 31  1  0  0  0
 30 35  2  0  0  0
 31 32  2  0  0  0
 32 36  1  0  0  0
 32 33  1  0  0  0
 36 37  1  0  0  0
 36 38  1  0  0  0
 33 34  2  0  0  0
 34 35  1  0  0  0
  7  8  1  0  0  0
  7  9  1  0  0  0
  9 10  2  0  0  0
 10 11  1  0  0  0
M  END
> <minimizedAffinity>
-8.41633

$$$$
