CHEMBL3098318


 28 31  0  0  0  0  0  0  0  0999 V2000
  -29.5739   -5.4073   -7.4028 N   0  0  0  0  0  0  0  0  0  0  0  0
  -28.8013   -5.0138   -7.9274 H   0  0  0  0  0  0  0  0  0  0  0  0
  -29.7215   -4.7736   -6.1362 C   0  0  0  0  0  0  0  0  0  0  0  0
  -30.3358   -5.5079   -5.1880 N   0  0  0  0  0  0  0  0  0  0  0  0
  -30.7005   -4.8985   -4.0716 C   0  0  0  0  0  0  0  0  0  0  0  0
  -31.7475   -5.7600   -3.0392 Cl  0  0  0  0  0  0  0  0  0  0  0  0
  -30.5133   -3.6286   -3.7695 N   0  0  0  0  0  0  0  0  0  0  0  0
  -29.8742   -2.9106   -4.6751 C   0  0  0  0  0  0  0  0  0  0  0  0
  -29.7759   -1.5805   -4.3377 C   0  0  0  0  0  0  0  0  0  0  0  0
  -29.1243   -0.7261   -5.1787 C   0  0  0  0  0  0  0  0  0  0  0  0
  -28.5262   -1.1648   -6.3313 C   0  0  0  0  0  0  0  0  0  0  0  0
  -28.6481   -2.4864   -6.7475 C   0  0  0  0  0  0  0  0  0  0  0  0
  -29.3748   -3.4076   -5.9123 C   0  0  0  0  0  0  0  0  0  0  0  0
  -27.8475   -0.1467   -6.9371 O   0  0  0  0  0  0  0  0  0  0  0  0
  -27.9761    0.9016   -5.9388 C   0  0  0  0  0  0  0  0  0  0  0  0
  -28.9809    0.6055   -4.9588 O   0  0  0  0  0  0  0  0  0  0  0  0
  -30.0973   -9.5941   -8.0749 C   0  0  0  0  0  0  0  0  0  0  0  0
  -31.1764   -8.8235   -7.6609 C   0  0  0  0  0  0  0  0  0  0  0  0
  -30.9994   -7.4461   -7.4723 C   0  0  0  0  0  0  0  0  0  0  0  0
  -29.7465   -6.8123   -7.6271 C   0  0  0  0  0  0  0  0  0  0  0  0
  -28.6806   -7.6149   -8.0609 C   0  0  0  0  0  0  0  0  0  0  0  0
  -28.8506   -8.9975   -8.2787 C   0  0  0  0  0  0  0  0  0  0  0  0
  -31.9443  -11.4003   -8.8203 N   0  0  0  0  0  0  0  0  0  0  0  0
  -30.3247  -11.3231   -8.3895 S   0  0  0  0  0  0  0  0  0  0  0  0
  -30.1971  -12.0285   -7.1264 O   0  0  0  0  0  0  0  0  0  0  0  0
  -29.5905  -11.6963   -9.5737 O   0  0  0  0  0  0  0  0  0  0  0  0
  -32.4223  -12.1041   -8.2545 H   0  0  0  0  0  0  0  0  0  0  0  0
  -32.0314  -11.5545   -9.8252 H   0  0  0  0  0  0  0  0  0  0  0  0
 23 24  1  0  0  0
 23 27  1  0  0  0
 23 28  1  0  0  0
 24 25  2  0  0  0
 24 26  2  0  0  0
 24 17  1  0  0  0
 17 18  1  0  0  0
 17 22  2  0  0  0
 18 19  2  0  0  0
 19 20  1  0  0  0
 20  1  1  0  0  0
 20 21  2  0  0  0
  1  3  1  0  0  0
  1  2  1  0  0  0
  3  4  1  0  0  0
  3 13  2  0  0  0
  4  5  2  0  0  0
  5  6  1  0  0  0
  5  7  1  0  0  0
  7  8  2  0  0  0
  8  9  1  0  0  0
  8 13  1  0  0  0
  9 10  2  0  0  0
 10 11  1  0  0  0
 10 16  1  0  0  0
 11 12  2  0  0  0
 11 14  1  0  0  0
 12 13  1  0  0  0
 14 15  1  0  0  0
 15 16  1  0  0  0
 21 22  1  0  0  0
M  END
> <minimizedAffinity>
-8.39207

$$$$
