CHEMBL3893344


 33 36  0  0  0  0  0  0  0  0999 V2000
  -21.3126    1.3781  -14.1326 C   0  0  0  0  0  0  0  0  0  0  0  0
  -21.5356    2.7269  -14.3603 C   0  0  0  0  0  0  0  0  0  0  0  0
  -20.5767    3.5670  -14.8424 N   0  0  0  0  0  0  0  0  0  0  0  0
  -19.3672    3.0143  -15.0973 C   0  0  0  0  0  0  0  0  0  0  0  0
  -18.3181    3.7633  -15.6107 C   0  0  0  0  0  0  0  0  0  0  0  0
  -17.0747    3.1753  -15.9099 C   0  0  0  0  0  0  0  0  0  0  0  0
  -16.8203    1.8176  -15.6608 C   0  0  0  0  0  0  0  0  0  0  0  0
  -17.8731    1.1199  -15.0610 C   0  0  0  0  0  0  0  0  0  0  0  0
  -19.1344    1.6536  -14.8337 C   0  0  0  0  0  0  0  0  0  0  0  0
  -20.0932    0.8389  -14.3559 N   0  0  0  0  0  0  0  0  0  0  0  0
  -24.1107   -0.8366  -13.6171 N   0  0  0  0  0  0  0  0  0  0  0  0
  -23.3765   -0.0159  -14.4218 C   0  0  0  0  0  0  0  0  0  0  0  0
  -22.3406    0.4712  -13.6485 C   0  0  0  0  0  0  0  0  0  0  0  0
  -22.5694   -0.1045  -12.3816 C   0  0  0  0  0  0  0  0  0  0  0  0
  -23.6411   -0.9034  -12.3573 N   0  0  0  0  0  0  0  0  0  0  0  0
  -26.3470   -1.5878  -12.9086 C   0  0  0  0  0  0  0  0  0  0  0  0
  -25.2813   -1.6051  -13.9927 C   0  0  0  0  0  0  0  0  0  0  0  0
  -15.5561    1.2473  -15.9336 N   0  0  0  0  0  0  0  0  0  0  0  0
  -14.8370    1.4512  -17.1576 C   0  0  0  0  0  0  0  0  0  0  0  0
  -14.4080    0.3380  -17.9076 C   0  0  0  0  0  0  0  0  0  0  0  0
  -13.7117    0.4851  -19.1109 C   0  0  0  0  0  0  0  0  0  0  0  0
  -13.4342    1.7631  -19.5948 C   0  0  0  0  0  0  0  0  0  0  0  0
  -13.8526    2.8877  -18.8890 C   0  0  0  0  0  0  0  0  0  0  0  0
  -14.5363    2.7242  -17.6766 C   0  0  0  0  0  0  0  0  0  0  0  0
  -13.2623   -0.5326  -19.9037 O   0  0  0  0  0  0  0  0  0  0  0  0
  -13.2179   -1.8306  -19.3182 C   0  0  0  0  0  0  0  0  0  0  0  0
  -13.6646    4.1881  -19.2735 O   0  0  0  0  0  0  0  0  0  0  0  0
  -14.6490    5.1342  -18.8683 C   0  0  0  0  0  0  0  0  0  0  0  0
  -14.8270    0.3362  -14.9780 C   0  0  0  0  0  0  0  0  0  0  0  0
  -14.4748    0.8825  -13.5841 C   0  0  0  0  0  0  0  0  0  0  0  0
  -15.2947    0.4050  -12.4539 N   0  0  0  0  0  0  0  0  0  0  0  0
  -15.5794   -1.0170  -12.6737 C   0  0  0  0  0  0  0  0  0  0  0  0
  -16.1813    0.9125  -12.4523 H   0  0  0  0  0  0  0  0  0  0  0  0
 16 17  1  0  0  0
 17 11  1  0  0  0
 11 12  1  0  0  0
 11 15  1  0  0  0
 12 13  2  0  0  0
 13  1  1  0  0  0
 13 14  1  0  0  0
  1  2  1  0  0  0
  1 10  2  0  0  0
  2  3  2  0  0  0
  3  4  1  0  0  0
  4  5  1  0  0  0
  4  9  2  0  0  0
  5  6  2  0  0  0
  6  7  1  0  0  0
  7 18  1  0  0  0
  7  8  2  0  0  0
 18 29  1  0  0  0
 18 19  1  0  0  0
 29 30  1  0  0  0
 30 31  1  0  0  0
 31 32  1  0  0  0
 31 33  1  0  0  0
 19 20  1  0  0  0
 19 24  2  0  0  0
 20 21  2  0  0  0
 21 25  1  0  0  0
 21 22  1  0  0  0
 25 26  1  0  0  0
 22 23  2  0  0  0
 23 27  1  0  0  0
 23 24  1  0  0  0
 27 28  1  0  0  0
  8  9  1  0  0  0
  9 10  1  0  0  0
 14 15  2  0  0  0
M  END
> <minimizedAffinity>
-8.41929

$$$$
