CHEMBL427687


 40 45  0  0  0  0  0  0  0  0999 V2000
  -28.4682   -2.1988   -7.5244 C   0  0  0  0  0  0  0  0  0  0  0  0
  -27.8438   -1.4307   -8.5068 C   0  0  0  0  0  0  0  0  0  0  0  0
  -27.6724   -0.1511   -8.0761 O   0  0  0  0  0  0  0  0  0  0  0  0
  -28.2529   -0.0553   -6.8472 C   0  0  0  0  0  0  0  0  0  0  0  0
  -28.3131    1.1069   -6.1714 N   0  0  0  0  0  0  0  0  0  0  0  0
  -28.9717    1.0036   -5.0017 C   0  0  0  0  0  0  0  0  0  0  0  0
  -29.5201   -0.1594   -4.4802 C   0  0  0  0  0  0  0  0  0  0  0  0
  -29.3734   -1.3741   -5.1601 C   0  0  0  0  0  0  0  0  0  0  0  0
  -28.7494   -1.2962   -6.4385 C   0  0  0  0  0  0  0  0  0  0  0  0
  -29.4232   -6.3539   -7.8920 C   0  0  0  0  0  0  0  0  0  0  0  0
  -30.4143   -5.4455   -7.5316 C   0  0  0  0  0  0  0  0  0  0  0  0
  -30.1226   -4.0800   -7.5001 C   0  0  0  0  0  0  0  0  0  0  0  0
  -28.8121   -3.6157   -7.6830 C   0  0  0  0  0  0  0  0  0  0  0  0
  -27.8189   -4.5639   -7.9615 C   0  0  0  0  0  0  0  0  0  0  0  0
  -28.1321   -5.9132   -8.1253 C   0  0  0  0  0  0  0  0  0  0  0  0
  -27.3798   -1.7275   -9.8615 C   0  0  0  0  0  0  0  0  0  0  0  0
  -26.0190   -1.9569  -10.0750 C   0  0  0  0  0  0  0  0  0  0  0  0
  -25.4640   -1.8741  -11.3459 C   0  0  0  0  0  0  0  0  0  0  0  0
  -26.2774   -1.6958  -12.4607 C   0  0  0  0  0  0  0  0  0  0  0  0
  -27.6560   -1.5829  -12.2747 C   0  0  0  0  0  0  0  0  0  0  0  0
  -28.2191   -1.5902  -10.9908 C   0  0  0  0  0  0  0  0  0  0  0  0
  -25.8001   -1.5727  -13.7429 O   0  0  0  0  0  0  0  0  0  0  0  0
  -24.3982   -1.2680  -13.7920 C   0  0  0  0  0  0  0  0  0  0  0  0
  -24.1176    0.1591  -13.3021 C   0  0  0  0  0  0  0  0  0  0  0  0
  -23.0831    0.8584  -14.1038 N   0  0  0  0  0  0  0  0  0  0  0  0
  -22.8261    2.2244  -13.6088 C   0  0  0  0  0  0  0  0  0  0  0  0
  -21.7568    2.9416  -14.4307 C   0  0  0  0  0  0  0  0  0  0  0  0
  -20.4620    2.1452  -14.4551 C   0  0  0  0  0  0  0  0  0  0  0  0
  -20.7350    0.7283  -14.9386 C   0  0  0  0  0  0  0  0  0  0  0  0
  -21.8446    0.0595  -14.1223 C   0  0  0  0  0  0  0  0  0  0  0  0
  -29.7506   -2.5764   -4.5535 N   0  0  0  0  0  0  0  0  0  0  0  0
  -30.7541   -2.6825   -4.4457 H   0  0  0  0  0  0  0  0  0  0  0  0
  -28.9450   -3.1551   -3.4767 C   0  0  0  0  0  0  0  0  0  0  0  0
  -27.8842   -4.1040   -4.0617 C   0  0  0  0  0  0  0  0  0  0  0  0
  -28.3911   -5.5165   -4.1997 C   0  0  0  0  0  0  0  0  0  0  0  0
  -27.5367   -6.5496   -4.5939 C   0  0  0  0  0  0  0  0  0  0  0  0
  -28.0589   -7.8262   -4.7385 C   0  0  0  0  0  0  0  0  0  0  0  0
  -29.3554   -8.1357   -4.5273 N   0  0  0  0  0  0  0  0  0  0  0  0
  -30.1642   -7.1251   -4.1449 C   0  0  0  0  0  0  0  0  0  0  0  0
  -29.7355   -5.8185   -3.9663 C   0  0  0  0  0  0  0  0  0  0  0  0
 10 11  1  0  0  0
 10 15  2  0  0  0
 11 12  2  0  0  0
 12 13  1  0  0  0
 13  1  1  0  0  0
 13 14  2  0  0  0
  1  2  2  0  0  0
  1  9  1  0  0  0
  2 16  1  0  0  0
  2  3  1  0  0  0
 16 17  1  0  0  0
 16 21  2  0  0  0
 17 18  2  0  0  0
 18 19  1  0  0  0
 19 22  1  0  0  0
 19 20  2  0  0  0
 22 23  1  0  0  0
 23 24  1  0  0  0
 24 25  1  0  0  0
 25 26  1  0  0  0
 25 30  1  0  0  0
 26 27  1  0  0  0
 27 28  1  0  0  0
 28 29  1  0  0  0
 29 30  1  0  0  0
 20 21  1  0  0  0
  3  4  1  0  0  0
  4  5  1  0  0  0
  4  9  2  0  0  0
  5  6  2  0  0  0
  6  7  1  0  0  0
  7  8  2  0  0  0
  8 31  1  0  0  0
  8  9  1  0  0  0
 31 33  1  0  0  0
 31 32  1  0  0  0
 33 34  1  0  0  0
 34 35  1  0  0  0
 35 36  1  0  0  0
 35 40  2  0  0  0
 36 37  2  0  0  0
 37 38  1  0  0  0
 38 39  2  0  0  0
 39 40  1  0  0  0
 14 15  1  0  0  0
M  END
> <minimizedAffinity>
-8.77221

$$$$
