CHEMBL173856


 33 37  0  0  0  0  0  0  0  0999 V2000
  -21.7797    1.0695  -14.3540 C   0  0  0  0  0  0  0  0  0  0  0  0
  -20.8185    0.1955  -14.8879 C   0  0  0  0  0  0  0  0  0  0  0  0
  -19.5531    0.6557  -15.2442 C   0  0  0  0  0  0  0  0  0  0  0  0
  -19.2459    2.0115  -15.1167 C   0  0  0  0  0  0  0  0  0  0  0  0
  -20.2052    2.8981  -14.6184 C   0  0  0  0  0  0  0  0  0  0  0  0
  -21.4591    2.4274  -14.2259 C   0  0  0  0  0  0  0  0  0  0  0  0
  -17.9102    2.4939  -15.4818 C   0  0  0  0  0  0  0  0  0  0  0  0
  -17.6281    3.9169  -15.6361 C   0  0  0  0  0  0  0  0  0  0  0  0
  -16.3918    4.3091  -15.9718 C   0  0  0  0  0  0  0  0  0  0  0  0
  -15.3739    3.3596  -16.1207 N   0  0  0  0  0  0  0  0  0  0  0  0
  -14.0149    3.5058  -16.3715 C   0  0  0  0  0  0  0  0  0  0  0  0
  -13.5538    2.1999  -16.4672 C   0  0  0  0  0  0  0  0  0  0  0  0
  -14.5402    1.2759  -16.2446 N   0  0  0  0  0  0  0  0  0  0  0  0
  -15.6198    1.9929  -16.0097 C   0  0  0  0  0  0  0  0  0  0  0  0
  -16.9390    1.5764  -15.6815 C   0  0  0  0  0  0  0  0  0  0  0  0
  -13.2565    4.7587  -16.4775 C   0  0  0  0  0  0  0  0  0  0  0  0
  -13.0592    5.4065  -17.7054 C   0  0  0  0  0  0  0  0  0  0  0  0
  -12.3587    6.6115  -17.7856 C   0  0  0  0  0  0  0  0  0  0  0  0
  -11.8882    7.2178  -16.6274 C   0  0  0  0  0  0  0  0  0  0  0  0
  -12.0944    6.6068  -15.3938 C   0  0  0  0  0  0  0  0  0  0  0  0
  -12.7636    5.3802  -15.3203 C   0  0  0  0  0  0  0  0  0  0  0  0
  -23.1506    0.5646  -13.9558 C   0  0  0  0  0  0  0  0  0  0  0  0
  -27.5473   -2.1715  -11.4475 N   0  0  0  0  0  0  0  0  0  0  0  0
  -26.4215   -1.6402  -10.9137 C   0  0  0  0  0  0  0  0  0  0  0  0
  -26.2742   -1.6559   -9.6958 O   0  0  0  0  0  0  0  0  0  0  0  0
  -25.5175   -1.1218  -11.7988 N   0  0  0  0  0  0  0  0  0  0  0  0
  -25.7246   -0.9668  -13.2401 C   0  0  0  0  0  0  0  0  0  0  0  0
  -24.5061   -1.5111  -14.0060 C   0  0  0  0  0  0  0  0  0  0  0  0
  -23.2264   -0.8729  -13.6224 N   0  0  0  0  0  0  0  0  0  0  0  0
  -23.0573   -1.0564  -12.1532 C   0  0  0  0  0  0  0  0  0  0  0  0
  -24.2540   -0.5706  -11.3003 C   0  0  0  0  0  0  0  0  0  0  0  0
  -28.1215   -2.6229  -10.7490 H   0  0  0  0  0  0  0  0  0  0  0  0
  -27.4365   -2.7210  -12.2871 H   0  0  0  0  0  0  0  0  0  0  0  0
 23 24  1  0  0  0
 23 32  1  0  0  0
 23 33  1  0  0  0
 24 25  2  0  0  0
 24 26  1  0  0  0
 26 27  1  0  0  0
 26 31  1  0  0  0
 27 28  1  0  0  0
 28 29  1  0  0  0
 29 22  1  0  0  0
 29 30  1  0  0  0
 22  1  1  0  0  0
  1  2  1  0  0  0
  1  6  2  0  0  0
  2  3  2  0  0  0
  3  4  1  0  0  0
  4  7  1  0  0  0
  4  5  2  0  0  0
  7  8  1  0  0  0
  7 15  2  0  0  0
  8  9  2  0  0  0
  9 10  1  0  0  0
 10 11  1  0  0  0
 10 14  1  0  0  0
 11 16  1  0  0  0
 11 12  2  0  0  0
 16 17  1  0  0  0
 16 21  2  0  0  0
 17 18  2  0  0  0
 18 19  1  0  0  0
 19 20  2  0  0  0
 20 21  1  0  0  0
 12 13  1  0  0  0
 13 14  2  0  0  0
 14 15  1  0  0  0
  5  6  1  0  0  0
 30 31  1  0  0  0
M  END
> <minimizedAffinity>
-10.34293

$$$$
