CHEMBL1242376


 26 29  0  0  0  0  0  0  0  0999 V2000
  -31.1132   -6.6219   -3.9893 N   0  0  0  0  0  0  0  0  0  0  0  0
  -30.8448   -5.2608   -3.9612 C   0  0  0  0  0  0  0  0  0  0  0  0
  -31.3163   -4.5945   -2.8857 N   0  0  0  0  0  0  0  0  0  0  0  0
  -31.0871   -3.2734   -2.7870 C   0  0  0  0  0  0  0  0  0  0  0  0
  -30.4123   -2.4888   -3.6401 N   0  0  0  0  0  0  0  0  0  0  0  0
  -29.9643   -3.1862   -4.7002 C   0  0  0  0  0  0  0  0  0  0  0  0
  -30.1433   -4.5389   -4.9446 C   0  0  0  0  0  0  0  0  0  0  0  0
  -29.5210   -4.7593   -6.2202 C   0  0  0  0  0  0  0  0  0  0  0  0
  -28.9453   -3.6309   -6.6754 N   0  0  0  0  0  0  0  0  0  0  0  0
  -29.2515   -2.6929   -5.7549 N   0  0  0  0  0  0  0  0  0  0  0  0
  -31.4559   -6.9412   -3.0888 H   0  0  0  0  0  0  0  0  0  0  0  0
  -30.4008   -7.2001   -4.4163 H   0  0  0  0  0  0  0  0  0  0  0  0
  -29.4604   -5.9814   -7.0336 C   0  0  0  0  0  0  0  0  0  0  0  0
  -30.5428   -6.8723   -7.0820 C   0  0  0  0  0  0  0  0  0  0  0  0
  -30.4767   -8.0534   -7.8254 C   0  0  0  0  0  0  0  0  0  0  0  0
  -29.3474   -8.3204   -8.5926 C   0  0  0  0  0  0  0  0  0  0  0  0
  -29.2910   -9.9048   -9.6276 Br  0  0  0  0  0  0  0  0  0  0  0  0
  -28.2867   -7.4143   -8.6032 C   0  0  0  0  0  0  0  0  0  0  0  0
  -27.1765   -7.6061   -9.3785 O   0  0  0  0  0  0  0  0  0  0  0  0
  -28.3321   -6.2606   -7.8202 C   0  0  0  0  0  0  0  0  0  0  0  0
  -27.3358   -8.3998   -9.9217 H   0  0  0  0  0  0  0  0  0  0  0  0
  -28.8260   -1.3191   -5.9428 C   0  0  0  0  0  0  0  0  0  0  0  0
  -27.7394   -0.8597   -4.9702 C   0  0  0  0  0  0  0  0  0  0  0  0
  -27.8388    0.6648   -4.9522 C   0  0  0  0  0  0  0  0  0  0  0  0
  -29.1897    1.0231   -5.5689 C   0  0  0  0  0  0  0  0  0  0  0  0
  -29.9376   -0.2926   -5.7380 C   0  0  0  0  0  0  0  0  0  0  0  0
  1  2  1  0  0  0
  1 11  1  0  0  0
  1 12  1  0  0  0
  2  3  1  0  0  0
  2  7  2  0  0  0
  3  4  2  0  0  0
  4  5  1  0  0  0
  5  6  2  0  0  0
  6  7  1  0  0  0
  6 10  1  0  0  0
  7  8  1  0  0  0
  8 13  1  0  0  0
  8  9  2  0  0  0
 13 14  1  0  0  0
 13 20  2  0  0  0
 14 15  2  0  0  0
 15 16  1  0  0  0
 16 17  1  0  0  0
 16 18  2  0  0  0
 18 19  1  0  0  0
 18 20  1  0  0  0
 19 21  1  0  0  0
  9 10  1  0  0  0
 10 22  1  0  0  0
 22 23  1  0  0  0
 22 26  1  0  0  0
 23 24  1  0  0  0
 24 25  1  0  0  0
 25 26  1  0  0  0
M  END
> <minimizedAffinity>
-8.78948

$$$$
