CHEMBL4794096


 33 35  0  0  0  0  0  0  0  0999 V2000
  -13.7964   -1.2538  -13.8846 C   0  0  0  0  0  0  0  0  0  0  0  0
  -13.6688   -0.5379  -15.0700 C   0  0  0  0  0  0  0  0  0  0  0  0
  -12.5762   -0.4023  -16.0689 C   0  0  0  0  0  0  0  0  0  0  0  0
  -14.8644    0.0987  -15.3067 N   0  0  0  0  0  0  0  0  0  0  0  0
  -15.7786   -0.1973  -14.3324 C   0  0  0  0  0  0  0  0  0  0  0  0
  -15.1495   -1.0414  -13.4249 C   0  0  0  0  0  0  0  0  0  0  0  0
  -15.7427   -1.6375  -12.1872 C   0  0  0  0  0  0  0  0  0  0  0  0
  -15.0451    0.6816  -16.1188 H   0  0  0  0  0  0  0  0  0  0  0  0
  -17.1017    0.3159  -14.3537 C   0  0  0  0  0  0  0  0  0  0  0  0
  -17.5603    1.5080  -14.7538 C   0  0  0  0  0  0  0  0  0  0  0  0
  -16.8746    2.7251  -15.3176 C   0  0  0  0  0  0  0  0  0  0  0  0
  -15.6859    2.8826  -15.5407 O   0  0  0  0  0  0  0  0  0  0  0  0
  -17.8869    3.6499  -15.5349 N   0  0  0  0  0  0  0  0  0  0  0  0
  -19.1310    3.1377  -15.1678 C   0  0  0  0  0  0  0  0  0  0  0  0
  -20.3540    3.7723  -15.2404 C   0  0  0  0  0  0  0  0  0  0  0  0
  -21.4778    3.0558  -14.8090 C   0  0  0  0  0  0  0  0  0  0  0  0
  -21.3538    1.7378  -14.3242 C   0  0  0  0  0  0  0  0  0  0  0  0
  -20.1006    1.1196  -14.2619 C   0  0  0  0  0  0  0  0  0  0  0  0
  -18.9930    1.8369  -14.6880 C   0  0  0  0  0  0  0  0  0  0  0  0
  -17.7136    4.5693  -15.9122 H   0  0  0  0  0  0  0  0  0  0  0  0
  -22.5066    1.0137  -13.8791 C   0  0  0  0  0  0  0  0  0  0  0  0
  -23.4339    0.4294  -13.4965 N   0  0  0  0  0  0  0  0  0  0  0  0
  -12.9305   -3.4681  -13.4860 N   0  0  0  0  0  0  0  0  0  0  0  0
  -12.8036   -2.1173  -13.2398 C   0  0  0  0  0  0  0  0  0  0  0  0
  -11.8906   -1.6650  -12.5523 O   0  0  0  0  0  0  0  0  0  0  0  0
  -13.4859   -3.7608  -14.2803 H   0  0  0  0  0  0  0  0  0  0  0  0
  -11.9564   -4.3864  -12.9468 C   0  0  0  0  0  0  0  0  0  0  0  0
  -12.5303   -5.4113  -11.9453 C   0  0  0  0  0  0  0  0  0  0  0  0
  -13.8373   -5.0480  -11.3425 N   0  0  0  0  0  0  0  0  0  0  0  0
  -16.2460   -5.5095  -12.0213 C   0  0  0  0  0  0  0  0  0  0  0  0
  -14.8599   -6.0506  -11.6969 C   0  0  0  0  0  0  0  0  0  0  0  0
  -13.7128   -4.8282   -9.8862 C   0  0  0  0  0  0  0  0  0  0  0  0
  -14.3772   -3.5752   -9.3137 C   0  0  0  0  0  0  0  0  0  0  0  0
 30 31  1  0  0  0
 31 29  1  0  0  0
 29 32  1  0  0  0
 29 28  1  0  0  0
 32 33  1  0  0  0
 28 27  1  0  0  0
 27 23  1  0  0  0
 23 24  1  0  0  0
 23 26  1  0  0  0
 24 25  2  0  0  0
 24  1  1  0  0  0
  1  2  2  0  0  0
  1  6  1  0  0  0
  2  3  1  0  0  0
  2  4  1  0  0  0
  4  5  1  0  0  0
  4  8  1  0  0  0
  5  9  1  0  0  0
  5  6  2  0  0  0
  9 10  2  0  0  0
 10 11  1  0  0  0
 10 19  1  0  0  0
 11 12  2  0  0  0
 11 13  1  0  0  0
 13 14  1  0  0  0
 13 20  1  0  0  0
 14 15  1  0  0  0
 14 19  2  0  0  0
 15 16  2  0  0  0
 16 17  1  0  0  0
 17 21  1  0  0  0
 17 18  2  0  0  0
 21 22  3  0  0  0
 18 19  1  0  0  0
  6  7  1  0  0  0
M  END
> <minimizedAffinity>
-7.91836

$$$$
