CHEMBL3109341


 32 36  0  0  0  0  0  0  0  0999 V2000
  -29.4027   -8.2275   -6.8585 C   0  0  0  0  0  0  0  0  0  0  0  0
  -30.5615   -8.4654   -7.5755 C   0  0  0  0  0  0  0  0  0  0  0  0
  -30.5143   -9.3969   -8.5949 C   0  0  0  0  0  0  0  0  0  0  0  0
  -29.3186  -10.0582   -8.8748 C   0  0  0  0  0  0  0  0  0  0  0  0
  -29.2977  -11.0034   -9.9014 C   0  0  0  0  0  0  0  0  0  0  0  0
  -28.1232  -11.6631  -10.2128 C   0  0  0  0  0  0  0  0  0  0  0  0
  -26.9585  -11.3847   -9.5046 C   0  0  0  0  0  0  0  0  0  0  0  0
  -26.9547  -10.4477   -8.4565 C   0  0  0  0  0  0  0  0  0  0  0  0
  -28.1499   -9.7617   -8.1228 C   0  0  0  0  0  0  0  0  0  0  0  0
  -28.2240   -8.8509   -7.1151 N   0  0  0  0  0  0  0  0  0  0  0  0
  -29.6774   -3.1795   -5.5120 C   0  0  0  0  0  0  0  0  0  0  0  0
  -29.6399   -3.7543   -6.8544 C   0  0  0  0  0  0  0  0  0  0  0  0
  -29.5446   -5.0839   -6.9986 C   0  0  0  0  0  0  0  0  0  0  0  0
  -29.4773   -5.9012   -5.8718 N   0  0  0  0  0  0  0  0  0  0  0  0
  -29.4033   -7.2774   -5.7563 C   0  0  0  0  0  0  0  0  0  0  0  0
  -29.3828   -7.5031   -4.3889 C   0  0  0  0  0  0  0  0  0  0  0  0
  -29.4572   -6.3420   -3.6703 N   0  0  0  0  0  0  0  0  0  0  0  0
  -29.5166   -5.3896   -4.5747 C   0  0  0  0  0  0  0  0  0  0  0  0
  -29.6226   -3.9789   -4.4276 C   0  0  0  0  0  0  0  0  0  0  0  0
  -29.7834   -1.8134   -5.3313 O   0  0  0  0  0  0  0  0  0  0  0  0
  -28.7257   -1.1532   -4.6412 C   0  0  0  0  0  0  0  0  0  0  0  0
  -27.7174   -0.6331   -5.6507 C   0  0  0  0  0  0  0  0  0  0  0  0
  -28.7929    1.2615   -6.5380 C   0  0  0  0  0  0  0  0  0  0  0  0
  -28.4313   -0.0924   -6.7625 O   0  0  0  0  0  0  0  0  0  0  0  0
  -25.8085  -10.1349   -7.7324 O   0  0  0  0  0  0  0  0  0  0  0  0
  -25.4331  -10.9849   -6.6278 C   0  0  0  0  0  0  0  0  0  0  0  0
  -24.6694  -10.2037   -5.5606 C   0  0  0  0  0  0  0  0  0  0  0  0
  -23.2939   -9.7631   -6.0604 C   0  0  0  0  0  0  0  0  0  0  0  0
  -22.4642  -10.8714   -6.5545 N   0  0  0  0  0  0  0  0  0  0  0  0
  -21.2521  -10.3224   -7.1824 C   0  0  0  0  0  0  0  0  0  0  0  0
  -23.1563  -11.7341   -7.5193 C   0  0  0  0  0  0  0  0  0  0  0  0
  -24.5578  -12.1539   -7.0897 C   0  0  0  0  0  0  0  0  0  0  0  0
 23 24  1  0  0  0
 24 22  1  0  0  0
 22 21  1  0  0  0
 21 20  1  0  0  0
 20 11  1  0  0  0
 11 12  1  0  0  0
 11 19  2  0  0  0
 12 13  2  0  0  0
 13 14  1  0  0  0
 14 15  1  0  0  0
 14 18  1  0  0  0
 15  1  1  0  0  0
 15 16  2  0  0  0
  1  2  1  0  0  0
  1 10  2  0  0  0
  2  3  2  0  0  0
  3  4  1  0  0  0
  4  5  1  0  0  0
  4  9  2  0  0  0
  5  6  2  0  0  0
  6  7  1  0  0  0
  7  8  2  0  0  0
  8 25  1  0  0  0
  8  9  1  0  0  0
 25 26  1  0  0  0
 26 27  1  0  0  0
 26 32  1  0  0  0
 27 28  1  0  0  0
 28 29  1  0  0  0
 29 30  1  0  0  0
 29 31  1  0  0  0
 31 32  1  0  0  0
  9 10  1  0  0  0
 16 17  1  0  0  0
 17 18  2  0  0  0
 18 19  1  0  0  0
M  END
> <minimizedAffinity>
-8.31574

$$$$
