CHEMBL1682344


 16 18  0  0  0  0  0  0  0  0999 V2000
  -22.4599    2.2246  -13.9685 C   0  0  0  0  0  0  0  0  0  0  0  0
  -21.6143    3.2956  -14.2895 C   0  0  0  0  0  0  0  0  0  0  0  0
  -20.3414    2.9751  -14.7663 C   0  0  0  0  0  0  0  0  0  0  0  0
  -19.2931    3.7596  -15.1721 N   0  0  0  0  0  0  0  0  0  0  0  0
  -18.2151    3.0674  -15.5818 N   0  0  0  0  0  0  0  0  0  0  0  0
  -18.5894    1.7939  -15.4330 C   0  0  0  0  0  0  0  0  0  0  0  0
  -19.9001    1.6670  -14.9240 C   0  0  0  0  0  0  0  0  0  0  0  0
  -20.7581    0.6047  -14.5877 C   0  0  0  0  0  0  0  0  0  0  0  0
  -22.0477    0.8898  -14.1055 C   0  0  0  0  0  0  0  0  0  0  0  0
  -19.2530    4.7718  -15.1986 H   0  0  0  0  0  0  0  0  0  0  0  0
  -22.9640   -0.1801  -13.7612 C   0  0  0  0  0  0  0  0  0  0  0  0
  -22.9042   -0.9925  -12.6514 C   0  0  0  0  0  0  0  0  0  0  0  0
  -23.9762   -1.8207  -12.7950 N   0  0  0  0  0  0  0  0  0  0  0  0
  -24.6669   -1.5437  -13.9097 N   0  0  0  0  0  0  0  0  0  0  0  0
  -24.0596   -0.5275  -14.5098 N   0  0  0  0  0  0  0  0  0  0  0  0
  -24.2982   -2.5728  -12.1965 H   0  0  0  0  0  0  0  0  0  0  0  0
  1  2  1  0  0  0
  1  9  2  0  0  0
  2  3  2  0  0  0
  3  4  1  0  0  0
  3  7  1  0  0  0
  4  5  1  0  0  0
  4 10  1  0  0  0
  5  6  2  0  0  0
  6  7  1  0  0  0
  7  8  2  0  0  0
  8  9  1  0  0  0
  9 11  1  0  0  0
 11 12  2  0  0  0
 11 15  1  0  0  0
 12 13  1  0  0  0
 13 14  1  0  0  0
 13 16  1  0  0  0
 14 15  2  0  0  0
M  END
> <minimizedAffinity>
-7.29092

$$$$
