CHEMBL1823219


 34 39  0  0  0  0  0  0  0  0999 V2000
  -15.9415   -3.1981  -10.9304 C   0  0  0  0  0  0  0  0  0  0  0  0
  -15.1763   -2.7470  -12.1487 C   0  0  0  0  0  0  0  0  0  0  0  0
  -15.6048   -1.5314  -12.7147 C   0  0  0  0  0  0  0  0  0  0  0  0
  -14.9361   -0.9421  -13.7912 C   0  0  0  0  0  0  0  0  0  0  0  0
  -13.8173   -1.5715  -14.3604 C   0  0  0  0  0  0  0  0  0  0  0  0
  -13.4319   -2.8103  -13.8093 C   0  0  0  0  0  0  0  0  0  0  0  0
  -14.0731   -3.4289  -12.7099 C   0  0  0  0  0  0  0  0  0  0  0  0
  -13.0130   -0.9603  -15.5289 C   0  0  0  0  0  0  0  0  0  0  0  0
  -11.5667   -0.6927  -15.0557 C   0  0  0  0  0  0  0  0  0  0  0  0
  -13.0011   -1.9299  -16.7312 C   0  0  0  0  0  0  0  0  0  0  0  0
  -13.6338    0.3479  -15.9535 C   0  0  0  0  0  0  0  0  0  0  0  0
  -13.1939    1.1551  -16.9704 N   0  0  0  0  0  0  0  0  0  0  0  0
  -13.9946    2.2755  -17.0603 C   0  0  0  0  0  0  0  0  0  0  0  0
  -13.9313    3.3659  -17.9329 C   0  0  0  0  0  0  0  0  0  0  0  0
  -14.8970    4.3722  -17.7796 C   0  0  0  0  0  0  0  0  0  0  0  0
  -15.8800    4.2914  -16.7926 C   0  0  0  0  0  0  0  0  0  0  0  0
  -15.9259    3.1949  -15.9321 C   0  0  0  0  0  0  0  0  0  0  0  0
  -14.9706    2.1706  -16.0687 C   0  0  0  0  0  0  0  0  0  0  0  0
  -14.7363    0.9520  -15.3835 C   0  0  0  0  0  0  0  0  0  0  0  0
  -15.4570    0.3656  -14.2788 C   0  0  0  0  0  0  0  0  0  0  0  0
  -16.4337    0.8952  -13.7603 O   0  0  0  0  0  0  0  0  0  0  0  0
  -12.4006    0.9713  -17.5701 H   0  0  0  0  0  0  0  0  0  0  0  0
  -13.6074   -4.6721  -12.3039 N   0  0  0  0  0  0  0  0  0  0  0  0
  -14.3295   -5.9122  -12.6514 C   0  0  0  0  0  0  0  0  0  0  0  0
  -14.2066   -6.9476  -11.5091 C   0  0  0  0  0  0  0  0  0  0  0  0
  -12.8323   -7.2364  -11.0416 N   0  0  0  0  0  0  0  0  0  0  0  0
  -12.1982   -5.9438  -10.6915 C   0  0  0  0  0  0  0  0  0  0  0  0
  -12.2512   -4.8524  -11.7817 C   0  0  0  0  0  0  0  0  0  0  0  0
  -12.0167   -7.9064  -12.0770 C   0  0  0  0  0  0  0  0  0  0  0  0
  -12.5278   -9.3080  -12.4451 C   0  0  0  0  0  0  0  0  0  0  0  0
  -11.2240   -9.8867  -12.1513 O   0  0  0  0  0  0  0  0  0  0  0  0
  -10.8827   -8.6966  -11.3900 C   0  0  0  0  0  0  0  0  0  0  0  0
  -14.8714    5.5059  -18.6576 C   0  0  0  0  0  0  0  0  0  0  0  0
  -14.8459    6.4165  -19.3721 N   0  0  0  0  0  0  0  0  0  0  0  0
  1  2  1  0  0  0
  2  3  1  0  0  0
  2  7  2  0  0  0
  3  4  2  0  0  0
  4  5  1  0  0  0
  4 20  1  0  0  0
  5  6  2  0  0  0
  5  8  1  0  0  0
  6  7  1  0  0  0
  7 23  1  0  0  0
 23 24  1  0  0  0
 23 28  1  0  0  0
 24 25  1  0  0  0
 25 26  1  0  0  0
 26 29  1  0  0  0
 26 27  1  0  0  0
 29 30  1  0  0  0
 29 32  1  0  0  0
 30 31  1  0  0  0
 31 32  1  0  0  0
 27 28  1  0  0  0
  8  9  1  0  0  0
  8 10  1  0  0  0
  8 11  1  0  0  0
 11 12  1  0  0  0
 11 19  2  0  0  0
 12 13  1  0  0  0
 12 22  1  0  0  0
 13 14  1  0  0  0
 13 18  2  0  0  0
 14 15  2  0  0  0
 15 33  1  0  0  0
 15 16  1  0  0  0
 33 34  3  0  0  0
 16 17  2  0  0  0
 17 18  1  0  0  0
 18 19  1  0  0  0
 19 20  1  0  0  0
 20 21  2  0  0  0
M  END
> <minimizedAffinity>
-8.06626

$$$$
