CHEMBL3746953


 32 36  0  0  0  0  0  0  0  0999 V2000
  -26.8222   -1.7597  -10.2013 N   0  0  0  0  0  0  0  0  0  0  0  0
  -27.5446   -1.4812  -11.3465 C   0  0  0  0  0  0  0  0  0  0  0  0
  -28.7530   -1.4014  -11.4935 O   0  0  0  0  0  0  0  0  0  0  0  0
  -26.7243   -1.3920  -12.4921 N   0  0  0  0  0  0  0  0  0  0  0  0
  -27.1412   -1.8295  -13.7411 C   0  0  0  0  0  0  0  0  0  0  0  0
  -26.0960   -1.7424  -14.6242 C   0  0  0  0  0  0  0  0  0  0  0  0
  -25.0098   -1.1485  -13.9368 C   0  0  0  0  0  0  0  0  0  0  0  0
  -23.7059   -0.7877  -14.3311 C   0  0  0  0  0  0  0  0  0  0  0  0
  -22.8533   -0.1487  -13.4228 C   0  0  0  0  0  0  0  0  0  0  0  0
  -23.3035    0.1508  -12.1395 C   0  0  0  0  0  0  0  0  0  0  0  0
  -24.5990   -0.1853  -11.7289 C   0  0  0  0  0  0  0  0  0  0  0  0
  -25.4270   -0.8886  -12.6248 C   0  0  0  0  0  0  0  0  0  0  0  0
  -25.8201   -1.8853  -10.2775 H   0  0  0  0  0  0  0  0  0  0  0  0
  -28.1898   -0.0233   -5.7781 C   0  0  0  0  0  0  0  0  0  0  0  0
  -28.0550   -1.1441   -6.7599 C   0  0  0  0  0  0  0  0  0  0  0  0
  -28.5330   -2.4139   -6.4615 C   0  0  0  0  0  0  0  0  0  0  0  0
  -28.4594   -3.4622   -7.3038 N   0  0  0  0  0  0  0  0  0  0  0  0
  -27.8974   -3.2339   -8.5159 C   0  0  0  0  0  0  0  0  0  0  0  0
  -27.3914   -2.0029   -8.9300 C   0  0  0  0  0  0  0  0  0  0  0  0
  -27.4585   -0.9490   -8.0137 C   0  0  0  0  0  0  0  0  0  0  0  0
  -21.5750    0.0712  -13.8865 O   0  0  0  0  0  0  0  0  0  0  0  0
  -21.1820    1.3635  -14.1943 C   0  0  0  0  0  0  0  0  0  0  0  0
  -22.0961    2.3461  -14.0819 N   0  0  0  0  0  0  0  0  0  0  0  0
  -21.6793    3.5529  -14.4636 C   0  0  0  0  0  0  0  0  0  0  0  0
  -20.4705    3.8443  -14.9632 N   0  0  0  0  0  0  0  0  0  0  0  0
  -19.5933    2.8182  -15.0852 C   0  0  0  0  0  0  0  0  0  0  0  0
  -19.9033    1.5365  -14.6972 C   0  0  0  0  0  0  0  0  0  0  0  0
  -18.9382    0.4089  -14.8225 C   0  0  0  0  0  0  0  0  0  0  0  0
  -17.5407    0.7757  -15.3330 C   0  0  0  0  0  0  0  0  0  0  0  0
  -17.2771    2.0919  -15.8851 N   0  0  0  0  0  0  0  0  0  0  0  0
  -18.2589    3.1551  -15.6978 C   0  0  0  0  0  0  0  0  0  0  0  0
  -16.9874    2.0392  -16.8593 H   0  0  0  0  0  0  0  0  0  0  0  0
 14 15  1  0  0  0
 15 16  1  0  0  0
 15 20  2  0  0  0
 16 17  2  0  0  0
 17 18  1  0  0  0
 18 19  2  0  0  0
 19  1  1  0  0  0
 19 20  1  0  0  0
  1  2  1  0  0  0
  1 13  1  0  0  0
  2  3  2  0  0  0
  2  4  1  0  0  0
  4  5  1  0  0  0
  4 12  1  0  0  0
  5  6  2  0  0  0
  6  7  1  0  0  0
  7  8  1  0  0  0
  7 12  2  0  0  0
  8  9  2  0  0  0
  9 21  1  0  0  0
  9 10  1  0  0  0
 21 22  1  0  0  0
 22 23  1  0  0  0
 22 27  2  0  0  0
 23 24  2  0  0  0
 24 25  1  0  0  0
 25 26  2  0  0  0
 26 27  1  0  0  0
 26 31  1  0  0  0
 27 28  1  0  0  0
 28 29  1  0  0  0
 29 30  1  0  0  0
 30 31  1  0  0  0
 30 32  1  0  0  0
 10 11  2  0  0  0
 11 12  1  0  0  0
M  END
> <minimizedAffinity>
-10.82405

$$$$
