CHEMBL1784637


 45 48  0  0  0  0  0  0  0  0999 V2000
  -28.6876   -4.8262   -5.0668 C   0  0  0  0  0  0  0  0  0  0  0  0
  -29.0363   -4.8193   -3.8877 O   0  0  0  0  0  0  0  0  0  0  0  0
  -28.3849   -5.9755   -5.8111 N   0  0  0  0  0  0  0  0  0  0  0  0
  -27.8505   -5.8686   -6.6619 H   0  0  0  0  0  0  0  0  0  0  0  0
  -28.1370   -1.9850   -7.5499 C   0  0  0  0  0  0  0  0  0  0  0  0
  -28.1626   -3.2879   -7.0179 C   0  0  0  0  0  0  0  0  0  0  0  0
  -28.5291   -3.4854   -5.6879 C   0  0  0  0  0  0  0  0  0  0  0  0
  -28.8900   -2.3753   -4.9039 C   0  0  0  0  0  0  0  0  0  0  0  0
  -28.8601   -1.0836   -5.4264 C   0  0  0  0  0  0  0  0  0  0  0  0
  -28.4783   -0.8715   -6.7558 C   0  0  0  0  0  0  0  0  0  0  0  0
  -28.4709    0.5345   -7.2938 C   0  0  0  0  0  0  0  0  0  0  0  0
  -27.4495   -1.7278  -10.0790 C   0  0  0  0  0  0  0  0  0  0  0  0
  -27.7695   -1.8296   -8.9296 C   0  0  0  0  0  0  0  0  0  0  0  0
  -25.8268   -1.3124  -13.2799 C   0  0  0  0  0  0  0  0  0  0  0  0
  -27.0123   -1.7294  -13.7071 N   0  0  0  0  0  0  0  0  0  0  0  0
  -27.7635   -1.9373  -12.5745 C   0  0  0  0  0  0  0  0  0  0  0  0
  -27.0399   -1.6482  -11.4398 C   0  0  0  0  0  0  0  0  0  0  0  0
  -25.8101   -1.2542  -11.9001 N   0  0  0  0  0  0  0  0  0  0  0  0
  -24.6800   -0.8358  -11.1047 C   0  0  0  0  0  0  0  0  0  0  0  0
  -22.3784   -0.2460  -14.2181 C   0  0  0  0  0  0  0  0  0  0  0  0
  -23.5574   -0.6383  -13.4967 N   0  0  0  0  0  0  0  0  0  0  0  0
  -24.7185   -0.9704  -14.1574 C   0  0  0  0  0  0  0  0  0  0  0  0
  -24.7915   -0.9708  -15.3842 O   0  0  0  0  0  0  0  0  0  0  0  0
  -23.5957   -0.6184  -12.4814 H   0  0  0  0  0  0  0  0  0  0  0  0
  -28.5507   -7.2944   -5.2786 C   0  0  0  0  0  0  0  0  0  0  0  0
  -27.9596   -7.6486   -4.0773 C   0  0  0  0  0  0  0  0  0  0  0  0
  -27.9579   -8.9603   -3.6147 C   0  0  0  0  0  0  0  0  0  0  0  0
  -28.6042   -9.9915   -4.3076 C   0  0  0  0  0  0  0  0  0  0  0  0
  -29.3110   -9.6456   -5.4874 C   0  0  0  0  0  0  0  0  0  0  0  0
  -29.2835   -8.2827   -5.9547 C   0  0  0  0  0  0  0  0  0  0  0  0
  -30.0603  -10.6534   -6.3443 C   0  0  0  0  0  0  0  0  0  0  0  0
  -29.3043  -11.6197   -6.9285 F   0  0  0  0  0  0  0  0  0  0  0  0
  -31.0294  -11.3136   -5.6489 F   0  0  0  0  0  0  0  0  0  0  0  0
  -30.7148  -10.0434   -7.3782 F   0  0  0  0  0  0  0  0  0  0  0  0
  -28.4164  -11.3900   -3.7212 C   0  0  0  0  0  0  0  0  0  0  0  0
  -27.2909  -12.1631   -4.2788 N   0  0  0  0  0  0  0  0  0  0  0  0
  -26.2099  -12.4660   -3.3189 C   0  0  0  0  0  0  0  0  0  0  0  0
  -25.3655  -11.2524   -2.8474 C   0  0  0  0  0  0  0  0  0  0  0  0
  -24.8245  -10.3673   -3.9018 N   0  0  0  0  0  0  0  0  0  0  0  0
  -25.7427  -10.2418   -5.0478 C   0  0  0  0  0  0  0  0  0  0  0  0
  -26.6557  -11.4457   -5.4051 C   0  0  0  0  0  0  0  0  0  0  0  0
  -23.4279  -10.7063   -4.2427 C   0  0  0  0  0  0  0  0  0  0  0  0
  -23.0532  -10.4835   -5.7243 C   0  0  0  0  0  0  0  0  0  0  0  0
  -22.6626   -9.1322   -5.9550 O   0  0  0  0  0  0  0  0  0  0  0  0
  -23.2651   -8.5882   -5.4120 H   0  0  0  0  0  0  0  0  0  0  0  0
 20 21  1  0  0  0
 21 22  1  0  0  0
 21 24  1  0  0  0
 22 23  2  0  0  0
 22 14  1  0  0  0
 14 15  2  0  0  0
 14 18  1  0  0  0
 15 16  1  0  0  0
 16 17  2  0  0  0
 17 12  1  0  0  0
 17 18  1  0  0  0
 12 13  3  0  0  0
 13  5  1  0  0  0
  5  6  1  0  0  0
  5 10  2  0  0  0
  6  7  2  0  0  0
  7  1  1  0  0  0
  7  8  1  0  0  0
  1  2  2  0  0  0
  1  3  1  0  0  0
  3 25  1  0  0  0
  3  4  1  0  0  0
 25 26  1  0  0  0
 25 30  2  0  0  0
 26 27  2  0  0  0
 27 28  1  0  0  0
 28 35  1  0  0  0
 28 29  2  0  0  0
 35 36  1  0  0  0
 36 37  1  0  0  0
 36 41  1  0  0  0
 37 38  1  0  0  0
 38 39  1  0  0  0
 39 42  1  0  0  0
 39 40  1  0  0  0
 42 43  1  0  0  0
 43 44  1  0  0  0
 44 45  1  0  0  0
 40 41  1  0  0  0
 29 31  1  0  0  0
 29 30  1  0  0  0
 31 32  1  0  0  0
 31 33  1  0  0  0
 31 34  1  0  0  0
  8  9  2  0  0  0
  9 10  1  0  0  0
 10 11  1  0  0  0
 18 19  1  0  0  0
M  END
> <minimizedAffinity>
-9.07650

$$$$
