CHEMBL3648118


 30 31  0  0  0  0  0  0  0  0999 V2000
  -27.5414   -9.2229   -5.7122 C   0  0  0  0  0  0  0  0  0  0  0  0
  -28.5558   -8.3260   -5.6419 N   0  0  0  0  0  0  0  0  0  0  0  0
  -29.0914   -8.0874   -4.4309 C   0  0  0  0  0  0  0  0  0  0  0  0
  -28.7391   -8.7559   -3.3169 N   0  0  0  0  0  0  0  0  0  0  0  0
  -27.6994   -9.5922   -3.3951 C   0  0  0  0  0  0  0  0  0  0  0  0
  -27.0408   -9.8384   -4.5676 C   0  0  0  0  0  0  0  0  0  0  0  0
  -25.4427  -10.8489   -4.5543 Br  0  0  0  0  0  0  0  0  0  0  0  0
  -27.0321   -9.6182   -6.9673 N   0  0  0  0  0  0  0  0  0  0  0  0
  -26.1216   -9.1819   -7.1015 H   0  0  0  0  0  0  0  0  0  0  0  0
  -27.8963   -9.4333   -8.1524 C   0  0  0  0  0  0  0  0  0  0  0  0
  -26.9835   -9.0403   -9.3581 C   0  0  0  0  0  0  0  0  0  0  0  0
  -27.3331   -9.7413  -10.6609 C   0  0  0  0  0  0  0  0  0  0  0  0
  -27.0249   -7.6299   -9.6132 O   0  0  0  0  0  0  0  0  0  0  0  0
  -27.9599   -7.3558   -9.5820 H   0  0  0  0  0  0  0  0  0  0  0  0
  -28.6470  -10.7544   -8.4659 C   0  0  0  0  0  0  0  0  0  0  0  0
  -30.5441   -9.3517   -8.4558 C   0  0  0  0  0  0  0  0  0  0  0  0
  -30.0485  -10.6597   -8.1896 O   0  0  0  0  0  0  0  0  0  0  0  0
  -30.0050   -7.0366   -4.2933 N   0  0  0  0  0  0  0  0  0  0  0  0
  -30.9420   -7.3230   -4.5290 H   0  0  0  0  0  0  0  0  0  0  0  0
  -29.7033   -5.6705   -4.4397 C   0  0  0  0  0  0  0  0  0  0  0  0
  -30.5164   -4.8123   -5.1972 C   0  0  0  0  0  0  0  0  0  0  0  0
  -30.1290   -3.5113   -5.5004 C   0  0  0  0  0  0  0  0  0  0  0  0
  -28.9118   -3.0369   -5.0267 C   0  0  0  0  0  0  0  0  0  0  0  0
  -28.1083   -3.8346   -4.2012 C   0  0  0  0  0  0  0  0  0  0  0  0
  -28.5141   -5.1447   -3.9041 C   0  0  0  0  0  0  0  0  0  0  0  0
  -28.3538   -1.4313   -5.5748 S   0  0  0  0  0  0  0  0  0  0  0  0
  -27.9461   -1.6853   -7.2779 C   0  0  0  0  0  0  0  0  0  0  0  0
  -29.5872   -0.5091   -5.4967 N   0  0  0  0  0  0  0  0  0  0  0  0
  -27.0938   -1.1632   -4.9060 O   0  0  0  0  0  0  0  0  0  0  0  0
  -30.2921   -0.7015   -6.2047 H   0  0  0  0  0  0  0  0  0  0  0  0
 16 17  1  0  0  0
 17 15  1  0  0  0
 15 10  1  0  0  0
 10  8  1  0  0  0
 10 11  1  0  0  0
  8  1  1  0  0  0
  8  9  1  0  0  0
  1  2  1  0  0  0
  1  6  2  0  0  0
  2  3  2  0  0  0
  3 18  1  0  0  0
  3  4  1  0  0  0
 18 20  1  0  0  0
 18 19  1  0  0  0
 20 21  1  0  0  0
 20 25  2  0  0  0
 21 22  2  0  0  0
 22 23  1  0  0  0
 23 26  1  0  0  0
 23 24  2  0  0  0
 26 27  1  0  0  0
 26 28  2  0  0  0
 26 29  2  0  0  0
 28 30  1  0  0  0
 24 25  1  0  0  0
  4  5  2  0  0  0
  5  6  1  0  0  0
  6  7  1  0  0  0
 11 12  1  0  0  0
 11 13  1  0  0  0
 13 14  1  0  0  0
M  END
> <minimizedAffinity>
-7.01385

$$$$
