CHEMBL1956897


 34 38  0  0  0  0  0  0  0  0999 V2000
  -31.4665   -7.8028   -6.4424 N   0  0  0  0  0  0  0  0  0  0  0  0
  -30.3886   -7.2462   -5.7784 C   0  0  0  0  0  0  0  0  0  0  0  0
  -29.6163   -8.1029   -5.1022 N   0  0  0  0  0  0  0  0  0  0  0  0
  -28.5258   -7.6540   -4.4306 C   0  0  0  0  0  0  0  0  0  0  0  0
  -28.2578   -6.2765   -4.4684 C   0  0  0  0  0  0  0  0  0  0  0  0
  -27.2724   -5.4072   -3.9309 C   0  0  0  0  0  0  0  0  0  0  0  0
  -27.6010   -4.1219   -4.3037 C   0  0  0  0  0  0  0  0  0  0  0  0
  -28.7637   -4.1787   -5.0365 N   0  0  0  0  0  0  0  0  0  0  0  0
  -29.1640   -5.4871   -5.1621 C   0  0  0  0  0  0  0  0  0  0  0  0
  -30.2444   -5.9184   -5.8340 N   0  0  0  0  0  0  0  0  0  0  0  0
  -31.6800   -8.6998   -6.0257 H   0  0  0  0  0  0  0  0  0  0  0  0
  -32.2149   -7.1318   -6.5183 H   0  0  0  0  0  0  0  0  0  0  0  0
  -27.7021   -8.5612   -3.7470 N   0  0  0  0  0  0  0  0  0  0  0  0
  -28.1296   -8.9999   -2.9444 H   0  0  0  0  0  0  0  0  0  0  0  0
  -26.5650   -9.2277   -4.2381 C   0  0  0  0  0  0  0  0  0  0  0  0
  -25.3662   -9.1698   -3.5151 C   0  0  0  0  0  0  0  0  0  0  0  0
  -24.2035   -9.7732   -4.0058 C   0  0  0  0  0  0  0  0  0  0  0  0
  -24.2284  -10.4513   -5.2234 C   0  0  0  0  0  0  0  0  0  0  0  0
  -25.4157  -10.5169   -5.9459 C   0  0  0  0  0  0  0  0  0  0  0  0
  -25.4682  -11.4416   -7.5945 Br  0  0  0  0  0  0  0  0  0  0  0  0
  -26.5714   -9.9045   -5.4645 C   0  0  0  0  0  0  0  0  0  0  0  0
  -29.4451   -3.0251   -5.6088 C   0  0  0  0  0  0  0  0  0  0  0  0
  -28.8554   -2.6489   -6.9454 C   0  0  0  0  0  0  0  0  0  0  0  0
  -28.9918   -3.4866   -8.0576 C   0  0  0  0  0  0  0  0  0  0  0  0
  -28.3668   -3.1701   -9.2711 C   0  0  0  0  0  0  0  0  0  0  0  0
  -27.5981   -2.0026   -9.4234 C   0  0  0  0  0  0  0  0  0  0  0  0
  -27.5099   -1.1516   -8.3069 C   0  0  0  0  0  0  0  0  0  0  0  0
  -28.1148   -1.4720   -7.0858 C   0  0  0  0  0  0  0  0  0  0  0  0
  -26.8869   -1.6954  -10.6904 C   0  0  0  0  0  0  0  0  0  0  0  0
  -27.5123   -1.8241  -11.9446 C   0  0  0  0  0  0  0  0  0  0  0  0
  -26.8291   -1.5524  -13.1359 C   0  0  0  0  0  0  0  0  0  0  0  0
  -25.5041   -1.1308  -13.1015 C   0  0  0  0  0  0  0  0  0  0  0  0
  -24.8598   -0.9905  -11.8778 C   0  0  0  0  0  0  0  0  0  0  0  0
  -25.5415   -1.2777  -10.6906 C   0  0  0  0  0  0  0  0  0  0  0  0
  1  2  1  0  0  0
  1 11  1  0  0  0
  1 12  1  0  0  0
  2  3  1  0  0  0
  2 10  2  0  0  0
  3  4  2  0  0  0
  4 13  1  0  0  0
  4  5  1  0  0  0
 13 15  1  0  0  0
 13 14  1  0  0  0
 15 16  1  0  0  0
 15 21  2  0  0  0
 16 17  2  0  0  0
 17 18  1  0  0  0
 18 19  2  0  0  0
 19 20  1  0  0  0
 19 21  1  0  0  0
  5  6  1  0  0  0
  5  9  2  0  0  0
  6  7  2  0  0  0
  7  8  1  0  0  0
  8 22  1  0  0  0
  8  9  1  0  0  0
 22 23  1  0  0  0
 23 24  1  0  0  0
 23 28  2  0  0  0
 24 25  2  0  0  0
 25 26  1  0  0  0
 26 29  1  0  0  0
 26 27  2  0  0  0
 29 30  1  0  0  0
 29 34  2  0  0  0
 30 31  2  0  0  0
 31 32  1  0  0  0
 32 33  2  0  0  0
 33 34  1  0  0  0
 27 28  1  0  0  0
  9 10  1  0  0  0
M  END
> <minimizedAffinity>
-9.25052

$$$$
