CHEMBL3656104


 44 48  0  0  0  0  0  0  0  0999 V2000
  -21.7834    0.8419  -14.3725 C   0  0  0  0  0  0  0  0  0  0  0  0
  -22.4791    1.9936  -14.0172 C   0  0  0  0  0  0  0  0  0  0  0  0
  -21.8432    3.2111  -14.1725 C   0  0  0  0  0  0  0  0  0  0  0  0
  -20.5701    3.3446  -14.6001 N   0  0  0  0  0  0  0  0  0  0  0  0
  -19.8928    2.2017  -14.8755 C   0  0  0  0  0  0  0  0  0  0  0  0
  -20.4563    0.9389  -14.7756 C   0  0  0  0  0  0  0  0  0  0  0  0
  -18.5100    2.4117  -15.2837 C   0  0  0  0  0  0  0  0  0  0  0  0
  -17.4659    1.5345  -15.5190 C   0  0  0  0  0  0  0  0  0  0  0  0
  -16.3113    2.2834  -15.9069 C   0  0  0  0  0  0  0  0  0  0  0  0
  -16.6839    3.6139  -15.8289 C   0  0  0  0  0  0  0  0  0  0  0  0
  -18.0090    3.6758  -15.4965 N   0  0  0  0  0  0  0  0  0  0  0  0
  -18.5656    4.5154  -15.3898 H   0  0  0  0  0  0  0  0  0  0  0  0
  -15.0014    1.7278  -16.2412 C   0  0  0  0  0  0  0  0  0  0  0  0
  -14.6134    1.6860  -17.4084 O   0  0  0  0  0  0  0  0  0  0  0  0
  -14.1925    1.3010  -15.1958 N   0  0  0  0  0  0  0  0  0  0  0  0
  -14.4149    1.4812  -13.7761 C   0  0  0  0  0  0  0  0  0  0  0  0
  -13.0121    1.5928  -13.2065 C   0  0  0  0  0  0  0  0  0  0  0  0
  -12.1795    0.6744  -14.1046 C   0  0  0  0  0  0  0  0  0  0  0  0
  -12.9019    0.6881  -15.4502 C   0  0  0  0  0  0  0  0  0  0  0  0
  -12.1094   -0.7299  -13.5492 C   0  0  0  0  0  0  0  0  0  0  0  0
  -12.6398   -1.7061  -14.0561 O   0  0  0  0  0  0  0  0  0  0  0  0
  -11.3862   -0.8172  -12.4098 O   0  0  0  0  0  0  0  0  0  0  0  0
  -11.0228    0.0277  -12.0839 H   0  0  0  0  0  0  0  0  0  0  0  0
  -22.3102   -0.4284  -14.2974 O   0  0  0  0  0  0  0  0  0  0  0  0
  -25.9478   -0.9580  -12.3130 C   0  0  0  0  0  0  0  0  0  0  0  0
  -25.7886   -1.4913  -13.5968 C   0  0  0  0  0  0  0  0  0  0  0  0
  -24.5814   -1.3464  -14.2789 C   0  0  0  0  0  0  0  0  0  0  0  0
  -23.5399   -0.6165  -13.7047 C   0  0  0  0  0  0  0  0  0  0  0  0
  -23.6967   -0.0835  -12.4215 C   0  0  0  0  0  0  0  0  0  0  0  0
  -24.9082   -0.2298  -11.7335 C   0  0  0  0  0  0  0  0  0  0  0  0
  -28.2150   -2.0254   -9.6942 N   0  0  0  0  0  0  0  0  0  0  0  0
  -26.9961   -1.7145  -10.2768 C   0  0  0  0  0  0  0  0  0  0  0  0
  -25.9066   -1.7888   -9.7210 O   0  0  0  0  0  0  0  0  0  0  0  0
  -27.1294   -1.2223  -11.5738 N   0  0  0  0  0  0  0  0  0  0  0  0
  -29.0408   -1.7415  -10.1960 H   0  0  0  0  0  0  0  0  0  0  0  0
  -27.8752   -0.5514  -11.6817 H   0  0  0  0  0  0  0  0  0  0  0  0
  -29.6424   -5.7822   -6.8117 C   0  0  0  0  0  0  0  0  0  0  0  0
  -29.1200   -4.3822   -6.9569 C   0  0  0  0  0  0  0  0  0  0  0  0
  -28.8937   -3.6052   -5.8164 C   0  0  0  0  0  0  0  0  0  0  0  0
  -28.3800   -2.3210   -5.9432 C   0  0  0  0  0  0  0  0  0  0  0  0
  -28.1073   -1.7985   -7.2035 C   0  0  0  0  0  0  0  0  0  0  0  0
  -27.4862   -0.6132   -7.2254 F   0  0  0  0  0  0  0  0  0  0  0  0
  -28.3825   -2.5233   -8.3725 C   0  0  0  0  0  0  0  0  0  0  0  0
  -28.8605   -3.8356   -8.2314 C   0  0  0  0  0  0  0  0  0  0  0  0
 37 38  1  0  0  0
 38 39  1  0  0  0
 38 44  2  0  0  0
 39 40  2  0  0  0
 40 41  1  0  0  0
 41 42  1  0  0  0
 41 43  2  0  0  0
 43 31  1  0  0  0
 43 44  1  0  0  0
 31 32  1  0  0  0
 31 35  1  0  0  0
 32 33  2  0  0  0
 32 34  1  0  0  0
 34 25  1  0  0  0
 34 36  1  0  0  0
 25 26  1  0  0  0
 25 30  2  0  0  0
 26 27  2  0  0  0
 27 28  1  0  0  0
 28 24  1  0  0  0
 28 29  2  0  0  0
 24  1  1  0  0  0
  1  2  1  0  0  0
  1  6  2  0  0  0
  2  3  2  0  0  0
  3  4  1  0  0  0
  4  5  2  0  0  0
  5  7  1  0  0  0
  5  6  1  0  0  0
  7  8  2  0  0  0
  7 11  1  0  0  0
  8  9  1  0  0  0
  9 13  1  0  0  0
  9 10  2  0  0  0
 13 14  2  0  0  0
 13 15  1  0  0  0
 15 16  1  0  0  0
 15 19  1  0  0  0
 16 17  1  0  0  0
 17 18  1  0  0  0
 18 20  1  0  0  0
 18 19  1  0  0  0
 20 21  2  0  0  0
 20 22  1  0  0  0
 22 23  1  0  0  0
 10 11  1  0  0  0
 11 12  1  0  0  0
 29 30  1  0  0  0
M  END
> <minimizedAffinity>
-12.47383

$$$$
