CHEMBL3694694


 33 36  0  0  0  0  0  0  0  0999 V2000
  -16.7598    0.7304  -15.0843 C   0  0  0  0  0  0  0  0  0  0  0  0
  -16.1068    1.6887  -15.8561 C   0  0  0  0  0  0  0  0  0  0  0  0
  -16.7696    2.8552  -16.2120 C   0  0  0  0  0  0  0  0  0  0  0  0
  -16.1375    3.7702  -16.9586 F   0  0  0  0  0  0  0  0  0  0  0  0
  -18.0725    3.0993  -15.8018 C   0  0  0  0  0  0  0  0  0  0  0  0
  -18.7582    2.1528  -15.0330 C   0  0  0  0  0  0  0  0  0  0  0  0
  -18.0960    0.9559  -14.7087 C   0  0  0  0  0  0  0  0  0  0  0  0
  -20.1444    2.4266  -14.6312 C   0  0  0  0  0  0  0  0  0  0  0  0
  -20.7555    3.6563  -14.4183 C   0  0  0  0  0  0  0  0  0  0  0  0
  -22.0588    3.5322  -14.0323 N   0  0  0  0  0  0  0  0  0  0  0  0
  -22.2762    2.2385  -13.9792 C   0  0  0  0  0  0  0  0  0  0  0  0
  -23.4534    1.5242  -13.6187 C   0  0  0  0  0  0  0  0  0  0  0  0
  -23.4769    0.1700  -13.5975 C   0  0  0  0  0  0  0  0  0  0  0  0
  -22.2482   -0.5590  -13.9543 C   0  0  0  0  0  0  0  0  0  0  0  0
  -21.1291    0.1093  -14.2801 C   0  0  0  0  0  0  0  0  0  0  0  0
  -21.1401    1.5044  -14.3155 N   0  0  0  0  0  0  0  0  0  0  0  0
  -24.7261   -0.5284  -13.1874 C   0  0  0  0  0  0  0  0  0  0  0  0
  -25.3636   -1.2897  -14.0981 N   0  0  0  0  0  0  0  0  0  0  0  0
  -26.5044   -1.8805  -13.6994 C   0  0  0  0  0  0  0  0  0  0  0  0
  -27.0285   -1.7424  -12.4388 C   0  0  0  0  0  0  0  0  0  0  0  0
  -26.3031   -0.9519  -11.5802 C   0  0  0  0  0  0  0  0  0  0  0  0
  -25.1552   -0.3368  -11.9238 N   0  0  0  0  0  0  0  0  0  0  0  0
  -15.9375   -0.0728  -12.3459 O   0  0  0  0  0  0  0  0  0  0  0  0
  -15.7986   -0.7714  -13.3388 C   0  0  0  0  0  0  0  0  0  0  0  0
  -15.2525   -2.0369  -13.2553 N   0  0  0  0  0  0  0  0  0  0  0  0
  -16.1479   -0.4599  -14.6332 N   0  0  0  0  0  0  0  0  0  0  0  0
  -14.7638   -2.3600  -14.0783 H   0  0  0  0  0  0  0  0  0  0  0  0
  -16.0336   -1.1968  -15.3123 H   0  0  0  0  0  0  0  0  0  0  0  0
  -14.6902   -2.4703  -11.9701 C   0  0  0  0  0  0  0  0  0  0  0  0
  -15.6717   -3.2175  -11.0562 C   0  0  0  0  0  0  0  0  0  0  0  0
  -16.6954   -3.7605  -11.7571 F   0  0  0  0  0  0  0  0  0  0  0  0
  -15.0764   -4.1993  -10.3508 F   0  0  0  0  0  0  0  0  0  0  0  0
  -16.2248   -2.3543  -10.1681 F   0  0  0  0  0  0  0  0  0  0  0  0
 23 24  2  0  0  0
 24 25  1  0  0  0
 24 26  1  0  0  0
 25 29  1  0  0  0
 25 27  1  0  0  0
 29 30  1  0  0  0
 30 31  1  0  0  0
 30 32  1  0  0  0
 30 33  1  0  0  0
 26  1  1  0  0  0
 26 28  1  0  0  0
  1  2  1  0  0  0
  1  7  2  0  0  0
  2  3  2  0  0  0
  3  4  1  0  0  0
  3  5  1  0  0  0
  5  6  2  0  0  0
  6  8  1  0  0  0
  6  7  1  0  0  0
  8  9  2  0  0  0
  8 16  1  0  0  0
  9 10  1  0  0  0
 10 11  2  0  0  0
 11 12  1  0  0  0
 11 16  1  0  0  0
 12 13  2  0  0  0
 13 17  1  0  0  0
 13 14  1  0  0  0
 17 18  1  0  0  0
 17 22  2  0  0  0
 18 19  2  0  0  0
 19 20  1  0  0  0
 20 21  2  0  0  0
 21 22  1  0  0  0
 14 15  2  0  0  0
 15 16  1  0  0  0
M  END
> <minimizedAffinity>
-10.46539

$$$$
