CHEMBL2420866


 23 26  0  0  0  0  0  0  0  0999 V2000
  -12.6761   -3.3999  -10.7194 C   0  0  0  0  0  0  0  0  0  0  0  0
  -12.0619   -3.8857  -11.8672 C   0  0  0  0  0  0  0  0  0  0  0  0
  -12.8191   -4.5417  -12.8353 C   0  0  0  0  0  0  0  0  0  0  0  0
  -14.1838   -4.8050  -12.6417 C   0  0  0  0  0  0  0  0  0  0  0  0
  -14.8185   -4.2501  -11.5168 C   0  0  0  0  0  0  0  0  0  0  0  0
  -14.0550   -3.5597  -10.5603 C   0  0  0  0  0  0  0  0  0  0  0  0
  -16.3116   -4.3630  -11.3350 C   0  0  0  0  0  0  0  0  0  0  0  0
  -16.9529   -5.4026  -12.2503 C   0  0  0  0  0  0  0  0  0  0  0  0
  -16.3102   -5.3806  -13.6340 C   0  0  0  0  0  0  0  0  0  0  0  0
  -14.8888   -5.7009  -13.4901 N   0  0  0  0  0  0  0  0  0  0  0  0
  -14.3830   -6.7672  -14.2689 C   0  0  0  0  0  0  0  0  0  0  0  0
  -14.4031   -6.6148  -15.6109 N   0  0  0  0  0  0  0  0  0  0  0  0
  -13.7977   -7.5482  -16.3579 C   0  0  0  0  0  0  0  0  0  0  0  0
  -13.8113   -7.3742  -17.8439 C   0  0  0  0  0  0  0  0  0  0  0  0
  -13.1476   -8.6160  -15.8761 N   0  0  0  0  0  0  0  0  0  0  0  0
  -13.1524   -8.7904  -14.5545 C   0  0  0  0  0  0  0  0  0  0  0  0
  -12.4378   -9.8659  -14.0370 C   0  0  0  0  0  0  0  0  0  0  0  0
  -12.3720  -10.1265  -12.6662 C   0  0  0  0  0  0  0  0  0  0  0  0
  -13.1049   -9.3471  -11.7905 C   0  0  0  0  0  0  0  0  0  0  0  0
  -13.8652   -8.2984  -12.2980 C   0  0  0  0  0  0  0  0  0  0  0  0
  -13.8227   -7.9325  -13.6754 C   0  0  0  0  0  0  0  0  0  0  0  0
  -12.2133   -3.3740   -8.4052 C   0  0  0  0  0  0  0  0  0  0  0  0
  -12.0262   -2.7792   -9.6880 O   0  0  0  0  0  0  0  0  0  0  0  0
 22 23  1  0  0  0
 23  1  1  0  0  0
  1  2  1  0  0  0
  1  6  2  0  0  0
  2  3  2  0  0  0
  3  4  1  0  0  0
  4  5  2  0  0  0
  4 10  1  0  0  0
  5  6  1  0  0  0
  5  7  1  0  0  0
  7  8  1  0  0  0
  8  9  1  0  0  0
  9 10  1  0  0  0
 10 11  1  0  0  0
 11 12  1  0  0  0
 11 21  2  0  0  0
 12 13  2  0  0  0
 13 14  1  0  0  0
 13 15  1  0  0  0
 15 16  2  0  0  0
 16 17  1  0  0  0
 16 21  1  0  0  0
 17 18  2  0  0  0
 18 19  1  0  0  0
 19 20  2  0  0  0
 20 21  1  0  0  0
M  END
> <minimizedAffinity>
-7.36304

$$$$
