CHEMBL2430259


 35 39  0  0  0  0  0  0  0  0999 V2000
  -28.7364   -8.6316   -2.8981 C   0  0  0  0  0  0  0  0  0  0  0  0
  -28.7150   -7.8521   -4.1695 C   0  0  0  0  0  0  0  0  0  0  0  0
  -28.6462   -6.4663   -4.1519 N   0  0  0  0  0  0  0  0  0  0  0  0
  -28.6561   -5.9813   -5.4331 C   0  0  0  0  0  0  0  0  0  0  0  0
  -28.7468   -7.0691   -6.2744 C   0  0  0  0  0  0  0  0  0  0  0  0
  -28.8046   -8.2601   -5.4957 C   0  0  0  0  0  0  0  0  0  0  0  0
  -28.7641   -7.0107   -7.7632 C   0  0  0  0  0  0  0  0  0  0  0  0
  -28.6908   -5.6168   -8.3477 C   0  0  0  0  0  0  0  0  0  0  0  0
  -28.6151   -4.4375   -7.3869 C   0  0  0  0  0  0  0  0  0  0  0  0
  -28.5901   -4.6246   -5.8716 C   0  0  0  0  0  0  0  0  0  0  0  0
  -28.5167   -3.5017   -5.1084 C   0  0  0  0  0  0  0  0  0  0  0  0
  -28.4797   -3.3552   -3.5962 C   0  0  0  0  0  0  0  0  0  0  0  0
  -28.5022   -4.2275   -2.7480 O   0  0  0  0  0  0  0  0  0  0  0  0
  -28.4084   -1.9880   -3.3491 N   0  0  0  0  0  0  0  0  0  0  0  0
  -28.3924   -1.2507   -4.5279 C   0  0  0  0  0  0  0  0  0  0  0  0
  -28.3249    0.1311   -4.6511 C   0  0  0  0  0  0  0  0  0  0  0  0
  -28.3246    0.6815   -5.9351 C   0  0  0  0  0  0  0  0  0  0  0  0
  -28.3879   -0.1494   -7.0490 C   0  0  0  0  0  0  0  0  0  0  0  0
  -28.3890    0.3743   -8.2754 F   0  0  0  0  0  0  0  0  0  0  0  0
  -28.4510   -1.5280   -6.9013 C   0  0  0  0  0  0  0  0  0  0  0  0
  -28.4556   -2.0982   -5.6355 C   0  0  0  0  0  0  0  0  0  0  0  0
  -28.6050   -5.8959   -3.3108 H   0  0  0  0  0  0  0  0  0  0  0  0
  -28.3722   -1.6045   -2.4142 H   0  0  0  0  0  0  0  0  0  0  0  0
  -28.9478   -9.5916   -6.0832 C   0  0  0  0  0  0  0  0  0  0  0  0
  -27.9786  -10.2413   -6.4743 O   0  0  0  0  0  0  0  0  0  0  0  0
  -30.2097  -10.1175   -6.0996 N   0  0  0  0  0  0  0  0  0  0  0  0
  -30.9825   -9.6129   -5.6969 H   0  0  0  0  0  0  0  0  0  0  0  0
  -30.4093  -11.4663   -6.5742 C   0  0  0  0  0  0  0  0  0  0  0  0
  -31.1298  -11.5240   -7.9285 C   0  0  0  0  0  0  0  0  0  0  0  0
  -30.2123  -11.5840   -9.0861 N   0  0  0  0  0  0  0  0  0  0  0  0
  -29.8528  -10.2293   -9.5411 C   0  0  0  0  0  0  0  0  0  0  0  0
  -28.9593  -10.2847  -10.7752 C   0  0  0  0  0  0  0  0  0  0  0  0
  -27.6994  -11.0935  -10.5045 C   0  0  0  0  0  0  0  0  0  0  0  0
  -28.0599  -12.4660   -9.9476 C   0  0  0  0  0  0  0  0  0  0  0  0
  -29.0008  -12.3501   -8.7452 C   0  0  0  0  0  0  0  0  0  0  0  0
  1  2  1  0  0  0
  2  3  1  0  0  0
  2  6  2  0  0  0
  3  4  1  0  0  0
  3 22  1  0  0  0
  4  5  2  0  0  0
  4 10  1  0  0  0
  5  6  1  0  0  0
  5  7  1  0  0  0
  6 24  1  0  0  0
 24 25  2  0  0  0
 24 26  1  0  0  0
 26 28  1  0  0  0
 26 27  1  0  0  0
 28 29  1  0  0  0
 29 30  1  0  0  0
 30 31  1  0  0  0
 30 35  1  0  0  0
 31 32  1  0  0  0
 32 33  1  0  0  0
 33 34  1  0  0  0
 34 35  1  0  0  0
  7  8  1  0  0  0
  8  9  1  0  0  0
  9 10  1  0  0  0
 10 11  2  0  0  0
 11 12  1  0  0  0
 11 21  1  0  0  0
 12 13  2  0  0  0
 12 14  1  0  0  0
 14 15  1  0  0  0
 14 23  1  0  0  0
 15 16  1  0  0  0
 15 21  2  0  0  0
 16 17  2  0  0  0
 17 18  1  0  0  0
 18 19  1  0  0  0
 18 20  2  0  0  0
 20 21  1  0  0  0
M  END
> <minimizedAffinity>
-7.80818

$$$$
