CHEMBL3116050


 29 32  0  0  0  0  0  0  0  0999 V2000
  -29.2482   -4.1649   -7.4748 C   0  0  0  0  0  0  0  0  0  0  0  0
  -28.7721   -5.4008   -7.6605 N   0  0  0  0  0  0  0  0  0  0  0  0
  -28.9700   -6.3902   -6.7491 C   0  0  0  0  0  0  0  0  0  0  0  0
  -29.7600   -6.0753   -5.6366 C   0  0  0  0  0  0  0  0  0  0  0  0
  -30.3098   -6.7685   -4.5216 C   0  0  0  0  0  0  0  0  0  0  0  0
  -31.0950   -5.8755   -3.8215 C   0  0  0  0  0  0  0  0  0  0  0  0
  -31.0063   -4.6591   -4.4494 N   0  0  0  0  0  0  0  0  0  0  0  0
  -30.2211   -4.7717   -5.5636 C   0  0  0  0  0  0  0  0  0  0  0  0
  -29.9846   -3.7765   -6.4288 N   0  0  0  0  0  0  0  0  0  0  0  0
  -31.4761   -3.8069   -4.1796 H   0  0  0  0  0  0  0  0  0  0  0  0
  -28.9502   -3.2845   -8.5003 N   0  0  0  0  0  0  0  0  0  0  0  0
  -29.7724   -2.7028   -8.6452 H   0  0  0  0  0  0  0  0  0  0  0  0
  -27.5294   -1.7602   -9.6855 C   0  0  0  0  0  0  0  0  0  0  0  0
  -27.7403   -2.4788   -8.3511 C   0  0  0  0  0  0  0  0  0  0  0  0
  -27.8469   -1.4519   -7.2189 C   0  0  0  0  0  0  0  0  0  0  0  0
  -27.2801   -1.7720   -6.0306 N   0  0  0  0  0  0  0  0  0  0  0  0
  -27.3414   -0.8405   -5.0544 C   0  0  0  0  0  0  0  0  0  0  0  0
  -27.9343    0.3889   -5.2284 C   0  0  0  0  0  0  0  0  0  0  0  0
  -27.9754    1.2923   -4.2421 F   0  0  0  0  0  0  0  0  0  0  0  0
  -28.4720    0.6320   -6.4647 C   0  0  0  0  0  0  0  0  0  0  0  0
  -28.4474   -0.2624   -7.4791 N   0  0  0  0  0  0  0  0  0  0  0  0
  -28.4401   -7.6701   -6.9646 N   0  0  0  0  0  0  0  0  0  0  0  0
  -27.7211   -7.9467   -6.3117 H   0  0  0  0  0  0  0  0  0  0  0  0
  -28.8442   -8.5881   -7.8567 C   0  0  0  0  0  0  0  0  0  0  0  0
  -28.3033   -8.8605   -9.0885 C   0  0  0  0  0  0  0  0  0  0  0  0
  -29.1115   -9.8106   -9.6292 N   0  0  0  0  0  0  0  0  0  0  0  0
  -28.9531  -10.3977  -10.9303 C   0  0  0  0  0  0  0  0  0  0  0  0
  -30.0974  -10.0744   -8.7230 C   0  0  0  0  0  0  0  0  0  0  0  0
  -29.9671   -9.3365   -7.6380 N   0  0  0  0  0  0  0  0  0  0  0  0
 14 15  1  0  0  0
 14 11  1  0  0  0
 14 13  1  0  0  0
 11  1  1  0  0  0
 11 12  1  0  0  0
  1  2  1  0  0  0
  1  9  2  0  0  0
  2  3  2  0  0  0
  3 22  1  0  0  0
  3  4  1  0  0  0
 22 24  1  0  0  0
 22 23  1  0  0  0
 24 25  2  0  0  0
 24 29  1  0  0  0
 25 26  1  0  0  0
 26 27  1  0  0  0
 26 28  1  0  0  0
 28 29  2  0  0  0
  4  5  1  0  0  0
  4  8  2  0  0  0
  5  6  2  0  0  0
  6  7  1  0  0  0
  7  8  1  0  0  0
  7 10  1  0  0  0
  8  9  1  0  0  0
 15 16  1  0  0  0
 15 21  2  0  0  0
 16 17  2  0  0  0
 17 18  1  0  0  0
 18 19  1  0  0  0
 18 20  2  0  0  0
 20 21  1  0  0  0
M  END
> <minimizedAffinity>
-8.47967

$$$$
