CHEMBL3656075


 51 54  0  0  0  0  0  0  0  0999 V2000
  -13.4423    1.9449  -17.8227 C   0  0  0  0  0  0  0  0  0  0  0  0
  -12.9324    3.2189  -17.5866 C   0  0  0  0  0  0  0  0  0  0  0  0
  -13.5839    4.0211  -16.6674 C   0  0  0  0  0  0  0  0  0  0  0  0
  -14.7155    3.6651  -16.0209 N   0  0  0  0  0  0  0  0  0  0  0  0
  -15.2273    2.4455  -16.3155 C   0  0  0  0  0  0  0  0  0  0  0  0
  -14.6305    1.5646  -17.2095 C   0  0  0  0  0  0  0  0  0  0  0  0
  -16.4645    2.1189  -15.6114 C   0  0  0  0  0  0  0  0  0  0  0  0
  -17.7861    2.4209  -15.8941 C   0  0  0  0  0  0  0  0  0  0  0  0
  -18.6213    1.8858  -14.8674 C   0  0  0  0  0  0  0  0  0  0  0  0
  -17.7621    1.2440  -13.9890 C   0  0  0  0  0  0  0  0  0  0  0  0
  -16.4798    1.3850  -14.4470 N   0  0  0  0  0  0  0  0  0  0  0  0
  -15.6421    1.0163  -14.0098 H   0  0  0  0  0  0  0  0  0  0  0  0
  -20.0731    1.9601  -14.7051 C   0  0  0  0  0  0  0  0  0  0  0  0
  -20.6738    3.0282  -14.6266 O   0  0  0  0  0  0  0  0  0  0  0  0
  -20.7140    0.7397  -14.6541 N   0  0  0  0  0  0  0  0  0  0  0  0
  -20.1785   -0.1107  -14.7527 H   0  0  0  0  0  0  0  0  0  0  0  0
  -22.1477    0.6247  -14.5206 C   0  0  0  0  0  0  0  0  0  0  0  0
  -22.6373    0.9930  -13.1179 C   0  0  0  0  0  0  0  0  0  0  0  0
  -22.7841   -0.2089  -12.1843 C   0  0  0  0  0  0  0  0  0  0  0  0
  -23.6769   -1.2812  -12.7677 C   0  0  0  0  0  0  0  0  0  0  0  0
  -23.2224   -2.3255  -13.2257 O   0  0  0  0  0  0  0  0  0  0  0  0
  -25.0243   -1.0096  -12.7001 N   0  0  0  0  0  0  0  0  0  0  0  0
  -25.3260   -0.0455  -12.5987 H   0  0  0  0  0  0  0  0  0  0  0  0
  -25.9833   -1.9514  -13.2493 C   0  0  0  0  0  0  0  0  0  0  0  0
  -27.4070   -1.6765  -12.7583 C   0  0  0  0  0  0  0  0  0  0  0  0
  -28.2746   -2.7117  -13.2452 O   0  0  0  0  0  0  0  0  0  0  0  0
  -28.1830   -3.4796  -12.6520 H   0  0  0  0  0  0  0  0  0  0  0  0
  -27.4383   -1.6040  -11.2244 C   0  0  0  0  0  0  0  0  0  0  0  0
  -26.8086   -2.7365  -10.6333 O   0  0  0  0  0  0  0  0  0  0  0  0
  -27.1739   -3.5369  -11.0489 H   0  0  0  0  0  0  0  0  0  0  0  0
  -12.8615    1.0287  -18.6741 O   0  0  0  0  0  0  0  0  0  0  0  0
  -12.3574   -2.9225  -17.3773 C   0  0  0  0  0  0  0  0  0  0  0  0
  -13.2735   -2.6464  -18.3987 C   0  0  0  0  0  0  0  0  0  0  0  0
  -13.4439   -1.3434  -18.8687 C   0  0  0  0  0  0  0  0  0  0  0  0
  -12.7464   -0.2883  -18.2788 C   0  0  0  0  0  0  0  0  0  0  0  0
  -11.8246   -0.5611  -17.2625 C   0  0  0  0  0  0  0  0  0  0  0  0
  -11.6466   -1.8722  -16.7933 C   0  0  0  0  0  0  0  0  0  0  0  0
  -12.3198   -6.0270  -15.5003 N   0  0  0  0  0  0  0  0  0  0  0  0
  -12.6781   -4.7400  -15.8192 C   0  0  0  0  0  0  0  0  0  0  0  0
  -13.4905   -4.0610  -15.1946 O   0  0  0  0  0  0  0  0  0  0  0  0
  -12.0985   -4.2666  -16.9956 N   0  0  0  0  0  0  0  0  0  0  0  0
  -11.7870   -6.5362  -16.1828 H   0  0  0  0  0  0  0  0  0  0  0  0
  -12.0960   -4.9447  -17.7434 H   0  0  0  0  0  0  0  0  0  0  0  0
  -11.3459   -7.8931  -11.0058 C   0  0  0  0  0  0  0  0  0  0  0  0
  -12.2959   -7.6852  -12.1499 C   0  0  0  0  0  0  0  0  0  0  0  0
  -13.5726   -8.2530  -12.0950 C   0  0  0  0  0  0  0  0  0  0  0  0
  -14.4679   -8.0485  -13.1355 C   0  0  0  0  0  0  0  0  0  0  0  0
  -14.0920   -7.2905  -14.2429 C   0  0  0  0  0  0  0  0  0  0  0  0
  -15.0654   -7.0357  -15.1269 F   0  0  0  0  0  0  0  0  0  0  0  0
  -12.8009   -6.7505  -14.3649 C   0  0  0  0  0  0  0  0  0  0  0  0
  -11.9170   -6.9343  -13.2841 C   0  0  0  0  0  0  0  0  0  0  0  0
 44 45  1  0  0  0
 45 46  1  0  0  0
 45 51  2  0  0  0
 46 47  2  0  0  0
 47 48  1  0  0  0
 48 49  1  0  0  0
 48 50  2  0  0  0
 50 38  1  0  0  0
 50 51  1  0  0  0
 38 39  1  0  0  0
 38 42  1  0  0  0
 39 40  2  0  0  0
 39 41  1  0  0  0
 41 32  1  0  0  0
 41 43  1  0  0  0
 32 33  1  0  0  0
 32 37  2  0  0  0
 33 34  2  0  0  0
 34 35  1  0  0  0
 35 31  1  0  0  0
 35 36  2  0  0  0
 31  1  1  0  0  0
  1  2  1  0  0  0
  1  6  2  0  0  0
  2  3  2  0  0  0
  3  4  1  0  0  0
  4  5  2  0  0  0
  5  7  1  0  0  0
  5  6  1  0  0  0
  7  8  2  0  0  0
  7 11  1  0  0  0
  8  9  1  0  0  0
  9 13  1  0  0  0
  9 10  2  0  0  0
 13 14  2  0  0  0
 13 15  1  0  0  0
 15 17  1  0  0  0
 15 16  1  0  0  0
 17 18  1  0  0  0
 18 19  1  0  0  0
 19 20  1  0  0  0
 20 21  2  0  0  0
 20 22  1  0  0  0
 22 24  1  0  0  0
 22 23  1  0  0  0
 24 25  1  0  0  0
 25 26  1  0  0  0
 25 28  1  0  0  0
 26 27  1  0  0  0
 28 29  1  0  0  0
 29 30  1  0  0  0
 10 11  1  0  0  0
 11 12  1  0  0  0
 36 37  1  0  0  0
M  END
> <minimizedAffinity>
-8.16772

$$$$
