CHEMBL1278147


 32 35  0  0  0  0  0  0  0  0999 V2000
  -28.3121   -9.5150   -5.3938 N   0  0  0  0  0  0  0  0  0  0  0  0
  -28.6698   -9.4366   -3.9661 C   0  0  0  0  0  0  0  0  0  0  0  0
  -29.1507   -8.0903   -3.3866 C   0  0  0  0  0  0  0  0  0  0  0  0
  -29.3100   -7.0704   -4.4402 C   0  0  0  0  0  0  0  0  0  0  0  0
  -29.7320   -5.7847   -4.2394 N   0  0  0  0  0  0  0  0  0  0  0  0
  -29.6820   -5.1033   -5.4325 C   0  0  0  0  0  0  0  0  0  0  0  0
  -29.2538   -5.9833   -6.4157 C   0  0  0  0  0  0  0  0  0  0  0  0
  -29.0344   -5.6854   -7.8575 C   0  0  0  0  0  0  0  0  0  0  0  0
  -28.9925   -7.2318   -5.7710 C   0  0  0  0  0  0  0  0  0  0  0  0
  -28.4528   -8.4700   -6.3104 C   0  0  0  0  0  0  0  0  0  0  0  0
  -28.1427   -8.5771   -7.4942 O   0  0  0  0  0  0  0  0  0  0  0  0
  -29.9809   -5.3786   -3.3463 H   0  0  0  0  0  0  0  0  0  0  0  0
  -30.0112   -3.7301   -5.4638 C   0  0  0  0  0  0  0  0  0  0  0  0
  -29.1258   -2.7775   -5.1340 C   0  0  0  0  0  0  0  0  0  0  0  0
  -27.7373   -2.9733   -4.5657 C   0  0  0  0  0  0  0  0  0  0  0  0
  -27.1937   -3.9933   -4.1962 O   0  0  0  0  0  0  0  0  0  0  0  0
  -27.2011   -1.6974   -4.4888 N   0  0  0  0  0  0  0  0  0  0  0  0
  -28.1065   -0.7348   -4.9147 C   0  0  0  0  0  0  0  0  0  0  0  0
  -27.8951    0.6280   -4.9578 C   0  0  0  0  0  0  0  0  0  0  0  0
  -28.9415    1.4215   -5.4319 C   0  0  0  0  0  0  0  0  0  0  0  0
  -30.1509    0.8338   -5.8463 C   0  0  0  0  0  0  0  0  0  0  0  0
  -31.4137    1.8452   -6.4387 Cl  0  0  0  0  0  0  0  0  0  0  0  0
  -30.3477   -0.5509   -5.7929 C   0  0  0  0  0  0  0  0  0  0  0  0
  -29.3093   -1.3303   -5.3148 C   0  0  0  0  0  0  0  0  0  0  0  0
  -26.2684   -1.5289   -4.1445 H   0  0  0  0  0  0  0  0  0  0  0  0
  -27.7711  -10.7868   -5.8810 C   0  0  0  0  0  0  0  0  0  0  0  0
  -26.3567  -11.0749   -5.3332 C   0  0  0  0  0  0  0  0  0  0  0  0
  -25.3124  -10.0866   -5.6946 N   0  0  0  0  0  0  0  0  0  0  0  0
  -24.9174  -10.2635   -3.1968 C   0  0  0  0  0  0  0  0  0  0  0  0
  -24.8279   -9.4230   -4.4682 C   0  0  0  0  0  0  0  0  0  0  0  0
  -24.2431  -10.6300   -6.5423 C   0  0  0  0  0  0  0  0  0  0  0  0
  -22.8469  -10.0698   -6.2915 C   0  0  0  0  0  0  0  0  0  0  0  0
 29 30  1  0  0  0
 30 28  1  0  0  0
 28 31  1  0  0  0
 28 27  1  0  0  0
 31 32  1  0  0  0
 27 26  1  0  0  0
 26  1  1  0  0  0
  1  2  1  0  0  0
  1 10  1  0  0  0
  2  3  1  0  0  0
  3  4  1  0  0  0
  4  5  1  0  0  0
  4  9  2  0  0  0
  5  6  1  0  0  0
  5 12  1  0  0  0
  6 13  1  0  0  0
  6  7  2  0  0  0
 13 14  2  0  0  0
 14 15  1  0  0  0
 14 24  1  0  0  0
 15 16  2  0  0  0
 15 17  1  0  0  0
 17 18  1  0  0  0
 17 25  1  0  0  0
 18 19  1  0  0  0
 18 24  2  0  0  0
 19 20  2  0  0  0
 20 21  1  0  0  0
 21 22  1  0  0  0
 21 23  2  0  0  0
 23 24  1  0  0  0
  7  8  1  0  0  0
  7  9  1  0  0  0
  9 10  1  0  0  0
 10 11  2  0  0  0
M  END
> <minimizedAffinity>
-7.96104

$$$$
