CHEMBL3099462


 43 46  0  0  0  0  0  0  0  0999 V2000
  -28.2097   -1.8888   -9.6958 N   0  0  0  0  0  0  0  0  0  0  0  0
  -26.9877   -1.7402  -10.3417 C   0  0  0  0  0  0  0  0  0  0  0  0
  -25.9538   -2.2153   -9.9187 O   0  0  0  0  0  0  0  0  0  0  0  0
  -27.0734   -0.9912  -11.5156 N   0  0  0  0  0  0  0  0  0  0  0  0
  -29.0065   -1.3729  -10.0198 H   0  0  0  0  0  0  0  0  0  0  0  0
  -27.7197   -0.2212  -11.4809 H   0  0  0  0  0  0  0  0  0  0  0  0
  -28.8236   -4.6240   -7.2012 C   0  0  0  0  0  0  0  0  0  0  0  0
  -28.6859   -3.9004   -8.4179 C   0  0  0  0  0  0  0  0  0  0  0  0
  -28.3002   -2.5609   -8.4577 C   0  0  0  0  0  0  0  0  0  0  0  0
  -28.0306   -1.9059   -7.2659 C   0  0  0  0  0  0  0  0  0  0  0  0
  -28.0761   -2.5940   -6.0548 C   0  0  0  0  0  0  0  0  0  0  0  0
  -28.4628   -3.9610   -5.9892 C   0  0  0  0  0  0  0  0  0  0  0  0
  -29.4553   -8.2966   -8.1359 C   0  0  0  0  0  0  0  0  0  0  0  0
  -28.8447   -7.0484   -7.9661 C   0  0  0  0  0  0  0  0  0  0  0  0
  -29.4589   -5.9795   -7.2687 C   0  0  0  0  0  0  0  0  0  0  0  0
  -30.7418   -6.2205   -6.7726 C   0  0  0  0  0  0  0  0  0  0  0  0
  -31.3510   -7.4782   -6.8852 C   0  0  0  0  0  0  0  0  0  0  0  0
  -30.6874   -8.5337   -7.5328 C   0  0  0  0  0  0  0  0  0  0  0  0
  -31.3316   -9.8724   -7.5224 C   0  0  0  0  0  0  0  0  0  0  0  0
  -30.8304  -10.9449   -6.5727 C   0  0  0  0  0  0  0  0  0  0  0  0
  -32.3094  -10.0782   -8.2396 O   0  0  0  0  0  0  0  0  0  0  0  0
  -27.6976   -9.8334   -8.6276 C   0  0  0  0  0  0  0  0  0  0  0  0
  -28.9511   -9.2567   -8.9763 O   0  0  0  0  0  0  0  0  0  0  0  0
  -27.6529   -1.9864   -4.9037 O   0  0  0  0  0  0  0  0  0  0  0  0
  -27.6772   -0.5608   -4.9201 C   0  0  0  0  0  0  0  0  0  0  0  0
  -28.4804   -4.6690   -4.8144 O   0  0  0  0  0  0  0  0  0  0  0  0
  -29.5560   -4.3996   -3.8984 C   0  0  0  0  0  0  0  0  0  0  0  0
  -25.8834   -0.7735  -12.2625 C   0  0  0  0  0  0  0  0  0  0  0  0
  -25.6631   -1.4695  -13.4564 C   0  0  0  0  0  0  0  0  0  0  0  0
  -24.4643   -1.3204  -14.1639 C   0  0  0  0  0  0  0  0  0  0  0  0
  -23.4738   -0.4707  -13.6827 C   0  0  0  0  0  0  0  0  0  0  0  0
  -23.6879    0.2234  -12.4870 C   0  0  0  0  0  0  0  0  0  0  0  0
  -24.8992    0.1011  -11.7915 C   0  0  0  0  0  0  0  0  0  0  0  0
  -22.2602   -0.2742  -14.2753 O   0  0  0  0  0  0  0  0  0  0  0  0
  -21.5392    0.8931  -13.8665 C   0  0  0  0  0  0  0  0  0  0  0  0
  -20.7533    1.4124  -15.0671 C   0  0  0  0  0  0  0  0  0  0  0  0
  -19.3437    0.8088  -15.1278 C   0  0  0  0  0  0  0  0  0  0  0  0
  -18.3703    1.5263  -14.2824 N   0  0  0  0  0  0  0  0  0  0  0  0
  -18.3031    2.9624  -14.6542 C   0  0  0  0  0  0  0  0  0  0  0  0
  -17.6067    3.2296  -16.0040 C   0  0  0  0  0  0  0  0  0  0  0  0
  -16.2999    2.6410  -16.0588 O   0  0  0  0  0  0  0  0  0  0  0  0
  -16.3522    1.2387  -15.7670 C   0  0  0  0  0  0  0  0  0  0  0  0
  -16.9946    0.9890  -14.3941 C   0  0  0  0  0  0  0  0  0  0  0  0
 22 23  1  0  0  0
 23 13  1  0  0  0
 13 14  1  0  0  0
 13 18  2  0  0  0
 14 15  2  0  0  0
 15  7  1  0  0  0
 15 16  1  0  0  0
  7  8  1  0  0  0
  7 12  2  0  0  0
  8  9  2  0  0  0
  9  1  1  0  0  0
  9 10  1  0  0  0
  1  2  1  0  0  0
  1  5  1  0  0  0
  2  3  2  0  0  0
  2  4  1  0  0  0
  4 28  1  0  0  0
  4  6  1  0  0  0
 28 29  1  0  0  0
 28 33  2  0  0  0
 29 30  2  0  0  0
 30 31  1  0  0  0
 31 34  1  0  0  0
 31 32  2  0  0  0
 34 35  1  0  0  0
 35 36  1  0  0  0
 36 37  1  0  0  0
 37 38  1  0  0  0
 38 39  1  0  0  0
 38 43  1  0  0  0
 39 40  1  0  0  0
 40 41  1  0  0  0
 41 42  1  0  0  0
 42 43  1  0  0  0
 32 33  1  0  0  0
 10 11  2  0  0  0
 11 24  1  0  0  0
 11 12  1  0  0  0
 24 25  1  0  0  0
 12 26  1  0  0  0
 26 27  1  0  0  0
 16 17  2  0  0  0
 17 18  1  0  0  0
 18 19  1  0  0  0
 19 20  1  0  0  0
 19 21  2  0  0  0
M  END
> <minimizedAffinity>
-10.15134

$$$$
