CHEMBL47166


 27 30  0  0  0  0  0  0  0  0999 V2000
  -28.6982   -6.2945   -6.9707 C   0  0  0  0  0  0  0  0  0  0  0  0
  -28.3995   -5.5345   -8.0276 N   0  0  0  0  0  0  0  0  0  0  0  0
  -28.8642   -4.2660   -8.0160 C   0  0  0  0  0  0  0  0  0  0  0  0
  -29.6068   -3.7231   -6.9907 C   0  0  0  0  0  0  0  0  0  0  0  0
  -29.7995   -4.5558   -5.9157 C   0  0  0  0  0  0  0  0  0  0  0  0
  -29.3690   -5.8273   -5.9117 N   0  0  0  0  0  0  0  0  0  0  0  0
  -30.4325   -4.0883   -4.7307 N   0  0  0  0  0  0  0  0  0  0  0  0
  -31.3916   -4.7729   -4.0139 C   0  0  0  0  0  0  0  0  0  0  0  0
  -31.5751   -4.0571   -2.8583 C   0  0  0  0  0  0  0  0  0  0  0  0
  -30.8266   -2.9168   -2.8750 N   0  0  0  0  0  0  0  0  0  0  0  0
  -30.1781   -2.9014   -4.0355 C   0  0  0  0  0  0  0  0  0  0  0  0
  -29.3817   -1.7450   -4.5021 C   0  0  0  0  0  0  0  0  0  0  0  0
  -30.0206   -0.6533   -5.1030 C   0  0  0  0  0  0  0  0  0  0  0  0
  -29.2950    0.4643   -5.5321 C   0  0  0  0  0  0  0  0  0  0  0  0
  -27.9150    0.5126   -5.3550 C   0  0  0  0  0  0  0  0  0  0  0  0
  -27.2560   -0.5761   -4.7967 C   0  0  0  0  0  0  0  0  0  0  0  0
  -27.9800   -1.7075   -4.4143 C   0  0  0  0  0  0  0  0  0  0  0  0
  -28.2769   -7.6258   -6.9586 N   0  0  0  0  0  0  0  0  0  0  0  0
  -27.3171   -7.6720   -6.6466 H   0  0  0  0  0  0  0  0  0  0  0  0
  -31.2948  -11.2360   -8.5088 C   0  0  0  0  0  0  0  0  0  0  0  0
  -30.0919  -10.3612   -8.6890 C   0  0  0  0  0  0  0  0  0  0  0  0
  -29.7852   -9.3901   -7.7463 C   0  0  0  0  0  0  0  0  0  0  0  0
  -28.6394   -8.6066   -7.9018 C   0  0  0  0  0  0  0  0  0  0  0  0
  -27.8545   -8.8150   -9.0343 C   0  0  0  0  0  0  0  0  0  0  0  0
  -28.2192   -9.8122   -9.9377 C   0  0  0  0  0  0  0  0  0  0  0  0
  -27.3754  -10.1178  -11.1377 C   0  0  0  0  0  0  0  0  0  0  0  0
  -29.3270  -10.5759   -9.7806 N   0  0  0  0  0  0  0  0  0  0  0  0
 20 21  1  0  0  0
 21 22  1  0  0  0
 21 27  2  0  0  0
 22 23  2  0  0  0
 23 18  1  0  0  0
 23 24  1  0  0  0
 18  1  1  0  0  0
 18 19  1  0  0  0
  1  2  1  0  0  0
  1  6  2  0  0  0
  2  3  2  0  0  0
  3  4  1  0  0  0
  4  5  2  0  0  0
  5  7  1  0  0  0
  5  6  1  0  0  0
  7  8  1  0  0  0
  7 11  1  0  0  0
  8  9  2  0  0  0
  9 10  1  0  0  0
 10 11  2  0  0  0
 11 12  1  0  0  0
 12 13  1  0  0  0
 12 17  2  0  0  0
 13 14  2  0  0  0
 14 15  1  0  0  0
 15 16  2  0  0  0
 16 17  1  0  0  0
 24 25  2  0  0  0
 25 26  1  0  0  0
 25 27  1  0  0  0
M  END
> <minimizedAffinity>
-8.73668

$$$$
