CHEMBL2088089


 26 28  0  0  0  0  0  0  0  0999 V2000
  -16.1148    0.3347  -14.3863 C   0  0  0  0  0  0  0  0  0  0  0  0
  -17.3542    0.5672  -13.9036 N   0  0  0  0  0  0  0  0  0  0  0  0
  -18.1817    1.3625  -14.6005 C   0  0  0  0  0  0  0  0  0  0  0  0
  -17.8295    1.9826  -15.7273 N   0  0  0  0  0  0  0  0  0  0  0  0
  -16.5667    1.8109  -16.1502 C   0  0  0  0  0  0  0  0  0  0  0  0
  -15.6611    0.9922  -15.5246 C   0  0  0  0  0  0  0  0  0  0  0  0
  -13.9290    0.7696  -16.2417 Br  0  0  0  0  0  0  0  0  0  0  0  0
  -15.2943   -0.6425  -13.7779 N   0  0  0  0  0  0  0  0  0  0  0  0
  -14.3691   -0.6839  -14.1809 H   0  0  0  0  0  0  0  0  0  0  0  0
  -16.6210   -5.0532  -11.9151 C   0  0  0  0  0  0  0  0  0  0  0  0
  -16.2016   -3.6611  -12.1740 C   0  0  0  0  0  0  0  0  0  0  0  0
  -16.0016   -2.9676  -13.3464 C   0  0  0  0  0  0  0  0  0  0  0  0
  -15.6198   -1.6660  -12.9644 C   0  0  0  0  0  0  0  0  0  0  0  0
  -15.5980   -1.5418  -11.6302 N   0  0  0  0  0  0  0  0  0  0  0  0
  -15.9175   -2.7692  -11.1807 N   0  0  0  0  0  0  0  0  0  0  0  0
  -15.9261   -2.9232  -10.1786 H   0  0  0  0  0  0  0  0  0  0  0  0
  -19.4407    1.5252  -14.0983 N   0  0  0  0  0  0  0  0  0  0  0  0
  -19.5140    2.0491  -13.2407 H   0  0  0  0  0  0  0  0  0  0  0  0
  -20.5632    0.9041  -14.7577 C   0  0  0  0  0  0  0  0  0  0  0  0
  -21.8870    1.3662  -14.1414 C   0  0  0  0  0  0  0  0  0  0  0  0
  -22.6701    0.2051  -13.5930 C   0  0  0  0  0  0  0  0  0  0  0  0
  -22.4221   -0.3025  -12.3156 C   0  0  0  0  0  0  0  0  0  0  0  0
  -23.2013   -1.3464  -11.8255 C   0  0  0  0  0  0  0  0  0  0  0  0
  -24.2090   -1.8484  -12.6319 C   0  0  0  0  0  0  0  0  0  0  0  0
  -24.4807   -1.3834  -13.8695 N   0  0  0  0  0  0  0  0  0  0  0  0
  -23.7093   -0.3686  -14.3201 C   0  0  0  0  0  0  0  0  0  0  0  0
 10 11  1  0  0  0
 11 12  2  0  0  0
 11 15  1  0  0  0
 12 13  1  0  0  0
 13  8  1  0  0  0
 13 14  2  0  0  0
  8  1  1  0  0  0
  8  9  1  0  0  0
  1  2  1  0  0  0
  1  6  2  0  0  0
  2  3  2  0  0  0
  3 17  1  0  0  0
  3  4  1  0  0  0
 17 19  1  0  0  0
 17 18  1  0  0  0
 19 20  1  0  0  0
 20 21  1  0  0  0
 21 22  1  0  0  0
 21 26  2  0  0  0
 22 23  2  0  0  0
 23 24  1  0  0  0
 24 25  2  0  0  0
 25 26  1  0  0  0
  4  5  2  0  0  0
  5  6  1  0  0  0
  6  7  1  0  0  0
 14 15  1  0  0  0
 15 16  1  0  0  0
M  END
> <minimizedAffinity>
-7.96924

$$$$
