CHEMBL374745


 42 48  0  0  0  0  0  0  0  0999 V2000
  -16.3371    2.1047  -15.0989 N   0  0  0  0  0  0  0  0  0  0  0  0
  -15.9573    0.9604  -14.3614 C   0  0  0  0  0  0  0  0  0  0  0  0
  -16.5668    0.2909  -13.2868 C   0  0  0  0  0  0  0  0  0  0  0  0
  -15.9005   -0.8136  -12.7140 C   0  0  0  0  0  0  0  0  0  0  0  0
  -14.6738   -1.2803  -13.1881 C   0  0  0  0  0  0  0  0  0  0  0  0
  -14.0743   -0.5945  -14.2438 C   0  0  0  0  0  0  0  0  0  0  0  0
  -14.6969    0.5407  -14.8121 C   0  0  0  0  0  0  0  0  0  0  0  0
  -14.3683    1.5378  -15.7063 C   0  0  0  0  0  0  0  0  0  0  0  0
  -13.0416    1.8175  -16.0606 C   0  0  0  0  0  0  0  0  0  0  0  0
  -12.8031    3.1299  -16.5129 C   0  0  0  0  0  0  0  0  0  0  0  0
  -13.8175    4.0769  -16.7352 C   0  0  0  0  0  0  0  0  0  0  0  0
  -15.1011    3.4732  -16.9496 C   0  0  0  0  0  0  0  0  0  0  0  0
  -15.3624    2.4117  -16.0530 C   0  0  0  0  0  0  0  0  0  0  0  0
  -15.4560    3.4176  -18.5002 C   0  0  0  0  0  0  0  0  0  0  0  0
  -14.2701    3.8483  -19.4668 C   0  0  0  0  0  0  0  0  0  0  0  0
  -13.7417    5.1363  -18.9408 C   0  0  0  0  0  0  0  0  0  0  0  0
  -13.7437    6.3256  -19.5416 N   0  0  0  0  0  0  0  0  0  0  0  0
  -13.6137    7.1813  -18.4958 N   0  0  0  0  0  0  0  0  0  0  0  0
  -13.7179    8.6034  -18.7168 C   0  0  0  0  0  0  0  0  0  0  0  0
  -13.6263    6.5579  -17.2710 C   0  0  0  0  0  0  0  0  0  0  0  0
  -13.5238    5.2217  -17.5569 C   0  0  0  0  0  0  0  0  0  0  0  0
  -11.3950    3.2202  -16.8381 C   0  0  0  0  0  0  0  0  0  0  0  0
  -10.6965    4.0961  -17.3153 O   0  0  0  0  0  0  0  0  0  0  0  0
  -10.8951    1.9557  -16.5413 N   0  0  0  0  0  0  0  0  0  0  0  0
  -11.8321    1.0107  -15.9857 C   0  0  0  0  0  0  0  0  0  0  0  0
   -9.9414    1.7406  -16.7843 H   0  0  0  0  0  0  0  0  0  0  0  0
  -13.9645   -2.3963  -12.6627 N   0  0  0  0  0  0  0  0  0  0  0  0
  -14.1446   -3.7112  -13.0381 C   0  0  0  0  0  0  0  0  0  0  0  0
  -14.9676   -4.0890  -13.8570 O   0  0  0  0  0  0  0  0  0  0  0  0
  -13.2767   -4.5809  -12.3661 N   0  0  0  0  0  0  0  0  0  0  0  0
  -13.2566   -2.2046  -11.9682 H   0  0  0  0  0  0  0  0  0  0  0  0
  -12.9394   -4.2781  -11.4586 H   0  0  0  0  0  0  0  0  0  0  0  0
  -13.1782   -5.9641  -12.6559 C   0  0  0  0  0  0  0  0  0  0  0  0
  -13.8378   -6.9302  -11.8845 C   0  0  0  0  0  0  0  0  0  0  0  0
  -13.6323   -8.2908  -12.1044 C   0  0  0  0  0  0  0  0  0  0  0  0
  -12.7916   -8.6934  -13.1276 C   0  0  0  0  0  0  0  0  0  0  0  0
  -12.5651   -9.9986  -13.3199 F   0  0  0  0  0  0  0  0  0  0  0  0
  -12.1844   -7.7552  -13.9555 C   0  0  0  0  0  0  0  0  0  0  0  0
  -12.3797   -6.3865  -13.7272 C   0  0  0  0  0  0  0  0  0  0  0  0
  -17.5204    2.9036  -14.7943 C   0  0  0  0  0  0  0  0  0  0  0  0
  -19.5418    1.3557  -15.1331 C   0  0  0  0  0  0  0  0  0  0  0  0
  -18.7736    2.5738  -15.6230 C   0  0  0  0  0  0  0  0  0  0  0  0
 41 42  1  0  0  0
 42 40  1  0  0  0
 40  1  1  0  0  0
  1  2  1  0  0  0
  1 13  1  0  0  0
  2  3  1  0  0  0
  2  7  2  0  0  0
  3  4  2  0  0  0
  4  5  1  0  0  0
  5 27  1  0  0  0
  5  6  2  0  0  0
 27 28  1  0  0  0
 27 31  1  0  0  0
 28 29  2  0  0  0
 28 30  1  0  0  0
 30 33  1  0  0  0
 30 32  1  0  0  0
 33 34  1  0  0  0
 33 39  2  0  0  0
 34 35  2  0  0  0
 35 36  1  0  0  0
 36 37  1  0  0  0
 36 38  2  0  0  0
 38 39  1  0  0  0
  6  7  1  0  0  0
  7  8  1  0  0  0
  8  9  1  0  0  0
  8 13  2  0  0  0
  9 10  2  0  0  0
  9 25  1  0  0  0
 10 11  1  0  0  0
 10 22  1  0  0  0
 11 12  2  0  0  0
 11 21  1  0  0  0
 12 13  1  0  0  0
 12 14  1  0  0  0
 14 15  1  0  0  0
 15 16  1  0  0  0
 16 17  2  0  0  0
 16 21  1  0  0  0
 17 18  1  0  0  0
 18 19  1  0  0  0
 18 20  1  0  0  0
 20 21  2  0  0  0
 22 23  2  0  0  0
 22 24  1  0  0  0
 24 25  1  0  0  0
 24 26  1  0  0  0
M  END
> <minimizedAffinity>
-7.09685

$$$$
