CHEMBL424672


 27 29  0  0  0  0  0  0  0  0999 V2000
  -16.9280    1.0356  -13.0694 O   0  0  0  0  0  0  0  0  0  0  0  0
  -16.6470    1.1087  -14.2631 C   0  0  0  0  0  0  0  0  0  0  0  0
  -17.6173    1.2695  -15.2501 N   0  0  0  0  0  0  0  0  0  0  0  0
  -17.3334    1.1020  -16.2084 H   0  0  0  0  0  0  0  0  0  0  0  0
  -18.9973    1.4342  -14.9827 C   0  0  0  0  0  0  0  0  0  0  0  0
  -19.5258    2.6311  -14.4807 C   0  0  0  0  0  0  0  0  0  0  0  0
  -20.8680    2.7407  -14.1202 C   0  0  0  0  0  0  0  0  0  0  0  0
  -21.7209    1.6561  -14.2721 C   0  0  0  0  0  0  0  0  0  0  0  0
  -21.2144    0.4737  -14.8219 C   0  0  0  0  0  0  0  0  0  0  0  0
  -19.8647    0.3662  -15.1963 C   0  0  0  0  0  0  0  0  0  0  0  0
  -23.0278    1.6154  -13.8822 O   0  0  0  0  0  0  0  0  0  0  0  0
  -23.4212    0.5479  -13.0227 C   0  0  0  0  0  0  0  0  0  0  0  0
  -22.3509    0.0495  -12.3562 F   0  0  0  0  0  0  0  0  0  0  0  0
  -24.3137    1.0061  -12.1102 F   0  0  0  0  0  0  0  0  0  0  0  0
  -24.1539   -0.7423  -13.9820 Cl  0  0  0  0  0  0  0  0  0  0  0  0
  -15.2665    0.9849  -14.6918 C   0  0  0  0  0  0  0  0  0  0  0  0
  -14.5324    1.9706  -15.8796 S   0  0  0  0  0  0  0  0  0  0  0  0
  -13.0584    1.1248  -15.6493 C   0  0  0  0  0  0  0  0  0  0  0  0
  -13.0752    0.1584  -14.7590 N   0  0  0  0  0  0  0  0  0  0  0  0
  -14.3399    0.0685  -14.1982 C   0  0  0  0  0  0  0  0  0  0  0  0
  -14.6273   -0.9608  -13.1387 C   0  0  0  0  0  0  0  0  0  0  0  0
  -15.4468   -2.1667  -13.5860 C   0  0  0  0  0  0  0  0  0  0  0  0
  -15.8227   -3.0233  -12.4244 C   0  0  0  0  0  0  0  0  0  0  0  0
  -15.6378   -2.7655  -11.0472 C   0  0  0  0  0  0  0  0  0  0  0  0
  -16.0751   -3.7662  -10.2798 N   0  0  0  0  0  0  0  0  0  0  0  0
  -16.5556   -4.7192  -11.1627 O   0  0  0  0  0  0  0  0  0  0  0  0
  -16.3994   -4.2720  -12.4332 C   0  0  0  0  0  0  0  0  0  0  0  0
  1  2  2  0  0  0
  2  3  1  0  0  0
  2 16  1  0  0  0
  3  5  1  0  0  0
  3  4  1  0  0  0
  5  6  1  0  0  0
  5 10  2  0  0  0
  6  7  2  0  0  0
  7  8  1  0  0  0
  8 11  1  0  0  0
  8  9  2  0  0  0
 11 12  1  0  0  0
 12 13  1  0  0  0
 12 14  1  0  0  0
 12 15  1  0  0  0
  9 10  1  0  0  0
 16 17  1  0  0  0
 16 20  2  0  0  0
 17 18  1  0  0  0
 18 19  2  0  0  0
 19 20  1  0  0  0
 20 21  1  0  0  0
 21 22  1  0  0  0
 22 23  1  0  0  0
 23 24  1  0  0  0
 23 27  2  0  0  0
 24 25  2  0  0  0
 25 26  1  0  0  0
 26 27  1  0  0  0
M  END
> <minimizedAffinity>
-8.58887

$$$$
