CHEMBL3671584


 34 36  0  0  0  0  0  0  0  0999 V2000
  -28.4852   -4.8780   -5.5498 C   0  0  0  0  0  0  0  0  0  0  0  0
  -28.1343   -6.1630   -5.1373 C   0  0  0  0  0  0  0  0  0  0  0  0
  -28.4680   -7.2797   -5.9299 C   0  0  0  0  0  0  0  0  0  0  0  0
  -28.2446   -8.6105   -5.5352 C   0  0  0  0  0  0  0  0  0  0  0  0
  -28.5538   -9.6482   -6.3283 N   0  0  0  0  0  0  0  0  0  0  0  0
  -29.1283   -9.3523   -7.4979 C   0  0  0  0  0  0  0  0  0  0  0  0
  -29.4071   -8.1246   -7.9602 N   0  0  0  0  0  0  0  0  0  0  0  0
  -29.0733   -7.0919   -7.1789 C   0  0  0  0  0  0  0  0  0  0  0  0
  -29.3475   -5.7880   -7.6013 C   0  0  0  0  0  0  0  0  0  0  0  0
  -29.0479   -4.6689   -6.8135 C   0  0  0  0  0  0  0  0  0  0  0  0
  -29.4247   -3.7477   -3.5984 C   0  0  0  0  0  0  0  0  0  0  0  0
  -29.2377   -3.0190   -2.6313 O   0  0  0  0  0  0  0  0  0  0  0  0
  -28.4704   -3.8626   -4.5823 N   0  0  0  0  0  0  0  0  0  0  0  0
  -27.5657   -3.5650   -4.2331 H   0  0  0  0  0  0  0  0  0  0  0  0
  -31.8085   -4.1215   -3.2609 C   0  0  0  0  0  0  0  0  0  0  0  0
  -30.6454   -4.5873   -3.7320 C   0  0  0  0  0  0  0  0  0  0  0  0
  -27.7475   -8.8684   -4.2390 N   0  0  0  0  0  0  0  0  0  0  0  0
  -28.4890   -8.8006   -3.5456 H   0  0  0  0  0  0  0  0  0  0  0  0
  -26.7225   -9.7585   -3.8481 C   0  0  0  0  0  0  0  0  0  0  0  0
  -25.3837   -9.3439   -3.8256 C   0  0  0  0  0  0  0  0  0  0  0  0
  -24.3985  -10.1293   -3.2220 C   0  0  0  0  0  0  0  0  0  0  0  0
  -24.7433  -11.3451   -2.6378 C   0  0  0  0  0  0  0  0  0  0  0  0
  -23.4320  -12.3393   -1.7079 Br  0  0  0  0  0  0  0  0  0  0  0  0
  -26.0528  -11.8125   -2.6979 C   0  0  0  0  0  0  0  0  0  0  0  0
  -27.0333  -11.0186   -3.2976 C   0  0  0  0  0  0  0  0  0  0  0  0
  -28.6590  -11.6155   -3.3372 Cl  0  0  0  0  0  0  0  0  0  0  0  0
  -29.4242   -3.4484   -7.3299 O   0  0  0  0  0  0  0  0  0  0  0  0
  -28.5407   -2.9327   -8.3378 C   0  0  0  0  0  0  0  0  0  0  0  0
  -27.5207   -1.9544   -7.7458 C   0  0  0  0  0  0  0  0  0  0  0  0
  -28.1824   -0.8467   -7.0651 N   0  0  0  0  0  0  0  0  0  0  0  0
  -27.9469   -0.5785   -5.7361 C   0  0  0  0  0  0  0  0  0  0  0  0
  -28.8234    0.4958   -5.1473 C   0  0  0  0  0  0  0  0  0  0  0  0
  -27.0941   -1.1588   -5.0724 O   0  0  0  0  0  0  0  0  0  0  0  0
  -28.9662   -0.4010   -7.5261 H   0  0  0  0  0  0  0  0  0  0  0  0
 15 16  2  0  0  0
 16 11  1  0  0  0
 11 12  2  0  0  0
 11 13  1  0  0  0
 13  1  1  0  0  0
 13 14  1  0  0  0
  1  2  1  0  0  0
  1 10  2  0  0  0
  2  3  2  0  0  0
  3  4  1  0  0  0
  3  8  1  0  0  0
  4 17  1  0  0  0
  4  5  2  0  0  0
 17 19  1  0  0  0
 17 18  1  0  0  0
 19 20  1  0  0  0
 19 25  2  0  0  0
 20 21  2  0  0  0
 21 22  1  0  0  0
 22 23  1  0  0  0
 22 24  2  0  0  0
 24 25  1  0  0  0
 25 26  1  0  0  0
  5  6  1  0  0  0
  6  7  2  0  0  0
  7  8  1  0  0  0
  8  9  2  0  0  0
  9 10  1  0  0  0
 10 27  1  0  0  0
 27 28  1  0  0  0
 28 29  1  0  0  0
 29 30  1  0  0  0
 30 31  1  0  0  0
 30 34  1  0  0  0
 31 32  1  0  0  0
 31 33  2  0  0  0
M  END
> <minimizedAffinity>
-7.84591

$$$$
