CHEMBL598024


 26 29  0  0  0  0  0  0  0  0999 V2000
  -13.5697   -0.5866  -16.2344 O   0  0  0  0  0  0  0  0  0  0  0  0
  -13.9910    0.5659  -16.3198 C   0  0  0  0  0  0  0  0  0  0  0  0
  -14.3656    1.3650  -15.0932 C   0  0  0  0  0  0  0  0  0  0  0  0
  -15.7955    1.7639  -15.1418 C   0  0  0  0  0  0  0  0  0  0  0  0
  -16.7467    1.2401  -14.2963 C   0  0  0  0  0  0  0  0  0  0  0  0
  -18.0543    1.5476  -14.3618 N   0  0  0  0  0  0  0  0  0  0  0  0
  -18.4167    2.4485  -15.2801 C   0  0  0  0  0  0  0  0  0  0  0  0
  -17.5475    3.0238  -16.1362 N   0  0  0  0  0  0  0  0  0  0  0  0
  -16.2504    2.6579  -16.0867 C   0  0  0  0  0  0  0  0  0  0  0  0
  -15.3589    3.2628  -17.1007 C   0  0  0  0  0  0  0  0  0  0  0  0
  -15.5058    4.6282  -17.4263 C   0  0  0  0  0  0  0  0  0  0  0  0
  -14.7015    5.2448  -18.3884 C   0  0  0  0  0  0  0  0  0  0  0  0
  -13.7709    4.4960  -19.0974 C   0  0  0  0  0  0  0  0  0  0  0  0
  -13.6319    3.1371  -18.8303 C   0  0  0  0  0  0  0  0  0  0  0  0
  -14.3729    2.5296  -17.8038 C   0  0  0  0  0  0  0  0  0  0  0  0
  -14.0365    1.1873  -17.5386 N   0  0  0  0  0  0  0  0  0  0  0  0
  -13.5715    0.6555  -18.2652 H   0  0  0  0  0  0  0  0  0  0  0  0
  -19.7719    2.7499  -15.3592 N   0  0  0  0  0  0  0  0  0  0  0  0
  -19.9585    3.4269  -16.0841 H   0  0  0  0  0  0  0  0  0  0  0  0
  -20.8599    2.0650  -14.8083 C   0  0  0  0  0  0  0  0  0  0  0  0
  -21.9045    2.7808  -14.2075 C   0  0  0  0  0  0  0  0  0  0  0  0
  -22.9414    2.1099  -13.5516 C   0  0  0  0  0  0  0  0  0  0  0  0
  -22.9452    0.7169  -13.5012 C   0  0  0  0  0  0  0  0  0  0  0  0
  -24.4489   -0.2892  -12.4797 I   0  0  0  0  0  0  0  0  0  0  0  0
  -21.9314   -0.0106  -14.1149 C   0  0  0  0  0  0  0  0  0  0  0  0
  -20.8947    0.6653  -14.7534 C   0  0  0  0  0  0  0  0  0  0  0  0
  1  2  2  0  0  0
  2  3  1  0  0  0
  2 16  1  0  0  0
  3  4  1  0  0  0
  4  5  1  0  0  0
  4  9  2  0  0  0
  5  6  2  0  0  0
  6  7  1  0  0  0
  7 18  1  0  0  0
  7  8  2  0  0  0
 18 20  1  0  0  0
 18 19  1  0  0  0
 20 21  1  0  0  0
 20 26  2  0  0  0
 21 22  2  0  0  0
 22 23  1  0  0  0
 23 24  1  0  0  0
 23 25  2  0  0  0
 25 26  1  0  0  0
  8  9  1  0  0  0
  9 10  1  0  0  0
 10 11  1  0  0  0
 10 15  2  0  0  0
 11 12  2  0  0  0
 12 13  1  0  0  0
 13 14  2  0  0  0
 14 15  1  0  0  0
 15 16  1  0  0  0
 16 17  1  0  0  0
M  END
> <minimizedAffinity>
-8.33162

$$$$
