CHEMBL1258913


 42 47  0  0  0  0  0  0  0  0999 V2000
  -17.0123    0.8850  -14.7051 C   0  0  0  0  0  0  0  0  0  0  0  0
  -18.1369    1.3921  -14.1700 N   0  0  0  0  0  0  0  0  0  0  0  0
  -18.0598    2.6610  -14.6465 N   0  0  0  0  0  0  0  0  0  0  0  0
  -17.0333    2.9419  -15.5201 C   0  0  0  0  0  0  0  0  0  0  0  0
  -16.4767    4.0291  -16.2395 C   0  0  0  0  0  0  0  0  0  0  0  0
  -15.3151    3.6388  -16.8819 C   0  0  0  0  0  0  0  0  0  0  0  0
  -15.0414    1.9227  -16.7720 S   0  0  0  0  0  0  0  0  0  0  0  0
  -16.3339    1.7727  -15.6292 C   0  0  0  0  0  0  0  0  0  0  0  0
  -18.7187    3.3493  -14.2986 H   0  0  0  0  0  0  0  0  0  0  0  0
  -15.3845    0.2880  -12.4909 O   0  0  0  0  0  0  0  0  0  0  0  0
  -15.8062   -0.5976  -13.2312 C   0  0  0  0  0  0  0  0  0  0  0  0
  -16.6205   -0.3829  -14.3234 N   0  0  0  0  0  0  0  0  0  0  0  0
  -17.3146   -1.0848  -14.5386 H   0  0  0  0  0  0  0  0  0  0  0  0
  -15.5000   -2.0231  -12.8908 C   0  0  0  0  0  0  0  0  0  0  0  0
  -14.8334   -2.8000  -13.8428 C   0  0  0  0  0  0  0  0  0  0  0  0
  -14.5577   -4.1521  -13.6036 C   0  0  0  0  0  0  0  0  0  0  0  0
  -14.9383   -4.7884  -12.4115 C   0  0  0  0  0  0  0  0  0  0  0  0
  -15.6121   -3.9931  -11.4727 C   0  0  0  0  0  0  0  0  0  0  0  0
  -15.8907   -2.6322  -11.6959 C   0  0  0  0  0  0  0  0  0  0  0  0
  -14.6765   -6.1204  -12.1944 N   0  0  0  0  0  0  0  0  0  0  0  0
  -13.8352   -6.6121  -11.0897 C   0  0  0  0  0  0  0  0  0  0  0  0
  -12.7463   -7.5467  -11.6377 C   0  0  0  0  0  0  0  0  0  0  0  0
  -13.3131   -8.6232  -12.4051 O   0  0  0  0  0  0  0  0  0  0  0  0
  -14.0690   -8.1013  -13.5118 C   0  0  0  0  0  0  0  0  0  0  0  0
  -15.2227   -7.1957  -13.0400 C   0  0  0  0  0  0  0  0  0  0  0  0
  -14.3458    4.5444  -17.5235 C   0  0  0  0  0  0  0  0  0  0  0  0
  -13.2385    4.1565  -17.8903 O   0  0  0  0  0  0  0  0  0  0  0  0
  -14.7485    5.8399  -17.7421 N   0  0  0  0  0  0  0  0  0  0  0  0
  -15.5685    6.1696  -17.2492 H   0  0  0  0  0  0  0  0  0  0  0  0
  -14.0763    6.7659  -18.6720 C   0  0  0  0  0  0  0  0  0  0  0  0
  -15.0652    7.5779  -19.5101 C   0  0  0  0  0  0  0  0  0  0  0  0
  -15.3747    8.9058  -19.1596 C   0  0  0  0  0  0  0  0  0  0  0  0
  -16.1871    9.7016  -19.9738 C   0  0  0  0  0  0  0  0  0  0  0  0
  -16.7137    9.1871  -21.1546 C   0  0  0  0  0  0  0  0  0  0  0  0
  -16.4463    7.8714  -21.5089 C   0  0  0  0  0  0  0  0  0  0  0  0
  -15.6354    7.0789  -20.6980 C   0  0  0  0  0  0  0  0  0  0  0  0
  -12.9468    7.6359  -18.0002 C   0  0  0  0  0  0  0  0  0  0  0  0
  -11.7002    7.8148  -18.7760 N   0  0  0  0  0  0  0  0  0  0  0  0
  -11.6187    9.1425  -19.4078 C   0  0  0  0  0  0  0  0  0  0  0  0
  -11.9293    8.9188  -20.8738 C   0  0  0  0  0  0  0  0  0  0  0  0
  -11.2919    7.5720  -21.1300 C   0  0  0  0  0  0  0  0  0  0  0  0
  -11.5663    6.8134  -19.8433 C   0  0  0  0  0  0  0  0  0  0  0  0
 10 11  2  0  0  0
 11 12  1  0  0  0
 11 14  1  0  0  0
 12  1  1  0  0  0
 12 13  1  0  0  0
  1  2  2  0  0  0
  1  8  1  0  0  0
  2  3  1  0  0  0
  3  4  1  0  0  0
  3  9  1  0  0  0
  4  5  1  0  0  0
  4  8  2  0  0  0
  5  6  2  0  0  0
  6 26  1  0  0  0
  6  7  1  0  0  0
 26 27  2  0  0  0
 26 28  1  0  0  0
 28 29  1  0  0  0
 30 31  1  0  0  0
 30 37  1  0  0  0
 30 28  1  0  0  0
 37 38  1  0  0  0
 38 39  1  0  0  0
 38 42  1  0  0  0
 39 40  1  0  0  0
 40 41  1  0  0  0
 41 42  1  0  0  0
 31 32  1  0  0  0
 31 36  2  0  0  0
 32 33  2  0  0  0
 33 34  1  0  0  0
 34 35  2  0  0  0
 35 36  1  0  0  0
  7  8  1  0  0  0
 14 15  1  0  0  0
 14 19  2  0  0  0
 15 16  2  0  0  0
 16 17  1  0  0  0
 17 20  1  0  0  0
 17 18  2  0  0  0
 20 21  1  0  0  0
 20 25  1  0  0  0
 21 22  1  0  0  0
 22 23  1  0  0  0
 23 24  1  0  0  0
 24 25  1  0  0  0
 18 19  1  0  0  0
M  END
> <minimizedAffinity>
-8.43737

$$$$
