CHEMBL4069483


 37 41  0  0  0  0  0  0  0  0999 V2000
  -27.5454   -1.2774   -9.0683 N   0  0  0  0  0  0  0  0  0  0  0  0
  -26.4905   -2.0024   -9.4961 N   0  0  0  0  0  0  0  0  0  0  0  0
  -26.5041   -1.7947  -10.8080 C   0  0  0  0  0  0  0  0  0  0  0  0
  -27.4908   -0.9654  -11.2425 N   0  0  0  0  0  0  0  0  0  0  0  0
  -28.1356   -0.6410  -10.1518 C   0  0  0  0  0  0  0  0  0  0  0  0
  -29.1496    0.2400  -10.0715 N   0  0  0  0  0  0  0  0  0  0  0  0
  -29.5659    0.5458  -10.9441 H   0  0  0  0  0  0  0  0  0  0  0  0
  -29.7807    0.1981   -9.2749 H   0  0  0  0  0  0  0  0  0  0  0  0
  -29.8685   -4.6166   -5.9079 C   0  0  0  0  0  0  0  0  0  0  0  0
  -29.6720   -3.3765   -5.2661 C   0  0  0  0  0  0  0  0  0  0  0  0
  -29.0520   -2.2902   -5.8754 C   0  0  0  0  0  0  0  0  0  0  0  0
  -28.9402   -1.1454   -5.1894 N   0  0  0  0  0  0  0  0  0  0  0  0
  -28.3142   -0.1237   -5.7850 C   0  0  0  0  0  0  0  0  0  0  0  0
  -27.7824   -0.1365   -7.0080 N   0  0  0  0  0  0  0  0  0  0  0  0
  -27.9583   -1.2897   -7.7076 C   0  0  0  0  0  0  0  0  0  0  0  0
  -28.5723   -2.4460   -7.1742 C   0  0  0  0  0  0  0  0  0  0  0  0
  -28.7091   -3.7213   -7.7890 C   0  0  0  0  0  0  0  0  0  0  0  0
  -29.3663   -4.7944   -7.1913 C   0  0  0  0  0  0  0  0  0  0  0  0
  -29.8570   -6.1382   -4.1053 C   0  0  0  0  0  0  0  0  0  0  0  0
  -30.4981   -5.6596   -5.2852 O   0  0  0  0  0  0  0  0  0  0  0  0
  -29.4179   -5.8679   -8.0304 O   0  0  0  0  0  0  0  0  0  0  0  0
  -28.6446   -7.0232   -7.7720 C   0  0  0  0  0  0  0  0  0  0  0  0
  -25.5969   -2.3212  -11.6426 N   0  0  0  0  0  0  0  0  0  0  0  0
  -25.7576   -3.2648  -11.9686 H   0  0  0  0  0  0  0  0  0  0  0  0
  -24.5740   -1.6439  -12.3116 C   0  0  0  0  0  0  0  0  0  0  0  0
  -23.4311   -1.2662  -11.6124 C   0  0  0  0  0  0  0  0  0  0  0  0
  -22.4759   -0.4643  -12.2339 C   0  0  0  0  0  0  0  0  0  0  0  0
  -22.6252   -0.0167  -13.5576 C   0  0  0  0  0  0  0  0  0  0  0  0
  -23.7491   -0.4456  -14.2605 C   0  0  0  0  0  0  0  0  0  0  0  0
  -24.7142   -1.2357  -13.6417 C   0  0  0  0  0  0  0  0  0  0  0  0
  -21.6486    0.7850  -14.1159 N   0  0  0  0  0  0  0  0  0  0  0  0
  -20.7427    0.2820  -15.1565 C   0  0  0  0  0  0  0  0  0  0  0  0
  -19.4347    1.1073  -15.1009 C   0  0  0  0  0  0  0  0  0  0  0  0
  -19.6644    2.5678  -15.2343 N   0  0  0  0  0  0  0  0  0  0  0  0
  -18.4073    3.2955  -15.0724 C   0  0  0  0  0  0  0  0  0  0  0  0
  -20.6428    3.0116  -14.2129 C   0  0  0  0  0  0  0  0  0  0  0  0
  -21.9613    2.2157  -14.2809 C   0  0  0  0  0  0  0  0  0  0  0  0
 19 20  1  0  0  0
 20  9  1  0  0  0
  9 10  1  0  0  0
  9 18  2  0  0  0
 10 11  2  0  0  0
 11 12  1  0  0  0
 11 16  1  0  0  0
 12 13  2  0  0  0
 13 14  1  0  0  0
 14 15  2  0  0  0
 15  1  1  0  0  0
 15 16  1  0  0  0
  1  2  1  0  0  0
  1  5  1  0  0  0
  2  3  2  0  0  0
  3 23  1  0  0  0
  3  4  1  0  0  0
 23 25  1  0  0  0
 23 24  1  0  0  0
 25 26  1  0  0  0
 25 30  2  0  0  0
 26 27  2  0  0  0
 27 28  1  0  0  0
 28 31  1  0  0  0
 28 29  2  0  0  0
 31 32  1  0  0  0
 31 37  1  0  0  0
 32 33  1  0  0  0
 33 34  1  0  0  0
 34 35  1  0  0  0
 34 36  1  0  0  0
 36 37  1  0  0  0
 29 30  1  0  0  0
  4  5  2  0  0  0
  5  6  1  0  0  0
  6  7  1  0  0  0
  6  8  1  0  0  0
 16 17  2  0  0  0
 17 18  1  0  0  0
 18 21  1  0  0  0
 21 22  1  0  0  0
M  END
> <minimizedAffinity>
-9.19835

$$$$
