CHEMBL3908311


 35 39  0  0  0  0  0  0  0  0999 V2000
  -15.2582   -1.8152  -13.3867 C   0  0  0  0  0  0  0  0  0  0  0  0
  -15.8720   -0.9142  -14.2866 C   0  0  0  0  0  0  0  0  0  0  0  0
  -15.2978    0.3548  -14.6016 C   0  0  0  0  0  0  0  0  0  0  0  0
  -15.7872    1.3354  -15.4825 C   0  0  0  0  0  0  0  0  0  0  0  0
  -15.1027    2.4631  -15.7756 N   0  0  0  0  0  0  0  0  0  0  0  0
  -13.9401    2.6489  -15.1606 C   0  0  0  0  0  0  0  0  0  0  0  0
  -13.4066    1.8144  -14.2753 N   0  0  0  0  0  0  0  0  0  0  0  0
  -14.0872    0.6942  -14.0233 C   0  0  0  0  0  0  0  0  0  0  0  0
  -13.5133   -0.1831  -13.1358 C   0  0  0  0  0  0  0  0  0  0  0  0
  -14.0483   -1.4454  -12.7823 C   0  0  0  0  0  0  0  0  0  0  0  0
  -16.2027   -3.5213  -12.0256 C   0  0  0  0  0  0  0  0  0  0  0  0
  -15.9016   -3.0118  -13.3135 O   0  0  0  0  0  0  0  0  0  0  0  0
  -17.0531    1.1484  -16.1005 N   0  0  0  0  0  0  0  0  0  0  0  0
  -17.1558    0.1576  -16.3282 H   0  0  0  0  0  0  0  0  0  0  0  0
  -18.2363    1.6690  -15.5229 C   0  0  0  0  0  0  0  0  0  0  0  0
  -19.2346    0.7974  -15.0622 C   0  0  0  0  0  0  0  0  0  0  0  0
  -20.4542    1.2913  -14.5979 C   0  0  0  0  0  0  0  0  0  0  0  0
  -21.6445    0.1438  -14.1001 Cl  0  0  0  0  0  0  0  0  0  0  0  0
  -20.6752    2.6717  -14.5719 C   0  0  0  0  0  0  0  0  0  0  0  0
  -22.1828    3.3529  -14.0733 Cl  0  0  0  0  0  0  0  0  0  0  0  0
  -19.6695    3.5519  -14.9787 C   0  0  0  0  0  0  0  0  0  0  0  0
  -18.4580    3.0429  -15.4439 C   0  0  0  0  0  0  0  0  0  0  0  0
  -17.5102    3.8955  -15.8650 F   0  0  0  0  0  0  0  0  0  0  0  0
  -13.3691   -2.2963  -11.9002 O   0  0  0  0  0  0  0  0  0  0  0  0
  -12.2452   -2.8994  -12.5562 C   0  0  0  0  0  0  0  0  0  0  0  0
  -12.0073   -4.4018  -12.6320 C   0  0  0  0  0  0  0  0  0  0  0  0
  -12.9260   -5.1292  -13.6258 C   0  0  0  0  0  0  0  0  0  0  0  0
  -12.8070   -6.5918  -13.4244 N   0  0  0  0  0  0  0  0  0  0  0  0
  -13.6045   -7.3510  -14.3968 C   0  0  0  0  0  0  0  0  0  0  0  0
  -13.7716   -8.8415  -14.0323 C   0  0  0  0  0  0  0  0  0  0  0  0
  -14.1763   -9.0432  -12.6713 O   0  0  0  0  0  0  0  0  0  0  0  0
  -13.2430   -8.4158  -11.7852 C   0  0  0  0  0  0  0  0  0  0  0  0
  -13.2386   -6.9047  -12.0337 C   0  0  0  0  0  0  0  0  0  0  0  0
  -12.3058   -6.2057  -11.0447 C   0  0  0  0  0  0  0  0  0  0  0  0
  -12.2961   -4.7969  -11.2573 O   0  0  0  0  0  0  0  0  0  0  0  0
 11 12  1  0  0  0
 12  1  1  0  0  0
  1  2  1  0  0  0
  1 10  2  0  0  0
  2  3  2  0  0  0
  3  4  1  0  0  0
  3  8  1  0  0  0
  4 13  1  0  0  0
  4  5  2  0  0  0
 13 15  1  0  0  0
 13 14  1  0  0  0
 15 16  1  0  0  0
 15 22  2  0  0  0
 16 17  2  0  0  0
 17 18  1  0  0  0
 17 19  1  0  0  0
 19 20  1  0  0  0
 19 21  2  0  0  0
 21 22  1  0  0  0
 22 23  1  0  0  0
  5  6  1  0  0  0
  6  7  2  0  0  0
  7  8  1  0  0  0
  8  9  2  0  0  0
  9 10  1  0  0  0
 10 24  1  0  0  0
 24 25  1  0  0  0
 26 27  1  0  0  0
 26 35  1  0  0  0
 26 25  1  0  0  0
 27 28  1  0  0  0
 28 29  1  0  0  0
 28 33  1  0  0  0
 29 30  1  0  0  0
 30 31  1  0  0  0
 31 32  1  0  0  0
 32 33  1  0  0  0
 33 34  1  0  0  0
 34 35  1  0  0  0
M  END
> <minimizedAffinity>
-8.04824

$$$$
