CHEMBL1254003


 30 33  0  0  0  0  0  0  0  0999 V2000
  -12.1550   -1.8268  -12.8635 C   0  0  0  0  0  0  0  0  0  0  0  0
  -11.9508   -0.5335  -13.3314 C   0  0  0  0  0  0  0  0  0  0  0  0
  -12.9178    0.0984  -14.1149 C   0  0  0  0  0  0  0  0  0  0  0  0
  -14.1074   -0.5466  -14.4735 C   0  0  0  0  0  0  0  0  0  0  0  0
  -14.3201   -1.8411  -14.0035 C   0  0  0  0  0  0  0  0  0  0  0  0
  -13.3568   -2.4654  -13.1984 C   0  0  0  0  0  0  0  0  0  0  0  0
  -15.1120    0.0597  -15.2676 N   0  0  0  0  0  0  0  0  0  0  0  0
  -16.2514    0.6515  -14.7678 C   0  0  0  0  0  0  0  0  0  0  0  0
  -16.4857    0.8016  -13.5720 O   0  0  0  0  0  0  0  0  0  0  0  0
  -17.1491    1.0334  -15.7571 N   0  0  0  0  0  0  0  0  0  0  0  0
  -14.9106    0.1998  -16.2473 H   0  0  0  0  0  0  0  0  0  0  0  0
  -17.1859    0.4077  -16.5494 H   0  0  0  0  0  0  0  0  0  0  0  0
  -18.3857    1.5953  -15.3413 C   0  0  0  0  0  0  0  0  0  0  0  0
  -19.4993    0.7758  -15.1122 C   0  0  0  0  0  0  0  0  0  0  0  0
  -20.7626    1.3326  -14.9318 C   0  0  0  0  0  0  0  0  0  0  0  0
  -20.9137    2.7155  -14.9585 C   0  0  0  0  0  0  0  0  0  0  0  0
  -19.7964    3.5380  -15.1212 C   0  0  0  0  0  0  0  0  0  0  0  0
  -18.5243    2.9815  -15.2884 C   0  0  0  0  0  0  0  0  0  0  0  0
  -11.1850   -2.4235  -12.0471 N   0  0  0  0  0  0  0  0  0  0  0  0
  -10.2543   -2.0463  -12.1301 H   0  0  0  0  0  0  0  0  0  0  0  0
  -10.6984   -5.2290  -13.4172 C   0  0  0  0  0  0  0  0  0  0  0  0
  -11.0308   -5.5541  -12.0486 N   0  0  0  0  0  0  0  0  0  0  0  0
  -11.1580   -6.8438  -11.5871 C   0  0  0  0  0  0  0  0  0  0  0  0
  -11.4787   -6.7870  -10.2497 C   0  0  0  0  0  0  0  0  0  0  0  0
  -11.5518   -5.4215   -9.8949 C   0  0  0  0  0  0  0  0  0  0  0  0
  -11.8459   -4.8908   -8.6901 N   0  0  0  0  0  0  0  0  0  0  0  0
  -11.8860   -3.5587   -8.7003 C   0  0  0  0  0  0  0  0  0  0  0  0
  -11.6929   -2.7430   -9.7453 N   0  0  0  0  0  0  0  0  0  0  0  0
  -11.3853   -3.2680  -10.9554 C   0  0  0  0  0  0  0  0  0  0  0  0
  -11.2913   -4.6616  -11.0287 C   0  0  0  0  0  0  0  0  0  0  0  0
 21 22  1  0  0  0
 22 23  1  0  0  0
 22 30  1  0  0  0
 23 24  2  0  0  0
 24 25  1  0  0  0
 25 26  1  0  0  0
 25 30  2  0  0  0
 26 27  2  0  0  0
 27 28  1  0  0  0
 28 29  2  0  0  0
 29 19  1  0  0  0
 29 30  1  0  0  0
 19  1  1  0  0  0
 19 20  1  0  0  0
  1  2  1  0  0  0
  1  6  2  0  0  0
  2  3  2  0  0  0
  3  4  1  0  0  0
  4  7  1  0  0  0
  4  5  2  0  0  0
  7  8  1  0  0  0
  7 11  1  0  0  0
  8  9  2  0  0  0
  8 10  1  0  0  0
 10 13  1  0  0  0
 10 12  1  0  0  0
 13 14  1  0  0  0
 13 18  2  0  0  0
 14 15  2  0  0  0
 15 16  1  0  0  0
 16 17  2  0  0  0
 17 18  1  0  0  0
  5  6  1  0  0  0
M  END
> <minimizedAffinity>
-7.58298

$$$$
