CHEMBL3780570


 31 34  0  0  0  0  0  0  0  0999 V2000
  -24.6279   -1.3178  -11.9944 C   0  0  0  0  0  0  0  0  0  0  0  0
  -24.6462   -1.2691  -10.6469 N   0  0  0  0  0  0  0  0  0  0  0  0
  -25.8026   -1.5240   -9.9635 N   0  0  0  0  0  0  0  0  0  0  0  0
  -26.9509   -1.8410  -10.6025 C   0  0  0  0  0  0  0  0  0  0  0  0
  -27.0030   -1.8227  -12.0196 C   0  0  0  0  0  0  0  0  0  0  0  0
  -28.1761   -2.0855  -12.7806 C   0  0  0  0  0  0  0  0  0  0  0  0
  -28.1910   -2.0011  -14.1739 C   0  0  0  0  0  0  0  0  0  0  0  0
  -27.0297   -1.6702  -14.8551 C   0  0  0  0  0  0  0  0  0  0  0  0
  -25.8519   -1.4467  -14.1434 C   0  0  0  0  0  0  0  0  0  0  0  0
  -25.8089   -1.5169  -12.7295 C   0  0  0  0  0  0  0  0  0  0  0  0
  -28.0407   -2.3092   -9.8187 N   0  0  0  0  0  0  0  0  0  0  0  0
  -28.9386   -2.1328  -10.2458 H   0  0  0  0  0  0  0  0  0  0  0  0
  -28.1576   -2.1772   -8.4122 C   0  0  0  0  0  0  0  0  0  0  0  0
  -27.9999   -3.2657   -7.5467 C   0  0  0  0  0  0  0  0  0  0  0  0
  -28.0818   -3.1005   -6.1629 C   0  0  0  0  0  0  0  0  0  0  0  0
  -28.2908   -1.8335   -5.6229 C   0  0  0  0  0  0  0  0  0  0  0  0
  -28.4023   -0.7168   -6.4613 C   0  0  0  0  0  0  0  0  0  0  0  0
  -28.3278   -0.9032   -7.8543 C   0  0  0  0  0  0  0  0  0  0  0  0
  -28.5862    0.6648   -5.8860 C   0  0  0  0  0  0  0  0  0  0  0  0
  -28.4442    1.6639   -6.8036 F   0  0  0  0  0  0  0  0  0  0  0  0
  -29.8257    0.8369   -5.3454 F   0  0  0  0  0  0  0  0  0  0  0  0
  -27.7026    0.9478   -4.8898 F   0  0  0  0  0  0  0  0  0  0  0  0
  -23.2427   -1.2893  -12.6089 C   0  0  0  0  0  0  0  0  0  0  0  0
  -21.7568    2.3684  -14.4024 C   0  0  0  0  0  0  0  0  0  0  0  0
  -22.9142    2.3925  -13.6301 C   0  0  0  0  0  0  0  0  0  0  0  0
  -23.4051    1.2197  -13.0431 C   0  0  0  0  0  0  0  0  0  0  0  0
  -22.7640   -0.0054  -13.2497 C   0  0  0  0  0  0  0  0  0  0  0  0
  -21.5737   -0.0143  -13.9987 C   0  0  0  0  0  0  0  0  0  0  0  0
  -21.0771    1.1613  -14.5758 C   0  0  0  0  0  0  0  0  0  0  0  0
  -19.7810    3.4171  -15.1920 C   0  0  0  0  0  0  0  0  0  0  0  0
  -21.1944    3.4517  -15.0284 O   0  0  0  0  0  0  0  0  0  0  0  0
 30 31  1  0  0  0
 31 24  1  0  0  0
 24 25  1  0  0  0
 24 29  2  0  0  0
 25 26  2  0  0  0
 26 27  1  0  0  0
 27 23  1  0  0  0
 27 28  2  0  0  0
 23  1  1  0  0  0
  1  2  1  0  0  0
  1 10  2  0  0  0
  2  3  2  0  0  0
  3  4  1  0  0  0
  4 11  1  0  0  0
  4  5  2  0  0  0
 11 13  1  0  0  0
 11 12  1  0  0  0
 13 14  1  0  0  0
 13 18  2  0  0  0
 14 15  2  0  0  0
 15 16  1  0  0  0
 16 17  2  0  0  0
 17 19  1  0  0  0
 17 18  1  0  0  0
 19 20  1  0  0  0
 19 21  1  0  0  0
 19 22  1  0  0  0
  5  6  1  0  0  0
  5 10  1  0  0  0
  6  7  2  0  0  0
  7  8  1  0  0  0
  8  9  2  0  0  0
  9 10  1  0  0  0
 28 29  1  0  0  0
M  END
> <minimizedAffinity>
-10.93036

$$$$
