CHEMBL3676383


 39 41  0  0  0  0  0  0  0  0999 V2000
  -29.7642   -5.0163   -7.0875 C   0  0  0  0  0  0  0  0  0  0  0  0
  -29.0851   -4.2028   -7.9922 C   0  0  0  0  0  0  0  0  0  0  0  0
  -28.6548   -2.9049   -7.6199 C   0  0  0  0  0  0  0  0  0  0  0  0
  -28.0043   -2.0058   -8.4863 C   0  0  0  0  0  0  0  0  0  0  0  0
  -27.5731   -0.8016   -8.0723 N   0  0  0  0  0  0  0  0  0  0  0  0
  -27.8341   -0.4781   -6.8038 C   0  0  0  0  0  0  0  0  0  0  0  0
  -28.4628   -1.2499   -5.9032 N   0  0  0  0  0  0  0  0  0  0  0  0
  -28.8650   -2.4553   -6.3140 C   0  0  0  0  0  0  0  0  0  0  0  0
  -29.5012   -3.3072   -5.4089 C   0  0  0  0  0  0  0  0  0  0  0  0
  -29.9376   -4.5955   -5.7650 C   0  0  0  0  0  0  0  0  0  0  0  0
  -29.5690   -7.3829   -7.4140 C   0  0  0  0  0  0  0  0  0  0  0  0
  -28.4577   -7.4661   -6.9071 O   0  0  0  0  0  0  0  0  0  0  0  0
  -30.3101   -6.2220   -7.5748 N   0  0  0  0  0  0  0  0  0  0  0  0
  -31.2917   -6.3661   -7.3746 H   0  0  0  0  0  0  0  0  0  0  0  0
  -31.5509   -8.8340   -7.4405 C   0  0  0  0  0  0  0  0  0  0  0  0
  -30.3152   -8.5769   -7.8872 C   0  0  0  0  0  0  0  0  0  0  0  0
  -27.8233   -2.3677   -9.8406 N   0  0  0  0  0  0  0  0  0  0  0  0
  -28.7052   -2.6610  -10.2544 H   0  0  0  0  0  0  0  0  0  0  0  0
  -26.9392   -1.8085  -10.7848 C   0  0  0  0  0  0  0  0  0  0  0  0
  -25.6292   -1.4472  -10.4505 C   0  0  0  0  0  0  0  0  0  0  0  0
  -24.7048   -1.1094  -11.4440 C   0  0  0  0  0  0  0  0  0  0  0  0
  -25.0896   -1.1209  -12.7838 C   0  0  0  0  0  0  0  0  0  0  0  0
  -23.8040   -0.7899  -14.1294 Br  0  0  0  0  0  0  0  0  0  0  0  0
  -26.4006   -1.4187  -13.1388 C   0  0  0  0  0  0  0  0  0  0  0  0
  -27.3056   -1.7659  -12.1393 C   0  0  0  0  0  0  0  0  0  0  0  0
  -28.5588   -2.0976  -12.4903 F   0  0  0  0  0  0  0  0  0  0  0  0
  -30.4731   -5.3199   -4.7258 O   0  0  0  0  0  0  0  0  0  0  0  0
  -29.5289   -5.8451   -3.7858 C   0  0  0  0  0  0  0  0  0  0  0  0
  -29.6289   -7.3729   -3.6969 C   0  0  0  0  0  0  0  0  0  0  0  0
  -28.3225   -8.0092   -3.7993 N   0  0  0  0  0  0  0  0  0  0  0  0
  -28.1623   -9.3571   -3.5433 C   0  0  0  0  0  0  0  0  0  0  0  0
  -29.1027  -10.1206   -3.3388 O   0  0  0  0  0  0  0  0  0  0  0  0
  -27.4899   -7.4343   -3.7421 H   0  0  0  0  0  0  0  0  0  0  0  0
  -26.7021   -9.8258   -3.5002 C   0  0  0  0  0  0  0  0  0  0  0  0
  -26.0670   -9.7776   -4.8456 N   0  0  0  0  0  0  0  0  0  0  0  0
  -24.6080   -9.5682   -4.7693 C   0  0  0  0  0  0  0  0  0  0  0  0
  -23.7886   -9.9174   -6.0087 C   0  0  0  0  0  0  0  0  0  0  0  0
  -26.4435  -10.9955   -5.5931 C   0  0  0  0  0  0  0  0  0  0  0  0
  -27.3167  -10.7386   -6.8189 C   0  0  0  0  0  0  0  0  0  0  0  0
 15 16  2  0  0  0
 16 11  1  0  0  0
 11 12  2  0  0  0
 11 13  1  0  0  0
 13  1  1  0  0  0
 13 14  1  0  0  0
  1  2  1  0  0  0
  1 10  2  0  0  0
  2  3  2  0  0  0
  3  4  1  0  0  0
  3  8  1  0  0  0
  4 17  1  0  0  0
  4  5  2  0  0  0
 17 19  1  0  0  0
 17 18  1  0  0  0
 19 20  1  0  0  0
 19 25  2  0  0  0
 20 21  2  0  0  0
 21 22  1  0  0  0
 22 23  1  0  0  0
 22 24  2  0  0  0
 24 25  1  0  0  0
 25 26  1  0  0  0
  5  6  1  0  0  0
  6  7  2  0  0  0
  7  8  1  0  0  0
  8  9  2  0  0  0
  9 10  1  0  0  0
 10 27  1  0  0  0
 27 28  1  0  0  0
 28 29  1  0  0  0
 29 30  1  0  0  0
 30 31  1  0  0  0
 30 33  1  0  0  0
 31 32  2  0  0  0
 31 34  1  0  0  0
 34 35  1  0  0  0
 35 36  1  0  0  0
 35 38  1  0  0  0
 36 37  1  0  0  0
 38 39  1  0  0  0
M  END
> <minimizedAffinity>
-8.39461

$$$$
