CHEMBL4172155


 41 46  0  0  0  0  0  0  0  0999 V2000
  -19.4377    2.3203  -14.8948 C   0  0  0  0  0  0  0  0  0  0  0  0
  -18.7052    3.2453  -15.6733 C   0  0  0  0  0  0  0  0  0  0  0  0
  -17.3782    2.9757  -16.0669 C   0  0  0  0  0  0  0  0  0  0  0  0
  -16.7847    1.7971  -15.6428 C   0  0  0  0  0  0  0  0  0  0  0  0
  -17.5697    0.8762  -14.9279 C   0  0  0  0  0  0  0  0  0  0  0  0
  -18.8745    1.0954  -14.5491 C   0  0  0  0  0  0  0  0  0  0  0  0
  -16.8246   -0.2202  -14.5245 N   0  0  0  0  0  0  0  0  0  0  0  0
  -15.4852    0.0131  -14.7515 C   0  0  0  0  0  0  0  0  0  0  0  0
  -14.5781   -0.4878  -14.1092 O   0  0  0  0  0  0  0  0  0  0  0  0
  -15.4276    1.1896  -15.7090 C   0  0  0  0  0  0  0  0  0  0  0  0
  -14.3251    1.4904  -16.4437 C   0  0  0  0  0  0  0  0  0  0  0  0
  -17.1412   -0.9192  -13.8692 H   0  0  0  0  0  0  0  0  0  0  0  0
  -14.1497    2.8535  -17.0138 C   0  0  0  0  0  0  0  0  0  0  0  0
  -14.4684    3.0798  -18.3655 C   0  0  0  0  0  0  0  0  0  0  0  0
  -14.3377    4.3524  -18.9354 C   0  0  0  0  0  0  0  0  0  0  0  0
  -13.9134    5.4226  -18.1520 C   0  0  0  0  0  0  0  0  0  0  0  0
  -13.6254    5.2185  -16.8038 C   0  0  0  0  0  0  0  0  0  0  0  0
  -13.7347    3.9414  -16.2404 C   0  0  0  0  0  0  0  0  0  0  0  0
  -20.7927    2.5914  -14.3684 C   0  0  0  0  0  0  0  0  0  0  0  0
  -21.3460    3.6791  -14.4825 O   0  0  0  0  0  0  0  0  0  0  0  0
  -22.7119    1.3618  -13.9469 C   0  0  0  0  0  0  0  0  0  0  0  0
  -21.3038    1.4957  -13.7687 O   0  0  0  0  0  0  0  0  0  0  0  0
  -13.1904    0.7051  -16.6782 N   0  0  0  0  0  0  0  0  0  0  0  0
  -12.5513    0.6256  -15.8877 H   0  0  0  0  0  0  0  0  0  0  0  0
  -13.1271   -0.4264  -17.5490 C   0  0  0  0  0  0  0  0  0  0  0  0
  -13.0786   -0.2923  -18.9514 C   0  0  0  0  0  0  0  0  0  0  0  0
  -13.2564   -1.3907  -19.7908 C   0  0  0  0  0  0  0  0  0  0  0  0
  -13.3923   -2.6464  -19.2155 C   0  0  0  0  0  0  0  0  0  0  0  0
  -13.3053   -2.8434  -17.8319 C   0  0  0  0  0  0  0  0  0  0  0  0
  -13.1414   -1.7381  -16.9921 C   0  0  0  0  0  0  0  0  0  0  0  0
  -13.4995   -4.2154  -17.5576 N   0  0  0  0  0  0  0  0  0  0  0  0
  -13.4870   -4.8840  -16.3277 C   0  0  0  0  0  0  0  0  0  0  0  0
  -13.2762   -4.3228  -15.2866 O   0  0  0  0  0  0  0  0  0  0  0  0
  -13.8601   -4.9044  -18.8006 C   0  0  0  0  0  0  0  0  0  0  0  0
  -13.6533   -3.9232  -19.9440 C   0  0  0  0  0  0  0  0  0  0  0  0
  -13.7505   -6.3941  -16.4005 C   0  0  0  0  0  0  0  0  0  0  0  0
  -14.3023   -7.0105  -15.2031 N   0  0  0  0  0  0  0  0  0  0  0  0
  -13.7844   -7.9464  -14.3651 C   0  0  0  0  0  0  0  0  0  0  0  0
  -14.6049   -8.1421  -13.3573 N   0  0  0  0  0  0  0  0  0  0  0  0
  -15.6201   -7.2705  -13.6125 C   0  0  0  0  0  0  0  0  0  0  0  0
  -15.4721   -6.5327  -14.7146 N   0  0  0  0  0  0  0  0  0  0  0  0
 21 22  1  0  0  0
 22 19  1  0  0  0
 19 20  2  0  0  0
 19  1  1  0  0  0
  1  2  1  0  0  0
  1  6  2  0  0  0
  2  3  2  0  0  0
  3  4  1  0  0  0
  4  5  2  0  0  0
  4 10  1  0  0  0
  5  6  1  0  0  0
  5  7  1  0  0  0
  7  8  1  0  0  0
  7 12  1  0  0  0
  8  9  2  0  0  0
  8 10  1  0  0  0
 10 11  2  0  0  0
 11 23  1  0  0  0
 11 13  1  0  0  0
 23 25  1  0  0  0
 23 24  1  0  0  0
 25 26  1  0  0  0
 25 30  2  0  0  0
 26 27  2  0  0  0
 27 28  1  0  0  0
 28 29  2  0  0  0
 28 35  1  0  0  0
 29 30  1  0  0  0
 29 31  1  0  0  0
 31 32  1  0  0  0
 31 34  1  0  0  0
 32 33  2  0  0  0
 32 36  1  0  0  0
 36 37  1  0  0  0
 37 38  1  0  0  0
 37 41  1  0  0  0
 38 39  2  0  0  0
 39 40  1  0  0  0
 40 41  2  0  0  0
 34 35  1  0  0  0
 13 14  1  0  0  0
 13 18  2  0  0  0
 14 15  2  0  0  0
 15 16  1  0  0  0
 16 17  2  0  0  0
 17 18  1  0  0  0
M  END
> <minimizedAffinity>
-8.92039

$$$$
