CHEMBL3900345


 37 41  0  0  0  0  0  0  0  0999 V2000
  -23.6052   -1.4079  -11.9727 C   0  0  0  0  0  0  0  0  0  0  0  0
  -22.9810   -2.1230  -11.1813 O   0  0  0  0  0  0  0  0  0  0  0  0
  -22.8508   -0.4767  -12.8665 C   0  0  0  0  0  0  0  0  0  0  0  0
  -22.1821   -0.8659  -14.0388 C   0  0  0  0  0  0  0  0  0  0  0  0
  -21.4415    0.0654  -14.8107 C   0  0  0  0  0  0  0  0  0  0  0  0
  -21.6112    1.4370  -14.5197 C   0  0  0  0  0  0  0  0  0  0  0  0
  -21.1370    2.7270  -14.9051 C   0  0  0  0  0  0  0  0  0  0  0  0
  -22.0752    3.6470  -14.6460 N   0  0  0  0  0  0  0  0  0  0  0  0
  -22.7733    3.0741  -13.6521 N   0  0  0  0  0  0  0  0  0  0  0  0
  -22.4750    1.7672  -13.4830 C   0  0  0  0  0  0  0  0  0  0  0  0
  -22.9519    0.8716  -12.5390 C   0  0  0  0  0  0  0  0  0  0  0  0
  -23.4660    3.6369  -13.1931 H   0  0  0  0  0  0  0  0  0  0  0  0
  -19.8083    3.1759  -15.2254 C   0  0  0  0  0  0  0  0  0  0  0  0
  -18.7646    2.3236  -15.1508 C   0  0  0  0  0  0  0  0  0  0  0  0
  -17.3961    2.4938  -15.6441 C   0  0  0  0  0  0  0  0  0  0  0  0
  -16.5441    1.4116  -15.8585 C   0  0  0  0  0  0  0  0  0  0  0  0
  -15.3281    1.5938  -16.5221 C   0  0  0  0  0  0  0  0  0  0  0  0
  -14.9477    2.8641  -16.9527 C   0  0  0  0  0  0  0  0  0  0  0  0
  -15.7607    3.9617  -16.6891 C   0  0  0  0  0  0  0  0  0  0  0  0
  -16.9762    3.7794  -16.0283 C   0  0  0  0  0  0  0  0  0  0  0  0
  -27.1596   -1.4646  -10.7163 C   0  0  0  0  0  0  0  0  0  0  0  0
  -27.8442   -1.5804  -11.9231 C   0  0  0  0  0  0  0  0  0  0  0  0
  -27.1630   -1.7351  -13.1350 C   0  0  0  0  0  0  0  0  0  0  0  0
  -25.7839   -1.7464  -13.1514 C   0  0  0  0  0  0  0  0  0  0  0  0
  -25.0775   -1.5044  -11.9686 C   0  0  0  0  0  0  0  0  0  0  0  0
  -25.7616   -1.3898  -10.7535 C   0  0  0  0  0  0  0  0  0  0  0  0
  -27.9141   -2.5558   -8.6239 C   0  0  0  0  0  0  0  0  0  0  0  0
  -27.4553   -3.6727   -8.8459 O   0  0  0  0  0  0  0  0  0  0  0  0
  -27.8097   -1.4483   -9.4556 N   0  0  0  0  0  0  0  0  0  0  0  0
  -28.0460   -0.5495   -9.0701 H   0  0  0  0  0  0  0  0  0  0  0  0
  -30.7543   -4.0797   -4.7239 C   0  0  0  0  0  0  0  0  0  0  0  0
  -29.9040   -3.0744   -5.4336 C   0  0  0  0  0  0  0  0  0  0  0  0
  -29.5519   -1.8763   -4.8145 C   0  0  0  0  0  0  0  0  0  0  0  0
  -28.7613   -0.9379   -5.3757 N   0  0  0  0  0  0  0  0  0  0  0  0
  -28.2853   -1.2133   -6.6111 C   0  0  0  0  0  0  0  0  0  0  0  0
  -28.5865   -2.3701   -7.3243 C   0  0  0  0  0  0  0  0  0  0  0  0
  -29.4132   -3.3194   -6.7239 C   0  0  0  0  0  0  0  0  0  0  0  0
 31 32  1  0  0  0
 32 33  1  0  0  0
 32 37  2  0  0  0
 33 34  2  0  0  0
 34 35  1  0  0  0
 35 36  2  0  0  0
 36 27  1  0  0  0
 36 37  1  0  0  0
 27 28  2  0  0  0
 27 29  1  0  0  0
 29 21  1  0  0  0
 29 30  1  0  0  0
 21 22  1  0  0  0
 21 26  2  0  0  0
 22 23  2  0  0  0
 23 24  1  0  0  0
 24 25  2  0  0  0
 25  1  1  0  0  0
 25 26  1  0  0  0
  1  2  2  0  0  0
  1  3  1  0  0  0
  3  4  1  0  0  0
  3 11  2  0  0  0
  4  5  2  0  0  0
  5  6  1  0  0  0
  6  7  1  0  0  0
  6 10  2  0  0  0
  7 13  1  0  0  0
  7  8  2  0  0  0
 13 14  2  0  0  0
 14 15  1  0  0  0
 15 16  1  0  0  0
 15 20  2  0  0  0
 16 17  2  0  0  0
 17 18  1  0  0  0
 18 19  2  0  0  0
 19 20  1  0  0  0
  8  9  1  0  0  0
  9 10  1  0  0  0
  9 12  1  0  0  0
 10 11  1  0  0  0
M  END
> <minimizedAffinity>
-12.05220

$$$$
