CHEMBL4225238


 31 33  0  0  0  0  0  0  0  0999 V2000
  -29.2383   -2.8949   -6.3927 C   0  0  0  0  0  0  0  0  0  0  0  0
  -29.0823   -3.6223   -7.5750 C   0  0  0  0  0  0  0  0  0  0  0  0
  -28.3080   -3.1203   -8.6303 C   0  0  0  0  0  0  0  0  0  0  0  0
  -27.6683   -1.8947   -8.5080 C   0  0  0  0  0  0  0  0  0  0  0  0
  -27.8346   -1.1603   -7.3227 C   0  0  0  0  0  0  0  0  0  0  0  0
  -28.6320   -1.6451   -6.2823 C   0  0  0  0  0  0  0  0  0  0  0  0
  -26.8740   -1.2836   -9.4968 N   0  0  0  0  0  0  0  0  0  0  0  0
  -26.5020   -0.3848   -9.2153 H   0  0  0  0  0  0  0  0  0  0  0  0
  -26.5542   -1.6003  -10.8012 C   0  0  0  0  0  0  0  0  0  0  0  0
  -27.5450   -1.8020  -12.1257 S   0  0  0  0  0  0  0  0  0  0  0  0
  -25.1968   -1.8093  -10.9973 N   0  0  0  0  0  0  0  0  0  0  0  0
  -24.8072   -2.6047  -10.5010 H   0  0  0  0  0  0  0  0  0  0  0  0
  -24.3523   -1.1478  -11.9126 C   0  0  0  0  0  0  0  0  0  0  0  0
  -23.5513   -1.9084  -12.7614 C   0  0  0  0  0  0  0  0  0  0  0  0
  -22.6329   -1.2704  -13.6043 C   0  0  0  0  0  0  0  0  0  0  0  0
  -22.5555    0.1226  -13.6273 C   0  0  0  0  0  0  0  0  0  0  0  0
  -21.4044    0.9027  -14.6394 Cl  0  0  0  0  0  0  0  0  0  0  0  0
  -23.3999    0.8905  -12.8291 C   0  0  0  0  0  0  0  0  0  0  0  0
  -24.3048    0.2521  -11.9849 C   0  0  0  0  0  0  0  0  0  0  0  0
  -30.2098   -3.5528   -5.0523 S   0  0  0  0  0  0  0  0  0  0  0  0
  -29.0443   -7.9469   -5.1429 C   0  0  0  0  0  0  0  0  0  0  0  0
  -28.1172   -7.0028   -4.6990 C   0  0  0  0  0  0  0  0  0  0  0  0
  -28.4773   -5.6538   -4.6718 C   0  0  0  0  0  0  0  0  0  0  0  0
  -29.7525   -5.2796   -5.0874 C   0  0  0  0  0  0  0  0  0  0  0  0
  -30.6529   -6.1808   -5.5483 N   0  0  0  0  0  0  0  0  0  0  0  0
  -30.2812   -7.4848   -5.5703 C   0  0  0  0  0  0  0  0  0  0  0  0
  -29.6924  -11.6625   -5.2973 C   0  0  0  0  0  0  0  0  0  0  0  0
  -29.8578  -10.2369   -5.1545 N   0  0  0  0  0  0  0  0  0  0  0  0
  -28.7633   -9.3979   -5.2065 C   0  0  0  0  0  0  0  0  0  0  0  0
  -27.6145   -9.7908   -5.3355 O   0  0  0  0  0  0  0  0  0  0  0  0
  -30.7907   -9.8560   -5.2339 H   0  0  0  0  0  0  0  0  0  0  0  0
 27 28  1  0  0  0
 28 29  1  0  0  0
 28 31  1  0  0  0
 29 30  2  0  0  0
 29 21  1  0  0  0
 21 22  1  0  0  0
 21 26  2  0  0  0
 22 23  2  0  0  0
 23 24  1  0  0  0
 24 20  1  0  0  0
 24 25  2  0  0  0
 20  1  1  0  0  0
  1  2  1  0  0  0
  1  6  2  0  0  0
  2  3  2  0  0  0
  3  4  1  0  0  0
  4  7  1  0  0  0
  4  5  2  0  0  0
  7  9  1  0  0  0
  7  8  1  0  0  0
  9 10  2  0  0  0
  9 11  1  0  0  0
 11 13  1  0  0  0
 11 12  1  0  0  0
 13 14  1  0  0  0
 13 19  2  0  0  0
 14 15  2  0  0  0
 15 16  1  0  0  0
 16 17  1  0  0  0
 16 18  2  0  0  0
 18 19  1  0  0  0
  5  6  1  0  0  0
 25 26  1  0  0  0
M  END
> <minimizedAffinity>
-8.67972

$$$$
