CHEMBL3932022


 37 40  0  0  0  0  0  0  0  0999 V2000
  -29.0264   -8.5720   -5.2602 C   0  0  0  0  0  0  0  0  0  0  0  0
  -30.2731   -8.5208   -5.8618 C   0  0  0  0  0  0  0  0  0  0  0  0
  -30.5958   -7.4449   -6.6671 C   0  0  0  0  0  0  0  0  0  0  0  0
  -29.8137   -6.3283   -6.7431 C   0  0  0  0  0  0  0  0  0  0  0  0
  -30.1814   -5.4964   -7.7226 N   0  0  0  0  0  0  0  0  0  0  0  0
  -29.6256   -4.2874   -7.7104 C   0  0  0  0  0  0  0  0  0  0  0  0
  -28.7672   -3.8754   -6.7188 C   0  0  0  0  0  0  0  0  0  0  0  0
  -28.2681   -4.7828   -5.7922 N   0  0  0  0  0  0  0  0  0  0  0  0
  -28.7523   -6.1030   -5.8416 C   0  0  0  0  0  0  0  0  0  0  0  0
  -28.3230   -7.3310   -5.1448 C   0  0  0  0  0  0  0  0  0  0  0  0
  -28.6711   -2.4121   -6.5671 C   0  0  0  0  0  0  0  0  0  0  0  0
  -27.8890   -1.5216   -7.3541 C   0  0  0  0  0  0  0  0  0  0  0  0
  -27.7716   -0.3048   -6.8167 N   0  0  0  0  0  0  0  0  0  0  0  0
  -28.4786   -0.3906   -5.6759 N   0  0  0  0  0  0  0  0  0  0  0  0
  -28.7723    0.8218   -4.9379 C   0  0  0  0  0  0  0  0  0  0  0  0
  -28.8820   -1.6812   -5.3902 C   0  0  0  0  0  0  0  0  0  0  0  0
  -29.4640   -2.0545   -4.0734 C   0  0  0  0  0  0  0  0  0  0  0  0
  -28.5210   -2.8477   -3.3630 O   0  0  0  0  0  0  0  0  0  0  0  0
  -28.6114   -3.7680   -3.6639 H   0  0  0  0  0  0  0  0  0  0  0  0
  -28.5349   -9.9254   -5.0627 N   0  0  0  0  0  0  0  0  0  0  0  0
  -24.7894  -10.1232   -4.8464 C   0  0  0  0  0  0  0  0  0  0  0  0
  -24.6134  -10.9093   -3.7075 C   0  0  0  0  0  0  0  0  0  0  0  0
  -25.7251  -11.4195   -3.0424 C   0  0  0  0  0  0  0  0  0  0  0  0
  -27.0152  -11.1456   -3.5265 C   0  0  0  0  0  0  0  0  0  0  0  0
  -27.2413  -10.3647   -4.6732 C   0  0  0  0  0  0  0  0  0  0  0  0
  -26.0944   -9.8800   -5.3344 C   0  0  0  0  0  0  0  0  0  0  0  0
  -22.8443  -10.3566   -6.2280 C   0  0  0  0  0  0  0  0  0  0  0  0
  -23.7666   -9.5142   -5.5331 O   0  0  0  0  0  0  0  0  0  0  0  0
  -25.6890  -12.1683   -1.8945 O   0  0  0  0  0  0  0  0  0  0  0  0
  -24.4352  -12.2767   -1.2275 C   0  0  0  0  0  0  0  0  0  0  0  0
  -29.3016  -10.8323   -6.0167 C   0  0  0  0  0  0  0  0  0  0  0  0
  -28.6807  -11.1634   -7.4069 C   0  0  0  0  0  0  0  0  0  0  0  0
  -29.4394  -10.9999   -8.6577 N   0  0  0  0  0  0  0  0  0  0  0  0
  -30.4306  -11.1551   -8.4737 H   0  0  0  0  0  0  0  0  0  0  0  0
  -29.2520   -9.7801   -9.4514 C   0  0  0  0  0  0  0  0  0  0  0  0
  -28.1014   -8.8746   -8.9980 C   0  0  0  0  0  0  0  0  0  0  0  0
  -28.9774  -10.1982  -10.9065 C   0  0  0  0  0  0  0  0  0  0  0  0
 27 28  1  0  0  0
 28 21  1  0  0  0
 21 22  1  0  0  0
 21 26  2  0  0  0
 22 23  2  0  0  0
 23 29  1  0  0  0
 23 24  1  0  0  0
 29 30  1  0  0  0
 24 25  2  0  0  0
 25 20  1  0  0  0
 25 26  1  0  0  0
 20 31  1  0  0  0
 20  1  1  0  0  0
 31 32  1  0  0  0
 32 33  1  0  0  0
 33 35  1  0  0  0
 33 34  1  0  0  0
 35 36  1  0  0  0
 35 37  1  0  0  0
  1  2  1  0  0  0
  1 10  2  0  0  0
  2  3  2  0  0  0
  3  4  1  0  0  0
  4  5  1  0  0  0
  4  9  2  0  0  0
  5  6  2  0  0  0
  6  7  1  0  0  0
  7 11  1  0  0  0
  7  8  2  0  0  0
 11 12  1  0  0  0
 11 16  2  0  0  0
 12 13  2  0  0  0
 13 14  1  0  0  0
 14 15  1  0  0  0
 14 16  1  0  0  0
 16 17  1  0  0  0
 17 18  1  0  0  0
 18 19  1  0  0  0
  8  9  1  0  0  0
  9 10  1  0  0  0
M  END
> <minimizedAffinity>
-7.30370

$$$$
