CHEMBL1271782


 22 24  0  0  0  0  0  0  0  0999 V2000
  -27.3367   -1.6319  -10.5855 C   0  0  0  0  0  0  0  0  0  0  0  0
  -28.3091   -0.8810  -10.5902 O   0  0  0  0  0  0  0  0  0  0  0  0
  -27.0534   -2.5100   -9.5540 N   0  0  0  0  0  0  0  0  0  0  0  0
  -26.1655   -3.0028   -9.5619 H   0  0  0  0  0  0  0  0  0  0  0  0
  -27.8369   -2.6602   -8.3887 C   0  0  0  0  0  0  0  0  0  0  0  0
  -27.9606   -1.6837   -7.4028 C   0  0  0  0  0  0  0  0  0  0  0  0
  -28.6769   -1.8267   -6.2634 N   0  0  0  0  0  0  0  0  0  0  0  0
  -29.2823   -3.0013   -6.0483 C   0  0  0  0  0  0  0  0  0  0  0  0
  -29.9744   -3.1942   -4.8615 C   0  0  0  0  0  0  0  0  0  0  0  0
  -30.5883   -4.4114   -4.5586 C   0  0  0  0  0  0  0  0  0  0  0  0
  -30.5201   -5.4629   -5.4671 C   0  0  0  0  0  0  0  0  0  0  0  0
  -29.8498   -5.2868   -6.6771 C   0  0  0  0  0  0  0  0  0  0  0  0
  -29.2296   -4.0611   -6.9809 C   0  0  0  0  0  0  0  0  0  0  0  0
  -28.5199   -3.8545   -8.1773 C   0  0  0  0  0  0  0  0  0  0  0  0
  -22.7485   -0.5223  -12.1974 C   0  0  0  0  0  0  0  0  0  0  0  0
  -24.1431   -0.9802  -12.4907 C   0  0  0  0  0  0  0  0  0  0  0  0
  -24.5582   -1.2675  -13.7807 C   0  0  0  0  0  0  0  0  0  0  0  0
  -25.8057   -1.6792  -14.0928 N   0  0  0  0  0  0  0  0  0  0  0  0
  -26.6958   -1.8029  -13.0762 C   0  0  0  0  0  0  0  0  0  0  0  0
  -28.2272   -2.3188  -13.6736 Cl  0  0  0  0  0  0  0  0  0  0  0  0
  -26.4037   -1.5403  -11.7441 C   0  0  0  0  0  0  0  0  0  0  0  0
  -25.0851   -1.1288  -11.4680 C   0  0  0  0  0  0  0  0  0  0  0  0
 15 16  1  0  0  0
 16 17  1  0  0  0
 16 22  2  0  0  0
 17 18  2  0  0  0
 18 19  1  0  0  0
 19 20  1  0  0  0
 19 21  2  0  0  0
 21  1  1  0  0  0
 21 22  1  0  0  0
  1  2  2  0  0  0
  1  3  1  0  0  0
  3  5  1  0  0  0
  3  4  1  0  0  0
  5  6  1  0  0  0
  5 14  2  0  0  0
  6  7  2  0  0  0
  7  8  1  0  0  0
  8  9  1  0  0  0
  8 13  2  0  0  0
  9 10  2  0  0  0
 10 11  1  0  0  0
 11 12  2  0  0  0
 12 13  1  0  0  0
 13 14  1  0  0  0
M  END
> <minimizedAffinity>
-9.61338

$$$$
