CHEMBL3260567


 32 36  0  0  0  0  0  0  0  0999 V2000
  -16.0910    1.1359  -15.0536 C   0  0  0  0  0  0  0  0  0  0  0  0
  -15.8566   -0.0760  -14.4407 N   0  0  0  0  0  0  0  0  0  0  0  0
  -14.5260   -0.3919  -14.5761 C   0  0  0  0  0  0  0  0  0  0  0  0
  -13.8770    0.5818  -15.1827 N   0  0  0  0  0  0  0  0  0  0  0  0
  -14.8363    1.5100  -15.5013 C   0  0  0  0  0  0  0  0  0  0  0  0
  -16.5465   -0.6556  -13.9844 H   0  0  0  0  0  0  0  0  0  0  0  0
  -14.4741    2.7199  -16.1604 C   0  0  0  0  0  0  0  0  0  0  0  0
  -13.8763    3.8186  -15.3942 C   0  0  0  0  0  0  0  0  0  0  0  0
  -13.5516    4.9973  -15.9610 C   0  0  0  0  0  0  0  0  0  0  0  0
  -13.7850    5.1906  -17.3490 C   0  0  0  0  0  0  0  0  0  0  0  0
  -13.5788    6.2181  -18.1415 N   0  0  0  0  0  0  0  0  0  0  0  0
  -14.0092    5.7565  -19.3479 C   0  0  0  0  0  0  0  0  0  0  0  0
  -14.4741    4.5048  -19.3662 N   0  0  0  0  0  0  0  0  0  0  0  0
  -14.3360    4.1258  -18.0693 N   0  0  0  0  0  0  0  0  0  0  0  0
  -14.6694    2.9114  -17.4806 C   0  0  0  0  0  0  0  0  0  0  0  0
  -20.8222    0.4222  -14.8618 C   0  0  0  0  0  0  0  0  0  0  0  0
  -19.6983    1.3976  -15.0468 C   0  0  0  0  0  0  0  0  0  0  0  0
  -19.9521    2.7537  -15.2180 C   0  0  0  0  0  0  0  0  0  0  0  0
  -18.8761    3.6207  -15.3762 C   0  0  0  0  0  0  0  0  0  0  0  0
  -17.5805    3.1143  -15.3496 C   0  0  0  0  0  0  0  0  0  0  0  0
  -17.4065    1.7487  -15.1637 C   0  0  0  0  0  0  0  0  0  0  0  0
  -18.4417    0.8915  -15.0197 N   0  0  0  0  0  0  0  0  0  0  0  0
  -13.9522   -1.6648  -14.0250 C   0  0  0  0  0  0  0  0  0  0  0  0
  -14.6717   -2.8385  -14.5125 N   0  0  0  0  0  0  0  0  0  0  0  0
  -15.3194   -2.5805  -15.2569 H   0  0  0  0  0  0  0  0  0  0  0  0
  -15.2647   -3.7359  -13.6135 C   0  0  0  0  0  0  0  0  0  0  0  0
  -15.7910   -3.1990  -12.4265 C   0  0  0  0  0  0  0  0  0  0  0  0
  -16.4933   -3.9901  -11.5101 C   0  0  0  0  0  0  0  0  0  0  0  0
  -16.6894   -5.3442  -11.7636 C   0  0  0  0  0  0  0  0  0  0  0  0
  -16.1837   -5.9019  -12.9342 C   0  0  0  0  0  0  0  0  0  0  0  0
  -15.4949   -5.1017  -13.8491 C   0  0  0  0  0  0  0  0  0  0  0  0
  -15.0414   -5.6919  -14.9663 F   0  0  0  0  0  0  0  0  0  0  0  0
 16 17  1  0  0  0
 17 18  1  0  0  0
 17 22  2  0  0  0
 18 19  2  0  0  0
 19 20  1  0  0  0
 20 21  2  0  0  0
 21  1  1  0  0  0
 21 22  1  0  0  0
  1  2  1  0  0  0
  1  5  2  0  0  0
  2  3  1  0  0  0
  2  6  1  0  0  0
  3 23  1  0  0  0
  3  4  2  0  0  0
 23 24  1  0  0  0
 24 26  1  0  0  0
 24 25  1  0  0  0
 26 27  1  0  0  0
 26 31  2  0  0  0
 27 28  2  0  0  0
 28 29  1  0  0  0
 29 30  2  0  0  0
 30 31  1  0  0  0
 31 32  1  0  0  0
  4  5  1  0  0  0
  5  7  1  0  0  0
  7  8  1  0  0  0
  7 15  2  0  0  0
  8  9  2  0  0  0
  9 10  1  0  0  0
 10 11  2  0  0  0
 10 14  1  0  0  0
 11 12  1  0  0  0
 12 13  2  0  0  0
 13 14  1  0  0  0
 14 15  1  0  0  0
M  END
> <minimizedAffinity>
-8.84541

$$$$
