CHEMBL3916297


 38 42  0  0  0  0  0  0  0  0999 V2000
  -28.9696   -5.5288   -7.0882 C   0  0  0  0  0  0  0  0  0  0  0  0
  -28.7565   -4.5020   -8.0213 C   0  0  0  0  0  0  0  0  0  0  0  0
  -28.4138   -3.1841   -7.6112 C   0  0  0  0  0  0  0  0  0  0  0  0
  -28.1524   -2.0787   -8.4317 C   0  0  0  0  0  0  0  0  0  0  0  0
  -27.7504   -0.8855   -7.9369 N   0  0  0  0  0  0  0  0  0  0  0  0
  -27.6266   -0.7785   -6.6164 C   0  0  0  0  0  0  0  0  0  0  0  0
  -27.8907   -1.7415   -5.7454 N   0  0  0  0  0  0  0  0  0  0  0  0
  -28.2684   -2.9159   -6.2558 C   0  0  0  0  0  0  0  0  0  0  0  0
  -28.4904   -3.9201   -5.3602 C   0  0  0  0  0  0  0  0  0  0  0  0
  -28.8151   -5.2440   -5.7271 C   0  0  0  0  0  0  0  0  0  0  0  0
  -30.5350   -7.2532   -7.6352 C   0  0  0  0  0  0  0  0  0  0  0  0
  -29.2082   -6.7441   -7.6655 O   0  0  0  0  0  0  0  0  0  0  0  0
  -28.3146   -2.1982   -9.8376 N   0  0  0  0  0  0  0  0  0  0  0  0
  -29.1957   -1.7710  -10.1027 H   0  0  0  0  0  0  0  0  0  0  0  0
  -27.2649   -1.9374  -10.7429 C   0  0  0  0  0  0  0  0  0  0  0  0
  -25.9815   -1.6465  -10.2600 C   0  0  0  0  0  0  0  0  0  0  0  0
  -24.9514   -1.2839  -11.1275 C   0  0  0  0  0  0  0  0  0  0  0  0
  -25.1973   -1.2205  -12.4976 C   0  0  0  0  0  0  0  0  0  0  0  0
  -23.8966   -0.7219  -13.5181 Cl  0  0  0  0  0  0  0  0  0  0  0  0
  -26.4633   -1.5494  -12.9972 C   0  0  0  0  0  0  0  0  0  0  0  0
  -26.8316   -1.5002  -14.6859 Cl  0  0  0  0  0  0  0  0  0  0  0  0
  -27.4937   -1.9159  -12.1214 C   0  0  0  0  0  0  0  0  0  0  0  0
  -28.9269   -6.2429   -4.7799 O   0  0  0  0  0  0  0  0  0  0  0  0
  -27.6751   -6.8819   -4.4978 C   0  0  0  0  0  0  0  0  0  0  0  0
  -27.6621   -8.3759   -4.7272 C   0  0  0  0  0  0  0  0  0  0  0  0
  -29.0951   -8.9215   -4.8708 C   0  0  0  0  0  0  0  0  0  0  0  0
  -29.1306  -10.4005   -4.9656 N   0  0  0  0  0  0  0  0  0  0  0  0
  -28.4075  -10.9317   -3.7847 C   0  0  0  0  0  0  0  0  0  0  0  0
  -26.9880  -10.3695   -3.6199 C   0  0  0  0  0  0  0  0  0  0  0  0
  -27.0046   -8.9426   -3.5723 O   0  0  0  0  0  0  0  0  0  0  0  0
  -28.5526  -10.8347   -6.2546 C   0  0  0  0  0  0  0  0  0  0  0  0
  -29.5432  -10.7579   -7.4193 C   0  0  0  0  0  0  0  0  0  0  0  0
  -28.8547  -10.4462   -8.7247 C   0  0  0  0  0  0  0  0  0  0  0  0
  -27.6133   -9.7935   -8.7293 C   0  0  0  0  0  0  0  0  0  0  0  0
  -26.9458   -9.5555   -9.9302 C   0  0  0  0  0  0  0  0  0  0  0  0
  -27.5187   -9.9561  -11.1352 C   0  0  0  0  0  0  0  0  0  0  0  0
  -28.7674  -10.5763  -11.1422 C   0  0  0  0  0  0  0  0  0  0  0  0
  -29.4375  -10.8150   -9.9421 C   0  0  0  0  0  0  0  0  0  0  0  0
 11 12  1  0  0  0
 12  1  1  0  0  0
  1  2  1  0  0  0
  1 10  2  0  0  0
  2  3  2  0  0  0
  3  4  1  0  0  0
  3  8  1  0  0  0
  4 13  1  0  0  0
  4  5  2  0  0  0
 13 15  1  0  0  0
 13 14  1  0  0  0
 15 16  1  0  0  0
 15 22  2  0  0  0
 16 17  2  0  0  0
 17 18  1  0  0  0
 18 19  1  0  0  0
 18 20  2  0  0  0
 20 21  1  0  0  0
 20 22  1  0  0  0
  5  6  1  0  0  0
  6  7  2  0  0  0
  7  8  1  0  0  0
  8  9  2  0  0  0
  9 10  1  0  0  0
 10 23  1  0  0  0
 23 24  1  0  0  0
 24 25  1  0  0  0
 25 26  1  0  0  0
 25 30  1  0  0  0
 26 27  1  0  0  0
 27 31  1  0  0  0
 27 28  1  0  0  0
 31 32  1  0  0  0
 32 33  1  0  0  0
 33 34  1  0  0  0
 33 38  2  0  0  0
 34 35  2  0  0  0
 35 36  1  0  0  0
 36 37  2  0  0  0
 37 38  1  0  0  0
 28 29  1  0  0  0
 29 30  1  0  0  0
M  END
> <minimizedAffinity>
-8.85302

$$$$
