CHEMBL3978730


 39 43  0  0  0  0  0  0  0  0999 V2000
  -15.2094    0.2479  -13.1681 C   0  0  0  0  0  0  0  0  0  0  0  0
  -14.2510    0.8377  -12.6806 O   0  0  0  0  0  0  0  0  0  0  0  0
  -15.4731   -1.1845  -12.7948 C   0  0  0  0  0  0  0  0  0  0  0  0
  -15.9057   -1.5771  -11.5092 C   0  0  0  0  0  0  0  0  0  0  0  0
  -16.0753   -2.9340  -11.1640 C   0  0  0  0  0  0  0  0  0  0  0  0
  -15.9772   -3.8802  -12.1975 C   0  0  0  0  0  0  0  0  0  0  0  0
  -16.2281   -5.2783  -12.4280 C   0  0  0  0  0  0  0  0  0  0  0  0
  -17.1442   -5.2599  -13.4244 N   0  0  0  0  0  0  0  0  0  0  0  0
  -16.5951   -4.3117  -14.2244 N   0  0  0  0  0  0  0  0  0  0  0  0
  -15.9004   -3.3769  -13.4948 C   0  0  0  0  0  0  0  0  0  0  0  0
  -15.4232   -2.1191  -13.8296 C   0  0  0  0  0  0  0  0  0  0  0  0
  -16.8924   -4.2610  -15.1954 H   0  0  0  0  0  0  0  0  0  0  0  0
  -15.2291   -6.3218  -12.6563 C   0  0  0  0  0  0  0  0  0  0  0  0
  -14.7022   -7.1099  -11.6998 C   0  0  0  0  0  0  0  0  0  0  0  0
  -13.2753   -7.5045  -11.7071 C   0  0  0  0  0  0  0  0  0  0  0  0
  -12.8825   -8.6726  -12.3543 C   0  0  0  0  0  0  0  0  0  0  0  0
  -11.5763   -9.1371  -12.1888 C   0  0  0  0  0  0  0  0  0  0  0  0
  -10.6980   -8.4336  -11.3750 C   0  0  0  0  0  0  0  0  0  0  0  0
  -11.1651   -7.2848  -10.7624 C   0  0  0  0  0  0  0  0  0  0  0  0
  -12.4243   -6.8096  -10.9110 N   0  0  0  0  0  0  0  0  0  0  0  0
  -18.2354    1.8689  -14.7010 C   0  0  0  0  0  0  0  0  0  0  0  0
  -17.6514    2.4752  -15.8168 C   0  0  0  0  0  0  0  0  0  0  0  0
  -16.3098    2.2559  -16.1442 C   0  0  0  0  0  0  0  0  0  0  0  0
  -15.5244    1.4535  -15.3345 C   0  0  0  0  0  0  0  0  0  0  0  0
  -16.0636    0.9415  -14.1531 C   0  0  0  0  0  0  0  0  0  0  0  0
  -17.4261    1.1011  -13.8595 C   0  0  0  0  0  0  0  0  0  0  0  0
  -20.4756    0.0020  -15.2333 O   0  0  0  0  0  0  0  0  0  0  0  0
  -20.6029    1.0726  -14.6293 C   0  0  0  0  0  0  0  0  0  0  0  0
  -19.6047    1.9924  -14.3720 N   0  0  0  0  0  0  0  0  0  0  0  0
  -19.8671    2.8376  -13.8785 H   0  0  0  0  0  0  0  0  0  0  0  0
  -21.9715    1.4805  -14.1086 C   0  0  0  0  0  0  0  0  0  0  0  0
  -22.8043    0.3094  -13.6493 C   0  0  0  0  0  0  0  0  0  0  0  0
  -22.5385   -0.3195  -12.4221 C   0  0  0  0  0  0  0  0  0  0  0  0
  -23.3210   -1.3917  -11.9965 C   0  0  0  0  0  0  0  0  0  0  0  0
  -23.0496   -1.9794  -10.8241 F   0  0  0  0  0  0  0  0  0  0  0  0
  -24.3788   -1.8559  -12.7633 C   0  0  0  0  0  0  0  0  0  0  0  0
  -24.6546   -1.2234  -13.9663 C   0  0  0  0  0  0  0  0  0  0  0  0
  -25.6821   -1.6483  -14.7131 F   0  0  0  0  0  0  0  0  0  0  0  0
  -23.8855   -0.1488  -14.4144 C   0  0  0  0  0  0  0  0  0  0  0  0
 27 28  2  0  0  0
 28 31  1  0  0  0
 28 29  1  0  0  0
 31 32  1  0  0  0
 32 33  1  0  0  0
 32 39  2  0  0  0
 33 34  2  0  0  0
 34 35  1  0  0  0
 34 36  1  0  0  0
 36 37  2  0  0  0
 37 38  1  0  0  0
 37 39  1  0  0  0
 29 21  1  0  0  0
 29 30  1  0  0  0
 21 22  1  0  0  0
 21 26  2  0  0  0
 22 23  2  0  0  0
 23 24  1  0  0  0
 24 25  2  0  0  0
 25  1  1  0  0  0
 25 26  1  0  0  0
  1  2  2  0  0  0
  1  3  1  0  0  0
  3  4  1  0  0  0
  3 11  2  0  0  0
  4  5  2  0  0  0
  5  6  1  0  0  0
  6  7  1  0  0  0
  6 10  2  0  0  0
  7 13  1  0  0  0
  7  8  2  0  0  0
 13 14  2  0  0  0
 14 15  1  0  0  0
 15 16  1  0  0  0
 15 20  2  0  0  0
 16 17  2  0  0  0
 17 18  1  0  0  0
 18 19  2  0  0  0
 19 20  1  0  0  0
  8  9  1  0  0  0
  9 10  1  0  0  0
  9 12  1  0  0  0
 10 11  1  0  0  0
M  END
> <minimizedAffinity>
-11.62727

$$$$
