CHEMBL3946469


 33 36  0  0  0  0  0  0  0  0999 V2000
  -28.9436   -5.5171   -7.1794 C   0  0  0  0  0  0  0  0  0  0  0  0
  -29.3237   -5.4597   -5.8142 C   0  0  0  0  0  0  0  0  0  0  0  0
  -29.2238   -6.5157   -4.9224 C   0  0  0  0  0  0  0  0  0  0  0  0
  -29.6441   -6.3325   -3.6683 N   0  0  0  0  0  0  0  0  0  0  0  0
  -29.5365   -7.3754   -2.8441 C   0  0  0  0  0  0  0  0  0  0  0  0
  -29.0301   -8.5689   -3.1595 N   0  0  0  0  0  0  0  0  0  0  0  0
  -28.5895   -8.7312   -4.4192 C   0  0  0  0  0  0  0  0  0  0  0  0
  -28.6950   -7.7150   -5.3784 C   0  0  0  0  0  0  0  0  0  0  0  0
  -28.3411   -7.8210   -6.7400 C   0  0  0  0  0  0  0  0  0  0  0  0
  -28.4532   -6.7469   -7.6466 C   0  0  0  0  0  0  0  0  0  0  0  0
  -28.0048   -9.9731   -4.7858 N   0  0  0  0  0  0  0  0  0  0  0  0
  -28.2777  -10.1966   -5.7342 H   0  0  0  0  0  0  0  0  0  0  0  0
  -26.6822  -10.3228   -4.4852 C   0  0  0  0  0  0  0  0  0  0  0  0
  -26.3821  -10.9783   -3.2806 C   0  0  0  0  0  0  0  0  0  0  0  0
  -25.0636  -11.2240   -2.9147 C   0  0  0  0  0  0  0  0  0  0  0  0
  -24.0190  -10.8190   -3.7491 C   0  0  0  0  0  0  0  0  0  0  0  0
  -22.4035  -11.0815   -3.1983 Cl  0  0  0  0  0  0  0  0  0  0  0  0
  -24.3085  -10.2065   -4.9741 C   0  0  0  0  0  0  0  0  0  0  0  0
  -23.0701   -9.6920   -6.0655 Cl  0  0  0  0  0  0  0  0  0  0  0  0
  -25.6373   -9.9673   -5.3438 C   0  0  0  0  0  0  0  0  0  0  0  0
  -28.0714   -7.1938   -8.8734 O   0  0  0  0  0  0  0  0  0  0  0  0
  -27.7733   -8.5401   -9.1553 C   0  0  0  0  0  0  0  0  0  0  0  0
  -29.0805   -4.3998   -8.0000 O   0  0  0  0  0  0  0  0  0  0  0  0
  -29.0989   -3.1350   -7.2820 C   0  0  0  0  0  0  0  0  0  0  0  0
  -28.0032   -1.2712   -4.6949 N   0  0  0  0  0  0  0  0  0  0  0  0
  -27.7759   -0.0289   -5.4553 C   0  0  0  0  0  0  0  0  0  0  0  0
  -28.1549   -0.1173   -6.9409 C   0  0  0  0  0  0  0  0  0  0  0  0
  -27.5603   -1.2415   -7.6084 O   0  0  0  0  0  0  0  0  0  0  0  0
  -27.7366   -2.5127   -6.9329 C   0  0  0  0  0  0  0  0  0  0  0  0
  -27.3918   -2.3939   -5.4371 C   0  0  0  0  0  0  0  0  0  0  0  0
  -29.4063   -1.5155   -4.3638 C   0  0  0  0  0  0  0  0  0  0  0  0
  -30.7509   -3.0005   -2.8508 C   0  0  0  0  0  0  0  0  0  0  0  0
  -29.5782   -2.6493   -3.3970 C   0  0  0  0  0  0  0  0  0  0  0  0
 32 33  2  0  0  0
 33 31  1  0  0  0
 31 25  1  0  0  0
 25 26  1  0  0  0
 25 30  1  0  0  0
 26 27  1  0  0  0
 27 28  1  0  0  0
 28 29  1  0  0  0
 29 24  1  0  0  0
 29 30  1  0  0  0
 24 23  1  0  0  0
 23  1  1  0  0  0
  1  2  1  0  0  0
  1 10  2  0  0  0
  2  3  2  0  0  0
  3  4  1  0  0  0
  3  8  1  0  0  0
  4  5  2  0  0  0
  5  6  1  0  0  0
  6  7  2  0  0  0
  7 11  1  0  0  0
  7  8  1  0  0  0
 11 13  1  0  0  0
 11 12  1  0  0  0
 13 14  1  0  0  0
 13 20  2  0  0  0
 14 15  2  0  0  0
 15 16  1  0  0  0
 16 17  1  0  0  0
 16 18  2  0  0  0
 18 19  1  0  0  0
 18 20  1  0  0  0
  8  9  2  0  0  0
  9 10  1  0  0  0
 10 21  1  0  0  0
 21 22  1  0  0  0
M  END
> <minimizedAffinity>
-7.35321

$$$$
