CHEMBL3656097


 37 40  0  0  0  0  0  0  0  0999 V2000
  -23.2039   -0.7053  -13.6422 C   0  0  0  0  0  0  0  0  0  0  0  0
  -23.2712   -0.6038  -12.2523 C   0  0  0  0  0  0  0  0  0  0  0  0
  -24.4461   -0.9279  -11.5728 C   0  0  0  0  0  0  0  0  0  0  0  0
  -25.5975   -1.3065  -12.2636 C   0  0  0  0  0  0  0  0  0  0  0  0
  -25.5517   -1.2890  -13.6631 C   0  0  0  0  0  0  0  0  0  0  0  0
  -26.6542   -1.5967  -14.3655 F   0  0  0  0  0  0  0  0  0  0  0  0
  -24.3675   -1.0026  -14.3538 C   0  0  0  0  0  0  0  0  0  0  0  0
  -26.7880   -1.7215  -11.6054 N   0  0  0  0  0  0  0  0  0  0  0  0
  -26.9247   -1.8480  -10.2299 C   0  0  0  0  0  0  0  0  0  0  0  0
  -26.0421   -1.6051   -9.4134 O   0  0  0  0  0  0  0  0  0  0  0  0
  -28.1643   -2.3478   -9.8581 N   0  0  0  0  0  0  0  0  0  0  0  0
  -27.5474   -2.0294  -12.2006 H   0  0  0  0  0  0  0  0  0  0  0  0
  -28.5556   -3.0176  -10.5030 H   0  0  0  0  0  0  0  0  0  0  0  0
  -28.4631   -2.5630   -8.4870 C   0  0  0  0  0  0  0  0  0  0  0  0
  -28.9496   -3.8110   -8.0969 C   0  0  0  0  0  0  0  0  0  0  0  0
  -29.1836   -4.0783   -6.7466 C   0  0  0  0  0  0  0  0  0  0  0  0
  -28.9904   -3.0831   -5.7872 C   0  0  0  0  0  0  0  0  0  0  0  0
  -28.5464   -1.8120   -6.1663 C   0  0  0  0  0  0  0  0  0  0  0  0
  -28.3876   -0.7204   -5.1483 C   0  0  0  0  0  0  0  0  0  0  0  0
  -28.2650   -1.5663   -7.5198 C   0  0  0  0  0  0  0  0  0  0  0  0
  -22.0449   -0.4925  -14.3665 O   0  0  0  0  0  0  0  0  0  0  0  0
  -19.8733    2.4121  -15.0104 C   0  0  0  0  0  0  0  0  0  0  0  0
  -20.3258    1.0998  -15.0467 C   0  0  0  0  0  0  0  0  0  0  0  0
  -21.5613    0.7972  -14.4835 C   0  0  0  0  0  0  0  0  0  0  0  0
  -22.3645    1.8345  -14.0295 C   0  0  0  0  0  0  0  0  0  0  0  0
  -21.8556    3.1250  -14.0866 C   0  0  0  0  0  0  0  0  0  0  0  0
  -20.6192    3.4382  -14.5432 N   0  0  0  0  0  0  0  0  0  0  0  0
  -16.2969    2.7151  -15.9946 C   0  0  0  0  0  0  0  0  0  0  0  0
  -16.7057    4.0279  -15.8369 C   0  0  0  0  0  0  0  0  0  0  0  0
  -18.0338    4.0332  -15.4875 N   0  0  0  0  0  0  0  0  0  0  0  0
  -18.5092    2.7430  -15.4082 C   0  0  0  0  0  0  0  0  0  0  0  0
  -17.4422    1.9179  -15.7180 C   0  0  0  0  0  0  0  0  0  0  0  0
  -18.6001    4.8502  -15.2920 H   0  0  0  0  0  0  0  0  0  0  0  0
  -14.9680    2.2458  -16.3614 C   0  0  0  0  0  0  0  0  0  0  0  0
  -13.9735    2.9614  -16.3824 O   0  0  0  0  0  0  0  0  0  0  0  0
  -14.3706    0.5784  -17.9127 C   0  0  0  0  0  0  0  0  0  0  0  0
  -14.9719    0.9157  -16.6660 O   0  0  0  0  0  0  0  0  0  0  0  0
 36 37  1  0  0  0
 37 34  1  0  0  0
 34 35  2  0  0  0
 34 28  1  0  0  0
 28 29  2  0  0  0
 28 32  1  0  0  0
 29 30  1  0  0  0
 30 31  1  0  0  0
 30 33  1  0  0  0
 31 22  1  0  0  0
 31 32  2  0  0  0
 22 23  1  0  0  0
 22 27  2  0  0  0
 23 24  2  0  0  0
 24 21  1  0  0  0
 24 25  1  0  0  0
 21  1  1  0  0  0
  1  2  1  0  0  0
  1  7  2  0  0  0
  2  3  2  0  0  0
  3  4  1  0  0  0
  4  8  1  0  0  0
  4  5  2  0  0  0
  8  9  1  0  0  0
  8 12  1  0  0  0
  9 10  2  0  0  0
  9 11  1  0  0  0
 11 14  1  0  0  0
 11 13  1  0  0  0
 14 15  1  0  0  0
 14 20  2  0  0  0
 15 16  2  0  0  0
 16 17  1  0  0  0
 17 18  2  0  0  0
 18 19  1  0  0  0
 18 20  1  0  0  0
  5  6  1  0  0  0
  5  7  1  0  0  0
 25 26  2  0  0  0
 26 27  1  0  0  0
M  END
> <minimizedAffinity>
-11.42385

$$$$
