CHEMBL498214


 34 38  0  0  0  0  0  0  0  0999 V2000
  -15.7989    2.4716  -15.7466 C   0  0  0  0  0  0  0  0  0  0  0  0
  -17.1302    2.0257  -15.6812 C   0  0  0  0  0  0  0  0  0  0  0  0
  -17.4605    0.7764  -15.1298 C   0  0  0  0  0  0  0  0  0  0  0  0
  -16.3994    0.0327  -14.6102 C   0  0  0  0  0  0  0  0  0  0  0  0
  -16.3271   -1.1678  -13.9530 N   0  0  0  0  0  0  0  0  0  0  0  0
  -15.0070   -1.4259  -13.6359 C   0  0  0  0  0  0  0  0  0  0  0  0
  -14.2348   -0.4615  -14.1105 N   0  0  0  0  0  0  0  0  0  0  0  0
  -15.0765    0.4315  -14.7102 C   0  0  0  0  0  0  0  0  0  0  0  0
  -14.7583    1.6233  -15.3576 C   0  0  0  0  0  0  0  0  0  0  0  0
  -17.1018   -1.7844  -13.7319 H   0  0  0  0  0  0  0  0  0  0  0  0
  -14.6416   -2.6296  -12.9516 C   0  0  0  0  0  0  0  0  0  0  0  0
  -13.8844   -3.5646  -13.5848 C   0  0  0  0  0  0  0  0  0  0  0  0
  -13.3092   -3.4022  -14.8493 N   0  0  0  0  0  0  0  0  0  0  0  0
  -13.6627   -4.8814  -12.9241 C   0  0  0  0  0  0  0  0  0  0  0  0
  -12.9459   -5.9298  -13.5240 C   0  0  0  0  0  0  0  0  0  0  0  0
  -12.8339   -7.1769  -12.9062 C   0  0  0  0  0  0  0  0  0  0  0  0
  -13.4189   -7.3907  -11.6580 C   0  0  0  0  0  0  0  0  0  0  0  0
  -14.1010   -6.3557  -11.0260 C   0  0  0  0  0  0  0  0  0  0  0  0
  -14.2225   -5.1178  -11.6614 C   0  0  0  0  0  0  0  0  0  0  0  0
  -14.9245   -4.1028  -11.0138 N   0  0  0  0  0  0  0  0  0  0  0  0
  -15.1500   -2.8768  -11.5619 C   0  0  0  0  0  0  0  0  0  0  0  0
  -15.7659   -2.0197  -10.9266 O   0  0  0  0  0  0  0  0  0  0  0  0
  -13.6577   -2.5408  -15.2942 H   0  0  0  0  0  0  0  0  0  0  0  0
  -13.4895   -4.1890  -15.4654 H   0  0  0  0  0  0  0  0  0  0  0  0
  -15.2998   -4.2503  -10.0869 H   0  0  0  0  0  0  0  0  0  0  0  0
  -11.8804    4.9058  -20.4634 C   0  0  0  0  0  0  0  0  0  0  0  0
  -13.1357    4.5721  -19.7950 N   0  0  0  0  0  0  0  0  0  0  0  0
  -12.9799    3.3229  -19.0326 C   0  0  0  0  0  0  0  0  0  0  0  0
  -14.2779    2.9275  -18.3211 C   0  0  0  0  0  0  0  0  0  0  0  0
  -14.8242    3.9997  -17.4769 N   0  0  0  0  0  0  0  0  0  0  0  0
  -15.5101    3.8365  -16.2679 C   0  0  0  0  0  0  0  0  0  0  0  0
  -15.8821    4.7890  -15.5830 O   0  0  0  0  0  0  0  0  0  0  0  0
  -14.8606    5.3148  -18.1232 C   0  0  0  0  0  0  0  0  0  0  0  0
  -13.5548    5.6509  -18.8743 C   0  0  0  0  0  0  0  0  0  0  0  0
 26 27  1  0  0  0
 27 28  1  0  0  0
 27 34  1  0  0  0
 28 29  1  0  0  0
 29 30  1  0  0  0
 30 31  1  0  0  0
 30 33  1  0  0  0
 31 32  2  0  0  0
 31  1  1  0  0  0
  1  2  1  0  0  0
  1  9  2  0  0  0
  2  3  2  0  0  0
  3  4  1  0  0  0
  4  5  1  0  0  0
  4  8  2  0  0  0
  5  6  1  0  0  0
  5 10  1  0  0  0
  6 11  1  0  0  0
  6  7  2  0  0  0
 11 12  2  0  0  0
 11 21  1  0  0  0
 12 13  1  0  0  0
 12 14  1  0  0  0
 13 23  1  0  0  0
 13 24  1  0  0  0
 14 15  1  0  0  0
 14 19  2  0  0  0
 15 16  2  0  0  0
 16 17  1  0  0  0
 17 18  2  0  0  0
 18 19  1  0  0  0
 19 20  1  0  0  0
 20 21  1  0  0  0
 20 25  1  0  0  0
 21 22  2  0  0  0
  7  8  1  0  0  0
  8  9  1  0  0  0
 33 34  1  0  0  0
M  END
> <minimizedAffinity>
-7.88730

$$$$
