CHEMBL3944193


 35 40  0  0  0  0  0  0  0  0999 V2000
  -15.0414   -0.4046  -13.7501 C   0  0  0  0  0  0  0  0  0  0  0  0
  -14.2914   -1.4725  -14.2934 C   0  0  0  0  0  0  0  0  0  0  0  0
  -14.1422   -2.7079  -13.6453 C   0  0  0  0  0  0  0  0  0  0  0  0
  -14.8011   -2.9128  -12.4254 C   0  0  0  0  0  0  0  0  0  0  0  0
  -14.9195   -3.9685  -11.4855 C   0  0  0  0  0  0  0  0  0  0  0  0
  -15.7263   -3.6502  -10.4608 N   0  0  0  0  0  0  0  0  0  0  0  0
  -16.0958   -2.3841  -10.7417 N   0  0  0  0  0  0  0  0  0  0  0  0
  -15.5639   -1.8809  -11.8991 C   0  0  0  0  0  0  0  0  0  0  0  0
  -15.6863   -0.6248  -12.5161 C   0  0  0  0  0  0  0  0  0  0  0  0
  -16.7239   -1.9112  -10.1018 H   0  0  0  0  0  0  0  0  0  0  0  0
  -14.2393   -5.2924  -11.5725 C   0  0  0  0  0  0  0  0  0  0  0  0
  -14.7700   -6.3972  -12.0553 N   0  0  0  0  0  0  0  0  0  0  0  0
  -13.7805   -7.3447  -11.9736 C   0  0  0  0  0  0  0  0  0  0  0  0
  -13.7981   -8.6899  -12.3679 C   0  0  0  0  0  0  0  0  0  0  0  0
  -12.6451   -9.4595  -12.1745 C   0  0  0  0  0  0  0  0  0  0  0  0
  -11.5015   -8.9010  -11.5964 C   0  0  0  0  0  0  0  0  0  0  0  0
  -11.4649   -7.5589  -11.1972 C   0  0  0  0  0  0  0  0  0  0  0  0
  -12.6255   -6.8122  -11.4090 C   0  0  0  0  0  0  0  0  0  0  0  0
  -12.9465   -5.5024  -11.1633 N   0  0  0  0  0  0  0  0  0  0  0  0
  -12.3569   -4.7866  -10.7654 H   0  0  0  0  0  0  0  0  0  0  0  0
  -15.0436    4.5674  -16.5259 O   0  0  0  0  0  0  0  0  0  0  0  0
  -15.0176    3.3762  -15.8671 C   0  0  0  0  0  0  0  0  0  0  0  0
  -13.9461    3.0002  -15.0804 C   0  0  0  0  0  0  0  0  0  0  0  0
  -13.9892    1.7738  -14.4077 C   0  0  0  0  0  0  0  0  0  0  0  0
  -15.1067    0.9031  -14.4704 C   0  0  0  0  0  0  0  0  0  0  0  0
  -16.2093    1.3594  -15.2288 C   0  0  0  0  0  0  0  0  0  0  0  0
  -16.1237    2.5516  -15.9780 C   0  0  0  0  0  0  0  0  0  0  0  0
  -14.2418    5.0670  -16.3015 H   0  0  0  0  0  0  0  0  0  0  0  0
  -17.3884    0.6267  -15.2529 O   0  0  0  0  0  0  0  0  0  0  0  0
  -18.5592    1.2919  -14.9274 C   0  0  0  0  0  0  0  0  0  0  0  0
  -19.7587    0.6256  -15.1796 C   0  0  0  0  0  0  0  0  0  0  0  0
  -20.9743    1.2917  -15.0000 C   0  0  0  0  0  0  0  0  0  0  0  0
  -20.9904    2.6184  -14.5666 C   0  0  0  0  0  0  0  0  0  0  0  0
  -19.7963    3.2626  -14.2514 C   0  0  0  0  0  0  0  0  0  0  0  0
  -18.5849    2.5874  -14.3937 C   0  0  0  0  0  0  0  0  0  0  0  0
 21 22  1  0  0  0
 21 28  1  0  0  0
 22 23  1  0  0  0
 22 27  2  0  0  0
 23 24  2  0  0  0
 24 25  1  0  0  0
 25  1  1  0  0  0
 25 26  2  0  0  0
  1  2  1  0  0  0
  1  9  2  0  0  0
  2  3  2  0  0  0
  3  4  1  0  0  0
  4  5  1  0  0  0
  4  8  2  0  0  0
  5 11  1  0  0  0
  5  6  2  0  0  0
 11 12  2  0  0  0
 11 19  1  0  0  0
 12 13  1  0  0  0
 13 14  1  0  0  0
 13 18  2  0  0  0
 14 15  2  0  0  0
 15 16  1  0  0  0
 16 17  2  0  0  0
 17 18  1  0  0  0
 18 19  1  0  0  0
 19 20  1  0  0  0
  6  7  1  0  0  0
  7  8  1  0  0  0
  7 10  1  0  0  0
  8  9  1  0  0  0
 26 29  1  0  0  0
 26 27  1  0  0  0
 29 30  1  0  0  0
 30 31  1  0  0  0
 30 35  2  0  0  0
 31 32  2  0  0  0
 32 33  1  0  0  0
 33 34  2  0  0  0
 34 35  1  0  0  0
M  END
> <minimizedAffinity>
-10.21425

$$$$
