CHEMBL502835


 42 46  0  0  0  0  0  0  0  0999 V2000
  -19.3377    2.2186  -14.9781 C   0  0  0  0  0  0  0  0  0  0  0  0
  -18.6104    2.8400  -16.0176 C   0  0  0  0  0  0  0  0  0  0  0  0
  -17.2059    2.7228  -16.1025 C   0  0  0  0  0  0  0  0  0  0  0  0
  -16.5366    1.9948  -15.1330 C   0  0  0  0  0  0  0  0  0  0  0  0
  -17.2872    1.3662  -14.1287 C   0  0  0  0  0  0  0  0  0  0  0  0
  -18.6623    1.4493  -14.0276 C   0  0  0  0  0  0  0  0  0  0  0  0
  -16.4625    0.7067  -13.2327 N   0  0  0  0  0  0  0  0  0  0  0  0
  -15.1318    0.8992  -13.5381 C   0  0  0  0  0  0  0  0  0  0  0  0
  -14.2028    0.6194  -12.8006 O   0  0  0  0  0  0  0  0  0  0  0  0
  -15.1198    1.6610  -14.8520 C   0  0  0  0  0  0  0  0  0  0  0  0
  -13.9640    1.9257  -15.5075 C   0  0  0  0  0  0  0  0  0  0  0  0
  -16.7573    0.2638  -12.3742 H   0  0  0  0  0  0  0  0  0  0  0  0
  -13.9370    2.8724  -16.6383 C   0  0  0  0  0  0  0  0  0  0  0  0
  -14.0755    2.3696  -17.9412 C   0  0  0  0  0  0  0  0  0  0  0  0
  -14.1240    3.2407  -19.0264 C   0  0  0  0  0  0  0  0  0  0  0  0
  -14.0312    4.6182  -18.8210 C   0  0  0  0  0  0  0  0  0  0  0  0
  -13.8936    5.1255  -17.5303 C   0  0  0  0  0  0  0  0  0  0  0  0
  -13.8504    4.2555  -16.4383 C   0  0  0  0  0  0  0  0  0  0  0  0
  -20.8122    2.3712  -14.8029 C   0  0  0  0  0  0  0  0  0  0  0  0
  -21.3641    3.4527  -14.6969 O   0  0  0  0  0  0  0  0  0  0  0  0
  -22.4673    1.0336  -13.8497 C   0  0  0  0  0  0  0  0  0  0  0  0
  -21.4296    1.1618  -14.8248 O   0  0  0  0  0  0  0  0  0  0  0  0
  -12.7024    1.3698  -15.2754 N   0  0  0  0  0  0  0  0  0  0  0  0
  -12.1844    1.8179  -14.5277 H   0  0  0  0  0  0  0  0  0  0  0  0
  -12.4205    0.0052  -15.4785 C   0  0  0  0  0  0  0  0  0  0  0  0
  -12.9223   -0.6408  -16.6028 C   0  0  0  0  0  0  0  0  0  0  0  0
  -12.8777   -2.0261  -16.7165 C   0  0  0  0  0  0  0  0  0  0  0  0
  -12.2237   -2.8306  -15.7805 C   0  0  0  0  0  0  0  0  0  0  0  0
  -11.6290   -2.1614  -14.6969 C   0  0  0  0  0  0  0  0  0  0  0  0
  -11.7342   -0.7645  -14.5388 C   0  0  0  0  0  0  0  0  0  0  0  0
  -12.2174   -4.2676  -15.8781 N   0  0  0  0  0  0  0  0  0  0  0  0
  -11.0550   -4.9107  -16.4870 C   0  0  0  0  0  0  0  0  0  0  0  0
  -13.1971   -5.1695  -15.4015 C   0  0  0  0  0  0  0  0  0  0  0  0
  -13.0098   -6.3908  -15.4463 O   0  0  0  0  0  0  0  0  0  0  0  0
  -14.5126   -4.5999  -14.8505 C   0  0  0  0  0  0  0  0  0  0  0  0
  -14.9139   -5.0938  -13.5183 N   0  0  0  0  0  0  0  0  0  0  0  0
  -13.9584   -4.5690  -12.5173 C   0  0  0  0  0  0  0  0  0  0  0  0
  -14.3609   -4.9141  -11.0692 C   0  0  0  0  0  0  0  0  0  0  0  0
  -15.7300   -4.5030  -10.7020 N   0  0  0  0  0  0  0  0  0  0  0  0
  -15.8337   -3.0547  -10.5374 C   0  0  0  0  0  0  0  0  0  0  0  0
  -16.6677   -5.0018  -11.7309 C   0  0  0  0  0  0  0  0  0  0  0  0
  -16.2818   -4.6554  -13.1868 C   0  0  0  0  0  0  0  0  0  0  0  0
 21 22  1  0  0  0
 22 19  1  0  0  0
 19 20  2  0  0  0
 19  1  1  0  0  0
  1  2  1  0  0  0
  1  6  2  0  0  0
  2  3  2  0  0  0
  3  4  1  0  0  0
  4  5  2  0  0  0
  4 10  1  0  0  0
  5  6  1  0  0  0
  5  7  1  0  0  0
  7  8  1  0  0  0
  7 12  1  0  0  0
  8  9  2  0  0  0
  8 10  1  0  0  0
 10 11  2  0  0  0
 11 23  1  0  0  0
 11 13  1  0  0  0
 23 25  1  0  0  0
 23 24  1  0  0  0
 25 26  1  0  0  0
 25 30  2  0  0  0
 26 27  2  0  0  0
 27 28  1  0  0  0
 28 31  1  0  0  0
 28 29  2  0  0  0
 31 32  1  0  0  0
 31 33  1  0  0  0
 33 34  2  0  0  0
 33 35  1  0  0  0
 35 36  1  0  0  0
 36 37  1  0  0  0
 36 42  1  0  0  0
 37 38  1  0  0  0
 38 39  1  0  0  0
 39 40  1  0  0  0
 39 41  1  0  0  0
 41 42  1  0  0  0
 29 30  1  0  0  0
 13 14  1  0  0  0
 13 18  2  0  0  0
 14 15  2  0  0  0
 15 16  1  0  0  0
 16 17  2  0  0  0
 17 18  1  0  0  0
M  END
> <minimizedAffinity>
-8.63454

$$$$
