CHEMBL246166


 36 40  0  0  0  0  0  0  0  0999 V2000
  -30.1679   -5.4238   -6.0932 C   0  0  0  0  0  0  0  0  0  0  0  0
  -30.5166   -5.4133   -4.7294 C   0  0  0  0  0  0  0  0  0  0  0  0
  -30.2111   -4.3332   -3.8811 C   0  0  0  0  0  0  0  0  0  0  0  0
  -29.5364   -3.2196   -4.3653 C   0  0  0  0  0  0  0  0  0  0  0  0
  -29.1737   -3.2454   -5.6934 C   0  0  0  0  0  0  0  0  0  0  0  0
  -29.4599   -4.3312   -6.5756 C   0  0  0  0  0  0  0  0  0  0  0  0
  -28.9567   -4.0683   -8.0056 C   0  0  0  0  0  0  0  0  0  0  0  0
  -28.3720   -2.7152   -7.7830 C   0  0  0  0  0  0  0  0  0  0  0  0
  -28.5014   -2.2626   -6.4659 C   0  0  0  0  0  0  0  0  0  0  0  0
  -27.9796   -1.0664   -6.2428 N   0  0  0  0  0  0  0  0  0  0  0  0
  -27.4884   -0.7476   -7.4670 N   0  0  0  0  0  0  0  0  0  0  0  0
  -27.6986   -1.7141   -8.4320 C   0  0  0  0  0  0  0  0  0  0  0  0
  -27.0238    0.1461   -7.5746 H   0  0  0  0  0  0  0  0  0  0  0  0
  -27.2750   -1.6445   -9.8531 C   0  0  0  0  0  0  0  0  0  0  0  0
  -28.0922   -2.0175  -10.8989 C   0  0  0  0  0  0  0  0  0  0  0  0
  -27.3155   -1.8534  -12.4157 S   0  0  0  0  0  0  0  0  0  0  0  0
  -25.8720   -1.3181  -11.6811 C   0  0  0  0  0  0  0  0  0  0  0  0
  -25.9981   -1.2064  -10.3143 C   0  0  0  0  0  0  0  0  0  0  0  0
  -24.6828   -1.0442  -12.4150 C   0  0  0  0  0  0  0  0  0  0  0  0
  -23.7070   -0.7878  -13.0593 C   0  0  0  0  0  0  0  0  0  0  0  0
  -22.5314   -0.3822  -13.8334 C   0  0  0  0  0  0  0  0  0  0  0  0
  -22.5165    1.0374  -13.9960 O   0  0  0  0  0  0  0  0  0  0  0  0
  -21.3248    1.5426  -14.4504 C   0  0  0  0  0  0  0  0  0  0  0  0
  -20.2316    0.7651  -14.8406 C   0  0  0  0  0  0  0  0  0  0  0  0
  -19.0526    1.3719  -15.2746 C   0  0  0  0  0  0  0  0  0  0  0  0
  -18.9662    2.7592  -15.3403 C   0  0  0  0  0  0  0  0  0  0  0  0
  -20.0655    3.5406  -14.9872 C   0  0  0  0  0  0  0  0  0  0  0  0
  -21.2450    2.9332  -14.5481 C   0  0  0  0  0  0  0  0  0  0  0  0
  -29.7551   -7.6226   -7.1727 C   0  0  0  0  0  0  0  0  0  0  0  0
  -28.6710   -7.8909   -6.6737 O   0  0  0  0  0  0  0  0  0  0  0  0
  -30.5299   -6.4889   -6.9483 N   0  0  0  0  0  0  0  0  0  0  0  0
  -31.4604   -6.5003   -7.3548 H   0  0  0  0  0  0  0  0  0  0  0  0
  -30.4160   -8.6434   -8.1217 C   0  0  0  0  0  0  0  0  0  0  0  0
  -29.7904   -9.2179   -8.9962 O   0  0  0  0  0  0  0  0  0  0  0  0
  -32.1381  -10.0098   -7.2930 C   0  0  0  0  0  0  0  0  0  0  0  0
  -31.7279   -8.7554   -7.8226 O   0  0  0  0  0  0  0  0  0  0  0  0
 35 36  1  0  0  0
 36 33  1  0  0  0
 33 34  2  0  0  0
 33 29  1  0  0  0
 29 30  2  0  0  0
 29 31  1  0  0  0
 31  1  1  0  0  0
 31 32  1  0  0  0
  1  2  1  0  0  0
  1  6  2  0  0  0
  2  3  2  0  0  0
  3  4  1  0  0  0
  4  5  2  0  0  0
  5  6  1  0  0  0
  5  9  1  0  0  0
  6  7  1  0  0  0
  7  8  1  0  0  0
  8  9  1  0  0  0
  8 12  2  0  0  0
  9 10  2  0  0  0
 10 11  1  0  0  0
 11 12  1  0  0  0
 11 13  1  0  0  0
 12 14  1  0  0  0
 14 15  2  0  0  0
 14 18  1  0  0  0
 15 16  1  0  0  0
 16 17  1  0  0  0
 17 19  1  0  0  0
 17 18  2  0  0  0
 19 20  3  0  0  0
 20 21  1  0  0  0
 21 22  1  0  0  0
 22 23  1  0  0  0
 23 24  1  0  0  0
 23 28  2  0  0  0
 24 25  2  0  0  0
 25 26  1  0  0  0
 26 27  2  0  0  0
 27 28  1  0  0  0
M  END
> <minimizedAffinity>
-10.19327

$$$$
