CHEMBL382308


 24 26  0  0  0  0  0  0  0  0999 V2000
  -27.3592   -1.4856   -9.4852 N   0  0  0  0  0  0  0  0  0  0  0  0
  -27.6529   -2.5517   -8.6495 C   0  0  0  0  0  0  0  0  0  0  0  0
  -27.3902   -3.7182   -8.9248 O   0  0  0  0  0  0  0  0  0  0  0  0
  -27.6162   -0.5605   -9.1585 H   0  0  0  0  0  0  0  0  0  0  0  0
  -24.9179   -1.4951  -14.6789 C   0  0  0  0  0  0  0  0  0  0  0  0
  -25.5346   -1.5314  -13.3123 C   0  0  0  0  0  0  0  0  0  0  0  0
  -24.7385   -1.4141  -12.1678 C   0  0  0  0  0  0  0  0  0  0  0  0
  -25.3119   -1.4112  -10.8901 C   0  0  0  0  0  0  0  0  0  0  0  0
  -26.6929   -1.5210  -10.7320 C   0  0  0  0  0  0  0  0  0  0  0  0
  -27.4793   -1.6609  -11.8827 C   0  0  0  0  0  0  0  0  0  0  0  0
  -28.8120   -1.7774  -11.7611 F   0  0  0  0  0  0  0  0  0  0  0  0
  -26.9180   -1.6664  -13.1599 C   0  0  0  0  0  0  0  0  0  0  0  0
  -28.2962   -2.1998   -7.3858 C   0  0  0  0  0  0  0  0  0  0  0  0
  -27.9647   -0.7244   -6.5629 S   0  0  0  0  0  0  0  0  0  0  0  0
  -29.0261   -1.1897   -5.3081 C   0  0  0  0  0  0  0  0  0  0  0  0
  -29.6212   -2.3495   -5.4578 N   0  0  0  0  0  0  0  0  0  0  0  0
  -29.2186   -2.9417   -6.6505 C   0  0  0  0  0  0  0  0  0  0  0  0
  -29.7570   -4.3067   -6.9845 C   0  0  0  0  0  0  0  0  0  0  0  0
  -28.9473   -5.4646   -6.3904 C   0  0  0  0  0  0  0  0  0  0  0  0
  -29.5349   -5.9602   -5.1139 C   0  0  0  0  0  0  0  0  0  0  0  0
  -28.9844   -6.8893   -4.2024 C   0  0  0  0  0  0  0  0  0  0  0  0
  -29.7878   -7.1159   -3.1605 N   0  0  0  0  0  0  0  0  0  0  0  0
  -30.9005   -6.3198   -3.3787 O   0  0  0  0  0  0  0  0  0  0  0  0
  -30.7420   -5.6371   -4.5397 C   0  0  0  0  0  0  0  0  0  0  0  0
  5  6  1  0  0  0
  6  7  1  0  0  0
  6 12  2  0  0  0
  7  8  2  0  0  0
  8  9  1  0  0  0
  9  1  1  0  0  0
  9 10  2  0  0  0
  1  2  1  0  0  0
  1  4  1  0  0  0
  2  3  2  0  0  0
  2 13  1  0  0  0
 13 14  1  0  0  0
 13 17  2  0  0  0
 14 15  1  0  0  0
 15 16  2  0  0  0
 16 17  1  0  0  0
 17 18  1  0  0  0
 18 19  1  0  0  0
 19 20  1  0  0  0
 20 21  1  0  0  0
 20 24  2  0  0  0
 21 22  2  0  0  0
 22 23  1  0  0  0
 23 24  1  0  0  0
 10 11  1  0  0  0
 10 12  1  0  0  0
M  END
> <minimizedAffinity>
-7.61477

$$$$
