CHEMBL1964441


 37 40  0  0  0  0  0  0  0  0999 V2000
  -22.6112   -0.2937  -13.8301 C   0  0  0  0  0  0  0  0  0  0  0  0
  -22.7030   -0.5323  -12.4691 C   0  0  0  0  0  0  0  0  0  0  0  0
  -23.8476   -1.0636  -11.8952 C   0  0  0  0  0  0  0  0  0  0  0  0
  -24.9982   -1.2710  -12.6399 C   0  0  0  0  0  0  0  0  0  0  0  0
  -24.9492   -0.9636  -14.0079 C   0  0  0  0  0  0  0  0  0  0  0  0
  -23.7575   -0.4945  -14.5947 C   0  0  0  0  0  0  0  0  0  0  0  0
  -18.9873    2.8210  -15.4278 C   0  0  0  0  0  0  0  0  0  0  0  0
  -19.6743    3.9645  -15.0869 C   0  0  0  0  0  0  0  0  0  0  0  0
  -20.8953    3.9865  -14.5166 N   0  0  0  0  0  0  0  0  0  0  0  0
  -21.5264    2.8283  -14.2586 C   0  0  0  0  0  0  0  0  0  0  0  0
  -22.7731    2.9769  -13.6830 N   0  0  0  0  0  0  0  0  0  0  0  0
  -20.9133    1.5791  -14.5718 C   0  0  0  0  0  0  0  0  0  0  0  0
  -21.3596    0.1981  -14.3990 C   0  0  0  0  0  0  0  0  0  0  0  0
  -20.4183   -0.7119  -14.8334 C   0  0  0  0  0  0  0  0  0  0  0  0
  -19.0211    0.0188  -15.4396 S   0  0  0  0  0  0  0  0  0  0  0  0
  -19.6309    1.6079  -15.1506 C   0  0  0  0  0  0  0  0  0  0  0  0
  -23.0302    3.8955  -13.3745 H   0  0  0  0  0  0  0  0  0  0  0  0
  -23.1123    2.2412  -13.1030 H   0  0  0  0  0  0  0  0  0  0  0  0
  -16.5059    2.8616  -16.5779 C   0  0  0  0  0  0  0  0  0  0  0  0
  -17.6920    2.8327  -16.0373 C   0  0  0  0  0  0  0  0  0  0  0  0
  -15.1231    2.8955  -17.2081 C   0  0  0  0  0  0  0  0  0  0  0  0
  -14.0553    4.3448  -15.6326 C   0  0  0  0  0  0  0  0  0  0  0  0
  -14.5219    4.2062  -17.0047 N   0  0  0  0  0  0  0  0  0  0  0  0
  -13.7352    4.3082  -17.6448 H   0  0  0  0  0  0  0  0  0  0  0  0
  -26.2045   -1.7655  -12.0624 N   0  0  0  0  0  0  0  0  0  0  0  0
  -26.4276   -1.7973  -10.6823 C   0  0  0  0  0  0  0  0  0  0  0  0
  -25.6451   -1.4289   -9.8536 O   0  0  0  0  0  0  0  0  0  0  0  0
  -27.6675   -2.3271  -10.3179 N   0  0  0  0  0  0  0  0  0  0  0  0
  -26.9281   -2.0915  -12.6835 H   0  0  0  0  0  0  0  0  0  0  0  0
  -28.0241   -3.0707  -10.8842 H   0  0  0  0  0  0  0  0  0  0  0  0
  -27.9486   -2.4018   -8.9156 C   0  0  0  0  0  0  0  0  0  0  0  0
  -28.4277   -3.6015   -8.3735 C   0  0  0  0  0  0  0  0  0  0  0  0
  -28.8322   -3.6698   -7.0427 C   0  0  0  0  0  0  0  0  0  0  0  0
  -28.7751   -2.5348   -6.2383 C   0  0  0  0  0  0  0  0  0  0  0  0
  -28.2736   -1.3314   -6.7488 C   0  0  0  0  0  0  0  0  0  0  0  0
  -28.2525   -0.1099   -5.8771 C   0  0  0  0  0  0  0  0  0  0  0  0
  -27.8408   -1.2750   -8.0904 C   0  0  0  0  0  0  0  0  0  0  0  0
 22 23  1  0  0  0
 23 21  1  0  0  0
 23 24  1  0  0  0
 21 19  1  0  0  0
 19 20  3  0  0  0
 20  7  1  0  0  0
  7  8  1  0  0  0
  7 16  2  0  0  0
  8  9  2  0  0  0
  9 10  1  0  0  0
 10 11  1  0  0  0
 10 12  2  0  0  0
 11 17  1  0  0  0
 11 18  1  0  0  0
 12 13  1  0  0  0
 12 16  1  0  0  0
 13  1  1  0  0  0
 13 14  2  0  0  0
  1  2  1  0  0  0
  1  6  2  0  0  0
  2  3  2  0  0  0
  3  4  1  0  0  0
  4 25  1  0  0  0
  4  5  2  0  0  0
 25 26  1  0  0  0
 25 29  1  0  0  0
 26 27  2  0  0  0
 26 28  1  0  0  0
 28 31  1  0  0  0
 28 30  1  0  0  0
 31 32  1  0  0  0
 31 37  2  0  0  0
 32 33  2  0  0  0
 33 34  1  0  0  0
 34 35  2  0  0  0
 35 36  1  0  0  0
 35 37  1  0  0  0
  5  6  1  0  0  0
 14 15  1  0  0  0
 15 16  1  0  0  0
M  END
> <minimizedAffinity>
-9.22518

$$$$
