CHEMBL183504


 23 26  0  0  0  0  0  0  0  0999 V2000
  -29.1595   -2.9921   -6.0098 C   0  0  0  0  0  0  0  0  0  0  0  0
  -29.0660   -2.2874   -4.8669 N   0  0  0  0  0  0  0  0  0  0  0  0
  -28.3368   -1.1574   -4.8551 C   0  0  0  0  0  0  0  0  0  0  0  0
  -27.6532   -0.6106   -5.8703 N   0  0  0  0  0  0  0  0  0  0  0  0
  -27.7742   -1.3415   -6.9856 C   0  0  0  0  0  0  0  0  0  0  0  0
  -27.1882   -1.0004   -8.1688 O   0  0  0  0  0  0  0  0  0  0  0  0
  -27.5265   -1.9543   -9.0881 C   0  0  0  0  0  0  0  0  0  0  0  0
  -28.3178   -2.9139   -8.4884 C   0  0  0  0  0  0  0  0  0  0  0  0
  -28.4897   -2.5188   -7.1388 C   0  0  0  0  0  0  0  0  0  0  0  0
  -27.0041   -1.7891  -10.4408 C   0  0  0  0  0  0  0  0  0  0  0  0
  -25.6540   -1.4885  -10.6800 C   0  0  0  0  0  0  0  0  0  0  0  0
  -25.1712   -1.3714  -11.9872 C   0  0  0  0  0  0  0  0  0  0  0  0
  -26.0374   -1.5489  -13.0586 C   0  0  0  0  0  0  0  0  0  0  0  0
  -25.5721   -1.4555  -14.3105 F   0  0  0  0  0  0  0  0  0  0  0  0
  -27.3806   -1.8255  -12.8496 C   0  0  0  0  0  0  0  0  0  0  0  0
  -27.8622   -1.9422  -11.5449 C   0  0  0  0  0  0  0  0  0  0  0  0
  -28.2538   -5.7533   -5.6954 O   0  0  0  0  0  0  0  0  0  0  0  0
  -29.4065   -5.4389   -5.9492 C   0  0  0  0  0  0  0  0  0  0  0  0
  -29.9095   -4.1719   -6.1041 N   0  0  0  0  0  0  0  0  0  0  0  0
  -30.8955   -4.0739   -6.2839 H   0  0  0  0  0  0  0  0  0  0  0  0
  -30.4527   -6.5010   -6.0936 C   0  0  0  0  0  0  0  0  0  0  0  0
  -30.0293   -7.9355   -6.3116 C   0  0  0  0  0  0  0  0  0  0  0  0
  -30.6746   -7.1708   -7.4303 C   0  0  0  0  0  0  0  0  0  0  0  0
 17 18  2  0  0  0
 18 19  1  0  0  0
 18 21  1  0  0  0
 19  1  1  0  0  0
 19 20  1  0  0  0
  1  2  1  0  0  0
  1  9  2  0  0  0
  2  3  2  0  0  0
  3  4  1  0  0  0
  4  5  2  0  0  0
  5  6  1  0  0  0
  5  9  1  0  0  0
  6  7  1  0  0  0
  7 10  1  0  0  0
  7  8  2  0  0  0
 10 11  1  0  0  0
 10 16  2  0  0  0
 11 12  2  0  0  0
 12 13  1  0  0  0
 13 14  1  0  0  0
 13 15  2  0  0  0
 15 16  1  0  0  0
  8  9  1  0  0  0
 21 22  1  0  0  0
 21 23  1  0  0  0
 22 23  1  0  0  0
M  END
> <minimizedAffinity>
-8.49521

$$$$
