CHEMBL244097


 39 42  0  0  0  0  0  0  0  0999 V2000
  -23.4954   -1.2724  -13.5210 C   0  0  0  0  0  0  0  0  0  0  0  0
  -23.2562   -1.5552  -12.1778 C   0  0  0  0  0  0  0  0  0  0  0  0
  -24.3158   -1.8755  -11.3201 C   0  0  0  0  0  0  0  0  0  0  0  0
  -25.6310   -1.9200  -11.7907 C   0  0  0  0  0  0  0  0  0  0  0  0
  -25.8758   -1.5761  -13.1266 C   0  0  0  0  0  0  0  0  0  0  0  0
  -24.8121   -1.2303  -13.9761 C   0  0  0  0  0  0  0  0  0  0  0  0
  -26.7332   -2.3196  -10.9968 N   0  0  0  0  0  0  0  0  0  0  0  0
  -26.9809   -1.9372   -9.6912 C   0  0  0  0  0  0  0  0  0  0  0  0
  -26.3581   -1.0811   -9.0712 O   0  0  0  0  0  0  0  0  0  0  0  0
  -28.0241   -2.6686   -9.1286 N   0  0  0  0  0  0  0  0  0  0  0  0
  -27.4649   -2.8414  -11.4588 H   0  0  0  0  0  0  0  0  0  0  0  0
  -28.0857   -3.6261   -9.4452 H   0  0  0  0  0  0  0  0  0  0  0  0
  -28.4293   -2.4163   -7.7967 C   0  0  0  0  0  0  0  0  0  0  0  0
  -28.7054   -3.4927   -6.9517 C   0  0  0  0  0  0  0  0  0  0  0  0
  -29.0111   -3.2625   -5.6081 C   0  0  0  0  0  0  0  0  0  0  0  0
  -29.0759   -1.9565   -5.1164 C   0  0  0  0  0  0  0  0  0  0  0  0
  -28.8330   -0.8724   -5.9674 C   0  0  0  0  0  0  0  0  0  0  0  0
  -28.5275   -1.1061   -7.3112 C   0  0  0  0  0  0  0  0  0  0  0  0
  -28.9541    0.4988   -5.4112 C   0  0  0  0  0  0  0  0  0  0  0  0
  -30.0157    1.0890   -5.3474 O   0  0  0  0  0  0  0  0  0  0  0  0
  -27.7927    1.0207   -4.9586 O   0  0  0  0  0  0  0  0  0  0  0  0
  -27.0428    0.3988   -4.9060 H   0  0  0  0  0  0  0  0  0  0  0  0
  -22.3873   -1.0291  -14.2957 O   0  0  0  0  0  0  0  0  0  0  0  0
  -18.6561    3.2801  -15.2261 C   0  0  0  0  0  0  0  0  0  0  0  0
  -18.7881    2.0021  -15.4939 N   0  0  0  0  0  0  0  0  0  0  0  0
  -20.0102    1.6304  -14.9992 C   0  0  0  0  0  0  0  0  0  0  0  0
  -20.6204    0.3695  -14.9745 C   0  0  0  0  0  0  0  0  0  0  0  0
  -21.8708    0.2483  -14.3566 C   0  0  0  0  0  0  0  0  0  0  0  0
  -22.5424    1.3818  -13.8782 C   0  0  0  0  0  0  0  0  0  0  0  0
  -21.9394    2.6455  -13.8816 C   0  0  0  0  0  0  0  0  0  0  0  0
  -20.6647    2.7211  -14.4401 C   0  0  0  0  0  0  0  0  0  0  0  0
  -19.7755    3.7555  -14.5894 N   0  0  0  0  0  0  0  0  0  0  0  0
  -19.9175    4.7015  -14.2730 H   0  0  0  0  0  0  0  0  0  0  0  0
  -16.3787    3.6113  -15.8884 C   0  0  0  0  0  0  0  0  0  0  0  0
  -16.0522    2.4545  -16.1092 O   0  0  0  0  0  0  0  0  0  0  0  0
  -17.5907    4.0972  -15.4887 N   0  0  0  0  0  0  0  0  0  0  0  0
  -17.6569    5.0968  -15.3879 H   0  0  0  0  0  0  0  0  0  0  0  0
  -15.0991    4.8818  -17.3757 C   0  0  0  0  0  0  0  0  0  0  0  0
  -15.5258    4.6676  -16.0276 O   0  0  0  0  0  0  0  0  0  0  0  0
 38 39  1  0  0  0
 39 34  1  0  0  0
 34 35  2  0  0  0
 34 36  1  0  0  0
 36 24  1  0  0  0
 36 37  1  0  0  0
 24 25  2  0  0  0
 24 32  1  0  0  0
 25 26  1  0  0  0
 26 27  1  0  0  0
 26 31  2  0  0  0
 27 28  2  0  0  0
 28 23  1  0  0  0
 28 29  1  0  0  0
 23  1  1  0  0  0
  1  2  1  0  0  0
  1  6  2  0  0  0
  2  3  2  0  0  0
  3  4  1  0  0  0
  4  7  1  0  0  0
  4  5  2  0  0  0
  7  8  1  0  0  0
  7 11  1  0  0  0
  8  9  2  0  0  0
  8 10  1  0  0  0
 10 13  1  0  0  0
 10 12  1  0  0  0
 13 14  1  0  0  0
 13 18  2  0  0  0
 14 15  2  0  0  0
 15 16  1  0  0  0
 16 17  2  0  0  0
 17 19  1  0  0  0
 17 18  1  0  0  0
 19 20  2  0  0  0
 19 21  1  0  0  0
 21 22  1  0  0  0
  5  6  1  0  0  0
 29 30  2  0  0  0
 30 31  1  0  0  0
 31 32  1  0  0  0
 32 33  1  0  0  0
M  END
> <minimizedAffinity>
-11.06169

$$$$
