CHEMBL3900264


 29 32  0  0  0  0  0  0  0  0999 V2000
  -28.6607   -9.1398   -5.6567 C   0  0  0  0  0  0  0  0  0  0  0  0
  -29.2586   -8.3795   -4.7761 N   0  0  0  0  0  0  0  0  0  0  0  0
  -29.1183   -9.3761   -7.0656 C   0  0  0  0  0  0  0  0  0  0  0  0
  -28.4234   -8.8285   -8.1548 C   0  0  0  0  0  0  0  0  0  0  0  0
  -28.7751   -9.1548   -9.4493 C   0  0  0  0  0  0  0  0  0  0  0  0
  -29.8071  -10.0534   -9.6795 C   0  0  0  0  0  0  0  0  0  0  0  0
  -30.5295  -10.5812   -8.6223 C   0  0  0  0  0  0  0  0  0  0  0  0
  -30.2115  -10.2154   -7.3378 C   0  0  0  0  0  0  0  0  0  0  0  0
  -26.2659   -9.2449   -4.9553 C   0  0  0  0  0  0  0  0  0  0  0  0
  -27.4117   -9.8734   -5.2484 C   0  0  0  0  0  0  0  0  0  0  0  0
  -21.1547  -11.9743   -3.3273 Cl  0  0  0  0  0  0  0  0  0  0  0  0
  -22.6237  -11.2039   -3.7854 C   0  0  0  0  0  0  0  0  0  0  0  0
  -23.6145  -10.9851   -2.8373 C   0  0  0  0  0  0  0  0  0  0  0  0
  -24.8101  -10.3484   -3.2021 C   0  0  0  0  0  0  0  0  0  0  0  0
  -25.0217   -9.9202   -4.5225 C   0  0  0  0  0  0  0  0  0  0  0  0
  -24.0170  -10.1699   -5.4690 C   0  0  0  0  0  0  0  0  0  0  0  0
  -22.8191  -10.8031   -5.1053 C   0  0  0  0  0  0  0  0  0  0  0  0
  -30.3908   -7.7317   -5.1411 N   0  0  0  0  0  0  0  0  0  0  0  0
  -31.2972   -8.1903   -5.0116 H   0  0  0  0  0  0  0  0  0  0  0  0
  -30.5401   -6.3488   -4.9230 C   0  0  0  0  0  0  0  0  0  0  0  0
  -31.2491   -6.0065   -3.8162 N   0  0  0  0  0  0  0  0  0  0  0  0
  -31.4190   -4.7054   -3.4719 N   0  0  0  0  0  0  0  0  0  0  0  0
  -30.8785   -3.7549   -4.2490 C   0  0  0  0  0  0  0  0  0  0  0  0
  -30.1845   -4.0209   -5.4242 C   0  0  0  0  0  0  0  0  0  0  0  0
  -29.6444   -2.9967   -6.2219 C   0  0  0  0  0  0  0  0  0  0  0  0
  -28.9661   -3.2869   -7.4050 C   0  0  0  0  0  0  0  0  0  0  0  0
  -28.8334   -4.6006   -7.8207 C   0  0  0  0  0  0  0  0  0  0  0  0
  -29.3736   -5.6177   -7.0363 C   0  0  0  0  0  0  0  0  0  0  0  0
  -30.0274   -5.3659   -5.8040 C   0  0  0  0  0  0  0  0  0  0  0  0
 11 12  1  0  0  0
 12 13  1  0  0  0
 12 17  2  0  0  0
 13 14  2  0  0  0
 14 15  1  0  0  0
 15  9  1  0  0  0
 15 16  2  0  0  0
  9 10  2  0  0  0
 10  1  1  0  0  0
  1  2  2  0  0  0
  1  3  1  0  0  0
  2 18  1  0  0  0
 18 20  1  0  0  0
 18 19  1  0  0  0
 20 21  1  0  0  0
 20 29  2  0  0  0
 21 22  2  0  0  0
 22 23  1  0  0  0
 23 24  2  0  0  0
 24 25  1  0  0  0
 24 29  1  0  0  0
 25 26  2  0  0  0
 26 27  1  0  0  0
 27 28  2  0  0  0
 28 29  1  0  0  0
  3  4  1  0  0  0
  3  8  2  0  0  0
  4  5  2  0  0  0
  5  6  1  0  0  0
  6  7  2  0  0  0
  7  8  1  0  0  0
 16 17  1  0  0  0
M  END
> <minimizedAffinity>
-8.39605

$$$$
