CHEMBL2007097


 14 15  0  0  0  0  0  0  0  0999 V2000
  -28.1391   -2.2845  -13.4884 N   0  0  0  0  0  0  0  0  0  0  0  0
  -27.2519   -1.9905  -12.5076 C   0  0  0  0  0  0  0  0  0  0  0  0
  -27.5387   -2.0563  -11.2478 N   0  0  0  0  0  0  0  0  0  0  0  0
  -26.5967   -1.7512  -10.2839 C   0  0  0  0  0  0  0  0  0  0  0  0
  -26.8535   -1.8080   -9.0837 O   0  0  0  0  0  0  0  0  0  0  0  0
  -25.3252   -1.3696  -10.6578 N   0  0  0  0  0  0  0  0  0  0  0  0
  -25.0384   -1.3023  -11.9808 C   0  0  0  0  0  0  0  0  0  0  0  0
  -23.5163   -0.8432  -12.5032 S   0  0  0  0  0  0  0  0  0  0  0  0
  -24.0159   -1.0220  -14.1416 C   0  0  0  0  0  0  0  0  0  0  0  0
  -25.3367   -1.4283  -14.2426 C   0  0  0  0  0  0  0  0  0  0  0  0
  -25.9399   -1.5940  -12.9595 C   0  0  0  0  0  0  0  0  0  0  0  0
  -29.0767   -2.5474  -13.2131 H   0  0  0  0  0  0  0  0  0  0  0  0
  -27.9324   -2.2098  -14.4720 H   0  0  0  0  0  0  0  0  0  0  0  0
  -24.6490   -1.1507   -9.9427 H   0  0  0  0  0  0  0  0  0  0  0  0
  1  2  1  0  0  0
  1 12  1  0  0  0
  1 13  1  0  0  0
  2  3  2  0  0  0
  2 11  1  0  0  0
  3  4  1  0  0  0
  4  5  2  0  0  0
  4  6  1  0  0  0
  6  7  1  0  0  0
  6 14  1  0  0  0
  7  8  1  0  0  0
  7 11  2  0  0  0
  8  9  1  0  0  0
  9 10  2  0  0  0
 10 11  1  0  0  0
M  END
> <minimizedAffinity>
-5.58645

$$$$
