CHEMBL1083023


 33 37  0  0  0  0  0  0  0  0999 V2000
  -26.8356   -1.7850  -11.3372 C   0  0  0  0  0  0  0  0  0  0  0  0
  -27.4583   -2.1900  -12.5310 C   0  0  0  0  0  0  0  0  0  0  0  0
  -26.8124   -1.7963  -13.6283 N   0  0  0  0  0  0  0  0  0  0  0  0
  -25.7229   -1.1252  -13.1501 N   0  0  0  0  0  0  0  0  0  0  0  0
  -24.6958   -0.5175  -13.9228 C   0  0  0  0  0  0  0  0  0  0  0  0
  -24.7658   -0.7200  -15.3040 N   0  0  0  0  0  0  0  0  0  0  0  0
  -23.7396    0.1797  -13.2814 C   0  0  0  0  0  0  0  0  0  0  0  0
  -23.8262    0.1723  -11.7946 C   0  0  0  0  0  0  0  0  0  0  0  0
  -24.7358   -0.4008  -11.0698 N   0  0  0  0  0  0  0  0  0  0  0  0
  -25.7189   -1.0693  -11.7514 C   0  0  0  0  0  0  0  0  0  0  0  0
  -25.7079   -0.9532  -15.6201 H   0  0  0  0  0  0  0  0  0  0  0  0
  -24.2563   -0.0550  -15.8794 H   0  0  0  0  0  0  0  0  0  0  0  0
  -22.6481    0.8662  -13.9886 C   0  0  0  0  0  0  0  0  0  0  0  0
  -22.6069    2.2664  -14.0204 C   0  0  0  0  0  0  0  0  0  0  0  0
  -21.4822    2.9256  -14.5224 C   0  0  0  0  0  0  0  0  0  0  0  0
  -20.3819    2.1948  -14.9707 C   0  0  0  0  0  0  0  0  0  0  0  0
  -20.4329    0.8052  -14.9515 C   0  0  0  0  0  0  0  0  0  0  0  0
  -19.3599    0.0515  -15.3197 O   0  0  0  0  0  0  0  0  0  0  0  0
  -21.5679    0.1352  -14.4972 C   0  0  0  0  0  0  0  0  0  0  0  0
  -18.5740    0.6245  -15.3484 H   0  0  0  0  0  0  0  0  0  0  0  0
  -28.0185   -2.4112   -7.2648 C   0  0  0  0  0  0  0  0  0  0  0  0
  -27.9311   -3.4751   -8.1762 C   0  0  0  0  0  0  0  0  0  0  0  0
  -27.5632   -3.2790   -9.5032 C   0  0  0  0  0  0  0  0  0  0  0  0
  -27.2422   -2.0028   -9.9608 C   0  0  0  0  0  0  0  0  0  0  0  0
  -27.3322   -0.9261   -9.0741 C   0  0  0  0  0  0  0  0  0  0  0  0
  -27.6955   -1.1365   -7.7414 C   0  0  0  0  0  0  0  0  0  0  0  0
  -30.9565   -3.1603   -2.6212 C   0  0  0  0  0  0  0  0  0  0  0  0
  -29.7697   -3.0380   -3.4571 N   0  0  0  0  0  0  0  0  0  0  0  0
  -29.7468   -4.0856   -4.5038 C   0  0  0  0  0  0  0  0  0  0  0  0
  -28.4828   -3.9929   -5.3941 C   0  0  0  0  0  0  0  0  0  0  0  0
  -28.3916   -2.6450   -5.9645 N   0  0  0  0  0  0  0  0  0  0  0  0
  -28.4659   -1.5425   -4.9952 C   0  0  0  0  0  0  0  0  0  0  0  0
  -29.7198   -1.7099   -4.1125 C   0  0  0  0  0  0  0  0  0  0  0  0
 27 28  1  0  0  0
 28 29  1  0  0  0
 28 33  1  0  0  0
 29 30  1  0  0  0
 30 31  1  0  0  0
 31 21  1  0  0  0
 31 32  1  0  0  0
 21 22  1  0  0  0
 21 26  2  0  0  0
 22 23  2  0  0  0
 23 24  1  0  0  0
 24  1  1  0  0  0
 24 25  2  0  0  0
  1  2  1  0  0  0
  1 10  2  0  0  0
  2  3  2  0  0  0
  3  4  1  0  0  0
  4  5  1  0  0  0
  4 10  1  0  0  0
  5  6  1  0  0  0
  5  7  2  0  0  0
  6 11  1  0  0  0
  6 12  1  0  0  0
  7 13  1  0  0  0
  7  8  1  0  0  0
 13 14  1  0  0  0
 13 19  2  0  0  0
 14 15  2  0  0  0
 15 16  1  0  0  0
 16 17  2  0  0  0
 17 18  1  0  0  0
 17 19  1  0  0  0
 18 20  1  0  0  0
  8  9  2  0  0  0
  9 10  1  0  0  0
 25 26  1  0  0  0
 32 33  1  0  0  0
M  END
> <minimizedAffinity>
-9.54155

$$$$
