CHEMBL148984


 33 36  0  0  0  0  0  0  0  0999 V2000
  -17.9888    2.3010  -15.5700 C   0  0  0  0  0  0  0  0  0  0  0  0
  -18.1678    0.8939  -15.5146 C   0  0  0  0  0  0  0  0  0  0  0  0
  -19.3710    0.3101  -15.1164 C   0  0  0  0  0  0  0  0  0  0  0  0
  -20.4046    1.1457  -14.7436 C   0  0  0  0  0  0  0  0  0  0  0  0
  -20.2425    2.5270  -14.7677 C   0  0  0  0  0  0  0  0  0  0  0  0
  -19.0685    3.1250  -15.1847 C   0  0  0  0  0  0  0  0  0  0  0  0
  -21.4037    3.1534  -14.3117 N   0  0  0  0  0  0  0  0  0  0  0  0
  -22.3829    2.2268  -13.9708 C   0  0  0  0  0  0  0  0  0  0  0  0
  -23.4821    2.4592  -13.5045 O   0  0  0  0  0  0  0  0  0  0  0  0
  -21.7771    0.8856  -14.2851 C   0  0  0  0  0  0  0  0  0  0  0  0
  -22.2713   -0.3587  -14.2661 C   0  0  0  0  0  0  0  0  0  0  0  0
  -21.5303    4.1491  -14.1994 H   0  0  0  0  0  0  0  0  0  0  0  0
  -23.5725   -0.8240  -13.9577 C   0  0  0  0  0  0  0  0  0  0  0  0
  -24.6217   -0.7484  -14.8347 N   0  0  0  0  0  0  0  0  0  0  0  0
  -25.7466   -1.2724  -14.2515 C   0  0  0  0  0  0  0  0  0  0  0  0
  -25.4326   -1.6865  -12.9713 C   0  0  0  0  0  0  0  0  0  0  0  0
  -24.0410   -1.4090  -12.7854 C   0  0  0  0  0  0  0  0  0  0  0  0
  -23.2112   -1.6822  -11.5732 C   0  0  0  0  0  0  0  0  0  0  0  0
  -24.5778   -0.3684  -15.7768 H   0  0  0  0  0  0  0  0  0  0  0  0
  -26.3791   -2.2888  -11.9789 C   0  0  0  0  0  0  0  0  0  0  0  0
  -26.8628   -1.2816  -10.9419 C   0  0  0  0  0  0  0  0  0  0  0  0
  -27.0566   -1.9457   -9.6024 C   0  0  0  0  0  0  0  0  0  0  0  0
  -27.1724   -1.3680   -8.5324 O   0  0  0  0  0  0  0  0  0  0  0  0
  -27.0842   -3.2955   -9.6984 O   0  0  0  0  0  0  0  0  0  0  0  0
  -26.9793   -3.6250  -10.6096 H   0  0  0  0  0  0  0  0  0  0  0  0
  -14.2279    3.9593  -16.9074 C   0  0  0  0  0  0  0  0  0  0  0  0
  -15.2934    4.7955  -16.5941 C   0  0  0  0  0  0  0  0  0  0  0  0
  -16.4998    4.2536  -16.1355 C   0  0  0  0  0  0  0  0  0  0  0  0
  -16.6873    2.8651  -15.9987 C   0  0  0  0  0  0  0  0  0  0  0  0
  -15.5961    2.0419  -16.3174 C   0  0  0  0  0  0  0  0  0  0  0  0
  -14.3825    2.5828  -16.7575 C   0  0  0  0  0  0  0  0  0  0  0  0
  -12.9547    5.5970  -18.0573 C   0  0  0  0  0  0  0  0  0  0  0  0
  -13.0024    4.3569  -17.3628 O   0  0  0  0  0  0  0  0  0  0  0  0
 32 33  1  0  0  0
 33 26  1  0  0  0
 26 27  1  0  0  0
 26 31  2  0  0  0
 27 28  2  0  0  0
 28 29  1  0  0  0
 29  1  1  0  0  0
 29 30  2  0  0  0
  1  2  1  0  0  0
  1  6  2  0  0  0
  2  3  2  0  0  0
  3  4  1  0  0  0
  4  5  2  0  0  0
  4 10  1  0  0  0
  5  6  1  0  0  0
  5  7  1  0  0  0
  7  8  1  0  0  0
  7 12  1  0  0  0
  8  9  2  0  0  0
  8 10  1  0  0  0
 10 11  2  0  0  0
 11 13  1  0  0  0
 13 14  1  0  0  0
 13 17  2  0  0  0
 14 15  1  0  0  0
 14 19  1  0  0  0
 15 16  2  0  0  0
 16 20  1  0  0  0
 16 17  1  0  0  0
 20 21  1  0  0  0
 21 22  1  0  0  0
 22 23  2  0  0  0
 22 24  1  0  0  0
 24 25  1  0  0  0
 17 18  1  0  0  0
 30 31  1  0  0  0
M  END
> <minimizedAffinity>
-10.54673

$$$$
