CHEMBL191626


 26 29  0  0  0  0  0  0  0  0999 V2000
  -15.6961    0.4836  -13.3624 C   0  0  0  0  0  0  0  0  0  0  0  0
  -14.5750    1.0575  -13.9536 C   0  0  0  0  0  0  0  0  0  0  0  0
  -14.7327    1.8441  -15.0865 C   0  0  0  0  0  0  0  0  0  0  0  0
  -16.0059    2.0338  -15.6304 C   0  0  0  0  0  0  0  0  0  0  0  0
  -17.1394    1.3987  -15.0999 C   0  0  0  0  0  0  0  0  0  0  0  0
  -16.9595    0.6101  -13.9589 C   0  0  0  0  0  0  0  0  0  0  0  0
  -18.4336    1.5239  -15.6435 N   0  0  0  0  0  0  0  0  0  0  0  0
  -18.4697    1.7298  -16.6326 H   0  0  0  0  0  0  0  0  0  0  0  0
  -19.5609    1.7401  -14.9449 C   0  0  0  0  0  0  0  0  0  0  0  0
  -20.0906    2.8657  -14.5189 N   0  0  0  0  0  0  0  0  0  0  0  0
  -21.2665    2.4931  -13.9498 C   0  0  0  0  0  0  0  0  0  0  0  0
  -21.4208    1.1286  -14.0219 C   0  0  0  0  0  0  0  0  0  0  0  0
  -20.3084    0.6280  -14.6517 O   0  0  0  0  0  0  0  0  0  0  0  0
  -22.4567    0.2077  -13.5925 C   0  0  0  0  0  0  0  0  0  0  0  0
  -22.4302   -0.2942  -12.2776 C   0  0  0  0  0  0  0  0  0  0  0  0
  -23.3903   -1.1996  -11.8320 C   0  0  0  0  0  0  0  0  0  0  0  0
  -24.4008   -1.6150  -12.6920 C   0  0  0  0  0  0  0  0  0  0  0  0
  -24.4548   -1.1162  -13.9946 C   0  0  0  0  0  0  0  0  0  0  0  0
  -23.4904   -0.2077  -14.4413 C   0  0  0  0  0  0  0  0  0  0  0  0
  -15.4938   -0.2135  -12.1912 O   0  0  0  0  0  0  0  0  0  0  0  0
  -16.2581   -4.3003  -12.4298 C   0  0  0  0  0  0  0  0  0  0  0  0
  -16.0448   -3.5378  -13.5797 C   0  0  0  0  0  0  0  0  0  0  0  0
  -15.7738   -2.1733  -13.4729 C   0  0  0  0  0  0  0  0  0  0  0  0
  -15.7165   -1.5743  -12.2153 C   0  0  0  0  0  0  0  0  0  0  0  0
  -15.8635   -2.3542  -11.0607 C   0  0  0  0  0  0  0  0  0  0  0  0
  -16.1633   -3.7112  -11.1703 C   0  0  0  0  0  0  0  0  0  0  0  0
 21 22  1  0  0  0
 21 26  2  0  0  0
 22 23  2  0  0  0
 23 24  1  0  0  0
 24 20  1  0  0  0
 24 25  2  0  0  0
 20  1  1  0  0  0
  1  2  1  0  0  0
  1  6  2  0  0  0
  2  3  2  0  0  0
  3  4  1  0  0  0
  4  5  2  0  0  0
  5  7  1  0  0  0
  5  6  1  0  0  0
  7  9  1  0  0  0
  7  8  1  0  0  0
  9 10  2  0  0  0
  9 13  1  0  0  0
 10 11  1  0  0  0
 11 12  2  0  0  0
 12 14  1  0  0  0
 12 13  1  0  0  0
 14 15  1  0  0  0
 14 19  2  0  0  0
 15 16  2  0  0  0
 16 17  1  0  0  0
 17 18  2  0  0  0
 18 19  1  0  0  0
 25 26  1  0  0  0
M  END
> <minimizedAffinity>
-9.80754

$$$$
