CHEMBL2349011


 37 41  0  0  0  0  0  0  0  0999 V2000
  -15.0456    0.5548  -13.7504 C   0  0  0  0  0  0  0  0  0  0  0  0
  -14.3064    0.4428  -15.0315 C   0  0  0  0  0  0  0  0  0  0  0  0
  -13.7255   -0.7399  -15.2796 C   0  0  0  0  0  0  0  0  0  0  0  0
  -13.8058   -1.7634  -14.3122 C   0  0  0  0  0  0  0  0  0  0  0  0
  -13.3419   -2.9913  -14.3113 N   0  0  0  0  0  0  0  0  0  0  0  0
  -13.7000   -3.5213  -13.1075 C   0  0  0  0  0  0  0  0  0  0  0  0
  -14.3968   -2.6039  -12.3529 C   0  0  0  0  0  0  0  0  0  0  0  0
  -14.4761   -1.4807  -13.1338 N   0  0  0  0  0  0  0  0  0  0  0  0
  -15.1267   -0.3293  -12.8103 N   0  0  0  0  0  0  0  0  0  0  0  0
  -13.3970   -4.8030  -12.7092 N   0  0  0  0  0  0  0  0  0  0  0  0
  -13.9644   -5.4265  -11.6134 C   0  0  0  0  0  0  0  0  0  0  0  0
  -14.7930   -4.9466  -10.8397 O   0  0  0  0  0  0  0  0  0  0  0  0
  -12.7186   -5.2952  -13.2711 H   0  0  0  0  0  0  0  0  0  0  0  0
  -13.4836   -6.8562  -11.3812 C   0  0  0  0  0  0  0  0  0  0  0  0
  -11.9554   -6.9461  -11.3351 C   0  0  0  0  0  0  0  0  0  0  0  0
  -11.5047   -8.3971  -11.2472 C   0  0  0  0  0  0  0  0  0  0  0  0
  -12.0628   -9.1538  -12.3207 O   0  0  0  0  0  0  0  0  0  0  0  0
  -13.4864   -9.2155  -12.2474 C   0  0  0  0  0  0  0  0  0  0  0  0
  -14.0804   -7.8243  -12.4054 C   0  0  0  0  0  0  0  0  0  0  0  0
  -15.6855    1.7915  -13.7193 O   0  0  0  0  0  0  0  0  0  0  0  0
  -19.2487    1.4218  -14.6475 C   0  0  0  0  0  0  0  0  0  0  0  0
  -19.3247    2.3226  -15.7162 C   0  0  0  0  0  0  0  0  0  0  0  0
  -18.1980    3.0231  -16.1456 C   0  0  0  0  0  0  0  0  0  0  0  0
  -16.9793    2.8392  -15.5060 C   0  0  0  0  0  0  0  0  0  0  0  0
  -16.8952    1.9516  -14.4316 C   0  0  0  0  0  0  0  0  0  0  0  0
  -18.0279    1.2697  -13.9730 C   0  0  0  0  0  0  0  0  0  0  0  0
  -21.9389    2.3280  -13.8646 O   0  0  0  0  0  0  0  0  0  0  0  0
  -21.5995    1.1505  -13.8752 C   0  0  0  0  0  0  0  0  0  0  0  0
  -20.3566    0.6445  -14.2343 N   0  0  0  0  0  0  0  0  0  0  0  0
  -20.2846   -0.3533  -14.3866 H   0  0  0  0  0  0  0  0  0  0  0  0
  -22.6401    0.1413  -13.5532 C   0  0  0  0  0  0  0  0  0  0  0  0
  -22.6009   -0.4714  -12.2898 C   0  0  0  0  0  0  0  0  0  0  0  0
  -23.5603   -1.4218  -11.9368 C   0  0  0  0  0  0  0  0  0  0  0  0
  -24.5515   -1.7692  -12.8510 C   0  0  0  0  0  0  0  0  0  0  0  0
  -24.5664   -1.1764  -14.1102 C   0  0  0  0  0  0  0  0  0  0  0  0
  -25.5116   -1.5286  -14.9905 F   0  0  0  0  0  0  0  0  0  0  0  0
  -23.6195   -0.2264  -14.4770 C   0  0  0  0  0  0  0  0  0  0  0  0
 27 28  2  0  0  0
 28 29  1  0  0  0
 28 31  1  0  0  0
 29 21  1  0  0  0
 29 30  1  0  0  0
 21 22  1  0  0  0
 21 26  2  0  0  0
 22 23  2  0  0  0
 23 24  1  0  0  0
 24 25  2  0  0  0
 25 20  1  0  0  0
 25 26  1  0  0  0
 20  1  1  0  0  0
  1  2  1  0  0  0
  1  9  2  0  0  0
  2  3  2  0  0  0
  3  4  1  0  0  0
  4  5  2  0  0  0
  4  8  1  0  0  0
  5  6  1  0  0  0
  6 10  1  0  0  0
  6  7  2  0  0  0
 10 11  1  0  0  0
 10 13  1  0  0  0
 11 12  2  0  0  0
 11 14  1  0  0  0
 14 15  1  0  0  0
 14 19  1  0  0  0
 15 16  1  0  0  0
 16 17  1  0  0  0
 17 18  1  0  0  0
 18 19  1  0  0  0
  7  8  1  0  0  0
  8  9  1  0  0  0
 31 32  1  0  0  0
 31 37  2  0  0  0
 32 33  2  0  0  0
 33 34  1  0  0  0
 34 35  2  0  0  0
 35 36  1  0  0  0
 35 37  1  0  0  0
M  END
> <minimizedAffinity>
-9.48487

$$$$
