CHEMBL387591


 38 43  0  0  0  0  0  0  0  0999 V2000
  -27.3431   -2.1787   -8.8138 C   0  0  0  0  0  0  0  0  0  0  0  0
  -27.7629   -3.4231   -8.9198 N   0  0  0  0  0  0  0  0  0  0  0  0
  -28.5169   -3.6203   -7.7996 C   0  0  0  0  0  0  0  0  0  0  0  0
  -29.1532   -4.7718   -7.3264 C   0  0  0  0  0  0  0  0  0  0  0  0
  -29.8995   -4.6740   -6.1389 C   0  0  0  0  0  0  0  0  0  0  0  0
  -29.9408   -3.4786   -5.4081 C   0  0  0  0  0  0  0  0  0  0  0  0
  -29.2907   -2.3275   -5.8752 C   0  0  0  0  0  0  0  0  0  0  0  0
  -29.3564   -0.8538   -5.0049 Cl  0  0  0  0  0  0  0  0  0  0  0  0
  -28.5939   -2.4480   -7.0713 C   0  0  0  0  0  0  0  0  0  0  0  0
  -27.8486   -1.5089   -7.7294 O   0  0  0  0  0  0  0  0  0  0  0  0
  -26.4677   -1.4734   -9.5520 N   0  0  0  0  0  0  0  0  0  0  0  0
  -25.6359   -1.1667   -9.0646 H   0  0  0  0  0  0  0  0  0  0  0  0
  -25.1644   -0.9336  -13.0491 C   0  0  0  0  0  0  0  0  0  0  0  0
  -25.2340   -0.9977  -11.6414 C   0  0  0  0  0  0  0  0  0  0  0  0
  -26.3836   -1.4059  -10.9545 C   0  0  0  0  0  0  0  0  0  0  0  0
  -27.4762   -1.8227  -11.7232 C   0  0  0  0  0  0  0  0  0  0  0  0
  -27.4192   -1.8152  -13.1215 C   0  0  0  0  0  0  0  0  0  0  0  0
  -26.2705   -1.3714  -13.7838 C   0  0  0  0  0  0  0  0  0  0  0  0
  -26.2690   -1.4329  -15.5088 Cl  0  0  0  0  0  0  0  0  0  0  0  0
  -23.9016   -0.3671  -13.6689 C   0  0  0  0  0  0  0  0  0  0  0  0
  -20.8711    2.9753  -15.4927 C   0  0  0  0  0  0  0  0  0  0  0  0
  -21.3763    2.3703  -14.2643 N   0  0  0  0  0  0  0  0  0  0  0  0
  -22.8334    2.5424  -14.1377 C   0  0  0  0  0  0  0  0  0  0  0  0
  -23.3848    1.8650  -12.8573 C   0  0  0  0  0  0  0  0  0  0  0  0
  -23.0744    0.4210  -12.7362 N   0  0  0  0  0  0  0  0  0  0  0  0
  -21.6137    0.2616  -12.9256 C   0  0  0  0  0  0  0  0  0  0  0  0
  -21.0253    0.9406  -14.1877 C   0  0  0  0  0  0  0  0  0  0  0  0
  -30.6053   -5.7517   -5.6321 O   0  0  0  0  0  0  0  0  0  0  0  0
  -29.9430   -6.9653   -5.5021 C   0  0  0  0  0  0  0  0  0  0  0  0
  -28.8205   -7.1057   -4.6846 C   0  0  0  0  0  0  0  0  0  0  0  0
  -28.2656   -8.3535   -4.5421 C   0  0  0  0  0  0  0  0  0  0  0  0
  -28.6804   -9.4339   -5.2342 N   0  0  0  0  0  0  0  0  0  0  0  0
  -29.6928   -9.2830   -6.1009 C   0  0  0  0  0  0  0  0  0  0  0  0
  -30.0381  -10.3829   -6.8683 C   0  0  0  0  0  0  0  0  0  0  0  0
  -31.0612  -10.3237   -7.8131 C   0  0  0  0  0  0  0  0  0  0  0  0
  -31.7897   -9.1524   -7.9632 C   0  0  0  0  0  0  0  0  0  0  0  0
  -31.4663   -8.0331   -7.1916 C   0  0  0  0  0  0  0  0  0  0  0  0
  -30.3940   -8.0684   -6.2666 C   0  0  0  0  0  0  0  0  0  0  0  0
 21 22  1  0  0  0
 22 23  1  0  0  0
 22 27  1  0  0  0
 23 24  1  0  0  0
 24 25  1  0  0  0
 25 20  1  0  0  0
 25 26  1  0  0  0
 20 13  1  0  0  0
 13 14  1  0  0  0
 13 18  2  0  0  0
 14 15  2  0  0  0
 15 11  1  0  0  0
 15 16  1  0  0  0
 11  1  1  0  0  0
 11 12  1  0  0  0
  1  2  2  0  0  0
  1 10  1  0  0  0
  2  3  1  0  0  0
  3  4  1  0  0  0
  3  9  2  0  0  0
  4  5  2  0  0  0
  5 28  1  0  0  0
  5  6  1  0  0  0
 28 29  1  0  0  0
 29 30  1  0  0  0
 29 38  2  0  0  0
 30 31  2  0  0  0
 31 32  1  0  0  0
 32 33  2  0  0  0
 33 34  1  0  0  0
 33 38  1  0  0  0
 34 35  2  0  0  0
 35 36  1  0  0  0
 36 37  2  0  0  0
 37 38  1  0  0  0
  6  7  2  0  0  0
  7  8  1  0  0  0
  7  9  1  0  0  0
  9 10  1  0  0  0
 16 17  2  0  0  0
 17 18  1  0  0  0
 18 19  1  0  0  0
 26 27  1  0  0  0
M  END
> <minimizedAffinity>
-8.89210

$$$$
