CHEMBL3957826


 34 36  0  0  0  0  0  0  0  0999 V2000
  -21.8839   11.4185  -18.7877 C   0  0  0  0  0  0  0  0  0  0  0  0
  -23.1725   11.8759  -18.4943 C   0  0  0  0  0  0  0  0  0  0  0  0
  -23.6554   11.8186  -17.1737 C   0  0  0  0  0  0  0  0  0  0  0  0
  -22.8547   11.2889  -16.1496 C   0  0  0  0  0  0  0  0  0  0  0  0
  -21.6103   10.7503  -16.4817 C   0  0  0  0  0  0  0  0  0  0  0  0
  -21.1406   10.7924  -17.7876 C   0  0  0  0  0  0  0  0  0  0  0  0
  -23.2745   11.2262  -14.7161 C   0  0  0  0  0  0  0  0  0  0  0  0
  -22.4503   11.3584  -13.8203 O   0  0  0  0  0  0  0  0  0  0  0  0
  -24.7250   11.0509  -14.4298 C   0  0  0  0  0  0  0  0  0  0  0  0
  -25.5463   12.1142  -14.3739 C   0  0  0  0  0  0  0  0  0  0  0  0
  -26.9789   12.0189  -14.0391 C   0  0  0  0  0  0  0  0  0  0  0  0
  -27.8809   11.5269  -14.9912 C   0  0  0  0  0  0  0  0  0  0  0  0
  -29.2589   11.4150  -14.7160 C   0  0  0  0  0  0  0  0  0  0  0  0
  -29.7543   11.7984  -13.4481 C   0  0  0  0  0  0  0  0  0  0  0  0
  -28.8365   12.2433  -12.4728 C   0  0  0  0  0  0  0  0  0  0  0  0
  -27.4748   12.3686  -12.7830 C   0  0  0  0  0  0  0  0  0  0  0  0
  -30.1546   10.9322  -15.6350 O   0  0  0  0  0  0  0  0  0  0  0  0
  -29.6699   10.3024  -16.8140 C   0  0  0  0  0  0  0  0  0  0  0  0
  -31.0697   11.8109  -13.0607 O   0  0  0  0  0  0  0  0  0  0  0  0
  -31.9697   10.8067  -13.4984 C   0  0  0  0  0  0  0  0  0  0  0  0
  -29.1151   12.6369  -11.1847 O   0  0  0  0  0  0  0  0  0  0  0  0
  -28.1062   12.4122  -10.2059 C   0  0  0  0  0  0  0  0  0  0  0  0
  -21.4097   11.5749  -20.0749 O   0  0  0  0  0  0  0  0  0  0  0  0
  -18.0077   10.5152  -21.0381 C   0  0  0  0  0  0  0  0  0  0  0  0
  -19.3850   10.4439  -20.8787 C   0  0  0  0  0  0  0  0  0  0  0  0
  -20.0428   11.5251  -20.2923 C   0  0  0  0  0  0  0  0  0  0  0  0
  -19.2963   12.6140  -19.8525 C   0  0  0  0  0  0  0  0  0  0  0  0
  -17.9226   12.5936  -20.0497 C   0  0  0  0  0  0  0  0  0  0  0  0
  -17.2532   11.5743  -20.6343 N   0  0  0  0  0  0  0  0  0  0  0  0
  -15.1053    8.3223  -22.0976 C   0  0  0  0  0  0  0  0  0  0  0  0
  -15.9196    9.3587  -21.5246 N   0  0  0  0  0  0  0  0  0  0  0  0
  -17.2886    9.3742  -21.6908 C   0  0  0  0  0  0  0  0  0  0  0  0
  -17.9012    8.5154  -22.3229 O   0  0  0  0  0  0  0  0  0  0  0  0
  -15.5190   10.0661  -20.9143 H   0  0  0  0  0  0  0  0  0  0  0  0
 30 31  1  0  0  0
 31 32  1  0  0  0
 31 34  1  0  0  0
 32 33  2  0  0  0
 32 24  1  0  0  0
 24 25  1  0  0  0
 24 29  2  0  0  0
 25 26  2  0  0  0
 26 23  1  0  0  0
 26 27  1  0  0  0
 23  1  1  0  0  0
  1  2  1  0  0  0
  1  6  2  0  0  0
  2  3  2  0  0  0
  3  4  1  0  0  0
  4  7  1  0  0  0
  4  5  2  0  0  0
  7  8  2  0  0  0
  7  9  1  0  0  0
  9 10  2  0  0  0
 10 11  1  0  0  0
 11 12  1  0  0  0
 11 16  2  0  0  0
 12 13  2  0  0  0
 13 17  1  0  0  0
 13 14  1  0  0  0
 17 18  1  0  0  0
 14 19  1  0  0  0
 14 15  2  0  0  0
 19 20  1  0  0  0
 15 21  1  0  0  0
 15 16  1  0  0  0
 21 22  1  0  0  0
  5  6  1  0  0  0
 27 28  2  0  0  0
 28 29  1  0  0  0
M  END
> <minimizedAffinity>
-3.28080

$$$$
