CHEMBL3977612


 37 40  0  0  0  0  0  0  0  0999 V2000
  -15.2820   -3.0271  -11.8362 C   0  0  0  0  0  0  0  0  0  0  0  0
  -16.3264   -3.9550  -11.8555 C   0  0  0  0  0  0  0  0  0  0  0  0
  -16.1047   -5.2993  -11.5581 C   0  0  0  0  0  0  0  0  0  0  0  0
  -14.8117   -5.7643  -11.3325 C   0  0  0  0  0  0  0  0  0  0  0  0
  -13.7550   -4.8515  -11.3172 C   0  0  0  0  0  0  0  0  0  0  0  0
  -13.9880   -3.4907  -11.5732 C   0  0  0  0  0  0  0  0  0  0  0  0
  -15.9939   -1.6776  -14.2855 O   0  0  0  0  0  0  0  0  0  0  0  0
  -15.8375   -1.0543  -13.2472 C   0  0  0  0  0  0  0  0  0  0  0  0
  -15.4801   -1.6369  -12.0375 N   0  0  0  0  0  0  0  0  0  0  0  0
  -16.0335    0.3142  -13.1316 N   0  0  0  0  0  0  0  0  0  0  0  0
  -15.5439   -1.0667  -11.2084 H   0  0  0  0  0  0  0  0  0  0  0  0
  -15.7686    0.7505  -12.2625 H   0  0  0  0  0  0  0  0  0  0  0  0
  -16.5090    1.1696  -14.1581 C   0  0  0  0  0  0  0  0  0  0  0  0
  -15.6789    1.9017  -15.0086 C   0  0  0  0  0  0  0  0  0  0  0  0
  -16.2117    2.7479  -15.9816 C   0  0  0  0  0  0  0  0  0  0  0  0
  -17.5893    2.8516  -16.1414 C   0  0  0  0  0  0  0  0  0  0  0  0
  -18.4356    2.0706  -15.3592 C   0  0  0  0  0  0  0  0  0  0  0  0
  -17.8942    1.2669  -14.3421 C   0  0  0  0  0  0  0  0  0  0  0  0
  -19.7933    2.0281  -15.4610 O   0  0  0  0  0  0  0  0  0  0  0  0
  -20.5817    2.8549  -14.6119 C   0  0  0  0  0  0  0  0  0  0  0  0
  -19.8749    3.7417  -13.8806 F   0  0  0  0  0  0  0  0  0  0  0  0
  -21.4409    3.5585  -15.3841 F   0  0  0  0  0  0  0  0  0  0  0  0
  -21.3057    2.0784  -13.7780 F   0  0  0  0  0  0  0  0  0  0  0  0
  -14.5119   -7.0879  -11.0809 O   0  0  0  0  0  0  0  0  0  0  0  0
  -13.8910   -7.8339  -12.0656 C   0  0  0  0  0  0  0  0  0  0  0  0
  -12.9536   -8.8275  -11.7988 C   0  0  0  0  0  0  0  0  0  0  0  0
  -12.3602   -9.4547  -12.8693 C   0  0  0  0  0  0  0  0  0  0  0  0
  -12.6905   -9.2030  -14.1470 N   0  0  0  0  0  0  0  0  0  0  0  0
  -13.6514   -8.3006  -14.4062 C   0  0  0  0  0  0  0  0  0  0  0  0
  -14.2757   -7.5870  -13.3873 C   0  0  0  0  0  0  0  0  0  0  0  0
  -14.0399   -8.0739  -15.7367 N   0  0  0  0  0  0  0  0  0  0  0  0
  -13.1756   -7.6366  -16.7218 C   0  0  0  0  0  0  0  0  0  0  0  0
  -11.9880   -7.3741  -16.6169 O   0  0  0  0  0  0  0  0  0  0  0  0
  -15.0002   -8.2608  -15.9815 H   0  0  0  0  0  0  0  0  0  0  0  0
  -13.8186   -7.5005  -18.0701 C   0  0  0  0  0  0  0  0  0  0  0  0
  -12.9929   -6.9832  -19.2281 C   0  0  0  0  0  0  0  0  0  0  0  0
  -14.0698   -6.1186  -18.6418 C   0  0  0  0  0  0  0  0  0  0  0  0
  7  8  2  0  0  0
  8  9  1  0  0  0
  8 10  1  0  0  0
  9  1  1  0  0  0
  9 11  1  0  0  0
  1  2  1  0  0  0
  1  6  2  0  0  0
  2  3  2  0  0  0
  3  4  1  0  0  0
  4 24  1  0  0  0
  4  5  2  0  0  0
 24 25  1  0  0  0
 25 26  1  0  0  0
 25 30  2  0  0  0
 26 27  2  0  0  0
 27 28  1  0  0  0
 28 29  2  0  0  0
 29 31  1  0  0  0
 29 30  1  0  0  0
 31 32  1  0  0  0
 31 34  1  0  0  0
 32 33  2  0  0  0
 32 35  1  0  0  0
 35 36  1  0  0  0
 35 37  1  0  0  0
 36 37  1  0  0  0
  5  6  1  0  0  0
 10 13  1  0  0  0
 10 12  1  0  0  0
 13 14  1  0  0  0
 13 18  2  0  0  0
 14 15  2  0  0  0
 15 16  1  0  0  0
 16 17  2  0  0  0
 17 19  1  0  0  0
 17 18  1  0  0  0
 19 20  1  0  0  0
 20 21  1  0  0  0
 20 22  1  0  0  0
 20 23  1  0  0  0
M  END
> <minimizedAffinity>
-8.83961

$$$$
