CHEMBL3958800


 42 46  0  0  0  0  0  0  0  0999 V2000
  -12.2436   -3.0219  -12.1198 C   0  0  0  0  0  0  0  0  0  0  0  0
  -13.5980   -3.6671  -11.9916 C   0  0  0  0  0  0  0  0  0  0  0  0
  -13.6131   -5.0700  -11.8379 C   0  0  0  0  0  0  0  0  0  0  0  0
  -14.7969   -5.7766  -11.6100 C   0  0  0  0  0  0  0  0  0  0  0  0
  -15.9908   -5.0788  -11.5756 C   0  0  0  0  0  0  0  0  0  0  0  0
  -15.9951   -3.6898  -11.7602 C   0  0  0  0  0  0  0  0  0  0  0  0
  -14.8168   -2.9619  -11.9917 C   0  0  0  0  0  0  0  0  0  0  0  0
  -14.8451   -1.5568  -12.2548 N   0  0  0  0  0  0  0  0  0  0  0  0
  -15.6210   -0.9295  -13.2251 C   0  0  0  0  0  0  0  0  0  0  0  0
  -16.4471   -1.4826  -13.9427 O   0  0  0  0  0  0  0  0  0  0  0  0
  -15.3033    0.4202  -13.3727 N   0  0  0  0  0  0  0  0  0  0  0  0
  -14.2233   -0.9770  -11.7137 H   0  0  0  0  0  0  0  0  0  0  0  0
  -14.3367    0.6455  -13.1915 H   0  0  0  0  0  0  0  0  0  0  0  0
  -15.9417    1.2069  -14.3741 C   0  0  0  0  0  0  0  0  0  0  0  0
  -17.3426    1.2114  -14.4408 C   0  0  0  0  0  0  0  0  0  0  0  0
  -18.0572    2.0335  -15.3378 C   0  0  0  0  0  0  0  0  0  0  0  0
  -17.2889    2.7757  -16.2464 C   0  0  0  0  0  0  0  0  0  0  0  0
  -15.8800    2.7696  -16.2268 C   0  0  0  0  0  0  0  0  0  0  0  0
  -15.2153    1.9919  -15.2721 C   0  0  0  0  0  0  0  0  0  0  0  0
  -19.4415    2.0909  -15.3021 N   0  0  0  0  0  0  0  0  0  0  0  0
  -20.2370    3.3215  -15.2662 C   0  0  0  0  0  0  0  0  0  0  0  0
  -21.2932    3.0516  -14.2013 C   0  0  0  0  0  0  0  0  0  0  0  0
  -21.5619    1.5667  -14.3499 C   0  0  0  0  0  0  0  0  0  0  0  0
  -20.1965    0.9810  -14.7022 C   0  0  0  0  0  0  0  0  0  0  0  0
  -15.0994    3.6029  -17.2159 C   0  0  0  0  0  0  0  0  0  0  0  0
  -14.1858    2.8837  -17.9322 F   0  0  0  0  0  0  0  0  0  0  0  0
  -15.8906    4.2123  -18.1400 F   0  0  0  0  0  0  0  0  0  0  0  0
  -14.3883    4.5962  -16.6137 F   0  0  0  0  0  0  0  0  0  0  0  0
  -14.8538   -7.1485  -11.4812 O   0  0  0  0  0  0  0  0  0  0  0  0
  -14.0062   -7.9144  -12.2767 C   0  0  0  0  0  0  0  0  0  0  0  0
  -14.2911   -7.9753  -13.6241 C   0  0  0  0  0  0  0  0  0  0  0  0
  -13.4447   -8.7579  -14.3818 C   0  0  0  0  0  0  0  0  0  0  0  0
  -12.3955   -9.3894  -13.8401 N   0  0  0  0  0  0  0  0  0  0  0  0
  -12.2176   -9.2779  -12.5252 C   0  0  0  0  0  0  0  0  0  0  0  0
  -12.9930   -8.5819  -11.6982 N   0  0  0  0  0  0  0  0  0  0  0  0
  -13.6890   -8.8915  -15.7636 N   0  0  0  0  0  0  0  0  0  0  0  0
  -13.5130   -7.8687  -16.6703 C   0  0  0  0  0  0  0  0  0  0  0  0
  -13.1430   -6.7262  -16.4495 O   0  0  0  0  0  0  0  0  0  0  0  0
  -13.9839   -9.7913  -16.1027 H   0  0  0  0  0  0  0  0  0  0  0  0
  -13.8578   -8.2494  -18.0765 C   0  0  0  0  0  0  0  0  0  0  0  0
  -12.7683   -8.3569  -19.1250 C   0  0  0  0  0  0  0  0  0  0  0  0
  -13.7288   -7.2065  -19.1657 C   0  0  0  0  0  0  0  0  0  0  0  0
  1  2  1  0  0  0
  2  3  1  0  0  0
  2  7  2  0  0  0
  3  4  2  0  0  0
  4 29  1  0  0  0
  4  5  1  0  0  0
 29 30  1  0  0  0
 30 31  1  0  0  0
 30 35  2  0  0  0
 31 32  2  0  0  0
 32 36  1  0  0  0
 32 33  1  0  0  0
 36 37  1  0  0  0
 36 39  1  0  0  0
 37 38  2  0  0  0
 37 40  1  0  0  0
 40 41  1  0  0  0
 40 42  1  0  0  0
 41 42  1  0  0  0
 33 34  2  0  0  0
 34 35  1  0  0  0
  5  6  2  0  0  0
  6  7  1  0  0  0
  7  8  1  0  0  0
  8  9  1  0  0  0
  8 12  1  0  0  0
  9 10  2  0  0  0
  9 11  1  0  0  0
 11 14  1  0  0  0
 11 13  1  0  0  0
 14 15  1  0  0  0
 14 19  2  0  0  0
 15 16  2  0  0  0
 16 20  1  0  0  0
 16 17  1  0  0  0
 20 21  1  0  0  0
 20 24  1  0  0  0
 21 22  1  0  0  0
 22 23  1  0  0  0
 23 24  1  0  0  0
 17 18  2  0  0  0
 18 25  1  0  0  0
 18 19  1  0  0  0
 25 26  1  0  0  0
 25 27  1  0  0  0
 25 28  1  0  0  0
M  END
> <minimizedAffinity>
-9.40826

$$$$
