CHEMBL485246


 25 28  0  0  0  0  0  0  0  0999 V2000
  -31.0532   -4.1134   -4.2693 C   0  0  0  0  0  0  0  0  0  0  0  0
  -30.1850   -4.1477   -7.3972 N   0  0  0  0  0  0  0  0  0  0  0  0
  -29.7113   -5.3608   -6.9339 C   0  0  0  0  0  0  0  0  0  0  0  0
  -29.0736   -6.1419   -7.8221 N   0  0  0  0  0  0  0  0  0  0  0  0
  -28.6138   -7.3436   -7.4193 C   0  0  0  0  0  0  0  0  0  0  0  0
  -28.6994   -7.8874   -6.2034 N   0  0  0  0  0  0  0  0  0  0  0  0
  -29.3394   -7.0956   -5.3267 C   0  0  0  0  0  0  0  0  0  0  0  0
  -29.5774   -7.4159   -4.0207 N   0  0  0  0  0  0  0  0  0  0  0  0
  -30.2396   -6.3916   -3.5338 C   0  0  0  0  0  0  0  0  0  0  0  0
  -30.4064   -5.4009   -4.4650 N   0  0  0  0  0  0  0  0  0  0  0  0
  -29.8450   -5.8423   -5.6417 C   0  0  0  0  0  0  0  0  0  0  0  0
  -29.7883   -3.9464   -8.3110 H   0  0  0  0  0  0  0  0  0  0  0  0
  -30.2135   -3.3709   -6.7604 H   0  0  0  0  0  0  0  0  0  0  0  0
  -30.1899   -3.0502   -3.6204 C   0  0  0  0  0  0  0  0  0  0  0  0
  -30.3423   -2.7887   -2.4263 O   0  0  0  0  0  0  0  0  0  0  0  0
  -29.1690   -2.3702   -4.4280 C   0  0  0  0  0  0  0  0  0  0  0  0
  -27.8917   -2.8401   -4.6886 C   0  0  0  0  0  0  0  0  0  0  0  0
  -27.2351   -1.9172   -5.4587 N   0  0  0  0  0  0  0  0  0  0  0  0
  -28.0507   -0.8427   -5.7122 C   0  0  0  0  0  0  0  0  0  0  0  0
  -27.7920    0.3228   -6.4405 C   0  0  0  0  0  0  0  0  0  0  0  0
  -28.8124    1.2700   -6.5371 C   0  0  0  0  0  0  0  0  0  0  0  0
  -30.0469    1.0528   -5.9331 C   0  0  0  0  0  0  0  0  0  0  0  0
  -30.2912   -0.1221   -5.2090 C   0  0  0  0  0  0  0  0  0  0  0  0
  -29.2741   -1.0954   -5.0866 C   0  0  0  0  0  0  0  0  0  0  0  0
  -26.2827   -1.9986   -5.7878 H   0  0  0  0  0  0  0  0  0  0  0  0
  2  3  1  0  0  0
  2 12  1  0  0  0
  2 13  1  0  0  0
  3  4  1  0  0  0
  3 11  2  0  0  0
  4  5  2  0  0  0
  5  6  1  0  0  0
  6  7  2  0  0  0
  7  8  1  0  0  0
  7 11  1  0  0  0
  8  9  2  0  0  0
  9 10  1  0  0  0
 10  1  1  0  0  0
 10 11  1  0  0  0
  1 14  1  0  0  0
 14 15  2  0  0  0
 14 16  1  0  0  0
 16 17  2  0  0  0
 16 24  1  0  0  0
 17 18  1  0  0  0
 18 19  1  0  0  0
 18 25  1  0  0  0
 19 20  1  0  0  0
 19 24  2  0  0  0
 20 21  2  0  0  0
 21 22  1  0  0  0
 22 23  2  0  0  0
 23 24  1  0  0  0
M  END
> <minimizedAffinity>
-8.05029

$$$$
