CHEMBL211464


 40 45  0  0  0  0  0  0  0  0999 V2000
  -29.1482   -9.2548   -4.7761 C   0  0  0  0  0  0  0  0  0  0  0  0
  -29.7763   -9.3643   -6.0487 C   0  0  0  0  0  0  0  0  0  0  0  0
  -29.7541   -8.3287   -6.9787 C   0  0  0  0  0  0  0  0  0  0  0  0
  -29.1858   -7.1397   -6.5815 C   0  0  0  0  0  0  0  0  0  0  0  0
  -28.6484   -6.9977   -5.2738 C   0  0  0  0  0  0  0  0  0  0  0  0
  -28.5760   -8.0394   -4.3808 C   0  0  0  0  0  0  0  0  0  0  0  0
  -28.3064   -5.6243   -5.1555 C   0  0  0  0  0  0  0  0  0  0  0  0
  -27.8228   -4.8085   -4.2285 N   0  0  0  0  0  0  0  0  0  0  0  0
  -27.7833   -3.6270   -4.8980 N   0  0  0  0  0  0  0  0  0  0  0  0
  -28.2141   -3.6968   -6.2078 C   0  0  0  0  0  0  0  0  0  0  0  0
  -28.5985   -4.9921   -6.3718 C   0  0  0  0  0  0  0  0  0  0  0  0
  -29.1109   -5.8786   -7.4307 C   0  0  0  0  0  0  0  0  0  0  0  0
  -27.3891   -2.8130   -4.4396 H   0  0  0  0  0  0  0  0  0  0  0  0
  -28.1817   -2.6223   -7.1322 C   0  0  0  0  0  0  0  0  0  0  0  0
  -27.6585   -1.3566   -6.9543 C   0  0  0  0  0  0  0  0  0  0  0  0
  -27.6824   -0.6120   -8.1695 C   0  0  0  0  0  0  0  0  0  0  0  0
  -28.1483   -1.3765   -9.2296 C   0  0  0  0  0  0  0  0  0  0  0  0
  -28.9193   -2.7861   -8.6601 S   0  0  0  0  0  0  0  0  0  0  0  0
  -28.2466   -1.0255  -10.6757 C   0  0  0  0  0  0  0  0  0  0  0  0
  -27.2872   -1.6321  -11.6175 N   0  0  0  0  0  0  0  0  0  0  0  0
  -27.5285   -2.8334  -12.4117 C   0  0  0  0  0  0  0  0  0  0  0  0
  -26.1418   -0.8551  -11.8099 C   0  0  0  0  0  0  0  0  0  0  0  0
  -25.9846    0.1950  -11.1832 O   0  0  0  0  0  0  0  0  0  0  0  0
  -25.2302   -1.3478  -12.7381 N   0  0  0  0  0  0  0  0  0  0  0  0
  -25.5883   -2.0329  -13.3922 H   0  0  0  0  0  0  0  0  0  0  0  0
  -24.0177   -0.7770  -13.0910 C   0  0  0  0  0  0  0  0  0  0  0  0
  -23.0080   -0.4852  -12.1668 C   0  0  0  0  0  0  0  0  0  0  0  0
  -21.8880    0.2275  -12.5526 C   0  0  0  0  0  0  0  0  0  0  0  0
  -21.7407    0.6360  -13.8788 C   0  0  0  0  0  0  0  0  0  0  0  0
  -20.2709    1.7203  -14.3688 Br  0  0  0  0  0  0  0  0  0  0  0  0
  -22.6934    0.2740  -14.8288 C   0  0  0  0  0  0  0  0  0  0  0  0
  -23.8189   -0.4427  -14.4430 C   0  0  0  0  0  0  0  0  0  0  0  0
  -29.1213  -10.4576   -3.8562 C   0  0  0  0  0  0  0  0  0  0  0  0
  -24.3845  -10.7285   -3.0967 C   0  0  0  0  0  0  0  0  0  0  0  0
  -25.5251  -11.3925   -3.7149 N   0  0  0  0  0  0  0  0  0  0  0  0
  -26.5432  -11.7514   -2.7147 C   0  0  0  0  0  0  0  0  0  0  0  0
  -27.7322  -12.4655   -3.3938 C   0  0  0  0  0  0  0  0  0  0  0  0
  -28.4282  -11.6386   -4.4052 N   0  0  0  0  0  0  0  0  0  0  0  0
  -27.4037  -11.2165   -5.3924 C   0  0  0  0  0  0  0  0  0  0  0  0
  -26.1298  -10.5679   -4.7795 C   0  0  0  0  0  0  0  0  0  0  0  0
 34 35  1  0  0  0
 35 36  1  0  0  0
 35 40  1  0  0  0
 36 37  1  0  0  0
 37 38  1  0  0  0
 38 33  1  0  0  0
 38 39  1  0  0  0
 33  1  1  0  0  0
  1  2  1  0  0  0
  1  6  2  0  0  0
  2  3  2  0  0  0
  3  4  1  0  0  0
  4  5  2  0  0  0
  4 12  1  0  0  0
  5  6  1  0  0  0
  5  7  1  0  0  0
  7  8  2  0  0  0
  7 11  1  0  0  0
  8  9  1  0  0  0
  9 10  1  0  0  0
  9 13  1  0  0  0
 10 14  1  0  0  0
 10 11  2  0  0  0
 14 15  2  0  0  0
 14 18  1  0  0  0
 15 16  1  0  0  0
 16 17  2  0  0  0
 17 19  1  0  0  0
 17 18  1  0  0  0
 19 20  1  0  0  0
 20 21  1  0  0  0
 20 22  1  0  0  0
 22 23  2  0  0  0
 22 24  1  0  0  0
 24 26  1  0  0  0
 24 25  1  0  0  0
 26 27  1  0  0  0
 26 32  2  0  0  0
 27 28  2  0  0  0
 28 29  1  0  0  0
 29 30  1  0  0  0
 29 31  2  0  0  0
 31 32  1  0  0  0
 11 12  1  0  0  0
 39 40  1  0  0  0
M  END
> <minimizedAffinity>
-6.79001

$$$$
