CHEMBL1253194


 33 36  0  0  0  0  0  0  0  0999 V2000
  -15.4593    2.3255  -16.1834 C   0  0  0  0  0  0  0  0  0  0  0  0
  -16.1967    3.5089  -16.0903 C   0  0  0  0  0  0  0  0  0  0  0  0
  -17.5428    3.4798  -15.7279 C   0  0  0  0  0  0  0  0  0  0  0  0
  -18.1558    2.2742  -15.4020 C   0  0  0  0  0  0  0  0  0  0  0  0
  -17.3910    1.0898  -15.4475 C   0  0  0  0  0  0  0  0  0  0  0  0
  -18.0833   -0.4477  -15.0502 Cl  0  0  0  0  0  0  0  0  0  0  0  0
  -16.0492    1.1142  -15.8333 C   0  0  0  0  0  0  0  0  0  0  0  0
  -19.5083    2.1963  -15.0272 N   0  0  0  0  0  0  0  0  0  0  0  0
  -20.4585    3.1823  -14.9689 C   0  0  0  0  0  0  0  0  0  0  0  0
  -20.2934    4.3692  -15.2413 O   0  0  0  0  0  0  0  0  0  0  0  0
  -21.7253    2.7728  -14.6347 N   0  0  0  0  0  0  0  0  0  0  0  0
  -19.8272    1.2621  -14.7731 H   0  0  0  0  0  0  0  0  0  0  0  0
  -22.4338    3.4843  -14.7363 H   0  0  0  0  0  0  0  0  0  0  0  0
  -22.1108    1.5099  -14.2464 C   0  0  0  0  0  0  0  0  0  0  0  0
  -23.2531    1.2045  -13.4788 C   0  0  0  0  0  0  0  0  0  0  0  0
  -23.2708   -0.1724  -13.4230 C   0  0  0  0  0  0  0  0  0  0  0  0
  -22.1724   -0.6504  -14.0615 O   0  0  0  0  0  0  0  0  0  0  0  0
  -21.4532    0.3943  -14.5755 N   0  0  0  0  0  0  0  0  0  0  0  0
  -24.2266   -1.1832  -12.8633 C   0  0  0  0  0  0  0  0  0  0  0  0
  -25.0274   -0.5288  -11.7231 C   0  0  0  0  0  0  0  0  0  0  0  0
  -25.2158   -1.6782  -13.9370 C   0  0  0  0  0  0  0  0  0  0  0  0
  -23.4342   -2.3860  -12.3282 C   0  0  0  0  0  0  0  0  0  0  0  0
  -14.1346    2.2840  -16.5557 O   0  0  0  0  0  0  0  0  0  0  0  0
  -13.6864    4.1485  -18.9407 C   0  0  0  0  0  0  0  0  0  0  0  0
  -12.8361    4.7086  -17.9136 N   0  0  0  0  0  0  0  0  0  0  0  0
  -12.0254    5.8045  -18.0827 C   0  0  0  0  0  0  0  0  0  0  0  0
  -11.3795    6.0441  -16.8897 C   0  0  0  0  0  0  0  0  0  0  0  0
  -11.8170    5.0664  -15.9692 C   0  0  0  0  0  0  0  0  0  0  0  0
  -11.4574    4.8941  -14.6798 N   0  0  0  0  0  0  0  0  0  0  0  0
  -12.0771    3.8670  -14.0874 C   0  0  0  0  0  0  0  0  0  0  0  0
  -12.9691    3.0227  -14.6281 N   0  0  0  0  0  0  0  0  0  0  0  0
  -13.2767    3.1793  -15.9348 C   0  0  0  0  0  0  0  0  0  0  0  0
  -12.7217    4.2418  -16.6257 C   0  0  0  0  0  0  0  0  0  0  0  0
 24 25  1  0  0  0
 25 26  1  0  0  0
 25 33  1  0  0  0
 26 27  2  0  0  0
 27 28  1  0  0  0
 28 29  1  0  0  0
 28 33  2  0  0  0
 29 30  2  0  0  0
 30 31  1  0  0  0
 31 32  2  0  0  0
 32 23  1  0  0  0
 32 33  1  0  0  0
 23  1  1  0  0  0
  1  2  1  0  0  0
  1  7  2  0  0  0
  2  3  2  0  0  0
  3  4  1  0  0  0
  4  8  1  0  0  0
  4  5  2  0  0  0
  8  9  1  0  0  0
  8 12  1  0  0  0
  9 10  2  0  0  0
  9 11  1  0  0  0
 11 14  1  0  0  0
 11 13  1  0  0  0
 14 15  1  0  0  0
 14 18  2  0  0  0
 15 16  2  0  0  0
 16 19  1  0  0  0
 16 17  1  0  0  0
 19 20  1  0  0  0
 19 21  1  0  0  0
 19 22  1  0  0  0
 17 18  1  0  0  0
  5  6  1  0  0  0
  5  7  1  0  0  0
M  END
> <minimizedAffinity>
-8.52675

$$$$
