CHEMBL2005828


 31 34  0  0  0  0  0  0  0  0999 V2000
  -25.6762   -0.8957  -12.5932 C   0  0  0  0  0  0  0  0  0  0  0  0
  -25.3645   -1.2660  -13.9046 C   0  0  0  0  0  0  0  0  0  0  0  0
  -24.1822   -0.8282  -14.5057 C   0  0  0  0  0  0  0  0  0  0  0  0
  -23.3009    0.0051  -13.8080 C   0  0  0  0  0  0  0  0  0  0  0  0
  -23.6913    0.4801  -12.5482 C   0  0  0  0  0  0  0  0  0  0  0  0
  -24.8689    0.0294  -11.9371 C   0  0  0  0  0  0  0  0  0  0  0  0
  -21.9821    0.3113  -14.3486 C   0  0  0  0  0  0  0  0  0  0  0  0
  -21.0952   -0.6577  -14.7787 C   0  0  0  0  0  0  0  0  0  0  0  0
  -19.9332   -0.1053  -15.2038 O   0  0  0  0  0  0  0  0  0  0  0  0
  -20.0449    1.2409  -15.0431 C   0  0  0  0  0  0  0  0  0  0  0  0
  -19.0550    2.0840  -15.3658 N   0  0  0  0  0  0  0  0  0  0  0  0
  -19.3894    3.3499  -15.1046 C   0  0  0  0  0  0  0  0  0  0  0  0
  -20.5362    3.8065  -14.5716 N   0  0  0  0  0  0  0  0  0  0  0  0
  -21.5003    2.9218  -14.2503 C   0  0  0  0  0  0  0  0  0  0  0  0
  -22.6391    3.4559  -13.6587 N   0  0  0  0  0  0  0  0  0  0  0  0
  -21.2855    1.5598  -14.5036 C   0  0  0  0  0  0  0  0  0  0  0  0
  -22.4602    4.4150  -13.3798 H   0  0  0  0  0  0  0  0  0  0  0  0
  -23.0294    2.8680  -12.9308 H   0  0  0  0  0  0  0  0  0  0  0  0
  -27.7729   -2.3094   -9.9969 N   0  0  0  0  0  0  0  0  0  0  0  0
  -26.6304   -1.7390  -10.5281 C   0  0  0  0  0  0  0  0  0  0  0  0
  -25.6361   -1.4326   -9.8832 O   0  0  0  0  0  0  0  0  0  0  0  0
  -26.7496   -1.4980  -11.8931 N   0  0  0  0  0  0  0  0  0  0  0  0
  -28.4189   -2.7237  -10.6546 H   0  0  0  0  0  0  0  0  0  0  0  0
  -27.6799   -1.2435  -12.1903 H   0  0  0  0  0  0  0  0  0  0  0  0
  -28.7239   -3.1458   -4.3940 C   0  0  0  0  0  0  0  0  0  0  0  0
  -28.4648   -2.9330   -5.8518 C   0  0  0  0  0  0  0  0  0  0  0  0
  -28.6676   -3.9742   -6.7597 C   0  0  0  0  0  0  0  0  0  0  0  0
  -28.4350   -3.7850   -8.1239 C   0  0  0  0  0  0  0  0  0  0  0  0
  -28.0127   -2.5495   -8.6217 C   0  0  0  0  0  0  0  0  0  0  0  0
  -27.8012   -1.5058   -7.7146 C   0  0  0  0  0  0  0  0  0  0  0  0
  -28.0273   -1.6965   -6.3420 C   0  0  0  0  0  0  0  0  0  0  0  0
 25 26  1  0  0  0
 26 27  1  0  0  0
 26 31  2  0  0  0
 27 28  2  0  0  0
 28 29  1  0  0  0
 29 19  1  0  0  0
 29 30  2  0  0  0
 19 20  1  0  0  0
 19 23  1  0  0  0
 20 21  2  0  0  0
 20 22  1  0  0  0
 22  1  1  0  0  0
 22 24  1  0  0  0
  1  2  1  0  0  0
  1  6  2  0  0  0
  2  3  2  0  0  0
  3  4  1  0  0  0
  4  7  1  0  0  0
  4  5  2  0  0  0
  7  8  2  0  0  0
  7 16  1  0  0  0
  8  9  1  0  0  0
  9 10  1  0  0  0
 10 11  1  0  0  0
 10 16  2  0  0  0
 11 12  2  0  0  0
 12 13  1  0  0  0
 13 14  2  0  0  0
 14 15  1  0  0  0
 14 16  1  0  0  0
 15 17  1  0  0  0
 15 18  1  0  0  0
  5  6  1  0  0  0
 30 31  1  0  0  0
M  END
> <minimizedAffinity>
-10.67464

$$$$
