CHEMBL271170


 32 35  0  0  0  0  0  0  0  0999 V2000
  -15.1443   -2.5886  -12.9841 C   0  0  0  0  0  0  0  0  0  0  0  0
  -15.7203   -3.1417  -11.8388 C   0  0  0  0  0  0  0  0  0  0  0  0
  -14.9162   -3.6247  -10.7963 C   0  0  0  0  0  0  0  0  0  0  0  0
  -13.5141   -3.5777  -10.8703 C   0  0  0  0  0  0  0  0  0  0  0  0
  -12.9646   -3.1126  -12.0809 C   0  0  0  0  0  0  0  0  0  0  0  0
  -13.7617   -2.6142  -13.1226 C   0  0  0  0  0  0  0  0  0  0  0  0
  -12.6607   -4.0198   -9.7423 C   0  0  0  0  0  0  0  0  0  0  0  0
  -12.5382   -3.2462   -8.5572 C   0  0  0  0  0  0  0  0  0  0  0  0
  -11.8035   -3.6746   -7.4456 C   0  0  0  0  0  0  0  0  0  0  0  0
  -11.1724   -4.9142   -7.4443 C   0  0  0  0  0  0  0  0  0  0  0  0
  -11.2628   -5.6482   -8.6224 C   0  0  0  0  0  0  0  0  0  0  0  0
  -10.6966   -6.8661   -8.8176 O   0  0  0  0  0  0  0  0  0  0  0  0
  -10.9159   -7.2740  -10.1156 N   0  0  0  0  0  0  0  0  0  0  0  0
  -11.6042   -6.2883  -10.6949 C   0  0  0  0  0  0  0  0  0  0  0  0
  -11.8991   -6.2870  -12.0103 N   0  0  0  0  0  0  0  0  0  0  0  0
  -11.9320   -5.2447   -9.7712 C   0  0  0  0  0  0  0  0  0  0  0  0
  -11.4059   -6.9705  -12.5773 H   0  0  0  0  0  0  0  0  0  0  0  0
  -11.9988   -5.3934  -12.4851 H   0  0  0  0  0  0  0  0  0  0  0  0
  -17.1237   -0.2015  -14.8727 N   0  0  0  0  0  0  0  0  0  0  0  0
  -16.3142   -0.6327  -13.8349 C   0  0  0  0  0  0  0  0  0  0  0  0
  -15.8957    0.0593  -12.9167 O   0  0  0  0  0  0  0  0  0  0  0  0
  -15.9347   -1.9681  -13.9848 N   0  0  0  0  0  0  0  0  0  0  0  0
  -17.2674   -0.8440  -15.6374 H   0  0  0  0  0  0  0  0  0  0  0  0
  -15.7258   -2.2330  -14.9359 H   0  0  0  0  0  0  0  0  0  0  0  0
  -21.0172    2.8419  -14.5700 C   0  0  0  0  0  0  0  0  0  0  0  0
  -19.5711    2.6139  -14.9084 C   0  0  0  0  0  0  0  0  0  0  0  0
  -18.8077    3.6594  -15.4285 C   0  0  0  0  0  0  0  0  0  0  0  0
  -17.4604    3.4631  -15.7043 C   0  0  0  0  0  0  0  0  0  0  0  0
  -16.8740    2.2190  -15.4844 C   0  0  0  0  0  0  0  0  0  0  0  0
  -15.5467    2.1652  -15.6474 F   0  0  0  0  0  0  0  0  0  0  0  0
  -17.6248    1.1222  -15.0320 C   0  0  0  0  0  0  0  0  0  0  0  0
  -18.9776    1.3474  -14.7163 C   0  0  0  0  0  0  0  0  0  0  0  0
 25 26  1  0  0  0
 26 27  1  0  0  0
 26 32  2  0  0  0
 27 28  2  0  0  0
 28 29  1  0  0  0
 29 30  1  0  0  0
 29 31  2  0  0  0
 31 19  1  0  0  0
 31 32  1  0  0  0
 19 20  1  0  0  0
 19 23  1  0  0  0
 20 21  2  0  0  0
 20 22  1  0  0  0
 22  1  1  0  0  0
 22 24  1  0  0  0
  1  2  1  0  0  0
  1  6  2  0  0  0
  2  3  2  0  0  0
  3  4  1  0  0  0
  4  7  1  0  0  0
  4  5  2  0  0  0
  7  8  1  0  0  0
  7 16  2  0  0  0
  8  9  2  0  0  0
  9 10  1  0  0  0
 10 11  2  0  0  0
 11 12  1  0  0  0
 11 16  1  0  0  0
 12 13  1  0  0  0
 13 14  2  0  0  0
 14 15  1  0  0  0
 14 16  1  0  0  0
 15 17  1  0  0  0
 15 18  1  0  0  0
  5  6  1  0  0  0
M  END
> <minimizedAffinity>
-9.06124

$$$$
