CHEMBL193747


 37 40  0  0  0  0  0  0  0  0999 V2000
  -26.2791   -1.8216  -10.5850 C   0  0  0  0  0  0  0  0  0  0  0  0
  -24.9635   -1.6181  -10.3535 N   0  0  0  0  0  0  0  0  0  0  0  0
  -24.0708   -1.4688  -11.3964 N   0  0  0  0  0  0  0  0  0  0  0  0
  -24.4884   -1.4575  -12.6794 C   0  0  0  0  0  0  0  0  0  0  0  0
  -25.8646   -1.5979  -12.9758 C   0  0  0  0  0  0  0  0  0  0  0  0
  -26.3923   -1.4706  -14.2892 C   0  0  0  0  0  0  0  0  0  0  0  0
  -27.7292   -1.7376  -14.5826 C   0  0  0  0  0  0  0  0  0  0  0  0
  -28.5645   -2.1905  -13.5799 C   0  0  0  0  0  0  0  0  0  0  0  0
  -28.0790   -2.2896  -12.2772 C   0  0  0  0  0  0  0  0  0  0  0  0
  -26.7588   -1.9028  -11.9207 C   0  0  0  0  0  0  0  0  0  0  0  0
  -28.6058   -1.9911   -6.9162 C   0  0  0  0  0  0  0  0  0  0  0  0
  -28.4226   -3.1343   -7.6906 C   0  0  0  0  0  0  0  0  0  0  0  0
  -27.7414   -3.0575   -8.9091 C   0  0  0  0  0  0  0  0  0  0  0  0
  -27.1257   -1.8702   -9.3517 C   0  0  0  0  0  0  0  0  0  0  0  0
  -27.3777   -0.7157   -8.5789 C   0  0  0  0  0  0  0  0  0  0  0  0
  -28.1167   -0.7681   -7.3811 C   0  0  0  0  0  0  0  0  0  0  0  0
  -29.6039   -1.1579   -4.9566 O   0  0  0  0  0  0  0  0  0  0  0  0
  -29.2958   -2.1452   -5.6085 C   0  0  0  0  0  0  0  0  0  0  0  0
  -29.5151   -3.4377   -5.1810 N   0  0  0  0  0  0  0  0  0  0  0  0
  -29.0888   -4.2060   -5.6840 H   0  0  0  0  0  0  0  0  0  0  0  0
  -30.0428   -3.6968   -3.8481 C   0  0  0  0  0  0  0  0  0  0  0  0
  -31.3948   -4.4032   -3.8919 C   0  0  0  0  0  0  0  0  0  0  0  0
  -31.7141   -4.9168   -2.5991 O   0  0  0  0  0  0  0  0  0  0  0  0
  -31.0164   -5.5648   -2.3962 H   0  0  0  0  0  0  0  0  0  0  0  0
  -23.5505   -1.2662  -13.7440 N   0  0  0  0  0  0  0  0  0  0  0  0
  -22.8191   -1.9654  -13.6324 H   0  0  0  0  0  0  0  0  0  0  0  0
  -22.8597   -0.0577  -14.0295 C   0  0  0  0  0  0  0  0  0  0  0  0
  -23.2630    1.1782  -13.5131 C   0  0  0  0  0  0  0  0  0  0  0  0
  -22.4834    2.3300  -13.6951 C   0  0  0  0  0  0  0  0  0  0  0  0
  -21.2757    2.2580  -14.3853 C   0  0  0  0  0  0  0  0  0  0  0  0
  -20.8468    1.0191  -14.8673 C   0  0  0  0  0  0  0  0  0  0  0  0
  -21.6170   -0.1317  -14.6669 C   0  0  0  0  0  0  0  0  0  0  0  0
  -20.4599    3.3059  -14.6981 O   0  0  0  0  0  0  0  0  0  0  0  0
  -19.0846    3.2152  -14.3461 C   0  0  0  0  0  0  0  0  0  0  0  0
  -18.7866    4.0803  -13.3468 F   0  0  0  0  0  0  0  0  0  0  0  0
  -18.8063    1.9590  -13.9182 F   0  0  0  0  0  0  0  0  0  0  0  0
  -18.0935    3.5987  -15.7601 Cl  0  0  0  0  0  0  0  0  0  0  0  0
 17 18  2  0  0  0
 18 19  1  0  0  0
 18 11  1  0  0  0
 19 21  1  0  0  0
 19 20  1  0  0  0
 21 22  1  0  0  0
 22 23  1  0  0  0
 23 24  1  0  0  0
 11 12  1  0  0  0
 11 16  2  0  0  0
 12 13  2  0  0  0
 13 14  1  0  0  0
 14  1  1  0  0  0
 14 15  2  0  0  0
  1  2  1  0  0  0
  1 10  2  0  0  0
  2  3  2  0  0  0
  3  4  1  0  0  0
  4 25  1  0  0  0
  4  5  2  0  0  0
 25 27  1  0  0  0
 25 26  1  0  0  0
 27 28  1  0  0  0
 27 32  2  0  0  0
 28 29  2  0  0  0
 29 30  1  0  0  0
 30 33  1  0  0  0
 30 31  2  0  0  0
 33 34  1  0  0  0
 34 35  1  0  0  0
 34 36  1  0  0  0
 34 37  1  0  0  0
 31 32  1  0  0  0
  5  6  1  0  0  0
  5 10  1  0  0  0
  6  7  2  0  0  0
  7  8  1  0  0  0
  8  9  2  0  0  0
  9 10  1  0  0  0
 15 16  1  0  0  0
M  END
> <minimizedAffinity>
-9.74767

$$$$
