CHEMBL452035


 31 34  0  0  0  0  0  0  0  0999 V2000
  -23.5488    0.0577  -13.3318 C   0  0  0  0  0  0  0  0  0  0  0  0
  -24.2917   -0.8743  -14.0571 C   0  0  0  0  0  0  0  0  0  0  0  0
  -25.4082   -1.4828  -13.4764 C   0  0  0  0  0  0  0  0  0  0  0  0
  -25.8016   -1.1950  -12.1671 C   0  0  0  0  0  0  0  0  0  0  0  0
  -25.0862   -0.2262  -11.4578 C   0  0  0  0  0  0  0  0  0  0  0  0
  -23.9564    0.3884  -12.0371 C   0  0  0  0  0  0  0  0  0  0  0  0
  -23.0281    2.9849  -13.5636 N   0  0  0  0  0  0  0  0  0  0  0  0
  -22.1566    2.0039  -14.0396 C   0  0  0  0  0  0  0  0  0  0  0  0
  -22.3630    0.6687  -13.9415 C   0  0  0  0  0  0  0  0  0  0  0  0
  -21.3015   -0.1925  -14.5609 C   0  0  0  0  0  0  0  0  0  0  0  0
  -20.2092    0.2037  -15.1420 N   0  0  0  0  0  0  0  0  0  0  0  0
  -20.0266    1.5553  -15.1899 C   0  0  0  0  0  0  0  0  0  0  0  0
  -19.0059    2.3193  -15.7074 C   0  0  0  0  0  0  0  0  0  0  0  0
  -19.3718    3.6467  -15.4421 C   0  0  0  0  0  0  0  0  0  0  0  0
  -20.5366    3.7480  -14.8017 N   0  0  0  0  0  0  0  0  0  0  0  0
  -20.9603    2.4538  -14.6631 N   0  0  0  0  0  0  0  0  0  0  0  0
  -23.6010    2.6946  -12.7772 H   0  0  0  0  0  0  0  0  0  0  0  0
  -22.5494    3.8794  -13.4295 H   0  0  0  0  0  0  0  0  0  0  0  0
  -26.8959   -1.8502  -11.5391 N   0  0  0  0  0  0  0  0  0  0  0  0
  -27.0562   -1.9382  -10.1673 C   0  0  0  0  0  0  0  0  0  0  0  0
  -26.3323   -1.3737   -9.3504 O   0  0  0  0  0  0  0  0  0  0  0  0
  -28.1283   -2.7280   -9.7959 N   0  0  0  0  0  0  0  0  0  0  0  0
  -27.7289   -1.9987  -12.0922 H   0  0  0  0  0  0  0  0  0  0  0  0
  -28.2997   -3.5227  -10.3990 H   0  0  0  0  0  0  0  0  0  0  0  0
  -28.4662   -2.8868   -8.4240 C   0  0  0  0  0  0  0  0  0  0  0  0
  -29.3602   -3.8808   -8.0065 C   0  0  0  0  0  0  0  0  0  0  0  0
  -29.6506   -4.0517   -6.6506 C   0  0  0  0  0  0  0  0  0  0  0  0
  -29.0740   -3.2052   -5.7062 C   0  0  0  0  0  0  0  0  0  0  0  0
  -28.2142   -2.1906   -6.1266 C   0  0  0  0  0  0  0  0  0  0  0  0
  -27.5535   -1.1046   -4.9654 Cl  0  0  0  0  0  0  0  0  0  0  0  0
  -27.8894   -2.0390   -7.4769 C   0  0  0  0  0  0  0  0  0  0  0  0
  7  8  1  0  0  0
  7 17  1  0  0  0
  7 18  1  0  0  0
  8  9  2  0  0  0
  8 16  1  0  0  0
  9  1  1  0  0  0
  9 10  1  0  0  0
  1  2  1  0  0  0
  1  6  2  0  0  0
  2  3  2  0  0  0
  3  4  1  0  0  0
  4 19  1  0  0  0
  4  5  2  0  0  0
 19 20  1  0  0  0
 19 23  1  0  0  0
 20 21  2  0  0  0
 20 22  1  0  0  0
 22 25  1  0  0  0
 22 24  1  0  0  0
 25 26  1  0  0  0
 25 31  2  0  0  0
 26 27  2  0  0  0
 27 28  1  0  0  0
 28 29  2  0  0  0
 29 30  1  0  0  0
 29 31  1  0  0  0
  5  6  1  0  0  0
 10 11  2  0  0  0
 11 12  1  0  0  0
 12 13  2  0  0  0
 12 16  1  0  0  0
 13 14  1  0  0  0
 14 15  2  0  0  0
 15 16  1  0  0  0
M  END
> <minimizedAffinity>
-11.04467

$$$$
