CHEMBL3984571


 37 42  0  0  0  0  0  0  0  0999 V2000
  -14.1439   -5.2305  -11.8267 N   0  0  0  0  0  0  0  0  0  0  0  0
  -14.3134   -4.1161  -12.7460 C   0  0  0  0  0  0  0  0  0  0  0  0
  -13.1772   -3.8323  -13.4963 C   0  0  0  0  0  0  0  0  0  0  0  0
  -12.9532   -2.5740  -14.0138 C   0  0  0  0  0  0  0  0  0  0  0  0
  -13.9111   -1.6005  -13.9697 C   0  0  0  0  0  0  0  0  0  0  0  0
  -13.4644   -0.4112  -14.3880 N   0  0  0  0  0  0  0  0  0  0  0  0
  -14.3602    0.5458  -14.5447 C   0  0  0  0  0  0  0  0  0  0  0  0
  -15.7269    0.3134  -14.3698 C   0  0  0  0  0  0  0  0  0  0  0  0
  -16.1780   -0.8736  -13.8232 N   0  0  0  0  0  0  0  0  0  0  0  0
  -15.2308   -1.8733  -13.5465 C   0  0  0  0  0  0  0  0  0  0  0  0
  -15.3768   -3.1711  -12.8550 C   0  0  0  0  0  0  0  0  0  0  0  0
  -16.6020    1.3674  -14.8863 C   0  0  0  0  0  0  0  0  0  0  0  0
  -16.2682    2.5711  -15.5720 C   0  0  0  0  0  0  0  0  0  0  0  0
  -17.2961    3.4293  -15.6592 N   0  0  0  0  0  0  0  0  0  0  0  0
  -18.2881    2.7904  -15.0172 N   0  0  0  0  0  0  0  0  0  0  0  0
  -19.6574    3.2320  -15.1456 C   0  0  0  0  0  0  0  0  0  0  0  0
  -17.8655    1.6533  -14.3852 C   0  0  0  0  0  0  0  0  0  0  0  0
  -11.4477   -5.0644   -9.1689 C   0  0  0  0  0  0  0  0  0  0  0  0
  -10.8158   -6.2887   -9.3416 C   0  0  0  0  0  0  0  0  0  0  0  0
  -11.2491   -7.1488  -10.3518 C   0  0  0  0  0  0  0  0  0  0  0  0
  -12.3273   -6.7862  -11.1818 C   0  0  0  0  0  0  0  0  0  0  0  0
  -13.0314   -5.5845  -11.0090 C   0  0  0  0  0  0  0  0  0  0  0  0
  -12.5182   -4.7196  -10.0104 C   0  0  0  0  0  0  0  0  0  0  0  0
  -12.0146   -3.0328   -8.0474 C   0  0  0  0  0  0  0  0  0  0  0  0
  -11.1179   -4.1256   -8.2255 O   0  0  0  0  0  0  0  0  0  0  0  0
  -10.6967   -8.3754  -10.6223 O   0  0  0  0  0  0  0  0  0  0  0  0
  -10.7286   -8.8177  -11.9705 C   0  0  0  0  0  0  0  0  0  0  0  0
  -14.9640   -6.3934  -12.3293 C   0  0  0  0  0  0  0  0  0  0  0  0
  -14.7720   -7.0002  -13.7127 C   0  0  0  0  0  0  0  0  0  0  0  0
  -14.2176   -8.3862  -13.9412 C   0  0  0  0  0  0  0  0  0  0  0  0
  -13.5409   -7.2070  -14.6057 C   0  0  0  0  0  0  0  0  0  0  0  0
  -13.6964   -7.0816  -16.1284 C   0  0  0  0  0  0  0  0  0  0  0  0
  -13.7928   -5.8331  -16.7616 C   0  0  0  0  0  0  0  0  0  0  0  0
  -13.8545   -5.7515  -18.1552 C   0  0  0  0  0  0  0  0  0  0  0  0
  -13.8369   -6.9190  -18.9036 C   0  0  0  0  0  0  0  0  0  0  0  0
  -13.7470   -8.1146  -18.2185 C   0  0  0  0  0  0  0  0  0  0  0  0
  -13.6767   -8.2187  -16.8676 N   0  0  0  0  0  0  0  0  0  0  0  0
 24 25  1  0  0  0
 25 18  1  0  0  0
 18 19  1  0  0  0
 18 23  2  0  0  0
 19 20  2  0  0  0
 20 26  1  0  0  0
 20 21  1  0  0  0
 26 27  1  0  0  0
 21 22  2  0  0  0
 22  1  1  0  0  0
 22 23  1  0  0  0
  1 28  1  0  0  0
  1  2  1  0  0  0
 28 29  1  0  0  0
 29 30  1  0  0  0
 29 31  1  0  0  0
 30 31  1  0  0  0
 31 32  1  0  0  0
 32 33  1  0  0  0
 32 37  2  0  0  0
 33 34  2  0  0  0
 34 35  1  0  0  0
 35 36  2  0  0  0
 36 37  1  0  0  0
  2  3  1  0  0  0
  2 11  2  0  0  0
  3  4  2  0  0  0
  4  5  1  0  0  0
  5  6  1  0  0  0
  5 10  2  0  0  0
  6  7  2  0  0  0
  7  8  1  0  0  0
  8 12  1  0  0  0
  8  9  2  0  0  0
 12 13  1  0  0  0
 12 17  2  0  0  0
 13 14  2  0  0  0
 14 15  1  0  0  0
 15 16  1  0  0  0
 15 17  1  0  0  0
  9 10  1  0  0  0
 10 11  1  0  0  0
M  END
> <minimizedAffinity>
-7.24482

$$$$
