CHEMBL3740003


 36 40  0  0  0  0  0  0  0  0999 V2000
  -11.9318    0.8323  -15.1482 C   0  0  0  0  0  0  0  0  0  0  0  0
  -13.3403    0.5178  -14.7905 C   0  0  0  0  0  0  0  0  0  0  0  0
  -13.6677   -0.5960  -14.0639 N   0  0  0  0  0  0  0  0  0  0  0  0
  -15.0336   -0.6924  -13.8691 C   0  0  0  0  0  0  0  0  0  0  0  0
  -15.6054    0.4325  -14.4850 C   0  0  0  0  0  0  0  0  0  0  0  0
  -14.5198    1.1828  -15.0606 C   0  0  0  0  0  0  0  0  0  0  0  0
  -12.9992   -1.2663  -13.7096 H   0  0  0  0  0  0  0  0  0  0  0  0
  -14.5740    2.4301  -15.7518 C   0  0  0  0  0  0  0  0  0  0  0  0
  -15.3450    2.6288  -16.8244 C   0  0  0  0  0  0  0  0  0  0  0  0
  -15.3162    3.8860  -17.4941 C   0  0  0  0  0  0  0  0  0  0  0  0
  -14.5711    4.9132  -17.0549 C   0  0  0  0  0  0  0  0  0  0  0  0
  -13.7438    4.7025  -15.8164 C   0  0  0  0  0  0  0  0  0  0  0  0
  -13.0759    5.6329  -15.3670 O   0  0  0  0  0  0  0  0  0  0  0  0
  -13.7616    3.4615  -15.2271 O   0  0  0  0  0  0  0  0  0  0  0  0
  -14.5145    6.1714  -17.6572 N   0  0  0  0  0  0  0  0  0  0  0  0
  -14.1895    6.4220  -18.9797 C   0  0  0  0  0  0  0  0  0  0  0  0
  -13.8882    5.5547  -19.7966 O   0  0  0  0  0  0  0  0  0  0  0  0
  -14.7867    6.9405  -17.0518 H   0  0  0  0  0  0  0  0  0  0  0  0
  -14.2105    7.8205  -19.4862 C   0  0  0  0  0  0  0  0  0  0  0  0
  -13.1266    8.4483  -20.1042 C   0  0  0  0  0  0  0  0  0  0  0  0
  -13.2885    9.7325  -20.6431 C   0  0  0  0  0  0  0  0  0  0  0  0
  -14.5211   10.3878  -20.5668 C   0  0  0  0  0  0  0  0  0  0  0  0
  -15.5998    9.7701  -19.9443 C   0  0  0  0  0  0  0  0  0  0  0  0
  -15.4430    8.4948  -19.4073 C   0  0  0  0  0  0  0  0  0  0  0  0
  -15.5975   -1.8486  -13.1432 C   0  0  0  0  0  0  0  0  0  0  0  0
  -16.0102   -3.0066  -13.8158 C   0  0  0  0  0  0  0  0  0  0  0  0
  -16.3837   -4.1547  -13.1103 C   0  0  0  0  0  0  0  0  0  0  0  0
  -16.4178   -4.1390  -11.7190 C   0  0  0  0  0  0  0  0  0  0  0  0
  -16.0870   -2.9734  -11.0341 C   0  0  0  0  0  0  0  0  0  0  0  0
  -15.6716   -1.8398  -11.7402 C   0  0  0  0  0  0  0  0  0  0  0  0
  -17.0454    0.7371  -14.5234 C   0  0  0  0  0  0  0  0  0  0  0  0
  -17.9220   -0.0182  -15.3170 C   0  0  0  0  0  0  0  0  0  0  0  0
  -19.2904    0.2684  -15.3617 C   0  0  0  0  0  0  0  0  0  0  0  0
  -19.7981    1.3515  -14.6526 C   0  0  0  0  0  0  0  0  0  0  0  0
  -18.9448    2.1213  -13.8690 C   0  0  0  0  0  0  0  0  0  0  0  0
  -17.5895    1.7902  -13.7747 C   0  0  0  0  0  0  0  0  0  0  0  0
  1  2  1  0  0  0
  2  3  1  0  0  0
  2  6  2  0  0  0
  3  4  1  0  0  0
  3  7  1  0  0  0
  4 25  1  0  0  0
  4  5  2  0  0  0
 25 26  1  0  0  0
 25 30  2  0  0  0
 26 27  2  0  0  0
 27 28  1  0  0  0
 28 29  2  0  0  0
 29 30  1  0  0  0
  5 31  1  0  0  0
  5  6  1  0  0  0
 31 32  1  0  0  0
 31 36  2  0  0  0
 32 33  2  0  0  0
 33 34  1  0  0  0
 34 35  2  0  0  0
 35 36  1  0  0  0
  6  8  1  0  0  0
  8  9  2  0  0  0
  8 14  1  0  0  0
  9 10  1  0  0  0
 10 11  2  0  0  0
 11 15  1  0  0  0
 11 12  1  0  0  0
 15 16  1  0  0  0
 15 18  1  0  0  0
 16 17  2  0  0  0
 16 19  1  0  0  0
 19 20  1  0  0  0
 19 24  2  0  0  0
 20 21  2  0  0  0
 21 22  1  0  0  0
 22 23  2  0  0  0
 23 24  1  0  0  0
 12 13  2  0  0  0
 12 14  1  0  0  0
M  END
> <minimizedAffinity>
-8.73328

$$$$
