CHEMBL1080902


 26 28  0  0  0  0  0  0  0  0999 V2000
  -30.7336   -5.7125   -4.5215 C   0  0  0  0  0  0  0  0  0  0  0  0
  -31.8951   -5.7220   -3.9176 N   0  0  0  0  0  0  0  0  0  0  0  0
  -31.9532   -4.5978   -3.1001 N   0  0  0  0  0  0  0  0  0  0  0  0
  -30.8344   -3.7970   -3.1188 C   0  0  0  0  0  0  0  0  0  0  0  0
  -30.5576   -2.7904   -2.5068 O   0  0  0  0  0  0  0  0  0  0  0  0
  -29.9772   -4.4863   -4.1350 C   0  0  0  0  0  0  0  0  0  0  0  0
  -28.8491   -4.1286   -4.6572 N   0  0  0  0  0  0  0  0  0  0  0  0
  -32.7554   -4.4425   -2.5002 H   0  0  0  0  0  0  0  0  0  0  0  0
  -29.2578   -8.7428   -7.1447 C   0  0  0  0  0  0  0  0  0  0  0  0
  -28.8997   -8.7398   -5.7951 C   0  0  0  0  0  0  0  0  0  0  0  0
  -29.3842   -7.7429   -4.9386 C   0  0  0  0  0  0  0  0  0  0  0  0
  -30.2403   -6.7527   -5.4284 C   0  0  0  0  0  0  0  0  0  0  0  0
  -30.5848   -6.7470   -6.7826 C   0  0  0  0  0  0  0  0  0  0  0  0
  -30.0977   -7.7400   -7.6320 C   0  0  0  0  0  0  0  0  0  0  0  0
  -29.5417   -9.6282   -9.3308 C   0  0  0  0  0  0  0  0  0  0  0  0
  -28.8604   -9.6528   -8.0837 O   0  0  0  0  0  0  0  0  0  0  0  0
  -28.2833   -2.9891   -4.2009 N   0  0  0  0  0  0  0  0  0  0  0  0
  -28.0350   -2.8535   -3.2166 H   0  0  0  0  0  0  0  0  0  0  0  0
  -28.2278   -1.8624   -5.0387 C   0  0  0  0  0  0  0  0  0  0  0  0
  -28.7157   -0.6107   -4.6439 C   0  0  0  0  0  0  0  0  0  0  0  0
  -28.7010    0.4760   -5.5208 C   0  0  0  0  0  0  0  0  0  0  0  0
  -28.2121    0.3228   -6.8184 C   0  0  0  0  0  0  0  0  0  0  0  0
  -27.7327   -0.9177   -7.2380 C   0  0  0  0  0  0  0  0  0  0  0  0
  -27.7498   -1.9997   -6.3482 C   0  0  0  0  0  0  0  0  0  0  0  0
  -27.2273   -1.2071   -8.4765 O   0  0  0  0  0  0  0  0  0  0  0  0
  -27.7262   -2.3742   -9.1171 C   0  0  0  0  0  0  0  0  0  0  0  0
 15 16  1  0  0  0
 16  9  1  0  0  0
  9 10  1  0  0  0
  9 14  2  0  0  0
 10 11  2  0  0  0
 11 12  1  0  0  0
 12  1  1  0  0  0
 12 13  2  0  0  0
  1  2  2  0  0  0
  1  6  1  0  0  0
  2  3  1  0  0  0
  3  4  1  0  0  0
  3  8  1  0  0  0
  4  5  2  0  0  0
  4  6  1  0  0  0
  6  7  2  0  0  0
  7 17  1  0  0  0
 17 19  1  0  0  0
 17 18  1  0  0  0
 19 20  1  0  0  0
 19 24  2  0  0  0
 20 21  2  0  0  0
 21 22  1  0  0  0
 22 23  2  0  0  0
 23 25  1  0  0  0
 23 24  1  0  0  0
 25 26  1  0  0  0
 13 14  1  0  0  0
M  END
> <minimizedAffinity>
-7.86741

$$$$
