CHEMBL3671582


 34 36  0  0  0  0  0  0  0  0999 V2000
  -28.1137   -3.4742   -7.7976 C   0  0  0  0  0  0  0  0  0  0  0  0
  -28.8831   -4.6402   -7.8331 C   0  0  0  0  0  0  0  0  0  0  0  0
  -29.5221   -5.1387   -6.6838 C   0  0  0  0  0  0  0  0  0  0  0  0
  -30.2699   -6.3283   -6.6494 C   0  0  0  0  0  0  0  0  0  0  0  0
  -30.8097   -6.7769   -5.5038 N   0  0  0  0  0  0  0  0  0  0  0  0
  -30.6122   -6.0414   -4.4076 C   0  0  0  0  0  0  0  0  0  0  0  0
  -29.9460   -4.8830   -4.3418 N   0  0  0  0  0  0  0  0  0  0  0  0
  -29.4072   -4.4388   -5.4798 C   0  0  0  0  0  0  0  0  0  0  0  0
  -28.7093   -3.2334   -5.4753 C   0  0  0  0  0  0  0  0  0  0  0  0
  -28.0933   -2.7110   -6.6229 C   0  0  0  0  0  0  0  0  0  0  0  0
  -27.5608   -2.0274   -9.6711 C   0  0  0  0  0  0  0  0  0  0  0  0
  -28.3391   -1.1277   -9.3728 O   0  0  0  0  0  0  0  0  0  0  0  0
  -27.3445   -3.1832   -8.9448 N   0  0  0  0  0  0  0  0  0  0  0  0
  -26.8145   -3.9161   -9.3826 H   0  0  0  0  0  0  0  0  0  0  0  0
  -27.3926   -1.6210  -12.0674 C   0  0  0  0  0  0  0  0  0  0  0  0
  -26.7825   -1.9904  -10.9347 C   0  0  0  0  0  0  0  0  0  0  0  0
  -30.4882   -7.0490   -7.8550 N   0  0  0  0  0  0  0  0  0  0  0  0
  -30.6353   -6.4041   -8.6312 H   0  0  0  0  0  0  0  0  0  0  0  0
  -29.8298   -8.2229   -8.2977 C   0  0  0  0  0  0  0  0  0  0  0  0
  -28.4486   -8.2434   -8.5348 C   0  0  0  0  0  0  0  0  0  0  0  0
  -27.8095   -9.3920   -9.0049 C   0  0  0  0  0  0  0  0  0  0  0  0
  -28.5394  -10.5597   -9.1917 C   0  0  0  0  0  0  0  0  0  0  0  0
  -27.7573  -11.9612   -9.8086 Cl  0  0  0  0  0  0  0  0  0  0  0  0
  -29.8945  -10.6000   -8.8790 C   0  0  0  0  0  0  0  0  0  0  0  0
  -30.5295   -9.4403   -8.4238 C   0  0  0  0  0  0  0  0  0  0  0  0
  -32.2143   -9.5336   -8.0347 Cl  0  0  0  0  0  0  0  0  0  0  0  0
  -27.4342   -1.5246   -6.3998 O   0  0  0  0  0  0  0  0  0  0  0  0
  -27.2977   -1.1625   -5.0303 C   0  0  0  0  0  0  0  0  0  0  0  0
  -27.6923    0.2920   -4.7749 C   0  0  0  0  0  0  0  0  0  0  0  0
  -29.1083    0.5144   -5.0439 N   0  0  0  0  0  0  0  0  0  0  0  0
  -29.5313    1.2440   -6.1343 C   0  0  0  0  0  0  0  0  0  0  0  0
  -31.0193    1.4322   -6.2259 C   0  0  0  0  0  0  0  0  0  0  0  0
  -28.7693    1.7436   -6.9574 O   0  0  0  0  0  0  0  0  0  0  0  0
  -29.7891   -0.0034   -4.5017 H   0  0  0  0  0  0  0  0  0  0  0  0
 15 16  2  0  0  0
 16 11  1  0  0  0
 11 12  2  0  0  0
 11 13  1  0  0  0
 13  1  1  0  0  0
 13 14  1  0  0  0
  1  2  1  0  0  0
  1 10  2  0  0  0
  2  3  2  0  0  0
  3  4  1  0  0  0
  3  8  1  0  0  0
  4 17  1  0  0  0
  4  5  2  0  0  0
 17 19  1  0  0  0
 17 18  1  0  0  0
 19 20  1  0  0  0
 19 25  2  0  0  0
 20 21  2  0  0  0
 21 22  1  0  0  0
 22 23  1  0  0  0
 22 24  2  0  0  0
 24 25  1  0  0  0
 25 26  1  0  0  0
  5  6  1  0  0  0
  6  7  2  0  0  0
  7  8  1  0  0  0
  8  9  2  0  0  0
  9 10  1  0  0  0
 10 27  1  0  0  0
 27 28  1  0  0  0
 28 29  1  0  0  0
 29 30  1  0  0  0
 30 31  1  0  0  0
 30 34  1  0  0  0
 31 32  1  0  0  0
 31 33  2  0  0  0
M  END
> <minimizedAffinity>
-8.82008

$$$$
