CHEMBL603198


 28 31  0  0  0  0  0  0  0  0999 V2000
  -29.4787   -5.8289   -7.5745 C   0  0  0  0  0  0  0  0  0  0  0  0
  -28.2451   -6.0048   -8.1679 C   0  0  0  0  0  0  0  0  0  0  0  0
  -28.1158   -7.2568   -8.6710 O   0  0  0  0  0  0  0  0  0  0  0  0
  -29.2538   -7.9293   -8.3566 C   0  0  0  0  0  0  0  0  0  0  0  0
  -29.4837   -9.1859   -8.7519 N   0  0  0  0  0  0  0  0  0  0  0  0
  -30.6534   -9.6420   -8.3143 C   0  0  0  0  0  0  0  0  0  0  0  0
  -31.0433  -10.8918   -8.7562 N   0  0  0  0  0  0  0  0  0  0  0  0
  -31.4828   -9.0249   -7.4605 N   0  0  0  0  0  0  0  0  0  0  0  0
  -31.2056   -7.7679   -7.0559 C   0  0  0  0  0  0  0  0  0  0  0  0
  -32.0524   -7.2226   -6.1127 N   0  0  0  0  0  0  0  0  0  0  0  0
  -30.0732   -7.1305   -7.5798 C   0  0  0  0  0  0  0  0  0  0  0  0
  -30.2347  -11.4241   -9.0436 H   0  0  0  0  0  0  0  0  0  0  0  0
  -31.6755  -11.3115   -8.0904 H   0  0  0  0  0  0  0  0  0  0  0  0
  -32.9217   -7.7262   -5.9950 H   0  0  0  0  0  0  0  0  0  0  0  0
  -32.0196   -6.2403   -5.9042 H   0  0  0  0  0  0  0  0  0  0  0  0
  -30.0774   -4.5709   -7.0431 C   0  0  0  0  0  0  0  0  0  0  0  0
  -29.3973   -3.9109   -5.8103 C   0  0  0  0  0  0  0  0  0  0  0  0
  -28.1418   -1.8585   -6.9213 C   0  0  0  0  0  0  0  0  0  0  0  0
  -27.9705   -0.4594   -6.9745 C   0  0  0  0  0  0  0  0  0  0  0  0
  -28.6794    0.3957   -6.1340 C   0  0  0  0  0  0  0  0  0  0  0  0
  -29.5885   -0.1360   -5.2354 C   0  0  0  0  0  0  0  0  0  0  0  0
  -29.7606   -1.5215   -5.1684 C   0  0  0  0  0  0  0  0  0  0  0  0
  -29.0396   -2.4263   -5.9924 C   0  0  0  0  0  0  0  0  0  0  0  0
  -27.5641   -2.3560   -9.1825 C   0  0  0  0  0  0  0  0  0  0  0  0
  -27.4900   -2.6862   -7.7936 O   0  0  0  0  0  0  0  0  0  0  0  0
  -28.4682   -4.8725   -5.0893 C   0  0  0  0  0  0  0  0  0  0  0  0
  -28.8395   -5.3411   -3.6989 C   0  0  0  0  0  0  0  0  0  0  0  0
  -27.5375   -4.6398   -3.9240 C   0  0  0  0  0  0  0  0  0  0  0  0
 24 25  1  0  0  0
 25 18  1  0  0  0
 18 19  1  0  0  0
 18 23  2  0  0  0
 19 20  2  0  0  0
 20 21  1  0  0  0
 21 22  2  0  0  0
 22 23  1  0  0  0
 23 17  1  0  0  0
 17 16  1  0  0  0
 17 26  1  0  0  0
 16  1  1  0  0  0
  1  2  2  0  0  0
  1 11  1  0  0  0
  2  3  1  0  0  0
  3  4  1  0  0  0
  4  5  1  0  0  0
  4 11  2  0  0  0
  5  6  2  0  0  0
  6  7  1  0  0  0
  6  8  1  0  0  0
  7 12  1  0  0  0
  7 13  1  0  0  0
  8  9  2  0  0  0
  9 10  1  0  0  0
  9 11  1  0  0  0
 10 14  1  0  0  0
 10 15  1  0  0  0
 26 27  1  0  0  0
 26 28  1  0  0  0
 27 28  1  0  0  0
M  END
> <minimizedAffinity>
-8.14750

$$$$
