CHEMBL468183


 32 36  0  0  0  0  0  0  0  0999 V2000
  -30.5751   -8.3763   -6.6882 C   0  0  0  0  0  0  0  0  0  0  0  0
  -31.7708   -7.6912   -6.9891 C   0  0  0  0  0  0  0  0  0  0  0  0
  -32.9620   -8.3825   -7.1862 C   0  0  0  0  0  0  0  0  0  0  0  0
  -32.9594   -9.7686   -7.1541 C   0  0  0  0  0  0  0  0  0  0  0  0
  -31.7696  -10.4623   -6.9077 C   0  0  0  0  0  0  0  0  0  0  0  0
  -30.5512   -9.7945   -6.6827 C   0  0  0  0  0  0  0  0  0  0  0  0
  -29.3211   -7.5899   -6.4429 C   0  0  0  0  0  0  0  0  0  0  0  0
  -28.4100   -7.6537   -7.2689 O   0  0  0  0  0  0  0  0  0  0  0  0
  -28.1299   -1.9460   -6.7697 C   0  0  0  0  0  0  0  0  0  0  0  0
  -28.4226   -2.9845   -5.7265 C   0  0  0  0  0  0  0  0  0  0  0  0
  -28.2592   -2.7178   -4.3681 C   0  0  0  0  0  0  0  0  0  0  0  0
  -28.4933   -3.7006   -3.3981 C   0  0  0  0  0  0  0  0  0  0  0  0
  -28.8471   -4.9815   -3.8366 C   0  0  0  0  0  0  0  0  0  0  0  0
  -29.1124   -6.1225   -3.1199 N   0  0  0  0  0  0  0  0  0  0  0  0
  -29.3452   -7.1687   -3.9681 C   0  0  0  0  0  0  0  0  0  0  0  0
  -29.2280   -6.7145   -5.2723 C   0  0  0  0  0  0  0  0  0  0  0  0
  -28.9915   -5.3019   -5.1882 C   0  0  0  0  0  0  0  0  0  0  0  0
  -28.8251   -4.2708   -6.1352 C   0  0  0  0  0  0  0  0  0  0  0  0
  -29.0974   -6.1811   -2.1106 H   0  0  0  0  0  0  0  0  0  0  0  0
  -29.4009  -10.5099   -6.2906 N   0  0  0  0  0  0  0  0  0  0  0  0
  -28.6523   -9.8531   -6.0305 H   0  0  0  0  0  0  0  0  0  0  0  0
  -28.8620  -11.5501   -7.1643 C   0  0  0  0  0  0  0  0  0  0  0  0
  -28.2637  -10.9850   -8.4372 C   0  0  0  0  0  0  0  0  0  0  0  0
  -27.0172  -10.3507   -8.3671 C   0  0  0  0  0  0  0  0  0  0  0  0
  -26.4659   -9.7258   -9.4903 C   0  0  0  0  0  0  0  0  0  0  0  0
  -27.1140   -9.7192  -10.7133 C   0  0  0  0  0  0  0  0  0  0  0  0
  -26.5361   -9.0896  -11.7519 N   0  0  0  0  0  0  0  0  0  0  0  0
  -27.1672   -9.1267  -12.9442 C   0  0  0  0  0  0  0  0  0  0  0  0
  -28.3653   -9.7795  -13.1590 C   0  0  0  0  0  0  0  0  0  0  0  0
  -28.9706  -10.4089  -12.0752 C   0  0  0  0  0  0  0  0  0  0  0  0
  -28.3544  -10.3819  -10.8138 C   0  0  0  0  0  0  0  0  0  0  0  0
  -28.9292  -10.9883   -9.6730 C   0  0  0  0  0  0  0  0  0  0  0  0
  9 10  1  0  0  0
 10 11  1  0  0  0
 10 18  2  0  0  0
 11 12  2  0  0  0
 12 13  1  0  0  0
 13 14  1  0  0  0
 13 17  2  0  0  0
 14 15  1  0  0  0
 14 19  1  0  0  0
 15 16  2  0  0  0
 16  7  1  0  0  0
 16 17  1  0  0  0
  7  8  2  0  0  0
  7  1  1  0  0  0
  1  2  1  0  0  0
  1  6  2  0  0  0
  2  3  2  0  0  0
  3  4  1  0  0  0
  4  5  2  0  0  0
  5  6  1  0  0  0
  6 20  1  0  0  0
 20 22  1  0  0  0
 20 21  1  0  0  0
 22 23  1  0  0  0
 23 24  1  0  0  0
 23 32  2  0  0  0
 24 25  2  0  0  0
 25 26  1  0  0  0
 26 27  1  0  0  0
 26 31  2  0  0  0
 27 28  2  0  0  0
 28 29  1  0  0  0
 29 30  2  0  0  0
 30 31  1  0  0  0
 31 32  1  0  0  0
 17 18  1  0  0  0
M  END
> <minimizedAffinity>
-9.20073

$$$$
