CHEMBL264382


 49 55  0  0  0  0  0  0  0  0999 V2000
  -14.5969    0.6918  -15.1569 C   0  0  0  0  0  0  0  0  0  0  0  0
  -14.1531    1.1731  -16.3303 C   0  0  0  0  0  0  0  0  0  0  0  0
  -13.1044    0.6383  -17.2692 C   0  0  0  0  0  0  0  0  0  0  0  0
  -12.3880   -0.3261  -17.0996 O   0  0  0  0  0  0  0  0  0  0  0  0
  -13.1299    1.4801  -18.3677 N   0  0  0  0  0  0  0  0  0  0  0  0
  -14.0473    2.5099  -18.2050 C   0  0  0  0  0  0  0  0  0  0  0  0
  -14.2430    3.4654  -19.1142 N   0  0  0  0  0  0  0  0  0  0  0  0
  -15.1549    4.3664  -18.7399 C   0  0  0  0  0  0  0  0  0  0  0  0
  -15.8298    4.3625  -17.5766 N   0  0  0  0  0  0  0  0  0  0  0  0
  -15.5881    3.3697  -16.6919 C   0  0  0  0  0  0  0  0  0  0  0  0
  -14.6760    2.3875  -16.9819 C   0  0  0  0  0  0  0  0  0  0  0  0
  -12.5576    1.3890  -19.1893 H   0  0  0  0  0  0  0  0  0  0  0  0
  -11.7727    0.2411  -13.6435 C   0  0  0  0  0  0  0  0  0  0  0  0
  -12.9730   -0.6386  -13.7174 C   0  0  0  0  0  0  0  0  0  0  0  0
  -13.0653   -1.8914  -13.0744 C   0  0  0  0  0  0  0  0  0  0  0  0
  -14.2958   -2.4556  -13.3502 C   0  0  0  0  0  0  0  0  0  0  0  0
  -14.9680   -1.5458  -14.1446 N   0  0  0  0  0  0  0  0  0  0  0  0
  -14.1826   -0.4278  -14.3757 C   0  0  0  0  0  0  0  0  0  0  0  0
  -15.9231   -1.6538  -14.4707 H   0  0  0  0  0  0  0  0  0  0  0  0
  -14.7222   -3.7382  -12.8290 C   0  0  0  0  0  0  0  0  0  0  0  0
  -15.6285   -4.3757  -13.3621 O   0  0  0  0  0  0  0  0  0  0  0  0
  -14.1318   -4.1775  -11.6621 N   0  0  0  0  0  0  0  0  0  0  0  0
  -13.3282   -3.6930  -11.2895 H   0  0  0  0  0  0  0  0  0  0  0  0
  -14.5796   -5.4293  -11.0584 C   0  0  0  0  0  0  0  0  0  0  0  0
  -13.5974   -6.6022  -11.2671 C   0  0  0  0  0  0  0  0  0  0  0  0
  -14.0893   -7.6288  -12.2077 N   0  0  0  0  0  0  0  0  0  0  0  0
  -13.6250   -9.0004  -11.8923 C   0  0  0  0  0  0  0  0  0  0  0  0
  -12.1462   -9.2426  -12.2296 C   0  0  0  0  0  0  0  0  0  0  0  0
  -11.9136   -9.0321  -13.6267 O   0  0  0  0  0  0  0  0  0  0  0  0
  -12.2636   -7.6942  -13.9993 C   0  0  0  0  0  0  0  0  0  0  0  0
  -13.7120   -7.3340  -13.6102 C   0  0  0  0  0  0  0  0  0  0  0  0
  -16.2743    3.3619  -15.4639 N   0  0  0  0  0  0  0  0  0  0  0  0
  -16.1767    4.2554  -14.9979 H   0  0  0  0  0  0  0  0  0  0  0  0
  -17.5271    2.7543  -15.2458 C   0  0  0  0  0  0  0  0  0  0  0  0
  -17.6654    1.3642  -15.3248 C   0  0  0  0  0  0  0  0  0  0  0  0
  -18.8866    0.7357  -15.1217 C   0  0  0  0  0  0  0  0  0  0  0  0
  -19.9822    1.5460  -14.8168 C   0  0  0  0  0  0  0  0  0  0  0  0
  -19.8777    2.9272  -14.6590 C   0  0  0  0  0  0  0  0  0  0  0  0
  -21.1725    3.4087  -14.3220 C   0  0  0  0  0  0  0  0  0  0  0  0
  -22.0332    2.3330  -14.3147 C   0  0  0  0  0  0  0  0  0  0  0  0
  -21.3018    1.2115  -14.6091 N   0  0  0  0  0  0  0  0  0  0  0  0
  -18.6229    3.5375  -14.8511 C   0  0  0  0  0  0  0  0  0  0  0  0
  -21.8324   -0.1391  -14.7523 C   0  0  0  0  0  0  0  0  0  0  0  0
  -22.9069   -0.4968  -13.7503 C   0  0  0  0  0  0  0  0  0  0  0  0
  -22.7199   -0.4745  -12.3590 C   0  0  0  0  0  0  0  0  0  0  0  0
  -23.7724   -0.7786  -11.4926 C   0  0  0  0  0  0  0  0  0  0  0  0
  -25.0262   -1.1046  -12.0026 C   0  0  0  0  0  0  0  0  0  0  0  0
  -25.2271   -1.1402  -13.3795 C   0  0  0  0  0  0  0  0  0  0  0  0
  -24.1761   -0.8390  -14.2463 C   0  0  0  0  0  0  0  0  0  0  0  0
 13 14  1  0  0  0
 14 15  1  0  0  0
 14 18  2  0  0  0
 15 16  2  0  0  0
 16 20  1  0  0  0
 16 17  1  0  0  0
 20 21  2  0  0  0
 20 22  1  0  0  0
 22 24  1  0  0  0
 22 23  1  0  0  0
 24 25  1  0  0  0
 25 26  1  0  0  0
 26 27  1  0  0  0
 26 31  1  0  0  0
 27 28  1  0  0  0
 28 29  1  0  0  0
 29 30  1  0  0  0
 30 31  1  0  0  0
 17 18  1  0  0  0
 17 19  1  0  0  0
 18  1  1  0  0  0
  1  2  2  0  0  0
  2  3  1  0  0  0
  2 11  1  0  0  0
  3  4  2  0  0  0
  3  5  1  0  0  0
  5  6  1  0  0  0
  5 12  1  0  0  0
  6  7  1  0  0  0
  6 11  2  0  0  0
  7  8  2  0  0  0
  8  9  1  0  0  0
  9 10  2  0  0  0
 10 32  1  0  0  0
 10 11  1  0  0  0
 32 34  1  0  0  0
 32 33  1  0  0  0
 34 35  1  0  0  0
 34 42  2  0  0  0
 35 36  2  0  0  0
 36 37  1  0  0  0
 37 38  2  0  0  0
 37 41  1  0  0  0
 38 39  1  0  0  0
 38 42  1  0  0  0
 39 40  2  0  0  0
 40 41  1  0  0  0
 41 43  1  0  0  0
 43 44  1  0  0  0
 44 45  1  0  0  0
 44 49  2  0  0  0
 45 46  2  0  0  0
 46 47  1  0  0  0
 47 48  2  0  0  0
 48 49  1  0  0  0
M  END
> <minimizedAffinity>
-10.37708

$$$$
