CHEMBL3969741


 38 41  0  0  0  0  0  0  0  0999 V2000
  -24.9347   -0.9236  -15.6577 C   0  0  0  0  0  0  0  0  0  0  0  0
  -24.7105   -1.2672  -14.2113 C   0  0  0  0  0  0  0  0  0  0  0  0
  -25.8388   -1.6259  -13.4505 C   0  0  0  0  0  0  0  0  0  0  0  0
  -25.7591   -1.9441  -12.0953 C   0  0  0  0  0  0  0  0  0  0  0  0
  -24.4950   -1.9937  -11.5074 C   0  0  0  0  0  0  0  0  0  0  0  0
  -23.3585   -1.6428  -12.2483 C   0  0  0  0  0  0  0  0  0  0  0  0
  -23.4656   -1.2071  -13.5786 C   0  0  0  0  0  0  0  0  0  0  0  0
  -26.9068   -2.1987  -11.2959 N   0  0  0  0  0  0  0  0  0  0  0  0
  -27.0188   -1.8998   -9.9511 C   0  0  0  0  0  0  0  0  0  0  0  0
  -26.1574   -1.3541   -9.2629 O   0  0  0  0  0  0  0  0  0  0  0  0
  -28.2208   -2.3334   -9.4095 N   0  0  0  0  0  0  0  0  0  0  0  0
  -27.6695   -2.6847  -11.7305 H   0  0  0  0  0  0  0  0  0  0  0  0
  -28.5492   -3.2115   -9.7840 H   0  0  0  0  0  0  0  0  0  0  0  0
  -28.4968   -2.0946   -8.0408 C   0  0  0  0  0  0  0  0  0  0  0  0
  -28.7312   -3.1814   -7.2018 C   0  0  0  0  0  0  0  0  0  0  0  0
  -28.9120   -2.9698   -5.8344 C   0  0  0  0  0  0  0  0  0  0  0  0
  -28.9128   -1.6739   -5.3196 C   0  0  0  0  0  0  0  0  0  0  0  0
  -29.0979   -1.5178   -4.0023 F   0  0  0  0  0  0  0  0  0  0  0  0
  -28.7308   -0.5697   -6.1441 C   0  0  0  0  0  0  0  0  0  0  0  0
  -28.5043   -0.7929   -7.5138 C   0  0  0  0  0  0  0  0  0  0  0  0
  -28.7764    0.8273   -5.6006 C   0  0  0  0  0  0  0  0  0  0  0  0
  -29.9823    1.2112   -5.1001 F   0  0  0  0  0  0  0  0  0  0  0  0
  -27.8790    1.0316   -4.5963 F   0  0  0  0  0  0  0  0  0  0  0  0
  -28.4724    1.7537   -6.5562 F   0  0  0  0  0  0  0  0  0  0  0  0
  -22.3652   -0.7599  -14.2945 O   0  0  0  0  0  0  0  0  0  0  0  0
  -22.0868    0.6007  -14.3015 C   0  0  0  0  0  0  0  0  0  0  0  0
  -22.8807    1.5338  -13.6428 C   0  0  0  0  0  0  0  0  0  0  0  0
  -22.4743    2.8489  -13.6562 C   0  0  0  0  0  0  0  0  0  0  0  0
  -21.3865    3.2773  -14.3159 N   0  0  0  0  0  0  0  0  0  0  0  0
  -20.6535    2.3961  -15.0178 C   0  0  0  0  0  0  0  0  0  0  0  0
  -20.9772    1.0379  -15.0362 C   0  0  0  0  0  0  0  0  0  0  0  0
  -19.5434    2.8602  -15.7437 N   0  0  0  0  0  0  0  0  0  0  0  0
  -18.2295    2.5918  -15.3900 C   0  0  0  0  0  0  0  0  0  0  0  0
  -17.8377    1.9207  -14.4432 O   0  0  0  0  0  0  0  0  0  0  0  0
  -19.7173    3.4253  -16.5590 H   0  0  0  0  0  0  0  0  0  0  0  0
  -17.2014    3.2115  -16.2891 C   0  0  0  0  0  0  0  0  0  0  0  0
  -15.7442    3.1854  -15.8738 C   0  0  0  0  0  0  0  0  0  0  0  0
  -16.4993    4.4804  -15.8444 C   0  0  0  0  0  0  0  0  0  0  0  0
  1  2  1  0  0  0
  2  3  1  0  0  0
  2  7  2  0  0  0
  3  4  2  0  0  0
  4  8  1  0  0  0
  4  5  1  0  0  0
  8  9  1  0  0  0
  8 12  1  0  0  0
  9 10  2  0  0  0
  9 11  1  0  0  0
 11 14  1  0  0  0
 11 13  1  0  0  0
 14 15  1  0  0  0
 14 20  2  0  0  0
 15 16  2  0  0  0
 16 17  1  0  0  0
 17 18  1  0  0  0
 17 19  2  0  0  0
 19 21  1  0  0  0
 19 20  1  0  0  0
 21 22  1  0  0  0
 21 23  1  0  0  0
 21 24  1  0  0  0
  5  6  2  0  0  0
  6  7  1  0  0  0
  7 25  1  0  0  0
 25 26  1  0  0  0
 26 27  1  0  0  0
 26 31  2  0  0  0
 27 28  2  0  0  0
 28 29  1  0  0  0
 29 30  2  0  0  0
 30 32  1  0  0  0
 30 31  1  0  0  0
 32 33  1  0  0  0
 32 35  1  0  0  0
 33 34  2  0  0  0
 33 36  1  0  0  0
 36 37  1  0  0  0
 36 38  1  0  0  0
 37 38  1  0  0  0
M  END
> <minimizedAffinity>
-11.80357

$$$$
