CHEMBL3221560


 30 32  0  0  0  0  0  0  0  0999 V2000
  -28.3140   -1.9626   -9.8840 N   0  0  0  0  0  0  0  0  0  0  0  0
  -29.2460   -2.1229  -10.2819 H   0  0  0  0  0  0  0  0  0  0  0  0
  -28.1334   -1.8534   -8.4758 C   0  0  0  0  0  0  0  0  0  0  0  0
  -27.7825   -0.6533   -7.9562 N   0  0  0  0  0  0  0  0  0  0  0  0
  -27.6125   -0.4757   -6.6243 C   0  0  0  0  0  0  0  0  0  0  0  0
  -27.8026   -1.5103   -5.7776 N   0  0  0  0  0  0  0  0  0  0  0  0
  -28.1634   -2.7345   -6.2387 C   0  0  0  0  0  0  0  0  0  0  0  0
  -28.3896   -3.7661   -5.3413 C   0  0  0  0  0  0  0  0  0  0  0  0
  -28.7947   -5.0478   -5.7834 C   0  0  0  0  0  0  0  0  0  0  0  0
  -28.9557   -5.2741   -7.1813 C   0  0  0  0  0  0  0  0  0  0  0  0
  -28.7174   -4.2204   -8.0732 C   0  0  0  0  0  0  0  0  0  0  0  0
  -28.3264   -2.9522   -7.6210 C   0  0  0  0  0  0  0  0  0  0  0  0
  -29.0346   -6.0353   -4.8696 O   0  0  0  0  0  0  0  0  0  0  0  0
  -30.2244   -6.1991   -4.1957 C   0  0  0  0  0  0  0  0  0  0  0  0
  -29.3289   -6.4420   -7.7704 O   0  0  0  0  0  0  0  0  0  0  0  0
  -28.5582   -7.4551   -8.2769 C   0  0  0  0  0  0  0  0  0  0  0  0
  -25.0483   -1.4401  -12.5281 C   0  0  0  0  0  0  0  0  0  0  0  0
  -24.8259   -1.5596  -11.1554 C   0  0  0  0  0  0  0  0  0  0  0  0
  -25.8875   -1.7341  -10.2891 C   0  0  0  0  0  0  0  0  0  0  0  0
  -27.2117   -1.8248  -10.7709 C   0  0  0  0  0  0  0  0  0  0  0  0
  -27.4375   -1.7340  -12.1460 C   0  0  0  0  0  0  0  0  0  0  0  0
  -26.3738   -1.5566  -13.0316 C   0  0  0  0  0  0  0  0  0  0  0  0
  -26.7683   -1.5656  -14.7509 Cl  0  0  0  0  0  0  0  0  0  0  0  0
  -23.3627    0.0534  -13.4640 C   0  0  0  0  0  0  0  0  0  0  0  0
  -23.7821    0.9832  -12.7887 O   0  0  0  0  0  0  0  0  0  0  0  0
  -23.9233   -1.1791  -13.3621 N   0  0  0  0  0  0  0  0  0  0  0  0
  -23.4429   -1.9759  -13.8096 H   0  0  0  0  0  0  0  0  0  0  0  0
  -22.3000    0.2403  -14.2854 O   0  0  0  0  0  0  0  0  0  0  0  0
  -20.1620    1.0044  -15.0461 C   0  0  0  0  0  0  0  0  0  0  0  0
  -21.2953    1.1583  -14.0449 C   0  0  0  0  0  0  0  0  0  0  0  0
 29 30  1  0  0  0
 30 28  1  0  0  0
 28 24  1  0  0  0
 24 25  2  0  0  0
 24 26  1  0  0  0
 26 17  1  0  0  0
 26 27  1  0  0  0
 17 18  1  0  0  0
 17 22  2  0  0  0
 18 19  2  0  0  0
 19 20  1  0  0  0
 20  1  1  0  0  0
 20 21  2  0  0  0
  1  3  1  0  0  0
  1  2  1  0  0  0
  3  4  1  0  0  0
  3 12  2  0  0  0
  4  5  2  0  0  0
  5  6  1  0  0  0
  6  7  2  0  0  0
  7  8  1  0  0  0
  7 12  1  0  0  0
  8  9  2  0  0  0
  9 13  1  0  0  0
  9 10  1  0  0  0
 13 14  1  0  0  0
 10 15  1  0  0  0
 10 11  2  0  0  0
 15 16  1  0  0  0
 11 12  1  0  0  0
 21 22  1  0  0  0
 22 23  1  0  0  0
M  END
> <minimizedAffinity>
-8.33989

$$$$
