CHEMBL2023223


 36 40  0  0  0  0  0  0  0  0999 V2000
  -25.9231   -0.9771  -11.7831 C   0  0  0  0  0  0  0  0  0  0  0  0
  -25.2858   -1.2697  -10.5769 C   0  0  0  0  0  0  0  0  0  0  0  0
  -26.0036   -1.8087   -9.5097 C   0  0  0  0  0  0  0  0  0  0  0  0
  -27.3863   -2.0260   -9.6055 C   0  0  0  0  0  0  0  0  0  0  0  0
  -28.0366   -1.5960  -10.7691 C   0  0  0  0  0  0  0  0  0  0  0  0
  -27.3109   -1.0855  -11.8593 C   0  0  0  0  0  0  0  0  0  0  0  0
  -28.0978   -2.6991   -8.5044 C   0  0  0  0  0  0  0  0  0  0  0  0
  -28.5355   -3.9928   -8.7030 C   0  0  0  0  0  0  0  0  0  0  0  0
  -29.4531   -4.5940   -7.4241 S   0  0  0  0  0  0  0  0  0  0  0  0
  -29.1861   -3.1939   -6.4430 C   0  0  0  0  0  0  0  0  0  0  0  0
  -29.6222   -2.9738   -5.1138 C   0  0  0  0  0  0  0  0  0  0  0  0
  -29.3143   -1.7250   -4.5970 C   0  0  0  0  0  0  0  0  0  0  0  0
  -28.6906   -0.7463   -5.2645 N   0  0  0  0  0  0  0  0  0  0  0  0
  -28.2852   -0.9467   -6.5324 C   0  0  0  0  0  0  0  0  0  0  0  0
  -27.7149    0.1782   -7.1148 N   0  0  0  0  0  0  0  0  0  0  0  0
  -28.4812   -2.2055   -7.1708 C   0  0  0  0  0  0  0  0  0  0  0  0
  -27.8983    0.9796   -6.5186 H   0  0  0  0  0  0  0  0  0  0  0  0
  -27.9787    0.3068   -8.0842 H   0  0  0  0  0  0  0  0  0  0  0  0
  -30.3409   -3.9777   -4.3231 C   0  0  0  0  0  0  0  0  0  0  0  0
  -31.6783   -3.9174   -3.8025 C   0  0  0  0  0  0  0  0  0  0  0  0
  -32.0331   -5.0345   -3.0785 C   0  0  0  0  0  0  0  0  0  0  0  0
  -30.7907   -6.2013   -3.0619 S   0  0  0  0  0  0  0  0  0  0  0  0
  -29.7628   -5.1927   -3.9901 C   0  0  0  0  0  0  0  0  0  0  0  0
  -23.4985    0.4727  -14.0622 N   0  0  0  0  0  0  0  0  0  0  0  0
  -24.1234    0.2658  -12.8468 C   0  0  0  0  0  0  0  0  0  0  0  0
  -23.7799    0.7782  -11.7881 O   0  0  0  0  0  0  0  0  0  0  0  0
  -25.1762   -0.6424  -12.9404 N   0  0  0  0  0  0  0  0  0  0  0  0
  -24.0080    0.1913  -14.8861 H   0  0  0  0  0  0  0  0  0  0  0  0
  -25.0415   -1.3776  -13.6186 H   0  0  0  0  0  0  0  0  0  0  0  0
  -18.6868    0.4845  -15.2252 C   0  0  0  0  0  0  0  0  0  0  0  0
  -19.9312    1.2230  -14.8313 C   0  0  0  0  0  0  0  0  0  0  0  0
  -19.8929    2.6098  -14.6570 C   0  0  0  0  0  0  0  0  0  0  0  0
  -21.0404    3.2964  -14.2817 C   0  0  0  0  0  0  0  0  0  0  0  0
  -22.2360    2.6060  -14.0795 C   0  0  0  0  0  0  0  0  0  0  0  0
  -22.3085    1.2209  -14.2588 C   0  0  0  0  0  0  0  0  0  0  0  0
  -21.1444    0.5334  -14.6325 C   0  0  0  0  0  0  0  0  0  0  0  0
 30 31  1  0  0  0
 31 32  1  0  0  0
 31 36  2  0  0  0
 32 33  2  0  0  0
 33 34  1  0  0  0
 34 35  2  0  0  0
 35 24  1  0  0  0
 35 36  1  0  0  0
 24 25  1  0  0  0
 24 28  1  0  0  0
 25 26  2  0  0  0
 25 27  1  0  0  0
 27  1  1  0  0  0
 27 29  1  0  0  0
  1  2  1  0  0  0
  1  6  2  0  0  0
  2  3  2  0  0  0
  3  4  1  0  0  0
  4  7  1  0  0  0
  4  5  2  0  0  0
  7  8  2  0  0  0
  7 16  1  0  0  0
  8  9  1  0  0  0
  9 10  1  0  0  0
 10 11  1  0  0  0
 10 16  2  0  0  0
 11 19  1  0  0  0
 11 12  2  0  0  0
 19 20  1  0  0  0
 19 23  2  0  0  0
 20 21  2  0  0  0
 21 22  1  0  0  0
 22 23  1  0  0  0
 12 13  1  0  0  0
 13 14  2  0  0  0
 14 15  1  0  0  0
 14 16  1  0  0  0
 15 17  1  0  0  0
 15 18  1  0  0  0
  5  6  1  0  0  0
M  END
> <minimizedAffinity>
-9.44845

$$$$
