CHEMBL606168


 31 34  0  0  0  0  0  0  0  0999 V2000
  -31.2331   -8.3641   -7.2646 C   0  0  0  0  0  0  0  0  0  0  0  0
  -30.5598   -9.3983   -7.7999 C   0  0  0  0  0  0  0  0  0  0  0  0
  -31.5499  -10.4766   -8.0350 C   0  0  0  0  0  0  0  0  0  0  0  0
  -31.3163  -11.6180   -8.3781 O   0  0  0  0  0  0  0  0  0  0  0  0
  -32.7688   -9.9838   -7.7488 N   0  0  0  0  0  0  0  0  0  0  0  0
  -32.6702   -8.7349   -7.2653 C   0  0  0  0  0  0  0  0  0  0  0  0
  -33.5882   -8.0221   -6.9036 O   0  0  0  0  0  0  0  0  0  0  0  0
  -33.6259  -10.5004   -7.8298 H   0  0  0  0  0  0  0  0  0  0  0  0
  -29.1948   -9.5029   -8.1727 C   0  0  0  0  0  0  0  0  0  0  0  0
  -28.1161   -9.1364   -7.3942 C   0  0  0  0  0  0  0  0  0  0  0  0
  -26.9922   -9.3682   -8.1432 N   0  0  0  0  0  0  0  0  0  0  0  0
  -27.3537   -9.4311   -9.4688 C   0  0  0  0  0  0  0  0  0  0  0  0
  -26.6243   -9.1911  -10.6374 C   0  0  0  0  0  0  0  0  0  0  0  0
  -27.2666   -9.4614  -11.8481 C   0  0  0  0  0  0  0  0  0  0  0  0
  -28.5222  -10.0576  -11.8628 C   0  0  0  0  0  0  0  0  0  0  0  0
  -29.0712  -10.3944  -13.0381 F   0  0  0  0  0  0  0  0  0  0  0  0
  -29.2519  -10.2604  -10.6924 C   0  0  0  0  0  0  0  0  0  0  0  0
  -28.6925   -9.8233   -9.4762 C   0  0  0  0  0  0  0  0  0  0  0  0
  -26.0422   -9.3908   -7.7965 H   0  0  0  0  0  0  0  0  0  0  0  0
  -29.9177   -4.8021   -7.1881 C   0  0  0  0  0  0  0  0  0  0  0  0
  -30.2654   -6.0840   -7.6561 C   0  0  0  0  0  0  0  0  0  0  0  0
  -30.7675   -7.0592   -6.7730 C   0  0  0  0  0  0  0  0  0  0  0  0
  -30.8702   -6.7677   -5.4237 C   0  0  0  0  0  0  0  0  0  0  0  0
  -30.5063   -5.5061   -4.9362 C   0  0  0  0  0  0  0  0  0  0  0  0
  -30.0557   -4.5036   -5.8190 C   0  0  0  0  0  0  0  0  0  0  0  0
  -27.9959   -3.9477   -8.3111 C   0  0  0  0  0  0  0  0  0  0  0  0
  -29.3781   -3.8347   -7.9972 O   0  0  0  0  0  0  0  0  0  0  0  0
  -30.6397   -5.1461   -3.6148 O   0  0  0  0  0  0  0  0  0  0  0  0
  -31.9719   -5.0298   -3.1322 C   0  0  0  0  0  0  0  0  0  0  0  0
  -29.7018   -3.3153   -5.2202 O   0  0  0  0  0  0  0  0  0  0  0  0
  -28.3536   -3.1905   -4.7848 C   0  0  0  0  0  0  0  0  0  0  0  0
 26 27  1  0  0  0
 27 20  1  0  0  0
 20 21  1  0  0  0
 20 25  2  0  0  0
 21 22  2  0  0  0
 22  1  1  0  0  0
 22 23  1  0  0  0
  1  2  2  0  0  0
  1  6  1  0  0  0
  2  9  1  0  0  0
  2  3  1  0  0  0
  9 10  2  0  0  0
  9 18  1  0  0  0
 10 11  1  0  0  0
 11 12  1  0  0  0
 11 19  1  0  0  0
 12 13  1  0  0  0
 12 18  2  0  0  0
 13 14  2  0  0  0
 14 15  1  0  0  0
 15 16  1  0  0  0
 15 17  2  0  0  0
 17 18  1  0  0  0
  3  4  2  0  0  0
  3  5  1  0  0  0
  5  6  1  0  0  0
  5  8  1  0  0  0
  6  7  2  0  0  0
 23 24  2  0  0  0
 24 28  1  0  0  0
 24 25  1  0  0  0
 28 29  1  0  0  0
 25 30  1  0  0  0
 30 31  1  0  0  0
M  END
> <minimizedAffinity>
-8.45569

$$$$
