CHEMBL3947828


 39 43  0  0  0  0  0  0  0  0999 V2000
  -28.5005   -4.4201   -7.1790 C   0  0  0  0  0  0  0  0  0  0  0  0
  -28.1937   -3.9496   -5.9505 C   0  0  0  0  0  0  0  0  0  0  0  0
  -27.8800   -2.4870   -6.0727 C   0  0  0  0  0  0  0  0  0  0  0  0
  -27.6337   -1.6986   -5.1833 O   0  0  0  0  0  0  0  0  0  0  0  0
  -28.0283   -2.1748   -7.3784 N   0  0  0  0  0  0  0  0  0  0  0  0
  -28.4684   -3.2353   -8.0859 C   0  0  0  0  0  0  0  0  0  0  0  0
  -28.8583   -3.1952   -9.2375 O   0  0  0  0  0  0  0  0  0  0  0  0
  -28.0329   -1.2284   -7.7117 H   0  0  0  0  0  0  0  0  0  0  0  0
  -28.4723   -4.4549   -4.6458 C   0  0  0  0  0  0  0  0  0  0  0  0
  -27.7751   -5.5875   -4.2605 C   0  0  0  0  0  0  0  0  0  0  0  0
  -28.7633   -6.4774   -3.9137 N   0  0  0  0  0  0  0  0  0  0  0  0
  -29.9188   -5.7897   -3.5922 C   0  0  0  0  0  0  0  0  0  0  0  0
  -31.1668   -6.2633   -3.1628 C   0  0  0  0  0  0  0  0  0  0  0  0
  -32.1543   -5.3307   -2.8626 C   0  0  0  0  0  0  0  0  0  0  0  0
  -31.9116   -3.9707   -3.0200 C   0  0  0  0  0  0  0  0  0  0  0  0
  -30.7123   -3.5158   -3.5939 C   0  0  0  0  0  0  0  0  0  0  0  0
  -29.6927   -4.4437   -3.9031 C   0  0  0  0  0  0  0  0  0  0  0  0
  -28.7480   -7.8993   -4.2073 C   0  0  0  0  0  0  0  0  0  0  0  0
  -27.4358   -8.4755   -4.7220 C   0  0  0  0  0  0  0  0  0  0  0  0
  -26.8033   -9.3650   -3.6451 C   0  0  0  0  0  0  0  0  0  0  0  0
  -25.3461   -9.5308   -3.7685 N   0  0  0  0  0  0  0  0  0  0  0  0
  -24.8231  -10.6814   -3.0051 C   0  0  0  0  0  0  0  0  0  0  0  0
  -23.3116  -10.9280   -3.2375 C   0  0  0  0  0  0  0  0  0  0  0  0
  -22.9120  -11.0608   -4.6505 N   0  0  0  0  0  0  0  0  0  0  0  0
  -23.3424  -12.3372   -5.2158 C   0  0  0  0  0  0  0  0  0  0  0  0
  -23.4551   -9.9129   -5.4023 C   0  0  0  0  0  0  0  0  0  0  0  0
  -24.9660   -9.6508   -5.1917 C   0  0  0  0  0  0  0  0  0  0  0  0
  -30.7511   -7.4392   -7.7877 C   0  0  0  0  0  0  0  0  0  0  0  0
  -30.3203   -6.1458   -7.4405 C   0  0  0  0  0  0  0  0  0  0  0  0
  -28.9686   -5.7633   -7.5483 C   0  0  0  0  0  0  0  0  0  0  0  0
  -28.0626   -6.6961   -8.0386 C   0  0  0  0  0  0  0  0  0  0  0  0
  -28.4558   -8.0005   -8.3556 C   0  0  0  0  0  0  0  0  0  0  0  0
  -29.8120   -8.3692   -8.2759 C   0  0  0  0  0  0  0  0  0  0  0  0
  -32.5636   -7.9931   -6.3186 C   0  0  0  0  0  0  0  0  0  0  0  0
  -32.0512   -7.8522   -7.6387 O   0  0  0  0  0  0  0  0  0  0  0  0
  -27.5492   -8.9418   -8.7836 O   0  0  0  0  0  0  0  0  0  0  0  0
  -27.0485   -8.7295  -10.1040 C   0  0  0  0  0  0  0  0  0  0  0  0
  -30.0800   -9.6724   -8.6228 O   0  0  0  0  0  0  0  0  0  0  0  0
  -30.0927  -10.6315   -7.5734 C   0  0  0  0  0  0  0  0  0  0  0  0
 34 35  1  0  0  0
 35 28  1  0  0  0
 28 29  1  0  0  0
 28 33  2  0  0  0
 29 30  2  0  0  0
 30  1  1  0  0  0
 30 31  1  0  0  0
  1  2  2  0  0  0
  1  6  1  0  0  0
  2  9  1  0  0  0
  2  3  1  0  0  0
  9 10  2  0  0  0
  9 17  1  0  0  0
 10 11  1  0  0  0
 11 18  1  0  0  0
 11 12  1  0  0  0
 18 19  1  0  0  0
 19 20  1  0  0  0
 20 21  1  0  0  0
 21 22  1  0  0  0
 21 27  1  0  0  0
 22 23  1  0  0  0
 23 24  1  0  0  0
 24 25  1  0  0  0
 24 26  1  0  0  0
 26 27  1  0  0  0
 12 13  1  0  0  0
 12 17  2  0  0  0
 13 14  2  0  0  0
 14 15  1  0  0  0
 15 16  2  0  0  0
 16 17  1  0  0  0
  3  4  2  0  0  0
  3  5  1  0  0  0
  5  6  1  0  0  0
  5  8  1  0  0  0
  6  7  2  0  0  0
 31 32  2  0  0  0
 32 36  1  0  0  0
 32 33  1  0  0  0
 36 37  1  0  0  0
 33 38  1  0  0  0
 38 39  1  0  0  0
M  END
> <minimizedAffinity>
-7.67678

$$$$
