CHEMBL4092294


 40 44  0  0  0  0  0  0  0  0999 V2000
  -27.3016   -2.1108  -10.5431 N   0  0  0  0  0  0  0  0  0  0  0  0
  -26.0174   -1.6203  -10.7957 C   0  0  0  0  0  0  0  0  0  0  0  0
  -25.1985   -1.2802   -9.9457 O   0  0  0  0  0  0  0  0  0  0  0  0
  -27.8622   -2.4324  -11.3220 H   0  0  0  0  0  0  0  0  0  0  0  0
  -29.0349   -2.5238   -6.6266 C   0  0  0  0  0  0  0  0  0  0  0  0
  -29.1752   -3.5087   -7.6172 C   0  0  0  0  0  0  0  0  0  0  0  0
  -28.5928   -3.3899   -8.8759 C   0  0  0  0  0  0  0  0  0  0  0  0
  -27.8813   -2.2580   -9.2441 C   0  0  0  0  0  0  0  0  0  0  0  0
  -27.7486   -1.2444   -8.2778 C   0  0  0  0  0  0  0  0  0  0  0  0
  -28.2975   -1.3695   -6.9575 C   0  0  0  0  0  0  0  0  0  0  0  0
  -28.0664   -0.2131   -5.9978 C   0  0  0  0  0  0  0  0  0  0  0  0
  -29.1010    0.1103   -5.1795 F   0  0  0  0  0  0  0  0  0  0  0  0
  -27.0011   -0.4317   -5.1743 F   0  0  0  0  0  0  0  0  0  0  0  0
  -27.7693    0.9404   -6.6682 F   0  0  0  0  0  0  0  0  0  0  0  0
  -29.6938   -2.8230   -5.2843 C   0  0  0  0  0  0  0  0  0  0  0  0
  -29.3865   -7.5053   -4.3175 C   0  0  0  0  0  0  0  0  0  0  0  0
  -28.8820   -6.1993   -3.8972 N   0  0  0  0  0  0  0  0  0  0  0  0
  -28.1611   -5.5419   -4.9983 C   0  0  0  0  0  0  0  0  0  0  0  0
  -27.6852   -4.1220   -4.6083 C   0  0  0  0  0  0  0  0  0  0  0  0
  -28.7681   -3.1978   -4.1962 N   0  0  0  0  0  0  0  0  0  0  0  0
  -29.5062   -3.8801   -3.0975 C   0  0  0  0  0  0  0  0  0  0  0  0
  -29.9715   -5.3333   -3.4073 C   0  0  0  0  0  0  0  0  0  0  0  0
  -25.5481   -1.4851  -12.2051 C   0  0  0  0  0  0  0  0  0  0  0  0
  -26.3007   -1.8977  -13.2991 C   0  0  0  0  0  0  0  0  0  0  0  0
  -25.8022   -1.6129  -14.5633 C   0  0  0  0  0  0  0  0  0  0  0  0
  -24.6317   -0.9692  -14.7933 N   0  0  0  0  0  0  0  0  0  0  0  0
  -23.9202   -0.5719  -13.7170 C   0  0  0  0  0  0  0  0  0  0  0  0
  -24.3368   -0.8001  -12.4194 C   0  0  0  0  0  0  0  0  0  0  0  0
  -22.7082    0.1208  -14.0357 C   0  0  0  0  0  0  0  0  0  0  0  0
  -21.7806    0.8234  -14.3421 C   0  0  0  0  0  0  0  0  0  0  0  0
  -20.7958    1.7852  -14.7651 C   0  0  0  0  0  0  0  0  0  0  0  0
  -21.1668    3.1114  -14.9566 C   0  0  0  0  0  0  0  0  0  0  0  0
  -20.2954    4.1161  -15.2148 N   0  0  0  0  0  0  0  0  0  0  0  0
  -18.9953    3.7651  -15.3366 C   0  0  0  0  0  0  0  0  0  0  0  0
  -18.5207    2.4528  -15.2746 C   0  0  0  0  0  0  0  0  0  0  0  0
  -17.1707    2.1417  -15.5371 C   0  0  0  0  0  0  0  0  0  0  0  0
  -16.7288    0.8196  -15.4752 C   0  0  0  0  0  0  0  0  0  0  0  0
  -17.6064   -0.1864  -15.0995 C   0  0  0  0  0  0  0  0  0  0  0  0
  -18.9437    0.1146  -14.8255 C   0  0  0  0  0  0  0  0  0  0  0  0
  -19.4404    1.4364  -14.9458 C   0  0  0  0  0  0  0  0  0  0  0  0
 16 17  1  0  0  0
 17 18  1  0  0  0
 17 22  1  0  0  0
 18 19  1  0  0  0
 19 20  1  0  0  0
 20 15  1  0  0  0
 20 21  1  0  0  0
 15  5  1  0  0  0
  5  6  1  0  0  0
  5 10  2  0  0  0
  6  7  2  0  0  0
  7  8  1  0  0  0
  8  1  1  0  0  0
  8  9  2  0  0  0
  1  2  1  0  0  0
  1  4  1  0  0  0
  2  3  2  0  0  0
  2 23  1  0  0  0
 23 24  1  0  0  0
 23 28  2  0  0  0
 24 25  2  0  0  0
 25 26  1  0  0  0
 26 27  2  0  0  0
 27 29  1  0  0  0
 27 28  1  0  0  0
 29 30  3  0  0  0
 30 31  1  0  0  0
 31 32  1  0  0  0
 31 40  2  0  0  0
 32 33  2  0  0  0
 33 34  1  0  0  0
 34 35  2  0  0  0
 35 36  1  0  0  0
 35 40  1  0  0  0
 36 37  2  0  0  0
 37 38  1  0  0  0
 38 39  2  0  0  0
 39 40  1  0  0  0
  9 10  1  0  0  0
 10 11  1  0  0  0
 11 12  1  0  0  0
 11 13  1  0  0  0
 11 14  1  0  0  0
 21 22  1  0  0  0
M  END
> <minimizedAffinity>
-11.37237

$$$$
