CHEMBL184021


 35 38  0  0  0  0  0  0  0  0999 V2000
  -22.6044    0.4028  -13.7569 C   0  0  0  0  0  0  0  0  0  0  0  0
  -22.6067    1.7971  -13.7321 C   0  0  0  0  0  0  0  0  0  0  0  0
  -21.5914    2.5382  -14.3298 C   0  0  0  0  0  0  0  0  0  0  0  0
  -20.5606    1.9336  -15.0405 C   0  0  0  0  0  0  0  0  0  0  0  0
  -20.5586    0.5371  -15.1228 C   0  0  0  0  0  0  0  0  0  0  0  0
  -21.5671   -0.2127  -14.4754 C   0  0  0  0  0  0  0  0  0  0  0  0
  -25.7230   -1.7703  -11.6110 C   0  0  0  0  0  0  0  0  0  0  0  0
  -24.5528   -1.3435  -10.9881 C   0  0  0  0  0  0  0  0  0  0  0  0
  -23.5509   -0.6497  -11.6936 C   0  0  0  0  0  0  0  0  0  0  0  0
  -23.6638   -0.3592  -13.0660 C   0  0  0  0  0  0  0  0  0  0  0  0
  -24.8240   -0.8349  -13.6921 C   0  0  0  0  0  0  0  0  0  0  0  0
  -25.8128   -1.5218  -12.9708 C   0  0  0  0  0  0  0  0  0  0  0  0
  -26.9124   -1.8181  -13.8904 C   0  0  0  0  0  0  0  0  0  0  0  0
  -27.9502   -2.3957  -13.5917 O   0  0  0  0  0  0  0  0  0  0  0  0
  -26.5637   -1.3246  -15.1241 N   0  0  0  0  0  0  0  0  0  0  0  0
  -25.2694   -0.7023  -15.1209 C   0  0  0  0  0  0  0  0  0  0  0  0
  -27.1688   -1.4107  -15.9302 H   0  0  0  0  0  0  0  0  0  0  0  0
  -28.2840   -2.9836   -9.1148 C   0  0  0  0  0  0  0  0  0  0  0  0
  -27.1824   -2.1026   -9.6286 C   0  0  0  0  0  0  0  0  0  0  0  0
  -26.7545   -1.1879   -8.9305 O   0  0  0  0  0  0  0  0  0  0  0  0
  -26.7703   -2.4177  -10.9114 N   0  0  0  0  0  0  0  0  0  0  0  0
  -27.3496   -3.0490  -11.4654 H   0  0  0  0  0  0  0  0  0  0  0  0
  -19.5473    2.6781  -15.6946 N   0  0  0  0  0  0  0  0  0  0  0  0
  -18.1909    2.3948  -15.6304 C   0  0  0  0  0  0  0  0  0  0  0  0
  -17.6997    1.4217  -15.0696 O   0  0  0  0  0  0  0  0  0  0  0  0
  -17.4154    3.3623  -16.2515 N   0  0  0  0  0  0  0  0  0  0  0  0
  -19.8444    3.4060  -16.3328 H   0  0  0  0  0  0  0  0  0  0  0  0
  -17.7619    4.3061  -16.1491 H   0  0  0  0  0  0  0  0  0  0  0  0
  -16.0058    3.2080  -16.2676 C   0  0  0  0  0  0  0  0  0  0  0  0
  -15.4163    1.9938  -16.6411 C   0  0  0  0  0  0  0  0  0  0  0  0
  -14.0338    1.8319  -16.5843 C   0  0  0  0  0  0  0  0  0  0  0  0
  -13.2294    2.8834  -16.1510 C   0  0  0  0  0  0  0  0  0  0  0  0
  -13.8004    4.1109  -15.7914 C   0  0  0  0  0  0  0  0  0  0  0  0
  -12.9364    5.2308  -15.2912 C   0  0  0  0  0  0  0  0  0  0  0  0
  -15.1942    4.2723  -15.8651 C   0  0  0  0  0  0  0  0  0  0  0  0
 18 19  1  0  0  0
 19 20  2  0  0  0
 19 21  1  0  0  0
 21  7  1  0  0  0
 21 22  1  0  0  0
  7  8  1  0  0  0
  7 12  2  0  0  0
  8  9  2  0  0  0
  9 10  1  0  0  0
 10  1  1  0  0  0
 10 11  2  0  0  0
  1  2  1  0  0  0
  1  6  2  0  0  0
  2  3  2  0  0  0
  3  4  1  0  0  0
  4 23  1  0  0  0
  4  5  2  0  0  0
 23 24  1  0  0  0
 23 27  1  0  0  0
 24 25  2  0  0  0
 24 26  1  0  0  0
 26 29  1  0  0  0
 26 28  1  0  0  0
 29 30  1  0  0  0
 29 35  2  0  0  0
 30 31  2  0  0  0
 31 32  1  0  0  0
 32 33  2  0  0  0
 33 34  1  0  0  0
 33 35  1  0  0  0
  5  6  1  0  0  0
 11 12  1  0  0  0
 11 16  1  0  0  0
 12 13  1  0  0  0
 13 14  2  0  0  0
 13 15  1  0  0  0
 15 16  1  0  0  0
 15 17  1  0  0  0
M  END
> <minimizedAffinity>
-10.55182

$$$$
