CHEMBL2407897


 34 38  0  0  0  0  0  0  0  0999 V2000
  -18.2492    2.5828  -15.2757 C   0  0  0  0  0  0  0  0  0  0  0  0
  -17.6223    3.1603  -16.3171 N   0  0  0  0  0  0  0  0  0  0  0  0
  -16.3937    2.6248  -16.2802 N   0  0  0  0  0  0  0  0  0  0  0  0
  -16.2262    1.7129  -15.2743 C   0  0  0  0  0  0  0  0  0  0  0  0
  -15.2290    0.7739  -15.0241 C   0  0  0  0  0  0  0  0  0  0  0  0
  -15.3376   -0.0238  -13.8623 C   0  0  0  0  0  0  0  0  0  0  0  0
  -16.3445    0.2434  -12.9388 C   0  0  0  0  0  0  0  0  0  0  0  0
  -17.3750    1.1487  -13.2420 C   0  0  0  0  0  0  0  0  0  0  0  0
  -17.3401    1.8424  -14.4651 C   0  0  0  0  0  0  0  0  0  0  0  0
  -15.7349    2.8719  -17.0088 H   0  0  0  0  0  0  0  0  0  0  0  0
  -14.2666   -1.0020  -13.6606 C   0  0  0  0  0  0  0  0  0  0  0  0
  -14.1351   -2.2315  -13.1363 C   0  0  0  0  0  0  0  0  0  0  0  0
  -12.6730   -2.6160  -12.9817 C   0  0  0  0  0  0  0  0  0  0  0  0
  -11.6910   -1.9991  -13.3444 O   0  0  0  0  0  0  0  0  0  0  0  0
  -12.6741   -3.7863  -12.2746 N   0  0  0  0  0  0  0  0  0  0  0  0
  -13.9558   -4.2918  -12.1549 C   0  0  0  0  0  0  0  0  0  0  0  0
  -14.2428   -5.5836  -11.7620 C   0  0  0  0  0  0  0  0  0  0  0  0
  -15.5759   -5.9641  -11.7870 C   0  0  0  0  0  0  0  0  0  0  0  0
  -16.5742   -5.0335  -12.1248 C   0  0  0  0  0  0  0  0  0  0  0  0
  -16.2467   -3.7205  -12.5191 C   0  0  0  0  0  0  0  0  0  0  0  0
  -14.9137   -3.3576  -12.5833 C   0  0  0  0  0  0  0  0  0  0  0  0
  -11.8262   -4.2114  -11.9424 H   0  0  0  0  0  0  0  0  0  0  0  0
  -20.2326    1.1619  -15.2464 C   0  0  0  0  0  0  0  0  0  0  0  0
  -19.6737    2.3845  -15.2238 C   0  0  0  0  0  0  0  0  0  0  0  0
  -23.6606    0.2381  -12.8789 C   0  0  0  0  0  0  0  0  0  0  0  0
  -23.3716    1.5821  -13.1804 C   0  0  0  0  0  0  0  0  0  0  0  0
  -22.2638    1.9262  -13.9503 C   0  0  0  0  0  0  0  0  0  0  0  0
  -21.4236    0.9149  -14.4351 C   0  0  0  0  0  0  0  0  0  0  0  0
  -21.7006   -0.4227  -14.1203 C   0  0  0  0  0  0  0  0  0  0  0  0
  -22.8006   -0.7609  -13.3439 C   0  0  0  0  0  0  0  0  0  0  0  0
  -24.8894   -0.1370  -12.0764 C   0  0  0  0  0  0  0  0  0  0  0  0
  -26.1661   -2.0306  -11.2416 C   0  0  0  0  0  0  0  0  0  0  0  0
  -25.3774   -1.4989  -12.3573 N   0  0  0  0  0  0  0  0  0  0  0  0
  -26.1888   -1.4972  -13.5756 C   0  0  0  0  0  0  0  0  0  0  0  0
 32 33  1  0  0  0
 33 34  1  0  0  0
 33 31  1  0  0  0
 31 25  1  0  0  0
 25 26  1  0  0  0
 25 30  2  0  0  0
 26 27  2  0  0  0
 27 28  1  0  0  0
 28 23  1  0  0  0
 28 29  2  0  0  0
 23 24  2  0  0  0
 24  1  1  0  0  0
  1  2  2  0  0  0
  1  9  1  0  0  0
  2  3  1  0  0  0
  3  4  1  0  0  0
  3 10  1  0  0  0
  4  5  1  0  0  0
  4  9  2  0  0  0
  5  6  2  0  0  0
  6 11  1  0  0  0
  6  7  1  0  0  0
 11 12  2  0  0  0
 12 13  1  0  0  0
 12 21  1  0  0  0
 13 14  2  0  0  0
 13 15  1  0  0  0
 15 16  1  0  0  0
 15 22  1  0  0  0
 16 17  1  0  0  0
 16 21  2  0  0  0
 17 18  2  0  0  0
 18 19  1  0  0  0
 19 20  2  0  0  0
 20 21  1  0  0  0
  7  8  2  0  0  0
  8  9  1  0  0  0
 29 30  1  0  0  0
M  END
> <minimizedAffinity>
-10.15811

$$$$
