CHEMBL3696075


 48 51  0  0  0  0  0  0  0  0999 V2000
  -23.8469   -0.4351  -13.1984 C   0  0  0  0  0  0  0  0  0  0  0  0
  -23.3103    0.1758  -14.4176 C   0  0  0  0  0  0  0  0  0  0  0  0
  -23.9811   -0.0968  -15.5424 N   0  0  0  0  0  0  0  0  0  0  0  0
  -25.1787   -1.1931  -15.2080 S   0  0  0  0  0  0  0  0  0  0  0  0
  -24.9121   -1.2516  -13.5329 C   0  0  0  0  0  0  0  0  0  0  0  0
  -22.0549    0.9477  -14.4845 C   0  0  0  0  0  0  0  0  0  0  0  0
  -22.1095    2.2872  -14.1081 C   0  0  0  0  0  0  0  0  0  0  0  0
  -21.0572    3.1504  -14.3766 C   0  0  0  0  0  0  0  0  0  0  0  0
  -19.8741    2.6933  -14.9404 C   0  0  0  0  0  0  0  0  0  0  0  0
  -19.7458    1.3205  -15.1840 C   0  0  0  0  0  0  0  0  0  0  0  0
  -20.8395    0.4472  -14.9585 C   0  0  0  0  0  0  0  0  0  0  0  0
  -18.8210    3.5884  -15.2930 N   0  0  0  0  0  0  0  0  0  0  0  0
  -17.5412    3.1996  -15.6620 C   0  0  0  0  0  0  0  0  0  0  0  0
  -17.1515    2.0403  -15.7863 O   0  0  0  0  0  0  0  0  0  0  0  0
  -16.6821    4.2695  -15.8777 N   0  0  0  0  0  0  0  0  0  0  0  0
  -19.0284    4.5760  -15.2816 H   0  0  0  0  0  0  0  0  0  0  0  0
  -16.7754    5.0044  -15.1859 H   0  0  0  0  0  0  0  0  0  0  0  0
  -15.3438    3.9757  -16.2589 C   0  0  0  0  0  0  0  0  0  0  0  0
  -14.3562    3.6949  -15.2977 C   0  0  0  0  0  0  0  0  0  0  0  0
  -13.0222    3.4981  -15.6675 C   0  0  0  0  0  0  0  0  0  0  0  0
  -12.6702    3.6019  -17.0280 C   0  0  0  0  0  0  0  0  0  0  0  0
  -13.6471    3.8773  -17.9906 C   0  0  0  0  0  0  0  0  0  0  0  0
  -14.9711    4.0402  -17.6040 C   0  0  0  0  0  0  0  0  0  0  0  0
  -15.8975    4.3416  -18.5318 F   0  0  0  0  0  0  0  0  0  0  0  0
  -11.9571    3.1930  -14.6349 C   0  0  0  0  0  0  0  0  0  0  0  0
  -11.2577    4.2890  -14.2327 F   0  0  0  0  0  0  0  0  0  0  0  0
  -12.4869    2.6541  -13.5008 F   0  0  0  0  0  0  0  0  0  0  0  0
  -11.0348    2.2972  -15.0768 F   0  0  0  0  0  0  0  0  0  0  0  0
  -25.7729   -2.0576  -12.7938 N   0  0  0  0  0  0  0  0  0  0  0  0
  -26.5684   -1.4407  -11.8544 C   0  0  0  0  0  0  0  0  0  0  0  0
  -26.5593   -0.2419  -11.5933 O   0  0  0  0  0  0  0  0  0  0  0  0
  -27.3997   -2.3371  -11.2075 N   0  0  0  0  0  0  0  0  0  0  0  0
  -26.2265   -2.8035  -13.2996 H   0  0  0  0  0  0  0  0  0  0  0  0
  -27.1207   -3.3079  -11.2015 H   0  0  0  0  0  0  0  0  0  0  0  0
  -28.1494   -1.8493  -10.0663 C   0  0  0  0  0  0  0  0  0  0  0  0
  -27.8645   -2.6044   -8.7736 C   0  0  0  0  0  0  0  0  0  0  0  0
  -27.8753   -1.5804   -7.6324 C   0  0  0  0  0  0  0  0  0  0  0  0
  -27.4493   -2.0638   -6.3091 N   0  0  0  0  0  0  0  0  0  0  0  0
  -28.3247   -3.1128   -5.7427 C   0  0  0  0  0  0  0  0  0  0  0  0
  -29.7351   -2.6192   -5.3715 C   0  0  0  0  0  0  0  0  0  0  0  0
  -29.6930   -1.4926   -4.4841 O   0  0  0  0  0  0  0  0  0  0  0  0
  -28.8913   -0.4326   -5.0183 C   0  0  0  0  0  0  0  0  0  0  0  0
  -27.4675   -0.9283   -5.3430 C   0  0  0  0  0  0  0  0  0  0  0  0
  -23.6896    0.8144  -11.1472 N   0  0  0  0  0  0  0  0  0  0  0  0
  -23.2872   -0.2856  -11.8532 C   0  0  0  0  0  0  0  0  0  0  0  0
  -22.5709   -1.1148  -11.3070 O   0  0  0  0  0  0  0  0  0  0  0  0
  -23.2530    0.9432  -10.2444 H   0  0  0  0  0  0  0  0  0  0  0  0
  -24.1138    1.6080  -11.6009 H   0  0  0  0  0  0  0  0  0  0  0  0
 44 45  1  0  0  0
 44 47  1  0  0  0
 44 48  1  0  0  0
 45 46  2  0  0  0
 45  1  1  0  0  0
  1  2  1  0  0  0
  1  5  2  0  0  0
  2  6  1  0  0  0
  2  3  2  0  0  0
  6  7  1  0  0  0
  6 11  2  0  0  0
  7  8  2  0  0  0
  8  9  1  0  0  0
  9 12  1  0  0  0
  9 10  2  0  0  0
 12 13  1  0  0  0
 12 16  1  0  0  0
 13 14  2  0  0  0
 13 15  1  0  0  0
 15 18  1  0  0  0
 15 17  1  0  0  0
 18 19  1  0  0  0
 18 23  2  0  0  0
 19 20  2  0  0  0
 20 25  1  0  0  0
 20 21  1  0  0  0
 25 26  1  0  0  0
 25 27  1  0  0  0
 25 28  1  0  0  0
 21 22  2  0  0  0
 22 23  1  0  0  0
 23 24  1  0  0  0
 10 11  1  0  0  0
  3  4  1  0  0  0
  4  5  1  0  0  0
  5 29  1  0  0  0
 29 30  1  0  0  0
 29 33  1  0  0  0
 30 31  2  0  0  0
 30 32  1  0  0  0
 32 35  1  0  0  0
 32 34  1  0  0  0
 35 36  1  0  0  0
 36 37  1  0  0  0
 37 38  1  0  0  0
 38 39  1  0  0  0
 38 43  1  0  0  0
 39 40  1  0  0  0
 40 41  1  0  0  0
 41 42  1  0  0  0
 42 43  1  0  0  0
M  END
> <minimizedAffinity>
-8.70489

$$$$
