CHEMBL233208


 34 37  0  0  0  0  0  0  0  0999 V2000
  -28.4178   -3.4993   -7.8057 C   0  0  0  0  0  0  0  0  0  0  0  0
  -28.2784   -3.1336   -9.1164 N   0  0  0  0  0  0  0  0  0  0  0  0
  -27.8621   -1.8910   -9.3923 C   0  0  0  0  0  0  0  0  0  0  0  0
  -27.5472   -1.0016   -8.4405 N   0  0  0  0  0  0  0  0  0  0  0  0
  -27.6516   -1.3881   -7.1596 C   0  0  0  0  0  0  0  0  0  0  0  0
  -28.0697   -2.6374   -6.7723 C   0  0  0  0  0  0  0  0  0  0  0  0
  -28.0551   -2.9972   -5.0908 Cl  0  0  0  0  0  0  0  0  0  0  0  0
  -30.0882   -7.5021   -7.4021 C   0  0  0  0  0  0  0  0  0  0  0  0
  -28.8168   -7.2841   -7.9569 C   0  0  0  0  0  0  0  0  0  0  0  0
  -28.2798   -5.9934   -8.0643 C   0  0  0  0  0  0  0  0  0  0  0  0
  -28.9898   -4.8583   -7.6368 C   0  0  0  0  0  0  0  0  0  0  0  0
  -30.2701   -5.0845   -7.1106 C   0  0  0  0  0  0  0  0  0  0  0  0
  -30.7945   -6.3739   -6.9675 C   0  0  0  0  0  0  0  0  0  0  0  0
  -30.2115   -9.7658   -8.5086 C   0  0  0  0  0  0  0  0  0  0  0  0
  -30.6768   -8.9136   -7.3153 C   0  0  0  0  0  0  0  0  0  0  0  0
  -32.2152   -8.8362   -7.2852 C   0  0  0  0  0  0  0  0  0  0  0  0
  -30.2549   -9.6242   -6.0928 N   0  0  0  0  0  0  0  0  0  0  0  0
  -30.6356  -10.5682   -6.1000 H   0  0  0  0  0  0  0  0  0  0  0  0
  -30.6747   -9.1644   -5.2858 H   0  0  0  0  0  0  0  0  0  0  0  0
  -27.7450   -1.5226  -10.7318 N   0  0  0  0  0  0  0  0  0  0  0  0
  -28.5147   -0.9495  -11.0441 H   0  0  0  0  0  0  0  0  0  0  0  0
  -26.5613   -1.4686  -11.4859 C   0  0  0  0  0  0  0  0  0  0  0  0
  -25.3744   -0.9990  -10.9153 C   0  0  0  0  0  0  0  0  0  0  0  0
  -24.2417   -0.7700  -11.7131 C   0  0  0  0  0  0  0  0  0  0  0  0
  -24.2798   -1.0277  -13.0901 C   0  0  0  0  0  0  0  0  0  0  0  0
  -25.4409   -1.5680  -13.6418 C   0  0  0  0  0  0  0  0  0  0  0  0
  -26.5618   -1.7815  -12.8498 C   0  0  0  0  0  0  0  0  0  0  0  0
  -23.1730   -0.6096  -14.0221 C   0  0  0  0  0  0  0  0  0  0  0  0
  -22.2374    0.4841  -13.4923 C   0  0  0  0  0  0  0  0  0  0  0  0
  -21.6447    1.2525  -14.6024 N   0  0  0  0  0  0  0  0  0  0  0  0
  -20.3862    0.6655  -15.0812 C   0  0  0  0  0  0  0  0  0  0  0  0
  -19.2934    1.6106  -14.6199 C   0  0  0  0  0  0  0  0  0  0  0  0
  -19.9686    2.9596  -14.7113 C   0  0  0  0  0  0  0  0  0  0  0  0
  -21.3792    2.6578  -14.2408 C   0  0  0  0  0  0  0  0  0  0  0  0
 14 15  1  0  0  0
 15 16  1  0  0  0
 15 17  1  0  0  0
 15  8  1  0  0  0
 17 18  1  0  0  0
 17 19  1  0  0  0
  8  9  1  0  0  0
  8 13  2  0  0  0
  9 10  2  0  0  0
 10 11  1  0  0  0
 11  1  1  0  0  0
 11 12  2  0  0  0
  1  2  1  0  0  0
  1  6  2  0  0  0
  2  3  2  0  0  0
  3 20  1  0  0  0
  3  4  1  0  0  0
 20 22  1  0  0  0
 20 21  1  0  0  0
 22 23  1  0  0  0
 22 27  2  0  0  0
 23 24  2  0  0  0
 24 25  1  0  0  0
 25 28  1  0  0  0
 25 26  2  0  0  0
 28 29  1  0  0  0
 29 30  1  0  0  0
 30 31  1  0  0  0
 30 34  1  0  0  0
 31 32  1  0  0  0
 32 33  1  0  0  0
 33 34  1  0  0  0
 26 27  1  0  0  0
  4  5  2  0  0  0
  5  6  1  0  0  0
  6  7  1  0  0  0
 12 13  1  0  0  0
M  END
> <minimizedAffinity>
-10.12920

$$$$
