CHEMBL3979013


 35 38  0  0  0  0  0  0  0  0999 V2000
  -18.4026    1.9486  -15.4896 C   0  0  0  0  0  0  0  0  0  0  0  0
  -19.0465    3.1779  -15.6038 C   0  0  0  0  0  0  0  0  0  0  0  0
  -20.3099    3.3645  -15.0738 C   0  0  0  0  0  0  0  0  0  0  0  0
  -21.0441    2.3207  -14.5684 C   0  0  0  0  0  0  0  0  0  0  0  0
  -22.1674    2.6956  -13.9435 N   0  0  0  0  0  0  0  0  0  0  0  0
  -23.0397    1.7277  -13.6374 C   0  0  0  0  0  0  0  0  0  0  0  0
  -22.8421    0.4178  -14.0239 C   0  0  0  0  0  0  0  0  0  0  0  0
  -21.6161    0.0052  -14.5149 N   0  0  0  0  0  0  0  0  0  0  0  0
  -20.6265    0.9836  -14.7519 C   0  0  0  0  0  0  0  0  0  0  0  0
  -19.2268    0.8431  -15.1517 C   0  0  0  0  0  0  0  0  0  0  0  0
  -24.0734   -0.3657  -14.2049 C   0  0  0  0  0  0  0  0  0  0  0  0
  -24.7936   -0.8414  -15.3253 C   0  0  0  0  0  0  0  0  0  0  0  0
  -25.8270   -1.6360  -14.9929 N   0  0  0  0  0  0  0  0  0  0  0  0
  -25.7791   -1.6833  -13.6463 N   0  0  0  0  0  0  0  0  0  0  0  0
  -24.6634   -1.0579  -13.1513 C   0  0  0  0  0  0  0  0  0  0  0  0
  -26.9360   -2.1028  -12.8503 C   0  0  0  0  0  0  0  0  0  0  0  0
  -27.0951   -1.1684  -11.6490 C   0  0  0  0  0  0  0  0  0  0  0  0
  -28.2610   -2.2230  -13.6091 C   0  0  0  0  0  0  0  0  0  0  0  0
  -16.9525    2.0324  -15.5495 N   0  0  0  0  0  0  0  0  0  0  0  0
  -15.3965   -0.3371  -13.0749 C   0  0  0  0  0  0  0  0  0  0  0  0
  -14.2512   -0.7424  -13.7591 C   0  0  0  0  0  0  0  0  0  0  0  0
  -13.9596   -0.1947  -15.0061 C   0  0  0  0  0  0  0  0  0  0  0  0
  -14.8158    0.7700  -15.5623 C   0  0  0  0  0  0  0  0  0  0  0  0
  -15.9761    1.2181  -14.9084 C   0  0  0  0  0  0  0  0  0  0  0  0
  -16.2364    0.6544  -13.6390 C   0  0  0  0  0  0  0  0  0  0  0  0
  -15.6141   -2.2631  -11.6639 C   0  0  0  0  0  0  0  0  0  0  0  0
  -15.8021   -0.8632  -11.8631 O   0  0  0  0  0  0  0  0  0  0  0  0
  -12.8925   -0.5385  -15.7943 O   0  0  0  0  0  0  0  0  0  0  0  0
  -13.1604   -0.8419  -17.1596 C   0  0  0  0  0  0  0  0  0  0  0  0
  -16.5956    3.4966  -15.7020 C   0  0  0  0  0  0  0  0  0  0  0  0
  -15.8252    3.9442  -16.9611 C   0  0  0  0  0  0  0  0  0  0  0  0
  -14.4270    4.5439  -16.8116 C   0  0  0  0  0  0  0  0  0  0  0  0
  -14.1192    5.0255  -15.4680 N   0  0  0  0  0  0  0  0  0  0  0  0
  -14.6099    5.9079  -15.3065 H   0  0  0  0  0  0  0  0  0  0  0  0
  -13.1277    5.2601  -15.4116 H   0  0  0  0  0  0  0  0  0  0  0  0
 26 27  1  0  0  0
 27 20  1  0  0  0
 20 21  1  0  0  0
 20 25  2  0  0  0
 21 22  2  0  0  0
 22 28  1  0  0  0
 22 23  1  0  0  0
 28 29  1  0  0  0
 23 24  2  0  0  0
 24 19  1  0  0  0
 24 25  1  0  0  0
 19 30  1  0  0  0
 19  1  1  0  0  0
 30 31  1  0  0  0
 31 32  1  0  0  0
 32 33  1  0  0  0
 33 34  1  0  0  0
 33 35  1  0  0  0
  1  2  1  0  0  0
  1 10  2  0  0  0
  2  3  2  0  0  0
  3  4  1  0  0  0
  4  5  1  0  0  0
  4  9  2  0  0  0
  5  6  2  0  0  0
  6  7  1  0  0  0
  7 11  1  0  0  0
  7  8  2  0  0  0
 11 12  1  0  0  0
 11 15  2  0  0  0
 12 13  2  0  0  0
 13 14  1  0  0  0
 14 16  1  0  0  0
 14 15  1  0  0  0
 16 17  1  0  0  0
 16 18  1  0  0  0
  8  9  1  0  0  0
  9 10  1  0  0  0
M  END
> <minimizedAffinity>
-9.27548

$$$$
