CHEMBL3747273


 32 36  0  0  0  0  0  0  0  0999 V2000
  -26.1084   -9.3115   -5.0736 N   0  0  0  0  0  0  0  0  0  0  0  0
  -27.3409   -9.9187   -5.0029 C   0  0  0  0  0  0  0  0  0  0  0  0
  -27.6361  -11.0591   -4.6786 O   0  0  0  0  0  0  0  0  0  0  0  0
  -28.3628   -9.1008   -5.5381 N   0  0  0  0  0  0  0  0  0  0  0  0
  -29.3931   -9.6187   -6.3067 C   0  0  0  0  0  0  0  0  0  0  0  0
  -30.2412   -8.6116   -6.6829 C   0  0  0  0  0  0  0  0  0  0  0  0
  -29.7876   -7.4276   -6.0592 C   0  0  0  0  0  0  0  0  0  0  0  0
  -30.3309   -6.1258   -5.9934 C   0  0  0  0  0  0  0  0  0  0  0  0
  -29.7118   -5.1554   -5.2066 C   0  0  0  0  0  0  0  0  0  0  0  0
  -28.5016   -5.4536   -4.5725 C   0  0  0  0  0  0  0  0  0  0  0  0
  -27.9364   -6.7380   -4.6273 C   0  0  0  0  0  0  0  0  0  0  0  0
  -28.5984   -7.7268   -5.3788 C   0  0  0  0  0  0  0  0  0  0  0  0
  -25.9999   -8.4389   -5.5701 H   0  0  0  0  0  0  0  0  0  0  0  0
  -22.9819  -10.9661   -4.7193 C   0  0  0  0  0  0  0  0  0  0  0  0
  -23.9991  -10.5376   -5.5412 C   0  0  0  0  0  0  0  0  0  0  0  0
  -24.9485   -9.9537   -4.6658 C   0  0  0  0  0  0  0  0  0  0  0  0
  -24.5512  -10.0873   -3.3977 N   0  0  0  0  0  0  0  0  0  0  0  0
  -23.3280  -10.7169   -3.4297 O   0  0  0  0  0  0  0  0  0  0  0  0
  -21.1987  -12.3891   -3.7514 C   0  0  0  0  0  0  0  0  0  0  0  0
  -21.6272  -11.5436   -4.9534 C   0  0  0  0  0  0  0  0  0  0  0  0
  -21.5618  -12.3657   -6.2393 C   0  0  0  0  0  0  0  0  0  0  0  0
  -30.3795   -3.9442   -5.1419 O   0  0  0  0  0  0  0  0  0  0  0  0
  -29.6637   -2.8120   -5.4830 C   0  0  0  0  0  0  0  0  0  0  0  0
  -29.2641   -1.9723   -4.5049 N   0  0  0  0  0  0  0  0  0  0  0  0
  -28.3143   -1.0799   -4.8460 C   0  0  0  0  0  0  0  0  0  0  0  0
  -27.7079   -0.9811   -6.0416 N   0  0  0  0  0  0  0  0  0  0  0  0
  -28.2042   -1.8091   -6.9698 C   0  0  0  0  0  0  0  0  0  0  0  0
  -29.2332   -2.6957   -6.7676 C   0  0  0  0  0  0  0  0  0  0  0  0
  -29.4764   -3.4744   -7.9984 C   0  0  0  0  0  0  0  0  0  0  0  0
  -28.1530   -3.4724   -8.6745 N   0  0  0  0  0  0  0  0  0  0  0  0
  -27.5694   -2.1421   -8.2977 C   0  0  0  0  0  0  0  0  0  0  0  0
  -27.5924   -4.1755   -8.1867 H   0  0  0  0  0  0  0  0  0  0  0  0
 19 20  1  0  0  0
 20 21  1  0  0  0
 20 14  1  0  0  0
 14 15  2  0  0  0
 14 18  1  0  0  0
 15 16  1  0  0  0
 16  1  1  0  0  0
 16 17  2  0  0  0
  1  2  1  0  0  0
  1 13  1  0  0  0
  2  3  2  0  0  0
  2  4  1  0  0  0
  4  5  1  0  0  0
  4 12  1  0  0  0
  5  6  2  0  0  0
  6  7  1  0  0  0
  7  8  1  0  0  0
  7 12  2  0  0  0
  8  9  2  0  0  0
  9 22  1  0  0  0
  9 10  1  0  0  0
 22 23  1  0  0  0
 23 24  1  0  0  0
 23 28  2  0  0  0
 24 25  2  0  0  0
 25 26  1  0  0  0
 26 27  2  0  0  0
 27 28  1  0  0  0
 27 31  1  0  0  0
 28 29  1  0  0  0
 29 30  1  0  0  0
 30 31  1  0  0  0
 30 32  1  0  0  0
 10 11  2  0  0  0
 11 12  1  0  0  0
 17 18  1  0  0  0
M  END
> <minimizedAffinity>
-9.03119

$$$$
