CHEMBL234452


 30 33  0  0  0  0  0  0  0  0999 V2000
  -15.6105   -0.0029  -13.5692 C   0  0  0  0  0  0  0  0  0  0  0  0
  -14.4928   -0.2295  -14.2727 N   0  0  0  0  0  0  0  0  0  0  0  0
  -14.2988    0.5311  -15.3796 C   0  0  0  0  0  0  0  0  0  0  0  0
  -15.1707    1.4972  -15.8277 C   0  0  0  0  0  0  0  0  0  0  0  0
  -14.8462    2.3924  -17.2525 Cl  0  0  0  0  0  0  0  0  0  0  0  0
  -16.2857    1.6490  -15.0442 C   0  0  0  0  0  0  0  0  0  0  0  0
  -16.4909    0.9365  -13.9142 N   0  0  0  0  0  0  0  0  0  0  0  0
  -17.4668    2.4088  -15.4276 C   0  0  0  0  0  0  0  0  0  0  0  0
  -17.4970    3.7916  -15.4231 C   0  0  0  0  0  0  0  0  0  0  0  0
  -18.8118    4.1706  -15.5012 N   0  0  0  0  0  0  0  0  0  0  0  0
  -19.5957    3.1059  -15.1178 C   0  0  0  0  0  0  0  0  0  0  0  0
  -20.8825    3.0599  -14.5763 C   0  0  0  0  0  0  0  0  0  0  0  0
  -21.4260    1.7948  -14.3302 C   0  0  0  0  0  0  0  0  0  0  0  0
  -20.7486    0.6358  -14.7038 C   0  0  0  0  0  0  0  0  0  0  0  0
  -19.4443    0.7024  -15.2018 C   0  0  0  0  0  0  0  0  0  0  0  0
  -18.8254    1.9622  -15.3254 C   0  0  0  0  0  0  0  0  0  0  0  0
  -19.1450    5.1172  -15.6233 H   0  0  0  0  0  0  0  0  0  0  0  0
  -15.8624   -0.8421  -12.4793 N   0  0  0  0  0  0  0  0  0  0  0  0
  -15.7279   -0.3141  -11.6271 H   0  0  0  0  0  0  0  0  0  0  0  0
  -15.4032   -5.0479  -12.0495 C   0  0  0  0  0  0  0  0  0  0  0  0
  -15.3774   -4.1884  -10.9458 C   0  0  0  0  0  0  0  0  0  0  0  0
  -15.5629   -2.8102  -11.0959 C   0  0  0  0  0  0  0  0  0  0  0  0
  -15.7504   -2.2328  -12.3726 C   0  0  0  0  0  0  0  0  0  0  0  0
  -15.8237   -3.1218  -13.4628 C   0  0  0  0  0  0  0  0  0  0  0  0
  -15.6400   -4.4980  -13.3133 C   0  0  0  0  0  0  0  0  0  0  0  0
  -15.1348   -6.5297  -11.9079 C   0  0  0  0  0  0  0  0  0  0  0  0
  -15.3212   -7.3048  -13.2244 C   0  0  0  0  0  0  0  0  0  0  0  0
  -13.3472   -8.0320  -14.3919 C   0  0  0  0  0  0  0  0  0  0  0  0
  -14.3641   -8.4163  -13.4083 N   0  0  0  0  0  0  0  0  0  0  0  0
  -13.7160   -8.8056  -12.1547 C   0  0  0  0  0  0  0  0  0  0  0  0
 28 29  1  0  0  0
 29 30  1  0  0  0
 29 27  1  0  0  0
 27 26  1  0  0  0
 26 20  1  0  0  0
 20 21  1  0  0  0
 20 25  2  0  0  0
 21 22  2  0  0  0
 22 23  1  0  0  0
 23 18  1  0  0  0
 23 24  2  0  0  0
 18  1  1  0  0  0
 18 19  1  0  0  0
  1  2  1  0  0  0
  1  7  2  0  0  0
  2  3  2  0  0  0
  3  4  1  0  0  0
  4  5  1  0  0  0
  4  6  2  0  0  0
  6  8  1  0  0  0
  6  7  1  0  0  0
  8  9  2  0  0  0
  8 16  1  0  0  0
  9 10  1  0  0  0
 10 11  1  0  0  0
 10 17  1  0  0  0
 11 12  1  0  0  0
 11 16  2  0  0  0
 12 13  2  0  0  0
 13 14  1  0  0  0
 14 15  2  0  0  0
 15 16  1  0  0  0
 24 25  1  0  0  0
M  END
> <minimizedAffinity>
-9.01521

$$$$
