CHEMBL402042


 38 42  0  0  0  0  0  0  0  0999 V2000
  -19.7018    1.5731  -15.2549 C   0  0  0  0  0  0  0  0  0  0  0  0
  -20.0555    0.2318  -15.0723 C   0  0  0  0  0  0  0  0  0  0  0  0
  -21.1940   -0.1091  -14.3335 C   0  0  0  0  0  0  0  0  0  0  0  0
  -21.9779    0.8922  -13.7510 C   0  0  0  0  0  0  0  0  0  0  0  0
  -21.6560    2.2253  -13.9962 C   0  0  0  0  0  0  0  0  0  0  0  0
  -22.4477    3.2059  -13.5343 F   0  0  0  0  0  0  0  0  0  0  0  0
  -20.5299    2.5699  -14.7377 C   0  0  0  0  0  0  0  0  0  0  0  0
  -18.5817    1.8613  -16.0605 N   0  0  0  0  0  0  0  0  0  0  0  0
  -18.6969    1.7007  -17.0613 H   0  0  0  0  0  0  0  0  0  0  0  0
  -17.3518    2.3490  -15.6922 C   0  0  0  0  0  0  0  0  0  0  0  0
  -16.8663    3.9506  -15.6561 S   0  0  0  0  0  0  0  0  0  0  0  0
  -17.0743    0.9364  -13.1212 O   0  0  0  0  0  0  0  0  0  0  0  0
  -16.3902    0.6754  -14.1092 C   0  0  0  0  0  0  0  0  0  0  0  0
  -16.4292    1.4081  -15.2898 N   0  0  0  0  0  0  0  0  0  0  0  0
  -15.7531    1.1696  -16.0053 H   0  0  0  0  0  0  0  0  0  0  0  0
  -15.4240   -0.4969  -14.1453 C   0  0  0  0  0  0  0  0  0  0  0  0
  -15.7612   -1.6591  -13.2389 C   0  0  0  0  0  0  0  0  0  0  0  0
  -16.1133   -2.9204  -13.7394 C   0  0  0  0  0  0  0  0  0  0  0  0
  -16.3562   -3.9873  -12.8709 C   0  0  0  0  0  0  0  0  0  0  0  0
  -16.2301   -3.8160  -11.4946 C   0  0  0  0  0  0  0  0  0  0  0  0
  -15.8610   -2.5750  -10.9836 C   0  0  0  0  0  0  0  0  0  0  0  0
  -15.6262   -1.5050  -11.8491 C   0  0  0  0  0  0  0  0  0  0  0  0
  -23.0955    0.6477  -12.9854 O   0  0  0  0  0  0  0  0  0  0  0  0
  -24.1056   -0.1331  -13.4939 C   0  0  0  0  0  0  0  0  0  0  0  0
  -24.1890   -0.5050  -14.8357 C   0  0  0  0  0  0  0  0  0  0  0  0
  -25.2757   -1.2433  -15.2607 C   0  0  0  0  0  0  0  0  0  0  0  0
  -26.2552   -1.7051  -14.4652 N   0  0  0  0  0  0  0  0  0  0  0  0
  -26.1134   -1.4364  -13.1395 C   0  0  0  0  0  0  0  0  0  0  0  0
  -26.9802   -1.9197  -12.1183 C   0  0  0  0  0  0  0  0  0  0  0  0
  -26.5751   -1.5654  -10.8447 C   0  0  0  0  0  0  0  0  0  0  0  0
  -25.2113   -0.5245  -10.9183 S   0  0  0  0  0  0  0  0  0  0  0  0
  -25.0722   -0.6658  -12.6260 C   0  0  0  0  0  0  0  0  0  0  0  0
  -27.1624   -1.9572   -9.5542 C   0  0  0  0  0  0  0  0  0  0  0  0
  -27.4005   -1.0088   -8.5518 C   0  0  0  0  0  0  0  0  0  0  0  0
  -28.0067   -1.3874   -7.3536 C   0  0  0  0  0  0  0  0  0  0  0  0
  -28.3616   -2.7142   -7.1857 C   0  0  0  0  0  0  0  0  0  0  0  0
  -28.1525   -3.6646   -8.1180 N   0  0  0  0  0  0  0  0  0  0  0  0
  -27.5633   -3.2648   -9.2738 C   0  0  0  0  0  0  0  0  0  0  0  0
 12 13  2  0  0  0
 13 16  1  0  0  0
 13 14  1  0  0  0
 16 17  1  0  0  0
 17 18  1  0  0  0
 17 22  2  0  0  0
 18 19  2  0  0  0
 19 20  1  0  0  0
 20 21  2  0  0  0
 21 22  1  0  0  0
 14 10  1  0  0  0
 14 15  1  0  0  0
 10 11  2  0  0  0
 10  8  1  0  0  0
  8  1  1  0  0  0
  8  9  1  0  0  0
  1  2  1  0  0  0
  1  7  2  0  0  0
  2  3  2  0  0  0
  3  4  1  0  0  0
  4 23  1  0  0  0
  4  5  2  0  0  0
 23 24  1  0  0  0
 24 25  1  0  0  0
 24 32  2  0  0  0
 25 26  2  0  0  0
 26 27  1  0  0  0
 27 28  2  0  0  0
 28 29  1  0  0  0
 28 32  1  0  0  0
 29 30  2  0  0  0
 30 33  1  0  0  0
 30 31  1  0  0  0
 33 34  1  0  0  0
 33 38  2  0  0  0
 34 35  2  0  0  0
 35 36  1  0  0  0
 36 37  2  0  0  0
 37 38  1  0  0  0
 31 32  1  0  0  0
  5  6  1  0  0  0
  5  7  1  0  0  0
M  END
> <minimizedAffinity>
-8.81275

$$$$
