CHEMBL3939018


 36 40  0  0  0  0  0  0  0  0999 V2000
  -29.1680   -5.2755   -6.1870 C   0  0  0  0  0  0  0  0  0  0  0  0
  -28.7753   -5.5856   -7.4448 C   0  0  0  0  0  0  0  0  0  0  0  0
  -28.4369   -4.5674   -8.2454 C   0  0  0  0  0  0  0  0  0  0  0  0
  -28.2289   -3.2884   -7.8654 C   0  0  0  0  0  0  0  0  0  0  0  0
  -27.1476   -3.0505   -8.4906 N   0  0  0  0  0  0  0  0  0  0  0  0
  -27.3377   -2.3586   -9.5857 C   0  0  0  0  0  0  0  0  0  0  0  0
  -27.4191   -1.0276   -9.5492 C   0  0  0  0  0  0  0  0  0  0  0  0
  -28.1381   -1.1397   -8.0636 N   0  0  0  0  0  0  0  0  0  0  0  0
  -28.6233   -2.4497   -6.9541 C   0  0  0  0  0  0  0  0  0  0  0  0
  -29.1026   -3.7722   -5.8660 C   0  0  0  0  0  0  0  0  0  0  0  0
  -26.5569   -1.1058  -11.1668 C   0  0  0  0  0  0  0  0  0  0  0  0
  -26.9453   -1.5745  -12.5706 C   0  0  0  0  0  0  0  0  0  0  0  0
  -26.0659   -1.5666  -13.6094 N   0  0  0  0  0  0  0  0  0  0  0  0
  -24.9148   -1.1362  -13.0703 N   0  0  0  0  0  0  0  0  0  0  0  0
  -25.1921   -0.8903  -11.6180 C   0  0  0  0  0  0  0  0  0  0  0  0
  -23.6570   -0.9612  -13.9269 C   0  0  0  0  0  0  0  0  0  0  0  0
  -22.8328    0.2605  -13.5052 C   0  0  0  0  0  0  0  0  0  0  0  0
  -23.6388    1.5554  -13.6468 C   0  0  0  0  0  0  0  0  0  0  0  0
  -22.7301    2.7585  -13.5336 C   0  0  0  0  0  0  0  0  0  0  0  0
  -21.6187    2.6593  -14.4256 O   0  0  0  0  0  0  0  0  0  0  0  0
  -20.7834    1.5352  -14.1566 C   0  0  0  0  0  0  0  0  0  0  0  0
  -21.5418    0.2501  -14.3303 C   0  0  0  0  0  0  0  0  0  0  0  0
  -29.7032   -6.3695   -5.4318 N   0  0  0  0  0  0  0  0  0  0  0  0
  -29.9381   -7.6395   -5.9828 C   0  0  0  0  0  0  0  0  0  0  0  0
  -29.0290   -8.6782   -5.7494 C   0  0  0  0  0  0  0  0  0  0  0  0
  -29.2855   -9.9949   -6.0720 C   0  0  0  0  0  0  0  0  0  0  0  0
  -30.5155  -10.2964   -6.6244 C   0  0  0  0  0  0  0  0  0  0  0  0
  -31.4787   -9.3042   -6.8100 C   0  0  0  0  0  0  0  0  0  0  0  0
  -31.1339   -7.9633   -6.6186 C   0  0  0  0  0  0  0  0  0  0  0  0
  -28.4325  -11.0282   -5.8044 O   0  0  0  0  0  0  0  0  0  0  0  0
  -27.0367  -10.7242   -5.8882 C   0  0  0  0  0  0  0  0  0  0  0  0
  -32.7912   -9.5734   -7.1027 O   0  0  0  0  0  0  0  0  0  0  0  0
  -33.2709  -10.8487   -6.6641 C   0  0  0  0  0  0  0  0  0  0  0  0
  -29.8246   -6.1922   -3.8959 C   0  0  0  0  0  0  0  0  0  0  0  0
  -32.2658   -5.0422   -3.2270 C   0  0  0  0  0  0  0  0  0  0  0  0
  -31.1842   -5.5528   -3.5283 C   0  0  0  0  0  0  0  0  0  0  0  0
 35 36  3  0  0  0
 36 34  1  0  0  0
 34 23  1  0  0  0
 23 24  1  0  0  0
 23  1  1  0  0  0
 24 25  1  0  0  0
 24 29  2  0  0  0
 25 26  2  0  0  0
 26 30  1  0  0  0
 26 27  1  0  0  0
 30 31  1  0  0  0
 27 28  2  0  0  0
 28 32  1  0  0  0
 28 29  1  0  0  0
 32 33  1  0  0  0
  1  2  1  0  0  0
  1 10  2  0  0  0
  2  3  2  0  0  0
  3  4  1  0  0  0
  4  5  1  0  0  0
  4  9  2  0  0  0
  5  6  2  0  0  0
  6  7  1  0  0  0
  7 11  1  0  0  0
  7  8  2  0  0  0
 11 12  1  0  0  0
 11 15  2  0  0  0
 12 13  2  0  0  0
 13 14  1  0  0  0
 14 16  1  0  0  0
 14 15  1  0  0  0
 16 17  1  0  0  0
 17 18  1  0  0  0
 17 22  1  0  0  0
 18 19  1  0  0  0
 19 20  1  0  0  0
 20 21  1  0  0  0
 21 22  1  0  0  0
  8  9  1  0  0  0
  9 10  1  0  0  0
M  END
> <minimizedAffinity>
-8.73353

$$$$
