CHEMBL4460817


 34 37  0  0  0  0  0  0  0  0999 V2000
  -21.7449    0.7908  -14.4675 C   0  0  0  0  0  0  0  0  0  0  0  0
  -20.7486    0.0765  -15.1280 C   0  0  0  0  0  0  0  0  0  0  0  0
  -19.4830    0.6288  -15.3275 C   0  0  0  0  0  0  0  0  0  0  0  0
  -19.1911    1.9378  -14.9356 C   0  0  0  0  0  0  0  0  0  0  0  0
  -20.1853    2.6580  -14.2654 C   0  0  0  0  0  0  0  0  0  0  0  0
  -21.4593    2.0962  -14.0509 C   0  0  0  0  0  0  0  0  0  0  0  0
  -22.5922   -0.6843  -12.0833 O   0  0  0  0  0  0  0  0  0  0  0  0
  -23.3360   -0.4664  -13.0360 C   0  0  0  0  0  0  0  0  0  0  0  0
  -23.0167    0.2327  -14.1929 N   0  0  0  0  0  0  0  0  0  0  0  0
  -23.7750    0.5035  -14.8055 H   0  0  0  0  0  0  0  0  0  0  0  0
  -24.7355   -0.9387  -12.9023 C   0  0  0  0  0  0  0  0  0  0  0  0
  -25.3568   -1.4542  -14.0507 C   0  0  0  0  0  0  0  0  0  0  0  0
  -26.6901   -1.8537  -14.0124 C   0  0  0  0  0  0  0  0  0  0  0  0
  -27.4012   -1.7244  -12.8249 C   0  0  0  0  0  0  0  0  0  0  0  0
  -28.6876   -2.0924  -12.7867 F   0  0  0  0  0  0  0  0  0  0  0  0
  -26.8016   -1.2039  -11.6795 C   0  0  0  0  0  0  0  0  0  0  0  0
  -25.4609   -0.8061  -11.7116 C   0  0  0  0  0  0  0  0  0  0  0  0
  -17.9212    2.5188  -15.1941 N   0  0  0  0  0  0  0  0  0  0  0  0
  -17.9455    3.5337  -15.0542 H   0  0  0  0  0  0  0  0  0  0  0  0
  -16.6731    1.9593  -14.7880 C   0  0  0  0  0  0  0  0  0  0  0  0
  -16.6685    1.0336  -13.7280 C   0  0  0  0  0  0  0  0  0  0  0  0
  -15.4781    0.5484  -13.2180 C   0  0  0  0  0  0  0  0  0  0  0  0
  -14.2905    0.9178  -13.8503 C   0  0  0  0  0  0  0  0  0  0  0  0
  -14.2315    1.6885  -15.0094 C   0  0  0  0  0  0  0  0  0  0  0  0
  -13.0663    1.8691  -15.6681 N   0  0  0  0  0  0  0  0  0  0  0  0
  -13.0656    2.6428  -16.7558 C   0  0  0  0  0  0  0  0  0  0  0  0
  -14.1149    3.3132  -17.2268 N   0  0  0  0  0  0  0  0  0  0  0  0
  -15.2571    3.0985  -16.5566 C   0  0  0  0  0  0  0  0  0  0  0  0
  -16.2760    3.8627  -17.0396 O   0  0  0  0  0  0  0  0  0  0  0  0
  -15.4375    2.2526  -15.4589 C   0  0  0  0  0  0  0  0  0  0  0  0
  -15.7870    4.3881  -17.7008 H   0  0  0  0  0  0  0  0  0  0  0  0
  -13.0542    0.5194  -13.2180 N   0  0  0  0  0  0  0  0  0  0  0  0
  -12.7220   -0.6689  -13.3286 O   0  0  0  0  0  0  0  0  0  0  0  0
  -12.4688    1.3683  -12.5267 O   0  0  0  0  0  0  0  0  0  0  0  0
  7  8  2  0  0  0
  8  9  1  0  0  0
  8 11  1  0  0  0
  9  1  1  0  0  0
  9 10  1  0  0  0
  1  2  1  0  0  0
  1  6  2  0  0  0
  2  3  2  0  0  0
  3  4  1  0  0  0
  4 18  1  0  0  0
  4  5  2  0  0  0
 18 20  1  0  0  0
 18 19  1  0  0  0
 20 21  1  0  0  0
 20 30  2  0  0  0
 21 22  2  0  0  0
 22 23  1  0  0  0
 23 32  1  0  0  0
 23 24  2  0  0  0
 32 33  2  0  0  0
 32 34  1  0  0  0
 24 25  1  0  0  0
 24 30  1  0  0  0
 25 26  2  0  0  0
 26 27  1  0  0  0
 27 28  2  0  0  0
 28 29  1  0  0  0
 28 30  1  0  0  0
 29 31  1  0  0  0
  5  6  1  0  0  0
 11 12  1  0  0  0
 11 17  2  0  0  0
 12 13  2  0  0  0
 13 14  1  0  0  0
 14 15  1  0  0  0
 14 16  2  0  0  0
 16 17  1  0  0  0
M  CHG 1  32   1
M  CHG 1  34  -1
M  END
> <minimizedAffinity>
-10.00326

$$$$
