CHEMBL199383


 28 31  0  0  0  0  0  0  0  0999 V2000
  -18.4917    1.7582  -15.0041 C   0  0  0  0  0  0  0  0  0  0  0  0
  -19.4871    0.8392  -14.5816 C   0  0  0  0  0  0  0  0  0  0  0  0
  -20.7422    1.4637  -14.3729 C   0  0  0  0  0  0  0  0  0  0  0  0
  -22.0425    1.2943  -13.9960 C   0  0  0  0  0  0  0  0  0  0  0  0
  -22.5570    2.5977  -14.1100 N   0  0  0  0  0  0  0  0  0  0  0  0
  -21.6521    3.5320  -14.5422 N   0  0  0  0  0  0  0  0  0  0  0  0
  -20.5863    2.8004  -14.6776 C   0  0  0  0  0  0  0  0  0  0  0  0
  -19.0599    3.4422  -15.1957 S   0  0  0  0  0  0  0  0  0  0  0  0
  -23.4974    2.9064  -13.8884 H   0  0  0  0  0  0  0  0  0  0  0  0
  -22.8301    0.1610  -13.5228 C   0  0  0  0  0  0  0  0  0  0  0  0
  -23.8881   -0.3426  -14.2919 C   0  0  0  0  0  0  0  0  0  0  0  0
  -24.6196   -1.4534  -13.8592 C   0  0  0  0  0  0  0  0  0  0  0  0
  -24.3041   -2.0722  -12.6517 C   0  0  0  0  0  0  0  0  0  0  0  0
  -23.2644   -1.5760  -11.8711 C   0  0  0  0  0  0  0  0  0  0  0  0
  -22.5338   -0.4649  -12.3028 C   0  0  0  0  0  0  0  0  0  0  0  0
  -16.4989    0.5421  -14.4152 N   0  0  0  0  0  0  0  0  0  0  0  0
  -17.0932    1.4297  -15.2845 C   0  0  0  0  0  0  0  0  0  0  0  0
  -16.4830    1.9135  -16.2347 O   0  0  0  0  0  0  0  0  0  0  0  0
  -17.0482    0.1907  -13.6409 H   0  0  0  0  0  0  0  0  0  0  0  0
  -15.1163    0.1451  -14.5115 C   0  0  0  0  0  0  0  0  0  0  0  0
  -14.2594   -3.1532  -11.8444 C   0  0  0  0  0  0  0  0  0  0  0  0
  -15.4567   -2.4477  -11.7363 C   0  0  0  0  0  0  0  0  0  0  0  0
  -15.7174   -1.3658  -12.5860 C   0  0  0  0  0  0  0  0  0  0  0  0
  -14.7931   -0.9830  -13.5671 C   0  0  0  0  0  0  0  0  0  0  0  0
  -13.5782   -1.6753  -13.6489 C   0  0  0  0  0  0  0  0  0  0  0  0
  -13.3188   -2.7543  -12.7978 C   0  0  0  0  0  0  0  0  0  0  0  0
  -14.4290   -4.2993   -9.7713 C   0  0  0  0  0  0  0  0  0  0  0  0
  -13.8962   -4.2353  -11.0895 O   0  0  0  0  0  0  0  0  0  0  0  0
 27 28  1  0  0  0
 28 21  1  0  0  0
 21 22  1  0  0  0
 21 26  2  0  0  0
 22 23  2  0  0  0
 23 24  1  0  0  0
 24 20  1  0  0  0
 24 25  2  0  0  0
 20 16  1  0  0  0
 16 17  1  0  0  0
 16 19  1  0  0  0
 17 18  2  0  0  0
 17  1  1  0  0  0
  1  2  2  0  0  0
  1  8  1  0  0  0
  2  3  1  0  0  0
  3  4  2  0  0  0
  3  7  1  0  0  0
  4 10  1  0  0  0
  4  5  1  0  0  0
 10 11  1  0  0  0
 10 15  2  0  0  0
 11 12  2  0  0  0
 12 13  1  0  0  0
 13 14  2  0  0  0
 14 15  1  0  0  0
  5  6  1  0  0  0
  5  9  1  0  0  0
  6  7  2  0  0  0
  7  8  1  0  0  0
 25 26  1  0  0  0
M  END
> <minimizedAffinity>
-9.64674

$$$$
