CHEMBL460191


 26 28  0  0  0  0  0  0  0  0999 V2000
  -28.8223   -7.7444   -4.4695 C   0  0  0  0  0  0  0  0  0  0  0  0
  -28.8983   -8.4998   -3.3594 N   0  0  0  0  0  0  0  0  0  0  0  0
  -28.2028   -9.9696   -3.6379 S   0  0  0  0  0  0  0  0  0  0  0  0
  -27.8066   -9.6789   -5.2665 C   0  0  0  0  0  0  0  0  0  0  0  0
  -28.2489   -8.4228   -5.6339 C   0  0  0  0  0  0  0  0  0  0  0  0
  -28.4584   -5.4113   -5.0016 N   0  0  0  0  0  0  0  0  0  0  0  0
  -29.2749   -6.3414   -4.3830 C   0  0  0  0  0  0  0  0  0  0  0  0
  -30.3161   -6.0353   -3.8188 O   0  0  0  0  0  0  0  0  0  0  0  0
  -27.6730   -5.7834   -5.5311 H   0  0  0  0  0  0  0  0  0  0  0  0
  -29.5856    0.2160   -5.2057 C   0  0  0  0  0  0  0  0  0  0  0  0
  -29.2594   -1.2460   -5.1693 C   0  0  0  0  0  0  0  0  0  0  0  0
  -28.3547   -1.7396   -4.2287 C   0  0  0  0  0  0  0  0  0  0  0  0
  -28.0705   -3.1053   -4.1682 C   0  0  0  0  0  0  0  0  0  0  0  0
  -28.6842   -4.0136   -5.0384 C   0  0  0  0  0  0  0  0  0  0  0  0
  -29.5685   -3.5058   -5.9917 C   0  0  0  0  0  0  0  0  0  0  0  0
  -30.1705   -4.3418   -6.8540 F   0  0  0  0  0  0  0  0  0  0  0  0
  -29.8617   -2.1417   -6.0608 C   0  0  0  0  0  0  0  0  0  0  0  0
  -28.0501   -7.9983   -6.9208 N   0  0  0  0  0  0  0  0  0  0  0  0
  -27.3035   -8.4045   -7.4745 H   0  0  0  0  0  0  0  0  0  0  0  0
  -29.0740   -7.3941   -7.7695 C   0  0  0  0  0  0  0  0  0  0  0  0
  -30.3794   -8.1648   -7.7719 C   0  0  0  0  0  0  0  0  0  0  0  0
  -30.5443   -9.3887   -8.4299 C   0  0  0  0  0  0  0  0  0  0  0  0
  -31.7907   -9.9977   -8.4189 C   0  0  0  0  0  0  0  0  0  0  0  0
  -32.8752   -9.4883   -7.7978 N   0  0  0  0  0  0  0  0  0  0  0  0
  -32.7073   -8.3000   -7.1821 C   0  0  0  0  0  0  0  0  0  0  0  0
  -31.5018   -7.6134   -7.1375 C   0  0  0  0  0  0  0  0  0  0  0  0
 10 11  1  0  0  0
 11 12  1  0  0  0
 11 17  2  0  0  0
 12 13  2  0  0  0
 13 14  1  0  0  0
 14  6  1  0  0  0
 14 15  2  0  0  0
  6  7  1  0  0  0
  6  9  1  0  0  0
  7  8  2  0  0  0
  7  1  1  0  0  0
  1  2  2  0  0  0
  1  5  1  0  0  0
  2  3  1  0  0  0
  3  4  1  0  0  0
  4  5  2  0  0  0
  5 18  1  0  0  0
 18 20  1  0  0  0
 18 19  1  0  0  0
 20 21  1  0  0  0
 21 22  1  0  0  0
 21 26  2  0  0  0
 22 23  2  0  0  0
 23 24  1  0  0  0
 24 25  2  0  0  0
 25 26  1  0  0  0
 15 16  1  0  0  0
 15 17  1  0  0  0
M  END
> <minimizedAffinity>
-8.03833

$$$$
