CHEMBL3942387


 37 40  0  0  0  0  0  0  0  0999 V2000
  -28.5033   -8.8163   -5.7306 C   0  0  0  0  0  0  0  0  0  0  0  0
  -27.6745   -9.8415   -6.2190 C   0  0  0  0  0  0  0  0  0  0  0  0
  -27.3723   -9.9694   -7.5976 C   0  0  0  0  0  0  0  0  0  0  0  0
  -26.6138  -10.9861   -8.1950 C   0  0  0  0  0  0  0  0  0  0  0  0
  -26.2975  -10.9691   -9.5093 N   0  0  0  0  0  0  0  0  0  0  0  0
  -26.7589   -9.9497  -10.2342 C   0  0  0  0  0  0  0  0  0  0  0  0
  -27.5254   -8.9691   -9.7803 N   0  0  0  0  0  0  0  0  0  0  0  0
  -27.8171   -8.9897   -8.4780 C   0  0  0  0  0  0  0  0  0  0  0  0
  -28.6143   -7.9797   -7.9853 C   0  0  0  0  0  0  0  0  0  0  0  0
  -29.0271   -7.8941   -6.6392 C   0  0  0  0  0  0  0  0  0  0  0  0
  -27.5885   -9.4396   -3.5886 C   0  0  0  0  0  0  0  0  0  0  0  0
  -28.6122   -8.8519   -4.3711 O   0  0  0  0  0  0  0  0  0  0  0  0
  -26.1739  -12.0908   -7.4104 N   0  0  0  0  0  0  0  0  0  0  0  0
  -26.2219  -12.9352   -7.9738 H   0  0  0  0  0  0  0  0  0  0  0  0
  -25.0303  -12.0266   -6.5850 C   0  0  0  0  0  0  0  0  0  0  0  0
  -25.1286  -12.4003   -5.2365 C   0  0  0  0  0  0  0  0  0  0  0  0
  -24.0574  -12.2363   -4.3636 C   0  0  0  0  0  0  0  0  0  0  0  0
  -22.8574  -11.7065   -4.8339 C   0  0  0  0  0  0  0  0  0  0  0  0
  -21.5961  -11.4440   -3.6839 Cl  0  0  0  0  0  0  0  0  0  0  0  0
  -22.7245  -11.3860   -6.1906 C   0  0  0  0  0  0  0  0  0  0  0  0
  -21.2598  -10.7348   -6.8405 Cl  0  0  0  0  0  0  0  0  0  0  0  0
  -23.8045  -11.5584   -7.0674 C   0  0  0  0  0  0  0  0  0  0  0  0
  -29.9068   -6.9093   -6.2420 O   0  0  0  0  0  0  0  0  0  0  0  0
  -30.2442   -6.0058   -7.3112 C   0  0  0  0  0  0  0  0  0  0  0  0
  -29.9172   -4.5541   -7.0090 C   0  0  0  0  0  0  0  0  0  0  0  0
  -28.6116   -4.1593   -7.7120 C   0  0  0  0  0  0  0  0  0  0  0  0
  -28.1642   -2.8488   -7.2494 N   0  0  0  0  0  0  0  0  0  0  0  0
  -27.8827   -1.7589   -8.0498 C   0  0  0  0  0  0  0  0  0  0  0  0
  -27.5230   -0.6795   -7.5722 O   0  0  0  0  0  0  0  0  0  0  0  0
  -28.0807   -2.7359   -5.7919 C   0  0  0  0  0  0  0  0  0  0  0  0
  -29.4183   -3.1288   -5.1683 C   0  0  0  0  0  0  0  0  0  0  0  0
  -29.7880   -4.4562   -5.5712 O   0  0  0  0  0  0  0  0  0  0  0  0
  -28.0620   -1.9349   -9.5516 C   0  0  0  0  0  0  0  0  0  0  0  0
  -26.7200   -1.9248  -10.2839 C   0  0  0  0  0  0  0  0  0  0  0  0
  -26.6991   -1.0687  -11.5623 C   0  0  0  0  0  0  0  0  0  0  0  0
  -25.3151   -0.4906  -11.8612 C   0  0  0  0  0  0  0  0  0  0  0  0
  -27.1673   -1.9155  -12.7496 C   0  0  0  0  0  0  0  0  0  0  0  0
 11 12  1  0  0  0
 12  1  1  0  0  0
  1  2  1  0  0  0
  1 10  2  0  0  0
  2  3  2  0  0  0
  3  4  1  0  0  0
  3  8  1  0  0  0
  4 13  1  0  0  0
  4  5  2  0  0  0
 13 15  1  0  0  0
 13 14  1  0  0  0
 15 16  1  0  0  0
 15 22  2  0  0  0
 16 17  2  0  0  0
 17 18  1  0  0  0
 18 19  1  0  0  0
 18 20  2  0  0  0
 20 21  1  0  0  0
 20 22  1  0  0  0
  5  6  1  0  0  0
  6  7  2  0  0  0
  7  8  1  0  0  0
  8  9  2  0  0  0
  9 10  1  0  0  0
 10 23  1  0  0  0
 23 24  1  0  0  0
 24 25  1  0  0  0
 25 26  1  0  0  0
 25 32  1  0  0  0
 26 27  1  0  0  0
 27 28  1  0  0  0
 27 30  1  0  0  0
 28 29  2  0  0  0
 28 33  1  0  0  0
 33 34  1  0  0  0
 34 35  1  0  0  0
 35 36  1  0  0  0
 35 37  1  0  0  0
 30 31  1  0  0  0
 31 32  1  0  0  0
M  END
> <minimizedAffinity>
-8.43142

$$$$
