CHEMBL1945559


 26 29  0  0  0  0  0  0  0  0999 V2000
  -27.2857  -10.6494   -5.0001 C   0  0  0  0  0  0  0  0  0  0  0  0
  -28.1975   -9.8555   -5.7997 N   0  0  0  0  0  0  0  0  0  0  0  0
  -28.8867   -8.7434   -5.3499 C   0  0  0  0  0  0  0  0  0  0  0  0
  -29.4865   -8.1766   -6.4518 C   0  0  0  0  0  0  0  0  0  0  0  0
  -29.2948   -9.0331   -7.5636 C   0  0  0  0  0  0  0  0  0  0  0  0
  -29.7589   -8.9787   -8.8950 C   0  0  0  0  0  0  0  0  0  0  0  0
  -29.4054   -9.9880   -9.7929 C   0  0  0  0  0  0  0  0  0  0  0  0
  -28.6033  -11.0365   -9.3809 C   0  0  0  0  0  0  0  0  0  0  0  0
  -28.2213  -12.2321  -10.5797 Cl  0  0  0  0  0  0  0  0  0  0  0  0
  -28.1248  -11.1267   -8.0553 C   0  0  0  0  0  0  0  0  0  0  0  0
  -27.1422  -12.4625   -7.5706 Cl  0  0  0  0  0  0  0  0  0  0  0  0
  -28.4876  -10.0975   -7.1465 C   0  0  0  0  0  0  0  0  0  0  0  0
  -30.2546   -6.9261   -6.4251 C   0  0  0  0  0  0  0  0  0  0  0  0
  -30.3332   -6.2315   -4.8195 C   0  0  0  0  0  0  0  0  0  0  0  0
  -31.7858   -5.7884   -4.4180 C   0  0  0  0  0  0  0  0  0  0  0  0
  -31.8977   -4.8364   -3.1860 C   0  0  0  0  0  0  0  0  0  0  0  0
  -30.9437   -3.7354   -3.1133 N   0  0  0  0  0  0  0  0  0  0  0  0
  -29.5818   -4.1891   -3.3389 C   0  0  0  0  0  0  0  0  0  0  0  0
  -29.4930   -4.8928   -4.6870 C   0  0  0  0  0  0  0  0  0  0  0  0
  -29.8282   -7.1747   -3.8007 N   0  0  0  0  0  0  0  0  0  0  0  0
  -28.9920   -8.2505   -3.9917 C   0  0  0  0  0  0  0  0  0  0  0  0
  -28.4524   -8.7326   -3.0159 O   0  0  0  0  0  0  0  0  0  0  0  0
  -31.1815   -2.9919   -3.7716 H   0  0  0  0  0  0  0  0  0  0  0  0
  -29.8011   -6.8672   -2.8332 H   0  0  0  0  0  0  0  0  0  0  0  0
  -29.5230   -5.7871   -7.1165 C   0  0  0  0  0  0  0  0  0  0  0  0
  -28.9161   -4.8424   -7.6901 N   0  0  0  0  0  0  0  0  0  0  0  0
  1  2  1  0  0  0
  2  3  1  0  0  0
  2 12  1  0  0  0
  3  4  2  0  0  0
  3 21  1  0  0  0
  4  5  1  0  0  0
  4 13  1  0  0  0
  5  6  1  0  0  0
  5 12  2  0  0  0
  6  7  2  0  0  0
  7  8  1  0  0  0
  8  9  1  0  0  0
  8 10  2  0  0  0
 10 11  1  0  0  0
 10 12  1  0  0  0
 13 25  1  0  0  0
 13 14  1  0  0  0
 25 26  3  0  0  0
 14 15  1  0  0  0
 14 19  1  0  0  0
 14 20  1  0  0  0
 15 16  1  0  0  0
 16 17  1  0  0  0
 17 18  1  0  0  0
 17 23  1  0  0  0
 18 19  1  0  0  0
 20 21  1  0  0  0
 20 24  1  0  0  0
 21 22  2  0  0  0
M  END
> <minimizedAffinity>
-7.75043

$$$$
