CHEMBL2206666


 30 33  0  0  0  0  0  0  0  0999 V2000
  -26.2363   -2.0206  -11.7681 C   0  0  0  0  0  0  0  0  0  0  0  0
  -27.0918   -1.9880  -12.8740 C   0  0  0  0  0  0  0  0  0  0  0  0
  -26.6010   -1.7395  -14.1556 C   0  0  0  0  0  0  0  0  0  0  0  0
  -25.2462   -1.5085  -14.3477 C   0  0  0  0  0  0  0  0  0  0  0  0
  -24.3957   -1.4638  -13.2427 C   0  0  0  0  0  0  0  0  0  0  0  0
  -24.8787   -1.7187  -11.9528 C   0  0  0  0  0  0  0  0  0  0  0  0
  -28.3009   -0.7254  -10.1175 O   0  0  0  0  0  0  0  0  0  0  0  0
  -27.6630   -1.7076   -9.7513 C   0  0  0  0  0  0  0  0  0  0  0  0
  -26.6841   -2.3770  -10.4709 N   0  0  0  0  0  0  0  0  0  0  0  0
  -26.3918   -3.2849  -10.1325 H   0  0  0  0  0  0  0  0  0  0  0  0
  -28.0292   -2.2984   -8.4355 C   0  0  0  0  0  0  0  0  0  0  0  0
  -28.5406   -3.6031   -8.4188 C   0  0  0  0  0  0  0  0  0  0  0  0
  -28.9109   -4.1986   -7.2145 C   0  0  0  0  0  0  0  0  0  0  0  0
  -28.7746   -3.4930   -6.0202 C   0  0  0  0  0  0  0  0  0  0  0  0
  -28.2752   -2.1804   -6.0192 C   0  0  0  0  0  0  0  0  0  0  0  0
  -27.9117   -1.5818   -7.2400 C   0  0  0  0  0  0  0  0  0  0  0  0
  -28.1180   -1.4089   -4.7316 C   0  0  0  0  0  0  0  0  0  0  0  0
  -28.2745   -2.1692   -3.6135 F   0  0  0  0  0  0  0  0  0  0  0  0
  -26.8848   -0.8397   -4.6280 F   0  0  0  0  0  0  0  0  0  0  0  0
  -29.0108   -0.3880   -4.6231 F   0  0  0  0  0  0  0  0  0  0  0  0
  -22.9982   -1.3066  -13.4014 O   0  0  0  0  0  0  0  0  0  0  0  0
  -22.4728   -0.0740  -13.7773 C   0  0  0  0  0  0  0  0  0  0  0  0
  -23.3977    0.9888  -13.3201 C   0  0  0  0  0  0  0  0  0  0  0  0
  -23.0195    2.2519  -13.5602 C   0  0  0  0  0  0  0  0  0  0  0  0
  -21.8017    2.4942  -14.2358 C   0  0  0  0  0  0  0  0  0  0  0  0
  -21.2082    3.6162  -14.5866 N   0  0  0  0  0  0  0  0  0  0  0  0
  -20.0430    3.2281  -15.2019 C   0  0  0  0  0  0  0  0  0  0  0  0
  -19.9278    1.8582  -15.2229 C   0  0  0  0  0  0  0  0  0  0  0  0
  -21.0571    1.3876  -14.6136 N   0  0  0  0  0  0  0  0  0  0  0  0
  -21.3539    0.0765  -14.4094 N   0  0  0  0  0  0  0  0  0  0  0  0
  7  8  2  0  0  0
  8  9  1  0  0  0
  8 11  1  0  0  0
  9  1  1  0  0  0
  9 10  1  0  0  0
  1  2  1  0  0  0
  1  6  2  0  0  0
  2  3  2  0  0  0
  3  4  1  0  0  0
  4  5  2  0  0  0
  5 21  1  0  0  0
  5  6  1  0  0  0
 21 22  1  0  0  0
 22 23  1  0  0  0
 22 30  2  0  0  0
 23 24  2  0  0  0
 24 25  1  0  0  0
 25 26  2  0  0  0
 25 29  1  0  0  0
 26 27  1  0  0  0
 27 28  2  0  0  0
 28 29  1  0  0  0
 29 30  1  0  0  0
 11 12  1  0  0  0
 11 16  2  0  0  0
 12 13  2  0  0  0
 13 14  1  0  0  0
 14 15  2  0  0  0
 15 17  1  0  0  0
 15 16  1  0  0  0
 17 18  1  0  0  0
 17 19  1  0  0  0
 17 20  1  0  0  0
M  END
> <minimizedAffinity>
-11.16113

$$$$
