CHEMBL407485


 21 23  0  0  0  0  0  0  0  0999 V2000
  -29.2550   -3.9855   -6.0577 C   0  0  0  0  0  0  0  0  0  0  0  0
  -28.8514   -4.5515   -7.2981 C   0  0  0  0  0  0  0  0  0  0  0  0
  -29.1415   -5.8701   -7.6624 C   0  0  0  0  0  0  0  0  0  0  0  0
  -29.8348   -6.7039   -6.7962 C   0  0  0  0  0  0  0  0  0  0  0  0
  -30.2255   -6.1480   -5.5832 C   0  0  0  0  0  0  0  0  0  0  0  0
  -30.9022   -6.8177   -4.6158 O   0  0  0  0  0  0  0  0  0  0  0  0
  -31.1476   -5.9783   -3.5567 N   0  0  0  0  0  0  0  0  0  0  0  0
  -30.6316   -4.7939   -3.8984 C   0  0  0  0  0  0  0  0  0  0  0  0
  -30.7433   -3.7154   -3.0993 N   0  0  0  0  0  0  0  0  0  0  0  0
  -29.9875   -4.8380   -5.1776 C   0  0  0  0  0  0  0  0  0  0  0  0
  -31.3563   -3.8085   -2.2970 H   0  0  0  0  0  0  0  0  0  0  0  0
  -30.7580   -2.7879   -3.5076 H   0  0  0  0  0  0  0  0  0  0  0  0
  -27.8800    1.3965   -4.6545 N   0  0  0  0  0  0  0  0  0  0  0  0
  -28.1872    0.1062   -5.0961 C   0  0  0  0  0  0  0  0  0  0  0  0
  -27.2524   -0.9208   -4.9934 C   0  0  0  0  0  0  0  0  0  0  0  0
  -27.5918   -2.2372   -5.3393 C   0  0  0  0  0  0  0  0  0  0  0  0
  -28.9013   -2.5873   -5.7220 C   0  0  0  0  0  0  0  0  0  0  0  0
  -29.8518   -1.5589   -5.7013 C   0  0  0  0  0  0  0  0  0  0  0  0
  -29.5005   -0.2331   -5.4124 C   0  0  0  0  0  0  0  0  0  0  0  0
  -26.8931    1.6308   -4.7077 H   0  0  0  0  0  0  0  0  0  0  0  0
  -28.4694    2.1188   -5.0544 H   0  0  0  0  0  0  0  0  0  0  0  0
 13 14  1  0  0  0
 13 20  1  0  0  0
 13 21  1  0  0  0
 14 15  1  0  0  0
 14 19  2  0  0  0
 15 16  2  0  0  0
 16 17  1  0  0  0
 17  1  1  0  0  0
 17 18  2  0  0  0
  1  2  1  0  0  0
  1 10  2  0  0  0
  2  3  2  0  0  0
  3  4  1  0  0  0
  4  5  2  0  0  0
  5  6  1  0  0  0
  5 10  1  0  0  0
  6  7  1  0  0  0
  7  8  2  0  0  0
  8  9  1  0  0  0
  8 10  1  0  0  0
  9 11  1  0  0  0
  9 12  1  0  0  0
 18 19  1  0  0  0
M  END
> <minimizedAffinity>
-7.64640

$$$$
