CHEMBL485642


 39 42  0  0  0  0  0  0  0  0999 V2000
  -19.3063    2.2911  -15.0226 C   0  0  0  0  0  0  0  0  0  0  0  0
  -18.4926    2.7111  -16.0968 C   0  0  0  0  0  0  0  0  0  0  0  0
  -17.1120    2.4185  -16.1241 C   0  0  0  0  0  0  0  0  0  0  0  0
  -16.5508    1.7234  -15.0616 C   0  0  0  0  0  0  0  0  0  0  0  0
  -17.3861    1.3023  -14.0210 C   0  0  0  0  0  0  0  0  0  0  0  0
  -18.7448    1.5493  -13.9766 C   0  0  0  0  0  0  0  0  0  0  0  0
  -16.6518    0.6508  -13.0288 N   0  0  0  0  0  0  0  0  0  0  0  0
  -15.2984    0.6464  -13.3287 C   0  0  0  0  0  0  0  0  0  0  0  0
  -14.3969    0.3040  -12.5904 O   0  0  0  0  0  0  0  0  0  0  0  0
  -15.2025    1.2552  -14.7129 C   0  0  0  0  0  0  0  0  0  0  0  0
  -14.0133    1.2479  -15.3807 C   0  0  0  0  0  0  0  0  0  0  0  0
  -17.0189    0.3362  -12.1483 H   0  0  0  0  0  0  0  0  0  0  0  0
  -13.8580    2.0856  -16.5838 C   0  0  0  0  0  0  0  0  0  0  0  0
  -14.0075    1.4721  -17.8373 C   0  0  0  0  0  0  0  0  0  0  0  0
  -13.9624    2.2334  -19.0063 C   0  0  0  0  0  0  0  0  0  0  0  0
  -13.7651    3.6078  -18.9246 C   0  0  0  0  0  0  0  0  0  0  0  0
  -13.6104    4.2257  -17.6789 C   0  0  0  0  0  0  0  0  0  0  0  0
  -13.6623    3.4661  -16.5079 C   0  0  0  0  0  0  0  0  0  0  0  0
  -20.7552    2.6385  -14.9127 C   0  0  0  0  0  0  0  0  0  0  0  0
  -21.1763    3.7860  -15.0006 O   0  0  0  0  0  0  0  0  0  0  0  0
  -22.6333    1.7150  -13.8702 C   0  0  0  0  0  0  0  0  0  0  0  0
  -21.5163    1.5270  -14.7459 O   0  0  0  0  0  0  0  0  0  0  0  0
  -12.7870    0.6485  -15.0202 N   0  0  0  0  0  0  0  0  0  0  0  0
  -12.7131    0.6428  -13.9926 H   0  0  0  0  0  0  0  0  0  0  0  0
  -12.4336   -0.6906  -15.4084 C   0  0  0  0  0  0  0  0  0  0  0  0
  -11.4596   -0.9577  -16.3728 C   0  0  0  0  0  0  0  0  0  0  0  0
  -11.2441   -2.2570  -16.8298 C   0  0  0  0  0  0  0  0  0  0  0  0
  -11.9503   -3.3314  -16.2809 C   0  0  0  0  0  0  0  0  0  0  0  0
  -12.9084   -3.1199  -15.2885 C   0  0  0  0  0  0  0  0  0  0  0  0
  -13.1389   -1.7860  -14.8617 C   0  0  0  0  0  0  0  0  0  0  0  0
  -13.5573   -4.2523  -14.5334 C   0  0  0  0  0  0  0  0  0  0  0  0
  -14.4179   -4.8873  -15.1511 O   0  0  0  0  0  0  0  0  0  0  0  0
  -13.2714   -4.5695  -13.1874 N   0  0  0  0  0  0  0  0  0  0  0  0
  -12.0511   -4.2412  -12.4592 C   0  0  0  0  0  0  0  0  0  0  0  0
  -14.1016   -5.6197  -12.5553 C   0  0  0  0  0  0  0  0  0  0  0  0
  -14.5663   -5.2700  -11.1190 C   0  0  0  0  0  0  0  0  0  0  0  0
  -15.9693   -4.7997  -11.0006 N   0  0  0  0  0  0  0  0  0  0  0  0
  -16.0695   -3.3421  -11.0959 C   0  0  0  0  0  0  0  0  0  0  0  0
  -16.7810   -5.4077  -12.0638 C   0  0  0  0  0  0  0  0  0  0  0  0
 21 22  1  0  0  0
 22 19  1  0  0  0
 19 20  2  0  0  0
 19  1  1  0  0  0
  1  2  1  0  0  0
  1  6  2  0  0  0
  2  3  2  0  0  0
  3  4  1  0  0  0
  4  5  2  0  0  0
  4 10  1  0  0  0
  5  6  1  0  0  0
  5  7  1  0  0  0
  7  8  1  0  0  0
  7 12  1  0  0  0
  8  9  2  0  0  0
  8 10  1  0  0  0
 10 11  2  0  0  0
 11 23  1  0  0  0
 11 13  1  0  0  0
 23 25  1  0  0  0
 23 24  1  0  0  0
 25 26  1  0  0  0
 25 30  2  0  0  0
 26 27  2  0  0  0
 27 28  1  0  0  0
 28 29  2  0  0  0
 29 31  1  0  0  0
 29 30  1  0  0  0
 31 32  2  0  0  0
 31 33  1  0  0  0
 33 34  1  0  0  0
 33 35  1  0  0  0
 35 36  1  0  0  0
 36 37  1  0  0  0
 37 38  1  0  0  0
 37 39  1  0  0  0
 13 14  1  0  0  0
 13 18  2  0  0  0
 14 15  2  0  0  0
 15 16  1  0  0  0
 16 17  2  0  0  0
 17 18  1  0  0  0
M  END
> <minimizedAffinity>
-7.71349

$$$$
