CHEMBL476572


 39 43  0  0  0  0  0  0  0  0999 V2000
  -29.0640   -8.7908   -7.7965 C   0  0  0  0  0  0  0  0  0  0  0  0
  -28.5008   -8.6448   -9.0433 C   0  0  0  0  0  0  0  0  0  0  0  0
  -27.3861   -9.4095   -9.3119 C   0  0  0  0  0  0  0  0  0  0  0  0
  -26.8457  -10.2872   -8.4482 N   0  0  0  0  0  0  0  0  0  0  0  0
  -27.4357  -10.3645   -7.2524 C   0  0  0  0  0  0  0  0  0  0  0  0
  -28.5267   -9.6536   -6.9215 N   0  0  0  0  0  0  0  0  0  0  0  0
  -30.1647   -8.0049   -7.3752 N   0  0  0  0  0  0  0  0  0  0  0  0
  -31.4445   -8.6799   -7.6251 C   0  0  0  0  0  0  0  0  0  0  0  0
  -30.6657   -3.0556   -2.8717 C   0  0  0  0  0  0  0  0  0  0  0  0
  -29.9837   -3.5956   -4.0722 C   0  0  0  0  0  0  0  0  0  0  0  0
  -30.1773   -4.7573   -4.7786 C   0  0  0  0  0  0  0  0  0  0  0  0
  -31.1027   -5.7436   -4.4693 C   0  0  0  0  0  0  0  0  0  0  0  0
  -31.0355   -6.8122   -5.3859 C   0  0  0  0  0  0  0  0  0  0  0  0
  -30.1423   -6.8829   -6.5142 C   0  0  0  0  0  0  0  0  0  0  0  0
  -29.2211   -5.8313   -6.7852 C   0  0  0  0  0  0  0  0  0  0  0  0
  -29.2521   -4.7601   -5.8759 C   0  0  0  0  0  0  0  0  0  0  0  0
  -28.5161   -3.6391   -5.8348 N   0  0  0  0  0  0  0  0  0  0  0  0
  -28.9229   -2.9892   -4.7129 N   0  0  0  0  0  0  0  0  0  0  0  0
  -28.2107   -1.7731   -4.3164 C   0  0  0  0  0  0  0  0  0  0  0  0
  -28.6812   -0.5751   -5.1092 C   0  0  0  0  0  0  0  0  0  0  0  0
  -29.9336    0.0041   -4.8472 C   0  0  0  0  0  0  0  0  0  0  0  0
  -30.4197    1.0410   -5.6433 C   0  0  0  0  0  0  0  0  0  0  0  0
  -29.6491    1.5301   -6.6948 C   0  0  0  0  0  0  0  0  0  0  0  0
  -28.3784    1.0069   -6.9275 C   0  0  0  0  0  0  0  0  0  0  0  0
  -27.8925   -0.0366   -6.1359 C   0  0  0  0  0  0  0  0  0  0  0  0
  -26.8851  -11.2257   -6.3093 N   0  0  0  0  0  0  0  0  0  0  0  0
  -27.4266  -12.0686   -6.1899 H   0  0  0  0  0  0  0  0  0  0  0  0
  -25.6296  -11.1377   -5.6876 C   0  0  0  0  0  0  0  0  0  0  0  0
  -25.5059  -10.5693   -4.4137 C   0  0  0  0  0  0  0  0  0  0  0  0
  -24.2439  -10.3422   -3.8481 C   0  0  0  0  0  0  0  0  0  0  0  0
  -23.0867  -10.6707   -4.5562 C   0  0  0  0  0  0  0  0  0  0  0  0
  -23.2033  -11.2329   -5.8278 C   0  0  0  0  0  0  0  0  0  0  0  0
  -24.4591  -11.4871   -6.3721 C   0  0  0  0  0  0  0  0  0  0  0  0
  -21.7509  -11.5915   -6.7776 S   0  0  0  0  0  0  0  0  0  0  0  0
  -21.0262  -10.0814   -6.8455 N   0  0  0  0  0  0  0  0  0  0  0  0
  -20.8988  -12.4356   -5.9771 O   0  0  0  0  0  0  0  0  0  0  0  0
  -22.1387  -11.9200   -8.1290 O   0  0  0  0  0  0  0  0  0  0  0  0
  -20.4584   -9.8820   -6.0257 H   0  0  0  0  0  0  0  0  0  0  0  0
  -21.6320   -9.3375   -7.1819 H   0  0  0  0  0  0  0  0  0  0  0  0
  9 10  1  0  0  0
 10 11  2  0  0  0
 10 18  1  0  0  0
 11 12  1  0  0  0
 11 16  1  0  0  0
 12 13  2  0  0  0
 13 14  1  0  0  0
 14  7  1  0  0  0
 14 15  2  0  0  0
  7  8  1  0  0  0
  7  1  1  0  0  0
  1  2  1  0  0  0
  1  6  2  0  0  0
  2  3  2  0  0  0
  3  4  1  0  0  0
  4  5  2  0  0  0
  5 26  1  0  0  0
  5  6  1  0  0  0
 26 28  1  0  0  0
 26 27  1  0  0  0
 28 29  1  0  0  0
 28 33  2  0  0  0
 29 30  2  0  0  0
 30 31  1  0  0  0
 31 32  2  0  0  0
 32 34  1  0  0  0
 32 33  1  0  0  0
 34 35  1  0  0  0
 34 36  2  0  0  0
 34 37  2  0  0  0
 35 38  1  0  0  0
 35 39  1  0  0  0
 15 16  1  0  0  0
 16 17  2  0  0  0
 17 18  1  0  0  0
 18 19  1  0  0  0
 19 20  1  0  0  0
 20 21  1  0  0  0
 20 25  2  0  0  0
 21 22  2  0  0  0
 22 23  1  0  0  0
 23 24  2  0  0  0
 24 25  1  0  0  0
M  END
> <minimizedAffinity>
-9.92371

$$$$
