CHEMBL4777407


 33 36  0  0  0  0  0  0  0  0999 V2000
  -18.4384    2.7023  -15.2451 C   0  0  0  0  0  0  0  0  0  0  0  0
  -19.5365    3.5413  -15.0740 C   0  0  0  0  0  0  0  0  0  0  0  0
  -20.8112    3.0074  -14.8489 C   0  0  0  0  0  0  0  0  0  0  0  0
  -21.0189    1.6240  -14.8166 C   0  0  0  0  0  0  0  0  0  0  0  0
  -19.9421    0.7859  -15.0998 C   0  0  0  0  0  0  0  0  0  0  0  0
  -18.6693    1.3226  -15.3212 C   0  0  0  0  0  0  0  0  0  0  0  0
  -22.2543    1.0200  -14.4747 N   0  0  0  0  0  0  0  0  0  0  0  0
  -22.5323    0.3712  -13.2862 C   0  0  0  0  0  0  0  0  0  0  0  0
  -21.7916    0.3111  -12.3106 O   0  0  0  0  0  0  0  0  0  0  0  0
  -22.9745    1.0519  -15.1840 H   0  0  0  0  0  0  0  0  0  0  0  0
  -23.8513   -0.3159  -13.1622 C   0  0  0  0  0  0  0  0  0  0  0  0
  -24.6720   -0.2362  -12.0342 C   0  0  0  0  0  0  0  0  0  0  0  0
  -25.9388   -0.8415  -12.0474 C   0  0  0  0  0  0  0  0  0  0  0  0
  -26.3816   -1.5175  -13.1880 C   0  0  0  0  0  0  0  0  0  0  0  0
  -28.2746   -2.3729  -13.2270 I   0  0  0  0  0  0  0  0  0  0  0  0
  -25.5696   -1.6043  -14.3141 C   0  0  0  0  0  0  0  0  0  0  0  0
  -24.3110   -1.0034  -14.2997 C   0  0  0  0  0  0  0  0  0  0  0  0
  -17.1441    3.2445  -15.3791 N   0  0  0  0  0  0  0  0  0  0  0  0
  -16.9349    3.9402  -14.6705 H   0  0  0  0  0  0  0  0  0  0  0  0
  -13.6204    3.2242  -19.0740 C   0  0  0  0  0  0  0  0  0  0  0  0
  -13.3166    2.2257  -18.1304 C   0  0  0  0  0  0  0  0  0  0  0  0
  -14.0903    1.9985  -17.0040 C   0  0  0  0  0  0  0  0  0  0  0  0
  -13.7772    0.9648  -16.2169 N   0  0  0  0  0  0  0  0  0  0  0  0
  -14.5925    0.7310  -15.1872 C   0  0  0  0  0  0  0  0  0  0  0  0
  -15.6772    1.4381  -14.8723 N   0  0  0  0  0  0  0  0  0  0  0  0
  -15.9727    2.4911  -15.6592 C   0  0  0  0  0  0  0  0  0  0  0  0
  -15.1822    2.8337  -16.7659 C   0  0  0  0  0  0  0  0  0  0  0  0
  -15.4411    3.9007  -17.6557 C   0  0  0  0  0  0  0  0  0  0  0  0
  -14.6831    4.0955  -18.8168 C   0  0  0  0  0  0  0  0  0  0  0  0
  -11.7699    4.2547  -20.1312 C   0  0  0  0  0  0  0  0  0  0  0  0
  -12.8837    3.3620  -20.2223 O   0  0  0  0  0  0  0  0  0  0  0  0
  -15.1591    5.1423  -19.5522 O   0  0  0  0  0  0  0  0  0  0  0  0
  -14.7787    6.4715  -19.2431 C   0  0  0  0  0  0  0  0  0  0  0  0
 30 31  1  0  0  0
 31 20  1  0  0  0
 20 21  1  0  0  0
 20 29  2  0  0  0
 21 22  2  0  0  0
 22 23  1  0  0  0
 22 27  1  0  0  0
 23 24  2  0  0  0
 24 25  1  0  0  0
 25 26  2  0  0  0
 26 18  1  0  0  0
 26 27  1  0  0  0
 18  1  1  0  0  0
 18 19  1  0  0  0
  1  2  1  0  0  0
  1  6  2  0  0  0
  2  3  2  0  0  0
  3  4  1  0  0  0
  4  7  1  0  0  0
  4  5  2  0  0  0
  7  8  1  0  0  0
  7 10  1  0  0  0
  8  9  2  0  0  0
  8 11  1  0  0  0
 11 12  1  0  0  0
 11 17  2  0  0  0
 12 13  2  0  0  0
 13 14  1  0  0  0
 14 15  1  0  0  0
 14 16  2  0  0  0
 16 17  1  0  0  0
  5  6  1  0  0  0
 27 28  2  0  0  0
 28 29  1  0  0  0
 29 32  1  0  0  0
 32 33  1  0  0  0
M  END
> <minimizedAffinity>
-9.01228

$$$$
