CHEMBL433097


 32 35  0  0  0  0  0  0  0  0999 V2000
  -28.9672   -9.3561   -9.2510 N   0  0  0  0  0  0  0  0  0  0  0  0
  -28.5973   -8.1514   -8.6878 C   0  0  0  0  0  0  0  0  0  0  0  0
  -29.5691   -7.7408   -7.7934 C   0  0  0  0  0  0  0  0  0  0  0  0
  -30.5924   -8.7488   -7.8054 C   0  0  0  0  0  0  0  0  0  0  0  0
  -31.8438   -8.9662   -7.1889 C   0  0  0  0  0  0  0  0  0  0  0  0
  -32.4942   -8.0753   -6.3433 N   0  0  0  0  0  0  0  0  0  0  0  0
  -32.5101  -10.1106   -7.4301 N   0  0  0  0  0  0  0  0  0  0  0  0
  -31.9600  -11.0017   -8.2663 C   0  0  0  0  0  0  0  0  0  0  0  0
  -30.8072  -10.8982   -8.9334 N   0  0  0  0  0  0  0  0  0  0  0  0
  -30.1628   -9.7459   -8.6817 C   0  0  0  0  0  0  0  0  0  0  0  0
  -32.3541   -7.1032   -6.5884 H   0  0  0  0  0  0  0  0  0  0  0  0
  -33.4587   -8.3590   -6.2139 H   0  0  0  0  0  0  0  0  0  0  0  0
  -29.4672   -6.4969   -7.0349 C   0  0  0  0  0  0  0  0  0  0  0  0
  -29.8082   -5.2677   -7.6142 C   0  0  0  0  0  0  0  0  0  0  0  0
  -29.8438   -4.1010   -6.8395 C   0  0  0  0  0  0  0  0  0  0  0  0
  -29.6346   -4.1720   -5.4620 C   0  0  0  0  0  0  0  0  0  0  0  0
  -29.1931   -5.3657   -4.9004 C   0  0  0  0  0  0  0  0  0  0  0  0
  -29.0684   -6.5069   -5.6942 C   0  0  0  0  0  0  0  0  0  0  0  0
  -29.7858   -3.1206   -4.5904 O   0  0  0  0  0  0  0  0  0  0  0  0
  -29.1995   -1.9059   -4.8675 C   0  0  0  0  0  0  0  0  0  0  0  0
  -27.8274   -1.6492   -4.8218 C   0  0  0  0  0  0  0  0  0  0  0  0
  -27.3609   -0.3515   -5.0205 C   0  0  0  0  0  0  0  0  0  0  0  0
  -28.2556    0.6671   -5.3528 C   0  0  0  0  0  0  0  0  0  0  0  0
  -29.6101    0.3890   -5.5508 C   0  0  0  0  0  0  0  0  0  0  0  0
  -30.5140    1.4270   -5.8102 N   0  0  0  0  0  0  0  0  0  0  0  0
  -30.0802   -0.8917   -5.2527 C   0  0  0  0  0  0  0  0  0  0  0  0
  -30.0998    2.2107   -6.3049 H   0  0  0  0  0  0  0  0  0  0  0  0
  -31.3722    1.1107   -6.2516 H   0  0  0  0  0  0  0  0  0  0  0  0
  -26.8872   -9.3219  -10.5441 C   0  0  0  0  0  0  0  0  0  0  0  0
  -28.1427  -10.1423  -10.1993 C   0  0  0  0  0  0  0  0  0  0  0  0
  -28.9078  -10.4469  -11.5122 C   0  0  0  0  0  0  0  0  0  0  0  0
  -27.7150  -11.5203   -9.6402 C   0  0  0  0  0  0  0  0  0  0  0  0
 29 30  1  0  0  0
 30 31  1  0  0  0
 30 32  1  0  0  0
 30  1  1  0  0  0
  1  2  1  0  0  0
  1 10  1  0  0  0
  2  3  2  0  0  0
  3 13  1  0  0  0
  3  4  1  0  0  0
 13 14  1  0  0  0
 13 18  2  0  0  0
 14 15  2  0  0  0
 15 16  1  0  0  0
 16 19  1  0  0  0
 16 17  2  0  0  0
 19 20  1  0  0  0
 20 21  1  0  0  0
 20 26  2  0  0  0
 21 22  2  0  0  0
 22 23  1  0  0  0
 23 24  2  0  0  0
 24 25  1  0  0  0
 24 26  1  0  0  0
 25 27  1  0  0  0
 25 28  1  0  0  0
 17 18  1  0  0  0
  4  5  1  0  0  0
  4 10  2  0  0  0
  5  6  1  0  0  0
  5  7  2  0  0  0
  6 11  1  0  0  0
  6 12  1  0  0  0
  7  8  1  0  0  0
  8  9  2  0  0  0
  9 10  1  0  0  0
M  END
> <minimizedAffinity>
-9.77196

$$$$
