CHEMBL452783


 34 38  0  0  0  0  0  0  0  0999 V2000
  -25.9514   -1.1545  -12.3023 C   0  0  0  0  0  0  0  0  0  0  0  0
  -25.4462   -1.5582  -13.5449 C   0  0  0  0  0  0  0  0  0  0  0  0
  -24.3130   -0.9464  -14.0915 C   0  0  0  0  0  0  0  0  0  0  0  0
  -23.6631    0.0759  -13.3967 C   0  0  0  0  0  0  0  0  0  0  0  0
  -24.2030    0.5194  -12.1800 C   0  0  0  0  0  0  0  0  0  0  0  0
  -25.3562   -0.0770  -11.6454 C   0  0  0  0  0  0  0  0  0  0  0  0
  -22.4265    0.6648  -13.9312 C   0  0  0  0  0  0  0  0  0  0  0  0
  -21.3368   -0.2116  -14.4745 C   0  0  0  0  0  0  0  0  0  0  0  0
  -20.1915    0.1661  -14.9590 N   0  0  0  0  0  0  0  0  0  0  0  0
  -19.9709    1.5155  -14.9752 C   0  0  0  0  0  0  0  0  0  0  0  0
  -18.9086    2.2862  -15.3954 C   0  0  0  0  0  0  0  0  0  0  0  0
  -19.2713    3.6138  -15.1403 C   0  0  0  0  0  0  0  0  0  0  0  0
  -20.4863    3.7186  -14.5907 N   0  0  0  0  0  0  0  0  0  0  0  0
  -20.9327    2.4250  -14.5141 N   0  0  0  0  0  0  0  0  0  0  0  0
  -22.1874    1.9930  -13.9960 C   0  0  0  0  0  0  0  0  0  0  0  0
  -23.0726    2.9880  -13.5801 N   0  0  0  0  0  0  0  0  0  0  0  0
  -22.5856    3.8724  -13.4089 H   0  0  0  0  0  0  0  0  0  0  0  0
  -23.7039    2.7074  -12.8367 H   0  0  0  0  0  0  0  0  0  0  0  0
  -17.6183    1.7735  -16.0041 C   0  0  0  0  0  0  0  0  0  0  0  0
  -16.4526    1.4416  -15.0911 C   0  0  0  0  0  0  0  0  0  0  0  0
  -16.3852    2.6545  -15.9559 C   0  0  0  0  0  0  0  0  0  0  0  0
  -28.0832   -2.7035   -9.7942 N   0  0  0  0  0  0  0  0  0  0  0  0
  -26.9835   -2.0150  -10.2832 C   0  0  0  0  0  0  0  0  0  0  0  0
  -26.0889   -1.5375   -9.5917 O   0  0  0  0  0  0  0  0  0  0  0  0
  -27.0056   -1.8700  -11.6692 N   0  0  0  0  0  0  0  0  0  0  0  0
  -28.6326   -3.2289  -10.4617 H   0  0  0  0  0  0  0  0  0  0  0  0
  -27.9293   -1.7436  -12.0568 H   0  0  0  0  0  0  0  0  0  0  0  0
  -27.7934   -1.0407   -5.1094 C   0  0  0  0  0  0  0  0  0  0  0  0
  -28.2473   -2.0647   -6.1096 C   0  0  0  0  0  0  0  0  0  0  0  0
  -28.9672   -3.1799   -5.6703 C   0  0  0  0  0  0  0  0  0  0  0  0
  -29.3898   -4.1376   -6.5797 C   0  0  0  0  0  0  0  0  0  0  0  0
  -29.0977   -3.9903   -7.9351 C   0  0  0  0  0  0  0  0  0  0  0  0
  -28.3927   -2.8825   -8.4155 C   0  0  0  0  0  0  0  0  0  0  0  0
  -27.9642   -1.9194   -7.4857 C   0  0  0  0  0  0  0  0  0  0  0  0
 28 29  1  0  0  0
 29 30  1  0  0  0
 29 34  2  0  0  0
 30 31  2  0  0  0
 31 32  1  0  0  0
 32 33  2  0  0  0
 33 22  1  0  0  0
 33 34  1  0  0  0
 22 23  1  0  0  0
 22 26  1  0  0  0
 23 24  2  0  0  0
 23 25  1  0  0  0
 25  1  1  0  0  0
 25 27  1  0  0  0
  1  2  1  0  0  0
  1  6  2  0  0  0
  2  3  2  0  0  0
  3  4  1  0  0  0
  4  7  1  0  0  0
  4  5  2  0  0  0
  7  8  1  0  0  0
  7 15  2  0  0  0
  8  9  2  0  0  0
  9 10  1  0  0  0
 10 11  2  0  0  0
 10 14  1  0  0  0
 11 19  1  0  0  0
 11 12  1  0  0  0
 19 20  1  0  0  0
 19 21  1  0  0  0
 20 21  1  0  0  0
 12 13  2  0  0  0
 13 14  1  0  0  0
 14 15  1  0  0  0
 15 16  1  0  0  0
 16 17  1  0  0  0
 16 18  1  0  0  0
  5  6  1  0  0  0
M  END
> <minimizedAffinity>
-11.73881

$$$$
