CHEMBL3633271


 38 40  0  0  0  0  0  0  0  0999 V2000
  -27.1367   -0.8457  -10.6298 N   0  0  0  0  0  0  0  0  0  0  0  0
  -27.2541   -1.8461   -9.6696 C   0  0  0  0  0  0  0  0  0  0  0  0
  -26.5340   -2.8399   -9.6242 O   0  0  0  0  0  0  0  0  0  0  0  0
  -28.3099   -1.6463   -8.7818 N   0  0  0  0  0  0  0  0  0  0  0  0
  -27.3911    0.0981  -10.3652 H   0  0  0  0  0  0  0  0  0  0  0  0
  -29.1201   -1.1977   -9.1870 H   0  0  0  0  0  0  0  0  0  0  0  0
  -26.8109   -1.5765  -12.9743 C   0  0  0  0  0  0  0  0  0  0  0  0
  -25.9763   -1.6751  -14.1049 C   0  0  0  0  0  0  0  0  0  0  0  0
  -24.6638   -1.2112  -14.0762 C   0  0  0  0  0  0  0  0  0  0  0  0
  -24.1632   -0.6303  -12.9156 C   0  0  0  0  0  0  0  0  0  0  0  0
  -24.9958   -0.5103  -11.7942 C   0  0  0  0  0  0  0  0  0  0  0  0
  -26.3248   -0.9579  -11.8030 C   0  0  0  0  0  0  0  0  0  0  0  0
  -28.5230   -2.7543  -14.1207 C   0  0  0  0  0  0  0  0  0  0  0  0
  -28.1038   -2.0500  -12.9470 O   0  0  0  0  0  0  0  0  0  0  0  0
  -22.7189   -0.2919  -12.8538 C   0  0  0  0  0  0  0  0  0  0  0  0
  -22.1055   -0.1083  -11.8169 O   0  0  0  0  0  0  0  0  0  0  0  0
  -22.2655   -0.0584  -14.1059 O   0  0  0  0  0  0  0  0  0  0  0  0
  -21.5937    1.1980  -14.2802 C   0  0  0  0  0  0  0  0  0  0  0  0
  -20.3676    0.9400  -15.1800 C   0  0  0  0  0  0  0  0  0  0  0  0
  -19.3383    1.9923  -15.1711 N   0  0  0  0  0  0  0  0  0  0  0  0
  -19.8402    3.2349  -14.5843 C   0  0  0  0  0  0  0  0  0  0  0  0
  -18.1673    1.5286  -14.4196 C   0  0  0  0  0  0  0  0  0  0  0  0
  -28.5447   -2.5812   -7.7288 C   0  0  0  0  0  0  0  0  0  0  0  0
  -28.9005   -3.9102   -8.0182 C   0  0  0  0  0  0  0  0  0  0  0  0
  -29.2485   -4.8436   -7.0219 C   0  0  0  0  0  0  0  0  0  0  0  0
  -29.2264   -4.3843   -5.6958 C   0  0  0  0  0  0  0  0  0  0  0  0
  -28.8168   -3.0777   -5.3656 C   0  0  0  0  0  0  0  0  0  0  0  0
  -28.4511   -2.1845   -6.3949 C   0  0  0  0  0  0  0  0  0  0  0  0
  -29.6126   -6.2421   -7.3634 C   0  0  0  0  0  0  0  0  0  0  0  0
  -30.8491   -6.8062   -7.0105 C   0  0  0  0  0  0  0  0  0  0  0  0
  -31.1828   -8.1067   -7.3923 C   0  0  0  0  0  0  0  0  0  0  0  0
  -30.2574   -8.8385   -8.1110 C   0  0  0  0  0  0  0  0  0  0  0  0
  -29.0479   -8.3623   -8.4619 N   0  0  0  0  0  0  0  0  0  0  0  0
  -28.7630   -7.0884   -8.0855 C   0  0  0  0  0  0  0  0  0  0  0  0
  -28.7973   -2.6358   -3.9172 C   0  0  0  0  0  0  0  0  0  0  0  0
  -27.9906   -1.5605   -3.6849 F   0  0  0  0  0  0  0  0  0  0  0  0
  -30.0305   -2.2817   -3.4692 F   0  0  0  0  0  0  0  0  0  0  0  0
  -28.3606   -3.6184   -3.0817 F   0  0  0  0  0  0  0  0  0  0  0  0
 13 14  1  0  0  0
 14  7  1  0  0  0
  7  8  1  0  0  0
  7 12  2  0  0  0
  8  9  2  0  0  0
  9 10  1  0  0  0
 10 15  1  0  0  0
 10 11  2  0  0  0
 15 16  2  0  0  0
 15 17  1  0  0  0
 17 18  1  0  0  0
 18 19  1  0  0  0
 19 20  1  0  0  0
 20 21  1  0  0  0
 20 22  1  0  0  0
 11 12  1  0  0  0
 12  1  1  0  0  0
  1  2  1  0  0  0
  1  5  1  0  0  0
  2  3  2  0  0  0
  2  4  1  0  0  0
  4 23  1  0  0  0
  4  6  1  0  0  0
 23 24  1  0  0  0
 23 28  2  0  0  0
 24 25  2  0  0  0
 25 29  1  0  0  0
 25 26  1  0  0  0
 29 30  1  0  0  0
 29 34  2  0  0  0
 30 31  2  0  0  0
 31 32  1  0  0  0
 32 33  2  0  0  0
 33 34  1  0  0  0
 26 27  2  0  0  0
 27 35  1  0  0  0
 27 28  1  0  0  0
 35 36  1  0  0  0
 35 37  1  0  0  0
 35 38  1  0  0  0
M  END
> <minimizedAffinity>
-9.26907

$$$$
