CHEMBL3657554


 37 41  0  0  0  0  0  0  0  0999 V2000
  -19.1595    2.2834  -15.0530 C   0  0  0  0  0  0  0  0  0  0  0  0
  -19.8755    3.4599  -14.9902 C   0  0  0  0  0  0  0  0  0  0  0  0
  -21.2012    3.3264  -14.6778 C   0  0  0  0  0  0  0  0  0  0  0  0
  -21.7848    2.1460  -14.4095 N   0  0  0  0  0  0  0  0  0  0  0  0
  -21.0254    1.0430  -14.4816 C   0  0  0  0  0  0  0  0  0  0  0  0
  -19.7267    1.0651  -14.8359 N   0  0  0  0  0  0  0  0  0  0  0  0
  -15.6091    1.8419  -15.5769 C   0  0  0  0  0  0  0  0  0  0  0  0
  -16.7898    1.4748  -14.9548 C   0  0  0  0  0  0  0  0  0  0  0  0
  -17.7646    2.3592  -15.3558 N   0  0  0  0  0  0  0  0  0  0  0  0
  -17.2352    3.3701  -16.0965 N   0  0  0  0  0  0  0  0  0  0  0  0
  -15.9329    3.0743  -16.2019 C   0  0  0  0  0  0  0  0  0  0  0  0
  -15.0070    4.0131  -16.8869 C   0  0  0  0  0  0  0  0  0  0  0  0
  -14.2822    1.1449  -15.5400 C   0  0  0  0  0  0  0  0  0  0  0  0
  -13.9376   -0.8814  -14.2059 C   0  0  0  0  0  0  0  0  0  0  0  0
  -12.6678   -1.2656  -13.4351 C   0  0  0  0  0  0  0  0  0  0  0  0
  -11.7543   -0.0812  -13.6397 C   0  0  0  0  0  0  0  0  0  0  0  0
  -11.0838   -0.1765  -14.8941 O   0  0  0  0  0  0  0  0  0  0  0  0
  -12.7265    1.0889  -13.6049 C   0  0  0  0  0  0  0  0  0  0  0  0
  -13.9934    0.6108  -14.1957 N   0  0  0  0  0  0  0  0  0  0  0  0
  -11.7531   -0.1236  -15.5961 H   0  0  0  0  0  0  0  0  0  0  0  0
  -15.1643   -1.5508  -13.5604 C   0  0  0  0  0  0  0  0  0  0  0  0
  -15.7117   -2.4211  -11.4480 C   0  0  0  0  0  0  0  0  0  0  0  0
  -15.2050   -1.2946  -12.1552 O   0  0  0  0  0  0  0  0  0  0  0  0
  -21.5598   -0.2159  -14.1935 N   0  0  0  0  0  0  0  0  0  0  0  0
  -20.7925   -0.8676  -14.1001 H   0  0  0  0  0  0  0  0  0  0  0  0
  -22.7187   -0.5904  -13.4826 C   0  0  0  0  0  0  0  0  0  0  0  0
  -22.7544   -0.8145  -12.1044 C   0  0  0  0  0  0  0  0  0  0  0  0
  -23.9229   -1.2239  -11.4386 C   0  0  0  0  0  0  0  0  0  0  0  0
  -25.0902   -1.4001  -12.1944 C   0  0  0  0  0  0  0  0  0  0  0  0
  -25.1175   -1.1287  -13.5625 C   0  0  0  0  0  0  0  0  0  0  0  0
  -23.9284   -0.6933  -14.1944 C   0  0  0  0  0  0  0  0  0  0  0  0
  -26.4393   -1.3967  -14.0122 C   0  0  0  0  0  0  0  0  0  0  0  0
  -26.9699   -1.2044  -15.6201 Cl  0  0  0  0  0  0  0  0  0  0  0  0
  -27.1805   -1.8719  -12.9456 C   0  0  0  0  0  0  0  0  0  0  0  0
  -28.5841   -2.3697  -12.9079 C   0  0  0  0  0  0  0  0  0  0  0  0
  -26.3547   -1.8312  -11.8402 N   0  0  0  0  0  0  0  0  0  0  0  0
  -26.7263   -2.2062  -10.4865 C   0  0  0  0  0  0  0  0  0  0  0  0
 22 23  1  0  0  0
 23 21  1  0  0  0
 14 15  1  0  0  0
 14 19  1  0  0  0
 14 21  1  0  0  0
 15 16  1  0  0  0
 16 17  1  0  0  0
 16 18  1  0  0  0
 17 20  1  0  0  0
 18 19  1  0  0  0
 19 13  1  0  0  0
 13  7  1  0  0  0
  7  8  2  0  0  0
  7 11  1  0  0  0
  8  9  1  0  0  0
  9  1  1  0  0  0
  9 10  1  0  0  0
  1  2  1  0  0  0
  1  6  2  0  0  0
  2  3  2  0  0  0
  3  4  1  0  0  0
  4  5  2  0  0  0
  5 24  1  0  0  0
  5  6  1  0  0  0
 24 26  1  0  0  0
 24 25  1  0  0  0
 26 27  1  0  0  0
 26 31  2  0  0  0
 27 28  2  0  0  0
 28 29  1  0  0  0
 29 30  2  0  0  0
 29 36  1  0  0  0
 30 31  1  0  0  0
 30 32  1  0  0  0
 32 33  1  0  0  0
 32 34  2  0  0  0
 34 35  1  0  0  0
 34 36  1  0  0  0
 36 37  1  0  0  0
 10 11  2  0  0  0
 11 12  1  0  0  0
M  END
> <minimizedAffinity>
-8.92153

$$$$
