CHEMBL364082


 32 35  0  0  0  0  0  0  0  0999 V2000
  -16.0919    0.8295  -14.0990 C   0  0  0  0  0  0  0  0  0  0  0  0
  -15.9737    1.1206  -15.3776 N   0  0  0  0  0  0  0  0  0  0  0  0
  -17.2068    1.5592  -15.7478 C   0  0  0  0  0  0  0  0  0  0  0  0
  -18.0642    1.5137  -14.6756 C   0  0  0  0  0  0  0  0  0  0  0  0
  -17.3441    1.0643  -13.5945 O   0  0  0  0  0  0  0  0  0  0  0  0
  -19.4783    1.8019  -14.5074 C   0  0  0  0  0  0  0  0  0  0  0  0
  -19.9776    3.0491  -14.9082 C   0  0  0  0  0  0  0  0  0  0  0  0
  -21.3285    3.3500  -14.7762 C   0  0  0  0  0  0  0  0  0  0  0  0
  -22.2003    2.3961  -14.2582 C   0  0  0  0  0  0  0  0  0  0  0  0
  -21.7537    1.1132  -13.8865 C   0  0  0  0  0  0  0  0  0  0  0  0
  -20.3738    0.8495  -13.9989 C   0  0  0  0  0  0  0  0  0  0  0  0
  -22.7093    0.0599  -13.4741 C   0  0  0  0  0  0  0  0  0  0  0  0
  -22.6451   -0.5000  -12.1835 C   0  0  0  0  0  0  0  0  0  0  0  0
  -23.5797   -1.4401  -11.7441 C   0  0  0  0  0  0  0  0  0  0  0  0
  -24.6110   -1.8381  -12.5860 C   0  0  0  0  0  0  0  0  0  0  0  0
  -24.6933   -1.3125  -13.8721 C   0  0  0  0  0  0  0  0  0  0  0  0
  -23.7470   -0.3817  -14.3145 C   0  0  0  0  0  0  0  0  0  0  0  0
  -15.1937    0.2930  -13.2537 N   0  0  0  0  0  0  0  0  0  0  0  0
  -15.0387    0.7501  -12.3603 H   0  0  0  0  0  0  0  0  0  0  0  0
  -15.0610   -3.4221  -12.8283 C   0  0  0  0  0  0  0  0  0  0  0  0
  -13.7514   -3.6927  -13.2116 C   0  0  0  0  0  0  0  0  0  0  0  0
  -12.9343   -2.6474  -13.6550 C   0  0  0  0  0  0  0  0  0  0  0  0
  -13.4180   -1.3312  -13.6899 C   0  0  0  0  0  0  0  0  0  0  0  0
  -14.7369   -1.0477  -13.2675 C   0  0  0  0  0  0  0  0  0  0  0  0
  -15.5579   -2.1210  -12.8833 C   0  0  0  0  0  0  0  0  0  0  0  0
  -16.1414   -4.7211  -12.2797 S   0  0  0  0  0  0  0  0  0  0  0  0
  -17.0720   -4.9811  -13.3618 O   0  0  0  0  0  0  0  0  0  0  0  0
  -16.6165   -4.3429  -10.9610 O   0  0  0  0  0  0  0  0  0  0  0  0
  -15.2829   -7.1192  -13.2713 C   0  0  0  0  0  0  0  0  0  0  0  0
  -15.0826   -6.1542  -12.1154 C   0  0  0  0  0  0  0  0  0  0  0  0
  -12.6723   -0.2407  -14.0770 O   0  0  0  0  0  0  0  0  0  0  0  0
  -11.5330    0.0638  -13.2782 C   0  0  0  0  0  0  0  0  0  0  0  0
 29 30  1  0  0  0
 30 26  1  0  0  0
 26 27  2  0  0  0
 26 28  2  0  0  0
 26 20  1  0  0  0
 20 21  1  0  0  0
 20 25  2  0  0  0
 21 22  2  0  0  0
 22 23  1  0  0  0
 23 31  1  0  0  0
 23 24  2  0  0  0
 31 32  1  0  0  0
 24 18  1  0  0  0
 24 25  1  0  0  0
 18  1  1  0  0  0
 18 19  1  0  0  0
  1  2  2  0  0  0
  1  5  1  0  0  0
  2  3  1  0  0  0
  3  4  2  0  0  0
  4  6  1  0  0  0
  4  5  1  0  0  0
  6  7  1  0  0  0
  6 11  2  0  0  0
  7  8  2  0  0  0
  8  9  1  0  0  0
  9 10  2  0  0  0
 10 12  1  0  0  0
 10 11  1  0  0  0
 12 13  1  0  0  0
 12 17  2  0  0  0
 13 14  2  0  0  0
 14 15  1  0  0  0
 15 16  2  0  0  0
 16 17  1  0  0  0
M  END
> <minimizedAffinity>
-10.11880

$$$$
