CHEMBL3706835


 32 34  0  0  0  0  0  0  0  0999 V2000
  -29.8128   -9.8382   -8.1429 C   0  0  0  0  0  0  0  0  0  0  0  0
  -28.5555  -10.1752   -7.5835 C   0  0  0  0  0  0  0  0  0  0  0  0
  -28.0374   -9.5976   -6.4251 C   0  0  0  0  0  0  0  0  0  0  0  0
  -26.8178   -9.9439   -5.9932 N   0  0  0  0  0  0  0  0  0  0  0  0
  -26.3742   -9.3393   -4.8849 C   0  0  0  0  0  0  0  0  0  0  0  0
  -27.0391   -8.4362   -4.1586 N   0  0  0  0  0  0  0  0  0  0  0  0
  -28.2654   -8.0981   -4.5918 C   0  0  0  0  0  0  0  0  0  0  0  0
  -28.8172   -8.6517   -5.7649 C   0  0  0  0  0  0  0  0  0  0  0  0
  -30.0750   -8.3030   -6.3122 C   0  0  0  0  0  0  0  0  0  0  0  0
  -30.5953   -8.8861   -7.4815 C   0  0  0  0  0  0  0  0  0  0  0  0
  -29.0073   -7.1265   -3.8798 N   0  0  0  0  0  0  0  0  0  0  0  0
  -29.1360   -7.3824   -2.8986 H   0  0  0  0  0  0  0  0  0  0  0  0
  -28.9582   -5.7477   -4.0234 C   0  0  0  0  0  0  0  0  0  0  0  0
  -27.9059   -4.9789   -4.3305 C   0  0  0  0  0  0  0  0  0  0  0  0
  -27.9738   -3.5126   -4.4567 C   0  0  0  0  0  0  0  0  0  0  0  0
  -26.9709   -2.8741   -4.7689 O   0  0  0  0  0  0  0  0  0  0  0  0
  -29.2895   -2.8425   -4.2114 C   0  0  0  0  0  0  0  0  0  0  0  0
  -30.3561   -3.6087   -3.9395 C   0  0  0  0  0  0  0  0  0  0  0  0
  -30.2847   -5.0750   -3.8519 C   0  0  0  0  0  0  0  0  0  0  0  0
  -31.2991   -5.7314   -3.6250 O   0  0  0  0  0  0  0  0  0  0  0  0
  -29.2962   -1.4567   -4.2865 O   0  0  0  0  0  0  0  0  0  0  0  0
  -29.6661   -0.8743   -5.5401 C   0  0  0  0  0  0  0  0  0  0  0  0
  -29.4500    0.6288   -5.5359 C   0  0  0  0  0  0  0  0  0  0  0  0
  -30.6430    1.2400   -5.3064 F   0  0  0  0  0  0  0  0  0  0  0  0
  -28.6399    0.9796   -4.5051 F   0  0  0  0  0  0  0  0  0  0  0  0
  -31.7732   -8.2797   -7.8035 O   0  0  0  0  0  0  0  0  0  0  0  0
  -32.9097   -8.3266   -6.9619 C   0  0  0  0  0  0  0  0  0  0  0  0
  -30.0103  -10.5202   -9.3191 O   0  0  0  0  0  0  0  0  0  0  0  0
  -28.8694  -10.8624  -10.0782 C   0  0  0  0  0  0  0  0  0  0  0  0
  -28.9535  -10.4624  -11.5443 C   0  0  0  0  0  0  0  0  0  0  0  0
  -26.8108   -9.8162  -10.7365 C   0  0  0  0  0  0  0  0  0  0  0  0
  -27.7250   -9.7788  -11.8149 O   0  0  0  0  0  0  0  0  0  0  0  0
 31 32  1  0  0  0
 32 30  1  0  0  0
 30 29  1  0  0  0
 29 28  1  0  0  0
 28  1  1  0  0  0
  1  2  1  0  0  0
  1 10  2  0  0  0
  2  3  2  0  0  0
  3  4  1  0  0  0
  3  8  1  0  0  0
  4  5  2  0  0  0
  5  6  1  0  0  0
  6  7  2  0  0  0
  7 11  1  0  0  0
  7  8  1  0  0  0
 11 13  1  0  0  0
 11 12  1  0  0  0
 13 14  2  0  0  0
 13 19  1  0  0  0
 14 15  1  0  0  0
 15 16  2  0  0  0
 15 17  1  0  0  0
 17 21  1  0  0  0
 17 18  2  0  0  0
 21 22  1  0  0  0
 22 23  1  0  0  0
 23 24  1  0  0  0
 23 25  1  0  0  0
 18 19  1  0  0  0
 19 20  2  0  0  0
  8  9  2  0  0  0
  9 10  1  0  0  0
 10 26  1  0  0  0
 26 27  1  0  0  0
M  END
> <minimizedAffinity>
-7.50641

$$$$
