CHEMBL3929354


 33 37  0  0  0  0  0  0  0  0999 V2000
  -28.7880   -5.7266   -7.4900 C   0  0  0  0  0  0  0  0  0  0  0  0
  -28.5988   -4.5506   -8.2162 C   0  0  0  0  0  0  0  0  0  0  0  0
  -28.3121   -3.3325   -7.5687 C   0  0  0  0  0  0  0  0  0  0  0  0
  -28.1508   -2.1086   -8.2368 C   0  0  0  0  0  0  0  0  0  0  0  0
  -27.8199   -0.9836   -7.5817 N   0  0  0  0  0  0  0  0  0  0  0  0
  -27.6760   -1.0792   -6.2563 C   0  0  0  0  0  0  0  0  0  0  0  0
  -27.8347   -2.1887   -5.5228 N   0  0  0  0  0  0  0  0  0  0  0  0
  -28.1503   -3.3066   -6.1810 C   0  0  0  0  0  0  0  0  0  0  0  0
  -28.3480   -4.4833   -5.4625 C   0  0  0  0  0  0  0  0  0  0  0  0
  -28.7041   -5.6843   -6.0876 C   0  0  0  0  0  0  0  0  0  0  0  0
  -27.9553   -7.5731   -8.7434 C   0  0  0  0  0  0  0  0  0  0  0  0
  -29.0462   -6.9414   -8.0760 O   0  0  0  0  0  0  0  0  0  0  0  0
  -28.3795   -2.0427   -9.6438 N   0  0  0  0  0  0  0  0  0  0  0  0
  -29.1693   -1.4267   -9.8146 H   0  0  0  0  0  0  0  0  0  0  0  0
  -27.3429   -1.8710  -10.5879 C   0  0  0  0  0  0  0  0  0  0  0  0
  -26.0341   -1.6254  -10.1543 C   0  0  0  0  0  0  0  0  0  0  0  0
  -25.0214   -1.3218  -11.0620 C   0  0  0  0  0  0  0  0  0  0  0  0
  -25.3032   -1.2784  -12.4271 C   0  0  0  0  0  0  0  0  0  0  0  0
  -23.9016   -0.7386  -13.5877 Br  0  0  0  0  0  0  0  0  0  0  0  0
  -26.5882   -1.5977  -12.8807 C   0  0  0  0  0  0  0  0  0  0  0  0
  -27.0068   -1.5963  -14.5582 Cl  0  0  0  0  0  0  0  0  0  0  0  0
  -27.6009   -1.9080  -11.9623 C   0  0  0  0  0  0  0  0  0  0  0  0
  -29.0772   -6.8184   -5.4121 O   0  0  0  0  0  0  0  0  0  0  0  0
  -28.0721   -7.6413   -4.7884 C   0  0  0  0  0  0  0  0  0  0  0  0
  -28.4711   -8.0853   -3.3807 C   0  0  0  0  0  0  0  0  0  0  0  0
  -29.2846   -9.2640   -3.5060 O   0  0  0  0  0  0  0  0  0  0  0  0
  -28.8280   -9.9529   -4.6696 C   0  0  0  0  0  0  0  0  0  0  0  0
  -27.8222  -11.0795   -4.3891 C   0  0  0  0  0  0  0  0  0  0  0  0
  -26.8967  -10.9330   -5.5897 C   0  0  0  0  0  0  0  0  0  0  0  0
  -26.7641   -9.5117   -5.7839 O   0  0  0  0  0  0  0  0  0  0  0  0
  -28.0720   -8.9623   -5.5525 C   0  0  0  0  0  0  0  0  0  0  0  0
  -27.1134  -10.8637   -3.1587 O   0  0  0  0  0  0  0  0  0  0  0  0
  -25.9059  -11.6092   -3.0611 C   0  0  0  0  0  0  0  0  0  0  0  0
 11 12  1  0  0  0
 12  1  1  0  0  0
  1  2  1  0  0  0
  1 10  2  0  0  0
  2  3  2  0  0  0
  3  4  1  0  0  0
  3  8  1  0  0  0
  4 13  1  0  0  0
  4  5  2  0  0  0
 13 15  1  0  0  0
 13 14  1  0  0  0
 15 16  1  0  0  0
 15 22  2  0  0  0
 16 17  2  0  0  0
 17 18  1  0  0  0
 18 19  1  0  0  0
 18 20  2  0  0  0
 20 21  1  0  0  0
 20 22  1  0  0  0
  5  6  1  0  0  0
  6  7  2  0  0  0
  7  8  1  0  0  0
  8  9  2  0  0  0
  9 10  1  0  0  0
 10 23  1  0  0  0
 24 25  1  0  0  0
 24 31  1  0  0  0
 24 23  1  0  0  0
 25 26  1  0  0  0
 26 27  1  0  0  0
 27 28  1  0  0  0
 27 31  1  0  0  0
 28 29  1  0  0  0
 28 32  1  0  0  0
 32 33  1  0  0  0
 29 30  1  0  0  0
 30 31  1  0  0  0
M  END
> <minimizedAffinity>
-7.94227

$$$$
