CHEMBL3918892


 32 36  0  0  0  0  0  0  0  0999 V2000
  -27.8999   -2.1275   -8.1231 N   0  0  0  0  0  0  0  0  0  0  0  0
  -27.3838   -1.6187   -9.3759 C   0  0  0  0  0  0  0  0  0  0  0  0
  -28.2841   -1.6855  -10.4288 C   0  0  0  0  0  0  0  0  0  0  0  0
  -27.8614   -1.7485  -11.7267 C   0  0  0  0  0  0  0  0  0  0  0  0
  -26.5556   -1.5448  -12.0645 C   0  0  0  0  0  0  0  0  0  0  0  0
  -26.2850   -1.8066  -13.3459 N   0  0  0  0  0  0  0  0  0  0  0  0
  -25.0942   -1.4062  -13.7942 C   0  0  0  0  0  0  0  0  0  0  0  0
  -24.2214   -0.6827  -13.0080 C   0  0  0  0  0  0  0  0  0  0  0  0
  -24.4390   -0.5445  -11.6481 N   0  0  0  0  0  0  0  0  0  0  0  0
  -25.6258   -1.0544  -11.1170 C   0  0  0  0  0  0  0  0  0  0  0  0
  -26.0670   -1.1961   -9.7318 C   0  0  0  0  0  0  0  0  0  0  0  0
  -23.2063    0.0629  -13.7520 C   0  0  0  0  0  0  0  0  0  0  0  0
  -21.9718   -0.3944  -14.2878 C   0  0  0  0  0  0  0  0  0  0  0  0
  -21.1437    0.6038  -14.6275 N   0  0  0  0  0  0  0  0  0  0  0  0
  -21.8337    1.7078  -14.2972 N   0  0  0  0  0  0  0  0  0  0  0  0
  -21.3763    3.0128  -14.7152 C   0  0  0  0  0  0  0  0  0  0  0  0
  -22.9972    1.4287  -13.6317 C   0  0  0  0  0  0  0  0  0  0  0  0
  -29.7341   -4.8965   -6.2575 C   0  0  0  0  0  0  0  0  0  0  0  0
  -29.2549   -6.0134   -6.9388 C   0  0  0  0  0  0  0  0  0  0  0  0
  -28.3821   -5.8546   -8.0078 C   0  0  0  0  0  0  0  0  0  0  0  0
  -27.9107   -4.5807   -8.3654 C   0  0  0  0  0  0  0  0  0  0  0  0
  -28.3949   -3.4180   -7.7611 C   0  0  0  0  0  0  0  0  0  0  0  0
  -29.3349   -3.6162   -6.7076 C   0  0  0  0  0  0  0  0  0  0  0  0
  -27.8912   -6.9014   -8.7486 O   0  0  0  0  0  0  0  0  0  0  0  0
  -28.5489   -8.1375   -8.4852 C   0  0  0  0  0  0  0  0  0  0  0  0
  -30.6308   -5.1013   -5.0517 C   0  0  0  0  0  0  0  0  0  0  0  0
  -30.9676   -3.5900   -3.2507 C   0  0  0  0  0  0  0  0  0  0  0  0
  -30.0477   -4.4358   -3.9286 O   0  0  0  0  0  0  0  0  0  0  0  0
  -28.3680   -0.9680   -7.2769 C   0  0  0  0  0  0  0  0  0  0  0  0
  -27.5773   -0.4977   -6.0607 C   0  0  0  0  0  0  0  0  0  0  0  0
  -27.6999   -1.0351   -4.6438 C   0  0  0  0  0  0  0  0  0  0  0  0
  -28.0562    0.3922   -4.9353 C   0  0  0  0  0  0  0  0  0  0  0  0
 27 28  1  0  0  0
 28 26  1  0  0  0
 26 18  1  0  0  0
 18 19  1  0  0  0
 18 23  2  0  0  0
 19 20  2  0  0  0
 20 24  1  0  0  0
 20 21  1  0  0  0
 24 25  1  0  0  0
 21 22  2  0  0  0
 22  1  1  0  0  0
 22 23  1  0  0  0
  1 29  1  0  0  0
  1  2  1  0  0  0
 29 30  1  0  0  0
 30 31  1  0  0  0
 30 32  1  0  0  0
 31 32  1  0  0  0
  2  3  1  0  0  0
  2 11  2  0  0  0
  3  4  2  0  0  0
  4  5  1  0  0  0
  5  6  1  0  0  0
  5 10  2  0  0  0
  6  7  2  0  0  0
  7  8  1  0  0  0
  8 12  1  0  0  0
  8  9  2  0  0  0
 12 13  1  0  0  0
 12 17  2  0  0  0
 13 14  2  0  0  0
 14 15  1  0  0  0
 15 16  1  0  0  0
 15 17  1  0  0  0
  9 10  1  0  0  0
 10 11  1  0  0  0
M  END
> <minimizedAffinity>
-8.27971

$$$$
