CHEMBL3746359


 33 36  0  0  0  0  0  0  0  0999 V2000
  -29.3430   -4.6156   -5.9641 C   0  0  0  0  0  0  0  0  0  0  0  0
  -29.3798   -4.8900   -7.3307 C   0  0  0  0  0  0  0  0  0  0  0  0
  -28.8988   -3.9682   -8.2632 C   0  0  0  0  0  0  0  0  0  0  0  0
  -28.4145   -2.7352   -7.7942 C   0  0  0  0  0  0  0  0  0  0  0  0
  -28.4198   -2.4164   -6.4343 C   0  0  0  0  0  0  0  0  0  0  0  0
  -27.8902   -1.1049   -6.3140 C   0  0  0  0  0  0  0  0  0  0  0  0
  -27.4844   -0.6985   -7.5643 C   0  0  0  0  0  0  0  0  0  0  0  0
  -27.8054   -1.6869   -8.4806 N   0  0  0  0  0  0  0  0  0  0  0  0
  -27.5870   -1.6379   -9.8701 C   0  0  0  0  0  0  0  0  0  0  0  0
  -28.4607   -2.0376  -10.6263 O   0  0  0  0  0  0  0  0  0  0  0  0
  -26.2948   -1.2307  -10.1640 N   0  0  0  0  0  0  0  0  0  0  0  0
  -28.9148   -3.3618   -5.5088 C   0  0  0  0  0  0  0  0  0  0  0  0
  -25.6115   -1.3093   -9.4198 H   0  0  0  0  0  0  0  0  0  0  0  0
  -25.8027   -1.1550  -11.4904 C   0  0  0  0  0  0  0  0  0  0  0  0
  -26.4826   -1.7467  -12.5579 C   0  0  0  0  0  0  0  0  0  0  0  0
  -25.9568   -1.7032  -13.8490 C   0  0  0  0  0  0  0  0  0  0  0  0
  -24.7333   -1.0842  -14.0829 C   0  0  0  0  0  0  0  0  0  0  0  0
  -24.0338   -0.4763  -13.0295 C   0  0  0  0  0  0  0  0  0  0  0  0
  -24.6011   -0.4814  -11.7366 C   0  0  0  0  0  0  0  0  0  0  0  0
  -22.6729    0.1357  -13.2705 C   0  0  0  0  0  0  0  0  0  0  0  0
  -21.9624   -0.4836  -14.2551 F   0  0  0  0  0  0  0  0  0  0  0  0
  -22.7461    1.4457  -13.6284 F   0  0  0  0  0  0  0  0  0  0  0  0
  -21.8844    0.0935  -12.1607 F   0  0  0  0  0  0  0  0  0  0  0  0
  -29.7729   -5.5139   -5.0077 O   0  0  0  0  0  0  0  0  0  0  0  0
  -25.9681   -8.2483   -4.1509 N   0  0  0  0  0  0  0  0  0  0  0  0
  -27.2901   -8.0752   -4.5577 C   0  0  0  0  0  0  0  0  0  0  0  0
  -27.8498   -6.8205   -4.6164 C   0  0  0  0  0  0  0  0  0  0  0  0
  -29.1755   -6.7739   -4.9807 C   0  0  0  0  0  0  0  0  0  0  0  0
  -29.8912   -7.8632   -5.3165 N   0  0  0  0  0  0  0  0  0  0  0  0
  -29.2516   -9.0292   -5.1983 C   0  0  0  0  0  0  0  0  0  0  0  0
  -27.9749   -9.1928   -4.8262 N   0  0  0  0  0  0  0  0  0  0  0  0
  -25.3237   -7.6947   -4.7028 H   0  0  0  0  0  0  0  0  0  0  0  0
  -25.7598   -9.2428   -4.2135 H   0  0  0  0  0  0  0  0  0  0  0  0
 25 26  1  0  0  0
 25 32  1  0  0  0
 25 33  1  0  0  0
 26 27  1  0  0  0
 26 31  2  0  0  0
 27 28  2  0  0  0
 28 24  1  0  0  0
 28 29  1  0  0  0
 24  1  1  0  0  0
  1  2  1  0  0  0
  1 12  2  0  0  0
  2  3  2  0  0  0
  3  4  1  0  0  0
  4  5  2  0  0  0
  4  8  1  0  0  0
  5  6  1  0  0  0
  5 12  1  0  0  0
  6  7  2  0  0  0
  7  8  1  0  0  0
  8  9  1  0  0  0
  9 10  2  0  0  0
  9 11  1  0  0  0
 11 14  1  0  0  0
 11 13  1  0  0  0
 14 15  1  0  0  0
 14 19  2  0  0  0
 15 16  2  0  0  0
 16 17  1  0  0  0
 17 18  2  0  0  0
 18 20  1  0  0  0
 18 19  1  0  0  0
 20 21  1  0  0  0
 20 22  1  0  0  0
 20 23  1  0  0  0
 29 30  2  0  0  0
 30 31  1  0  0  0
M  END
> <minimizedAffinity>
-10.48481

$$$$
