CHEMBL4637872


 46 50  0  0  0  0  0  0  0  0999 V2000
  -13.9921   -1.3865  -19.1333 N   0  0  0  0  0  0  0  0  0  0  0  0
  -14.6856   -1.1807  -19.8358 H   0  0  0  0  0  0  0  0  0  0  0  0
  -13.4576    1.4547  -17.0501 C   0  0  0  0  0  0  0  0  0  0  0  0
  -12.4228    2.0543  -17.6251 N   0  0  0  0  0  0  0  0  0  0  0  0
  -11.9103    1.4099  -18.6680 C   0  0  0  0  0  0  0  0  0  0  0  0
  -12.3575    0.2735  -19.1949 N   0  0  0  0  0  0  0  0  0  0  0  0
  -13.4244   -0.2276  -18.5882 C   0  0  0  0  0  0  0  0  0  0  0  0
  -13.9633    0.3203  -17.4960 N   0  0  0  0  0  0  0  0  0  0  0  0
  -14.0771    2.0223  -15.9177 N   0  0  0  0  0  0  0  0  0  0  0  0
  -13.8470    3.0198  -15.9278 H   0  0  0  0  0  0  0  0  0  0  0  0
  -15.7999    0.8895  -14.5261 C   0  0  0  0  0  0  0  0  0  0  0  0
  -17.1611    0.7152  -14.2141 C   0  0  0  0  0  0  0  0  0  0  0  0
  -18.1403    1.4603  -14.8587 C   0  0  0  0  0  0  0  0  0  0  0  0
  -17.7795    2.4112  -15.8026 C   0  0  0  0  0  0  0  0  0  0  0  0
  -16.4352    2.5806  -16.1244 C   0  0  0  0  0  0  0  0  0  0  0  0
  -15.4192    1.7977  -15.5346 C   0  0  0  0  0  0  0  0  0  0  0  0
  -14.6023    0.1029  -13.4429 S   0  0  0  0  0  0  0  0  0  0  0  0
  -13.9676    1.1306  -12.6435 O   0  0  0  0  0  0  0  0  0  0  0  0
  -13.8188   -0.7781  -14.2875 O   0  0  0  0  0  0  0  0  0  0  0  0
  -15.5078   -0.8897  -12.4089 N   0  0  0  0  0  0  0  0  0  0  0  0
  -15.7100   -0.4233  -11.5218 H   0  0  0  0  0  0  0  0  0  0  0  0
  -16.0251   -3.1557  -13.1860 C   0  0  0  0  0  0  0  0  0  0  0  0
  -15.1211   -2.3075  -12.2997 C   0  0  0  0  0  0  0  0  0  0  0  0
  -13.6068   -2.7200  -18.9261 C   0  0  0  0  0  0  0  0  0  0  0  0
  -13.8863   -3.7042  -19.8670 C   0  0  0  0  0  0  0  0  0  0  0  0
  -13.8031   -5.0552  -19.5559 C   0  0  0  0  0  0  0  0  0  0  0  0
  -13.3357   -5.5151  -18.3182 C   0  0  0  0  0  0  0  0  0  0  0  0
  -12.8324   -4.5146  -17.4472 C   0  0  0  0  0  0  0  0  0  0  0  0
  -13.0274   -3.1434  -17.7298 C   0  0  0  0  0  0  0  0  0  0  0  0
  -13.3688   -6.8783  -18.0340 N   0  0  0  0  0  0  0  0  0  0  0  0
  -13.8248   -7.3520  -16.7041 C   0  0  0  0  0  0  0  0  0  0  0  0
  -13.1142   -8.7011  -16.3833 C   0  0  0  0  0  0  0  0  0  0  0  0
  -13.3680   -9.7348  -17.4136 N   0  0  0  0  0  0  0  0  0  0  0  0
  -12.6121  -10.9500  -17.1214 C   0  0  0  0  0  0  0  0  0  0  0  0
  -12.9814   -9.2076  -18.7416 C   0  0  0  0  0  0  0  0  0  0  0  0
  -13.6626   -7.8677  -19.0891 C   0  0  0  0  0  0  0  0  0  0  0  0
  -12.1436   -4.7272  -16.2711 O   0  0  0  0  0  0  0  0  0  0  0  0
  -12.7429   -4.2267  -15.0742 C   0  0  0  0  0  0  0  0  0  0  0  0
  -12.0425   -4.6365  -13.8003 C   0  0  0  0  0  0  0  0  0  0  0  0
  -12.1559   -6.1292  -13.5607 C   0  0  0  0  0  0  0  0  0  0  0  0
  -12.8361   -6.4146  -12.2891 N   0  0  0  0  0  0  0  0  0  0  0  0
  -12.4425   -7.7463  -11.7878 C   0  0  0  0  0  0  0  0  0  0  0  0
  -13.0569   -8.9092  -12.5908 C   0  0  0  0  0  0  0  0  0  0  0  0
  -14.4859   -8.8163  -12.6370 O   0  0  0  0  0  0  0  0  0  0  0  0
  -14.9052   -7.5557  -13.1790 C   0  0  0  0  0  0  0  0  0  0  0  0
  -14.3132   -6.3840  -12.3825 C   0  0  0  0  0  0  0  0  0  0  0  0
 22 23  1  0  0  0
 23 20  1  0  0  0
 20 17  1  0  0  0
 20 21  1  0  0  0
 17 18  2  0  0  0
 17 19  2  0  0  0
 17 11  1  0  0  0
 11 12  1  0  0  0
 11 16  2  0  0  0
 12 13  2  0  0  0
 13 14  1  0  0  0
 14 15  2  0  0  0
 15 16  1  0  0  0
 16  9  1  0  0  0
  9  3  1  0  0  0
  9 10  1  0  0  0
  3  4  1  0  0  0
  3  8  2  0  0  0
  4  5  2  0  0  0
  5  6  1  0  0  0
  6  7  2  0  0  0
  7  1  1  0  0  0
  7  8  1  0  0  0
  1 24  1  0  0  0
  1  2  1  0  0  0
 24 25  1  0  0  0
 24 29  2  0  0  0
 25 26  2  0  0  0
 26 27  1  0  0  0
 27 30  1  0  0  0
 27 28  2  0  0  0
 30 31  1  0  0  0
 30 36  1  0  0  0
 31 32  1  0  0  0
 32 33  1  0  0  0
 33 34  1  0  0  0
 33 35  1  0  0  0
 35 36  1  0  0  0
 28 37  1  0  0  0
 28 29  1  0  0  0
 37 38  1  0  0  0
 38 39  1  0  0  0
 39 40  1  0  0  0
 40 41  1  0  0  0
 41 42  1  0  0  0
 41 46  1  0  0  0
 42 43  1  0  0  0
 43 44  1  0  0  0
 44 45  1  0  0  0
 45 46  1  0  0  0
M  END
> <minimizedAffinity>
-7.11445

$$$$
