CHEMBL1934325


 39 43  0  0  0  0  0  0  0  0999 V2000
  -28.1210   -2.2119   -9.9025 N   0  0  0  0  0  0  0  0  0  0  0  0
  -28.9737   -2.5878  -10.2809 H   0  0  0  0  0  0  0  0  0  0  0  0
  -28.8641   -5.0968   -5.7334 C   0  0  0  0  0  0  0  0  0  0  0  0
  -28.9153   -5.4252   -7.0811 C   0  0  0  0  0  0  0  0  0  0  0  0
  -28.6110   -4.4506   -8.0320 C   0  0  0  0  0  0  0  0  0  0  0  0
  -28.3093   -3.1193   -7.6403 C   0  0  0  0  0  0  0  0  0  0  0  0
  -28.0965   -2.0286   -8.5009 C   0  0  0  0  0  0  0  0  0  0  0  0
  -27.8141   -0.8035   -8.0108 N   0  0  0  0  0  0  0  0  0  0  0  0
  -27.6988   -0.6591   -6.6911 C   0  0  0  0  0  0  0  0  0  0  0  0
  -27.8944   -1.6216   -5.7900 N   0  0  0  0  0  0  0  0  0  0  0  0
  -28.2100   -2.8155   -6.2718 C   0  0  0  0  0  0  0  0  0  0  0  0
  -28.4589   -3.8169   -5.3540 C   0  0  0  0  0  0  0  0  0  0  0  0
  -29.2338   -6.0657   -4.8346 O   0  0  0  0  0  0  0  0  0  0  0  0
  -28.1986   -7.0293   -4.5909 C   0  0  0  0  0  0  0  0  0  0  0  0
  -26.1098  -10.3419   -7.1976 C   0  0  0  0  0  0  0  0  0  0  0  0
  -27.1903  -10.1449   -6.2285 N   0  0  0  0  0  0  0  0  0  0  0  0
  -26.6372   -9.6797   -4.9487 C   0  0  0  0  0  0  0  0  0  0  0  0
  -27.7377   -9.4300   -3.9147 C   0  0  0  0  0  0  0  0  0  0  0  0
  -28.7842   -8.4349   -4.4293 C   0  0  0  0  0  0  0  0  0  0  0  0
  -29.3266   -8.9433   -5.7730 C   0  0  0  0  0  0  0  0  0  0  0  0
  -28.2061   -9.2390   -6.7804 C   0  0  0  0  0  0  0  0  0  0  0  0
  -27.1133   -1.9406  -10.8509 C   0  0  0  0  0  0  0  0  0  0  0  0
  -25.8221   -1.6060  -10.4654 C   0  0  0  0  0  0  0  0  0  0  0  0
  -24.8573   -1.2094  -11.3896 C   0  0  0  0  0  0  0  0  0  0  0  0
  -25.1439   -1.1483  -12.7491 C   0  0  0  0  0  0  0  0  0  0  0  0
  -26.4256   -1.5324  -13.1647 C   0  0  0  0  0  0  0  0  0  0  0  0
  -27.4032   -1.9301  -12.2200 C   0  0  0  0  0  0  0  0  0  0  0  0
  -24.2044   -0.6718  -13.7023 N   0  0  0  0  0  0  0  0  0  0  0  0
  -22.9854   -0.0909  -13.3953 C   0  0  0  0  0  0  0  0  0  0  0  0
  -22.4912   -0.0124  -12.2768 O   0  0  0  0  0  0  0  0  0  0  0  0
  -22.3310    0.4325  -14.4902 N   0  0  0  0  0  0  0  0  0  0  0  0
  -24.4712   -0.7245  -14.6722 H   0  0  0  0  0  0  0  0  0  0  0  0
  -22.4577   -0.0656  -15.3584 H   0  0  0  0  0  0  0  0  0  0  0  0
  -21.0290    1.0970  -14.2923 C   0  0  0  0  0  0  0  0  0  0  0  0
  -21.1538    2.6198  -14.4448 C   0  0  0  0  0  0  0  0  0  0  0  0
  -19.8007    3.3270  -14.3483 C   0  0  0  0  0  0  0  0  0  0  0  0
  -18.8059    2.7636  -15.3554 C   0  0  0  0  0  0  0  0  0  0  0  0
  -18.6315    1.2626  -15.1579 C   0  0  0  0  0  0  0  0  0  0  0  0
  -19.9653    0.5198  -15.2417 C   0  0  0  0  0  0  0  0  0  0  0  0
 15 16  1  0  0  0
 16 17  1  0  0  0
 16 21  1  0  0  0
 17 18  1  0  0  0
 18 19  1  0  0  0
 19 14  1  0  0  0
 19 20  1  0  0  0
 14 13  1  0  0  0
 13  3  1  0  0  0
  3  4  1  0  0  0
  3 12  2  0  0  0
  4  5  2  0  0  0
  5  6  1  0  0  0
  6  7  1  0  0  0
  6 11  2  0  0  0
  7  1  1  0  0  0
  7  8  2  0  0  0
  1 22  1  0  0  0
  1  2  1  0  0  0
 22 23  1  0  0  0
 22 27  2  0  0  0
 23 24  2  0  0  0
 24 25  1  0  0  0
 25 28  1  0  0  0
 25 26  2  0  0  0
 28 29  1  0  0  0
 28 32  1  0  0  0
 29 30  2  0  0  0
 29 31  1  0  0  0
 31 34  1  0  0  0
 31 33  1  0  0  0
 34 35  1  0  0  0
 34 39  1  0  0  0
 35 36  1  0  0  0
 36 37  1  0  0  0
 37 38  1  0  0  0
 38 39  1  0  0  0
 26 27  1  0  0  0
  8  9  1  0  0  0
  9 10  2  0  0  0
 10 11  1  0  0  0
 11 12  1  0  0  0
 20 21  1  0  0  0
M  END
> <minimizedAffinity>
-11.30129

$$$$
