CHEMBL1994555


 21 23  0  0  0  0  0  0  0  0999 V2000
  -24.9057   -0.8295  -13.6686 C   0  0  0  0  0  0  0  0  0  0  0  0
  -23.9468    0.0296  -13.1079 C   0  0  0  0  0  0  0  0  0  0  0  0
  -24.1873    0.0696  -11.7413 N   0  0  0  0  0  0  0  0  0  0  0  0
  -25.2259   -0.7611  -11.4150 C   0  0  0  0  0  0  0  0  0  0  0  0
  -25.7121   -0.9725  -10.1735 N   0  0  0  0  0  0  0  0  0  0  0  0
  -26.7397   -1.8571  -10.2031 C   0  0  0  0  0  0  0  0  0  0  0  0
  -27.2121   -2.4664  -11.3574 C   0  0  0  0  0  0  0  0  0  0  0  0
  -26.7026   -2.2410  -12.5857 N   0  0  0  0  0  0  0  0  0  0  0  0
  -25.6797   -1.3450  -12.5884 C   0  0  0  0  0  0  0  0  0  0  0  0
  -23.6585    0.5866  -11.0618 H   0  0  0  0  0  0  0  0  0  0  0  0
  -22.8151    0.7509  -13.7073 C   0  0  0  0  0  0  0  0  0  0  0  0
  -22.7644    2.1517  -13.7182 C   0  0  0  0  0  0  0  0  0  0  0  0
  -21.6446    2.8222  -14.2284 C   0  0  0  0  0  0  0  0  0  0  0  0
  -20.5535    2.1039  -14.7316 C   0  0  0  0  0  0  0  0  0  0  0  0
  -20.6066    0.7102  -14.7543 C   0  0  0  0  0  0  0  0  0  0  0  0
  -21.7285    0.0463  -14.2456 C   0  0  0  0  0  0  0  0  0  0  0  0
  -19.3810    2.8643  -15.2461 C   0  0  0  0  0  0  0  0  0  0  0  0
  -18.1292    2.1264  -15.6511 C   0  0  0  0  0  0  0  0  0  0  0  0
  -19.4417    4.0894  -15.3082 O   0  0  0  0  0  0  0  0  0  0  0  0
  -26.4760   -0.9308  -15.6747 C   0  0  0  0  0  0  0  0  0  0  0  0
  -25.0823   -1.1818  -15.1178 C   0  0  0  0  0  0  0  0  0  0  0  0
 20 21  1  0  0  0
 21  1  1  0  0  0
  1  2  2  0  0  0
  1  9  1  0  0  0
  2 11  1  0  0  0
  2  3  1  0  0  0
 11 12  1  0  0  0
 11 16  2  0  0  0
 12 13  2  0  0  0
 13 14  1  0  0  0
 14 17  1  0  0  0
 14 15  2  0  0  0
 17 18  1  0  0  0
 17 19  2  0  0  0
 15 16  1  0  0  0
  3  4  1  0  0  0
  3 10  1  0  0  0
  4  5  1  0  0  0
  4  9  2  0  0  0
  5  6  2  0  0  0
  6  7  1  0  0  0
  7  8  2  0  0  0
  8  9  1  0  0  0
M  END
> <minimizedAffinity>
-7.37985

$$$$
