CHEMBL1934327


 40 44  0  0  0  0  0  0  0  0999 V2000
  -18.1005    3.3617  -15.0042 N   0  0  0  0  0  0  0  0  0  0  0  0
  -18.3775    4.2188  -15.4644 H   0  0  0  0  0  0  0  0  0  0  0  0
  -14.6458   -0.1215  -13.4955 C   0  0  0  0  0  0  0  0  0  0  0  0
  -15.9442    0.1189  -13.0633 C   0  0  0  0  0  0  0  0  0  0  0  0
  -16.6907    1.1368  -13.6570 C   0  0  0  0  0  0  0  0  0  0  0  0
  -16.1271    1.9433  -14.6781 C   0  0  0  0  0  0  0  0  0  0  0  0
  -16.7458    3.0379  -15.3091 C   0  0  0  0  0  0  0  0  0  0  0  0
  -16.0941    3.7646  -16.2389 N   0  0  0  0  0  0  0  0  0  0  0  0
  -14.8654    3.3889  -16.5866 C   0  0  0  0  0  0  0  0  0  0  0  0
  -14.1997    2.3558  -16.0776 N   0  0  0  0  0  0  0  0  0  0  0  0
  -14.8285    1.6602  -15.1302 C   0  0  0  0  0  0  0  0  0  0  0  0
  -14.1301    0.6144  -14.5624 C   0  0  0  0  0  0  0  0  0  0  0  0
  -13.9412   -1.0776  -12.8100 O   0  0  0  0  0  0  0  0  0  0  0  0
  -14.4865   -2.3978  -12.9275 C   0  0  0  0  0  0  0  0  0  0  0  0
  -15.0568   -7.0916  -12.7078 C   0  0  0  0  0  0  0  0  0  0  0  0
  -15.1283   -5.8756  -11.8939 N   0  0  0  0  0  0  0  0  0  0  0  0
  -13.8051   -5.2410  -11.8216 C   0  0  0  0  0  0  0  0  0  0  0  0
  -13.8393   -3.9473  -11.0042 C   0  0  0  0  0  0  0  0  0  0  0  0
  -14.8758   -2.9536  -11.5504 C   0  0  0  0  0  0  0  0  0  0  0  0
  -16.2368   -3.6588  -11.6322 C   0  0  0  0  0  0  0  0  0  0  0  0
  -16.1657   -4.9753  -12.4140 C   0  0  0  0  0  0  0  0  0  0  0  0
  -19.1727    2.4498  -14.8674 C   0  0  0  0  0  0  0  0  0  0  0  0
  -20.3335    2.7833  -14.1715 C   0  0  0  0  0  0  0  0  0  0  0  0
  -21.3713    1.8722  -13.9980 C   0  0  0  0  0  0  0  0  0  0  0  0
  -21.3203    0.6058  -14.5712 C   0  0  0  0  0  0  0  0  0  0  0  0
  -20.2060    0.2842  -15.3534 C   0  0  0  0  0  0  0  0  0  0  0  0
  -19.1463    1.2018  -15.5049 C   0  0  0  0  0  0  0  0  0  0  0  0
  -22.3327   -0.3627  -14.3704 N   0  0  0  0  0  0  0  0  0  0  0  0
  -23.4368   -0.2049  -13.5499 C   0  0  0  0  0  0  0  0  0  0  0  0
  -23.7574    0.8335  -12.9827 O   0  0  0  0  0  0  0  0  0  0  0  0
  -24.1413   -1.3915  -13.3846 N   0  0  0  0  0  0  0  0  0  0  0  0
  -22.2922   -1.2002  -14.9317 H   0  0  0  0  0  0  0  0  0  0  0  0
  -23.5593   -2.2167  -13.3659 H   0  0  0  0  0  0  0  0  0  0  0  0
  -25.2904   -1.4107  -12.5544 C   0  0  0  0  0  0  0  0  0  0  0  0
  -25.1814   -1.3249  -11.1576 C   0  0  0  0  0  0  0  0  0  0  0  0
  -26.3090   -1.4595  -10.3465 C   0  0  0  0  0  0  0  0  0  0  0  0
  -27.5530   -1.6799  -10.9296 C   0  0  0  0  0  0  0  0  0  0  0  0
  -27.6579   -1.7353  -12.3161 C   0  0  0  0  0  0  0  0  0  0  0  0
  -28.8513   -1.9809  -12.8735 F   0  0  0  0  0  0  0  0  0  0  0  0
  -26.5443   -1.5772  -13.1365 C   0  0  0  0  0  0  0  0  0  0  0  0
 15 16  1  0  0  0
 16 17  1  0  0  0
 16 21  1  0  0  0
 17 18  1  0  0  0
 18 19  1  0  0  0
 19 14  1  0  0  0
 19 20  1  0  0  0
 14 13  1  0  0  0
 13  3  1  0  0  0
  3  4  1  0  0  0
  3 12  2  0  0  0
  4  5  2  0  0  0
  5  6  1  0  0  0
  6  7  1  0  0  0
  6 11  2  0  0  0
  7  1  1  0  0  0
  7  8  2  0  0  0
  1 22  1  0  0  0
  1  2  1  0  0  0
 22 23  1  0  0  0
 22 27  2  0  0  0
 23 24  2  0  0  0
 24 25  1  0  0  0
 25 28  1  0  0  0
 25 26  2  0  0  0
 28 29  1  0  0  0
 28 32  1  0  0  0
 29 30  2  0  0  0
 29 31  1  0  0  0
 31 34  1  0  0  0
 31 33  1  0  0  0
 34 35  1  0  0  0
 34 40  2  0  0  0
 35 36  2  0  0  0
 36 37  1  0  0  0
 37 38  2  0  0  0
 38 39  1  0  0  0
 38 40  1  0  0  0
 26 27  1  0  0  0
  8  9  1  0  0  0
  9 10  2  0  0  0
 10 11  1  0  0  0
 11 12  1  0  0  0
 20 21  1  0  0  0
M  END
> <minimizedAffinity>
-10.66681

$$$$
