CHEMBL3628810


 30 33  0  0  0  0  0  0  0  0999 V2000
  -19.5175    1.2030  -15.2847 C   0  0  0  0  0  0  0  0  0  0  0  0
  -18.3112    0.5000  -15.1530 C   0  0  0  0  0  0  0  0  0  0  0  0
  -17.0795    1.1514  -15.2233 C   0  0  0  0  0  0  0  0  0  0  0  0
  -17.0314    2.5204  -15.4501 C   0  0  0  0  0  0  0  0  0  0  0  0
  -18.2207    3.2518  -15.5208 C   0  0  0  0  0  0  0  0  0  0  0  0
  -19.4542    2.5947  -15.4467 C   0  0  0  0  0  0  0  0  0  0  0  0
  -20.8915    3.5571  -15.5095 Cl  0  0  0  0  0  0  0  0  0  0  0  0
  -21.3818    0.9695  -13.1304 O   0  0  0  0  0  0  0  0  0  0  0  0
  -21.5918    0.3952  -14.1959 C   0  0  0  0  0  0  0  0  0  0  0  0
  -22.6515   -0.4656  -14.4184 N   0  0  0  0  0  0  0  0  0  0  0  0
  -20.7765    0.5403  -15.3015 N   0  0  0  0  0  0  0  0  0  0  0  0
  -22.6119   -1.0249  -15.2556 H   0  0  0  0  0  0  0  0  0  0  0  0
  -21.1622    0.3353  -16.2114 H   0  0  0  0  0  0  0  0  0  0  0  0
  -23.5917   -0.8508  -13.4293 C   0  0  0  0  0  0  0  0  0  0  0  0
  -23.2566   -1.0340  -12.0812 C   0  0  0  0  0  0  0  0  0  0  0  0
  -24.1961   -1.5122  -11.1638 C   0  0  0  0  0  0  0  0  0  0  0  0
  -25.4907   -1.7938  -11.5773 C   0  0  0  0  0  0  0  0  0  0  0  0
  -25.8441   -1.5794  -12.9075 C   0  0  0  0  0  0  0  0  0  0  0  0
  -27.5999   -1.9789  -13.4756 Br  0  0  0  0  0  0  0  0  0  0  0  0
  -24.9064   -1.0953  -13.8307 C   0  0  0  0  0  0  0  0  0  0  0  0
  -15.7798    3.0852  -15.5165 O   0  0  0  0  0  0  0  0  0  0  0  0
  -15.2812    3.4178  -16.7698 C   0  0  0  0  0  0  0  0  0  0  0  0
  -15.5453    4.6304  -17.3059 N   0  0  0  0  0  0  0  0  0  0  0  0
  -15.0228    4.9097  -18.5076 C   0  0  0  0  0  0  0  0  0  0  0  0
  -14.2773    4.1099  -19.2751 N   0  0  0  0  0  0  0  0  0  0  0  0
  -14.0767    2.9021  -18.7212 C   0  0  0  0  0  0  0  0  0  0  0  0
  -13.1722    1.7044  -19.5295 S   0  0  0  0  0  0  0  0  0  0  0  0
  -13.3763    0.5950  -18.2432 C   0  0  0  0  0  0  0  0  0  0  0  0
  -14.1207    1.1305  -17.2143 C   0  0  0  0  0  0  0  0  0  0  0  0
  -14.5394    2.4755  -17.4867 C   0  0  0  0  0  0  0  0  0  0  0  0
  8  9  2  0  0  0
  9 10  1  0  0  0
  9 11  1  0  0  0
 10 14  1  0  0  0
 10 12  1  0  0  0
 14 15  1  0  0  0
 14 20  2  0  0  0
 15 16  2  0  0  0
 16 17  1  0  0  0
 17 18  2  0  0  0
 18 19  1  0  0  0
 18 20  1  0  0  0
 11  1  1  0  0  0
 11 13  1  0  0  0
  1  2  1  0  0  0
  1  6  2  0  0  0
  2  3  2  0  0  0
  3  4  1  0  0  0
  4 21  1  0  0  0
  4  5  2  0  0  0
 21 22  1  0  0  0
 22 23  1  0  0  0
 22 30  2  0  0  0
 23 24  2  0  0  0
 24 25  1  0  0  0
 25 26  2  0  0  0
 26 27  1  0  0  0
 26 30  1  0  0  0
 27 28  1  0  0  0
 28 29  2  0  0  0
 29 30  1  0  0  0
  5  6  1  0  0  0
  6  7  1  0  0  0
M  END
> <minimizedAffinity>
-9.02522

$$$$
