CHEMBL1956894


 30 33  0  0  0  0  0  0  0  0999 V2000
  -26.9085    8.1954  -17.7451 N   0  0  0  0  0  0  0  0  0  0  0  0
  -26.5100    9.2995  -17.0165 C   0  0  0  0  0  0  0  0  0  0  0  0
  -25.2364    9.6754  -17.1765 N   0  0  0  0  0  0  0  0  0  0  0  0
  -24.7442   10.7376  -16.4847 C   0  0  0  0  0  0  0  0  0  0  0  0
  -25.6232   11.4208  -15.6303 C   0  0  0  0  0  0  0  0  0  0  0  0
  -25.5398   12.5116  -14.7209 C   0  0  0  0  0  0  0  0  0  0  0  0
  -26.7759   12.6584  -14.1258 C   0  0  0  0  0  0  0  0  0  0  0  0
  -27.6140   11.7047  -14.6551 N   0  0  0  0  0  0  0  0  0  0  0  0
  -26.9238   10.9384  -15.5630 C   0  0  0  0  0  0  0  0  0  0  0  0
  -27.4234    9.8963  -16.2481 N   0  0  0  0  0  0  0  0  0  0  0  0
  -26.2821    8.0753  -18.5300 H   0  0  0  0  0  0  0  0  0  0  0  0
  -27.8968    8.2386  -17.9378 H   0  0  0  0  0  0  0  0  0  0  0  0
  -23.4024   11.1152  -16.6481 N   0  0  0  0  0  0  0  0  0  0  0  0
  -22.7705   10.6759  -15.9912 H   0  0  0  0  0  0  0  0  0  0  0  0
  -22.7680   11.5171  -17.8405 C   0  0  0  0  0  0  0  0  0  0  0  0
  -23.4419   12.2235  -18.8491 C   0  0  0  0  0  0  0  0  0  0  0  0
  -22.7925   12.6140  -20.0188 C   0  0  0  0  0  0  0  0  0  0  0  0
  -21.4446   12.3233  -20.1932 C   0  0  0  0  0  0  0  0  0  0  0  0
  -20.7558   11.6387  -19.1925 C   0  0  0  0  0  0  0  0  0  0  0  0
  -18.9158   11.2647  -19.4170 Br  0  0  0  0  0  0  0  0  0  0  0  0
  -21.4091   11.2333  -18.0259 C   0  0  0  0  0  0  0  0  0  0  0  0
  -28.9927   11.4771  -14.2391 C   0  0  0  0  0  0  0  0  0  0  0  0
  -29.1992   11.8008  -12.7777 C   0  0  0  0  0  0  0  0  0  0  0  0
  -28.1061   11.9029  -11.9045 C   0  0  0  0  0  0  0  0  0  0  0  0
  -28.3005   12.1723  -10.5473 C   0  0  0  0  0  0  0  0  0  0  0  0
  -29.5899   12.3582  -10.0440 C   0  0  0  0  0  0  0  0  0  0  0  0
  -29.7578   12.6589   -8.3512 Cl  0  0  0  0  0  0  0  0  0  0  0  0
  -30.6867   12.2910  -10.9083 C   0  0  0  0  0  0  0  0  0  0  0  0
  -32.3092   12.5373  -10.3664 Cl  0  0  0  0  0  0  0  0  0  0  0  0
  -30.4900   12.0139  -12.2676 C   0  0  0  0  0  0  0  0  0  0  0  0
  1  2  1  0  0  0
  1 11  1  0  0  0
  1 12  1  0  0  0
  2  3  1  0  0  0
  2 10  2  0  0  0
  3  4  2  0  0  0
  4 13  1  0  0  0
  4  5  1  0  0  0
 13 15  1  0  0  0
 13 14  1  0  0  0
 15 16  1  0  0  0
 15 21  2  0  0  0
 16 17  2  0  0  0
 17 18  1  0  0  0
 18 19  2  0  0  0
 19 20  1  0  0  0
 19 21  1  0  0  0
  5  6  1  0  0  0
  5  9  2  0  0  0
  6  7  2  0  0  0
  7  8  1  0  0  0
  8 22  1  0  0  0
  8  9  1  0  0  0
 22 23  1  0  0  0
 23 24  1  0  0  0
 23 30  2  0  0  0
 24 25  2  0  0  0
 25 26  1  0  0  0
 26 27  1  0  0  0
 26 28  2  0  0  0
 28 29  1  0  0  0
 28 30  1  0  0  0
  9 10  1  0  0  0
M  END
> <minimizedAffinity>
-5.46298

$$$$
