CHEMBL410711


 33 36  0  0  0  0  0  0  0  0999 V2000
  -14.6453   -2.3103  -13.0525 C   0  0  0  0  0  0  0  0  0  0  0  0
  -13.2758   -2.0624  -13.1882 C   0  0  0  0  0  0  0  0  0  0  0  0
  -12.3335   -2.7733  -12.4361 C   0  0  0  0  0  0  0  0  0  0  0  0
  -12.7358   -3.7742  -11.5483 C   0  0  0  0  0  0  0  0  0  0  0  0
  -14.1186   -3.9440  -11.3434 C   0  0  0  0  0  0  0  0  0  0  0  0
  -15.0633   -3.2105  -12.0739 C   0  0  0  0  0  0  0  0  0  0  0  0
  -11.7951   -4.7739  -11.0122 C   0  0  0  0  0  0  0  0  0  0  0  0
  -11.4183   -4.7818   -9.6496 C   0  0  0  0  0  0  0  0  0  0  0  0
  -10.8426   -5.9160   -9.0404 C   0  0  0  0  0  0  0  0  0  0  0  0
  -10.6996   -7.0986   -9.7585 C   0  0  0  0  0  0  0  0  0  0  0  0
  -11.0463   -7.0630  -11.0949 C   0  0  0  0  0  0  0  0  0  0  0  0
  -11.4778   -5.9094  -11.7489 C   0  0  0  0  0  0  0  0  0  0  0  0
  -11.7072   -6.2499  -13.1840 C   0  0  0  0  0  0  0  0  0  0  0  0
  -11.9118   -7.6716  -13.1401 N   0  0  0  0  0  0  0  0  0  0  0  0
  -11.4458   -8.1907  -11.9424 C   0  0  0  0  0  0  0  0  0  0  0  0
  -11.5549   -9.3470  -11.5665 O   0  0  0  0  0  0  0  0  0  0  0  0
  -12.7894   -8.0732  -13.4503 H   0  0  0  0  0  0  0  0  0  0  0  0
  -15.5598    0.4155  -13.0291 O   0  0  0  0  0  0  0  0  0  0  0  0
  -16.0259   -0.3954  -13.8171 C   0  0  0  0  0  0  0  0  0  0  0  0
  -15.6271   -1.7265  -13.8801 N   0  0  0  0  0  0  0  0  0  0  0  0
  -16.9942   -0.0950  -14.7583 N   0  0  0  0  0  0  0  0  0  0  0  0
  -15.8409   -2.2139  -14.7384 H   0  0  0  0  0  0  0  0  0  0  0  0
  -17.3680   -0.8651  -15.2948 H   0  0  0  0  0  0  0  0  0  0  0  0
  -17.5486    1.1828  -15.0113 C   0  0  0  0  0  0  0  0  0  0  0  0
  -16.8413    2.2453  -15.5927 C   0  0  0  0  0  0  0  0  0  0  0  0
  -17.4591    3.4813  -15.8207 C   0  0  0  0  0  0  0  0  0  0  0  0
  -18.7891    3.6678  -15.4791 C   0  0  0  0  0  0  0  0  0  0  0  0
  -19.5227    2.6230  -14.9052 C   0  0  0  0  0  0  0  0  0  0  0  0
  -18.8899    1.3871  -14.6679 C   0  0  0  0  0  0  0  0  0  0  0  0
  -20.9798    2.7991  -14.5540 C   0  0  0  0  0  0  0  0  0  0  0  0
  -21.6283    1.6304  -14.3043 F   0  0  0  0  0  0  0  0  0  0  0  0
  -21.1508    3.5684  -13.4414 F   0  0  0  0  0  0  0  0  0  0  0  0
  -21.6803    3.4160  -15.5433 F   0  0  0  0  0  0  0  0  0  0  0  0
 18 19  2  0  0  0
 19 20  1  0  0  0
 19 21  1  0  0  0
 20  1  1  0  0  0
 20 22  1  0  0  0
  1  2  1  0  0  0
  1  6  2  0  0  0
  2  3  2  0  0  0
  3  4  1  0  0  0
  4  7  1  0  0  0
  4  5  2  0  0  0
  7  8  1  0  0  0
  7 12  2  0  0  0
  8  9  2  0  0  0
  9 10  1  0  0  0
 10 11  2  0  0  0
 11 12  1  0  0  0
 11 15  1  0  0  0
 12 13  1  0  0  0
 13 14  1  0  0  0
 14 15  1  0  0  0
 14 17  1  0  0  0
 15 16  2  0  0  0
  5  6  1  0  0  0
 21 24  1  0  0  0
 21 23  1  0  0  0
 24 25  1  0  0  0
 24 29  2  0  0  0
 25 26  2  0  0  0
 26 27  1  0  0  0
 27 28  2  0  0  0
 28 30  1  0  0  0
 28 29  1  0  0  0
 30 31  1  0  0  0
 30 32  1  0  0  0
 30 33  1  0  0  0
M  END
> <minimizedAffinity>
-8.96550

$$$$
