CHEMBL272645


 31 34  0  0  0  0  0  0  0  0999 V2000
  -26.2361   -1.2247  -11.5725 C   0  0  0  0  0  0  0  0  0  0  0  0
  -25.6189   -1.5609  -10.3653 C   0  0  0  0  0  0  0  0  0  0  0  0
  -26.3793   -1.9580   -9.2597 C   0  0  0  0  0  0  0  0  0  0  0  0
  -27.7807   -2.0054   -9.3183 C   0  0  0  0  0  0  0  0  0  0  0  0
  -28.3788   -1.5489  -10.5092 C   0  0  0  0  0  0  0  0  0  0  0  0
  -27.6231   -1.1747  -11.6296 C   0  0  0  0  0  0  0  0  0  0  0  0
  -28.5837   -2.4842   -8.1708 C   0  0  0  0  0  0  0  0  0  0  0  0
  -29.3008   -3.7091   -8.2304 C   0  0  0  0  0  0  0  0  0  0  0  0
  -30.0019   -4.2287   -7.1374 C   0  0  0  0  0  0  0  0  0  0  0  0
  -30.0007   -3.5677   -5.9134 C   0  0  0  0  0  0  0  0  0  0  0  0
  -29.3314   -2.3483   -5.8750 C   0  0  0  0  0  0  0  0  0  0  0  0
  -29.2385   -1.5522   -4.7797 O   0  0  0  0  0  0  0  0  0  0  0  0
  -28.5755   -0.3888   -5.1093 N   0  0  0  0  0  0  0  0  0  0  0  0
  -28.2863   -0.4912   -6.4082 C   0  0  0  0  0  0  0  0  0  0  0  0
  -27.7354    0.5204   -7.1114 N   0  0  0  0  0  0  0  0  0  0  0  0
  -28.6701   -1.7612   -6.9461 C   0  0  0  0  0  0  0  0  0  0  0  0
  -27.7231    1.4264   -6.6542 H   0  0  0  0  0  0  0  0  0  0  0  0
  -27.9279    0.5860   -8.1077 H   0  0  0  0  0  0  0  0  0  0  0  0
  -23.8104    0.0597  -13.9436 N   0  0  0  0  0  0  0  0  0  0  0  0
  -24.4660   -0.0486  -12.7289 C   0  0  0  0  0  0  0  0  0  0  0  0
  -24.1731    0.5879  -11.7222 O   0  0  0  0  0  0  0  0  0  0  0  0
  -25.4828   -0.9897  -12.7499 N   0  0  0  0  0  0  0  0  0  0  0  0
  -24.2749   -0.3380  -14.7459 H   0  0  0  0  0  0  0  0  0  0  0  0
  -25.2986   -1.7912  -13.3342 H   0  0  0  0  0  0  0  0  0  0  0  0
  -19.0714    3.1375  -14.9808 C   0  0  0  0  0  0  0  0  0  0  0  0
  -20.3047    2.3317  -14.7044 C   0  0  0  0  0  0  0  0  0  0  0  0
  -21.4746    2.9698  -14.2940 C   0  0  0  0  0  0  0  0  0  0  0  0
  -22.6263    2.2341  -14.0320 C   0  0  0  0  0  0  0  0  0  0  0  0
  -22.6534    0.8434  -14.1875 C   0  0  0  0  0  0  0  0  0  0  0  0
  -21.4779    0.2008  -14.5889 C   0  0  0  0  0  0  0  0  0  0  0  0
  -20.3120    0.9392  -14.8449 C   0  0  0  0  0  0  0  0  0  0  0  0
 25 26  1  0  0  0
 26 27  1  0  0  0
 26 31  2  0  0  0
 27 28  2  0  0  0
 28 29  1  0  0  0
 29 19  1  0  0  0
 29 30  2  0  0  0
 19 20  1  0  0  0
 19 23  1  0  0  0
 20 21  2  0  0  0
 20 22  1  0  0  0
 22  1  1  0  0  0
 22 24  1  0  0  0
  1  2  1  0  0  0
  1  6  2  0  0  0
  2  3  2  0  0  0
  3  4  1  0  0  0
  4  7  1  0  0  0
  4  5  2  0  0  0
  7  8  1  0  0  0
  7 16  2  0  0  0
  8  9  2  0  0  0
  9 10  1  0  0  0
 10 11  2  0  0  0
 11 12  1  0  0  0
 11 16  1  0  0  0
 12 13  1  0  0  0
 13 14  2  0  0  0
 14 15  1  0  0  0
 14 16  1  0  0  0
 15 17  1  0  0  0
 15 18  1  0  0  0
  5  6  1  0  0  0
 30 31  1  0  0  0
M  END
> <minimizedAffinity>
-9.34699

$$$$
