CHEMBL475704


 28 30  0  0  0  0  0  0  0  0999 V2000
  -15.2667    0.7609  -13.2327 O   0  0  0  0  0  0  0  0  0  0  0  0
  -14.9599    0.4957  -14.3956 C   0  0  0  0  0  0  0  0  0  0  0  0
  -15.8078    0.6376  -15.4838 N   0  0  0  0  0  0  0  0  0  0  0  0
  -15.4950    0.1933  -16.3462 H   0  0  0  0  0  0  0  0  0  0  0  0
  -17.1076    1.1825  -15.4142 C   0  0  0  0  0  0  0  0  0  0  0  0
  -17.3417    2.5504  -15.5834 C   0  0  0  0  0  0  0  0  0  0  0  0
  -18.6088    3.0955  -15.3922 C   0  0  0  0  0  0  0  0  0  0  0  0
  -19.6850    2.2767  -15.0449 C   0  0  0  0  0  0  0  0  0  0  0  0
  -19.4723    0.8905  -14.9563 C   0  0  0  0  0  0  0  0  0  0  0  0
  -18.1935    0.3441  -15.1526 C   0  0  0  0  0  0  0  0  0  0  0  0
  -21.0342    2.8857  -14.7552 C   0  0  0  0  0  0  0  0  0  0  0  0
  -21.0352    3.7096  -13.6682 F   0  0  0  0  0  0  0  0  0  0  0  0
  -21.5055    3.6345  -15.7889 F   0  0  0  0  0  0  0  0  0  0  0  0
  -21.9866    1.9452  -14.5049 F   0  0  0  0  0  0  0  0  0  0  0  0
  -13.6179   -0.0319  -14.7008 C   0  0  0  0  0  0  0  0  0  0  0  0
  -12.5611    0.7831  -14.8079 N   0  0  0  0  0  0  0  0  0  0  0  0
  -11.2058   -0.1373  -15.0786 S   0  0  0  0  0  0  0  0  0  0  0  0
  -11.9942   -1.6525  -15.0616 C   0  0  0  0  0  0  0  0  0  0  0  0
  -13.3404   -1.4472  -14.8654 C   0  0  0  0  0  0  0  0  0  0  0  0
  -14.3043   -2.4136  -14.8610 N   0  0  0  0  0  0  0  0  0  0  0  0
  -15.2714   -2.1079  -14.6893 H   0  0  0  0  0  0  0  0  0  0  0  0
  -14.0912   -3.7956  -14.4704 C   0  0  0  0  0  0  0  0  0  0  0  0
  -15.0308   -4.1602  -13.3520 C   0  0  0  0  0  0  0  0  0  0  0  0
  -15.1808   -3.3145  -12.2480 C   0  0  0  0  0  0  0  0  0  0  0  0
  -16.0692   -3.6706  -11.2467 C   0  0  0  0  0  0  0  0  0  0  0  0
  -16.8153   -4.7942  -11.2712 N   0  0  0  0  0  0  0  0  0  0  0  0
  -16.6547   -5.6020  -12.3405 C   0  0  0  0  0  0  0  0  0  0  0  0
  -15.7896   -5.3336  -13.3916 C   0  0  0  0  0  0  0  0  0  0  0  0
  1  2  2  0  0  0
  2  3  1  0  0  0
  2 15  1  0  0  0
  3  5  1  0  0  0
  3  4  1  0  0  0
  5  6  1  0  0  0
  5 10  2  0  0  0
  6  7  2  0  0  0
  7  8  1  0  0  0
  8 11  1  0  0  0
  8  9  2  0  0  0
 11 12  1  0  0  0
 11 13  1  0  0  0
 11 14  1  0  0  0
  9 10  1  0  0  0
 15 16  2  0  0  0
 15 19  1  0  0  0
 16 17  1  0  0  0
 17 18  1  0  0  0
 18 19  2  0  0  0
 19 20  1  0  0  0
 20 22  1  0  0  0
 20 21  1  0  0  0
 22 23  1  0  0  0
 23 24  1  0  0  0
 23 28  2  0  0  0
 24 25  2  0  0  0
 25 26  1  0  0  0
 26 27  2  0  0  0
 27 28  1  0  0  0
M  END
> <minimizedAffinity>
-8.23781

$$$$
