CHEMBL189291


 44 47  0  0  0  0  0  0  0  0999 V2000
  -28.5960   -3.7130   -5.6470 C   0  0  0  0  0  0  0  0  0  0  0  0
  -27.9493   -2.4871   -5.6785 C   0  0  0  0  0  0  0  0  0  0  0  0
  -27.7886   -1.7920   -6.8726 C   0  0  0  0  0  0  0  0  0  0  0  0
  -28.2651   -2.2878   -8.0908 C   0  0  0  0  0  0  0  0  0  0  0  0
  -28.8598   -3.5501   -8.0902 C   0  0  0  0  0  0  0  0  0  0  0  0
  -29.0247   -4.2502   -6.8796 C   0  0  0  0  0  0  0  0  0  0  0  0
  -28.1835   -1.5522   -9.3016 N   0  0  0  0  0  0  0  0  0  0  0  0
  -27.2375   -1.7601  -10.2903 C   0  0  0  0  0  0  0  0  0  0  0  0
  -26.3744   -2.6327  -10.2772 O   0  0  0  0  0  0  0  0  0  0  0  0
  -27.3259   -0.8549  -11.3408 N   0  0  0  0  0  0  0  0  0  0  0  0
  -28.8307   -0.7892   -9.4255 H   0  0  0  0  0  0  0  0  0  0  0  0
  -27.5161    0.0974  -11.0602 H   0  0  0  0  0  0  0  0  0  0  0  0
  -26.3790   -0.9950  -12.4012 C   0  0  0  0  0  0  0  0  0  0  0  0
  -25.0991   -0.4415  -12.2810 C   0  0  0  0  0  0  0  0  0  0  0  0
  -24.1703   -0.5256  -13.3328 C   0  0  0  0  0  0  0  0  0  0  0  0
  -24.5549   -1.1579  -14.5278 C   0  0  0  0  0  0  0  0  0  0  0  0
  -25.8352   -1.7079  -14.6525 C   0  0  0  0  0  0  0  0  0  0  0  0
  -26.7313   -1.6373  -13.5868 C   0  0  0  0  0  0  0  0  0  0  0  0
  -27.9689   -2.1337  -13.7362 F   0  0  0  0  0  0  0  0  0  0  0  0
  -22.7830    0.0510  -13.1697 C   0  0  0  0  0  0  0  0  0  0  0  0
  -22.2831   -0.0811  -11.9089 F   0  0  0  0  0  0  0  0  0  0  0  0
  -21.8774   -0.5543  -13.9888 F   0  0  0  0  0  0  0  0  0  0  0  0
  -22.7186    1.3793  -13.4605 F   0  0  0  0  0  0  0  0  0  0  0  0
  -28.4979   -3.7117   -3.1924 C   0  0  0  0  0  0  0  0  0  0  0  0
  -28.8054   -4.4118   -4.4331 N   0  0  0  0  0  0  0  0  0  0  0  0
  -28.8304   -5.8287   -4.3134 C   0  0  0  0  0  0  0  0  0  0  0  0
  -29.7660   -6.4292   -3.4867 C   0  0  0  0  0  0  0  0  0  0  0  0
  -29.7891   -7.7918   -3.4441 C   0  0  0  0  0  0  0  0  0  0  0  0
  -28.9347   -8.5439   -4.1323 N   0  0  0  0  0  0  0  0  0  0  0  0
  -28.0332   -7.9105   -4.9005 C   0  0  0  0  0  0  0  0  0  0  0  0
  -27.9573   -6.5741   -5.0317 N   0  0  0  0  0  0  0  0  0  0  0  0
  -27.0979   -8.6837   -5.5931 N   0  0  0  0  0  0  0  0  0  0  0  0
  -27.5523   -9.1354   -6.3740 H   0  0  0  0  0  0  0  0  0  0  0  0
  -26.0474   -9.4149   -5.0128 C   0  0  0  0  0  0  0  0  0  0  0  0
  -25.6087   -9.1761   -3.7069 C   0  0  0  0  0  0  0  0  0  0  0  0
  -24.5555   -9.9063   -3.1641 C   0  0  0  0  0  0  0  0  0  0  0  0
  -23.9431  -10.9142   -3.9119 C   0  0  0  0  0  0  0  0  0  0  0  0
  -24.3878  -11.2102   -5.2101 C   0  0  0  0  0  0  0  0  0  0  0  0
  -25.4337  -10.4363   -5.7481 C   0  0  0  0  0  0  0  0  0  0  0  0
  -23.7390  -12.2548   -6.0853 C   0  0  0  0  0  0  0  0  0  0  0  0
  -22.1012  -11.8018   -6.6448 S   0  0  0  0  0  0  0  0  0  0  0  0
  -21.9698  -12.4571   -8.2959 C   0  0  0  0  0  0  0  0  0  0  0  0
  -22.0796  -10.3553   -6.7713 O   0  0  0  0  0  0  0  0  0  0  0  0
  -21.1023  -12.4642   -5.8259 O   0  0  0  0  0  0  0  0  0  0  0  0
 24 25  1  0  0  0
 25  1  1  0  0  0
 25 26  1  0  0  0
  1  2  1  0  0  0
  1  6  2  0  0  0
  2  3  2  0  0  0
  3  4  1  0  0  0
  4  7  1  0  0  0
  4  5  2  0  0  0
  7  8  1  0  0  0
  7 11  1  0  0  0
  8  9  2  0  0  0
  8 10  1  0  0  0
 10 13  1  0  0  0
 10 12  1  0  0  0
 13 14  1  0  0  0
 13 18  2  0  0  0
 14 15  2  0  0  0
 15 20  1  0  0  0
 15 16  1  0  0  0
 20 21  1  0  0  0
 20 22  1  0  0  0
 20 23  1  0  0  0
 16 17  2  0  0  0
 17 18  1  0  0  0
 18 19  1  0  0  0
  5  6  1  0  0  0
 26 27  1  0  0  0
 26 31  2  0  0  0
 27 28  2  0  0  0
 28 29  1  0  0  0
 29 30  2  0  0  0
 30 32  1  0  0  0
 30 31  1  0  0  0
 32 34  1  0  0  0
 32 33  1  0  0  0
 34 35  1  0  0  0
 34 39  2  0  0  0
 35 36  2  0  0  0
 36 37  1  0  0  0
 37 38  2  0  0  0
 38 40  1  0  0  0
 38 39  1  0  0  0
 40 41  1  0  0  0
 41 42  1  0  0  0
 41 43  2  0  0  0
 41 44  2  0  0  0
M  END
> <minimizedAffinity>
-10.76626

$$$$
