CHEMBL3904954


 46 50  0  0  0  0  0  0  0  0999 V2000
  -21.5857    0.9526  -14.3840 C   0  0  0  0  0  0  0  0  0  0  0  0
  -22.4874    1.9447  -13.9908 C   0  0  0  0  0  0  0  0  0  0  0  0
  -22.1241    3.2707  -14.0930 C   0  0  0  0  0  0  0  0  0  0  0  0
  -20.9150    3.7096  -14.4711 N   0  0  0  0  0  0  0  0  0  0  0  0
  -19.9986    2.7475  -14.7577 C   0  0  0  0  0  0  0  0  0  0  0  0
  -18.6538    3.0112  -15.1374 C   0  0  0  0  0  0  0  0  0  0  0  0
  -17.9239    1.8665  -15.3863 C   0  0  0  0  0  0  0  0  0  0  0  0
  -18.8902    0.4661  -15.1479 S   0  0  0  0  0  0  0  0  0  0  0  0
  -20.2870    1.3810  -14.7248 C   0  0  0  0  0  0  0  0  0  0  0  0
  -16.5310    1.8027  -15.7924 C   0  0  0  0  0  0  0  0  0  0  0  0
  -15.9590    2.7330  -16.3689 O   0  0  0  0  0  0  0  0  0  0  0  0
  -15.8658    0.6379  -15.4790 N   0  0  0  0  0  0  0  0  0  0  0  0
  -16.3858   -0.0733  -14.9706 H   0  0  0  0  0  0  0  0  0  0  0  0
  -14.4622    0.4041  -15.7499 C   0  0  0  0  0  0  0  0  0  0  0  0
  -13.7708   -0.1186  -14.4873 C   0  0  0  0  0  0  0  0  0  0  0  0
  -14.5727   -1.2366  -13.8156 C   0  0  0  0  0  0  0  0  0  0  0  0
  -13.8889   -2.5367  -13.7662 N   0  0  0  0  0  0  0  0  0  0  0  0
  -14.5647   -3.6635  -14.4378 C   0  0  0  0  0  0  0  0  0  0  0  0
  -15.7071   -4.3158  -13.6398 C   0  0  0  0  0  0  0  0  0  0  0  0
  -15.3216   -4.6867  -12.3106 O   0  0  0  0  0  0  0  0  0  0  0  0
  -14.7152   -3.6019  -11.5772 C   0  0  0  0  0  0  0  0  0  0  0  0
  -13.5587   -2.9665  -12.3883 C   0  0  0  0  0  0  0  0  0  0  0  0
  -15.7779   -2.6047  -11.0918 C   0  0  0  0  0  0  0  0  0  0  0  0
  -16.0677   -2.8057   -9.7091 O   0  0  0  0  0  0  0  0  0  0  0  0
  -16.3894   -3.7244   -9.6387 H   0  0  0  0  0  0  0  0  0  0  0  0
  -21.9150   -0.3954  -14.4096 O   0  0  0  0  0  0  0  0  0  0  0  0
  -25.3962   -1.7224  -12.4800 C   0  0  0  0  0  0  0  0  0  0  0  0
  -24.2006   -1.6333  -11.7624 C   0  0  0  0  0  0  0  0  0  0  0  0
  -23.0422   -1.1484  -12.3694 C   0  0  0  0  0  0  0  0  0  0  0  0
  -23.0411   -0.8187  -13.7271 C   0  0  0  0  0  0  0  0  0  0  0  0
  -24.2392   -0.8868  -14.4447 C   0  0  0  0  0  0  0  0  0  0  0  0
  -25.4132   -1.3573  -13.8290 C   0  0  0  0  0  0  0  0  0  0  0  0
  -27.8263   -2.4163   -9.8637 N   0  0  0  0  0  0  0  0  0  0  0  0
  -26.6335   -1.9754  -10.4226 C   0  0  0  0  0  0  0  0  0  0  0  0
  -25.7153   -1.4515   -9.8022 O   0  0  0  0  0  0  0  0  0  0  0  0
  -26.5925   -2.1110  -11.8121 N   0  0  0  0  0  0  0  0  0  0  0  0
  -28.5645   -2.6760  -10.4948 H   0  0  0  0  0  0  0  0  0  0  0  0
  -27.4556   -1.8792  -12.2799 H   0  0  0  0  0  0  0  0  0  0  0  0
  -28.0527    0.3033   -5.6996 C   0  0  0  0  0  0  0  0  0  0  0  0
  -28.2362   -1.0055   -6.4170 C   0  0  0  0  0  0  0  0  0  0  0  0
  -28.6495   -2.1261   -5.6919 C   0  0  0  0  0  0  0  0  0  0  0  0
  -28.8343   -3.3377   -6.3402 C   0  0  0  0  0  0  0  0  0  0  0  0
  -28.6026   -3.4493   -7.7078 C   0  0  0  0  0  0  0  0  0  0  0  0
  -28.9320   -4.6220   -8.2610 F   0  0  0  0  0  0  0  0  0  0  0  0
  -28.1439   -2.3585   -8.4712 C   0  0  0  0  0  0  0  0  0  0  0  0
  -27.9879   -1.1263   -7.8032 C   0  0  0  0  0  0  0  0  0  0  0  0
 39 40  1  0  0  0
 40 41  1  0  0  0
 40 46  2  0  0  0
 41 42  2  0  0  0
 42 43  1  0  0  0
 43 44  1  0  0  0
 43 45  2  0  0  0
 45 33  1  0  0  0
 45 46  1  0  0  0
 33 34  1  0  0  0
 33 37  1  0  0  0
 34 35  2  0  0  0
 34 36  1  0  0  0
 36 27  1  0  0  0
 36 38  1  0  0  0
 27 28  1  0  0  0
 27 32  2  0  0  0
 28 29  2  0  0  0
 29 30  1  0  0  0
 30 26  1  0  0  0
 30 31  2  0  0  0
 26  1  1  0  0  0
  1  2  1  0  0  0
  1  9  2  0  0  0
  2  3  2  0  0  0
  3  4  1  0  0  0
  4  5  2  0  0  0
  5  6  1  0  0  0
  5  9  1  0  0  0
  6  7  2  0  0  0
  7 10  1  0  0  0
  7  8  1  0  0  0
 10 11  2  0  0  0
 10 12  1  0  0  0
 12 14  1  0  0  0
 12 13  1  0  0  0
 14 15  1  0  0  0
 15 16  1  0  0  0
 16 17  1  0  0  0
 17 18  1  0  0  0
 17 22  1  0  0  0
 18 19  1  0  0  0
 19 20  1  0  0  0
 20 21  1  0  0  0
 21 23  1  0  0  0
 21 22  1  0  0  0
 23 24  1  0  0  0
 24 25  1  0  0  0
  8  9  1  0  0  0
 31 32  1  0  0  0
M  END
> <minimizedAffinity>
-11.58524

$$$$
