CHEMBL3321892


 28 32  0  0  0  0  0  0  0  0999 V2000
  -27.2594   -9.2043   -4.3323 C   0  0  0  0  0  0  0  0  0  0  0  0
  -28.3453   -9.5678   -5.0063 N   0  0  0  0  0  0  0  0  0  0  0  0
  -28.9322   -8.4016   -5.4697 C   0  0  0  0  0  0  0  0  0  0  0  0
  -30.0877   -8.1613   -6.2390 C   0  0  0  0  0  0  0  0  0  0  0  0
  -30.4104   -6.8312   -6.6235 C   0  0  0  0  0  0  0  0  0  0  0  0
  -29.5875   -5.7577   -6.2769 C   0  0  0  0  0  0  0  0  0  0  0  0
  -28.4899   -5.9977   -5.4245 C   0  0  0  0  0  0  0  0  0  0  0  0
  -28.1893   -7.3086   -5.0674 C   0  0  0  0  0  0  0  0  0  0  0  0
  -27.1834   -7.8310   -4.3093 N   0  0  0  0  0  0  0  0  0  0  0  0
  -26.4702   -7.2901   -3.8503 H   0  0  0  0  0  0  0  0  0  0  0  0
  -24.2941  -11.7170   -2.4758 C   0  0  0  0  0  0  0  0  0  0  0  0
  -25.6381  -12.0837   -2.4686 C   0  0  0  0  0  0  0  0  0  0  0  0
  -26.6031  -11.2634   -3.0723 C   0  0  0  0  0  0  0  0  0  0  0  0
  -26.2399  -10.0611   -3.6930 C   0  0  0  0  0  0  0  0  0  0  0  0
  -24.8732   -9.7154   -3.6967 C   0  0  0  0  0  0  0  0  0  0  0  0
  -23.9102  -10.5322   -3.0939 C   0  0  0  0  0  0  0  0  0  0  0  0
  -29.7639   -4.4033   -6.6413 N   0  0  0  0  0  0  0  0  0  0  0  0
  -30.2865   -3.9616   -5.8899 H   0  0  0  0  0  0  0  0  0  0  0  0
  -28.9548   -3.3932   -7.2285 C   0  0  0  0  0  0  0  0  0  0  0  0
  -28.3279   -3.6016   -8.3964 N   0  0  0  0  0  0  0  0  0  0  0  0
  -27.5660   -2.5944   -8.8446 C   0  0  0  0  0  0  0  0  0  0  0  0
  -27.3523   -1.4158   -8.2409 N   0  0  0  0  0  0  0  0  0  0  0  0
  -28.0011   -1.2023   -7.0945 C   0  0  0  0  0  0  0  0  0  0  0  0
  -27.8161    0.0102   -6.4320 C   0  0  0  0  0  0  0  0  0  0  0  0
  -28.4838    0.3214   -5.2437 C   0  0  0  0  0  0  0  0  0  0  0  0
  -29.3683   -0.5948   -4.6981 C   0  0  0  0  0  0  0  0  0  0  0  0
  -29.5578   -1.8172   -5.3358 C   0  0  0  0  0  0  0  0  0  0  0  0
  -28.8618   -2.1532   -6.5318 C   0  0  0  0  0  0  0  0  0  0  0  0
 11 12  1  0  0  0
 11 16  2  0  0  0
 12 13  2  0  0  0
 13 14  1  0  0  0
 14  1  1  0  0  0
 14 15  2  0  0  0
  1  2  2  0  0  0
  1  9  1  0  0  0
  2  3  1  0  0  0
  3  4  1  0  0  0
  3  8  2  0  0  0
  4  5  2  0  0  0
  5  6  1  0  0  0
  6 17  1  0  0  0
  6  7  2  0  0  0
 17 19  1  0  0  0
 17 18  1  0  0  0
 19 20  1  0  0  0
 19 28  2  0  0  0
 20 21  2  0  0  0
 21 22  1  0  0  0
 22 23  2  0  0  0
 23 24  1  0  0  0
 23 28  1  0  0  0
 24 25  2  0  0  0
 25 26  1  0  0  0
 26 27  2  0  0  0
 27 28  1  0  0  0
  7  8  1  0  0  0
  8  9  1  0  0  0
  9 10  1  0  0  0
 15 16  1  0  0  0
M  END
> <minimizedAffinity>
-9.04974

$$$$
