CHEMBL3297892


 21 23  0  0  0  0  0  0  0  0999 V2000
  -29.5690   -4.4652   -5.8317 C   0  0  0  0  0  0  0  0  0  0  0  0
  -30.3701   -4.2897   -4.7540 N   0  0  0  0  0  0  0  0  0  0  0  0
  -31.2041   -5.2614   -4.3429 C   0  0  0  0  0  0  0  0  0  0  0  0
  -32.0208   -4.9521   -3.1266 C   0  0  0  0  0  0  0  0  0  0  0  0
  -31.3520   -6.4651   -4.9086 N   0  0  0  0  0  0  0  0  0  0  0  0
  -30.5515   -6.6175   -5.9716 C   0  0  0  0  0  0  0  0  0  0  0  0
  -30.5125   -7.7656   -6.7076 O   0  0  0  0  0  0  0  0  0  0  0  0
  -29.5965   -7.5846   -7.6994 C   0  0  0  0  0  0  0  0  0  0  0  0
  -29.3801   -8.7226   -8.6159 C   0  0  0  0  0  0  0  0  0  0  0  0
  -29.0487   -6.3221   -7.6167 C   0  0  0  0  0  0  0  0  0  0  0  0
  -29.6527   -5.6966   -6.4917 C   0  0  0  0  0  0  0  0  0  0  0  0
  -28.6710   -3.4595   -6.2190 N   0  0  0  0  0  0  0  0  0  0  0  0
  -27.8868   -3.7929   -6.7609 H   0  0  0  0  0  0  0  0  0  0  0  0
  -29.4600    0.1346   -5.7410 C   0  0  0  0  0  0  0  0  0  0  0  0
  -28.3640    0.5778   -5.0025 C   0  0  0  0  0  0  0  0  0  0  0  0
  -27.3792   -0.3276   -4.6265 C   0  0  0  0  0  0  0  0  0  0  0  0
  -27.4906   -1.6675   -5.0011 C   0  0  0  0  0  0  0  0  0  0  0  0
  -28.5723   -2.1323   -5.7633 C   0  0  0  0  0  0  0  0  0  0  0  0
  -29.5650   -1.2094   -6.1171 C   0  0  0  0  0  0  0  0  0  0  0  0
  -31.3215    1.8517   -6.4443 C   0  0  0  0  0  0  0  0  0  0  0  0
  -30.4722    1.0628   -6.1265 C   0  0  0  0  0  0  0  0  0  0  0  0
 20 21  3  0  0  0
 21 14  1  0  0  0
 14 15  1  0  0  0
 14 19  2  0  0  0
 15 16  2  0  0  0
 16 17  1  0  0  0
 17 18  2  0  0  0
 18 12  1  0  0  0
 18 19  1  0  0  0
 12  1  1  0  0  0
 12 13  1  0  0  0
  1  2  1  0  0  0
  1 11  2  0  0  0
  2  3  2  0  0  0
  3  4  1  0  0  0
  3  5  1  0  0  0
  5  6  2  0  0  0
  6  7  1  0  0  0
  6 11  1  0  0  0
  7  8  1  0  0  0
  8  9  1  0  0  0
  8 10  2  0  0  0
 10 11  1  0  0  0
M  END
> <minimizedAffinity>
-7.89892

$$$$
