CHEMBL511843


 36 39  0  0  0  0  0  0  0  0999 V2000
  -22.4536    0.7472  -13.9731 C   0  0  0  0  0  0  0  0  0  0  0  0
  -22.3479    2.1386  -13.9856 C   0  0  0  0  0  0  0  0  0  0  0  0
  -21.2336    2.7556  -14.5601 C   0  0  0  0  0  0  0  0  0  0  0  0
  -20.2031    1.9984  -15.1259 C   0  0  0  0  0  0  0  0  0  0  0  0
  -20.3327    0.6066  -15.1602 C   0  0  0  0  0  0  0  0  0  0  0  0
  -21.4464   -0.0167  -14.5762 C   0  0  0  0  0  0  0  0  0  0  0  0
  -26.9186   -1.6349  -11.5432 C   0  0  0  0  0  0  0  0  0  0  0  0
  -27.4284   -2.1519  -12.7513 C   0  0  0  0  0  0  0  0  0  0  0  0
  -26.6811   -1.8520  -13.8126 N   0  0  0  0  0  0  0  0  0  0  0  0
  -25.6612   -1.1026  -13.3030 N   0  0  0  0  0  0  0  0  0  0  0  0
  -24.5861   -0.5314  -14.0353 C   0  0  0  0  0  0  0  0  0  0  0  0
  -24.6150   -0.6891  -15.4210 N   0  0  0  0  0  0  0  0  0  0  0  0
  -23.6183    0.1121  -13.3469 C   0  0  0  0  0  0  0  0  0  0  0  0
  -23.8285    0.2012  -11.8656 C   0  0  0  0  0  0  0  0  0  0  0  0
  -24.8165   -0.2977  -11.1817 N   0  0  0  0  0  0  0  0  0  0  0  0
  -25.7574   -0.9767  -11.9114 C   0  0  0  0  0  0  0  0  0  0  0  0
  -25.2381   -1.4508  -15.7028 H   0  0  0  0  0  0  0  0  0  0  0  0
  -23.7043   -0.7021  -15.8696 H   0  0  0  0  0  0  0  0  0  0  0  0
  -27.8027   -3.2752   -8.3023 C   0  0  0  0  0  0  0  0  0  0  0  0
  -27.2830   -2.9889   -9.6116 N   0  0  0  0  0  0  0  0  0  0  0  0
  -27.5171   -1.7831  -10.2322 C   0  0  0  0  0  0  0  0  0  0  0  0
  -28.1868   -0.8907   -9.7231 O   0  0  0  0  0  0  0  0  0  0  0  0
  -26.7544   -3.6922  -10.1218 H   0  0  0  0  0  0  0  0  0  0  0  0
  -19.0444    2.5923  -15.6786 N   0  0  0  0  0  0  0  0  0  0  0  0
  -17.7671    2.0671  -15.5508 C   0  0  0  0  0  0  0  0  0  0  0  0
  -17.5117    0.9700  -15.0668 O   0  0  0  0  0  0  0  0  0  0  0  0
  -16.8033    2.9489  -16.0231 N   0  0  0  0  0  0  0  0  0  0  0  0
  -19.1707    3.2316  -16.4503 H   0  0  0  0  0  0  0  0  0  0  0  0
  -17.0077    3.9207  -15.8391 H   0  0  0  0  0  0  0  0  0  0  0  0
  -15.4353    2.5872  -16.0447 C   0  0  0  0  0  0  0  0  0  0  0  0
  -15.0004    1.4230  -16.6853 C   0  0  0  0  0  0  0  0  0  0  0  0
  -13.6532    1.0639  -16.6584 C   0  0  0  0  0  0  0  0  0  0  0  0
  -12.7361    1.8533  -15.9672 C   0  0  0  0  0  0  0  0  0  0  0  0
  -13.1574    3.0183  -15.3150 C   0  0  0  0  0  0  0  0  0  0  0  0
  -12.1946    3.8253  -14.4949 C   0  0  0  0  0  0  0  0  0  0  0  0
  -14.5062    3.4019  -15.3919 C   0  0  0  0  0  0  0  0  0  0  0  0
 19 20  1  0  0  0
 20 21  1  0  0  0
 20 23  1  0  0  0
 21 22  2  0  0  0
 21  7  1  0  0  0
  7  8  1  0  0  0
  7 16  2  0  0  0
  8  9  2  0  0  0
  9 10  1  0  0  0
 10 11  1  0  0  0
 10 16  1  0  0  0
 11 12  1  0  0  0
 11 13  2  0  0  0
 12 17  1  0  0  0
 12 18  1  0  0  0
 13  1  1  0  0  0
 13 14  1  0  0  0
  1  2  1  0  0  0
  1  6  2  0  0  0
  2  3  2  0  0  0
  3  4  1  0  0  0
  4 24  1  0  0  0
  4  5  2  0  0  0
 24 25  1  0  0  0
 24 28  1  0  0  0
 25 26  2  0  0  0
 25 27  1  0  0  0
 27 30  1  0  0  0
 27 29  1  0  0  0
 30 31  1  0  0  0
 30 36  2  0  0  0
 31 32  2  0  0  0
 32 33  1  0  0  0
 33 34  2  0  0  0
 34 35  1  0  0  0
 34 36  1  0  0  0
  5  6  1  0  0  0
 14 15  2  0  0  0
 15 16  1  0  0  0
M  END
> <minimizedAffinity>
-9.89793

$$$$
