CHEMBL1271836


 22 24  0  0  0  0  0  0  0  0999 V2000
  -27.7252   -2.0181   -9.0722 C   0  0  0  0  0  0  0  0  0  0  0  0
  -27.9982   -0.8226   -9.1500 O   0  0  0  0  0  0  0  0  0  0  0  0
  -26.9222   -2.7154   -9.9614 N   0  0  0  0  0  0  0  0  0  0  0  0
  -26.9326   -3.7263   -9.9208 H   0  0  0  0  0  0  0  0  0  0  0  0
  -26.2929   -2.1181  -11.0845 C   0  0  0  0  0  0  0  0  0  0  0  0
  -26.8361   -2.0985  -12.3650 C   0  0  0  0  0  0  0  0  0  0  0  0
  -26.2250   -1.5808  -13.4605 N   0  0  0  0  0  0  0  0  0  0  0  0
  -24.9957   -1.0739  -13.3092 C   0  0  0  0  0  0  0  0  0  0  0  0
  -24.3277   -0.5981  -14.4290 C   0  0  0  0  0  0  0  0  0  0  0  0
  -23.0325   -0.0860  -14.3441 C   0  0  0  0  0  0  0  0  0  0  0  0
  -22.3903   -0.0361  -13.1111 C   0  0  0  0  0  0  0  0  0  0  0  0
  -23.0489   -0.4944  -11.9691 C   0  0  0  0  0  0  0  0  0  0  0  0
  -24.3516   -1.0203  -12.0557 C   0  0  0  0  0  0  0  0  0  0  0  0
  -25.0367   -1.5273  -10.9313 C   0  0  0  0  0  0  0  0  0  0  0  0
  -30.1405   -6.0862   -7.2781 C   0  0  0  0  0  0  0  0  0  0  0  0
  -29.5043   -4.7406   -7.0792 C   0  0  0  0  0  0  0  0  0  0  0  0
  -29.4134   -4.1874   -5.7932 C   0  0  0  0  0  0  0  0  0  0  0  0
  -28.8091   -2.9467   -5.6052 C   0  0  0  0  0  0  0  0  0  0  0  0
  -28.6778   -2.2143   -3.8676 Br  0  0  0  0  0  0  0  0  0  0  0  0
  -28.2905   -2.2468   -6.6880 C   0  0  0  0  0  0  0  0  0  0  0  0
  -28.3762   -2.7861   -7.9807 C   0  0  0  0  0  0  0  0  0  0  0  0
  -28.9816   -4.0332   -8.1770 C   0  0  0  0  0  0  0  0  0  0  0  0
 15 16  1  0  0  0
 16 17  1  0  0  0
 16 22  2  0  0  0
 17 18  2  0  0  0
 18 19  1  0  0  0
 18 20  1  0  0  0
 20 21  2  0  0  0
 21  1  1  0  0  0
 21 22  1  0  0  0
  1  2  2  0  0  0
  1  3  1  0  0  0
  3  5  1  0  0  0
  3  4  1  0  0  0
  5  6  1  0  0  0
  5 14  2  0  0  0
  6  7  2  0  0  0
  7  8  1  0  0  0
  8  9  1  0  0  0
  8 13  2  0  0  0
  9 10  2  0  0  0
 10 11  1  0  0  0
 11 12  2  0  0  0
 12 13  1  0  0  0
 13 14  1  0  0  0
M  END
> <minimizedAffinity>
-9.37770

$$$$
