CHEMBL3940940


 35 39  0  0  0  0  0  0  0  0999 V2000
  -17.0461    2.2563  -15.3631 N   0  0  0  0  0  0  0  0  0  0  0  0
  -18.4747    2.1302  -15.4057 C   0  0  0  0  0  0  0  0  0  0  0  0
  -19.1647    3.3084  -15.6877 C   0  0  0  0  0  0  0  0  0  0  0  0
  -20.4473    3.4795  -15.2369 C   0  0  0  0  0  0  0  0  0  0  0  0
  -21.1447    2.4669  -14.6396 C   0  0  0  0  0  0  0  0  0  0  0  0
  -22.2991    2.8392  -14.0835 N   0  0  0  0  0  0  0  0  0  0  0  0
  -23.0768    1.8636  -13.6039 C   0  0  0  0  0  0  0  0  0  0  0  0
  -22.7517    0.5299  -13.7429 C   0  0  0  0  0  0  0  0  0  0  0  0
  -21.5145    0.1387  -14.2010 N   0  0  0  0  0  0  0  0  0  0  0  0
  -20.6370    1.1388  -14.6135 C   0  0  0  0  0  0  0  0  0  0  0  0
  -19.2490    1.0144  -14.9761 C   0  0  0  0  0  0  0  0  0  0  0  0
  -23.8357   -0.4157  -13.5206 C   0  0  0  0  0  0  0  0  0  0  0  0
  -24.6289   -1.1054  -14.4763 C   0  0  0  0  0  0  0  0  0  0  0  0
  -25.7033   -1.6916  -13.9343 N   0  0  0  0  0  0  0  0  0  0  0  0
  -25.6049   -1.3768  -12.6320 N   0  0  0  0  0  0  0  0  0  0  0  0
  -26.4242   -2.0512  -11.6531 C   0  0  0  0  0  0  0  0  0  0  0  0
  -24.6062   -0.4784  -12.3719 C   0  0  0  0  0  0  0  0  0  0  0  0
  -15.0426   -0.2981  -13.4563 C   0  0  0  0  0  0  0  0  0  0  0  0
  -14.1611   -0.7392  -14.4253 C   0  0  0  0  0  0  0  0  0  0  0  0
  -14.1241   -0.0879  -15.6620 C   0  0  0  0  0  0  0  0  0  0  0  0
  -15.0525    0.9279  -15.9650 C   0  0  0  0  0  0  0  0  0  0  0  0
  -16.0185    1.3303  -15.0407 C   0  0  0  0  0  0  0  0  0  0  0  0
  -15.8868    0.7750  -13.7467 C   0  0  0  0  0  0  0  0  0  0  0  0
  -15.5199   -2.1935  -12.1212 C   0  0  0  0  0  0  0  0  0  0  0  0
  -15.1717   -0.8154  -12.1975 O   0  0  0  0  0  0  0  0  0  0  0  0
  -13.2468   -0.3897  -16.6717 O   0  0  0  0  0  0  0  0  0  0  0  0
  -11.9251    0.1160  -16.5175 C   0  0  0  0  0  0  0  0  0  0  0  0
  -16.6526    3.7156  -15.3406 C   0  0  0  0  0  0  0  0  0  0  0  0
  -15.5011    4.0273  -16.2872 C   0  0  0  0  0  0  0  0  0  0  0  0
  -15.7069    4.0193  -17.6649 C   0  0  0  0  0  0  0  0  0  0  0  0
  -14.6857    4.4647  -18.4962 C   0  0  0  0  0  0  0  0  0  0  0  0
  -13.4900    4.8983  -17.9351 C   0  0  0  0  0  0  0  0  0  0  0  0
  -13.3443    4.8216  -16.5607 C   0  0  0  0  0  0  0  0  0  0  0  0
  -11.7148    5.3834  -15.7708 Br  0  0  0  0  0  0  0  0  0  0  0  0
  -14.3106    4.3721  -15.7370 N   0  0  0  0  0  0  0  0  0  0  0  0
 24 25  1  0  0  0
 25 18  1  0  0  0
 18 19  1  0  0  0
 18 23  2  0  0  0
 19 20  2  0  0  0
 20 26  1  0  0  0
 20 21  1  0  0  0
 26 27  1  0  0  0
 21 22  2  0  0  0
 22  1  1  0  0  0
 22 23  1  0  0  0
  1 28  1  0  0  0
  1  2  1  0  0  0
 28 29  1  0  0  0
 29 30  1  0  0  0
 29 35  2  0  0  0
 30 31  2  0  0  0
 31 32  1  0  0  0
 32 33  2  0  0  0
 33 34  1  0  0  0
 33 35  1  0  0  0
  2  3  1  0  0  0
  2 11  2  0  0  0
  3  4  2  0  0  0
  4  5  1  0  0  0
  5  6  1  0  0  0
  5 10  2  0  0  0
  6  7  2  0  0  0
  7  8  1  0  0  0
  8 12  1  0  0  0
  8  9  2  0  0  0
 12 13  1  0  0  0
 12 17  2  0  0  0
 13 14  2  0  0  0
 14 15  1  0  0  0
 15 16  1  0  0  0
 15 17  1  0  0  0
  9 10  1  0  0  0
 10 11  1  0  0  0
M  END
> <minimizedAffinity>
-9.08818

$$$$
