CHEMBL3969446


 37 42  0  0  0  0  0  0  0  0999 V2000
  -14.2756    1.8847  -16.3401 C   0  0  0  0  0  0  0  0  0  0  0  0
  -15.6592    2.0367  -16.2248 C   0  0  0  0  0  0  0  0  0  0  0  0
  -16.3134    1.6360  -15.0788 C   0  0  0  0  0  0  0  0  0  0  0  0
  -15.7117    0.8213  -14.1602 C   0  0  0  0  0  0  0  0  0  0  0  0
  -16.3961    0.6737  -13.0219 N   0  0  0  0  0  0  0  0  0  0  0  0
  -16.0513   -0.3597  -12.2524 C   0  0  0  0  0  0  0  0  0  0  0  0
  -15.1411   -1.3033  -12.6785 C   0  0  0  0  0  0  0  0  0  0  0  0
  -14.2818   -1.0196  -13.7273 N   0  0  0  0  0  0  0  0  0  0  0  0
  -14.5210    0.1531  -14.4769 C   0  0  0  0  0  0  0  0  0  0  0  0
  -13.7461    0.8243  -15.5357 C   0  0  0  0  0  0  0  0  0  0  0  0
  -15.4288   -2.6643  -12.1932 C   0  0  0  0  0  0  0  0  0  0  0  0
  -16.0880   -3.1720  -11.0559 C   0  0  0  0  0  0  0  0  0  0  0  0
  -16.3117   -4.4944  -11.1202 N   0  0  0  0  0  0  0  0  0  0  0  0
  -15.8127   -4.8721  -12.3216 N   0  0  0  0  0  0  0  0  0  0  0  0
  -15.3524   -3.7855  -13.0245 C   0  0  0  0  0  0  0  0  0  0  0  0
  -15.6224   -6.3051  -12.5996 C   0  0  0  0  0  0  0  0  0  0  0  0
  -14.3485   -6.9776  -12.0456 C   0  0  0  0  0  0  0  0  0  0  0  0
  -13.1086   -6.7013  -12.8961 C   0  0  0  0  0  0  0  0  0  0  0  0
  -13.3012   -7.0335  -14.3052 N   0  0  0  0  0  0  0  0  0  0  0  0
  -14.4773   -6.3704  -14.8683 C   0  0  0  0  0  0  0  0  0  0  0  0
  -15.7456   -6.6958  -14.0859 C   0  0  0  0  0  0  0  0  0  0  0  0
  -13.3859   -8.0443  -14.4206 H   0  0  0  0  0  0  0  0  0  0  0  0
  -13.6063    2.8844  -17.1815 N   0  0  0  0  0  0  0  0  0  0  0  0
  -11.9307    5.8942  -15.5211 C   0  0  0  0  0  0  0  0  0  0  0  0
  -12.1917    6.8922  -16.4457 C   0  0  0  0  0  0  0  0  0  0  0  0
  -12.9856    6.6057  -17.5541 C   0  0  0  0  0  0  0  0  0  0  0  0
  -13.5078    5.3104  -17.7503 C   0  0  0  0  0  0  0  0  0  0  0  0
  -13.1899    4.2419  -16.9092 C   0  0  0  0  0  0  0  0  0  0  0  0
  -12.4428    4.6026  -15.7509 C   0  0  0  0  0  0  0  0  0  0  0  0
  -11.1546    7.3441  -13.7867 C   0  0  0  0  0  0  0  0  0  0  0  0
  -11.1871    6.0447  -14.3773 O   0  0  0  0  0  0  0  0  0  0  0  0
  -13.3144    7.5096  -18.5332 O   0  0  0  0  0  0  0  0  0  0  0  0
  -14.2958    7.0974  -19.4788 C   0  0  0  0  0  0  0  0  0  0  0  0
  -14.1274    2.7400  -18.6067 C   0  0  0  0  0  0  0  0  0  0  0  0
  -13.5040    1.7421  -19.5721 C   0  0  0  0  0  0  0  0  0  0  0  0
  -13.8753    0.2762  -19.6637 C   0  0  0  0  0  0  0  0  0  0  0  0
  -12.4718    0.6695  -19.3041 C   0  0  0  0  0  0  0  0  0  0  0  0
 30 31  1  0  0  0
 31 24  1  0  0  0
 24 25  1  0  0  0
 24 29  2  0  0  0
 25 26  2  0  0  0
 26 32  1  0  0  0
 26 27  1  0  0  0
 32 33  1  0  0  0
 27 28  2  0  0  0
 28 23  1  0  0  0
 28 29  1  0  0  0
 23 34  1  0  0  0
 23  1  1  0  0  0
 34 35  1  0  0  0
 35 36  1  0  0  0
 35 37  1  0  0  0
 36 37  1  0  0  0
  1  2  1  0  0  0
  1 10  2  0  0  0
  2  3  2  0  0  0
  3  4  1  0  0  0
  4  5  1  0  0  0
  4  9  2  0  0  0
  5  6  2  0  0  0
  6  7  1  0  0  0
  7 11  1  0  0  0
  7  8  2  0  0  0
 11 12  1  0  0  0
 11 15  2  0  0  0
 12 13  2  0  0  0
 13 14  1  0  0  0
 14 16  1  0  0  0
 14 15  1  0  0  0
 16 17  1  0  0  0
 16 21  1  0  0  0
 17 18  1  0  0  0
 18 19  1  0  0  0
 19 20  1  0  0  0
 19 22  1  0  0  0
 20 21  1  0  0  0
  8  9  1  0  0  0
  9 10  1  0  0  0
M  END
> <minimizedAffinity>
-6.96759

$$$$
