CHEMBL214775


 43 46  0  0  0  0  0  0  0  0999 V2000
  -14.0306    2.4297  -16.1469 N   0  0  0  0  0  0  0  0  0  0  0  0
  -13.6368    3.7792  -16.1135 C   0  0  0  0  0  0  0  0  0  0  0  0
  -13.9101    4.5579  -15.1994 O   0  0  0  0  0  0  0  0  0  0  0  0
  -12.3312   -0.2020  -19.0314 C   0  0  0  0  0  0  0  0  0  0  0  0
  -13.6420    0.2460  -19.1808 C   0  0  0  0  0  0  0  0  0  0  0  0
  -14.2182    1.0821  -18.2050 C   0  0  0  0  0  0  0  0  0  0  0  0
  -13.4931    1.4825  -17.0709 C   0  0  0  0  0  0  0  0  0  0  0  0
  -12.2085    0.9434  -16.8880 C   0  0  0  0  0  0  0  0  0  0  0  0
  -11.6289    0.1337  -17.8722 C   0  0  0  0  0  0  0  0  0  0  0  0
  -12.3330   -1.3099  -21.1393 C   0  0  0  0  0  0  0  0  0  0  0  0
  -11.6626   -1.0000  -19.9186 O   0  0  0  0  0  0  0  0  0  0  0  0
  -11.4684    1.1234  -15.7447 O   0  0  0  0  0  0  0  0  0  0  0  0
  -11.5350   -0.0210  -14.8869 C   0  0  0  0  0  0  0  0  0  0  0  0
  -15.1988    2.0533  -15.4347 C   0  0  0  0  0  0  0  0  0  0  0  0
  -15.0782    1.1356  -14.4070 C   0  0  0  0  0  0  0  0  0  0  0  0
  -16.2242    0.8236  -13.7329 C   0  0  0  0  0  0  0  0  0  0  0  0
  -17.4189    1.2940  -14.0931 N   0  0  0  0  0  0  0  0  0  0  0  0
  -17.4718    2.1551  -15.1227 C   0  0  0  0  0  0  0  0  0  0  0  0
  -16.3889    2.5934  -15.7807 N   0  0  0  0  0  0  0  0  0  0  0  0
  -18.7142    2.6206  -15.5394 N   0  0  0  0  0  0  0  0  0  0  0  0
  -18.6620    3.1343  -16.4042 H   0  0  0  0  0  0  0  0  0  0  0  0
  -19.9830    2.2159  -15.1005 C   0  0  0  0  0  0  0  0  0  0  0  0
  -20.8652    3.1648  -14.5805 C   0  0  0  0  0  0  0  0  0  0  0  0
  -22.0916    2.7707  -14.0269 C   0  0  0  0  0  0  0  0  0  0  0  0
  -22.4544    1.4222  -13.9899 C   0  0  0  0  0  0  0  0  0  0  0  0
  -21.5960    0.4746  -14.5359 C   0  0  0  0  0  0  0  0  0  0  0  0
  -20.3682    0.8673  -15.0737 C   0  0  0  0  0  0  0  0  0  0  0  0
  -23.5985    0.9081  -13.4443 O   0  0  0  0  0  0  0  0  0  0  0  0
  -23.4145   -0.0861  -12.4386 C   0  0  0  0  0  0  0  0  0  0  0  0
  -24.7310   -0.2593  -11.6920 C   0  0  0  0  0  0  0  0  0  0  0  0
  -24.9458   -1.7078  -11.2451 C   0  0  0  0  0  0  0  0  0  0  0  0
  -26.3197   -2.1993  -11.4465 N   0  0  0  0  0  0  0  0  0  0  0  0
  -27.2358   -1.7281  -10.4054 C   0  0  0  0  0  0  0  0  0  0  0  0
  -26.8128   -1.7944  -12.7643 C   0  0  0  0  0  0  0  0  0  0  0  0
  -12.9263    4.1728  -17.2531 O   0  0  0  0  0  0  0  0  0  0  0  0
  -13.0745    5.4422  -17.8896 C   0  0  0  0  0  0  0  0  0  0  0  0
  -12.2174    6.5192  -17.5959 C   0  0  0  0  0  0  0  0  0  0  0  0
  -10.8636    6.4111  -16.9580 C   0  0  0  0  0  0  0  0  0  0  0  0
  -12.6593    7.8208  -17.8987 C   0  0  0  0  0  0  0  0  0  0  0  0
  -13.8800    8.0444  -18.5296 C   0  0  0  0  0  0  0  0  0  0  0  0
  -14.6634    6.9631  -18.9172 C   0  0  0  0  0  0  0  0  0  0  0  0
  -14.2777    5.6512  -18.5986 C   0  0  0  0  0  0  0  0  0  0  0  0
  -15.1224    4.5068  -19.0804 C   0  0  0  0  0  0  0  0  0  0  0  0
 10 11  1  0  0  0
 11  4  1  0  0  0
  4  5  1  0  0  0
  4  9  2  0  0  0
  5  6  2  0  0  0
  6  7  1  0  0  0
  7  1  1  0  0  0
  7  8  2  0  0  0
  1  2  1  0  0  0
  1 14  1  0  0  0
  2  3  2  0  0  0
  2 35  1  0  0  0
 35 36  1  0  0  0
 36 37  1  0  0  0
 36 42  2  0  0  0
 37 38  1  0  0  0
 37 39  2  0  0  0
 39 40  1  0  0  0
 40 41  2  0  0  0
 41 42  1  0  0  0
 42 43  1  0  0  0
 14 15  1  0  0  0
 14 19  2  0  0  0
 15 16  2  0  0  0
 16 17  1  0  0  0
 17 18  2  0  0  0
 18 20  1  0  0  0
 18 19  1  0  0  0
 20 22  1  0  0  0
 20 21  1  0  0  0
 22 23  1  0  0  0
 22 27  2  0  0  0
 23 24  2  0  0  0
 24 25  1  0  0  0
 25 28  1  0  0  0
 25 26  2  0  0  0
 28 29  1  0  0  0
 29 30  1  0  0  0
 30 31  1  0  0  0
 31 32  1  0  0  0
 32 33  1  0  0  0
 32 34  1  0  0  0
 26 27  1  0  0  0
  8 12  1  0  0  0
  8  9  1  0  0  0
 12 13  1  0  0  0
M  END
> <minimizedAffinity>
-7.84873

$$$$
