CHEMBL3676367


 42 45  0  0  0  0  0  0  0  0999 V2000
  -29.2372   -5.8497   -5.7149 C   0  0  0  0  0  0  0  0  0  0  0  0
  -28.7881   -7.1388   -5.4074 C   0  0  0  0  0  0  0  0  0  0  0  0
  -28.9680   -8.2098   -6.3022 C   0  0  0  0  0  0  0  0  0  0  0  0
  -28.6811   -9.5523   -6.0132 C   0  0  0  0  0  0  0  0  0  0  0  0
  -28.8529  -10.5153   -6.9322 N   0  0  0  0  0  0  0  0  0  0  0  0
  -29.3420  -10.1597   -8.1180 C   0  0  0  0  0  0  0  0  0  0  0  0
  -29.7131   -8.9237   -8.4695 N   0  0  0  0  0  0  0  0  0  0  0  0
  -29.5373   -7.9636   -7.5614 C   0  0  0  0  0  0  0  0  0  0  0  0
  -29.9561   -6.6710   -7.8626 C   0  0  0  0  0  0  0  0  0  0  0  0
  -29.8164   -5.6051   -6.9646 C   0  0  0  0  0  0  0  0  0  0  0  0
  -30.3092   -4.5197   -3.9830 C   0  0  0  0  0  0  0  0  0  0  0  0
  -31.3830   -5.1132   -4.0184 O   0  0  0  0  0  0  0  0  0  0  0  0
  -29.1852   -4.8828   -4.6905 N   0  0  0  0  0  0  0  0  0  0  0  0
  -28.2731   -4.5894   -4.3661 H   0  0  0  0  0  0  0  0  0  0  0  0
  -28.8637   -2.8782   -2.9196 C   0  0  0  0  0  0  0  0  0  0  0  0
  -30.1094   -3.3238   -3.1290 C   0  0  0  0  0  0  0  0  0  0  0  0
  -28.3150   -9.9409   -4.6943 N   0  0  0  0  0  0  0  0  0  0  0  0
  -28.7449   -9.3421   -3.9923 H   0  0  0  0  0  0  0  0  0  0  0  0
  -27.0044  -10.3538   -4.3472 C   0  0  0  0  0  0  0  0  0  0  0  0
  -25.9001   -9.8705   -5.0631 C   0  0  0  0  0  0  0  0  0  0  0  0
  -24.5974  -10.1203   -4.6311 C   0  0  0  0  0  0  0  0  0  0  0  0
  -24.3793  -10.8904   -3.4903 C   0  0  0  0  0  0  0  0  0  0  0  0
  -22.5803  -11.0789   -2.9090 Br  0  0  0  0  0  0  0  0  0  0  0  0
  -25.4640  -11.4562   -2.8078 C   0  0  0  0  0  0  0  0  0  0  0  0
  -25.2536  -12.4538   -1.4133 Cl  0  0  0  0  0  0  0  0  0  0  0  0
  -26.7678  -11.1876   -3.2488 C   0  0  0  0  0  0  0  0  0  0  0  0
  -27.8225  -11.6974   -2.5895 F   0  0  0  0  0  0  0  0  0  0  0  0
  -30.2371   -4.3921   -7.4568 O   0  0  0  0  0  0  0  0  0  0  0  0
  -29.2952   -3.3224   -7.3401 C   0  0  0  0  0  0  0  0  0  0  0  0
  -28.0747   -3.5351   -8.2324 C   0  0  0  0  0  0  0  0  0  0  0  0
  -28.2347   -2.8164   -9.4834 N   0  0  0  0  0  0  0  0  0  0  0  0
  -27.3878   -1.7923   -9.8477 C   0  0  0  0  0  0  0  0  0  0  0  0
  -26.5575   -1.3044   -9.0912 O   0  0  0  0  0  0  0  0  0  0  0  0
  -28.5623   -3.3698  -10.2764 H   0  0  0  0  0  0  0  0  0  0  0  0
  -27.5787   -1.2967  -11.2691 C   0  0  0  0  0  0  0  0  0  0  0  0
  -26.6328   -1.9680  -12.2702 C   0  0  0  0  0  0  0  0  0  0  0  0
  -25.3948   -1.2098  -12.5467 N   0  0  0  0  0  0  0  0  0  0  0  0
  -24.2671   -1.6359  -11.6979 C   0  0  0  0  0  0  0  0  0  0  0  0
  -23.0533   -0.7419  -11.9567 C   0  0  0  0  0  0  0  0  0  0  0  0
  -22.6341   -0.8020  -13.4195 C   0  0  0  0  0  0  0  0  0  0  0  0
  -23.8202   -0.4779  -14.3187 C   0  0  0  0  0  0  0  0  0  0  0  0
  -25.0312   -1.3434  -13.9727 C   0  0  0  0  0  0  0  0  0  0  0  0
 15 16  2  0  0  0
 16 11  1  0  0  0
 11 12  2  0  0  0
 11 13  1  0  0  0
 13  1  1  0  0  0
 13 14  1  0  0  0
  1  2  1  0  0  0
  1 10  2  0  0  0
  2  3  2  0  0  0
  3  4  1  0  0  0
  3  8  1  0  0  0
  4 17  1  0  0  0
  4  5  2  0  0  0
 17 19  1  0  0  0
 17 18  1  0  0  0
 19 20  1  0  0  0
 19 26  2  0  0  0
 20 21  2  0  0  0
 21 22  1  0  0  0
 22 23  1  0  0  0
 22 24  2  0  0  0
 24 25  1  0  0  0
 24 26  1  0  0  0
 26 27  1  0  0  0
  5  6  1  0  0  0
  6  7  2  0  0  0
  7  8  1  0  0  0
  8  9  2  0  0  0
  9 10  1  0  0  0
 10 28  1  0  0  0
 28 29  1  0  0  0
 29 30  1  0  0  0
 30 31  1  0  0  0
 31 32  1  0  0  0
 31 34  1  0  0  0
 32 33  2  0  0  0
 32 35  1  0  0  0
 35 36  1  0  0  0
 36 37  1  0  0  0
 37 38  1  0  0  0
 37 42  1  0  0  0
 38 39  1  0  0  0
 39 40  1  0  0  0
 40 41  1  0  0  0
 41 42  1  0  0  0
M  END
> <minimizedAffinity>
-9.20367

$$$$
