CHEMBL1242034


 28 31  0  0  0  0  0  0  0  0999 V2000
  -28.6592   -0.9108   -6.2661 N   0  0  0  0  0  0  0  0  0  0  0  0
  -28.1130   -0.5190   -7.4530 N   0  0  0  0  0  0  0  0  0  0  0  0
  -27.9931   -1.6616   -8.1667 C   0  0  0  0  0  0  0  0  0  0  0  0
  -28.3142   -2.7858   -7.3739 C   0  0  0  0  0  0  0  0  0  0  0  0
  -28.2789   -4.1727   -7.5262 C   0  0  0  0  0  0  0  0  0  0  0  0
  -27.8158   -4.7847   -8.6645 N   0  0  0  0  0  0  0  0  0  0  0  0
  -28.7393   -4.9429   -6.5236 N   0  0  0  0  0  0  0  0  0  0  0  0
  -29.1752   -4.3336   -5.4037 C   0  0  0  0  0  0  0  0  0  0  0  0
  -29.2024   -3.0179   -5.1298 N   0  0  0  0  0  0  0  0  0  0  0  0
  -28.7531   -2.2812   -6.1633 C   0  0  0  0  0  0  0  0  0  0  0  0
  -27.3857   -4.2534   -9.4025 H   0  0  0  0  0  0  0  0  0  0  0  0
  -27.8438   -5.7873   -8.7313 H   0  0  0  0  0  0  0  0  0  0  0  0
  -27.3550   -1.6897   -9.4903 C   0  0  0  0  0  0  0  0  0  0  0  0
  -28.2827   -1.7101  -10.5264 C   0  0  0  0  0  0  0  0  0  0  0  0
  -27.8576   -1.6119  -11.8010 C   0  0  0  0  0  0  0  0  0  0  0  0
  -26.5489   -1.5208  -12.0390 C   0  0  0  0  0  0  0  0  0  0  0  0
  -26.2914   -1.4726  -13.3019 N   0  0  0  0  0  0  0  0  0  0  0  0
  -26.1125   -1.4355  -14.5565 C   0  0  0  0  0  0  0  0  0  0  0  0
  -24.8707   -1.3870  -14.0777 C   0  0  0  0  0  0  0  0  0  0  0  0
  -24.3528   -1.3966  -12.4558 C   0  0  0  0  0  0  0  0  0  0  0  0
  -22.9336   -1.5062  -12.3129 N   0  0  0  0  0  0  0  0  0  0  0  0
  -25.4292   -1.4710  -11.2882 C   0  0  0  0  0  0  0  0  0  0  0  0
  -25.9323   -1.5635   -9.8116 C   0  0  0  0  0  0  0  0  0  0  0  0
  -22.3084   -0.8027  -11.9208 H   0  0  0  0  0  0  0  0  0  0  0  0
  -22.6785   -1.4768  -13.2898 H   0  0  0  0  0  0  0  0  0  0  0  0
  -28.0183    0.9779   -4.8212 C   0  0  0  0  0  0  0  0  0  0  0  0
  -29.1709    0.1151   -5.3463 C   0  0  0  0  0  0  0  0  0  0  0  0
  -30.2305    1.0317   -5.9641 C   0  0  0  0  0  0  0  0  0  0  0  0
 26 27  1  0  0  0
 27 28  1  0  0  0
 27  1  1  0  0  0
  1  2  1  0  0  0
  1 10  1  0  0  0
  2  3  2  0  0  0
  3 13  1  0  0  0
  3  4  1  0  0  0
 13 14  1  0  0  0
 13 23  2  0  0  0
 14 15  2  0  0  0
 15 16  1  0  0  0
 16 17  1  0  0  0
 16 22  2  0  0  0
 17 18  2  0  0  0
 18 19  1  0  0  0
 19 20  2  0  0  0
 20 21  1  0  0  0
 20 22  1  0  0  0
 21 24  1  0  0  0
 21 25  1  0  0  0
 22 23  1  0  0  0
  4  5  1  0  0  0
  4 10  2  0  0  0
  5  6  1  0  0  0
  5  7  2  0  0  0
  6 11  1  0  0  0
  6 12  1  0  0  0
  7  8  1  0  0  0
  8  9  2  0  0  0
  9 10  1  0  0  0
M  END
> <minimizedAffinity>
-8.87687

$$$$
