CHEMBL220874


 32 34  0  0  0  0  0  0  0  0999 V2000
  -21.5599    3.5300  -15.2813 C   0  0  0  0  0  0  0  0  0  0  0  0
  -20.2641    2.7772  -15.1379 C   0  0  0  0  0  0  0  0  0  0  0  0
  -19.0765    3.4073  -15.5333 C   0  0  0  0  0  0  0  0  0  0  0  0
  -17.8630    2.7292  -15.4659 C   0  0  0  0  0  0  0  0  0  0  0  0
  -17.8060    1.4100  -14.9962 C   0  0  0  0  0  0  0  0  0  0  0  0
  -18.9783    0.7794  -14.5626 C   0  0  0  0  0  0  0  0  0  0  0  0
  -20.2107    1.4562  -14.6445 C   0  0  0  0  0  0  0  0  0  0  0  0
  -16.4586    0.7768  -14.9648 C   0  0  0  0  0  0  0  0  0  0  0  0
  -15.7797    0.8754  -15.9831 O   0  0  0  0  0  0  0  0  0  0  0  0
  -16.1260    0.0419  -13.8323 N   0  0  0  0  0  0  0  0  0  0  0  0
  -16.8590   -0.1301  -13.1563 H   0  0  0  0  0  0  0  0  0  0  0  0
  -14.9415   -0.7326  -13.7040 C   0  0  0  0  0  0  0  0  0  0  0  0
  -13.6626   -0.1672  -13.7333 C   0  0  0  0  0  0  0  0  0  0  0  0
  -12.5173   -0.9640  -13.7094 C   0  0  0  0  0  0  0  0  0  0  0  0
  -12.6346   -2.3475  -13.6663 C   0  0  0  0  0  0  0  0  0  0  0  0
  -13.9016   -2.9453  -13.6157 C   0  0  0  0  0  0  0  0  0  0  0  0
  -15.0522   -2.1258  -13.5922 C   0  0  0  0  0  0  0  0  0  0  0  0
  -14.0281   -4.4489  -13.6516 C   0  0  0  0  0  0  0  0  0  0  0  0
  -14.6203   -4.9193  -14.7865 F   0  0  0  0  0  0  0  0  0  0  0  0
  -12.8277   -5.0832  -13.5669 F   0  0  0  0  0  0  0  0  0  0  0  0
  -14.7791   -4.9277  -12.6204 F   0  0  0  0  0  0  0  0  0  0  0  0
  -21.4131    0.7714  -14.2504 C   0  0  0  0  0  0  0  0  0  0  0  0
  -22.4125    0.2071  -13.8744 C   0  0  0  0  0  0  0  0  0  0  0  0
  -23.6114   -0.4176  -13.4022 C   0  0  0  0  0  0  0  0  0  0  0  0
  -24.4427   -1.1087  -14.2745 C   0  0  0  0  0  0  0  0  0  0  0  0
  -25.6294   -1.6654  -13.7924 C   0  0  0  0  0  0  0  0  0  0  0  0
  -25.9670   -1.4987  -12.4552 C   0  0  0  0  0  0  0  0  0  0  0  0
  -27.1349   -2.0606  -11.9528 N   0  0  0  0  0  0  0  0  0  0  0  0
  -25.1713   -0.8533  -11.5841 N   0  0  0  0  0  0  0  0  0  0  0  0
  -24.0086   -0.3354  -12.0721 C   0  0  0  0  0  0  0  0  0  0  0  0
  -27.9471   -1.8589  -12.5233 H   0  0  0  0  0  0  0  0  0  0  0  0
  -27.2471   -1.7432  -10.9928 H   0  0  0  0  0  0  0  0  0  0  0  0
  1  2  1  0  0  0
  2  3  1  0  0  0
  2  7  2  0  0  0
  3  4  2  0  0  0
  4  5  1  0  0  0
  5  8  1  0  0  0
  5  6  2  0  0  0
  8  9  2  0  0  0
  8 10  1  0  0  0
 10 12  1  0  0  0
 10 11  1  0  0  0
 12 13  1  0  0  0
 12 17  2  0  0  0
 13 14  2  0  0  0
 14 15  1  0  0  0
 15 16  2  0  0  0
 16 18  1  0  0  0
 16 17  1  0  0  0
 18 19  1  0  0  0
 18 20  1  0  0  0
 18 21  1  0  0  0
  6  7  1  0  0  0
  7 22  1  0  0  0
 22 23  3  0  0  0
 23 24  1  0  0  0
 24 25  1  0  0  0
 24 30  2  0  0  0
 25 26  2  0  0  0
 26 27  1  0  0  0
 27 28  1  0  0  0
 27 29  2  0  0  0
 28 31  1  0  0  0
 28 32  1  0  0  0
 29 30  1  0  0  0
M  END
> <minimizedAffinity>
-9.80483

$$$$
