CHEMBL3890120


 39 43  0  0  0  0  0  0  0  0999 V2000
  -24.0930   -0.7193  -13.0203 N   0  0  0  0  0  0  0  0  0  0  0  0
  -23.0608   -1.6262  -13.5528 C   0  0  0  0  0  0  0  0  0  0  0  0
  -21.6520   -1.0090  -14.0190 C   0  0  0  0  0  0  0  0  0  0  0  0
  -21.4763    0.4958  -14.1843 C   0  0  0  0  0  0  0  0  0  0  0  0
  -22.5771    1.2375  -13.7419 C   0  0  0  0  0  0  0  0  0  0  0  0
  -22.5048    2.6143  -13.8714 C   0  0  0  0  0  0  0  0  0  0  0  0
  -21.5187    3.2841  -14.4684 N   0  0  0  0  0  0  0  0  0  0  0  0
  -20.4488    2.6125  -14.8856 C   0  0  0  0  0  0  0  0  0  0  0  0
  -19.5065    3.4678  -15.4352 C   0  0  0  0  0  0  0  0  0  0  0  0
  -18.2100    3.0917  -15.7894 C   0  0  0  0  0  0  0  0  0  0  0  0
  -17.8712    1.7451  -15.6075 C   0  0  0  0  0  0  0  0  0  0  0  0
  -18.8952    0.8197  -15.1303 C   0  0  0  0  0  0  0  0  0  0  0  0
  -20.2641    1.2223  -14.7324 C   0  0  0  0  0  0  0  0  0  0  0  0
  -23.8480    0.7259  -13.1229 C   0  0  0  0  0  0  0  0  0  0  0  0
  -26.9593   -1.7119  -10.5768 C   0  0  0  0  0  0  0  0  0  0  0  0
  -28.0015   -1.7929  -11.5181 C   0  0  0  0  0  0  0  0  0  0  0  0
  -27.7645   -1.5835  -12.8674 C   0  0  0  0  0  0  0  0  0  0  0  0
  -26.4772   -1.2633  -13.3142 C   0  0  0  0  0  0  0  0  0  0  0  0
  -25.3477   -1.1234  -12.4592 C   0  0  0  0  0  0  0  0  0  0  0  0
  -25.6313   -1.3901  -11.0670 C   0  0  0  0  0  0  0  0  0  0  0  0
  -28.1576   -3.1245   -8.8281 N   0  0  0  0  0  0  0  0  0  0  0  0
  -27.4496   -1.9730   -9.1225 C   0  0  0  0  0  0  0  0  0  0  0  0
  -27.1745   -1.1148   -8.2663 O   0  0  0  0  0  0  0  0  0  0  0  0
  -28.3381   -3.7611   -9.5923 H   0  0  0  0  0  0  0  0  0  0  0  0
  -29.7989   -4.5116   -5.0552 C   0  0  0  0  0  0  0  0  0  0  0  0
  -29.8135   -3.1449   -5.3816 C   0  0  0  0  0  0  0  0  0  0  0  0
  -29.2773   -2.6551   -6.6087 C   0  0  0  0  0  0  0  0  0  0  0  0
  -28.7122   -3.5139   -7.5539 C   0  0  0  0  0  0  0  0  0  0  0  0
  -28.6956   -4.8766   -7.2219 C   0  0  0  0  0  0  0  0  0  0  0  0
  -29.2301   -5.3696   -6.0011 C   0  0  0  0  0  0  0  0  0  0  0  0
  -31.8021   -4.3586   -3.5041 C   0  0  0  0  0  0  0  0  0  0  0  0
  -30.4221   -4.9885   -3.7394 C   0  0  0  0  0  0  0  0  0  0  0  0
  -30.5446   -6.5116   -3.5613 C   0  0  0  0  0  0  0  0  0  0  0  0
  -17.2681    4.2125  -16.2062 C   0  0  0  0  0  0  0  0  0  0  0  0
  -16.5535    4.7782  -15.1195 O   0  0  0  0  0  0  0  0  0  0  0  0
  -17.2131    5.2934  -14.6113 H   0  0  0  0  0  0  0  0  0  0  0  0
  -16.4140    1.3323  -15.7792 C   0  0  0  0  0  0  0  0  0  0  0  0
  -16.1147    0.0995  -15.1232 O   0  0  0  0  0  0  0  0  0  0  0  0
  -16.1208    0.2760  -14.1657 H   0  0  0  0  0  0  0  0  0  0  0  0
 31 32  1  0  0  0
 32 33  1  0  0  0
 32 25  1  0  0  0
 25 26  1  0  0  0
 25 30  2  0  0  0
 26 27  2  0  0  0
 27 28  1  0  0  0
 28 21  1  0  0  0
 28 29  2  0  0  0
 21 22  1  0  0  0
 21 24  1  0  0  0
 22 23  2  0  0  0
 22 15  1  0  0  0
 15 16  1  0  0  0
 15 20  2  0  0  0
 16 17  2  0  0  0
 17 18  1  0  0  0
 18 19  2  0  0  0
 19  1  1  0  0  0
 19 20  1  0  0  0
  1  2  1  0  0  0
  1 14  1  0  0  0
  2  3  1  0  0  0
  3  4  1  0  0  0
  4  5  1  0  0  0
  4 13  2  0  0  0
  5  6  2  0  0  0
  5 14  1  0  0  0
  6  7  1  0  0  0
  7  8  2  0  0  0
  8  9  1  0  0  0
  8 13  1  0  0  0
  9 10  2  0  0  0
 10 34  1  0  0  0
 10 11  1  0  0  0
 34 35  1  0  0  0
 35 36  1  0  0  0
 11 37  1  0  0  0
 11 12  2  0  0  0
 37 38  1  0  0  0
 38 39  1  0  0  0
 12 13  1  0  0  0
 29 30  1  0  0  0
M  END
> <minimizedAffinity>
-11.61349

$$$$
