CHEMBL4228120


 35 38  0  0  0  0  0  0  0  0999 V2000
  -30.9272   -6.3917   -7.6218 O   0  0  0  0  0  0  0  0  0  0  0  0
  -29.9316   -6.8827   -7.0895 C   0  0  0  0  0  0  0  0  0  0  0  0
  -29.0865   -6.1869   -6.2410 N   0  0  0  0  0  0  0  0  0  0  0  0
  -29.5646   -8.2176   -7.2822 N   0  0  0  0  0  0  0  0  0  0  0  0
  -30.4951   -9.0711   -8.0366 C   0  0  0  0  0  0  0  0  0  0  0  0
  -30.4611  -10.4896   -7.4829 C   0  0  0  0  0  0  0  0  0  0  0  0
  -29.0753  -10.9955   -7.7791 C   0  0  0  0  0  0  0  0  0  0  0  0
  -28.9323  -12.1467   -8.4564 N   0  0  0  0  0  0  0  0  0  0  0  0
  -27.6753  -12.4620   -8.7864 C   0  0  0  0  0  0  0  0  0  0  0  0
  -26.5769  -11.7651   -8.4599 N   0  0  0  0  0  0  0  0  0  0  0  0
  -26.7535  -10.6201   -7.7736 C   0  0  0  0  0  0  0  0  0  0  0  0
  -28.0157  -10.1665   -7.4365 C   0  0  0  0  0  0  0  0  0  0  0  0
  -28.3097   -8.8370   -6.8041 C   0  0  0  0  0  0  0  0  0  0  0  0
  -28.4381   -6.6935   -5.6603 H   0  0  0  0  0  0  0  0  0  0  0  0
  -29.3344   -4.8799   -5.9296 N   0  0  0  0  0  0  0  0  0  0  0  0
  -28.3218   -4.0883   -6.0946 C   0  0  0  0  0  0  0  0  0  0  0  0
  -28.4034   -2.6444   -5.8029 C   0  0  0  0  0  0  0  0  0  0  0  0
  -28.3167   -1.7286   -6.8625 C   0  0  0  0  0  0  0  0  0  0  0  0
  -28.3864   -0.3658   -6.5955 C   0  0  0  0  0  0  0  0  0  0  0  0
  -28.3025    0.5089   -7.6061 F   0  0  0  0  0  0  0  0  0  0  0  0
  -28.5420    0.0914   -5.2923 C   0  0  0  0  0  0  0  0  0  0  0  0
  -28.6082    1.4060   -5.0407 F   0  0  0  0  0  0  0  0  0  0  0  0
  -28.6313   -0.8047   -4.2348 C   0  0  0  0  0  0  0  0  0  0  0  0
  -28.5621   -2.1794   -4.4826 C   0  0  0  0  0  0  0  0  0  0  0  0
  -28.6816   -3.2334   -3.1241 Cl  0  0  0  0  0  0  0  0  0  0  0  0
  -25.6160   -9.8975   -7.3412 N   0  0  0  0  0  0  0  0  0  0  0  0
  -25.8802   -8.9227   -7.2323 H   0  0  0  0  0  0  0  0  0  0  0  0
  -24.7301  -10.3233   -6.3251 C   0  0  0  0  0  0  0  0  0  0  0  0
  -24.9488   -9.9353   -4.9955 C   0  0  0  0  0  0  0  0  0  0  0  0
  -24.0344  -10.2760   -3.9951 C   0  0  0  0  0  0  0  0  0  0  0  0
  -22.8814  -10.9806   -4.3250 C   0  0  0  0  0  0  0  0  0  0  0  0
  -22.0125  -11.2875   -3.3507 F   0  0  0  0  0  0  0  0  0  0  0  0
  -22.6296  -11.3441   -5.6432 C   0  0  0  0  0  0  0  0  0  0  0  0
  -21.1894  -12.1852   -6.0679 Cl  0  0  0  0  0  0  0  0  0  0  0  0
  -23.5457  -11.0090   -6.6398 C   0  0  0  0  0  0  0  0  0  0  0  0
  1  2  2  0  0  0
  2  3  1  0  0  0
  2  4  1  0  0  0
  3 15  1  0  0  0
  3 14  1  0  0  0
 15 16  2  0  0  0
 16 17  1  0  0  0
 17 18  1  0  0  0
 17 24  2  0  0  0
 18 19  2  0  0  0
 19 20  1  0  0  0
 19 21  1  0  0  0
 21 22  1  0  0  0
 21 23  2  0  0  0
 23 24  1  0  0  0
 24 25  1  0  0  0
  4  5  1  0  0  0
  4 13  1  0  0  0
  5  6  1  0  0  0
  6  7  1  0  0  0
  7  8  1  0  0  0
  7 12  2  0  0  0
  8  9  2  0  0  0
  9 10  1  0  0  0
 10 11  2  0  0  0
 11 26  1  0  0  0
 11 12  1  0  0  0
 26 28  1  0  0  0
 26 27  1  0  0  0
 28 29  1  0  0  0
 28 35  2  0  0  0
 29 30  2  0  0  0
 30 31  1  0  0  0
 31 32  1  0  0  0
 31 33  2  0  0  0
 33 34  1  0  0  0
 33 35  1  0  0  0
 12 13  1  0  0  0
M  END
> <minimizedAffinity>
-8.82944

$$$$
