CHEMBL494873


 40 44  0  0  0  0  0  0  0  0999 V2000
  -23.3756   -1.0719  -13.2650 N   0  0  0  0  0  0  0  0  0  0  0  0
  -23.4998   -0.6264  -11.8866 C   0  0  0  0  0  0  0  0  0  0  0  0
  -24.5001   -1.4618  -11.0973 C   0  0  0  0  0  0  0  0  0  0  0  0
  -25.8077   -1.6071  -11.8279 C   0  0  0  0  0  0  0  0  0  0  0  0
  -27.0542   -1.7902  -11.1902 C   0  0  0  0  0  0  0  0  0  0  0  0
  -28.2360   -1.8182  -11.9606 C   0  0  0  0  0  0  0  0  0  0  0  0
  -28.1983   -1.7161  -13.3458 C   0  0  0  0  0  0  0  0  0  0  0  0
  -26.9714   -1.6079  -13.9868 C   0  0  0  0  0  0  0  0  0  0  0  0
  -25.7848   -1.5597  -13.2372 C   0  0  0  0  0  0  0  0  0  0  0  0
  -24.5051   -1.4437  -13.9877 C   0  0  0  0  0  0  0  0  0  0  0  0
  -24.4851   -1.6757  -15.1929 O   0  0  0  0  0  0  0  0  0  0  0  0
  -27.2652   -1.9327   -9.7164 C   0  0  0  0  0  0  0  0  0  0  0  0
  -26.6176   -1.1919   -8.9814 O   0  0  0  0  0  0  0  0  0  0  0  0
  -28.1854   -2.8782   -9.3058 N   0  0  0  0  0  0  0  0  0  0  0  0
  -28.6190   -3.4664   -9.9990 H   0  0  0  0  0  0  0  0  0  0  0  0
  -28.5686   -3.1346   -7.9751 C   0  0  0  0  0  0  0  0  0  0  0  0
  -28.2900   -2.2649   -6.9271 C   0  0  0  0  0  0  0  0  0  0  0  0
  -28.7218   -2.5520   -5.6286 C   0  0  0  0  0  0  0  0  0  0  0  0
  -29.4212   -3.7307   -5.3304 C   0  0  0  0  0  0  0  0  0  0  0  0
  -29.6898   -4.6041   -6.4005 C   0  0  0  0  0  0  0  0  0  0  0  0
  -29.2868   -4.3013   -7.7087 C   0  0  0  0  0  0  0  0  0  0  0  0
  -29.8884   -4.0648   -3.9038 C   0  0  0  0  0  0  0  0  0  0  0  0
  -31.4216   -4.2377   -3.7880 C   0  0  0  0  0  0  0  0  0  0  0  0
  -29.2412   -5.3867   -3.4395 C   0  0  0  0  0  0  0  0  0  0  0  0
  -29.4818   -2.9316   -2.9406 C   0  0  0  0  0  0  0  0  0  0  0  0
  -22.1950   -0.6438  -14.0106 C   0  0  0  0  0  0  0  0  0  0  0  0
  -18.3796    2.8549  -14.8145 C   0  0  0  0  0  0  0  0  0  0  0  0
  -19.5765    3.5468  -14.5555 C   0  0  0  0  0  0  0  0  0  0  0  0
  -20.7895    2.9039  -14.3739 C   0  0  0  0  0  0  0  0  0  0  0  0
  -21.8552    3.6510  -14.0393 N   0  0  0  0  0  0  0  0  0  0  0  0
  -23.0131    3.0204  -13.7615 C   0  0  0  0  0  0  0  0  0  0  0  0
  -23.1665    1.6510  -13.8032 C   0  0  0  0  0  0  0  0  0  0  0  0
  -22.0708    0.8559  -14.1704 C   0  0  0  0  0  0  0  0  0  0  0  0
  -20.8470    1.4999  -14.4935 C   0  0  0  0  0  0  0  0  0  0  0  0
  -19.6706    0.8286  -14.8922 C   0  0  0  0  0  0  0  0  0  0  0  0
  -18.4385    1.4808  -15.0424 C   0  0  0  0  0  0  0  0  0  0  0  0
  -16.6664    3.7984  -16.1548 C   0  0  0  0  0  0  0  0  0  0  0  0
  -17.1751    3.5065  -14.8491 O   0  0  0  0  0  0  0  0  0  0  0  0
  -17.4514    0.5915  -15.3588 O   0  0  0  0  0  0  0  0  0  0  0  0
  -16.5042    0.1893  -14.3898 C   0  0  0  0  0  0  0  0  0  0  0  0
 37 38  1  0  0  0
 38 27  1  0  0  0
 27 28  1  0  0  0
 27 36  2  0  0  0
 28 29  2  0  0  0
 29 30  1  0  0  0
 29 34  1  0  0  0
 30 31  2  0  0  0
 31 32  1  0  0  0
 32 33  2  0  0  0
 33 26  1  0  0  0
 33 34  1  0  0  0
 26  1  1  0  0  0
  1  2  1  0  0  0
  1 10  1  0  0  0
  2  3  1  0  0  0
  3  4  1  0  0  0
  4  5  1  0  0  0
  4  9  2  0  0  0
  5 12  1  0  0  0
  5  6  2  0  0  0
 12 13  2  0  0  0
 12 14  1  0  0  0
 14 16  1  0  0  0
 14 15  1  0  0  0
 16 17  1  0  0  0
 16 21  2  0  0  0
 17 18  2  0  0  0
 18 19  1  0  0  0
 19 22  1  0  0  0
 19 20  2  0  0  0
 22 23  1  0  0  0
 22 24  1  0  0  0
 22 25  1  0  0  0
 20 21  1  0  0  0
  6  7  1  0  0  0
  7  8  2  0  0  0
  8  9  1  0  0  0
  9 10  1  0  0  0
 10 11  2  0  0  0
 34 35  2  0  0  0
 35 36  1  0  0  0
 36 39  1  0  0  0
 39 40  1  0  0  0
M  END
> <minimizedAffinity>
-11.74311

$$$$
