CHEMBL306512


 27 30  0  0  0  0  0  0  0  0999 V2000
  -28.3135    1.0393   -4.6624 C   0  0  0  0  0  0  0  0  0  0  0  0
  -28.5124   -0.3193   -5.2669 C   0  0  0  0  0  0  0  0  0  0  0  0
  -29.3002   -1.2715   -4.6284 C   0  0  0  0  0  0  0  0  0  0  0  0
  -29.5012   -2.5229   -5.2121 C   0  0  0  0  0  0  0  0  0  0  0  0
  -28.9194   -2.8691   -6.4537 C   0  0  0  0  0  0  0  0  0  0  0  0
  -29.1032   -4.1170   -7.0782 C   0  0  0  0  0  0  0  0  0  0  0  0
  -28.5373   -4.4045   -8.2698 N   0  0  0  0  0  0  0  0  0  0  0  0
  -27.7818   -3.4749   -8.9074 N   0  0  0  0  0  0  0  0  0  0  0  0
  -27.5702   -2.2539   -8.3687 C   0  0  0  0  0  0  0  0  0  0  0  0
  -28.1166   -1.9086   -7.1145 C   0  0  0  0  0  0  0  0  0  0  0  0
  -27.9363   -0.6390   -6.5045 C   0  0  0  0  0  0  0  0  0  0  0  0
  -26.7691   -1.3225   -9.0898 N   0  0  0  0  0  0  0  0  0  0  0  0
  -25.9312   -1.1303   -8.5511 H   0  0  0  0  0  0  0  0  0  0  0  0
  -26.5248   -1.4145  -10.4803 C   0  0  0  0  0  0  0  0  0  0  0  0
  -25.2103   -1.4249  -10.9763 C   0  0  0  0  0  0  0  0  0  0  0  0
  -24.9519   -1.4955  -12.3466 C   0  0  0  0  0  0  0  0  0  0  0  0
  -26.0153   -1.5817  -13.2376 C   0  0  0  0  0  0  0  0  0  0  0  0
  -25.7080   -1.6328  -14.9291 Cl  0  0  0  0  0  0  0  0  0  0  0  0
  -27.3258   -1.6325  -12.7654 C   0  0  0  0  0  0  0  0  0  0  0  0
  -27.5799   -1.5625  -11.3886 C   0  0  0  0  0  0  0  0  0  0  0  0
  -29.9637   -5.2251   -6.5203 C   0  0  0  0  0  0  0  0  0  0  0  0
  -29.1935   -6.4657   -6.1285 C   0  0  0  0  0  0  0  0  0  0  0  0
  -28.3807   -6.4714   -4.9887 C   0  0  0  0  0  0  0  0  0  0  0  0
  -27.6921   -7.6294   -4.6637 C   0  0  0  0  0  0  0  0  0  0  0  0
  -27.7621   -8.7701   -5.3814 N   0  0  0  0  0  0  0  0  0  0  0  0
  -28.5575   -8.7496   -6.4711 C   0  0  0  0  0  0  0  0  0  0  0  0
  -29.2848   -7.6408   -6.8789 C   0  0  0  0  0  0  0  0  0  0  0  0
  1  2  1  0  0  0
  2  3  1  0  0  0
  2 11  2  0  0  0
  3  4  2  0  0  0
  4  5  1  0  0  0
  5  6  1  0  0  0
  5 10  2  0  0  0
  6 21  1  0  0  0
  6  7  2  0  0  0
 21 22  1  0  0  0
 22 23  1  0  0  0
 22 27  2  0  0  0
 23 24  2  0  0  0
 24 25  1  0  0  0
 25 26  2  0  0  0
 26 27  1  0  0  0
  7  8  1  0  0  0
  8  9  2  0  0  0
  9 12  1  0  0  0
  9 10  1  0  0  0
 12 14  1  0  0  0
 12 13  1  0  0  0
 14 15  1  0  0  0
 14 20  2  0  0  0
 15 16  2  0  0  0
 16 17  1  0  0  0
 17 18  1  0  0  0
 17 19  2  0  0  0
 19 20  1  0  0  0
 10 11  1  0  0  0
M  END
> <minimizedAffinity>
-9.04981

$$$$
