CHEMBL3678950


 36 40  0  0  0  0  0  0  0  0999 V2000
  -15.2317    3.4831  -16.8832 N   0  0  0  0  0  0  0  0  0  0  0  0
  -14.0858    3.0258  -16.2471 C   0  0  0  0  0  0  0  0  0  0  0  0
  -14.3907    2.2542  -15.2200 N   0  0  0  0  0  0  0  0  0  0  0  0
  -15.7456    2.2597  -15.1331 C   0  0  0  0  0  0  0  0  0  0  0  0
  -16.6331    1.6526  -14.2564 C   0  0  0  0  0  0  0  0  0  0  0  0
  -17.9665    1.8523  -14.4078 N   0  0  0  0  0  0  0  0  0  0  0  0
  -18.3935    2.6647  -15.3964 C   0  0  0  0  0  0  0  0  0  0  0  0
  -17.5984    3.2850  -16.2950 N   0  0  0  0  0  0  0  0  0  0  0  0
  -16.2945    3.0434  -16.1255 C   0  0  0  0  0  0  0  0  0  0  0  0
  -15.0381    5.7576  -17.9546 C   0  0  0  0  0  0  0  0  0  0  0  0
  -15.2838    4.2539  -18.1228 C   0  0  0  0  0  0  0  0  0  0  0  0
  -14.3693    3.6961  -19.2169 C   0  0  0  0  0  0  0  0  0  0  0  0
  -12.8340    3.3638  -16.6421 N   0  0  0  0  0  0  0  0  0  0  0  0
  -12.3020    2.8124  -17.3036 H   0  0  0  0  0  0  0  0  0  0  0  0
  -12.2822    4.6427  -16.4111 C   0  0  0  0  0  0  0  0  0  0  0  0
  -12.5671    5.3271  -15.2240 C   0  0  0  0  0  0  0  0  0  0  0  0
  -12.0921    6.6294  -15.0217 C   0  0  0  0  0  0  0  0  0  0  0  0
  -11.3268    7.2541  -16.0046 C   0  0  0  0  0  0  0  0  0  0  0  0
  -10.6977    9.0157  -15.7468 Br  0  0  0  0  0  0  0  0  0  0  0  0
  -11.0312    6.5910  -17.1898 C   0  0  0  0  0  0  0  0  0  0  0  0
  -11.5114    5.3029  -17.3864 C   0  0  0  0  0  0  0  0  0  0  0  0
  -19.7728    2.8386  -15.4904 N   0  0  0  0  0  0  0  0  0  0  0  0
  -20.0247    3.4263  -16.2727 H   0  0  0  0  0  0  0  0  0  0  0  0
  -20.7657    1.9875  -14.9901 C   0  0  0  0  0  0  0  0  0  0  0  0
  -21.8444    2.5197  -14.2916 C   0  0  0  0  0  0  0  0  0  0  0  0
  -22.7750    1.6757  -13.6764 C   0  0  0  0  0  0  0  0  0  0  0  0
  -22.6771    0.2783  -13.7543 C   0  0  0  0  0  0  0  0  0  0  0  0
  -21.6204   -0.2439  -14.5021 C   0  0  0  0  0  0  0  0  0  0  0  0
  -20.6784    0.5959  -15.1024 C   0  0  0  0  0  0  0  0  0  0  0  0
  -23.6344   -0.5134  -13.1534 N   0  0  0  0  0  0  0  0  0  0  0  0
  -24.7082   -1.1540  -13.9236 C   0  0  0  0  0  0  0  0  0  0  0  0
  -25.9603   -1.2656  -13.0212 C   0  0  0  0  0  0  0  0  0  0  0  0
  -25.6928   -2.0066  -11.7651 N   0  0  0  0  0  0  0  0  0  0  0  0
  -26.8910   -2.0476  -10.9313 C   0  0  0  0  0  0  0  0  0  0  0  0
  -24.5779   -1.3499  -11.0413 C   0  0  0  0  0  0  0  0  0  0  0  0
  -23.3019   -1.2233  -11.9057 C   0  0  0  0  0  0  0  0  0  0  0  0
 10 11  1  0  0  0
 11 12  1  0  0  0
 11  1  1  0  0  0
  1  2  1  0  0  0
  1  9  1  0  0  0
  2 13  1  0  0  0
  2  3  2  0  0  0
 13 15  1  0  0  0
 13 14  1  0  0  0
 15 16  1  0  0  0
 15 21  2  0  0  0
 16 17  2  0  0  0
 17 18  1  0  0  0
 18 19  1  0  0  0
 18 20  2  0  0  0
 20 21  1  0  0  0
  3  4  1  0  0  0
  4  5  1  0  0  0
  4  9  2  0  0  0
  5  6  2  0  0  0
  6  7  1  0  0  0
  7 22  1  0  0  0
  7  8  2  0  0  0
 22 24  1  0  0  0
 22 23  1  0  0  0
 24 25  1  0  0  0
 24 29  2  0  0  0
 25 26  2  0  0  0
 26 27  1  0  0  0
 27 30  1  0  0  0
 27 28  2  0  0  0
 30 31  1  0  0  0
 30 36  1  0  0  0
 31 32  1  0  0  0
 32 33  1  0  0  0
 33 34  1  0  0  0
 33 35  1  0  0  0
 35 36  1  0  0  0
 28 29  1  0  0  0
  8  9  1  0  0  0
M  END
> <minimizedAffinity>
-8.21542

$$$$
