CHEMBL3690379


 32 34  0  0  0  0  0  0  0  0999 V2000
  -22.7767    0.6873  -14.2042 C   0  0  0  0  0  0  0  0  0  0  0  0
  -22.9380    2.0647  -14.0108 C   0  0  0  0  0  0  0  0  0  0  0  0
  -21.8604    2.9333  -14.1205 C   0  0  0  0  0  0  0  0  0  0  0  0
  -20.6123    2.4433  -14.4841 C   0  0  0  0  0  0  0  0  0  0  0  0
  -20.4145    1.0809  -14.7223 C   0  0  0  0  0  0  0  0  0  0  0  0
  -21.5041    0.2071  -14.5793 C   0  0  0  0  0  0  0  0  0  0  0  0
  -26.2185   -1.6141  -10.9618 C   0  0  0  0  0  0  0  0  0  0  0  0
  -25.1104   -0.7579  -10.5907 C   0  0  0  0  0  0  0  0  0  0  0  0
  -24.2964   -0.3043  -11.5571 C   0  0  0  0  0  0  0  0  0  0  0  0
  -24.5565   -0.6169  -12.8998 N   0  0  0  0  0  0  0  0  0  0  0  0
  -23.9154   -0.2314  -14.0765 C   0  0  0  0  0  0  0  0  0  0  0  0
  -24.6234   -0.8890  -15.0725 C   0  0  0  0  0  0  0  0  0  0  0  0
  -25.6585   -1.6299  -14.5757 N   0  0  0  0  0  0  0  0  0  0  0  0
  -25.6181   -1.4426  -13.2758 C   0  0  0  0  0  0  0  0  0  0  0  0
  -26.4608   -1.9471  -12.2447 C   0  0  0  0  0  0  0  0  0  0  0  0
  -27.8474   -2.6672   -8.9096 C   0  0  0  0  0  0  0  0  0  0  0  0
  -27.0953   -2.1810   -9.8571 C   0  0  0  0  0  0  0  0  0  0  0  0
  -28.7242   -3.2341   -7.8049 C   0  0  0  0  0  0  0  0  0  0  0  0
  -29.8083   -2.7755   -5.7062 C   0  0  0  0  0  0  0  0  0  0  0  0
  -28.9053   -2.2449   -6.7282 N   0  0  0  0  0  0  0  0  0  0  0  0
  -27.6353   -1.8565   -6.1063 C   0  0  0  0  0  0  0  0  0  0  0  0
  -19.1619    0.5638  -15.1383 N   0  0  0  0  0  0  0  0  0  0  0  0
  -17.9470    0.9344  -14.6125 C   0  0  0  0  0  0  0  0  0  0  0  0
  -17.7680    1.6651  -13.6421 O   0  0  0  0  0  0  0  0  0  0  0  0
  -16.8702    0.4389  -15.3038 N   0  0  0  0  0  0  0  0  0  0  0  0
  -19.1729   -0.1817  -15.8169 H   0  0  0  0  0  0  0  0  0  0  0  0
  -16.9926   -0.4206  -15.8180 H   0  0  0  0  0  0  0  0  0  0  0  0
  -15.5267    0.7602  -14.8009 C   0  0  0  0  0  0  0  0  0  0  0  0
  -14.9435   -0.1958  -13.7480 C   0  0  0  0  0  0  0  0  0  0  0  0
  -15.1134   -1.4954  -14.0813 F   0  0  0  0  0  0  0  0  0  0  0  0
  -13.6056    0.0073  -13.6374 F   0  0  0  0  0  0  0  0  0  0  0  0
  -15.4775   -0.0009  -12.5241 F   0  0  0  0  0  0  0  0  0  0  0  0
 19 20  1  0  0  0
 20 21  1  0  0  0
 20 18  1  0  0  0
 18 16  1  0  0  0
 16 17  3  0  0  0
 17  7  1  0  0  0
  7  8  1  0  0  0
  7 15  2  0  0  0
  8  9  2  0  0  0
  9 10  1  0  0  0
 10 11  1  0  0  0
 10 14  1  0  0  0
 11  1  1  0  0  0
 11 12  2  0  0  0
  1  2  1  0  0  0
  1  6  2  0  0  0
  2  3  2  0  0  0
  3  4  1  0  0  0
  4  5  2  0  0  0
  5 22  1  0  0  0
  5  6  1  0  0  0
 22 23  1  0  0  0
 22 26  1  0  0  0
 23 24  2  0  0  0
 23 25  1  0  0  0
 25 28  1  0  0  0
 25 27  1  0  0  0
 28 29  1  0  0  0
 29 30  1  0  0  0
 29 31  1  0  0  0
 29 32  1  0  0  0
 12 13  1  0  0  0
 13 14  2  0  0  0
 14 15  1  0  0  0
M  END
> <minimizedAffinity>
-8.59995

$$$$
