CHEMBL3959341


 38 41  0  0  0  0  0  0  0  0999 V2000
  -25.4356   -1.8611  -12.0942 C   0  0  0  0  0  0  0  0  0  0  0  0
  -24.1558   -1.7544  -11.5376 C   0  0  0  0  0  0  0  0  0  0  0  0
  -23.0659   -1.3222  -12.2954 C   0  0  0  0  0  0  0  0  0  0  0  0
  -23.2435   -0.9302  -13.6198 C   0  0  0  0  0  0  0  0  0  0  0  0
  -24.5102   -1.0666  -14.1888 C   0  0  0  0  0  0  0  0  0  0  0  0
  -24.7054   -0.7509  -15.4781 F   0  0  0  0  0  0  0  0  0  0  0  0
  -25.6006   -1.5240  -13.4411 C   0  0  0  0  0  0  0  0  0  0  0  0
  -26.1322   -1.3181   -9.3348 O   0  0  0  0  0  0  0  0  0  0  0  0
  -26.8331   -2.0441  -10.0366 C   0  0  0  0  0  0  0  0  0  0  0  0
  -27.9599   -2.7031   -9.5774 N   0  0  0  0  0  0  0  0  0  0  0  0
  -26.5662   -2.3127  -11.3693 N   0  0  0  0  0  0  0  0  0  0  0  0
  -28.3587   -3.4114  -10.1736 H   0  0  0  0  0  0  0  0  0  0  0  0
  -27.2560   -2.8416  -11.8801 H   0  0  0  0  0  0  0  0  0  0  0  0
  -28.4500   -2.6419   -8.2477 C   0  0  0  0  0  0  0  0  0  0  0  0
  -29.3944   -3.5372   -7.7378 C   0  0  0  0  0  0  0  0  0  0  0  0
  -29.9057   -3.3848   -6.4512 C   0  0  0  0  0  0  0  0  0  0  0  0
  -29.4548   -2.3502   -5.6384 C   0  0  0  0  0  0  0  0  0  0  0  0
  -28.4445   -1.5040   -6.0889 C   0  0  0  0  0  0  0  0  0  0  0  0
  -27.9688   -1.6337   -7.4050 C   0  0  0  0  0  0  0  0  0  0  0  0
  -27.8855   -0.4925   -5.3690 O   0  0  0  0  0  0  0  0  0  0  0  0
  -28.5320    0.7750   -5.3306 C   0  0  0  0  0  0  0  0  0  0  0  0
  -29.8656    0.7226   -5.1354 F   0  0  0  0  0  0  0  0  0  0  0  0
  -28.0013    1.4925   -4.3133 F   0  0  0  0  0  0  0  0  0  0  0  0
  -28.2871    1.4363   -6.4827 F   0  0  0  0  0  0  0  0  0  0  0  0
  -22.2172   -0.4594  -14.4118 O   0  0  0  0  0  0  0  0  0  0  0  0
  -21.9135    0.8888  -14.3832 C   0  0  0  0  0  0  0  0  0  0  0  0
  -22.7423    1.8488  -13.8069 C   0  0  0  0  0  0  0  0  0  0  0  0
  -22.3109    3.1532  -13.8039 C   0  0  0  0  0  0  0  0  0  0  0  0
  -21.1598    3.5490  -14.3750 N   0  0  0  0  0  0  0  0  0  0  0  0
  -20.3848    2.6382  -14.9850 C   0  0  0  0  0  0  0  0  0  0  0  0
  -20.7289    1.2876  -15.0122 C   0  0  0  0  0  0  0  0  0  0  0  0
  -19.2008    3.0555  -15.6108 N   0  0  0  0  0  0  0  0  0  0  0  0
  -17.9362    2.7086  -15.1701 C   0  0  0  0  0  0  0  0  0  0  0  0
  -17.6488    2.0074  -14.2088 O   0  0  0  0  0  0  0  0  0  0  0  0
  -19.2851    3.6636  -16.4059 H   0  0  0  0  0  0  0  0  0  0  0  0
  -16.7852    3.2636  -15.9421 C   0  0  0  0  0  0  0  0  0  0  0  0
  -15.8437    2.3134  -16.6465 C   0  0  0  0  0  0  0  0  0  0  0  0
  -15.3280    3.2196  -15.5643 C   0  0  0  0  0  0  0  0  0  0  0  0
  8  9  2  0  0  0
  9 10  1  0  0  0
  9 11  1  0  0  0
 10 14  1  0  0  0
 10 12  1  0  0  0
 14 15  1  0  0  0
 14 19  2  0  0  0
 15 16  2  0  0  0
 16 17  1  0  0  0
 17 18  2  0  0  0
 18 20  1  0  0  0
 18 19  1  0  0  0
 20 21  1  0  0  0
 21 22  1  0  0  0
 21 23  1  0  0  0
 21 24  1  0  0  0
 11  1  1  0  0  0
 11 13  1  0  0  0
  1  2  1  0  0  0
  1  7  2  0  0  0
  2  3  2  0  0  0
  3  4  1  0  0  0
  4 25  1  0  0  0
  4  5  2  0  0  0
 25 26  1  0  0  0
 26 27  1  0  0  0
 26 31  2  0  0  0
 27 28  2  0  0  0
 28 29  1  0  0  0
 29 30  2  0  0  0
 30 32  1  0  0  0
 30 31  1  0  0  0
 32 33  1  0  0  0
 32 35  1  0  0  0
 33 34  2  0  0  0
 33 36  1  0  0  0
 36 37  1  0  0  0
 36 38  1  0  0  0
 37 38  1  0  0  0
  5  6  1  0  0  0
  5  7  1  0  0  0
M  END
> <minimizedAffinity>
-11.95194

$$$$
