CHEMBL509635


 36 40  0  0  0  0  0  0  0  0999 V2000
  -27.2161  -11.2639   -8.1486 C   0  0  0  0  0  0  0  0  0  0  0  0
  -26.5502  -11.8877   -7.1589 C   0  0  0  0  0  0  0  0  0  0  0  0
  -25.1832  -12.3650   -7.5627 C   0  0  0  0  0  0  0  0  0  0  0  0
  -25.0677  -11.8247   -8.8632 N   0  0  0  0  0  0  0  0  0  0  0  0
  -26.2087  -11.1745   -9.2537 C   0  0  0  0  0  0  0  0  0  0  0  0
  -26.3238  -10.5568  -10.2944 O   0  0  0  0  0  0  0  0  0  0  0  0
  -24.2178  -11.7657   -9.4057 H   0  0  0  0  0  0  0  0  0  0  0  0
  -26.7538  -12.0289   -5.7546 C   0  0  0  0  0  0  0  0  0  0  0  0
  -27.9323  -11.5518   -5.2148 C   0  0  0  0  0  0  0  0  0  0  0  0
  -27.5486  -10.7616   -4.1527 N   0  0  0  0  0  0  0  0  0  0  0  0
  -26.2455  -11.0439   -3.7980 C   0  0  0  0  0  0  0  0  0  0  0  0
  -25.4127  -10.4759   -2.8212 C   0  0  0  0  0  0  0  0  0  0  0  0
  -24.1048  -10.9536   -2.7164 C   0  0  0  0  0  0  0  0  0  0  0  0
  -23.6450  -11.9680   -3.5510 C   0  0  0  0  0  0  0  0  0  0  0  0
  -24.4528  -12.4650   -4.5809 C   0  0  0  0  0  0  0  0  0  0  0  0
  -25.7682  -11.9813   -4.7251 C   0  0  0  0  0  0  0  0  0  0  0  0
  -28.2593   -9.5462   -3.8157 C   0  0  0  0  0  0  0  0  0  0  0  0
  -28.3877   -8.5165   -4.9277 C   0  0  0  0  0  0  0  0  0  0  0  0
  -27.5316   -7.2730   -4.7995 C   0  0  0  0  0  0  0  0  0  0  0  0
  -28.3656   -6.2400   -4.2736 O   0  0  0  0  0  0  0  0  0  0  0  0
  -29.6904   -6.7653   -4.2230 C   0  0  0  0  0  0  0  0  0  0  0  0
  -30.0717   -6.9271   -2.7497 C   0  0  0  0  0  0  0  0  0  0  0  0
  -30.6662   -5.8238   -4.9135 C   0  0  0  0  0  0  0  0  0  0  0  0
  -29.7328   -8.0220   -4.9086 O   0  0  0  0  0  0  0  0  0  0  0  0
  -30.0271   -8.7055   -8.1990 C   0  0  0  0  0  0  0  0  0  0  0  0
  -28.7502   -9.2809   -8.1530 C   0  0  0  0  0  0  0  0  0  0  0  0
  -28.5579  -10.6651   -8.2098 C   0  0  0  0  0  0  0  0  0  0  0  0
  -29.6958  -11.4818   -8.3098 C   0  0  0  0  0  0  0  0  0  0  0  0
  -30.9818  -10.9379   -8.3244 C   0  0  0  0  0  0  0  0  0  0  0  0
  -31.1579   -9.5390   -8.2959 C   0  0  0  0  0  0  0  0  0  0  0  0
  -29.0544   -6.5388   -7.9924 C   0  0  0  0  0  0  0  0  0  0  0  0
  -30.2194   -7.3536   -8.0688 O   0  0  0  0  0  0  0  0  0  0  0  0
  -32.1159  -11.7099   -8.4135 O   0  0  0  0  0  0  0  0  0  0  0  0
  -32.4464  -12.4657   -7.2506 C   0  0  0  0  0  0  0  0  0  0  0  0
  -32.4617   -9.1130   -8.2997 O   0  0  0  0  0  0  0  0  0  0  0  0
  -32.9606   -8.5888   -7.0766 C   0  0  0  0  0  0  0  0  0  0  0  0
 31 32  1  0  0  0
 32 25  1  0  0  0
 25 26  1  0  0  0
 25 30  2  0  0  0
 26 27  2  0  0  0
 27  1  1  0  0  0
 27 28  1  0  0  0
  1  2  2  0  0  0
  1  5  1  0  0  0
  2  8  1  0  0  0
  2  3  1  0  0  0
  8  9  2  0  0  0
  8 16  1  0  0  0
  9 10  1  0  0  0
 10 17  1  0  0  0
 10 11  1  0  0  0
 17 18  1  0  0  0
 18 19  1  0  0  0
 18 24  1  0  0  0
 19 20  1  0  0  0
 20 21  1  0  0  0
 21 22  1  0  0  0
 21 23  1  0  0  0
 21 24  1  0  0  0
 11 12  1  0  0  0
 11 16  2  0  0  0
 12 13  2  0  0  0
 13 14  1  0  0  0
 14 15  2  0  0  0
 15 16  1  0  0  0
  3  4  1  0  0  0
  4  5  1  0  0  0
  4  7  1  0  0  0
  5  6  2  0  0  0
 28 29  2  0  0  0
 29 33  1  0  0  0
 29 30  1  0  0  0
 33 34  1  0  0  0
 30 35  1  0  0  0
 35 36  1  0  0  0
M  END
> <minimizedAffinity>
-6.71819

$$$$
