CHEMBL600604


 40 43  0  0  0  0  0  0  0  0999 V2000
  -30.1725   -6.2984   -5.7234 C   0  0  0  0  0  0  0  0  0  0  0  0
  -29.8263   -5.8054   -6.9797 C   0  0  0  0  0  0  0  0  0  0  0  0
  -29.7141   -4.4224   -7.1856 C   0  0  0  0  0  0  0  0  0  0  0  0
  -29.9360   -3.5036   -6.1482 C   0  0  0  0  0  0  0  0  0  0  0  0
  -30.3469   -4.0126   -4.9152 C   0  0  0  0  0  0  0  0  0  0  0  0
  -30.4929   -5.3867   -4.7171 C   0  0  0  0  0  0  0  0  0  0  0  0
  -30.9096   -5.8014   -3.5117 F   0  0  0  0  0  0  0  0  0  0  0  0
  -29.6054   -2.1758   -6.3642 N   0  0  0  0  0  0  0  0  0  0  0  0
  -30.3086   -1.4909   -6.0804 H   0  0  0  0  0  0  0  0  0  0  0  0
  -28.2085   -1.6566   -6.4455 C   0  0  0  0  0  0  0  0  0  0  0  0
  -27.7979   -0.8639   -5.1678 C   0  0  0  0  0  0  0  0  0  0  0  0
  -26.5295   -1.1919   -4.7983 F   0  0  0  0  0  0  0  0  0  0  0  0
  -27.8068    0.4708   -5.3715 F   0  0  0  0  0  0  0  0  0  0  0  0
  -28.5888   -1.1366   -4.1057 F   0  0  0  0  0  0  0  0  0  0  0  0
  -28.1096   -0.7621   -7.6976 C   0  0  0  0  0  0  0  0  0  0  0  0
  -27.5418   -1.5115   -8.8801 C   0  0  0  0  0  0  0  0  0  0  0  0
  -27.2056   -2.6809   -8.7568 O   0  0  0  0  0  0  0  0  0  0  0  0
  -27.4857   -0.7395  -10.0312 N   0  0  0  0  0  0  0  0  0  0  0  0
  -27.7792    0.2283   -9.9578 H   0  0  0  0  0  0  0  0  0  0  0  0
  -26.9861   -1.1388  -11.2904 C   0  0  0  0  0  0  0  0  0  0  0  0
  -25.6596   -0.9713  -11.6868 C   0  0  0  0  0  0  0  0  0  0  0  0
  -25.2427   -1.3481  -12.9658 C   0  0  0  0  0  0  0  0  0  0  0  0
  -26.1502   -1.8985  -13.8668 C   0  0  0  0  0  0  0  0  0  0  0  0
  -27.4747   -2.0881  -13.4808 C   0  0  0  0  0  0  0  0  0  0  0  0
  -27.8900   -1.7124  -12.1962 C   0  0  0  0  0  0  0  0  0  0  0  0
  -30.1862   -7.6709   -5.5811 O   0  0  0  0  0  0  0  0  0  0  0  0
  -28.5341  -10.4089   -9.4995 C   0  0  0  0  0  0  0  0  0  0  0  0
  -29.9383  -10.4458   -9.4821 C   0  0  0  0  0  0  0  0  0  0  0  0
  -30.6905   -9.8142   -8.5055 C   0  0  0  0  0  0  0  0  0  0  0  0
  -32.0275   -9.8195   -8.6329 N   0  0  0  0  0  0  0  0  0  0  0  0
  -32.7565   -9.1470   -7.7206 C   0  0  0  0  0  0  0  0  0  0  0  0
  -32.2097   -8.4568   -6.6609 C   0  0  0  0  0  0  0  0  0  0  0  0
  -30.8202   -8.4253   -6.5539 C   0  0  0  0  0  0  0  0  0  0  0  0
  -30.0236   -9.1603   -7.4574 C   0  0  0  0  0  0  0  0  0  0  0  0
  -28.6168   -9.2477   -7.3890 C   0  0  0  0  0  0  0  0  0  0  0  0
  -27.8624   -9.8490   -8.4075 C   0  0  0  0  0  0  0  0  0  0  0  0
  -27.3341   -9.9753  -11.4973 C   0  0  0  0  0  0  0  0  0  0  0  0
  -27.8262  -10.9314  -10.5515 O   0  0  0  0  0  0  0  0  0  0  0  0
  -26.5208   -9.7785   -8.1579 O   0  0  0  0  0  0  0  0  0  0  0  0
  -25.8145  -10.9431   -7.7634 C   0  0  0  0  0  0  0  0  0  0  0  0
 37 38  1  0  0  0
 38 27  1  0  0  0
 27 28  1  0  0  0
 27 36  2  0  0  0
 28 29  2  0  0  0
 29 30  1  0  0  0
 29 34  1  0  0  0
 30 31  2  0  0  0
 31 32  1  0  0  0
 32 33  2  0  0  0
 33 26  1  0  0  0
 33 34  1  0  0  0
 26  1  1  0  0  0
  1  2  1  0  0  0
  1  6  2  0  0  0
  2  3  2  0  0  0
  3  4  1  0  0  0
  4  8  1  0  0  0
  4  5  2  0  0  0
  8 10  1  0  0  0
  8  9  1  0  0  0
 10 15  1  0  0  0
 10 11  1  0  0  0
 15 16  1  0  0  0
 16 17  2  0  0  0
 16 18  1  0  0  0
 18 20  1  0  0  0
 18 19  1  0  0  0
 20 21  1  0  0  0
 20 25  2  0  0  0
 21 22  2  0  0  0
 22 23  1  0  0  0
 23 24  2  0  0  0
 24 25  1  0  0  0
 11 12  1  0  0  0
 11 13  1  0  0  0
 11 14  1  0  0  0
  5  6  1  0  0  0
  6  7  1  0  0  0
 34 35  2  0  0  0
 35 36  1  0  0  0
 36 39  1  0  0  0
 39 40  1  0  0  0
M  END
> <minimizedAffinity>
-9.14747

$$$$
