CHEMBL1981183


 17 19  0  0  0  0  0  0  0  0999 V2000
  -12.2828   -9.6894  -12.6213 C   0  0  0  0  0  0  0  0  0  0  0  0
  -13.3208   -8.6312  -12.5648 C   0  0  0  0  0  0  0  0  0  0  0  0
  -14.4465   -8.7156  -13.2931 N   0  0  0  0  0  0  0  0  0  0  0  0
  -15.1234   -7.5912  -12.9805 N   0  0  0  0  0  0  0  0  0  0  0  0
  -14.4709   -6.8014  -12.0835 C   0  0  0  0  0  0  0  0  0  0  0  0
  -13.2953   -7.4499  -11.7943 C   0  0  0  0  0  0  0  0  0  0  0  0
  -12.3243   -6.9097  -10.8695 C   0  0  0  0  0  0  0  0  0  0  0  0
  -11.2800   -7.5076  -10.6263 O   0  0  0  0  0  0  0  0  0  0  0  0
  -12.6681   -5.6695  -10.2866 N   0  0  0  0  0  0  0  0  0  0  0  0
  -11.7222   -5.0862   -9.3524 C   0  0  0  0  0  0  0  0  0  0  0  0
  -13.9058   -4.9759  -10.5816 C   0  0  0  0  0  0  0  0  0  0  0  0
  -14.2169   -3.7469   -9.9831 C   0  0  0  0  0  0  0  0  0  0  0  0
  -15.4155   -3.0910  -10.2791 C   0  0  0  0  0  0  0  0  0  0  0  0
  -16.3215   -3.6510  -11.1765 C   0  0  0  0  0  0  0  0  0  0  0  0
  -16.0372   -4.8727  -11.7866 C   0  0  0  0  0  0  0  0  0  0  0  0
  -14.8391   -5.5338  -11.4946 C   0  0  0  0  0  0  0  0  0  0  0  0
  -16.0229   -7.4384  -13.4215 H   0  0  0  0  0  0  0  0  0  0  0  0
  1  2  1  0  0  0
  2  3  2  0  0  0
  2  6  1  0  0  0
  3  4  1  0  0  0
  4  5  1  0  0  0
  4 17  1  0  0  0
  5  6  2  0  0  0
  5 16  1  0  0  0
  6  7  1  0  0  0
  7  8  2  0  0  0
  7  9  1  0  0  0
  9 10  1  0  0  0
  9 11  1  0  0  0
 11 12  1  0  0  0
 11 16  2  0  0  0
 12 13  2  0  0  0
 13 14  1  0  0  0
 14 15  2  0  0  0
 15 16  1  0  0  0
M  END
> <minimizedAffinity>
-6.88909

$$$$
