CHEMBL2011298


 31 34  0  0  0  0  0  0  0  0999 V2000
  -17.4914    4.5186  -15.6059 N   0  0  0  0  0  0  0  0  0  0  0  0
  -16.9348    3.3106  -15.9097 C   0  0  0  0  0  0  0  0  0  0  0  0
  -15.6858    3.0198  -16.4373 C   0  0  0  0  0  0  0  0  0  0  0  0
  -15.6062    1.5830  -16.4312 C   0  0  0  0  0  0  0  0  0  0  0  0
  -16.6765    1.0461  -15.8344 N   0  0  0  0  0  0  0  0  0  0  0  0
  -17.5407    2.0746  -15.6379 N   0  0  0  0  0  0  0  0  0  0  0  0
  -16.8830    5.3342  -15.5652 H   0  0  0  0  0  0  0  0  0  0  0  0
  -18.2100    4.5710  -14.8842 H   0  0  0  0  0  0  0  0  0  0  0  0
  -14.6983    4.0206  -16.8441 C   0  0  0  0  0  0  0  0  0  0  0  0
  -14.8072    4.6636  -18.0903 C   0  0  0  0  0  0  0  0  0  0  0  0
  -13.9972    5.7575  -18.4021 C   0  0  0  0  0  0  0  0  0  0  0  0
  -13.0160    6.1561  -17.5060 C   0  0  0  0  0  0  0  0  0  0  0  0
  -12.2490    7.2150  -17.7946 F   0  0  0  0  0  0  0  0  0  0  0  0
  -12.8289    5.4796  -16.3074 C   0  0  0  0  0  0  0  0  0  0  0  0
  -13.6810    4.4253  -15.9675 C   0  0  0  0  0  0  0  0  0  0  0  0
  -14.4948    0.7358  -16.9062 C   0  0  0  0  0  0  0  0  0  0  0  0
  -14.2912    0.5282  -18.2705 C   0  0  0  0  0  0  0  0  0  0  0  0
  -13.3540   -0.4156  -18.6632 C   0  0  0  0  0  0  0  0  0  0  0  0
  -12.6226   -1.1583  -17.8039 N   0  0  0  0  0  0  0  0  0  0  0  0
  -12.7865   -0.8963  -16.4936 C   0  0  0  0  0  0  0  0  0  0  0  0
  -13.6609    0.0610  -16.0092 C   0  0  0  0  0  0  0  0  0  0  0  0
  -18.8670    1.8265  -15.1745 C   0  0  0  0  0  0  0  0  0  0  0  0
  -19.4269    0.5492  -15.3301 C   0  0  0  0  0  0  0  0  0  0  0  0
  -20.7106    0.2765  -14.8354 C   0  0  0  0  0  0  0  0  0  0  0  0
  -21.4708    1.2796  -14.2153 C   0  0  0  0  0  0  0  0  0  0  0  0
  -20.9158    2.5646  -14.0972 C   0  0  0  0  0  0  0  0  0  0  0  0
  -19.6271    2.8360  -14.5708 C   0  0  0  0  0  0  0  0  0  0  0  0
  -22.8613    1.0122  -13.6944 C   0  0  0  0  0  0  0  0  0  0  0  0
  -23.6299    0.2711  -14.5387 F   0  0  0  0  0  0  0  0  0  0  0  0
  -22.8507    0.3361  -12.5112 F   0  0  0  0  0  0  0  0  0  0  0  0
  -23.5599    2.1578  -13.4603 F   0  0  0  0  0  0  0  0  0  0  0  0
  1  2  1  0  0  0
  1  7  1  0  0  0
  1  8  1  0  0  0
  2  3  2  0  0  0
  2  6  1  0  0  0
  3  9  1  0  0  0
  3  4  1  0  0  0
  9 10  1  0  0  0
  9 15  2  0  0  0
 10 11  2  0  0  0
 11 12  1  0  0  0
 12 13  1  0  0  0
 12 14  2  0  0  0
 14 15  1  0  0  0
  4 16  1  0  0  0
  4  5  2  0  0  0
 16 17  1  0  0  0
 16 21  2  0  0  0
 17 18  2  0  0  0
 18 19  1  0  0  0
 19 20  2  0  0  0
 20 21  1  0  0  0
  5  6  1  0  0  0
  6 22  1  0  0  0
 22 23  1  0  0  0
 22 27  2  0  0  0
 23 24  2  0  0  0
 24 25  1  0  0  0
 25 28  1  0  0  0
 25 26  2  0  0  0
 28 29  1  0  0  0
 28 30  1  0  0  0
 28 31  1  0  0  0
 26 27  1  0  0  0
M  END
> <minimizedAffinity>
-8.95731

$$$$
