CHEMBL3903823


 32 35  0  0  0  0  0  0  0  0999 V2000
  -16.6137    1.4020  -15.4277 N   0  0  0  0  0  0  0  0  0  0  0  0
  -17.9460    1.8768  -15.2753 C   0  0  0  0  0  0  0  0  0  0  0  0
  -18.2939    3.2127  -15.5025 C   0  0  0  0  0  0  0  0  0  0  0  0
  -19.5763    3.6786  -15.2118 C   0  0  0  0  0  0  0  0  0  0  0  0
  -20.5551    2.8278  -14.7317 C   0  0  0  0  0  0  0  0  0  0  0  0
  -21.7668    3.3313  -14.4498 N   0  0  0  0  0  0  0  0  0  0  0  0
  -22.6872    2.4447  -14.0110 C   0  0  0  0  0  0  0  0  0  0  0  0
  -22.4243    1.0914  -13.8573 C   0  0  0  0  0  0  0  0  0  0  0  0
  -21.1919    0.5879  -14.1144 N   0  0  0  0  0  0  0  0  0  0  0  0
  -20.2546    1.4564  -14.5514 C   0  0  0  0  0  0  0  0  0  0  0  0
  -18.9629    1.0168  -14.8181 C   0  0  0  0  0  0  0  0  0  0  0  0
  -23.4584    0.1611  -13.4484 C   0  0  0  0  0  0  0  0  0  0  0  0
  -24.1357   -0.8468  -14.1723 C   0  0  0  0  0  0  0  0  0  0  0  0
  -25.0106   -1.5241  -13.4276 N   0  0  0  0  0  0  0  0  0  0  0  0
  -24.8921   -0.9573  -12.2137 N   0  0  0  0  0  0  0  0  0  0  0  0
  -25.6694   -1.4577  -11.1066 C   0  0  0  0  0  0  0  0  0  0  0  0
  -23.9831    0.0596  -12.1765 C   0  0  0  0  0  0  0  0  0  0  0  0
  -14.0124    2.0052  -18.0951 C   0  0  0  0  0  0  0  0  0  0  0  0
  -13.6792    3.3357  -17.8479 C   0  0  0  0  0  0  0  0  0  0  0  0
  -14.2931    3.9932  -16.7898 C   0  0  0  0  0  0  0  0  0  0  0  0
  -14.0099    5.2982  -16.5036 O   0  0  0  0  0  0  0  0  0  0  0  0
  -15.2277    3.3456  -15.9839 C   0  0  0  0  0  0  0  0  0  0  0  0
  -15.6094    2.0122  -16.2213 C   0  0  0  0  0  0  0  0  0  0  0  0
  -14.9698    1.3608  -17.2899 C   0  0  0  0  0  0  0  0  0  0  0  0
  -13.4042    5.6484  -17.1767 H   0  0  0  0  0  0  0  0  0  0  0  0
  -13.7994   -0.1639  -19.0658 C   0  0  0  0  0  0  0  0  0  0  0  0
  -13.4861    1.2241  -19.0913 O   0  0  0  0  0  0  0  0  0  0  0  0
  -16.2652    0.1924  -14.6317 C   0  0  0  0  0  0  0  0  0  0  0  0
  -15.2278    0.5025  -13.5196 C   0  0  0  0  0  0  0  0  0  0  0  0
  -15.6065   -0.0313  -12.2061 N   0  0  0  0  0  0  0  0  0  0  0  0
  -16.3666    0.5263  -11.8176 H   0  0  0  0  0  0  0  0  0  0  0  0
  -14.8191    0.0861  -11.5677 H   0  0  0  0  0  0  0  0  0  0  0  0
 26 27  1  0  0  0
 27 18  1  0  0  0
 18 19  1  0  0  0
 18 24  2  0  0  0
 19 20  2  0  0  0
 20 21  1  0  0  0
 20 22  1  0  0  0
 21 25  1  0  0  0
 22 23  2  0  0  0
 23  1  1  0  0  0
 23 24  1  0  0  0
  1 28  1  0  0  0
  1  2  1  0  0  0
 28 29  1  0  0  0
 29 30  1  0  0  0
 30 31  1  0  0  0
 30 32  1  0  0  0
  2  3  1  0  0  0
  2 11  2  0  0  0
  3  4  2  0  0  0
  4  5  1  0  0  0
  5  6  1  0  0  0
  5 10  2  0  0  0
  6  7  2  0  0  0
  7  8  1  0  0  0
  8 12  1  0  0  0
  8  9  2  0  0  0
 12 13  1  0  0  0
 12 17  2  0  0  0
 13 14  2  0  0  0
 14 15  1  0  0  0
 15 16  1  0  0  0
 15 17  1  0  0  0
  9 10  1  0  0  0
 10 11  1  0  0  0
M  END
> <minimizedAffinity>
-8.77840

$$$$
