CHEMBL1083071


 33 39  0  0  0  0  0  0  0  0999 V2000
  -10.9138    3.5009  -16.4097 C   0  0  0  0  0  0  0  0  0  0  0  0
  -12.0474    4.0630  -15.6943 N   0  0  0  0  0  0  0  0  0  0  0  0
  -11.9597    4.2475  -14.3525 N   0  0  0  0  0  0  0  0  0  0  0  0
  -12.9470    3.4483  -13.8944 C   0  0  0  0  0  0  0  0  0  0  0  0
  -13.5721    2.7493  -14.9523 C   0  0  0  0  0  0  0  0  0  0  0  0
  -13.3106    3.6466  -15.9908 C   0  0  0  0  0  0  0  0  0  0  0  0
  -14.0639    3.8445  -17.2574 C   0  0  0  0  0  0  0  0  0  0  0  0
  -14.7292    2.5208  -17.5565 C   0  0  0  0  0  0  0  0  0  0  0  0
  -15.4225    2.0599  -16.3148 C   0  0  0  0  0  0  0  0  0  0  0  0
  -14.6671    1.8290  -15.1543 C   0  0  0  0  0  0  0  0  0  0  0  0
  -15.0925    0.6681  -14.5080 C   0  0  0  0  0  0  0  0  0  0  0  0
  -16.4739    0.2989  -14.5396 C   0  0  0  0  0  0  0  0  0  0  0  0
  -17.3037    1.3185  -15.0513 C   0  0  0  0  0  0  0  0  0  0  0  0
  -16.7189    2.2242  -15.9074 C   0  0  0  0  0  0  0  0  0  0  0  0
  -17.6340    3.2118  -16.0551 N   0  0  0  0  0  0  0  0  0  0  0  0
  -18.7723    2.8797  -15.3224 C   0  0  0  0  0  0  0  0  0  0  0  0
  -19.8946    3.6584  -15.0378 C   0  0  0  0  0  0  0  0  0  0  0  0
  -21.0364    2.9921  -14.5825 C   0  0  0  0  0  0  0  0  0  0  0  0
  -21.0432    1.6132  -14.3823 C   0  0  0  0  0  0  0  0  0  0  0  0
  -19.7977    0.9104  -14.4117 C   0  0  0  0  0  0  0  0  0  0  0  0
  -18.6534    1.5533  -14.8931 C   0  0  0  0  0  0  0  0  0  0  0  0
  -16.6984   -1.0975  -14.2066 C   0  0  0  0  0  0  0  0  0  0  0  0
  -15.3072   -1.5008  -14.0014 N   0  0  0  0  0  0  0  0  0  0  0  0
  -14.3292   -0.4988  -14.1522 C   0  0  0  0  0  0  0  0  0  0  0  0
  -13.1315   -0.7448  -14.1317 O   0  0  0  0  0  0  0  0  0  0  0  0
  -17.4627    4.1017  -16.4804 H   0  0  0  0  0  0  0  0  0  0  0  0
  -15.0054   -2.4647  -14.0654 H   0  0  0  0  0  0  0  0  0  0  0  0
  -22.3063    0.7663  -14.3868 C   0  0  0  0  0  0  0  0  0  0  0  0
  -23.6656    1.3524  -13.9461 C   0  0  0  0  0  0  0  0  0  0  0  0
  -24.0829    1.0683  -12.5009 C   0  0  0  0  0  0  0  0  0  0  0  0
  -23.5258   -0.2359  -11.9433 C   0  0  0  0  0  0  0  0  0  0  0  0
  -22.0748   -0.3877  -12.3381 C   0  0  0  0  0  0  0  0  0  0  0  0
  -22.0433   -0.4897  -13.7579 O   0  0  0  0  0  0  0  0  0  0  0  0
  1  2  1  0  0  0
  2  3  1  0  0  0
  2  6  1  0  0  0
  3  4  2  0  0  0
  4  5  1  0  0  0
  5  6  2  0  0  0
  5 10  1  0  0  0
  6  7  1  0  0  0
  7  8  1  0  0  0
  8  9  1  0  0  0
  9 10  1  0  0  0
  9 14  2  0  0  0
 10 11  2  0  0  0
 11 12  1  0  0  0
 11 24  1  0  0  0
 12 13  2  0  0  0
 12 22  1  0  0  0
 13 14  1  0  0  0
 13 21  1  0  0  0
 14 15  1  0  0  0
 15 16  1  0  0  0
 15 26  1  0  0  0
 16 17  1  0  0  0
 16 21  2  0  0  0
 17 18  2  0  0  0
 18 19  1  0  0  0
 19 28  1  0  0  0
 19 20  2  0  0  0
 28 29  1  0  0  0
 28 33  1  0  0  0
 29 30  1  0  0  0
 30 31  1  0  0  0
 31 32  1  0  0  0
 32 33  1  0  0  0
 20 21  1  0  0  0
 22 23  1  0  0  0
 23 24  1  0  0  0
 23 27  1  0  0  0
 24 25  2  0  0  0
M  END
> <minimizedAffinity>
-8.54113

$$$$
