CHEMBL3759798


 31 33  0  0  0  0  0  0  0  0999 V2000
  -17.6885    2.5983  -15.1733 C   0  0  0  0  0  0  0  0  0  0  0  0
  -18.8020    3.4236  -14.9797 C   0  0  0  0  0  0  0  0  0  0  0  0
  -20.0661    2.9168  -14.7174 C   0  0  0  0  0  0  0  0  0  0  0  0
  -21.0733    3.7846  -14.5908 N   0  0  0  0  0  0  0  0  0  0  0  0
  -22.2794    3.2697  -14.3419 C   0  0  0  0  0  0  0  0  0  0  0  0
  -22.5558    1.9773  -14.1756 N   0  0  0  0  0  0  0  0  0  0  0  0
  -21.5297    1.1097  -14.2804 C   0  0  0  0  0  0  0  0  0  0  0  0
  -20.2287    1.5329  -14.5973 C   0  0  0  0  0  0  0  0  0  0  0  0
  -19.1138    0.6825  -14.7885 C   0  0  0  0  0  0  0  0  0  0  0  0
  -17.8459    1.2092  -15.0404 C   0  0  0  0  0  0  0  0  0  0  0  0
  -16.3200    4.3976  -16.0043 C   0  0  0  0  0  0  0  0  0  0  0  0
  -16.4499    3.0738  -15.5005 O   0  0  0  0  0  0  0  0  0  0  0  0
  -21.7761   -0.2689  -14.0268 N   0  0  0  0  0  0  0  0  0  0  0  0
  -20.9275   -0.6897  -13.6629 H   0  0  0  0  0  0  0  0  0  0  0  0
  -22.9276   -0.7461  -13.3602 C   0  0  0  0  0  0  0  0  0  0  0  0
  -22.8775   -1.0643  -11.9940 C   0  0  0  0  0  0  0  0  0  0  0  0
  -23.9842   -1.6102  -11.3471 C   0  0  0  0  0  0  0  0  0  0  0  0
  -25.1511   -1.8281  -12.0650 C   0  0  0  0  0  0  0  0  0  0  0  0
  -26.2069   -2.3809  -11.4549 F   0  0  0  0  0  0  0  0  0  0  0  0
  -25.2369   -1.4902  -13.4111 C   0  0  0  0  0  0  0  0  0  0  0  0
  -24.1272   -0.9411  -14.0588 C   0  0  0  0  0  0  0  0  0  0  0  0
  -16.8544    0.2630  -15.1746 O   0  0  0  0  0  0  0  0  0  0  0  0
  -16.0872    0.0754  -13.9854 C   0  0  0  0  0  0  0  0  0  0  0  0
  -15.1185   -1.0977  -14.1367 C   0  0  0  0  0  0  0  0  0  0  0  0
  -15.7024   -2.3019  -13.4030 C   0  0  0  0  0  0  0  0  0  0  0  0
  -15.1438   -3.6360  -13.8392 C   0  0  0  0  0  0  0  0  0  0  0  0
  -15.2900   -4.6955  -13.2397 O   0  0  0  0  0  0  0  0  0  0  0  0
  -14.4375   -3.5414  -15.0220 N   0  0  0  0  0  0  0  0  0  0  0  0
  -13.8009   -4.7182  -15.4707 O   0  0  0  0  0  0  0  0  0  0  0  0
  -14.0890   -2.6646  -15.3898 H   0  0  0  0  0  0  0  0  0  0  0  0
  -14.0848   -5.3791  -14.8020 H   0  0  0  0  0  0  0  0  0  0  0  0
 11 12  1  0  0  0
 12  1  1  0  0  0
  1  2  1  0  0  0
  1 10  2  0  0  0
  2  3  2  0  0  0
  3  4  1  0  0  0
  3  8  1  0  0  0
  4  5  2  0  0  0
  5  6  1  0  0  0
  6  7  2  0  0  0
  7 13  1  0  0  0
  7  8  1  0  0  0
 13 15  1  0  0  0
 13 14  1  0  0  0
 15 16  1  0  0  0
 15 21  2  0  0  0
 16 17  2  0  0  0
 17 18  1  0  0  0
 18 19  1  0  0  0
 18 20  2  0  0  0
 20 21  1  0  0  0
  8  9  2  0  0  0
  9 10  1  0  0  0
 10 22  1  0  0  0
 22 23  1  0  0  0
 23 24  1  0  0  0
 24 25  1  0  0  0
 25 26  1  0  0  0
 26 27  2  0  0  0
 26 28  1  0  0  0
 28 29  1  0  0  0
 28 30  1  0  0  0
 29 31  1  0  0  0
M  END
> <minimizedAffinity>
-8.23353

$$$$
