CHEMBL478611


 29 31  0  0  0  0  0  0  0  0999 V2000
  -30.2675   -4.1746   -3.8276 C   0  0  0  0  0  0  0  0  0  0  0  0
  -30.0096   -3.2554   -2.7516 O   0  0  0  0  0  0  0  0  0  0  0  0
  -31.5033   -5.0304   -3.4463 C   0  0  0  0  0  0  0  0  0  0  0  0
  -31.8136   -6.0973   -4.3564 O   0  0  0  0  0  0  0  0  0  0  0  0
  -30.8000   -6.5973   -5.1341 C   0  0  0  0  0  0  0  0  0  0  0  0
  -29.4617   -6.1924   -5.0004 C   0  0  0  0  0  0  0  0  0  0  0  0
  -28.4963   -6.6697   -5.9028 C   0  0  0  0  0  0  0  0  0  0  0  0
  -28.8566   -7.5306   -6.9405 C   0  0  0  0  0  0  0  0  0  0  0  0
  -30.1811   -7.9284   -7.0616 C   0  0  0  0  0  0  0  0  0  0  0  0
  -30.5920   -8.7492   -8.0768 O   0  0  0  0  0  0  0  0  0  0  0  0
  -31.1463   -7.4748   -6.1626 C   0  0  0  0  0  0  0  0  0  0  0  0
  -32.4462   -7.8705   -6.3363 O   0  0  0  0  0  0  0  0  0  0  0  0
  -29.1369   -5.2199   -3.9065 C   0  0  0  0  0  0  0  0  0  0  0  0
  -27.8533   -4.6155   -4.0278 O   0  0  0  0  0  0  0  0  0  0  0  0
  -29.0970   -2.9389   -2.8855 H   0  0  0  0  0  0  0  0  0  0  0  0
  -29.8292   -8.9182   -8.6567 H   0  0  0  0  0  0  0  0  0  0  0  0
  -32.4246   -8.4535   -7.1197 H   0  0  0  0  0  0  0  0  0  0  0  0
  -27.2100   -5.2849   -3.7330 H   0  0  0  0  0  0  0  0  0  0  0  0
  -30.6338   -3.3713   -5.1166 C   0  0  0  0  0  0  0  0  0  0  0  0
  -26.8349   -1.4467   -8.8989 O   0  0  0  0  0  0  0  0  0  0  0  0
  -27.7687   -1.9309   -8.0271 C   0  0  0  0  0  0  0  0  0  0  0  0
  -28.4218   -3.1353   -8.2814 C   0  0  0  0  0  0  0  0  0  0  0  0
  -29.3638   -3.6365   -7.3690 C   0  0  0  0  0  0  0  0  0  0  0  0
  -29.6807   -2.9284   -6.2074 C   0  0  0  0  0  0  0  0  0  0  0  0
  -29.0017   -1.7096   -5.9714 C   0  0  0  0  0  0  0  0  0  0  0  0
  -28.0595   -1.2175   -6.8716 C   0  0  0  0  0  0  0  0  0  0  0  0
  -27.4092   -0.0425   -6.6173 O   0  0  0  0  0  0  0  0  0  0  0  0
  -26.6930   -2.0977   -9.6020 H   0  0  0  0  0  0  0  0  0  0  0  0
  -27.7209    0.3103   -5.7702 H   0  0  0  0  0  0  0  0  0  0  0  0
 20 21  1  0  0  0
 20 28  1  0  0  0
 21 22  1  0  0  0
 21 26  2  0  0  0
 22 23  2  0  0  0
 23 24  1  0  0  0
 24 19  1  0  0  0
 24 25  2  0  0  0
 19  1  1  0  0  0
  1  2  1  0  0  0
  1  3  1  0  0  0
  1 13  1  0  0  0
  2 15  1  0  0  0
  3  4  1  0  0  0
  4  5  1  0  0  0
  5  6  1  0  0  0
  5 11  2  0  0  0
  6  7  2  0  0  0
  6 13  1  0  0  0
  7  8  1  0  0  0
  8  9  2  0  0  0
  9 10  1  0  0  0
  9 11  1  0  0  0
 10 16  1  0  0  0
 11 12  1  0  0  0
 12 17  1  0  0  0
 13 14  1  0  0  0
 14 18  1  0  0  0
 25 26  1  0  0  0
 26 27  1  0  0  0
 27 29  1  0  0  0
M  END
> <minimizedAffinity>
-9.19054

$$$$
