CHEMBL245376


 29 31  0  0  0  0  0  0  0  0999 V2000
  -28.3145   -2.6859   -7.4196 C   0  0  0  0  0  0  0  0  0  0  0  0
  -28.4477   -1.5935   -6.5984 C   0  0  0  0  0  0  0  0  0  0  0  0
  -29.1642   -2.0283   -5.5200 N   0  0  0  0  0  0  0  0  0  0  0  0
  -29.5185   -3.3268   -5.5869 N   0  0  0  0  0  0  0  0  0  0  0  0
  -28.9697   -3.7426   -6.7396 C   0  0  0  0  0  0  0  0  0  0  0  0
  -29.4606   -1.4892   -4.7123 H   0  0  0  0  0  0  0  0  0  0  0  0
  -29.0615   -5.1573   -7.2004 C   0  0  0  0  0  0  0  0  0  0  0  0
  -30.0508   -5.9818   -6.9313 N   0  0  0  0  0  0  0  0  0  0  0  0
  -29.7800   -7.1591   -7.6083 C   0  0  0  0  0  0  0  0  0  0  0  0
  -28.5510   -7.0435   -8.2403 C   0  0  0  0  0  0  0  0  0  0  0  0
  -28.1254   -5.7657   -7.9968 N   0  0  0  0  0  0  0  0  0  0  0  0
  -27.2844   -5.3121   -8.3239 H   0  0  0  0  0  0  0  0  0  0  0  0
  -30.7406   -8.3112   -7.6143 C   0  0  0  0  0  0  0  0  0  0  0  0
  -30.5749   -9.1527   -6.5606 F   0  0  0  0  0  0  0  0  0  0  0  0
  -32.0330   -7.8842   -7.5700 F   0  0  0  0  0  0  0  0  0  0  0  0
  -30.6226   -9.0648   -8.7407 F   0  0  0  0  0  0  0  0  0  0  0  0
  -27.4852   -1.5969   -9.4550 C   0  0  0  0  0  0  0  0  0  0  0  0
  -27.7328   -2.6910   -8.7171 C   0  0  0  0  0  0  0  0  0  0  0  0
  -24.8056   -1.6855  -12.1544 C   0  0  0  0  0  0  0  0  0  0  0  0
  -25.6490   -1.7957  -13.2539 C   0  0  0  0  0  0  0  0  0  0  0  0
  -26.9984   -1.8165  -13.1768 N   0  0  0  0  0  0  0  0  0  0  0  0
  -27.5371   -1.7307  -11.9354 C   0  0  0  0  0  0  0  0  0  0  0  0
  -26.8016   -1.6230  -10.7577 C   0  0  0  0  0  0  0  0  0  0  0  0
  -25.4093   -1.5967  -10.8908 C   0  0  0  0  0  0  0  0  0  0  0  0
  -23.3091   -1.6456  -12.3224 C   0  0  0  0  0  0  0  0  0  0  0  0
  -22.9326   -1.0256  -13.5924 N   0  0  0  0  0  0  0  0  0  0  0  0
  -22.1501   -1.5342  -13.9993 H   0  0  0  0  0  0  0  0  0  0  0  0
  -21.4059    0.6979  -14.3610 C   0  0  0  0  0  0  0  0  0  0  0  0
  -22.5603    0.3756  -13.4236 C   0  0  0  0  0  0  0  0  0  0  0  0
 28 29  1  0  0  0
 29 26  1  0  0  0
 26 25  1  0  0  0
 26 27  1  0  0  0
 25 19  1  0  0  0
 19 20  1  0  0  0
 19 24  2  0  0  0
 20 21  2  0  0  0
 21 22  1  0  0  0
 22 23  2  0  0  0
 23 17  1  0  0  0
 23 24  1  0  0  0
 17 18  2  0  0  0
 18  1  1  0  0  0
  1  2  2  0  0  0
  1  5  1  0  0  0
  2  3  1  0  0  0
  3  4  1  0  0  0
  3  6  1  0  0  0
  4  5  2  0  0  0
  5  7  1  0  0  0
  7  8  2  0  0  0
  7 11  1  0  0  0
  8  9  1  0  0  0
  9 13  1  0  0  0
  9 10  2  0  0  0
 13 14  1  0  0  0
 13 15  1  0  0  0
 13 16  1  0  0  0
 10 11  1  0  0  0
 11 12  1  0  0  0
M  END
> <minimizedAffinity>
-8.42733

$$$$
