CHEMBL3904777


 39 43  0  0  0  0  0  0  0  0999 V2000
  -27.8933   -2.3027   -8.8292 N   0  0  0  0  0  0  0  0  0  0  0  0
  -28.4041   -3.5786   -8.3800 C   0  0  0  0  0  0  0  0  0  0  0  0
  -29.7675   -3.6336   -8.2476 C   0  0  0  0  0  0  0  0  0  0  0  0
  -30.3533   -4.6725   -7.6056 C   0  0  0  0  0  0  0  0  0  0  0  0
  -29.7209   -5.7174   -7.0867 C   0  0  0  0  0  0  0  0  0  0  0  0
  -30.6263   -6.1966   -6.2981 N   0  0  0  0  0  0  0  0  0  0  0  0
  -30.7596   -7.5019   -6.3061 C   0  0  0  0  0  0  0  0  0  0  0  0
  -29.8801   -8.3877   -6.8187 C   0  0  0  0  0  0  0  0  0  0  0  0
  -28.6740   -7.8071   -7.3452 N   0  0  0  0  0  0  0  0  0  0  0  0
  -28.5524   -6.2329   -7.5596 C   0  0  0  0  0  0  0  0  0  0  0  0
  -27.7710   -4.8856   -8.0574 C   0  0  0  0  0  0  0  0  0  0  0  0
  -30.5562   -9.7865   -6.7677 C   0  0  0  0  0  0  0  0  0  0  0  0
  -30.3137  -11.0397   -6.1150 C   0  0  0  0  0  0  0  0  0  0  0  0
  -31.3854  -11.8563   -6.0164 N   0  0  0  0  0  0  0  0  0  0  0  0
  -32.3967  -11.1578   -6.5522 N   0  0  0  0  0  0  0  0  0  0  0  0
  -33.7675  -11.6604   -6.5510 C   0  0  0  0  0  0  0  0  0  0  0  0
  -31.9497   -9.9460   -7.0279 C   0  0  0  0  0  0  0  0  0  0  0  0
  -27.2817   -1.9238  -10.0739 C   0  0  0  0  0  0  0  0  0  0  0  0
  -25.9696   -1.4595  -10.1046 C   0  0  0  0  0  0  0  0  0  0  0  0
  -25.3539   -1.0899  -11.3098 C   0  0  0  0  0  0  0  0  0  0  0  0
  -26.0359   -1.2093  -12.5204 C   0  0  0  0  0  0  0  0  0  0  0  0
  -27.3438   -1.6660  -12.5328 C   0  0  0  0  0  0  0  0  0  0  0  0
  -27.9780   -1.9469  -11.3131 C   0  0  0  0  0  0  0  0  0  0  0  0
  -24.0733   -0.6194  -11.4303 O   0  0  0  0  0  0  0  0  0  0  0  0
  -23.0994   -1.5956  -11.7728 C   0  0  0  0  0  0  0  0  0  0  0  0
  -28.0777   -1.8971  -13.6666 O   0  0  0  0  0  0  0  0  0  0  0  0
  -27.4093   -1.6467  -14.9041 C   0  0  0  0  0  0  0  0  0  0  0  0
  -27.4979   -1.2640   -7.7454 C   0  0  0  0  0  0  0  0  0  0  0  0
  -28.5862   -2.3454   -4.5058 N   0  0  0  0  0  0  0  0  0  0  0  0
  -27.5679   -2.2136   -5.3860 C   0  0  0  0  0  0  0  0  0  0  0  0
  -28.1169   -1.4945   -6.4151 C   0  0  0  0  0  0  0  0  0  0  0  0
  -29.3801   -1.0904   -6.0650 N   0  0  0  0  0  0  0  0  0  0  0  0
  -29.6490   -1.6009   -4.8650 N   0  0  0  0  0  0  0  0  0  0  0  0
  -28.5991   -3.2216   -3.3620 C   0  0  0  0  0  0  0  0  0  0  0  0
  -28.5723   -4.7003   -3.7060 C   0  0  0  0  0  0  0  0  0  0  0  0
  -27.6242   -5.2259   -4.2295 O   0  0  0  0  0  0  0  0  0  0  0  0
  -29.7702   -5.3216   -3.4444 O   0  0  0  0  0  0  0  0  0  0  0  0
  -32.1999   -5.1989   -3.0395 C   0  0  0  0  0  0  0  0  0  0  0  0
  -30.9270   -4.4712   -3.4246 C   0  0  0  0  0  0  0  0  0  0  0  0
 38 39  1  0  0  0
 39 37  1  0  0  0
 37 35  1  0  0  0
 35 36  2  0  0  0
 35 34  1  0  0  0
 34 29  1  0  0  0
 29 30  1  0  0  0
 29 33  1  0  0  0
 30 31  2  0  0  0
 31 28  1  0  0  0
 31 32  1  0  0  0
 28  1  1  0  0  0
  1 18  1  0  0  0
  1  2  1  0  0  0
 18 19  1  0  0  0
 18 23  2  0  0  0
 19 20  2  0  0  0
 20 24  1  0  0  0
 20 21  1  0  0  0
 24 25  1  0  0  0
 21 22  2  0  0  0
 22 26  1  0  0  0
 22 23  1  0  0  0
 26 27  1  0  0  0
  2  3  1  0  0  0
  2 11  2  0  0  0
  3  4  2  0  0  0
  4  5  1  0  0  0
  5  6  1  0  0  0
  5 10  2  0  0  0
  6  7  2  0  0  0
  7  8  1  0  0  0
  8 12  1  0  0  0
  8  9  2  0  0  0
 12 13  1  0  0  0
 12 17  2  0  0  0
 13 14  2  0  0  0
 14 15  1  0  0  0
 15 16  1  0  0  0
 15 17  1  0  0  0
  9 10  1  0  0  0
 10 11  1  0  0  0
 32 33  2  0  0  0
M  END
> <minimizedAffinity>
-7.67137

$$$$
