CHEMBL3912250


 38 42  0  0  0  0  0  0  0  0999 V2000
  -27.9785   -2.4477   -8.3959 N   0  0  0  0  0  0  0  0  0  0  0  0
  -27.3814   -2.1272   -9.6357 C   0  0  0  0  0  0  0  0  0  0  0  0
  -26.0928   -1.5096   -9.4684 C   0  0  0  0  0  0  0  0  0  0  0  0
  -25.3627   -1.1972  -10.5725 C   0  0  0  0  0  0  0  0  0  0  0  0
  -25.8485   -1.3698  -11.7414 C   0  0  0  0  0  0  0  0  0  0  0  0
  -25.3289   -0.4423  -12.4654 N   0  0  0  0  0  0  0  0  0  0  0  0
  -24.1496   -0.4676  -12.9579 C   0  0  0  0  0  0  0  0  0  0  0  0
  -24.4623   -0.6858  -14.2667 C   0  0  0  0  0  0  0  0  0  0  0  0
  -25.9430   -1.5592  -13.9232 N   0  0  0  0  0  0  0  0  0  0  0  0
  -26.8695   -1.8998  -12.4516 C   0  0  0  0  0  0  0  0  0  0  0  0
  -27.7945   -2.2406  -10.9225 C   0  0  0  0  0  0  0  0  0  0  0  0
  -22.8979    0.3823  -14.3383 C   0  0  0  0  0  0  0  0  0  0  0  0
  -22.3592    1.9536  -14.0053 C   0  0  0  0  0  0  0  0  0  0  0  0
  -21.0524    2.3730  -14.1299 N   0  0  0  0  0  0  0  0  0  0  0  0
  -20.3806    1.2973  -14.5368 N   0  0  0  0  0  0  0  0  0  0  0  0
  -18.8713    1.3137  -14.6432 C   0  0  0  0  0  0  0  0  0  0  0  0
  -21.3838    0.1810  -14.7146 C   0  0  0  0  0  0  0  0  0  0  0  0
  -28.7739    0.5506   -6.2268 C   0  0  0  0  0  0  0  0  0  0  0  0
  -28.5718   -0.0106   -5.0217 C   0  0  0  0  0  0  0  0  0  0  0  0
  -28.1168   -1.3176   -4.8792 C   0  0  0  0  0  0  0  0  0  0  0  0
  -27.8202   -2.0782   -5.9963 C   0  0  0  0  0  0  0  0  0  0  0  0
  -28.0792   -1.5931   -7.2610 C   0  0  0  0  0  0  0  0  0  0  0  0
  -28.3919   -0.2202   -7.2703 C   0  0  0  0  0  0  0  0  0  0  0  0
  -30.8390    1.6600   -6.4027 C   0  0  0  0  0  0  0  0  0  0  0  0
  -29.4279    1.7091   -6.5067 O   0  0  0  0  0  0  0  0  0  0  0  0
  -27.9910   -1.9265   -3.6646 O   0  0  0  0  0  0  0  0  0  0  0  0
  -29.1155   -2.7042   -3.2537 C   0  0  0  0  0  0  0  0  0  0  0  0
  -28.2923   -3.8899   -8.2790 C   0  0  0  0  0  0  0  0  0  0  0  0
  -29.7302   -4.1676   -7.9679 C   0  0  0  0  0  0  0  0  0  0  0  0
  -30.0463   -4.9959   -6.7967 C   0  0  0  0  0  0  0  0  0  0  0  0
  -29.4295   -6.3677   -6.8857 C   0  0  0  0  0  0  0  0  0  0  0  0
  -29.4708   -7.0529   -8.0675 N   0  0  0  0  0  0  0  0  0  0  0  0
  -28.9312   -8.2841   -8.0807 C   0  0  0  0  0  0  0  0  0  0  0  0
  -28.3573   -8.8623   -6.9686 C   0  0  0  0  0  0  0  0  0  0  0  0
  -28.3447   -8.1540   -5.7751 C   0  0  0  0  0  0  0  0  0  0  0  0
  -28.8868   -6.8858   -5.7126 C   0  0  0  0  0  0  0  0  0  0  0  0
  -28.9305   -6.1064   -4.5883 O   0  0  0  0  0  0  0  0  0  0  0  0
  -29.6350   -6.6256   -3.4658 C   0  0  0  0  0  0  0  0  0  0  0  0
 24 25  1  0  0  0
 25 18  1  0  0  0
 18 19  1  0  0  0
 18 23  2  0  0  0
 19 20  2  0  0  0
 20 26  1  0  0  0
 20 21  1  0  0  0
 26 27  1  0  0  0
 21 22  2  0  0  0
 22  1  1  0  0  0
 22 23  1  0  0  0
  1 28  1  0  0  0
  1  2  1  0  0  0
 28 29  1  0  0  0
 29 30  1  0  0  0
 30 31  1  0  0  0
 31 32  1  0  0  0
 31 36  2  0  0  0
 32 33  2  0  0  0
 33 34  1  0  0  0
 34 35  2  0  0  0
 35 36  1  0  0  0
 36 37  1  0  0  0
 37 38  1  0  0  0
  2  3  1  0  0  0
  2 11  2  0  0  0
  3  4  2  0  0  0
  4  5  1  0  0  0
  5  6  1  0  0  0
  5 10  2  0  0  0
  6  7  2  0  0  0
  7  8  1  0  0  0
  8 12  1  0  0  0
  8  9  2  0  0  0
 12 13  1  0  0  0
 12 17  2  0  0  0
 13 14  2  0  0  0
 14 15  1  0  0  0
 15 16  1  0  0  0
 15 17  1  0  0  0
  9 10  1  0  0  0
 10 11  1  0  0  0
M  END
> <minimizedAffinity>
-8.97365

$$$$
