CHEMBL4209229


 38 40  0  0  0  0  0  0  0  0999 V2000
  -15.5573   -2.0929  -12.0842 C   0  0  0  0  0  0  0  0  0  0  0  0
  -14.1053   -5.1171  -14.8339 C   0  0  0  0  0  0  0  0  0  0  0  0
  -13.3583   -3.9525  -14.6124 C   0  0  0  0  0  0  0  0  0  0  0  0
  -13.8071   -2.9785  -13.7035 C   0  0  0  0  0  0  0  0  0  0  0  0
  -15.0035   -3.1611  -12.9942 C   0  0  0  0  0  0  0  0  0  0  0  0
  -15.7191   -4.3427  -13.2090 C   0  0  0  0  0  0  0  0  0  0  0  0
  -16.8583   -4.5603  -12.5341 F   0  0  0  0  0  0  0  0  0  0  0  0
  -15.2894   -5.3089  -14.1159 C   0  0  0  0  0  0  0  0  0  0  0  0
  -13.0775   -7.4353  -15.3990 C   0  0  0  0  0  0  0  0  0  0  0  0
  -12.7581   -8.3547  -16.3314 C   0  0  0  0  0  0  0  0  0  0  0  0
  -12.9973   -8.0738  -17.7697 C   0  0  0  0  0  0  0  0  0  0  0  0
  -12.7257   -8.9032  -18.6241 O   0  0  0  0  0  0  0  0  0  0  0  0
  -13.5345   -6.8482  -18.0560 N   0  0  0  0  0  0  0  0  0  0  0  0
  -13.8634   -5.9102  -17.1052 C   0  0  0  0  0  0  0  0  0  0  0  0
  -13.6595   -6.1506  -15.7951 C   0  0  0  0  0  0  0  0  0  0  0  0
  -13.7013   -6.6636  -19.0385 H   0  0  0  0  0  0  0  0  0  0  0  0
  -12.9192   -7.5798  -14.0363 O   0  0  0  0  0  0  0  0  0  0  0  0
  -13.6471   -8.4247  -11.9227 C   0  0  0  0  0  0  0  0  0  0  0  0
  -13.5681   -8.6877  -13.4135 C   0  0  0  0  0  0  0  0  0  0  0  0
  -15.7136   -0.7298  -12.7279 C   0  0  0  0  0  0  0  0  0  0  0  0
  -15.2838    0.2891  -12.1873 O   0  0  0  0  0  0  0  0  0  0  0  0
  -16.3972   -0.7557  -13.9351 N   0  0  0  0  0  0  0  0  0  0  0  0
  -17.1054   -1.4820  -14.0004 H   0  0  0  0  0  0  0  0  0  0  0  0
  -16.6997    0.4466  -14.6115 C   0  0  0  0  0  0  0  0  0  0  0  0
  -17.9742    1.0183  -14.5573 C   0  0  0  0  0  0  0  0  0  0  0  0
  -18.2394    2.2188  -15.2384 C   0  0  0  0  0  0  0  0  0  0  0  0
  -17.2338    2.7780  -16.0498 C   0  0  0  0  0  0  0  0  0  0  0  0
  -15.9580    2.1932  -16.1312 C   0  0  0  0  0  0  0  0  0  0  0  0
  -15.6934    1.0627  -15.3559 C   0  0  0  0  0  0  0  0  0  0  0  0
  -14.4713    0.5058  -15.3766 F   0  0  0  0  0  0  0  0  0  0  0  0
  -19.5709    2.9191  -15.0919 C   0  0  0  0  0  0  0  0  0  0  0  0
  -20.0365    2.9468  -13.8118 F   0  0  0  0  0  0  0  0  0  0  0  0
  -19.5095    4.2225  -15.4868 F   0  0  0  0  0  0  0  0  0  0  0  0
  -20.5552    2.3487  -15.8381 F   0  0  0  0  0  0  0  0  0  0  0  0
  -14.9104    2.7162  -17.0875 C   0  0  0  0  0  0  0  0  0  0  0  0
  -14.5594    4.1304  -16.8809 N   0  0  0  0  0  0  0  0  0  0  0  0
  -13.8763    4.3374  -15.6010 C   0  0  0  0  0  0  0  0  0  0  0  0
  -13.6864    4.5843  -17.9702 C   0  0  0  0  0  0  0  0  0  0  0  0
 18 19  1  0  0  0
 19 17  1  0  0  0
 17  9  1  0  0  0
  9 10  2  0  0  0
  9 15  1  0  0  0
 10 11  1  0  0  0
 11 12  2  0  0  0
 11 13  1  0  0  0
 13 14  1  0  0  0
 13 16  1  0  0  0
 14 15  2  0  0  0
 15  2  1  0  0  0
  2  3  1  0  0  0
  2  8  2  0  0  0
  3  4  2  0  0  0
  4  5  1  0  0  0
  5  1  1  0  0  0
  5  6  2  0  0  0
  1 20  1  0  0  0
 20 21  2  0  0  0
 20 22  1  0  0  0
 22 24  1  0  0  0
 22 23  1  0  0  0
 24 25  1  0  0  0
 24 29  2  0  0  0
 25 26  2  0  0  0
 26 31  1  0  0  0
 26 27  1  0  0  0
 31 32  1  0  0  0
 31 33  1  0  0  0
 31 34  1  0  0  0
 27 28  2  0  0  0
 28 35  1  0  0  0
 28 29  1  0  0  0
 35 36  1  0  0  0
 36 37  1  0  0  0
 36 38  1  0  0  0
 29 30  1  0  0  0
  6  7  1  0  0  0
  6  8  1  0  0  0
M  END
> <minimizedAffinity>
-8.20878

$$$$
