CHEMBL3971428


 42 46  0  0  0  0  0  0  0  0999 V2000
  -13.3764   -2.9005  -15.7202 N   0  0  0  0  0  0  0  0  0  0  0  0
  -13.1949   -3.7435  -16.7934 C   0  0  0  0  0  0  0  0  0  0  0  0
  -13.2542   -4.9699  -16.7711 O   0  0  0  0  0  0  0  0  0  0  0  0
  -13.0229   -3.1199  -18.0140 N   0  0  0  0  0  0  0  0  0  0  0  0
  -13.3105   -1.9141  -15.9072 H   0  0  0  0  0  0  0  0  0  0  0  0
  -13.3183   -3.7184  -18.7764 H   0  0  0  0  0  0  0  0  0  0  0  0
  -13.3691   -3.2090  -12.0181 C   0  0  0  0  0  0  0  0  0  0  0  0
  -12.9760   -2.8317  -13.2998 C   0  0  0  0  0  0  0  0  0  0  0  0
  -13.7248   -3.2214  -14.4017 C   0  0  0  0  0  0  0  0  0  0  0  0
  -14.8647   -4.0206  -14.2135 C   0  0  0  0  0  0  0  0  0  0  0  0
  -15.2695   -4.4022  -12.9253 C   0  0  0  0  0  0  0  0  0  0  0  0
  -14.5120   -3.9788  -11.8244 C   0  0  0  0  0  0  0  0  0  0  0  0
  -16.4793   -5.2717  -12.7000 C   0  0  0  0  0  0  0  0  0  0  0  0
  -17.1037   -5.0466  -11.5112 F   0  0  0  0  0  0  0  0  0  0  0  0
  -17.4294   -5.0921  -13.6599 F   0  0  0  0  0  0  0  0  0  0  0  0
  -16.1772   -6.5996  -12.7197 F   0  0  0  0  0  0  0  0  0  0  0  0
  -12.5266   -2.8241  -11.0101 O   0  0  0  0  0  0  0  0  0  0  0  0
  -10.7949   -3.2126   -7.0102 C   0  0  0  0  0  0  0  0  0  0  0  0
  -11.3471   -2.8368   -8.3024 N   0  0  0  0  0  0  0  0  0  0  0  0
  -12.6756   -3.4557   -8.5185 C   0  0  0  0  0  0  0  0  0  0  0  0
  -12.2312   -3.7838   -9.9686 C   0  0  0  0  0  0  0  0  0  0  0  0
  -10.7991   -3.6854   -9.3862 C   0  0  0  0  0  0  0  0  0  0  0  0
  -12.8999   -1.7427  -18.2384 C   0  0  0  0  0  0  0  0  0  0  0  0
  -11.9491   -0.9917  -17.5412 C   0  0  0  0  0  0  0  0  0  0  0  0
  -11.9752    0.3970  -17.6041 C   0  0  0  0  0  0  0  0  0  0  0  0
  -12.8808    1.0387  -18.4533 C   0  0  0  0  0  0  0  0  0  0  0  0
  -13.7950    0.2812  -19.1920 C   0  0  0  0  0  0  0  0  0  0  0  0
  -13.7932   -1.1143  -19.1028 C   0  0  0  0  0  0  0  0  0  0  0  0
  -12.9731    2.4098  -18.5743 O   0  0  0  0  0  0  0  0  0  0  0  0
  -13.4951    3.1473  -17.5297 C   0  0  0  0  0  0  0  0  0  0  0  0
  -12.7202    3.9225  -16.6735 C   0  0  0  0  0  0  0  0  0  0  0  0
  -13.3582    4.5683  -15.6409 C   0  0  0  0  0  0  0  0  0  0  0  0
  -14.6903    4.5414  -15.4667 N   0  0  0  0  0  0  0  0  0  0  0  0
  -15.4506    3.8559  -16.3356 C   0  0  0  0  0  0  0  0  0  0  0  0
  -14.8877    3.1351  -17.3828 C   0  0  0  0  0  0  0  0  0  0  0  0
  -16.8545    3.8790  -16.1916 N   0  0  0  0  0  0  0  0  0  0  0  0
  -17.5936    2.7843  -15.7885 C   0  0  0  0  0  0  0  0  0  0  0  0
  -17.1862    1.6574  -15.5409 O   0  0  0  0  0  0  0  0  0  0  0  0
  -17.3286    4.7360  -16.4033 H   0  0  0  0  0  0  0  0  0  0  0  0
  -19.0700    2.9852  -15.6515 C   0  0  0  0  0  0  0  0  0  0  0  0
  -19.6603    3.3033  -14.2983 C   0  0  0  0  0  0  0  0  0  0  0  0
  -20.0609    2.0471  -15.0185 C   0  0  0  0  0  0  0  0  0  0  0  0
 18 19  1  0  0  0
 19 20  1  0  0  0
 19 22  1  0  0  0
 20 21  1  0  0  0
 21 17  1  0  0  0
 21 22  1  0  0  0
 17  7  1  0  0  0
  7  8  1  0  0  0
  7 12  2  0  0  0
  8  9  2  0  0  0
  9  1  1  0  0  0
  9 10  1  0  0  0
  1  2  1  0  0  0
  1  5  1  0  0  0
  2  3  2  0  0  0
  2  4  1  0  0  0
  4 23  1  0  0  0
  4  6  1  0  0  0
 23 24  1  0  0  0
 23 28  2  0  0  0
 24 25  2  0  0  0
 25 26  1  0  0  0
 26 29  1  0  0  0
 26 27  2  0  0  0
 29 30  1  0  0  0
 30 31  1  0  0  0
 30 35  2  0  0  0
 31 32  2  0  0  0
 32 33  1  0  0  0
 33 34  2  0  0  0
 34 36  1  0  0  0
 34 35  1  0  0  0
 36 37  1  0  0  0
 36 39  1  0  0  0
 37 38  2  0  0  0
 37 40  1  0  0  0
 40 41  1  0  0  0
 40 42  1  0  0  0
 41 42  1  0  0  0
 27 28  1  0  0  0
 10 11  2  0  0  0
 11 13  1  0  0  0
 11 12  1  0  0  0
 13 14  1  0  0  0
 13 15  1  0  0  0
 13 16  1  0  0  0
M  END
> <minimizedAffinity>
-8.32602

$$$$
