CHEMBL260532


 33 36  0  0  0  0  0  0  0  0999 V2000
  -14.1731   -5.7201  -12.1374 C   0  0  0  0  0  0  0  0  0  0  0  0
  -13.9113   -5.5547  -13.5006 C   0  0  0  0  0  0  0  0  0  0  0  0
  -13.6326   -4.3228  -14.0614 C   0  0  0  0  0  0  0  0  0  0  0  0
  -13.2821   -4.3318  -15.3529 N   0  0  0  0  0  0  0  0  0  0  0  0
  -12.8894   -3.1768  -15.9101 C   0  0  0  0  0  0  0  0  0  0  0  0
  -12.8791   -1.9769  -15.2381 C   0  0  0  0  0  0  0  0  0  0  0  0
  -13.3703   -1.9381  -13.9287 C   0  0  0  0  0  0  0  0  0  0  0  0
  -13.6922   -3.1559  -13.2740 C   0  0  0  0  0  0  0  0  0  0  0  0
  -14.0341   -3.3053  -11.9013 C   0  0  0  0  0  0  0  0  0  0  0  0
  -14.2372   -4.5795  -11.3202 C   0  0  0  0  0  0  0  0  0  0  0  0
  -14.4256   -4.6235   -9.8335 C   0  0  0  0  0  0  0  0  0  0  0  0
  -13.5836   -5.3961   -9.0876 N   0  0  0  0  0  0  0  0  0  0  0  0
  -15.2978   -3.9618   -9.2805 O   0  0  0  0  0  0  0  0  0  0  0  0
  -12.8527   -5.9540   -9.5148 H   0  0  0  0  0  0  0  0  0  0  0  0
  -13.6765   -5.3853   -8.0819 H   0  0  0  0  0  0  0  0  0  0  0  0
  -13.3292   -7.9107  -11.7463 C   0  0  0  0  0  0  0  0  0  0  0  0
  -14.3891   -6.9633  -11.5911 O   0  0  0  0  0  0  0  0  0  0  0  0
  -13.5104   -0.7365  -13.2370 O   0  0  0  0  0  0  0  0  0  0  0  0
  -14.5936    0.0703  -13.5506 C   0  0  0  0  0  0  0  0  0  0  0  0
  -15.8357   -0.0703  -12.9367 C   0  0  0  0  0  0  0  0  0  0  0  0
  -16.9444    0.6216  -13.4358 C   0  0  0  0  0  0  0  0  0  0  0  0
  -16.8387    1.5374  -14.5086 C   0  0  0  0  0  0  0  0  0  0  0  0
  -17.9448    2.2213  -15.1022 C   0  0  0  0  0  0  0  0  0  0  0  0
  -17.7267    3.1844  -16.1019 C   0  0  0  0  0  0  0  0  0  0  0  0
  -16.4370    3.4740  -16.5307 C   0  0  0  0  0  0  0  0  0  0  0  0
  -15.3550    2.7708  -16.0020 C   0  0  0  0  0  0  0  0  0  0  0  0
  -15.5353    1.7920  -15.0083 C   0  0  0  0  0  0  0  0  0  0  0  0
  -14.4304    1.0451  -14.5347 C   0  0  0  0  0  0  0  0  0  0  0  0
  -19.3576    1.8628  -14.7667 C   0  0  0  0  0  0  0  0  0  0  0  0
  -19.8233    0.6528  -15.2119 N   0  0  0  0  0  0  0  0  0  0  0  0
  -20.0867    2.5930  -14.1067 O   0  0  0  0  0  0  0  0  0  0  0  0
  -19.3244    0.0562  -15.8535 H   0  0  0  0  0  0  0  0  0  0  0  0
  -20.7888    0.4312  -14.9999 H   0  0  0  0  0  0  0  0  0  0  0  0
 16 17  1  0  0  0
 17  1  1  0  0  0
  1  2  1  0  0  0
  1 10  2  0  0  0
  2  3  2  0  0  0
  3  4  1  0  0  0
  3  8  1  0  0  0
  4  5  2  0  0  0
  5  6  1  0  0  0
  6  7  2  0  0  0
  7 18  1  0  0  0
  7  8  1  0  0  0
 18 19  1  0  0  0
 19 20  1  0  0  0
 19 28  2  0  0  0
 20 21  2  0  0  0
 21 22  1  0  0  0
 22 23  1  0  0  0
 22 27  2  0  0  0
 23 29  1  0  0  0
 23 24  2  0  0  0
 29 30  1  0  0  0
 29 31  2  0  0  0
 30 32  1  0  0  0
 30 33  1  0  0  0
 24 25  1  0  0  0
 25 26  2  0  0  0
 26 27  1  0  0  0
 27 28  1  0  0  0
  8  9  2  0  0  0
  9 10  1  0  0  0
 10 11  1  0  0  0
 11 12  1  0  0  0
 11 13  2  0  0  0
 12 14  1  0  0  0
 12 15  1  0  0  0
M  END
> <minimizedAffinity>
-7.80073

$$$$
