CHEMBL1241862


 27 29  0  0  0  0  0  0  0  0999 V2000
  -29.1448   -9.5583   -9.0983 N   0  0  0  0  0  0  0  0  0  0  0  0
  -28.7417   -8.3160   -8.7612 N   0  0  0  0  0  0  0  0  0  0  0  0
  -29.6952   -7.8628   -7.9264 C   0  0  0  0  0  0  0  0  0  0  0  0
  -30.7514   -8.8200   -7.7825 C   0  0  0  0  0  0  0  0  0  0  0  0
  -31.9899   -8.9450   -7.1314 C   0  0  0  0  0  0  0  0  0  0  0  0
  -32.6034   -7.9612   -6.3695 N   0  0  0  0  0  0  0  0  0  0  0  0
  -32.6702  -10.1035   -7.2496 N   0  0  0  0  0  0  0  0  0  0  0  0
  -32.1445  -11.0891   -7.9995 C   0  0  0  0  0  0  0  0  0  0  0  0
  -30.9942  -11.0776   -8.6881 N   0  0  0  0  0  0  0  0  0  0  0  0
  -30.3411   -9.9101   -8.5386 C   0  0  0  0  0  0  0  0  0  0  0  0
  -32.4657   -7.0139   -6.6975 H   0  0  0  0  0  0  0  0  0  0  0  0
  -33.5650   -8.2125   -6.1686 H   0  0  0  0  0  0  0  0  0  0  0  0
  -29.5396   -6.5410   -7.3148 C   0  0  0  0  0  0  0  0  0  0  0  0
  -30.2296   -5.4305   -7.7972 C   0  0  0  0  0  0  0  0  0  0  0  0
  -30.0437   -4.1716   -7.2238 C   0  0  0  0  0  0  0  0  0  0  0  0
  -29.2229   -3.9954   -6.0971 C   0  0  0  0  0  0  0  0  0  0  0  0
  -28.5687   -5.1209   -5.5723 C   0  0  0  0  0  0  0  0  0  0  0  0
  -27.5658   -5.1039   -4.1621 Cl  0  0  0  0  0  0  0  0  0  0  0  0
  -28.7177   -6.3740   -6.1910 C   0  0  0  0  0  0  0  0  0  0  0  0
  -29.1674   -2.6000   -5.5695 C   0  0  0  0  0  0  0  0  0  0  0  0
  -29.7389   -2.3116   -4.3676 N   0  0  0  0  0  0  0  0  0  0  0  0
  -28.6227   -1.7021   -6.2005 O   0  0  0  0  0  0  0  0  0  0  0  0
  -30.2304   -2.9906   -3.8029 H   0  0  0  0  0  0  0  0  0  0  0  0
  -29.7111   -1.3523   -4.0511 H   0  0  0  0  0  0  0  0  0  0  0  0
  -28.7933  -10.2909  -11.4320 C   0  0  0  0  0  0  0  0  0  0  0  0
  -28.3161  -10.3731   -9.9808 C   0  0  0  0  0  0  0  0  0  0  0  0
  -26.8401   -9.9872   -9.8703 C   0  0  0  0  0  0  0  0  0  0  0  0
 25 26  1  0  0  0
 26 27  1  0  0  0
 26  1  1  0  0  0
  1  2  1  0  0  0
  1 10  1  0  0  0
  2  3  2  0  0  0
  3 13  1  0  0  0
  3  4  1  0  0  0
 13 14  1  0  0  0
 13 19  2  0  0  0
 14 15  2  0  0  0
 15 16  1  0  0  0
 16 20  1  0  0  0
 16 17  2  0  0  0
 20 21  1  0  0  0
 20 22  2  0  0  0
 21 23  1  0  0  0
 21 24  1  0  0  0
 17 18  1  0  0  0
 17 19  1  0  0  0
  4  5  1  0  0  0
  4 10  2  0  0  0
  5  6  1  0  0  0
  5  7  2  0  0  0
  6 11  1  0  0  0
  6 12  1  0  0  0
  7  8  1  0  0  0
  8  9  2  0  0  0
  9 10  1  0  0  0
M  END
> <minimizedAffinity>
-7.71202

$$$$
