CHEMBL598025


 27 30  0  0  0  0  0  0  0  0999 V2000
  -28.7081   -5.5489   -6.7956 C   0  0  0  0  0  0  0  0  0  0  0  0
  -28.3702   -6.2216   -5.6854 N   0  0  0  0  0  0  0  0  0  0  0  0
  -28.1282   -5.5034   -4.5826 C   0  0  0  0  0  0  0  0  0  0  0  0
  -28.2472   -4.1390   -4.5578 C   0  0  0  0  0  0  0  0  0  0  0  0
  -28.3732   -3.5128   -5.7828 C   0  0  0  0  0  0  0  0  0  0  0  0
  -28.6015   -4.2117   -6.9156 N   0  0  0  0  0  0  0  0  0  0  0  0
  -28.5603   -2.0520   -5.8231 C   0  0  0  0  0  0  0  0  0  0  0  0
  -27.5677   -1.1907   -6.3155 C   0  0  0  0  0  0  0  0  0  0  0  0
  -27.7707    0.1943   -6.3269 C   0  0  0  0  0  0  0  0  0  0  0  0
  -29.0018    0.7249   -5.9423 C   0  0  0  0  0  0  0  0  0  0  0  0
  -29.9928   -0.1132   -5.4358 C   0  0  0  0  0  0  0  0  0  0  0  0
  -29.7183   -1.4719   -5.2640 C   0  0  0  0  0  0  0  0  0  0  0  0
  -30.5615   -2.1902   -4.3913 N   0  0  0  0  0  0  0  0  0  0  0  0
  -30.1284   -3.0719   -3.4182 C   0  0  0  0  0  0  0  0  0  0  0  0
  -30.9366   -3.5548   -2.6237 O   0  0  0  0  0  0  0  0  0  0  0  0
  -28.6288   -3.3963   -3.3206 C   0  0  0  0  0  0  0  0  0  0  0  0
  -31.5156   -1.8764   -4.2629 H   0  0  0  0  0  0  0  0  0  0  0  0
  -29.3679   -6.3316   -7.7402 N   0  0  0  0  0  0  0  0  0  0  0  0
  -29.0675   -6.0638   -8.6673 H   0  0  0  0  0  0  0  0  0  0  0  0
  -32.1710   -9.4845   -7.5024 C   0  0  0  0  0  0  0  0  0  0  0  0
  -32.4744   -8.2245   -6.9967 C   0  0  0  0  0  0  0  0  0  0  0  0
  -31.5398   -7.1897   -7.0349 C   0  0  0  0  0  0  0  0  0  0  0  0
  -30.2992   -7.3689   -7.6399 C   0  0  0  0  0  0  0  0  0  0  0  0
  -29.9770   -8.6489   -8.1165 C   0  0  0  0  0  0  0  0  0  0  0  0
  -30.9105   -9.6924   -8.0574 C   0  0  0  0  0  0  0  0  0  0  0  0
  -32.8296  -11.5105   -6.4758 C   0  0  0  0  0  0  0  0  0  0  0  0
  -33.0071  -10.5539   -7.5151 O   0  0  0  0  0  0  0  0  0  0  0  0
 26 27  1  0  0  0
 27 20  1  0  0  0
 20 21  1  0  0  0
 20 25  2  0  0  0
 21 22  2  0  0  0
 22 23  1  0  0  0
 23 18  1  0  0  0
 23 24  2  0  0  0
 18  1  1  0  0  0
 18 19  1  0  0  0
  1  2  1  0  0  0
  1  6  2  0  0  0
  2  3  2  0  0  0
  3  4  1  0  0  0
  4  5  2  0  0  0
  4 16  1  0  0  0
  5  6  1  0  0  0
  5  7  1  0  0  0
  7  8  1  0  0  0
  7 12  2  0  0  0
  8  9  2  0  0  0
  9 10  1  0  0  0
 10 11  2  0  0  0
 11 12  1  0  0  0
 12 13  1  0  0  0
 13 14  1  0  0  0
 13 17  1  0  0  0
 14 15  2  0  0  0
 14 16  1  0  0  0
 24 25  1  0  0  0
M  END
> <minimizedAffinity>
-8.54306

$$$$
