CHEMBL383417


 25 28  0  0  0  0  0  0  0  0999 V2000
  -28.8531   -3.4936   -8.5736 N   0  0  0  0  0  0  0  0  0  0  0  0
  -28.7020   -3.5608   -7.1917 C   0  0  0  0  0  0  0  0  0  0  0  0
  -28.8734   -4.6899   -6.4585 C   0  0  0  0  0  0  0  0  0  0  0  0
  -28.7796   -4.6324   -4.9516 C   0  0  0  0  0  0  0  0  0  0  0  0
  -28.9794   -5.6155   -4.2352 O   0  0  0  0  0  0  0  0  0  0  0  0
  -28.5115   -3.4392   -4.3695 N   0  0  0  0  0  0  0  0  0  0  0  0
  -28.2996   -2.2669   -5.0796 C   0  0  0  0  0  0  0  0  0  0  0  0
  -28.0097   -1.1092   -4.3494 C   0  0  0  0  0  0  0  0  0  0  0  0
  -27.7658    0.0820   -5.0193 C   0  0  0  0  0  0  0  0  0  0  0  0
  -27.8355    0.1112   -6.4086 C   0  0  0  0  0  0  0  0  0  0  0  0
  -28.1524   -1.0538   -7.1306 C   0  0  0  0  0  0  0  0  0  0  0  0
  -28.3758   -2.2767   -6.4808 C   0  0  0  0  0  0  0  0  0  0  0  0
  -28.8678   -4.4298   -9.0010 H   0  0  0  0  0  0  0  0  0  0  0  0
  -28.1733   -2.9028   -9.0388 H   0  0  0  0  0  0  0  0  0  0  0  0
  -28.4782   -3.4438   -3.3579 H   0  0  0  0  0  0  0  0  0  0  0  0
  -29.2058   -5.9560   -7.0543 C   0  0  0  0  0  0  0  0  0  0  0  0
  -28.6045   -6.7416   -7.9454 N   0  0  0  0  0  0  0  0  0  0  0  0
  -29.4511   -7.8281   -8.1180 C   0  0  0  0  0  0  0  0  0  0  0  0
  -29.3222   -8.9864   -8.9020 C   0  0  0  0  0  0  0  0  0  0  0  0
  -30.3900   -9.9035   -8.9359 C   0  0  0  0  0  0  0  0  0  0  0  0
  -31.5570   -9.6824   -8.1996 C   0  0  0  0  0  0  0  0  0  0  0  0
  -31.6831   -8.5641   -7.3776 C   0  0  0  0  0  0  0  0  0  0  0  0
  -30.6076   -7.6764   -7.3683 C   0  0  0  0  0  0  0  0  0  0  0  0
  -30.3969   -6.5264   -6.6737 N   0  0  0  0  0  0  0  0  0  0  0  0
  -30.9946   -6.1726   -5.9316 H   0  0  0  0  0  0  0  0  0  0  0  0
  1  2  1  0  0  0
  1 13  1  0  0  0
  1 14  1  0  0  0
  2  3  2  0  0  0
  2 12  1  0  0  0
  3 16  1  0  0  0
  3  4  1  0  0  0
 16 17  2  0  0  0
 16 24  1  0  0  0
 17 18  1  0  0  0
 18 19  1  0  0  0
 18 23  2  0  0  0
 19 20  2  0  0  0
 20 21  1  0  0  0
 21 22  2  0  0  0
 22 23  1  0  0  0
 23 24  1  0  0  0
 24 25  1  0  0  0
  4  5  2  0  0  0
  4  6  1  0  0  0
  6  7  1  0  0  0
  6 15  1  0  0  0
  7  8  1  0  0  0
  7 12  2  0  0  0
  8  9  2  0  0  0
  9 10  1  0  0  0
 10 11  2  0  0  0
 11 12  1  0  0  0
M  END
> <minimizedAffinity>
-8.65526

$$$$
