CHEMBL212986


 43 48  0  0  0  0  0  0  0  0999 V2000
  -27.6689   -2.1271   -9.2274 C   0  0  0  0  0  0  0  0  0  0  0  0
  -27.6592   -1.1655   -8.2392 C   0  0  0  0  0  0  0  0  0  0  0  0
  -28.1240   -1.6747   -6.9907 C   0  0  0  0  0  0  0  0  0  0  0  0
  -28.4575   -3.0114   -7.0690 C   0  0  0  0  0  0  0  0  0  0  0  0
  -28.2250   -3.6284   -8.6438 S   0  0  0  0  0  0  0  0  0  0  0  0
  -22.4517    0.2766  -13.4779 C   0  0  0  0  0  0  0  0  0  0  0  0
  -23.2247   -0.2470  -14.5444 C   0  0  0  0  0  0  0  0  0  0  0  0
  -24.4894   -0.8087  -14.3283 C   0  0  0  0  0  0  0  0  0  0  0  0
  -24.9377   -0.8653  -13.0328 C   0  0  0  0  0  0  0  0  0  0  0  0
  -24.1647   -0.4006  -11.9365 C   0  0  0  0  0  0  0  0  0  0  0  0
  -22.9329    0.1910  -12.1575 C   0  0  0  0  0  0  0  0  0  0  0  0
  -24.8324   -0.6488  -10.5705 C   0  0  0  0  0  0  0  0  0  0  0  0
  -26.0816   -1.2755  -11.0845 C   0  0  0  0  0  0  0  0  0  0  0  0
  -27.2641   -1.8858  -10.6454 C   0  0  0  0  0  0  0  0  0  0  0  0
  -28.0211   -2.2798  -11.6934 N   0  0  0  0  0  0  0  0  0  0  0  0
  -27.2879   -1.9503  -12.7880 N   0  0  0  0  0  0  0  0  0  0  0  0
  -26.1251   -1.3711  -12.4469 C   0  0  0  0  0  0  0  0  0  0  0  0
  -27.6550   -2.1678  -13.7077 H   0  0  0  0  0  0  0  0  0  0  0  0
  -21.1253    0.9576  -13.7631 C   0  0  0  0  0  0  0  0  0  0  0  0
  -16.6321    2.2627  -14.7126 C   0  0  0  0  0  0  0  0  0  0  0  0
  -17.9153    1.9542  -15.3364 N   0  0  0  0  0  0  0  0  0  0  0  0
  -18.3220    0.5684  -15.0510 C   0  0  0  0  0  0  0  0  0  0  0  0
  -19.7066    0.2475  -15.6591 C   0  0  0  0  0  0  0  0  0  0  0  0
  -20.7975    1.1292  -15.1887 N   0  0  0  0  0  0  0  0  0  0  0  0
  -20.3712    2.5283  -15.4494 C   0  0  0  0  0  0  0  0  0  0  0  0
  -18.9630    2.8995  -14.9077 C   0  0  0  0  0  0  0  0  0  0  0  0
  -28.9789   -3.9072   -6.0037 C   0  0  0  0  0  0  0  0  0  0  0  0
  -28.3853   -5.2189   -6.1504 N   0  0  0  0  0  0  0  0  0  0  0  0
  -29.1326   -6.1539   -6.8195 C   0  0  0  0  0  0  0  0  0  0  0  0
  -30.2571   -5.8958   -7.2268 O   0  0  0  0  0  0  0  0  0  0  0  0
  -28.4867   -7.3710   -6.9134 N   0  0  0  0  0  0  0  0  0  0  0  0
  -27.3871   -5.2444   -6.3168 H   0  0  0  0  0  0  0  0  0  0  0  0
  -27.7641   -7.5223   -6.2220 H   0  0  0  0  0  0  0  0  0  0  0  0
  -29.0564   -8.5077   -7.5269 C   0  0  0  0  0  0  0  0  0  0  0  0
  -29.9596   -9.3407   -6.8587 C   0  0  0  0  0  0  0  0  0  0  0  0
  -30.4108  -10.5209   -7.4433 C   0  0  0  0  0  0  0  0  0  0  0  0
  -29.9656  -10.8778   -8.7118 C   0  0  0  0  0  0  0  0  0  0  0  0
  -29.0931  -10.0379   -9.4212 C   0  0  0  0  0  0  0  0  0  0  0  0
  -28.6683   -8.8313   -8.8302 C   0  0  0  0  0  0  0  0  0  0  0  0
  -28.5835  -10.4404  -10.7812 C   0  0  0  0  0  0  0  0  0  0  0  0
  -27.3329   -9.9734  -11.0551 F   0  0  0  0  0  0  0  0  0  0  0  0
  -28.5211  -11.7908  -10.9381 F   0  0  0  0  0  0  0  0  0  0  0  0
  -29.3778   -9.9831  -11.7889 F   0  0  0  0  0  0  0  0  0  0  0  0
 20 21  1  0  0  0
 21 22  1  0  0  0
 21 26  1  0  0  0
 22 23  1  0  0  0
 23 24  1  0  0  0
 24 19  1  0  0  0
 24 25  1  0  0  0
 19  6  1  0  0  0
  6  7  1  0  0  0
  6 11  2  0  0  0
  7  8  2  0  0  0
  8  9  1  0  0  0
  9 10  2  0  0  0
  9 17  1  0  0  0
 10 11  1  0  0  0
 10 12  1  0  0  0
 12 13  1  0  0  0
 13 14  1  0  0  0
 13 17  2  0  0  0
 14  1  1  0  0  0
 14 15  2  0  0  0
  1  2  2  0  0  0
  1  5  1  0  0  0
  2  3  1  0  0  0
  3  4  2  0  0  0
  4 27  1  0  0  0
  4  5  1  0  0  0
 27 28  1  0  0  0
 28 29  1  0  0  0
 28 32  1  0  0  0
 29 30  2  0  0  0
 29 31  1  0  0  0
 31 34  1  0  0  0
 31 33  1  0  0  0
 34 35  1  0  0  0
 34 39  2  0  0  0
 35 36  2  0  0  0
 36 37  1  0  0  0
 37 38  2  0  0  0
 38 40  1  0  0  0
 38 39  1  0  0  0
 40 41  1  0  0  0
 40 42  1  0  0  0
 40 43  1  0  0  0
 15 16  1  0  0  0
 16 17  1  0  0  0
 16 18  1  0  0  0
 25 26  1  0  0  0
M  END
> <minimizedAffinity>
-10.19270

$$$$
