CHEMBL493986


 33 37  0  0  0  0  0  0  0  0999 V2000
  -29.2760   -1.6852   -4.6515 C   0  0  0  0  0  0  0  0  0  0  0  0
  -28.7958   -1.6907   -6.0789 C   0  0  0  0  0  0  0  0  0  0  0  0
  -28.3743   -0.4330   -6.6457 C   0  0  0  0  0  0  0  0  0  0  0  0
  -27.8499   -0.3791   -7.8740 C   0  0  0  0  0  0  0  0  0  0  0  0
  -27.7553   -1.5043   -8.6766 N   0  0  0  0  0  0  0  0  0  0  0  0
  -28.1945   -2.7565   -8.2326 C   0  0  0  0  0  0  0  0  0  0  0  0
  -28.1344   -3.8053   -8.8811 O   0  0  0  0  0  0  0  0  0  0  0  0
  -28.6904   -2.8133   -6.8130 C   0  0  0  0  0  0  0  0  0  0  0  0
  -28.9291   -4.1304   -6.2359 C   0  0  0  0  0  0  0  0  0  0  0  0
  -27.9911   -4.6459   -5.3350 C   0  0  0  0  0  0  0  0  0  0  0  0
  -28.0769   -5.9606   -4.9070 C   0  0  0  0  0  0  0  0  0  0  0  0
  -29.0301   -6.8034   -5.4388 C   0  0  0  0  0  0  0  0  0  0  0  0
  -28.9132   -8.1005   -5.1775 N   0  0  0  0  0  0  0  0  0  0  0  0
  -29.6754   -8.9186   -5.8942 C   0  0  0  0  0  0  0  0  0  0  0  0
  -29.1408  -10.2031   -6.0042 N   0  0  0  0  0  0  0  0  0  0  0  0
  -30.6666   -8.5578   -6.7056 N   0  0  0  0  0  0  0  0  0  0  0  0
  -30.8412   -7.2319   -6.8769 C   0  0  0  0  0  0  0  0  0  0  0  0
  -29.9834   -6.2911   -6.3260 C   0  0  0  0  0  0  0  0  0  0  0  0
  -29.9691   -4.9397   -6.6909 C   0  0  0  0  0  0  0  0  0  0  0  0
  -28.3413  -10.0232   -6.6130 H   0  0  0  0  0  0  0  0  0  0  0  0
  -28.7175  -10.3764   -5.0968 H   0  0  0  0  0  0  0  0  0  0  0  0
  -27.0857   -1.4650   -9.9345 C   0  0  0  0  0  0  0  0  0  0  0  0
  -27.7868   -1.7608  -11.1227 C   0  0  0  0  0  0  0  0  0  0  0  0
  -27.1188   -1.8752  -12.3399 C   0  0  0  0  0  0  0  0  0  0  0  0
  -25.7516   -1.6617  -12.3521 C   0  0  0  0  0  0  0  0  0  0  0  0
  -25.0726   -1.2753  -11.1937 C   0  0  0  0  0  0  0  0  0  0  0  0
  -25.7086   -1.2162   -9.9720 C   0  0  0  0  0  0  0  0  0  0  0  0
  -23.6796   -1.0461  -11.4083 N   0  0  0  0  0  0  0  0  0  0  0  0
  -23.6905   -0.7818  -12.8731 C   0  0  0  0  0  0  0  0  0  0  0  0
  -24.7846   -1.6864  -13.5028 C   0  0  0  0  0  0  0  0  0  0  0  0
  -24.2015   -3.0813  -13.7814 C   0  0  0  0  0  0  0  0  0  0  0  0
  -25.4077   -1.1045  -14.7698 C   0  0  0  0  0  0  0  0  0  0  0  0
  -23.2055   -1.9307  -11.2090 H   0  0  0  0  0  0  0  0  0  0  0  0
  1  2  1  0  0  0
  2  3  1  0  0  0
  2  8  2  0  0  0
  3  4  2  0  0  0
  4  5  1  0  0  0
  5 22  1  0  0  0
  5  6  1  0  0  0
 22 23  1  0  0  0
 22 27  2  0  0  0
 23 24  2  0  0  0
 24 25  1  0  0  0
 25 26  2  0  0  0
 25 30  1  0  0  0
 26 27  1  0  0  0
 26 28  1  0  0  0
 28 29  1  0  0  0
 28 33  1  0  0  0
 29 30  1  0  0  0
 30 31  1  0  0  0
 30 32  1  0  0  0
  6  7  2  0  0  0
  6  8  1  0  0  0
  8  9  1  0  0  0
  9 10  1  0  0  0
  9 19  2  0  0  0
 10 11  2  0  0  0
 11 12  1  0  0  0
 12 13  1  0  0  0
 12 18  2  0  0  0
 13 14  2  0  0  0
 14 15  1  0  0  0
 14 16  1  0  0  0
 15 20  1  0  0  0
 15 21  1  0  0  0
 16 17  2  0  0  0
 17 18  1  0  0  0
 18 19  1  0  0  0
M  END
> <minimizedAffinity>
-7.89840

$$$$
