CHEMBL1976455


 26 28  0  0  0  0  0  0  0  0999 V2000
  -30.6613   -6.0294   -5.5613 C   0  0  0  0  0  0  0  0  0  0  0  0
  -31.3889   -6.2549   -4.3984 C   0  0  0  0  0  0  0  0  0  0  0  0
  -31.5276   -5.2147   -3.5059 C   0  0  0  0  0  0  0  0  0  0  0  0
  -30.9995   -3.9875   -3.6895 N   0  0  0  0  0  0  0  0  0  0  0  0
  -30.3101   -3.7586   -4.8139 C   0  0  0  0  0  0  0  0  0  0  0  0
  -29.7693   -2.4903   -4.9927 C   0  0  0  0  0  0  0  0  0  0  0  0
  -29.0411   -2.1423   -6.1322 C   0  0  0  0  0  0  0  0  0  0  0  0
  -28.8497   -3.0767   -7.1484 C   0  0  0  0  0  0  0  0  0  0  0  0
  -29.3966   -4.3601   -6.9835 C   0  0  0  0  0  0  0  0  0  0  0  0
  -30.1105   -4.7370   -5.8098 C   0  0  0  0  0  0  0  0  0  0  0  0
  -32.4915   -7.8034   -7.1416 O   0  0  0  0  0  0  0  0  0  0  0  0
  -31.2678   -7.9044   -7.1287 C   0  0  0  0  0  0  0  0  0  0  0  0
  -30.6910   -8.9163   -7.8545 N   0  0  0  0  0  0  0  0  0  0  0  0
  -30.3998   -7.0783   -6.4672 N   0  0  0  0  0  0  0  0  0  0  0  0
  -31.3675   -9.4840   -8.3438 H   0  0  0  0  0  0  0  0  0  0  0  0
  -29.4267   -7.2933   -6.6587 H   0  0  0  0  0  0  0  0  0  0  0  0
  -29.3328   -9.2513   -7.9486 C   0  0  0  0  0  0  0  0  0  0  0  0
  -28.6830   -9.1706   -9.1767 C   0  0  0  0  0  0  0  0  0  0  0  0
  -27.3734   -9.4906   -9.3413 N   0  0  0  0  0  0  0  0  0  0  0  0
  -26.7312   -9.9023   -8.2259 C   0  0  0  0  0  0  0  0  0  0  0  0
  -27.3658   -9.9871   -7.0025 C   0  0  0  0  0  0  0  0  0  0  0  0
  -28.6679   -9.6575   -6.8396 N   0  0  0  0  0  0  0  0  0  0  0  0
  -28.0690   -2.7412   -8.3952 C   0  0  0  0  0  0  0  0  0  0  0  0
  -28.8500   -2.4406   -9.4687 F   0  0  0  0  0  0  0  0  0  0  0  0
  -27.2511   -1.6644   -8.2155 F   0  0  0  0  0  0  0  0  0  0  0  0
  -27.2563   -3.7579   -8.7941 F   0  0  0  0  0  0  0  0  0  0  0  0
 11 12  2  0  0  0
 12 13  1  0  0  0
 12 14  1  0  0  0
 13 17  1  0  0  0
 13 15  1  0  0  0
 17 18  1  0  0  0
 17 22  2  0  0  0
 18 19  2  0  0  0
 19 20  1  0  0  0
 20 21  2  0  0  0
 21 22  1  0  0  0
 14  1  1  0  0  0
 14 16  1  0  0  0
  1  2  1  0  0  0
  1 10  2  0  0  0
  2  3  2  0  0  0
  3  4  1  0  0  0
  4  5  2  0  0  0
  5  6  1  0  0  0
  5 10  1  0  0  0
  6  7  2  0  0  0
  7  8  1  0  0  0
  8 23  1  0  0  0
  8  9  2  0  0  0
 23 24  1  0  0  0
 23 25  1  0  0  0
 23 26  1  0  0  0
  9 10  1  0  0  0
M  END
> <minimizedAffinity>
-7.67843

$$$$
