CHEMBL445404


 32 36  0  0  0  0  0  0  0  0999 V2000
  -31.1685   -9.7603   -7.0239 C   0  0  0  0  0  0  0  0  0  0  0  0
  -31.9822   -9.3334   -8.0173 N   0  0  0  0  0  0  0  0  0  0  0  0
  -31.3470   -9.8803   -9.1049 N   0  0  0  0  0  0  0  0  0  0  0  0
  -30.4572  -10.8478   -8.7317 C   0  0  0  0  0  0  0  0  0  0  0  0
  -30.9256  -11.1317   -7.4249 C   0  0  0  0  0  0  0  0  0  0  0  0
  -30.1620  -12.3070   -6.9090 C   0  0  0  0  0  0  0  0  0  0  0  0
  -28.8230  -11.8300   -7.4179 C   0  0  0  0  0  0  0  0  0  0  0  0
  -27.7317  -11.7788   -6.5766 C   0  0  0  0  0  0  0  0  0  0  0  0
  -26.8381  -10.7405   -6.7428 C   0  0  0  0  0  0  0  0  0  0  0  0
  -26.8825   -9.9778   -7.9431 C   0  0  0  0  0  0  0  0  0  0  0  0
  -27.9516  -10.0964   -8.8702 C   0  0  0  0  0  0  0  0  0  0  0  0
  -28.9725  -10.9872   -8.5751 C   0  0  0  0  0  0  0  0  0  0  0  0
  -31.8969   -9.8604   -9.9507 H   0  0  0  0  0  0  0  0  0  0  0  0
  -29.1134   -6.5909   -6.9030 C   0  0  0  0  0  0  0  0  0  0  0  0
  -29.9177   -7.5659   -7.4389 C   0  0  0  0  0  0  0  0  0  0  0  0
  -30.1604   -8.7087   -6.5732 C   0  0  0  0  0  0  0  0  0  0  0  0
  -29.3348   -8.6343   -5.4752 C   0  0  0  0  0  0  0  0  0  0  0  0
  -28.4087   -7.1545   -5.4512 S   0  0  0  0  0  0  0  0  0  0  0  0
  -28.6511   -4.1089   -7.9645 C   0  0  0  0  0  0  0  0  0  0  0  0
  -28.8847   -5.3190   -7.5390 C   0  0  0  0  0  0  0  0  0  0  0  0
  -28.3787   -2.6981   -8.4606 C   0  0  0  0  0  0  0  0  0  0  0  0
  -27.3272   -2.1187   -7.6971 O   0  0  0  0  0  0  0  0  0  0  0  0
  -27.8381   -1.1409   -6.7912 C   0  0  0  0  0  0  0  0  0  0  0  0
  -27.5123   -1.5471   -5.3596 C   0  0  0  0  0  0  0  0  0  0  0  0
  -27.9618   -3.6117   -4.3222 C   0  0  0  0  0  0  0  0  0  0  0  0
  -28.5252   -2.4330   -4.8830 O   0  0  0  0  0  0  0  0  0  0  0  0
  -26.0652  -10.2991   -5.5176 C   0  0  0  0  0  0  0  0  0  0  0  0
  -24.6675  -10.6602   -5.5629 N   0  0  0  0  0  0  0  0  0  0  0  0
  -24.1089  -11.8179   -5.1235 C   0  0  0  0  0  0  0  0  0  0  0  0
  -22.8381  -11.8407   -5.4477 N   0  0  0  0  0  0  0  0  0  0  0  0
  -22.6693  -10.6588   -6.1124 C   0  0  0  0  0  0  0  0  0  0  0  0
  -23.7662   -9.9036   -6.2205 N   0  0  0  0  0  0  0  0  0  0  0  0
 25 26  1  0  0  0
 26 24  1  0  0  0
 24 23  1  0  0  0
 23 22  1  0  0  0
 22 21  1  0  0  0
 21 19  1  0  0  0
 19 20  3  0  0  0
 20 14  1  0  0  0
 14 15  2  0  0  0
 14 18  1  0  0  0
 15 16  1  0  0  0
 16  1  1  0  0  0
 16 17  2  0  0  0
  1  2  2  0  0  0
  1  5  1  0  0  0
  2  3  1  0  0  0
  3  4  1  0  0  0
  3 13  1  0  0  0
  4  5  2  0  0  0
  4 12  1  0  0  0
  5  6  1  0  0  0
  6  7  1  0  0  0
  7  8  1  0  0  0
  7 12  2  0  0  0
  8  9  2  0  0  0
  9 27  1  0  0  0
  9 10  1  0  0  0
 27 28  1  0  0  0
 28 29  1  0  0  0
 28 32  1  0  0  0
 29 30  2  0  0  0
 30 31  1  0  0  0
 31 32  2  0  0  0
 10 11  2  0  0  0
 11 12  1  0  0  0
 17 18  1  0  0  0
M  END
> <minimizedAffinity>
-6.74220

$$$$
