CHEMBL3686063


 38 42  0  0  0  0  0  0  0  0999 V2000
  -29.1085   -2.9023   -5.2013 C   0  0  0  0  0  0  0  0  0  0  0  0
  -28.8291   -1.6592   -4.6629 C   0  0  0  0  0  0  0  0  0  0  0  0
  -28.2488   -0.8150   -5.5772 N   0  0  0  0  0  0  0  0  0  0  0  0
  -28.1721   -1.5125   -6.6901 C   0  0  0  0  0  0  0  0  0  0  0  0
  -27.6797   -1.1603   -7.9851 C   0  0  0  0  0  0  0  0  0  0  0  0
  -27.7095   -2.0487   -9.0068 C   0  0  0  0  0  0  0  0  0  0  0  0
  -28.2490   -3.3909   -8.7644 C   0  0  0  0  0  0  0  0  0  0  0  0
  -28.7474   -3.7137   -7.5670 C   0  0  0  0  0  0  0  0  0  0  0  0
  -28.6939   -2.7924   -6.5238 N   0  0  0  0  0  0  0  0  0  0  0  0
  -29.6490   -6.2522   -3.5340 C   0  0  0  0  0  0  0  0  0  0  0  0
  -30.9992   -6.1525   -3.1942 C   0  0  0  0  0  0  0  0  0  0  0  0
  -31.7600   -5.0757   -3.6375 C   0  0  0  0  0  0  0  0  0  0  0  0
  -31.1644   -4.0699   -4.3916 C   0  0  0  0  0  0  0  0  0  0  0  0
  -29.7834   -4.0742   -4.6281 C   0  0  0  0  0  0  0  0  0  0  0  0
  -29.0443   -5.2020   -4.2396 C   0  0  0  0  0  0  0  0  0  0  0  0
  -28.0811   -8.0746   -5.2836 O   0  0  0  0  0  0  0  0  0  0  0  0
  -28.1349   -8.1625   -4.0647 C   0  0  0  0  0  0  0  0  0  0  0  0
  -27.4169   -9.1246   -3.3863 N   0  0  0  0  0  0  0  0  0  0  0  0
  -28.8480   -7.3646   -3.1996 N   0  0  0  0  0  0  0  0  0  0  0  0
  -27.8213   -9.4383   -2.5157 H   0  0  0  0  0  0  0  0  0  0  0  0
  -28.7206   -7.5453   -2.2157 H   0  0  0  0  0  0  0  0  0  0  0  0
  -26.7039  -10.1408   -4.1672 C   0  0  0  0  0  0  0  0  0  0  0  0
  -25.1737  -10.0286   -4.1289 C   0  0  0  0  0  0  0  0  0  0  0  0
  -24.7536   -9.2093   -3.1358 F   0  0  0  0  0  0  0  0  0  0  0  0
  -24.5716  -11.2241   -3.9712 F   0  0  0  0  0  0  0  0  0  0  0  0
  -24.7210   -9.4941   -5.2904 F   0  0  0  0  0  0  0  0  0  0  0  0
  -27.2398   -1.7509  -10.3231 C   0  0  0  0  0  0  0  0  0  0  0  0
  -27.7027   -0.8149  -11.2648 C   0  0  0  0  0  0  0  0  0  0  0  0
  -26.9325   -0.7701  -12.3517 N   0  0  0  0  0  0  0  0  0  0  0  0
  -25.9899   -1.7052  -12.1310 N   0  0  0  0  0  0  0  0  0  0  0  0
  -26.1416   -2.3292  -10.9225 C   0  0  0  0  0  0  0  0  0  0  0  0
  -24.8647   -1.9056  -13.0426 C   0  0  0  0  0  0  0  0  0  0  0  0
  -23.6212   -2.5072  -12.3770 C   0  0  0  0  0  0  0  0  0  0  0  0
  -22.9102   -1.4817  -11.4978 C   0  0  0  0  0  0  0  0  0  0  0  0
  -22.5658   -0.2659  -12.2351 N   0  0  0  0  0  0  0  0  0  0  0  0
  -23.7396    0.3506  -12.8547 C   0  0  0  0  0  0  0  0  0  0  0  0
  -24.4663   -0.6189  -13.7816 C   0  0  0  0  0  0  0  0  0  0  0  0
  -21.8779   -0.4902  -12.9515 H   0  0  0  0  0  0  0  0  0  0  0  0
 16 17  2  0  0  0
 17 18  1  0  0  0
 17 19  1  0  0  0
 18 22  1  0  0  0
 18 20  1  0  0  0
 22 23  1  0  0  0
 23 24  1  0  0  0
 23 25  1  0  0  0
 23 26  1  0  0  0
 19 10  1  0  0  0
 19 21  1  0  0  0
 10 11  1  0  0  0
 10 15  2  0  0  0
 11 12  2  0  0  0
 12 13  1  0  0  0
 13 14  2  0  0  0
 14  1  1  0  0  0
 14 15  1  0  0  0
  1  2  2  0  0  0
  1  9  1  0  0  0
  2  3  1  0  0  0
  3  4  2  0  0  0
  4  5  1  0  0  0
  4  9  1  0  0  0
  5  6  2  0  0  0
  6 27  1  0  0  0
  6  7  1  0  0  0
 27 28  1  0  0  0
 27 31  2  0  0  0
 28 29  2  0  0  0
 29 30  1  0  0  0
 30 32  1  0  0  0
 30 31  1  0  0  0
 32 33  1  0  0  0
 32 37  1  0  0  0
 33 34  1  0  0  0
 34 35  1  0  0  0
 35 36  1  0  0  0
 35 38  1  0  0  0
 36 37  1  0  0  0
  7  8  2  0  0  0
  8  9  1  0  0  0
M  END
> <minimizedAffinity>
-10.21361

$$$$
