CHEMBL3961267


 35 38  0  0  0  0  0  0  0  0999 V2000
  -28.6705   -9.9687   -5.5461 N   0  0  0  0  0  0  0  0  0  0  0  0
  -28.6430   -8.5287   -5.1600 C   0  0  0  0  0  0  0  0  0  0  0  0
  -29.0260   -8.2786   -3.8341 C   0  0  0  0  0  0  0  0  0  0  0  0
  -29.4943   -7.0802   -3.4348 C   0  0  0  0  0  0  0  0  0  0  0  0
  -29.4689   -6.0092   -4.2579 C   0  0  0  0  0  0  0  0  0  0  0  0
  -30.1151   -4.9165   -3.8285 N   0  0  0  0  0  0  0  0  0  0  0  0
  -30.0837   -3.7689   -4.5007 C   0  0  0  0  0  0  0  0  0  0  0  0
  -29.2431   -3.6499   -5.5969 C   0  0  0  0  0  0  0  0  0  0  0  0
  -28.6244   -4.7952   -6.1188 N   0  0  0  0  0  0  0  0  0  0  0  0
  -28.7965   -6.0359   -5.4952 C   0  0  0  0  0  0  0  0  0  0  0  0
  -28.3914   -7.3576   -5.9972 C   0  0  0  0  0  0  0  0  0  0  0  0
  -28.9404   -2.2036   -5.8451 C   0  0  0  0  0  0  0  0  0  0  0  0
  -28.1696   -1.6780   -6.8708 C   0  0  0  0  0  0  0  0  0  0  0  0
  -27.8718   -0.3865   -6.5882 N   0  0  0  0  0  0  0  0  0  0  0  0
  -28.4216   -0.0812   -5.4223 N   0  0  0  0  0  0  0  0  0  0  0  0
  -28.2898    1.2174   -4.7575 C   0  0  0  0  0  0  0  0  0  0  0  0
  -29.0629   -1.1571   -4.9306 C   0  0  0  0  0  0  0  0  0  0  0  0
  -29.4243  -10.5886   -6.6538 C   0  0  0  0  0  0  0  0  0  0  0  0
  -30.7805  -10.9318   -6.4799 C   0  0  0  0  0  0  0  0  0  0  0  0
  -31.5571  -11.4023   -7.5652 C   0  0  0  0  0  0  0  0  0  0  0  0
  -30.9848  -11.5392   -8.8315 C   0  0  0  0  0  0  0  0  0  0  0  0
  -29.6435  -11.2245   -9.0483 C   0  0  0  0  0  0  0  0  0  0  0  0
  -28.8773  -10.7687   -7.9672 C   0  0  0  0  0  0  0  0  0  0  0  0
  -32.8725  -11.6999   -7.4488 O   0  0  0  0  0  0  0  0  0  0  0  0
  -33.4742  -12.1929   -6.3181 C   0  0  0  0  0  0  0  0  0  0  0  0
  -29.0701  -11.3051  -10.2929 O   0  0  0  0  0  0  0  0  0  0  0  0
  -28.6319  -10.2173  -11.0333 C   0  0  0  0  0  0  0  0  0  0  0  0
  -27.1070  -10.0822  -10.9959 C   0  0  0  0  0  0  0  0  0  0  0  0
  -26.7199   -8.8217  -11.4800 O   0  0  0  0  0  0  0  0  0  0  0  0
  -26.9729   -8.7929  -12.4412 H   0  0  0  0  0  0  0  0  0  0  0  0
  -27.6445  -10.8394   -4.8647 C   0  0  0  0  0  0  0  0  0  0  0  0
  -26.2013  -10.8016   -5.4882 C   0  0  0  0  0  0  0  0  0  0  0  0
  -25.4388   -9.3764   -3.6858 C   0  0  0  0  0  0  0  0  0  0  0  0
  -25.1961  -10.6177   -4.4313 N   0  0  0  0  0  0  0  0  0  0  0  0
  -25.2370  -11.4291   -3.7739 H   0  0  0  0  0  0  0  0  0  0  0  0
 33 34  1  0  0  0
 34 32  1  0  0  0
 34 35  1  0  0  0
 32 31  1  0  0  0
 31  1  1  0  0  0
  1 18  1  0  0  0
  1  2  1  0  0  0
 18 19  1  0  0  0
 18 23  2  0  0  0
 19 20  2  0  0  0
 20 24  1  0  0  0
 20 21  1  0  0  0
 24 25  1  0  0  0
 21 22  2  0  0  0
 22 26  1  0  0  0
 22 23  1  0  0  0
 26 27  1  0  0  0
 27 28  1  0  0  0
 28 29  1  0  0  0
 29 30  1  0  0  0
  2  3  1  0  0  0
  2 11  2  0  0  0
  3  4  2  0  0  0
  4  5  1  0  0  0
  5  6  1  0  0  0
  5 10  2  0  0  0
  6  7  2  0  0  0
  7  8  1  0  0  0
  8 12  1  0  0  0
  8  9  2  0  0  0
 12 13  1  0  0  0
 12 17  2  0  0  0
 13 14  2  0  0  0
 14 15  1  0  0  0
 15 16  1  0  0  0
 15 17  1  0  0  0
  9 10  1  0  0  0
 10 11  1  0  0  0
M  END
> <minimizedAffinity>
-7.26234

$$$$
