CHEMBL595373


 37 42  0  0  0  0  0  0  0  0999 V2000
  -16.4356    0.9279  -14.6347 C   0  0  0  0  0  0  0  0  0  0  0  0
  -15.1958    1.1888  -15.2279 C   0  0  0  0  0  0  0  0  0  0  0  0
  -15.0448    2.2427  -16.1461 C   0  0  0  0  0  0  0  0  0  0  0  0
  -13.8878    2.4808  -16.8938 C   0  0  0  0  0  0  0  0  0  0  0  0
  -13.8109    3.4235  -17.8518 N   0  0  0  0  0  0  0  0  0  0  0  0
  -14.8932    4.1856  -17.9983 C   0  0  0  0  0  0  0  0  0  0  0  0
  -16.0354    4.0898  -17.3035 N   0  0  0  0  0  0  0  0  0  0  0  0
  -16.1126    3.1066  -16.3964 C   0  0  0  0  0  0  0  0  0  0  0  0
  -17.2947    2.9236  -15.6738 C   0  0  0  0  0  0  0  0  0  0  0  0
  -17.4677    1.8609  -14.7741 C   0  0  0  0  0  0  0  0  0  0  0  0
  -15.5069   -0.7665  -13.3029 C   0  0  0  0  0  0  0  0  0  0  0  0
  -16.6646   -0.2488  -13.9672 O   0  0  0  0  0  0  0  0  0  0  0  0
  -12.7902    1.6358  -16.6869 O   0  0  0  0  0  0  0  0  0  0  0  0
  -12.8771    0.3270  -17.1113 C   0  0  0  0  0  0  0  0  0  0  0  0
  -13.3427   -0.0382  -18.3741 C   0  0  0  0  0  0  0  0  0  0  0  0
  -13.4547   -1.3922  -18.7305 C   0  0  0  0  0  0  0  0  0  0  0  0
  -13.0524   -2.4141  -17.8528 C   0  0  0  0  0  0  0  0  0  0  0  0
  -12.5034   -2.0173  -16.6190 C   0  0  0  0  0  0  0  0  0  0  0  0
  -12.4155   -0.6650  -16.2503 C   0  0  0  0  0  0  0  0  0  0  0  0
  -13.2370   -3.8399  -18.2435 C   0  0  0  0  0  0  0  0  0  0  0  0
  -13.3720   -4.8542  -17.4012 N   0  0  0  0  0  0  0  0  0  0  0  0
  -13.4779   -6.0599  -18.0957 C   0  0  0  0  0  0  0  0  0  0  0  0
  -13.6219   -7.3529  -17.5360 C   0  0  0  0  0  0  0  0  0  0  0  0
  -13.7053   -8.4734  -18.3761 C   0  0  0  0  0  0  0  0  0  0  0  0
  -13.6509   -8.3281  -19.7590 C   0  0  0  0  0  0  0  0  0  0  0  0
  -13.5131   -7.0614  -20.3331 C   0  0  0  0  0  0  0  0  0  0  0  0
  -13.4297   -5.9440  -19.4806 C   0  0  0  0  0  0  0  0  0  0  0  0
  -13.2548   -4.2958  -19.9061 S   0  0  0  0  0  0  0  0  0  0  0  0
  -18.6951    1.8327  -14.1544 O   0  0  0  0  0  0  0  0  0  0  0  0
  -19.8126    1.5044  -14.9912 C   0  0  0  0  0  0  0  0  0  0  0  0
  -21.1119    1.5861  -14.1803 C   0  0  0  0  0  0  0  0  0  0  0  0
  -21.8656    0.2459  -14.2376 C   0  0  0  0  0  0  0  0  0  0  0  0
  -23.1349    0.2243  -13.4896 N   0  0  0  0  0  0  0  0  0  0  0  0
  -22.9879   -0.1302  -12.0700 C   0  0  0  0  0  0  0  0  0  0  0  0
  -23.0791   -1.6417  -12.0190 C   0  0  0  0  0  0  0  0  0  0  0  0
  -24.1249   -1.9545  -13.0678 C   0  0  0  0  0  0  0  0  0  0  0  0
  -24.0588   -0.7872  -14.0497 C   0  0  0  0  0  0  0  0  0  0  0  0
 11 12  1  0  0  0
 12  1  1  0  0  0
  1  2  1  0  0  0
  1 10  2  0  0  0
  2  3  2  0  0  0
  3  4  1  0  0  0
  3  8  1  0  0  0
  4 13  1  0  0  0
  4  5  2  0  0  0
 13 14  1  0  0  0
 14 15  1  0  0  0
 14 19  2  0  0  0
 15 16  2  0  0  0
 16 17  1  0  0  0
 17 20  1  0  0  0
 17 18  2  0  0  0
 20 21  2  0  0  0
 20 28  1  0  0  0
 21 22  1  0  0  0
 22 23  1  0  0  0
 22 27  2  0  0  0
 23 24  2  0  0  0
 24 25  1  0  0  0
 25 26  2  0  0  0
 26 27  1  0  0  0
 27 28  1  0  0  0
 18 19  1  0  0  0
  5  6  1  0  0  0
  6  7  2  0  0  0
  7  8  1  0  0  0
  8  9  2  0  0  0
  9 10  1  0  0  0
 10 29  1  0  0  0
 29 30  1  0  0  0
 30 31  1  0  0  0
 31 32  1  0  0  0
 32 33  1  0  0  0
 33 34  1  0  0  0
 33 37  1  0  0  0
 34 35  1  0  0  0
 35 36  1  0  0  0
 36 37  1  0  0  0
M  END
> <minimizedAffinity>
-7.63629

$$$$
