CHEMBL3702667


 31 34  0  0  0  0  0  0  0  0999 V2000
  -11.9526   -0.7858  -15.5259 C   0  0  0  0  0  0  0  0  0  0  0  0
  -13.2209   -1.0922  -14.7815 C   0  0  0  0  0  0  0  0  0  0  0  0
  -14.2751   -0.1688  -14.7399 C   0  0  0  0  0  0  0  0  0  0  0  0
  -15.4456   -0.4996  -14.0575 C   0  0  0  0  0  0  0  0  0  0  0  0
  -15.5660   -1.7574  -13.4438 C   0  0  0  0  0  0  0  0  0  0  0  0
  -14.5489   -2.7151  -13.5001 C   0  0  0  0  0  0  0  0  0  0  0  0
  -13.3630   -2.3419  -14.1447 C   0  0  0  0  0  0  0  0  0  0  0  0
  -14.7360   -4.0039  -13.0393 N   0  0  0  0  0  0  0  0  0  0  0  0
  -16.0432   -4.6485  -13.1836 C   0  0  0  0  0  0  0  0  0  0  0  0
  -15.8128   -6.0343  -13.7773 C   0  0  0  0  0  0  0  0  0  0  0  0
  -14.7817   -6.7919  -12.9873 C   0  0  0  0  0  0  0  0  0  0  0  0
  -14.7923   -8.1407  -13.1291 N   0  0  0  0  0  0  0  0  0  0  0  0
  -13.8606   -8.8164  -12.4453 C   0  0  0  0  0  0  0  0  0  0  0  0
  -12.9419   -8.2807  -11.6286 N   0  0  0  0  0  0  0  0  0  0  0  0
  -12.9652   -6.9366  -11.5264 C   0  0  0  0  0  0  0  0  0  0  0  0
  -13.8527   -6.1228  -12.2089 C   0  0  0  0  0  0  0  0  0  0  0  0
  -13.8317   -4.6243  -12.0676 C   0  0  0  0  0  0  0  0  0  0  0  0
  -16.5915    0.4369  -13.8985 C   0  0  0  0  0  0  0  0  0  0  0  0
  -16.7058    0.9883  -12.8060 O   0  0  0  0  0  0  0  0  0  0  0  0
  -17.4717    0.5493  -14.9661 N   0  0  0  0  0  0  0  0  0  0  0  0
  -17.3668   -0.1102  -15.7264 H   0  0  0  0  0  0  0  0  0  0  0  0
  -18.6434    1.3497  -14.9692 C   0  0  0  0  0  0  0  0  0  0  0  0
  -18.6444    2.6849  -15.3820 C   0  0  0  0  0  0  0  0  0  0  0  0
  -19.8031    3.4624  -15.3159 C   0  0  0  0  0  0  0  0  0  0  0  0
  -20.9842    2.9090  -14.8367 C   0  0  0  0  0  0  0  0  0  0  0  0
  -21.0230    1.5666  -14.4364 C   0  0  0  0  0  0  0  0  0  0  0  0
  -19.8475    0.7865  -14.5274 C   0  0  0  0  0  0  0  0  0  0  0  0
  -22.2968    0.9710  -13.8946 C   0  0  0  0  0  0  0  0  0  0  0  0
  -22.9082    0.1089  -14.7561 F   0  0  0  0  0  0  0  0  0  0  0  0
  -22.0993    0.2700  -12.7434 F   0  0  0  0  0  0  0  0  0  0  0  0
  -23.2307    1.9189  -13.5975 F   0  0  0  0  0  0  0  0  0  0  0  0
  1  2  1  0  0  0
  2  3  1  0  0  0
  2  7  2  0  0  0
  3  4  2  0  0  0
  4 18  1  0  0  0
  4  5  1  0  0  0
 18 19  2  0  0  0
 18 20  1  0  0  0
 20 22  1  0  0  0
 20 21  1  0  0  0
 22 23  1  0  0  0
 22 27  2  0  0  0
 23 24  2  0  0  0
 24 25  1  0  0  0
 25 26  2  0  0  0
 26 28  1  0  0  0
 26 27  1  0  0  0
 28 29  1  0  0  0
 28 30  1  0  0  0
 28 31  1  0  0  0
  5  6  2  0  0  0
  6  8  1  0  0  0
  6  7  1  0  0  0
  8  9  1  0  0  0
  8 17  1  0  0  0
  9 10  1  0  0  0
 10 11  1  0  0  0
 11 12  1  0  0  0
 11 16  2  0  0  0
 12 13  2  0  0  0
 13 14  1  0  0  0
 14 15  2  0  0  0
 15 16  1  0  0  0
 16 17  1  0  0  0
M  END
> <minimizedAffinity>
-10.15504

$$$$
