CHEMBL13608


 32 35  0  0  0  0  0  0  0  0999 V2000
  -12.4333   -0.5482  -15.9752 C   0  0  0  0  0  0  0  0  0  0  0  0
  -13.5354   -0.6626  -14.9866 C   0  0  0  0  0  0  0  0  0  0  0  0
  -14.7425   -0.0694  -15.2760 N   0  0  0  0  0  0  0  0  0  0  0  0
  -15.6647   -0.3128  -14.2989 C   0  0  0  0  0  0  0  0  0  0  0  0
  -15.0348   -1.0990  -13.3413 C   0  0  0  0  0  0  0  0  0  0  0  0
  -15.6320   -1.6246  -12.0736 C   0  0  0  0  0  0  0  0  0  0  0  0
  -13.6709   -1.3177  -13.7651 C   0  0  0  0  0  0  0  0  0  0  0  0
  -14.9192    0.4633  -16.1238 H   0  0  0  0  0  0  0  0  0  0  0  0
  -16.9863    0.1957  -14.3576 C   0  0  0  0  0  0  0  0  0  0  0  0
  -17.4310    1.4031  -14.7429 C   0  0  0  0  0  0  0  0  0  0  0  0
  -16.7023    2.6245  -15.2518 C   0  0  0  0  0  0  0  0  0  0  0  0
  -15.5046    2.7751  -15.4232 O   0  0  0  0  0  0  0  0  0  0  0  0
  -17.6907    3.5681  -15.4901 N   0  0  0  0  0  0  0  0  0  0  0  0
  -18.9499    3.0709  -15.1835 C   0  0  0  0  0  0  0  0  0  0  0  0
  -20.1568    3.7364  -15.2954 C   0  0  0  0  0  0  0  0  0  0  0  0
  -21.3085    3.0382  -14.9222 C   0  0  0  0  0  0  0  0  0  0  0  0
  -21.2213    1.7182  -14.4593 C   0  0  0  0  0  0  0  0  0  0  0  0
  -22.3405    1.0738  -14.1072 F   0  0  0  0  0  0  0  0  0  0  0  0
  -19.9979    1.0591  -14.3524 C   0  0  0  0  0  0  0  0  0  0  0  0
  -18.8604    1.7531  -14.7225 C   0  0  0  0  0  0  0  0  0  0  0  0
  -17.4886    4.4916  -15.8397 H   0  0  0  0  0  0  0  0  0  0  0  0
  -12.6862   -2.1064  -13.0110 C   0  0  0  0  0  0  0  0  0  0  0  0
  -11.9312   -1.5927  -12.1894 O   0  0  0  0  0  0  0  0  0  0  0  0
  -12.6102   -3.4411  -13.3277 N   0  0  0  0  0  0  0  0  0  0  0  0
  -13.2495   -3.8321  -13.9973 H   0  0  0  0  0  0  0  0  0  0  0  0
  -11.6204   -4.3072  -12.7254 C   0  0  0  0  0  0  0  0  0  0  0  0
  -12.2264   -5.4515  -11.8898 C   0  0  0  0  0  0  0  0  0  0  0  0
  -12.6190   -5.1789  -10.5066 N   0  0  0  0  0  0  0  0  0  0  0  0
  -14.0285   -4.9760  -10.2110 C   0  0  0  0  0  0  0  0  0  0  0  0
  -14.1065   -3.6483   -9.4789 C   0  0  0  0  0  0  0  0  0  0  0  0
  -12.7450   -3.5076   -8.8290 C   0  0  0  0  0  0  0  0  0  0  0  0
  -11.7969   -4.2178   -9.7827 C   0  0  0  0  0  0  0  0  0  0  0  0
  1  2  1  0  0  0
  2  3  1  0  0  0
  2  7  2  0  0  0
  3  4  1  0  0  0
  3  8  1  0  0  0
  4  9  1  0  0  0
  4  5  2  0  0  0
  9 10  2  0  0  0
 10 11  1  0  0  0
 10 20  1  0  0  0
 11 12  2  0  0  0
 11 13  1  0  0  0
 13 14  1  0  0  0
 13 21  1  0  0  0
 14 15  1  0  0  0
 14 20  2  0  0  0
 15 16  2  0  0  0
 16 17  1  0  0  0
 17 18  1  0  0  0
 17 19  2  0  0  0
 19 20  1  0  0  0
  5  6  1  0  0  0
  5  7  1  0  0  0
  7 22  1  0  0  0
 22 23  2  0  0  0
 22 24  1  0  0  0
 24 26  1  0  0  0
 24 25  1  0  0  0
 26 27  1  0  0  0
 27 28  1  0  0  0
 28 29  1  0  0  0
 28 32  1  0  0  0
 29 30  1  0  0  0
 30 31  1  0  0  0
 31 32  1  0  0  0
M  END
> <minimizedAffinity>
-8.13287

$$$$
