CHEMBL3676379


 40 42  0  0  0  0  0  0  0  0999 V2000
  -28.9297   -5.5721   -5.5889 C   0  0  0  0  0  0  0  0  0  0  0  0
  -28.6760   -6.8924   -5.2293 C   0  0  0  0  0  0  0  0  0  0  0  0
  -28.4785   -7.9018   -6.1893 C   0  0  0  0  0  0  0  0  0  0  0  0
  -28.2087   -9.2437   -5.8709 C   0  0  0  0  0  0  0  0  0  0  0  0
  -28.0020  -10.1691   -6.8217 N   0  0  0  0  0  0  0  0  0  0  0  0
  -28.1182   -9.7531   -8.0869 C   0  0  0  0  0  0  0  0  0  0  0  0
  -28.3748   -8.5013   -8.4968 N   0  0  0  0  0  0  0  0  0  0  0  0
  -28.5357   -7.5763   -7.5455 C   0  0  0  0  0  0  0  0  0  0  0  0
  -28.7528   -6.2421   -7.8937 C   0  0  0  0  0  0  0  0  0  0  0  0
  -28.9041   -5.2153   -6.9449 C   0  0  0  0  0  0  0  0  0  0  0  0
  -28.3313   -3.7935   -4.0365 C   0  0  0  0  0  0  0  0  0  0  0  0
  -27.1869   -3.6441   -4.4488 O   0  0  0  0  0  0  0  0  0  0  0  0
  -29.2657   -4.6811   -4.5428 N   0  0  0  0  0  0  0  0  0  0  0  0
  -30.0733   -4.8693   -3.9775 H   0  0  0  0  0  0  0  0  0  0  0  0
  -30.1203   -2.6949   -2.7871 C   0  0  0  0  0  0  0  0  0  0  0  0
  -28.8320   -3.0550   -2.8482 C   0  0  0  0  0  0  0  0  0  0  0  0
  -28.1515   -9.6218   -4.5119 N   0  0  0  0  0  0  0  0  0  0  0  0
  -29.0684   -9.8698   -4.1472 H   0  0  0  0  0  0  0  0  0  0  0  0
  -27.0859  -10.1847   -3.7876 C   0  0  0  0  0  0  0  0  0  0  0  0
  -27.1376  -11.4887   -3.2820 C   0  0  0  0  0  0  0  0  0  0  0  0
  -26.0033  -12.0827   -2.7187 C   0  0  0  0  0  0  0  0  0  0  0  0
  -24.8079  -11.3692   -2.6484 C   0  0  0  0  0  0  0  0  0  0  0  0
  -23.2532  -12.2116   -1.9815 Br  0  0  0  0  0  0  0  0  0  0  0  0
  -24.7416  -10.0566   -3.1022 C   0  0  0  0  0  0  0  0  0  0  0  0
  -25.8745   -9.4840   -3.6729 C   0  0  0  0  0  0  0  0  0  0  0  0
  -25.7958   -8.2286   -4.1444 F   0  0  0  0  0  0  0  0  0  0  0  0
  -29.1340   -3.9818   -7.5038 O   0  0  0  0  0  0  0  0  0  0  0  0
  -27.9821   -3.2091   -7.8304 C   0  0  0  0  0  0  0  0  0  0  0  0
  -28.2095   -2.3492   -9.0749 C   0  0  0  0  0  0  0  0  0  0  0  0
  -27.0292   -2.3193   -9.9253 N   0  0  0  0  0  0  0  0  0  0  0  0
  -27.0187   -1.6183  -11.1208 C   0  0  0  0  0  0  0  0  0  0  0  0
  -27.9131   -0.8430  -11.4461 O   0  0  0  0  0  0  0  0  0  0  0  0
  -26.3548   -3.0806   -9.8766 H   0  0  0  0  0  0  0  0  0  0  0  0
  -25.7708   -1.8650  -11.9984 C   0  0  0  0  0  0  0  0  0  0  0  0
  -24.5750   -1.1774  -11.3758 N   0  0  0  0  0  0  0  0  0  0  0  0
  -23.3377   -1.9135  -11.6874 C   0  0  0  0  0  0  0  0  0  0  0  0
  -24.4216    0.1845  -11.9136 C   0  0  0  0  0  0  0  0  0  0  0  0
  -26.1724   -1.3794  -13.4138 C   0  0  0  0  0  0  0  0  0  0  0  0
  -25.3368   -1.9515  -14.4271 O   0  0  0  0  0  0  0  0  0  0  0  0
  -25.1366   -1.0524  -15.5115 C   0  0  0  0  0  0  0  0  0  0  0  0
 15 16  2  0  0  0
 16 11  1  0  0  0
 11 12  2  0  0  0
 11 13  1  0  0  0
 13  1  1  0  0  0
 13 14  1  0  0  0
  1  2  1  0  0  0
  1 10  2  0  0  0
  2  3  2  0  0  0
  3  4  1  0  0  0
  3  8  1  0  0  0
  4 17  1  0  0  0
  4  5  2  0  0  0
 17 19  1  0  0  0
 17 18  1  0  0  0
 19 20  1  0  0  0
 19 25  2  0  0  0
 20 21  2  0  0  0
 21 22  1  0  0  0
 22 23  1  0  0  0
 22 24  2  0  0  0
 24 25  1  0  0  0
 25 26  1  0  0  0
  5  6  1  0  0  0
  6  7  2  0  0  0
  7  8  1  0  0  0
  8  9  2  0  0  0
  9 10  1  0  0  0
 10 27  1  0  0  0
 27 28  1  0  0  0
 28 29  1  0  0  0
 29 30  1  0  0  0
 30 31  1  0  0  0
 30 33  1  0  0  0
 31 32  2  0  0  0
 31 34  1  0  0  0
 34 38  1  0  0  0
 34 35  1  0  0  0
 38 39  1  0  0  0
 39 40  1  0  0  0
 35 36  1  0  0  0
 35 37  1  0  0  0
M  END
> <minimizedAffinity>
-8.25916

$$$$
