CHEMBL198752


 36 39  0  0  0  0  0  0  0  0999 V2000
  -27.9286   -9.4684   -7.0723 C   0  0  0  0  0  0  0  0  0  0  0  0
  -28.0110   -9.0941   -8.3643 N   0  0  0  0  0  0  0  0  0  0  0  0
  -28.6012   -7.9257   -8.6131 C   0  0  0  0  0  0  0  0  0  0  0  0
  -29.1521   -7.1131   -7.7077 N   0  0  0  0  0  0  0  0  0  0  0  0
  -29.0670   -7.4881   -6.4276 C   0  0  0  0  0  0  0  0  0  0  0  0
  -29.6450   -6.6617   -5.4725 C   0  0  0  0  0  0  0  0  0  0  0  0
  -29.5659   -6.9337   -4.1061 C   0  0  0  0  0  0  0  0  0  0  0  0
  -28.8931   -8.0734   -3.6858 C   0  0  0  0  0  0  0  0  0  0  0  0
  -28.3745   -8.9664   -4.6221 C   0  0  0  0  0  0  0  0  0  0  0  0
  -28.4369   -8.6719   -6.0167 C   0  0  0  0  0  0  0  0  0  0  0  0
  -27.3181  -10.7121   -6.7685 N   0  0  0  0  0  0  0  0  0  0  0  0
  -27.9600  -11.4543   -7.0309 H   0  0  0  0  0  0  0  0  0  0  0  0
  -23.7667  -10.9939   -6.6187 C   0  0  0  0  0  0  0  0  0  0  0  0
  -23.4209  -11.8078   -7.6836 C   0  0  0  0  0  0  0  0  0  0  0  0
  -24.4327  -12.2616   -8.5195 C   0  0  0  0  0  0  0  0  0  0  0  0
  -25.7532  -11.9072   -8.2497 C   0  0  0  0  0  0  0  0  0  0  0  0
  -26.9547  -12.3599   -9.4084 Cl  0  0  0  0  0  0  0  0  0  0  0  0
  -26.0263  -11.1181   -7.1218 C   0  0  0  0  0  0  0  0  0  0  0  0
  -25.0356  -10.6336   -6.3258 N   0  0  0  0  0  0  0  0  0  0  0  0
  -22.7754  -10.9875   -4.4956 C   0  0  0  0  0  0  0  0  0  0  0  0
  -22.7171  -10.5391   -5.8447 O   0  0  0  0  0  0  0  0  0  0  0  0
  -30.2230   -6.0628   -3.2807 O   0  0  0  0  0  0  0  0  0  0  0  0
  -31.5440   -5.6977   -3.6932 C   0  0  0  0  0  0  0  0  0  0  0  0
  -31.5590   -4.2167   -4.0597 C   0  0  0  0  0  0  0  0  0  0  0  0
  -30.3481   -3.4751   -3.4786 C   0  0  0  0  0  0  0  0  0  0  0  0
  -29.2968   -3.2032   -4.4683 N   0  0  0  0  0  0  0  0  0  0  0  0
  -29.8421   -2.8892   -5.8036 C   0  0  0  0  0  0  0  0  0  0  0  0
  -28.7287   -2.5780   -6.8288 C   0  0  0  0  0  0  0  0  0  0  0  0
  -27.8067   -1.4984   -6.4309 N   0  0  0  0  0  0  0  0  0  0  0  0
  -28.4420   -0.1873   -6.5323 C   0  0  0  0  0  0  0  0  0  0  0  0
  -27.3158   -1.7660   -5.0641 C   0  0  0  0  0  0  0  0  0  0  0  0
  -28.4119   -2.1077   -4.0228 C   0  0  0  0  0  0  0  0  0  0  0  0
  -27.7815  -10.1510   -4.2629 O   0  0  0  0  0  0  0  0  0  0  0  0
  -28.4969  -11.0952   -3.4584 C   0  0  0  0  0  0  0  0  0  0  0  0
  -29.7186  -11.6401   -4.1973 C   0  0  0  0  0  0  0  0  0  0  0  0
  -27.5226  -12.2390   -3.1806 C   0  0  0  0  0  0  0  0  0  0  0  0
 20 21  1  0  0  0
 21 13  1  0  0  0
 13 14  1  0  0  0
 13 19  2  0  0  0
 14 15  2  0  0  0
 15 16  1  0  0  0
 16 17  1  0  0  0
 16 18  2  0  0  0
 18 11  1  0  0  0
 18 19  1  0  0  0
 11  1  1  0  0  0
 11 12  1  0  0  0
  1  2  1  0  0  0
  1 10  2  0  0  0
  2  3  2  0  0  0
  3  4  1  0  0  0
  4  5  2  0  0  0
  5  6  1  0  0  0
  5 10  1  0  0  0
  6  7  2  0  0  0
  7 22  1  0  0  0
  7  8  1  0  0  0
 22 23  1  0  0  0
 23 24  1  0  0  0
 24 25  1  0  0  0
 25 26  1  0  0  0
 26 27  1  0  0  0
 26 32  1  0  0  0
 27 28  1  0  0  0
 28 29  1  0  0  0
 29 30  1  0  0  0
 29 31  1  0  0  0
 31 32  1  0  0  0
  8  9  2  0  0  0
  9 33  1  0  0  0
  9 10  1  0  0  0
 33 34  1  0  0  0
 34 35  1  0  0  0
 34 36  1  0  0  0
M  END
> <minimizedAffinity>
-7.06647

$$$$
