CHEMBL1989471


 20 22  0  0  0  0  0  0  0  0999 V2000
  -28.9591   -8.4153   -4.2617 C   0  0  0  0  0  0  0  0  0  0  0  0
  -28.8300   -7.7791   -5.6137 C   0  0  0  0  0  0  0  0  0  0  0  0
  -28.6770   -8.5792   -6.7492 C   0  0  0  0  0  0  0  0  0  0  0  0
  -28.5570   -7.9744   -7.9899 C   0  0  0  0  0  0  0  0  0  0  0  0
  -28.5756   -6.6370   -8.1827 N   0  0  0  0  0  0  0  0  0  0  0  0
  -28.7228   -5.8640   -7.0859 C   0  0  0  0  0  0  0  0  0  0  0  0
  -28.7350   -4.4828   -7.2884 N   0  0  0  0  0  0  0  0  0  0  0  0
  -28.8924   -3.5503   -6.2677 C   0  0  0  0  0  0  0  0  0  0  0  0
  -28.8918   -2.1779   -6.5321 C   0  0  0  0  0  0  0  0  0  0  0  0
  -29.0515   -1.2382   -5.4950 C   0  0  0  0  0  0  0  0  0  0  0  0
  -29.2188   -1.7053   -4.1815 C   0  0  0  0  0  0  0  0  0  0  0  0
  -29.2074   -3.0685   -3.9022 C   0  0  0  0  0  0  0  0  0  0  0  0
  -29.0425   -3.9760   -4.9475 C   0  0  0  0  0  0  0  0  0  0  0  0
  -29.0183   -5.4256   -4.6640 C   0  0  0  0  0  0  0  0  0  0  0  0
  -29.1325   -5.7982   -3.5051 O   0  0  0  0  0  0  0  0  0  0  0  0
  -28.8551   -6.3847   -5.7939 C   0  0  0  0  0  0  0  0  0  0  0  0
  -28.6438   -4.2015   -8.2517 H   0  0  0  0  0  0  0  0  0  0  0  0
  -29.0125    0.2605   -5.7460 C   0  0  0  0  0  0  0  0  0  0  0  0
  -30.4158    0.8701   -5.6517 C   0  0  0  0  0  0  0  0  0  0  0  0
  -28.0662    1.0131   -4.8065 C   0  0  0  0  0  0  0  0  0  0  0  0
  1  2  1  0  0  0
  2  3  1  0  0  0
  2 16  2  0  0  0
  3  4  2  0  0  0
  4  5  1  0  0  0
  5  6  2  0  0  0
  6  7  1  0  0  0
  6 16  1  0  0  0
  7  8  1  0  0  0
  7 17  1  0  0  0
  8  9  1  0  0  0
  8 13  2  0  0  0
  9 10  2  0  0  0
 10 18  1  0  0  0
 10 11  1  0  0  0
 18 19  1  0  0  0
 18 20  1  0  0  0
 11 12  2  0  0  0
 12 13  1  0  0  0
 13 14  1  0  0  0
 14 15  2  0  0  0
 14 16  1  0  0  0
M  END
> <minimizedAffinity>
-7.95810

$$$$
