CHEMBL491686


 32 36  0  0  0  0  0  0  0  0999 V2000
  -29.8509   -4.1905   -6.8111 N   0  0  0  0  0  0  0  0  0  0  0  0
  -30.6231   -4.3796   -7.4352 H   0  0  0  0  0  0  0  0  0  0  0  0
  -28.8928   -7.6399   -6.3509 C   0  0  0  0  0  0  0  0  0  0  0  0
  -28.9643   -7.7573   -4.9806 C   0  0  0  0  0  0  0  0  0  0  0  0
  -29.2876   -6.6165   -4.2889 C   0  0  0  0  0  0  0  0  0  0  0  0
  -29.5536   -5.4372   -4.8784 N   0  0  0  0  0  0  0  0  0  0  0  0
  -29.4927   -5.4060   -6.2166 C   0  0  0  0  0  0  0  0  0  0  0  0
  -29.1530   -6.4691   -6.9557 N   0  0  0  0  0  0  0  0  0  0  0  0
  -28.4565   -8.7507   -7.0987 N   0  0  0  0  0  0  0  0  0  0  0  0
  -27.9197   -9.4118   -6.5539 H   0  0  0  0  0  0  0  0  0  0  0  0
  -28.9031  -10.3982  -11.7571 C   0  0  0  0  0  0  0  0  0  0  0  0
  -29.0811   -9.9833  -10.3507 C   0  0  0  0  0  0  0  0  0  0  0  0
  -28.2203   -9.3812   -9.4635 C   0  0  0  0  0  0  0  0  0  0  0  0
  -28.9443   -9.2384   -8.2583 C   0  0  0  0  0  0  0  0  0  0  0  0
  -30.1818   -9.7276   -8.3817 N   0  0  0  0  0  0  0  0  0  0  0  0
  -30.2414  -10.1601   -9.6536 N   0  0  0  0  0  0  0  0  0  0  0  0
  -31.1054  -10.5823   -9.9762 H   0  0  0  0  0  0  0  0  0  0  0  0
  -29.0300   -3.1007   -7.1636 C   0  0  0  0  0  0  0  0  0  0  0  0
  -28.9500   -2.0080   -6.2920 C   0  0  0  0  0  0  0  0  0  0  0  0
  -28.2269   -0.8648   -6.6436 C   0  0  0  0  0  0  0  0  0  0  0  0
  -27.5483   -0.8115   -7.8638 C   0  0  0  0  0  0  0  0  0  0  0  0
  -27.5657   -1.9015   -8.7382 C   0  0  0  0  0  0  0  0  0  0  0  0
  -28.2970   -3.0443   -8.3561 C   0  0  0  0  0  0  0  0  0  0  0  0
  -26.8578   -1.8143  -10.0270 C   0  0  0  0  0  0  0  0  0  0  0  0
  -25.5650   -1.5722  -10.1698 N   0  0  0  0  0  0  0  0  0  0  0  0
  -25.2388   -1.4662  -11.5162 C   0  0  0  0  0  0  0  0  0  0  0  0
  -23.9595   -1.1991  -12.0496 C   0  0  0  0  0  0  0  0  0  0  0  0
  -23.7937   -1.0666  -13.4349 C   0  0  0  0  0  0  0  0  0  0  0  0
  -24.8766   -1.2220  -14.2936 C   0  0  0  0  0  0  0  0  0  0  0  0
  -26.1462   -1.5199  -13.7928 C   0  0  0  0  0  0  0  0  0  0  0  0
  -26.3053   -1.6218  -12.4006 C   0  0  0  0  0  0  0  0  0  0  0  0
  -27.7377   -1.9092  -11.5030 S   0  0  0  0  0  0  0  0  0  0  0  0
 11 12  1  0  0  0
 12 13  2  0  0  0
 12 16  1  0  0  0
 13 14  1  0  0  0
 14  9  1  0  0  0
 14 15  2  0  0  0
  9  3  1  0  0  0
  9 10  1  0  0  0
  3  4  1  0  0  0
  3  8  2  0  0  0
  4  5  2  0  0  0
  5  6  1  0  0  0
  6  7  2  0  0  0
  7  1  1  0  0  0
  7  8  1  0  0  0
  1 18  1  0  0  0
  1  2  1  0  0  0
 18 19  1  0  0  0
 18 23  2  0  0  0
 19 20  2  0  0  0
 20 21  1  0  0  0
 21 22  2  0  0  0
 22 24  1  0  0  0
 22 23  1  0  0  0
 24 25  2  0  0  0
 24 32  1  0  0  0
 25 26  1  0  0  0
 26 27  1  0  0  0
 26 31  2  0  0  0
 27 28  2  0  0  0
 28 29  1  0  0  0
 29 30  2  0  0  0
 30 31  1  0  0  0
 31 32  1  0  0  0
 15 16  1  0  0  0
 16 17  1  0  0  0
M  END
> <minimizedAffinity>
-9.53246

$$$$
