CHEMBL3358966


 30 33  0  0  0  0  0  0  0  0999 V2000
  -29.9688   -5.2743   -4.4466 C   0  0  0  0  0  0  0  0  0  0  0  0
  -29.0952   -4.3950   -4.8452 N   0  0  0  0  0  0  0  0  0  0  0  0
  -29.2478   -3.1187   -4.3703 C   0  0  0  0  0  0  0  0  0  0  0  0
  -30.1645   -2.7557   -3.4571 C   0  0  0  0  0  0  0  0  0  0  0  0
  -31.0576   -3.6711   -2.9665 N   0  0  0  0  0  0  0  0  0  0  0  0
  -31.0732   -4.9622   -3.4146 C   0  0  0  0  0  0  0  0  0  0  0  0
  -31.8913   -5.7759   -3.0322 O   0  0  0  0  0  0  0  0  0  0  0  0
  -31.7779   -3.3836   -2.3175 H   0  0  0  0  0  0  0  0  0  0  0  0
  -28.4962   -2.1349   -5.0621 C   0  0  0  0  0  0  0  0  0  0  0  0
  -28.2260   -0.8503   -4.6435 C   0  0  0  0  0  0  0  0  0  0  0  0
  -27.4896   -0.2845   -5.6535 N   0  0  0  0  0  0  0  0  0  0  0  0
  -27.7307   -0.9765   -6.8209 C   0  0  0  0  0  0  0  0  0  0  0  0
  -27.6576   -0.6125   -8.1674 C   0  0  0  0  0  0  0  0  0  0  0  0
  -27.8840   -1.6269   -9.1080 C   0  0  0  0  0  0  0  0  0  0  0  0
  -28.0418   -2.9577   -8.7190 C   0  0  0  0  0  0  0  0  0  0  0  0
  -28.1285   -3.2952   -7.3681 C   0  0  0  0  0  0  0  0  0  0  0  0
  -28.0877   -2.2579   -6.4183 C   0  0  0  0  0  0  0  0  0  0  0  0
  -26.8987    0.5293   -5.5676 H   0  0  0  0  0  0  0  0  0  0  0  0
  -28.8430   -8.8304   -5.0962 C   0  0  0  0  0  0  0  0  0  0  0  0
  -28.9293   -7.5440   -4.5582 C   0  0  0  0  0  0  0  0  0  0  0  0
  -29.9015   -6.6495   -5.0232 C   0  0  0  0  0  0  0  0  0  0  0  0
  -30.7396   -7.0040   -6.0770 C   0  0  0  0  0  0  0  0  0  0  0  0
  -30.6560   -8.2789   -6.6331 C   0  0  0  0  0  0  0  0  0  0  0  0
  -29.7403   -9.2200   -6.1124 C   0  0  0  0  0  0  0  0  0  0  0  0
  -26.6396   -9.2627   -4.2462 C   0  0  0  0  0  0  0  0  0  0  0  0
  -27.9016   -9.7498   -4.6957 O   0  0  0  0  0  0  0  0  0  0  0  0
  -31.4628   -8.6830   -7.6716 O   0  0  0  0  0  0  0  0  0  0  0  0
  -32.8485   -8.8063   -7.3670 C   0  0  0  0  0  0  0  0  0  0  0  0
  -29.7441  -10.4473   -6.7299 O   0  0  0  0  0  0  0  0  0  0  0  0
  -30.4750  -11.4727   -6.0697 C   0  0  0  0  0  0  0  0  0  0  0  0
 25 26  1  0  0  0
 26 19  1  0  0  0
 19 20  1  0  0  0
 19 24  2  0  0  0
 20 21  2  0  0  0
 21  1  1  0  0  0
 21 22  1  0  0  0
  1  2  2  0  0  0
  1  6  1  0  0  0
  2  3  1  0  0  0
  3  9  1  0  0  0
  3  4  2  0  0  0
  9 10  2  0  0  0
  9 17  1  0  0  0
 10 11  1  0  0  0
 11 12  1  0  0  0
 11 18  1  0  0  0
 12 13  1  0  0  0
 12 17  2  0  0  0
 13 14  2  0  0  0
 14 15  1  0  0  0
 15 16  2  0  0  0
 16 17  1  0  0  0
  4  5  1  0  0  0
  5  6  1  0  0  0
  5  8  1  0  0  0
  6  7  2  0  0  0
 22 23  2  0  0  0
 23 27  1  0  0  0
 23 24  1  0  0  0
 27 28  1  0  0  0
 24 29  1  0  0  0
 29 30  1  0  0  0
M  END
> <minimizedAffinity>
-7.98999

$$$$
