CHEMBL3985896


 35 38  0  0  0  0  0  0  0  0999 V2000
  -29.3792   -7.3496   -4.8944 C   0  0  0  0  0  0  0  0  0  0  0  0
  -28.0796   -7.5803   -4.3859 C   0  0  0  0  0  0  0  0  0  0  0  0
  -27.2312   -8.5910   -4.8283 C   0  0  0  0  0  0  0  0  0  0  0  0
  -26.0515   -8.7313   -4.2268 N   0  0  0  0  0  0  0  0  0  0  0  0
  -25.2754   -9.7297   -4.6552 C   0  0  0  0  0  0  0  0  0  0  0  0
  -25.5710  -10.5903   -5.6299 N   0  0  0  0  0  0  0  0  0  0  0  0
  -26.7677  -10.4517   -6.2319 C   0  0  0  0  0  0  0  0  0  0  0  0
  -27.6665   -9.4329   -5.8508 C   0  0  0  0  0  0  0  0  0  0  0  0
  -28.9482   -9.2162   -6.3941 C   0  0  0  0  0  0  0  0  0  0  0  0
  -29.8017   -8.1840   -5.9394 C   0  0  0  0  0  0  0  0  0  0  0  0
  -27.1364  -11.3799   -7.2486 N   0  0  0  0  0  0  0  0  0  0  0  0
  -27.6577  -12.1460   -6.8331 H   0  0  0  0  0  0  0  0  0  0  0  0
  -27.5820  -11.0781   -8.5585 C   0  0  0  0  0  0  0  0  0  0  0  0
  -28.7931  -11.5641   -9.0678 C   0  0  0  0  0  0  0  0  0  0  0  0
  -29.2087  -11.2770  -10.3706 C   0  0  0  0  0  0  0  0  0  0  0  0
  -28.4393  -10.4482  -11.1809 C   0  0  0  0  0  0  0  0  0  0  0  0
  -28.9845  -10.1677  -12.7954 Cl  0  0  0  0  0  0  0  0  0  0  0  0
  -27.2742   -9.8770  -10.6627 C   0  0  0  0  0  0  0  0  0  0  0  0
  -26.3059   -8.7779  -11.5805 Cl  0  0  0  0  0  0  0  0  0  0  0  0
  -26.8572  -10.1809   -9.3563 C   0  0  0  0  0  0  0  0  0  0  0  0
  -30.9805   -8.2457   -6.6299 O   0  0  0  0  0  0  0  0  0  0  0  0
  -31.0294   -8.7786   -7.9354 C   0  0  0  0  0  0  0  0  0  0  0  0
  -30.2210   -6.3668   -4.3709 O   0  0  0  0  0  0  0  0  0  0  0  0
  -30.1446   -5.0679   -5.0170 C   0  0  0  0  0  0  0  0  0  0  0  0
  -28.1690   -2.0777   -5.4409 N   0  0  0  0  0  0  0  0  0  0  0  0
  -28.0260   -2.2297   -6.9003 C   0  0  0  0  0  0  0  0  0  0  0  0
  -28.9401   -3.3151   -7.4779 C   0  0  0  0  0  0  0  0  0  0  0  0
  -28.6474   -4.5947   -6.9082 O   0  0  0  0  0  0  0  0  0  0  0  0
  -28.7318   -4.6333   -5.4656 C   0  0  0  0  0  0  0  0  0  0  0  0
  -28.1152   -3.3913   -4.7772 C   0  0  0  0  0  0  0  0  0  0  0  0
  -29.2660   -1.1744   -5.0965 C   0  0  0  0  0  0  0  0  0  0  0  0
  -29.2081    0.2860   -5.6109 C   0  0  0  0  0  0  0  0  0  0  0  0
  -28.0947    1.0168   -4.8417 C   0  0  0  0  0  0  0  0  0  0  0  0
  -30.9101    1.8260   -6.7371 C   0  0  0  0  0  0  0  0  0  0  0  0
  -30.5437    1.0478   -5.4757 C   0  0  0  0  0  0  0  0  0  0  0  0
 34 35  1  0  0  0
 35 32  1  0  0  0
 32 33  1  0  0  0
 32 31  1  0  0  0
 31 25  1  0  0  0
 25 26  1  0  0  0
 25 30  1  0  0  0
 26 27  1  0  0  0
 27 28  1  0  0  0
 28 29  1  0  0  0
 29 24  1  0  0  0
 29 30  1  0  0  0
 24 23  1  0  0  0
 23  1  1  0  0  0
  1  2  1  0  0  0
  1 10  2  0  0  0
  2  3  2  0  0  0
  3  4  1  0  0  0
  3  8  1  0  0  0
  4  5  2  0  0  0
  5  6  1  0  0  0
  6  7  2  0  0  0
  7 11  1  0  0  0
  7  8  1  0  0  0
 11 13  1  0  0  0
 11 12  1  0  0  0
 13 14  1  0  0  0
 13 20  2  0  0  0
 14 15  2  0  0  0
 15 16  1  0  0  0
 16 17  1  0  0  0
 16 18  2  0  0  0
 18 19  1  0  0  0
 18 20  1  0  0  0
  8  9  2  0  0  0
  9 10  1  0  0  0
 10 21  1  0  0  0
 21 22  1  0  0  0
M  END
> <minimizedAffinity>
-8.09406

$$$$
