CHEMBL3939439


 37 41  0  0  0  0  0  0  0  0999 V2000
  -15.2656    2.6174  -15.5513 N   0  0  0  0  0  0  0  0  0  0  0  0
  -14.7866    1.5215  -14.7349 C   0  0  0  0  0  0  0  0  0  0  0  0
  -13.8072    0.8015  -15.3613 C   0  0  0  0  0  0  0  0  0  0  0  0
  -13.7641   -0.4995  -15.1139 C   0  0  0  0  0  0  0  0  0  0  0  0
  -14.4568   -1.1212  -14.1274 C   0  0  0  0  0  0  0  0  0  0  0  0
  -14.1010   -2.3638  -14.3099 N   0  0  0  0  0  0  0  0  0  0  0  0
  -14.1906   -3.1467  -13.2813 C   0  0  0  0  0  0  0  0  0  0  0  0
  -14.9312   -2.8884  -12.1581 C   0  0  0  0  0  0  0  0  0  0  0  0
  -15.4985   -1.6000  -12.0318 N   0  0  0  0  0  0  0  0  0  0  0  0
  -15.1931   -0.5447  -13.0930 C   0  0  0  0  0  0  0  0  0  0  0  0
  -15.4101    0.9169  -13.5317 C   0  0  0  0  0  0  0  0  0  0  0  0
  -15.1544   -4.2439  -11.4919 C   0  0  0  0  0  0  0  0  0  0  0  0
  -14.5463   -4.8774  -10.3432 C   0  0  0  0  0  0  0  0  0  0  0  0
  -14.2675   -6.1882  -10.4897 N   0  0  0  0  0  0  0  0  0  0  0  0
  -14.5988   -6.4420  -11.7613 N   0  0  0  0  0  0  0  0  0  0  0  0
  -14.2042   -7.6646  -12.4459 C   0  0  0  0  0  0  0  0  0  0  0  0
  -15.2057   -5.3645  -12.3557 C   0  0  0  0  0  0  0  0  0  0  0  0
  -14.0367    5.0624  -18.1533 C   0  0  0  0  0  0  0  0  0  0  0  0
  -13.1675    5.8334  -17.3758 C   0  0  0  0  0  0  0  0  0  0  0  0
  -13.0225    5.5605  -16.0223 C   0  0  0  0  0  0  0  0  0  0  0  0
  -13.7212    4.4916  -15.4642 C   0  0  0  0  0  0  0  0  0  0  0  0
  -14.5730    3.6587  -16.2146 C   0  0  0  0  0  0  0  0  0  0  0  0
  -14.7180    3.9659  -17.5760 C   0  0  0  0  0  0  0  0  0  0  0  0
  -14.8095    6.6086  -19.8044 C   0  0  0  0  0  0  0  0  0  0  0  0
  -14.3058    5.3114  -19.4782 O   0  0  0  0  0  0  0  0  0  0  0  0
  -12.2546    6.2572  -15.1307 O   0  0  0  0  0  0  0  0  0  0  0  0
  -11.8694    7.5718  -15.5068 C   0  0  0  0  0  0  0  0  0  0  0  0
  -16.7278    2.4137  -16.0332 C   0  0  0  0  0  0  0  0  0  0  0  0
  -17.8943    3.3126  -15.4310 C   0  0  0  0  0  0  0  0  0  0  0  0
  -19.2318    2.6332  -15.3162 N   0  0  0  0  0  0  0  0  0  0  0  0
  -20.1122    3.2592  -14.3035 C   0  0  0  0  0  0  0  0  0  0  0  0
  -21.5522    2.7421  -14.4628 C   0  0  0  0  0  0  0  0  0  0  0  0
  -21.6347    1.2196  -14.3821 C   0  0  0  0  0  0  0  0  0  0  0  0
  -21.5538    0.7847  -13.0249 O   0  0  0  0  0  0  0  0  0  0  0  0
  -20.5531    0.5494  -15.2241 C   0  0  0  0  0  0  0  0  0  0  0  0
  -19.1678    1.1890  -15.0410 C   0  0  0  0  0  0  0  0  0  0  0  0
  -20.6801    1.0171  -12.6740 H   0  0  0  0  0  0  0  0  0  0  0  0
 24 25  1  0  0  0
 25 18  1  0  0  0
 18 19  1  0  0  0
 18 23  2  0  0  0
 19 20  2  0  0  0
 20 26  1  0  0  0
 20 21  1  0  0  0
 26 27  1  0  0  0
 21 22  2  0  0  0
 22  1  1  0  0  0
 22 23  1  0  0  0
  1 28  1  0  0  0
  1  2  1  0  0  0
 28 29  1  0  0  0
 29 30  1  0  0  0
 30 31  1  0  0  0
 30 36  1  0  0  0
 31 32  1  0  0  0
 32 33  1  0  0  0
 33 34  1  0  0  0
 33 35  1  0  0  0
 34 37  1  0  0  0
 35 36  1  0  0  0
  2  3  1  0  0  0
  2 11  2  0  0  0
  3  4  2  0  0  0
  4  5  1  0  0  0
  5  6  1  0  0  0
  5 10  2  0  0  0
  6  7  2  0  0  0
  7  8  1  0  0  0
  8 12  1  0  0  0
  8  9  2  0  0  0
 12 13  1  0  0  0
 12 17  2  0  0  0
 13 14  2  0  0  0
 14 15  1  0  0  0
 15 16  1  0  0  0
 15 17  1  0  0  0
  9 10  1  0  0  0
 10 11  1  0  0  0
M  END
> <minimizedAffinity>
-8.16741

$$$$
