CHEMBL3633275


 41 43  0  0  0  0  0  0  0  0999 V2000
  -14.3754   -1.1508  -13.2351 N   0  0  0  0  0  0  0  0  0  0  0  0
  -15.4747   -0.5683  -13.8555 C   0  0  0  0  0  0  0  0  0  0  0  0
  -16.3635   -1.1889  -14.4287 O   0  0  0  0  0  0  0  0  0  0  0  0
  -15.4587    0.8191  -13.7523 N   0  0  0  0  0  0  0  0  0  0  0  0
  -14.0671   -0.6627  -12.4057 H   0  0  0  0  0  0  0  0  0  0  0  0
  -14.5603    1.2409  -13.5930 H   0  0  0  0  0  0  0  0  0  0  0  0
  -13.6965   -4.5182  -14.7012 C   0  0  0  0  0  0  0  0  0  0  0  0
  -13.2322   -5.1839  -13.5592 C   0  0  0  0  0  0  0  0  0  0  0  0
  -13.3153   -4.6055  -12.2978 C   0  0  0  0  0  0  0  0  0  0  0  0
  -13.8777   -3.3416  -12.1440 C   0  0  0  0  0  0  0  0  0  0  0  0
  -14.1267   -2.5554  -13.2823 C   0  0  0  0  0  0  0  0  0  0  0  0
  -14.1154   -3.1790  -14.5460 C   0  0  0  0  0  0  0  0  0  0  0  0
  -13.8684   -6.5278  -18.4369 C   0  0  0  0  0  0  0  0  0  0  0  0
  -13.5653   -5.1804  -18.4369 C   0  0  0  0  0  0  0  0  0  0  0  0
  -13.4716   -4.5262  -17.2081 C   0  0  0  0  0  0  0  0  0  0  0  0
  -13.7062   -5.2159  -16.0038 C   0  0  0  0  0  0  0  0  0  0  0  0
  -13.9738   -6.5797  -16.1357 C   0  0  0  0  0  0  0  0  0  0  0  0
  -14.0523   -7.2493  -17.3107 N   0  0  0  0  0  0  0  0  0  0  0  0
  -12.9644   -8.0681  -19.9306 C   0  0  0  0  0  0  0  0  0  0  0  0
  -14.0021   -7.1296  -19.6682 O   0  0  0  0  0  0  0  0  0  0  0  0
  -14.1766   -2.8386  -10.9128 O   0  0  0  0  0  0  0  0  0  0  0  0
  -15.4936   -3.0176  -10.4130 C   0  0  0  0  0  0  0  0  0  0  0  0
  -16.2030   -3.9895  -11.0272 F   0  0  0  0  0  0  0  0  0  0  0  0
  -15.4360   -3.3053   -9.0943 F   0  0  0  0  0  0  0  0  0  0  0  0
  -16.1792   -1.8597  -10.5635 F   0  0  0  0  0  0  0  0  0  0  0  0
  -16.4125    1.5878  -14.4728 C   0  0  0  0  0  0  0  0  0  0  0  0
  -17.7534    1.5370  -14.0675 C   0  0  0  0  0  0  0  0  0  0  0  0
  -18.7509    2.2658  -14.7261 C   0  0  0  0  0  0  0  0  0  0  0  0
  -18.4002    3.0591  -15.8177 C   0  0  0  0  0  0  0  0  0  0  0  0
  -17.0618    3.1363  -16.2204 C   0  0  0  0  0  0  0  0  0  0  0  0
  -16.0602    2.4092  -15.5536 C   0  0  0  0  0  0  0  0  0  0  0  0
  -20.1441    2.3245  -14.2038 C   0  0  0  0  0  0  0  0  0  0  0  0
  -20.7181    3.3576  -13.9046 O   0  0  0  0  0  0  0  0  0  0  0  0
  -20.5772    1.0673  -13.9428 O   0  0  0  0  0  0  0  0  0  0  0  0
  -21.9428    0.8063  -14.3078 C   0  0  0  0  0  0  0  0  0  0  0  0
  -22.6511    0.2760  -13.0452 C   0  0  0  0  0  0  0  0  0  0  0  0
  -23.0905   -1.1264  -13.0854 N   0  0  0  0  0  0  0  0  0  0  0  0
  -23.1535   -1.7166  -11.7489 C   0  0  0  0  0  0  0  0  0  0  0  0
  -24.4090   -1.2076  -13.7256 C   0  0  0  0  0  0  0  0  0  0  0  0
  -14.7976    2.6132  -16.0415 O   0  0  0  0  0  0  0  0  0  0  0  0
  -14.1265    3.7886  -15.5955 C   0  0  0  0  0  0  0  0  0  0  0  0
 19 20  1  0  0  0
 20 13  1  0  0  0
 13 14  1  0  0  0
 13 18  2  0  0  0
 14 15  2  0  0  0
 15 16  1  0  0  0
 16  7  1  0  0  0
 16 17  2  0  0  0
  7  8  1  0  0  0
  7 12  2  0  0  0
  8  9  2  0  0  0
  9 10  1  0  0  0
 10 21  1  0  0  0
 10 11  2  0  0  0
 21 22  1  0  0  0
 22 23  1  0  0  0
 22 24  1  0  0  0
 22 25  1  0  0  0
 11  1  1  0  0  0
 11 12  1  0  0  0
  1  2  1  0  0  0
  1  5  1  0  0  0
  2  3  2  0  0  0
  2  4  1  0  0  0
  4 26  1  0  0  0
  4  6  1  0  0  0
 26 27  1  0  0  0
 26 31  2  0  0  0
 27 28  2  0  0  0
 28 32  1  0  0  0
 28 29  1  0  0  0
 32 33  2  0  0  0
 32 34  1  0  0  0
 34 35  1  0  0  0
 35 36  1  0  0  0
 36 37  1  0  0  0
 37 38  1  0  0  0
 37 39  1  0  0  0
 29 30  2  0  0  0
 30 31  1  0  0  0
 31 40  1  0  0  0
 40 41  1  0  0  0
 17 18  1  0  0  0
M  END
> <minimizedAffinity>
-8.09799

$$$$
