CHEMBL3979836


 33 36  0  0  0  0  0  0  0  0999 V2000
  -28.2459   -2.0116   -9.0101 C   0  0  0  0  0  0  0  0  0  0  0  0
  -28.8477   -3.2523   -8.7486 C   0  0  0  0  0  0  0  0  0  0  0  0
  -29.0888   -3.6818   -7.4350 C   0  0  0  0  0  0  0  0  0  0  0  0
  -28.7074   -2.8794   -6.3567 C   0  0  0  0  0  0  0  0  0  0  0  0
  -28.2416   -1.5743   -6.6403 C   0  0  0  0  0  0  0  0  0  0  0  0
  -27.9632   -1.1622   -7.9496 C   0  0  0  0  0  0  0  0  0  0  0  0
  -28.3901   -3.4969   -5.0003 C   0  0  0  0  0  0  0  0  0  0  0  0
  -27.6261   -4.6784   -4.9299 C   0  0  0  0  0  0  0  0  0  0  0  0
  -28.6327   -5.6752   -5.1904 C   0  0  0  0  0  0  0  0  0  0  0  0
  -28.6505   -6.9058   -5.8635 C   0  0  0  0  0  0  0  0  0  0  0  0
  -29.8793   -7.5566   -6.0300 C   0  0  0  0  0  0  0  0  0  0  0  0
  -31.0526   -7.0415   -5.4737 C   0  0  0  0  0  0  0  0  0  0  0  0
  -31.0532   -5.8382   -4.7677 C   0  0  0  0  0  0  0  0  0  0  0  0
  -29.8380   -5.1528   -4.7097 C   0  0  0  0  0  0  0  0  0  0  0  0
  -29.4736   -3.9203   -4.1824 N   0  0  0  0  0  0  0  0  0  0  0  0
  -30.0808   -3.2723   -3.0977 C   0  0  0  0  0  0  0  0  0  0  0  0
  -29.1754   -2.6442   -2.2910 N   0  0  0  0  0  0  0  0  0  0  0  0
  -31.2645   -3.4254   -2.8345 O   0  0  0  0  0  0  0  0  0  0  0  0
  -28.1954   -2.8918   -2.3515 H   0  0  0  0  0  0  0  0  0  0  0  0
  -29.5222   -2.4473   -1.3589 H   0  0  0  0  0  0  0  0  0  0  0  0
  -26.4007   -0.9434  -11.9612 N   0  0  0  0  0  0  0  0  0  0  0  0
  -26.6104   -1.4722  -10.7065 C   0  0  0  0  0  0  0  0  0  0  0  0
  -25.7287   -1.8309   -9.9309 O   0  0  0  0  0  0  0  0  0  0  0  0
  -27.9455   -1.6104  -10.3388 N   0  0  0  0  0  0  0  0  0  0  0  0
  -27.1892   -0.8676  -12.5818 H   0  0  0  0  0  0  0  0  0  0  0  0
  -28.5526   -1.9605  -11.0691 H   0  0  0  0  0  0  0  0  0  0  0  0
  -25.6888   -1.6358  -14.7927 C   0  0  0  0  0  0  0  0  0  0  0  0
  -24.7416   -1.0157  -13.7994 C   0  0  0  0  0  0  0  0  0  0  0  0
  -23.4206   -0.7617  -14.2354 C   0  0  0  0  0  0  0  0  0  0  0  0
  -22.4666   -0.1955  -13.3912 C   0  0  0  0  0  0  0  0  0  0  0  0
  -22.8300    0.1727  -12.1084 C   0  0  0  0  0  0  0  0  0  0  0  0
  -24.1345   -0.0466  -11.6729 C   0  0  0  0  0  0  0  0  0  0  0  0
  -25.1040   -0.6695  -12.4796 C   0  0  0  0  0  0  0  0  0  0  0  0
 27 28  1  0  0  0
 28 29  1  0  0  0
 28 33  2  0  0  0
 29 30  2  0  0  0
 30 31  1  0  0  0
 31 32  2  0  0  0
 32 33  1  0  0  0
 33 21  1  0  0  0
 21 22  1  0  0  0
 21 25  1  0  0  0
 22 23  2  0  0  0
 22 24  1  0  0  0
 24  1  1  0  0  0
 24 26  1  0  0  0
  1  2  1  0  0  0
  1  6  2  0  0  0
  2  3  2  0  0  0
  3  4  1  0  0  0
  4  7  1  0  0  0
  4  5  2  0  0  0
  7  8  2  0  0  0
  7 15  1  0  0  0
  8  9  1  0  0  0
  9 10  1  0  0  0
  9 14  2  0  0  0
 10 11  2  0  0  0
 11 12  1  0  0  0
 12 13  2  0  0  0
 13 14  1  0  0  0
 14 15  1  0  0  0
 15 16  1  0  0  0
 16 17  1  0  0  0
 16 18  2  0  0  0
 17 19  1  0  0  0
 17 20  1  0  0  0
  5  6  1  0  0  0
M  END
> <minimizedAffinity>
-10.65546

$$$$
