CHEMBL4792576


 48 53  0  0  0  0  0  0  0  0999 V2000
  -29.9050   -7.2777   -7.3657 C   0  0  0  0  0  0  0  0  0  0  0  0
  -28.5875   -7.6394   -7.0707 C   0  0  0  0  0  0  0  0  0  0  0  0
  -28.2618   -8.9698   -6.7746 C   0  0  0  0  0  0  0  0  0  0  0  0
  -29.2470   -9.9650   -6.7124 C   0  0  0  0  0  0  0  0  0  0  0  0
  -30.5643   -9.5946   -7.0116 C   0  0  0  0  0  0  0  0  0  0  0  0
  -30.8842   -8.2693   -7.3350 C   0  0  0  0  0  0  0  0  0  0  0  0
  -32.1628   -7.9622   -7.6036 F   0  0  0  0  0  0  0  0  0  0  0  0
  -28.8838  -11.2572   -6.2716 N   0  0  0  0  0  0  0  0  0  0  0  0
  -28.3245  -11.7867   -6.9451 H   0  0  0  0  0  0  0  0  0  0  0  0
  -28.6110  -11.6736   -4.9453 C   0  0  0  0  0  0  0  0  0  0  0  0
  -29.6617  -11.8889   -4.1149 N   0  0  0  0  0  0  0  0  0  0  0  0
  -29.4392  -12.2815   -2.8452 C   0  0  0  0  0  0  0  0  0  0  0  0
  -28.1752  -12.4644   -2.3204 C   0  0  0  0  0  0  0  0  0  0  0  0
  -27.0814  -12.2215   -3.1419 C   0  0  0  0  0  0  0  0  0  0  0  0
  -25.7795  -12.4221   -2.6539 N   0  0  0  0  0  0  0  0  0  0  0  0
  -24.6952  -12.0683   -3.4101 C   0  0  0  0  0  0  0  0  0  0  0  0
  -24.7231  -11.6598   -4.6875 C   0  0  0  0  0  0  0  0  0  0  0  0
  -26.0961  -11.6021   -5.3335 C   0  0  0  0  0  0  0  0  0  0  0  0
  -26.2462  -11.2999   -6.5157 O   0  0  0  0  0  0  0  0  0  0  0  0
  -27.2940  -11.8593   -4.4833 C   0  0  0  0  0  0  0  0  0  0  0  0
  -25.6559  -12.4550   -1.6480 H   0  0  0  0  0  0  0  0  0  0  0  0
  -23.4882  -11.2269   -5.3996 C   0  0  0  0  0  0  0  0  0  0  0  0
  -22.4599  -12.1359   -5.7000 C   0  0  0  0  0  0  0  0  0  0  0  0
  -21.3569  -11.7524   -6.4724 C   0  0  0  0  0  0  0  0  0  0  0  0
  -21.2618  -10.4482   -6.9350 C   0  0  0  0  0  0  0  0  0  0  0  0
  -20.2253  -10.0899   -7.7037 F   0  0  0  0  0  0  0  0  0  0  0  0
  -22.2360   -9.5131   -6.6192 C   0  0  0  0  0  0  0  0  0  0  0  0
  -23.3437   -9.9006   -5.8563 C   0  0  0  0  0  0  0  0  0  0  0  0
  -30.3017   -5.9720   -7.5972 O   0  0  0  0  0  0  0  0  0  0  0  0
  -28.1695   -1.4231   -6.5805 C   0  0  0  0  0  0  0  0  0  0  0  0
  -28.9428   -1.8586   -5.5050 C   0  0  0  0  0  0  0  0  0  0  0  0
  -29.6219   -3.0662   -5.5168 C   0  0  0  0  0  0  0  0  0  0  0  0
  -30.2999   -3.3881   -4.4129 N   0  0  0  0  0  0  0  0  0  0  0  0
  -30.9069   -4.5765   -4.3990 C   0  0  0  0  0  0  0  0  0  0  0  0
  -30.9231   -5.4566   -5.3965 N   0  0  0  0  0  0  0  0  0  0  0  0
  -30.2814   -5.0835   -6.5240 C   0  0  0  0  0  0  0  0  0  0  0  0
  -29.5618   -3.8839   -6.6488 C   0  0  0  0  0  0  0  0  0  0  0  0
  -28.7923   -3.4562   -7.7609 C   0  0  0  0  0  0  0  0  0  0  0  0
  -28.0516   -2.2647   -7.7036 C   0  0  0  0  0  0  0  0  0  0  0  0
  -28.1484    0.9816   -6.2030 C   0  0  0  0  0  0  0  0  0  0  0  0
  -27.5120   -0.2270   -6.5957 O   0  0  0  0  0  0  0  0  0  0  0  0
  -27.2456   -2.0591   -8.8023 O   0  0  0  0  0  0  0  0  0  0  0  0
  -27.9021   -1.4833   -9.9417 C   0  0  0  0  0  0  0  0  0  0  0  0
  -27.1066   -1.7269  -11.2366 C   0  0  0  0  0  0  0  0  0  0  0  0
  -28.0291   -1.9840  -12.4267 C   0  0  0  0  0  0  0  0  0  0  0  0
  -26.2075   -0.5119  -11.4844 C   0  0  0  0  0  0  0  0  0  0  0  0
  -26.2561   -2.8679  -11.0802 O   0  0  0  0  0  0  0  0  0  0  0  0
  -26.8323   -3.6150  -10.8354 H   0  0  0  0  0  0  0  0  0  0  0  0
 40 41  1  0  0  0
 41 30  1  0  0  0
 30 31  1  0  0  0
 30 39  2  0  0  0
 31 32  2  0  0  0
 32 33  1  0  0  0
 32 37  1  0  0  0
 33 34  2  0  0  0
 34 35  1  0  0  0
 35 36  2  0  0  0
 36 29  1  0  0  0
 36 37  1  0  0  0
 29  1  1  0  0  0
  1  2  1  0  0  0
  1  6  2  0  0  0
  2  3  2  0  0  0
  3  4  1  0  0  0
  4  8  1  0  0  0
  4  5  2  0  0  0
  8 10  1  0  0  0
  8  9  1  0  0  0
 10 11  1  0  0  0
 10 20  2  0  0  0
 11 12  2  0  0  0
 12 13  1  0  0  0
 13 14  2  0  0  0
 14 15  1  0  0  0
 14 20  1  0  0  0
 15 16  1  0  0  0
 15 21  1  0  0  0
 16 17  2  0  0  0
 17 22  1  0  0  0
 17 18  1  0  0  0
 22 23  1  0  0  0
 22 28  2  0  0  0
 23 24  2  0  0  0
 24 25  1  0  0  0
 25 26  1  0  0  0
 25 27  2  0  0  0
 27 28  1  0  0  0
 18 19  2  0  0  0
 18 20  1  0  0  0
  5  6  1  0  0  0
  6  7  1  0  0  0
 37 38  2  0  0  0
 38 39  1  0  0  0
 39 42  1  0  0  0
 42 43  1  0  0  0
 43 44  1  0  0  0
 44 45  1  0  0  0
 44 46  1  0  0  0
 44 47  1  0  0  0
 47 48  1  0  0  0
M  END
> <minimizedAffinity>
-9.81178

$$$$
