CHEMBL593306


 42 47  0  0  0  0  0  0  0  0999 V2000
  -15.8393    2.9276  -15.9797 C   0  0  0  0  0  0  0  0  0  0  0  0
  -15.2775    2.1691  -15.0197 N   0  0  0  0  0  0  0  0  0  0  0  0
  -13.9541    1.9779  -15.0940 C   0  0  0  0  0  0  0  0  0  0  0  0
  -13.1499    2.4767  -16.0235 N   0  0  0  0  0  0  0  0  0  0  0  0
  -13.7181    3.2218  -16.9674 C   0  0  0  0  0  0  0  0  0  0  0  0
  -12.8732    3.7920  -17.9014 C   0  0  0  0  0  0  0  0  0  0  0  0
  -13.3219    4.5892  -18.9724 C   0  0  0  0  0  0  0  0  0  0  0  0
  -14.6755    4.8548  -19.0850 C   0  0  0  0  0  0  0  0  0  0  0  0
  -15.5579    4.2675  -18.1464 C   0  0  0  0  0  0  0  0  0  0  0  0
  -15.0832    3.4749  -17.0514 C   0  0  0  0  0  0  0  0  0  0  0  0
  -17.2399    3.1876  -15.9525 N   0  0  0  0  0  0  0  0  0  0  0  0
  -17.4012    4.1824  -15.8186 H   0  0  0  0  0  0  0  0  0  0  0  0
  -20.7330    1.2414  -14.4800 C   0  0  0  0  0  0  0  0  0  0  0  0
  -19.6874    0.4834  -15.0291 C   0  0  0  0  0  0  0  0  0  0  0  0
  -18.5169    1.0928  -15.5167 C   0  0  0  0  0  0  0  0  0  0  0  0
  -18.3372    2.4716  -15.4334 C   0  0  0  0  0  0  0  0  0  0  0  0
  -19.3814    3.2263  -14.8699 C   0  0  0  0  0  0  0  0  0  0  0  0
  -20.5528    2.6255  -14.3910 C   0  0  0  0  0  0  0  0  0  0  0  0
  -25.8456   -1.6118  -12.3801 C   0  0  0  0  0  0  0  0  0  0  0  0
  -25.9592   -1.7834  -13.7569 C   0  0  0  0  0  0  0  0  0  0  0  0
  -25.0081   -1.2303  -14.6286 C   0  0  0  0  0  0  0  0  0  0  0  0
  -23.9147   -0.5055  -14.1146 C   0  0  0  0  0  0  0  0  0  0  0  0
  -22.8796    0.0597  -14.8505 N   0  0  0  0  0  0  0  0  0  0  0  0
  -22.0138    0.6461  -14.0481 C   0  0  0  0  0  0  0  0  0  0  0  0
  -22.4135    0.5708  -12.3742 S   0  0  0  0  0  0  0  0  0  0  0  0
  -23.8209   -0.3423  -12.7338 C   0  0  0  0  0  0  0  0  0  0  0  0
  -24.7711   -0.8843  -11.8521 C   0  0  0  0  0  0  0  0  0  0  0  0
  -27.8033   -1.2651  -11.0749 C   0  0  0  0  0  0  0  0  0  0  0  0
  -26.7090   -2.1004  -11.4367 O   0  0  0  0  0  0  0  0  0  0  0  0
  -15.3198    5.6305  -20.0160 O   0  0  0  0  0  0  0  0  0  0  0  0
  -15.1515    7.0433  -19.9214 C   0  0  0  0  0  0  0  0  0  0  0  0
  -12.4282    5.0922  -19.8995 O   0  0  0  0  0  0  0  0  0  0  0  0
  -11.3484    4.1964  -20.1899 C   0  0  0  0  0  0  0  0  0  0  0  0
  -11.7586    3.0232  -21.0681 C   0  0  0  0  0  0  0  0  0  0  0  0
  -11.0624    1.7412  -20.5490 C   0  0  0  0  0  0  0  0  0  0  0  0
  -11.8038    1.0041  -19.5109 N   0  0  0  0  0  0  0  0  0  0  0  0
  -13.1644    0.6075  -19.9077 C   0  0  0  0  0  0  0  0  0  0  0  0
  -13.8952   -0.0245  -18.6996 C   0  0  0  0  0  0  0  0  0  0  0  0
  -13.2690   -1.2693  -18.2184 N   0  0  0  0  0  0  0  0  0  0  0  0
  -13.4799   -2.3615  -19.1662 C   0  0  0  0  0  0  0  0  0  0  0  0
  -11.8337   -1.0115  -17.9655 C   0  0  0  0  0  0  0  0  0  0  0  0
  -11.0770   -0.2084  -19.0664 C   0  0  0  0  0  0  0  0  0  0  0  0
 28 29  1  0  0  0
 29 19  1  0  0  0
 19 20  1  0  0  0
 19 27  2  0  0  0
 20 21  2  0  0  0
 21 22  1  0  0  0
 22 23  1  0  0  0
 22 26  2  0  0  0
 23 24  2  0  0  0
 24 13  1  0  0  0
 24 25  1  0  0  0
 13 14  1  0  0  0
 13 18  2  0  0  0
 14 15  2  0  0  0
 15 16  1  0  0  0
 16 11  1  0  0  0
 16 17  2  0  0  0
 11  1  1  0  0  0
 11 12  1  0  0  0
  1  2  1  0  0  0
  1 10  2  0  0  0
  2  3  2  0  0  0
  3  4  1  0  0  0
  4  5  2  0  0  0
  5  6  1  0  0  0
  5 10  1  0  0  0
  6  7  2  0  0  0
  7 32  1  0  0  0
  7  8  1  0  0  0
 32 33  1  0  0  0
 33 34  1  0  0  0
 34 35  1  0  0  0
 35 36  1  0  0  0
 36 37  1  0  0  0
 36 42  1  0  0  0
 37 38  1  0  0  0
 38 39  1  0  0  0
 39 40  1  0  0  0
 39 41  1  0  0  0
 41 42  1  0  0  0
  8 30  1  0  0  0
  8  9  2  0  0  0
 30 31  1  0  0  0
  9 10  1  0  0  0
 17 18  1  0  0  0
 25 26  1  0  0  0
 26 27  1  0  0  0
M  END
> <minimizedAffinity>
-8.12166

$$$$
