CHEMBL2022856


 41 45  0  0  0  0  0  0  0  0999 V2000
  -29.4024   -4.0401   -6.0523 C   0  0  0  0  0  0  0  0  0  0  0  0
  -29.1904   -5.2938   -6.5997 C   0  0  0  0  0  0  0  0  0  0  0  0
  -28.4810   -5.5411   -7.7082 N   0  0  0  0  0  0  0  0  0  0  0  0
  -27.9281   -4.5223   -8.3900 C   0  0  0  0  0  0  0  0  0  0  0  0
  -27.1852   -4.9506   -9.4784 N   0  0  0  0  0  0  0  0  0  0  0  0
  -28.1232   -3.1687   -7.9728 C   0  0  0  0  0  0  0  0  0  0  0  0
  -27.7066   -1.8791   -8.5582 C   0  0  0  0  0  0  0  0  0  0  0  0
  -28.1104   -0.8112   -7.7860 C   0  0  0  0  0  0  0  0  0  0  0  0
  -28.9041   -1.2797   -6.3728 S   0  0  0  0  0  0  0  0  0  0  0  0
  -28.8521   -2.9610   -6.7780 C   0  0  0  0  0  0  0  0  0  0  0  0
  -27.0683   -5.9569   -9.4476 H   0  0  0  0  0  0  0  0  0  0  0  0
  -26.3507   -4.4140   -9.6672 H   0  0  0  0  0  0  0  0  0  0  0  0
  -26.9751   -1.6227   -9.8042 C   0  0  0  0  0  0  0  0  0  0  0  0
  -25.5911   -1.7303   -9.8271 C   0  0  0  0  0  0  0  0  0  0  0  0
  -24.8607   -1.3035  -10.9301 C   0  0  0  0  0  0  0  0  0  0  0  0
  -25.5000   -0.9320  -12.1084 C   0  0  0  0  0  0  0  0  0  0  0  0
  -26.8924   -0.9102  -12.1461 C   0  0  0  0  0  0  0  0  0  0  0  0
  -27.6253   -1.2393  -10.9929 C   0  0  0  0  0  0  0  0  0  0  0  0
  -24.7645   -0.5833  -13.2668 N   0  0  0  0  0  0  0  0  0  0  0  0
  -23.5529    0.0817  -13.2249 C   0  0  0  0  0  0  0  0  0  0  0  0
  -22.9269    0.3384  -12.1982 O   0  0  0  0  0  0  0  0  0  0  0  0
  -23.1161    0.4553  -14.4831 N   0  0  0  0  0  0  0  0  0  0  0  0
  -24.9716   -1.0802  -14.1227 H   0  0  0  0  0  0  0  0  0  0  0  0
  -23.8525    0.7277  -15.1176 H   0  0  0  0  0  0  0  0  0  0  0  0
  -21.8595    1.0834  -14.6424 C   0  0  0  0  0  0  0  0  0  0  0  0
  -21.7212    2.4766  -14.5536 C   0  0  0  0  0  0  0  0  0  0  0  0
  -20.4830    3.0848  -14.7504 C   0  0  0  0  0  0  0  0  0  0  0  0
  -19.3666    2.2967  -15.0358 C   0  0  0  0  0  0  0  0  0  0  0  0
  -19.5160    0.9161  -15.1312 C   0  0  0  0  0  0  0  0  0  0  0  0
  -18.4537    0.1648  -15.4522 F   0  0  0  0  0  0  0  0  0  0  0  0
  -20.7438    0.2970  -14.9133 C   0  0  0  0  0  0  0  0  0  0  0  0
  -31.5670   -4.3093   -3.1916 N   0  0  0  0  0  0  0  0  0  0  0  0
  -31.0661   -4.8069   -4.3583 C   0  0  0  0  0  0  0  0  0  0  0  0
  -30.1415   -3.8868   -4.8143 C   0  0  0  0  0  0  0  0  0  0  0  0
  -30.1744   -2.8679   -3.8337 C   0  0  0  0  0  0  0  0  0  0  0  0
  -31.0427   -3.1216   -2.8499 N   0  0  0  0  0  0  0  0  0  0  0  0
  -32.5742   -4.9223   -2.3563 C   0  0  0  0  0  0  0  0  0  0  0  0
  -30.7522   -6.7087   -2.1950 C   0  0  0  0  0  0  0  0  0  0  0  0
  -32.1982   -6.3310   -1.8955 C   0  0  0  0  0  0  0  0  0  0  0  0
  -32.4154   -6.4334   -0.4828 O   0  0  0  0  0  0  0  0  0  0  0  0
  -31.7675   -5.8590   -0.0365 H   0  0  0  0  0  0  0  0  0  0  0  0
 38 39  1  0  0  0
 39 40  1  0  0  0
 39 37  1  0  0  0
 40 41  1  0  0  0
 37 32  1  0  0  0
 32 33  1  0  0  0
 32 36  1  0  0  0
 33 34  2  0  0  0
 34  1  1  0  0  0
 34 35  1  0  0  0
  1  2  1  0  0  0
  1 10  2  0  0  0
  2  3  2  0  0  0
  3  4  1  0  0  0
  4  5  1  0  0  0
  4  6  2  0  0  0
  5 11  1  0  0  0
  5 12  1  0  0  0
  6  7  1  0  0  0
  6 10  1  0  0  0
  7 13  1  0  0  0
  7  8  2  0  0  0
 13 14  1  0  0  0
 13 18  2  0  0  0
 14 15  2  0  0  0
 15 16  1  0  0  0
 16 19  1  0  0  0
 16 17  2  0  0  0
 19 20  1  0  0  0
 19 23  1  0  0  0
 20 21  2  0  0  0
 20 22  1  0  0  0
 22 25  1  0  0  0
 22 24  1  0  0  0
 25 26  1  0  0  0
 25 31  2  0  0  0
 26 27  2  0  0  0
 27 28  1  0  0  0
 28 29  2  0  0  0
 29 30  1  0  0  0
 29 31  1  0  0  0
 17 18  1  0  0  0
  8  9  1  0  0  0
  9 10  1  0  0  0
 35 36  2  0  0  0
M  END
> <minimizedAffinity>
-6.49918

$$$$
