CHEMBL2086753


 38 43  0  0  0  0  0  0  0  0999 V2000
  -30.3355   -8.9519   -6.9933 C   0  0  0  0  0  0  0  0  0  0  0  0
  -29.5716   -9.1532   -8.1560 C   0  0  0  0  0  0  0  0  0  0  0  0
  -28.8345   -8.1170   -8.7286 C   0  0  0  0  0  0  0  0  0  0  0  0
  -28.8562   -6.8924   -8.0891 C   0  0  0  0  0  0  0  0  0  0  0  0
  -29.5446   -6.6485   -6.8988 C   0  0  0  0  0  0  0  0  0  0  0  0
  -30.2786   -7.6932   -6.3417 C   0  0  0  0  0  0  0  0  0  0  0  0
  -29.2769   -5.2252   -6.5488 C   0  0  0  0  0  0  0  0  0  0  0  0
  -29.6549   -4.4803   -5.4823 C   0  0  0  0  0  0  0  0  0  0  0  0
  -28.3618   -4.6964   -7.6513 C   0  0  0  0  0  0  0  0  0  0  0  0
  -27.8126   -3.6202   -7.7482 O   0  0  0  0  0  0  0  0  0  0  0  0
  -28.1878   -5.7605   -8.5206 N   0  0  0  0  0  0  0  0  0  0  0  0
  -27.6090   -5.6888   -9.3435 H   0  0  0  0  0  0  0  0  0  0  0  0
  -29.2303   -3.1142   -5.3376 C   0  0  0  0  0  0  0  0  0  0  0  0
  -28.1434   -2.5473   -4.8414 N   0  0  0  0  0  0  0  0  0  0  0  0
  -28.3144   -1.1877   -5.0145 C   0  0  0  0  0  0  0  0  0  0  0  0
  -27.5074   -0.0971   -4.6384 C   0  0  0  0  0  0  0  0  0  0  0  0
  -27.9698    1.2105   -4.8918 C   0  0  0  0  0  0  0  0  0  0  0  0
  -29.1911    1.4279   -5.5313 C   0  0  0  0  0  0  0  0  0  0  0  0
  -29.9792    0.3584   -5.9626 C   0  0  0  0  0  0  0  0  0  0  0  0
  -29.5078   -0.9228   -5.6754 C   0  0  0  0  0  0  0  0  0  0  0  0
  -30.0279   -2.1607   -5.9234 N   0  0  0  0  0  0  0  0  0  0  0  0
  -30.8778   -2.3454   -6.4387 H   0  0  0  0  0  0  0  0  0  0  0  0
  -30.4067   -5.0975   -4.3684 C   0  0  0  0  0  0  0  0  0  0  0  0
  -29.8012   -6.1119   -3.6107 C   0  0  0  0  0  0  0  0  0  0  0  0
  -30.4551   -6.6450   -2.5002 C   0  0  0  0  0  0  0  0  0  0  0  0
  -31.7154   -6.1711   -2.1452 C   0  0  0  0  0  0  0  0  0  0  0  0
  -32.3279   -5.1698   -2.9013 C   0  0  0  0  0  0  0  0  0  0  0  0
  -31.6745   -4.6289   -4.0101 C   0  0  0  0  0  0  0  0  0  0  0  0
  -31.0885   -9.9778   -6.3997 N   0  0  0  0  0  0  0  0  0  0  0  0
  -31.0870   -9.8479   -5.3880 H   0  0  0  0  0  0  0  0  0  0  0  0
  -29.3202  -12.4642   -4.4553 N   0  0  0  0  0  0  0  0  0  0  0  0
  -30.7727  -12.2107   -4.3870 C   0  0  0  0  0  0  0  0  0  0  0  0
  -31.4201  -12.3720   -5.7605 C   0  0  0  0  0  0  0  0  0  0  0  0
  -30.8167  -11.3875   -6.7683 C   0  0  0  0  0  0  0  0  0  0  0  0
  -29.3086  -11.6300   -6.8113 C   0  0  0  0  0  0  0  0  0  0  0  0
  -28.6789  -11.5537   -5.4220 C   0  0  0  0  0  0  0  0  0  0  0  0
  -27.2971  -11.8112   -3.1369 C   0  0  0  0  0  0  0  0  0  0  0  0
  -28.7372  -12.3131   -3.1092 C   0  0  0  0  0  0  0  0  0  0  0  0
 37 38  1  0  0  0
 38 31  1  0  0  0
 31 32  1  0  0  0
 31 36  1  0  0  0
 32 33  1  0  0  0
 33 34  1  0  0  0
 34 29  1  0  0  0
 34 35  1  0  0  0
 29  1  1  0  0  0
 29 30  1  0  0  0
  1  2  1  0  0  0
  1  6  2  0  0  0
  2  3  2  0  0  0
  3  4  1  0  0  0
  4  5  2  0  0  0
  4 11  1  0  0  0
  5  6  1  0  0  0
  5  7  1  0  0  0
  7  8  2  0  0  0
  7  9  1  0  0  0
  8 23  1  0  0  0
  8 13  1  0  0  0
 23 24  1  0  0  0
 23 28  2  0  0  0
 24 25  2  0  0  0
 25 26  1  0  0  0
 26 27  2  0  0  0
 27 28  1  0  0  0
 13 14  2  0  0  0
 13 21  1  0  0  0
 14 15  1  0  0  0
 15 16  1  0  0  0
 15 20  2  0  0  0
 16 17  2  0  0  0
 17 18  1  0  0  0
 18 19  2  0  0  0
 19 20  1  0  0  0
 20 21  1  0  0  0
 21 22  1  0  0  0
  9 10  2  0  0  0
  9 11  1  0  0  0
 11 12  1  0  0  0
 35 36  1  0  0  0
M  END
> <minimizedAffinity>
-8.03646

$$$$
