CHEMBL1807477


 39 43  0  0  0  0  0  0  0  0999 V2000
  -29.2514   -4.2086   -6.3614 C   0  0  0  0  0  0  0  0  0  0  0  0
  -29.0482   -4.9790   -5.2440 C   0  0  0  0  0  0  0  0  0  0  0  0
  -28.4182   -6.1761   -5.6955 C   0  0  0  0  0  0  0  0  0  0  0  0
  -28.1839   -6.1115   -7.0150 N   0  0  0  0  0  0  0  0  0  0  0  0
  -28.7199   -4.9398   -7.3894 N   0  0  0  0  0  0  0  0  0  0  0  0
  -28.6736   -4.6994   -8.3731 H   0  0  0  0  0  0  0  0  0  0  0  0
  -28.0854   -7.3619   -4.8991 C   0  0  0  0  0  0  0  0  0  0  0  0
  -26.7794   -7.5323   -4.4296 C   0  0  0  0  0  0  0  0  0  0  0  0
  -26.4517   -8.6353   -3.6386 C   0  0  0  0  0  0  0  0  0  0  0  0
  -27.4379   -9.5635   -3.2917 C   0  0  0  0  0  0  0  0  0  0  0  0
  -28.7522   -9.3966   -3.7323 C   0  0  0  0  0  0  0  0  0  0  0  0
  -29.0697   -8.3077   -4.5494 C   0  0  0  0  0  0  0  0  0  0  0  0
  -29.7529  -10.3363   -3.3395 N   0  0  0  0  0  0  0  0  0  0  0  0
  -29.9476  -10.4391   -2.3459 H   0  0  0  0  0  0  0  0  0  0  0  0
  -29.9408  -11.7894   -4.2018 S   0  0  0  0  0  0  0  0  0  0  0  0
  -28.6538  -12.4560   -4.1900 O   0  0  0  0  0  0  0  0  0  0  0  0
  -31.1323  -12.4624   -3.7443 O   0  0  0  0  0  0  0  0  0  0  0  0
  -30.2244  -11.2365   -5.8691 C   0  0  0  0  0  0  0  0  0  0  0  0
  -31.5271  -11.1813   -6.3782 C   0  0  0  0  0  0  0  0  0  0  0  0
  -31.7336  -10.7622   -7.6932 C   0  0  0  0  0  0  0  0  0  0  0  0
  -30.6462  -10.3858   -8.4858 C   0  0  0  0  0  0  0  0  0  0  0  0
  -29.3506  -10.4333   -7.9699 C   0  0  0  0  0  0  0  0  0  0  0  0
  -29.1355  -10.8507   -6.6564 C   0  0  0  0  0  0  0  0  0  0  0  0
  -28.2633   -1.7729   -5.2986 O   0  0  0  0  0  0  0  0  0  0  0  0
  -29.3095   -1.7616   -5.9113 C   0  0  0  0  0  0  0  0  0  0  0  0
  -29.8682   -2.9634   -6.4791 N   0  0  0  0  0  0  0  0  0  0  0  0
  -30.6763   -2.8870   -7.0808 H   0  0  0  0  0  0  0  0  0  0  0  0
  -30.0282   -0.4972   -6.2125 C   0  0  0  0  0  0  0  0  0  0  0  0
  -30.1659   -0.1203   -7.5545 C   0  0  0  0  0  0  0  0  0  0  0  0
  -30.8831    1.0333   -7.8873 C   0  0  0  0  0  0  0  0  0  0  0  0
  -31.4478    1.8605   -6.9096 C   0  0  0  0  0  0  0  0  0  0  0  0
  -31.2630    1.4767   -5.5688 C   0  0  0  0  0  0  0  0  0  0  0  0
  -30.5713    0.3098   -5.2165 C   0  0  0  0  0  0  0  0  0  0  0  0
  -32.1539    2.9978   -7.2285 N   0  0  0  0  0  0  0  0  0  0  0  0
  -33.3244    3.0034   -8.1226 C   0  0  0  0  0  0  0  0  0  0  0  0
  -33.0837    3.9235   -9.3276 C   0  0  0  0  0  0  0  0  0  0  0  0
  -32.6879    5.2417   -8.9146 O   0  0  0  0  0  0  0  0  0  0  0  0
  -31.4749    5.1805   -8.1480 C   0  0  0  0  0  0  0  0  0  0  0  0
  -31.6532    4.3371   -6.8744 C   0  0  0  0  0  0  0  0  0  0  0  0
 24 25  2  0  0  0
 25 26  1  0  0  0
 25 28  1  0  0  0
 26  1  1  0  0  0
 26 27  1  0  0  0
  1  2  2  0  0  0
  1  5  1  0  0  0
  2  3  1  0  0  0
  3  7  1  0  0  0
  3  4  2  0  0  0
  7  8  1  0  0  0
  7 12  2  0  0  0
  8  9  2  0  0  0
  9 10  1  0  0  0
 10 11  2  0  0  0
 11 13  1  0  0  0
 11 12  1  0  0  0
 13 15  1  0  0  0
 13 14  1  0  0  0
 15 16  2  0  0  0
 15 17  2  0  0  0
 15 18  1  0  0  0
 18 19  1  0  0  0
 18 23  2  0  0  0
 19 20  2  0  0  0
 20 21  1  0  0  0
 21 22  2  0  0  0
 22 23  1  0  0  0
  4  5  1  0  0  0
  5  6  1  0  0  0
 28 29  1  0  0  0
 28 33  2  0  0  0
 29 30  2  0  0  0
 30 31  1  0  0  0
 31 34  1  0  0  0
 31 32  2  0  0  0
 34 35  1  0  0  0
 34 39  1  0  0  0
 35 36  1  0  0  0
 36 37  1  0  0  0
 37 38  1  0  0  0
 38 39  1  0  0  0
 32 33  1  0  0  0
M  END
> <minimizedAffinity>
3.83755

$$$$
