CHEMBL3953791


 31 34  0  0  0  0  0  0  0  0999 V2000
  -16.1727    2.1673  -15.9405 C   0  0  0  0  0  0  0  0  0  0  0  0
  -16.2091    1.4102  -14.7503 C   0  0  0  0  0  0  0  0  0  0  0  0
  -17.3995    1.2220  -13.9968 C   0  0  0  0  0  0  0  0  0  0  0  0
  -18.5402    1.9622  -14.3591 C   0  0  0  0  0  0  0  0  0  0  0  0
  -19.9375    2.1072  -14.0517 C   0  0  0  0  0  0  0  0  0  0  0  0
  -20.2177    3.4237  -14.1872 N   0  0  0  0  0  0  0  0  0  0  0  0
  -19.4446    3.7361  -15.2420 N   0  0  0  0  0  0  0  0  0  0  0  0
  -18.3970    2.8711  -15.3974 C   0  0  0  0  0  0  0  0  0  0  0  0
  -17.3424    2.8573  -16.3024 C   0  0  0  0  0  0  0  0  0  0  0  0
  -19.6291    4.5936  -15.7462 H   0  0  0  0  0  0  0  0  0  0  0  0
  -14.9832    2.3199  -16.7158 N   0  0  0  0  0  0  0  0  0  0  0  0
  -14.5810    1.0989  -17.4475 C   0  0  0  0  0  0  0  0  0  0  0  0
  -13.1907    5.6230  -16.7274 C   0  0  0  0  0  0  0  0  0  0  0  0
  -13.1560    5.8882  -18.0955 C   0  0  0  0  0  0  0  0  0  0  0  0
  -13.7522    5.0160  -18.9998 C   0  0  0  0  0  0  0  0  0  0  0  0
  -14.3796    3.8619  -18.5448 C   0  0  0  0  0  0  0  0  0  0  0  0
  -14.4072    3.5297  -17.1803 C   0  0  0  0  0  0  0  0  0  0  0  0
  -13.7857    4.4304  -16.2803 C   0  0  0  0  0  0  0  0  0  0  0  0
  -11.2800    7.3882  -13.9910 C   0  0  0  0  0  0  0  0  0  0  0  0
  -11.5911    6.2419  -14.9155 C   0  0  0  0  0  0  0  0  0  0  0  0
  -10.9282    5.2109  -14.8635 O   0  0  0  0  0  0  0  0  0  0  0  0
  -12.6521    6.5096  -15.7669 N   0  0  0  0  0  0  0  0  0  0  0  0
  -13.0052    7.4579  -15.7857 H   0  0  0  0  0  0  0  0  0  0  0  0
  -21.0297    1.2657  -14.5345 C   0  0  0  0  0  0  0  0  0  0  0  0
  -22.2344    1.2251  -13.9320 C   0  0  0  0  0  0  0  0  0  0  0  0
  -22.8755   -0.0459  -13.4967 C   0  0  0  0  0  0  0  0  0  0  0  0
  -22.5880   -0.6050  -12.2334 C   0  0  0  0  0  0  0  0  0  0  0  0
  -23.3855   -1.6225  -11.6938 C   0  0  0  0  0  0  0  0  0  0  0  0
  -24.4767   -2.1039  -12.4087 C   0  0  0  0  0  0  0  0  0  0  0  0
  -24.7587   -1.5799  -13.6685 C   0  0  0  0  0  0  0  0  0  0  0  0
  -23.9707   -0.5508  -14.2035 C   0  0  0  0  0  0  0  0  0  0  0  0
 19 20  1  0  0  0
 20 21  2  0  0  0
 20 22  1  0  0  0
 22 13  1  0  0  0
 22 23  1  0  0  0
 13 14  1  0  0  0
 13 18  2  0  0  0
 14 15  2  0  0  0
 15 16  1  0  0  0
 16 17  2  0  0  0
 17 11  1  0  0  0
 17 18  1  0  0  0
 11 12  1  0  0  0
 11  1  1  0  0  0
  1  2  1  0  0  0
  1  9  2  0  0  0
  2  3  2  0  0  0
  3  4  1  0  0  0
  4  5  1  0  0  0
  4  8  2  0  0  0
  5 24  1  0  0  0
  5  6  2  0  0  0
 24 25  2  0  0  0
 25 26  1  0  0  0
 26 27  1  0  0  0
 26 31  2  0  0  0
 27 28  2  0  0  0
 28 29  1  0  0  0
 29 30  2  0  0  0
 30 31  1  0  0  0
  6  7  1  0  0  0
  7  8  1  0  0  0
  7 10  1  0  0  0
  8  9  1  0  0  0
M  END
> <minimizedAffinity>
-10.23485

$$$$
