CHEMBL1681932


 29 30  0  0  0  0  0  0  0  0999 V2000
  -25.2745   -1.8824  -12.1559 C   0  0  0  0  0  0  0  0  0  0  0  0
  -24.0477   -1.7277  -11.5008 C   0  0  0  0  0  0  0  0  0  0  0  0
  -22.9370   -1.2168  -12.1855 C   0  0  0  0  0  0  0  0  0  0  0  0
  -23.0459   -0.8488  -13.5272 C   0  0  0  0  0  0  0  0  0  0  0  0
  -24.2818   -0.9647  -14.1748 C   0  0  0  0  0  0  0  0  0  0  0  0
  -25.3769   -1.5133  -13.5038 C   0  0  0  0  0  0  0  0  0  0  0  0
  -26.8809   -1.6443  -14.3503 Cl  0  0  0  0  0  0  0  0  0  0  0  0
  -27.8335   -2.6329   -9.7081 N   0  0  0  0  0  0  0  0  0  0  0  0
  -26.6790   -2.0360  -10.1683 C   0  0  0  0  0  0  0  0  0  0  0  0
  -26.0280   -1.2396   -9.5056 O   0  0  0  0  0  0  0  0  0  0  0  0
  -26.4045   -2.4004  -11.4686 N   0  0  0  0  0  0  0  0  0  0  0  0
  -27.9137   -3.6068   -9.9655 H   0  0  0  0  0  0  0  0  0  0  0  0
  -27.2423   -2.4958  -12.0320 H   0  0  0  0  0  0  0  0  0  0  0  0
  -28.6620   -3.4353   -7.5252 C   0  0  0  0  0  0  0  0  0  0  0  0
  -28.3140   -2.2450   -8.3958 C   0  0  0  0  0  0  0  0  0  0  0  0
  -21.9140   -0.3124  -14.1137 O   0  0  0  0  0  0  0  0  0  0  0  0
  -21.8066    1.0695  -14.1864 C   0  0  0  0  0  0  0  0  0  0  0  0
  -22.9035    1.8066  -13.8933 N   0  0  0  0  0  0  0  0  0  0  0  0
  -22.7278    3.1278  -13.8825 C   0  0  0  0  0  0  0  0  0  0  0  0
  -21.5817    3.7691  -14.1410 N   0  0  0  0  0  0  0  0  0  0  0  0
  -20.5231    3.0089  -14.4726 C   0  0  0  0  0  0  0  0  0  0  0  0
  -19.3930    3.7273  -14.8560 N   0  0  0  0  0  0  0  0  0  0  0  0
  -20.5913    1.6254  -14.5357 C   0  0  0  0  0  0  0  0  0  0  0  0
  -19.4942    4.7007  -14.5913 H   0  0  0  0  0  0  0  0  0  0  0  0
  -18.5309    3.2849  -14.5368 H   0  0  0  0  0  0  0  0  0  0  0  0
  -19.4408    0.7882  -14.9056 C   0  0  0  0  0  0  0  0  0  0  0  0
  -18.2367    1.0815  -14.5227 N   0  0  0  0  0  0  0  0  0  0  0  0
  -17.3448    0.1296  -15.0357 O   0  0  0  0  0  0  0  0  0  0  0  0
  -16.0822    0.3140  -14.4035 C   0  0  0  0  0  0  0  0  0  0  0  0
 14 15  1  0  0  0
 15  8  1  0  0  0
  8  9  1  0  0  0
  8 12  1  0  0  0
  9 10  2  0  0  0
  9 11  1  0  0  0
 11  1  1  0  0  0
 11 13  1  0  0  0
  1  2  1  0  0  0
  1  6  2  0  0  0
  2  3  2  0  0  0
  3  4  1  0  0  0
  4 16  1  0  0  0
  4  5  2  0  0  0
 16 17  1  0  0  0
 17 18  1  0  0  0
 17 23  2  0  0  0
 18 19  2  0  0  0
 19 20  1  0  0  0
 20 21  2  0  0  0
 21 22  1  0  0  0
 21 23  1  0  0  0
 22 24  1  0  0  0
 22 25  1  0  0  0
 23 26  1  0  0  0
 26 27  2  0  0  0
 27 28  1  0  0  0
 28 29  1  0  0  0
  5  6  1  0  0  0
  6  7  1  0  0  0
M  END
> <minimizedAffinity>
-8.74504

$$$$
