CHEMBL3957965


 38 41  0  0  0  0  0  0  0  0999 V2000
  -27.3221   -2.0516   -4.8265 C   0  0  0  0  0  0  0  0  0  0  0  0
  -28.0566   -3.3054   -5.2170 C   0  0  0  0  0  0  0  0  0  0  0  0
  -28.1831   -4.2965   -4.2161 C   0  0  0  0  0  0  0  0  0  0  0  0
  -28.9378   -5.4530   -4.4194 C   0  0  0  0  0  0  0  0  0  0  0  0
  -29.5198   -5.6618   -5.6584 C   0  0  0  0  0  0  0  0  0  0  0  0
  -29.3693   -4.7077   -6.6739 C   0  0  0  0  0  0  0  0  0  0  0  0
  -28.6525   -3.5150   -6.4799 C   0  0  0  0  0  0  0  0  0  0  0  0
  -28.4942   -2.5579   -7.5282 N   0  0  0  0  0  0  0  0  0  0  0  0
  -27.8737   -2.7788   -8.7530 C   0  0  0  0  0  0  0  0  0  0  0  0
  -27.4891   -3.8658   -9.1704 O   0  0  0  0  0  0  0  0  0  0  0  0
  -27.6659   -1.6004   -9.4672 N   0  0  0  0  0  0  0  0  0  0  0  0
  -28.9739   -1.6771   -7.4218 H   0  0  0  0  0  0  0  0  0  0  0  0
  -27.4828   -0.7954   -8.8848 H   0  0  0  0  0  0  0  0  0  0  0  0
  -27.0032   -1.6267  -10.7252 C   0  0  0  0  0  0  0  0  0  0  0  0
  -27.7665   -1.6222  -11.8899 C   0  0  0  0  0  0  0  0  0  0  0  0
  -27.1314   -1.5522  -13.1344 C   0  0  0  0  0  0  0  0  0  0  0  0
  -25.7348   -1.5462  -13.2348 C   0  0  0  0  0  0  0  0  0  0  0  0
  -25.0881   -1.4398  -14.8358 Cl  0  0  0  0  0  0  0  0  0  0  0  0
  -24.9481   -1.6158  -12.0889 C   0  0  0  0  0  0  0  0  0  0  0  0
  -25.6051   -1.6377  -10.8304 C   0  0  0  0  0  0  0  0  0  0  0  0
  -23.4408   -1.6659  -12.0890 C   0  0  0  0  0  0  0  0  0  0  0  0
  -22.8020   -0.5688  -12.5740 F   0  0  0  0  0  0  0  0  0  0  0  0
  -22.9295   -1.8624  -10.8413 F   0  0  0  0  0  0  0  0  0  0  0  0
  -22.9730   -2.7049  -12.8416 F   0  0  0  0  0  0  0  0  0  0  0  0
  -29.0815   -6.4451   -3.4736 O   0  0  0  0  0  0  0  0  0  0  0  0
  -28.6562   -7.7294   -3.8035 C   0  0  0  0  0  0  0  0  0  0  0  0
  -27.4276   -7.8426   -4.4231 C   0  0  0  0  0  0  0  0  0  0  0  0
  -27.0345   -9.1226   -4.7434 C   0  0  0  0  0  0  0  0  0  0  0  0
  -27.7908  -10.1876   -4.4479 N   0  0  0  0  0  0  0  0  0  0  0  0
  -28.9695   -9.9693   -3.8654 C   0  0  0  0  0  0  0  0  0  0  0  0
  -29.4585   -8.7756   -3.5390 N   0  0  0  0  0  0  0  0  0  0  0  0
  -25.8043   -9.3105   -5.3978 N   0  0  0  0  0  0  0  0  0  0  0  0
  -24.6419   -9.6815   -4.7518 C   0  0  0  0  0  0  0  0  0  0  0  0
  -24.4935   -9.9111   -3.5585 O   0  0  0  0  0  0  0  0  0  0  0  0
  -25.7758   -9.1882   -6.3972 H   0  0  0  0  0  0  0  0  0  0  0  0
  -23.4553   -9.7883   -5.6543 C   0  0  0  0  0  0  0  0  0  0  0  0
  -23.3472  -10.9406   -6.6332 C   0  0  0  0  0  0  0  0  0  0  0  0
  -22.4626  -10.9054   -5.4224 C   0  0  0  0  0  0  0  0  0  0  0  0
  1  2  1  0  0  0
  2  3  1  0  0  0
  2  7  2  0  0  0
  3  4  2  0  0  0
  4 25  1  0  0  0
  4  5  1  0  0  0
 25 26  1  0  0  0
 26 27  1  0  0  0
 26 31  2  0  0  0
 27 28  2  0  0  0
 28 32  1  0  0  0
 28 29  1  0  0  0
 32 33  1  0  0  0
 32 35  1  0  0  0
 33 34  2  0  0  0
 33 36  1  0  0  0
 36 37  1  0  0  0
 36 38  1  0  0  0
 37 38  1  0  0  0
 29 30  2  0  0  0
 30 31  1  0  0  0
  5  6  2  0  0  0
  6  7  1  0  0  0
  7  8  1  0  0  0
  8  9  1  0  0  0
  8 12  1  0  0  0
  9 10  2  0  0  0
  9 11  1  0  0  0
 11 14  1  0  0  0
 11 13  1  0  0  0
 14 15  1  0  0  0
 14 20  2  0  0  0
 15 16  2  0  0  0
 16 17  1  0  0  0
 17 18  1  0  0  0
 17 19  2  0  0  0
 19 21  1  0  0  0
 19 20  1  0  0  0
 21 22  1  0  0  0
 21 23  1  0  0  0
 21 24  1  0  0  0
M  END
> <minimizedAffinity>
-10.14147

$$$$
