CHEMBL4643652


 42 45  0  0  0  0  0  0  0  0999 V2000
  -22.3781    0.9899  -14.1485 C   0  0  0  0  0  0  0  0  0  0  0  0
  -23.0517    2.0358  -13.6798 N   0  0  0  0  0  0  0  0  0  0  0  0
  -22.4585    3.2134  -13.8070 C   0  0  0  0  0  0  0  0  0  0  0  0
  -21.3045    3.4239  -14.4058 N   0  0  0  0  0  0  0  0  0  0  0  0
  -20.7138    2.3285  -14.8704 C   0  0  0  0  0  0  0  0  0  0  0  0
  -21.1959    1.0957  -14.7472 N   0  0  0  0  0  0  0  0  0  0  0  0
  -22.9105   -0.3020  -14.0632 N   0  0  0  0  0  0  0  0  0  0  0  0
  -22.3010   -0.8847  -13.4898 H   0  0  0  0  0  0  0  0  0  0  0  0
  -24.9392   -1.3258  -13.0828 C   0  0  0  0  0  0  0  0  0  0  0  0
  -26.2365   -1.8466  -13.2500 C   0  0  0  0  0  0  0  0  0  0  0  0
  -26.8697   -1.7805  -14.4906 C   0  0  0  0  0  0  0  0  0  0  0  0
  -26.2180   -1.1917  -15.5628 C   0  0  0  0  0  0  0  0  0  0  0  0
  -24.9229   -0.7000  -15.4020 C   0  0  0  0  0  0  0  0  0  0  0  0
  -24.2458   -0.7458  -14.1679 C   0  0  0  0  0  0  0  0  0  0  0  0
  -24.3123   -1.1854  -11.4120 S   0  0  0  0  0  0  0  0  0  0  0  0
  -24.2861    0.2158  -11.0451 O   0  0  0  0  0  0  0  0  0  0  0  0
  -23.1218   -2.0064  -11.3636 O   0  0  0  0  0  0  0  0  0  0  0  0
  -25.4594   -1.9691  -10.4591 N   0  0  0  0  0  0  0  0  0  0  0  0
  -25.5013   -2.9669  -10.6667 H   0  0  0  0  0  0  0  0  0  0  0  0
  -27.5908   -2.1740   -9.3120 C   0  0  0  0  0  0  0  0  0  0  0  0
  -26.7596   -1.3185  -10.2563 C   0  0  0  0  0  0  0  0  0  0  0  0
  -19.4887    2.4475  -15.5154 N   0  0  0  0  0  0  0  0  0  0  0  0
  -19.4387    3.3483  -15.9740 H   0  0  0  0  0  0  0  0  0  0  0  0
  -18.2503    1.9634  -15.0750 C   0  0  0  0  0  0  0  0  0  0  0  0
  -18.0364    1.3875  -13.8318 C   0  0  0  0  0  0  0  0  0  0  0  0
  -16.7675    0.9142  -13.4781 C   0  0  0  0  0  0  0  0  0  0  0  0
  -15.6513    0.9891  -14.3413 C   0  0  0  0  0  0  0  0  0  0  0  0
  -15.8756    1.6198  -15.5949 C   0  0  0  0  0  0  0  0  0  0  0  0
  -17.1694    2.0566  -15.9437 C   0  0  0  0  0  0  0  0  0  0  0  0
  -14.4396    0.3834  -13.9806 N   0  0  0  0  0  0  0  0  0  0  0  0
  -13.3458    1.2180  -13.4448 C   0  0  0  0  0  0  0  0  0  0  0  0
  -11.9946    0.4835  -13.6386 C   0  0  0  0  0  0  0  0  0  0  0  0
  -11.9804   -0.8288  -12.9567 N   0  0  0  0  0  0  0  0  0  0  0  0
  -10.6967   -1.5004  -13.1266 C   0  0  0  0  0  0  0  0  0  0  0  0
  -13.0805   -1.6513  -13.5021 C   0  0  0  0  0  0  0  0  0  0  0  0
  -14.4551   -0.9610  -13.3471 C   0  0  0  0  0  0  0  0  0  0  0  0
  -14.8319    1.7571  -16.4982 O   0  0  0  0  0  0  0  0  0  0  0  0
  -14.6708    3.0847  -17.0186 C   0  0  0  0  0  0  0  0  0  0  0  0
  -13.9519    4.0156  -16.0605 C   0  0  0  0  0  0  0  0  0  0  0  0
  -12.7547    3.9430  -15.8194 O   0  0  0  0  0  0  0  0  0  0  0  0
  -14.7657    4.9322  -15.4876 O   0  0  0  0  0  0  0  0  0  0  0  0
  -15.6830    4.7910  -15.8095 H   0  0  0  0  0  0  0  0  0  0  0  0
 20 21  1  0  0  0
 21 18  1  0  0  0
 18 15  1  0  0  0
 18 19  1  0  0  0
 15 16  2  0  0  0
 15 17  2  0  0  0
 15  9  1  0  0  0
  9 10  1  0  0  0
  9 14  2  0  0  0
 10 11  2  0  0  0
 11 12  1  0  0  0
 12 13  2  0  0  0
 13 14  1  0  0  0
 14  7  1  0  0  0
  7  1  1  0  0  0
  7  8  1  0  0  0
  1  2  1  0  0  0
  1  6  2  0  0  0
  2  3  2  0  0  0
  3  4  1  0  0  0
  4  5  2  0  0  0
  5 22  1  0  0  0
  5  6  1  0  0  0
 22 24  1  0  0  0
 22 23  1  0  0  0
 24 25  1  0  0  0
 24 29  2  0  0  0
 25 26  2  0  0  0
 26 27  1  0  0  0
 27 30  1  0  0  0
 27 28  2  0  0  0
 30 31  1  0  0  0
 30 36  1  0  0  0
 31 32  1  0  0  0
 32 33  1  0  0  0
 33 34  1  0  0  0
 33 35  1  0  0  0
 35 36  1  0  0  0
 28 37  1  0  0  0
 28 29  1  0  0  0
 37 38  1  0  0  0
 38 39  1  0  0  0
 39 40  2  0  0  0
 39 41  1  0  0  0
 41 42  1  0  0  0
M  END
> <minimizedAffinity>
-8.29667

$$$$
