CHEMBL4535949


 38 41  0  0  0  0  0  0  0  0999 V2000
  -29.4179   -7.3014   -7.6792 C   0  0  0  0  0  0  0  0  0  0  0  0
  -28.9699   -6.2791   -6.8486 C   0  0  0  0  0  0  0  0  0  0  0  0
  -29.7434   -5.7991   -5.7771 C   0  0  0  0  0  0  0  0  0  0  0  0
  -29.3478   -4.7308   -4.9616 C   0  0  0  0  0  0  0  0  0  0  0  0
  -30.0815   -4.3369   -3.9047 N   0  0  0  0  0  0  0  0  0  0  0  0
  -31.2227   -4.9983   -3.6965 C   0  0  0  0  0  0  0  0  0  0  0  0
  -31.7035   -6.0078   -4.4321 N   0  0  0  0  0  0  0  0  0  0  0  0
  -30.9615   -6.4125   -5.4690 C   0  0  0  0  0  0  0  0  0  0  0  0
  -31.3782   -7.4811   -6.2648 C   0  0  0  0  0  0  0  0  0  0  0  0
  -30.6185   -7.9550   -7.3507 C   0  0  0  0  0  0  0  0  0  0  0  0
  -27.8301   -8.8364   -8.6236 C   0  0  0  0  0  0  0  0  0  0  0  0
  -28.6947   -7.7109   -8.7599 O   0  0  0  0  0  0  0  0  0  0  0  0
  -28.1644   -4.0075   -5.2875 N   0  0  0  0  0  0  0  0  0  0  0  0
  -27.6257   -4.5531   -5.9632 H   0  0  0  0  0  0  0  0  0  0  0  0
  -28.1194   -2.6292   -5.5968 C   0  0  0  0  0  0  0  0  0  0  0  0
  -28.0725   -1.6867   -4.5575 C   0  0  0  0  0  0  0  0  0  0  0  0
  -28.0601   -0.3211   -4.8329 C   0  0  0  0  0  0  0  0  0  0  0  0
  -28.0782    0.1093   -6.1527 C   0  0  0  0  0  0  0  0  0  0  0  0
  -28.0967    1.4225   -6.4139 F   0  0  0  0  0  0  0  0  0  0  0  0
  -28.0749   -0.7973   -7.2052 C   0  0  0  0  0  0  0  0  0  0  0  0
  -28.0818   -2.1642   -6.9251 C   0  0  0  0  0  0  0  0  0  0  0  0
  -28.0694   -3.2779   -8.2488 Cl  0  0  0  0  0  0  0  0  0  0  0  0
  -31.1737   -9.0286   -8.0186 O   0  0  0  0  0  0  0  0  0  0  0  0
  -32.4319   -9.4726   -7.4990 C   0  0  0  0  0  0  0  0  0  0  0  0
  -32.3817  -10.9359   -7.0446 C   0  0  0  0  0  0  0  0  0  0  0  0
  -31.6032  -11.0757   -5.8131 N   0  0  0  0  0  0  0  0  0  0  0  0
  -30.3151  -11.5719   -5.8415 C   0  0  0  0  0  0  0  0  0  0  0  0
  -29.7130  -11.7782   -6.8941 O   0  0  0  0  0  0  0  0  0  0  0  0
  -32.1176  -11.0853   -4.9405 H   0  0  0  0  0  0  0  0  0  0  0  0
  -29.6803  -11.8527   -4.4971 C   0  0  0  0  0  0  0  0  0  0  0  0
  -28.7024  -10.8366   -4.1649 N   0  0  0  0  0  0  0  0  0  0  0  0
  -28.9039   -9.4958   -4.0104 C   0  0  0  0  0  0  0  0  0  0  0  0
  -27.7729   -8.9059   -3.6947 N   0  0  0  0  0  0  0  0  0  0  0  0
  -26.8873   -9.9562   -3.6621 C   0  0  0  0  0  0  0  0  0  0  0  0
  -27.4130  -11.1675   -3.9299 N   0  0  0  0  0  0  0  0  0  0  0  0
  -25.4684   -9.7841   -3.3799 N   0  0  0  0  0  0  0  0  0  0  0  0
  -24.8647  -10.7545   -2.8943 O   0  0  0  0  0  0  0  0  0  0  0  0
  -24.9534   -8.6829   -3.6355 O   0  0  0  0  0  0  0  0  0  0  0  0
 11 12  1  0  0  0
 12  1  1  0  0  0
  1  2  1  0  0  0
  1 10  2  0  0  0
  2  3  2  0  0  0
  3  4  1  0  0  0
  3  8  1  0  0  0
  4 13  1  0  0  0
  4  5  2  0  0  0
 13 15  1  0  0  0
 13 14  1  0  0  0
 15 16  1  0  0  0
 15 21  2  0  0  0
 16 17  2  0  0  0
 17 18  1  0  0  0
 18 19  1  0  0  0
 18 20  2  0  0  0
 20 21  1  0  0  0
 21 22  1  0  0  0
  5  6  1  0  0  0
  6  7  2  0  0  0
  7  8  1  0  0  0
  8  9  2  0  0  0
  9 10  1  0  0  0
 10 23  1  0  0  0
 23 24  1  0  0  0
 24 25  1  0  0  0
 25 26  1  0  0  0
 26 27  1  0  0  0
 26 29  1  0  0  0
 27 28  2  0  0  0
 27 30  1  0  0  0
 30 31  1  0  0  0
 31 32  1  0  0  0
 31 35  1  0  0  0
 32 33  2  0  0  0
 33 34  1  0  0  0
 34 36  1  0  0  0
 34 35  2  0  0  0
 36 37  2  0  0  0
 36 38  1  0  0  0
M  CHG 1  36   1
M  CHG 1  38  -1
M  END
> <minimizedAffinity>
-8.18391

$$$$
