CHEMBL369360


 34 38  0  0  0  0  0  0  0  0999 V2000
  -13.6935   -1.3363  -13.4028 C   0  0  0  0  0  0  0  0  0  0  0  0
  -13.5102   -2.7109  -13.3591 C   0  0  0  0  0  0  0  0  0  0  0  0
  -14.4266   -3.5593  -12.7111 C   0  0  0  0  0  0  0  0  0  0  0  0
  -14.2214   -4.9315  -12.5498 C   0  0  0  0  0  0  0  0  0  0  0  0
  -15.1317   -5.7309  -11.9642 N   0  0  0  0  0  0  0  0  0  0  0  0
  -16.2541   -5.1399  -11.5443 C   0  0  0  0  0  0  0  0  0  0  0  0
  -16.5357   -3.8302  -11.6119 N   0  0  0  0  0  0  0  0  0  0  0  0
  -15.6215   -3.0443  -12.1961 C   0  0  0  0  0  0  0  0  0  0  0  0
  -15.8377   -1.6747  -12.3150 C   0  0  0  0  0  0  0  0  0  0  0  0
  -14.8981   -0.8072  -12.9106 C   0  0  0  0  0  0  0  0  0  0  0  0
  -11.4567   -0.4327  -13.2865 C   0  0  0  0  0  0  0  0  0  0  0  0
  -12.7391   -0.4969  -13.8957 O   0  0  0  0  0  0  0  0  0  0  0  0
  -12.9836   -5.4836  -12.9877 N   0  0  0  0  0  0  0  0  0  0  0  0
  -12.2840   -4.7429  -12.9896 H   0  0  0  0  0  0  0  0  0  0  0  0
  -12.4410   -6.6892  -12.5000 C   0  0  0  0  0  0  0  0  0  0  0  0
  -11.7272   -6.7928  -11.2901 C   0  0  0  0  0  0  0  0  0  0  0  0
  -11.6347   -5.4771  -10.1623 Cl  0  0  0  0  0  0  0  0  0  0  0  0
  -11.1333   -8.0060  -10.9001 C   0  0  0  0  0  0  0  0  0  0  0  0
  -11.2698   -9.1495  -11.6886 C   0  0  0  0  0  0  0  0  0  0  0  0
  -12.0355   -9.0541  -12.8278 C   0  0  0  0  0  0  0  0  0  0  0  0
  -12.6107   -7.8643  -13.2211 C   0  0  0  0  0  0  0  0  0  0  0  0
  -13.3337   -8.0029  -14.3725 O   0  0  0  0  0  0  0  0  0  0  0  0
  -13.1981   -9.4215  -14.6124 C   0  0  0  0  0  0  0  0  0  0  0  0
  -12.3141  -10.0754  -13.6808 O   0  0  0  0  0  0  0  0  0  0  0  0
  -15.3288    0.4963  -12.9453 O   0  0  0  0  0  0  0  0  0  0  0  0
  -15.5447    1.1192  -14.2093 C   0  0  0  0  0  0  0  0  0  0  0  0
  -16.8788    0.6752  -14.7932 C   0  0  0  0  0  0  0  0  0  0  0  0
  -18.0794    1.4606  -14.2735 C   0  0  0  0  0  0  0  0  0  0  0  0
  -19.0957    1.6510  -15.3266 N   0  0  0  0  0  0  0  0  0  0  0  0
  -19.6184    3.0361  -15.3176 C   0  0  0  0  0  0  0  0  0  0  0  0
  -20.6010    3.3363  -14.1686 C   0  0  0  0  0  0  0  0  0  0  0  0
  -21.6691    2.3820  -14.1014 O   0  0  0  0  0  0  0  0  0  0  0  0
  -21.1571    1.0467  -14.0104 C   0  0  0  0  0  0  0  0  0  0  0  0
  -20.2555    0.7364  -15.2127 C   0  0  0  0  0  0  0  0  0  0  0  0
 11 12  1  0  0  0
 12  1  1  0  0  0
  1  2  1  0  0  0
  1 10  2  0  0  0
  2  3  2  0  0  0
  3  4  1  0  0  0
  3  8  1  0  0  0
  4 13  1  0  0  0
  4  5  2  0  0  0
 13 15  1  0  0  0
 13 14  1  0  0  0
 15 16  1  0  0  0
 15 21  2  0  0  0
 16 17  1  0  0  0
 16 18  2  0  0  0
 18 19  1  0  0  0
 19 20  2  0  0  0
 20 21  1  0  0  0
 20 24  1  0  0  0
 21 22  1  0  0  0
 22 23  1  0  0  0
 23 24  1  0  0  0
  5  6  1  0  0  0
  6  7  2  0  0  0
  7  8  1  0  0  0
  8  9  2  0  0  0
  9 10  1  0  0  0
 10 25  1  0  0  0
 25 26  1  0  0  0
 26 27  1  0  0  0
 27 28  1  0  0  0
 28 29  1  0  0  0
 29 30  1  0  0  0
 29 34  1  0  0  0
 30 31  1  0  0  0
 31 32  1  0  0  0
 32 33  1  0  0  0
 33 34  1  0  0  0
M  END
> <minimizedAffinity>
-7.48303

$$$$
