CHEMBL3288522


 29 32  0  0  0  0  0  0  0  0999 V2000
  -30.0670   -3.3012   -4.3617 C   0  0  0  0  0  0  0  0  0  0  0  0
  -30.9700   -3.3577   -3.2848 C   0  0  0  0  0  0  0  0  0  0  0  0
  -31.7255   -4.5024   -3.0537 C   0  0  0  0  0  0  0  0  0  0  0  0
  -31.5814   -5.6064   -3.8887 C   0  0  0  0  0  0  0  0  0  0  0  0
  -30.6964   -5.5816   -4.9787 C   0  0  0  0  0  0  0  0  0  0  0  0
  -30.5780   -6.7149   -5.8141 C   0  0  0  0  0  0  0  0  0  0  0  0
  -29.7737   -6.7302   -6.9701 C   0  0  0  0  0  0  0  0  0  0  0  0
  -29.1031   -5.5445   -7.2659 C   0  0  0  0  0  0  0  0  0  0  0  0
  -29.1257   -4.4463   -6.3987 C   0  0  0  0  0  0  0  0  0  0  0  0
  -29.9388   -4.4154   -5.2458 C   0  0  0  0  0  0  0  0  0  0  0  0
  -29.6864   -7.9210   -7.8465 C   0  0  0  0  0  0  0  0  0  0  0  0
  -28.4885   -8.1894   -8.5622 C   0  0  0  0  0  0  0  0  0  0  0  0
  -28.3366   -9.2959   -9.3947 C   0  0  0  0  0  0  0  0  0  0  0  0
  -29.3697  -10.2110   -9.5425 C   0  0  0  0  0  0  0  0  0  0  0  0
  -30.5484   -9.9702   -8.8353 C   0  0  0  0  0  0  0  0  0  0  0  0
  -31.7011  -10.7008   -8.7748 N   0  0  0  0  0  0  0  0  0  0  0  0
  -32.6582  -10.1663   -8.0153 N   0  0  0  0  0  0  0  0  0  0  0  0
  -32.1128   -9.0444   -7.5579 C   0  0  0  0  0  0  0  0  0  0  0  0
  -32.8252   -8.2315   -6.7663 N   0  0  0  0  0  0  0  0  0  0  0  0
  -30.7608   -8.8571   -8.0070 C   0  0  0  0  0  0  0  0  0  0  0  0
  -31.8936  -11.5783   -9.2379 H   0  0  0  0  0  0  0  0  0  0  0  0
  -33.8010   -8.4692   -6.6417 H   0  0  0  0  0  0  0  0  0  0  0  0
  -32.6386   -7.2365   -6.7470 H   0  0  0  0  0  0  0  0  0  0  0  0
  -29.9569   -1.0742   -5.3880 N   0  0  0  0  0  0  0  0  0  0  0  0
  -29.3268   -2.0149   -4.5922 C   0  0  0  0  0  0  0  0  0  0  0  0
  -28.2167   -1.8186   -4.1127 O   0  0  0  0  0  0  0  0  0  0  0  0
  -30.9238   -1.2015   -5.6525 H   0  0  0  0  0  0  0  0  0  0  0  0
  -30.3552    1.3085   -5.8146 C   0  0  0  0  0  0  0  0  0  0  0  0
  -29.3298    0.1977   -5.6883 C   0  0  0  0  0  0  0  0  0  0  0  0
 28 29  1  0  0  0
 29 24  1  0  0  0
 24 25  1  0  0  0
 24 27  1  0  0  0
 25 26  2  0  0  0
 25  1  1  0  0  0
  1  2  1  0  0  0
  1 10  2  0  0  0
  2  3  2  0  0  0
  3  4  1  0  0  0
  4  5  2  0  0  0
  5  6  1  0  0  0
  5 10  1  0  0  0
  6  7  2  0  0  0
  7 11  1  0  0  0
  7  8  1  0  0  0
 11 12  1  0  0  0
 11 20  2  0  0  0
 12 13  2  0  0  0
 13 14  1  0  0  0
 14 15  2  0  0  0
 15 16  1  0  0  0
 15 20  1  0  0  0
 16 17  1  0  0  0
 16 21  1  0  0  0
 17 18  2  0  0  0
 18 19  1  0  0  0
 18 20  1  0  0  0
 19 22  1  0  0  0
 19 23  1  0  0  0
  8  9  2  0  0  0
  9 10  1  0  0  0
M  END
> <minimizedAffinity>
-10.32425

$$$$
