CHEMBL3221557


 32 34  0  0  0  0  0  0  0  0999 V2000
  -29.1719   -4.0306   -3.9983 C   0  0  0  0  0  0  0  0  0  0  0  0
  -27.9349   -4.6558   -4.2541 C   0  0  0  0  0  0  0  0  0  0  0  0
  -27.8416   -6.0461   -4.3401 C   0  0  0  0  0  0  0  0  0  0  0  0
  -28.9745   -6.8461   -4.1385 C   0  0  0  0  0  0  0  0  0  0  0  0
  -30.2214   -6.2163   -3.9383 C   0  0  0  0  0  0  0  0  0  0  0  0
  -30.3288   -4.8237   -3.8751 C   0  0  0  0  0  0  0  0  0  0  0  0
  -31.6766   -4.2135   -3.6084 C   0  0  0  0  0  0  0  0  0  0  0  0
  -29.4301   -1.7835   -4.9477 C   0  0  0  0  0  0  0  0  0  0  0  0
  -29.5391   -0.5815   -4.7557 O   0  0  0  0  0  0  0  0  0  0  0  0
  -29.2640   -2.6131   -3.8809 N   0  0  0  0  0  0  0  0  0  0  0  0
  -29.1491   -2.1862   -2.9489 H   0  0  0  0  0  0  0  0  0  0  0  0
  -29.3684   -2.2716   -6.2199 O   0  0  0  0  0  0  0  0  0  0  0  0
  -28.2746   -2.1624   -7.0622 C   0  0  0  0  0  0  0  0  0  0  0  0
  -28.2209   -3.2972   -8.1053 C   0  0  0  0  0  0  0  0  0  0  0  0
  -28.8406   -5.7450   -7.7160 C   0  0  0  0  0  0  0  0  0  0  0  0
  -29.3404   -4.3076   -7.8024 C   0  0  0  0  0  0  0  0  0  0  0  0
  -28.8318   -8.2703   -4.1311 N   0  0  0  0  0  0  0  0  0  0  0  0
  -29.4976   -8.7932   -3.5473 H   0  0  0  0  0  0  0  0  0  0  0  0
  -27.9685   -8.9916   -5.0261 C   0  0  0  0  0  0  0  0  0  0  0  0
  -26.6775   -9.2277   -4.6603 N   0  0  0  0  0  0  0  0  0  0  0  0
  -25.7958   -9.8790   -5.4503 C   0  0  0  0  0  0  0  0  0  0  0  0
  -26.1805  -10.3207   -6.6671 N   0  0  0  0  0  0  0  0  0  0  0  0
  -27.4484  -10.1058   -7.1165 C   0  0  0  0  0  0  0  0  0  0  0  0
  -27.8100  -10.5730   -8.3721 C   0  0  0  0  0  0  0  0  0  0  0  0
  -29.1108  -10.3719   -8.8870 C   0  0  0  0  0  0  0  0  0  0  0  0
  -30.0540   -9.6680   -8.0813 C   0  0  0  0  0  0  0  0  0  0  0  0
  -29.6771   -9.2183   -6.8132 C   0  0  0  0  0  0  0  0  0  0  0  0
  -28.3821   -9.4267   -6.3100 C   0  0  0  0  0  0  0  0  0  0  0  0
  -29.4419  -10.8460  -10.1218 O   0  0  0  0  0  0  0  0  0  0  0  0
  -28.9530  -10.3320  -11.3167 C   0  0  0  0  0  0  0  0  0  0  0  0
  -31.3367   -9.3707   -8.4226 O   0  0  0  0  0  0  0  0  0  0  0  0
  -32.4491   -9.1609   -7.6467 C   0  0  0  0  0  0  0  0  0  0  0  0
 15 16  1  0  0  0
 16 14  1  0  0  0
 14 13  1  0  0  0
 13 12  1  0  0  0
 12  8  1  0  0  0
  8  9  2  0  0  0
  8 10  1  0  0  0
 10  1  1  0  0  0
 10 11  1  0  0  0
  1  2  1  0  0  0
  1  6  2  0  0  0
  2  3  2  0  0  0
  3  4  1  0  0  0
  4 17  1  0  0  0
  4  5  2  0  0  0
 17 19  1  0  0  0
 17 18  1  0  0  0
 19 20  1  0  0  0
 19 28  2  0  0  0
 20 21  2  0  0  0
 21 22  1  0  0  0
 22 23  2  0  0  0
 23 24  1  0  0  0
 23 28  1  0  0  0
 24 25  2  0  0  0
 25 29  1  0  0  0
 25 26  1  0  0  0
 29 30  1  0  0  0
 26 31  1  0  0  0
 26 27  2  0  0  0
 31 32  1  0  0  0
 27 28  1  0  0  0
  5  6  1  0  0  0
  6  7  1  0  0  0
M  END
> <minimizedAffinity>
-7.39629

$$$$
