CHEMBL271188


 33 36  0  0  0  0  0  0  0  0999 V2000
  -14.2791    2.7297  -15.1188 C   0  0  0  0  0  0  0  0  0  0  0  0
  -15.1401    3.6004  -15.8055 C   0  0  0  0  0  0  0  0  0  0  0  0
  -16.4687    3.2462  -16.0200 C   0  0  0  0  0  0  0  0  0  0  0  0
  -16.9390    2.0130  -15.5742 C   0  0  0  0  0  0  0  0  0  0  0  0
  -16.1019    1.1164  -14.8896 C   0  0  0  0  0  0  0  0  0  0  0  0
  -16.5933   -0.1461  -14.4816 C   0  0  0  0  0  0  0  0  0  0  0  0
  -15.7793   -1.0536  -13.7969 C   0  0  0  0  0  0  0  0  0  0  0  0
  -14.4984   -0.6644  -13.4357 C   0  0  0  0  0  0  0  0  0  0  0  0
  -13.9881    0.5666  -13.8640 C   0  0  0  0  0  0  0  0  0  0  0  0
  -14.7573    1.4806  -14.6228 C   0  0  0  0  0  0  0  0  0  0  0  0
  -12.4759    4.0073  -14.0368 N   0  0  0  0  0  0  0  0  0  0  0  0
  -12.8300    3.1147  -15.0343 C   0  0  0  0  0  0  0  0  0  0  0  0
  -12.0132    2.6707  -15.8338 O   0  0  0  0  0  0  0  0  0  0  0  0
  -13.0913    4.1174  -13.2391 H   0  0  0  0  0  0  0  0  0  0  0  0
  -11.0730    4.3368  -13.8256 C   0  0  0  0  0  0  0  0  0  0  0  0
  -10.7872    5.8309  -13.9945 C   0  0  0  0  0  0  0  0  0  0  0  0
  -11.9188    7.6422  -14.9915 C   0  0  0  0  0  0  0  0  0  0  0  0
  -11.4704    6.3037  -15.1593 O   0  0  0  0  0  0  0  0  0  0  0  0
  -16.3329   -2.2888  -13.4925 O   0  0  0  0  0  0  0  0  0  0  0  0
  -15.8448   -2.9890  -12.3942 C   0  0  0  0  0  0  0  0  0  0  0  0
  -15.7959   -2.4059  -11.1306 C   0  0  0  0  0  0  0  0  0  0  0  0
  -15.4034   -3.2026  -10.0758 C   0  0  0  0  0  0  0  0  0  0  0  0
  -15.0352   -4.4974  -10.2066 N   0  0  0  0  0  0  0  0  0  0  0  0
  -15.0146   -5.0447  -11.4411 C   0  0  0  0  0  0  0  0  0  0  0  0
  -14.6724   -6.3895  -11.5943 C   0  0  0  0  0  0  0  0  0  0  0  0
  -14.6336   -7.0463  -12.8443 C   0  0  0  0  0  0  0  0  0  0  0  0
  -14.8999   -6.3034  -13.9960 C   0  0  0  0  0  0  0  0  0  0  0  0
  -15.2640   -4.9470  -13.8411 C   0  0  0  0  0  0  0  0  0  0  0  0
  -15.3714   -4.3154  -12.5810 C   0  0  0  0  0  0  0  0  0  0  0  0
  -14.6072   -8.4131  -12.7421 O   0  0  0  0  0  0  0  0  0  0  0  0
  -13.5244   -9.0116  -12.0443 C   0  0  0  0  0  0  0  0  0  0  0  0
  -14.9382   -6.6251  -15.3180 O   0  0  0  0  0  0  0  0  0  0  0  0
  -13.8378   -7.1938  -15.9877 C   0  0  0  0  0  0  0  0  0  0  0  0
 17 18  1  0  0  0
 18 16  1  0  0  0
 16 15  1  0  0  0
 15 11  1  0  0  0
 11 12  1  0  0  0
 11 14  1  0  0  0
 12 13  2  0  0  0
 12  1  1  0  0  0
  1  2  1  0  0  0
  1 10  2  0  0  0
  2  3  2  0  0  0
  3  4  1  0  0  0
  4  5  2  0  0  0
  5  6  1  0  0  0
  5 10  1  0  0  0
  6  7  2  0  0  0
  7 19  1  0  0  0
  7  8  1  0  0  0
 19 20  1  0  0  0
 20 21  1  0  0  0
 20 29  2  0  0  0
 21 22  2  0  0  0
 22 23  1  0  0  0
 23 24  2  0  0  0
 24 25  1  0  0  0
 24 29  1  0  0  0
 25 26  2  0  0  0
 26 30  1  0  0  0
 26 27  1  0  0  0
 30 31  1  0  0  0
 27 32  1  0  0  0
 27 28  2  0  0  0
 32 33  1  0  0  0
 28 29  1  0  0  0
  8  9  2  0  0  0
  9 10  1  0  0  0
M  END
> <minimizedAffinity>
-7.55868

$$$$
