CHEMBL2087167


 36 40  0  0  0  0  0  0  0  0999 V2000
  -28.6576   -7.1231   -5.7310 C   0  0  0  0  0  0  0  0  0  0  0  0
  -29.3457   -7.6151   -4.6048 C   0  0  0  0  0  0  0  0  0  0  0  0
  -29.9305   -6.7525   -3.6806 C   0  0  0  0  0  0  0  0  0  0  0  0
  -29.8432   -5.3980   -3.9270 C   0  0  0  0  0  0  0  0  0  0  0  0
  -29.2232   -4.8651   -5.0639 C   0  0  0  0  0  0  0  0  0  0  0  0
  -28.6494   -5.7343   -5.9816 C   0  0  0  0  0  0  0  0  0  0  0  0
  -29.3397   -3.3906   -4.9360 C   0  0  0  0  0  0  0  0  0  0  0  0
  -28.9844   -2.3943   -5.7811 C   0  0  0  0  0  0  0  0  0  0  0  0
  -30.0024   -3.1439   -3.5872 C   0  0  0  0  0  0  0  0  0  0  0  0
  -30.1703   -2.0991   -2.9881 O   0  0  0  0  0  0  0  0  0  0  0  0
  -30.3074   -4.3953   -3.0930 N   0  0  0  0  0  0  0  0  0  0  0  0
  -30.7395   -4.5310   -2.1925 H   0  0  0  0  0  0  0  0  0  0  0  0
  -28.3529   -2.6791   -7.0879 C   0  0  0  0  0  0  0  0  0  0  0  0
  -28.5812   -3.9092   -7.7241 C   0  0  0  0  0  0  0  0  0  0  0  0
  -28.0505   -4.1586   -8.9918 C   0  0  0  0  0  0  0  0  0  0  0  0
  -27.3002   -3.1757   -9.6347 C   0  0  0  0  0  0  0  0  0  0  0  0
  -27.0810   -1.9563   -9.0031 C   0  0  0  0  0  0  0  0  0  0  0  0
  -26.3718   -1.0080   -9.6294 F   0  0  0  0  0  0  0  0  0  0  0  0
  -27.5958   -1.6973   -7.7378 C   0  0  0  0  0  0  0  0  0  0  0  0
  -29.3158   -1.0392   -5.4777 C   0  0  0  0  0  0  0  0  0  0  0  0
  -30.3493   -0.3100   -5.8513 N   0  0  0  0  0  0  0  0  0  0  0  0
  -30.1264    0.9529   -5.3490 C   0  0  0  0  0  0  0  0  0  0  0  0
  -31.1172    2.0330   -5.5431 C   0  0  0  0  0  0  0  0  0  0  0  0
  -28.9121    1.0004   -4.7023 C   0  0  0  0  0  0  0  0  0  0  0  0
  -28.4149   -0.2714   -4.7769 N   0  0  0  0  0  0  0  0  0  0  0  0
  -27.5401   -0.5951   -4.3931 H   0  0  0  0  0  0  0  0  0  0  0  0
  -28.0310   -7.9657   -6.6649 N   0  0  0  0  0  0  0  0  0  0  0  0
  -28.1195   -7.5563   -7.5950 H   0  0  0  0  0  0  0  0  0  0  0  0
  -28.0093  -10.2851   -9.4710 N   0  0  0  0  0  0  0  0  0  0  0  0
  -26.8600   -9.9727   -8.6061 C   0  0  0  0  0  0  0  0  0  0  0  0
  -27.1916  -10.2648   -7.1470 C   0  0  0  0  0  0  0  0  0  0  0  0
  -28.3668   -9.4078   -6.6698 C   0  0  0  0  0  0  0  0  0  0  0  0
  -29.5528   -9.6650   -7.6063 C   0  0  0  0  0  0  0  0  0  0  0  0
  -29.1786   -9.4737   -9.0798 C   0  0  0  0  0  0  0  0  0  0  0  0
  -28.8887  -10.2446  -11.8214 C   0  0  0  0  0  0  0  0  0  0  0  0
  -27.6934  -10.0480  -10.8915 C   0  0  0  0  0  0  0  0  0  0  0  0
 35 36  1  0  0  0
 36 29  1  0  0  0
 29 30  1  0  0  0
 29 34  1  0  0  0
 30 31  1  0  0  0
 31 32  1  0  0  0
 32 27  1  0  0  0
 32 33  1  0  0  0
 27  1  1  0  0  0
 27 28  1  0  0  0
  1  2  1  0  0  0
  1  6  2  0  0  0
  2  3  2  0  0  0
  3  4  1  0  0  0
  4  5  2  0  0  0
  4 11  1  0  0  0
  5  6  1  0  0  0
  5  7  1  0  0  0
  7  8  2  0  0  0
  7  9  1  0  0  0
  8 13  1  0  0  0
  8 20  1  0  0  0
 13 14  1  0  0  0
 13 19  2  0  0  0
 14 15  2  0  0  0
 15 16  1  0  0  0
 16 17  2  0  0  0
 17 18  1  0  0  0
 17 19  1  0  0  0
 20 21  2  0  0  0
 20 25  1  0  0  0
 21 22  1  0  0  0
 22 23  1  0  0  0
 22 24  2  0  0  0
 24 25  1  0  0  0
 25 26  1  0  0  0
  9 10  2  0  0  0
  9 11  1  0  0  0
 11 12  1  0  0  0
 33 34  1  0  0  0
M  END
> <minimizedAffinity>
-7.25919

$$$$
