CHEMBL513169


 32 36  0  0  0  0  0  0  0  0999 V2000
  -13.1177    0.5607  -13.8159 C   0  0  0  0  0  0  0  0  0  0  0  0
  -11.8791   -0.0710  -13.6008 C   0  0  0  0  0  0  0  0  0  0  0  0
  -10.6969    0.4643  -14.0971 C   0  0  0  0  0  0  0  0  0  0  0  0
  -10.7442    1.6071  -14.8743 C   0  0  0  0  0  0  0  0  0  0  0  0
  -11.9693    2.2009  -15.1594 C   0  0  0  0  0  0  0  0  0  0  0  0
  -13.1875    1.6886  -14.6810 C   0  0  0  0  0  0  0  0  0  0  0  0
  -14.3493   -0.0548  -13.2083 C   0  0  0  0  0  0  0  0  0  0  0  0
  -15.0819    0.6404  -12.5027 O   0  0  0  0  0  0  0  0  0  0  0  0
  -15.6931   -6.1801  -13.8008 C   0  0  0  0  0  0  0  0  0  0  0  0
  -15.7416   -4.9069  -13.0054 C   0  0  0  0  0  0  0  0  0  0  0  0
  -16.2224   -4.9214  -11.6826 C   0  0  0  0  0  0  0  0  0  0  0  0
  -16.2983   -3.7585  -10.9231 C   0  0  0  0  0  0  0  0  0  0  0  0
  -15.8766   -2.5360  -11.4523 C   0  0  0  0  0  0  0  0  0  0  0  0
  -15.3339   -2.4809  -12.7561 C   0  0  0  0  0  0  0  0  0  0  0  0
  -14.7128   -1.4451  -13.5473 C   0  0  0  0  0  0  0  0  0  0  0  0
  -14.4514   -2.0148  -14.7820 C   0  0  0  0  0  0  0  0  0  0  0  0
  -14.8057   -3.3398  -14.7453 N   0  0  0  0  0  0  0  0  0  0  0  0
  -15.3101   -3.6618  -13.5033 C   0  0  0  0  0  0  0  0  0  0  0  0
  -14.6920   -3.9916  -15.5143 H   0  0  0  0  0  0  0  0  0  0  0  0
  -14.3997    2.3874  -14.9196 N   0  0  0  0  0  0  0  0  0  0  0  0
  -14.9444    2.4641  -14.0490 H   0  0  0  0  0  0  0  0  0  0  0  0
  -15.2420    1.9305  -16.0311 C   0  0  0  0  0  0  0  0  0  0  0  0
  -16.7002    1.9014  -15.6232 C   0  0  0  0  0  0  0  0  0  0  0  0
  -17.3316    0.6877  -15.3041 C   0  0  0  0  0  0  0  0  0  0  0  0
  -18.7074    0.6302  -15.0322 C   0  0  0  0  0  0  0  0  0  0  0  0
  -19.4478    1.8233  -15.0382 C   0  0  0  0  0  0  0  0  0  0  0  0
  -20.7986    2.1959  -14.8554 C   0  0  0  0  0  0  0  0  0  0  0  0
  -20.9793    3.5199  -14.8883 N   0  0  0  0  0  0  0  0  0  0  0  0
  -19.7385    3.9942  -15.1028 N   0  0  0  0  0  0  0  0  0  0  0  0
  -18.7941    3.0215  -15.2923 C   0  0  0  0  0  0  0  0  0  0  0  0
  -17.4421    3.0960  -15.6331 C   0  0  0  0  0  0  0  0  0  0  0  0
  -19.5926    4.9969  -15.0873 H   0  0  0  0  0  0  0  0  0  0  0  0
  9 10  1  0  0  0
 10 11  1  0  0  0
 10 18  2  0  0  0
 11 12  2  0  0  0
 12 13  1  0  0  0
 13 14  2  0  0  0
 14 15  1  0  0  0
 14 18  1  0  0  0
 15  7  1  0  0  0
 15 16  2  0  0  0
  7  8  2  0  0  0
  7  1  1  0  0  0
  1  2  1  0  0  0
  1  6  2  0  0  0
  2  3  2  0  0  0
  3  4  1  0  0  0
  4  5  2  0  0  0
  5  6  1  0  0  0
  6 20  1  0  0  0
 20 22  1  0  0  0
 20 21  1  0  0  0
 22 23  1  0  0  0
 23 24  1  0  0  0
 23 31  2  0  0  0
 24 25  2  0  0  0
 25 26  1  0  0  0
 26 27  1  0  0  0
 26 30  2  0  0  0
 27 28  2  0  0  0
 28 29  1  0  0  0
 29 30  1  0  0  0
 29 32  1  0  0  0
 30 31  1  0  0  0
 16 17  1  0  0  0
 17 18  1  0  0  0
 17 19  1  0  0  0
M  END
> <minimizedAffinity>
-8.96239

$$$$
