CHEMBL569882


 36 40  0  0  0  0  0  0  0  0999 V2000
  -29.5187   -7.2922   -5.8176 C   0  0  0  0  0  0  0  0  0  0  0  0
  -30.4248   -8.0314   -6.6321 C   0  0  0  0  0  0  0  0  0  0  0  0
  -31.6893   -7.4932   -7.2570 C   0  0  0  0  0  0  0  0  0  0  0  0
  -30.1907   -9.3932   -6.8752 C   0  0  0  0  0  0  0  0  0  0  0  0
  -29.0419  -10.0206   -6.4118 C   0  0  0  0  0  0  0  0  0  0  0  0
  -28.1060   -9.3346   -5.6233 C   0  0  0  0  0  0  0  0  0  0  0  0
  -26.9208   -9.9542   -5.1487 C   0  0  0  0  0  0  0  0  0  0  0  0
  -26.0551   -9.3320   -4.3167 N   0  0  0  0  0  0  0  0  0  0  0  0
  -26.3640   -8.1056   -3.8929 C   0  0  0  0  0  0  0  0  0  0  0  0
  -27.4938   -7.4284   -4.3042 C   0  0  0  0  0  0  0  0  0  0  0  0
  -28.3801   -7.9924   -5.2514 C   0  0  0  0  0  0  0  0  0  0  0  0
  -29.3321   -0.8323   -5.6186 C   0  0  0  0  0  0  0  0  0  0  0  0
  -28.4682   -1.2022   -6.5741 N   0  0  0  0  0  0  0  0  0  0  0  0
  -28.4065   -2.5191   -6.8459 C   0  0  0  0  0  0  0  0  0  0  0  0
  -29.1386   -3.4858   -6.1769 C   0  0  0  0  0  0  0  0  0  0  0  0
  -29.0838   -4.8701   -6.4459 C   0  0  0  0  0  0  0  0  0  0  0  0
  -29.6838   -5.8179   -5.5904 C   0  0  0  0  0  0  0  0  0  0  0  0
  -30.4194   -5.2948   -4.5165 C   0  0  0  0  0  0  0  0  0  0  0  0
  -30.5957   -3.9162   -4.3531 C   0  0  0  0  0  0  0  0  0  0  0  0
  -29.9400   -2.9954   -5.1524 C   0  0  0  0  0  0  0  0  0  0  0  0
  -30.0650   -1.6932   -4.8994 N   0  0  0  0  0  0  0  0  0  0  0  0
  -29.0662    1.3634   -6.4901 C   0  0  0  0  0  0  0  0  0  0  0  0
  -29.4184    0.5268   -5.3645 N   0  0  0  0  0  0  0  0  0  0  0  0
  -30.3274    0.6905   -4.9474 H   0  0  0  0  0  0  0  0  0  0  0  0
  -26.5965  -11.2769   -5.5651 N   0  0  0  0  0  0  0  0  0  0  0  0
  -27.4477  -11.8018   -5.7220 H   0  0  0  0  0  0  0  0  0  0  0  0
  -25.4689  -11.5320   -6.2868 C   0  0  0  0  0  0  0  0  0  0  0  0
  -24.1462  -11.3431   -5.9640 C   0  0  0  0  0  0  0  0  0  0  0  0
  -23.4003  -11.7573   -7.0875 C   0  0  0  0  0  0  0  0  0  0  0  0
  -24.2080  -12.2265   -8.0510 N   0  0  0  0  0  0  0  0  0  0  0  0
  -25.4537  -12.0713   -7.5481 N   0  0  0  0  0  0  0  0  0  0  0  0
  -26.5820  -12.4583   -8.3587 C   0  0  0  0  0  0  0  0  0  0  0  0
  -21.8921  -11.7240   -7.2753 C   0  0  0  0  0  0  0  0  0  0  0  0
  -21.3538  -10.2751   -7.3019 C   0  0  0  0  0  0  0  0  0  0  0  0
  -21.1993  -12.4658   -6.1177 C   0  0  0  0  0  0  0  0  0  0  0  0
  -21.5052  -12.3892   -8.6112 C   0  0  0  0  0  0  0  0  0  0  0  0
 22 23  1  0  0  0
 23 12  1  0  0  0
 23 24  1  0  0  0
 12 13  1  0  0  0
 12 21  2  0  0  0
 13 14  2  0  0  0
 14 15  1  0  0  0
 15 16  1  0  0  0
 15 20  2  0  0  0
 16 17  2  0  0  0
 17  1  1  0  0  0
 17 18  1  0  0  0
  1  2  1  0  0  0
  1 11  2  0  0  0
  2  3  1  0  0  0
  2  4  2  0  0  0
  4  5  1  0  0  0
  5  6  2  0  0  0
  6  7  1  0  0  0
  6 11  1  0  0  0
  7 25  1  0  0  0
  7  8  2  0  0  0
 25 27  1  0  0  0
 25 26  1  0  0  0
 27 28  2  0  0  0
 27 31  1  0  0  0
 28 29  1  0  0  0
 29 33  1  0  0  0
 29 30  2  0  0  0
 33 34  1  0  0  0
 33 35  1  0  0  0
 33 36  1  0  0  0
 30 31  1  0  0  0
 31 32  1  0  0  0
  8  9  1  0  0  0
  9 10  2  0  0  0
 10 11  1  0  0  0
 18 19  2  0  0  0
 19 20  1  0  0  0
 20 21  1  0  0  0
M  END
> <minimizedAffinity>
-8.40205

$$$$
