CHEMBL513495


 32 36  0  0  0  0  0  0  0  0999 V2000
  -15.4965    1.1282  -15.8104 C   0  0  0  0  0  0  0  0  0  0  0  0
  -15.3540    1.2721  -17.1990 C   0  0  0  0  0  0  0  0  0  0  0  0
  -14.1656    1.7714  -17.7214 C   0  0  0  0  0  0  0  0  0  0  0  0
  -13.1419    2.1578  -16.8609 C   0  0  0  0  0  0  0  0  0  0  0  0
  -13.2516    1.9379  -15.4847 C   0  0  0  0  0  0  0  0  0  0  0  0
  -14.4115    1.3691  -14.9426 C   0  0  0  0  0  0  0  0  0  0  0  0
  -17.0789   -0.0475  -14.5290 O   0  0  0  0  0  0  0  0  0  0  0  0
  -16.8450    0.9554  -15.2135 C   0  0  0  0  0  0  0  0  0  0  0  0
  -17.8635    1.9626  -15.3605 C   0  0  0  0  0  0  0  0  0  0  0  0
  -17.6154    3.3255  -15.3359 C   0  0  0  0  0  0  0  0  0  0  0  0
  -18.8350    3.9237  -15.4233 N   0  0  0  0  0  0  0  0  0  0  0  0
  -19.7616    3.0541  -14.9059 C   0  0  0  0  0  0  0  0  0  0  0  0
  -20.9447    3.2483  -14.1918 C   0  0  0  0  0  0  0  0  0  0  0  0
  -21.6897    2.0986  -13.9071 C   0  0  0  0  0  0  0  0  0  0  0  0
  -21.3310    0.8606  -14.4458 C   0  0  0  0  0  0  0  0  0  0  0  0
  -22.3466   -0.5055  -14.1751 Cl  0  0  0  0  0  0  0  0  0  0  0  0
  -20.1292    0.6845  -15.1337 C   0  0  0  0  0  0  0  0  0  0  0  0
  -19.2734    1.7911  -15.2306 C   0  0  0  0  0  0  0  0  0  0  0  0
  -19.0218    4.8606  -15.7630 H   0  0  0  0  0  0  0  0  0  0  0  0
  -14.4337    0.8999  -13.5970 N   0  0  0  0  0  0  0  0  0  0  0  0
  -14.3328    1.6943  -12.9590 H   0  0  0  0  0  0  0  0  0  0  0  0
  -13.4878   -0.1289  -13.2104 C   0  0  0  0  0  0  0  0  0  0  0  0
  -14.0438   -1.5387  -13.3315 C   0  0  0  0  0  0  0  0  0  0  0  0
  -13.6712   -2.3080  -14.4399 C   0  0  0  0  0  0  0  0  0  0  0  0
  -14.1921   -3.5923  -14.6113 C   0  0  0  0  0  0  0  0  0  0  0  0
  -15.0870   -4.1467  -13.7114 C   0  0  0  0  0  0  0  0  0  0  0  0
  -15.5818   -5.3765  -13.9476 N   0  0  0  0  0  0  0  0  0  0  0  0
  -16.4499   -5.8873  -13.0419 C   0  0  0  0  0  0  0  0  0  0  0  0
  -16.8495   -5.2313  -11.8976 C   0  0  0  0  0  0  0  0  0  0  0  0
  -16.3354   -3.9626  -11.6605 C   0  0  0  0  0  0  0  0  0  0  0  0
  -15.4388   -3.3916  -12.5780 C   0  0  0  0  0  0  0  0  0  0  0  0
  -14.9081   -2.1036  -12.3912 C   0  0  0  0  0  0  0  0  0  0  0  0
  7  8  2  0  0  0
  8  1  1  0  0  0
  8  9  1  0  0  0
  1  2  1  0  0  0
  1  6  2  0  0  0
  2  3  2  0  0  0
  3  4  1  0  0  0
  4  5  2  0  0  0
  5  6  1  0  0  0
  6 20  1  0  0  0
 20 22  1  0  0  0
 20 21  1  0  0  0
 22 23  1  0  0  0
 23 24  1  0  0  0
 23 32  2  0  0  0
 24 25  2  0  0  0
 25 26  1  0  0  0
 26 27  1  0  0  0
 26 31  2  0  0  0
 27 28  2  0  0  0
 28 29  1  0  0  0
 29 30  2  0  0  0
 30 31  1  0  0  0
 31 32  1  0  0  0
  9 10  2  0  0  0
  9 18  1  0  0  0
 10 11  1  0  0  0
 11 12  1  0  0  0
 11 19  1  0  0  0
 12 13  1  0  0  0
 12 18  2  0  0  0
 13 14  2  0  0  0
 14 15  1  0  0  0
 15 16  1  0  0  0
 15 17  2  0  0  0
 17 18  1  0  0  0
M  END
> <minimizedAffinity>
-9.43457

$$$$
