CHEMBL2001539


 13 15  0  0  0  0  0  0  0  0999 V2000
  -20.9312    2.6926  -15.0412 C   0  0  0  0  0  0  0  0  0  0  0  0
  -19.8963    3.5771  -15.2795 C   0  0  0  0  0  0  0  0  0  0  0  0
  -18.6570    2.9008  -15.3256 C   0  0  0  0  0  0  0  0  0  0  0  0
  -18.7662    1.5443  -15.0911 C   0  0  0  0  0  0  0  0  0  0  0  0
  -20.3829    1.0761  -14.8452 S   0  0  0  0  0  0  0  0  0  0  0  0
  -17.6001    0.5867  -14.9854 C   0  0  0  0  0  0  0  0  0  0  0  0
  -16.3842    1.0743  -15.8144 C   0  0  0  0  0  0  0  0  0  0  0  0
  -16.2393    2.5610  -15.7696 C   0  0  0  0  0  0  0  0  0  0  0  0
  -15.1389    3.4171  -15.9561 C   0  0  0  0  0  0  0  0  0  0  0  0
  -15.4818    4.7107  -15.8940 N   0  0  0  0  0  0  0  0  0  0  0  0
  -16.8155    4.6817  -15.6768 N   0  0  0  0  0  0  0  0  0  0  0  0
  -17.2987    3.4197  -15.5763 C   0  0  0  0  0  0  0  0  0  0  0  0
  -17.3144    5.5605  -15.5879 H   0  0  0  0  0  0  0  0  0  0  0  0
  1  2  2  0  0  0
  1  5  1  0  0  0
  2  3  1  0  0  0
  3  4  2  0  0  0
  3 12  1  0  0  0
  4  5  1  0  0  0
  4  6  1  0  0  0
  6  7  1  0  0  0
  7  8  1  0  0  0
  8  9  1  0  0  0
  8 12  2  0  0  0
  9 10  2  0  0  0
 10 11  1  0  0  0
 11 12  1  0  0  0
 11 13  1  0  0  0
M  END
> <minimizedAffinity>
-6.02735

$$$$
