CHEMBL602703


 41 45  0  0  0  0  0  0  0  0999 V2000
  -29.8898   -7.3055   -6.2961 C   0  0  0  0  0  0  0  0  0  0  0  0
  -29.7699   -6.6382   -7.5135 C   0  0  0  0  0  0  0  0  0  0  0  0
  -29.7092   -5.2384   -7.5458 C   0  0  0  0  0  0  0  0  0  0  0  0
  -29.7765   -4.4821   -6.3683 C   0  0  0  0  0  0  0  0  0  0  0  0
  -29.9238   -5.1688   -5.1638 C   0  0  0  0  0  0  0  0  0  0  0  0
  -29.9279   -6.5554   -5.1242 C   0  0  0  0  0  0  0  0  0  0  0  0
  -29.9746   -7.1323   -3.9162 F   0  0  0  0  0  0  0  0  0  0  0  0
  -29.5721   -3.1184   -6.4202 N   0  0  0  0  0  0  0  0  0  0  0  0
  -30.3743   -2.5006   -6.5184 H   0  0  0  0  0  0  0  0  0  0  0  0
  -28.2260   -2.4913   -6.3393 C   0  0  0  0  0  0  0  0  0  0  0  0
  -27.9028   -1.9504   -4.9221 C   0  0  0  0  0  0  0  0  0  0  0  0
  -27.6953   -2.9761   -4.0543 F   0  0  0  0  0  0  0  0  0  0  0  0
  -26.7795   -1.2002   -4.9163 F   0  0  0  0  0  0  0  0  0  0  0  0
  -28.9101   -1.2115   -4.4052 F   0  0  0  0  0  0  0  0  0  0  0  0
  -28.1299   -1.3917   -7.4149 C   0  0  0  0  0  0  0  0  0  0  0  0
  -27.6367   -1.9810   -8.7160 C   0  0  0  0  0  0  0  0  0  0  0  0
  -27.2503   -3.1453   -8.7674 O   0  0  0  0  0  0  0  0  0  0  0  0
  -27.6488   -1.0864   -9.7755 N   0  0  0  0  0  0  0  0  0  0  0  0
  -27.6534   -0.1016   -9.5414 H   0  0  0  0  0  0  0  0  0  0  0  0
  -27.0742   -1.4308  -11.0172 C   0  0  0  0  0  0  0  0  0  0  0  0
  -25.6952   -1.3623  -11.2329 C   0  0  0  0  0  0  0  0  0  0  0  0
  -25.1733   -1.5515  -12.5136 C   0  0  0  0  0  0  0  0  0  0  0  0
  -26.0297   -1.8088  -13.5791 C   0  0  0  0  0  0  0  0  0  0  0  0
  -27.3992   -1.9383  -13.3503 C   0  0  0  0  0  0  0  0  0  0  0  0
  -27.9266   -1.7695  -12.0743 C   0  0  0  0  0  0  0  0  0  0  0  0
  -29.8916   -8.6773   -6.3566 O   0  0  0  0  0  0  0  0  0  0  0  0
  -25.6482  -10.4535   -6.5326 C   0  0  0  0  0  0  0  0  0  0  0  0
  -25.9076  -10.7301   -7.8553 C   0  0  0  0  0  0  0  0  0  0  0  0
  -27.2423  -10.3956   -8.2280 C   0  0  0  0  0  0  0  0  0  0  0  0
  -27.7804  -10.5852   -9.4632 N   0  0  0  0  0  0  0  0  0  0  0  0
  -29.0289  -10.1155   -9.6317 C   0  0  0  0  0  0  0  0  0  0  0  0
  -29.7663   -9.4475   -8.6741 C   0  0  0  0  0  0  0  0  0  0  0  0
  -29.2451   -9.3231   -7.3868 C   0  0  0  0  0  0  0  0  0  0  0  0
  -27.9454   -9.8086   -7.1767 C   0  0  0  0  0  0  0  0  0  0  0  0
  -27.0070   -9.8049   -5.7366 S   0  0  0  0  0  0  0  0  0  0  0  0
  -22.0799  -11.2591   -3.1648 C   0  0  0  0  0  0  0  0  0  0  0  0
  -22.7722  -11.0277   -4.4060 N   0  0  0  0  0  0  0  0  0  0  0  0
  -22.2407  -11.0844   -5.6605 C   0  0  0  0  0  0  0  0  0  0  0  0
  -23.1653  -10.9094   -6.5794 N   0  0  0  0  0  0  0  0  0  0  0  0
  -24.3317  -10.6959   -5.8832 C   0  0  0  0  0  0  0  0  0  0  0  0
  -24.1031  -10.7503   -4.5259 C   0  0  0  0  0  0  0  0  0  0  0  0
 36 37  1  0  0  0
 37 38  1  0  0  0
 37 41  1  0  0  0
 38 39  2  0  0  0
 39 40  1  0  0  0
 40 27  1  0  0  0
 40 41  2  0  0  0
 27 28  2  0  0  0
 27 35  1  0  0  0
 28 29  1  0  0  0
 29 30  1  0  0  0
 29 34  2  0  0  0
 30 31  2  0  0  0
 31 32  1  0  0  0
 32 33  2  0  0  0
 33 26  1  0  0  0
 33 34  1  0  0  0
 26  1  1  0  0  0
  1  2  1  0  0  0
  1  6  2  0  0  0
  2  3  2  0  0  0
  3  4  1  0  0  0
  4  8  1  0  0  0
  4  5  2  0  0  0
  8 10  1  0  0  0
  8  9  1  0  0  0
 10 15  1  0  0  0
 10 11  1  0  0  0
 15 16  1  0  0  0
 16 17  2  0  0  0
 16 18  1  0  0  0
 18 20  1  0  0  0
 18 19  1  0  0  0
 20 21  1  0  0  0
 20 25  2  0  0  0
 21 22  2  0  0  0
 22 23  1  0  0  0
 23 24  2  0  0  0
 24 25  1  0  0  0
 11 12  1  0  0  0
 11 13  1  0  0  0
 11 14  1  0  0  0
  5  6  1  0  0  0
  6  7  1  0  0  0
 34 35  1  0  0  0
M  END
> <minimizedAffinity>
-9.83188

$$$$
