CHEMBL3612230


 29 32  0  0  0  0  0  0  0  0999 V2000
  -13.9047    0.3040  -14.4336 C   0  0  0  0  0  0  0  0  0  0  0  0
  -12.9417    1.1583  -13.8878 C   0  0  0  0  0  0  0  0  0  0  0  0
  -11.7940    0.6498  -13.2781 C   0  0  0  0  0  0  0  0  0  0  0  0
  -11.6054   -0.7247  -13.1871 C   0  0  0  0  0  0  0  0  0  0  0  0
  -12.5752   -1.5955  -13.6890 C   0  0  0  0  0  0  0  0  0  0  0  0
  -13.7129   -1.0799  -14.3257 C   0  0  0  0  0  0  0  0  0  0  0  0
  -16.4355    1.1685  -13.2472 O   0  0  0  0  0  0  0  0  0  0  0  0
  -16.2750    1.1120  -14.4603 C   0  0  0  0  0  0  0  0  0  0  0  0
  -17.2759    1.3534  -15.3913 N   0  0  0  0  0  0  0  0  0  0  0  0
  -15.0834    0.7573  -15.0752 N   0  0  0  0  0  0  0  0  0  0  0  0
  -17.0756    1.1062  -16.3481 H   0  0  0  0  0  0  0  0  0  0  0  0
  -15.0273    0.8853  -16.0739 H   0  0  0  0  0  0  0  0  0  0  0  0
  -18.6293    1.6384  -15.0891 C   0  0  0  0  0  0  0  0  0  0  0  0
  -19.0883    2.9062  -14.7123 C   0  0  0  0  0  0  0  0  0  0  0  0
  -20.4190    3.1022  -14.3357 C   0  0  0  0  0  0  0  0  0  0  0  0
  -21.3000    2.0347  -14.3519 C   0  0  0  0  0  0  0  0  0  0  0  0
  -22.5667    2.2136  -13.9593 F   0  0  0  0  0  0  0  0  0  0  0  0
  -20.8793    0.7757  -14.7652 C   0  0  0  0  0  0  0  0  0  0  0  0
  -19.5465    0.5792  -15.1436 C   0  0  0  0  0  0  0  0  0  0  0  0
  -12.3463   -3.3573  -13.5425 S   0  0  0  0  0  0  0  0  0  0  0  0
  -13.4426   -3.7417  -12.1934 C   0  0  0  0  0  0  0  0  0  0  0  0
  -13.0595   -3.5477  -10.8654 C   0  0  0  0  0  0  0  0  0  0  0  0
  -13.9256   -3.9148   -9.8544 C   0  0  0  0  0  0  0  0  0  0  0  0
  -15.1384   -4.4624  -10.0358 N   0  0  0  0  0  0  0  0  0  0  0  0
  -15.5147   -4.6554  -11.3280 C   0  0  0  0  0  0  0  0  0  0  0  0
  -16.7580   -5.2300  -11.7235 C   0  0  0  0  0  0  0  0  0  0  0  0
  -16.8909   -5.3088  -13.0892 C   0  0  0  0  0  0  0  0  0  0  0  0
  -15.5190   -4.6980  -13.8993 S   0  0  0  0  0  0  0  0  0  0  0  0
  -14.7109   -4.3126  -12.4203 C   0  0  0  0  0  0  0  0  0  0  0  0
  7  8  2  0  0  0
  8  9  1  0  0  0
  8 10  1  0  0  0
  9 13  1  0  0  0
  9 11  1  0  0  0
 13 14  1  0  0  0
 13 19  2  0  0  0
 14 15  2  0  0  0
 15 16  1  0  0  0
 16 17  1  0  0  0
 16 18  2  0  0  0
 18 19  1  0  0  0
 10  1  1  0  0  0
 10 12  1  0  0  0
  1  2  1  0  0  0
  1  6  2  0  0  0
  2  3  2  0  0  0
  3  4  1  0  0  0
  4  5  2  0  0  0
  5 20  1  0  0  0
  5  6  1  0  0  0
 20 21  1  0  0  0
 21 22  1  0  0  0
 21 29  2  0  0  0
 22 23  2  0  0  0
 23 24  1  0  0  0
 24 25  2  0  0  0
 25 26  1  0  0  0
 25 29  1  0  0  0
 26 27  2  0  0  0
 27 28  1  0  0  0
 28 29  1  0  0  0
M  END
> <minimizedAffinity>
-8.63092

$$$$
