CHEMBL1964399


 34 36  0  0  0  0  0  0  0  0999 V2000
  -28.1238   -2.1972   -8.4308 C   0  0  0  0  0  0  0  0  0  0  0  0
  -27.6114   -1.7010   -7.2976 N   0  0  0  0  0  0  0  0  0  0  0  0
  -27.7855   -2.4322   -6.1806 C   0  0  0  0  0  0  0  0  0  0  0  0
  -28.4463   -3.6352   -6.1503 C   0  0  0  0  0  0  0  0  0  0  0  0
  -28.9232   -4.0790   -7.3588 C   0  0  0  0  0  0  0  0  0  0  0  0
  -28.7519   -3.3788   -8.4879 N   0  0  0  0  0  0  0  0  0  0  0  0
  -28.0329   -1.3716   -9.5562 N   0  0  0  0  0  0  0  0  0  0  0  0
  -28.9223   -0.9056   -9.6700 H   0  0  0  0  0  0  0  0  0  0  0  0
  -25.6508   -1.7678  -13.0542 C   0  0  0  0  0  0  0  0  0  0  0  0
  -27.0434   -1.7620  -13.1417 C   0  0  0  0  0  0  0  0  0  0  0  0
  -27.8334   -1.6525  -11.9949 C   0  0  0  0  0  0  0  0  0  0  0  0
  -27.2681   -1.5302  -10.7279 C   0  0  0  0  0  0  0  0  0  0  0  0
  -25.8726   -1.6006  -10.6367 C   0  0  0  0  0  0  0  0  0  0  0  0
  -25.0600   -1.6932  -11.7829 C   0  0  0  0  0  0  0  0  0  0  0  0
  -25.1828   -1.1395  -15.2976 C   0  0  0  0  0  0  0  0  0  0  0  0
  -24.8485   -1.9184  -14.1535 O   0  0  0  0  0  0  0  0  0  0  0  0
  -23.7180   -1.7337  -11.4952 O   0  0  0  0  0  0  0  0  0  0  0  0
  -22.9346   -0.6512  -11.9843 C   0  0  0  0  0  0  0  0  0  0  0  0
  -29.6441   -5.2771   -7.5230 N   0  0  0  0  0  0  0  0  0  0  0  0
  -30.5963   -4.9701   -7.3047 H   0  0  0  0  0  0  0  0  0  0  0  0
  -29.2589   -6.4539   -7.0904 C   0  0  0  0  0  0  0  0  0  0  0  0
  -28.8414   -7.6521   -7.6108 C   0  0  0  0  0  0  0  0  0  0  0  0
  -28.4934   -8.1653   -6.2632 C   0  0  0  0  0  0  0  0  0  0  0  0
  -28.0155   -9.1518   -5.7538 O   0  0  0  0  0  0  0  0  0  0  0  0
  -29.0284   -6.9051   -5.6983 C   0  0  0  0  0  0  0  0  0  0  0  0
  -29.1376   -6.4942   -4.5686 O   0  0  0  0  0  0  0  0  0  0  0  0
  -28.6566   -8.1947   -8.8060 N   0  0  0  0  0  0  0  0  0  0  0  0
  -27.8085   -7.9128   -9.3008 H   0  0  0  0  0  0  0  0  0  0  0  0
  -28.8835   -9.6506   -9.0292 C   0  0  0  0  0  0  0  0  0  0  0  0
  -30.4013   -9.8651   -9.1055 C   0  0  0  0  0  0  0  0  0  0  0  0
  -28.1044  -10.1874  -10.2947 C   0  0  0  0  0  0  0  0  0  0  0  0
  -27.6211  -11.6335  -10.0576 C   0  0  0  0  0  0  0  0  0  0  0  0
  -29.0284  -10.2286  -11.5348 C   0  0  0  0  0  0  0  0  0  0  0  0
  -26.8796   -9.3229  -10.6599 C   0  0  0  0  0  0  0  0  0  0  0  0
 15 16  1  0  0  0
 16  9  1  0  0  0
  9 10  1  0  0  0
  9 14  2  0  0  0
 10 11  2  0  0  0
 11 12  1  0  0  0
 12  7  1  0  0  0
 12 13  2  0  0  0
  7  1  1  0  0  0
  7  8  1  0  0  0
  1  2  1  0  0  0
  1  6  2  0  0  0
  2  3  2  0  0  0
  3  4  1  0  0  0
  4  5  2  0  0  0
  5 19  1  0  0  0
  5  6  1  0  0  0
 19 21  1  0  0  0
 19 20  1  0  0  0
 21 22  2  0  0  0
 21 25  1  0  0  0
 22 27  1  0  0  0
 22 23  1  0  0  0
 27 29  1  0  0  0
 27 28  1  0  0  0
 29 30  1  0  0  0
 29 31  1  0  0  0
 31 32  1  0  0  0
 31 33  1  0  0  0
 31 34  1  0  0  0
 23 24  2  0  0  0
 23 25  1  0  0  0
 25 26  2  0  0  0
 13 14  1  0  0  0
 14 17  1  0  0  0
 17 18  1  0  0  0
M  END
> <minimizedAffinity>
-8.42722

$$$$
