CHEMBL1253834


 28 31  0  0  0  0  0  0  0  0999 V2000
  -27.4562   -1.4591  -10.1550 C   0  0  0  0  0  0  0  0  0  0  0  0
  -27.9545   -1.5485  -11.4550 C   0  0  0  0  0  0  0  0  0  0  0  0
  -27.0827   -1.7192  -12.5292 C   0  0  0  0  0  0  0  0  0  0  0  0
  -25.7009   -1.7673  -12.3214 C   0  0  0  0  0  0  0  0  0  0  0  0
  -25.1944   -1.6139  -11.0228 C   0  0  0  0  0  0  0  0  0  0  0  0
  -26.0738   -1.4567   -9.9468 C   0  0  0  0  0  0  0  0  0  0  0  0
  -28.2486   -1.2984   -9.0405 O   0  0  0  0  0  0  0  0  0  0  0  0
  -28.0081    0.3402   -6.4935 C   0  0  0  0  0  0  0  0  0  0  0  0
  -28.1343   -1.0123   -5.9987 N   0  0  0  0  0  0  0  0  0  0  0  0
  -28.1262   -1.3622   -4.6710 C   0  0  0  0  0  0  0  0  0  0  0  0
  -28.2972   -2.7284   -4.5920 C   0  0  0  0  0  0  0  0  0  0  0  0
  -28.3995   -3.2180   -5.9135 C   0  0  0  0  0  0  0  0  0  0  0  0
  -28.5767   -4.4865   -6.3384 N   0  0  0  0  0  0  0  0  0  0  0  0
  -28.6082   -4.6013   -7.6721 C   0  0  0  0  0  0  0  0  0  0  0  0
  -28.4957   -3.6246   -8.5874 N   0  0  0  0  0  0  0  0  0  0  0  0
  -28.3655   -2.3541   -8.1459 C   0  0  0  0  0  0  0  0  0  0  0  0
  -28.2902   -2.1358   -6.7769 C   0  0  0  0  0  0  0  0  0  0  0  0
  -24.7954   -2.0812  -13.4949 C   0  0  0  0  0  0  0  0  0  0  0  0
  -24.1142   -0.9060  -14.1625 C   0  0  0  0  0  0  0  0  0  0  0  0
  -24.5294   -0.4889  -15.2436 O   0  0  0  0  0  0  0  0  0  0  0  0
  -23.0633   -0.3454  -13.4464 N   0  0  0  0  0  0  0  0  0  0  0  0
  -22.5483   -0.9854  -12.8527 H   0  0  0  0  0  0  0  0  0  0  0  0
  -22.3534    0.7524  -13.9749 C   0  0  0  0  0  0  0  0  0  0  0  0
  -21.1550    0.5704  -14.6739 C   0  0  0  0  0  0  0  0  0  0  0  0
  -20.3926    1.6718  -15.0622 C   0  0  0  0  0  0  0  0  0  0  0  0
  -20.8251    2.9569  -14.7411 C   0  0  0  0  0  0  0  0  0  0  0  0
  -22.0448    3.1417  -14.0867 C   0  0  0  0  0  0  0  0  0  0  0  0
  -22.8291    2.0410  -13.7340 C   0  0  0  0  0  0  0  0  0  0  0  0
  8  9  1  0  0  0
  9 10  1  0  0  0
  9 17  1  0  0  0
 10 11  2  0  0  0
 11 12  1  0  0  0
 12 13  1  0  0  0
 12 17  2  0  0  0
 13 14  2  0  0  0
 14 15  1  0  0  0
 15 16  2  0  0  0
 16  7  1  0  0  0
 16 17  1  0  0  0
  7  1  1  0  0  0
  1  2  1  0  0  0
  1  6  2  0  0  0
  2  3  2  0  0  0
  3  4  1  0  0  0
  4 18  1  0  0  0
  4  5  2  0  0  0
 18 19  1  0  0  0
 19 20  2  0  0  0
 19 21  1  0  0  0
 21 23  1  0  0  0
 21 22  1  0  0  0
 23 24  1  0  0  0
 23 28  2  0  0  0
 24 25  2  0  0  0
 25 26  1  0  0  0
 26 27  2  0  0  0
 27 28  1  0  0  0
  5  6  1  0  0  0
M  END
> <minimizedAffinity>
-8.98851

$$$$
