CHEMBL179465


 27 29  0  0  0  0  0  0  0  0999 V2000
  -15.2152    0.6502  -16.2526 N   0  0  0  0  0  0  0  0  0  0  0  0
  -14.8463    0.5597  -17.1930 H   0  0  0  0  0  0  0  0  0  0  0  0
  -14.0605   -1.4904  -13.4145 C   0  0  0  0  0  0  0  0  0  0  0  0
  -12.7480   -1.0578  -13.2590 C   0  0  0  0  0  0  0  0  0  0  0  0
  -12.2404   -0.0842  -14.1260 C   0  0  0  0  0  0  0  0  0  0  0  0
  -13.0539    0.4717  -15.1250 C   0  0  0  0  0  0  0  0  0  0  0  0
  -14.3914    0.0392  -15.2764 C   0  0  0  0  0  0  0  0  0  0  0  0
  -14.8563   -0.9825  -14.4375 C   0  0  0  0  0  0  0  0  0  0  0  0
  -14.7888   -2.6433  -12.2741 S   0  0  0  0  0  0  0  0  0  0  0  0
  -15.5222   -1.8653  -11.2956 O   0  0  0  0  0  0  0  0  0  0  0  0
  -13.7389   -3.5578  -11.8682 O   0  0  0  0  0  0  0  0  0  0  0  0
  -16.5027   -4.7627  -12.5599 C   0  0  0  0  0  0  0  0  0  0  0  0
  -15.9780   -3.5323  -13.2734 C   0  0  0  0  0  0  0  0  0  0  0  0
  -12.6623    1.4801  -15.9761 O   0  0  0  0  0  0  0  0  0  0  0  0
  -11.9343    2.5574  -15.3960 C   0  0  0  0  0  0  0  0  0  0  0  0
  -16.1657    1.5734  -16.0194 C   0  0  0  0  0  0  0  0  0  0  0  0
  -16.1524    2.8717  -16.2358 N   0  0  0  0  0  0  0  0  0  0  0  0
  -17.3914    3.2969  -15.8732 C   0  0  0  0  0  0  0  0  0  0  0  0
  -18.1507    2.2331  -15.4500 C   0  0  0  0  0  0  0  0  0  0  0  0
  -17.3584    1.1117  -15.5244 O   0  0  0  0  0  0  0  0  0  0  0  0
  -19.5229    2.0872  -14.9936 C   0  0  0  0  0  0  0  0  0  0  0  0
  -20.2778    3.2351  -14.6864 C   0  0  0  0  0  0  0  0  0  0  0  0
  -21.6001    3.1353  -14.2476 C   0  0  0  0  0  0  0  0  0  0  0  0
  -22.1860    1.8810  -14.1122 C   0  0  0  0  0  0  0  0  0  0  0  0
  -21.4455    0.7443  -14.4188 C   0  0  0  0  0  0  0  0  0  0  0  0
  -22.0133   -0.4598  -14.2918 F   0  0  0  0  0  0  0  0  0  0  0  0
  -20.1272    0.8340  -14.8568 C   0  0  0  0  0  0  0  0  0  0  0  0
 12 13  1  0  0  0
 13  9  1  0  0  0
  9 10  2  0  0  0
  9 11  2  0  0  0
  9  3  1  0  0  0
  3  4  1  0  0  0
  3  8  2  0  0  0
  4  5  2  0  0  0
  5  6  1  0  0  0
  6 14  1  0  0  0
  6  7  2  0  0  0
 14 15  1  0  0  0
  7  1  1  0  0  0
  7  8  1  0  0  0
  1 16  1  0  0  0
  1  2  1  0  0  0
 16 17  2  0  0  0
 16 20  1  0  0  0
 17 18  1  0  0  0
 18 19  2  0  0  0
 19 21  1  0  0  0
 19 20  1  0  0  0
 21 22  1  0  0  0
 21 27  2  0  0  0
 22 23  2  0  0  0
 23 24  1  0  0  0
 24 25  2  0  0  0
 25 26  1  0  0  0
 25 27  1  0  0  0
M  END
> <minimizedAffinity>
-7.71743

$$$$
