CHEMBL1254835


 30 33  0  0  0  0  0  0  0  0999 V2000
  -23.1225   -0.8920  -13.5379 C   0  0  0  0  0  0  0  0  0  0  0  0
  -22.9148   -1.1919  -12.1956 C   0  0  0  0  0  0  0  0  0  0  0  0
  -23.9441   -1.7433  -11.4269 C   0  0  0  0  0  0  0  0  0  0  0  0
  -25.2171   -1.9499  -11.9652 C   0  0  0  0  0  0  0  0  0  0  0  0
  -25.4426   -1.5893  -13.2990 C   0  0  0  0  0  0  0  0  0  0  0  0
  -24.3970   -1.0612  -14.0809 C   0  0  0  0  0  0  0  0  0  0  0  0
  -26.2757   -2.5296  -11.2251 N   0  0  0  0  0  0  0  0  0  0  0  0
  -26.7264   -2.0934   -9.9862 C   0  0  0  0  0  0  0  0  0  0  0  0
  -26.3577   -1.0718   -9.4152 O   0  0  0  0  0  0  0  0  0  0  0  0
  -27.6324   -2.9800   -9.4245 N   0  0  0  0  0  0  0  0  0  0  0  0
  -26.8244   -3.2434  -11.6803 H   0  0  0  0  0  0  0  0  0  0  0  0
  -27.4361   -3.9518   -9.6237 H   0  0  0  0  0  0  0  0  0  0  0  0
  -28.2251   -2.7024   -8.1678 C   0  0  0  0  0  0  0  0  0  0  0  0
  -29.1421   -3.6143   -7.6465 C   0  0  0  0  0  0  0  0  0  0  0  0
  -29.6950   -3.4023   -6.3776 C   0  0  0  0  0  0  0  0  0  0  0  0
  -29.3667   -2.2544   -5.6536 C   0  0  0  0  0  0  0  0  0  0  0  0
  -28.4751   -1.3313   -6.1926 C   0  0  0  0  0  0  0  0  0  0  0  0
  -28.0574    0.2425   -5.2277 Br  0  0  0  0  0  0  0  0  0  0  0  0
  -27.8932   -1.5543   -7.4414 C   0  0  0  0  0  0  0  0  0  0  0  0
  -22.1441   -0.3673  -14.3560 O   0  0  0  0  0  0  0  0  0  0  0  0
  -19.2971   -0.3982  -15.4891 C   0  0  0  0  0  0  0  0  0  0  0  0
  -19.5184    0.9996  -15.1933 N   0  0  0  0  0  0  0  0  0  0  0  0
  -18.5924    1.9945  -15.3959 C   0  0  0  0  0  0  0  0  0  0  0  0
  -19.1744    3.1934  -15.0402 C   0  0  0  0  0  0  0  0  0  0  0  0
  -20.4858    2.9089  -14.5985 C   0  0  0  0  0  0  0  0  0  0  0  0
  -21.4326    3.7640  -14.1605 N   0  0  0  0  0  0  0  0  0  0  0  0
  -22.5645    3.1561  -13.7868 C   0  0  0  0  0  0  0  0  0  0  0  0
  -22.8367    1.8408  -13.8017 N   0  0  0  0  0  0  0  0  0  0  0  0
  -21.8981    1.0003  -14.2935 C   0  0  0  0  0  0  0  0  0  0  0  0
  -20.6784    1.5344  -14.6836 C   0  0  0  0  0  0  0  0  0  0  0  0
 21 22  1  0  0  0
 22 23  1  0  0  0
 22 30  1  0  0  0
 23 24  2  0  0  0
 24 25  1  0  0  0
 25 26  1  0  0  0
 25 30  2  0  0  0
 26 27  2  0  0  0
 27 28  1  0  0  0
 28 29  2  0  0  0
 29 20  1  0  0  0
 29 30  1  0  0  0
 20  1  1  0  0  0
  1  2  1  0  0  0
  1  6  2  0  0  0
  2  3  2  0  0  0
  3  4  1  0  0  0
  4  7  1  0  0  0
  4  5  2  0  0  0
  7  8  1  0  0  0
  7 11  1  0  0  0
  8  9  2  0  0  0
  8 10  1  0  0  0
 10 13  1  0  0  0
 10 12  1  0  0  0
 13 14  1  0  0  0
 13 19  2  0  0  0
 14 15  2  0  0  0
 15 16  1  0  0  0
 16 17  2  0  0  0
 17 18  1  0  0  0
 17 19  1  0  0  0
  5  6  1  0  0  0
M  END
> <minimizedAffinity>
-10.92753

$$$$
