CHEMBL391104


 28 30  0  0  0  0  0  0  0  0999 V2000
  -25.3571   -1.3424  -10.0092 O   0  0  0  0  0  0  0  0  0  0  0  0
  -26.3297   -1.6189  -10.7007 C   0  0  0  0  0  0  0  0  0  0  0  0
  -27.5729   -2.0061  -10.2120 N   0  0  0  0  0  0  0  0  0  0  0  0
  -28.2574   -2.1987  -10.9399 H   0  0  0  0  0  0  0  0  0  0  0  0
  -27.9518   -2.2033   -8.8695 C   0  0  0  0  0  0  0  0  0  0  0  0
  -28.5733   -3.3626   -8.4039 C   0  0  0  0  0  0  0  0  0  0  0  0
  -28.9725   -3.4898   -7.0646 C   0  0  0  0  0  0  0  0  0  0  0  0
  -28.7155   -2.4714   -6.1546 C   0  0  0  0  0  0  0  0  0  0  0  0
  -28.1036   -1.3025   -6.6159 C   0  0  0  0  0  0  0  0  0  0  0  0
  -27.7191   -1.1686   -7.9574 C   0  0  0  0  0  0  0  0  0  0  0  0
  -29.0155   -2.4693   -4.8277 O   0  0  0  0  0  0  0  0  0  0  0  0
  -28.5177   -3.4941   -3.9797 C   0  0  0  0  0  0  0  0  0  0  0  0
  -27.2649   -3.8943   -4.2809 F   0  0  0  0  0  0  0  0  0  0  0  0
  -28.4970   -3.0189   -2.7129 F   0  0  0  0  0  0  0  0  0  0  0  0
  -29.3440   -4.5614   -4.0129 F   0  0  0  0  0  0  0  0  0  0  0  0
  -26.2910   -1.5886  -12.1605 C   0  0  0  0  0  0  0  0  0  0  0  0
  -27.3186   -1.9726  -12.9045 N   0  0  0  0  0  0  0  0  0  0  0  0
  -26.8994   -1.8721  -14.2001 C   0  0  0  0  0  0  0  0  0  0  0  0
  -25.6046   -1.4216  -14.2632 C   0  0  0  0  0  0  0  0  0  0  0  0
  -25.2206   -1.2176  -12.9619 N   0  0  0  0  0  0  0  0  0  0  0  0
  -23.9118   -0.7408  -12.5118 C   0  0  0  0  0  0  0  0  0  0  0  0
  -22.8289   -0.7376  -13.6034 C   0  0  0  0  0  0  0  0  0  0  0  0
  -22.2460    0.5950  -14.0179 C   0  0  0  0  0  0  0  0  0  0  0  0
  -22.9466    1.7646  -13.6881 C   0  0  0  0  0  0  0  0  0  0  0  0
  -22.3872    2.9989  -13.9829 C   0  0  0  0  0  0  0  0  0  0  0  0
  -21.1866    3.1512  -14.5740 N   0  0  0  0  0  0  0  0  0  0  0  0
  -20.5181    2.0182  -14.8771 C   0  0  0  0  0  0  0  0  0  0  0  0
  -20.9949    0.7380  -14.6213 C   0  0  0  0  0  0  0  0  0  0  0  0
  1  2  2  0  0  0
  2  3  1  0  0  0
  2 16  1  0  0  0
  3  5  1  0  0  0
  3  4  1  0  0  0
  5  6  1  0  0  0
  5 10  2  0  0  0
  6  7  2  0  0  0
  7  8  1  0  0  0
  8 11  1  0  0  0
  8  9  2  0  0  0
 11 12  1  0  0  0
 12 13  1  0  0  0
 12 14  1  0  0  0
 12 15  1  0  0  0
  9 10  1  0  0  0
 16 17  2  0  0  0
 16 20  1  0  0  0
 17 18  1  0  0  0
 18 19  2  0  0  0
 19 20  1  0  0  0
 20 21  1  0  0  0
 21 22  1  0  0  0
 22 23  1  0  0  0
 23 24  1  0  0  0
 23 28  2  0  0  0
 24 25  2  0  0  0
 25 26  1  0  0  0
 26 27  2  0  0  0
 27 28  1  0  0  0
M  END
> <minimizedAffinity>
-9.38573

$$$$
