CHEMBL364161


 30 32  0  0  0  0  0  0  0  0999 V2000
  -24.4100   -1.4228  -13.6948 C   0  0  0  0  0  0  0  0  0  0  0  0
  -24.0731   -1.8547  -12.4094 C   0  0  0  0  0  0  0  0  0  0  0  0
  -23.0578   -1.3615  -11.6667 N   0  0  0  0  0  0  0  0  0  0  0  0
  -22.3449   -0.3494  -12.2157 C   0  0  0  0  0  0  0  0  0  0  0  0
  -22.5882    0.2014  -13.4746 C   0  0  0  0  0  0  0  0  0  0  0  0
  -23.6631   -0.3494  -14.1919 C   0  0  0  0  0  0  0  0  0  0  0  0
  -21.7681    1.3002  -14.0017 C   0  0  0  0  0  0  0  0  0  0  0  0
  -22.1186    2.6447  -13.9043 C   0  0  0  0  0  0  0  0  0  0  0  0
  -21.3703    3.6477  -14.4180 N   0  0  0  0  0  0  0  0  0  0  0  0
  -20.2383    3.2481  -15.0436 C   0  0  0  0  0  0  0  0  0  0  0  0
  -19.8300    1.9164  -15.1301 C   0  0  0  0  0  0  0  0  0  0  0  0
  -20.6174    0.9387  -14.6232 N   0  0  0  0  0  0  0  0  0  0  0  0
  -18.6400    1.5745  -15.8137 N   0  0  0  0  0  0  0  0  0  0  0  0
  -18.5391    2.1353  -16.6552 H   0  0  0  0  0  0  0  0  0  0  0  0
  -17.3658    1.4792  -15.1954 C   0  0  0  0  0  0  0  0  0  0  0  0
  -16.2512    2.1882  -15.6693 C   0  0  0  0  0  0  0  0  0  0  0  0
  -14.9875    2.0010  -15.1064 C   0  0  0  0  0  0  0  0  0  0  0  0
  -14.8204    1.0885  -14.0684 C   0  0  0  0  0  0  0  0  0  0  0  0
  -15.9166    0.3640  -13.6057 C   0  0  0  0  0  0  0  0  0  0  0  0
  -15.7072   -0.7718  -12.3292 Cl  0  0  0  0  0  0  0  0  0  0  0  0
  -17.1794    0.5432  -14.1724 C   0  0  0  0  0  0  0  0  0  0  0  0
  -25.5363   -1.9461  -14.3599 N   0  0  0  0  0  0  0  0  0  0  0  0
  -25.3924   -1.8651  -15.3703 H   0  0  0  0  0  0  0  0  0  0  0  0
  -26.8445   -1.3963  -13.9860 C   0  0  0  0  0  0  0  0  0  0  0  0
  -27.3425   -2.0947  -12.7186 C   0  0  0  0  0  0  0  0  0  0  0  0
  -27.6239   -1.1359  -11.5647 C   0  0  0  0  0  0  0  0  0  0  0  0
  -26.2011   -1.6585   -9.6925 O   0  0  0  0  0  0  0  0  0  0  0  0
  -27.2912   -1.7577  -10.2340 C   0  0  0  0  0  0  0  0  0  0  0  0
  -28.2988   -2.4916   -9.7174 O   0  0  0  0  0  0  0  0  0  0  0  0
  -29.0861   -2.5374  -10.3036 H   0  0  0  0  0  0  0  0  0  0  0  0
 27 28  2  0  0  0
 28 29  1  0  0  0
 28 26  1  0  0  0
 29 30  1  0  0  0
 26 25  1  0  0  0
 25 24  1  0  0  0
 24 22  1  0  0  0
 22  1  1  0  0  0
 22 23  1  0  0  0
  1  2  1  0  0  0
  1  6  2  0  0  0
  2  3  2  0  0  0
  3  4  1  0  0  0
  4  5  2  0  0  0
  5  7  1  0  0  0
  5  6  1  0  0  0
  7  8  1  0  0  0
  7 12  2  0  0  0
  8  9  2  0  0  0
  9 10  1  0  0  0
 10 11  2  0  0  0
 11 13  1  0  0  0
 11 12  1  0  0  0
 13 15  1  0  0  0
 13 14  1  0  0  0
 15 16  1  0  0  0
 15 21  2  0  0  0
 16 17  2  0  0  0
 17 18  1  0  0  0
 18 19  2  0  0  0
 19 20  1  0  0  0
 19 21  1  0  0  0
M  END
> <minimizedAffinity>
-8.37711

$$$$
