CHEMBL3891392


 30 34  0  0  0  0  0  0  0  0999 V2000
  -23.5439    0.1627  -13.8829 C   0  0  0  0  0  0  0  0  0  0  0  0
  -22.3845   -0.5636  -14.2067 C   0  0  0  0  0  0  0  0  0  0  0  0
  -21.1488    0.0581  -14.4222 C   0  0  0  0  0  0  0  0  0  0  0  0
  -21.0587    1.4564  -14.3207 C   0  0  0  0  0  0  0  0  0  0  0  0
  -20.0312    2.4318  -14.4060 C   0  0  0  0  0  0  0  0  0  0  0  0
  -20.4702    3.6590  -14.0976 N   0  0  0  0  0  0  0  0  0  0  0  0
  -21.7958    3.4824  -13.9421 N   0  0  0  0  0  0  0  0  0  0  0  0
  -22.2012    2.1749  -14.0015 C   0  0  0  0  0  0  0  0  0  0  0  0
  -23.4480    1.5697  -13.7908 C   0  0  0  0  0  0  0  0  0  0  0  0
  -22.3720    4.2981  -13.7670 H   0  0  0  0  0  0  0  0  0  0  0  0
  -18.6103    2.1866  -14.7458 C   0  0  0  0  0  0  0  0  0  0  0  0
  -17.9062    2.6793  -15.8216 C   0  0  0  0  0  0  0  0  0  0  0  0
  -16.5882    2.1654  -15.7458 C   0  0  0  0  0  0  0  0  0  0  0  0
  -15.4379    2.3273  -16.5413 C   0  0  0  0  0  0  0  0  0  0  0  0
  -14.2742    1.6368  -16.1992 C   0  0  0  0  0  0  0  0  0  0  0  0
  -14.2478    0.7912  -15.0939 C   0  0  0  0  0  0  0  0  0  0  0  0
  -15.3759    0.6245  -14.2790 C   0  0  0  0  0  0  0  0  0  0  0  0
  -16.5277    1.3403  -14.6221 C   0  0  0  0  0  0  0  0  0  0  0  0
  -17.7562    1.4176  -14.0015 N   0  0  0  0  0  0  0  0  0  0  0  0
  -18.0256    0.9342  -13.1561 H   0  0  0  0  0  0  0  0  0  0  0  0
  -26.6523   -1.1381  -12.0955 C   0  0  0  0  0  0  0  0  0  0  0  0
  -25.4550   -0.4635  -12.3628 C   0  0  0  0  0  0  0  0  0  0  0  0
  -24.8254   -0.5374  -13.6219 C   0  0  0  0  0  0  0  0  0  0  0  0
  -25.4572   -1.3047  -14.6187 C   0  0  0  0  0  0  0  0  0  0  0  0
  -26.6624   -1.9660  -14.3765 C   0  0  0  0  0  0  0  0  0  0  0  0
  -27.2486   -1.8839  -13.1162 C   0  0  0  0  0  0  0  0  0  0  0  0
  -28.4224   -2.5433  -12.8704 O   0  0  0  0  0  0  0  0  0  0  0  0
  -28.6899   -3.0243  -13.6692 H   0  0  0  0  0  0  0  0  0  0  0  0
  -26.8014   -1.9660   -9.8637 C   0  0  0  0  0  0  0  0  0  0  0  0
  -27.3065   -1.1249  -10.8909 O   0  0  0  0  0  0  0  0  0  0  0  0
 29 30  1  0  0  0
 30 21  1  0  0  0
 21 22  1  0  0  0
 21 26  2  0  0  0
 22 23  2  0  0  0
 23  1  1  0  0  0
 23 24  1  0  0  0
  1  2  1  0  0  0
  1  9  2  0  0  0
  2  3  2  0  0  0
  3  4  1  0  0  0
  4  5  1  0  0  0
  4  8  2  0  0  0
  5 11  1  0  0  0
  5  6  2  0  0  0
 11 12  2  0  0  0
 11 19  1  0  0  0
 12 13  1  0  0  0
 13 14  1  0  0  0
 13 18  2  0  0  0
 14 15  2  0  0  0
 15 16  1  0  0  0
 16 17  2  0  0  0
 17 18  1  0  0  0
 18 19  1  0  0  0
 19 20  1  0  0  0
  6  7  1  0  0  0
  7  8  1  0  0  0
  7 10  1  0  0  0
  8  9  1  0  0  0
 24 25  2  0  0  0
 25 26  1  0  0  0
 26 27  1  0  0  0
 27 28  1  0  0  0
M  END
> <minimizedAffinity>
-10.18739

$$$$
