CHEMBL3702656


 33 36  0  0  0  0  0  0  0  0999 V2000
  -27.9976   -1.9519   -8.5271 C   0  0  0  0  0  0  0  0  0  0  0  0
  -27.6314   -1.1153   -7.4687 C   0  0  0  0  0  0  0  0  0  0  0  0
  -27.8996   -1.4888   -6.1611 C   0  0  0  0  0  0  0  0  0  0  0  0
  -28.5357   -2.7033   -5.9063 C   0  0  0  0  0  0  0  0  0  0  0  0
  -28.9281   -3.5681   -6.9429 C   0  0  0  0  0  0  0  0  0  0  0  0
  -28.6384   -3.1715   -8.2626 C   0  0  0  0  0  0  0  0  0  0  0  0
  -29.5890   -4.7499   -6.6577 N   0  0  0  0  0  0  0  0  0  0  0  0
  -29.6743   -5.8341   -7.6331 C   0  0  0  0  0  0  0  0  0  0  0  0
  -28.7567   -6.9718   -7.2082 C   0  0  0  0  0  0  0  0  0  0  0  0
  -28.9733   -7.3427   -5.7651 C   0  0  0  0  0  0  0  0  0  0  0  0
  -28.5317   -8.5639   -5.3833 N   0  0  0  0  0  0  0  0  0  0  0  0
  -28.6786   -8.8962   -4.0857 C   0  0  0  0  0  0  0  0  0  0  0  0
  -29.2333   -8.0925   -3.1546 N   0  0  0  0  0  0  0  0  0  0  0  0
  -29.6584   -6.8869   -3.5796 C   0  0  0  0  0  0  0  0  0  0  0  0
  -29.5406   -6.4399   -4.8806 C   0  0  0  0  0  0  0  0  0  0  0  0
  -30.0329   -5.0815   -5.2980 C   0  0  0  0  0  0  0  0  0  0  0  0
  -28.1277  -10.2284   -3.6340 C   0  0  0  0  0  0  0  0  0  0  0  0
  -29.3979  -11.5245   -3.4989 S   0  0  0  0  0  0  0  0  0  0  0  0
  -30.2400  -10.8002   -2.7447 H   0  0  0  0  0  0  0  0  0  0  0  0
  -28.4317   -0.9063  -10.5384 O   0  0  0  0  0  0  0  0  0  0  0  0
  -27.5922   -1.5306   -9.8929 C   0  0  0  0  0  0  0  0  0  0  0  0
  -26.3457   -1.9325  -10.3484 N   0  0  0  0  0  0  0  0  0  0  0  0
  -25.8170   -2.5827   -9.7769 H   0  0  0  0  0  0  0  0  0  0  0  0
  -25.8367   -1.6575  -11.6440 C   0  0  0  0  0  0  0  0  0  0  0  0
  -26.5219   -2.0133  -12.8116 C   0  0  0  0  0  0  0  0  0  0  0  0
  -25.9892   -1.7601  -14.0749 C   0  0  0  0  0  0  0  0  0  0  0  0
  -24.7612   -1.1240  -14.1932 C   0  0  0  0  0  0  0  0  0  0  0  0
  -24.0577   -0.7290  -13.0470 C   0  0  0  0  0  0  0  0  0  0  0  0
  -24.6031   -1.0026  -11.7717 C   0  0  0  0  0  0  0  0  0  0  0  0
  -22.7376   -0.0103  -13.1861 C   0  0  0  0  0  0  0  0  0  0  0  0
  -22.8673    1.3173  -13.4698 F   0  0  0  0  0  0  0  0  0  0  0  0
  -21.9918   -0.0739  -12.0484 F   0  0  0  0  0  0  0  0  0  0  0  0
  -21.9571   -0.5265  -14.1748 F   0  0  0  0  0  0  0  0  0  0  0  0
 20 21  2  0  0  0
 21 22  1  0  0  0
 21  1  1  0  0  0
 22 24  1  0  0  0
 22 23  1  0  0  0
 24 25  1  0  0  0
 24 29  2  0  0  0
 25 26  2  0  0  0
 26 27  1  0  0  0
 27 28  2  0  0  0
 28 30  1  0  0  0
 28 29  1  0  0  0
 30 31  1  0  0  0
 30 32  1  0  0  0
 30 33  1  0  0  0
  1  2  1  0  0  0
  1  6  2  0  0  0
  2  3  2  0  0  0
  3  4  1  0  0  0
  4  5  2  0  0  0
  5  7  1  0  0  0
  5  6  1  0  0  0
  7  8  1  0  0  0
  7 16  1  0  0  0
  8  9  1  0  0  0
  9 10  1  0  0  0
 10 11  1  0  0  0
 10 15  2  0  0  0
 11 12  2  0  0  0
 12 17  1  0  0  0
 12 13  1  0  0  0
 17 18  1  0  0  0
 18 19  1  0  0  0
 13 14  2  0  0  0
 14 15  1  0  0  0
 15 16  1  0  0  0
M  END
> <minimizedAffinity>
-10.92434

$$$$
