CHEMBL4465659


 36 39  0  0  0  0  0  0  0  0999 V2000
  -24.5540   -1.4575  -13.2082 C   0  0  0  0  0  0  0  0  0  0  0  0
  -25.9216   -1.5909  -13.4830 C   0  0  0  0  0  0  0  0  0  0  0  0
  -26.8476   -1.6862  -12.4481 C   0  0  0  0  0  0  0  0  0  0  0  0
  -26.4067   -1.6445  -11.1305 C   0  0  0  0  0  0  0  0  0  0  0  0
  -25.0193   -1.6302  -10.8473 C   0  0  0  0  0  0  0  0  0  0  0  0
  -24.0924   -1.5577  -11.8916 C   0  0  0  0  0  0  0  0  0  0  0  0
  -21.9150    0.2263  -15.0201 N   0  0  0  0  0  0  0  0  0  0  0  0
  -22.7810   -0.0316  -13.9791 C   0  0  0  0  0  0  0  0  0  0  0  0
  -22.7837    0.5639  -12.9040 O   0  0  0  0  0  0  0  0  0  0  0  0
  -23.6509   -1.0891  -14.2394 N   0  0  0  0  0  0  0  0  0  0  0  0
  -22.1420   -0.1747  -15.9155 H   0  0  0  0  0  0  0  0  0  0  0  0
  -23.2257   -1.8415  -14.7618 H   0  0  0  0  0  0  0  0  0  0  0  0
  -18.6338    2.9177  -14.8077 C   0  0  0  0  0  0  0  0  0  0  0  0
  -19.9300    3.3895  -14.6423 C   0  0  0  0  0  0  0  0  0  0  0  0
  -21.0101    2.5128  -14.7167 C   0  0  0  0  0  0  0  0  0  0  0  0
  -20.8347    1.1449  -14.9647 C   0  0  0  0  0  0  0  0  0  0  0  0
  -19.5301    0.6739  -15.1363 C   0  0  0  0  0  0  0  0  0  0  0  0
  -18.4398    1.5589  -15.0534 C   0  0  0  0  0  0  0  0  0  0  0  0
  -16.7348    3.7739  -15.9420 C   0  0  0  0  0  0  0  0  0  0  0  0
  -17.5070    3.6911  -14.7441 O   0  0  0  0  0  0  0  0  0  0  0  0
  -27.4022   -1.6269  -10.0432 C   0  0  0  0  0  0  0  0  0  0  0  0
  -28.3651   -0.8725  -10.1192 O   0  0  0  0  0  0  0  0  0  0  0  0
  -27.1415   -2.5200   -9.0112 N   0  0  0  0  0  0  0  0  0  0  0  0
  -26.2522   -3.0153   -9.0224 H   0  0  0  0  0  0  0  0  0  0  0  0
  -28.2181   -3.1830   -8.5045 N   0  0  0  0  0  0  0  0  0  0  0  0
  -28.5556   -2.8956   -7.2810 C   0  0  0  0  0  0  0  0  0  0  0  0
  -28.1678   -1.7044   -6.4023 C   0  0  0  0  0  0  0  0  0  0  0  0
  -27.8799   -0.5916   -6.7908 O   0  0  0  0  0  0  0  0  0  0  0  0
  -28.1178   -2.2091   -5.1209 N   0  0  0  0  0  0  0  0  0  0  0  0
  -28.3432   -3.5834   -5.1542 C   0  0  0  0  0  0  0  0  0  0  0  0
  -27.8244   -4.5268   -4.2930 C   0  0  0  0  0  0  0  0  0  0  0  0
  -27.9305   -5.8723   -4.6801 C   0  0  0  0  0  0  0  0  0  0  0  0
  -28.6281   -6.2525   -5.8457 C   0  0  0  0  0  0  0  0  0  0  0  0
  -29.1364   -5.2891   -6.7100 C   0  0  0  0  0  0  0  0  0  0  0  0
  -28.9141   -3.9731   -6.3662 C   0  0  0  0  0  0  0  0  0  0  0  0
  -27.8333   -1.6648   -4.3196 H   0  0  0  0  0  0  0  0  0  0  0  0
 19 20  1  0  0  0
 20 13  1  0  0  0
 13 14  1  0  0  0
 13 18  2  0  0  0
 14 15  2  0  0  0
 15 16  1  0  0  0
 16  7  1  0  0  0
 16 17  2  0  0  0
  7  8  1  0  0  0
  7 11  1  0  0  0
  8  9  2  0  0  0
  8 10  1  0  0  0
 10  1  1  0  0  0
 10 12  1  0  0  0
  1  2  1  0  0  0
  1  6  2  0  0  0
  2  3  2  0  0  0
  3  4  1  0  0  0
  4 21  1  0  0  0
  4  5  2  0  0  0
 21 22  2  0  0  0
 21 23  1  0  0  0
 23 25  1  0  0  0
 23 24  1  0  0  0
 25 26  2  0  0  0
 26 27  1  0  0  0
 26 35  1  0  0  0
 27 28  2  0  0  0
 27 29  1  0  0  0
 29 30  1  0  0  0
 29 36  1  0  0  0
 30 31  1  0  0  0
 30 35  2  0  0  0
 31 32  2  0  0  0
 32 33  1  0  0  0
 33 34  2  0  0  0
 34 35  1  0  0  0
  5  6  1  0  0  0
 17 18  1  0  0  0
M  END
> <minimizedAffinity>
-10.81077

$$$$
