CHEMBL3916910


 42 46  0  0  0  0  0  0  0  0999 V2000
  -26.0662   -1.1436   -9.1803 O   0  0  0  0  0  0  0  0  0  0  0  0
  -26.7720   -1.9521   -9.7708 C   0  0  0  0  0  0  0  0  0  0  0  0
  -27.8765   -2.5629   -9.1974 N   0  0  0  0  0  0  0  0  0  0  0  0
  -26.5408   -2.3681  -11.0717 N   0  0  0  0  0  0  0  0  0  0  0  0
  -28.2353   -3.3922   -9.6436 H   0  0  0  0  0  0  0  0  0  0  0  0
  -27.1832   -3.0324  -11.4738 H   0  0  0  0  0  0  0  0  0  0  0  0
  -25.4870   -1.9014  -11.9005 C   0  0  0  0  0  0  0  0  0  0  0  0
  -24.1808   -1.7000  -11.4387 C   0  0  0  0  0  0  0  0  0  0  0  0
  -23.1772   -1.2127  -12.2752 C   0  0  0  0  0  0  0  0  0  0  0  0
  -23.4333   -1.0004  -13.6261 C   0  0  0  0  0  0  0  0  0  0  0  0
  -24.7381   -1.1734  -14.0884 C   0  0  0  0  0  0  0  0  0  0  0  0
  -25.0343   -0.9297  -15.3736 F   0  0  0  0  0  0  0  0  0  0  0  0
  -25.7627   -1.6148  -13.2402 C   0  0  0  0  0  0  0  0  0  0  0  0
  -22.4615   -0.6016  -14.5225 O   0  0  0  0  0  0  0  0  0  0  0  0
  -21.9724    0.6898  -14.4351 C   0  0  0  0  0  0  0  0  0  0  0  0
  -22.6709    1.7273  -13.8226 C   0  0  0  0  0  0  0  0  0  0  0  0
  -22.1283    2.9896  -13.8772 C   0  0  0  0  0  0  0  0  0  0  0  0
  -20.9263    3.2484  -14.4161 N   0  0  0  0  0  0  0  0  0  0  0  0
  -20.2118    2.2335  -14.9294 C   0  0  0  0  0  0  0  0  0  0  0  0
  -20.7066    0.9354  -14.9741 C   0  0  0  0  0  0  0  0  0  0  0  0
  -18.9270    2.4912  -15.4342 N   0  0  0  0  0  0  0  0  0  0  0  0
  -17.7639    2.0471  -14.8403 C   0  0  0  0  0  0  0  0  0  0  0  0
  -17.6389    1.4026  -13.8072 O   0  0  0  0  0  0  0  0  0  0  0  0
  -18.8579    3.0175  -16.2917 H   0  0  0  0  0  0  0  0  0  0  0  0
  -16.5239    2.4489  -15.5818 C   0  0  0  0  0  0  0  0  0  0  0  0
  -15.7443    1.4235  -16.3781 C   0  0  0  0  0  0  0  0  0  0  0  0
  -15.1839    1.9501  -15.0902 C   0  0  0  0  0  0  0  0  0  0  0  0
  -28.3551   -2.2717   -7.8937 C   0  0  0  0  0  0  0  0  0  0  0  0
  -28.7245   -3.2704   -6.9824 C   0  0  0  0  0  0  0  0  0  0  0  0
  -29.2711   -2.9850   -5.7306 C   0  0  0  0  0  0  0  0  0  0  0  0
  -29.3637   -1.6416   -5.3552 C   0  0  0  0  0  0  0  0  0  0  0  0
  -28.9477   -0.6104   -6.2217 C   0  0  0  0  0  0  0  0  0  0  0  0
  -28.4508   -0.9390   -7.4963 C   0  0  0  0  0  0  0  0  0  0  0  0
  -29.0073    0.8320   -5.7906 C   0  0  0  0  0  0  0  0  0  0  0  0
  -28.7447    1.7170   -6.7905 F   0  0  0  0  0  0  0  0  0  0  0  0
  -30.2322    1.1708   -5.3009 F   0  0  0  0  0  0  0  0  0  0  0  0
  -28.1192    1.1156   -4.7973 F   0  0  0  0  0  0  0  0  0  0  0  0
  -29.5993   -4.0049   -4.8045 N   0  0  0  0  0  0  0  0  0  0  0  0
  -29.2277   -3.7960   -3.8817 H   0  0  0  0  0  0  0  0  0  0  0  0
  -30.9469   -4.6031   -4.7741 C   0  0  0  0  0  0  0  0  0  0  0  0
  -31.7411   -4.5142   -3.4965 C   0  0  0  0  0  0  0  0  0  0  0  0
  -31.3152   -5.8511   -4.0198 C   0  0  0  0  0  0  0  0  0  0  0  0
  1  2  2  0  0  0
  2  3  1  0  0  0
  2  4  1  0  0  0
  3 28  1  0  0  0
  3  5  1  0  0  0
 28 29  1  0  0  0
 28 33  2  0  0  0
 29 30  2  0  0  0
 30 38  1  0  0  0
 30 31  1  0  0  0
 38 40  1  0  0  0
 38 39  1  0  0  0
 40 41  1  0  0  0
 40 42  1  0  0  0
 41 42  1  0  0  0
 31 32  2  0  0  0
 32 34  1  0  0  0
 32 33  1  0  0  0
 34 35  1  0  0  0
 34 36  1  0  0  0
 34 37  1  0  0  0
  4  7  1  0  0  0
  4  6  1  0  0  0
  7  8  1  0  0  0
  7 13  2  0  0  0
  8  9  2  0  0  0
  9 10  1  0  0  0
 10 14  1  0  0  0
 10 11  2  0  0  0
 14 15  1  0  0  0
 15 16  1  0  0  0
 15 20  2  0  0  0
 16 17  2  0  0  0
 17 18  1  0  0  0
 18 19  2  0  0  0
 19 21  1  0  0  0
 19 20  1  0  0  0
 21 22  1  0  0  0
 21 24  1  0  0  0
 22 23  2  0  0  0
 22 25  1  0  0  0
 25 26  1  0  0  0
 25 27  1  0  0  0
 26 27  1  0  0  0
 11 12  1  0  0  0
 11 13  1  0  0  0
M  END
> <minimizedAffinity>
-11.79658

$$$$
