CHEMBL1983575


 24 25  0  0  0  0  0  0  0  0999 V2000
  -27.1874   -2.0253  -13.3400 O   0  0  0  0  0  0  0  0  0  0  0  0
  -27.0208   -1.7324  -12.1604 C   0  0  0  0  0  0  0  0  0  0  0  0
  -28.0208   -2.0101  -11.2437 N   0  0  0  0  0  0  0  0  0  0  0  0
  -25.9270   -1.1348  -11.5860 N   0  0  0  0  0  0  0  0  0  0  0  0
  -28.8463   -2.4678  -11.6132 H   0  0  0  0  0  0  0  0  0  0  0  0
  -26.0372   -1.0325  -10.5845 H   0  0  0  0  0  0  0  0  0  0  0  0
  -24.7346   -0.7125  -12.1970 C   0  0  0  0  0  0  0  0  0  0  0  0
  -24.3542    0.6278  -12.2976 C   0  0  0  0  0  0  0  0  0  0  0  0
  -23.1639    0.9824  -12.9392 C   0  0  0  0  0  0  0  0  0  0  0  0
  -22.3395    0.0005  -13.4810 C   0  0  0  0  0  0  0  0  0  0  0  0
  -22.7008   -1.3404  -13.3726 C   0  0  0  0  0  0  0  0  0  0  0  0
  -23.8930   -1.6951  -12.7334 C   0  0  0  0  0  0  0  0  0  0  0  0
  -27.8935   -1.7303   -9.9137 N   0  0  0  0  0  0  0  0  0  0  0  0
  -28.4211   -2.6099   -9.1220 C   0  0  0  0  0  0  0  0  0  0  0  0
  -28.3322   -2.4663   -7.6553 C   0  0  0  0  0  0  0  0  0  0  0  0
  -28.3403   -3.6012   -6.8380 C   0  0  0  0  0  0  0  0  0  0  0  0
  -28.2659   -3.4544   -5.4543 C   0  0  0  0  0  0  0  0  0  0  0  0
  -28.2772   -5.0107   -4.3723 Br  0  0  0  0  0  0  0  0  0  0  0  0
  -28.1884   -2.1816   -4.8815 C   0  0  0  0  0  0  0  0  0  0  0  0
  -28.1144   -2.0279   -3.5228 O   0  0  0  0  0  0  0  0  0  0  0  0
  -28.1872   -1.0508   -5.7051 C   0  0  0  0  0  0  0  0  0  0  0  0
  -28.1030    0.7002   -4.9793 Br  0  0  0  0  0  0  0  0  0  0  0  0
  -28.2557   -1.1881   -7.0949 C   0  0  0  0  0  0  0  0  0  0  0  0
  -28.1181   -2.9138   -3.1163 H   0  0  0  0  0  0  0  0  0  0  0  0
  1  2  2  0  0  0
  2  3  1  0  0  0
  2  4  1  0  0  0
  3 13  1  0  0  0
  3  5  1  0  0  0
 13 14  2  0  0  0
 14 15  1  0  0  0
 15 16  1  0  0  0
 15 23  2  0  0  0
 16 17  2  0  0  0
 17 18  1  0  0  0
 17 19  1  0  0  0
 19 20  1  0  0  0
 19 21  2  0  0  0
 20 24  1  0  0  0
 21 22  1  0  0  0
 21 23  1  0  0  0
  4  7  1  0  0  0
  4  6  1  0  0  0
  7  8  1  0  0  0
  7 12  2  0  0  0
  8  9  2  0  0  0
  9 10  1  0  0  0
 10 11  2  0  0  0
 11 12  1  0  0  0
M  END
> <minimizedAffinity>
-8.25350

$$$$
