CHEMBL3969667


 40 44  0  0  0  0  0  0  0  0999 V2000
  -13.8538    0.8892  -14.0053 N   0  0  0  0  0  0  0  0  0  0  0  0
  -13.2263   -0.3246  -14.4143 C   0  0  0  0  0  0  0  0  0  0  0  0
  -13.0863   -0.5045  -15.7782 C   0  0  0  0  0  0  0  0  0  0  0  0
  -13.1007   -1.7733  -16.3115 C   0  0  0  0  0  0  0  0  0  0  0  0
  -13.0804   -2.8712  -15.5063 C   0  0  0  0  0  0  0  0  0  0  0  0
  -13.4427   -3.9807  -16.1401 N   0  0  0  0  0  0  0  0  0  0  0  0
  -13.2644   -5.1152  -15.4749 C   0  0  0  0  0  0  0  0  0  0  0  0
  -12.5998   -5.1550  -14.2700 C   0  0  0  0  0  0  0  0  0  0  0  0
  -12.3564   -3.9999  -13.5504 N   0  0  0  0  0  0  0  0  0  0  0  0
  -12.7174   -2.7861  -14.1504 C   0  0  0  0  0  0  0  0  0  0  0  0
  -12.8533   -1.4398  -13.6075 C   0  0  0  0  0  0  0  0  0  0  0  0
  -12.0988   -6.4868  -13.9289 C   0  0  0  0  0  0  0  0  0  0  0  0
  -12.4001   -7.7428  -14.5373 C   0  0  0  0  0  0  0  0  0  0  0  0
  -12.1227   -8.7909  -13.7481 N   0  0  0  0  0  0  0  0  0  0  0  0
  -11.6831   -8.2194  -12.6156 N   0  0  0  0  0  0  0  0  0  0  0  0
  -11.1058   -9.0146  -11.5571 C   0  0  0  0  0  0  0  0  0  0  0  0
  -11.7976   -6.8574  -12.6265 C   0  0  0  0  0  0  0  0  0  0  0  0
  -13.6079    2.1578  -14.6971 C   0  0  0  0  0  0  0  0  0  0  0  0
  -14.5565    2.7075  -15.6464 C   0  0  0  0  0  0  0  0  0  0  0  0
  -15.7396    1.6653  -16.3770 Cl  0  0  0  0  0  0  0  0  0  0  0  0
  -14.4100    4.0138  -16.1777 C   0  0  0  0  0  0  0  0  0  0  0  0
  -13.2650    4.7490  -15.8582 C   0  0  0  0  0  0  0  0  0  0  0  0
  -12.2674    4.2213  -15.0517 C   0  0  0  0  0  0  0  0  0  0  0  0
  -12.4374    2.9441  -14.4668 C   0  0  0  0  0  0  0  0  0  0  0  0
  -11.1168    2.4246  -13.4477 Cl  0  0  0  0  0  0  0  0  0  0  0  0
  -15.1786    4.7391  -17.0512 O   0  0  0  0  0  0  0  0  0  0  0  0
  -15.0487    4.6690  -18.4598 C   0  0  0  0  0  0  0  0  0  0  0  0
  -11.0922    4.8751  -14.7744 O   0  0  0  0  0  0  0  0  0  0  0  0
  -11.1173    6.2832  -14.5953 C   0  0  0  0  0  0  0  0  0  0  0  0
  -15.1286    0.8186  -13.2729 C   0  0  0  0  0  0  0  0  0  0  0  0
  -15.8306   -1.6716  -12.7127 C   0  0  0  0  0  0  0  0  0  0  0  0
  -15.5293   -0.5239  -12.8449 C   0  0  0  0  0  0  0  0  0  0  0  0
  -16.2145   -3.7899  -11.4339 C   0  0  0  0  0  0  0  0  0  0  0  0
  -16.6388   -5.1162  -11.5386 C   0  0  0  0  0  0  0  0  0  0  0  0
  -16.8864   -5.6825  -12.7843 C   0  0  0  0  0  0  0  0  0  0  0  0
  -16.6516   -4.9153  -13.9083 C   0  0  0  0  0  0  0  0  0  0  0  0
  -16.2619   -3.6257  -13.8615 N   0  0  0  0  0  0  0  0  0  0  0  0
  -16.0805   -3.0803  -12.6307 C   0  0  0  0  0  0  0  0  0  0  0  0
  -14.6718   -3.5433   -9.6125 C   0  0  0  0  0  0  0  0  0  0  0  0
  -15.9809   -3.4147  -10.1408 O   0  0  0  0  0  0  0  0  0  0  0  0
 39 40  1  0  0  0
 40 33  1  0  0  0
 33 34  1  0  0  0
 33 38  2  0  0  0
 34 35  2  0  0  0
 35 36  1  0  0  0
 36 37  2  0  0  0
 37 38  1  0  0  0
 38 31  1  0  0  0
 31 32  3  0  0  0
 32 30  1  0  0  0
 30  1  1  0  0  0
  1  2  1  0  0  0
  1 18  1  0  0  0
  2  3  1  0  0  0
  2 11  2  0  0  0
  3  4  2  0  0  0
  4  5  1  0  0  0
  5  6  1  0  0  0
  5 10  2  0  0  0
  6  7  2  0  0  0
  7  8  1  0  0  0
  8 12  1  0  0  0
  8  9  2  0  0  0
 12 13  1  0  0  0
 12 17  2  0  0  0
 13 14  2  0  0  0
 14 15  1  0  0  0
 15 16  1  0  0  0
 15 17  1  0  0  0
  9 10  1  0  0  0
 10 11  1  0  0  0
 18 19  1  0  0  0
 18 24  2  0  0  0
 19 20  1  0  0  0
 19 21  2  0  0  0
 21 26  1  0  0  0
 21 22  1  0  0  0
 26 27  1  0  0  0
 22 23  2  0  0  0
 23 28  1  0  0  0
 23 24  1  0  0  0
 28 29  1  0  0  0
 24 25  1  0  0  0
M  END
> <minimizedAffinity>
-7.55448

$$$$
