CHEMBL4552628


 31 34  0  0  0  0  0  0  0  0999 V2000
  -28.1362   -5.4334   -4.2458 C   0  0  0  0  0  0  0  0  0  0  0  0
  -28.6782   -5.9272   -5.5475 C   0  0  0  0  0  0  0  0  0  0  0  0
  -29.2615   -7.5256   -5.6140 S   0  0  0  0  0  0  0  0  0  0  0  0
  -29.7221   -7.3980   -7.2661 C   0  0  0  0  0  0  0  0  0  0  0  0
  -29.4390   -6.1345   -7.7490 C   0  0  0  0  0  0  0  0  0  0  0  0
  -28.8170   -5.2867   -6.7670 C   0  0  0  0  0  0  0  0  0  0  0  0
  -28.4047   -3.9138   -7.0785 C   0  0  0  0  0  0  0  0  0  0  0  0
  -27.8648   -3.4704   -8.2994 C   0  0  0  0  0  0  0  0  0  0  0  0
  -27.5741   -2.1690   -8.3013 N   0  0  0  0  0  0  0  0  0  0  0  0
  -27.9487   -1.7424   -7.0724 N   0  0  0  0  0  0  0  0  0  0  0  0
  -27.8652   -0.4485   -6.5803 C   0  0  0  0  0  0  0  0  0  0  0  0
  -28.2842   -0.1849   -5.3392 C   0  0  0  0  0  0  0  0  0  0  0  0
  -28.2440    1.3578   -4.6190 Cl  0  0  0  0  0  0  0  0  0  0  0  0
  -28.8125   -1.3450   -4.5698 C   0  0  0  0  0  0  0  0  0  0  0  0
  -28.9021   -2.5666   -5.0019 N   0  0  0  0  0  0  0  0  0  0  0  0
  -28.4669   -2.7843   -6.2874 C   0  0  0  0  0  0  0  0  0  0  0  0
  -30.3069   -8.5487   -7.9595 C   0  0  0  0  0  0  0  0  0  0  0  0
  -31.5019   -8.8146   -7.9742 O   0  0  0  0  0  0  0  0  0  0  0  0
  -29.3631   -9.2948   -8.6118 N   0  0  0  0  0  0  0  0  0  0  0  0
  -28.4205   -8.9597   -8.4771 H   0  0  0  0  0  0  0  0  0  0  0  0
  -29.5105  -10.5041   -9.4395 C   0  0  0  0  0  0  0  0  0  0  0  0
  -28.8042  -11.6704   -8.6761 C   0  0  0  0  0  0  0  0  0  0  0  0
  -29.3671  -11.8800   -7.3321 N   0  0  0  0  0  0  0  0  0  0  0  0
  -27.2845  -11.3997   -8.5702 C   0  0  0  0  0  0  0  0  0  0  0  0
  -26.6437  -11.1790   -9.9414 C   0  0  0  0  0  0  0  0  0  0  0  0
  -27.3805  -10.1408  -10.7859 C   0  0  0  0  0  0  0  0  0  0  0  0
  -28.8743  -10.4236  -10.8425 C   0  0  0  0  0  0  0  0  0  0  0  0
  -29.0568  -11.6175  -11.4788 F   0  0  0  0  0  0  0  0  0  0  0  0
  -29.4830   -9.4993  -11.6188 F   0  0  0  0  0  0  0  0  0  0  0  0
  -29.4819  -11.0120   -6.8148 H   0  0  0  0  0  0  0  0  0  0  0  0
  -28.7668  -12.4874   -6.7771 H   0  0  0  0  0  0  0  0  0  0  0  0
  1  2  1  0  0  0
  2  3  1  0  0  0
  2  6  2  0  0  0
  3  4  1  0  0  0
  4 17  1  0  0  0
  4  5  2  0  0  0
 17 18  2  0  0  0
 17 19  1  0  0  0
 19 21  1  0  0  0
 19 20  1  0  0  0
 21 22  1  0  0  0
 21 27  1  0  0  0
 22 24  1  0  0  0
 22 23  1  0  0  0
 23 30  1  0  0  0
 23 31  1  0  0  0
 24 25  1  0  0  0
 25 26  1  0  0  0
 26 27  1  0  0  0
 27 28  1  0  0  0
 27 29  1  0  0  0
  5  6  1  0  0  0
  6  7  1  0  0  0
  7  8  1  0  0  0
  7 16  2  0  0  0
  8  9  2  0  0  0
  9 10  1  0  0  0
 10 11  1  0  0  0
 10 16  1  0  0  0
 11 12  2  0  0  0
 12 13  1  0  0  0
 12 14  1  0  0  0
 14 15  2  0  0  0
 15 16  1  0  0  0
M  END
> <minimizedAffinity>
-8.88802

$$$$
