CHEMBL1615182


 30 33  0  0  0  0  0  0  0  0999 V2000
  -28.6970   -6.1856   -5.4550 N   0  0  0  0  0  0  0  0  0  0  0  0
  -29.0919   -6.0656   -6.7924 C   0  0  0  0  0  0  0  0  0  0  0  0
  -29.3308   -4.8027   -7.0825 N   0  0  0  0  0  0  0  0  0  0  0  0
  -29.1463   -4.0913   -5.9406 C   0  0  0  0  0  0  0  0  0  0  0  0
  -29.2889   -2.7112   -5.7358 C   0  0  0  0  0  0  0  0  0  0  0  0
  -29.0205   -2.1846   -4.4695 C   0  0  0  0  0  0  0  0  0  0  0  0
  -28.6223   -3.0173   -3.4261 C   0  0  0  0  0  0  0  0  0  0  0  0
  -28.4872   -4.3975   -3.6128 C   0  0  0  0  0  0  0  0  0  0  0  0
  -28.7650   -4.9146   -4.8892 C   0  0  0  0  0  0  0  0  0  0  0  0
  -26.6631   -8.6782   -3.9229 C   0  0  0  0  0  0  0  0  0  0  0  0
  -27.5200   -9.6425   -3.6218 N   0  0  0  0  0  0  0  0  0  0  0  0
  -28.7955   -9.3688   -3.8896 C   0  0  0  0  0  0  0  0  0  0  0  0
  -29.2673   -8.2320   -4.3959 N   0  0  0  0  0  0  0  0  0  0  0  0
  -28.3125   -7.3718   -4.7663 C   0  0  0  0  0  0  0  0  0  0  0  0
  -27.0044   -7.5705   -4.5582 N   0  0  0  0  0  0  0  0  0  0  0  0
  -25.3364   -8.7619   -3.5446 N   0  0  0  0  0  0  0  0  0  0  0  0
  -24.8657   -7.8987   -3.7883 H   0  0  0  0  0  0  0  0  0  0  0  0
  -24.6535   -9.9937   -3.8856 C   0  0  0  0  0  0  0  0  0  0  0  0
  -23.1431   -9.7348   -6.2063 N   0  0  0  0  0  0  0  0  0  0  0  0
  -23.8279   -9.8522   -5.1540 C   0  0  0  0  0  0  0  0  0  0  0  0
  -29.3061   -7.1495   -7.5991 N   0  0  0  0  0  0  0  0  0  0  0  0
  -28.5042   -7.6949   -7.9041 H   0  0  0  0  0  0  0  0  0  0  0  0
  -30.5314   -7.8603   -7.6661 C   0  0  0  0  0  0  0  0  0  0  0  0
  -31.7041   -7.4355   -7.0208 C   0  0  0  0  0  0  0  0  0  0  0  0
  -32.8504   -8.2355   -6.9747 C   0  0  0  0  0  0  0  0  0  0  0  0
  -32.8526   -9.4831   -7.5862 C   0  0  0  0  0  0  0  0  0  0  0  0
  -31.7143   -9.9010   -8.2639 C   0  0  0  0  0  0  0  0  0  0  0  0
  -31.6672  -11.1241   -8.8685 O   0  0  0  0  0  0  0  0  0  0  0  0
  -30.5702   -9.1003   -8.3224 C   0  0  0  0  0  0  0  0  0  0  0  0
  -32.4775  -11.6083   -8.6365 H   0  0  0  0  0  0  0  0  0  0  0  0
 19 20  3  0  0  0
 20 18  1  0  0  0
 18 16  1  0  0  0
 16 10  1  0  0  0
 16 17  1  0  0  0
 10 11  1  0  0  0
 10 15  2  0  0  0
 11 12  2  0  0  0
 12 13  1  0  0  0
 13 14  2  0  0  0
 14  1  1  0  0  0
 14 15  1  0  0  0
  1  2  1  0  0  0
  1  9  1  0  0  0
  2 21  1  0  0  0
  2  3  2  0  0  0
 21 23  1  0  0  0
 21 22  1  0  0  0
 23 24  1  0  0  0
 23 29  2  0  0  0
 24 25  2  0  0  0
 25 26  1  0  0  0
 26 27  2  0  0  0
 27 28  1  0  0  0
 27 29  1  0  0  0
 28 30  1  0  0  0
  3  4  1  0  0  0
  4  5  1  0  0  0
  4  9  2  0  0  0
  5  6  2  0  0  0
  6  7  1  0  0  0
  7  8  2  0  0  0
  8  9  1  0  0  0
M  END
> <minimizedAffinity>
-7.92367

$$$$
