CHEMBL203438


 34 39  0  0  0  0  0  0  0  0999 V2000
  -28.5622   -4.0592   -4.8075 C   0  0  0  0  0  0  0  0  0  0  0  0
  -27.5093   -4.8965   -4.8937 N   0  0  0  0  0  0  0  0  0  0  0  0
  -27.6354   -6.2254   -4.6033 N   0  0  0  0  0  0  0  0  0  0  0  0
  -28.7803   -6.7270   -4.1025 C   0  0  0  0  0  0  0  0  0  0  0  0
  -29.8771   -5.8678   -3.8452 C   0  0  0  0  0  0  0  0  0  0  0  0
  -31.0681   -6.3024   -3.2004 C   0  0  0  0  0  0  0  0  0  0  0  0
  -32.1566   -5.4525   -2.9982 C   0  0  0  0  0  0  0  0  0  0  0  0
  -32.1228   -4.1711   -3.5133 C   0  0  0  0  0  0  0  0  0  0  0  0
  -30.9793   -3.7306   -4.1768 C   0  0  0  0  0  0  0  0  0  0  0  0
  -29.7987   -4.5200   -4.2839 C   0  0  0  0  0  0  0  0  0  0  0  0
  -28.0145   -0.3027   -4.6257 C   0  0  0  0  0  0  0  0  0  0  0  0
  -28.1218   -1.6469   -4.2855 C   0  0  0  0  0  0  0  0  0  0  0  0
  -28.2710   -2.6628   -5.2584 C   0  0  0  0  0  0  0  0  0  0  0  0
  -28.1194   -2.2902   -6.6426 C   0  0  0  0  0  0  0  0  0  0  0  0
  -28.1113   -3.1790   -7.7476 C   0  0  0  0  0  0  0  0  0  0  0  0
  -27.9015   -2.7092   -9.0367 C   0  0  0  0  0  0  0  0  0  0  0  0
  -27.7415   -1.4120   -9.3420 N   0  0  0  0  0  0  0  0  0  0  0  0
  -27.7794   -0.5534   -8.3018 C   0  0  0  0  0  0  0  0  0  0  0  0
  -27.9488   -0.9190   -6.9625 C   0  0  0  0  0  0  0  0  0  0  0  0
  -27.9448    0.0591   -5.9609 C   0  0  0  0  0  0  0  0  0  0  0  0
  -28.9140   -8.1207   -3.9292 N   0  0  0  0  0  0  0  0  0  0  0  0
  -29.5755   -8.3528   -3.1988 H   0  0  0  0  0  0  0  0  0  0  0  0
  -28.0279   -9.1669   -4.2560 C   0  0  0  0  0  0  0  0  0  0  0  0
  -27.1310   -9.7389   -3.3515 C   0  0  0  0  0  0  0  0  0  0  0  0
  -26.1378  -10.6436   -3.7694 C   0  0  0  0  0  0  0  0  0  0  0  0
  -25.9651  -10.9912   -5.1118 C   0  0  0  0  0  0  0  0  0  0  0  0
  -26.8883  -10.4350   -6.0087 C   0  0  0  0  0  0  0  0  0  0  0  0
  -27.8904   -9.5406   -5.5953 C   0  0  0  0  0  0  0  0  0  0  0  0
  -24.9347  -11.7994   -5.5411 N   0  0  0  0  0  0  0  0  0  0  0  0
  -23.9619  -12.4388   -4.6408 C   0  0  0  0  0  0  0  0  0  0  0  0
  -22.5281  -12.0695   -5.0545 C   0  0  0  0  0  0  0  0  0  0  0  0
  -22.2788  -12.3850   -6.4353 O   0  0  0  0  0  0  0  0  0  0  0  0
  -23.1906  -11.6615   -7.2772 C   0  0  0  0  0  0  0  0  0  0  0  0
  -24.6570  -12.0152   -6.9711 C   0  0  0  0  0  0  0  0  0  0  0  0
 11 12  1  0  0  0
 11 20  2  0  0  0
 12 13  2  0  0  0
 13  1  1  0  0  0
 13 14  1  0  0  0
  1  2  1  0  0  0
  1 10  2  0  0  0
  2  3  2  0  0  0
  3  4  1  0  0  0
  4 21  1  0  0  0
  4  5  2  0  0  0
 21 23  1  0  0  0
 21 22  1  0  0  0
 23 24  1  0  0  0
 23 28  2  0  0  0
 24 25  2  0  0  0
 25 26  1  0  0  0
 26 29  1  0  0  0
 26 27  2  0  0  0
 29 30  1  0  0  0
 29 34  1  0  0  0
 30 31  1  0  0  0
 31 32  1  0  0  0
 32 33  1  0  0  0
 33 34  1  0  0  0
 27 28  1  0  0  0
  5  6  1  0  0  0
  5 10  1  0  0  0
  6  7  2  0  0  0
  7  8  1  0  0  0
  8  9  2  0  0  0
  9 10  1  0  0  0
 14 15  1  0  0  0
 14 19  2  0  0  0
 15 16  2  0  0  0
 16 17  1  0  0  0
 17 18  2  0  0  0
 18 19  1  0  0  0
 19 20  1  0  0  0
M  END
> <minimizedAffinity>
-8.71810

$$$$
