CHEMBL1985681


 25 28  0  0  0  0  0  0  0  0999 V2000
  -17.8948    1.3404  -15.0601 C   0  0  0  0  0  0  0  0  0  0  0  0
  -17.4240    2.3525  -15.9329 C   0  0  0  0  0  0  0  0  0  0  0  0
  -16.0801    2.7501  -15.9211 C   0  0  0  0  0  0  0  0  0  0  0  0
  -15.2316    2.0984  -15.0529 C   0  0  0  0  0  0  0  0  0  0  0  0
  -15.6738    1.0932  -14.2007 C   0  0  0  0  0  0  0  0  0  0  0  0
  -17.0100    0.7168  -14.1736 C   0  0  0  0  0  0  0  0  0  0  0  0
  -14.4944    0.5531  -13.4159 C   0  0  0  0  0  0  0  0  0  0  0  0
  -13.3304    1.3770  -13.9772 C   0  0  0  0  0  0  0  0  0  0  0  0
  -12.1503    1.3051  -13.6786 O   0  0  0  0  0  0  0  0  0  0  0  0
  -13.8664    2.2795  -14.8984 N   0  0  0  0  0  0  0  0  0  0  0  0
  -13.2976    2.9520  -15.3911 H   0  0  0  0  0  0  0  0  0  0  0  0
  -14.3838   -0.9434  -13.5018 C   0  0  0  0  0  0  0  0  0  0  0  0
  -13.7893   -1.6655  -14.5281 C   0  0  0  0  0  0  0  0  0  0  0  0
  -13.9761   -3.0559  -14.5610 C   0  0  0  0  0  0  0  0  0  0  0  0
  -14.7612   -3.7055  -13.5946 C   0  0  0  0  0  0  0  0  0  0  0  0
  -15.2970   -2.9057  -12.6038 C   0  0  0  0  0  0  0  0  0  0  0  0
  -15.1085   -1.5646  -12.5461 N   0  0  0  0  0  0  0  0  0  0  0  0
  -16.1826   -3.3992  -11.5106 C   0  0  0  0  0  0  0  0  0  0  0  0
  -16.6193   -4.8451  -11.5632 C   0  0  0  0  0  0  0  0  0  0  0  0
  -15.8394   -5.7746  -12.4781 C   0  0  0  0  0  0  0  0  0  0  0  0
  -15.1292   -5.1613  -13.6952 C   0  0  0  0  0  0  0  0  0  0  0  0
  -13.9601   -5.9405  -13.9626 O   0  0  0  0  0  0  0  0  0  0  0  0
  -14.2094   -6.8787  -13.8827 H   0  0  0  0  0  0  0  0  0  0  0  0
  -20.3831    0.6173  -15.1512 N   0  0  0  0  0  0  0  0  0  0  0  0
  -19.2687    0.9379  -15.1126 C   0  0  0  0  0  0  0  0  0  0  0  0
 24 25  3  0  0  0
 25  1  1  0  0  0
  1  2  1  0  0  0
  1  6  2  0  0  0
  2  3  2  0  0  0
  3  4  1  0  0  0
  4  5  2  0  0  0
  4 10  1  0  0  0
  5  6  1  0  0  0
  5  7  1  0  0  0
  7 12  1  0  0  0
  7  8  1  0  0  0
 12 13  1  0  0  0
 12 17  2  0  0  0
 13 14  2  0  0  0
 14 15  1  0  0  0
 15 16  2  0  0  0
 15 21  1  0  0  0
 16 17  1  0  0  0
 16 18  1  0  0  0
 18 19  1  0  0  0
 19 20  1  0  0  0
 20 21  1  0  0  0
 21 22  1  0  0  0
 22 23  1  0  0  0
  8  9  2  0  0  0
  8 10  1  0  0  0
 10 11  1  0  0  0
M  END
> <minimizedAffinity>
-7.76581

$$$$
