CHEMBL585205


 39 43  0  0  0  0  0  0  0  0999 V2000
  -28.7404   -2.8477   -6.3462 C   0  0  0  0  0  0  0  0  0  0  0  0
  -27.9117   -1.7484   -6.6190 C   0  0  0  0  0  0  0  0  0  0  0  0
  -27.5786   -1.3723   -7.9481 C   0  0  0  0  0  0  0  0  0  0  0  0
  -28.0771   -2.0773   -9.0481 C   0  0  0  0  0  0  0  0  0  0  0  0
  -28.9529   -3.1385   -8.7711 C   0  0  0  0  0  0  0  0  0  0  0  0
  -29.2726   -3.5129   -7.4465 C   0  0  0  0  0  0  0  0  0  0  0  0
  -30.1911   -4.4721   -7.2779 F   0  0  0  0  0  0  0  0  0  0  0  0
  -27.7701   -1.7782  -10.4125 N   0  0  0  0  0  0  0  0  0  0  0  0
  -26.5204   -1.6315  -10.9886 C   0  0  0  0  0  0  0  0  0  0  0  0
  -25.4540   -1.7037  -10.3705 O   0  0  0  0  0  0  0  0  0  0  0  0
  -28.5639   -1.7223  -11.0510 H   0  0  0  0  0  0  0  0  0  0  0  0
  -26.4361   -1.3613  -12.5074 C   0  0  0  0  0  0  0  0  0  0  0  0
  -25.1365   -0.8996  -13.1081 C   0  0  0  0  0  0  0  0  0  0  0  0
  -24.7457   -1.3030  -14.2085 O   0  0  0  0  0  0  0  0  0  0  0  0
  -24.3997   -0.0098  -12.3353 N   0  0  0  0  0  0  0  0  0  0  0  0
  -24.8495    0.4174  -11.5285 H   0  0  0  0  0  0  0  0  0  0  0  0
  -23.1664    0.5795  -12.8435 C   0  0  0  0  0  0  0  0  0  0  0  0
  -23.3909    1.9412  -13.5202 C   0  0  0  0  0  0  0  0  0  0  0  0
  -22.0714    2.5296  -14.0335 C   0  0  0  0  0  0  0  0  0  0  0  0
  -21.3582    1.5676  -14.9797 C   0  0  0  0  0  0  0  0  0  0  0  0
  -21.1428    0.2053  -14.3275 C   0  0  0  0  0  0  0  0  0  0  0  0
  -22.4499   -0.3854  -13.8009 C   0  0  0  0  0  0  0  0  0  0  0  0
  -29.2513   -2.9543   -5.0654 O   0  0  0  0  0  0  0  0  0  0  0  0
  -28.2274   -7.3733   -4.3501 C   0  0  0  0  0  0  0  0  0  0  0  0
  -29.3840   -7.4551   -3.6198 C   0  0  0  0  0  0  0  0  0  0  0  0
  -30.1267   -6.2560   -3.6961 C   0  0  0  0  0  0  0  0  0  0  0  0
  -31.3341   -6.0837   -3.1068 N   0  0  0  0  0  0  0  0  0  0  0  0
  -31.8693   -4.8669   -3.2661 C   0  0  0  0  0  0  0  0  0  0  0  0
  -31.2978   -3.8146   -3.9857 C   0  0  0  0  0  0  0  0  0  0  0  0
  -30.0604   -3.9831   -4.6253 C   0  0  0  0  0  0  0  0  0  0  0  0
  -29.4802   -5.2561   -4.4371 C   0  0  0  0  0  0  0  0  0  0  0  0
  -27.9533   -5.8232   -4.9830 S   0  0  0  0  0  0  0  0  0  0  0  0
  -25.6682   -9.8554   -4.7605 N   0  0  0  0  0  0  0  0  0  0  0  0
  -26.7025  -10.3584   -5.4903 C   0  0  0  0  0  0  0  0  0  0  0  0
  -27.7630   -9.5970   -5.3980 N   0  0  0  0  0  0  0  0  0  0  0  0
  -27.3786   -8.5527   -4.5935 C   0  0  0  0  0  0  0  0  0  0  0  0
  -26.0893   -8.7117   -4.1496 C   0  0  0  0  0  0  0  0  0  0  0  0
  -23.4346   -9.8668   -5.7167 C   0  0  0  0  0  0  0  0  0  0  0  0
  -24.3445  -10.4185   -4.6386 C   0  0  0  0  0  0  0  0  0  0  0  0
 38 39  1  0  0  0
 39 33  1  0  0  0
 33 34  1  0  0  0
 33 37  1  0  0  0
 34 35  2  0  0  0
 35 36  1  0  0  0
 36 24  1  0  0  0
 36 37  2  0  0  0
 24 25  2  0  0  0
 24 32  1  0  0  0
 25 26  1  0  0  0
 26 27  1  0  0  0
 26 31  2  0  0  0
 27 28  2  0  0  0
 28 29  1  0  0  0
 29 30  2  0  0  0
 30 23  1  0  0  0
 30 31  1  0  0  0
 23  1  1  0  0  0
  1  2  1  0  0  0
  1  6  2  0  0  0
  2  3  2  0  0  0
  3  4  1  0  0  0
  4  8  1  0  0  0
  4  5  2  0  0  0
  8  9  1  0  0  0
  8 11  1  0  0  0
  9 10  2  0  0  0
  9 12  1  0  0  0
 12 13  1  0  0  0
 13 14  2  0  0  0
 13 15  1  0  0  0
 15 17  1  0  0  0
 15 16  1  0  0  0
 17 18  1  0  0  0
 17 22  1  0  0  0
 18 19  1  0  0  0
 19 20  1  0  0  0
 20 21  1  0  0  0
 21 22  1  0  0  0
  5  6  1  0  0  0
  6  7  1  0  0  0
 31 32  1  0  0  0
M  END
> <minimizedAffinity>
-10.19467

$$$$
