CHEMBL3956579


 38 42  0  0  0  0  0  0  0  0999 V2000
  -28.4501   -9.6785   -5.9175 N   0  0  0  0  0  0  0  0  0  0  0  0
  -28.4400   -8.3015   -5.4628 C   0  0  0  0  0  0  0  0  0  0  0  0
  -28.8784   -8.1506   -4.1671 C   0  0  0  0  0  0  0  0  0  0  0  0
  -29.6016   -7.0129   -3.8686 C   0  0  0  0  0  0  0  0  0  0  0  0
  -29.6522   -5.9626   -4.7095 C   0  0  0  0  0  0  0  0  0  0  0  0
  -30.6470   -5.1184   -4.3509 N   0  0  0  0  0  0  0  0  0  0  0  0
  -30.5443   -3.8672   -4.7703 C   0  0  0  0  0  0  0  0  0  0  0  0
  -29.4516   -3.4551   -5.4926 C   0  0  0  0  0  0  0  0  0  0  0  0
  -28.5930   -4.3917   -6.0741 N   0  0  0  0  0  0  0  0  0  0  0  0
  -28.7478   -5.7694   -5.7418 C   0  0  0  0  0  0  0  0  0  0  0  0
  -28.2124   -7.0816   -6.1939 C   0  0  0  0  0  0  0  0  0  0  0  0
  -29.2004   -2.0017   -5.4130 C   0  0  0  0  0  0  0  0  0  0  0  0
  -28.1915   -1.2653   -4.7250 C   0  0  0  0  0  0  0  0  0  0  0  0
  -28.4229    0.0570   -4.7001 N   0  0  0  0  0  0  0  0  0  0  0  0
  -29.5928    0.1786   -5.3470 N   0  0  0  0  0  0  0  0  0  0  0  0
  -30.0092    1.4515   -5.8921 C   0  0  0  0  0  0  0  0  0  0  0  0
  -30.1863   -1.0319   -5.5888 C   0  0  0  0  0  0  0  0  0  0  0  0
  -29.8617  -11.0711   -9.1005 C   0  0  0  0  0  0  0  0  0  0  0  0
  -31.1909  -11.2824   -8.7452 C   0  0  0  0  0  0  0  0  0  0  0  0
  -31.6071  -10.9970   -7.4502 C   0  0  0  0  0  0  0  0  0  0  0  0
  -30.7133  -10.4260   -6.5366 C   0  0  0  0  0  0  0  0  0  0  0  0
  -29.3657  -10.2192   -6.8424 C   0  0  0  0  0  0  0  0  0  0  0  0
  -28.9497  -10.5932   -8.1400 C   0  0  0  0  0  0  0  0  0  0  0  0
  -28.6100  -10.2790  -10.9413 C   0  0  0  0  0  0  0  0  0  0  0  0
  -29.3708  -11.3396  -10.3552 O   0  0  0  0  0  0  0  0  0  0  0  0
  -32.8779  -11.1954   -6.9784 O   0  0  0  0  0  0  0  0  0  0  0  0
  -32.9843  -12.1341   -5.9104 C   0  0  0  0  0  0  0  0  0  0  0  0
  -27.8708  -10.5747   -4.7837 C   0  0  0  0  0  0  0  0  0  0  0  0
  -26.3185  -10.7528   -4.6153 C   0  0  0  0  0  0  0  0  0  0  0  0
  -26.0046  -11.9392   -3.6598 C   0  0  0  0  0  0  0  0  0  0  0  0
  -25.0356  -11.1642   -2.9221 O   0  0  0  0  0  0  0  0  0  0  0  0
  -25.6457   -9.9450   -3.4324 C   0  0  0  0  0  0  0  0  0  0  0  0
  -25.5813  -10.3529   -5.9197 C   0  0  0  0  0  0  0  0  0  0  0  0
  -24.2968   -9.6293   -5.7653 N   0  0  0  0  0  0  0  0  0  0  0  0
  -24.1541   -9.3987   -4.7806 H   0  0  0  0  0  0  0  0  0  0  0  0
  -23.1375  -10.4014   -6.2644 C   0  0  0  0  0  0  0  0  0  0  0  0
  -22.3338  -11.0796   -5.1473 C   0  0  0  0  0  0  0  0  0  0  0  0
  -23.6017  -11.4783   -7.2527 C   0  0  0  0  0  0  0  0  0  0  0  0
 24 25  1  0  0  0
 25 18  1  0  0  0
 18 19  1  0  0  0
 18 23  2  0  0  0
 19 20  2  0  0  0
 20 26  1  0  0  0
 20 21  1  0  0  0
 26 27  1  0  0  0
 21 22  2  0  0  0
 22  1  1  0  0  0
 22 23  1  0  0  0
  1 28  1  0  0  0
  1  2  1  0  0  0
 28 29  1  0  0  0
 29 33  1  0  0  0
 29 30  1  0  0  0
 29 32  1  0  0  0
 33 34  1  0  0  0
 34 36  1  0  0  0
 34 35  1  0  0  0
 36 37  1  0  0  0
 36 38  1  0  0  0
 30 31  1  0  0  0
 31 32  1  0  0  0
  2  3  1  0  0  0
  2 11  2  0  0  0
  3  4  2  0  0  0
  4  5  1  0  0  0
  5  6  1  0  0  0
  5 10  2  0  0  0
  6  7  2  0  0  0
  7  8  1  0  0  0
  8 12  1  0  0  0
  8  9  2  0  0  0
 12 13  1  0  0  0
 12 17  2  0  0  0
 13 14  2  0  0  0
 14 15  1  0  0  0
 15 16  1  0  0  0
 15 17  1  0  0  0
  9 10  1  0  0  0
 10 11  1  0  0  0
M  END
> <minimizedAffinity>
-7.32387

$$$$
