CHEMBL190473


 32 35  0  0  0  0  0  0  0  0999 V2000
  -29.2742   -3.0103   -6.0829 C   0  0  0  0  0  0  0  0  0  0  0  0
  -29.0704   -1.6855   -5.6947 C   0  0  0  0  0  0  0  0  0  0  0  0
  -28.3262   -0.7857   -6.3812 N   0  0  0  0  0  0  0  0  0  0  0  0
  -27.7887   -1.2160   -7.5451 C   0  0  0  0  0  0  0  0  0  0  0  0
  -27.9462   -2.4975   -8.0745 C   0  0  0  0  0  0  0  0  0  0  0  0
  -28.6922   -3.3937   -7.3044 C   0  0  0  0  0  0  0  0  0  0  0  0
  -30.8834   -6.0961   -4.9909 C   0  0  0  0  0  0  0  0  0  0  0  0
  -31.5287   -5.6730   -3.8281 C   0  0  0  0  0  0  0  0  0  0  0  0
  -31.4480   -4.4137   -3.3359 N   0  0  0  0  0  0  0  0  0  0  0  0
  -30.7116   -3.5590   -4.0848 C   0  0  0  0  0  0  0  0  0  0  0  0
  -30.0718   -3.9306   -5.2643 C   0  0  0  0  0  0  0  0  0  0  0  0
  -30.1668   -5.2065   -5.7198 N   0  0  0  0  0  0  0  0  0  0  0  0
  -31.0659   -7.4180   -5.4637 N   0  0  0  0  0  0  0  0  0  0  0  0
  -31.2514   -8.0405   -4.6797 H   0  0  0  0  0  0  0  0  0  0  0  0
  -26.6607   -9.9972   -5.9418 Cl  0  0  0  0  0  0  0  0  0  0  0  0
  -28.0521   -9.2463   -6.6236 C   0  0  0  0  0  0  0  0  0  0  0  0
  -28.2078   -9.2138   -8.0085 C   0  0  0  0  0  0  0  0  0  0  0  0
  -29.3249   -8.5942   -8.5604 C   0  0  0  0  0  0  0  0  0  0  0  0
  -30.2871   -8.0225   -7.7247 C   0  0  0  0  0  0  0  0  0  0  0  0
  -30.1557   -8.0810   -6.3298 C   0  0  0  0  0  0  0  0  0  0  0  0
  -29.0082   -8.6672   -5.7863 C   0  0  0  0  0  0  0  0  0  0  0  0
  -27.4294   -2.7948   -9.3303 N   0  0  0  0  0  0  0  0  0  0  0  0
  -28.0307   -3.4069   -9.8788 H   0  0  0  0  0  0  0  0  0  0  0  0
  -26.6774   -1.8132  -10.0954 C   0  0  0  0  0  0  0  0  0  0  0  0
  -27.5049   -1.3909  -11.3093 C   0  0  0  0  0  0  0  0  0  0  0  0
  -26.7698   -1.7210  -12.6076 C   0  0  0  0  0  0  0  0  0  0  0  0
  -25.3435   -1.2387  -12.5988 C   0  0  0  0  0  0  0  0  0  0  0  0
  -25.0403    0.0799  -12.2254 C   0  0  0  0  0  0  0  0  0  0  0  0
  -23.7192    0.5224  -12.2002 C   0  0  0  0  0  0  0  0  0  0  0  0
  -22.6857   -0.3425  -12.5552 C   0  0  0  0  0  0  0  0  0  0  0  0
  -22.9756   -1.6490  -12.9438 C   0  0  0  0  0  0  0  0  0  0  0  0
  -24.2977   -2.0946  -12.9722 C   0  0  0  0  0  0  0  0  0  0  0  0
 15 16  1  0  0  0
 16 17  1  0  0  0
 16 21  2  0  0  0
 17 18  2  0  0  0
 18 19  1  0  0  0
 19 20  2  0  0  0
 20 13  1  0  0  0
 20 21  1  0  0  0
 13  7  1  0  0  0
 13 14  1  0  0  0
  7  8  1  0  0  0
  7 12  2  0  0  0
  8  9  2  0  0  0
  9 10  1  0  0  0
 10 11  2  0  0  0
 11  1  1  0  0  0
 11 12  1  0  0  0
  1  2  1  0  0  0
  1  6  2  0  0  0
  2  3  2  0  0  0
  3  4  1  0  0  0
  4  5  2  0  0  0
  5 22  1  0  0  0
  5  6  1  0  0  0
 22 24  1  0  0  0
 22 23  1  0  0  0
 24 25  1  0  0  0
 25 26  1  0  0  0
 26 27  1  0  0  0
 27 28  1  0  0  0
 27 32  2  0  0  0
 28 29  2  0  0  0
 29 30  1  0  0  0
 30 31  2  0  0  0
 31 32  1  0  0  0
M  END
> <minimizedAffinity>
-9.78078

$$$$
