CHEMBL216039


 32 35  0  0  0  0  0  0  0  0999 V2000
  -22.0152    1.1055  -14.1099 C   0  0  0  0  0  0  0  0  0  0  0  0
  -22.9737    1.9835  -13.8167 N   0  0  0  0  0  0  0  0  0  0  0  0
  -22.5892    3.2749  -13.8303 C   0  0  0  0  0  0  0  0  0  0  0  0
  -21.4204    3.7585  -14.2932 N   0  0  0  0  0  0  0  0  0  0  0  0
  -20.4828    2.8587  -14.6180 C   0  0  0  0  0  0  0  0  0  0  0  0
  -20.6877    1.4996  -14.3470 C   0  0  0  0  0  0  0  0  0  0  0  0
  -19.6878    0.4947  -14.2410 N   0  0  0  0  0  0  0  0  0  0  0  0
  -18.8647    0.4455  -15.4119 C   0  0  0  0  0  0  0  0  0  0  0  0
  -17.8146    1.4941  -15.3289 C   0  0  0  0  0  0  0  0  0  0  0  0
  -16.5209    1.1428  -14.9731 C   0  0  0  0  0  0  0  0  0  0  0  0
  -15.4902    2.0142  -15.2566 C   0  0  0  0  0  0  0  0  0  0  0  0
  -15.7564    3.0639  -16.1331 C   0  0  0  0  0  0  0  0  0  0  0  0
  -17.0735    3.5428  -16.2099 C   0  0  0  0  0  0  0  0  0  0  0  0
  -18.1046    2.8219  -15.5979 C   0  0  0  0  0  0  0  0  0  0  0  0
  -19.3640    3.3722  -15.3198 N   0  0  0  0  0  0  0  0  0  0  0  0
  -19.1177    0.7526  -13.4316 H   0  0  0  0  0  0  0  0  0  0  0  0
  -19.4109    4.3872  -15.3213 H   0  0  0  0  0  0  0  0  0  0  0  0
  -22.2894   -0.2984  -14.2148 N   0  0  0  0  0  0  0  0  0  0  0  0
  -23.0736   -0.3552  -14.8698 H   0  0  0  0  0  0  0  0  0  0  0  0
  -22.6326   -0.8790  -12.9199 C   0  0  0  0  0  0  0  0  0  0  0  0
  -25.9505   -1.5600  -11.1553 C   0  0  0  0  0  0  0  0  0  0  0  0
  -26.8308   -1.7633  -12.2141 C   0  0  0  0  0  0  0  0  0  0  0  0
  -26.3617   -1.6929  -13.5298 C   0  0  0  0  0  0  0  0  0  0  0  0
  -25.0138   -1.4154  -13.7954 C   0  0  0  0  0  0  0  0  0  0  0  0
  -24.1121   -1.1945  -12.7469 C   0  0  0  0  0  0  0  0  0  0  0  0
  -24.6076   -1.2732  -11.4298 C   0  0  0  0  0  0  0  0  0  0  0  0
  -27.5948   -1.9614   -9.4806 C   0  0  0  0  0  0  0  0  0  0  0  0
  -26.2588   -1.6161   -9.8238 O   0  0  0  0  0  0  0  0  0  0  0  0
  -14.2407    1.8210  -14.7450 O   0  0  0  0  0  0  0  0  0  0  0  0
  -14.2701    0.9523  -13.6047 C   0  0  0  0  0  0  0  0  0  0  0  0
  -14.8051    3.6637  -16.9180 O   0  0  0  0  0  0  0  0  0  0  0  0
  -15.3743    4.3725  -18.0335 C   0  0  0  0  0  0  0  0  0  0  0  0
 27 28  1  0  0  0
 28 21  1  0  0  0
 21 22  1  0  0  0
 21 26  2  0  0  0
 22 23  2  0  0  0
 23 24  1  0  0  0
 24 25  2  0  0  0
 25 20  1  0  0  0
 25 26  1  0  0  0
 20 18  1  0  0  0
 18  1  1  0  0  0
 18 19  1  0  0  0
  1  2  1  0  0  0
  1  6  2  0  0  0
  2  3  2  0  0  0
  3  4  1  0  0  0
  4  5  2  0  0  0
  5  6  1  0  0  0
  5 15  1  0  0  0
  6  7  1  0  0  0
  7  8  1  0  0  0
  7 16  1  0  0  0
  8  9  1  0  0  0
  9 10  1  0  0  0
  9 14  2  0  0  0
 10 11  2  0  0  0
 11 29  1  0  0  0
 11 12  1  0  0  0
 29 30  1  0  0  0
 12 31  1  0  0  0
 12 13  2  0  0  0
 31 32  1  0  0  0
 13 14  1  0  0  0
 14 15  1  0  0  0
 15 17  1  0  0  0
M  END
> <minimizedAffinity>
-8.87838

$$$$
