CHEMBL3124950


 42 46  0  0  0  0  0  0  0  0999 V2000
  -31.0432   -6.2459   -4.7493 C   0  0  0  0  0  0  0  0  0  0  0  0
  -31.9404   -6.0451   -3.6953 C   0  0  0  0  0  0  0  0  0  0  0  0
  -32.0561   -4.8047   -3.0785 C   0  0  0  0  0  0  0  0  0  0  0  0
  -31.2485   -3.7540   -3.4892 C   0  0  0  0  0  0  0  0  0  0  0  0
  -30.2272   -3.9742   -4.4230 C   0  0  0  0  0  0  0  0  0  0  0  0
  -30.1493   -5.2121   -5.0825 C   0  0  0  0  0  0  0  0  0  0  0  0
  -31.0127   -7.5139   -6.8872 C   0  0  0  0  0  0  0  0  0  0  0  0
  -31.0478   -6.5634   -7.6622 O   0  0  0  0  0  0  0  0  0  0  0  0
  -31.0247   -7.4519   -5.4974 N   0  0  0  0  0  0  0  0  0  0  0  0
  -30.8018   -8.2997   -4.9919 H   0  0  0  0  0  0  0  0  0  0  0  0
  -29.5014  -10.2407   -9.0248 C   0  0  0  0  0  0  0  0  0  0  0  0
  -30.3529  -11.3171   -8.7067 C   0  0  0  0  0  0  0  0  0  0  0  0
  -31.4220  -11.1652   -7.8127 C   0  0  0  0  0  0  0  0  0  0  0  0
  -31.6608   -9.9376   -7.1950 C   0  0  0  0  0  0  0  0  0  0  0  0
  -30.8315   -8.8584   -7.4906 C   0  0  0  0  0  0  0  0  0  0  0  0
  -29.7825   -9.0071   -8.4164 C   0  0  0  0  0  0  0  0  0  0  0  0
  -27.1533   -9.4270   -9.7466 C   0  0  0  0  0  0  0  0  0  0  0  0
  -28.3027  -10.4348   -9.9809 C   0  0  0  0  0  0  0  0  0  0  0  0
  -27.7154  -11.8463   -9.7581 C   0  0  0  0  0  0  0  0  0  0  0  0
  -28.7340  -10.3082  -11.3990 C   0  0  0  0  0  0  0  0  0  0  0  0
  -29.0848  -10.2378  -12.5044 N   0  0  0  0  0  0  0  0  0  0  0  0
  -29.2700   -3.0092   -4.7296 O   0  0  0  0  0  0  0  0  0  0  0  0
  -28.8332   -2.9130   -6.0530 C   0  0  0  0  0  0  0  0  0  0  0  0
  -28.8039   -4.0712   -6.8386 C   0  0  0  0  0  0  0  0  0  0  0  0
  -28.1481   -4.0837   -8.0581 C   0  0  0  0  0  0  0  0  0  0  0  0
  -27.6528   -2.8877   -8.5901 C   0  0  0  0  0  0  0  0  0  0  0  0
  -27.0081   -2.8196   -9.8054 N   0  0  0  0  0  0  0  0  0  0  0  0
  -26.7346   -1.5766  -10.0931 C   0  0  0  0  0  0  0  0  0  0  0  0
  -27.1901   -0.4315   -8.9265 S   0  0  0  0  0  0  0  0  0  0  0  0
  -27.8249   -1.6845   -7.8890 C   0  0  0  0  0  0  0  0  0  0  0  0
  -28.4204   -1.6641   -6.5863 C   0  0  0  0  0  0  0  0  0  0  0  0
  -26.1494   -1.2848  -11.2977 N   0  0  0  0  0  0  0  0  0  0  0  0
  -24.8209   -1.3669  -11.6204 C   0  0  0  0  0  0  0  0  0  0  0  0
  -23.9145   -1.7765  -10.9137 O   0  0  0  0  0  0  0  0  0  0  0  0
  -26.8092   -0.9652  -11.9916 H   0  0  0  0  0  0  0  0  0  0  0  0
  -24.5171   -0.8637  -13.0018 C   0  0  0  0  0  0  0  0  0  0  0  0
  -23.1297   -1.0129  -13.5850 C   0  0  0  0  0  0  0  0  0  0  0  0
  -23.6130    0.3401  -13.1526 C   0  0  0  0  0  0  0  0  0  0  0  0
  -28.5859   -0.3601   -5.8645 C   0  0  0  0  0  0  0  0  0  0  0  0
  -29.6666    0.1687   -5.6681 O   0  0  0  0  0  0  0  0  0  0  0  0
  -27.4546    0.2128   -5.3981 O   0  0  0  0  0  0  0  0  0  0  0  0
  -26.6250   -0.2544   -5.6073 H   0  0  0  0  0  0  0  0  0  0  0  0
 17 18  1  0  0  0
 18 19  1  0  0  0
 18 20  1  0  0  0
 18 11  1  0  0  0
 20 21  3  0  0  0
 11 12  1  0  0  0
 11 16  2  0  0  0
 12 13  2  0  0  0
 13 14  1  0  0  0
 14 15  2  0  0  0
 15  7  1  0  0  0
 15 16  1  0  0  0
  7  8  2  0  0  0
  7  9  1  0  0  0
  9  1  1  0  0  0
  9 10  1  0  0  0
  1  2  1  0  0  0
  1  6  2  0  0  0
  2  3  2  0  0  0
  3  4  1  0  0  0
  4  5  2  0  0  0
  5 22  1  0  0  0
  5  6  1  0  0  0
 22 23  1  0  0  0
 23 24  1  0  0  0
 23 31  2  0  0  0
 24 25  2  0  0  0
 25 26  1  0  0  0
 26 27  1  0  0  0
 26 30  2  0  0  0
 27 28  2  0  0  0
 28 32  1  0  0  0
 28 29  1  0  0  0
 32 33  1  0  0  0
 32 35  1  0  0  0
 33 34  2  0  0  0
 33 36  1  0  0  0
 36 37  1  0  0  0
 36 38  1  0  0  0
 37 38  1  0  0  0
 29 30  1  0  0  0
 30 31  1  0  0  0
 31 39  1  0  0  0
 39 40  2  0  0  0
 39 41  1  0  0  0
 41 42  1  0  0  0
M  END
> <minimizedAffinity>
-9.29838

$$$$
