CHEMBL3922453


 38 42  0  0  0  0  0  0  0  0999 V2000
  -16.8884    2.2395  -16.0014 N   0  0  0  0  0  0  0  0  0  0  0  0
  -18.2677    2.0548  -15.4518 C   0  0  0  0  0  0  0  0  0  0  0  0
  -19.0054    3.2078  -15.4639 C   0  0  0  0  0  0  0  0  0  0  0  0
  -20.2339    3.3963  -15.0818 C   0  0  0  0  0  0  0  0  0  0  0  0
  -20.9210    2.3997  -14.5997 C   0  0  0  0  0  0  0  0  0  0  0  0
  -22.1043    2.7890  -14.1892 N   0  0  0  0  0  0  0  0  0  0  0  0
  -22.9767    1.9558  -13.7297 C   0  0  0  0  0  0  0  0  0  0  0  0
  -22.7237    0.5869  -13.7344 C   0  0  0  0  0  0  0  0  0  0  0  0
  -21.4195    0.1405  -14.0771 N   0  0  0  0  0  0  0  0  0  0  0  0
  -20.4491    1.0785  -14.5063 C   0  0  0  0  0  0  0  0  0  0  0  0
  -19.0206    0.8792  -14.9236 C   0  0  0  0  0  0  0  0  0  0  0  0
  -24.0252   -0.1771  -13.5064 C   0  0  0  0  0  0  0  0  0  0  0  0
  -24.5891   -1.0469  -14.4849 C   0  0  0  0  0  0  0  0  0  0  0  0
  -25.6382   -1.6698  -13.9889 N   0  0  0  0  0  0  0  0  0  0  0  0
  -25.8089   -1.2736  -12.7605 N   0  0  0  0  0  0  0  0  0  0  0  0
  -26.8609   -1.8595  -11.9535 C   0  0  0  0  0  0  0  0  0  0  0  0
  -24.8737   -0.3380  -12.4139 C   0  0  0  0  0  0  0  0  0  0  0  0
  -15.8086    1.2601  -15.9769 C   0  0  0  0  0  0  0  0  0  0  0  0
  -15.4259    0.5570  -14.8153 C   0  0  0  0  0  0  0  0  0  0  0  0
  -14.2635   -0.2717  -14.8298 C   0  0  0  0  0  0  0  0  0  0  0  0
  -13.5137   -0.4162  -16.0022 C   0  0  0  0  0  0  0  0  0  0  0  0
  -13.8852    0.2480  -17.1705 C   0  0  0  0  0  0  0  0  0  0  0  0
  -15.0033    1.0760  -17.1433 C   0  0  0  0  0  0  0  0  0  0  0  0
  -13.8142   -0.9475  -13.7442 O   0  0  0  0  0  0  0  0  0  0  0  0
  -14.5054   -1.9014  -13.0408 C   0  0  0  0  0  0  0  0  0  0  0  0
  -13.2100    0.1125  -18.3463 O   0  0  0  0  0  0  0  0  0  0  0  0
  -13.1393   -1.0313  -19.1152 C   0  0  0  0  0  0  0  0  0  0  0  0
  -16.4770    3.5058  -16.7505 C   0  0  0  0  0  0  0  0  0  0  0  0
  -15.5508    4.6511  -16.2105 C   0  0  0  0  0  0  0  0  0  0  0  0
  -14.0775    4.6662  -16.7637 C   0  0  0  0  0  0  0  0  0  0  0  0
  -11.8668    2.7951  -14.8201 C   0  0  0  0  0  0  0  0  0  0  0  0
  -11.3182    3.1899  -16.1835 C   0  0  0  0  0  0  0  0  0  0  0  0
  -11.7152    4.6532  -16.2326 C   0  0  0  0  0  0  0  0  0  0  0  0
  -13.0868    4.7094  -15.6844 N   0  0  0  0  0  0  0  0  0  0  0  0
  -13.2271    3.4775  -14.8704 C   0  0  0  0  0  0  0  0  0  0  0  0
  -11.7334    3.2927  -12.4511 C   0  0  0  0  0  0  0  0  0  0  0  0
  -11.0411    3.3643  -13.7445 N   0  0  0  0  0  0  0  0  0  0  0  0
  -10.1797    2.7765  -13.6569 H   0  0  0  0  0  0  0  0  0  0  0  0
 36 37  1  0  0  0
 37 31  1  0  0  0
 37 38  1  0  0  0
 31 32  1  0  0  0
 31 35  1  0  0  0
 32 33  1  0  0  0
 33 34  1  0  0  0
 34 30  1  0  0  0
 34 35  1  0  0  0
 30 29  1  0  0  0
 29 28  1  0  0  0
 28  1  1  0  0  0
  1 18  1  0  0  0
  1  2  1  0  0  0
 18 19  1  0  0  0
 18 23  2  0  0  0
 19 20  2  0  0  0
 20 24  1  0  0  0
 20 21  1  0  0  0
 24 25  1  0  0  0
 21 22  2  0  0  0
 22 26  1  0  0  0
 22 23  1  0  0  0
 26 27  1  0  0  0
  2  3  1  0  0  0
  2 11  2  0  0  0
  3  4  2  0  0  0
  4  5  1  0  0  0
  5  6  1  0  0  0
  5 10  2  0  0  0
  6  7  2  0  0  0
  7  8  1  0  0  0
  8 12  1  0  0  0
  8  9  2  0  0  0
 12 13  1  0  0  0
 12 17  2  0  0  0
 13 14  2  0  0  0
 14 15  1  0  0  0
 15 16  1  0  0  0
 15 17  1  0  0  0
  9 10  1  0  0  0
 10 11  1  0  0  0
M  END
> <minimizedAffinity>
-7.81863

$$$$
