CHEMBL4446992


 51 56  0  0  0  0  0  0  0  0999 V2000
  -30.4786   -6.8971   -4.4952 C   0  0  0  0  0  0  0  0  0  0  0  0
  -29.4319   -7.2205   -3.6210 C   0  0  0  0  0  0  0  0  0  0  0  0
  -28.6205   -8.3297   -3.8826 C   0  0  0  0  0  0  0  0  0  0  0  0
  -28.8073   -9.0961   -5.0438 C   0  0  0  0  0  0  0  0  0  0  0  0
  -29.7680   -8.6634   -5.9790 C   0  0  0  0  0  0  0  0  0  0  0  0
  -30.5879   -7.5674   -5.7048 C   0  0  0  0  0  0  0  0  0  0  0  0
  -31.5241   -7.2147   -6.5979 F   0  0  0  0  0  0  0  0  0  0  0  0
  -28.0579  -10.3969   -5.2709 C   0  0  0  0  0  0  0  0  0  0  0  0
  -27.7823  -11.2698   -3.6834 S   0  0  0  0  0  0  0  0  0  0  0  0
  -26.1771  -11.9302   -4.1955 C   0  0  0  0  0  0  0  0  0  0  0  0
  -25.7601  -11.1732   -5.4367 C   0  0  0  0  0  0  0  0  0  0  0  0
  -24.6786  -11.3165   -6.0004 O   0  0  0  0  0  0  0  0  0  0  0  0
  -26.7348  -10.2871   -5.8604 N   0  0  0  0  0  0  0  0  0  0  0  0
  -26.5201   -9.5864   -7.0832 N   0  0  0  0  0  0  0  0  0  0  0  0
  -26.8680  -10.1556   -8.2991 C   0  0  0  0  0  0  0  0  0  0  0  0
  -27.3353  -11.2841   -8.3943 O   0  0  0  0  0  0  0  0  0  0  0  0
  -26.7111   -9.2651   -9.3434 N   0  0  0  0  0  0  0  0  0  0  0  0
  -25.6381   -9.0740   -7.0808 H   0  0  0  0  0  0  0  0  0  0  0  0
  -26.3720   -8.3376   -9.1211 H   0  0  0  0  0  0  0  0  0  0  0  0
  -27.2370   -9.4296  -10.6494 C   0  0  0  0  0  0  0  0  0  0  0  0
  -26.5232   -9.1416  -11.8148 C   0  0  0  0  0  0  0  0  0  0  0  0
  -27.0615   -9.4366  -13.0700 C   0  0  0  0  0  0  0  0  0  0  0  0
  -28.3282  -10.0017  -13.1614 C   0  0  0  0  0  0  0  0  0  0  0  0
  -28.8229  -10.3075  -14.3660 F   0  0  0  0  0  0  0  0  0  0  0  0
  -29.0777  -10.2582  -12.0228 C   0  0  0  0  0  0  0  0  0  0  0  0
  -28.5261   -9.9679  -10.7778 C   0  0  0  0  0  0  0  0  0  0  0  0
  -29.2437  -10.2359   -9.6749 F   0  0  0  0  0  0  0  0  0  0  0  0
  -31.4536   -5.9744   -4.1471 O   0  0  0  0  0  0  0  0  0  0  0  0
  -28.7896   -4.0212   -6.9626 C   0  0  0  0  0  0  0  0  0  0  0  0
  -29.7185   -4.6663   -6.1148 C   0  0  0  0  0  0  0  0  0  0  0  0
  -30.1495   -4.0799   -4.8908 C   0  0  0  0  0  0  0  0  0  0  0  0
  -31.0338   -4.6606   -3.9496 C   0  0  0  0  0  0  0  0  0  0  0  0
  -31.4552   -3.9087   -2.8467 C   0  0  0  0  0  0  0  0  0  0  0  0
  -30.8829   -2.6795   -2.6257 C   0  0  0  0  0  0  0  0  0  0  0  0
  -29.9946   -2.1260   -3.4585 N   0  0  0  0  0  0  0  0  0  0  0  0
  -29.6639   -2.7987   -4.5747 C   0  0  0  0  0  0  0  0  0  0  0  0
  -28.7859   -2.1700   -5.4178 C   0  0  0  0  0  0  0  0  0  0  0  0
  -28.2977   -2.7555   -6.5952 C   0  0  0  0  0  0  0  0  0  0  0  0
  -28.2687   -5.9805   -8.2448 C   0  0  0  0  0  0  0  0  0  0  0  0
  -28.3153   -4.5605   -8.1318 O   0  0  0  0  0  0  0  0  0  0  0  0
  -27.3461   -2.1190   -7.3894 O   0  0  0  0  0  0  0  0  0  0  0  0
  -27.8992   -1.5497   -8.5941 C   0  0  0  0  0  0  0  0  0  0  0  0
  -27.2265   -2.0179   -9.8827 C   0  0  0  0  0  0  0  0  0  0  0  0
  -27.6698   -1.1476  -11.0861 C   0  0  0  0  0  0  0  0  0  0  0  0
  -26.5957   -0.8049  -12.0361 N   0  0  0  0  0  0  0  0  0  0  0  0
  -25.3201   -0.4749  -11.3746 C   0  0  0  0  0  0  0  0  0  0  0  0
  -24.2149   -0.1105  -12.3961 C   0  0  0  0  0  0  0  0  0  0  0  0
  -23.9518   -1.1313  -13.4280 N   0  0  0  0  0  0  0  0  0  0  0  0
  -23.2042   -2.2642  -12.8914 C   0  0  0  0  0  0  0  0  0  0  0  0
  -25.2333   -1.5499  -14.0305 C   0  0  0  0  0  0  0  0  0  0  0  0
  -26.3695   -1.8811  -13.0248 C   0  0  0  0  0  0  0  0  0  0  0  0
 39 40  1  0  0  0
 40 29  1  0  0  0
 29 30  1  0  0  0
 29 38  2  0  0  0
 30 31  2  0  0  0
 31 32  1  0  0  0
 31 36  1  0  0  0
 32 28  1  0  0  0
 32 33  2  0  0  0
 28  1  1  0  0  0
  1  2  1  0  0  0
  1  6  2  0  0  0
  2  3  2  0  0  0
  3  4  1  0  0  0
  4  8  1  0  0  0
  4  5  2  0  0  0
  8  9  1  0  0  0
  8 13  1  0  0  0
  9 10  1  0  0  0
 10 11  1  0  0  0
 11 12  2  0  0  0
 11 13  1  0  0  0
 13 14  1  0  0  0
 14 15  1  0  0  0
 14 18  1  0  0  0
 15 16  2  0  0  0
 15 17  1  0  0  0
 17 20  1  0  0  0
 17 19  1  0  0  0
 20 21  1  0  0  0
 20 26  2  0  0  0
 21 22  2  0  0  0
 22 23  1  0  0  0
 23 24  1  0  0  0
 23 25  2  0  0  0
 25 26  1  0  0  0
 26 27  1  0  0  0
  5  6  1  0  0  0
  6  7  1  0  0  0
 33 34  1  0  0  0
 34 35  2  0  0  0
 35 36  1  0  0  0
 36 37  2  0  0  0
 37 38  1  0  0  0
 38 41  1  0  0  0
 41 42  1  0  0  0
 42 43  1  0  0  0
 43 44  1  0  0  0
 44 45  1  0  0  0
 45 46  1  0  0  0
 45 51  1  0  0  0
 46 47  1  0  0  0
 47 48  1  0  0  0
 48 49  1  0  0  0
 48 50  1  0  0  0
 50 51  1  0  0  0
M  END
> <minimizedAffinity>
-9.64949

$$$$
