CHEMBL3288525


 32 36  0  0  0  0  0  0  0  0999 V2000
  -13.8086   -3.4675  -12.8197 C   0  0  0  0  0  0  0  0  0  0  0  0
  -15.0525   -2.9914  -12.4050 C   0  0  0  0  0  0  0  0  0  0  0  0
  -15.5681   -1.7987  -12.9160 C   0  0  0  0  0  0  0  0  0  0  0  0
  -14.8967   -1.0413  -13.8989 C   0  0  0  0  0  0  0  0  0  0  0  0
  -15.3819    0.1742  -14.4723 C   0  0  0  0  0  0  0  0  0  0  0  0
  -14.6328    0.8494  -15.4514 C   0  0  0  0  0  0  0  0  0  0  0  0
  -13.4509    0.3055  -15.9215 C   0  0  0  0  0  0  0  0  0  0  0  0
  -12.9649   -0.8842  -15.3785 C   0  0  0  0  0  0  0  0  0  0  0  0
  -13.6474   -1.5443  -14.3462 C   0  0  0  0  0  0  0  0  0  0  0  0
  -13.1014   -2.7192  -13.7620 C   0  0  0  0  0  0  0  0  0  0  0  0
  -15.4735   -6.0855  -14.1947 N   0  0  0  0  0  0  0  0  0  0  0  0
  -14.6239   -6.7283  -13.3299 C   0  0  0  0  0  0  0  0  0  0  0  0
  -14.7460   -8.0771  -13.3530 N   0  0  0  0  0  0  0  0  0  0  0  0
  -14.0041   -8.8431  -12.5425 C   0  0  0  0  0  0  0  0  0  0  0  0
  -13.0789   -8.3492  -11.6552 C   0  0  0  0  0  0  0  0  0  0  0  0
  -12.9204   -6.9587  -11.6439 C   0  0  0  0  0  0  0  0  0  0  0  0
  -11.8206   -6.1074  -10.6372 S   0  0  0  0  0  0  0  0  0  0  0  0
  -12.2887   -4.6147  -11.2803 C   0  0  0  0  0  0  0  0  0  0  0  0
  -13.2884   -4.7127  -12.2421 C   0  0  0  0  0  0  0  0  0  0  0  0
  -13.6698   -6.1072  -12.4732 C   0  0  0  0  0  0  0  0  0  0  0  0
  -16.0463   -6.6920  -14.7641 H   0  0  0  0  0  0  0  0  0  0  0  0
  -15.5987   -5.0902  -14.2109 H   0  0  0  0  0  0  0  0  0  0  0  0
  -16.6732    0.7871  -14.0247 C   0  0  0  0  0  0  0  0  0  0  0  0
  -16.8244    1.0541  -12.8419 O   0  0  0  0  0  0  0  0  0  0  0  0
  -17.6227    0.9737  -15.0274 N   0  0  0  0  0  0  0  0  0  0  0  0
  -17.4312    0.5848  -15.9444 H   0  0  0  0  0  0  0  0  0  0  0  0
  -18.9093    1.5330  -14.8467 C   0  0  0  0  0  0  0  0  0  0  0  0
  -19.1209    2.8827  -14.5688 C   0  0  0  0  0  0  0  0  0  0  0  0
  -20.4084    3.3736  -14.3297 C   0  0  0  0  0  0  0  0  0  0  0  0
  -21.4978    2.5126  -14.3832 C   0  0  0  0  0  0  0  0  0  0  0  0
  -21.3041    1.1695  -14.6995 C   0  0  0  0  0  0  0  0  0  0  0  0
  -20.0163    0.6802  -14.9375 C   0  0  0  0  0  0  0  0  0  0  0  0
 11 12  1  0  0  0
 11 21  1  0  0  0
 11 22  1  0  0  0
 12 13  1  0  0  0
 12 20  2  0  0  0
 13 14  2  0  0  0
 14 15  1  0  0  0
 15 16  2  0  0  0
 16 17  1  0  0  0
 16 20  1  0  0  0
 17 18  1  0  0  0
 18 19  2  0  0  0
 19  1  1  0  0  0
 19 20  1  0  0  0
  1  2  1  0  0  0
  1 10  2  0  0  0
  2  3  2  0  0  0
  3  4  1  0  0  0
  4  5  1  0  0  0
  4  9  2  0  0  0
  5 23  1  0  0  0
  5  6  2  0  0  0
 23 24  2  0  0  0
 23 25  1  0  0  0
 25 27  1  0  0  0
 25 26  1  0  0  0
 27 28  1  0  0  0
 27 32  2  0  0  0
 28 29  2  0  0  0
 29 30  1  0  0  0
 30 31  2  0  0  0
 31 32  1  0  0  0
  6  7  1  0  0  0
  7  8  2  0  0  0
  8  9  1  0  0  0
  9 10  1  0  0  0
M  END
> <minimizedAffinity>
-9.18020

$$$$
