CHEMBL3909401


 41 45  0  0  0  0  0  0  0  0999 V2000
  -21.4122   11.4759  -18.3726 C   0  0  0  0  0  0  0  0  0  0  0  0
  -20.0440   11.5242  -18.4920 N   0  0  0  0  0  0  0  0  0  0  0  0
  -19.4852   12.0470  -19.5955 C   0  0  0  0  0  0  0  0  0  0  0  0
  -20.2103   12.4645  -20.6363 N   0  0  0  0  0  0  0  0  0  0  0  0
  -21.5848   12.3518  -20.5374 C   0  0  0  0  0  0  0  0  0  0  0  0
  -22.2461   11.8912  -19.3980 C   0  0  0  0  0  0  0  0  0  0  0  0
  -23.7446   11.9390  -19.3601 C   0  0  0  0  0  0  0  0  0  0  0  0
  -24.2884   12.6587  -18.3406 F   0  0  0  0  0  0  0  0  0  0  0  0
  -24.2791   12.4773  -20.4963 F   0  0  0  0  0  0  0  0  0  0  0  0
  -24.3076   10.6993  -19.2513 F   0  0  0  0  0  0  0  0  0  0  0  0
  -18.0665   12.2884  -19.6123 N   0  0  0  0  0  0  0  0  0  0  0  0
  -17.8580   13.1553  -19.1483 H   0  0  0  0  0  0  0  0  0  0  0  0
  -16.9758   11.4553  -19.9629 C   0  0  0  0  0  0  0  0  0  0  0  0
  -17.0647   10.0828  -20.0018 C   0  0  0  0  0  0  0  0  0  0  0  0
  -15.9377    9.2333  -20.2912 C   0  0  0  0  0  0  0  0  0  0  0  0
  -14.5983    9.6698  -20.2039 C   0  0  0  0  0  0  0  0  0  0  0  0
  -14.5434   11.0635  -20.4011 C   0  0  0  0  0  0  0  0  0  0  0  0
  -15.7039   11.9328  -20.3061 C   0  0  0  0  0  0  0  0  0  0  0  0
  -13.2616    8.7773  -19.7750 C   0  0  0  0  0  0  0  0  0  0  0  0
  -12.0059    8.0977  -20.5895 C   0  0  0  0  0  0  0  0  0  0  0  0
  -12.0977    6.6460  -21.1707 C   0  0  0  0  0  0  0  0  0  0  0  0
  -12.8333    5.6650  -20.3930 N   0  0  0  0  0  0  0  0  0  0  0  0
  -13.8763    6.2117  -19.5364 C   0  0  0  0  0  0  0  0  0  0  0  0
  -13.5938    7.5627  -18.8452 C   0  0  0  0  0  0  0  0  0  0  0  0
  -12.1879    5.0719  -19.8722 H   0  0  0  0  0  0  0  0  0  0  0  0
  -21.9723   11.0734  -17.0125 C   0  0  0  0  0  0  0  0  0  0  0  0
  -23.4971   11.2060  -16.8072 C   0  0  0  0  0  0  0  0  0  0  0  0
  -25.3043   11.7950  -15.0844 C   0  0  0  0  0  0  0  0  0  0  0  0
  -25.6058   12.1882  -13.7415 C   0  0  0  0  0  0  0  0  0  0  0  0
  -24.6565   12.0642  -12.7110 C   0  0  0  0  0  0  0  0  0  0  0  0
  -23.3483   11.7540  -13.0166 C   0  0  0  0  0  0  0  0  0  0  0  0
  -22.9883   11.6151  -14.3477 C   0  0  0  0  0  0  0  0  0  0  0  0
  -23.9317   11.6055  -15.4008 C   0  0  0  0  0  0  0  0  0  0  0  0
  -26.3909   10.9577  -15.8057 C   0  0  0  0  0  0  0  0  0  0  0  0
  -26.2030   10.4088  -17.2103 C   0  0  0  0  0  0  0  0  0  0  0  0
  -26.3918    9.4569  -16.0713 C   0  0  0  0  0  0  0  0  0  0  0  0
  -28.3652   10.8604  -14.4395 N   0  0  0  0  0  0  0  0  0  0  0  0
  -27.7390   11.4884  -15.4868 C   0  0  0  0  0  0  0  0  0  0  0  0
  -28.1195   12.4640  -16.1036 O   0  0  0  0  0  0  0  0  0  0  0  0
  -29.3125   11.0053  -14.1688 H   0  0  0  0  0  0  0  0  0  0  0  0
  -27.8418   10.5805  -13.6288 H   0  0  0  0  0  0  0  0  0  0  0  0
 37 38  1  0  0  0
 37 40  1  0  0  0
 37 41  1  0  0  0
 38 39  2  0  0  0
 38 34  1  0  0  0
 34 28  1  0  0  0
 34 35  1  0  0  0
 34 36  1  0  0  0
 28 29  1  0  0  0
 28 33  2  0  0  0
 29 30  2  0  0  0
 30 31  1  0  0  0
 31 32  2  0  0  0
 32 33  1  0  0  0
 33 27  1  0  0  0
 27 26  1  0  0  0
 26  1  1  0  0  0
  1  2  1  0  0  0
  1  6  2  0  0  0
  2  3  2  0  0  0
  3 11  1  0  0  0
  3  4  1  0  0  0
 11 13  1  0  0  0
 11 12  1  0  0  0
 13 14  1  0  0  0
 13 18  2  0  0  0
 14 15  2  0  0  0
 15 16  1  0  0  0
 16 19  1  0  0  0
 16 17  2  0  0  0
 19 20  1  0  0  0
 19 24  1  0  0  0
 20 21  1  0  0  0
 21 22  1  0  0  0
 22 23  1  0  0  0
 22 25  1  0  0  0
 23 24  1  0  0  0
 17 18  1  0  0  0
  4  5  2  0  0  0
  5  6  1  0  0  0
  6  7  1  0  0  0
  7  8  1  0  0  0
  7  9  1  0  0  0
  7 10  1  0  0  0
 35 36  1  0  0  0
M  END
> <minimizedAffinity>
-4.45453

$$$$
