CHEMBL3965364


 31 35  0  0  0  0  0  0  0  0999 V2000
  -28.6304   -8.2562   -5.5148 C   0  0  0  0  0  0  0  0  0  0  0  0
  -29.0704   -8.2293   -4.1956 C   0  0  0  0  0  0  0  0  0  0  0  0
  -29.5588   -7.0619   -3.6710 C   0  0  0  0  0  0  0  0  0  0  0  0
  -29.4959   -5.8906   -4.3539 C   0  0  0  0  0  0  0  0  0  0  0  0
  -30.2115   -4.9117   -3.8114 N   0  0  0  0  0  0  0  0  0  0  0  0
  -30.0616   -3.6943   -4.3182 C   0  0  0  0  0  0  0  0  0  0  0  0
  -29.1217   -3.4281   -5.3007 C   0  0  0  0  0  0  0  0  0  0  0  0
  -28.4623   -4.4525   -5.9541 N   0  0  0  0  0  0  0  0  0  0  0  0
  -28.7126   -5.7530   -5.5198 C   0  0  0  0  0  0  0  0  0  0  0  0
  -28.3263   -7.0134   -6.1250 C   0  0  0  0  0  0  0  0  0  0  0  0
  -28.7809   -2.0359   -5.4667 C   0  0  0  0  0  0  0  0  0  0  0  0
  -27.5922   -1.3474   -5.1007 C   0  0  0  0  0  0  0  0  0  0  0  0
  -27.7234   -0.0174   -5.1645 N   0  0  0  0  0  0  0  0  0  0  0  0
  -28.9974    0.1475   -5.5585 N   0  0  0  0  0  0  0  0  0  0  0  0
  -29.4430    1.4048   -6.1096 C   0  0  0  0  0  0  0  0  0  0  0  0
  -29.7144   -1.0161   -5.5462 C   0  0  0  0  0  0  0  0  0  0  0  0
  -28.7644   -9.5252   -6.1758 N   0  0  0  0  0  0  0  0  0  0  0  0
  -27.0860  -11.1618   -9.0856 C   0  0  0  0  0  0  0  0  0  0  0  0
  -25.8300  -11.4246   -8.5683 C   0  0  0  0  0  0  0  0  0  0  0  0
  -25.6053  -11.2238   -7.2056 C   0  0  0  0  0  0  0  0  0  0  0  0
  -26.5968  -10.6462   -6.3989 C   0  0  0  0  0  0  0  0  0  0  0  0
  -27.8385  -10.2785   -6.9272 C   0  0  0  0  0  0  0  0  0  0  0  0
  -28.0978  -10.7004   -8.2463 C   0  0  0  0  0  0  0  0  0  0  0  0
  -27.4109  -11.2676  -10.4111 O   0  0  0  0  0  0  0  0  0  0  0  0
  -26.7949   -9.2846  -11.5935 C   0  0  0  0  0  0  0  0  0  0  0  0
  -27.9621  -10.0676  -10.9902 C   0  0  0  0  0  0  0  0  0  0  0  0
  -28.9867  -10.3397  -12.0972 C   0  0  0  0  0  0  0  0  0  0  0  0
  -30.2186   -9.8783   -6.3290 C   0  0  0  0  0  0  0  0  0  0  0  0
  -30.9048   -9.0243   -7.3704 C   0  0  0  0  0  0  0  0  0  0  0  0
  -31.8607   -7.9422   -6.9170 C   0  0  0  0  0  0  0  0  0  0  0  0
  -32.3851   -9.1370   -7.6539 C   0  0  0  0  0  0  0  0  0  0  0  0
 25 26  1  0  0  0
 26 27  1  0  0  0
 26 24  1  0  0  0
 24 18  1  0  0  0
 18 19  1  0  0  0
 18 23  2  0  0  0
 19 20  2  0  0  0
 20 21  1  0  0  0
 21 22  2  0  0  0
 22 17  1  0  0  0
 22 23  1  0  0  0
 17 28  1  0  0  0
 17  1  1  0  0  0
 28 29  1  0  0  0
 29 30  1  0  0  0
 29 31  1  0  0  0
 30 31  1  0  0  0
  1  2  1  0  0  0
  1 10  2  0  0  0
  2  3  2  0  0  0
  3  4  1  0  0  0
  4  5  1  0  0  0
  4  9  2  0  0  0
  5  6  2  0  0  0
  6  7  1  0  0  0
  7 11  1  0  0  0
  7  8  2  0  0  0
 11 12  1  0  0  0
 11 16  2  0  0  0
 12 13  2  0  0  0
 13 14  1  0  0  0
 14 15  1  0  0  0
 14 16  1  0  0  0
  8  9  1  0  0  0
  9 10  1  0  0  0
M  END
> <minimizedAffinity>
-7.72450

$$$$
