CHEMBL3921861


 37 42  0  0  0  0  0  0  0  0999 V2000
  -29.0469   -5.2444   -7.4774 C   0  0  0  0  0  0  0  0  0  0  0  0
  -28.6956   -4.2234   -8.3607 C   0  0  0  0  0  0  0  0  0  0  0  0
  -28.3530   -2.9427   -7.8962 C   0  0  0  0  0  0  0  0  0  0  0  0
  -28.0238   -1.8600   -8.7212 C   0  0  0  0  0  0  0  0  0  0  0  0
  -27.6467   -0.6697   -8.2181 N   0  0  0  0  0  0  0  0  0  0  0  0
  -27.6196   -0.5583   -6.8882 C   0  0  0  0  0  0  0  0  0  0  0  0
  -27.9366   -1.5132   -6.0098 N   0  0  0  0  0  0  0  0  0  0  0  0
  -28.3014   -2.6952   -6.5154 C   0  0  0  0  0  0  0  0  0  0  0  0
  -28.6540   -3.7156   -5.6439 C   0  0  0  0  0  0  0  0  0  0  0  0
  -29.0612   -4.9784   -6.0964 C   0  0  0  0  0  0  0  0  0  0  0  0
  -28.2908   -7.3252   -8.3577 C   0  0  0  0  0  0  0  0  0  0  0  0
  -29.3690   -6.5143   -7.8905 O   0  0  0  0  0  0  0  0  0  0  0  0
  -28.1078   -2.0065  -10.1377 N   0  0  0  0  0  0  0  0  0  0  0  0
  -28.9338   -1.5157  -10.4689 H   0  0  0  0  0  0  0  0  0  0  0  0
  -26.9918   -1.8407  -10.9865 C   0  0  0  0  0  0  0  0  0  0  0  0
  -25.7236   -1.6251  -10.4315 C   0  0  0  0  0  0  0  0  0  0  0  0
  -24.6362   -1.2929  -11.2349 C   0  0  0  0  0  0  0  0  0  0  0  0
  -24.8017   -1.1898  -12.6157 C   0  0  0  0  0  0  0  0  0  0  0  0
  -23.3086   -0.5983  -13.6276 Br  0  0  0  0  0  0  0  0  0  0  0  0
  -26.0441   -1.4832  -13.1909 C   0  0  0  0  0  0  0  0  0  0  0  0
  -26.3173   -1.4094  -14.8969 Cl  0  0  0  0  0  0  0  0  0  0  0  0
  -27.1337   -1.8227  -12.3773 C   0  0  0  0  0  0  0  0  0  0  0  0
  -29.5493   -5.9587   -5.2648 O   0  0  0  0  0  0  0  0  0  0  0  0
  -28.6907   -6.4615   -4.2252 C   0  0  0  0  0  0  0  0  0  0  0  0
  -29.4553   -7.2052   -3.1306 C   0  0  0  0  0  0  0  0  0  0  0  0
  -29.6495   -8.5625   -3.5594 O   0  0  0  0  0  0  0  0  0  0  0  0
  -28.6103   -8.8739   -4.5042 C   0  0  0  0  0  0  0  0  0  0  0  0
  -27.8562   -7.5840   -4.8199 C   0  0  0  0  0  0  0  0  0  0  0  0
  -26.5722   -7.7030   -4.1836 O   0  0  0  0  0  0  0  0  0  0  0  0
  -26.2649   -9.1047   -4.2246 C   0  0  0  0  0  0  0  0  0  0  0  0
  -27.5710   -9.8147   -3.8555 C   0  0  0  0  0  0  0  0  0  0  0  0
  -27.6389  -11.2302   -4.2909 N   0  0  0  0  0  0  0  0  0  0  0  0
  -28.4632  -11.4143   -5.5123 C   0  0  0  0  0  0  0  0  0  0  0  0
  -29.9781  -11.2724   -5.2798 C   0  0  0  0  0  0  0  0  0  0  0  0
  -30.4378  -12.1734   -4.2640 O   0  0  0  0  0  0  0  0  0  0  0  0
  -29.7170  -11.9882   -3.0413 C   0  0  0  0  0  0  0  0  0  0  0  0
  -28.1983  -12.1288   -3.2514 C   0  0  0  0  0  0  0  0  0  0  0  0
 11 12  1  0  0  0
 12  1  1  0  0  0
  1  2  1  0  0  0
  1 10  2  0  0  0
  2  3  2  0  0  0
  3  4  1  0  0  0
  3  8  1  0  0  0
  4 13  1  0  0  0
  4  5  2  0  0  0
 13 15  1  0  0  0
 13 14  1  0  0  0
 15 16  1  0  0  0
 15 22  2  0  0  0
 16 17  2  0  0  0
 17 18  1  0  0  0
 18 19  1  0  0  0
 18 20  2  0  0  0
 20 21  1  0  0  0
 20 22  1  0  0  0
  5  6  1  0  0  0
  6  7  2  0  0  0
  7  8  1  0  0  0
  8  9  2  0  0  0
  9 10  1  0  0  0
 10 23  1  0  0  0
 24 25  1  0  0  0
 24 28  1  0  0  0
 24 23  1  0  0  0
 25 26  1  0  0  0
 26 27  1  0  0  0
 27 28  1  0  0  0
 27 31  1  0  0  0
 28 29  1  0  0  0
 29 30  1  0  0  0
 30 31  1  0  0  0
 31 32  1  0  0  0
 32 33  1  0  0  0
 32 37  1  0  0  0
 33 34  1  0  0  0
 34 35  1  0  0  0
 35 36  1  0  0  0
 36 37  1  0  0  0
M  END
> <minimizedAffinity>
-8.85050

$$$$
