CHEMBL223237


 39 43  0  0  0  0  0  0  0  0999 V2000
  -16.6964    2.6603  -15.7844 C   0  0  0  0  0  0  0  0  0  0  0  0
  -16.3159    3.6797  -16.7070 C   0  0  0  0  0  0  0  0  0  0  0  0
  -14.9999    3.8789  -17.0933 C   0  0  0  0  0  0  0  0  0  0  0  0
  -13.9741    3.1402  -16.5160 C   0  0  0  0  0  0  0  0  0  0  0  0
  -14.3211    2.1590  -15.5848 C   0  0  0  0  0  0  0  0  0  0  0  0
  -15.6534    1.8316  -15.2886 C   0  0  0  0  0  0  0  0  0  0  0  0
  -15.5023    0.5710  -14.6280 C   0  0  0  0  0  0  0  0  0  0  0  0
  -16.4009   -0.4371  -14.6252 N   0  0  0  0  0  0  0  0  0  0  0  0
  -14.2668    0.3482  -14.2143 N   0  0  0  0  0  0  0  0  0  0  0  0
  -13.5570    1.3227  -14.8072 N   0  0  0  0  0  0  0  0  0  0  0  0
  -15.9409   -1.2459  -15.0537 H   0  0  0  0  0  0  0  0  0  0  0  0
  -16.5689   -0.8015  -13.6922 H   0  0  0  0  0  0  0  0  0  0  0  0
  -20.7964    2.2458  -14.4644 C   0  0  0  0  0  0  0  0  0  0  0  0
  -19.7863    1.4195  -13.9650 C   0  0  0  0  0  0  0  0  0  0  0  0
  -18.4600    1.6028  -14.3536 C   0  0  0  0  0  0  0  0  0  0  0  0
  -18.0991    2.5719  -15.3066 C   0  0  0  0  0  0  0  0  0  0  0  0
  -19.1484    3.3378  -15.8542 C   0  0  0  0  0  0  0  0  0  0  0  0
  -20.4829    3.1788  -15.4476 C   0  0  0  0  0  0  0  0  0  0  0  0
  -23.9343    1.0789  -13.0766 N   0  0  0  0  0  0  0  0  0  0  0  0
  -22.7011    0.9745  -13.6934 C   0  0  0  0  0  0  0  0  0  0  0  0
  -22.1621   -0.0862  -13.9902 O   0  0  0  0  0  0  0  0  0  0  0  0
  -22.1000    2.2119  -13.9055 N   0  0  0  0  0  0  0  0  0  0  0  0
  -24.3933    1.9767  -13.1262 H   0  0  0  0  0  0  0  0  0  0  0  0
  -22.3060    2.9110  -13.2076 H   0  0  0  0  0  0  0  0  0  0  0  0
  -27.5922   -2.1782  -13.7776 C   0  0  0  0  0  0  0  0  0  0  0  0
  -26.4923   -1.6202  -12.9232 C   0  0  0  0  0  0  0  0  0  0  0  0
  -26.2351   -2.1802  -11.6681 C   0  0  0  0  0  0  0  0  0  0  0  0
  -25.2244   -1.6623  -10.8688 C   0  0  0  0  0  0  0  0  0  0  0  0
  -24.4638   -0.5865  -11.3206 C   0  0  0  0  0  0  0  0  0  0  0  0
  -24.6872   -0.0183  -12.5793 C   0  0  0  0  0  0  0  0  0  0  0  0
  -25.7120   -0.5387  -13.3749 C   0  0  0  0  0  0  0  0  0  0  0  0
  -12.1168    1.1853  -14.8085 C   0  0  0  0  0  0  0  0  0  0  0  0
  -11.5096    0.1311  -15.7483 C   0  0  0  0  0  0  0  0  0  0  0  0
  -12.4374   -0.1493  -16.8634 N   0  0  0  0  0  0  0  0  0  0  0  0
  -12.8060   -1.5781  -16.9799 C   0  0  0  0  0  0  0  0  0  0  0  0
  -11.6820   -2.4505  -17.5514 C   0  0  0  0  0  0  0  0  0  0  0  0
  -11.3066   -1.9912  -18.8540 O   0  0  0  0  0  0  0  0  0  0  0  0
  -10.8660   -0.6286  -18.8057 C   0  0  0  0  0  0  0  0  0  0  0  0
  -11.9184    0.3010  -18.1735 C   0  0  0  0  0  0  0  0  0  0  0  0
 25 26  1  0  0  0
 26 27  1  0  0  0
 26 31  2  0  0  0
 27 28  2  0  0  0
 28 29  1  0  0  0
 29 30  2  0  0  0
 30 19  1  0  0  0
 30 31  1  0  0  0
 19 20  1  0  0  0
 19 23  1  0  0  0
 20 21  2  0  0  0
 20 22  1  0  0  0
 22 13  1  0  0  0
 22 24  1  0  0  0
 13 14  1  0  0  0
 13 18  2  0  0  0
 14 15  2  0  0  0
 15 16  1  0  0  0
 16  1  1  0  0  0
 16 17  2  0  0  0
  1  2  1  0  0  0
  1  6  2  0  0  0
  2  3  2  0  0  0
  3  4  1  0  0  0
  4  5  2  0  0  0
  5  6  1  0  0  0
  5 10  1  0  0  0
  6  7  1  0  0  0
  7  8  1  0  0  0
  7  9  2  0  0  0
  8 11  1  0  0  0
  8 12  1  0  0  0
  9 10  1  0  0  0
 10 32  1  0  0  0
 32 33  1  0  0  0
 33 34  1  0  0  0
 34 35  1  0  0  0
 34 39  1  0  0  0
 35 36  1  0  0  0
 36 37  1  0  0  0
 37 38  1  0  0  0
 38 39  1  0  0  0
 17 18  1  0  0  0
M  END
> <minimizedAffinity>
-8.18489

$$$$
