CHEMBL195845


 35 37  0  0  0  0  0  0  0  0999 V2000
  -30.3937   -7.2621   -4.1784 N   0  0  0  0  0  0  0  0  0  0  0  0
  -31.1439   -7.5046   -4.8198 H   0  0  0  0  0  0  0  0  0  0  0  0
  -28.2047   -9.0779   -7.8032 C   0  0  0  0  0  0  0  0  0  0  0  0
  -27.3689   -9.6946   -6.8970 C   0  0  0  0  0  0  0  0  0  0  0  0
  -27.6989   -9.3002   -5.6471 N   0  0  0  0  0  0  0  0  0  0  0  0
  -27.0476   -9.7227   -4.5599 N   0  0  0  0  0  0  0  0  0  0  0  0
  -27.5480   -9.2976   -3.4501 C   0  0  0  0  0  0  0  0  0  0  0  0
  -28.6426   -8.4954   -3.3174 N   0  0  0  0  0  0  0  0  0  0  0  0
  -29.2863   -8.0698   -4.3712 C   0  0  0  0  0  0  0  0  0  0  0  0
  -28.7844   -8.4566   -5.6801 C   0  0  0  0  0  0  0  0  0  0  0  0
  -29.1297   -8.2513   -7.0287 C   0  0  0  0  0  0  0  0  0  0  0  0
  -30.2511   -7.4666   -7.7193 C   0  0  0  0  0  0  0  0  0  0  0  0
  -31.6430   -7.9784   -7.3337 C   0  0  0  0  0  0  0  0  0  0  0  0
  -30.2330   -5.9494   -7.6186 C   0  0  0  0  0  0  0  0  0  0  0  0
  -28.1410   -9.3423   -9.2426 C   0  0  0  0  0  0  0  0  0  0  0  0
  -27.2152   -8.9850   -9.9648 O   0  0  0  0  0  0  0  0  0  0  0  0
  -29.2826   -9.9344   -9.7069 O   0  0  0  0  0  0  0  0  0  0  0  0
  -30.8977  -11.3864   -8.7255 C   0  0  0  0  0  0  0  0  0  0  0  0
  -29.4860  -11.2858   -9.2768 C   0  0  0  0  0  0  0  0  0  0  0  0
  -30.3192   -5.8513   -4.0301 C   0  0  0  0  0  0  0  0  0  0  0  0
  -29.2700   -5.0866   -4.5631 C   0  0  0  0  0  0  0  0  0  0  0  0
  -29.2249   -3.6951   -4.3822 C   0  0  0  0  0  0  0  0  0  0  0  0
  -30.2383   -3.0771   -3.6384 C   0  0  0  0  0  0  0  0  0  0  0  0
  -30.2510   -1.7482   -3.4487 F   0  0  0  0  0  0  0  0  0  0  0  0
  -31.2740   -3.8172   -3.0820 C   0  0  0  0  0  0  0  0  0  0  0  0
  -31.3009   -5.1907   -3.2755 C   0  0  0  0  0  0  0  0  0  0  0  0
  -32.3139   -5.9002   -2.7571 F   0  0  0  0  0  0  0  0  0  0  0  0
  -28.1353   -2.9175   -5.0446 C   0  0  0  0  0  0  0  0  0  0  0  0
  -26.9652   -3.2117   -4.8262 O   0  0  0  0  0  0  0  0  0  0  0  0
  -28.5401   -1.9343   -5.9098 N   0  0  0  0  0  0  0  0  0  0  0  0
  -29.4761   -1.5459   -5.9065 H   0  0  0  0  0  0  0  0  0  0  0  0
  -27.5525   -1.1424   -6.5335 O   0  0  0  0  0  0  0  0  0  0  0  0
  -27.8274    0.2445   -6.2720 C   0  0  0  0  0  0  0  0  0  0  0  0
  -29.1189    0.6941   -6.9559 C   0  0  0  0  0  0  0  0  0  0  0  0
  -27.9527    0.4045   -4.7617 C   0  0  0  0  0  0  0  0  0  0  0  0
 18 19  1  0  0  0
 19 17  1  0  0  0
 17 15  1  0  0  0
 15 16  2  0  0  0
 15  3  1  0  0  0
  3  4  2  0  0  0
  3 11  1  0  0  0
  4  5  1  0  0  0
  5  6  1  0  0  0
  5 10  1  0  0  0
  6  7  2  0  0  0
  7  8  1  0  0  0
  8  9  2  0  0  0
  9  1  1  0  0  0
  9 10  1  0  0  0
  1 20  1  0  0  0
  1  2  1  0  0  0
 20 21  1  0  0  0
 20 26  2  0  0  0
 21 22  2  0  0  0
 22 28  1  0  0  0
 22 23  1  0  0  0
 28 29  2  0  0  0
 28 30  1  0  0  0
 30 32  1  0  0  0
 30 31  1  0  0  0
 32 33  1  0  0  0
 33 34  1  0  0  0
 33 35  1  0  0  0
 23 24  1  0  0  0
 23 25  2  0  0  0
 25 26  1  0  0  0
 26 27  1  0  0  0
 10 11  2  0  0  0
 11 12  1  0  0  0
 12 13  1  0  0  0
 12 14  1  0  0  0
M  END
> <minimizedAffinity>
-7.81068

$$$$
