CHEMBL1762549


 41 45  0  0  0  0  0  0  0  0999 V2000
  -26.0950  -10.9409   -5.7745 C   0  0  0  0  0  0  0  0  0  0  0  0
  -25.7243  -11.6182   -4.6247 C   0  0  0  0  0  0  0  0  0  0  0  0
  -26.0048  -11.0169   -3.4274 C   0  0  0  0  0  0  0  0  0  0  0  0
  -26.4972   -9.7841   -3.3378 N   0  0  0  0  0  0  0  0  0  0  0  0
  -26.7176   -9.1248   -4.4832 C   0  0  0  0  0  0  0  0  0  0  0  0
  -26.6098   -9.6972   -5.6907 N   0  0  0  0  0  0  0  0  0  0  0  0
  -27.0090   -7.7614   -4.4361 N   0  0  0  0  0  0  0  0  0  0  0  0
  -26.7343   -7.3839   -3.5385 H   0  0  0  0  0  0  0  0  0  0  0  0
  -28.1008   -7.1086   -5.0506 C   0  0  0  0  0  0  0  0  0  0  0  0
  -29.1061   -7.8041   -5.7441 C   0  0  0  0  0  0  0  0  0  0  0  0
  -30.1162   -7.1505   -6.4553 C   0  0  0  0  0  0  0  0  0  0  0  0
  -30.1036   -5.7511   -6.4164 C   0  0  0  0  0  0  0  0  0  0  0  0
  -29.1686   -5.0023   -5.6781 C   0  0  0  0  0  0  0  0  0  0  0  0
  -28.1705   -5.7143   -5.0024 C   0  0  0  0  0  0  0  0  0  0  0  0
  -31.0569   -7.8456   -7.1849 N   0  0  0  0  0  0  0  0  0  0  0  0
  -32.5004   -7.6163   -7.0505 C   0  0  0  0  0  0  0  0  0  0  0  0
  -33.2134   -8.9596   -6.8391 C   0  0  0  0  0  0  0  0  0  0  0  0
  -32.9080   -9.8904   -7.8942 O   0  0  0  0  0  0  0  0  0  0  0  0
  -31.4903  -10.1317   -7.9504 C   0  0  0  0  0  0  0  0  0  0  0  0
  -30.6960   -8.8372   -8.2059 C   0  0  0  0  0  0  0  0  0  0  0  0
  -29.2370   -3.6263   -5.6260 N   0  0  0  0  0  0  0  0  0  0  0  0
  -28.5329   -2.7658   -6.5838 C   0  0  0  0  0  0  0  0  0  0  0  0
  -27.6086   -1.8060   -5.8259 C   0  0  0  0  0  0  0  0  0  0  0  0
  -28.3473   -1.0293   -4.8661 O   0  0  0  0  0  0  0  0  0  0  0  0
  -28.9764   -1.8943   -3.9030 C   0  0  0  0  0  0  0  0  0  0  0  0
  -29.9408   -2.9019   -4.5602 C   0  0  0  0  0  0  0  0  0  0  0  0
  -25.9542  -11.5413   -7.0554 N   0  0  0  0  0  0  0  0  0  0  0  0
  -26.8748  -11.3631   -8.1291 C   0  0  0  0  0  0  0  0  0  0  0  0
  -26.4914  -10.6834   -9.3104 C   0  0  0  0  0  0  0  0  0  0  0  0
  -27.3577  -10.5104  -10.4106 C   0  0  0  0  0  0  0  0  0  0  0  0
  -28.6155  -11.1074  -10.3721 C   0  0  0  0  0  0  0  0  0  0  0  0
  -29.0318  -11.7764   -9.2281 C   0  0  0  0  0  0  0  0  0  0  0  0
  -28.2050  -11.8678   -8.0893 C   0  0  0  0  0  0  0  0  0  0  0  0
  -28.8450  -12.4660   -6.8601 C   0  0  0  0  0  0  0  0  0  0  0  0
  -26.9331   -9.7705  -11.6532 C   0  0  0  0  0  0  0  0  0  0  0  0
  -26.4714   -8.4597  -11.3528 O   0  0  0  0  0  0  0  0  0  0  0  0
  -27.1629   -8.0402  -10.8126 H   0  0  0  0  0  0  0  0  0  0  0  0
  -24.7861  -12.4457   -7.2648 C   0  0  0  0  0  0  0  0  0  0  0  0
  -23.5280  -11.7452   -7.8270 C   0  0  0  0  0  0  0  0  0  0  0  0
  -21.5485  -10.8115   -6.9581 C   0  0  0  0  0  0  0  0  0  0  0  0
  -22.9730  -10.8398   -6.8637 O   0  0  0  0  0  0  0  0  0  0  0  0
 40 41  1  0  0  0
 41 39  1  0  0  0
 39 38  1  0  0  0
 38 27  1  0  0  0
 27  1  1  0  0  0
 27 28  1  0  0  0
  1  2  1  0  0  0
  1  6  2  0  0  0
  2  3  2  0  0  0
  3  4  1  0  0  0
  4  5  2  0  0  0
  5  7  1  0  0  0
  5  6  1  0  0  0
  7  9  1  0  0  0
  7  8  1  0  0  0
  9 10  1  0  0  0
  9 14  2  0  0  0
 10 11  2  0  0  0
 11 15  1  0  0  0
 11 12  1  0  0  0
 15 16  1  0  0  0
 15 20  1  0  0  0
 16 17  1  0  0  0
 17 18  1  0  0  0
 18 19  1  0  0  0
 19 20  1  0  0  0
 12 13  2  0  0  0
 13 21  1  0  0  0
 13 14  1  0  0  0
 21 22  1  0  0  0
 21 26  1  0  0  0
 22 23  1  0  0  0
 23 24  1  0  0  0
 24 25  1  0  0  0
 25 26  1  0  0  0
 28 29  1  0  0  0
 28 33  2  0  0  0
 29 30  2  0  0  0
 30 35  1  0  0  0
 30 31  1  0  0  0
 35 36  1  0  0  0
 36 37  1  0  0  0
 31 32  2  0  0  0
 32 33  1  0  0  0
 33 34  1  0  0  0
M  END
> <minimizedAffinity>
-8.11700

$$$$
