CHEMBL1290247


 29 31  0  0  0  0  0  0  0  0999 V2000
  -28.6859   -7.9008   -8.3070 C   0  0  0  0  0  0  0  0  0  0  0  0
  -29.8780   -8.5847   -8.0817 C   0  0  0  0  0  0  0  0  0  0  0  0
  -30.9626   -7.9207   -7.5143 C   0  0  0  0  0  0  0  0  0  0  0  0
  -30.8503   -6.5785   -7.1421 C   0  0  0  0  0  0  0  0  0  0  0  0
  -29.6441   -5.8936   -7.2996 C   0  0  0  0  0  0  0  0  0  0  0  0
  -28.5635   -6.5667   -7.8885 C   0  0  0  0  0  0  0  0  0  0  0  0
  -29.4348   -4.5532   -6.8865 N   0  0  0  0  0  0  0  0  0  0  0  0
  -28.9844   -4.1414   -5.6420 C   0  0  0  0  0  0  0  0  0  0  0  0
  -28.7224   -4.8656   -4.6896 O   0  0  0  0  0  0  0  0  0  0  0  0
  -29.5495   -3.8498   -7.6031 H   0  0  0  0  0  0  0  0  0  0  0  0
  -28.7676   -2.6839   -5.4624 C   0  0  0  0  0  0  0  0  0  0  0  0
  -29.7797   -1.7223   -5.4855 C   0  0  0  0  0  0  0  0  0  0  0  0
  -29.4498   -0.3834   -5.2646 C   0  0  0  0  0  0  0  0  0  0  0  0
  -28.1231   -0.0539   -5.0287 C   0  0  0  0  0  0  0  0  0  0  0  0
  -27.1232   -0.9573   -5.0015 N   0  0  0  0  0  0  0  0  0  0  0  0
  -27.4685   -2.2520   -5.2088 C   0  0  0  0  0  0  0  0  0  0  0  0
  -27.7023   -8.6233   -8.9408 O   0  0  0  0  0  0  0  0  0  0  0  0
  -27.8508  -10.0322   -8.8146 C   0  0  0  0  0  0  0  0  0  0  0  0
  -27.2722  -11.8110   -7.3419 O   0  0  0  0  0  0  0  0  0  0  0  0
  -26.9826  -10.6838   -7.7390 C   0  0  0  0  0  0  0  0  0  0  0  0
  -25.9093   -9.9181   -7.3271 N   0  0  0  0  0  0  0  0  0  0  0  0
  -25.8312   -9.0030   -7.7618 H   0  0  0  0  0  0  0  0  0  0  0  0
  -24.9382  -10.2678   -6.3647 C   0  0  0  0  0  0  0  0  0  0  0  0
  -23.7332  -10.9065   -6.6770 C   0  0  0  0  0  0  0  0  0  0  0  0
  -22.8178  -11.2444   -5.6750 C   0  0  0  0  0  0  0  0  0  0  0  0
  -23.1010  -10.9375   -4.3501 C   0  0  0  0  0  0  0  0  0  0  0  0
  -21.8718  -11.4100   -2.9958 Br  0  0  0  0  0  0  0  0  0  0  0  0
  -24.2894  -10.2924   -4.0205 C   0  0  0  0  0  0  0  0  0  0  0  0
  -25.2050   -9.9577   -5.0247 C   0  0  0  0  0  0  0  0  0  0  0  0
 19 20  2  0  0  0
 20 18  1  0  0  0
 20 21  1  0  0  0
 18 17  1  0  0  0
 17  1  1  0  0  0
  1  2  1  0  0  0
  1  6  2  0  0  0
  2  3  2  0  0  0
  3  4  1  0  0  0
  4  5  2  0  0  0
  5  7  1  0  0  0
  5  6  1  0  0  0
  7  8  1  0  0  0
  7 10  1  0  0  0
  8  9  2  0  0  0
  8 11  1  0  0  0
 11 12  1  0  0  0
 11 16  2  0  0  0
 12 13  2  0  0  0
 13 14  1  0  0  0
 14 15  2  0  0  0
 15 16  1  0  0  0
 21 23  1  0  0  0
 21 22  1  0  0  0
 23 24  1  0  0  0
 23 29  2  0  0  0
 24 25  2  0  0  0
 25 26  1  0  0  0
 26 27  1  0  0  0
 26 28  2  0  0  0
 28 29  1  0  0  0
M  END
> <minimizedAffinity>
-7.80858

$$$$
