CHEMBL3969156


 33 36  0  0  0  0  0  0  0  0999 V2000
  -30.4236   -9.2334   -7.3702 C   0  0  0  0  0  0  0  0  0  0  0  0
  -30.9918   -8.1951   -6.7256 C   0  0  0  0  0  0  0  0  0  0  0  0
  -32.4431   -8.2699   -6.9474 C   0  0  0  0  0  0  0  0  0  0  0  0
  -33.2898   -7.5081   -6.5181 O   0  0  0  0  0  0  0  0  0  0  0  0
  -32.6640   -9.3600   -7.7191 N   0  0  0  0  0  0  0  0  0  0  0  0
  -31.5143  -10.0045   -7.9992 C   0  0  0  0  0  0  0  0  0  0  0  0
  -31.3818  -11.0267   -8.6387 O   0  0  0  0  0  0  0  0  0  0  0  0
  -33.5723   -9.6689   -8.0178 H   0  0  0  0  0  0  0  0  0  0  0  0
  -30.2883   -7.2232   -5.9770 C   0  0  0  0  0  0  0  0  0  0  0  0
  -30.5947   -6.9187   -4.6704 C   0  0  0  0  0  0  0  0  0  0  0  0
  -30.4208   -5.5590   -4.5518 N   0  0  0  0  0  0  0  0  0  0  0  0
  -29.7949   -5.0579   -5.6804 C   0  0  0  0  0  0  0  0  0  0  0  0
  -29.5091   -3.7429   -6.0781 C   0  0  0  0  0  0  0  0  0  0  0  0
  -28.8939   -3.5473   -7.3192 C   0  0  0  0  0  0  0  0  0  0  0  0
  -28.5376   -4.6249   -8.1238 C   0  0  0  0  0  0  0  0  0  0  0  0
  -28.8735   -5.9274   -7.7473 C   0  0  0  0  0  0  0  0  0  0  0  0
  -29.5467   -6.1425   -6.5267 C   0  0  0  0  0  0  0  0  0  0  0  0
  -31.0826   -4.7624   -3.5298 C   0  0  0  0  0  0  0  0  0  0  0  0
  -32.3555   -5.3943   -2.9877 C   0  0  0  0  0  0  0  0  0  0  0  0
  -32.2540   -5.6986   -1.6022 O   0  0  0  0  0  0  0  0  0  0  0  0
  -31.5742   -6.3906   -1.5007 H   0  0  0  0  0  0  0  0  0  0  0  0
  -26.9855   -9.9956   -8.7678 C   0  0  0  0  0  0  0  0  0  0  0  0
  -28.3389   -9.6311   -8.6712 C   0  0  0  0  0  0  0  0  0  0  0  0
  -28.9949   -9.5770   -7.4326 C   0  0  0  0  0  0  0  0  0  0  0  0
  -28.2870   -9.9199   -6.2747 C   0  0  0  0  0  0  0  0  0  0  0  0
  -26.9384  -10.2981   -6.3530 C   0  0  0  0  0  0  0  0  0  0  0  0
  -26.2707  -10.3064   -7.5958 C   0  0  0  0  0  0  0  0  0  0  0  0
  -27.0590   -9.8049  -11.1458 C   0  0  0  0  0  0  0  0  0  0  0  0
  -26.3413  -10.1486   -9.9681 O   0  0  0  0  0  0  0  0  0  0  0  0
  -26.1845  -10.6167   -5.2474 O   0  0  0  0  0  0  0  0  0  0  0  0
  -26.4227   -9.8369   -4.0833 C   0  0  0  0  0  0  0  0  0  0  0  0
  -24.9526  -10.7048   -7.5509 O   0  0  0  0  0  0  0  0  0  0  0  0
  -24.6771  -12.0569   -7.9002 C   0  0  0  0  0  0  0  0  0  0  0  0
 28 29  1  0  0  0
 29 22  1  0  0  0
 22 23  1  0  0  0
 22 27  2  0  0  0
 23 24  2  0  0  0
 24  1  1  0  0  0
 24 25  1  0  0  0
  1  2  2  0  0  0
  1  6  1  0  0  0
  2  9  1  0  0  0
  2  3  1  0  0  0
  9 10  2  0  0  0
  9 17  1  0  0  0
 10 11  1  0  0  0
 11 18  1  0  0  0
 11 12  1  0  0  0
 18 19  1  0  0  0
 19 20  1  0  0  0
 20 21  1  0  0  0
 12 13  1  0  0  0
 12 17  2  0  0  0
 13 14  2  0  0  0
 14 15  1  0  0  0
 15 16  2  0  0  0
 16 17  1  0  0  0
  3  4  2  0  0  0
  3  5  1  0  0  0
  5  6  1  0  0  0
  5  8  1  0  0  0
  6  7  2  0  0  0
 25 26  2  0  0  0
 26 30  1  0  0  0
 26 27  1  0  0  0
 30 31  1  0  0  0
 27 32  1  0  0  0
 32 33  1  0  0  0
M  END
> <minimizedAffinity>
-7.38711

$$$$
