CHEMBL498205


 26 29  0  0  0  0  0  0  0  0999 V2000
  -29.3243   -5.9658   -4.1912 C   0  0  0  0  0  0  0  0  0  0  0  0
  -28.5794   -7.0521   -4.5038 C   0  0  0  0  0  0  0  0  0  0  0  0
  -27.2140   -7.1762   -4.2190 N   0  0  0  0  0  0  0  0  0  0  0  0
  -29.0921   -7.6514   -5.7728 C   0  0  0  0  0  0  0  0  0  0  0  0
  -28.2368   -8.0409   -6.8089 C   0  0  0  0  0  0  0  0  0  0  0  0
  -28.7448   -8.2296   -8.0953 C   0  0  0  0  0  0  0  0  0  0  0  0
  -30.1146   -8.1153   -8.3404 C   0  0  0  0  0  0  0  0  0  0  0  0
  -30.9944   -7.8404   -7.2977 C   0  0  0  0  0  0  0  0  0  0  0  0
  -30.4729   -7.5641   -6.0343 C   0  0  0  0  0  0  0  0  0  0  0  0
  -31.3173   -7.0064   -5.0749 N   0  0  0  0  0  0  0  0  0  0  0  0
  -30.8052   -6.1333   -4.1570 C   0  0  0  0  0  0  0  0  0  0  0  0
  -31.5251   -5.4202   -3.4656 O   0  0  0  0  0  0  0  0  0  0  0  0
  -26.9704   -6.5268   -3.4653 H   0  0  0  0  0  0  0  0  0  0  0  0
  -26.6729   -6.8244   -5.0108 H   0  0  0  0  0  0  0  0  0  0  0  0
  -32.3214   -6.9965   -5.1900 H   0  0  0  0  0  0  0  0  0  0  0  0
  -28.0180    0.9687   -5.0695 C   0  0  0  0  0  0  0  0  0  0  0  0
  -27.9091   -0.4618   -5.4918 C   0  0  0  0  0  0  0  0  0  0  0  0
  -28.1548   -0.8711   -6.8130 C   0  0  0  0  0  0  0  0  0  0  0  0
  -28.3069   -2.2227   -7.1540 C   0  0  0  0  0  0  0  0  0  0  0  0
  -28.3170   -3.1151   -6.0834 C   0  0  0  0  0  0  0  0  0  0  0  0
  -28.6769   -4.4317   -5.9726 N   0  0  0  0  0  0  0  0  0  0  0  0
  -28.7842   -4.7159   -4.6211 C   0  0  0  0  0  0  0  0  0  0  0  0
  -28.1779   -3.7789   -3.9170 N   0  0  0  0  0  0  0  0  0  0  0  0
  -28.0117   -2.7440   -4.7864 C   0  0  0  0  0  0  0  0  0  0  0  0
  -27.7257   -1.4171   -4.4847 C   0  0  0  0  0  0  0  0  0  0  0  0
  -28.9835   -5.0249   -6.7317 H   0  0  0  0  0  0  0  0  0  0  0  0
 16 17  1  0  0  0
 17 18  1  0  0  0
 17 25  2  0  0  0
 18 19  2  0  0  0
 19 20  1  0  0  0
 20 21  1  0  0  0
 20 24  2  0  0  0
 21 22  1  0  0  0
 21 26  1  0  0  0
 22  1  1  0  0  0
 22 23  2  0  0  0
  1  2  2  0  0  0
  1 11  1  0  0  0
  2  3  1  0  0  0
  2  4  1  0  0  0
  3 13  1  0  0  0
  3 14  1  0  0  0
  4  5  1  0  0  0
  4  9  2  0  0  0
  5  6  2  0  0  0
  6  7  1  0  0  0
  7  8  2  0  0  0
  8  9  1  0  0  0
  9 10  1  0  0  0
 10 11  1  0  0  0
 10 15  1  0  0  0
 11 12  2  0  0  0
 23 24  1  0  0  0
 24 25  1  0  0  0
M  END
> <minimizedAffinity>
-8.88188

$$$$
