CHEMBL103595


 28 32  0  0  0  0  0  0  0  0999 V2000
  -29.4382   10.4049  -16.4797 C   0  0  0  0  0  0  0  0  0  0  0  0
  -30.6168   10.6583  -15.7894 C   0  0  0  0  0  0  0  0  0  0  0  0
  -30.5960   11.2464  -14.5201 C   0  0  0  0  0  0  0  0  0  0  0  0
  -29.3489   11.5645  -13.9559 C   0  0  0  0  0  0  0  0  0  0  0  0
  -28.1442   11.3083  -14.6243 C   0  0  0  0  0  0  0  0  0  0  0  0
  -28.2048   10.7349  -15.9156 C   0  0  0  0  0  0  0  0  0  0  0  0
  -27.0722   11.7338  -13.7691 C   0  0  0  0  0  0  0  0  0  0  0  0
  -27.6543   12.2496  -12.6298 C   0  0  0  0  0  0  0  0  0  0  0  0
  -29.0190   12.1489  -12.7533 N   0  0  0  0  0  0  0  0  0  0  0  0
  -25.6315   11.6615  -13.9656 C   0  0  0  0  0  0  0  0  0  0  0  0
  -24.7356   11.6139  -12.8977 C   0  0  0  0  0  0  0  0  0  0  0  0
  -23.3879   11.5492  -13.0332 N   0  0  0  0  0  0  0  0  0  0  0  0
  -22.9058   11.5503  -14.2995 C   0  0  0  0  0  0  0  0  0  0  0  0
  -23.6993   11.6022  -15.4420 C   0  0  0  0  0  0  0  0  0  0  0  0
  -25.0847   11.6354  -15.2511 C   0  0  0  0  0  0  0  0  0  0  0  0
  -23.1121   11.6156  -16.7785 C   0  0  0  0  0  0  0  0  0  0  0  0
  -21.8529   11.0598  -17.1799 C   0  0  0  0  0  0  0  0  0  0  0  0
  -21.5920   11.2457  -18.5194 C   0  0  0  0  0  0  0  0  0  0  0  0
  -22.8457   12.0979  -19.3057 S   0  0  0  0  0  0  0  0  0  0  0  0
  -23.7413   12.2213  -17.8519 C   0  0  0  0  0  0  0  0  0  0  0  0
  -29.9528   12.6588  -11.7610 C   0  0  0  0  0  0  0  0  0  0  0  0
  -29.5570   12.2978  -10.3205 C   0  0  0  0  0  0  0  0  0  0  0  0
  -30.7426   11.9215   -9.5415 N   0  0  0  0  0  0  0  0  0  0  0  0
  -30.6398   12.2219   -8.0995 C   0  0  0  0  0  0  0  0  0  0  0  0
  -31.8619   11.6356   -7.3685 C   0  0  0  0  0  0  0  0  0  0  0  0
  -33.0913   12.1606   -7.8918 O   0  0  0  0  0  0  0  0  0  0  0  0
  -33.1800   11.9212   -9.3046 C   0  0  0  0  0  0  0  0  0  0  0  0
  -31.9835   12.5411  -10.0453 C   0  0  0  0  0  0  0  0  0  0  0  0
  1  2  1  0  0  0
  1  6  2  0  0  0
  2  3  2  0  0  0
  3  4  1  0  0  0
  4  5  2  0  0  0
  4  9  1  0  0  0
  5  6  1  0  0  0
  5  7  1  0  0  0
  7 10  1  0  0  0
  7  8  2  0  0  0
 10 11  1  0  0  0
 10 15  2  0  0  0
 11 12  2  0  0  0
 12 13  1  0  0  0
 13 14  2  0  0  0
 14 16  1  0  0  0
 14 15  1  0  0  0
 16 17  1  0  0  0
 16 20  2  0  0  0
 17 18  2  0  0  0
 18 19  1  0  0  0
 19 20  1  0  0  0
  8  9  1  0  0  0
  9 21  1  0  0  0
 21 22  1  0  0  0
 22 23  1  0  0  0
 23 24  1  0  0  0
 23 28  1  0  0  0
 24 25  1  0  0  0
 25 26  1  0  0  0
 26 27  1  0  0  0
 27 28  1  0  0  0
M  END
> <minimizedAffinity>
-4.41257

$$$$
