CHEMBL1242566


 25 28  0  0  0  0  0  0  0  0999 V2000
  -33.0122   -8.0232   -6.3813 N   0  0  0  0  0  0  0  0  0  0  0  0
  -32.2299   -8.8970   -7.1251 C   0  0  0  0  0  0  0  0  0  0  0  0
  -32.7810  -10.1022   -7.3748 N   0  0  0  0  0  0  0  0  0  0  0  0
  -32.0916  -10.9902   -8.1126 C   0  0  0  0  0  0  0  0  0  0  0  0
  -30.8829  -10.8324   -8.6676 N   0  0  0  0  0  0  0  0  0  0  0  0
  -30.3610   -9.6228   -8.3872 C   0  0  0  0  0  0  0  0  0  0  0  0
  -30.9486   -8.6200   -7.6276 C   0  0  0  0  0  0  0  0  0  0  0  0
  -29.9767   -7.5675   -7.5978 C   0  0  0  0  0  0  0  0  0  0  0  0
  -28.8945   -7.8894   -8.3279 N   0  0  0  0  0  0  0  0  0  0  0  0
  -29.1390   -9.1361   -8.7754 N   0  0  0  0  0  0  0  0  0  0  0  0
  -33.9590   -8.3820   -6.3078 H   0  0  0  0  0  0  0  0  0  0  0  0
  -32.9435   -7.0529   -6.6617 H   0  0  0  0  0  0  0  0  0  0  0  0
  -30.0092   -6.2731   -6.9024 C   0  0  0  0  0  0  0  0  0  0  0  0
  -29.9987   -5.0651   -7.6162 C   0  0  0  0  0  0  0  0  0  0  0  0
  -30.0051   -3.8372   -6.9487 C   0  0  0  0  0  0  0  0  0  0  0  0
  -30.0846   -3.8177   -5.5642 C   0  0  0  0  0  0  0  0  0  0  0  0
  -30.1138   -2.6462   -4.9133 F   0  0  0  0  0  0  0  0  0  0  0  0
  -30.1484   -5.0055   -4.8448 C   0  0  0  0  0  0  0  0  0  0  0  0
  -30.2756   -4.9915   -3.4851 O   0  0  0  0  0  0  0  0  0  0  0  0
  -30.0984   -6.2326   -5.5021 C   0  0  0  0  0  0  0  0  0  0  0  0
  -30.3767   -4.0581   -3.2191 H   0  0  0  0  0  0  0  0  0  0  0  0
  -28.1840   -9.9004   -9.5417 C   0  0  0  0  0  0  0  0  0  0  0  0
  -27.0239   -9.0038  -10.0745 C   0  0  0  0  0  0  0  0  0  0  0  0
  -27.1046   -9.7900  -11.3942 C   0  0  0  0  0  0  0  0  0  0  0  0
  -28.5734  -10.0865  -11.0392 C   0  0  0  0  0  0  0  0  0  0  0  0
  1  2  1  0  0  0
  1 11  1  0  0  0
  1 12  1  0  0  0
  2  3  1  0  0  0
  2  7  2  0  0  0
  3  4  2  0  0  0
  4  5  1  0  0  0
  5  6  2  0  0  0
  6  7  1  0  0  0
  6 10  1  0  0  0
  7  8  1  0  0  0
  8 13  1  0  0  0
  8  9  2  0  0  0
 13 14  1  0  0  0
 13 20  2  0  0  0
 14 15  2  0  0  0
 15 16  1  0  0  0
 16 17  1  0  0  0
 16 18  2  0  0  0
 18 19  1  0  0  0
 18 20  1  0  0  0
 19 21  1  0  0  0
  9 10  1  0  0  0
 10 22  1  0  0  0
 22 23  1  0  0  0
 22 25  1  0  0  0
 23 24  1  0  0  0
 24 25  1  0  0  0
M  END
> <minimizedAffinity>
-8.07810

$$$$
