CHEMBL358843


 36 41  0  0  0  0  0  0  0  0999 V2000
  -29.0433   -4.4099   -5.6473 C   0  0  0  0  0  0  0  0  0  0  0  0
  -30.1031   -4.5258   -6.5506 C   0  0  0  0  0  0  0  0  0  0  0  0
  -30.3634   -5.7250   -7.2167 C   0  0  0  0  0  0  0  0  0  0  0  0
  -29.4992   -6.8045   -6.9893 C   0  0  0  0  0  0  0  0  0  0  0  0
  -28.4700   -6.7000   -6.0418 C   0  0  0  0  0  0  0  0  0  0  0  0
  -28.2721   -5.5188   -5.3303 C   0  0  0  0  0  0  0  0  0  0  0  0
  -27.9140   -7.9639   -6.0399 C   0  0  0  0  0  0  0  0  0  0  0  0
  -27.4858   -8.5955   -4.8362 C   0  0  0  0  0  0  0  0  0  0  0  0
  -27.8341  -10.0071   -4.7080 C   0  0  0  0  0  0  0  0  0  0  0  0
  -28.5148  -10.6315   -5.7452 C   0  0  0  0  0  0  0  0  0  0  0  0
  -28.0537  -10.0824   -6.9343 C   0  0  0  0  0  0  0  0  0  0  0  0
  -28.3416   -8.7621   -7.0607 C   0  0  0  0  0  0  0  0  0  0  0  0
  -29.5288   -8.1288   -7.4646 N   0  0  0  0  0  0  0  0  0  0  0  0
  -27.6901  -11.1598   -7.8711 C   0  0  0  0  0  0  0  0  0  0  0  0
  -28.8791  -12.0321   -7.5864 C   0  0  0  0  0  0  0  0  0  0  0  0
  -29.7018  -12.4048   -8.6532 C   0  0  0  0  0  0  0  0  0  0  0  0
  -31.0624  -12.4656   -8.4220 C   0  0  0  0  0  0  0  0  0  0  0  0
  -31.5519  -12.2504   -7.1223 C   0  0  0  0  0  0  0  0  0  0  0  0
  -30.6916  -11.9355   -6.0256 C   0  0  0  0  0  0  0  0  0  0  0  0
  -29.3040  -11.7806   -6.2387 C   0  0  0  0  0  0  0  0  0  0  0  0
  -26.9125  -10.5218   -3.7155 C   0  0  0  0  0  0  0  0  0  0  0  0
  -26.6386  -11.6628   -3.3637 O   0  0  0  0  0  0  0  0  0  0  0  0
  -26.1305   -9.4212   -3.3138 N   0  0  0  0  0  0  0  0  0  0  0  0
  -26.4566   -8.1396   -3.9123 C   0  0  0  0  0  0  0  0  0  0  0  0
  -25.2064   -9.6053   -2.9480 H   0  0  0  0  0  0  0  0  0  0  0  0
  -28.6659   -3.0841   -5.0564 C   0  0  0  0  0  0  0  0  0  0  0  0
  -28.8613   -1.7460   -6.2941 S   0  0  0  0  0  0  0  0  0  0  0  0
  -27.4597   -1.4893   -6.9671 O   0  0  0  0  0  0  0  0  0  0  0  0
  -27.7772    0.2958   -4.8440 C   0  0  0  0  0  0  0  0  0  0  0  0
  -29.1192   -0.3864   -5.0968 C   0  0  0  0  0  0  0  0  0  0  0  0
  -30.1346    0.6174   -5.6256 C   0  0  0  0  0  0  0  0  0  0  0  0
  -30.7672   -8.8737   -7.6964 C   0  0  0  0  0  0  0  0  0  0  0  0
  -32.0759   -8.4622   -7.0412 C   0  0  0  0  0  0  0  0  0  0  0  0
  -33.1863   -9.4497   -7.3382 C   0  0  0  0  0  0  0  0  0  0  0  0
  -33.6414  -10.0261   -6.1230 O   0  0  0  0  0  0  0  0  0  0  0  0
  -32.9113  -10.5498   -5.7509 H   0  0  0  0  0  0  0  0  0  0  0  0
 29 30  1  0  0  0
 30 31  1  0  0  0
 30 27  1  0  0  0
 27 28  1  0  0  0
 27 26  1  0  0  0
 26  1  1  0  0  0
  1  2  1  0  0  0
  1  6  2  0  0  0
  2  3  2  0  0  0
  3  4  1  0  0  0
  4  5  2  0  0  0
  4 13  1  0  0  0
  5  6  1  0  0  0
  5  7  1  0  0  0
  7  8  1  0  0  0
  7 12  2  0  0  0
  8  9  2  0  0  0
  8 24  1  0  0  0
  9 10  1  0  0  0
  9 21  1  0  0  0
 10 11  2  0  0  0
 10 20  1  0  0  0
 11 12  1  0  0  0
 11 14  1  0  0  0
 12 13  1  0  0  0
 13 32  1  0  0  0
 32 33  1  0  0  0
 33 34  1  0  0  0
 34 35  1  0  0  0
 35 36  1  0  0  0
 14 15  1  0  0  0
 15 16  1  0  0  0
 15 20  2  0  0  0
 16 17  2  0  0  0
 17 18  1  0  0  0
 18 19  2  0  0  0
 19 20  1  0  0  0
 21 22  2  0  0  0
 21 23  1  0  0  0
 23 24  1  0  0  0
 23 25  1  0  0  0
M  CHG 1  27   1
M  CHG 1  28  -1
M  END
> <minimizedAffinity>
-7.54908

$$$$
