CHEMBL3937925


 32 35  0  0  0  0  0  0  0  0999 V2000
  -27.9519   -0.9950   -7.1782 C   0  0  0  0  0  0  0  0  0  0  0  0
  -28.6771    0.1357   -6.7920 C   0  0  0  0  0  0  0  0  0  0  0  0
  -29.2745    0.2067   -5.5343 C   0  0  0  0  0  0  0  0  0  0  0  0
  -29.1767   -0.8663   -4.6579 C   0  0  0  0  0  0  0  0  0  0  0  0
  -28.5745   -2.0539   -5.0797 C   0  0  0  0  0  0  0  0  0  0  0  0
  -27.9294   -2.1047   -6.3232 C   0  0  0  0  0  0  0  0  0  0  0  0
  -27.5309   -1.8930   -9.4783 C   0  0  0  0  0  0  0  0  0  0  0  0
  -28.4736   -2.6802   -9.5328 O   0  0  0  0  0  0  0  0  0  0  0  0
  -27.2459   -1.0684   -8.3956 N   0  0  0  0  0  0  0  0  0  0  0  0
  -26.5099   -0.3884   -8.5594 H   0  0  0  0  0  0  0  0  0  0  0  0
  -28.1096   -1.9377  -12.6904 C   0  0  0  0  0  0  0  0  0  0  0  0
  -26.8251   -1.7356  -11.9698 C   0  0  0  0  0  0  0  0  0  0  0  0
  -25.5498   -1.5147  -12.5609 C   0  0  0  0  0  0  0  0  0  0  0  0
  -24.6570   -1.3732  -11.5270 C   0  0  0  0  0  0  0  0  0  0  0  0
  -25.2886   -1.4891  -10.3333 O   0  0  0  0  0  0  0  0  0  0  0  0
  -26.6166   -1.7183  -10.5951 C   0  0  0  0  0  0  0  0  0  0  0  0
  -28.5343   -3.2017   -4.3177 O   0  0  0  0  0  0  0  0  0  0  0  0
  -29.6146   -4.0614   -4.3189 C   0  0  0  0  0  0  0  0  0  0  0  0
  -30.7310   -3.9175   -3.4921 C   0  0  0  0  0  0  0  0  0  0  0  0
  -31.7283   -4.8724   -3.5356 C   0  0  0  0  0  0  0  0  0  0  0  0
  -31.7574   -5.9234   -4.3729 N   0  0  0  0  0  0  0  0  0  0  0  0
  -30.7198   -6.0136   -5.2450 C   0  0  0  0  0  0  0  0  0  0  0  0
  -30.5853   -7.0091   -6.2553 C   0  0  0  0  0  0  0  0  0  0  0  0
  -29.4438   -6.8540   -7.0179 C   0  0  0  0  0  0  0  0  0  0  0  0
  -28.5194   -5.5190   -6.4719 S   0  0  0  0  0  0  0  0  0  0  0  0
  -29.6524   -5.1167   -5.2456 C   0  0  0  0  0  0  0  0  0  0  0  0
  -29.0180   -7.6710   -8.1416 C   0  0  0  0  0  0  0  0  0  0  0  0
  -29.6545   -8.6294   -8.5751 O   0  0  0  0  0  0  0  0  0  0  0  0
  -27.8234   -7.3083   -8.7273 N   0  0  0  0  0  0  0  0  0  0  0  0
  -27.3547   -8.0654   -9.8186 O   0  0  0  0  0  0  0  0  0  0  0  0
  -27.2525   -6.5358   -8.4055 H   0  0  0  0  0  0  0  0  0  0  0  0
  -28.0552   -8.7457   -9.9206 H   0  0  0  0  0  0  0  0  0  0  0  0
 11 12  1  0  0  0
 12 13  1  0  0  0
 12 16  2  0  0  0
 13 14  2  0  0  0
 14 15  1  0  0  0
 15 16  1  0  0  0
 16  7  1  0  0  0
  7  8  2  0  0  0
  7  9  1  0  0  0
  9  1  1  0  0  0
  9 10  1  0  0  0
  1  2  1  0  0  0
  1  6  2  0  0  0
  2  3  2  0  0  0
  3  4  1  0  0  0
  4  5  2  0  0  0
  5 17  1  0  0  0
  5  6  1  0  0  0
 17 18  1  0  0  0
 18 19  1  0  0  0
 18 26  2  0  0  0
 19 20  2  0  0  0
 20 21  1  0  0  0
 21 22  2  0  0  0
 22 23  1  0  0  0
 22 26  1  0  0  0
 23 24  2  0  0  0
 24 27  1  0  0  0
 24 25  1  0  0  0
 27 28  2  0  0  0
 27 29  1  0  0  0
 29 30  1  0  0  0
 29 31  1  0  0  0
 30 32  1  0  0  0
 25 26  1  0  0  0
M  END
> <minimizedAffinity>
-9.92444

$$$$
