CHEMBL3686066


 38 42  0  0  0  0  0  0  0  0999 V2000
  -22.8061    1.4169  -13.9083 C   0  0  0  0  0  0  0  0  0  0  0  0
  -23.0391    2.7499  -13.5977 C   0  0  0  0  0  0  0  0  0  0  0  0
  -21.9385    3.5324  -13.8094 N   0  0  0  0  0  0  0  0  0  0  0  0
  -21.0206    2.7097  -14.2636 C   0  0  0  0  0  0  0  0  0  0  0  0
  -19.6756    2.9631  -14.6512 C   0  0  0  0  0  0  0  0  0  0  0  0
  -18.9012    1.9848  -15.1831 C   0  0  0  0  0  0  0  0  0  0  0  0
  -19.4611    0.6330  -15.3105 C   0  0  0  0  0  0  0  0  0  0  0  0
  -20.7301    0.3892  -14.9487 C   0  0  0  0  0  0  0  0  0  0  0  0
  -21.5060    1.4125  -14.4013 N   0  0  0  0  0  0  0  0  0  0  0  0
  -25.0571   -1.2118  -12.3398 C   0  0  0  0  0  0  0  0  0  0  0  0
  -25.5006   -1.8811  -13.4774 C   0  0  0  0  0  0  0  0  0  0  0  0
  -25.0476   -1.4953  -14.7399 C   0  0  0  0  0  0  0  0  0  0  0  0
  -24.1446   -0.4401  -14.8735 C   0  0  0  0  0  0  0  0  0  0  0  0
  -23.6981    0.2624  -13.7470 C   0  0  0  0  0  0  0  0  0  0  0  0
  -24.1840   -0.1251  -12.4898 C   0  0  0  0  0  0  0  0  0  0  0  0
  -27.7459   -1.4275  -11.0793 O   0  0  0  0  0  0  0  0  0  0  0  0
  -26.6906   -1.6529  -10.5031 C   0  0  0  0  0  0  0  0  0  0  0  0
  -26.6619   -2.0636   -9.1863 N   0  0  0  0  0  0  0  0  0  0  0  0
  -25.4217   -1.5642  -11.0236 N   0  0  0  0  0  0  0  0  0  0  0  0
  -25.8349   -1.8063   -8.6674 H   0  0  0  0  0  0  0  0  0  0  0  0
  -24.6703   -1.8311  -10.4059 H   0  0  0  0  0  0  0  0  0  0  0  0
  -27.9165   -2.0629   -8.4214 C   0  0  0  0  0  0  0  0  0  0  0  0
  -28.4271   -3.4530   -8.0210 C   0  0  0  0  0  0  0  0  0  0  0  0
  -28.3728   -3.6450   -6.6816 F   0  0  0  0  0  0  0  0  0  0  0  0
  -29.6924   -3.6759   -8.4279 F   0  0  0  0  0  0  0  0  0  0  0  0
  -27.6445   -4.4085   -8.5816 F   0  0  0  0  0  0  0  0  0  0  0  0
  -17.5295    2.3004  -15.6501 C   0  0  0  0  0  0  0  0  0  0  0  0
  -17.1041    3.5945  -15.8923 C   0  0  0  0  0  0  0  0  0  0  0  0
  -15.8256    3.8052  -16.3990 C   0  0  0  0  0  0  0  0  0  0  0  0
  -14.9863    2.7335  -16.6810 C   0  0  0  0  0  0  0  0  0  0  0  0
  -15.4481    1.4856  -16.4607 N   0  0  0  0  0  0  0  0  0  0  0  0
  -16.7162    1.2632  -15.9347 N   0  0  0  0  0  0  0  0  0  0  0  0
  -13.7384    2.9586  -17.2359 N   0  0  0  0  0  0  0  0  0  0  0  0
  -12.7317    3.6850  -16.4664 C   0  0  0  0  0  0  0  0  0  0  0  0
  -12.4138    5.0388  -17.0941 C   0  0  0  0  0  0  0  0  0  0  0  0
  -12.1093    4.9061  -18.5840 C   0  0  0  0  0  0  0  0  0  0  0  0
  -13.2589    4.2054  -19.2988 C   0  0  0  0  0  0  0  0  0  0  0  0
  -13.5448    2.8394  -18.6780 C   0  0  0  0  0  0  0  0  0  0  0  0
 16 17  2  0  0  0
 17 18  1  0  0  0
 17 19  1  0  0  0
 18 22  1  0  0  0
 18 20  1  0  0  0
 22 23  1  0  0  0
 23 24  1  0  0  0
 23 25  1  0  0  0
 23 26  1  0  0  0
 19 10  1  0  0  0
 19 21  1  0  0  0
 10 11  1  0  0  0
 10 15  2  0  0  0
 11 12  2  0  0  0
 12 13  1  0  0  0
 13 14  2  0  0  0
 14  1  1  0  0  0
 14 15  1  0  0  0
  1  2  2  0  0  0
  1  9  1  0  0  0
  2  3  1  0  0  0
  3  4  2  0  0  0
  4  5  1  0  0  0
  4  9  1  0  0  0
  5  6  2  0  0  0
  6 27  1  0  0  0
  6  7  1  0  0  0
 27 28  1  0  0  0
 27 32  2  0  0  0
 28 29  2  0  0  0
 29 30  1  0  0  0
 30 33  1  0  0  0
 30 31  2  0  0  0
 33 34  1  0  0  0
 33 38  1  0  0  0
 34 35  1  0  0  0
 35 36  1  0  0  0
 36 37  1  0  0  0
 37 38  1  0  0  0
 31 32  1  0  0  0
  7  8  2  0  0  0
  8  9  1  0  0  0
M  END
> <minimizedAffinity>
-10.60867

$$$$
