CHEMBL270057


 36 40  0  0  0  0  0  0  0  0999 V2000
  -26.4754   -2.2520  -10.9880 C   0  0  0  0  0  0  0  0  0  0  0  0
  -25.4686   -1.4104  -10.5282 C   0  0  0  0  0  0  0  0  0  0  0  0
  -24.7263   -0.6318  -11.4303 C   0  0  0  0  0  0  0  0  0  0  0  0
  -24.9522   -0.6889  -12.8156 C   0  0  0  0  0  0  0  0  0  0  0  0
  -25.9924   -1.5315  -13.2571 C   0  0  0  0  0  0  0  0  0  0  0  0
  -26.7275   -2.3194  -12.3589 C   0  0  0  0  0  0  0  0  0  0  0  0
  -26.3754   -1.6640  -14.5718 O   0  0  0  0  0  0  0  0  0  0  0  0
  -25.3551   -1.2599  -15.4825 C   0  0  0  0  0  0  0  0  0  0  0  0
  -24.7955    0.1035  -15.1163 C   0  0  0  0  0  0  0  0  0  0  0  0
  -24.1717    0.0583  -13.7853 N   0  0  0  0  0  0  0  0  0  0  0  0
  -22.8934    0.5477  -13.4800 C   0  0  0  0  0  0  0  0  0  0  0  0
  -22.3546    0.3605  -12.3919 O   0  0  0  0  0  0  0  0  0  0  0  0
  -22.2409    1.2282  -14.5035 N   0  0  0  0  0  0  0  0  0  0  0  0
  -22.8084    1.6352  -15.2272 H   0  0  0  0  0  0  0  0  0  0  0  0
  -20.9002    1.7019  -14.4573 C   0  0  0  0  0  0  0  0  0  0  0  0
  -20.5587    3.0359  -14.2143 C   0  0  0  0  0  0  0  0  0  0  0  0
  -19.2319    3.4635  -14.2837 C   0  0  0  0  0  0  0  0  0  0  0  0
  -18.2201    2.5547  -14.5709 C   0  0  0  0  0  0  0  0  0  0  0  0
  -18.5255    1.2039  -14.7617 C   0  0  0  0  0  0  0  0  0  0  0  0
  -17.4372    0.2204  -15.0778 C   0  0  0  0  0  0  0  0  0  0  0  0
  -19.8662    0.7825  -14.6868 C   0  0  0  0  0  0  0  0  0  0  0  0
  -27.1294   -3.0083  -10.0351 O   0  0  0  0  0  0  0  0  0  0  0  0
  -29.6367   -4.5768   -5.8993 C   0  0  0  0  0  0  0  0  0  0  0  0
  -29.3884   -3.1989   -5.7985 C   0  0  0  0  0  0  0  0  0  0  0  0
  -28.7048   -2.4885   -6.7697 C   0  0  0  0  0  0  0  0  0  0  0  0
  -28.5970   -1.1594   -6.6133 N   0  0  0  0  0  0  0  0  0  0  0  0
  -27.9569   -0.4511   -7.5633 C   0  0  0  0  0  0  0  0  0  0  0  0
  -27.4187   -1.0127   -8.6969 C   0  0  0  0  0  0  0  0  0  0  0  0
  -27.5792   -2.3888   -8.8843 C   0  0  0  0  0  0  0  0  0  0  0  0
  -28.1897   -3.1758   -7.8809 C   0  0  0  0  0  0  0  0  0  0  0  0
  -28.3283   -4.5808   -7.9225 C   0  0  0  0  0  0  0  0  0  0  0  0
  -29.0503   -5.2905   -6.9499 C   0  0  0  0  0  0  0  0  0  0  0  0
  -30.9320   -4.4038   -3.9193 C   0  0  0  0  0  0  0  0  0  0  0  0
  -30.4122   -5.2232   -4.9726 O   0  0  0  0  0  0  0  0  0  0  0  0
  -29.0788   -6.6336   -7.2065 O   0  0  0  0  0  0  0  0  0  0  0  0
  -30.2859   -7.2589   -7.6126 C   0  0  0  0  0  0  0  0  0  0  0  0
 33 34  1  0  0  0
 34 23  1  0  0  0
 23 24  1  0  0  0
 23 32  2  0  0  0
 24 25  2  0  0  0
 25 26  1  0  0  0
 25 30  1  0  0  0
 26 27  2  0  0  0
 27 28  1  0  0  0
 28 29  2  0  0  0
 29 22  1  0  0  0
 29 30  1  0  0  0
 22  1  1  0  0  0
  1  2  1  0  0  0
  1  6  2  0  0  0
  2  3  2  0  0  0
  3  4  1  0  0  0
  4  5  2  0  0  0
  4 10  1  0  0  0
  5  6  1  0  0  0
  5  7  1  0  0  0
  7  8  1  0  0  0
  8  9  1  0  0  0
  9 10  1  0  0  0
 10 11  1  0  0  0
 11 12  2  0  0  0
 11 13  1  0  0  0
 13 15  1  0  0  0
 13 14  1  0  0  0
 15 16  1  0  0  0
 15 21  2  0  0  0
 16 17  2  0  0  0
 17 18  1  0  0  0
 18 19  2  0  0  0
 19 20  1  0  0  0
 19 21  1  0  0  0
 30 31  2  0  0  0
 31 32  1  0  0  0
 32 35  1  0  0  0
 35 36  1  0  0  0
M  END
> <minimizedAffinity>
-8.80061

$$$$
