CHEMBL523071


 33 37  0  0  0  0  0  0  0  0999 V2000
  -14.9955   -4.6981  -12.3905 C   0  0  0  0  0  0  0  0  0  0  0  0
  -15.7883   -4.0872  -11.3942 C   0  0  0  0  0  0  0  0  0  0  0  0
  -15.9967   -2.6973  -11.3095 C   0  0  0  0  0  0  0  0  0  0  0  0
  -15.3879   -1.9232  -12.2904 C   0  0  0  0  0  0  0  0  0  0  0  0
  -15.3782   -0.5805  -12.5529 N   0  0  0  0  0  0  0  0  0  0  0  0
  -14.6128   -0.3531  -13.6797 C   0  0  0  0  0  0  0  0  0  0  0  0
  -14.1157   -1.4980  -14.1224 N   0  0  0  0  0  0  0  0  0  0  0  0
  -14.5862   -2.4677  -13.2790 C   0  0  0  0  0  0  0  0  0  0  0  0
  -14.3643   -3.8487  -13.3104 C   0  0  0  0  0  0  0  0  0  0  0  0
  -15.8381    0.1460  -12.0144 H   0  0  0  0  0  0  0  0  0  0  0  0
  -14.4013    0.9769  -14.1674 C   0  0  0  0  0  0  0  0  0  0  0  0
  -15.0204    1.3750  -15.3097 C   0  0  0  0  0  0  0  0  0  0  0  0
  -15.9716    0.6207  -16.0051 N   0  0  0  0  0  0  0  0  0  0  0  0
  -14.6514    2.6845  -15.9132 C   0  0  0  0  0  0  0  0  0  0  0  0
  -15.1853    3.1397  -17.1305 C   0  0  0  0  0  0  0  0  0  0  0  0
  -14.7405    4.3307  -17.7113 C   0  0  0  0  0  0  0  0  0  0  0  0
  -13.7763    5.1027  -17.0697 C   0  0  0  0  0  0  0  0  0  0  0  0
  -13.2663    4.6931  -15.8401 C   0  0  0  0  0  0  0  0  0  0  0  0
  -13.6995    3.4908  -15.2756 C   0  0  0  0  0  0  0  0  0  0  0  0
  -13.1576    3.0871  -14.0557 N   0  0  0  0  0  0  0  0  0  0  0  0
  -13.4537    1.8984  -13.4569 C   0  0  0  0  0  0  0  0  0  0  0  0
  -12.9384    1.6044  -12.3773 O   0  0  0  0  0  0  0  0  0  0  0  0
  -16.0416   -0.3244  -15.5978 H   0  0  0  0  0  0  0  0  0  0  0  0
  -15.7477    0.5328  -16.9913 H   0  0  0  0  0  0  0  0  0  0  0  0
  -12.5000    3.6797  -13.5674 H   0  0  0  0  0  0  0  0  0  0  0  0
  -10.8166   -7.9656  -12.3709 C   0  0  0  0  0  0  0  0  0  0  0  0
  -12.2820   -7.9537  -12.4470 N   0  0  0  0  0  0  0  0  0  0  0  0
  -12.7132   -7.5481  -13.7951 C   0  0  0  0  0  0  0  0  0  0  0  0
  -14.1807   -7.8997  -14.0488 C   0  0  0  0  0  0  0  0  0  0  0  0
  -15.1566   -6.7730  -13.7210 C   0  0  0  0  0  0  0  0  0  0  0  0
  -14.8633   -6.0821  -12.4665 N   0  0  0  0  0  0  0  0  0  0  0  0
  -14.3425   -6.8675  -11.3391 C   0  0  0  0  0  0  0  0  0  0  0  0
  -12.8096   -7.0617  -11.3920 C   0  0  0  0  0  0  0  0  0  0  0  0
 26 27  1  0  0  0
 27 28  1  0  0  0
 27 33  1  0  0  0
 28 29  1  0  0  0
 29 30  1  0  0  0
 30 31  1  0  0  0
 31  1  1  0  0  0
 31 32  1  0  0  0
  1  2  1  0  0  0
  1  9  2  0  0  0
  2  3  2  0  0  0
  3  4  1  0  0  0
  4  5  1  0  0  0
  4  8  2  0  0  0
  5  6  1  0  0  0
  5 10  1  0  0  0
  6 11  1  0  0  0
  6  7  2  0  0  0
 11 12  2  0  0  0
 11 21  1  0  0  0
 12 13  1  0  0  0
 12 14  1  0  0  0
 13 23  1  0  0  0
 13 24  1  0  0  0
 14 15  1  0  0  0
 14 19  2  0  0  0
 15 16  2  0  0  0
 16 17  1  0  0  0
 17 18  2  0  0  0
 18 19  1  0  0  0
 19 20  1  0  0  0
 20 21  1  0  0  0
 20 25  1  0  0  0
 21 22  2  0  0  0
  7  8  1  0  0  0
  8  9  1  0  0  0
 32 33  1  0  0  0
M  END
> <minimizedAffinity>
-8.01660

$$$$
