CHEMBL2322135


 20 23  0  0  0  0  0  0  0  0999 V2000
  -31.1089   -4.9195   -4.1157 C   0  0  0  0  0  0  0  0  0  0  0  0
  -30.3416   -3.9370   -4.7161 C   0  0  0  0  0  0  0  0  0  0  0  0
  -29.7815   -4.5559   -5.8325 C   0  0  0  0  0  0  0  0  0  0  0  0
  -30.1730   -5.8670   -5.9325 C   0  0  0  0  0  0  0  0  0  0  0  0
  -29.8327   -6.7629   -6.8731 N   0  0  0  0  0  0  0  0  0  0  0  0
  -28.9937   -6.3074   -7.8377 C   0  0  0  0  0  0  0  0  0  0  0  0
  -28.5399   -4.9942   -7.8100 C   0  0  0  0  0  0  0  0  0  0  0  0
  -27.7218   -4.2490   -8.6105 N   0  0  0  0  0  0  0  0  0  0  0  0
  -27.5673   -2.9634   -8.2070 N   0  0  0  0  0  0  0  0  0  0  0  0
  -28.3416   -2.8612   -7.1087 C   0  0  0  0  0  0  0  0  0  0  0  0
  -28.9146   -4.1026   -6.8373 C   0  0  0  0  0  0  0  0  0  0  0  0
  -31.0003   -6.0761   -4.8604 N   0  0  0  0  0  0  0  0  0  0  0  0
  -27.2476   -4.5404   -9.4568 H   0  0  0  0  0  0  0  0  0  0  0  0
  -31.4500   -6.9585   -4.6643 H   0  0  0  0  0  0  0  0  0  0  0  0
  -28.5693   -1.5609   -6.4018 C   0  0  0  0  0  0  0  0  0  0  0  0
  -28.3461   -0.3241   -7.2817 C   0  0  0  0  0  0  0  0  0  0  0  0
  -28.7799    0.9357   -6.5346 C   0  0  0  0  0  0  0  0  0  0  0  0
  -28.0503    1.0737   -5.2004 C   0  0  0  0  0  0  0  0  0  0  0  0
  -28.1960   -0.1762   -4.3348 C   0  0  0  0  0  0  0  0  0  0  0  0
  -27.7794   -1.4397   -5.0898 C   0  0  0  0  0  0  0  0  0  0  0  0
  1  2  2  0  0  0
  1 12  1  0  0  0
  2  3  1  0  0  0
  3  4  1  0  0  0
  3 11  2  0  0  0
  4  5  2  0  0  0
  4 12  1  0  0  0
  5  6  1  0  0  0
  6  7  2  0  0  0
  7  8  1  0  0  0
  7 11  1  0  0  0
  8  9  1  0  0  0
  8 13  1  0  0  0
  9 10  2  0  0  0
 10 15  1  0  0  0
 10 11  1  0  0  0
 15 16  1  0  0  0
 15 20  1  0  0  0
 16 17  1  0  0  0
 17 18  1  0  0  0
 18 19  1  0  0  0
 19 20  1  0  0  0
 12 14  1  0  0  0
M  END
> <minimizedAffinity>
-7.76142

$$$$
