CHEMBL3696077


 30 31  0  0  0  0  0  0  0  0999 V2000
  -29.2218   -6.4132   -5.5957 C   0  0  0  0  0  0  0  0  0  0  0  0
  -29.3998   -6.3460   -3.9165 S   0  0  0  0  0  0  0  0  0  0  0  0
  -29.0576   -4.7459   -3.7807 N   0  0  0  0  0  0  0  0  0  0  0  0
  -28.8842   -4.2002   -4.9965 C   0  0  0  0  0  0  0  0  0  0  0  0
  -29.0027   -5.1434   -6.1083 C   0  0  0  0  0  0  0  0  0  0  0  0
  -28.6860   -2.7372   -5.0416 C   0  0  0  0  0  0  0  0  0  0  0  0
  -29.7933   -1.8866   -5.1935 C   0  0  0  0  0  0  0  0  0  0  0  0
  -29.6244   -0.5114   -5.3982 C   0  0  0  0  0  0  0  0  0  0  0  0
  -28.3511    0.0573   -5.4013 C   0  0  0  0  0  0  0  0  0  0  0  0
  -28.1717    1.3888   -5.7943 N   0  0  0  0  0  0  0  0  0  0  0  0
  -27.2478   -0.7854   -5.2602 C   0  0  0  0  0  0  0  0  0  0  0  0
  -27.4105   -2.1647   -5.0735 C   0  0  0  0  0  0  0  0  0  0  0  0
  -28.9680    1.9866   -5.6000 H   0  0  0  0  0  0  0  0  0  0  0  0
  -27.2950    1.7929   -5.4815 H   0  0  0  0  0  0  0  0  0  0  0  0
  -30.3995   -9.2953   -7.3140 N   0  0  0  0  0  0  0  0  0  0  0  0
  -30.4854   -8.0393   -6.7537 C   0  0  0  0  0  0  0  0  0  0  0  0
  -31.4797   -7.3320   -6.8295 O   0  0  0  0  0  0  0  0  0  0  0  0
  -29.2913   -7.6790   -6.1528 N   0  0  0  0  0  0  0  0  0  0  0  0
  -29.7991   -9.9547   -6.8393 H   0  0  0  0  0  0  0  0  0  0  0  0
  -28.4853   -7.9490   -6.7029 H   0  0  0  0  0  0  0  0  0  0  0  0
  -31.5300   -9.8283   -8.0546 C   0  0  0  0  0  0  0  0  0  0  0  0
  -31.2900  -11.2812   -8.4628 C   0  0  0  0  0  0  0  0  0  0  0  0
  -29.9717  -11.4443   -9.2108 C   0  0  0  0  0  0  0  0  0  0  0  0
  -28.8638  -10.4680  -11.0542 C   0  0  0  0  0  0  0  0  0  0  0  0
  -29.6917  -10.2438   -9.9234 O   0  0  0  0  0  0  0  0  0  0  0  0
  -28.9284   -4.8316   -7.5264 C   0  0  0  0  0  0  0  0  0  0  0  0
  -27.9929   -5.5309   -8.2400 N   0  0  0  0  0  0  0  0  0  0  0  0
  -29.6853   -4.0626   -8.1105 O   0  0  0  0  0  0  0  0  0  0  0  0
  -27.2921   -6.1049   -7.7941 H   0  0  0  0  0  0  0  0  0  0  0  0
  -27.8782   -5.2861   -9.2137 H   0  0  0  0  0  0  0  0  0  0  0  0
 24 25  1  0  0  0
 25 23  1  0  0  0
 23 22  1  0  0  0
 22 21  1  0  0  0
 21 15  1  0  0  0
 15 16  1  0  0  0
 15 19  1  0  0  0
 16 17  2  0  0  0
 16 18  1  0  0  0
 18  1  1  0  0  0
 18 20  1  0  0  0
  1  2  1  0  0  0
  1  5  2  0  0  0
  2  3  1  0  0  0
  3  4  2  0  0  0
  4  6  1  0  0  0
  4  5  1  0  0  0
  6  7  1  0  0  0
  6 12  2  0  0  0
  7  8  2  0  0  0
  8  9  1  0  0  0
  9 10  1  0  0  0
  9 11  2  0  0  0
 10 13  1  0  0  0
 10 14  1  0  0  0
 11 12  1  0  0  0
  5 26  1  0  0  0
 26 27  1  0  0  0
 26 28  2  0  0  0
 27 29  1  0  0  0
 27 30  1  0  0  0
M  END
> <minimizedAffinity>
-7.18754

$$$$
