CHEMBL1242118


 26 29  0  0  0  0  0  0  0  0999 V2000
  -30.4823   -8.3997   -6.7599 N   0  0  0  0  0  0  0  0  0  0  0  0
  -30.6098   -7.0770   -6.9629 N   0  0  0  0  0  0  0  0  0  0  0  0
  -29.6056   -6.5158   -6.2584 C   0  0  0  0  0  0  0  0  0  0  0  0
  -28.7959   -7.5221   -5.6380 C   0  0  0  0  0  0  0  0  0  0  0  0
  -27.6812   -7.6258   -4.7917 C   0  0  0  0  0  0  0  0  0  0  0  0
  -26.9390   -6.5647   -4.2984 N   0  0  0  0  0  0  0  0  0  0  0  0
  -27.2843   -8.8505   -4.3820 N   0  0  0  0  0  0  0  0  0  0  0  0
  -27.9800   -9.9281   -4.7853 C   0  0  0  0  0  0  0  0  0  0  0  0
  -29.0578   -9.9574   -5.5798 N   0  0  0  0  0  0  0  0  0  0  0  0
  -29.4090   -8.7220   -5.9777 C   0  0  0  0  0  0  0  0  0  0  0  0
  -27.4647   -5.7325   -4.0736 H   0  0  0  0  0  0  0  0  0  0  0  0
  -26.3115   -6.8824   -3.5673 H   0  0  0  0  0  0  0  0  0  0  0  0
  -29.5942   -5.0494   -6.1283 C   0  0  0  0  0  0  0  0  0  0  0  0
  -30.3267   -4.4923   -5.0599 C   0  0  0  0  0  0  0  0  0  0  0  0
  -30.3318   -3.1229   -4.8086 C   0  0  0  0  0  0  0  0  0  0  0  0
  -29.5648   -2.2845   -5.6021 C   0  0  0  0  0  0  0  0  0  0  0  0
  -29.5620   -0.9536   -5.2615 O   0  0  0  0  0  0  0  0  0  0  0  0
  -28.6702   -0.1400   -5.9093 C   0  0  0  0  0  0  0  0  0  0  0  0
  -27.8726   -0.4992   -6.9178 C   0  0  0  0  0  0  0  0  0  0  0  0
  -27.9464   -1.8921   -7.4128 C   0  0  0  0  0  0  0  0  0  0  0  0
  -27.2672   -2.2597   -8.3588 O   0  0  0  0  0  0  0  0  0  0  0  0
  -28.8301   -2.8112   -6.6659 C   0  0  0  0  0  0  0  0  0  0  0  0
  -28.8754   -4.1858   -6.9635 C   0  0  0  0  0  0  0  0  0  0  0  0
  -32.8801   -8.6435   -7.2676 C   0  0  0  0  0  0  0  0  0  0  0  0
  -31.5065   -9.3188   -7.2488 C   0  0  0  0  0  0  0  0  0  0  0  0
  -31.1785   -9.8939   -8.6297 C   0  0  0  0  0  0  0  0  0  0  0  0
 24 25  1  0  0  0
 25 26  1  0  0  0
 25  1  1  0  0  0
  1  2  1  0  0  0
  1 10  1  0  0  0
  2  3  2  0  0  0
  3 13  1  0  0  0
  3  4  1  0  0  0
 13 14  1  0  0  0
 13 23  2  0  0  0
 14 15  2  0  0  0
 15 16  1  0  0  0
 16 17  1  0  0  0
 16 22  2  0  0  0
 17 18  1  0  0  0
 18 19  2  0  0  0
 19 20  1  0  0  0
 20 21  2  0  0  0
 20 22  1  0  0  0
 22 23  1  0  0  0
  4  5  1  0  0  0
  4 10  2  0  0  0
  5  6  1  0  0  0
  5  7  2  0  0  0
  6 11  1  0  0  0
  6 12  1  0  0  0
  7  8  1  0  0  0
  8  9  2  0  0  0
  9 10  1  0  0  0
M  END
> <minimizedAffinity>
-8.55990

$$$$
