CHEMBL4543044


 37 39  0  0  0  0  0  0  0  0999 V2000
  -27.1421   -1.7388  -10.1706 C   0  0  0  0  0  0  0  0  0  0  0  0
  -28.1500   -1.2077  -10.6394 O   0  0  0  0  0  0  0  0  0  0  0  0
  -25.9745   -2.0138  -10.8740 N   0  0  0  0  0  0  0  0  0  0  0  0
  -25.2988   -2.5981  -10.3919 H   0  0  0  0  0  0  0  0  0  0  0  0
  -25.6940   -1.6680  -12.2181 C   0  0  0  0  0  0  0  0  0  0  0  0
  -26.6042   -1.9371  -13.2393 C   0  0  0  0  0  0  0  0  0  0  0  0
  -26.2814   -1.6695  -14.5614 C   0  0  0  0  0  0  0  0  0  0  0  0
  -25.0553   -1.0980  -14.8773 C   0  0  0  0  0  0  0  0  0  0  0  0
  -24.1413   -0.7433  -13.8816 C   0  0  0  0  0  0  0  0  0  0  0  0
  -24.4720   -1.0327  -12.5408 C   0  0  0  0  0  0  0  0  0  0  0  0
  -22.9133   -0.0980  -14.1906 N   0  0  0  0  0  0  0  0  0  0  0  0
  -22.6145    1.2454  -13.9714 C   0  0  0  0  0  0  0  0  0  0  0  0
  -23.3775    2.1066  -13.5422 O   0  0  0  0  0  0  0  0  0  0  0  0
  -22.1538   -0.6487  -14.5819 H   0  0  0  0  0  0  0  0  0  0  0  0
  -21.2115    1.6629  -14.2878 C   0  0  0  0  0  0  0  0  0  0  0  0
  -20.3382    0.7201  -14.8334 C   0  0  0  0  0  0  0  0  0  0  0  0
  -19.0513    1.1264  -15.1713 C   0  0  0  0  0  0  0  0  0  0  0  0
  -18.6819    2.4429  -14.9525 C   0  0  0  0  0  0  0  0  0  0  0  0
  -19.6132    3.3124  -14.3964 C   0  0  0  0  0  0  0  0  0  0  0  0
  -20.8769    2.9606  -14.0537 N   0  0  0  0  0  0  0  0  0  0  0  0
  -27.1679   -2.1614   -8.7034 C   0  0  0  0  0  0  0  0  0  0  0  0
  -28.2743   -1.1452   -7.6793 S   0  0  0  0  0  0  0  0  0  0  0  0
  -28.1330   -1.9994   -6.1438 C   0  0  0  0  0  0  0  0  0  0  0  0
  -27.3051   -1.2249   -4.8997 S   0  0  0  0  0  0  0  0  0  0  0  0
  -30.3077   -7.1259   -6.6506 C   0  0  0  0  0  0  0  0  0  0  0  0
  -31.2613   -7.2581   -7.4047 O   0  0  0  0  0  0  0  0  0  0  0  0
  -29.5977   -5.9443   -6.5771 N   0  0  0  0  0  0  0  0  0  0  0  0
  -28.4206   -5.7100   -5.7476 C   0  0  0  0  0  0  0  0  0  0  0  0
  -28.4610   -4.3153   -5.0870 C   0  0  0  0  0  0  0  0  0  0  0  0
  -28.7953   -3.2299   -6.0455 N   0  0  0  0  0  0  0  0  0  0  0  0
  -30.0192   -3.5256   -6.8257 C   0  0  0  0  0  0  0  0  0  0  0  0
  -29.9134   -4.8810   -7.5288 C   0  0  0  0  0  0  0  0  0  0  0  0
  -29.8563   -8.1044   -5.8097 O   0  0  0  0  0  0  0  0  0  0  0  0
  -28.6094   -8.8955   -7.7971 C   0  0  0  0  0  0  0  0  0  0  0  0
  -29.1308   -9.2283   -6.3901 C   0  0  0  0  0  0  0  0  0  0  0  0
  -29.9928  -10.5003   -6.3710 C   0  0  0  0  0  0  0  0  0  0  0  0
  -27.9000   -9.4810   -5.4997 C   0  0  0  0  0  0  0  0  0  0  0  0
 34 35  1  0  0  0
 35 36  1  0  0  0
 35 37  1  0  0  0
 35 33  1  0  0  0
 33 25  1  0  0  0
 25 26  2  0  0  0
 25 27  1  0  0  0
 27 28  1  0  0  0
 27 32  1  0  0  0
 28 29  1  0  0  0
 29 30  1  0  0  0
 30 23  1  0  0  0
 30 31  1  0  0  0
 23 24  2  0  0  0
 23 22  1  0  0  0
 22 21  1  0  0  0
 21  1  1  0  0  0
  1  2  2  0  0  0
  1  3  1  0  0  0
  3  5  1  0  0  0
  3  4  1  0  0  0
  5  6  1  0  0  0
  5 10  2  0  0  0
  6  7  2  0  0  0
  7  8  1  0  0  0
  8  9  2  0  0  0
  9 11  1  0  0  0
  9 10  1  0  0  0
 11 12  1  0  0  0
 11 14  1  0  0  0
 12 13  2  0  0  0
 12 15  1  0  0  0
 15 16  1  0  0  0
 15 20  2  0  0  0
 16 17  2  0  0  0
 17 18  1  0  0  0
 18 19  2  0  0  0
 19 20  1  0  0  0
 31 32  1  0  0  0
M  END
> <minimizedAffinity>
-9.60022

$$$$
