CHEMBL4081243


 40 44  0  0  0  0  0  0  0  0999 V2000
  -14.9805   -1.0548  -14.2727 N   0  0  0  0  0  0  0  0  0  0  0  0
  -15.3764   -1.5470  -13.0198 C   0  0  0  0  0  0  0  0  0  0  0  0
  -15.6078   -0.8580  -12.0300 O   0  0  0  0  0  0  0  0  0  0  0  0
  -14.8997   -1.7061  -15.0429 H   0  0  0  0  0  0  0  0  0  0  0  0
  -14.1673    3.0745  -15.2249 C   0  0  0  0  0  0  0  0  0  0  0  0
  -13.2351    2.2535  -14.5793 C   0  0  0  0  0  0  0  0  0  0  0  0
  -13.4896    0.9138  -14.2838 C   0  0  0  0  0  0  0  0  0  0  0  0
  -14.7068    0.3178  -14.5708 C   0  0  0  0  0  0  0  0  0  0  0  0
  -15.6785    1.1376  -15.1903 C   0  0  0  0  0  0  0  0  0  0  0  0
  -15.4231    2.5092  -15.5397 C   0  0  0  0  0  0  0  0  0  0  0  0
  -16.5502    3.2800  -16.2079 C   0  0  0  0  0  0  0  0  0  0  0  0
  -16.9721    4.4044  -15.5716 F   0  0  0  0  0  0  0  0  0  0  0  0
  -16.2282    3.6738  -17.4727 F   0  0  0  0  0  0  0  0  0  0  0  0
  -17.6693    2.5097  -16.3446 F   0  0  0  0  0  0  0  0  0  0  0  0
  -13.7207    4.5072  -15.5189 C   0  0  0  0  0  0  0  0  0  0  0  0
  -12.2632    9.0072  -16.2156 C   0  0  0  0  0  0  0  0  0  0  0  0
  -11.7842    7.6255  -16.2253 N   0  0  0  0  0  0  0  0  0  0  0  0
  -11.9437    7.0133  -14.8968 C   0  0  0  0  0  0  0  0  0  0  0  0
  -11.5381    5.5199  -14.8923 C   0  0  0  0  0  0  0  0  0  0  0  0
  -12.2910    4.6712  -15.8470 N   0  0  0  0  0  0  0  0  0  0  0  0
  -12.1308    5.3074  -17.1845 C   0  0  0  0  0  0  0  0  0  0  0  0
  -12.4802    6.8234  -17.2498 C   0  0  0  0  0  0  0  0  0  0  0  0
  -15.5343   -3.0287  -12.8157 C   0  0  0  0  0  0  0  0  0  0  0  0
  -16.3239   -3.5824  -11.8051 C   0  0  0  0  0  0  0  0  0  0  0  0
  -16.5265   -4.9701  -11.7579 C   0  0  0  0  0  0  0  0  0  0  0  0
  -15.9531   -5.8108  -12.7188 C   0  0  0  0  0  0  0  0  0  0  0  0
  -15.1627   -5.2800  -13.7399 C   0  0  0  0  0  0  0  0  0  0  0  0
  -14.9542   -3.8949  -13.7800 C   0  0  0  0  0  0  0  0  0  0  0  0
  -14.6829   -6.1554  -14.7854 C   0  0  0  0  0  0  0  0  0  0  0  0
  -14.2121   -6.9737  -15.5259 C   0  0  0  0  0  0  0  0  0  0  0  0
  -13.6072   -8.0830  -16.2251 C   0  0  0  0  0  0  0  0  0  0  0  0
  -13.1273   -9.1880  -15.5307 C   0  0  0  0  0  0  0  0  0  0  0  0
  -12.6744  -10.3214  -16.1202 N   0  0  0  0  0  0  0  0  0  0  0  0
  -12.6426  -10.3250  -17.4718 C   0  0  0  0  0  0  0  0  0  0  0  0
  -12.9958   -9.2380  -18.2739 C   0  0  0  0  0  0  0  0  0  0  0  0
  -12.8209   -9.2492  -19.6713 C   0  0  0  0  0  0  0  0  0  0  0  0
  -13.1695   -8.1400  -20.4382 C   0  0  0  0  0  0  0  0  0  0  0  0
  -13.7531   -7.0341  -19.8325 C   0  0  0  0  0  0  0  0  0  0  0  0
  -13.9413   -7.0171  -18.4511 C   0  0  0  0  0  0  0  0  0  0  0  0
  -13.5275   -8.0952  -17.6337 C   0  0  0  0  0  0  0  0  0  0  0  0
 16 17  1  0  0  0
 17 18  1  0  0  0
 17 22  1  0  0  0
 18 19  1  0  0  0
 19 20  1  0  0  0
 20 15  1  0  0  0
 20 21  1  0  0  0
 15  5  1  0  0  0
  5  6  1  0  0  0
  5 10  2  0  0  0
  6  7  2  0  0  0
  7  8  1  0  0  0
  8  1  1  0  0  0
  8  9  2  0  0  0
  1  2  1  0  0  0
  1  4  1  0  0  0
  2  3  2  0  0  0
  2 23  1  0  0  0
 23 24  1  0  0  0
 23 28  2  0  0  0
 24 25  2  0  0  0
 25 26  1  0  0  0
 26 27  2  0  0  0
 27 29  1  0  0  0
 27 28  1  0  0  0
 29 30  3  0  0  0
 30 31  1  0  0  0
 31 32  1  0  0  0
 31 40  2  0  0  0
 32 33  2  0  0  0
 33 34  1  0  0  0
 34 35  2  0  0  0
 35 36  1  0  0  0
 35 40  1  0  0  0
 36 37  2  0  0  0
 37 38  1  0  0  0
 38 39  2  0  0  0
 39 40  1  0  0  0
  9 10  1  0  0  0
 10 11  1  0  0  0
 11 12  1  0  0  0
 11 13  1  0  0  0
 11 14  1  0  0  0
 21 22  1  0  0  0
M  END
> <minimizedAffinity>
-9.16831

$$$$
