CHEMBL3125884


 41 45  0  0  0  0  0  0  0  0999 V2000
  -29.2564   -3.2505   -7.0815 C   0  0  0  0  0  0  0  0  0  0  0  0
  -29.0680   -2.0585   -6.3815 C   0  0  0  0  0  0  0  0  0  0  0  0
  -28.2705   -1.0587   -6.9276 C   0  0  0  0  0  0  0  0  0  0  0  0
  -27.6538   -1.2590   -8.1606 C   0  0  0  0  0  0  0  0  0  0  0  0
  -27.8526   -2.4446   -8.8816 C   0  0  0  0  0  0  0  0  0  0  0  0
  -28.7119   -3.4146   -8.3631 C   0  0  0  0  0  0  0  0  0  0  0  0
  -27.2039   -2.7079  -10.1073 N   0  0  0  0  0  0  0  0  0  0  0  0
  -26.0862   -2.0087  -10.5410 C   0  0  0  0  0  0  0  0  0  0  0  0
  -25.4766   -1.1897   -9.8720 O   0  0  0  0  0  0  0  0  0  0  0  0
  -25.7597   -2.3407  -11.8553 N   0  0  0  0  0  0  0  0  0  0  0  0
  -27.3187   -3.6278  -10.5132 H   0  0  0  0  0  0  0  0  0  0  0  0
  -26.5649   -2.5259  -12.4382 H   0  0  0  0  0  0  0  0  0  0  0  0
  -24.6874   -1.6545  -12.4735 C   0  0  0  0  0  0  0  0  0  0  0  0
  -23.5229   -1.3557  -11.7585 C   0  0  0  0  0  0  0  0  0  0  0  0
  -22.5507   -0.5209  -12.3082 C   0  0  0  0  0  0  0  0  0  0  0  0
  -22.7314    0.0267  -13.5841 C   0  0  0  0  0  0  0  0  0  0  0  0
  -23.8775   -0.3258  -14.3187 C   0  0  0  0  0  0  0  0  0  0  0  0
  -24.8397   -1.1854  -13.7778 C   0  0  0  0  0  0  0  0  0  0  0  0
  -21.7331    1.0034  -14.1546 C   0  0  0  0  0  0  0  0  0  0  0  0
  -21.2319    0.6301  -15.3655 F   0  0  0  0  0  0  0  0  0  0  0  0
  -22.2655    2.2426  -14.3376 F   0  0  0  0  0  0  0  0  0  0  0  0
  -20.6528    1.1771  -13.3428 F   0  0  0  0  0  0  0  0  0  0  0  0
  -30.0126   -4.2061   -6.4425 O   0  0  0  0  0  0  0  0  0  0  0  0
  -28.7420   -5.9368   -5.4452 C   0  0  0  0  0  0  0  0  0  0  0  0
  -29.6018   -5.5235   -6.4722 C   0  0  0  0  0  0  0  0  0  0  0  0
  -29.9658   -6.4148   -7.4852 C   0  0  0  0  0  0  0  0  0  0  0  0
  -29.5593   -7.7512   -7.4374 C   0  0  0  0  0  0  0  0  0  0  0  0
  -28.7196   -8.1929   -6.3975 C   0  0  0  0  0  0  0  0  0  0  0  0
  -28.2203   -9.4755   -6.2621 N   0  0  0  0  0  0  0  0  0  0  0  0
  -27.4418   -9.5262   -5.2191 C   0  0  0  0  0  0  0  0  0  0  0  0
  -27.3007   -8.1067   -4.2920 S   0  0  0  0  0  0  0  0  0  0  0  0
  -28.3178   -7.2781   -5.4158 C   0  0  0  0  0  0  0  0  0  0  0  0
  -26.6813  -10.5438   -4.7368 N   0  0  0  0  0  0  0  0  0  0  0  0
  -25.3310  -10.6567   -4.9328 C   0  0  0  0  0  0  0  0  0  0  0  0
  -24.5720   -9.9372   -5.5585 O   0  0  0  0  0  0  0  0  0  0  0  0
  -27.1536  -11.2287   -4.1669 H   0  0  0  0  0  0  0  0  0  0  0  0
  -24.8111  -11.8578   -4.1846 C   0  0  0  0  0  0  0  0  0  0  0  0
  -24.0610  -11.1442   -2.9737 C   0  0  0  0  0  0  0  0  0  0  0  0
  -24.5818  -12.4653   -2.8035 C   0  0  0  0  0  0  0  0  0  0  0  0
  -27.9077   -4.3004   -3.6176 N   0  0  0  0  0  0  0  0  0  0  0  0
  -28.2703   -5.0410   -4.4296 C   0  0  0  0  0  0  0  0  0  0  0  0
 40 41  3  0  0  0
 41 24  1  0  0  0
 24 25  1  0  0  0
 24 32  2  0  0  0
 25 23  1  0  0  0
 25 26  2  0  0  0
 23  1  1  0  0  0
  1  2  1  0  0  0
  1  6  2  0  0  0
  2  3  2  0  0  0
  3  4  1  0  0  0
  4  5  2  0  0  0
  5  7  1  0  0  0
  5  6  1  0  0  0
  7  8  1  0  0  0
  7 11  1  0  0  0
  8  9  2  0  0  0
  8 10  1  0  0  0
 10 13  1  0  0  0
 10 12  1  0  0  0
 13 14  1  0  0  0
 13 18  2  0  0  0
 14 15  2  0  0  0
 15 16  1  0  0  0
 16 19  1  0  0  0
 16 17  2  0  0  0
 19 20  1  0  0  0
 19 21  1  0  0  0
 19 22  1  0  0  0
 17 18  1  0  0  0
 26 27  1  0  0  0
 27 28  2  0  0  0
 28 29  1  0  0  0
 28 32  1  0  0  0
 29 30  2  0  0  0
 30 33  1  0  0  0
 30 31  1  0  0  0
 33 34  1  0  0  0
 33 36  1  0  0  0
 34 35  2  0  0  0
 34 37  1  0  0  0
 37 38  1  0  0  0
 37 39  1  0  0  0
 38 39  1  0  0  0
 31 32  1  0  0  0
M  END
> <minimizedAffinity>
-10.83726

$$$$
