CHEMBL3287307


 44 48  0  0  0  0  0  0  0  0999 V2000
  -23.5356    0.1815  -13.2421 C   0  0  0  0  0  0  0  0  0  0  0  0
  -23.2058    1.5066  -13.5373 C   0  0  0  0  0  0  0  0  0  0  0  0
  -22.0585    1.8074  -14.2722 C   0  0  0  0  0  0  0  0  0  0  0  0
  -21.2186    0.7837  -14.7128 C   0  0  0  0  0  0  0  0  0  0  0  0
  -21.5434   -0.5430  -14.4067 C   0  0  0  0  0  0  0  0  0  0  0  0
  -22.6751   -0.8437  -13.6325 C   0  0  0  0  0  0  0  0  0  0  0  0
  -25.5322   -1.1840  -13.1023 C   0  0  0  0  0  0  0  0  0  0  0  0
  -25.2578   -1.8922  -14.0641 O   0  0  0  0  0  0  0  0  0  0  0  0
  -24.7641   -0.1330  -12.6223 N   0  0  0  0  0  0  0  0  0  0  0  0
  -24.8949    0.1307  -11.6514 H   0  0  0  0  0  0  0  0  0  0  0  0
  -26.7431   -1.5377  -12.2990 C   0  0  0  0  0  0  0  0  0  0  0  0
  -28.1125   -1.0906  -12.8066 C   0  0  0  0  0  0  0  0  0  0  0  0
  -27.7134   -2.5213  -12.9691 C   0  0  0  0  0  0  0  0  0  0  0  0
  -27.7261   -1.8782  -10.1167 N   0  0  0  0  0  0  0  0  0  0  0  0
  -26.5498   -1.6958  -10.8191 C   0  0  0  0  0  0  0  0  0  0  0  0
  -25.4106   -1.6701  -10.3751 O   0  0  0  0  0  0  0  0  0  0  0  0
  -28.5769   -1.9535  -10.6660 H   0  0  0  0  0  0  0  0  0  0  0  0
  -28.2414   -2.7158   -4.4646 C   0  0  0  0  0  0  0  0  0  0  0  0
  -28.1299   -2.4766   -5.9408 C   0  0  0  0  0  0  0  0  0  0  0  0
  -27.7588   -1.2230   -6.4309 C   0  0  0  0  0  0  0  0  0  0  0  0
  -27.6272   -1.0041   -7.8057 C   0  0  0  0  0  0  0  0  0  0  0  0
  -27.8618   -2.0324   -8.7194 C   0  0  0  0  0  0  0  0  0  0  0  0
  -28.2552   -3.2843   -8.2310 C   0  0  0  0  0  0  0  0  0  0  0  0
  -28.3853   -3.5059   -6.8528 C   0  0  0  0  0  0  0  0  0  0  0  0
  -20.1080    0.9860  -15.5090 O   0  0  0  0  0  0  0  0  0  0  0  0
  -18.8604    1.0529  -14.9017 C   0  0  0  0  0  0  0  0  0  0  0  0
  -18.4903    2.2367  -14.3226 C   0  0  0  0  0  0  0  0  0  0  0  0
  -17.2521    2.2305  -13.7282 C   0  0  0  0  0  0  0  0  0  0  0  0
  -16.4393    1.1536  -13.6988 N   0  0  0  0  0  0  0  0  0  0  0  0
  -16.8732    0.0521  -14.3267 C   0  0  0  0  0  0  0  0  0  0  0  0
  -18.0572   -0.0201  -14.9514 N   0  0  0  0  0  0  0  0  0  0  0  0
  -16.0578   -1.0789  -14.3070 N   0  0  0  0  0  0  0  0  0  0  0  0
  -15.9122   -1.4200  -15.2483 H   0  0  0  0  0  0  0  0  0  0  0  0
  -16.0459   -2.0665  -13.3064 C   0  0  0  0  0  0  0  0  0  0  0  0
  -15.7085   -1.7335  -11.9953 C   0  0  0  0  0  0  0  0  0  0  0  0
  -15.7419   -2.7025  -10.9905 C   0  0  0  0  0  0  0  0  0  0  0  0
  -16.0814   -4.0261  -11.2903 C   0  0  0  0  0  0  0  0  0  0  0  0
  -16.3701   -4.3961  -12.6060 C   0  0  0  0  0  0  0  0  0  0  0  0
  -16.3584   -3.4049  -13.5959 C   0  0  0  0  0  0  0  0  0  0  0  0
  -16.5959   -5.8319  -12.9869 C   0  0  0  0  0  0  0  0  0  0  0  0
  -15.1557   -6.6124  -13.6892 S   0  0  0  0  0  0  0  0  0  0  0  0
  -13.7696   -5.8422  -12.9004 C   0  0  0  0  0  0  0  0  0  0  0  0
  -15.1677   -7.9935  -13.2339 O   0  0  0  0  0  0  0  0  0  0  0  0
  -15.0885   -6.3253  -15.1102 O   0  0  0  0  0  0  0  0  0  0  0  0
 18 19  1  0  0  0
 19 20  1  0  0  0
 19 24  2  0  0  0
 20 21  2  0  0  0
 21 22  1  0  0  0
 22 14  1  0  0  0
 22 23  2  0  0  0
 14 15  1  0  0  0
 14 17  1  0  0  0
 15 16  2  0  0  0
 15 11  1  0  0  0
 11  7  1  0  0  0
 11 12  1  0  0  0
 11 13  1  0  0  0
  7  8  2  0  0  0
  7  9  1  0  0  0
  9  1  1  0  0  0
  9 10  1  0  0  0
  1  2  1  0  0  0
  1  6  2  0  0  0
  2  3  2  0  0  0
  3  4  1  0  0  0
  4 25  1  0  0  0
  4  5  2  0  0  0
 25 26  1  0  0  0
 26 27  1  0  0  0
 26 31  2  0  0  0
 27 28  2  0  0  0
 28 29  1  0  0  0
 29 30  2  0  0  0
 30 32  1  0  0  0
 30 31  1  0  0  0
 32 34  1  0  0  0
 32 33  1  0  0  0
 34 35  1  0  0  0
 34 39  2  0  0  0
 35 36  2  0  0  0
 36 37  1  0  0  0
 37 38  2  0  0  0
 38 40  1  0  0  0
 38 39  1  0  0  0
 40 41  1  0  0  0
 41 42  1  0  0  0
 41 43  2  0  0  0
 41 44  2  0  0  0
  5  6  1  0  0  0
 12 13  1  0  0  0
 23 24  1  0  0  0
M  END
> <minimizedAffinity>
-10.43156

$$$$
