CHEMBL2018775


 33 35  0  0  0  0  0  0  0  0999 V2000
  -28.5852   -3.5305   -8.0027 C   0  0  0  0  0  0  0  0  0  0  0  0
  -29.1766   -3.1244   -6.7969 C   0  0  0  0  0  0  0  0  0  0  0  0
  -28.9439   -1.8487   -6.2370 C   0  0  0  0  0  0  0  0  0  0  0  0
  -29.4538   -1.3986   -5.0107 C   0  0  0  0  0  0  0  0  0  0  0  0
  -29.1745   -0.1682   -4.5379 N   0  0  0  0  0  0  0  0  0  0  0  0
  -28.3773    0.6012   -5.2780 C   0  0  0  0  0  0  0  0  0  0  0  0
  -27.8239    0.2640   -6.4445 N   0  0  0  0  0  0  0  0  0  0  0  0
  -28.1080   -0.9565   -6.9166 C   0  0  0  0  0  0  0  0  0  0  0  0
  -27.5685   -1.3437   -8.1331 C   0  0  0  0  0  0  0  0  0  0  0  0
  -27.8319   -2.5917   -8.7278 C   0  0  0  0  0  0  0  0  0  0  0  0
  -30.2476   -2.2629   -4.2072 N   0  0  0  0  0  0  0  0  0  0  0  0
  -30.5030   -1.8116   -3.3347 H   0  0  0  0  0  0  0  0  0  0  0  0
  -29.9684   -3.6417   -4.0365 C   0  0  0  0  0  0  0  0  0  0  0  0
  -30.9753   -4.6001   -4.2115 C   0  0  0  0  0  0  0  0  0  0  0  0
  -30.6876   -5.9638   -4.1384 C   0  0  0  0  0  0  0  0  0  0  0  0
  -29.3856   -6.3761   -3.8638 C   0  0  0  0  0  0  0  0  0  0  0  0
  -28.9841   -8.2224   -3.8390 Br  0  0  0  0  0  0  0  0  0  0  0  0
  -28.3771   -5.4432   -3.6282 C   0  0  0  0  0  0  0  0  0  0  0  0
  -28.6832   -4.0819   -3.7096 C   0  0  0  0  0  0  0  0  0  0  0  0
  -27.7066   -3.1854   -3.5011 F   0  0  0  0  0  0  0  0  0  0  0  0
  -28.9194   -4.8257   -8.2817 O   0  0  0  0  0  0  0  0  0  0  0  0
  -28.6458   -5.8481   -7.3365 C   0  0  0  0  0  0  0  0  0  0  0  0
  -29.2981   -7.1828   -7.6582 C   0  0  0  0  0  0  0  0  0  0  0  0
  -31.5241   -8.3533   -7.3036 C   0  0  0  0  0  0  0  0  0  0  0  0
  -30.8007   -7.0297   -7.4118 C   0  0  0  0  0  0  0  0  0  0  0  0
  -27.3126   -2.6550  -10.0024 O   0  0  0  0  0  0  0  0  0  0  0  0
  -26.4058   -1.6206  -10.3711 C   0  0  0  0  0  0  0  0  0  0  0  0
  -26.6321   -0.9867  -11.7426 C   0  0  0  0  0  0  0  0  0  0  0  0
  -25.4482   -1.2037  -12.6160 N   0  0  0  0  0  0  0  0  0  0  0  0
  -24.3656   -1.9895  -11.9870 C   0  0  0  0  0  0  0  0  0  0  0  0
  -23.0004   -1.3138  -11.9344 C   0  0  0  0  0  0  0  0  0  0  0  0
  -25.8634   -1.7220  -13.9282 C   0  0  0  0  0  0  0  0  0  0  0  0
  -25.0996   -1.1068  -15.0976 C   0  0  0  0  0  0  0  0  0  0  0  0
 24 25  1  0  0  0
 25 23  1  0  0  0
 23 22  1  0  0  0
 22 21  1  0  0  0
 21  1  1  0  0  0
  1  2  1  0  0  0
  1 10  2  0  0  0
  2  3  2  0  0  0
  3  4  1  0  0  0
  3  8  1  0  0  0
  4 11  1  0  0  0
  4  5  2  0  0  0
 11 13  1  0  0  0
 11 12  1  0  0  0
 13 14  1  0  0  0
 13 19  2  0  0  0
 14 15  2  0  0  0
 15 16  1  0  0  0
 16 17  1  0  0  0
 16 18  2  0  0  0
 18 19  1  0  0  0
 19 20  1  0  0  0
  5  6  1  0  0  0
  6  7  2  0  0  0
  7  8  1  0  0  0
  8  9  2  0  0  0
  9 10  1  0  0  0
 10 26  1  0  0  0
 26 27  1  0  0  0
 27 28  1  0  0  0
 28 29  1  0  0  0
 29 30  1  0  0  0
 29 32  1  0  0  0
 30 31  1  0  0  0
 32 33  1  0  0  0
M  END
> <minimizedAffinity>
-7.88993

$$$$
