CHEMBL1254199


 29 32  0  0  0  0  0  0  0  0999 V2000
  -29.7271   -4.7320   -5.2408 C   0  0  0  0  0  0  0  0  0  0  0  0
  -30.6930   -4.4220   -4.3209 N   0  0  0  0  0  0  0  0  0  0  0  0
  -31.1864   -5.3550   -3.4935 C   0  0  0  0  0  0  0  0  0  0  0  0
  -32.1903   -4.9444   -2.6337 N   0  0  0  0  0  0  0  0  0  0  0  0
  -30.8594   -6.6490   -3.4689 N   0  0  0  0  0  0  0  0  0  0  0  0
  -29.8962   -6.9439   -4.3501 C   0  0  0  0  0  0  0  0  0  0  0  0
  -29.3886   -8.2028   -4.5487 N   0  0  0  0  0  0  0  0  0  0  0  0
  -28.4536   -8.1710   -5.5554 C   0  0  0  0  0  0  0  0  0  0  0  0
  -28.2884   -6.8467   -5.9022 C   0  0  0  0  0  0  0  0  0  0  0  0
  -29.2696   -6.0712   -5.2256 C   0  0  0  0  0  0  0  0  0  0  0  0
  -32.6307   -4.1211   -3.0227 H   0  0  0  0  0  0  0  0  0  0  0  0
  -32.7891   -5.7284   -2.4182 H   0  0  0  0  0  0  0  0  0  0  0  0
  -29.7114   -9.0185   -4.0493 H   0  0  0  0  0  0  0  0  0  0  0  0
  -29.6157   -4.0123   -7.5669 C   0  0  0  0  0  0  0  0  0  0  0  0
  -29.3094   -3.7346   -6.1641 N   0  0  0  0  0  0  0  0  0  0  0  0
  -28.8696   -2.4337   -5.8250 C   0  0  0  0  0  0  0  0  0  0  0  0
  -27.5770   -2.1687   -5.3415 C   0  0  0  0  0  0  0  0  0  0  0  0
  -27.1752   -0.8822   -4.9775 C   0  0  0  0  0  0  0  0  0  0  0  0
  -28.0577    0.1856   -5.1069 C   0  0  0  0  0  0  0  0  0  0  0  0
  -29.3345   -0.0463   -5.6053 C   0  0  0  0  0  0  0  0  0  0  0  0
  -30.5395    1.3996   -5.7921 Br  0  0  0  0  0  0  0  0  0  0  0  0
  -29.7394   -1.3365   -5.9557 C   0  0  0  0  0  0  0  0  0  0  0  0
  -27.8032   -9.3793   -6.1387 C   0  0  0  0  0  0  0  0  0  0  0  0
  -28.2106   -9.6023   -7.5790 C   0  0  0  0  0  0  0  0  0  0  0  0
  -27.2492   -9.7018   -8.5986 C   0  0  0  0  0  0  0  0  0  0  0  0
  -27.6384   -9.9023   -9.9244 C   0  0  0  0  0  0  0  0  0  0  0  0
  -28.9898   -9.9996  -10.2494 C   0  0  0  0  0  0  0  0  0  0  0  0
  -29.9529   -9.8851   -9.2487 C   0  0  0  0  0  0  0  0  0  0  0  0
  -29.5678   -9.6827   -7.9231 C   0  0  0  0  0  0  0  0  0  0  0  0
 14 15  1  0  0  0
 15 16  1  0  0  0
 15  1  1  0  0  0
 16 17  1  0  0  0
 16 22  2  0  0  0
 17 18  2  0  0  0
 18 19  1  0  0  0
 19 20  2  0  0  0
 20 21  1  0  0  0
 20 22  1  0  0  0
  1  2  1  0  0  0
  1 10  2  0  0  0
  2  3  2  0  0  0
  3  4  1  0  0  0
  3  5  1  0  0  0
  4 11  1  0  0  0
  4 12  1  0  0  0
  5  6  2  0  0  0
  6  7  1  0  0  0
  6 10  1  0  0  0
  7  8  1  0  0  0
  7 13  1  0  0  0
  8 23  1  0  0  0
  8  9  2  0  0  0
 23 24  1  0  0  0
 24 25  1  0  0  0
 24 29  2  0  0  0
 25 26  2  0  0  0
 26 27  1  0  0  0
 27 28  2  0  0  0
 28 29  1  0  0  0
  9 10  1  0  0  0
M  END
> <minimizedAffinity>
-8.44844

$$$$
