CHEMBL3892248


 37 40  0  0  0  0  0  0  0  0999 V2000
  -30.6133   -7.2540   -5.7519 C   0  0  0  0  0  0  0  0  0  0  0  0
  -31.5326   -7.5699   -6.7578 C   0  0  0  0  0  0  0  0  0  0  0  0
  -31.5219   -8.8281   -7.3606 C   0  0  0  0  0  0  0  0  0  0  0  0
  -30.5472   -9.7669   -7.0143 C   0  0  0  0  0  0  0  0  0  0  0  0
  -29.6131   -9.4451   -6.0219 C   0  0  0  0  0  0  0  0  0  0  0  0
  -29.6281   -8.1808   -5.4061 C   0  0  0  0  0  0  0  0  0  0  0  0
  -30.0635   -3.8687   -4.5952 N   0  0  0  0  0  0  0  0  0  0  0  0
  -29.9919   -4.9502   -5.4460 C   0  0  0  0  0  0  0  0  0  0  0  0
  -29.3737   -4.9666   -6.5050 O   0  0  0  0  0  0  0  0  0  0  0  0
  -30.7591   -6.0390   -5.0277 N   0  0  0  0  0  0  0  0  0  0  0  0
  -30.7977   -3.8723   -3.9044 H   0  0  0  0  0  0  0  0  0  0  0  0
  -31.7031   -5.7890   -4.7718 H   0  0  0  0  0  0  0  0  0  0  0  0
  -29.4199   -0.2704   -5.3747 C   0  0  0  0  0  0  0  0  0  0  0  0
  -28.0187   -0.2197   -5.3379 C   0  0  0  0  0  0  0  0  0  0  0  0
  -27.2894   -1.3513   -5.0014 C   0  0  0  0  0  0  0  0  0  0  0  0
  -27.9478   -2.5432   -4.7155 C   0  0  0  0  0  0  0  0  0  0  0  0
  -27.1825   -3.5474   -4.2697 F   0  0  0  0  0  0  0  0  0  0  0  0
  -29.3471   -2.6518   -4.7962 C   0  0  0  0  0  0  0  0  0  0  0  0
  -30.0782   -1.4884   -5.0916 C   0  0  0  0  0  0  0  0  0  0  0  0
  -29.4462    1.7815   -6.8106 C   0  0  0  0  0  0  0  0  0  0  0  0
  -30.1874    0.9801   -5.7514 C   0  0  0  0  0  0  0  0  0  0  0  0
  -30.3858    1.8023   -4.6781 F   0  0  0  0  0  0  0  0  0  0  0  0
  -31.4347    0.7016   -6.2279 F   0  0  0  0  0  0  0  0  0  0  0  0
  -30.4855  -11.0380   -7.5615 O   0  0  0  0  0  0  0  0  0  0  0  0
  -29.4302  -11.3538   -8.3993 C   0  0  0  0  0  0  0  0  0  0  0  0
  -28.4385  -12.2603   -8.0415 C   0  0  0  0  0  0  0  0  0  0  0  0
  -27.3895  -12.4432   -8.9111 C   0  0  0  0  0  0  0  0  0  0  0  0
  -27.3200  -11.8551  -10.1159 N   0  0  0  0  0  0  0  0  0  0  0  0
  -28.3162  -11.0437  -10.5074 C   0  0  0  0  0  0  0  0  0  0  0  0
  -29.3957  -10.7620   -9.6689 C   0  0  0  0  0  0  0  0  0  0  0  0
  -28.2588  -10.4631  -11.7893 N   0  0  0  0  0  0  0  0  0  0  0  0
  -27.3385   -9.4935  -12.1504 C   0  0  0  0  0  0  0  0  0  0  0  0
  -26.4471   -9.0217  -11.4523 O   0  0  0  0  0  0  0  0  0  0  0  0
  -28.9460  -10.7506  -12.4646 H   0  0  0  0  0  0  0  0  0  0  0  0
  -27.4356   -8.9436  -13.5325 C   0  0  0  0  0  0  0  0  0  0  0  0
  -27.9458   -9.8407  -14.6388 C   0  0  0  0  0  0  0  0  0  0  0  0
  -26.5626   -9.2629  -14.7166 C   0  0  0  0  0  0  0  0  0  0  0  0
 20 21  1  0  0  0
 21 22  1  0  0  0
 21 23  1  0  0  0
 21 13  1  0  0  0
 13 14  1  0  0  0
 13 19  2  0  0  0
 14 15  2  0  0  0
 15 16  1  0  0  0
 16 17  1  0  0  0
 16 18  2  0  0  0
 18  7  1  0  0  0
 18 19  1  0  0  0
  7  8  1  0  0  0
  7 11  1  0  0  0
  8  9  2  0  0  0
  8 10  1  0  0  0
 10  1  1  0  0  0
 10 12  1  0  0  0
  1  2  1  0  0  0
  1  6  2  0  0  0
  2  3  2  0  0  0
  3  4  1  0  0  0
  4 24  1  0  0  0
  4  5  2  0  0  0
 24 25  1  0  0  0
 25 26  1  0  0  0
 25 30  2  0  0  0
 26 27  2  0  0  0
 27 28  1  0  0  0
 28 29  2  0  0  0
 29 31  1  0  0  0
 29 30  1  0  0  0
 31 32  1  0  0  0
 31 34  1  0  0  0
 32 33  2  0  0  0
 32 35  1  0  0  0
 35 36  1  0  0  0
 35 37  1  0  0  0
 36 37  1  0  0  0
  5  6  1  0  0  0
M  END
> <minimizedAffinity>
-8.69811

$$$$
