CHEMBL4570139


 33 36  0  0  0  0  0  0  0  0999 V2000
  -27.1377   -2.6386  -10.6428 N   0  0  0  0  0  0  0  0  0  0  0  0
  -27.7157   -3.2926  -11.1766 H   0  0  0  0  0  0  0  0  0  0  0  0
  -27.5627   -2.3412   -9.3306 C   0  0  0  0  0  0  0  0  0  0  0  0
  -27.6719   -0.9859   -8.9473 C   0  0  0  0  0  0  0  0  0  0  0  0
  -27.9608   -0.5323   -7.6356 C   0  0  0  0  0  0  0  0  0  0  0  0
  -28.1733   -1.4570   -6.6636 C   0  0  0  0  0  0  0  0  0  0  0  0
  -28.2392   -2.6895   -7.1437 C   0  0  0  0  0  0  0  0  0  0  0  0
  -28.7339   -3.6320   -6.4155 N   0  0  0  0  0  0  0  0  0  0  0  0
  -29.2243   -4.5097   -5.6982 C   0  0  0  0  0  0  0  0  0  0  0  0
  -28.6707   -5.2692   -6.6727 N   0  0  0  0  0  0  0  0  0  0  0  0
  -28.0166   -4.7057   -8.0530 C   0  0  0  0  0  0  0  0  0  0  0  0
  -27.2577   -5.2808   -9.0882 O   0  0  0  0  0  0  0  0  0  0  0  0
  -27.9255   -3.2916   -8.3100 C   0  0  0  0  0  0  0  0  0  0  0  0
  -26.8554   -6.0038   -9.5828 H   0  0  0  0  0  0  0  0  0  0  0  0
  -28.3371   -1.2025   -5.2317 N   0  0  0  0  0  0  0  0  0  0  0  0
  -29.4552   -0.9241   -4.7712 O   0  0  0  0  0  0  0  0  0  0  0  0
  -27.3089   -1.2886   -4.5451 O   0  0  0  0  0  0  0  0  0  0  0  0
  -23.9448   -0.9362  -12.9252 C   0  0  0  0  0  0  0  0  0  0  0  0
  -23.8356   -1.1610  -11.5630 C   0  0  0  0  0  0  0  0  0  0  0  0
  -24.9065   -1.6513  -10.8144 C   0  0  0  0  0  0  0  0  0  0  0  0
  -26.1352   -1.9615  -11.3878 C   0  0  0  0  0  0  0  0  0  0  0  0
  -26.2776   -1.6460  -12.7488 C   0  0  0  0  0  0  0  0  0  0  0  0
  -25.1711   -1.2213  -13.5305 C   0  0  0  0  0  0  0  0  0  0  0  0
  -23.4380    1.8556  -13.2553 O   0  0  0  0  0  0  0  0  0  0  0  0
  -22.6837    1.0137  -13.7389 C   0  0  0  0  0  0  0  0  0  0  0  0
  -22.8494   -0.3719  -13.6271 N   0  0  0  0  0  0  0  0  0  0  0  0
  -22.1543   -1.0051  -14.0019 H   0  0  0  0  0  0  0  0  0  0  0  0
  -21.4453    1.5171  -14.3858 C   0  0  0  0  0  0  0  0  0  0  0  0
  -21.2941    2.8999  -14.5712 C   0  0  0  0  0  0  0  0  0  0  0  0
  -20.1131    3.4254  -15.1059 C   0  0  0  0  0  0  0  0  0  0  0  0
  -19.0754    2.5754  -15.4650 C   0  0  0  0  0  0  0  0  0  0  0  0
  -19.2113    1.2069  -15.2485 C   0  0  0  0  0  0  0  0  0  0  0  0
  -20.4249    0.6685  -14.8039 C   0  0  0  0  0  0  0  0  0  0  0  0
 24 25  2  0  0  0
 25 26  1  0  0  0
 25 28  1  0  0  0
 26 18  1  0  0  0
 26 27  1  0  0  0
 18 19  1  0  0  0
 18 23  2  0  0  0
 19 20  2  0  0  0
 20 21  1  0  0  0
 21  1  1  0  0  0
 21 22  2  0  0  0
  1  3  1  0  0  0
  1  2  1  0  0  0
  3  4  1  0  0  0
  3 13  2  0  0  0
  4  5  2  0  0  0
  5  6  1  0  0  0
  6 15  1  0  0  0
  6  7  2  0  0  0
 15 16  2  0  0  0
 15 17  1  0  0  0
  7  8  1  0  0  0
  7 13  1  0  0  0
  8  9  2  0  0  0
  9 10  1  0  0  0
 10 11  2  0  0  0
 11 12  1  0  0  0
 11 13  1  0  0  0
 12 14  1  0  0  0
 22 23  1  0  0  0
 28 29  1  0  0  0
 28 33  2  0  0  0
 29 30  2  0  0  0
 30 31  1  0  0  0
 31 32  2  0  0  0
 32 33  1  0  0  0
M  CHG 1  15   1
M  CHG 1  17  -1
M  END
> <minimizedAffinity>
-11.17666

$$$$
