CHEMBL3656093


 42 45  0  0  0  0  0  0  0  0999 V2000
  -28.2729   -3.3856   -7.3841 C   0  0  0  0  0  0  0  0  0  0  0  0
  -28.1632   -3.2034   -8.7542 C   0  0  0  0  0  0  0  0  0  0  0  0
  -28.0076   -1.9110   -9.2468 C   0  0  0  0  0  0  0  0  0  0  0  0
  -27.8194   -0.8643   -8.3539 C   0  0  0  0  0  0  0  0  0  0  0  0
  -27.8765   -1.1499   -6.9975 C   0  0  0  0  0  0  0  0  0  0  0  0
  -28.1228   -2.3811   -6.4897 N   0  0  0  0  0  0  0  0  0  0  0  0
  -29.3834   -6.8219   -6.4588 C   0  0  0  0  0  0  0  0  0  0  0  0
  -29.3409   -6.1421   -5.2490 C   0  0  0  0  0  0  0  0  0  0  0  0
  -28.9081   -4.8599   -5.4851 N   0  0  0  0  0  0  0  0  0  0  0  0
  -28.6682   -4.6742   -6.8252 C   0  0  0  0  0  0  0  0  0  0  0  0
  -28.9462   -5.8839   -7.4384 C   0  0  0  0  0  0  0  0  0  0  0  0
  -28.8062   -4.1211   -4.7970 H   0  0  0  0  0  0  0  0  0  0  0  0
  -30.2251   -8.4420   -8.0105 N   0  0  0  0  0  0  0  0  0  0  0  0
  -29.7928   -8.1960   -6.7342 C   0  0  0  0  0  0  0  0  0  0  0  0
  -29.7445   -9.0759   -5.8792 O   0  0  0  0  0  0  0  0  0  0  0  0
  -30.2263   -7.7055   -8.7056 H   0  0  0  0  0  0  0  0  0  0  0  0
  -30.6263   -9.7725   -8.4244 C   0  0  0  0  0  0  0  0  0  0  0  0
  -32.0951   -9.9920   -8.1107 C   0  0  0  0  0  0  0  0  0  0  0  0
  -32.9217   -9.0928   -8.0008 O   0  0  0  0  0  0  0  0  0  0  0  0
  -31.7514  -11.9188   -6.8307 C   0  0  0  0  0  0  0  0  0  0  0  0
  -32.3554  -11.3221   -7.9788 O   0  0  0  0  0  0  0  0  0  0  0  0
  -28.0203   -1.6101  -10.5954 O   0  0  0  0  0  0  0  0  0  0  0  0
  -26.8158   -1.5434  -11.2718 C   0  0  0  0  0  0  0  0  0  0  0  0
  -25.5762   -1.4582  -10.6329 C   0  0  0  0  0  0  0  0  0  0  0  0
  -24.4040   -1.3093  -11.3756 C   0  0  0  0  0  0  0  0  0  0  0  0
  -24.4314   -1.3364  -12.7710 C   0  0  0  0  0  0  0  0  0  0  0  0
  -25.6737   -1.4751  -13.4014 C   0  0  0  0  0  0  0  0  0  0  0  0
  -25.7368   -1.5125  -14.7423 F   0  0  0  0  0  0  0  0  0  0  0  0
  -26.8596   -1.5862  -12.6660 C   0  0  0  0  0  0  0  0  0  0  0  0
  -23.2515   -1.2059  -13.5480 N   0  0  0  0  0  0  0  0  0  0  0  0
  -22.4825   -0.0545  -13.5974 C   0  0  0  0  0  0  0  0  0  0  0  0
  -22.6290    0.9054  -12.8435 O   0  0  0  0  0  0  0  0  0  0  0  0
  -21.5553   -0.0854  -14.6254 N   0  0  0  0  0  0  0  0  0  0  0  0
  -22.8040   -2.0658  -13.8414 H   0  0  0  0  0  0  0  0  0  0  0  0
  -21.8720   -0.5844  -15.4446 H   0  0  0  0  0  0  0  0  0  0  0  0
  -20.6943    1.0163  -14.8567 C   0  0  0  0  0  0  0  0  0  0  0  0
  -21.2250    2.3062  -14.8122 C   0  0  0  0  0  0  0  0  0  0  0  0
  -20.3860    3.4120  -14.9699 C   0  0  0  0  0  0  0  0  0  0  0  0
  -19.0263    3.2341  -15.2302 C   0  0  0  0  0  0  0  0  0  0  0  0
  -18.4879    1.9471  -15.3238 C   0  0  0  0  0  0  0  0  0  0  0  0
  -17.0389    1.7417  -15.6560 C   0  0  0  0  0  0  0  0  0  0  0  0
  -19.3284    0.8421  -15.1182 C   0  0  0  0  0  0  0  0  0  0  0  0
 20 21  1  0  0  0
 21 18  1  0  0  0
 18 19  2  0  0  0
 18 17  1  0  0  0
 17 13  1  0  0  0
 13 14  1  0  0  0
 13 16  1  0  0  0
 14 15  2  0  0  0
 14  7  1  0  0  0
  7  8  2  0  0  0
  7 11  1  0  0  0
  8  9  1  0  0  0
  9 10  1  0  0  0
  9 12  1  0  0  0
 10  1  1  0  0  0
 10 11  2  0  0  0
  1  2  1  0  0  0
  1  6  2  0  0  0
  2  3  2  0  0  0
  3 22  1  0  0  0
  3  4  1  0  0  0
 22 23  1  0  0  0
 23 24  1  0  0  0
 23 29  2  0  0  0
 24 25  2  0  0  0
 25 26  1  0  0  0
 26 30  1  0  0  0
 26 27  2  0  0  0
 30 31  1  0  0  0
 30 34  1  0  0  0
 31 32  2  0  0  0
 31 33  1  0  0  0
 33 36  1  0  0  0
 33 35  1  0  0  0
 36 37  1  0  0  0
 36 42  2  0  0  0
 37 38  2  0  0  0
 38 39  1  0  0  0
 39 40  2  0  0  0
 40 41  1  0  0  0
 40 42  1  0  0  0
 27 28  1  0  0  0
 27 29  1  0  0  0
  4  5  2  0  0  0
  5  6  1  0  0  0
M  END
> <minimizedAffinity>
-10.99415

$$$$
