CHEMBL3955563


 38 42  0  0  0  0  0  0  0  0999 V2000
  -28.7729  -10.0857   -5.3683 N   0  0  0  0  0  0  0  0  0  0  0  0
  -28.6991   -8.6313   -5.1181 C   0  0  0  0  0  0  0  0  0  0  0  0
  -29.0402   -8.2714   -3.8090 C   0  0  0  0  0  0  0  0  0  0  0  0
  -29.4391   -7.0267   -3.4692 C   0  0  0  0  0  0  0  0  0  0  0  0
  -29.4018   -6.0253   -4.3620 C   0  0  0  0  0  0  0  0  0  0  0  0
  -29.9987   -4.8941   -3.9718 N   0  0  0  0  0  0  0  0  0  0  0  0
  -29.9027   -3.7749   -4.6514 C   0  0  0  0  0  0  0  0  0  0  0  0
  -28.9900   -3.6961   -5.6967 C   0  0  0  0  0  0  0  0  0  0  0  0
  -28.5143   -4.9027   -6.2623 N   0  0  0  0  0  0  0  0  0  0  0  0
  -28.7744   -6.1291   -5.6190 C   0  0  0  0  0  0  0  0  0  0  0  0
  -28.4531   -7.5108   -6.0582 C   0  0  0  0  0  0  0  0  0  0  0  0
  -28.3639   -2.3004   -5.7486 C   0  0  0  0  0  0  0  0  0  0  0  0
  -27.3324   -1.6948   -5.0395 C   0  0  0  0  0  0  0  0  0  0  0  0
  -27.3891   -0.3471   -5.2253 N   0  0  0  0  0  0  0  0  0  0  0  0
  -28.3957   -0.0705   -6.0412 N   0  0  0  0  0  0  0  0  0  0  0  0
  -28.9728   -1.2131   -6.4144 C   0  0  0  0  0  0  0  0  0  0  0  0
  -28.9033    1.2784   -6.3763 C   0  0  0  0  0  0  0  0  0  0  0  0
  -30.4379    1.3973   -6.1733 C   0  0  0  0  0  0  0  0  0  0  0  0
  -31.0233    2.1820   -7.1766 O   0  0  0  0  0  0  0  0  0  0  0  0
  -31.1379    3.0951   -6.7986 H   0  0  0  0  0  0  0  0  0  0  0  0
  -31.5677  -11.5847   -7.4615 C   0  0  0  0  0  0  0  0  0  0  0  0
  -30.9458  -11.6348   -8.7099 C   0  0  0  0  0  0  0  0  0  0  0  0
  -29.6161  -11.2697   -8.8683 C   0  0  0  0  0  0  0  0  0  0  0  0
  -28.8895  -10.8474   -7.7412 C   0  0  0  0  0  0  0  0  0  0  0  0
  -29.4863  -10.7422   -6.4541 C   0  0  0  0  0  0  0  0  0  0  0  0
  -30.8376  -11.1372   -6.3237 C   0  0  0  0  0  0  0  0  0  0  0  0
  -33.7858  -11.6670   -6.4395 C   0  0  0  0  0  0  0  0  0  0  0  0
  -32.8730  -11.9542   -7.4252 O   0  0  0  0  0  0  0  0  0  0  0  0
  -29.0904  -11.3101  -10.1242 O   0  0  0  0  0  0  0  0  0  0  0  0
  -28.9201  -10.2403  -10.9803 C   0  0  0  0  0  0  0  0  0  0  0  0
  -28.1788  -10.9763   -4.2867 C   0  0  0  0  0  0  0  0  0  0  0  0
  -26.8029  -11.6512   -4.5994 C   0  0  0  0  0  0  0  0  0  0  0  0
  -25.8225  -10.8369   -5.5070 C   0  0  0  0  0  0  0  0  0  0  0  0
  -24.9292   -9.9493   -4.6925 N   0  0  0  0  0  0  0  0  0  0  0  0
  -23.5695   -9.7914   -5.2459 C   0  0  0  0  0  0  0  0  0  0  0  0
  -22.7831  -10.9806   -4.7451 C   0  0  0  0  0  0  0  0  0  0  0  0
  -23.2002  -10.9921   -3.2992 C   0  0  0  0  0  0  0  0  0  0  0  0
  -24.6621  -10.5006   -3.3386 C   0  0  0  0  0  0  0  0  0  0  0  0
 27 28  1  0  0  0
 28 21  1  0  0  0
 21 22  1  0  0  0
 21 26  2  0  0  0
 22 23  2  0  0  0
 23 29  1  0  0  0
 23 24  1  0  0  0
 29 30  1  0  0  0
 24 25  2  0  0  0
 25  1  1  0  0  0
 25 26  1  0  0  0
  1 31  1  0  0  0
  1  2  1  0  0  0
 31 32  1  0  0  0
 32 33  1  0  0  0
 33 34  1  0  0  0
 34 35  1  0  0  0
 34 38  1  0  0  0
 35 36  1  0  0  0
 36 37  1  0  0  0
 37 38  1  0  0  0
  2  3  1  0  0  0
  2 11  2  0  0  0
  3  4  2  0  0  0
  4  5  1  0  0  0
  5  6  1  0  0  0
  5 10  2  0  0  0
  6  7  2  0  0  0
  7  8  1  0  0  0
  8 12  1  0  0  0
  8  9  2  0  0  0
 12 13  1  0  0  0
 12 16  2  0  0  0
 13 14  2  0  0  0
 14 15  1  0  0  0
 15 17  1  0  0  0
 15 16  1  0  0  0
 17 18  1  0  0  0
 18 19  1  0  0  0
 19 20  1  0  0  0
  9 10  1  0  0  0
 10 11  1  0  0  0
M  END
> <minimizedAffinity>
-7.66158

$$$$
