CHEMBL3671478


 39 42  0  0  0  0  0  0  0  0999 V2000
  -28.1934   -8.8866   -7.4928 C   0  0  0  0  0  0  0  0  0  0  0  0
  -28.7495   -7.6708   -7.1018 C   0  0  0  0  0  0  0  0  0  0  0  0
  -29.0531   -7.3999   -5.7634 C   0  0  0  0  0  0  0  0  0  0  0  0
  -29.7336   -6.2503   -5.3549 C   0  0  0  0  0  0  0  0  0  0  0  0
  -30.0451   -6.0401   -4.0638 N   0  0  0  0  0  0  0  0  0  0  0  0
  -29.6900   -6.9910   -3.1977 C   0  0  0  0  0  0  0  0  0  0  0  0
  -29.0552   -8.1341   -3.4906 N   0  0  0  0  0  0  0  0  0  0  0  0
  -28.7497   -8.3380   -4.7743 C   0  0  0  0  0  0  0  0  0  0  0  0
  -28.1453   -9.5323   -5.1703 C   0  0  0  0  0  0  0  0  0  0  0  0
  -27.8459   -9.8320   -6.5134 C   0  0  0  0  0  0  0  0  0  0  0  0
  -29.0303   -9.8392   -9.5475 C   0  0  0  0  0  0  0  0  0  0  0  0
  -30.0372  -10.3280   -9.0513 O   0  0  0  0  0  0  0  0  0  0  0  0
  -28.0913   -9.0594   -8.8909 N   0  0  0  0  0  0  0  0  0  0  0  0
  -27.2009   -8.9437   -9.3394 H   0  0  0  0  0  0  0  0  0  0  0  0
  -27.3575   -9.9941  -11.3129 C   0  0  0  0  0  0  0  0  0  0  0  0
  -28.6359  -10.1368  -10.9494 C   0  0  0  0  0  0  0  0  0  0  0  0
  -30.1835   -5.3235   -6.3305 N   0  0  0  0  0  0  0  0  0  0  0  0
  -30.3023   -5.7492   -7.2434 H   0  0  0  0  0  0  0  0  0  0  0  0
  -29.7729   -3.9784   -6.3914 C   0  0  0  0  0  0  0  0  0  0  0  0
  -30.3309   -3.0252   -5.5287 C   0  0  0  0  0  0  0  0  0  0  0  0
  -29.8079   -1.7379   -5.4575 C   0  0  0  0  0  0  0  0  0  0  0  0
  -28.7382   -1.3870   -6.2764 C   0  0  0  0  0  0  0  0  0  0  0  0
  -27.9399    0.3140   -6.0807 Br  0  0  0  0  0  0  0  0  0  0  0  0
  -28.2306   -2.2895   -7.2098 C   0  0  0  0  0  0  0  0  0  0  0  0
  -28.7605   -3.5734   -7.2652 C   0  0  0  0  0  0  0  0  0  0  0  0
  -28.2524   -4.4544   -8.1440 F   0  0  0  0  0  0  0  0  0  0  0  0
  -27.3182  -11.0968   -6.6554 O   0  0  0  0  0  0  0  0  0  0  0  0
  -25.9232  -11.1909   -6.8775 C   0  0  0  0  0  0  0  0  0  0  0  0
  -25.2539  -12.3169   -6.0798 C   0  0  0  0  0  0  0  0  0  0  0  0
  -25.6156  -12.1509   -4.5861 C   0  0  0  0  0  0  0  0  0  0  0  0
  -24.8891  -10.9602   -3.9555 C   0  0  0  0  0  0  0  0  0  0  0  0
  -23.4529  -11.1188   -4.1463 N   0  0  0  0  0  0  0  0  0  0  0  0
  -22.5193  -11.2556   -3.1499 C   0  0  0  0  0  0  0  0  0  0  0  0
  -22.9877  -11.2472   -1.8772 N   0  0  0  0  0  0  0  0  0  0  0  0
  -21.3127  -11.3771   -3.3332 O   0  0  0  0  0  0  0  0  0  0  0  0
  -23.0197  -11.1977   -5.5420 C   0  0  0  0  0  0  0  0  0  0  0  0
  -23.7247  -12.3556   -6.2536 C   0  0  0  0  0  0  0  0  0  0  0  0
  -23.8453  -11.7390   -1.6925 H   0  0  0  0  0  0  0  0  0  0  0  0
  -22.2545  -11.4474   -1.2058 H   0  0  0  0  0  0  0  0  0  0  0  0
 15 16  2  0  0  0
 16 11  1  0  0  0
 11 12  2  0  0  0
 11 13  1  0  0  0
 13  1  1  0  0  0
 13 14  1  0  0  0
  1  2  1  0  0  0
  1 10  2  0  0  0
  2  3  2  0  0  0
  3  4  1  0  0  0
  3  8  1  0  0  0
  4 17  1  0  0  0
  4  5  2  0  0  0
 17 19  1  0  0  0
 17 18  1  0  0  0
 19 20  1  0  0  0
 19 25  2  0  0  0
 20 21  2  0  0  0
 21 22  1  0  0  0
 22 23  1  0  0  0
 22 24  2  0  0  0
 24 25  1  0  0  0
 25 26  1  0  0  0
  5  6  1  0  0  0
  6  7  2  0  0  0
  7  8  1  0  0  0
  8  9  2  0  0  0
  9 10  1  0  0  0
 10 27  1  0  0  0
 27 28  1  0  0  0
 28 29  1  0  0  0
 29 30  1  0  0  0
 29 37  1  0  0  0
 30 31  1  0  0  0
 31 32  1  0  0  0
 32 33  1  0  0  0
 32 36  1  0  0  0
 33 34  1  0  0  0
 33 35  2  0  0  0
 34 38  1  0  0  0
 34 39  1  0  0  0
 36 37  1  0  0  0
M  END
> <minimizedAffinity>
-8.70883

$$$$
