CHEMBL3945353


 34 38  0  0  0  0  0  0  0  0999 V2000
  -29.1615   -6.9885   -4.5981 C   0  0  0  0  0  0  0  0  0  0  0  0
  -28.6524   -8.2218   -4.1815 C   0  0  0  0  0  0  0  0  0  0  0  0
  -28.8679   -9.3947   -4.9318 C   0  0  0  0  0  0  0  0  0  0  0  0
  -28.3331  -10.6577   -4.6124 C   0  0  0  0  0  0  0  0  0  0  0  0
  -28.5494  -11.7282   -5.3986 N   0  0  0  0  0  0  0  0  0  0  0  0
  -29.2845  -11.5426   -6.4965 C   0  0  0  0  0  0  0  0  0  0  0  0
  -29.8470  -10.3933   -6.8800 N   0  0  0  0  0  0  0  0  0  0  0  0
  -29.6349   -9.3332   -6.1034 C   0  0  0  0  0  0  0  0  0  0  0  0
  -30.2016   -8.1146   -6.4607 C   0  0  0  0  0  0  0  0  0  0  0  0
  -30.0102   -6.9463   -5.7135 C   0  0  0  0  0  0  0  0  0  0  0  0
  -27.5461   -5.2986   -4.1515 C   0  0  0  0  0  0  0  0  0  0  0  0
  -28.8548   -5.8291   -3.9403 O   0  0  0  0  0  0  0  0  0  0  0  0
  -27.5168  -10.7987   -3.4536 N   0  0  0  0  0  0  0  0  0  0  0  0
  -27.9818  -11.4160   -2.7958 H   0  0  0  0  0  0  0  0  0  0  0  0
  -26.1123  -10.9580   -3.4137 C   0  0  0  0  0  0  0  0  0  0  0  0
  -25.4745  -11.7101   -2.4200 C   0  0  0  0  0  0  0  0  0  0  0  0
  -24.0826  -11.8228   -2.3735 C   0  0  0  0  0  0  0  0  0  0  0  0
  -23.3030  -11.2262   -3.3626 C   0  0  0  0  0  0  0  0  0  0  0  0
  -21.5874  -11.3498   -3.2161 Cl  0  0  0  0  0  0  0  0  0  0  0  0
  -23.9264  -10.5560   -4.4184 C   0  0  0  0  0  0  0  0  0  0  0  0
  -23.0304   -9.8414   -5.7132 Cl  0  0  0  0  0  0  0  0  0  0  0  0
  -25.3235  -10.4383   -4.4493 C   0  0  0  0  0  0  0  0  0  0  0  0
  -30.6898   -5.8568   -6.2084 O   0  0  0  0  0  0  0  0  0  0  0  0
  -30.0831   -5.2163   -7.3354 C   0  0  0  0  0  0  0  0  0  0  0  0
  -29.4460   -3.9081   -6.9468 C   0  0  0  0  0  0  0  0  0  0  0  0
  -29.8630   -3.2144   -5.9000 N   0  0  0  0  0  0  0  0  0  0  0  0
  -29.2621   -1.9796   -5.8964 C   0  0  0  0  0  0  0  0  0  0  0  0
  -28.3684   -1.7442   -6.9178 C   0  0  0  0  0  0  0  0  0  0  0  0
  -28.2756   -3.1061   -7.9367 S   0  0  0  0  0  0  0  0  0  0  0  0
  -27.6635   -0.4476   -7.1332 C   0  0  0  0  0  0  0  0  0  0  0  0
  -27.7267    0.3970   -5.9185 N   0  0  0  0  0  0  0  0  0  0  0  0
  -29.0887    0.4379   -5.3489 C   0  0  0  0  0  0  0  0  0  0  0  0
  -29.5806   -0.9470   -4.8746 C   0  0  0  0  0  0  0  0  0  0  0  0
  -27.4296    1.3409   -6.1598 H   0  0  0  0  0  0  0  0  0  0  0  0
 11 12  1  0  0  0
 12  1  1  0  0  0
  1  2  1  0  0  0
  1 10  2  0  0  0
  2  3  2  0  0  0
  3  4  1  0  0  0
  3  8  1  0  0  0
  4 13  1  0  0  0
  4  5  2  0  0  0
 13 15  1  0  0  0
 13 14  1  0  0  0
 15 16  1  0  0  0
 15 22  2  0  0  0
 16 17  2  0  0  0
 17 18  1  0  0  0
 18 19  1  0  0  0
 18 20  2  0  0  0
 20 21  1  0  0  0
 20 22  1  0  0  0
  5  6  1  0  0  0
  6  7  2  0  0  0
  7  8  1  0  0  0
  8  9  2  0  0  0
  9 10  1  0  0  0
 10 23  1  0  0  0
 23 24  1  0  0  0
 24 25  1  0  0  0
 25 26  2  0  0  0
 25 29  1  0  0  0
 26 27  1  0  0  0
 27 28  2  0  0  0
 27 33  1  0  0  0
 28 29  1  0  0  0
 28 30  1  0  0  0
 30 31  1  0  0  0
 31 32  1  0  0  0
 31 34  1  0  0  0
 32 33  1  0  0  0
M  END
> <minimizedAffinity>
-7.99968

$$$$
