CHEMBL3985116


 39 44  0  0  0  0  0  0  0  0999 V2000
  -29.2068   -4.9566   -6.8116 C   0  0  0  0  0  0  0  0  0  0  0  0
  -28.6955   -6.2397   -6.6337 C   0  0  0  0  0  0  0  0  0  0  0  0
  -28.7994   -6.9461   -5.4129 C   0  0  0  0  0  0  0  0  0  0  0  0
  -28.2837   -8.2458   -5.1695 C   0  0  0  0  0  0  0  0  0  0  0  0
  -28.4809   -8.8526   -3.9866 N   0  0  0  0  0  0  0  0  0  0  0  0
  -29.1568   -8.1741   -3.0576 C   0  0  0  0  0  0  0  0  0  0  0  0
  -29.6570   -6.9394   -3.1793 N   0  0  0  0  0  0  0  0  0  0  0  0
  -29.4778   -6.3378   -4.3560 C   0  0  0  0  0  0  0  0  0  0  0  0
  -29.9951   -5.0569   -4.5315 C   0  0  0  0  0  0  0  0  0  0  0  0
  -29.8447   -4.3489   -5.7319 C   0  0  0  0  0  0  0  0  0  0  0  0
  -27.8758   -3.5337   -8.1931 C   0  0  0  0  0  0  0  0  0  0  0  0
  -29.0962   -4.2353   -7.9724 O   0  0  0  0  0  0  0  0  0  0  0  0
  -27.6089   -8.9252   -6.2175 N   0  0  0  0  0  0  0  0  0  0  0  0
  -27.6275   -8.3795   -7.0737 H   0  0  0  0  0  0  0  0  0  0  0  0
  -26.4683   -9.7815   -6.2523 C   0  0  0  0  0  0  0  0  0  0  0  0
  -25.7447  -10.0552   -5.0798 C   0  0  0  0  0  0  0  0  0  0  0  0
  -24.6188  -10.8723   -5.0834 C   0  0  0  0  0  0  0  0  0  0  0  0
  -24.1990  -11.4691   -6.2632 C   0  0  0  0  0  0  0  0  0  0  0  0
  -22.7832  -12.4634   -6.1714 Cl  0  0  0  0  0  0  0  0  0  0  0  0
  -24.9294  -11.2788   -7.4490 C   0  0  0  0  0  0  0  0  0  0  0  0
  -24.4671  -12.2156   -8.8537 Cl  0  0  0  0  0  0  0  0  0  0  0  0
  -26.0881  -10.4346   -7.4824 C   0  0  0  0  0  0  0  0  0  0  0  0
  -26.8616  -10.3646   -8.6568 N   0  0  0  0  0  0  0  0  0  0  0  0
  -28.1096  -11.1193   -8.7869 C   0  0  0  0  0  0  0  0  0  0  0  0
  -28.4205  -11.4510  -10.2537 C   0  0  0  0  0  0  0  0  0  0  0  0
  -28.5075  -10.2195  -11.0667 N   0  0  0  0  0  0  0  0  0  0  0  0
  -28.7978  -10.5660  -12.4552 C   0  0  0  0  0  0  0  0  0  0  0  0
  -27.2230   -9.4823  -10.9439 C   0  0  0  0  0  0  0  0  0  0  0  0
  -26.8797   -9.1252   -9.4657 C   0  0  0  0  0  0  0  0  0  0  0  0
  -30.3041   -3.0724   -5.9319 O   0  0  0  0  0  0  0  0  0  0  0  0
  -29.6647   -2.0241   -5.1988 C   0  0  0  0  0  0  0  0  0  0  0  0
  -28.2590   -2.3969   -4.7182 C   0  0  0  0  0  0  0  0  0  0  0  0
  -27.3293   -1.3988   -5.1650 O   0  0  0  0  0  0  0  0  0  0  0  0
  -28.0771   -0.3036   -5.6920 C   0  0  0  0  0  0  0  0  0  0  0  0
  -28.4495    0.7108   -4.6309 C   0  0  0  0  0  0  0  0  0  0  0  0
  -27.5437    1.7175   -4.5932 F   0  0  0  0  0  0  0  0  0  0  0  0
  -29.7949    1.2162   -5.1045 C   0  0  0  0  0  0  0  0  0  0  0  0
  -30.3834    0.2034   -5.9394 O   0  0  0  0  0  0  0  0  0  0  0  0
  -29.4161   -0.8419   -6.1330 C   0  0  0  0  0  0  0  0  0  0  0  0
 11 12  1  0  0  0
 12  1  1  0  0  0
  1  2  1  0  0  0
  1 10  2  0  0  0
  2  3  2  0  0  0
  3  4  1  0  0  0
  3  8  1  0  0  0
  4 13  1  0  0  0
  4  5  2  0  0  0
 13 15  1  0  0  0
 13 14  1  0  0  0
 15 16  1  0  0  0
 15 22  2  0  0  0
 16 17  2  0  0  0
 17 18  1  0  0  0
 18 19  1  0  0  0
 18 20  2  0  0  0
 20 21  1  0  0  0
 20 22  1  0  0  0
 22 23  1  0  0  0
 23 24  1  0  0  0
 23 29  1  0  0  0
 24 25  1  0  0  0
 25 26  1  0  0  0
 26 27  1  0  0  0
 26 28  1  0  0  0
 28 29  1  0  0  0
  5  6  1  0  0  0
  6  7  2  0  0  0
  7  8  1  0  0  0
  8  9  2  0  0  0
  9 10  1  0  0  0
 10 30  1  0  0  0
 31 32  1  0  0  0
 31 39  1  0  0  0
 31 30  1  0  0  0
 32 33  1  0  0  0
 33 34  1  0  0  0
 34 35  1  0  0  0
 34 39  1  0  0  0
 35 36  1  0  0  0
 35 37  1  0  0  0
 37 38  1  0  0  0
 38 39  1  0  0  0
M  END
> <minimizedAffinity>
-8.55498

$$$$
