CHEMBL213796


 41 47  0  0  0  0  0  0  0  0999 V2000
  -15.1754    3.0681  -17.0519 C   0  0  0  0  0  0  0  0  0  0  0  0
  -14.7851    2.4568  -18.1799 N   0  0  0  0  0  0  0  0  0  0  0  0
  -13.4615    2.8026  -18.3055 N   0  0  0  0  0  0  0  0  0  0  0  0
  -13.0302    3.7153  -17.3720 C   0  0  0  0  0  0  0  0  0  0  0  0
  -14.1933    4.0150  -16.6657 C   0  0  0  0  0  0  0  0  0  0  0  0
  -13.8583    4.5816  -15.3447 C   0  0  0  0  0  0  0  0  0  0  0  0
  -12.7333    3.5522  -15.1677 C   0  0  0  0  0  0  0  0  0  0  0  0
  -12.8706    2.2313  -14.6820 C   0  0  0  0  0  0  0  0  0  0  0  0
  -11.8812    1.2862  -15.0201 C   0  0  0  0  0  0  0  0  0  0  0  0
  -10.6971    1.7703  -15.5757 C   0  0  0  0  0  0  0  0  0  0  0  0
  -10.7585    2.9335  -16.3357 C   0  0  0  0  0  0  0  0  0  0  0  0
  -11.9313    3.6507  -16.3258 C   0  0  0  0  0  0  0  0  0  0  0  0
  -12.9174    2.3369  -19.0249 H   0  0  0  0  0  0  0  0  0  0  0  0
  -22.9417    0.9647  -13.8983 N   0  0  0  0  0  0  0  0  0  0  0  0
  -21.7499    0.4263  -14.2898 C   0  0  0  0  0  0  0  0  0  0  0  0
  -21.4798   -0.7656  -14.2717 O   0  0  0  0  0  0  0  0  0  0  0  0
  -20.7537    1.3559  -14.7197 N   0  0  0  0  0  0  0  0  0  0  0  0
  -20.9334    2.8089  -14.6543 C   0  0  0  0  0  0  0  0  0  0  0  0
  -19.8387    3.6815  -15.2754 C   0  0  0  0  0  0  0  0  0  0  0  0
  -18.5331    2.9955  -15.3724 C   0  0  0  0  0  0  0  0  0  0  0  0
  -17.2934    3.5942  -15.6965 C   0  0  0  0  0  0  0  0  0  0  0  0
  -16.3604    2.6898  -16.1786 C   0  0  0  0  0  0  0  0  0  0  0  0
  -16.7729    1.1364  -15.5986 S   0  0  0  0  0  0  0  0  0  0  0  0
  -18.3659    1.6489  -15.2088 C   0  0  0  0  0  0  0  0  0  0  0  0
  -19.4285    0.7224  -14.7872 C   0  0  0  0  0  0  0  0  0  0  0  0
  -23.1790    1.9002  -14.1907 H   0  0  0  0  0  0  0  0  0  0  0  0
  -26.8633   -1.9682  -14.4319 C   0  0  0  0  0  0  0  0  0  0  0  0
  -25.9051   -1.2402  -13.5372 C   0  0  0  0  0  0  0  0  0  0  0  0
  -25.9570   -1.4173  -12.1520 C   0  0  0  0  0  0  0  0  0  0  0  0
  -25.0604   -0.7429  -11.3275 C   0  0  0  0  0  0  0  0  0  0  0  0
  -24.0880    0.0854  -11.8876 C   0  0  0  0  0  0  0  0  0  0  0  0
  -23.9852    0.2372  -13.2738 C   0  0  0  0  0  0  0  0  0  0  0  0
  -24.9247   -0.3995  -14.0907 C   0  0  0  0  0  0  0  0  0  0  0  0
  -12.1552   -0.2062  -15.1415 C   0  0  0  0  0  0  0  0  0  0  0  0
  -12.6997   -0.8559  -13.9493 N   0  0  0  0  0  0  0  0  0  0  0  0
  -14.1043   -1.2356  -14.1680 C   0  0  0  0  0  0  0  0  0  0  0  0
  -14.6826   -2.0158  -12.9684 C   0  0  0  0  0  0  0  0  0  0  0  0
  -13.9315   -3.2301  -12.5938 N   0  0  0  0  0  0  0  0  0  0  0  0
  -14.1339   -4.3108  -13.5557 C   0  0  0  0  0  0  0  0  0  0  0  0
  -12.5030   -2.8853  -12.4516 C   0  0  0  0  0  0  0  0  0  0  0  0
  -11.9082   -2.0703  -13.6274 C   0  0  0  0  0  0  0  0  0  0  0  0
 27 28  1  0  0  0
 28 29  1  0  0  0
 28 33  2  0  0  0
 29 30  2  0  0  0
 30 31  1  0  0  0
 31 32  2  0  0  0
 32 14  1  0  0  0
 32 33  1  0  0  0
 14 15  1  0  0  0
 14 26  1  0  0  0
 15 16  2  0  0  0
 15 17  1  0  0  0
 17 18  1  0  0  0
 17 25  1  0  0  0
 18 19  1  0  0  0
 19 20  1  0  0  0
 20 21  1  0  0  0
 20 24  2  0  0  0
 21 22  2  0  0  0
 22  1  1  0  0  0
 22 23  1  0  0  0
  1  2  2  0  0  0
  1  5  1  0  0  0
  2  3  1  0  0  0
  3  4  1  0  0  0
  3 13  1  0  0  0
  4  5  2  0  0  0
  4 12  1  0  0  0
  5  6  1  0  0  0
  6  7  1  0  0  0
  7  8  1  0  0  0
  7 12  2  0  0  0
  8  9  2  0  0  0
  9 34  1  0  0  0
  9 10  1  0  0  0
 34 35  1  0  0  0
 35 36  1  0  0  0
 35 41  1  0  0  0
 36 37  1  0  0  0
 37 38  1  0  0  0
 38 39  1  0  0  0
 38 40  1  0  0  0
 40 41  1  0  0  0
 10 11  2  0  0  0
 11 12  1  0  0  0
 23 24  1  0  0  0
 24 25  1  0  0  0
M  END
> <minimizedAffinity>
-8.77659

$$$$
