CHEMBL2023802


 38 41  0  0  0  0  0  0  0  0999 V2000
  -27.5119   -1.6269  -10.3191 C   0  0  0  0  0  0  0  0  0  0  0  0
  -26.2161   -1.7149   -9.8316 C   0  0  0  0  0  0  0  0  0  0  0  0
  -25.1094   -1.8068  -10.6125 N   0  0  0  0  0  0  0  0  0  0  0  0
  -25.2856   -1.8026  -11.9629 C   0  0  0  0  0  0  0  0  0  0  0  0
  -26.5564   -1.7048  -12.5448 C   0  0  0  0  0  0  0  0  0  0  0  0
  -27.6747   -1.6342  -11.7037 C   0  0  0  0  0  0  0  0  0  0  0  0
  -26.6228   -1.6517  -13.9084 O   0  0  0  0  0  0  0  0  0  0  0  0
  -27.8835   -1.9591  -14.4948 C   0  0  0  0  0  0  0  0  0  0  0  0
  -28.5413   -1.6079   -9.4011 O   0  0  0  0  0  0  0  0  0  0  0  0
  -28.5959   -5.1867   -5.7275 C   0  0  0  0  0  0  0  0  0  0  0  0
  -28.2184   -3.9407   -5.1936 C   0  0  0  0  0  0  0  0  0  0  0  0
  -28.0924   -2.7662   -5.9452 C   0  0  0  0  0  0  0  0  0  0  0  0
  -27.6709   -1.6432   -5.3285 N   0  0  0  0  0  0  0  0  0  0  0  0
  -27.5006   -0.5271   -6.0736 C   0  0  0  0  0  0  0  0  0  0  0  0
  -27.7520   -0.4611   -7.4264 C   0  0  0  0  0  0  0  0  0  0  0  0
  -28.2491   -1.6090   -8.0465 C   0  0  0  0  0  0  0  0  0  0  0  0
  -28.3852   -2.8233   -7.3154 C   0  0  0  0  0  0  0  0  0  0  0  0
  -28.7832   -4.0701   -7.8582 C   0  0  0  0  0  0  0  0  0  0  0  0
  -28.9049   -5.2485   -7.0913 C   0  0  0  0  0  0  0  0  0  0  0  0
  -29.2144   -6.3355   -7.8598 O   0  0  0  0  0  0  0  0  0  0  0  0
  -30.3464   -7.1245   -7.5239 C   0  0  0  0  0  0  0  0  0  0  0  0
  -28.5726   -6.1585   -4.7624 O   0  0  0  0  0  0  0  0  0  0  0  0
  -30.8710   -6.0990   -4.0129 C   0  0  0  0  0  0  0  0  0  0  0  0
  -29.4042   -6.0562   -3.6176 C   0  0  0  0  0  0  0  0  0  0  0  0
  -24.0221   -1.8814  -12.7852 C   0  0  0  0  0  0  0  0  0  0  0  0
  -23.1668   -0.6307  -12.7750 C   0  0  0  0  0  0  0  0  0  0  0  0
  -22.5286   -0.3152  -11.7708 O   0  0  0  0  0  0  0  0  0  0  0  0
  -23.1542    0.0634  -13.9726 N   0  0  0  0  0  0  0  0  0  0  0  0
  -24.0175    0.0800  -14.4999 H   0  0  0  0  0  0  0  0  0  0  0  0
  -22.4101    1.2178  -14.1061 C   0  0  0  0  0  0  0  0  0  0  0  0
  -22.9861    2.3981  -13.8731 N   0  0  0  0  0  0  0  0  0  0  0  0
  -21.9645    3.2666  -13.9204 N   0  0  0  0  0  0  0  0  0  0  0  0
  -20.7829    2.7134  -14.3302 C   0  0  0  0  0  0  0  0  0  0  0  0
  -21.0553    1.3690  -14.5279 C   0  0  0  0  0  0  0  0  0  0  0  0
  -20.1583    0.3301  -15.0966 C   0  0  0  0  0  0  0  0  0  0  0  0
  -22.1452    4.2335  -13.6727 H   0  0  0  0  0  0  0  0  0  0  0  0
  -19.5458    3.5304  -14.4926 C   0  0  0  0  0  0  0  0  0  0  0  0
  -18.7846    3.1648  -15.7595 C   0  0  0  0  0  0  0  0  0  0  0  0
 23 24  1  0  0  0
 24 22  1  0  0  0
 22 10  1  0  0  0
 10 11  1  0  0  0
 10 19  2  0  0  0
 11 12  2  0  0  0
 12 13  1  0  0  0
 12 17  1  0  0  0
 13 14  2  0  0  0
 14 15  1  0  0  0
 15 16  2  0  0  0
 16  9  1  0  0  0
 16 17  1  0  0  0
  9  1  1  0  0  0
  1  2  1  0  0  0
  1  6  2  0  0  0
  2  3  2  0  0  0
  3  4  1  0  0  0
  4 25  1  0  0  0
  4  5  2  0  0  0
 25 26  1  0  0  0
 26 27  2  0  0  0
 26 28  1  0  0  0
 28 30  1  0  0  0
 28 29  1  0  0  0
 30 31  2  0  0  0
 30 34  1  0  0  0
 31 32  1  0  0  0
 32 33  1  0  0  0
 32 36  1  0  0  0
 33 37  1  0  0  0
 33 34  2  0  0  0
 37 38  1  0  0  0
 34 35  1  0  0  0
  5  7  1  0  0  0
  5  6  1  0  0  0
  7  8  1  0  0  0
 17 18  2  0  0  0
 18 19  1  0  0  0
 19 20  1  0  0  0
 20 21  1  0  0  0
M  END
> <minimizedAffinity>
-9.37264

$$$$
