CHEMBL3696085


 30 31  0  0  0  0  0  0  0  0999 V2000
  -29.4284   -5.1294   -6.3200 C   0  0  0  0  0  0  0  0  0  0  0  0
  -29.3677   -4.2643   -5.1422 C   0  0  0  0  0  0  0  0  0  0  0  0
  -29.7453   -4.8488   -4.0006 N   0  0  0  0  0  0  0  0  0  0  0  0
  -30.2108   -6.3918   -4.2870 S   0  0  0  0  0  0  0  0  0  0  0  0
  -29.9588   -6.3695   -5.9720 C   0  0  0  0  0  0  0  0  0  0  0  0
  -28.9474   -2.8549   -5.0753 C   0  0  0  0  0  0  0  0  0  0  0  0
  -29.9078   -1.8329   -5.1243 C   0  0  0  0  0  0  0  0  0  0  0  0
  -29.5265   -0.4858   -5.1374 C   0  0  0  0  0  0  0  0  0  0  0  0
  -28.1783   -0.1353   -5.1580 C   0  0  0  0  0  0  0  0  0  0  0  0
  -27.7920    1.2099   -5.1290 N   0  0  0  0  0  0  0  0  0  0  0  0
  -27.2274   -1.1419   -4.9861 C   0  0  0  0  0  0  0  0  0  0  0  0
  -27.6056   -2.4879   -4.9467 C   0  0  0  0  0  0  0  0  0  0  0  0
  -28.4695    1.8261   -5.5683 H   0  0  0  0  0  0  0  0  0  0  0  0
  -26.8571    1.3578   -5.4980 H   0  0  0  0  0  0  0  0  0  0  0  0
  -30.2394   -7.4818   -6.7612 N   0  0  0  0  0  0  0  0  0  0  0  0
  -29.2666   -8.3756   -7.1612 C   0  0  0  0  0  0  0  0  0  0  0  0
  -28.0984   -8.3886   -6.7888 O   0  0  0  0  0  0  0  0  0  0  0  0
  -29.7228   -9.2941   -8.0863 N   0  0  0  0  0  0  0  0  0  0  0  0
  -31.2000   -7.7931   -6.8001 H   0  0  0  0  0  0  0  0  0  0  0  0
  -30.6907   -9.3164   -8.3574 H   0  0  0  0  0  0  0  0  0  0  0  0
  -28.7965  -10.2486   -8.6785 C   0  0  0  0  0  0  0  0  0  0  0  0
  -28.3736   -9.8797  -10.0970 C   0  0  0  0  0  0  0  0  0  0  0  0
  -27.0048   -9.2159  -10.1753 C   0  0  0  0  0  0  0  0  0  0  0  0
  -27.0816   -7.9121   -9.6064 O   0  0  0  0  0  0  0  0  0  0  0  0
  -27.6032   -7.3598  -10.2141 H   0  0  0  0  0  0  0  0  0  0  0  0
  -28.0105   -5.4092   -8.2180 N   0  0  0  0  0  0  0  0  0  0  0  0
  -29.0809   -4.7476   -7.6756 C   0  0  0  0  0  0  0  0  0  0  0  0
  -29.6379   -3.8635   -8.3139 O   0  0  0  0  0  0  0  0  0  0  0  0
  -27.6436   -4.9754   -9.0595 H   0  0  0  0  0  0  0  0  0  0  0  0
  -27.3394   -5.8595   -7.6097 H   0  0  0  0  0  0  0  0  0  0  0  0
 26 27  1  0  0  0
 26 29  1  0  0  0
 26 30  1  0  0  0
 27 28  2  0  0  0
 27  1  1  0  0  0
  1  2  1  0  0  0
  1  5  2  0  0  0
  2  6  1  0  0  0
  2  3  2  0  0  0
  6  7  1  0  0  0
  6 12  2  0  0  0
  7  8  2  0  0  0
  8  9  1  0  0  0
  9 10  1  0  0  0
  9 11  2  0  0  0
 10 13  1  0  0  0
 10 14  1  0  0  0
 11 12  1  0  0  0
  3  4  1  0  0  0
  4  5  1  0  0  0
  5 15  1  0  0  0
 15 16  1  0  0  0
 15 19  1  0  0  0
 16 17  2  0  0  0
 16 18  1  0  0  0
 18 21  1  0  0  0
 18 20  1  0  0  0
 21 22  1  0  0  0
 22 23  1  0  0  0
 23 24  1  0  0  0
 24 25  1  0  0  0
M  END
> <minimizedAffinity>
-7.32316

$$$$
