CHEMBL1098120


 38 42  0  0  0  0  0  0  0  0999 V2000
  -27.1228   -2.9680   -9.3103 N   0  0  0  0  0  0  0  0  0  0  0  0
  -28.1837   -3.7519   -8.6767 C   0  0  0  0  0  0  0  0  0  0  0  0
  -28.4417   -3.2285   -7.2554 C   0  0  0  0  0  0  0  0  0  0  0  0
  -29.6510   -3.9426   -6.6312 C   0  0  0  0  0  0  0  0  0  0  0  0
  -29.5467   -5.4344   -6.7969 C   0  0  0  0  0  0  0  0  0  0  0  0
  -28.6952   -6.0248   -7.7196 C   0  0  0  0  0  0  0  0  0  0  0  0
  -28.8378   -7.3869   -7.5595 C   0  0  0  0  0  0  0  0  0  0  0  0
  -28.2174   -8.4617   -8.2104 C   0  0  0  0  0  0  0  0  0  0  0  0
  -28.5671   -9.7733   -7.8204 C   0  0  0  0  0  0  0  0  0  0  0  0
  -29.5331   -9.9530   -6.7874 C   0  0  0  0  0  0  0  0  0  0  0  0
  -30.1390   -8.8568   -6.1580 C   0  0  0  0  0  0  0  0  0  0  0  0
  -29.7758   -7.5716   -6.5657 C   0  0  0  0  0  0  0  0  0  0  0  0
  -30.2184   -6.3787   -6.0922 N   0  0  0  0  0  0  0  0  0  0  0  0
  -27.7978   -5.2566   -8.6497 C   0  0  0  0  0  0  0  0  0  0  0  0
  -27.4690   -1.9913   -9.4544 H   0  0  0  0  0  0  0  0  0  0  0  0
  -26.8962   -3.3635  -10.2480 H   0  0  0  0  0  0  0  0  0  0  0  0
  -27.9711  -10.8357   -8.4370 O   0  0  0  0  0  0  0  0  0  0  0  0
  -26.5991  -10.9948   -8.5353 C   0  0  0  0  0  0  0  0  0  0  0  0
  -26.0053  -11.6706   -7.2942 C   0  0  0  0  0  0  0  0  0  0  0  0
  -24.5588  -11.2506   -7.1241 C   0  0  0  0  0  0  0  0  0  0  0  0
  -24.2241  -10.1508   -6.3142 C   0  0  0  0  0  0  0  0  0  0  0  0
  -22.8907   -9.7441   -6.1869 C   0  0  0  0  0  0  0  0  0  0  0  0
  -21.8746  -10.4309   -6.8666 C   0  0  0  0  0  0  0  0  0  0  0  0
  -20.5876  -10.0410   -6.7647 O   0  0  0  0  0  0  0  0  0  0  0  0
  -22.1990  -11.5327   -7.6632 C   0  0  0  0  0  0  0  0  0  0  0  0
  -23.5293  -11.9433   -7.7900 C   0  0  0  0  0  0  0  0  0  0  0  0
  -20.3216   -9.2758   -6.2350 H   0  0  0  0  0  0  0  0  0  0  0  0
  -31.1730   -6.1525   -4.9901 C   0  0  0  0  0  0  0  0  0  0  0  0
  -30.6071   -5.2722   -3.8671 C   0  0  0  0  0  0  0  0  0  0  0  0
  -31.5927   -4.2138   -3.3635 C   0  0  0  0  0  0  0  0  0  0  0  0
  -30.8053   -3.0103   -2.8310 C   0  0  0  0  0  0  0  0  0  0  0  0
  -29.3354   -3.0475   -3.2575 C   0  0  0  0  0  0  0  0  0  0  0  0
  -28.9910   -1.8335   -4.0880 C   0  0  0  0  0  0  0  0  0  0  0  0
  -27.6493   -1.4662   -4.3065 C   0  0  0  0  0  0  0  0  0  0  0  0
  -27.3419   -0.3347   -5.0693 C   0  0  0  0  0  0  0  0  0  0  0  0
  -28.3670    0.4372   -5.6215 C   0  0  0  0  0  0  0  0  0  0  0  0
  -29.7007    0.0790   -5.4136 C   0  0  0  0  0  0  0  0  0  0  0  0
  -30.0136   -1.0506   -4.6517 C   0  0  0  0  0  0  0  0  0  0  0  0
  1  2  1  0  0  0
  1 15  1  0  0  0
  1 16  1  0  0  0
  2  3  1  0  0  0
  2 14  1  0  0  0
  3  4  1  0  0  0
  4  5  1  0  0  0
  5  6  2  0  0  0
  5 13  1  0  0  0
  6  7  1  0  0  0
  6 14  1  0  0  0
  7  8  1  0  0  0
  7 12  2  0  0  0
  8  9  2  0  0  0
  9 17  1  0  0  0
  9 10  1  0  0  0
 17 18  1  0  0  0
 18 19  1  0  0  0
 19 20  1  0  0  0
 20 21  1  0  0  0
 20 26  2  0  0  0
 21 22  2  0  0  0
 22 23  1  0  0  0
 23 24  1  0  0  0
 23 25  2  0  0  0
 24 27  1  0  0  0
 25 26  1  0  0  0
 10 11  2  0  0  0
 11 12  1  0  0  0
 12 13  1  0  0  0
 13 28  1  0  0  0
 28 29  1  0  0  0
 29 30  1  0  0  0
 30 31  1  0  0  0
 31 32  1  0  0  0
 32 33  1  0  0  0
 33 34  1  0  0  0
 33 38  2  0  0  0
 34 35  2  0  0  0
 35 36  1  0  0  0
 36 37  2  0  0  0
 37 38  1  0  0  0
M  END
> <minimizedAffinity>
-8.67037

$$$$
