CHEMBL219158


 43 47  0  0  0  0  0  0  0  0999 V2000
  -13.5692   -3.4919  -13.1617 C   0  0  0  0  0  0  0  0  0  0  0  0
  -14.3015   -2.3387  -13.4711 C   0  0  0  0  0  0  0  0  0  0  0  0
  -15.2435   -1.8315  -12.5668 C   0  0  0  0  0  0  0  0  0  0  0  0
  -15.4937   -2.5317  -11.3809 C   0  0  0  0  0  0  0  0  0  0  0  0
  -14.7628   -3.6754  -11.0661 C   0  0  0  0  0  0  0  0  0  0  0  0
  -13.7680   -4.1408  -11.9314 C   0  0  0  0  0  0  0  0  0  0  0  0
  -12.9239   -5.3080  -11.5129 C   0  0  0  0  0  0  0  0  0  0  0  0
  -15.9154   -0.5376  -12.9024 C   0  0  0  0  0  0  0  0  0  0  0  0
  -15.9438    0.3613  -12.0683 O   0  0  0  0  0  0  0  0  0  0  0  0
  -16.4443   -0.4455  -14.1809 N   0  0  0  0  0  0  0  0  0  0  0  0
  -16.1514   -1.1022  -14.8860 H   0  0  0  0  0  0  0  0  0  0  0  0
  -16.9225    0.7677  -14.7142 C   0  0  0  0  0  0  0  0  0  0  0  0
  -18.2844    1.0658  -14.5437 C   0  0  0  0  0  0  0  0  0  0  0  0
  -18.8609    2.1582  -15.1944 C   0  0  0  0  0  0  0  0  0  0  0  0
  -18.0382    2.9631  -15.9880 C   0  0  0  0  0  0  0  0  0  0  0  0
  -16.6727    2.6713  -16.1367 C   0  0  0  0  0  0  0  0  0  0  0  0
  -16.0664    1.5654  -15.5155 C   0  0  0  0  0  0  0  0  0  0  0  0
  -14.7009    1.3432  -15.6451 N   0  0  0  0  0  0  0  0  0  0  0  0
  -13.6991    1.8699  -14.6997 C   0  0  0  0  0  0  0  0  0  0  0  0
  -12.5257    2.5426  -15.4199 C   0  0  0  0  0  0  0  0  0  0  0  0
  -11.9585    1.6892  -16.4221 O   0  0  0  0  0  0  0  0  0  0  0  0
  -12.9602    1.3493  -17.3949 C   0  0  0  0  0  0  0  0  0  0  0  0
  -14.1176    0.5667  -16.7532 C   0  0  0  0  0  0  0  0  0  0  0  0
  -20.3310    2.4589  -15.0619 C   0  0  0  0  0  0  0  0  0  0  0  0
  -20.6821    2.9858  -13.8572 F   0  0  0  0  0  0  0  0  0  0  0  0
  -20.7693    3.3432  -16.0006 F   0  0  0  0  0  0  0  0  0  0  0  0
  -21.1028    1.3454  -15.2150 F   0  0  0  0  0  0  0  0  0  0  0  0
  -12.5493   -3.9659  -13.9720 O   0  0  0  0  0  0  0  0  0  0  0  0
  -13.5203   -5.2498  -15.7549 C   0  0  0  0  0  0  0  0  0  0  0  0
  -13.7606   -5.3238  -17.1411 C   0  0  0  0  0  0  0  0  0  0  0  0
  -13.3188   -4.3276  -18.0078 C   0  0  0  0  0  0  0  0  0  0  0  0
  -12.6480   -3.2503  -17.4696 C   0  0  0  0  0  0  0  0  0  0  0  0
  -12.3893   -3.1210  -16.1543 N   0  0  0  0  0  0  0  0  0  0  0  0
  -12.8004   -4.1224  -15.3288 C   0  0  0  0  0  0  0  0  0  0  0  0
  -13.5349   -8.2926  -13.7620 C   0  0  0  0  0  0  0  0  0  0  0  0
  -14.7616   -8.3875  -13.2404 N   0  0  0  0  0  0  0  0  0  0  0  0
  -15.6307   -7.4107  -13.5575 C   0  0  0  0  0  0  0  0  0  0  0  0
  -15.3240   -6.3508  -14.3699 C   0  0  0  0  0  0  0  0  0  0  0  0
  -14.0386   -6.3186  -14.8703 C   0  0  0  0  0  0  0  0  0  0  0  0
  -13.1374   -7.2780  -14.5445 N   0  0  0  0  0  0  0  0  0  0  0  0
  -12.1834   -9.3909  -12.1114 C   0  0  0  0  0  0  0  0  0  0  0  0
  -12.6871   -9.3439  -13.4646 N   0  0  0  0  0  0  0  0  0  0  0  0
  -13.1589  -10.1837  -13.7816 H   0  0  0  0  0  0  0  0  0  0  0  0
 41 42  1  0  0  0
 42 35  1  0  0  0
 42 43  1  0  0  0
 35 36  1  0  0  0
 35 40  2  0  0  0
 36 37  2  0  0  0
 37 38  1  0  0  0
 38 39  2  0  0  0
 39 29  1  0  0  0
 39 40  1  0  0  0
 29 30  1  0  0  0
 29 34  2  0  0  0
 30 31  2  0  0  0
 31 32  1  0  0  0
 32 33  2  0  0  0
 33 34  1  0  0  0
 34 28  1  0  0  0
 28  1  1  0  0  0
  1  2  1  0  0  0
  1  6  2  0  0  0
  2  3  2  0  0  0
  3  8  1  0  0  0
  3  4  1  0  0  0
  8  9  2  0  0  0
  8 10  1  0  0  0
 10 12  1  0  0  0
 10 11  1  0  0  0
 12 13  1  0  0  0
 12 17  2  0  0  0
 13 14  2  0  0  0
 14 24  1  0  0  0
 14 15  1  0  0  0
 24 25  1  0  0  0
 24 26  1  0  0  0
 24 27  1  0  0  0
 15 16  2  0  0  0
 16 17  1  0  0  0
 17 18  1  0  0  0
 18 19  1  0  0  0
 18 23  1  0  0  0
 19 20  1  0  0  0
 20 21  1  0  0  0
 21 22  1  0  0  0
 22 23  1  0  0  0
  4  5  2  0  0  0
  5  6  1  0  0  0
  6  7  1  0  0  0
M  END
> <minimizedAffinity>
-9.46530

$$$$
