CHEMBL3109276


 38 42  0  0  0  0  0  0  0  0999 V2000
  -28.6524   -7.2095   -3.6812 C   0  0  0  0  0  0  0  0  0  0  0  0
  -29.2857   -8.2510   -3.1877 N   0  0  0  0  0  0  0  0  0  0  0  0
  -28.8160   -9.3089   -3.8928 C   0  0  0  0  0  0  0  0  0  0  0  0
  -27.9018   -8.8799   -4.8240 C   0  0  0  0  0  0  0  0  0  0  0  0
  -27.7751   -7.5211   -4.6856 O   0  0  0  0  0  0  0  0  0  0  0  0
  -27.1457   -9.5480   -5.8626 C   0  0  0  0  0  0  0  0  0  0  0  0
  -27.6819   -9.6088   -7.1542 C   0  0  0  0  0  0  0  0  0  0  0  0
  -26.9846  -10.1734   -8.2277 C   0  0  0  0  0  0  0  0  0  0  0  0
  -25.7244  -10.7231   -7.9533 C   0  0  0  0  0  0  0  0  0  0  0  0
  -25.1319  -10.6608   -6.6755 C   0  0  0  0  0  0  0  0  0  0  0  0
  -25.8754  -10.0788   -5.6356 C   0  0  0  0  0  0  0  0  0  0  0  0
  -27.5392  -10.1238   -9.5920 C   0  0  0  0  0  0  0  0  0  0  0  0
  -26.8497   -9.4860  -10.6373 C   0  0  0  0  0  0  0  0  0  0  0  0
  -27.3730   -9.4552  -11.9240 C   0  0  0  0  0  0  0  0  0  0  0  0
  -28.5844  -10.0821  -12.1492 C   0  0  0  0  0  0  0  0  0  0  0  0
  -29.2867  -10.7152  -11.1878 N   0  0  0  0  0  0  0  0  0  0  0  0
  -28.7522  -10.7182   -9.9421 C   0  0  0  0  0  0  0  0  0  0  0  0
  -23.7558  -11.1432   -6.4569 C   0  0  0  0  0  0  0  0  0  0  0  0
  -23.1350  -11.0995   -5.2020 C   0  0  0  0  0  0  0  0  0  0  0  0
  -21.8326  -11.5659   -5.0402 C   0  0  0  0  0  0  0  0  0  0  0  0
  -21.1744  -12.0720   -6.1438 C   0  0  0  0  0  0  0  0  0  0  0  0
  -21.7150  -12.1252   -7.3788 N   0  0  0  0  0  0  0  0  0  0  0  0
  -22.9753  -11.6538   -7.5002 C   0  0  0  0  0  0  0  0  0  0  0  0
  -28.7826   -5.9080   -3.3788 N   0  0  0  0  0  0  0  0  0  0  0  0
  -28.2718   -5.5349   -2.5857 H   0  0  0  0  0  0  0  0  0  0  0  0
  -28.8529   -2.9167   -5.6184 C   0  0  0  0  0  0  0  0  0  0  0  0
  -30.1998   -2.8616   -5.9551 C   0  0  0  0  0  0  0  0  0  0  0  0
  -31.0751   -3.8337   -5.4565 C   0  0  0  0  0  0  0  0  0  0  0  0
  -30.6068   -4.8467   -4.6087 C   0  0  0  0  0  0  0  0  0  0  0  0
  -29.2365   -4.9059   -4.2696 C   0  0  0  0  0  0  0  0  0  0  0  0
  -28.3706   -3.9515   -4.8237 C   0  0  0  0  0  0  0  0  0  0  0  0
  -27.7228   -1.6376   -6.1186 S   0  0  0  0  0  0  0  0  0  0  0  0
  -27.3151   -1.9472   -7.4783 O   0  0  0  0  0  0  0  0  0  0  0  0
  -26.7467   -1.4952   -5.0603 O   0  0  0  0  0  0  0  0  0  0  0  0
  -28.5190    0.7165   -4.9626 C   0  0  0  0  0  0  0  0  0  0  0  0
  -28.7408   -0.1646   -6.1777 C   0  0  0  0  0  0  0  0  0  0  0  0
  -31.4056   -5.7899   -4.0039 O   0  0  0  0  0  0  0  0  0  0  0  0
  -32.2587   -5.3315   -2.9598 C   0  0  0  0  0  0  0  0  0  0  0  0
 35 36  1  0  0  0
 36 32  1  0  0  0
 32 33  2  0  0  0
 32 34  2  0  0  0
 32 26  1  0  0  0
 26 27  1  0  0  0
 26 31  2  0  0  0
 27 28  2  0  0  0
 28 29  1  0  0  0
 29 37  1  0  0  0
 29 30  2  0  0  0
 37 38  1  0  0  0
 30 24  1  0  0  0
 30 31  1  0  0  0
 24  1  1  0  0  0
 24 25  1  0  0  0
  1  2  2  0  0  0
  1  5  1  0  0  0
  2  3  1  0  0  0
  3  4  2  0  0  0
  4  6  1  0  0  0
  4  5  1  0  0  0
  6  7  1  0  0  0
  6 11  2  0  0  0
  7  8  2  0  0  0
  8 12  1  0  0  0
  8  9  1  0  0  0
 12 13  1  0  0  0
 12 17  2  0  0  0
 13 14  2  0  0  0
 14 15  1  0  0  0
 15 16  2  0  0  0
 16 17  1  0  0  0
  9 10  2  0  0  0
 10 18  1  0  0  0
 10 11  1  0  0  0
 18 19  1  0  0  0
 18 23  2  0  0  0
 19 20  2  0  0  0
 20 21  1  0  0  0
 21 22  2  0  0  0
 22 23  1  0  0  0
M  END
> <minimizedAffinity>
-9.26082

$$$$
