CHEMBL3702621


 26 28  0  0  0  0  0  0  0  0999 V2000
  -28.6673   -8.0166   -7.2190 C   0  0  0  0  0  0  0  0  0  0  0  0
  -28.2555   -8.4928   -5.9739 C   0  0  0  0  0  0  0  0  0  0  0  0
  -28.5619   -7.7847   -4.8149 C   0  0  0  0  0  0  0  0  0  0  0  0
  -29.1811   -6.5384   -4.9033 C   0  0  0  0  0  0  0  0  0  0  0  0
  -29.4805   -5.9572   -6.1431 C   0  0  0  0  0  0  0  0  0  0  0  0
  -29.2326   -6.7301   -7.2891 C   0  0  0  0  0  0  0  0  0  0  0  0
  -29.9674   -4.6656   -6.2132 N   0  0  0  0  0  0  0  0  0  0  0  0
  -30.7967   -4.0934   -5.1497 C   0  0  0  0  0  0  0  0  0  0  0  0
  -29.9864   -3.1006   -4.3351 C   0  0  0  0  0  0  0  0  0  0  0  0
  -29.2496   -2.1320   -5.2277 C   0  0  0  0  0  0  0  0  0  0  0  0
  -28.8480   -0.9748   -4.6568 N   0  0  0  0  0  0  0  0  0  0  0  0
  -28.1663   -0.1230   -5.4285 C   0  0  0  0  0  0  0  0  0  0  0  0
  -27.7521    1.0607   -4.8565 N   0  0  0  0  0  0  0  0  0  0  0  0
  -27.8208   -0.3520   -6.6981 N   0  0  0  0  0  0  0  0  0  0  0  0
  -28.2363   -1.5170   -7.2306 C   0  0  0  0  0  0  0  0  0  0  0  0
  -28.9628   -2.4580   -6.5443 C   0  0  0  0  0  0  0  0  0  0  0  0
  -29.4433   -3.7212   -7.1998 C   0  0  0  0  0  0  0  0  0  0  0  0
  -27.6809    0.9411   -3.8565 H   0  0  0  0  0  0  0  0  0  0  0  0
  -26.9311    1.3958   -5.3437 H   0  0  0  0  0  0  0  0  0  0  0  0
  -29.3581   -9.7941   -8.9093 N   0  0  0  0  0  0  0  0  0  0  0  0
  -28.4844   -8.7613   -8.5066 C   0  0  0  0  0  0  0  0  0  0  0  0
  -27.5382   -8.4086   -9.2154 O   0  0  0  0  0  0  0  0  0  0  0  0
  -28.2177  -11.8636   -9.7156 C   0  0  0  0  0  0  0  0  0  0  0  0
  -28.9400  -10.5729  -10.0816 C   0  0  0  0  0  0  0  0  0  0  0  0
  -30.5054  -10.2679   -8.1291 C   0  0  0  0  0  0  0  0  0  0  0  0
  -31.8032   -9.4851   -8.2188 C   0  0  0  0  0  0  0  0  0  0  0  0
 23 24  1  0  0  0
 24 20  1  0  0  0
 20 25  1  0  0  0
 20 21  1  0  0  0
 25 26  1  0  0  0
 21 22  2  0  0  0
 21  1  1  0  0  0
  1  2  1  0  0  0
  1  6  2  0  0  0
  2  3  2  0  0  0
  3  4  1  0  0  0
  4  5  2  0  0  0
  5  7  1  0  0  0
  5  6  1  0  0  0
  7  8  1  0  0  0
  7 17  1  0  0  0
  8  9  1  0  0  0
  9 10  1  0  0  0
 10 11  1  0  0  0
 10 16  2  0  0  0
 11 12  2  0  0  0
 12 13  1  0  0  0
 12 14  1  0  0  0
 13 18  1  0  0  0
 13 19  1  0  0  0
 14 15  2  0  0  0
 15 16  1  0  0  0
 16 17  1  0  0  0
M  END
> <minimizedAffinity>
-7.41181

$$$$
