CHEMBL3926082


 40 44  0  0  0  0  0  0  0  0999 V2000
  -27.0366   -1.5139   -9.7237 C   0  0  0  0  0  0  0  0  0  0  0  0
  -27.8858   -1.5541  -10.8392 C   0  0  0  0  0  0  0  0  0  0  0  0
  -27.4257   -1.5702  -12.1031 C   0  0  0  0  0  0  0  0  0  0  0  0
  -26.1074   -1.4201  -12.3721 C   0  0  0  0  0  0  0  0  0  0  0  0
  -25.7684   -1.6064  -13.6488 N   0  0  0  0  0  0  0  0  0  0  0  0
  -24.5458   -1.3623  -14.0864 C   0  0  0  0  0  0  0  0  0  0  0  0
  -23.6007   -0.7824  -13.2483 C   0  0  0  0  0  0  0  0  0  0  0  0
  -23.8689   -0.7410  -11.8614 N   0  0  0  0  0  0  0  0  0  0  0  0
  -25.1499   -1.1039  -11.3795 C   0  0  0  0  0  0  0  0  0  0  0  0
  -25.6177   -1.1937   -9.9820 C   0  0  0  0  0  0  0  0  0  0  0  0
  -22.5577   -0.0120  -14.0657 C   0  0  0  0  0  0  0  0  0  0  0  0
  -21.6377   -0.2867  -15.0748 C   0  0  0  0  0  0  0  0  0  0  0  0
  -20.8470    0.8130  -15.2752 N   0  0  0  0  0  0  0  0  0  0  0  0
  -21.2127    1.7671  -14.4254 N   0  0  0  0  0  0  0  0  0  0  0  0
  -22.2459    1.3115  -13.7076 C   0  0  0  0  0  0  0  0  0  0  0  0
  -20.4615    2.9958  -14.0721 C   0  0  0  0  0  0  0  0  0  0  0  0
  -18.9236    3.0805  -14.3150 C   0  0  0  0  0  0  0  0  0  0  0  0
  -18.5926    3.5191  -15.7438 C   0  0  0  0  0  0  0  0  0  0  0  0
  -17.0988    3.2979  -16.0459 C   0  0  0  0  0  0  0  0  0  0  0  0
  -16.7583    1.9311  -15.8999 O   0  0  0  0  0  0  0  0  0  0  0  0
  -16.8581    1.5713  -14.5355 C   0  0  0  0  0  0  0  0  0  0  0  0
  -18.3193    1.6624  -14.0680 C   0  0  0  0  0  0  0  0  0  0  0  0
  -27.6676   -2.0752   -8.5023 N   0  0  0  0  0  0  0  0  0  0  0  0
  -29.1294    0.4876   -6.0691 C   0  0  0  0  0  0  0  0  0  0  0  0
  -28.9111   -0.1524   -4.8357 C   0  0  0  0  0  0  0  0  0  0  0  0
  -28.2889   -1.3976   -4.7842 C   0  0  0  0  0  0  0  0  0  0  0  0
  -27.8680   -1.9904   -5.9731 C   0  0  0  0  0  0  0  0  0  0  0  0
  -28.0574   -1.3877   -7.2611 C   0  0  0  0  0  0  0  0  0  0  0  0
  -28.7003   -0.1316   -7.2702 C   0  0  0  0  0  0  0  0  0  0  0  0
  -31.0381    1.9043   -6.6520 C   0  0  0  0  0  0  0  0  0  0  0  0
  -29.7690    1.6859   -6.1434 O   0  0  0  0  0  0  0  0  0  0  0  0
  -28.0791   -2.0808   -3.6148 O   0  0  0  0  0  0  0  0  0  0  0  0
  -28.7699   -3.2040   -3.1694 C   0  0  0  0  0  0  0  0  0  0  0  0
  -27.9141   -3.5568   -8.6179 C   0  0  0  0  0  0  0  0  0  0  0  0
  -29.4014   -3.8237   -8.3380 C   0  0  0  0  0  0  0  0  0  0  0  0
  -29.7103   -4.6413   -7.1548 N   0  0  0  0  0  0  0  0  0  0  0  0
  -30.6578   -5.0766   -7.2873 H   0  0  0  0  0  0  0  0  0  0  0  0
  -28.7154   -5.7451   -7.0547 C   0  0  0  0  0  0  0  0  0  0  0  0
  -28.3756   -6.0849   -5.5878 C   0  0  0  0  0  0  0  0  0  0  0  0
  -29.2220   -7.0126   -7.7483 C   0  0  0  0  0  0  0  0  0  0  0  0
 30 31  1  0  0  0
 31 24  1  0  0  0
 24 25  1  0  0  0
 24 29  2  0  0  0
 25 26  2  0  0  0
 26 32  1  0  0  0
 26 27  1  0  0  0
 32 33  1  0  0  0
 27 28  2  0  0  0
 28 23  1  0  0  0
 28 29  1  0  0  0
 23 34  1  0  0  0
 23  1  1  0  0  0
 34 35  1  0  0  0
 35 36  1  0  0  0
 36 38  1  0  0  0
 36 37  1  0  0  0
 38 39  1  0  0  0
 38 40  1  0  0  0
  1  2  1  0  0  0
  1 10  2  0  0  0
  2  3  2  0  0  0
  3  4  1  0  0  0
  4  5  1  0  0  0
  4  9  2  0  0  0
  5  6  2  0  0  0
  6  7  1  0  0  0
  7 11  1  0  0  0
  7  8  2  0  0  0
 11 12  1  0  0  0
 11 15  2  0  0  0
 12 13  2  0  0  0
 13 14  1  0  0  0
 14 16  1  0  0  0
 14 15  1  0  0  0
 16 17  1  0  0  0
 17 18  1  0  0  0
 17 22  1  0  0  0
 18 19  1  0  0  0
 19 20  1  0  0  0
 20 21  1  0  0  0
 21 22  1  0  0  0
  8  9  1  0  0  0
  9 10  1  0  0  0
M  END
> <minimizedAffinity>
-8.52328

$$$$
