CHEMBL1971271


 29 32  0  0  0  0  0  0  0  0999 V2000
  -28.3379   -5.3660   -4.7204 C   0  0  0  0  0  0  0  0  0  0  0  0
  -29.0099   -4.6594   -3.7034 C   0  0  0  0  0  0  0  0  0  0  0  0
  -29.6266   -3.4146   -3.9697 C   0  0  0  0  0  0  0  0  0  0  0  0
  -29.5069   -2.8703   -5.2454 C   0  0  0  0  0  0  0  0  0  0  0  0
  -28.7892   -3.5941   -6.2127 C   0  0  0  0  0  0  0  0  0  0  0  0
  -28.2851   -4.8640   -6.0106 C   0  0  0  0  0  0  0  0  0  0  0  0
  -28.1963   -2.5987   -7.1235 C   0  0  0  0  0  0  0  0  0  0  0  0
  -27.6378   -2.7400   -8.2964 N   0  0  0  0  0  0  0  0  0  0  0  0
  -27.7462   -4.0541   -8.7555 O   0  0  0  0  0  0  0  0  0  0  0  0
  -28.4477   -1.2831   -6.5190 C   0  0  0  0  0  0  0  0  0  0  0  0
  -27.8479   -0.0627   -6.7255 C   0  0  0  0  0  0  0  0  0  0  0  0
  -28.5119    1.0474   -6.2137 C   0  0  0  0  0  0  0  0  0  0  0  0
  -29.7742    0.8986   -5.6056 C   0  0  0  0  0  0  0  0  0  0  0  0
  -30.2703   -0.3721   -5.2749 C   0  0  0  0  0  0  0  0  0  0  0  0
  -29.5087   -1.4674   -5.6272 C   0  0  0  0  0  0  0  0  0  0  0  0
  -27.5784   -3.9537   -9.7106 H   0  0  0  0  0  0  0  0  0  0  0  0
  -27.5217   -6.4962   -4.4499 N   0  0  0  0  0  0  0  0  0  0  0  0
  -26.5880   -6.5017   -4.8622 H   0  0  0  0  0  0  0  0  0  0  0  0
  -28.1633   -8.0347   -4.2897 S   0  0  0  0  0  0  0  0  0  0  0  0
  -29.2633   -7.9783   -3.3466 O   0  0  0  0  0  0  0  0  0  0  0  0
  -27.0312   -8.9092   -4.0673 O   0  0  0  0  0  0  0  0  0  0  0  0
  -30.6507   -8.3061   -7.4790 C   0  0  0  0  0  0  0  0  0  0  0  0
  -29.8028   -8.7745   -8.4777 C   0  0  0  0  0  0  0  0  0  0  0  0
  -28.4618   -9.0599   -8.1957 C   0  0  0  0  0  0  0  0  0  0  0  0
  -27.9681   -8.8745   -6.9039 C   0  0  0  0  0  0  0  0  0  0  0  0
  -28.8234   -8.4188   -5.8987 C   0  0  0  0  0  0  0  0  0  0  0  0
  -30.1607   -8.1324   -6.1814 C   0  0  0  0  0  0  0  0  0  0  0  0
  -32.9421   -8.9328   -7.2803 C   0  0  0  0  0  0  0  0  0  0  0  0
  -31.9661   -7.9622   -7.6391 O   0  0  0  0  0  0  0  0  0  0  0  0
 28 29  1  0  0  0
 29 22  1  0  0  0
 22 23  1  0  0  0
 22 27  2  0  0  0
 23 24  2  0  0  0
 24 25  1  0  0  0
 25 26  2  0  0  0
 26 19  1  0  0  0
 26 27  1  0  0  0
 19 20  2  0  0  0
 19 21  2  0  0  0
 19 17  1  0  0  0
 17  1  1  0  0  0
 17 18  1  0  0  0
  1  2  1  0  0  0
  1  6  2  0  0  0
  2  3  2  0  0  0
  3  4  1  0  0  0
  4  5  2  0  0  0
  4 15  1  0  0  0
  5  6  1  0  0  0
  5  7  1  0  0  0
  7  8  2  0  0  0
  7 10  1  0  0  0
  8  9  1  0  0  0
  9 16  1  0  0  0
 10 11  1  0  0  0
 10 15  2  0  0  0
 11 12  2  0  0  0
 12 13  1  0  0  0
 13 14  2  0  0  0
 14 15  1  0  0  0
M  END
> <minimizedAffinity>
-9.54024

$$$$
