CHEMBL196499


 32 35  0  0  0  0  0  0  0  0999 V2000
  -28.6837   -2.9096   -6.9087 C   0  0  0  0  0  0  0  0  0  0  0  0
  -29.1058   -3.5455   -8.0745 C   0  0  0  0  0  0  0  0  0  0  0  0
  -28.6318   -3.1549   -9.3280 C   0  0  0  0  0  0  0  0  0  0  0  0
  -27.8192   -2.0306   -9.4793 C   0  0  0  0  0  0  0  0  0  0  0  0
  -27.4609   -1.3276   -8.3311 C   0  0  0  0  0  0  0  0  0  0  0  0
  -27.8545   -1.7881   -7.0612 C   0  0  0  0  0  0  0  0  0  0  0  0
  -29.7182   -1.1060   -4.5198 C   0  0  0  0  0  0  0  0  0  0  0  0
  -29.5646   -2.5958   -4.5781 C   0  0  0  0  0  0  0  0  0  0  0  0
  -30.0421   -3.4662   -3.1833 S   0  0  0  0  0  0  0  0  0  0  0  0
  -29.7064   -4.9615   -3.9025 C   0  0  0  0  0  0  0  0  0  0  0  0
  -29.9540   -6.0802   -3.2070 N   0  0  0  0  0  0  0  0  0  0  0  0
  -29.6470   -7.1822   -3.8901 C   0  0  0  0  0  0  0  0  0  0  0  0
  -29.1143   -7.2504   -5.1051 N   0  0  0  0  0  0  0  0  0  0  0  0
  -28.8533   -6.1063   -5.7715 C   0  0  0  0  0  0  0  0  0  0  0  0
  -28.2636   -6.2994   -7.0088 N   0  0  0  0  0  0  0  0  0  0  0  0
  -29.1769   -4.8568   -5.1803 C   0  0  0  0  0  0  0  0  0  0  0  0
  -29.1052   -3.4381   -5.5933 C   0  0  0  0  0  0  0  0  0  0  0  0
  -27.9713   -7.2663   -7.1126 H   0  0  0  0  0  0  0  0  0  0  0  0
  -27.5822   -5.6026   -7.2803 H   0  0  0  0  0  0  0  0  0  0  0  0
  -27.3382   -1.5876  -10.7343 N   0  0  0  0  0  0  0  0  0  0  0  0
  -26.0237   -1.3660  -11.0567 C   0  0  0  0  0  0  0  0  0  0  0  0
  -25.0734   -1.6033  -10.3121 O   0  0  0  0  0  0  0  0  0  0  0  0
  -25.8604   -0.8005  -12.3134 N   0  0  0  0  0  0  0  0  0  0  0  0
  -28.0179   -1.5047  -11.4841 H   0  0  0  0  0  0  0  0  0  0  0  0
  -26.5964   -0.1536  -12.5679 H   0  0  0  0  0  0  0  0  0  0  0  0
  -24.5533   -0.4635  -12.7349 C   0  0  0  0  0  0  0  0  0  0  0  0
  -24.1047    0.8661  -12.7084 C   0  0  0  0  0  0  0  0  0  0  0  0
  -22.8994    1.2152  -13.3051 C   0  0  0  0  0  0  0  0  0  0  0  0
  -22.1360    0.2276  -13.9125 C   0  0  0  0  0  0  0  0  0  0  0  0
  -21.0056    0.5671  -14.5468 F   0  0  0  0  0  0  0  0  0  0  0  0
  -22.5447   -1.1017  -13.9062 C   0  0  0  0  0  0  0  0  0  0  0  0
  -23.7457   -1.4594  -13.2881 C   0  0  0  0  0  0  0  0  0  0  0  0
  7  8  1  0  0  0
  8  9  1  0  0  0
  8 17  2  0  0  0
  9 10  1  0  0  0
 10 11  1  0  0  0
 10 16  2  0  0  0
 11 12  2  0  0  0
 12 13  1  0  0  0
 13 14  2  0  0  0
 14 15  1  0  0  0
 14 16  1  0  0  0
 15 18  1  0  0  0
 15 19  1  0  0  0
 16 17  1  0  0  0
 17  1  1  0  0  0
  1  2  1  0  0  0
  1  6  2  0  0  0
  2  3  2  0  0  0
  3  4  1  0  0  0
  4 20  1  0  0  0
  4  5  2  0  0  0
 20 21  1  0  0  0
 20 24  1  0  0  0
 21 22  2  0  0  0
 21 23  1  0  0  0
 23 26  1  0  0  0
 23 25  1  0  0  0
 26 27  1  0  0  0
 26 32  2  0  0  0
 27 28  2  0  0  0
 28 29  1  0  0  0
 29 30  1  0  0  0
 29 31  2  0  0  0
 31 32  1  0  0  0
  5  6  1  0  0  0
M  END
> <minimizedAffinity>
-9.39547

$$$$
