CHEMBL240430


 41 46  0  0  0  0  0  0  0  0999 V2000
  -13.7786   -2.7938  -12.8468 C   0  0  0  0  0  0  0  0  0  0  0  0
  -14.7552   -1.8385  -12.5678 C   0  0  0  0  0  0  0  0  0  0  0  0
  -15.2636   -2.0316  -11.3301 O   0  0  0  0  0  0  0  0  0  0  0  0
  -14.6646   -3.1292  -10.7961 C   0  0  0  0  0  0  0  0  0  0  0  0
  -15.0001   -3.6168   -9.5858 N   0  0  0  0  0  0  0  0  0  0  0  0
  -14.2903   -4.7053   -9.2416 C   0  0  0  0  0  0  0  0  0  0  0  0
  -13.2805   -5.2864   -9.9926 C   0  0  0  0  0  0  0  0  0  0  0  0
  -12.9195   -4.7307  -11.2299 C   0  0  0  0  0  0  0  0  0  0  0  0
  -13.6966   -3.6172  -11.6725 C   0  0  0  0  0  0  0  0  0  0  0  0
  -11.6624   -3.2324  -16.5501 C   0  0  0  0  0  0  0  0  0  0  0  0
  -12.8630   -3.9070  -16.3533 C   0  0  0  0  0  0  0  0  0  0  0  0
  -13.5942   -3.7064  -15.1787 C   0  0  0  0  0  0  0  0  0  0  0  0
  -13.0867   -2.9118  -14.1396 C   0  0  0  0  0  0  0  0  0  0  0  0
  -11.8526   -2.2794  -14.3391 C   0  0  0  0  0  0  0  0  0  0  0  0
  -11.1694   -2.3965  -15.5532 C   0  0  0  0  0  0  0  0  0  0  0  0
  -15.3407   -0.7263  -13.3116 C   0  0  0  0  0  0  0  0  0  0  0  0
  -16.5782   -0.8971  -13.9322 C   0  0  0  0  0  0  0  0  0  0  0  0
  -17.0474    0.0148  -14.8659 C   0  0  0  0  0  0  0  0  0  0  0  0
  -16.3534    1.1992  -15.1060 C   0  0  0  0  0  0  0  0  0  0  0  0
  -15.1478    1.4255  -14.4400 C   0  0  0  0  0  0  0  0  0  0  0  0
  -14.6408    0.4604  -13.5462 C   0  0  0  0  0  0  0  0  0  0  0  0
  -16.7819    2.1897  -15.9553 O   0  0  0  0  0  0  0  0  0  0  0  0
  -17.5069    3.2315  -15.2858 C   0  0  0  0  0  0  0  0  0  0  0  0
  -18.7173    2.6848  -14.5223 C   0  0  0  0  0  0  0  0  0  0  0  0
  -19.8294    2.2978  -15.4133 N   0  0  0  0  0  0  0  0  0  0  0  0
  -20.9139    3.3077  -15.3975 C   0  0  0  0  0  0  0  0  0  0  0  0
  -21.8284    3.2318  -14.1608 C   0  0  0  0  0  0  0  0  0  0  0  0
  -22.3846    1.9233  -13.9917 O   0  0  0  0  0  0  0  0  0  0  0  0
  -21.3442    0.9441  -13.8889 C   0  0  0  0  0  0  0  0  0  0  0  0
  -20.4366    0.9751  -15.1291 C   0  0  0  0  0  0  0  0  0  0  0  0
  -11.7932   -5.1997  -11.9146 N   0  0  0  0  0  0  0  0  0  0  0  0
  -11.6050   -4.6694  -12.7613 H   0  0  0  0  0  0  0  0  0  0  0  0
  -11.5971   -6.6420  -12.0919 C   0  0  0  0  0  0  0  0  0  0  0  0
  -12.0323   -7.0188  -13.5257 C   0  0  0  0  0  0  0  0  0  0  0  0
  -12.9641   -8.1598  -13.6337 N   0  0  0  0  0  0  0  0  0  0  0  0
  -13.3883   -8.3295  -15.0443 C   0  0  0  0  0  0  0  0  0  0  0  0
  -14.3949   -7.2638  -15.5482 C   0  0  0  0  0  0  0  0  0  0  0  0
  -15.5674   -7.0899  -14.6718 N   0  0  0  0  0  0  0  0  0  0  0  0
  -15.1365   -6.9024  -13.2778 C   0  0  0  0  0  0  0  0  0  0  0  0
  -14.1726   -8.0101  -12.7993 C   0  0  0  0  0  0  0  0  0  0  0  0
  -16.1128   -7.9499  -14.7147 H   0  0  0  0  0  0  0  0  0  0  0  0
 10 11  1  0  0  0
 10 15  2  0  0  0
 11 12  2  0  0  0
 12 13  1  0  0  0
 13  1  1  0  0  0
 13 14  2  0  0  0
  1  2  2  0  0  0
  1  9  1  0  0  0
  2 16  1  0  0  0
  2  3  1  0  0  0
 16 17  1  0  0  0
 16 21  2  0  0  0
 17 18  2  0  0  0
 18 19  1  0  0  0
 19 22  1  0  0  0
 19 20  2  0  0  0
 22 23  1  0  0  0
 23 24  1  0  0  0
 24 25  1  0  0  0
 25 26  1  0  0  0
 25 30  1  0  0  0
 26 27  1  0  0  0
 27 28  1  0  0  0
 28 29  1  0  0  0
 29 30  1  0  0  0
 20 21  1  0  0  0
  3  4  1  0  0  0
  4  5  1  0  0  0
  4  9  2  0  0  0
  5  6  2  0  0  0
  6  7  1  0  0  0
  7  8  2  0  0  0
  8 31  1  0  0  0
  8  9  1  0  0  0
 31 33  1  0  0  0
 31 32  1  0  0  0
 33 34  1  0  0  0
 34 35  1  0  0  0
 35 36  1  0  0  0
 35 40  1  0  0  0
 36 37  1  0  0  0
 37 38  1  0  0  0
 38 39  1  0  0  0
 38 41  1  0  0  0
 39 40  1  0  0  0
 14 15  1  0  0  0
M  END
> <minimizedAffinity>
-7.37501

$$$$
