CHEMBL3671557


 36 38  0  0  0  0  0  0  0  0999 V2000
  -17.9299    1.0010  -15.0487 C   0  0  0  0  0  0  0  0  0  0  0  0
  -19.2346    0.5205  -14.8784 C   0  0  0  0  0  0  0  0  0  0  0  0
  -20.3004    1.4124  -14.6376 C   0  0  0  0  0  0  0  0  0  0  0  0
  -21.6149    1.0173  -14.3063 C   0  0  0  0  0  0  0  0  0  0  0  0
  -22.6080    1.9073  -14.1538 N   0  0  0  0  0  0  0  0  0  0  0  0
  -22.2843    3.1991  -14.2731 C   0  0  0  0  0  0  0  0  0  0  0  0
  -21.0640    3.6864  -14.5416 N   0  0  0  0  0  0  0  0  0  0  0  0
  -20.0836    2.7968  -14.7104 C   0  0  0  0  0  0  0  0  0  0  0  0
  -18.7888    3.2477  -14.9735 C   0  0  0  0  0  0  0  0  0  0  0  0
  -17.7053    2.3778  -15.1464 C   0  0  0  0  0  0  0  0  0  0  0  0
  -16.1301   -0.0281  -13.8326 C   0  0  0  0  0  0  0  0  0  0  0  0
  -16.3176    0.6061  -12.8066 O   0  0  0  0  0  0  0  0  0  0  0  0
  -16.8798    0.0596  -14.9979 N   0  0  0  0  0  0  0  0  0  0  0  0
  -17.0798   -0.8521  -15.3954 H   0  0  0  0  0  0  0  0  0  0  0  0
  -15.2624   -2.3238  -13.5774 C   0  0  0  0  0  0  0  0  0  0  0  0
  -15.0481   -1.0534  -13.9377 C   0  0  0  0  0  0  0  0  0  0  0  0
  -21.8971   -0.3532  -14.1031 N   0  0  0  0  0  0  0  0  0  0  0  0
  -21.0503   -0.9109  -14.0490 H   0  0  0  0  0  0  0  0  0  0  0  0
  -22.9907   -0.9212  -13.4171 C   0  0  0  0  0  0  0  0  0  0  0  0
  -22.8803   -1.2971  -12.0733 C   0  0  0  0  0  0  0  0  0  0  0  0
  -24.0172   -1.5631  -11.3091 C   0  0  0  0  0  0  0  0  0  0  0  0
  -25.2789   -1.4933  -11.8954 C   0  0  0  0  0  0  0  0  0  0  0  0
  -26.8185   -1.6519  -10.8110 Br  0  0  0  0  0  0  0  0  0  0  0  0
  -25.4095   -1.2422  -13.2577 C   0  0  0  0  0  0  0  0  0  0  0  0
  -24.2663   -0.9589  -14.0034 C   0  0  0  0  0  0  0  0  0  0  0  0
  -24.4049   -0.6714  -15.3083 F   0  0  0  0  0  0  0  0  0  0  0  0
  -16.4978    2.9905  -15.4100 O   0  0  0  0  0  0  0  0  0  0  0  0
  -16.6009    4.2932  -15.9979 C   0  0  0  0  0  0  0  0  0  0  0  0
  -15.6297    4.4942  -17.1599 C   0  0  0  0  0  0  0  0  0  0  0  0
  -14.1737    4.3438  -16.7273 C   0  0  0  0  0  0  0  0  0  0  0  0
  -14.0215    4.7927  -15.3389 N   0  0  0  0  0  0  0  0  0  0  0  0
  -14.8006    4.4480  -14.7787 H   0  0  0  0  0  0  0  0  0  0  0  0
  -12.7561    4.2934  -14.7883 C   0  0  0  0  0  0  0  0  0  0  0  0
  -12.7016    2.7783  -14.9085 C   0  0  0  0  0  0  0  0  0  0  0  0
  -13.0552    2.1058  -13.6065 C   0  0  0  0  0  0  0  0  0  0  0  0
  -12.8688    2.5918  -12.4964 O   0  0  0  0  0  0  0  0  0  0  0  0
 15 16  2  0  0  0
 16 11  1  0  0  0
 11 12  2  0  0  0
 11 13  1  0  0  0
 13  1  1  0  0  0
 13 14  1  0  0  0
  1  2  1  0  0  0
  1 10  2  0  0  0
  2  3  2  0  0  0
  3  4  1  0  0  0
  3  8  1  0  0  0
  4 17  1  0  0  0
  4  5  2  0  0  0
 17 19  1  0  0  0
 17 18  1  0  0  0
 19 20  1  0  0  0
 19 25  2  0  0  0
 20 21  2  0  0  0
 21 22  1  0  0  0
 22 23  1  0  0  0
 22 24  2  0  0  0
 24 25  1  0  0  0
 25 26  1  0  0  0
  5  6  1  0  0  0
  6  7  2  0  0  0
  7  8  1  0  0  0
  8  9  2  0  0  0
  9 10  1  0  0  0
 10 27  1  0  0  0
 27 28  1  0  0  0
 28 29  1  0  0  0
 29 30  1  0  0  0
 30 31  1  0  0  0
 31 33  1  0  0  0
 31 32  1  0  0  0
 33 34  1  0  0  0
 34 35  1  0  0  0
 35 36  2  0  0  0
M  END
> <minimizedAffinity>
-8.86094

$$$$
