CHEMBL3690540


 34 37  0  0  0  0  0  0  0  0999 V2000
  -27.6396   -1.9551   -9.0013 C   0  0  0  0  0  0  0  0  0  0  0  0
  -28.0638   -3.3338   -8.7170 C   0  0  0  0  0  0  0  0  0  0  0  0
  -28.5590   -3.6647   -7.5134 C   0  0  0  0  0  0  0  0  0  0  0  0
  -28.6782   -2.6916   -6.5223 N   0  0  0  0  0  0  0  0  0  0  0  0
  -29.1853   -2.7537   -5.2274 C   0  0  0  0  0  0  0  0  0  0  0  0
  -28.9633   -1.4745   -4.7299 C   0  0  0  0  0  0  0  0  0  0  0  0
  -28.3847   -0.6456   -5.6472 N   0  0  0  0  0  0  0  0  0  0  0  0
  -28.2305   -1.3847   -6.7215 C   0  0  0  0  0  0  0  0  0  0  0  0
  -27.6897   -1.0468   -7.9965 C   0  0  0  0  0  0  0  0  0  0  0  0
  -29.7843   -3.9050   -4.5297 C   0  0  0  0  0  0  0  0  0  0  0  0
  -31.1742   -3.9113   -4.3328 C   0  0  0  0  0  0  0  0  0  0  0  0
  -31.8096   -4.9950   -3.7349 C   0  0  0  0  0  0  0  0  0  0  0  0
  -31.0674   -6.0984   -3.3246 C   0  0  0  0  0  0  0  0  0  0  0  0
  -29.6870   -6.1434   -3.5221 C   0  0  0  0  0  0  0  0  0  0  0  0
  -29.0515   -5.0368   -4.1202 C   0  0  0  0  0  0  0  0  0  0  0  0
  -28.8976   -7.2640   -3.1549 N   0  0  0  0  0  0  0  0  0  0  0  0
  -28.1629   -8.0601   -4.0098 C   0  0  0  0  0  0  0  0  0  0  0  0
  -28.0416   -7.9278   -5.2229 O   0  0  0  0  0  0  0  0  0  0  0  0
  -27.5616   -9.1160   -3.3612 N   0  0  0  0  0  0  0  0  0  0  0  0
  -28.8418   -7.4809   -2.1717 H   0  0  0  0  0  0  0  0  0  0  0  0
  -27.3021   -8.9747   -2.3955 H   0  0  0  0  0  0  0  0  0  0  0  0
  -26.7062  -10.0127   -4.1549 C   0  0  0  0  0  0  0  0  0  0  0  0
  -25.1936   -9.7492   -4.0813 C   0  0  0  0  0  0  0  0  0  0  0  0
  -24.6742   -9.4241   -5.2879 F   0  0  0  0  0  0  0  0  0  0  0  0
  -24.9518   -8.6975   -3.2580 F   0  0  0  0  0  0  0  0  0  0  0  0
  -24.5080  -10.8031   -3.5945 F   0  0  0  0  0  0  0  0  0  0  0  0
  -26.4101   -2.3610  -11.1159 C   0  0  0  0  0  0  0  0  0  0  0  0
  -27.0747   -1.5409  -10.2839 C   0  0  0  0  0  0  0  0  0  0  0  0
  -23.4986   -1.7224  -11.4843 C   0  0  0  0  0  0  0  0  0  0  0  0
  -24.5378   -1.5881  -12.4794 N   0  0  0  0  0  0  0  0  0  0  0  0
  -24.3250   -1.1328  -13.7534 C   0  0  0  0  0  0  0  0  0  0  0  0
  -25.5609   -1.1526  -14.3491 C   0  0  0  0  0  0  0  0  0  0  0  0
  -26.5102   -1.6071  -13.4746 N   0  0  0  0  0  0  0  0  0  0  0  0
  -25.8830   -1.8715  -12.3414 C   0  0  0  0  0  0  0  0  0  0  0  0
 29 30  1  0  0  0
 30 31  1  0  0  0
 30 34  1  0  0  0
 31 32  2  0  0  0
 32 33  1  0  0  0
 33 34  2  0  0  0
 34 27  1  0  0  0
 27 28  2  0  0  0
 28  1  1  0  0  0
  1  2  1  0  0  0
  1  9  2  0  0  0
  2  3  2  0  0  0
  3  4  1  0  0  0
  4  5  1  0  0  0
  4  8  1  0  0  0
  5 10  1  0  0  0
  5  6  2  0  0  0
 10 11  1  0  0  0
 10 15  2  0  0  0
 11 12  2  0  0  0
 12 13  1  0  0  0
 13 14  2  0  0  0
 14 16  1  0  0  0
 14 15  1  0  0  0
 16 17  1  0  0  0
 16 20  1  0  0  0
 17 18  2  0  0  0
 17 19  1  0  0  0
 19 22  1  0  0  0
 19 21  1  0  0  0
 22 23  1  0  0  0
 23 24  1  0  0  0
 23 25  1  0  0  0
 23 26  1  0  0  0
  6  7  1  0  0  0
  7  8  2  0  0  0
  8  9  1  0  0  0
M  END
> <minimizedAffinity>
-9.49467

$$$$
