CHEMBL178981


 35 38  0  0  0  0  0  0  0  0999 V2000
  -23.2492   -1.1984  -13.7363 C   0  0  0  0  0  0  0  0  0  0  0  0
  -24.4919   -1.1507  -14.3592 C   0  0  0  0  0  0  0  0  0  0  0  0
  -25.6410   -1.4919  -13.6366 C   0  0  0  0  0  0  0  0  0  0  0  0
  -25.5626   -1.9748  -12.3255 C   0  0  0  0  0  0  0  0  0  0  0  0
  -24.2935   -2.1817  -11.7737 C   0  0  0  0  0  0  0  0  0  0  0  0
  -23.1428   -1.7907  -12.4747 C   0  0  0  0  0  0  0  0  0  0  0  0
  -26.6946   -2.2134  -11.5105 N   0  0  0  0  0  0  0  0  0  0  0  0
  -26.8041   -1.8974  -10.1662 C   0  0  0  0  0  0  0  0  0  0  0  0
  -25.9818   -1.2555   -9.5220 O   0  0  0  0  0  0  0  0  0  0  0  0
  -27.9529   -2.4271   -9.5907 N   0  0  0  0  0  0  0  0  0  0  0  0
  -27.4958   -2.6522  -11.9418 H   0  0  0  0  0  0  0  0  0  0  0  0
  -28.1962   -3.3545   -9.9188 H   0  0  0  0  0  0  0  0  0  0  0  0
  -28.2207   -2.1903   -8.2085 C   0  0  0  0  0  0  0  0  0  0  0  0
  -28.1872   -0.8833   -7.6983 C   0  0  0  0  0  0  0  0  0  0  0  0
  -28.3633   -0.6428   -6.3368 C   0  0  0  0  0  0  0  0  0  0  0  0
  -28.5803   -1.7099   -5.4697 C   0  0  0  0  0  0  0  0  0  0  0  0
  -28.6451   -3.0169   -5.9661 C   0  0  0  0  0  0  0  0  0  0  0  0
  -28.8926   -4.2874   -4.8186 Cl  0  0  0  0  0  0  0  0  0  0  0  0
  -28.4853   -3.2637   -7.3391 C   0  0  0  0  0  0  0  0  0  0  0  0
  -28.5215   -4.8779   -7.9770 Cl  0  0  0  0  0  0  0  0  0  0  0  0
  -22.0974   -0.6520  -14.2536 O   0  0  0  0  0  0  0  0  0  0  0  0
  -18.2734    2.8984  -14.8665 C   0  0  0  0  0  0  0  0  0  0  0  0
  -19.5062    3.5176  -14.5909 C   0  0  0  0  0  0  0  0  0  0  0  0
  -20.6833    2.8065  -14.3981 C   0  0  0  0  0  0  0  0  0  0  0  0
  -21.7772    3.4909  -14.0272 N   0  0  0  0  0  0  0  0  0  0  0  0
  -22.9080    2.8114  -13.7597 C   0  0  0  0  0  0  0  0  0  0  0  0
  -23.0083    1.4432  -13.8402 C   0  0  0  0  0  0  0  0  0  0  0  0
  -21.8765    0.7178  -14.2296 C   0  0  0  0  0  0  0  0  0  0  0  0
  -20.6787    1.4094  -14.5734 C   0  0  0  0  0  0  0  0  0  0  0  0
  -19.4792    0.8267  -15.0458 C   0  0  0  0  0  0  0  0  0  0  0  0
  -18.2677    1.5234  -15.1125 C   0  0  0  0  0  0  0  0  0  0  0  0
  -16.6558    3.9443  -16.2541 C   0  0  0  0  0  0  0  0  0  0  0  0
  -17.0985    3.5954  -14.9429 O   0  0  0  0  0  0  0  0  0  0  0  0
  -17.2269    0.6862  -15.3959 O   0  0  0  0  0  0  0  0  0  0  0  0
  -16.3554    0.2506  -14.3668 C   0  0  0  0  0  0  0  0  0  0  0  0
 32 33  1  0  0  0
 33 22  1  0  0  0
 22 23  1  0  0  0
 22 31  2  0  0  0
 23 24  2  0  0  0
 24 25  1  0  0  0
 24 29  1  0  0  0
 25 26  2  0  0  0
 26 27  1  0  0  0
 27 28  2  0  0  0
 28 21  1  0  0  0
 28 29  1  0  0  0
 21  1  1  0  0  0
  1  2  1  0  0  0
  1  6  2  0  0  0
  2  3  2  0  0  0
  3  4  1  0  0  0
  4  7  1  0  0  0
  4  5  2  0  0  0
  7  8  1  0  0  0
  7 11  1  0  0  0
  8  9  2  0  0  0
  8 10  1  0  0  0
 10 13  1  0  0  0
 10 12  1  0  0  0
 13 14  1  0  0  0
 13 19  2  0  0  0
 14 15  2  0  0  0
 15 16  1  0  0  0
 16 17  2  0  0  0
 17 18  1  0  0  0
 17 19  1  0  0  0
 19 20  1  0  0  0
  5  6  1  0  0  0
 29 30  2  0  0  0
 30 31  1  0  0  0
 31 34  1  0  0  0
 34 35  1  0  0  0
M  END
> <minimizedAffinity>
-11.08528

$$$$
