CHEMBL2088111


 26 28  0  0  0  0  0  0  0  0999 V2000
  -29.0838   -3.2798   -6.9256 C   0  0  0  0  0  0  0  0  0  0  0  0
  -28.5938   -3.5208   -8.1691 N   0  0  0  0  0  0  0  0  0  0  0  0
  -27.6978   -2.6615   -8.6802 C   0  0  0  0  0  0  0  0  0  0  0  0
  -27.2796   -1.5583   -8.0556 N   0  0  0  0  0  0  0  0  0  0  0  0
  -27.8064   -1.3186   -6.8427 C   0  0  0  0  0  0  0  0  0  0  0  0
  -28.7195   -2.1413   -6.2176 C   0  0  0  0  0  0  0  0  0  0  0  0
  -29.4881   -1.5181   -4.6029 Br  0  0  0  0  0  0  0  0  0  0  0  0
  -30.0200   -4.2249   -6.4708 N   0  0  0  0  0  0  0  0  0  0  0  0
  -30.8084   -4.2264   -7.1100 H   0  0  0  0  0  0  0  0  0  0  0  0
  -28.6646   -7.0618   -4.9207 C   0  0  0  0  0  0  0  0  0  0  0  0
  -28.5000   -5.8014   -5.4518 C   0  0  0  0  0  0  0  0  0  0  0  0
  -29.8045   -5.3506   -5.7557 C   0  0  0  0  0  0  0  0  0  0  0  0
  -30.7238   -6.1956   -5.2796 N   0  0  0  0  0  0  0  0  0  0  0  0
  -30.0140   -7.2264   -4.7990 N   0  0  0  0  0  0  0  0  0  0  0  0
  -30.5199   -8.0297   -4.4421 H   0  0  0  0  0  0  0  0  0  0  0  0
  -27.6661   -9.2046   -5.6710 C   0  0  0  0  0  0  0  0  0  0  0  0
  -27.6843   -8.1317   -4.5897 C   0  0  0  0  0  0  0  0  0  0  0  0
  -27.1540   -2.8584   -9.9438 N   0  0  0  0  0  0  0  0  0  0  0  0
  -27.7151   -3.5890  -10.3686 H   0  0  0  0  0  0  0  0  0  0  0  0
  -27.0957   -1.6445  -10.7436 C   0  0  0  0  0  0  0  0  0  0  0  0
  -25.8119   -1.5916  -11.5601 C   0  0  0  0  0  0  0  0  0  0  0  0
  -25.8665   -1.4931  -12.9512 C   0  0  0  0  0  0  0  0  0  0  0  0
  -24.6782   -1.4855  -13.6778 C   0  0  0  0  0  0  0  0  0  0  0  0
  -23.4678   -1.5757  -13.0021 C   0  0  0  0  0  0  0  0  0  0  0  0
  -23.4977   -1.6647  -11.6209 C   0  0  0  0  0  0  0  0  0  0  0  0
  -24.6334   -1.6722  -10.8888 N   0  0  0  0  0  0  0  0  0  0  0  0
 16 17  1  0  0  0
 17 10  1  0  0  0
 10 11  2  0  0  0
 10 14  1  0  0  0
 11 12  1  0  0  0
 12  8  1  0  0  0
 12 13  2  0  0  0
  8  1  1  0  0  0
  8  9  1  0  0  0
  1  2  1  0  0  0
  1  6  2  0  0  0
  2  3  2  0  0  0
  3 18  1  0  0  0
  3  4  1  0  0  0
 18 20  1  0  0  0
 18 19  1  0  0  0
 20 21  1  0  0  0
 21 22  1  0  0  0
 21 26  2  0  0  0
 22 23  2  0  0  0
 23 24  1  0  0  0
 24 25  2  0  0  0
 25 26  1  0  0  0
  4  5  2  0  0  0
  5  6  1  0  0  0
  6  7  1  0  0  0
 13 14  1  0  0  0
 14 15  1  0  0  0
M  END
> <minimizedAffinity>
-8.16282

$$$$
