CHEMBL3656045


 34 37  0  0  0  0  0  0  0  0999 V2000
  -19.4552    1.0328  -15.8651 O   0  0  0  0  0  0  0  0  0  0  0  0
  -22.3488    0.9618  -13.5850 C   0  0  0  0  0  0  0  0  0  0  0  0
  -21.2625    0.5013  -14.3142 C   0  0  0  0  0  0  0  0  0  0  0  0
  -20.5227    1.3976  -15.0730 C   0  0  0  0  0  0  0  0  0  0  0  0
  -20.8315    2.7458  -14.9961 C   0  0  0  0  0  0  0  0  0  0  0  0
  -21.9222    3.1245  -14.2219 C   0  0  0  0  0  0  0  0  0  0  0  0
  -22.7080    2.2615  -13.5322 N   0  0  0  0  0  0  0  0  0  0  0  0
  -24.8169   -1.0080  -11.6359 C   0  0  0  0  0  0  0  0  0  0  0  0
  -23.7020   -1.8290  -11.6690 C   0  0  0  0  0  0  0  0  0  0  0  0
  -22.7322   -1.2187  -12.4294 N   0  0  0  0  0  0  0  0  0  0  0  0
  -23.1664    0.0217  -12.8287 C   0  0  0  0  0  0  0  0  0  0  0  0
  -24.4677    0.1455  -12.3813 C   0  0  0  0  0  0  0  0  0  0  0  0
  -21.8159   -1.5915  -12.6515 H   0  0  0  0  0  0  0  0  0  0  0  0
  -26.0913   -1.2330  -10.9737 C   0  0  0  0  0  0  0  0  0  0  0  0
  -26.1654   -1.6543   -9.8169 O   0  0  0  0  0  0  0  0  0  0  0  0
  -27.4784   -1.9804  -12.6895 C   0  0  0  0  0  0  0  0  0  0  0  0
  -27.1674   -0.9481  -11.7546 O   0  0  0  0  0  0  0  0  0  0  0  0
  -18.1793    1.4377  -15.5176 C   0  0  0  0  0  0  0  0  0  0  0  0
  -17.5869    2.6123  -15.9868 C   0  0  0  0  0  0  0  0  0  0  0  0
  -16.2629    2.9099  -15.6743 C   0  0  0  0  0  0  0  0  0  0  0  0
  -15.5515    2.0950  -14.7935 C   0  0  0  0  0  0  0  0  0  0  0  0
  -16.1796    0.9908  -14.2108 C   0  0  0  0  0  0  0  0  0  0  0  0
  -17.4850    0.6399  -14.6071 C   0  0  0  0  0  0  0  0  0  0  0  0
  -15.5227    0.1393  -13.1773 C   0  0  0  0  0  0  0  0  0  0  0  0
  -14.6809    0.6725  -12.4736 O   0  0  0  0  0  0  0  0  0  0  0  0
  -15.8612   -1.2131  -13.1753 N   0  0  0  0  0  0  0  0  0  0  0  0
  -16.4375   -1.5626  -13.9277 H   0  0  0  0  0  0  0  0  0  0  0  0
  -15.2772   -2.1879  -12.3262 C   0  0  0  0  0  0  0  0  0  0  0  0
  -15.8234   -2.5271  -11.0846 C   0  0  0  0  0  0  0  0  0  0  0  0
  -15.2082   -3.4708  -10.2628 C   0  0  0  0  0  0  0  0  0  0  0  0
  -14.0456   -4.1088  -10.6811 C   0  0  0  0  0  0  0  0  0  0  0  0
  -13.4971   -3.8178  -11.9347 C   0  0  0  0  0  0  0  0  0  0  0  0
  -12.2696   -4.5455  -12.4027 C   0  0  0  0  0  0  0  0  0  0  0  0
  -14.1136   -2.8480  -12.7492 C   0  0  0  0  0  0  0  0  0  0  0  0
 16 17  1  0  0  0
 17 14  1  0  0  0
 14 15  2  0  0  0
 14  8  1  0  0  0
  8  9  2  0  0  0
  8 12  1  0  0  0
  9 10  1  0  0  0
 10 11  1  0  0  0
 10 13  1  0  0  0
 11  2  1  0  0  0
 11 12  2  0  0  0
  2  3  1  0  0  0
  2  7  2  0  0  0
  3  4  2  0  0  0
  4  1  1  0  0  0
  4  5  1  0  0  0
  1 18  1  0  0  0
 18 19  1  0  0  0
 18 23  2  0  0  0
 19 20  2  0  0  0
 20 21  1  0  0  0
 21 22  2  0  0  0
 22 24  1  0  0  0
 22 23  1  0  0  0
 24 25  2  0  0  0
 24 26  1  0  0  0
 26 28  1  0  0  0
 26 27  1  0  0  0
 28 29  1  0  0  0
 28 34  2  0  0  0
 29 30  2  0  0  0
 30 31  1  0  0  0
 31 32  2  0  0  0
 32 33  1  0  0  0
 32 34  1  0  0  0
  5  6  2  0  0  0
  6  7  1  0  0  0
M  END
> <minimizedAffinity>
-9.86582

$$$$
