CHEMBL3660271


 43 46  0  0  0  0  0  0  0  0999 V2000
  -20.2866    2.0132  -14.7179 C   0  0  0  0  0  0  0  0  0  0  0  0
  -20.7676    0.7142  -14.7931 C   0  0  0  0  0  0  0  0  0  0  0  0
  -22.0516    0.4414  -14.3264 C   0  0  0  0  0  0  0  0  0  0  0  0
  -22.8506    1.4947  -13.9025 C   0  0  0  0  0  0  0  0  0  0  0  0
  -22.3026    2.7694  -13.9004 C   0  0  0  0  0  0  0  0  0  0  0  0
  -21.0330    3.0533  -14.2779 N   0  0  0  0  0  0  0  0  0  0  0  0
  -16.6472    2.3231  -15.4488 C   0  0  0  0  0  0  0  0  0  0  0  0
  -17.1042    3.6295  -15.4655 C   0  0  0  0  0  0  0  0  0  0  0  0
  -18.4553    3.6209  -15.2255 N   0  0  0  0  0  0  0  0  0  0  0  0
  -18.9026    2.3294  -15.0602 C   0  0  0  0  0  0  0  0  0  0  0  0
  -17.7944    1.5118  -15.2219 C   0  0  0  0  0  0  0  0  0  0  0  0
  -19.0539    4.4321  -15.1311 H   0  0  0  0  0  0  0  0  0  0  0  0
  -15.2660    1.8651  -15.5493 C   0  0  0  0  0  0  0  0  0  0  0  0
  -14.3846    2.4942  -16.1231 O   0  0  0  0  0  0  0  0  0  0  0  0
  -15.1103    0.5979  -15.0742 O   0  0  0  0  0  0  0  0  0  0  0  0
  -14.6832    0.5549  -13.7120 C   0  0  0  0  0  0  0  0  0  0  0  0
  -15.6592   -0.1672  -12.7964 C   0  0  0  0  0  0  0  0  0  0  0  0
  -15.0722   -1.4266  -12.4618 O   0  0  0  0  0  0  0  0  0  0  0  0
  -15.7211   -2.0518  -11.3597 C   0  0  0  0  0  0  0  0  0  0  0  0
  -14.9524   -3.3126  -10.9732 C   0  0  0  0  0  0  0  0  0  0  0  0
  -16.5645   -4.8565  -11.7287 C   0  0  0  0  0  0  0  0  0  0  0  0
  -15.8790   -4.3318  -10.5998 O   0  0  0  0  0  0  0  0  0  0  0  0
  -22.6000   -0.8276  -14.2852 O   0  0  0  0  0  0  0  0  0  0  0  0
  -23.6978   -1.0489  -13.4774 C   0  0  0  0  0  0  0  0  0  0  0  0
  -23.6266   -1.0658  -12.0886 C   0  0  0  0  0  0  0  0  0  0  0  0
  -24.7452   -1.4156  -11.3340 C   0  0  0  0  0  0  0  0  0  0  0  0
  -25.9797   -1.6779  -11.9361 C   0  0  0  0  0  0  0  0  0  0  0  0
  -26.0721   -1.5532  -13.3279 C   0  0  0  0  0  0  0  0  0  0  0  0
  -24.9343   -1.2432  -14.0955 C   0  0  0  0  0  0  0  0  0  0  0  0
  -27.1216   -2.0891  -11.2025 N   0  0  0  0  0  0  0  0  0  0  0  0
  -27.2413   -2.0595   -9.8269 C   0  0  0  0  0  0  0  0  0  0  0  0
  -26.4171   -1.5624   -9.0642 O   0  0  0  0  0  0  0  0  0  0  0  0
  -28.3880   -2.6937   -9.3673 N   0  0  0  0  0  0  0  0  0  0  0  0
  -27.9388   -2.3739  -11.7216 H   0  0  0  0  0  0  0  0  0  0  0  0
  -28.6383   -3.5315   -9.8788 H   0  0  0  0  0  0  0  0  0  0  0  0
  -28.6138   -2.7641   -7.9646 C   0  0  0  0  0  0  0  0  0  0  0  0
  -28.5533   -1.6261   -7.1566 C   0  0  0  0  0  0  0  0  0  0  0  0
  -28.6340   -1.7264   -5.7593 C   0  0  0  0  0  0  0  0  0  0  0  0
  -28.5259   -0.5003   -4.8963 C   0  0  0  0  0  0  0  0  0  0  0  0
  -28.7843   -2.9924   -5.1790 C   0  0  0  0  0  0  0  0  0  0  0  0
  -28.8870   -4.1301   -5.9839 C   0  0  0  0  0  0  0  0  0  0  0  0
  -28.8240   -4.0061   -7.3692 C   0  0  0  0  0  0  0  0  0  0  0  0
  -28.8862   -5.1092   -8.1314 F   0  0  0  0  0  0  0  0  0  0  0  0
 21 22  1  0  0  0
 22 20  1  0  0  0
 20 19  1  0  0  0
 19 18  1  0  0  0
 18 17  1  0  0  0
 17 16  1  0  0  0
 16 15  1  0  0  0
 15 13  1  0  0  0
 13 14  2  0  0  0
 13  7  1  0  0  0
  7  8  2  0  0  0
  7 11  1  0  0  0
  8  9  1  0  0  0
  9 10  1  0  0  0
  9 12  1  0  0  0
 10  1  1  0  0  0
 10 11  2  0  0  0
  1  2  1  0  0  0
  1  6  2  0  0  0
  2  3  2  0  0  0
  3 23  1  0  0  0
  3  4  1  0  0  0
 23 24  1  0  0  0
 24 25  1  0  0  0
 24 29  2  0  0  0
 25 26  2  0  0  0
 26 27  1  0  0  0
 27 30  1  0  0  0
 27 28  2  0  0  0
 30 31  1  0  0  0
 30 34  1  0  0  0
 31 32  2  0  0  0
 31 33  1  0  0  0
 33 36  1  0  0  0
 33 35  1  0  0  0
 36 37  1  0  0  0
 36 42  2  0  0  0
 37 38  2  0  0  0
 38 39  1  0  0  0
 38 40  1  0  0  0
 40 41  2  0  0  0
 41 42  1  0  0  0
 42 43  1  0  0  0
 28 29  1  0  0  0
  4  5  2  0  0  0
  5  6  1  0  0  0
M  END
> <minimizedAffinity>
-10.39408

$$$$
