CHEMBL1978167


 21 24  0  0  0  0  0  0  0  0999 V2000
  -27.1262   -2.1791   -9.9411 C   0  0  0  0  0  0  0  0  0  0  0  0
  -27.3802   -1.2420   -8.9512 C   0  0  0  0  0  0  0  0  0  0  0  0
  -27.8975   -1.9328   -7.8308 C   0  0  0  0  0  0  0  0  0  0  0  0
  -28.3353   -1.4737   -6.6286 N   0  0  0  0  0  0  0  0  0  0  0  0
  -28.7875   -2.4638   -5.8224 C   0  0  0  0  0  0  0  0  0  0  0  0
  -29.4788   -1.9685   -4.1246 Br  0  0  0  0  0  0  0  0  0  0  0  0
  -28.7886   -3.8116   -6.1759 C   0  0  0  0  0  0  0  0  0  0  0  0
  -28.3445   -4.2938   -7.3668 N   0  0  0  0  0  0  0  0  0  0  0  0
  -27.9164   -3.2856   -8.1542 C   0  0  0  0  0  0  0  0  0  0  0  0
  -27.4324   -3.4128   -9.4230 N   0  0  0  0  0  0  0  0  0  0  0  0
  -27.3408   -4.2995   -9.8906 H   0  0  0  0  0  0  0  0  0  0  0  0
  -27.1520   -1.4359  -14.8641 C   0  0  0  0  0  0  0  0  0  0  0  0
  -26.6517   -1.6008  -13.5172 N   0  0  0  0  0  0  0  0  0  0  0  0
  -27.4228   -1.9184  -12.4323 C   0  0  0  0  0  0  0  0  0  0  0  0
  -26.6136   -1.9151  -11.3163 C   0  0  0  0  0  0  0  0  0  0  0  0
  -25.2792   -1.6290  -11.7512 C   0  0  0  0  0  0  0  0  0  0  0  0
  -24.0175   -1.5092  -11.1239 C   0  0  0  0  0  0  0  0  0  0  0  0
  -22.8795   -1.2004  -11.8786 C   0  0  0  0  0  0  0  0  0  0  0  0
  -22.9718   -1.0108  -13.2503 C   0  0  0  0  0  0  0  0  0  0  0  0
  -24.1996   -1.1260  -13.9047 C   0  0  0  0  0  0  0  0  0  0  0  0
  -25.3367   -1.4350  -13.1388 C   0  0  0  0  0  0  0  0  0  0  0  0
 12 13  1  0  0  0
 13 14  1  0  0  0
 13 21  1  0  0  0
 14 15  2  0  0  0
 15  1  1  0  0  0
 15 16  1  0  0  0
  1  2  2  0  0  0
  1 10  1  0  0  0
  2  3  1  0  0  0
  3  4  1  0  0  0
  3  9  2  0  0  0
  4  5  2  0  0  0
  5  6  1  0  0  0
  5  7  1  0  0  0
  7  8  2  0  0  0
  8  9  1  0  0  0
  9 10  1  0  0  0
 10 11  1  0  0  0
 16 17  1  0  0  0
 16 21  2  0  0  0
 17 18  2  0  0  0
 18 19  1  0  0  0
 19 20  2  0  0  0
 20 21  1  0  0  0
M  END
> <minimizedAffinity>
-8.47794

$$$$
