CHEMBL223583


 32 35  0  0  0  0  0  0  0  0999 V2000
  -29.2763   -3.6628   -6.6135 C   0  0  0  0  0  0  0  0  0  0  0  0
  -29.5188   -3.9485   -7.9551 C   0  0  0  0  0  0  0  0  0  0  0  0
  -29.1350   -3.0813   -8.9717 C   0  0  0  0  0  0  0  0  0  0  0  0
  -28.3212   -1.9857   -8.7160 C   0  0  0  0  0  0  0  0  0  0  0  0
  -27.9788   -1.7234   -7.3921 C   0  0  0  0  0  0  0  0  0  0  0  0
  -28.4650   -2.5461   -6.3518 C   0  0  0  0  0  0  0  0  0  0  0  0
  -28.1408   -6.8044   -7.2879 N   0  0  0  0  0  0  0  0  0  0  0  0
  -28.8907   -6.9461   -6.1918 C   0  0  0  0  0  0  0  0  0  0  0  0
  -29.0252   -8.1415   -5.6418 N   0  0  0  0  0  0  0  0  0  0  0  0
  -29.8272   -7.9325   -4.5971 N   0  0  0  0  0  0  0  0  0  0  0  0
  -30.2041   -6.6308   -4.4198 C   0  0  0  0  0  0  0  0  0  0  0  0
  -31.0166   -6.0559   -3.4487 C   0  0  0  0  0  0  0  0  0  0  0  0
  -31.2354   -4.6817   -3.5154 C   0  0  0  0  0  0  0  0  0  0  0  0
  -30.6496   -3.9276   -4.5322 C   0  0  0  0  0  0  0  0  0  0  0  0
  -29.8416   -4.5029   -5.5375 C   0  0  0  0  0  0  0  0  0  0  0  0
  -29.5959   -5.9118   -5.4650 C   0  0  0  0  0  0  0  0  0  0  0  0
  -27.7373   -7.6292   -7.7090 H   0  0  0  0  0  0  0  0  0  0  0  0
  -28.1273   -5.9871   -7.8862 H   0  0  0  0  0  0  0  0  0  0  0  0
  -30.0882   -8.7293   -4.0346 H   0  0  0  0  0  0  0  0  0  0  0  0
  -27.8039   -1.1746   -9.7644 N   0  0  0  0  0  0  0  0  0  0  0  0
  -26.6323   -1.4293  -10.4579 C   0  0  0  0  0  0  0  0  0  0  0  0
  -25.9066   -2.3942  -10.2846 O   0  0  0  0  0  0  0  0  0  0  0  0
  -26.3168   -0.4504  -11.3990 N   0  0  0  0  0  0  0  0  0  0  0  0
  -28.3269   -0.3399  -10.0019 H   0  0  0  0  0  0  0  0  0  0  0  0
  -26.4703    0.4948  -11.0787 H   0  0  0  0  0  0  0  0  0  0  0  0
  -25.1177   -0.6429  -12.1489 C   0  0  0  0  0  0  0  0  0  0  0  0
  -23.9041   -0.0951  -11.7143 C   0  0  0  0  0  0  0  0  0  0  0  0
  -22.7521   -0.2099  -12.4986 C   0  0  0  0  0  0  0  0  0  0  0  0
  -22.8051   -0.8680  -13.7269 C   0  0  0  0  0  0  0  0  0  0  0  0
  -24.0089   -1.4236  -14.1638 C   0  0  0  0  0  0  0  0  0  0  0  0
  -25.1523   -1.3227  -13.3676 C   0  0  0  0  0  0  0  0  0  0  0  0
  -26.3120   -1.8187  -13.8248 F   0  0  0  0  0  0  0  0  0  0  0  0
  7  8  1  0  0  0
  7 17  1  0  0  0
  7 18  1  0  0  0
  8  9  2  0  0  0
  8 16  1  0  0  0
  9 10  1  0  0  0
 10 11  1  0  0  0
 10 19  1  0  0  0
 11 12  1  0  0  0
 11 16  2  0  0  0
 12 13  2  0  0  0
 13 14  1  0  0  0
 14 15  2  0  0  0
 15  1  1  0  0  0
 15 16  1  0  0  0
  1  2  1  0  0  0
  1  6  2  0  0  0
  2  3  2  0  0  0
  3  4  1  0  0  0
  4 20  1  0  0  0
  4  5  2  0  0  0
 20 21  1  0  0  0
 20 24  1  0  0  0
 21 22  2  0  0  0
 21 23  1  0  0  0
 23 26  1  0  0  0
 23 25  1  0  0  0
 26 27  1  0  0  0
 26 31  2  0  0  0
 27 28  2  0  0  0
 28 29  1  0  0  0
 29 30  2  0  0  0
 30 31  1  0  0  0
 31 32  1  0  0  0
  5  6  1  0  0  0
M  END
> <minimizedAffinity>
-9.39377

$$$$
