CHEMBL3422069


 39 44  0  0  0  0  0  0  0  0999 V2000
  -28.9148   -9.2704   -6.1957 C   0  0  0  0  0  0  0  0  0  0  0  0
  -30.0757   -9.9316   -6.0149 N   0  0  0  0  0  0  0  0  0  0  0  0
  -31.0054   -9.0475   -6.3520 N   0  0  0  0  0  0  0  0  0  0  0  0
  -30.5035   -7.8112   -6.6281 C   0  0  0  0  0  0  0  0  0  0  0  0
  -31.1077   -6.6833   -7.1919 C   0  0  0  0  0  0  0  0  0  0  0  0
  -30.3502   -5.5114   -7.2167 C   0  0  0  0  0  0  0  0  0  0  0  0
  -29.0682   -5.4760   -6.6582 C   0  0  0  0  0  0  0  0  0  0  0  0
  -28.4235   -6.6623   -6.2507 C   0  0  0  0  0  0  0  0  0  0  0  0
  -29.1621   -7.8655   -6.2708 C   0  0  0  0  0  0  0  0  0  0  0  0
  -31.9659   -9.3651   -6.4157 H   0  0  0  0  0  0  0  0  0  0  0  0
  -25.3509  -11.4743   -6.9276 C   0  0  0  0  0  0  0  0  0  0  0  0
  -26.0069  -11.5250   -5.7149 C   0  0  0  0  0  0  0  0  0  0  0  0
  -27.2097  -10.8563   -5.5532 C   0  0  0  0  0  0  0  0  0  0  0  0
  -27.7509  -10.0667   -6.5862 C   0  0  0  0  0  0  0  0  0  0  0  0
  -27.1300  -10.0660   -7.8321 C   0  0  0  0  0  0  0  0  0  0  0  0
  -25.9230  -10.7753   -7.9988 C   0  0  0  0  0  0  0  0  0  0  0  0
  -24.1374  -12.0957   -6.9194 O   0  0  0  0  0  0  0  0  0  0  0  0
  -21.7707  -11.6074   -3.0744 C   0  0  0  0  0  0  0  0  0  0  0  0
  -21.7682  -11.2481   -4.4949 N   0  0  0  0  0  0  0  0  0  0  0  0
  -21.7137  -12.4641   -5.3181 C   0  0  0  0  0  0  0  0  0  0  0  0
  -21.6983  -12.1120   -6.8050 C   0  0  0  0  0  0  0  0  0  0  0  0
  -22.9577  -11.3338   -7.1831 C   0  0  0  0  0  0  0  0  0  0  0  0
  -23.0278  -10.0838   -6.3024 C   0  0  0  0  0  0  0  0  0  0  0  0
  -22.9551  -10.4364   -4.8113 C   0  0  0  0  0  0  0  0  0  0  0  0
  -28.4047   -4.1523   -6.4965 C   0  0  0  0  0  0  0  0  0  0  0  0
  -27.8995   -3.8297   -5.4308 O   0  0  0  0  0  0  0  0  0  0  0  0
  -28.3751   -3.3899   -7.6433 N   0  0  0  0  0  0  0  0  0  0  0  0
  -28.5918   -3.8525   -8.5129 H   0  0  0  0  0  0  0  0  0  0  0  0
  -27.7181   -2.0944   -7.7334 C   0  0  0  0  0  0  0  0  0  0  0  0
  -27.4358   -1.7658   -9.1898 C   0  0  0  0  0  0  0  0  0  0  0  0
  -28.3601   -1.0553  -10.0362 C   0  0  0  0  0  0  0  0  0  0  0  0
  -27.9050   -0.9054  -11.3273 C   0  0  0  0  0  0  0  0  0  0  0  0
  -26.3638   -1.6086  -11.5483 S   0  0  0  0  0  0  0  0  0  0  0  0
  -26.3052   -2.1066   -9.9121 C   0  0  0  0  0  0  0  0  0  0  0  0
  -28.5558   -0.9849   -7.0541 C   0  0  0  0  0  0  0  0  0  0  0  0
  -27.7546   -0.0785   -6.1123 C   0  0  0  0  0  0  0  0  0  0  0  0
  -28.7996    0.5952   -5.2223 C   0  0  0  0  0  0  0  0  0  0  0  0
  -30.0802   -0.2236   -5.3592 C   0  0  0  0  0  0  0  0  0  0  0  0
  -29.6903   -1.4689   -6.1441 C   0  0  0  0  0  0  0  0  0  0  0  0
 18 19  1  0  0  0
 19 20  1  0  0  0
 19 24  1  0  0  0
 20 21  1  0  0  0
 21 22  1  0  0  0
 22 17  1  0  0  0
 22 23  1  0  0  0
 17 11  1  0  0  0
 11 12  1  0  0  0
 11 16  2  0  0  0
 12 13  2  0  0  0
 13 14  1  0  0  0
 14  1  1  0  0  0
 14 15  2  0  0  0
  1  2  2  0  0  0
  1  9  1  0  0  0
  2  3  1  0  0  0
  3  4  1  0  0  0
  3 10  1  0  0  0
  4  5  1  0  0  0
  4  9  2  0  0  0
  5  6  2  0  0  0
  6  7  1  0  0  0
  7 25  1  0  0  0
  7  8  2  0  0  0
 25 26  2  0  0  0
 25 27  1  0  0  0
 27 29  1  0  0  0
 27 28  1  0  0  0
 29 30  1  0  0  0
 29 35  1  0  0  0
 30 31  1  0  0  0
 30 34  2  0  0  0
 31 32  2  0  0  0
 32 33  1  0  0  0
 33 34  1  0  0  0
 35 36  1  0  0  0
 35 39  1  0  0  0
 36 37  1  0  0  0
 37 38  1  0  0  0
 38 39  1  0  0  0
  8  9  1  0  0  0
 15 16  1  0  0  0
 23 24  1  0  0  0
M  END
> <minimizedAffinity>
-8.01071

$$$$
