CHEMBL1254190


 34 37  0  0  0  0  0  0  0  0999 V2000
  -23.1911   -0.8907  -13.5482 C   0  0  0  0  0  0  0  0  0  0  0  0
  -23.0333   -1.2370  -12.2118 C   0  0  0  0  0  0  0  0  0  0  0  0
  -24.1124   -1.6983  -11.4646 C   0  0  0  0  0  0  0  0  0  0  0  0
  -25.3832   -1.8750  -12.0267 C   0  0  0  0  0  0  0  0  0  0  0  0
  -25.5264   -1.5503  -13.3909 C   0  0  0  0  0  0  0  0  0  0  0  0
  -27.0535   -1.7154  -14.1881 Cl  0  0  0  0  0  0  0  0  0  0  0  0
  -24.4371   -1.0711  -14.1489 C   0  0  0  0  0  0  0  0  0  0  0  0
  -26.4863   -2.3690  -11.2598 N   0  0  0  0  0  0  0  0  0  0  0  0
  -26.7830   -1.9902   -9.9676 C   0  0  0  0  0  0  0  0  0  0  0  0
  -26.1439   -1.1773   -9.2989 O   0  0  0  0  0  0  0  0  0  0  0  0
  -27.8842   -2.6318   -9.4125 N   0  0  0  0  0  0  0  0  0  0  0  0
  -27.1143   -2.9998  -11.7407 H   0  0  0  0  0  0  0  0  0  0  0  0
  -27.9670   -3.5955   -9.6901 H   0  0  0  0  0  0  0  0  0  0  0  0
  -28.2516   -2.3410   -8.0772 C   0  0  0  0  0  0  0  0  0  0  0  0
  -28.6820   -3.3688   -7.2348 C   0  0  0  0  0  0  0  0  0  0  0  0
  -29.1393   -3.0798   -5.9464 C   0  0  0  0  0  0  0  0  0  0  0  0
  -29.1888   -1.7586   -5.5037 C   0  0  0  0  0  0  0  0  0  0  0  0
  -28.7324   -0.7139   -6.3211 C   0  0  0  0  0  0  0  0  0  0  0  0
  -28.2344   -1.0185   -7.6010 C   0  0  0  0  0  0  0  0  0  0  0  0
  -28.8253    0.7167   -5.8538 C   0  0  0  0  0  0  0  0  0  0  0  0
  -27.9555    1.0080   -4.8436 F   0  0  0  0  0  0  0  0  0  0  0  0
  -28.5674    1.6219   -6.8357 F   0  0  0  0  0  0  0  0  0  0  0  0
  -30.0612    1.0261   -5.3693 F   0  0  0  0  0  0  0  0  0  0  0  0
  -22.1535   -0.4192  -14.3249 O   0  0  0  0  0  0  0  0  0  0  0  0
  -19.3052   -0.4591  -15.4951 C   0  0  0  0  0  0  0  0  0  0  0  0
  -19.5253    0.9400  -15.2038 N   0  0  0  0  0  0  0  0  0  0  0  0
  -18.5948    1.9311  -15.4019 C   0  0  0  0  0  0  0  0  0  0  0  0
  -19.1645    3.1282  -15.0270 C   0  0  0  0  0  0  0  0  0  0  0  0
  -20.4793    2.8506  -14.5897 C   0  0  0  0  0  0  0  0  0  0  0  0
  -21.4117    3.7066  -14.1237 N   0  0  0  0  0  0  0  0  0  0  0  0
  -22.5609    3.1103  -13.7894 C   0  0  0  0  0  0  0  0  0  0  0  0
  -22.8590    1.8034  -13.8627 N   0  0  0  0  0  0  0  0  0  0  0  0
  -21.9000    0.9500  -14.2907 C   0  0  0  0  0  0  0  0  0  0  0  0
  -20.6843    1.4791  -14.6971 C   0  0  0  0  0  0  0  0  0  0  0  0
 25 26  1  0  0  0
 26 27  1  0  0  0
 26 34  1  0  0  0
 27 28  2  0  0  0
 28 29  1  0  0  0
 29 30  1  0  0  0
 29 34  2  0  0  0
 30 31  2  0  0  0
 31 32  1  0  0  0
 32 33  2  0  0  0
 33 24  1  0  0  0
 33 34  1  0  0  0
 24  1  1  0  0  0
  1  2  1  0  0  0
  1  7  2  0  0  0
  2  3  2  0  0  0
  3  4  1  0  0  0
  4  8  1  0  0  0
  4  5  2  0  0  0
  8  9  1  0  0  0
  8 12  1  0  0  0
  9 10  2  0  0  0
  9 11  1  0  0  0
 11 14  1  0  0  0
 11 13  1  0  0  0
 14 15  1  0  0  0
 14 19  2  0  0  0
 15 16  2  0  0  0
 16 17  1  0  0  0
 17 18  2  0  0  0
 18 20  1  0  0  0
 18 19  1  0  0  0
 20 21  1  0  0  0
 20 22  1  0  0  0
 20 23  1  0  0  0
  5  6  1  0  0  0
  5  7  1  0  0  0
M  END
> <minimizedAffinity>
-11.73190

$$$$
