CHEMBL3660304


 30 33  0  0  0  0  0  0  0  0999 V2000
  -18.7504    2.7529  -15.5291 C   0  0  0  0  0  0  0  0  0  0  0  0
  -19.8165    3.4680  -14.9910 C   0  0  0  0  0  0  0  0  0  0  0  0
  -20.9104    2.8067  -14.4266 C   0  0  0  0  0  0  0  0  0  0  0  0
  -20.9943    1.4069  -14.4013 C   0  0  0  0  0  0  0  0  0  0  0  0
  -19.9315    0.6963  -14.9844 C   0  0  0  0  0  0  0  0  0  0  0  0
  -18.8219    1.3579  -15.5331 C   0  0  0  0  0  0  0  0  0  0  0  0
  -15.9331    2.1148  -15.0692 O   0  0  0  0  0  0  0  0  0  0  0  0
  -16.2816    3.0365  -15.7958 C   0  0  0  0  0  0  0  0  0  0  0  0
  -15.4093    3.9143  -16.4190 N   0  0  0  0  0  0  0  0  0  0  0  0
  -17.6006    3.3594  -16.0799 N   0  0  0  0  0  0  0  0  0  0  0  0
  -15.8164    4.7272  -16.8514 H   0  0  0  0  0  0  0  0  0  0  0  0
  -17.7586    4.0359  -16.8095 H   0  0  0  0  0  0  0  0  0  0  0  0
  -14.0005    3.9096  -16.3042 C   0  0  0  0  0  0  0  0  0  0  0  0
  -13.1527    3.2027  -17.1603 C   0  0  0  0  0  0  0  0  0  0  0  0
  -11.7697    3.2048  -16.9556 C   0  0  0  0  0  0  0  0  0  0  0  0
  -11.2226    3.9238  -15.8979 C   0  0  0  0  0  0  0  0  0  0  0  0
  -12.0558    4.6532  -15.0540 C   0  0  0  0  0  0  0  0  0  0  0  0
  -13.4385    4.6536  -15.2604 C   0  0  0  0  0  0  0  0  0  0  0  0
  -22.1496    0.7311  -13.7777 C   0  0  0  0  0  0  0  0  0  0  0  0
  -22.3402   -0.6535  -13.8785 C   0  0  0  0  0  0  0  0  0  0  0  0
  -23.4533   -1.2650  -13.3067 C   0  0  0  0  0  0  0  0  0  0  0  0
  -24.3631   -0.4798  -12.6171 C   0  0  0  0  0  0  0  0  0  0  0  0
  -24.2298    0.8605  -12.4897 N   0  0  0  0  0  0  0  0  0  0  0  0
  -23.1400    1.4226  -13.0745 C   0  0  0  0  0  0  0  0  0  0  0  0
  -25.5340   -1.0467  -11.9625 C   0  0  0  0  0  0  0  0  0  0  0  0
  -26.8331   -1.2470  -12.4004 C   0  0  0  0  0  0  0  0  0  0  0  0
  -27.5654   -1.8518  -11.3514 C   0  0  0  0  0  0  0  0  0  0  0  0
  -26.7020   -2.0095  -10.2925 C   0  0  0  0  0  0  0  0  0  0  0  0
  -25.4798   -1.5229  -10.6708 N   0  0  0  0  0  0  0  0  0  0  0  0
  -24.6364   -1.5015  -10.1104 H   0  0  0  0  0  0  0  0  0  0  0  0
  7  8  2  0  0  0
  8  9  1  0  0  0
  8 10  1  0  0  0
  9 13  1  0  0  0
  9 11  1  0  0  0
 13 14  1  0  0  0
 13 18  2  0  0  0
 14 15  2  0  0  0
 15 16  1  0  0  0
 16 17  2  0  0  0
 17 18  1  0  0  0
 10  1  1  0  0  0
 10 12  1  0  0  0
  1  2  1  0  0  0
  1  6  2  0  0  0
  2  3  2  0  0  0
  3  4  1  0  0  0
  4 19  1  0  0  0
  4  5  2  0  0  0
 19 20  1  0  0  0
 19 24  2  0  0  0
 20 21  2  0  0  0
 21 22  1  0  0  0
 22 25  1  0  0  0
 22 23  2  0  0  0
 25 26  2  0  0  0
 25 29  1  0  0  0
 26 27  1  0  0  0
 27 28  2  0  0  0
 28 29  1  0  0  0
 29 30  1  0  0  0
 23 24  1  0  0  0
  5  6  1  0  0  0
M  END
> <minimizedAffinity>
-9.54899

$$$$
