CHEMBL3913322


 35 38  0  0  0  0  0  0  0  0999 V2000
  -28.0649   -2.2986   -8.4657 N   0  0  0  0  0  0  0  0  0  0  0  0
  -27.5588   -1.6994   -9.6770 C   0  0  0  0  0  0  0  0  0  0  0  0
  -28.3274   -1.9577  -10.8146 C   0  0  0  0  0  0  0  0  0  0  0  0
  -27.7497   -1.9326  -12.0736 C   0  0  0  0  0  0  0  0  0  0  0  0
  -26.4557   -1.5247  -12.2702 C   0  0  0  0  0  0  0  0  0  0  0  0
  -25.9997   -1.7172  -13.5120 N   0  0  0  0  0  0  0  0  0  0  0  0
  -24.8018   -1.2255  -13.8000 C   0  0  0  0  0  0  0  0  0  0  0  0
  -24.0765   -0.4725  -12.8945 C   0  0  0  0  0  0  0  0  0  0  0  0
  -24.4904   -0.3501  -11.5826 N   0  0  0  0  0  0  0  0  0  0  0  0
  -25.7008   -0.9424  -11.2148 C   0  0  0  0  0  0  0  0  0  0  0  0
  -26.2838   -1.1015   -9.8987 C   0  0  0  0  0  0  0  0  0  0  0  0
  -22.9457    0.2669  -13.4391 C   0  0  0  0  0  0  0  0  0  0  0  0
  -22.8029    1.6622  -13.6608 C   0  0  0  0  0  0  0  0  0  0  0  0
  -21.7293    1.9652  -14.4022 N   0  0  0  0  0  0  0  0  0  0  0  0
  -21.1836    0.7657  -14.6639 N   0  0  0  0  0  0  0  0  0  0  0  0
  -19.8428    0.6676  -15.1904 C   0  0  0  0  0  0  0  0  0  0  0  0
  -21.9724   -0.2776  -14.2613 C   0  0  0  0  0  0  0  0  0  0  0  0
  -28.7157   -0.0662   -5.5071 C   0  0  0  0  0  0  0  0  0  0  0  0
  -28.3632   -0.9048   -4.4500 C   0  0  0  0  0  0  0  0  0  0  0  0
  -27.8762   -2.1801   -4.7114 C   0  0  0  0  0  0  0  0  0  0  0  0
  -27.7336   -2.6127   -6.0367 C   0  0  0  0  0  0  0  0  0  0  0  0
  -28.0576   -1.8011   -7.1359 C   0  0  0  0  0  0  0  0  0  0  0  0
  -28.5462   -0.5110   -6.8387 C   0  0  0  0  0  0  0  0  0  0  0  0
  -30.5760    1.4066   -5.8537 C   0  0  0  0  0  0  0  0  0  0  0  0
  -29.2584    1.1926   -5.3470 O   0  0  0  0  0  0  0  0  0  0  0  0
  -27.5390   -3.1177   -3.7713 O   0  0  0  0  0  0  0  0  0  0  0  0
  -27.9016   -4.4668   -4.0402 C   0  0  0  0  0  0  0  0  0  0  0  0
  -27.9833   -3.8065   -8.6102 C   0  0  0  0  0  0  0  0  0  0  0  0
  -28.9177   -4.6391   -7.7026 C   0  0  0  0  0  0  0  0  0  0  0  0
  -30.3073   -4.3622   -8.0047 O   0  0  0  0  0  0  0  0  0  0  0  0
  -30.5103   -4.7272   -8.8848 H   0  0  0  0  0  0  0  0  0  0  0  0
  -28.5690   -6.1383   -7.8797 C   0  0  0  0  0  0  0  0  0  0  0  0
  -29.6383   -6.8793   -8.2534 F   0  0  0  0  0  0  0  0  0  0  0  0
  -27.6104   -6.3212   -8.8143 F   0  0  0  0  0  0  0  0  0  0  0  0
  -28.1159   -6.6792   -6.7218 F   0  0  0  0  0  0  0  0  0  0  0  0
 24 25  1  0  0  0
 25 18  1  0  0  0
 18 19  1  0  0  0
 18 23  2  0  0  0
 19 20  2  0  0  0
 20 26  1  0  0  0
 20 21  1  0  0  0
 26 27  1  0  0  0
 21 22  2  0  0  0
 22  1  1  0  0  0
 22 23  1  0  0  0
  1 28  1  0  0  0
  1  2  1  0  0  0
 28 29  1  0  0  0
 29 30  1  0  0  0
 29 32  1  0  0  0
 30 31  1  0  0  0
 32 33  1  0  0  0
 32 34  1  0  0  0
 32 35  1  0  0  0
  2  3  1  0  0  0
  2 11  2  0  0  0
  3  4  2  0  0  0
  4  5  1  0  0  0
  5  6  1  0  0  0
  5 10  2  0  0  0
  6  7  2  0  0  0
  7  8  1  0  0  0
  8 12  1  0  0  0
  8  9  2  0  0  0
 12 13  1  0  0  0
 12 17  2  0  0  0
 13 14  2  0  0  0
 14 15  1  0  0  0
 15 16  1  0  0  0
 15 17  1  0  0  0
  9 10  1  0  0  0
 10 11  1  0  0  0
M  END
> <minimizedAffinity>
-8.51213

$$$$
