CHEMBL306284


 26 29  0  0  0  0  0  0  0  0999 V2000
  -26.5967   -1.6390  -10.7399 C   0  0  0  0  0  0  0  0  0  0  0  0
  -25.3714   -1.5932  -10.1687 N   0  0  0  0  0  0  0  0  0  0  0  0
  -24.2498   -1.5439  -10.9252 N   0  0  0  0  0  0  0  0  0  0  0  0
  -24.3440   -1.5397  -12.2699 C   0  0  0  0  0  0  0  0  0  0  0  0
  -25.5891   -1.6305  -12.9190 C   0  0  0  0  0  0  0  0  0  0  0  0
  -25.7604   -1.6471  -14.3213 C   0  0  0  0  0  0  0  0  0  0  0  0
  -27.0266   -1.7661  -14.8813 C   0  0  0  0  0  0  0  0  0  0  0  0
  -28.1033   -1.8545  -14.0264 C   0  0  0  0  0  0  0  0  0  0  0  0
  -27.9936   -1.8148  -12.6800 N   0  0  0  0  0  0  0  0  0  0  0  0
  -26.7532   -1.7048  -12.1282 C   0  0  0  0  0  0  0  0  0  0  0  0
  -27.7575   -1.5497   -9.9276 N   0  0  0  0  0  0  0  0  0  0  0  0
  -28.3953   -0.8372  -10.2748 H   0  0  0  0  0  0  0  0  0  0  0  0
  -28.6022   -3.1466   -4.2632 Cl  0  0  0  0  0  0  0  0  0  0  0  0
  -28.3606   -2.6889   -5.9037 C   0  0  0  0  0  0  0  0  0  0  0  0
  -28.5979   -3.6102   -6.9151 C   0  0  0  0  0  0  0  0  0  0  0  0
  -28.3927   -3.2414   -8.2471 C   0  0  0  0  0  0  0  0  0  0  0  0
  -27.9367   -1.9590   -8.5945 C   0  0  0  0  0  0  0  0  0  0  0  0
  -27.7296   -1.0398   -7.5562 C   0  0  0  0  0  0  0  0  0  0  0  0
  -27.9310   -1.4036   -6.2162 C   0  0  0  0  0  0  0  0  0  0  0  0
  -23.0207   -1.4212  -12.9850 C   0  0  0  0  0  0  0  0  0  0  0  0
  -22.6823   -0.0251  -13.4571 C   0  0  0  0  0  0  0  0  0  0  0  0
  -23.4869    1.0677  -13.1111 C   0  0  0  0  0  0  0  0  0  0  0  0
  -23.1146    2.3342  -13.5372 C   0  0  0  0  0  0  0  0  0  0  0  0
  -22.0094    2.5843  -14.2697 N   0  0  0  0  0  0  0  0  0  0  0  0
  -21.2418    1.5216  -14.5875 C   0  0  0  0  0  0  0  0  0  0  0  0
  -21.5304    0.2181  -14.2100 C   0  0  0  0  0  0  0  0  0  0  0  0
 13 14  1  0  0  0
 14 15  1  0  0  0
 14 19  2  0  0  0
 15 16  2  0  0  0
 16 17  1  0  0  0
 17 11  1  0  0  0
 17 18  2  0  0  0
 11  1  1  0  0  0
 11 12  1  0  0  0
  1  2  1  0  0  0
  1 10  2  0  0  0
  2  3  2  0  0  0
  3  4  1  0  0  0
  4 20  1  0  0  0
  4  5  2  0  0  0
 20 21  1  0  0  0
 21 22  1  0  0  0
 21 26  2  0  0  0
 22 23  2  0  0  0
 23 24  1  0  0  0
 24 25  2  0  0  0
 25 26  1  0  0  0
  5  6  1  0  0  0
  5 10  1  0  0  0
  6  7  2  0  0  0
  7  8  1  0  0  0
  8  9  2  0  0  0
  9 10  1  0  0  0
 18 19  1  0  0  0
M  END
> <minimizedAffinity>
-9.05918

$$$$
