CHEMBL3656110


 37 40  0  0  0  0  0  0  0  0999 V2000
  -28.4488   -3.4112   -5.7693 C   0  0  0  0  0  0  0  0  0  0  0  0
  -29.0164   -4.1243   -6.8184 C   0  0  0  0  0  0  0  0  0  0  0  0
  -28.9615   -3.6220   -8.1188 C   0  0  0  0  0  0  0  0  0  0  0  0
  -28.3926   -2.3741   -8.4073 C   0  0  0  0  0  0  0  0  0  0  0  0
  -27.9377   -1.6067   -7.3274 C   0  0  0  0  0  0  0  0  0  0  0  0
  -27.9611   -2.1256   -6.0171 C   0  0  0  0  0  0  0  0  0  0  0  0
  -28.2635   -1.8725   -9.7384 N   0  0  0  0  0  0  0  0  0  0  0  0
  -27.0494   -1.6483  -10.3727 C   0  0  0  0  0  0  0  0  0  0  0  0
  -25.9614   -1.8030   -9.8330 O   0  0  0  0  0  0  0  0  0  0  0  0
  -27.1819   -1.2231  -11.6881 N   0  0  0  0  0  0  0  0  0  0  0  0
  -29.1108   -1.5983  -10.2097 H   0  0  0  0  0  0  0  0  0  0  0  0
  -28.0227   -0.7246  -11.9368 H   0  0  0  0  0  0  0  0  0  0  0  0
  -26.0702   -1.1083  -12.5730 C   0  0  0  0  0  0  0  0  0  0  0  0
  -26.1290   -1.5437  -13.9046 C   0  0  0  0  0  0  0  0  0  0  0  0
  -25.0102   -1.4961  -14.7361 C   0  0  0  0  0  0  0  0  0  0  0  0
  -23.8190   -0.9665  -14.2610 C   0  0  0  0  0  0  0  0  0  0  0  0
  -23.7461   -0.4631  -12.9569 C   0  0  0  0  0  0  0  0  0  0  0  0
  -22.4595    0.1343  -12.4664 C   0  0  0  0  0  0  0  0  0  0  0  0
  -24.8757   -0.5401  -12.1145 C   0  0  0  0  0  0  0  0  0  0  0  0
  -28.3736   -3.8975   -4.4789 O   0  0  0  0  0  0  0  0  0  0  0  0
  -27.7405   -7.5299   -4.2796 C   0  0  0  0  0  0  0  0  0  0  0  0
  -27.4769   -6.1765   -4.4478 C   0  0  0  0  0  0  0  0  0  0  0  0
  -28.5081   -5.2584   -4.2675 C   0  0  0  0  0  0  0  0  0  0  0  0
  -29.7397   -5.7153   -3.8160 C   0  0  0  0  0  0  0  0  0  0  0  0
  -29.9027   -7.0810   -3.6293 C   0  0  0  0  0  0  0  0  0  0  0  0
  -28.9392   -8.0041   -3.8677 N   0  0  0  0  0  0  0  0  0  0  0  0
  -24.8912   -9.9073   -4.6558 C   0  0  0  0  0  0  0  0  0  0  0  0
  -25.7074  -10.1955   -5.7372 C   0  0  0  0  0  0  0  0  0  0  0  0
  -26.8068   -9.3680   -5.6856 N   0  0  0  0  0  0  0  0  0  0  0  0
  -26.7311   -8.5388   -4.5902 C   0  0  0  0  0  0  0  0  0  0  0  0
  -25.5484   -8.8586   -3.9484 C   0  0  0  0  0  0  0  0  0  0  0  0
  -27.5732   -9.3426   -6.3477 H   0  0  0  0  0  0  0  0  0  0  0  0
  -22.2324  -11.2961   -2.4056 C   0  0  0  0  0  0  0  0  0  0  0  0
  -23.4486  -10.7125   -2.9050 N   0  0  0  0  0  0  0  0  0  0  0  0
  -23.6168  -10.5030   -4.2524 C   0  0  0  0  0  0  0  0  0  0  0  0
  -22.7524  -10.7951   -5.0780 O   0  0  0  0  0  0  0  0  0  0  0  0
  -24.1927  -10.4784   -2.2669 H   0  0  0  0  0  0  0  0  0  0  0  0
 33 34  1  0  0  0
 34 35  1  0  0  0
 34 37  1  0  0  0
 35 36  2  0  0  0
 35 27  1  0  0  0
 27 28  2  0  0  0
 27 31  1  0  0  0
 28 29  1  0  0  0
 29 30  1  0  0  0
 29 32  1  0  0  0
 30 21  1  0  0  0
 30 31  2  0  0  0
 21 22  1  0  0  0
 21 26  2  0  0  0
 22 23  2  0  0  0
 23 20  1  0  0  0
 23 24  1  0  0  0
 20  1  1  0  0  0
  1  2  1  0  0  0
  1  6  2  0  0  0
  2  3  2  0  0  0
  3  4  1  0  0  0
  4  7  1  0  0  0
  4  5  2  0  0  0
  7  8  1  0  0  0
  7 11  1  0  0  0
  8  9  2  0  0  0
  8 10  1  0  0  0
 10 13  1  0  0  0
 10 12  1  0  0  0
 13 14  1  0  0  0
 13 19  2  0  0  0
 14 15  2  0  0  0
 15 16  1  0  0  0
 16 17  2  0  0  0
 17 18  1  0  0  0
 17 19  1  0  0  0
  5  6  1  0  0  0
 24 25  2  0  0  0
 25 26  1  0  0  0
M  END
> <minimizedAffinity>
-10.51197

$$$$
