CHEMBL1076199


 49 53  0  0  0  0  0  0  0  0999 V2000
  -13.9794    1.7000  -14.4016 N   0  0  0  0  0  0  0  0  0  0  0  0
  -14.5610    2.3845  -15.4743 C   0  0  0  0  0  0  0  0  0  0  0  0
  -13.9039    3.4990  -15.7303 N   0  0  0  0  0  0  0  0  0  0  0  0
  -12.8601    3.5450  -14.8525 C   0  0  0  0  0  0  0  0  0  0  0  0
  -11.8699    4.5301  -14.7045 C   0  0  0  0  0  0  0  0  0  0  0  0
  -10.9024    4.3861  -13.7034 C   0  0  0  0  0  0  0  0  0  0  0  0
  -10.8751    3.2472  -12.9067 C   0  0  0  0  0  0  0  0  0  0  0  0
  -11.8131    2.2291  -13.0859 C   0  0  0  0  0  0  0  0  0  0  0  0
  -12.8464    2.4292  -14.0255 C   0  0  0  0  0  0  0  0  0  0  0  0
  -14.7941   -1.8267  -13.9059 C   0  0  0  0  0  0  0  0  0  0  0  0
  -14.1122   -0.7021  -14.3146 C   0  0  0  0  0  0  0  0  0  0  0  0
  -14.4579    0.5145  -13.7614 C   0  0  0  0  0  0  0  0  0  0  0  0
  -15.2684    0.5987  -12.6880 N   0  0  0  0  0  0  0  0  0  0  0  0
  -15.8210   -0.5715  -12.3058 C   0  0  0  0  0  0  0  0  0  0  0  0
  -15.6587   -1.7735  -12.8894 N   0  0  0  0  0  0  0  0  0  0  0  0
  -14.4735   -3.0234  -14.5640 N   0  0  0  0  0  0  0  0  0  0  0  0
  -15.0589   -3.7813  -14.2238 H   0  0  0  0  0  0  0  0  0  0  0  0
  -13.0711   -3.4239  -14.5418 C   0  0  0  0  0  0  0  0  0  0  0  0
  -12.9977   -4.8785  -14.0612 C   0  0  0  0  0  0  0  0  0  0  0  0
  -13.2534   -5.0355  -12.5552 C   0  0  0  0  0  0  0  0  0  0  0  0
  -14.4195   -5.9742  -12.2137 C   0  0  0  0  0  0  0  0  0  0  0  0
  -15.3695   -5.4134  -11.2337 N   0  0  0  0  0  0  0  0  0  0  0  0
  -14.2731   -4.2876   -9.2504 C   0  0  0  0  0  0  0  0  0  0  0  0
  -14.8577   -4.1606  -10.6522 C   0  0  0  0  0  0  0  0  0  0  0  0
  -16.7239   -5.3048  -11.8036 C   0  0  0  0  0  0  0  0  0  0  0  0
  -16.8186   -5.2227  -13.3254 C   0  0  0  0  0  0  0  0  0  0  0  0
  -15.6993    1.9616  -16.0856 N   0  0  0  0  0  0  0  0  0  0  0  0
  -15.6674    1.0813  -16.6004 H   0  0  0  0  0  0  0  0  0  0  0  0
  -17.0216    2.3200  -15.7005 C   0  0  0  0  0  0  0  0  0  0  0  0
  -17.9251    1.3717  -15.1621 C   0  0  0  0  0  0  0  0  0  0  0  0
  -19.2549    1.7231  -14.8955 C   0  0  0  0  0  0  0  0  0  0  0  0
  -19.6655    3.0498  -15.0691 C   0  0  0  0  0  0  0  0  0  0  0  0
  -18.7792    4.0071  -15.5434 C   0  0  0  0  0  0  0  0  0  0  0  0
  -17.4640    3.6538  -15.8824 C   0  0  0  0  0  0  0  0  0  0  0  0
  -16.5720    4.7260  -16.4475 C   0  0  0  0  0  0  0  0  0  0  0  0
  -20.3357    0.7417  -14.6069 C   0  0  0  0  0  0  0  0  0  0  0  0
  -20.3439   -0.2758  -15.2962 O   0  0  0  0  0  0  0  0  0  0  0  0
  -21.2690    1.0492  -13.6275 N   0  0  0  0  0  0  0  0  0  0  0  0
  -21.2863    2.0029  -13.2834 H   0  0  0  0  0  0  0  0  0  0  0  0
  -22.3299    0.1891  -13.2419 C   0  0  0  0  0  0  0  0  0  0  0  0
  -22.4417   -0.3741  -11.9664 C   0  0  0  0  0  0  0  0  0  0  0  0
  -23.4740   -1.2557  -11.6486 C   0  0  0  0  0  0  0  0  0  0  0  0
  -24.4253   -1.5875  -12.6045 C   0  0  0  0  0  0  0  0  0  0  0  0
  -24.3603   -1.0226  -13.8841 C   0  0  0  0  0  0  0  0  0  0  0  0
  -23.3206   -0.1158  -14.1878 C   0  0  0  0  0  0  0  0  0  0  0  0
  -25.3703   -1.4035  -14.9385 C   0  0  0  0  0  0  0  0  0  0  0  0
  -26.6641   -1.3067  -14.5194 F   0  0  0  0  0  0  0  0  0  0  0  0
  -25.2808   -0.6252  -16.0519 F   0  0  0  0  0  0  0  0  0  0  0  0
  -25.2147   -2.6873  -15.3659 F   0  0  0  0  0  0  0  0  0  0  0  0
 23 24  1  0  0  0
 24 22  1  0  0  0
 22 25  1  0  0  0
 22 21  1  0  0  0
 25 26  1  0  0  0
 21 20  1  0  0  0
 20 19  1  0  0  0
 19 18  1  0  0  0
 18 16  1  0  0  0
 16 10  1  0  0  0
 16 17  1  0  0  0
 10 11  1  0  0  0
 10 15  2  0  0  0
 11 12  2  0  0  0
 12  1  1  0  0  0
 12 13  1  0  0  0
  1  2  1  0  0  0
  1  9  1  0  0  0
  2 27  1  0  0  0
  2  3  2  0  0  0
 27 29  1  0  0  0
 27 28  1  0  0  0
 29 30  1  0  0  0
 29 34  2  0  0  0
 30 31  2  0  0  0
 31 36  1  0  0  0
 31 32  1  0  0  0
 36 37  2  0  0  0
 36 38  1  0  0  0
 38 40  1  0  0  0
 38 39  1  0  0  0
 40 41  1  0  0  0
 40 45  2  0  0  0
 41 42  2  0  0  0
 42 43  1  0  0  0
 43 44  2  0  0  0
 44 46  1  0  0  0
 44 45  1  0  0  0
 46 47  1  0  0  0
 46 48  1  0  0  0
 46 49  1  0  0  0
 32 33  2  0  0  0
 33 34  1  0  0  0
 34 35  1  0  0  0
  3  4  1  0  0  0
  4  5  1  0  0  0
  4  9  2  0  0  0
  5  6  2  0  0  0
  6  7  1  0  0  0
  7  8  2  0  0  0
  8  9  1  0  0  0
 13 14  2  0  0  0
 14 15  1  0  0  0
M  END
> <minimizedAffinity>
-9.24577

$$$$
