CHEMBL4088067


 38 42  0  0  0  0  0  0  0  0999 V2000
  -13.6610    4.7689  -17.2385 N   0  0  0  0  0  0  0  0  0  0  0  0
  -14.4061    4.4194  -16.1761 N   0  0  0  0  0  0  0  0  0  0  0  0
  -14.7007    3.1483  -16.4069 C   0  0  0  0  0  0  0  0  0  0  0  0
  -14.2184    2.6618  -17.5859 N   0  0  0  0  0  0  0  0  0  0  0  0
  -13.6330    3.7046  -18.1360 C   0  0  0  0  0  0  0  0  0  0  0  0
  -13.0246    3.7315  -19.3335 N   0  0  0  0  0  0  0  0  0  0  0  0
  -12.9607    2.8864  -19.8882 H   0  0  0  0  0  0  0  0  0  0  0  0
  -12.5371    4.5542  -19.6782 H   0  0  0  0  0  0  0  0  0  0  0  0
  -14.0453    8.6321  -20.6021 C   0  0  0  0  0  0  0  0  0  0  0  0
  -13.0599    8.9228  -19.6335 C   0  0  0  0  0  0  0  0  0  0  0  0
  -12.7689    8.0810  -18.5658 C   0  0  0  0  0  0  0  0  0  0  0  0
  -11.7671    8.4048  -17.7343 N   0  0  0  0  0  0  0  0  0  0  0  0
  -11.5084    7.5646  -16.7234 C   0  0  0  0  0  0  0  0  0  0  0  0
  -12.1566    6.4291  -16.4477 N   0  0  0  0  0  0  0  0  0  0  0  0
  -13.1180    6.0822  -17.3412 C   0  0  0  0  0  0  0  0  0  0  0  0
  -13.5187    6.9083  -18.4163 C   0  0  0  0  0  0  0  0  0  0  0  0
  -14.6017    6.6992  -19.3175 C   0  0  0  0  0  0  0  0  0  0  0  0
  -14.8658    7.5260  -20.4087 C   0  0  0  0  0  0  0  0  0  0  0  0
  -13.0094    9.9531  -22.2577 C   0  0  0  0  0  0  0  0  0  0  0  0
  -14.2174    9.4283  -21.7021 O   0  0  0  0  0  0  0  0  0  0  0  0
  -15.9179    7.0601  -21.1366 O   0  0  0  0  0  0  0  0  0  0  0  0
  -16.9767    7.9201  -21.5092 C   0  0  0  0  0  0  0  0  0  0  0  0
  -15.3815    2.3496  -15.5658 N   0  0  0  0  0  0  0  0  0  0  0  0
  -14.8529    1.7078  -14.9934 H   0  0  0  0  0  0  0  0  0  0  0  0
  -16.7815    2.2131  -15.4767 C   0  0  0  0  0  0  0  0  0  0  0  0
  -17.6410    3.3082  -15.6050 C   0  0  0  0  0  0  0  0  0  0  0  0
  -19.0299    3.1782  -15.4606 C   0  0  0  0  0  0  0  0  0  0  0  0
  -19.6257    1.9602  -15.1254 C   0  0  0  0  0  0  0  0  0  0  0  0
  -18.7470    0.8691  -14.9848 C   0  0  0  0  0  0  0  0  0  0  0  0
  -17.3555    0.9863  -15.1562 C   0  0  0  0  0  0  0  0  0  0  0  0
  -20.9917    1.8058  -14.9529 N   0  0  0  0  0  0  0  0  0  0  0  0
  -21.9103    2.8718  -14.5621 C   0  0  0  0  0  0  0  0  0  0  0  0
  -22.7167    2.2799  -13.4135 C   0  0  0  0  0  0  0  0  0  0  0  0
  -22.8575    0.7996  -13.7832 C   0  0  0  0  0  0  0  0  0  0  0  0
  -21.5012    0.5077  -14.4825 C   0  0  0  0  0  0  0  0  0  0  0  0
  -23.1404   -0.0763  -12.6231 N   0  0  0  0  0  0  0  0  0  0  0  0
  -23.0937   -1.4930  -12.9956 C   0  0  0  0  0  0  0  0  0  0  0  0
  -24.4233    0.2205  -11.9863 C   0  0  0  0  0  0  0  0  0  0  0  0
 19 20  1  0  0  0
 20  9  1  0  0  0
  9 10  1  0  0  0
  9 18  2  0  0  0
 10 11  2  0  0  0
 11 12  1  0  0  0
 11 16  1  0  0  0
 12 13  2  0  0  0
 13 14  1  0  0  0
 14 15  2  0  0  0
 15  1  1  0  0  0
 15 16  1  0  0  0
  1  2  1  0  0  0
  1  5  1  0  0  0
  2  3  2  0  0  0
  3 23  1  0  0  0
  3  4  1  0  0  0
 23 25  1  0  0  0
 23 24  1  0  0  0
 25 26  1  0  0  0
 25 30  2  0  0  0
 26 27  2  0  0  0
 27 28  1  0  0  0
 28 31  1  0  0  0
 28 29  2  0  0  0
 31 32  1  0  0  0
 31 35  1  0  0  0
 32 33  1  0  0  0
 33 34  1  0  0  0
 34 35  1  0  0  0
 34 36  1  0  0  0
 36 37  1  0  0  0
 36 38  1  0  0  0
 29 30  1  0  0  0
  4  5  2  0  0  0
  5  6  1  0  0  0
  6  7  1  0  0  0
  6  8  1  0  0  0
 16 17  2  0  0  0
 17 18  1  0  0  0
 18 21  1  0  0  0
 21 22  1  0  0  0
M  END
> <minimizedAffinity>
-7.65932

$$$$
