CHEMBL363393


 28 30  0  0  0  0  0  0  0  0999 V2000
  -29.0508   -4.7621   -5.8635 C   0  0  0  0  0  0  0  0  0  0  0  0
  -29.8209   -4.8719   -7.0242 C   0  0  0  0  0  0  0  0  0  0  0  0
  -30.0289   -6.1123   -7.6302 C   0  0  0  0  0  0  0  0  0  0  0  0
  -29.4311   -7.2727   -7.1216 C   0  0  0  0  0  0  0  0  0  0  0  0
  -28.5437   -7.1319   -6.0499 C   0  0  0  0  0  0  0  0  0  0  0  0
  -28.3794   -5.8959   -5.4040 C   0  0  0  0  0  0  0  0  0  0  0  0
  -29.7752   -8.5897   -7.6770 C   0  0  0  0  0  0  0  0  0  0  0  0
  -30.8703   -9.2795   -7.1779 C   0  0  0  0  0  0  0  0  0  0  0  0
  -31.0814  -10.8140   -7.8868 S   0  0  0  0  0  0  0  0  0  0  0  0
  -29.7258  -10.5942   -8.8868 C   0  0  0  0  0  0  0  0  0  0  0  0
  -29.3799  -11.5699   -9.7431 N   0  0  0  0  0  0  0  0  0  0  0  0
  -28.2985  -11.2621  -10.4543 C   0  0  0  0  0  0  0  0  0  0  0  0
  -27.5670  -10.1442  -10.3753 N   0  0  0  0  0  0  0  0  0  0  0  0
  -27.9287   -9.1944   -9.4928 C   0  0  0  0  0  0  0  0  0  0  0  0
  -27.0757   -8.0968   -9.4478 N   0  0  0  0  0  0  0  0  0  0  0  0
  -29.0824   -9.3753   -8.6931 C   0  0  0  0  0  0  0  0  0  0  0  0
  -26.2313   -8.3073   -9.9694 H   0  0  0  0  0  0  0  0  0  0  0  0
  -26.9182   -7.7478   -8.5098 H   0  0  0  0  0  0  0  0  0  0  0  0
  -28.2246   -1.4633   -4.5649 N   0  0  0  0  0  0  0  0  0  0  0  0
  -28.1725   -2.4781   -5.5052 C   0  0  0  0  0  0  0  0  0  0  0  0
  -27.5300   -2.3652   -6.5422 O   0  0  0  0  0  0  0  0  0  0  0  0
  -28.9380   -3.5624   -5.1313 N   0  0  0  0  0  0  0  0  0  0  0  0
  -28.2741   -1.7827   -3.6101 H   0  0  0  0  0  0  0  0  0  0  0  0
  -29.6599   -3.3659   -4.4522 H   0  0  0  0  0  0  0  0  0  0  0  0
  -27.4034   -0.2997   -4.8266 C   0  0  0  0  0  0  0  0  0  0  0  0
  -28.1994    0.9974   -4.8607 C   0  0  0  0  0  0  0  0  0  0  0  0
  -30.5282    1.2000   -5.8165 C   0  0  0  0  0  0  0  0  0  0  0  0
  -29.0499    1.0573   -6.1301 C   0  0  0  0  0  0  0  0  0  0  0  0
 27 28  1  0  0  0
 28 26  1  0  0  0
 26 25  1  0  0  0
 25 19  1  0  0  0
 19 20  1  0  0  0
 19 23  1  0  0  0
 20 21  2  0  0  0
 20 22  1  0  0  0
 22  1  1  0  0  0
 22 24  1  0  0  0
  1  2  1  0  0  0
  1  6  2  0  0  0
  2  3  2  0  0  0
  3  4  1  0  0  0
  4  7  1  0  0  0
  4  5  2  0  0  0
  7  8  2  0  0  0
  7 16  1  0  0  0
  8  9  1  0  0  0
  9 10  1  0  0  0
 10 11  1  0  0  0
 10 16  2  0  0  0
 11 12  2  0  0  0
 12 13  1  0  0  0
 13 14  2  0  0  0
 14 15  1  0  0  0
 14 16  1  0  0  0
 15 17  1  0  0  0
 15 18  1  0  0  0
  5  6  1  0  0  0
M  END
> <minimizedAffinity>
-7.78300

$$$$
