CHEMBL371379


 38 42  0  0  0  0  0  0  0  0999 V2000
  -29.4047   -6.4843   -5.0825 C   0  0  0  0  0  0  0  0  0  0  0  0
  -29.1630   -7.4299   -4.0735 C   0  0  0  0  0  0  0  0  0  0  0  0
  -28.5235   -8.6453   -4.3322 C   0  0  0  0  0  0  0  0  0  0  0  0
  -27.9661   -8.8990   -5.5731 C   0  0  0  0  0  0  0  0  0  0  0  0
  -28.2571   -7.9734   -6.5853 C   0  0  0  0  0  0  0  0  0  0  0  0
  -29.0146   -6.8105   -6.3682 C   0  0  0  0  0  0  0  0  0  0  0  0
  -27.0941  -10.0711   -5.7809 C   0  0  0  0  0  0  0  0  0  0  0  0
  -27.4017  -11.0481   -6.7342 C   0  0  0  0  0  0  0  0  0  0  0  0
  -26.2302  -12.3031   -6.7583 S   0  0  0  0  0  0  0  0  0  0  0  0
  -25.3386  -11.6132   -5.4959 C   0  0  0  0  0  0  0  0  0  0  0  0
  -24.2500  -12.2610   -5.0460 N   0  0  0  0  0  0  0  0  0  0  0  0
  -23.6666  -11.6352   -4.0337 C   0  0  0  0  0  0  0  0  0  0  0  0
  -24.0299  -10.4701   -3.4929 N   0  0  0  0  0  0  0  0  0  0  0  0
  -25.0939   -9.8144   -3.9981 C   0  0  0  0  0  0  0  0  0  0  0  0
  -25.3000   -8.5930   -3.3888 N   0  0  0  0  0  0  0  0  0  0  0  0
  -25.8567  -10.4065   -5.0382 C   0  0  0  0  0  0  0  0  0  0  0  0
  -24.8179   -8.5058   -2.5057 H   0  0  0  0  0  0  0  0  0  0  0  0
  -26.1445   -8.0718   -3.4994 H   0  0  0  0  0  0  0  0  0  0  0  0
  -28.5815  -11.1768   -7.6894 C   0  0  0  0  0  0  0  0  0  0  0  0
  -28.3200  -10.6734   -9.0972 C   0  0  0  0  0  0  0  0  0  0  0  0
  -29.2711  -10.7448  -10.1196 C   0  0  0  0  0  0  0  0  0  0  0  0
  -28.9272  -10.4015  -11.4225 C   0  0  0  0  0  0  0  0  0  0  0  0
  -27.6403   -9.9594  -11.6658 C   0  0  0  0  0  0  0  0  0  0  0  0
  -26.6989   -9.8344  -10.7062 N   0  0  0  0  0  0  0  0  0  0  0  0
  -27.0599  -10.1823   -9.4485 C   0  0  0  0  0  0  0  0  0  0  0  0
  -30.0292   -2.8919   -4.7440 N   0  0  0  0  0  0  0  0  0  0  0  0
  -29.3667   -4.0260   -5.1242 C   0  0  0  0  0  0  0  0  0  0  0  0
  -28.2800   -4.0375   -5.6913 O   0  0  0  0  0  0  0  0  0  0  0  0
  -30.0180   -5.2269   -4.8254 N   0  0  0  0  0  0  0  0  0  0  0  0
  -30.9215   -2.9753   -4.2686 H   0  0  0  0  0  0  0  0  0  0  0  0
  -31.0236   -5.2028   -4.7577 H   0  0  0  0  0  0  0  0  0  0  0  0
  -30.6902    1.7885   -6.3608 C   0  0  0  0  0  0  0  0  0  0  0  0
  -29.8347    0.7188   -5.7499 C   0  0  0  0  0  0  0  0  0  0  0  0
  -28.5148    1.0368   -5.3915 C   0  0  0  0  0  0  0  0  0  0  0  0
  -27.7081    0.0783   -4.8187 C   0  0  0  0  0  0  0  0  0  0  0  0
  -28.2080   -1.2070   -4.6018 C   0  0  0  0  0  0  0  0  0  0  0  0
  -29.5168   -1.5685   -4.9536 C   0  0  0  0  0  0  0  0  0  0  0  0
  -30.3375   -0.5861   -5.5287 C   0  0  0  0  0  0  0  0  0  0  0  0
 32 33  1  0  0  0
 33 34  1  0  0  0
 33 38  2  0  0  0
 34 35  2  0  0  0
 35 36  1  0  0  0
 36 37  2  0  0  0
 37 26  1  0  0  0
 37 38  1  0  0  0
 26 27  1  0  0  0
 26 30  1  0  0  0
 27 28  2  0  0  0
 27 29  1  0  0  0
 29  1  1  0  0  0
 29 31  1  0  0  0
  1  2  1  0  0  0
  1  6  2  0  0  0
  2  3  2  0  0  0
  3  4  1  0  0  0
  4  7  1  0  0  0
  4  5  2  0  0  0
  7  8  2  0  0  0
  7 16  1  0  0  0
  8 19  1  0  0  0
  8  9  1  0  0  0
 19 20  1  0  0  0
 20 21  1  0  0  0
 20 25  2  0  0  0
 21 22  2  0  0  0
 22 23  1  0  0  0
 23 24  2  0  0  0
 24 25  1  0  0  0
  9 10  1  0  0  0
 10 11  1  0  0  0
 10 16  2  0  0  0
 11 12  2  0  0  0
 12 13  1  0  0  0
 13 14  2  0  0  0
 14 15  1  0  0  0
 14 16  1  0  0  0
 15 17  1  0  0  0
 15 18  1  0  0  0
  5  6  1  0  0  0
M  END
> <minimizedAffinity>
-9.73112

$$$$
