CHEMBL3962814


 37 42  0  0  0  0  0  0  0  0999 V2000
  -29.2990   11.8131  -14.5493 C   0  0  0  0  0  0  0  0  0  0  0  0
  -29.4223   10.5976  -15.2111 C   0  0  0  0  0  0  0  0  0  0  0  0
  -28.4281   10.0317  -15.8874 C   0  0  0  0  0  0  0  0  0  0  0  0
  -27.2575   10.6700  -16.0922 C   0  0  0  0  0  0  0  0  0  0  0  0
  -26.3227    9.9088  -16.6568 N   0  0  0  0  0  0  0  0  0  0  0  0
  -25.1576   10.3854  -17.0387 C   0  0  0  0  0  0  0  0  0  0  0  0
  -24.8825   11.7451  -16.9710 C   0  0  0  0  0  0  0  0  0  0  0  0
  -25.7931   12.5614  -16.2334 N   0  0  0  0  0  0  0  0  0  0  0  0
  -27.0147   12.0132  -15.7396 C   0  0  0  0  0  0  0  0  0  0  0  0
  -28.0850   12.6211  -14.8811 C   0  0  0  0  0  0  0  0  0  0  0  0
  -23.6491   12.0722  -17.8830 C   0  0  0  0  0  0  0  0  0  0  0  0
  -23.4708   12.6590  -19.1374 C   0  0  0  0  0  0  0  0  0  0  0  0
  -22.1521   12.5740  -19.5061 N   0  0  0  0  0  0  0  0  0  0  0  0
  -21.4601   11.9705  -18.5445 N   0  0  0  0  0  0  0  0  0  0  0  0
  -22.3169   11.6666  -17.5526 C   0  0  0  0  0  0  0  0  0  0  0  0
  -20.0203   11.5321  -18.6220 C   0  0  0  0  0  0  0  0  0  0  0  0
  -19.6075   10.7595  -19.9126 C   0  0  0  0  0  0  0  0  0  0  0  0
  -18.7837   11.5591  -20.8946 N   0  0  0  0  0  0  0  0  0  0  0  0
  -18.0258   10.7802  -21.8911 C   0  0  0  0  0  0  0  0  0  0  0  0
  -16.7152   10.4239  -21.2145 C   0  0  0  0  0  0  0  0  0  0  0  0
  -16.3558   11.7560  -20.6060 C   0  0  0  0  0  0  0  0  0  0  0  0
  -17.7199   12.3198  -20.1772 C   0  0  0  0  0  0  0  0  0  0  0  0
  -30.3549   11.9702  -13.5100 N   0  0  0  0  0  0  0  0  0  0  0  0
  -30.0764   12.5190   -9.6309 C   0  0  0  0  0  0  0  0  0  0  0  0
  -28.6780   12.4998   -9.5067 C   0  0  0  0  0  0  0  0  0  0  0  0
  -27.8712   12.4099  -10.6225 C   0  0  0  0  0  0  0  0  0  0  0  0
  -28.4593   12.3687  -11.8903 C   0  0  0  0  0  0  0  0  0  0  0  0
  -29.8672   12.2603  -12.1197 C   0  0  0  0  0  0  0  0  0  0  0  0
  -30.6749   12.3695  -10.9332 C   0  0  0  0  0  0  0  0  0  0  0  0
  -31.7878   11.7221   -8.0344 C   0  0  0  0  0  0  0  0  0  0  0  0
  -30.8534   12.6590   -8.5140 O   0  0  0  0  0  0  0  0  0  0  0  0
  -26.5243   12.3045  -10.4434 O   0  0  0  0  0  0  0  0  0  0  0  0
  -25.5781   12.4001  -11.4518 C   0  0  0  0  0  0  0  0  0  0  0  0
  -31.6412   11.2692  -13.7095 C   0  0  0  0  0  0  0  0  0  0  0  0
  -31.8727   10.0622  -12.7290 C   0  0  0  0  0  0  0  0  0  0  0  0
  -33.1316    9.2314  -12.8443 C   0  0  0  0  0  0  0  0  0  0  0  0
  -33.0451   10.3127  -11.7677 C   0  0  0  0  0  0  0  0  0  0  0  0
 30 31  1  0  0  0
 31 24  1  0  0  0
 24 25  1  0  0  0
 24 29  2  0  0  0
 25 26  2  0  0  0
 26 32  1  0  0  0
 26 27  1  0  0  0
 32 33  1  0  0  0
 27 28  2  0  0  0
 28 23  1  0  0  0
 28 29  1  0  0  0
 23 34  1  0  0  0
 23  1  1  0  0  0
 34 35  1  0  0  0
 35 36  1  0  0  0
 35 37  1  0  0  0
 36 37  1  0  0  0
  1  2  1  0  0  0
  1 10  2  0  0  0
  2  3  2  0  0  0
  3  4  1  0  0  0
  4  5  1  0  0  0
  4  9  2  0  0  0
  5  6  2  0  0  0
  6  7  1  0  0  0
  7 11  1  0  0  0
  7  8  2  0  0  0
 11 12  1  0  0  0
 11 15  2  0  0  0
 12 13  2  0  0  0
 13 14  1  0  0  0
 14 16  1  0  0  0
 14 15  1  0  0  0
 16 17  1  0  0  0
 17 18  1  0  0  0
 18 19  1  0  0  0
 18 22  1  0  0  0
 19 20  1  0  0  0
 20 21  1  0  0  0
 21 22  1  0  0  0
  8  9  1  0  0  0
  9 10  1  0  0  0
M  END
> <minimizedAffinity>
-5.66357

$$$$
