CHEMBL231310


 29 32  0  0  0  0  0  0  0  0999 V2000
  -23.2442    0.3139  -13.5158 C   0  0  0  0  0  0  0  0  0  0  0  0
  -23.1625    1.7100  -13.5243 C   0  0  0  0  0  0  0  0  0  0  0  0
  -22.1172    2.3695  -14.1709 C   0  0  0  0  0  0  0  0  0  0  0  0
  -21.0932    1.6660  -14.8038 C   0  0  0  0  0  0  0  0  0  0  0  0
  -21.1595    0.2695  -14.8011 C   0  0  0  0  0  0  0  0  0  0  0  0
  -22.2458   -0.3961  -14.1942 C   0  0  0  0  0  0  0  0  0  0  0  0
  -25.4322   -0.7776  -15.8340 N   0  0  0  0  0  0  0  0  0  0  0  0
  -26.0650   -1.1807  -14.6638 C   0  0  0  0  0  0  0  0  0  0  0  0
  -27.2348   -1.8260  -14.8688 N   0  0  0  0  0  0  0  0  0  0  0  0
  -27.9282   -2.3175  -13.8310 C   0  0  0  0  0  0  0  0  0  0  0  0
  -27.5263   -2.2149  -12.5214 C   0  0  0  0  0  0  0  0  0  0  0  0
  -26.3264   -1.5311  -12.2992 C   0  0  0  0  0  0  0  0  0  0  0  0
  -25.6166   -1.2682  -10.7584 S   0  0  0  0  0  0  0  0  0  0  0  0
  -24.3145   -0.4224  -11.4336 C   0  0  0  0  0  0  0  0  0  0  0  0
  -24.3619   -0.3371  -12.8158 C   0  0  0  0  0  0  0  0  0  0  0  0
  -25.5634   -0.9885  -13.3458 C   0  0  0  0  0  0  0  0  0  0  0  0
  -25.8970   -1.2270  -16.6163 H   0  0  0  0  0  0  0  0  0  0  0  0
  -24.4290   -0.9075  -15.8044 H   0  0  0  0  0  0  0  0  0  0  0  0
  -19.9900    2.3061  -15.4206 N   0  0  0  0  0  0  0  0  0  0  0  0
  -18.6707    2.1656  -15.0412 C   0  0  0  0  0  0  0  0  0  0  0  0
  -18.2633    1.5320  -14.0753 O   0  0  0  0  0  0  0  0  0  0  0  0
  -17.7844    2.7770  -15.9027 N   0  0  0  0  0  0  0  0  0  0  0  0
  -20.1810    2.8953  -16.2158 H   0  0  0  0  0  0  0  0  0  0  0  0
  -18.0897    3.6277  -16.3514 H   0  0  0  0  0  0  0  0  0  0  0  0
  -16.3762    2.6365  -15.5901 C   0  0  0  0  0  0  0  0  0  0  0  0
  -15.5453    3.8721  -15.9277 C   0  0  0  0  0  0  0  0  0  0  0  0
  -14.1056    3.3634  -15.9030 C   0  0  0  0  0  0  0  0  0  0  0  0
  -14.1923    1.8397  -16.0404 C   0  0  0  0  0  0  0  0  0  0  0  0
  -15.6561    1.5348  -16.3486 C   0  0  0  0  0  0  0  0  0  0  0  0
  7  8  1  0  0  0
  7 17  1  0  0  0
  7 18  1  0  0  0
  8  9  1  0  0  0
  8 16  2  0  0  0
  9 10  2  0  0  0
 10 11  1  0  0  0
 11 12  2  0  0  0
 12 13  1  0  0  0
 12 16  1  0  0  0
 13 14  1  0  0  0
 14 15  2  0  0  0
 15  1  1  0  0  0
 15 16  1  0  0  0
  1  2  1  0  0  0
  1  6  2  0  0  0
  2  3  2  0  0  0
  3  4  1  0  0  0
  4 19  1  0  0  0
  4  5  2  0  0  0
 19 20  1  0  0  0
 19 23  1  0  0  0
 20 21  2  0  0  0
 20 22  1  0  0  0
 22 25  1  0  0  0
 22 24  1  0  0  0
 25 26  1  0  0  0
 25 29  1  0  0  0
 26 27  1  0  0  0
 27 28  1  0  0  0
 28 29  1  0  0  0
  5  6  1  0  0  0
M  END
> <minimizedAffinity>
-8.53208

$$$$
