CHEMBL3774951


 25 27  0  0  0  0  0  0  0  0999 V2000
  -28.8432   -1.6683   -5.0940 C   0  0  0  0  0  0  0  0  0  0  0  0
  -29.7309   -2.2901   -4.2043 C   0  0  0  0  0  0  0  0  0  0  0  0
  -30.2242   -3.5629   -4.4209 C   0  0  0  0  0  0  0  0  0  0  0  0
  -31.1233   -4.0313   -3.5491 N   0  0  0  0  0  0  0  0  0  0  0  0
  -31.5811   -5.2666   -3.7782 C   0  0  0  0  0  0  0  0  0  0  0  0
  -31.1844   -6.0713   -4.7590 N   0  0  0  0  0  0  0  0  0  0  0  0
  -30.2584   -5.5980   -5.6171 C   0  0  0  0  0  0  0  0  0  0  0  0
  -29.7657   -4.2898   -5.5225 C   0  0  0  0  0  0  0  0  0  0  0  0
  -28.8469   -3.6888   -6.4106 C   0  0  0  0  0  0  0  0  0  0  0  0
  -28.3746   -2.3936   -6.1941 C   0  0  0  0  0  0  0  0  0  0  0  0
  -29.3207    0.6175   -5.4641 C   0  0  0  0  0  0  0  0  0  0  0  0
  -28.4325   -0.3690   -4.9386 O   0  0  0  0  0  0  0  0  0  0  0  0
  -29.6987   -6.5006   -6.5598 N   0  0  0  0  0  0  0  0  0  0  0  0
  -29.4509   -6.0423   -7.4253 H   0  0  0  0  0  0  0  0  0  0  0  0
  -30.0970   -7.8526   -6.6802 C   0  0  0  0  0  0  0  0  0  0  0  0
  -31.1652   -8.1716   -7.5441 C   0  0  0  0  0  0  0  0  0  0  0  0
  -31.5112   -9.4894   -7.8012 C   0  0  0  0  0  0  0  0  0  0  0  0
  -32.5179   -9.8003   -8.6676 O   0  0  0  0  0  0  0  0  0  0  0  0
  -30.8205  -10.5221   -7.1931 C   0  0  0  0  0  0  0  0  0  0  0  0
  -29.7973  -10.2273   -6.2897 C   0  0  0  0  0  0  0  0  0  0  0  0
  -29.4336   -8.8960   -6.0100 C   0  0  0  0  0  0  0  0  0  0  0  0
  -28.3445   -8.6360   -5.0066 C   0  0  0  0  0  0  0  0  0  0  0  0
  -32.8580   -8.9689   -9.0418 H   0  0  0  0  0  0  0  0  0  0  0  0
  -27.5414   -1.9373   -7.1778 O   0  0  0  0  0  0  0  0  0  0  0  0
  -27.8581   -2.3450   -8.5043 C   0  0  0  0  0  0  0  0  0  0  0  0
 11 12  1  0  0  0
 12  1  1  0  0  0
  1  2  1  0  0  0
  1 10  2  0  0  0
  2  3  2  0  0  0
  3  4  1  0  0  0
  3  8  1  0  0  0
  4  5  2  0  0  0
  5  6  1  0  0  0
  6  7  2  0  0  0
  7 13  1  0  0  0
  7  8  1  0  0  0
 13 15  1  0  0  0
 13 14  1  0  0  0
 15 16  1  0  0  0
 15 21  2  0  0  0
 16 17  2  0  0  0
 17 18  1  0  0  0
 17 19  1  0  0  0
 18 23  1  0  0  0
 19 20  2  0  0  0
 20 21  1  0  0  0
 21 22  1  0  0  0
  8  9  2  0  0  0
  9 10  1  0  0  0
 10 24  1  0  0  0
 24 25  1  0  0  0
M  END
> <minimizedAffinity>
-7.84214

$$$$
