CHEMBL514351


 38 41  0  0  0  0  0  0  0  0999 V2000
  -29.0058   -1.3744   -4.9516 C   0  0  0  0  0  0  0  0  0  0  0  0
  -28.6982   -1.7118   -6.3832 C   0  0  0  0  0  0  0  0  0  0  0  0
  -27.9749   -0.7693   -7.1302 C   0  0  0  0  0  0  0  0  0  0  0  0
  -27.4721   -1.0845   -8.3927 C   0  0  0  0  0  0  0  0  0  0  0  0
  -27.6361   -2.3603   -8.9227 C   0  0  0  0  0  0  0  0  0  0  0  0
  -28.5230   -3.2217   -8.2556 C   0  0  0  0  0  0  0  0  0  0  0  0
  -29.0985   -2.9065   -7.0056 C   0  0  0  0  0  0  0  0  0  0  0  0
  -26.9981   -2.7805  -10.0962 N   0  0  0  0  0  0  0  0  0  0  0  0
  -26.0523   -3.1149   -9.9392 H   0  0  0  0  0  0  0  0  0  0  0  0
  -27.1099   -1.9725  -11.3191 C   0  0  0  0  0  0  0  0  0  0  0  0
  -25.8019   -1.5626  -11.9839 C   0  0  0  0  0  0  0  0  0  0  0  0
  -24.6984   -1.0527  -11.2931 C   0  0  0  0  0  0  0  0  0  0  0  0
  -23.5915   -0.5325  -11.9796 C   0  0  0  0  0  0  0  0  0  0  0  0
  -23.5335   -0.5398  -13.3784 C   0  0  0  0  0  0  0  0  0  0  0  0
  -24.5933   -1.1304  -14.0738 C   0  0  0  0  0  0  0  0  0  0  0  0
  -25.7067   -1.6405  -13.3864 C   0  0  0  0  0  0  0  0  0  0  0  0
  -22.4622    0.1440  -14.1267 C   0  0  0  0  0  0  0  0  0  0  0  0
  -21.6755    1.1022  -13.6109 C   0  0  0  0  0  0  0  0  0  0  0  0
  -20.6601    1.7931  -14.4427 C   0  0  0  0  0  0  0  0  0  0  0  0
  -19.8659    1.2153  -15.1766 O   0  0  0  0  0  0  0  0  0  0  0  0
  -20.6883    3.1559  -14.2998 N   0  0  0  0  0  0  0  0  0  0  0  0
  -19.7043    3.8933  -14.9943 O   0  0  0  0  0  0  0  0  0  0  0  0
  -21.2660    3.6674  -13.6440 H   0  0  0  0  0  0  0  0  0  0  0  0
  -19.1947    3.1862  -15.4475 H   0  0  0  0  0  0  0  0  0  0  0  0
  -30.0557   -3.7610   -6.4222 N   0  0  0  0  0  0  0  0  0  0  0  0
  -30.9813   -3.7583   -6.8226 H   0  0  0  0  0  0  0  0  0  0  0  0
  -29.8394   -5.0424   -5.8933 C   0  0  0  0  0  0  0  0  0  0  0  0
  -29.3387   -5.1110   -4.6530 N   0  0  0  0  0  0  0  0  0  0  0  0
  -29.1903   -6.3392   -4.1192 C   0  0  0  0  0  0  0  0  0  0  0  0
  -29.5547   -7.5010   -4.7582 C   0  0  0  0  0  0  0  0  0  0  0  0
  -30.0927   -7.3496   -6.0169 C   0  0  0  0  0  0  0  0  0  0  0  0
  -30.2062   -6.1301   -6.5829 N   0  0  0  0  0  0  0  0  0  0  0  0
  -30.6465   -8.4527   -6.8213 C   0  0  0  0  0  0  0  0  0  0  0  0
  -29.8676   -9.5776   -7.1449 C   0  0  0  0  0  0  0  0  0  0  0  0
  -30.3749  -10.6024   -7.9427 C   0  0  0  0  0  0  0  0  0  0  0  0
  -31.6684  -10.4850   -8.4098 C   0  0  0  0  0  0  0  0  0  0  0  0
  -32.4697   -9.4356   -8.1187 N   0  0  0  0  0  0  0  0  0  0  0  0
  -31.9424   -8.4575   -7.3379 C   0  0  0  0  0  0  0  0  0  0  0  0
  1  2  1  0  0  0
  2  3  1  0  0  0
  2  7  2  0  0  0
  3  4  2  0  0  0
  4  5  1  0  0  0
  5  8  1  0  0  0
  5  6  2  0  0  0
  8 10  1  0  0  0
  8  9  1  0  0  0
 10 11  1  0  0  0
 11 12  1  0  0  0
 11 16  2  0  0  0
 12 13  2  0  0  0
 13 14  1  0  0  0
 14 17  1  0  0  0
 14 15  2  0  0  0
 17 18  2  0  0  0
 18 19  1  0  0  0
 19 20  2  0  0  0
 19 21  1  0  0  0
 21 22  1  0  0  0
 21 23  1  0  0  0
 22 24  1  0  0  0
 15 16  1  0  0  0
  6  7  1  0  0  0
  7 25  1  0  0  0
 25 27  1  0  0  0
 25 26  1  0  0  0
 27 28  1  0  0  0
 27 32  2  0  0  0
 28 29  2  0  0  0
 29 30  1  0  0  0
 30 31  2  0  0  0
 31 33  1  0  0  0
 31 32  1  0  0  0
 33 34  1  0  0  0
 33 38  2  0  0  0
 34 35  2  0  0  0
 35 36  1  0  0  0
 36 37  2  0  0  0
 37 38  1  0  0  0
M  END
> <minimizedAffinity>
-11.35679

$$$$
