CHEMBL462168


 39 43  0  0  0  0  0  0  0  0999 V2000
  -13.6899   -1.5998  -13.9815 C   0  0  0  0  0  0  0  0  0  0  0  0
  -14.9426   -1.7984  -13.3938 C   0  0  0  0  0  0  0  0  0  0  0  0
  -15.9917   -0.8719  -13.5728 C   0  0  0  0  0  0  0  0  0  0  0  0
  -15.7677    0.2880  -14.3466 C   0  0  0  0  0  0  0  0  0  0  0  0
  -16.5138    1.4533  -14.7371 C   0  0  0  0  0  0  0  0  0  0  0  0
  -15.7562    2.2600  -15.4808 N   0  0  0  0  0  0  0  0  0  0  0  0
  -14.5624    1.6717  -15.5447 N   0  0  0  0  0  0  0  0  0  0  0  0
  -13.4767    2.3587  -16.2039 C   0  0  0  0  0  0  0  0  0  0  0  0
  -14.4975    0.4675  -14.8978 C   0  0  0  0  0  0  0  0  0  0  0  0
  -13.4412   -0.4432  -14.7295 C   0  0  0  0  0  0  0  0  0  0  0  0
  -17.8285    1.7474  -14.3927 N   0  0  0  0  0  0  0  0  0  0  0  0
  -18.9142    1.0280  -14.8685 C   0  0  0  0  0  0  0  0  0  0  0  0
  -18.8807    0.0292  -15.5847 O   0  0  0  0  0  0  0  0  0  0  0  0
  -17.9578    2.5268  -13.7682 H   0  0  0  0  0  0  0  0  0  0  0  0
  -20.2833    1.4909  -14.4683 C   0  0  0  0  0  0  0  0  0  0  0  0
  -20.6790    2.8318  -14.4665 C   0  0  0  0  0  0  0  0  0  0  0  0
  -21.9982    3.1716  -14.1439 C   0  0  0  0  0  0  0  0  0  0  0  0
  -22.9337    2.1798  -13.8373 C   0  0  0  0  0  0  0  0  0  0  0  0
  -22.5620    0.8318  -13.8484 C   0  0  0  0  0  0  0  0  0  0  0  0
  -21.2342    0.5008  -14.1559 C   0  0  0  0  0  0  0  0  0  0  0  0
  -23.5620   -0.2681  -13.5638 C   0  0  0  0  0  0  0  0  0  0  0  0
  -22.9897   -1.4106  -13.0882 F   0  0  0  0  0  0  0  0  0  0  0  0
  -24.4916    0.0927  -12.6360 F   0  0  0  0  0  0  0  0  0  0  0  0
  -24.2598   -0.6381  -14.6728 F   0  0  0  0  0  0  0  0  0  0  0  0
  -12.7180   -2.5557  -13.7229 O   0  0  0  0  0  0  0  0  0  0  0  0
  -13.8957   -7.4489  -12.8374 C   0  0  0  0  0  0  0  0  0  0  0  0
  -13.4718   -7.3008  -14.1673 C   0  0  0  0  0  0  0  0  0  0  0  0
  -13.0941   -6.0784  -14.7030 C   0  0  0  0  0  0  0  0  0  0  0  0
  -12.6199   -6.0721  -15.9585 N   0  0  0  0  0  0  0  0  0  0  0  0
  -12.2167   -4.9002  -16.4824 C   0  0  0  0  0  0  0  0  0  0  0  0
  -12.2548   -3.7028  -15.7992 C   0  0  0  0  0  0  0  0  0  0  0  0
  -12.7065   -3.7172  -14.4813 C   0  0  0  0  0  0  0  0  0  0  0  0
  -13.1894   -4.9217  -13.9106 C   0  0  0  0  0  0  0  0  0  0  0  0
  -13.7353   -5.0492  -12.6109 C   0  0  0  0  0  0  0  0  0  0  0  0
  -14.0801   -6.3003  -12.0615 C   0  0  0  0  0  0  0  0  0  0  0  0
  -12.9967   -9.5490  -12.1980 C   0  0  0  0  0  0  0  0  0  0  0  0
  -14.1389   -8.6919  -12.3121 O   0  0  0  0  0  0  0  0  0  0  0  0
  -14.5490   -6.1858  -10.7827 O   0  0  0  0  0  0  0  0  0  0  0  0
  -13.8399   -5.4049   -9.8329 C   0  0  0  0  0  0  0  0  0  0  0  0
 36 37  1  0  0  0
 37 26  1  0  0  0
 26 27  1  0  0  0
 26 35  2  0  0  0
 27 28  2  0  0  0
 28 29  1  0  0  0
 28 33  1  0  0  0
 29 30  2  0  0  0
 30 31  1  0  0  0
 31 32  2  0  0  0
 32 25  1  0  0  0
 32 33  1  0  0  0
 25  1  1  0  0  0
  1  2  1  0  0  0
  1 10  2  0  0  0
  2  3  2  0  0  0
  3  4  1  0  0  0
  4  5  1  0  0  0
  4  9  2  0  0  0
  5 11  1  0  0  0
  5  6  2  0  0  0
 11 12  1  0  0  0
 11 14  1  0  0  0
 12 13  2  0  0  0
 12 15  1  0  0  0
 15 16  1  0  0  0
 15 20  2  0  0  0
 16 17  2  0  0  0
 17 18  1  0  0  0
 18 19  2  0  0  0
 19 21  1  0  0  0
 19 20  1  0  0  0
 21 22  1  0  0  0
 21 23  1  0  0  0
 21 24  1  0  0  0
  6  7  1  0  0  0
  7  8  1  0  0  0
  7  9  1  0  0  0
  9 10  1  0  0  0
 33 34  2  0  0  0
 34 35  1  0  0  0
 35 38  1  0  0  0
 38 39  1  0  0  0
M  END
> <minimizedAffinity>
-9.67588

$$$$
