CHEMBL452914


 25 28  0  0  0  0  0  0  0  0999 V2000
  -21.7586    0.7958  -14.2631 C   0  0  0  0  0  0  0  0  0  0  0  0
  -20.5503    0.0266  -14.6930 C   0  0  0  0  0  0  0  0  0  0  0  0
  -19.4169    0.5182  -15.0926 N   0  0  0  0  0  0  0  0  0  0  0  0
  -19.3306    1.8820  -15.1096 C   0  0  0  0  0  0  0  0  0  0  0  0
  -18.3133    2.7449  -15.4679 C   0  0  0  0  0  0  0  0  0  0  0  0
  -18.8268    4.0336  -15.2327 C   0  0  0  0  0  0  0  0  0  0  0  0
  -20.0762    4.0216  -14.7660 N   0  0  0  0  0  0  0  0  0  0  0  0
  -20.4018    2.6942  -14.7194 N   0  0  0  0  0  0  0  0  0  0  0  0
  -21.6424    2.1417  -14.3011 C   0  0  0  0  0  0  0  0  0  0  0  0
  -22.6475    3.0447  -13.9506 N   0  0  0  0  0  0  0  0  0  0  0  0
  -22.2600    3.9665  -13.7306 H   0  0  0  0  0  0  0  0  0  0  0  0
  -23.3008    2.6951  -13.2555 H   0  0  0  0  0  0  0  0  0  0  0  0
  -25.2925   -1.2805  -13.0479 C   0  0  0  0  0  0  0  0  0  0  0  0
  -24.4379   -0.7298  -12.0928 C   0  0  0  0  0  0  0  0  0  0  0  0
  -23.2810   -0.0503  -12.4908 C   0  0  0  0  0  0  0  0  0  0  0  0
  -22.9706    0.0858  -13.8481 C   0  0  0  0  0  0  0  0  0  0  0  0
  -23.8270   -0.4663  -14.8051 C   0  0  0  0  0  0  0  0  0  0  0  0
  -24.9827   -1.1407  -14.4031 C   0  0  0  0  0  0  0  0  0  0  0  0
  -27.2126   -1.5523  -11.6738 C   0  0  0  0  0  0  0  0  0  0  0  0
  -26.4409   -1.9771  -12.7910 O   0  0  0  0  0  0  0  0  0  0  0  0
  -16.9765    2.4300  -15.9761 C   0  0  0  0  0  0  0  0  0  0  0  0
  -16.1495    3.3797  -16.6499 C   0  0  0  0  0  0  0  0  0  0  0  0
  -14.9393    2.8412  -17.0303 C   0  0  0  0  0  0  0  0  0  0  0  0
  -14.7969    1.1978  -16.5832 S   0  0  0  0  0  0  0  0  0  0  0  0
  -16.3558    1.2012  -15.8794 C   0  0  0  0  0  0  0  0  0  0  0  0
 19 20  1  0  0  0
 20 13  1  0  0  0
 13 14  1  0  0  0
 13 18  2  0  0  0
 14 15  2  0  0  0
 15 16  1  0  0  0
 16  1  1  0  0  0
 16 17  2  0  0  0
  1  2  1  0  0  0
  1  9  2  0  0  0
  2  3  2  0  0  0
  3  4  1  0  0  0
  4  5  2  0  0  0
  4  8  1  0  0  0
  5 21  1  0  0  0
  5  6  1  0  0  0
 21 22  1  0  0  0
 21 25  2  0  0  0
 22 23  2  0  0  0
 23 24  1  0  0  0
 24 25  1  0  0  0
  6  7  2  0  0  0
  7  8  1  0  0  0
  8  9  1  0  0  0
  9 10  1  0  0  0
 10 11  1  0  0  0
 10 12  1  0  0  0
 17 18  1  0  0  0
M  END
> <minimizedAffinity>
-8.58455

$$$$
