CHEMBL380131


 32 35  0  0  0  0  0  0  0  0999 V2000
  -28.9897   -7.9198   -4.7939 C   0  0  0  0  0  0  0  0  0  0  0  0
  -29.0750   -8.3322   -3.5432 N   0  0  0  0  0  0  0  0  0  0  0  0
  -29.6892   -7.3293   -2.8356 N   0  0  0  0  0  0  0  0  0  0  0  0
  -29.9469   -6.3622   -3.6889 C   0  0  0  0  0  0  0  0  0  0  0  0
  -29.5636   -6.6815   -4.9622 O   0  0  0  0  0  0  0  0  0  0  0  0
  -29.8229   -7.9971   -7.7652 C   0  0  0  0  0  0  0  0  0  0  0  0
  -28.7056   -8.6760   -7.1515 N   0  0  0  0  0  0  0  0  0  0  0  0
  -27.8525   -9.5253   -7.8013 C   0  0  0  0  0  0  0  0  0  0  0  0
  -26.9932  -10.0753   -6.9721 N   0  0  0  0  0  0  0  0  0  0  0  0
  -27.2658   -9.5132   -5.7625 C   0  0  0  0  0  0  0  0  0  0  0  0
  -28.3276   -8.6372   -5.8297 C   0  0  0  0  0  0  0  0  0  0  0  0
  -26.5814   -9.8341   -4.6562 N   0  0  0  0  0  0  0  0  0  0  0  0
  -26.9666  -10.4816   -3.9782 H   0  0  0  0  0  0  0  0  0  0  0  0
  -25.4178   -9.0933   -4.2256 C   0  0  0  0  0  0  0  0  0  0  0  0
  -24.1835   -9.9182   -4.5182 C   0  0  0  0  0  0  0  0  0  0  0  0
  -23.5791   -9.8734   -5.7815 C   0  0  0  0  0  0  0  0  0  0  0  0
  -22.4454  -10.6402   -6.0129 C   0  0  0  0  0  0  0  0  0  0  0  0
  -21.8810  -11.4359   -5.0806 N   0  0  0  0  0  0  0  0  0  0  0  0
  -22.4706  -11.4589   -3.8657 C   0  0  0  0  0  0  0  0  0  0  0  0
  -23.6053  -10.7313   -3.5402 C   0  0  0  0  0  0  0  0  0  0  0  0
  -30.4829   -5.1381   -3.5357 N   0  0  0  0  0  0  0  0  0  0  0  0
  -31.4763   -5.0989   -3.3420 H   0  0  0  0  0  0  0  0  0  0  0  0
  -29.9333   -3.9260   -3.9949 C   0  0  0  0  0  0  0  0  0  0  0  0
  -28.9969   -3.1780   -3.2705 C   0  0  0  0  0  0  0  0  0  0  0  0
  -28.5043   -1.9623   -3.7515 C   0  0  0  0  0  0  0  0  0  0  0  0
  -28.9584   -1.4455   -4.9718 C   0  0  0  0  0  0  0  0  0  0  0  0
  -29.9126   -2.1705   -5.6928 C   0  0  0  0  0  0  0  0  0  0  0  0
  -30.3984   -3.3911   -5.2075 C   0  0  0  0  0  0  0  0  0  0  0  0
  -28.4366   -0.1312   -5.4944 C   0  0  0  0  0  0  0  0  0  0  0  0
  -27.4513   -0.2645   -6.4256 F   0  0  0  0  0  0  0  0  0  0  0  0
  -29.4098    0.6150   -6.0861 F   0  0  0  0  0  0  0  0  0  0  0  0
  -27.9144    0.6483   -4.5079 F   0  0  0  0  0  0  0  0  0  0  0  0
  6  7  1  0  0  0
  7  8  1  0  0  0
  7 11  1  0  0  0
  8  9  2  0  0  0
  9 10  1  0  0  0
 10 12  1  0  0  0
 10 11  2  0  0  0
 12 14  1  0  0  0
 12 13  1  0  0  0
 14 15  1  0  0  0
 15 16  1  0  0  0
 15 20  2  0  0  0
 16 17  2  0  0  0
 17 18  1  0  0  0
 18 19  2  0  0  0
 19 20  1  0  0  0
 11  1  1  0  0  0
  1  2  2  0  0  0
  1  5  1  0  0  0
  2  3  1  0  0  0
  3  4  2  0  0  0
  4 21  1  0  0  0
  4  5  1  0  0  0
 21 23  1  0  0  0
 21 22  1  0  0  0
 23 24  1  0  0  0
 23 28  2  0  0  0
 24 25  2  0  0  0
 25 26  1  0  0  0
 26 29  1  0  0  0
 26 27  2  0  0  0
 29 30  1  0  0  0
 29 31  1  0  0  0
 29 32  1  0  0  0
 27 28  1  0  0  0
M  END
> <minimizedAffinity>
-8.79760

$$$$
