CHEMBL193256


 32 34  0  0  0  0  0  0  0  0999 V2000
  -13.0592   -7.2446  -11.9666 C   0  0  0  0  0  0  0  0  0  0  0  0
  -12.1085   -6.9475  -11.0137 C   0  0  0  0  0  0  0  0  0  0  0  0
  -12.2969   -5.6785  -10.5809 N   0  0  0  0  0  0  0  0  0  0  0  0
  -11.5387   -5.1117   -9.6345 N   0  0  0  0  0  0  0  0  0  0  0  0
  -11.9138   -3.9222   -9.3065 C   0  0  0  0  0  0  0  0  0  0  0  0
  -12.9768   -3.2387   -9.8262 N   0  0  0  0  0  0  0  0  0  0  0  0
  -13.7176   -3.7786  -10.7538 C   0  0  0  0  0  0  0  0  0  0  0  0
  -13.3694   -5.1060  -11.2160 C   0  0  0  0  0  0  0  0  0  0  0  0
  -13.8758   -6.0450  -12.1329 C   0  0  0  0  0  0  0  0  0  0  0  0
  -15.0701   -6.0202  -13.0790 C   0  0  0  0  0  0  0  0  0  0  0  0
  -16.3750   -5.7170  -12.3384 C   0  0  0  0  0  0  0  0  0  0  0  0
  -14.9494   -5.1639  -14.3328 C   0  0  0  0  0  0  0  0  0  0  0  0
  -13.2035   -8.5723  -12.5724 C   0  0  0  0  0  0  0  0  0  0  0  0
  -13.9039   -9.4646  -12.1148 O   0  0  0  0  0  0  0  0  0  0  0  0
  -12.3766   -8.7268  -13.6492 O   0  0  0  0  0  0  0  0  0  0  0  0
  -12.0836   -7.3700  -15.5953 C   0  0  0  0  0  0  0  0  0  0  0  0
  -12.9578   -8.4124  -14.9190 C   0  0  0  0  0  0  0  0  0  0  0  0
  -14.7713   -3.0385  -11.2556 N   0  0  0  0  0  0  0  0  0  0  0  0
  -15.6029   -3.6065  -11.3635 H   0  0  0  0  0  0  0  0  0  0  0  0
  -14.6315   -2.0910  -12.2982 C   0  0  0  0  0  0  0  0  0  0  0  0
  -13.5112   -2.1276  -13.1321 C   0  0  0  0  0  0  0  0  0  0  0  0
  -13.3926   -1.2410  -14.2065 C   0  0  0  0  0  0  0  0  0  0  0  0
  -14.4067   -0.3158  -14.4901 C   0  0  0  0  0  0  0  0  0  0  0  0
  -14.1256    0.7466  -16.0430 Br  0  0  0  0  0  0  0  0  0  0  0  0
  -15.5505   -0.2689  -13.6808 C   0  0  0  0  0  0  0  0  0  0  0  0
  -15.6464   -1.1683  -12.5981 C   0  0  0  0  0  0  0  0  0  0  0  0
  -16.7385    0.6112  -13.8972 C   0  0  0  0  0  0  0  0  0  0  0  0
  -17.0607    1.4086  -13.0198 O   0  0  0  0  0  0  0  0  0  0  0  0
  -17.4016    0.4764  -15.0908 N   0  0  0  0  0  0  0  0  0  0  0  0
  -16.9871    0.0233  -15.8962 H   0  0  0  0  0  0  0  0  0  0  0  0
  -18.4312    1.4019  -15.3631 O   0  0  0  0  0  0  0  0  0  0  0  0
  -17.8287    2.5879  -15.8778 C   0  0  0  0  0  0  0  0  0  0  0  0
 16 17  1  0  0  0
 17 15  1  0  0  0
 15 13  1  0  0  0
 13 14  2  0  0  0
 13  1  1  0  0  0
  1  2  2  0  0  0
  1  9  1  0  0  0
  2  3  1  0  0  0
  3  4  1  0  0  0
  3  8  1  0  0  0
  4  5  2  0  0  0
  5  6  1  0  0  0
  6  7  2  0  0  0
  7 18  1  0  0  0
  7  8  1  0  0  0
 18 20  1  0  0  0
 18 19  1  0  0  0
 20 21  1  0  0  0
 20 26  2  0  0  0
 21 22  2  0  0  0
 22 23  1  0  0  0
 23 24  1  0  0  0
 23 25  2  0  0  0
 25 27  1  0  0  0
 25 26  1  0  0  0
 27 28  2  0  0  0
 27 29  1  0  0  0
 29 31  1  0  0  0
 29 30  1  0  0  0
 31 32  1  0  0  0
  8  9  2  0  0  0
  9 10  1  0  0  0
 10 11  1  0  0  0
 10 12  1  0  0  0
M  END
> <minimizedAffinity>
-6.59660

$$$$
