CHEMBL389524


 32 35  0  0  0  0  0  0  0  0999 V2000
  -30.2969   -6.3419   -5.0984 C   0  0  0  0  0  0  0  0  0  0  0  0
  -29.3161   -7.2675   -4.7393 C   0  0  0  0  0  0  0  0  0  0  0  0
  -29.0953   -8.4105   -5.5099 C   0  0  0  0  0  0  0  0  0  0  0  0
  -29.9195   -8.7225   -6.5973 C   0  0  0  0  0  0  0  0  0  0  0  0
  -30.9872   -7.8523   -6.8670 C   0  0  0  0  0  0  0  0  0  0  0  0
  -31.1623   -6.6568   -6.1434 C   0  0  0  0  0  0  0  0  0  0  0  0
  -29.6414   -9.9078   -7.4388 C   0  0  0  0  0  0  0  0  0  0  0  0
  -30.2477  -11.1374   -7.1757 C   0  0  0  0  0  0  0  0  0  0  0  0
  -31.2458  -11.5750   -6.1440 C   0  0  0  0  0  0  0  0  0  0  0  0
  -29.7246  -12.3593   -8.2440 S   0  0  0  0  0  0  0  0  0  0  0  0
  -28.7166  -11.2972   -9.1194 C   0  0  0  0  0  0  0  0  0  0  0  0
  -27.9477  -11.6674  -10.2289 C   0  0  0  0  0  0  0  0  0  0  0  0
  -27.1988  -10.6721  -10.8040 C   0  0  0  0  0  0  0  0  0  0  0  0
  -27.1581   -9.4133  -10.3476 N   0  0  0  0  0  0  0  0  0  0  0  0
  -27.8817   -9.0538   -9.2613 C   0  0  0  0  0  0  0  0  0  0  0  0
  -27.6808   -7.7314   -8.8819 N   0  0  0  0  0  0  0  0  0  0  0  0
  -28.7267   -9.9963   -8.6019 C   0  0  0  0  0  0  0  0  0  0  0  0
  -26.8849   -7.3748   -9.4011 H   0  0  0  0  0  0  0  0  0  0  0  0
  -27.6183   -7.6164   -7.8778 H   0  0  0  0  0  0  0  0  0  0  0  0
  -29.8309   -2.8305   -4.2625 N   0  0  0  0  0  0  0  0  0  0  0  0
  -29.6481   -3.9971   -4.9841 C   0  0  0  0  0  0  0  0  0  0  0  0
  -28.9521   -4.0885   -5.9921 O   0  0  0  0  0  0  0  0  0  0  0  0
  -30.3702   -5.0708   -4.4680 N   0  0  0  0  0  0  0  0  0  0  0  0
  -30.2123   -2.9210   -3.3405 H   0  0  0  0  0  0  0  0  0  0  0  0
  -31.2456   -4.8324   -4.0261 H   0  0  0  0  0  0  0  0  0  0  0  0
  -30.7171    1.5782   -6.3552 C   0  0  0  0  0  0  0  0  0  0  0  0
  -29.7773    0.6208   -5.6815 C   0  0  0  0  0  0  0  0  0  0  0  0
  -28.4513    0.9971   -5.4550 C   0  0  0  0  0  0  0  0  0  0  0  0
  -27.5735    0.1169   -4.8362 C   0  0  0  0  0  0  0  0  0  0  0  0
  -28.0160   -1.1474   -4.4433 C   0  0  0  0  0  0  0  0  0  0  0  0
  -29.3418   -1.5514   -4.6441 C   0  0  0  0  0  0  0  0  0  0  0  0
  -30.2179   -0.6541   -5.2701 C   0  0  0  0  0  0  0  0  0  0  0  0
 26 27  1  0  0  0
 27 28  1  0  0  0
 27 32  2  0  0  0
 28 29  2  0  0  0
 29 30  1  0  0  0
 30 31  2  0  0  0
 31 20  1  0  0  0
 31 32  1  0  0  0
 20 21  1  0  0  0
 20 24  1  0  0  0
 21 22  2  0  0  0
 21 23  1  0  0  0
 23  1  1  0  0  0
 23 25  1  0  0  0
  1  2  1  0  0  0
  1  6  2  0  0  0
  2  3  2  0  0  0
  3  4  1  0  0  0
  4  7  1  0  0  0
  4  5  2  0  0  0
  7  8  2  0  0  0
  7 17  1  0  0  0
  8  9  1  0  0  0
  8 10  1  0  0  0
 10 11  1  0  0  0
 11 12  1  0  0  0
 11 17  2  0  0  0
 12 13  2  0  0  0
 13 14  1  0  0  0
 14 15  2  0  0  0
 15 16  1  0  0  0
 15 17  1  0  0  0
 16 18  1  0  0  0
 16 19  1  0  0  0
  5  6  1  0  0  0
M  END
> <minimizedAffinity>
-9.38102

$$$$
