CHEMBL190805


 31 33  0  0  0  0  0  0  0  0999 V2000
  -26.7803   -7.5694   -4.2655 N   0  0  0  0  0  0  0  0  0  0  0  0
  -27.9373   -7.0535   -4.8124 C   0  0  0  0  0  0  0  0  0  0  0  0
  -28.1935   -5.7695   -4.6052 N   0  0  0  0  0  0  0  0  0  0  0  0
  -29.2887   -5.3066   -5.1945 C   0  0  0  0  0  0  0  0  0  0  0  0
  -30.1036   -6.0564   -5.9235 N   0  0  0  0  0  0  0  0  0  0  0  0
  -29.7797   -7.3383   -6.0495 C   0  0  0  0  0  0  0  0  0  0  0  0
  -28.6800   -7.8805   -5.5308 N   0  0  0  0  0  0  0  0  0  0  0  0
  -26.0977   -6.8393   -4.1143 H   0  0  0  0  0  0  0  0  0  0  0  0
  -26.4767   -8.3853   -4.7783 H   0  0  0  0  0  0  0  0  0  0  0  0
  -30.7240   -8.2014   -6.7801 C   0  0  0  0  0  0  0  0  0  0  0  0
  -32.1053   -8.0041   -6.7208 C   0  0  0  0  0  0  0  0  0  0  0  0
  -32.9315   -8.8087   -7.4879 C   0  0  0  0  0  0  0  0  0  0  0  0
  -32.4908   -9.7827   -8.3187 N   0  0  0  0  0  0  0  0  0  0  0  0
  -31.1608   -9.9883   -8.3859 C   0  0  0  0  0  0  0  0  0  0  0  0
  -30.2712   -9.2365   -7.6196 C   0  0  0  0  0  0  0  0  0  0  0  0
  -30.6279  -10.8859   -9.3050 N   0  0  0  0  0  0  0  0  0  0  0  0
  -30.9066  -10.7180  -10.2645 H   0  0  0  0  0  0  0  0  0  0  0  0
  -29.3078  -11.4533   -9.0878 C   0  0  0  0  0  0  0  0  0  0  0  0
  -28.4553  -11.5141  -10.3516 C   0  0  0  0  0  0  0  0  0  0  0  0
  -28.2345  -10.1700  -11.0280 C   0  0  0  0  0  0  0  0  0  0  0  0
  -29.4221   -9.7240  -11.6674 O   0  0  0  0  0  0  0  0  0  0  0  0
  -29.5182  -10.2806  -12.4709 H   0  0  0  0  0  0  0  0  0  0  0  0
  -29.6092   -3.9622   -5.0022 N   0  0  0  0  0  0  0  0  0  0  0  0
  -30.1179   -3.8071   -4.1432 H   0  0  0  0  0  0  0  0  0  0  0  0
  -29.0681   -2.8404   -5.6446 C   0  0  0  0  0  0  0  0  0  0  0  0
  -28.5838   -2.9524   -6.9540 C   0  0  0  0  0  0  0  0  0  0  0  0
  -27.9603   -1.8683   -7.5829 C   0  0  0  0  0  0  0  0  0  0  0  0
  -27.8229   -0.6525   -6.9134 C   0  0  0  0  0  0  0  0  0  0  0  0
  -28.3069   -0.5306   -5.6141 C   0  0  0  0  0  0  0  0  0  0  0  0
  -28.1446    0.9622   -4.7722 Cl  0  0  0  0  0  0  0  0  0  0  0  0
  -28.9161   -1.6125   -4.9840 C   0  0  0  0  0  0  0  0  0  0  0  0
  1  2  1  0  0  0
  1  8  1  0  0  0
  1  9  1  0  0  0
  2  3  1  0  0  0
  2  7  2  0  0  0
  3  4  2  0  0  0
  4 23  1  0  0  0
  4  5  1  0  0  0
 23 25  1  0  0  0
 23 24  1  0  0  0
 25 26  1  0  0  0
 25 31  2  0  0  0
 26 27  2  0  0  0
 27 28  1  0  0  0
 28 29  2  0  0  0
 29 30  1  0  0  0
 29 31  1  0  0  0
  5  6  2  0  0  0
  6 10  1  0  0  0
  6  7  1  0  0  0
 10 11  1  0  0  0
 10 15  2  0  0  0
 11 12  2  0  0  0
 12 13  1  0  0  0
 13 14  2  0  0  0
 14 16  1  0  0  0
 14 15  1  0  0  0
 16 18  1  0  0  0
 16 17  1  0  0  0
 18 19  1  0  0  0
 19 20  1  0  0  0
 20 21  1  0  0  0
 21 22  1  0  0  0
M  END
> <minimizedAffinity>
-8.48145

$$$$
