CHEMBL2385582


 31 36  0  0  0  0  0  0  0  0999 V2000
  -27.8712   -2.0655   -9.9550 C   0  0  0  0  0  0  0  0  0  0  0  0
  -28.7741   -1.9694  -11.0378 C   0  0  0  0  0  0  0  0  0  0  0  0
  -28.2453   -1.4211  -12.1295 N   0  0  0  0  0  0  0  0  0  0  0  0
  -26.9506   -1.2106  -11.7996 N   0  0  0  0  0  0  0  0  0  0  0  0
  -25.9619   -0.6678  -12.6110 C   0  0  0  0  0  0  0  0  0  0  0  0
  -24.7027   -0.5610  -12.1641 C   0  0  0  0  0  0  0  0  0  0  0  0
  -24.4862   -1.0630  -10.7728 C   0  0  0  0  0  0  0  0  0  0  0  0
  -25.3942   -1.5489   -9.9787 N   0  0  0  0  0  0  0  0  0  0  0  0
  -26.6678   -1.6234  -10.4895 C   0  0  0  0  0  0  0  0  0  0  0  0
  -28.3739   -0.1503   -5.1015 C   0  0  0  0  0  0  0  0  0  0  0  0
  -28.0883    0.4706   -6.3046 C   0  0  0  0  0  0  0  0  0  0  0  0
  -27.9536   -0.3008   -7.4597 C   0  0  0  0  0  0  0  0  0  0  0  0
  -28.1408   -1.7121   -7.4535 C   0  0  0  0  0  0  0  0  0  0  0  0
  -28.0734   -2.5698   -8.5935 C   0  0  0  0  0  0  0  0  0  0  0  0
  -28.2404   -3.9475   -8.4079 C   0  0  0  0  0  0  0  0  0  0  0  0
  -28.4670   -4.4300   -7.1379 C   0  0  0  0  0  0  0  0  0  0  0  0
  -28.5614   -3.6471   -6.0475 N   0  0  0  0  0  0  0  0  0  0  0  0
  -28.4047   -2.3241   -6.2028 C   0  0  0  0  0  0  0  0  0  0  0  0
  -28.5151   -1.5372   -5.0634 C   0  0  0  0  0  0  0  0  0  0  0  0
  -23.6148   -0.0105  -12.9636 C   0  0  0  0  0  0  0  0  0  0  0  0
  -23.4865    1.3684  -13.1291 C   0  0  0  0  0  0  0  0  0  0  0  0
  -22.4098    1.8930  -13.8548 C   0  0  0  0  0  0  0  0  0  0  0  0
  -21.4423    1.0668  -14.4435 C   0  0  0  0  0  0  0  0  0  0  0  0
  -21.6140   -0.3173  -14.2911 C   0  0  0  0  0  0  0  0  0  0  0  0
  -22.6798   -0.8549  -13.5602 C   0  0  0  0  0  0  0  0  0  0  0  0
  -20.3650    1.5790  -15.1297 N   0  0  0  0  0  0  0  0  0  0  0  0
  -19.1121    0.8396  -15.3371 C   0  0  0  0  0  0  0  0  0  0  0  0
  -17.9345    1.6275  -14.7496 C   0  0  0  0  0  0  0  0  0  0  0  0
  -17.8762    2.9634  -15.2807 O   0  0  0  0  0  0  0  0  0  0  0  0
  -19.0919    3.6716  -14.9814 C   0  0  0  0  0  0  0  0  0  0  0  0
  -20.3235    2.9755  -15.5874 C   0  0  0  0  0  0  0  0  0  0  0  0
 10 11  1  0  0  0
 10 19  2  0  0  0
 11 12  2  0  0  0
 12 13  1  0  0  0
 13 14  1  0  0  0
 13 18  2  0  0  0
 14  1  1  0  0  0
 14 15  2  0  0  0
  1  2  1  0  0  0
  1  9  2  0  0  0
  2  3  2  0  0  0
  3  4  1  0  0  0
  4  5  1  0  0  0
  4  9  1  0  0  0
  5  6  2  0  0  0
  6 20  1  0  0  0
  6  7  1  0  0  0
 20 21  1  0  0  0
 20 25  2  0  0  0
 21 22  2  0  0  0
 22 23  1  0  0  0
 23 26  1  0  0  0
 23 24  2  0  0  0
 26 27  1  0  0  0
 26 31  1  0  0  0
 27 28  1  0  0  0
 28 29  1  0  0  0
 29 30  1  0  0  0
 30 31  1  0  0  0
 24 25  1  0  0  0
  7  8  2  0  0  0
  8  9  1  0  0  0
 15 16  1  0  0  0
 16 17  2  0  0  0
 17 18  1  0  0  0
 18 19  1  0  0  0
M  END
> <minimizedAffinity>
-8.67399

$$$$
