CHEMBL3940976


 43 47  0  0  0  0  0  0  0  0999 V2000
  -26.5007   -2.4995  -11.0077 N   0  0  0  0  0  0  0  0  0  0  0  0
  -26.8646   -2.0092   -9.7410 C   0  0  0  0  0  0  0  0  0  0  0  0
  -26.3683   -1.0454   -9.1839 O   0  0  0  0  0  0  0  0  0  0  0  0
  -27.8384   -2.7762   -9.0980 N   0  0  0  0  0  0  0  0  0  0  0  0
  -27.0432   -3.2485  -11.3956 H   0  0  0  0  0  0  0  0  0  0  0  0
  -27.7471   -3.7740   -9.2365 H   0  0  0  0  0  0  0  0  0  0  0  0
  -26.9411   -1.6841  -13.9476 C   0  0  0  0  0  0  0  0  0  0  0  0
  -25.6383   -1.6430  -13.1950 C   0  0  0  0  0  0  0  0  0  0  0  0
  -24.5359   -1.2001  -13.9690 C   0  0  0  0  0  0  0  0  0  0  0  0
  -23.2735   -0.9741  -13.4292 C   0  0  0  0  0  0  0  0  0  0  0  0
  -23.0839   -1.2602  -12.0886 C   0  0  0  0  0  0  0  0  0  0  0  0
  -24.1539   -1.7425  -11.3129 C   0  0  0  0  0  0  0  0  0  0  0  0
  -25.4472   -1.9554  -11.8300 C   0  0  0  0  0  0  0  0  0  0  0  0
  -22.1975   -0.5515  -14.1853 O   0  0  0  0  0  0  0  0  0  0  0  0
  -21.9743    0.8242  -14.2923 C   0  0  0  0  0  0  0  0  0  0  0  0
  -20.8309    1.2496  -14.9475 C   0  0  0  0  0  0  0  0  0  0  0  0
  -20.6162    2.6150  -14.9606 C   0  0  0  0  0  0  0  0  0  0  0  0
  -21.5030    3.4697  -14.4368 N   0  0  0  0  0  0  0  0  0  0  0  0
  -22.5818    2.9627  -13.8435 C   0  0  0  0  0  0  0  0  0  0  0  0
  -22.8512    1.6659  -13.7155 N   0  0  0  0  0  0  0  0  0  0  0  0
  -19.4353    3.1383  -15.5214 N   0  0  0  0  0  0  0  0  0  0  0  0
  -18.1628    2.8613  -15.0360 C   0  0  0  0  0  0  0  0  0  0  0  0
  -17.8623    2.1645  -14.0795 O   0  0  0  0  0  0  0  0  0  0  0  0
  -19.5176    3.7171  -16.3447 H   0  0  0  0  0  0  0  0  0  0  0  0
  -17.0669    3.5476  -15.7938 C   0  0  0  0  0  0  0  0  0  0  0  0
  -16.2605    2.8095  -16.8504 C   0  0  0  0  0  0  0  0  0  0  0  0
  -15.6432    3.1155  -15.5193 C   0  0  0  0  0  0  0  0  0  0  0  0
  -28.2744   -2.3818   -7.7884 C   0  0  0  0  0  0  0  0  0  0  0  0
  -28.7262   -3.3606   -6.8902 C   0  0  0  0  0  0  0  0  0  0  0  0
  -29.1875   -3.0429   -5.5966 C   0  0  0  0  0  0  0  0  0  0  0  0
  -29.2017   -1.6892   -5.2387 C   0  0  0  0  0  0  0  0  0  0  0  0
  -28.7510   -0.6804   -6.1079 C   0  0  0  0  0  0  0  0  0  0  0  0
  -28.2715   -1.0412   -7.3800 C   0  0  0  0  0  0  0  0  0  0  0  0
  -29.6122   -4.0199   -4.7208 N   0  0  0  0  0  0  0  0  0  0  0  0
  -29.4371   -5.4623   -4.9631 C   0  0  0  0  0  0  0  0  0  0  0  0
  -30.7899   -6.1879   -4.9052 C   0  0  0  0  0  0  0  0  0  0  0  0
  -31.4897   -5.9073   -3.6809 O   0  0  0  0  0  0  0  0  0  0  0  0
  -31.7244   -4.4947   -3.5562 C   0  0  0  0  0  0  0  0  0  0  0  0
  -30.4065   -3.7010   -3.5247 C   0  0  0  0  0  0  0  0  0  0  0  0
  -28.8133    0.7646   -5.6756 C   0  0  0  0  0  0  0  0  0  0  0  0
  -28.5170    1.6443   -6.6785 F   0  0  0  0  0  0  0  0  0  0  0  0
  -30.0372    1.1381   -5.2134 F   0  0  0  0  0  0  0  0  0  0  0  0
  -27.9294    1.0465   -4.6778 F   0  0  0  0  0  0  0  0  0  0  0  0
  7  8  1  0  0  0
  8  9  1  0  0  0
  8 13  2  0  0  0
  9 10  2  0  0  0
 10 14  1  0  0  0
 10 11  1  0  0  0
 14 15  1  0  0  0
 15 16  1  0  0  0
 15 20  2  0  0  0
 16 17  2  0  0  0
 17 21  1  0  0  0
 17 18  1  0  0  0
 21 22  1  0  0  0
 21 24  1  0  0  0
 22 23  2  0  0  0
 22 25  1  0  0  0
 25 26  1  0  0  0
 25 27  1  0  0  0
 26 27  1  0  0  0
 18 19  2  0  0  0
 19 20  1  0  0  0
 11 12  2  0  0  0
 12 13  1  0  0  0
 13  1  1  0  0  0
  1  2  1  0  0  0
  1  5  1  0  0  0
  2  3  2  0  0  0
  2  4  1  0  0  0
  4 28  1  0  0  0
  4  6  1  0  0  0
 28 29  1  0  0  0
 28 33  2  0  0  0
 29 30  2  0  0  0
 30 34  1  0  0  0
 30 31  1  0  0  0
 34 35  1  0  0  0
 34 39  1  0  0  0
 35 36  1  0  0  0
 36 37  1  0  0  0
 37 38  1  0  0  0
 38 39  1  0  0  0
 31 32  2  0  0  0
 32 40  1  0  0  0
 32 33  1  0  0  0
 40 41  1  0  0  0
 40 42  1  0  0  0
 40 43  1  0  0  0
M  END
> <minimizedAffinity>
-13.11449

$$$$
