CHEMBL241918


 43 46  0  0  0  0  0  0  0  0999 V2000
  -29.0319   -4.8998   -5.9497 C   0  0  0  0  0  0  0  0  0  0  0  0
  -28.6975   -3.5689   -5.6443 C   0  0  0  0  0  0  0  0  0  0  0  0
  -28.3206   -2.6372   -6.6177 C   0  0  0  0  0  0  0  0  0  0  0  0
  -28.0267   -1.3846   -6.2500 N   0  0  0  0  0  0  0  0  0  0  0  0
  -27.6759   -0.5294   -7.2209 C   0  0  0  0  0  0  0  0  0  0  0  0
  -27.6335   -0.7899   -8.5321 N   0  0  0  0  0  0  0  0  0  0  0  0
  -27.9377   -2.0471   -8.9007 C   0  0  0  0  0  0  0  0  0  0  0  0
  -28.2520   -3.0493   -7.9510 C   0  0  0  0  0  0  0  0  0  0  0  0
  -28.5228   -4.4117   -8.2294 C   0  0  0  0  0  0  0  0  0  0  0  0
  -28.9880   -5.3123   -7.2757 C   0  0  0  0  0  0  0  0  0  0  0  0
  -29.4841   -6.5671   -7.7071 N   0  0  0  0  0  0  0  0  0  0  0  0
  -28.7109   -7.4706   -8.4069 C   0  0  0  0  0  0  0  0  0  0  0  0
  -27.5340   -7.3061   -8.7051 O   0  0  0  0  0  0  0  0  0  0  0  0
  -30.3399   -6.8900   -7.2749 H   0  0  0  0  0  0  0  0  0  0  0  0
  -29.4119   -8.7476   -8.7102 C   0  0  0  0  0  0  0  0  0  0  0  0
  -30.5725   -9.0058   -8.0821 C   0  0  0  0  0  0  0  0  0  0  0  0
  -31.4415  -10.2108   -8.2958 C   0  0  0  0  0  0  0  0  0  0  0  0
  -32.7959  -10.0886   -7.7325 N   0  0  0  0  0  0  0  0  0  0  0  0
  -33.0329  -11.0143   -6.6189 C   0  0  0  0  0  0  0  0  0  0  0  0
  -32.9909   -8.7141   -7.2472 C   0  0  0  0  0  0  0  0  0  0  0  0
  -27.9102   -2.2416  -10.3047 N   0  0  0  0  0  0  0  0  0  0  0  0
  -28.3598   -3.1396  -10.4554 H   0  0  0  0  0  0  0  0  0  0  0  0
  -26.7759   -2.0491  -11.0874 C   0  0  0  0  0  0  0  0  0  0  0  0
  -25.5003   -2.0169  -10.6643 C   0  0  0  0  0  0  0  0  0  0  0  0
  -24.3898   -1.5953  -11.5460 C   0  0  0  0  0  0  0  0  0  0  0  0
  -23.2308   -1.6836  -11.1478 O   0  0  0  0  0  0  0  0  0  0  0  0
  -24.7452   -1.0007  -12.8694 C   0  0  0  0  0  0  0  0  0  0  0  0
  -26.0047   -1.1055  -13.3085 C   0  0  0  0  0  0  0  0  0  0  0  0
  -27.0355   -1.8184  -12.5437 C   0  0  0  0  0  0  0  0  0  0  0  0
  -28.0946   -2.1135  -13.0853 O   0  0  0  0  0  0  0  0  0  0  0  0
  -23.7183   -0.3906  -13.5739 O   0  0  0  0  0  0  0  0  0  0  0  0
  -23.3737    0.9398  -13.1670 C   0  0  0  0  0  0  0  0  0  0  0  0
  -22.2252    1.4789  -13.9797 C   0  0  0  0  0  0  0  0  0  0  0  0
  -22.0891    2.8457  -14.2449 C   0  0  0  0  0  0  0  0  0  0  0  0
  -20.9639    3.3244  -14.9114 C   0  0  0  0  0  0  0  0  0  0  0  0
  -19.9533    2.4453  -15.3031 C   0  0  0  0  0  0  0  0  0  0  0  0
  -20.0608    1.0831  -15.0277 C   0  0  0  0  0  0  0  0  0  0  0  0
  -21.1991    0.6056  -14.3811 C   0  0  0  0  0  0  0  0  0  0  0  0
  -19.1266    0.1298  -15.3265 O   0  0  0  0  0  0  0  0  0  0  0  0
  -17.7727    0.4514  -15.0362 C   0  0  0  0  0  0  0  0  0  0  0  0
  -29.3122   -5.7043   -4.8717 O   0  0  0  0  0  0  0  0  0  0  0  0
  -31.4761   -5.6401   -3.7892 C   0  0  0  0  0  0  0  0  0  0  0  0
  -30.0678   -5.0853   -3.8211 C   0  0  0  0  0  0  0  0  0  0  0  0
 42 43  1  0  0  0
 43 41  1  0  0  0
 41  1  1  0  0  0
  1  2  1  0  0  0
  1 10  2  0  0  0
  2  3  2  0  0  0
  3  4  1  0  0  0
  3  8  1  0  0  0
  4  5  2  0  0  0
  5  6  1  0  0  0
  6  7  2  0  0  0
  7 21  1  0  0  0
  7  8  1  0  0  0
 21 23  1  0  0  0
 21 22  1  0  0  0
 23 24  2  0  0  0
 23 29  1  0  0  0
 24 25  1  0  0  0
 25 26  2  0  0  0
 25 27  1  0  0  0
 27 31  1  0  0  0
 27 28  2  0  0  0
 31 32  1  0  0  0
 32 33  1  0  0  0
 33 34  1  0  0  0
 33 38  2  0  0  0
 34 35  2  0  0  0
 35 36  1  0  0  0
 36 37  2  0  0  0
 37 39  1  0  0  0
 37 38  1  0  0  0
 39 40  1  0  0  0
 28 29  1  0  0  0
 29 30  2  0  0  0
  8  9  2  0  0  0
  9 10  1  0  0  0
 10 11  1  0  0  0
 11 12  1  0  0  0
 11 14  1  0  0  0
 12 13  2  0  0  0
 12 15  1  0  0  0
 15 16  2  0  0  0
 16 17  1  0  0  0
 17 18  1  0  0  0
 18 19  1  0  0  0
 18 20  1  0  0  0
M  END
> <minimizedAffinity>
-10.08650

$$$$
