CHEMBL3909992


 37 40  0  0  0  0  0  0  0  0999 V2000
  -27.0244   -1.6397  -13.8466 C   0  0  0  0  0  0  0  0  0  0  0  0
  -25.6736   -1.6631  -13.1829 C   0  0  0  0  0  0  0  0  0  0  0  0
  -24.5712   -1.2916  -13.9828 C   0  0  0  0  0  0  0  0  0  0  0  0
  -23.2949   -1.1168  -13.4433 C   0  0  0  0  0  0  0  0  0  0  0  0
  -23.0887   -1.4243  -12.1104 C   0  0  0  0  0  0  0  0  0  0  0  0
  -24.1549   -1.8586  -11.3190 C   0  0  0  0  0  0  0  0  0  0  0  0
  -25.4609   -1.9839  -11.8256 C   0  0  0  0  0  0  0  0  0  0  0  0
  -26.5397   -2.4345  -11.0120 N   0  0  0  0  0  0  0  0  0  0  0  0
  -26.8894   -1.9184   -9.7677 C   0  0  0  0  0  0  0  0  0  0  0  0
  -26.3482   -0.9671   -9.2194 O   0  0  0  0  0  0  0  0  0  0  0  0
  -27.8912   -2.6566   -9.1468 N   0  0  0  0  0  0  0  0  0  0  0  0
  -27.0762   -3.2183  -11.3496 H   0  0  0  0  0  0  0  0  0  0  0  0
  -27.8813   -3.6421   -9.3625 H   0  0  0  0  0  0  0  0  0  0  0  0
  -28.3207   -2.3164   -7.8361 C   0  0  0  0  0  0  0  0  0  0  0  0
  -28.7027   -3.3444   -6.9696 C   0  0  0  0  0  0  0  0  0  0  0  0
  -29.0419   -3.0574   -5.6452 C   0  0  0  0  0  0  0  0  0  0  0  0
  -29.0626   -1.7373   -5.1942 C   0  0  0  0  0  0  0  0  0  0  0  0
  -28.7405   -0.6850   -6.0622 C   0  0  0  0  0  0  0  0  0  0  0  0
  -28.3529   -0.9888   -7.3812 C   0  0  0  0  0  0  0  0  0  0  0  0
  -28.8133    0.7500   -5.5988 C   0  0  0  0  0  0  0  0  0  0  0  0
  -28.4871    1.6490   -6.5726 F   0  0  0  0  0  0  0  0  0  0  0  0
  -30.0506    1.1113   -5.1636 F   0  0  0  0  0  0  0  0  0  0  0  0
  -27.9608    1.0071   -4.5669 F   0  0  0  0  0  0  0  0  0  0  0  0
  -22.2061   -0.6734  -14.1580 O   0  0  0  0  0  0  0  0  0  0  0  0
  -21.9791    0.6905  -14.2375 C   0  0  0  0  0  0  0  0  0  0  0  0
  -22.7931    1.6370  -13.6222 C   0  0  0  0  0  0  0  0  0  0  0  0
  -22.5293    2.9627  -13.8724 C   0  0  0  0  0  0  0  0  0  0  0  0
  -21.4855    3.3814  -14.6073 N   0  0  0  0  0  0  0  0  0  0  0  0
  -20.6395    2.4709  -15.1189 C   0  0  0  0  0  0  0  0  0  0  0  0
  -20.8541    1.1069  -14.9534 C   0  0  0  0  0  0  0  0  0  0  0  0
  -19.5163    2.9057  -15.8458 N   0  0  0  0  0  0  0  0  0  0  0  0
  -18.2485    3.0095  -15.3081 C   0  0  0  0  0  0  0  0  0  0  0  0
  -17.9061    2.7691  -14.1580 O   0  0  0  0  0  0  0  0  0  0  0  0
  -19.6579    3.1676  -16.8049 H   0  0  0  0  0  0  0  0  0  0  0  0
  -17.1686    3.4897  -16.2219 C   0  0  0  0  0  0  0  0  0  0  0  0
  -15.8918    2.6907  -16.3413 C   0  0  0  0  0  0  0  0  0  0  0  0
  -15.8516    4.1027  -15.8338 C   0  0  0  0  0  0  0  0  0  0  0  0
  1  2  1  0  0  0
  2  3  1  0  0  0
  2  7  2  0  0  0
  3  4  2  0  0  0
  4 24  1  0  0  0
  4  5  1  0  0  0
 24 25  1  0  0  0
 25 26  1  0  0  0
 25 30  2  0  0  0
 26 27  2  0  0  0
 27 28  1  0  0  0
 28 29  2  0  0  0
 29 31  1  0  0  0
 29 30  1  0  0  0
 31 32  1  0  0  0
 31 34  1  0  0  0
 32 33  2  0  0  0
 32 35  1  0  0  0
 35 36  1  0  0  0
 35 37  1  0  0  0
 36 37  1  0  0  0
  5  6  2  0  0  0
  6  7  1  0  0  0
  7  8  1  0  0  0
  8  9  1  0  0  0
  8 12  1  0  0  0
  9 10  2  0  0  0
  9 11  1  0  0  0
 11 14  1  0  0  0
 11 13  1  0  0  0
 14 15  1  0  0  0
 14 19  2  0  0  0
 15 16  2  0  0  0
 16 17  1  0  0  0
 17 18  2  0  0  0
 18 20  1  0  0  0
 18 19  1  0  0  0
 20 21  1  0  0  0
 20 22  1  0  0  0
 20 23  1  0  0  0
M  END
> <minimizedAffinity>
-11.94759

$$$$
