CHEMBL269884


 33 36  0  0  0  0  0  0  0  0999 V2000
  -17.0065    2.3080  -15.6774 C   0  0  0  0  0  0  0  0  0  0  0  0
  -17.6481    1.0913  -15.4760 C   0  0  0  0  0  0  0  0  0  0  0  0
  -18.9393    1.0265  -14.9557 C   0  0  0  0  0  0  0  0  0  0  0  0
  -19.6988    2.1722  -14.7140 C   0  0  0  0  0  0  0  0  0  0  0  0
  -19.1101    3.4052  -15.0044 C   0  0  0  0  0  0  0  0  0  0  0  0
  -17.7789    3.4687  -15.4670 C   0  0  0  0  0  0  0  0  0  0  0  0
  -12.8933    2.4913  -17.0698 C   0  0  0  0  0  0  0  0  0  0  0  0
  -13.9343    3.0897  -17.7759 C   0  0  0  0  0  0  0  0  0  0  0  0
  -15.2505    3.0095  -17.3215 C   0  0  0  0  0  0  0  0  0  0  0  0
  -15.5987    2.3542  -16.1153 C   0  0  0  0  0  0  0  0  0  0  0  0
  -14.5363    1.7471  -15.3717 C   0  0  0  0  0  0  0  0  0  0  0  0
  -14.3361    1.0047  -14.1549 C   0  0  0  0  0  0  0  0  0  0  0  0
  -15.2737    0.6424  -13.2599 N   0  0  0  0  0  0  0  0  0  0  0  0
  -13.0557    0.6761  -13.9793 N   0  0  0  0  0  0  0  0  0  0  0  0
  -12.3782    1.2127  -15.0421 O   0  0  0  0  0  0  0  0  0  0  0  0
  -13.2406    1.8389  -15.8820 C   0  0  0  0  0  0  0  0  0  0  0  0
  -16.1430    1.1530  -13.1611 H   0  0  0  0  0  0  0  0  0  0  0  0
  -14.9542    0.2155  -12.3966 H   0  0  0  0  0  0  0  0  0  0  0  0
  -11.3330    1.9191  -18.7591 C   0  0  0  0  0  0  0  0  0  0  0  0
  -11.6277    2.6811  -17.5937 O   0  0  0  0  0  0  0  0  0  0  0  0
  -21.0289    2.1267  -14.2061 N   0  0  0  0  0  0  0  0  0  0  0  0
  -21.7920    0.9786  -14.1217 C   0  0  0  0  0  0  0  0  0  0  0  0
  -21.3958   -0.1318  -14.4691 O   0  0  0  0  0  0  0  0  0  0  0  0
  -23.0668    1.1803  -13.6297 N   0  0  0  0  0  0  0  0  0  0  0  0
  -21.4099    2.9833  -13.8341 H   0  0  0  0  0  0  0  0  0  0  0  0
  -23.4562    2.1010  -13.7438 H   0  0  0  0  0  0  0  0  0  0  0  0
  -23.9832    0.1085  -13.4358 C   0  0  0  0  0  0  0  0  0  0  0  0
  -24.4677   -0.6648  -14.5036 C   0  0  0  0  0  0  0  0  0  0  0  0
  -25.4700   -1.6152  -14.3174 C   0  0  0  0  0  0  0  0  0  0  0  0
  -25.9698   -1.8433  -13.0427 C   0  0  0  0  0  0  0  0  0  0  0  0
  -25.4405   -1.1361  -11.9634 C   0  0  0  0  0  0  0  0  0  0  0  0
  -26.0470   -1.4432  -10.3809 Cl  0  0  0  0  0  0  0  0  0  0  0  0
  -24.4451   -0.1697  -12.1481 C   0  0  0  0  0  0  0  0  0  0  0  0
 19 20  1  0  0  0
 20  7  1  0  0  0
  7  8  1  0  0  0
  7 16  2  0  0  0
  8  9  2  0  0  0
  9 10  1  0  0  0
 10  1  1  0  0  0
 10 11  2  0  0  0
  1  2  1  0  0  0
  1  6  2  0  0  0
  2  3  2  0  0  0
  3  4  1  0  0  0
  4 21  1  0  0  0
  4  5  2  0  0  0
 21 22  1  0  0  0
 21 25  1  0  0  0
 22 23  2  0  0  0
 22 24  1  0  0  0
 24 27  1  0  0  0
 24 26  1  0  0  0
 27 28  1  0  0  0
 27 33  2  0  0  0
 28 29  2  0  0  0
 29 30  1  0  0  0
 30 31  2  0  0  0
 31 32  1  0  0  0
 31 33  1  0  0  0
  5  6  1  0  0  0
 11 12  1  0  0  0
 11 16  1  0  0  0
 12 13  1  0  0  0
 12 14  2  0  0  0
 13 17  1  0  0  0
 13 18  1  0  0  0
 14 15  1  0  0  0
 15 16  1  0  0  0
M  END
> <minimizedAffinity>
-9.13647

$$$$
