CHEMBL244481


 40 43  0  0  0  0  0  0  0  0999 V2000
  -17.6272    2.0777  -14.9207 C   0  0  0  0  0  0  0  0  0  0  0  0
  -18.2671    3.2525  -14.5404 C   0  0  0  0  0  0  0  0  0  0  0  0
  -19.6267    3.2537  -14.2483 C   0  0  0  0  0  0  0  0  0  0  0  0
  -20.4165    2.1114  -14.3975 C   0  0  0  0  0  0  0  0  0  0  0  0
  -19.7937    0.9509  -14.8866 C   0  0  0  0  0  0  0  0  0  0  0  0
  -18.4013    0.9365  -15.1441 C   0  0  0  0  0  0  0  0  0  0  0  0
  -21.7980    2.0859  -14.0611 N   0  0  0  0  0  0  0  0  0  0  0  0
  -22.5513    0.9358  -13.8559 C   0  0  0  0  0  0  0  0  0  0  0  0
  -22.1145   -0.2078  -13.8894 O   0  0  0  0  0  0  0  0  0  0  0  0
  -23.8991    1.1959  -13.6456 N   0  0  0  0  0  0  0  0  0  0  0  0
  -22.2579    2.9736  -13.9189 H   0  0  0  0  0  0  0  0  0  0  0  0
  -24.2772    1.9243  -14.2374 H   0  0  0  0  0  0  0  0  0  0  0  0
  -24.7640    0.0816  -13.4445 C   0  0  0  0  0  0  0  0  0  0  0  0
  -25.3097   -0.1935  -12.1821 C   0  0  0  0  0  0  0  0  0  0  0  0
  -26.0805   -1.3481  -11.9630 C   0  0  0  0  0  0  0  0  0  0  0  0
  -26.2857   -2.2379  -13.0309 C   0  0  0  0  0  0  0  0  0  0  0  0
  -25.7571   -1.9602  -14.2952 C   0  0  0  0  0  0  0  0  0  0  0  0
  -25.0216   -0.7945  -14.4987 C   0  0  0  0  0  0  0  0  0  0  0  0
  -24.4917   -0.5562  -15.7082 F   0  0  0  0  0  0  0  0  0  0  0  0
  -26.6732   -1.6386  -10.6043 C   0  0  0  0  0  0  0  0  0  0  0  0
  -27.9258   -1.1327  -10.4289 F   0  0  0  0  0  0  0  0  0  0  0  0
  -26.7806   -2.9770  -10.3683 F   0  0  0  0  0  0  0  0  0  0  0  0
  -25.9208   -1.1418   -9.5839 F   0  0  0  0  0  0  0  0  0  0  0  0
  -16.2602    1.9984  -15.1214 O   0  0  0  0  0  0  0  0  0  0  0  0
  -14.6167   -2.6095  -11.9688 C   0  0  0  0  0  0  0  0  0  0  0  0
  -15.5878   -1.7175  -11.9909 N   0  0  0  0  0  0  0  0  0  0  0  0
  -15.3516   -0.9301  -13.0939 C   0  0  0  0  0  0  0  0  0  0  0  0
  -16.0143    0.2307  -13.5474 C   0  0  0  0  0  0  0  0  0  0  0  0
  -15.5863    0.8458  -14.7343 C   0  0  0  0  0  0  0  0  0  0  0  0
  -14.4958    0.3196  -15.4371 C   0  0  0  0  0  0  0  0  0  0  0  0
  -13.8472   -0.8493  -15.0235 C   0  0  0  0  0  0  0  0  0  0  0  0
  -14.2784   -1.4314  -13.8306 C   0  0  0  0  0  0  0  0  0  0  0  0
  -13.8517   -2.5246  -13.1116 N   0  0  0  0  0  0  0  0  0  0  0  0
  -12.8906   -3.4972  -13.5816 C   0  0  0  0  0  0  0  0  0  0  0  0
  -15.1318   -4.7230  -11.0147 C   0  0  0  0  0  0  0  0  0  0  0  0
  -16.0914   -5.0046  -11.7180 O   0  0  0  0  0  0  0  0  0  0  0  0
  -14.4589   -3.5312  -10.9627 N   0  0  0  0  0  0  0  0  0  0  0  0
  -13.5152   -3.6273  -10.6079 H   0  0  0  0  0  0  0  0  0  0  0  0
  -13.8871   -6.7090  -10.8423 C   0  0  0  0  0  0  0  0  0  0  0  0
  -14.5183   -5.6131  -10.1785 O   0  0  0  0  0  0  0  0  0  0  0  0
 39 40  1  0  0  0
 40 35  1  0  0  0
 35 36  2  0  0  0
 35 37  1  0  0  0
 37 25  1  0  0  0
 37 38  1  0  0  0
 25 26  2  0  0  0
 25 33  1  0  0  0
 26 27  1  0  0  0
 27 28  1  0  0  0
 27 32  2  0  0  0
 28 29  2  0  0  0
 29 24  1  0  0  0
 29 30  1  0  0  0
 24  1  1  0  0  0
  1  2  1  0  0  0
  1  6  2  0  0  0
  2  3  2  0  0  0
  3  4  1  0  0  0
  4  7  1  0  0  0
  4  5  2  0  0  0
  7  8  1  0  0  0
  7 11  1  0  0  0
  8  9  2  0  0  0
  8 10  1  0  0  0
 10 13  1  0  0  0
 10 12  1  0  0  0
 13 14  1  0  0  0
 13 18  2  0  0  0
 14 15  2  0  0  0
 15 20  1  0  0  0
 15 16  1  0  0  0
 20 21  1  0  0  0
 20 22  1  0  0  0
 20 23  1  0  0  0
 16 17  2  0  0  0
 17 18  1  0  0  0
 18 19  1  0  0  0
  5  6  1  0  0  0
 30 31  2  0  0  0
 31 32  1  0  0  0
 32 33  1  0  0  0
 33 34  1  0  0  0
M  END
> <minimizedAffinity>
-9.00784

$$$$
