CHEMBL203095


 23 25  0  0  0  0  0  0  0  0999 V2000
  -14.5682   -0.4211  -14.0039 C   0  0  0  0  0  0  0  0  0  0  0  0
  -13.0778    0.1634  -14.6110 S   0  0  0  0  0  0  0  0  0  0  0  0
  -12.3604   -1.3575  -14.2773 C   0  0  0  0  0  0  0  0  0  0  0  0
  -13.1535   -2.2733  -13.7683 N   0  0  0  0  0  0  0  0  0  0  0  0
  -14.4265   -1.7480  -13.6058 C   0  0  0  0  0  0  0  0  0  0  0  0
  -16.1400    0.8402  -12.8347 O   0  0  0  0  0  0  0  0  0  0  0  0
  -15.7816    0.3779  -13.9144 C   0  0  0  0  0  0  0  0  0  0  0  0
  -16.5143    0.5375  -15.0841 N   0  0  0  0  0  0  0  0  0  0  0  0
  -16.2308   -0.0213  -15.8780 H   0  0  0  0  0  0  0  0  0  0  0  0
  -17.7233    1.2631  -15.1899 C   0  0  0  0  0  0  0  0  0  0  0  0
  -17.7671    2.6500  -15.3837 C   0  0  0  0  0  0  0  0  0  0  0  0
  -18.9797    3.3370  -15.3863 C   0  0  0  0  0  0  0  0  0  0  0  0
  -20.1674    2.6373  -15.2139 C   0  0  0  0  0  0  0  0  0  0  0  0
  -21.6591    3.4899  -15.1603 Cl  0  0  0  0  0  0  0  0  0  0  0  0
  -20.1483    1.2503  -15.0795 C   0  0  0  0  0  0  0  0  0  0  0  0
  -18.9286    0.5624  -15.0813 C   0  0  0  0  0  0  0  0  0  0  0  0
  -15.5276   -2.5988  -13.0350 C   0  0  0  0  0  0  0  0  0  0  0  0
  -15.7483   -2.4749  -11.5299 C   0  0  0  0  0  0  0  0  0  0  0  0
  -15.2610   -3.6870  -10.8105 C   0  0  0  0  0  0  0  0  0  0  0  0
  -14.7176   -3.7743   -9.5084 C   0  0  0  0  0  0  0  0  0  0  0  0
  -14.4037   -5.0271   -9.1716 N   0  0  0  0  0  0  0  0  0  0  0  0
  -14.7499   -5.7969  -10.2697 O   0  0  0  0  0  0  0  0  0  0  0  0
  -15.2600   -4.9947  -11.2368 C   0  0  0  0  0  0  0  0  0  0  0  0
  6  7  2  0  0  0
  7  8  1  0  0  0
  7  1  1  0  0  0
  8 10  1  0  0  0
  8  9  1  0  0  0
 10 11  1  0  0  0
 10 16  2  0  0  0
 11 12  2  0  0  0
 12 13  1  0  0  0
 13 14  1  0  0  0
 13 15  2  0  0  0
 15 16  1  0  0  0
  1  2  1  0  0  0
  1  5  2  0  0  0
  2  3  1  0  0  0
  3  4  2  0  0  0
  4  5  1  0  0  0
  5 17  1  0  0  0
 17 18  1  0  0  0
 18 19  1  0  0  0
 19 20  1  0  0  0
 19 23  2  0  0  0
 20 21  2  0  0  0
 21 22  1  0  0  0
 22 23  1  0  0  0
M  END
> <minimizedAffinity>
-7.67362

$$$$
