CHEMBL504075


 28 30  0  0  0  0  0  0  0  0999 V2000
  -17.5342    0.7493  -15.0287 C   0  0  0  0  0  0  0  0  0  0  0  0
  -17.0187    1.9213  -15.5880 C   0  0  0  0  0  0  0  0  0  0  0  0
  -17.8465    3.0047  -15.8768 C   0  0  0  0  0  0  0  0  0  0  0  0
  -19.2032    2.9408  -15.5837 C   0  0  0  0  0  0  0  0  0  0  0  0
  -19.7602    1.7734  -15.0397 C   0  0  0  0  0  0  0  0  0  0  0  0
  -18.9175    0.6623  -14.8124 C   0  0  0  0  0  0  0  0  0  0  0  0
  -15.9706   -0.3819  -13.4598 C   0  0  0  0  0  0  0  0  0  0  0  0
  -15.9328    0.4907  -12.5991 O   0  0  0  0  0  0  0  0  0  0  0  0
  -16.7126   -0.3375  -14.6345 N   0  0  0  0  0  0  0  0  0  0  0  0
  -16.8245   -1.2010  -15.1493 H   0  0  0  0  0  0  0  0  0  0  0  0
  -16.0726   -5.0619  -11.7729 C   0  0  0  0  0  0  0  0  0  0  0  0
  -15.2764   -3.9134  -12.3188 C   0  0  0  0  0  0  0  0  0  0  0  0
  -13.8882   -3.9868  -12.4599 C   0  0  0  0  0  0  0  0  0  0  0  0
  -13.1675   -2.8951  -12.9573 C   0  0  0  0  0  0  0  0  0  0  0  0
  -13.8241   -1.7156  -13.3204 C   0  0  0  0  0  0  0  0  0  0  0  0
  -15.2121   -1.6281  -13.1853 C   0  0  0  0  0  0  0  0  0  0  0  0
  -15.9289   -2.7307  -12.6843 C   0  0  0  0  0  0  0  0  0  0  0  0
  -21.2249    1.7786  -14.6222 C   0  0  0  0  0  0  0  0  0  0  0  0
  -21.6988    3.2289  -14.4557 C   0  0  0  0  0  0  0  0  0  0  0  0
  -21.4185    1.0422  -13.3787 N   0  0  0  0  0  0  0  0  0  0  0  0
  -21.4362    1.6059  -12.5317 H   0  0  0  0  0  0  0  0  0  0  0  0
  -22.4325    0.1038  -13.2583 C   0  0  0  0  0  0  0  0  0  0  0  0
  -22.7211   -0.6229  -12.0974 C   0  0  0  0  0  0  0  0  0  0  0  0
  -23.7504   -1.5046  -11.9815 N   0  0  0  0  0  0  0  0  0  0  0  0
  -24.5243   -1.6124  -13.0818 C   0  0  0  0  0  0  0  0  0  0  0  0
  -24.2587   -0.8923  -14.2322 C   0  0  0  0  0  0  0  0  0  0  0  0
  -25.2604   -1.0196  -15.6162 Cl  0  0  0  0  0  0  0  0  0  0  0  0
  -23.2140   -0.0375  -14.3501 N   0  0  0  0  0  0  0  0  0  0  0  0
 11 12  1  0  0  0
 12 13  1  0  0  0
 12 17  2  0  0  0
 13 14  2  0  0  0
 14 15  1  0  0  0
 15 16  2  0  0  0
 16  7  1  0  0  0
 16 17  1  0  0  0
  7  8  2  0  0  0
  7  9  1  0  0  0
  9  1  1  0  0  0
  9 10  1  0  0  0
  1  2  1  0  0  0
  1  6  2  0  0  0
  2  3  2  0  0  0
  3  4  1  0  0  0
  4  5  2  0  0  0
  5  6  1  0  0  0
 18 20  1  0  0  0
 18 19  1  0  0  0
 18  5  1  0  0  0
 20 22  1  0  0  0
 20 21  1  0  0  0
 22 23  1  0  0  0
 22 28  2  0  0  0
 23 24  2  0  0  0
 24 25  1  0  0  0
 25 26  2  0  0  0
 26 27  1  0  0  0
 26 28  1  0  0  0
M  END
> <minimizedAffinity>
-9.75092

$$$$
