CHEMBL101683


 26 28  0  0  0  0  0  0  0  0999 V2000
  -29.1222   -3.0316   -6.9634 C   0  0  0  0  0  0  0  0  0  0  0  0
  -29.5958   -2.6724   -5.6801 C   0  0  0  0  0  0  0  0  0  0  0  0
  -29.0664   -1.5887   -4.9914 C   0  0  0  0  0  0  0  0  0  0  0  0
  -28.0711   -0.8359   -5.5885 C   0  0  0  0  0  0  0  0  0  0  0  0
  -27.6121   -1.1677   -6.8691 C   0  0  0  0  0  0  0  0  0  0  0  0
  -28.0824   -2.2955   -7.5788 C   0  0  0  0  0  0  0  0  0  0  0  0
  -30.5663   -4.1495   -8.3945 O   0  0  0  0  0  0  0  0  0  0  0  0
  -29.7269   -4.2823   -7.5080 C   0  0  0  0  0  0  0  0  0  0  0  0
  -29.2842   -5.4819   -6.9824 N   0  0  0  0  0  0  0  0  0  0  0  0
  -28.5560   -5.4295   -6.2745 H   0  0  0  0  0  0  0  0  0  0  0  0
  -29.7307   -6.7700   -7.3678 C   0  0  0  0  0  0  0  0  0  0  0  0
  -30.9511   -7.3259   -6.9587 C   0  0  0  0  0  0  0  0  0  0  0  0
  -31.3328   -8.6102   -7.3606 C   0  0  0  0  0  0  0  0  0  0  0  0
  -30.4962   -9.3503   -8.1820 C   0  0  0  0  0  0  0  0  0  0  0  0
  -30.9611  -10.9319   -8.6741 Cl  0  0  0  0  0  0  0  0  0  0  0  0
  -29.2824   -8.8152   -8.6064 C   0  0  0  0  0  0  0  0  0  0  0  0
  -28.9024   -7.5256   -8.2035 C   0  0  0  0  0  0  0  0  0  0  0  0
  -27.6069   -2.5938   -8.8856 N   0  0  0  0  0  0  0  0  0  0  0  0
  -26.5961   -2.7367   -8.8696 H   0  0  0  0  0  0  0  0  0  0  0  0
  -27.9601   -1.6347   -9.9383 C   0  0  0  0  0  0  0  0  0  0  0  0
  -26.9747   -1.6580  -11.0785 C   0  0  0  0  0  0  0  0  0  0  0  0
  -27.4226   -1.8077  -12.3974 C   0  0  0  0  0  0  0  0  0  0  0  0
  -26.5035   -1.7074  -13.4294 C   0  0  0  0  0  0  0  0  0  0  0  0
  -25.1865   -1.4876  -13.2390 N   0  0  0  0  0  0  0  0  0  0  0  0
  -24.7695   -1.3688  -11.9604 C   0  0  0  0  0  0  0  0  0  0  0  0
  -25.6106   -1.4496  -10.8606 C   0  0  0  0  0  0  0  0  0  0  0  0
  7  8  2  0  0  0
  8  9  1  0  0  0
  8  1  1  0  0  0
  9 11  1  0  0  0
  9 10  1  0  0  0
 11 12  1  0  0  0
 11 17  2  0  0  0
 12 13  2  0  0  0
 13 14  1  0  0  0
 14 15  1  0  0  0
 14 16  2  0  0  0
 16 17  1  0  0  0
  1  2  1  0  0  0
  1  6  2  0  0  0
  2  3  2  0  0  0
  3  4  1  0  0  0
  4  5  2  0  0  0
  5  6  1  0  0  0
  6 18  1  0  0  0
 18 20  1  0  0  0
 18 19  1  0  0  0
 20 21  1  0  0  0
 21 22  1  0  0  0
 21 26  2  0  0  0
 22 23  2  0  0  0
 23 24  1  0  0  0
 24 25  2  0  0  0
 25 26  1  0  0  0
M  END
> <minimizedAffinity>
-8.30434

$$$$
