CHEMBL231824


 37 40  0  0  0  0  0  0  0  0999 V2000
  -12.7462   -0.4726  -15.9351 C   0  0  0  0  0  0  0  0  0  0  0  0
  -11.7428    0.4157  -15.9547 N   0  0  0  0  0  0  0  0  0  0  0  0
  -12.0372    1.6959  -15.7091 C   0  0  0  0  0  0  0  0  0  0  0  0
  -13.3093    2.1483  -15.4730 C   0  0  0  0  0  0  0  0  0  0  0  0
  -14.3066    1.1818  -15.4627 C   0  0  0  0  0  0  0  0  0  0  0  0
  -14.0135   -0.1363  -15.6576 N   0  0  0  0  0  0  0  0  0  0  0  0
  -15.7558    1.4713  -15.3108 C   0  0  0  0  0  0  0  0  0  0  0  0
  -16.3976    2.3946  -16.1531 C   0  0  0  0  0  0  0  0  0  0  0  0
  -17.7438    2.7549  -15.9716 C   0  0  0  0  0  0  0  0  0  0  0  0
  -18.5088    2.2110  -14.9292 C   0  0  0  0  0  0  0  0  0  0  0  0
  -17.8813    1.2550  -14.1163 C   0  0  0  0  0  0  0  0  0  0  0  0
  -16.5486    0.8780  -14.3179 C   0  0  0  0  0  0  0  0  0  0  0  0
  -19.9598    2.6164  -14.6386 C   0  0  0  0  0  0  0  0  0  0  0  0
  -20.6719    3.0436  -15.9351 C   0  0  0  0  0  0  0  0  0  0  0  0
  -20.7153    1.4410  -13.9895 C   0  0  0  0  0  0  0  0  0  0  0  0
  -20.0707    3.7492  -13.7083 N   0  0  0  0  0  0  0  0  0  0  0  0
  -19.5816    4.5541  -14.0937 H   0  0  0  0  0  0  0  0  0  0  0  0
  -19.6255    3.5087  -12.8254 H   0  0  0  0  0  0  0  0  0  0  0  0
  -12.4602   -1.8145  -16.2062 N   0  0  0  0  0  0  0  0  0  0  0  0
  -12.5956   -1.9775  -17.1937 H   0  0  0  0  0  0  0  0  0  0  0  0
  -13.3036   -5.0876  -13.6465 C   0  0  0  0  0  0  0  0  0  0  0  0
  -14.0025   -4.9073  -14.8499 C   0  0  0  0  0  0  0  0  0  0  0  0
  -13.7119   -3.8380  -15.7039 C   0  0  0  0  0  0  0  0  0  0  0  0
  -12.7476   -2.8946  -15.3541 C   0  0  0  0  0  0  0  0  0  0  0  0
  -12.0507   -3.0761  -14.1500 C   0  0  0  0  0  0  0  0  0  0  0  0
  -12.3316   -4.1456  -13.2989 C   0  0  0  0  0  0  0  0  0  0  0  0
  -13.5976   -6.2285  -12.6974 C   0  0  0  0  0  0  0  0  0  0  0  0
  -14.8057   -5.9700  -11.7983 C   0  0  0  0  0  0  0  0  0  0  0  0
  -15.0455   -3.7599  -10.5789 C   0  0  0  0  0  0  0  0  0  0  0  0
  -14.4609   -3.1554   -9.5613 N   0  0  0  0  0  0  0  0  0  0  0  0
  -13.5735   -4.0565   -9.0399 C   0  0  0  0  0  0  0  0  0  0  0  0
  -13.6157   -5.2352   -9.7399 C   0  0  0  0  0  0  0  0  0  0  0  0
  -14.5376   -5.0280  -10.7320 N   0  0  0  0  0  0  0  0  0  0  0  0
  -15.5535   -2.2728  -12.5262 C   0  0  0  0  0  0  0  0  0  0  0  0
  -16.1176   -3.1535  -11.4231 C   0  0  0  0  0  0  0  0  0  0  0  0
  -13.4906    3.5462  -15.2885 C   0  0  0  0  0  0  0  0  0  0  0  0
  -13.6664    4.6800  -15.0983 N   0  0  0  0  0  0  0  0  0  0  0  0
 34 35  1  0  0  0
 35 29  1  0  0  0
 29 30  2  0  0  0
 29 33  1  0  0  0
 30 31  1  0  0  0
 31 32  2  0  0  0
 32 33  1  0  0  0
 33 28  1  0  0  0
 28 27  1  0  0  0
 27 21  1  0  0  0
 21 22  1  0  0  0
 21 26  2  0  0  0
 22 23  2  0  0  0
 23 24  1  0  0  0
 24 19  1  0  0  0
 24 25  2  0  0  0
 19  1  1  0  0  0
 19 20  1  0  0  0
  1  2  1  0  0  0
  1  6  2  0  0  0
  2  3  2  0  0  0
  3  4  1  0  0  0
  4 36  1  0  0  0
  4  5  2  0  0  0
 36 37  3  0  0  0
  5  7  1  0  0  0
  5  6  1  0  0  0
  7  8  1  0  0  0
  7 12  2  0  0  0
  8  9  2  0  0  0
  9 10  1  0  0  0
 10 13  1  0  0  0
 10 11  2  0  0  0
 13 14  1  0  0  0
 13 15  1  0  0  0
 13 16  1  0  0  0
 16 17  1  0  0  0
 16 18  1  0  0  0
 11 12  1  0  0  0
 25 26  1  0  0  0
M  END
> <minimizedAffinity>
-7.58700

$$$$
