CHEMBL1998724


 27 28  0  0  0  0  0  0  0  0999 V2000
  -28.3524   -6.4602   -7.7475 N   0  0  0  0  0  0  0  0  0  0  0  0
  -28.1714   -5.8745   -8.5526 H   0  0  0  0  0  0  0  0  0  0  0  0
  -28.7105   -5.6301   -6.6817 C   0  0  0  0  0  0  0  0  0  0  0  0
  -28.9829   -4.3516   -6.9687 N   0  0  0  0  0  0  0  0  0  0  0  0
  -29.3139   -3.5588   -5.9297 C   0  0  0  0  0  0  0  0  0  0  0  0
  -29.3869   -3.9889   -4.6221 C   0  0  0  0  0  0  0  0  0  0  0  0
  -29.0907   -5.3133   -4.4248 C   0  0  0  0  0  0  0  0  0  0  0  0
  -29.0338   -5.8968   -3.1670 N   0  0  0  0  0  0  0  0  0  0  0  0
  -28.7602   -6.1299   -5.4366 N   0  0  0  0  0  0  0  0  0  0  0  0
  -29.8523   -5.7588   -2.5877 H   0  0  0  0  0  0  0  0  0  0  0  0
  -28.8183   -6.8868   -3.2885 H   0  0  0  0  0  0  0  0  0  0  0  0
  -29.7756   -3.0766   -3.5220 C   0  0  0  0  0  0  0  0  0  0  0  0
  -28.8274   -2.9810   -2.5436 F   0  0  0  0  0  0  0  0  0  0  0  0
  -29.9718   -1.7974   -3.9556 F   0  0  0  0  0  0  0  0  0  0  0  0
  -30.9202   -3.4338   -2.8812 F   0  0  0  0  0  0  0  0  0  0  0  0
  -30.9628   -9.0857   -8.3115 C   0  0  0  0  0  0  0  0  0  0  0  0
  -30.3562   -7.8624   -7.9909 C   0  0  0  0  0  0  0  0  0  0  0  0
  -28.9669   -7.6890   -8.0662 C   0  0  0  0  0  0  0  0  0  0  0  0
  -28.1831   -8.7419   -8.5339 C   0  0  0  0  0  0  0  0  0  0  0  0
  -28.7589   -9.9841   -8.8217 C   0  0  0  0  0  0  0  0  0  0  0  0
  -30.1569  -10.1581   -8.7367 C   0  0  0  0  0  0  0  0  0  0  0  0
  -32.9772   -8.5192   -7.1603 C   0  0  0  0  0  0  0  0  0  0  0  0
  -32.3055   -9.3060   -8.1369 O   0  0  0  0  0  0  0  0  0  0  0  0
  -28.0168  -11.0658   -9.2384 O   0  0  0  0  0  0  0  0  0  0  0  0
  -27.1684  -10.8259  -10.3570 C   0  0  0  0  0  0  0  0  0  0  0  0
  -30.6055  -11.4271   -9.0238 O   0  0  0  0  0  0  0  0  0  0  0  0
  -30.8462  -12.2887   -7.9193 C   0  0  0  0  0  0  0  0  0  0  0  0
 22 23  1  0  0  0
 23 16  1  0  0  0
 16 17  1  0  0  0
 16 21  2  0  0  0
 17 18  2  0  0  0
 18  1  1  0  0  0
 18 19  1  0  0  0
  1  3  1  0  0  0
  1  2  1  0  0  0
  3  4  1  0  0  0
  3  9  2  0  0  0
  4  5  2  0  0  0
  5  6  1  0  0  0
  6 12  1  0  0  0
  6  7  2  0  0  0
 12 13  1  0  0  0
 12 14  1  0  0  0
 12 15  1  0  0  0
  7  8  1  0  0  0
  7  9  1  0  0  0
  8 10  1  0  0  0
  8 11  1  0  0  0
 19 20  2  0  0  0
 20 24  1  0  0  0
 20 21  1  0  0  0
 24 25  1  0  0  0
 21 26  1  0  0  0
 26 27  1  0  0  0
M  END
> <minimizedAffinity>
-7.20614

$$$$
