CHEMBL4569077


 44 48  0  0  0  0  0  0  0  0999 V2000
  -28.0147   -2.1993   -9.0550 C   0  0  0  0  0  0  0  0  0  0  0  0
  -26.6501   -1.9745   -9.0913 C   0  0  0  0  0  0  0  0  0  0  0  0
  -26.0082   -1.5473  -10.2471 C   0  0  0  0  0  0  0  0  0  0  0  0
  -26.6602   -1.4999  -11.4745 C   0  0  0  0  0  0  0  0  0  0  0  0
  -27.9997   -1.8995  -11.4982 C   0  0  0  0  0  0  0  0  0  0  0  0
  -28.6745   -2.2274  -10.2919 C   0  0  0  0  0  0  0  0  0  0  0  0
  -28.7939   -6.0313   -7.1384 N   0  0  0  0  0  0  0  0  0  0  0  0
  -28.2363   -5.0414   -7.9270 C   0  0  0  0  0  0  0  0  0  0  0  0
  -27.4565   -5.2129   -8.8393 O   0  0  0  0  0  0  0  0  0  0  0  0
  -28.8015   -3.6960   -7.3891 C   0  0  0  0  0  0  0  0  0  0  0  0
  -28.6839   -2.4764   -7.8405 N   0  0  0  0  0  0  0  0  0  0  0  0
  -29.6006   -4.0823   -6.2132 C   0  0  0  0  0  0  0  0  0  0  0  0
  -30.3148   -3.3040   -5.3213 C   0  0  0  0  0  0  0  0  0  0  0  0
  -31.0232   -3.9634   -4.3085 C   0  0  0  0  0  0  0  0  0  0  0  0
  -31.0114   -5.3683   -4.2194 C   0  0  0  0  0  0  0  0  0  0  0  0
  -30.2869   -6.1388   -5.1338 C   0  0  0  0  0  0  0  0  0  0  0  0
  -29.5815   -5.4785   -6.1239 C   0  0  0  0  0  0  0  0  0  0  0  0
  -28.4414   -7.4198   -7.2990 C   0  0  0  0  0  0  0  0  0  0  0  0
  -31.8770  -10.0205   -6.9416 C   0  0  0  0  0  0  0  0  0  0  0  0
  -30.6448  -10.4076   -6.4056 C   0  0  0  0  0  0  0  0  0  0  0  0
  -29.5362   -9.5629   -6.5060 C   0  0  0  0  0  0  0  0  0  0  0  0
  -29.6457   -8.3223   -7.1456 C   0  0  0  0  0  0  0  0  0  0  0  0
  -30.8841   -7.9489   -7.6938 C   0  0  0  0  0  0  0  0  0  0  0  0
  -31.9938   -8.7898   -7.5898 C   0  0  0  0  0  0  0  0  0  0  0  0
  -33.9326  -11.5872   -6.7374 N   0  0  0  0  0  0  0  0  0  0  0  0
  -33.0150  -10.8830   -6.8228 C   0  0  0  0  0  0  0  0  0  0  0  0
  -25.9970   -1.0762  -12.6585 N   0  0  0  0  0  0  0  0  0  0  0  0
  -24.7192   -0.5222  -12.6822 C   0  0  0  0  0  0  0  0  0  0  0  0
  -23.9949   -0.3643  -11.7022 O   0  0  0  0  0  0  0  0  0  0  0  0
  -24.2918   -0.1195  -13.9491 N   0  0  0  0  0  0  0  0  0  0  0  0
  -26.4755   -1.1937  -13.5390 H   0  0  0  0  0  0  0  0  0  0  0  0
  -25.0066    0.3219  -14.5079 H   0  0  0  0  0  0  0  0  0  0  0  0
  -22.9884    0.4546  -14.0290 C   0  0  0  0  0  0  0  0  0  0  0  0
  -22.8172    1.8323  -13.8101 C   0  0  0  0  0  0  0  0  0  0  0  0
  -21.5959    2.4497  -14.0638 C   0  0  0  0  0  0  0  0  0  0  0  0
  -20.5330    1.6801  -14.5301 C   0  0  0  0  0  0  0  0  0  0  0  0
  -20.6730    0.2993  -14.7200 C   0  0  0  0  0  0  0  0  0  0  0  0
  -21.8996   -0.3188  -14.4442 C   0  0  0  0  0  0  0  0  0  0  0  0
  -18.9929    2.4721  -14.8740 S   0  0  0  0  0  0  0  0  0  0  0  0
  -19.2243    3.9172  -14.0615 N   0  0  0  0  0  0  0  0  0  0  0  0
  -17.9328    1.7810  -14.1835 O   0  0  0  0  0  0  0  0  0  0  0  0
  -18.9285    2.8203  -16.2841 O   0  0  0  0  0  0  0  0  0  0  0  0
  -18.5445    4.0170  -13.3098 H   0  0  0  0  0  0  0  0  0  0  0  0
  -19.2734    4.6933  -14.7187 H   0  0  0  0  0  0  0  0  0  0  0  0
 25 26  3  0  0  0
 26 19  1  0  0  0
 19 20  1  0  0  0
 19 24  2  0  0  0
 20 21  2  0  0  0
 21 22  1  0  0  0
 22 18  1  0  0  0
 22 23  2  0  0  0
 18  7  1  0  0  0
  7  8  1  0  0  0
  7 17  1  0  0  0
  8  9  2  0  0  0
  8 10  1  0  0  0
 10 11  2  0  0  0
 10 12  1  0  0  0
 11  1  1  0  0  0
  1  2  1  0  0  0
  1  6  2  0  0  0
  2  3  2  0  0  0
  3  4  1  0  0  0
  4 27  1  0  0  0
  4  5  2  0  0  0
 27 28  1  0  0  0
 27 31  1  0  0  0
 28 29  2  0  0  0
 28 30  1  0  0  0
 30 33  1  0  0  0
 30 32  1  0  0  0
 33 34  1  0  0  0
 33 38  2  0  0  0
 34 35  2  0  0  0
 35 36  1  0  0  0
 36 39  1  0  0  0
 36 37  2  0  0  0
 39 40  1  0  0  0
 39 41  2  0  0  0
 39 42  2  0  0  0
 40 43  1  0  0  0
 40 44  1  0  0  0
 37 38  1  0  0  0
  5  6  1  0  0  0
 12 13  1  0  0  0
 12 17  2  0  0  0
 13 14  2  0  0  0
 14 15  1  0  0  0
 15 16  2  0  0  0
 16 17  1  0  0  0
 23 24  1  0  0  0
M  END
> <minimizedAffinity>
-9.07397

$$$$
