CHEMBL3648073


 27 28  0  0  0  0  0  0  0  0999 V2000
  -17.0336    1.5736  -15.1036 C   0  0  0  0  0  0  0  0  0  0  0  0
  -16.8731    0.5073  -14.2809 N   0  0  0  0  0  0  0  0  0  0  0  0
  -15.6145    0.2243  -13.9095 C   0  0  0  0  0  0  0  0  0  0  0  0
  -14.5421    0.8891  -14.3760 N   0  0  0  0  0  0  0  0  0  0  0  0
  -14.7469    1.9440  -15.1807 C   0  0  0  0  0  0  0  0  0  0  0  0
  -15.9935    2.3618  -15.5552 C   0  0  0  0  0  0  0  0  0  0  0  0
  -16.2085    3.9035  -16.6124 Br  0  0  0  0  0  0  0  0  0  0  0  0
  -15.4020   -0.8019  -12.9833 N   0  0  0  0  0  0  0  0  0  0  0  0
  -15.0239   -0.4599  -12.1131 H   0  0  0  0  0  0  0  0  0  0  0  0
  -15.1707   -2.1599  -13.2799 C   0  0  0  0  0  0  0  0  0  0  0  0
  -14.0215   -2.5715  -13.9781 C   0  0  0  0  0  0  0  0  0  0  0  0
  -13.8604   -3.8885  -14.4123 C   0  0  0  0  0  0  0  0  0  0  0  0
  -14.8626   -4.8183  -14.1419 C   0  0  0  0  0  0  0  0  0  0  0  0
  -15.9903   -4.4511  -13.4022 C   0  0  0  0  0  0  0  0  0  0  0  0
  -16.1343   -3.1255  -12.9654 C   0  0  0  0  0  0  0  0  0  0  0  0
  -14.7256   -6.4496  -14.8551 S   0  0  0  0  0  0  0  0  0  0  0  0
  -13.3047   -7.1436  -14.0537 C   0  0  0  0  0  0  0  0  0  0  0  0
  -15.9810   -7.2073  -14.3795 N   0  0  0  0  0  0  0  0  0  0  0  0
  -14.3446   -6.2907  -16.2469 O   0  0  0  0  0  0  0  0  0  0  0  0
  -15.8888   -7.6181  -13.4527 H   0  0  0  0  0  0  0  0  0  0  0  0
  -18.3069    1.9345  -15.5100 O   0  0  0  0  0  0  0  0  0  0  0  0
  -19.3611    1.7165  -14.5578 C   0  0  0  0  0  0  0  0  0  0  0  0
  -20.3911    0.7246  -15.1036 C   0  0  0  0  0  0  0  0  0  0  0  0
  -21.5507    3.1006  -14.4196 C   0  0  0  0  0  0  0  0  0  0  0  0
  -20.0306    3.0873  -14.2727 C   0  0  0  0  0  0  0  0  0  0  0  0
  -19.4980    4.0812  -15.1556 O   0  0  0  0  0  0  0  0  0  0  0  0
  -19.6935    3.7827  -16.0629 H   0  0  0  0  0  0  0  0  0  0  0  0
 25 22  1  0  0  0
 25 26  1  0  0  0
 25 24  1  0  0  0
 26 27  1  0  0  0
 22 23  1  0  0  0
 22 21  1  0  0  0
 21  1  1  0  0  0
  1  2  1  0  0  0
  1  6  2  0  0  0
  2  3  2  0  0  0
  3  8  1  0  0  0
  3  4  1  0  0  0
  8 10  1  0  0  0
  8  9  1  0  0  0
 10 11  1  0  0  0
 10 15  2  0  0  0
 11 12  2  0  0  0
 12 13  1  0  0  0
 13 16  1  0  0  0
 13 14  2  0  0  0
 16 17  1  0  0  0
 16 18  2  0  0  0
 16 19  2  0  0  0
 18 20  1  0  0  0
 14 15  1  0  0  0
  4  5  2  0  0  0
  5  6  1  0  0  0
  6  7  1  0  0  0
M  END
> <minimizedAffinity>
-7.68419

$$$$
