CHEMBL3287303


 43 47  0  0  0  0  0  0  0  0999 V2000
  -28.8456   -7.5443   -4.6423 C   0  0  0  0  0  0  0  0  0  0  0  0
  -28.6854   -7.2330   -5.9949 C   0  0  0  0  0  0  0  0  0  0  0  0
  -28.6748   -5.9072   -6.4239 C   0  0  0  0  0  0  0  0  0  0  0  0
  -28.8947   -4.8684   -5.5222 C   0  0  0  0  0  0  0  0  0  0  0  0
  -29.1243   -5.1836   -4.1749 C   0  0  0  0  0  0  0  0  0  0  0  0
  -29.1053   -6.5180   -3.7357 C   0  0  0  0  0  0  0  0  0  0  0  0
  -28.8796   -3.5085   -5.9019 N   0  0  0  0  0  0  0  0  0  0  0  0
  -27.9546   -2.5610   -5.5026 C   0  0  0  0  0  0  0  0  0  0  0  0
  -26.9638   -2.7393   -4.8095 O   0  0  0  0  0  0  0  0  0  0  0  0
  -29.6017   -3.2106   -6.5474 H   0  0  0  0  0  0  0  0  0  0  0  0
  -28.2509   -1.1757   -5.9939 C   0  0  0  0  0  0  0  0  0  0  0  0
  -28.0389   -0.0208   -5.0086 C   0  0  0  0  0  0  0  0  0  0  0  0
  -29.4348   -0.4692   -5.3063 C   0  0  0  0  0  0  0  0  0  0  0  0
  -28.0429   -0.8331   -7.4535 C   0  0  0  0  0  0  0  0  0  0  0  0
  -28.1794    0.3395   -7.7859 O   0  0  0  0  0  0  0  0  0  0  0  0
  -27.6916   -1.8591   -8.3209 N   0  0  0  0  0  0  0  0  0  0  0  0
  -27.8636   -2.8199   -8.0384 H   0  0  0  0  0  0  0  0  0  0  0  0
  -27.3004   -1.6366   -9.6629 C   0  0  0  0  0  0  0  0  0  0  0  0
  -28.2181   -1.4869  -10.7052 C   0  0  0  0  0  0  0  0  0  0  0  0
  -27.7948   -1.3724  -12.0300 C   0  0  0  0  0  0  0  0  0  0  0  0
  -26.4403   -1.3791  -12.3272 C   0  0  0  0  0  0  0  0  0  0  0  0
  -25.5161   -1.4416  -11.2906 C   0  0  0  0  0  0  0  0  0  0  0  0
  -25.9448   -1.5555   -9.9628 C   0  0  0  0  0  0  0  0  0  0  0  0
  -28.7663   -8.8428   -4.1676 O   0  0  0  0  0  0  0  0  0  0  0  0
  -26.3838  -10.8186   -5.9348 C   0  0  0  0  0  0  0  0  0  0  0  0
  -25.4263  -11.0578   -5.0328 N   0  0  0  0  0  0  0  0  0  0  0  0
  -25.5714  -10.4585   -3.8283 C   0  0  0  0  0  0  0  0  0  0  0  0
  -26.6431   -9.6682   -3.4782 C   0  0  0  0  0  0  0  0  0  0  0  0
  -27.5883   -9.5272   -4.4552 C   0  0  0  0  0  0  0  0  0  0  0  0
  -27.4435  -10.0487   -5.6787 N   0  0  0  0  0  0  0  0  0  0  0  0
  -26.3081  -11.4180   -7.1960 N   0  0  0  0  0  0  0  0  0  0  0  0
  -25.3527  -11.4223   -7.5235 H   0  0  0  0  0  0  0  0  0  0  0  0
  -29.6127  -11.4646   -8.9263 C   0  0  0  0  0  0  0  0  0  0  0  0
  -29.2527  -10.8859  -10.1542 C   0  0  0  0  0  0  0  0  0  0  0  0
  -27.9383  -10.5245  -10.4200 C   0  0  0  0  0  0  0  0  0  0  0  0
  -26.9642  -10.7256   -9.4527 C   0  0  0  0  0  0  0  0  0  0  0  0
  -27.2858  -11.2678   -8.2004 C   0  0  0  0  0  0  0  0  0  0  0  0
  -28.6085  -11.6618   -7.9591 C   0  0  0  0  0  0  0  0  0  0  0  0
  -31.0520  -11.7766   -8.5918 C   0  0  0  0  0  0  0  0  0  0  0  0
  -32.9606  -11.3904   -6.6171 C   0  0  0  0  0  0  0  0  0  0  0  0
  -31.7982  -10.4819   -7.6009 S   0  0  0  0  0  0  0  0  0  0  0  0
  -32.5550   -9.6091   -8.4708 O   0  0  0  0  0  0  0  0  0  0  0  0
  -30.8234   -9.9290   -6.6756 O   0  0  0  0  0  0  0  0  0  0  0  0
 40 41  1  0  0  0
 41 42  2  0  0  0
 41 43  2  0  0  0
 41 39  1  0  0  0
 39 33  1  0  0  0
 33 34  1  0  0  0
 33 38  2  0  0  0
 34 35  2  0  0  0
 35 36  1  0  0  0
 36 37  2  0  0  0
 37 31  1  0  0  0
 37 38  1  0  0  0
 31 25  1  0  0  0
 31 32  1  0  0  0
 25 26  1  0  0  0
 25 30  2  0  0  0
 26 27  2  0  0  0
 27 28  1  0  0  0
 28 29  2  0  0  0
 29 24  1  0  0  0
 29 30  1  0  0  0
 24  1  1  0  0  0
  1  2  1  0  0  0
  1  6  2  0  0  0
  2  3  2  0  0  0
  3  4  1  0  0  0
  4  7  1  0  0  0
  4  5  2  0  0  0
  7  8  1  0  0  0
  7 10  1  0  0  0
  8  9  2  0  0  0
  8 11  1  0  0  0
 11 14  1  0  0  0
 11 12  1  0  0  0
 11 13  1  0  0  0
 14 15  2  0  0  0
 14 16  1  0  0  0
 16 18  1  0  0  0
 16 17  1  0  0  0
 18 19  1  0  0  0
 18 23  2  0  0  0
 19 20  2  0  0  0
 20 21  1  0  0  0
 21 22  2  0  0  0
 22 23  1  0  0  0
 12 13  1  0  0  0
  5  6  1  0  0  0
M  END
> <minimizedAffinity>
-8.76167

$$$$
