CHEMBL1688353


 33 37  0  0  0  0  0  0  0  0999 V2000
  -28.3842   -3.3592   -7.5737 C   0  0  0  0  0  0  0  0  0  0  0  0
  -27.5696   -2.3846   -7.2054 N   0  0  0  0  0  0  0  0  0  0  0  0
  -27.2778   -1.6200   -8.3101 N   0  0  0  0  0  0  0  0  0  0  0  0
  -27.8772   -2.1582   -9.3435 C   0  0  0  0  0  0  0  0  0  0  0  0
  -28.5408   -3.2854   -8.9341 N   0  0  0  0  0  0  0  0  0  0  0  0
  -29.1263   -3.8885   -9.4872 H   0  0  0  0  0  0  0  0  0  0  0  0
  -30.1631   -6.4324   -5.2159 C   0  0  0  0  0  0  0  0  0  0  0  0
  -30.4098   -6.3435   -6.5768 C   0  0  0  0  0  0  0  0  0  0  0  0
  -29.8293   -5.3119   -7.3087 C   0  0  0  0  0  0  0  0  0  0  0  0
  -29.0357   -4.3246   -6.6878 C   0  0  0  0  0  0  0  0  0  0  0  0
  -28.8851   -4.3399   -5.2792 C   0  0  0  0  0  0  0  0  0  0  0  0
  -29.3945   -5.4535   -4.5808 C   0  0  0  0  0  0  0  0  0  0  0  0
  -28.1365   -3.3283   -4.6099 N   0  0  0  0  0  0  0  0  0  0  0  0
  -27.4876   -3.7935   -3.9693 H   0  0  0  0  0  0  0  0  0  0  0  0
  -28.9423   -2.3528   -3.8597 C   0  0  0  0  0  0  0  0  0  0  0  0
  -28.9809   -1.0176   -4.5614 C   0  0  0  0  0  0  0  0  0  0  0  0
  -27.8473   -0.2088   -4.6248 C   0  0  0  0  0  0  0  0  0  0  0  0
  -27.8946    0.9621   -5.3722 C   0  0  0  0  0  0  0  0  0  0  0  0
  -28.9922    1.3709   -6.0530 N   0  0  0  0  0  0  0  0  0  0  0  0
  -30.0679    0.5709   -5.9878 C   0  0  0  0  0  0  0  0  0  0  0  0
  -30.1226   -0.6110   -5.2706 C   0  0  0  0  0  0  0  0  0  0  0  0
  -27.9711   -1.6620  -10.5954 N   0  0  0  0  0  0  0  0  0  0  0  0
  -28.7337   -1.0068  -10.7504 H   0  0  0  0  0  0  0  0  0  0  0  0
  -26.9557   -1.5625  -11.5589 C   0  0  0  0  0  0  0  0  0  0  0  0
  -27.1802   -1.8200  -12.9143 C   0  0  0  0  0  0  0  0  0  0  0  0
  -26.1553   -1.6453  -13.8459 C   0  0  0  0  0  0  0  0  0  0  0  0
  -24.8996   -1.1969  -13.4357 C   0  0  0  0  0  0  0  0  0  0  0  0
  -24.6429   -1.0129  -12.0841 C   0  0  0  0  0  0  0  0  0  0  0  0
  -25.6634   -1.2051  -11.1488 C   0  0  0  0  0  0  0  0  0  0  0  0
  -23.4146   -0.6779  -11.5946 O   0  0  0  0  0  0  0  0  0  0  0  0
  -22.6062   -0.0083  -12.5565 C   0  0  0  0  0  0  0  0  0  0  0  0
  -22.7133   -0.5304  -13.9855 C   0  0  0  0  0  0  0  0  0  0  0  0
  -24.0001   -0.9527  -14.4268 O   0  0  0  0  0  0  0  0  0  0  0  0
  7  8  1  0  0  0
  7 12  2  0  0  0
  8  9  2  0  0  0
  9 10  1  0  0  0
 10  1  1  0  0  0
 10 11  2  0  0  0
  1  2  2  0  0  0
  1  5  1  0  0  0
  2  3  1  0  0  0
  3  4  2  0  0  0
  4 22  1  0  0  0
  4  5  1  0  0  0
 22 24  1  0  0  0
 22 23  1  0  0  0
 24 25  1  0  0  0
 24 29  2  0  0  0
 25 26  2  0  0  0
 26 27  1  0  0  0
 27 28  2  0  0  0
 27 33  1  0  0  0
 28 29  1  0  0  0
 28 30  1  0  0  0
 30 31  1  0  0  0
 31 32  1  0  0  0
 32 33  1  0  0  0
  5  6  1  0  0  0
 11 13  1  0  0  0
 11 12  1  0  0  0
 13 15  1  0  0  0
 13 14  1  0  0  0
 15 16  1  0  0  0
 16 17  1  0  0  0
 16 21  2  0  0  0
 17 18  2  0  0  0
 18 19  1  0  0  0
 19 20  2  0  0  0
 20 21  1  0  0  0
M  END
> <minimizedAffinity>
-10.31073

$$$$
