CHEMBL2016908


 32 36  0  0  0  0  0  0  0  0999 V2000
  -31.6315   -4.3383   -4.2029 O   0  0  0  0  0  0  0  0  0  0  0  0
  -30.4049   -4.4808   -4.2401 C   0  0  0  0  0  0  0  0  0  0  0  0
  -29.8084   -5.6800   -4.6399 N   0  0  0  0  0  0  0  0  0  0  0  0
  -30.7498   -6.7591   -5.0166 C   0  0  0  0  0  0  0  0  0  0  0  0
  -30.1676   -7.9871   -5.7431 C   0  0  0  0  0  0  0  0  0  0  0  0
  -28.7756   -8.2236   -5.3303 C   0  0  0  0  0  0  0  0  0  0  0  0
  -28.0365   -9.3301   -5.6278 N   0  0  0  0  0  0  0  0  0  0  0  0
  -26.8496   -9.1274   -5.0727 C   0  0  0  0  0  0  0  0  0  0  0  0
  -26.8224   -7.9021   -4.4367 N   0  0  0  0  0  0  0  0  0  0  0  0
  -28.0437   -7.3222   -4.6105 C   0  0  0  0  0  0  0  0  0  0  0  0
  -28.4779   -6.0139   -4.1148 C   0  0  0  0  0  0  0  0  0  0  0  0
  -26.0272   -7.5366   -3.9210 H   0  0  0  0  0  0  0  0  0  0  0  0
  -25.7075   -9.9724   -5.0246 C   0  0  0  0  0  0  0  0  0  0  0  0
  -25.2868  -10.3997   -3.8210 C   0  0  0  0  0  0  0  0  0  0  0  0
  -24.0472  -11.1568   -3.6797 C   0  0  0  0  0  0  0  0  0  0  0  0
  -23.5732  -11.5702   -2.4355 C   0  0  0  0  0  0  0  0  0  0  0  0
  -24.2886  -11.3347   -1.3254 F   0  0  0  0  0  0  0  0  0  0  0  0
  -22.3468  -12.2169   -2.3170 C   0  0  0  0  0  0  0  0  0  0  0  0
  -21.5817  -12.4643   -3.4575 C   0  0  0  0  0  0  0  0  0  0  0  0
  -22.0545  -12.0814   -4.7154 C   0  0  0  0  0  0  0  0  0  0  0  0
  -23.2854  -11.4320   -4.8194 C   0  0  0  0  0  0  0  0  0  0  0  0
  -23.7598  -11.0317   -6.0760 N   0  0  0  0  0  0  0  0  0  0  0  0
  -24.9375  -10.3454   -6.2599 C   0  0  0  0  0  0  0  0  0  0  0  0
  -25.3237  -10.0434   -7.3891 O   0  0  0  0  0  0  0  0  0  0  0  0
  -23.2394  -11.2529   -6.9142 H   0  0  0  0  0  0  0  0  0  0  0  0
  -29.4931   -3.2895   -3.9000 C   0  0  0  0  0  0  0  0  0  0  0  0
  -29.7801   -2.1505   -4.8013 N   0  0  0  0  0  0  0  0  0  0  0  0
  -29.7221   -2.5664   -6.2193 C   0  0  0  0  0  0  0  0  0  0  0  0
  -28.3007   -2.8960   -6.7084 C   0  0  0  0  0  0  0  0  0  0  0  0
  -27.4028   -1.7996   -6.4975 O   0  0  0  0  0  0  0  0  0  0  0  0
  -27.3858   -1.3953   -5.1207 C   0  0  0  0  0  0  0  0  0  0  0  0
  -28.8005   -1.0460   -4.6273 C   0  0  0  0  0  0  0  0  0  0  0  0
  1  2  2  0  0  0
  2 26  1  0  0  0
  2  3  1  0  0  0
 26 27  1  0  0  0
 27 28  1  0  0  0
 27 32  1  0  0  0
 28 29  1  0  0  0
 29 30  1  0  0  0
 30 31  1  0  0  0
 31 32  1  0  0  0
  3  4  1  0  0  0
  3 11  1  0  0  0
  4  5  1  0  0  0
  5  6  1  0  0  0
  6  7  1  0  0  0
  6 10  2  0  0  0
  7  8  2  0  0  0
  8 13  1  0  0  0
  8  9  1  0  0  0
 13 14  2  0  0  0
 13 23  1  0  0  0
 14 15  1  0  0  0
 15 16  1  0  0  0
 15 21  2  0  0  0
 16 17  1  0  0  0
 16 18  2  0  0  0
 18 19  1  0  0  0
 19 20  2  0  0  0
 20 21  1  0  0  0
 21 22  1  0  0  0
 22 23  1  0  0  0
 22 25  1  0  0  0
 23 24  2  0  0  0
  9 10  1  0  0  0
  9 12  1  0  0  0
 10 11  1  0  0  0
M  END
> <minimizedAffinity>
-8.97639

$$$$
