CHEMBL1986943


 27 30  0  0  0  0  0  0  0  0999 V2000
  -30.1211   -3.5881   -5.0581 C   0  0  0  0  0  0  0  0  0  0  0  0
  -30.8976   -3.8551   -4.0091 N   0  0  0  0  0  0  0  0  0  0  0  0
  -31.3175   -5.1209   -3.8958 C   0  0  0  0  0  0  0  0  0  0  0  0
  -32.2900   -5.4184   -2.5130 Cl  0  0  0  0  0  0  0  0  0  0  0  0
  -31.0337   -6.1250   -4.7773 C   0  0  0  0  0  0  0  0  0  0  0  0
  -30.2245   -5.7559   -5.8228 C   0  0  0  0  0  0  0  0  0  0  0  0
  -29.7410   -4.5050   -5.9540 N   0  0  0  0  0  0  0  0  0  0  0  0
  -29.8565   -6.7019   -6.8704 C   0  0  0  0  0  0  0  0  0  0  0  0
  -28.6641   -6.6335   -7.5769 C   0  0  0  0  0  0  0  0  0  0  0  0
  -28.6358   -7.6735   -8.4749 N   0  0  0  0  0  0  0  0  0  0  0  0
  -29.7760   -8.4118   -8.3636 C   0  0  0  0  0  0  0  0  0  0  0  0
  -30.0355   -9.5052   -9.1073 N   0  0  0  0  0  0  0  0  0  0  0  0
  -31.2312  -10.0656   -8.8139 C   0  0  0  0  0  0  0  0  0  0  0  0
  -32.1272   -9.6052   -7.8577 C   0  0  0  0  0  0  0  0  0  0  0  0
  -31.8035   -8.4694   -7.1154 C   0  0  0  0  0  0  0  0  0  0  0  0
  -30.5743   -7.8381   -7.3795 C   0  0  0  0  0  0  0  0  0  0  0  0
  -27.8998   -7.8810   -9.1299 H   0  0  0  0  0  0  0  0  0  0  0  0
  -29.6702   -2.2991   -5.2823 N   0  0  0  0  0  0  0  0  0  0  0  0
  -30.1903   -1.9371   -6.0733 H   0  0  0  0  0  0  0  0  0  0  0  0
  -28.8614    1.8466   -6.8795 O   0  0  0  0  0  0  0  0  0  0  0  0
  -28.1356    0.7240   -6.3893 C   0  0  0  0  0  0  0  0  0  0  0  0
  -28.5274    0.4425   -4.9413 C   0  0  0  0  0  0  0  0  0  0  0  0
  -27.8725   -0.8413   -4.4312 C   0  0  0  0  0  0  0  0  0  0  0  0
  -28.2306   -2.0575   -5.3085 C   0  0  0  0  0  0  0  0  0  0  0  0
  -27.8046   -1.7680   -6.7604 C   0  0  0  0  0  0  0  0  0  0  0  0
  -28.4090   -0.4704   -7.3021 C   0  0  0  0  0  0  0  0  0  0  0  0
  -28.7575    2.5691   -6.2372 H   0  0  0  0  0  0  0  0  0  0  0  0
 20 21  1  0  0  0
 20 27  1  0  0  0
 21 22  1  0  0  0
 21 26  1  0  0  0
 22 23  1  0  0  0
 23 24  1  0  0  0
 24 18  1  0  0  0
 24 25  1  0  0  0
 18  1  1  0  0  0
 18 19  1  0  0  0
  1  2  1  0  0  0
  1  7  2  0  0  0
  2  3  2  0  0  0
  3  4  1  0  0  0
  3  5  1  0  0  0
  5  6  2  0  0  0
  6  8  1  0  0  0
  6  7  1  0  0  0
  8  9  2  0  0  0
  8 16  1  0  0  0
  9 10  1  0  0  0
 10 11  1  0  0  0
 10 17  1  0  0  0
 11 12  1  0  0  0
 11 16  2  0  0  0
 12 13  2  0  0  0
 13 14  1  0  0  0
 14 15  2  0  0  0
 15 16  1  0  0  0
 25 26  1  0  0  0
M  END
> <minimizedAffinity>
-9.08977

$$$$
