CHEMBL46785


 39 44  0  0  0  0  0  0  0  0999 V2000
  -28.8498  -10.1496   -7.0390 N   0  0  0  0  0  0  0  0  0  0  0  0
  -28.5798   -8.8933   -6.6331 N   0  0  0  0  0  0  0  0  0  0  0  0
  -29.7610   -8.2697   -6.6314 C   0  0  0  0  0  0  0  0  0  0  0  0
  -30.8126   -9.1569   -7.0137 C   0  0  0  0  0  0  0  0  0  0  0  0
  -32.1927   -9.1197   -7.2623 C   0  0  0  0  0  0  0  0  0  0  0  0
  -32.9761   -7.9737   -7.2478 N   0  0  0  0  0  0  0  0  0  0  0  0
  -32.8250  -10.2673   -7.5840 N   0  0  0  0  0  0  0  0  0  0  0  0
  -32.0986  -11.3962   -7.6891 C   0  0  0  0  0  0  0  0  0  0  0  0
  -30.7713  -11.5412   -7.5523 N   0  0  0  0  0  0  0  0  0  0  0  0
  -30.1869  -10.3794   -7.2079 C   0  0  0  0  0  0  0  0  0  0  0  0
  -32.4949   -7.1320   -7.5429 H   0  0  0  0  0  0  0  0  0  0  0  0
  -33.8605   -8.1456   -7.7115 H   0  0  0  0  0  0  0  0  0  0  0  0
  -25.5082  -11.0817   -5.3258 C   0  0  0  0  0  0  0  0  0  0  0  0
  -25.7149   -9.9217   -6.3187 C   0  0  0  0  0  0  0  0  0  0  0  0
  -26.4456  -10.3005   -7.6033 C   0  0  0  0  0  0  0  0  0  0  0  0
  -27.7605  -11.0595   -7.3706 C   0  0  0  0  0  0  0  0  0  0  0  0
  -27.6154  -12.1964   -6.3539 C   0  0  0  0  0  0  0  0  0  0  0  0
  -26.8459  -11.8128   -5.0874 C   0  0  0  0  0  0  0  0  0  0  0  0
  -20.7363  -10.3739   -7.2538 C   0  0  0  0  0  0  0  0  0  0  0  0
  -21.6413  -11.3229   -6.6068 N   0  0  0  0  0  0  0  0  0  0  0  0
  -22.1125  -10.7805   -5.3215 C   0  0  0  0  0  0  0  0  0  0  0  0
  -23.1868  -11.6600   -4.6451 C   0  0  0  0  0  0  0  0  0  0  0  0
  -24.3444  -11.9636   -5.4966 N   0  0  0  0  0  0  0  0  0  0  0  0
  -23.8926  -12.4657   -6.7919 C   0  0  0  0  0  0  0  0  0  0  0  0
  -22.7738  -11.6556   -7.4900 C   0  0  0  0  0  0  0  0  0  0  0  0
  -29.8243   -6.8439   -6.3239 C   0  0  0  0  0  0  0  0  0  0  0  0
  -29.4803   -5.9107   -7.3088 C   0  0  0  0  0  0  0  0  0  0  0  0
  -29.6608   -4.5495   -7.0771 C   0  0  0  0  0  0  0  0  0  0  0  0
  -30.2198   -4.0963   -5.8765 C   0  0  0  0  0  0  0  0  0  0  0  0
  -30.4733   -5.0207   -4.8618 C   0  0  0  0  0  0  0  0  0  0  0  0
  -30.2536   -6.3819   -5.0779 C   0  0  0  0  0  0  0  0  0  0  0  0
  -30.5231   -2.7354   -5.6604 N   0  0  0  0  0  0  0  0  0  0  0  0
  -31.3549   -2.6349   -5.0860 H   0  0  0  0  0  0  0  0  0  0  0  0
  -29.5836   -1.6977   -5.4848 C   0  0  0  0  0  0  0  0  0  0  0  0
  -28.2221   -1.9762   -5.2919 C   0  0  0  0  0  0  0  0  0  0  0  0
  -27.3063   -0.9530   -5.0508 C   0  0  0  0  0  0  0  0  0  0  0  0
  -27.7380    0.3685   -5.0365 C   0  0  0  0  0  0  0  0  0  0  0  0
  -29.0766    0.6648   -5.2853 C   0  0  0  0  0  0  0  0  0  0  0  0
  -29.9960   -0.3622   -5.5165 C   0  0  0  0  0  0  0  0  0  0  0  0
 19 20  1  0  0  0
 20 21  1  0  0  0
 20 25  1  0  0  0
 21 22  1  0  0  0
 22 23  1  0  0  0
 23 24  1  0  0  0
 13 14  1  0  0  0
 13 18  1  0  0  0
 13 23  1  0  0  0
 14 15  1  0  0  0
 15 16  1  0  0  0
 16 17  1  0  0  0
 16  1  1  0  0  0
  1  2  1  0  0  0
  1 10  1  0  0  0
  2  3  2  0  0  0
  3 26  1  0  0  0
  3  4  1  0  0  0
 26 27  1  0  0  0
 26 31  2  0  0  0
 27 28  2  0  0  0
 28 29  1  0  0  0
 29 32  1  0  0  0
 29 30  2  0  0  0
 32 34  1  0  0  0
 32 33  1  0  0  0
 34 35  1  0  0  0
 34 39  2  0  0  0
 35 36  2  0  0  0
 36 37  1  0  0  0
 37 38  2  0  0  0
 38 39  1  0  0  0
 30 31  1  0  0  0
  4  5  1  0  0  0
  4 10  2  0  0  0
  5  6  1  0  0  0
  5  7  2  0  0  0
  6 11  1  0  0  0
  6 12  1  0  0  0
  7  8  1  0  0  0
  8  9  2  0  0  0
  9 10  1  0  0  0
 17 18  1  0  0  0
 24 25  1  0  0  0
M  END
> <minimizedAffinity>
-9.60336

$$$$
