CHEMBL3660303


 33 36  0  0  0  0  0  0  0  0999 V2000
  -25.5647   -1.7695  -12.2383 C   0  0  0  0  0  0  0  0  0  0  0  0
  -25.6674   -1.3407  -13.5663 C   0  0  0  0  0  0  0  0  0  0  0  0
  -24.5280   -0.9795  -14.2846 C   0  0  0  0  0  0  0  0  0  0  0  0
  -23.2788   -0.9891  -13.6626 C   0  0  0  0  0  0  0  0  0  0  0  0
  -23.1747   -1.4167  -12.3348 C   0  0  0  0  0  0  0  0  0  0  0  0
  -24.3182   -1.7829  -11.6120 C   0  0  0  0  0  0  0  0  0  0  0  0
  -27.9124   -2.6466   -9.6204 N   0  0  0  0  0  0  0  0  0  0  0  0
  -26.8029   -2.0361  -10.1798 C   0  0  0  0  0  0  0  0  0  0  0  0
  -26.0074   -1.3198   -9.5842 O   0  0  0  0  0  0  0  0  0  0  0  0
  -26.7085   -2.2611  -11.5574 N   0  0  0  0  0  0  0  0  0  0  0  0
  -28.5753   -3.0621  -10.2592 H   0  0  0  0  0  0  0  0  0  0  0  0
  -27.5860   -2.1717  -12.0483 H   0  0  0  0  0  0  0  0  0  0  0  0
  -27.7792   -0.0253   -5.4332 C   0  0  0  0  0  0  0  0  0  0  0  0
  -28.1801   -1.2670   -6.1736 C   0  0  0  0  0  0  0  0  0  0  0  0
  -28.8143   -2.3106   -5.4913 C   0  0  0  0  0  0  0  0  0  0  0  0
  -29.2202   -3.4451   -6.1820 C   0  0  0  0  0  0  0  0  0  0  0  0
  -28.9793   -3.5559   -7.5488 C   0  0  0  0  0  0  0  0  0  0  0  0
  -29.5301   -4.6128   -8.1566 F   0  0  0  0  0  0  0  0  0  0  0  0
  -28.2828   -2.5614   -8.2521 C   0  0  0  0  0  0  0  0  0  0  0  0
  -27.9182   -1.3986   -7.5533 C   0  0  0  0  0  0  0  0  0  0  0  0
  -22.0996   -0.6622  -14.2982 O   0  0  0  0  0  0  0  0  0  0  0  0
  -21.6998    0.6564  -14.3489 C   0  0  0  0  0  0  0  0  0  0  0  0
  -22.4976    1.7233  -13.9472 C   0  0  0  0  0  0  0  0  0  0  0  0
  -21.9869    3.0010  -14.0768 C   0  0  0  0  0  0  0  0  0  0  0  0
  -20.7411    3.2722  -14.5197 N   0  0  0  0  0  0  0  0  0  0  0  0
  -19.9593    2.2128  -14.8469 C   0  0  0  0  0  0  0  0  0  0  0  0
  -20.3961    0.8973  -14.7755 C   0  0  0  0  0  0  0  0  0  0  0  0
  -18.6118    2.5783  -15.2768 C   0  0  0  0  0  0  0  0  0  0  0  0
  -17.4936    1.8231  -15.5943 C   0  0  0  0  0  0  0  0  0  0  0  0
  -16.4426    2.7117  -15.9385 C   0  0  0  0  0  0  0  0  0  0  0  0
  -16.9352    3.9903  -15.8282 C   0  0  0  0  0  0  0  0  0  0  0  0
  -18.2445    3.8993  -15.4337 N   0  0  0  0  0  0  0  0  0  0  0  0
  -18.8799    4.6708  -15.2671 H   0  0  0  0  0  0  0  0  0  0  0  0
 13 14  1  0  0  0
 14 15  1  0  0  0
 14 20  2  0  0  0
 15 16  2  0  0  0
 16 17  1  0  0  0
 17 18  1  0  0  0
 17 19  2  0  0  0
 19  7  1  0  0  0
 19 20  1  0  0  0
  7  8  1  0  0  0
  7 11  1  0  0  0
  8  9  2  0  0  0
  8 10  1  0  0  0
 10  1  1  0  0  0
 10 12  1  0  0  0
  1  2  1  0  0  0
  1  6  2  0  0  0
  2  3  2  0  0  0
  3  4  1  0  0  0
  4 21  1  0  0  0
  4  5  2  0  0  0
 21 22  1  0  0  0
 22 23  1  0  0  0
 22 27  2  0  0  0
 23 24  2  0  0  0
 24 25  1  0  0  0
 25 26  2  0  0  0
 26 28  1  0  0  0
 26 27  1  0  0  0
 28 29  2  0  0  0
 28 32  1  0  0  0
 29 30  1  0  0  0
 30 31  2  0  0  0
 31 32  1  0  0  0
 32 33  1  0  0  0
  5  6  1  0  0  0
M  END
> <minimizedAffinity>
-12.01029

$$$$
