CHEMBL1277162


 33 36  0  0  0  0  0  0  0  0999 V2000
  -28.2603   -3.0023   -5.9787 C   0  0  0  0  0  0  0  0  0  0  0  0
  -28.6374   -3.8475   -7.0165 C   0  0  0  0  0  0  0  0  0  0  0  0
  -28.5211   -3.4309   -8.3419 C   0  0  0  0  0  0  0  0  0  0  0  0
  -28.0899   -2.1433   -8.6628 C   0  0  0  0  0  0  0  0  0  0  0  0
  -27.8275   -1.2552   -7.6103 C   0  0  0  0  0  0  0  0  0  0  0  0
  -27.9144   -1.6858   -6.2721 C   0  0  0  0  0  0  0  0  0  0  0  0
  -27.8666   -1.7211   -9.9980 N   0  0  0  0  0  0  0  0  0  0  0  0
  -26.6259   -1.5842  -10.6015 C   0  0  0  0  0  0  0  0  0  0  0  0
  -25.5622   -1.9293  -10.1069 O   0  0  0  0  0  0  0  0  0  0  0  0
  -26.7043   -0.9439  -11.8338 N   0  0  0  0  0  0  0  0  0  0  0  0
  -28.6768   -1.5509  -10.5735 H   0  0  0  0  0  0  0  0  0  0  0  0
  -27.4121   -0.2267  -11.8921 H   0  0  0  0  0  0  0  0  0  0  0  0
  -25.5202   -0.7169  -12.5808 C   0  0  0  0  0  0  0  0  0  0  0  0
  -24.5422    0.1819  -12.1361 C   0  0  0  0  0  0  0  0  0  0  0  0
  -23.4325    0.4749  -12.9289 C   0  0  0  0  0  0  0  0  0  0  0  0
  -23.2950   -0.1300  -14.1749 C   0  0  0  0  0  0  0  0  0  0  0  0
  -24.2518   -1.0472  -14.6126 C   0  0  0  0  0  0  0  0  0  0  0  0
  -25.3519   -1.3614  -13.8074 C   0  0  0  0  0  0  0  0  0  0  0  0
  -28.2370   -3.4243   -4.6648 O   0  0  0  0  0  0  0  0  0  0  0  0
  -28.9762   -8.4203   -4.0697 C   0  0  0  0  0  0  0  0  0  0  0  0
  -30.1058   -7.7134   -3.6251 C   0  0  0  0  0  0  0  0  0  0  0  0
  -30.1975   -6.3337   -3.6971 C   0  0  0  0  0  0  0  0  0  0  0  0
  -31.3618   -5.7647   -3.3690 N   0  0  0  0  0  0  0  0  0  0  0  0
  -31.4575   -4.4442   -3.5428 C   0  0  0  0  0  0  0  0  0  0  0  0
  -30.4903   -3.6462   -3.9912 N   0  0  0  0  0  0  0  0  0  0  0  0
  -29.2994   -4.2328   -4.2398 C   0  0  0  0  0  0  0  0  0  0  0  0
  -29.0891   -5.6108   -4.1409 C   0  0  0  0  0  0  0  0  0  0  0  0
  -27.8973   -6.2987   -4.4608 C   0  0  0  0  0  0  0  0  0  0  0  0
  -27.8375   -7.7007   -4.4526 C   0  0  0  0  0  0  0  0  0  0  0  0
  -29.3470  -10.3605   -5.3832 C   0  0  0  0  0  0  0  0  0  0  0  0
  -28.9791   -9.7904   -4.1229 O   0  0  0  0  0  0  0  0  0  0  0  0
  -26.6195   -8.1570   -4.8712 O   0  0  0  0  0  0  0  0  0  0  0  0
  -25.7665   -8.8356   -3.9644 C   0  0  0  0  0  0  0  0  0  0  0  0
 30 31  1  0  0  0
 31 20  1  0  0  0
 20 21  1  0  0  0
 20 29  2  0  0  0
 21 22  2  0  0  0
 22 23  1  0  0  0
 22 27  1  0  0  0
 23 24  2  0  0  0
 24 25  1  0  0  0
 25 26  2  0  0  0
 26 19  1  0  0  0
 26 27  1  0  0  0
 19  1  1  0  0  0
  1  2  1  0  0  0
  1  6  2  0  0  0
  2  3  2  0  0  0
  3  4  1  0  0  0
  4  7  1  0  0  0
  4  5  2  0  0  0
  7  8  1  0  0  0
  7 11  1  0  0  0
  8  9  2  0  0  0
  8 10  1  0  0  0
 10 13  1  0  0  0
 10 12  1  0  0  0
 13 14  1  0  0  0
 13 18  2  0  0  0
 14 15  2  0  0  0
 15 16  1  0  0  0
 16 17  2  0  0  0
 17 18  1  0  0  0
  5  6  1  0  0  0
 27 28  2  0  0  0
 28 29  1  0  0  0
 29 32  1  0  0  0
 32 33  1  0  0  0
M  END
> <minimizedAffinity>
-8.89354

$$$$
