CHEMBL3918036


 33 37  0  0  0  0  0  0  0  0999 V2000
  -29.5964   -3.1164   -6.4000 N   0  0  0  0  0  0  0  0  0  0  0  0
  -28.6046   -2.7270   -7.3789 C   0  0  0  0  0  0  0  0  0  0  0  0
  -28.2990   -1.3913   -7.3541 C   0  0  0  0  0  0  0  0  0  0  0  0
  -27.6107   -0.8762   -8.3806 C   0  0  0  0  0  0  0  0  0  0  0  0
  -27.3232   -1.5684   -9.5156 C   0  0  0  0  0  0  0  0  0  0  0  0
  -27.5978   -0.7164  -10.4232 N   0  0  0  0  0  0  0  0  0  0  0  0
  -26.5718   -0.4371  -11.2101 C   0  0  0  0  0  0  0  0  0  0  0  0
  -25.7162   -1.3945  -11.6411 C   0  0  0  0  0  0  0  0  0  0  0  0
  -25.9641   -2.6970  -11.0381 N   0  0  0  0  0  0  0  0  0  0  0  0
  -26.9498   -2.8522   -9.7320 C   0  0  0  0  0  0  0  0  0  0  0  0
  -27.8764   -3.4859   -8.4552 C   0  0  0  0  0  0  0  0  0  0  0  0
  -24.7615   -0.5910  -12.6309 C   0  0  0  0  0  0  0  0  0  0  0  0
  -24.5782   -0.9916  -14.0489 C   0  0  0  0  0  0  0  0  0  0  0  0
  -23.6124   -0.3916  -14.7285 N   0  0  0  0  0  0  0  0  0  0  0  0
  -23.1097    0.4666  -13.8428 N   0  0  0  0  0  0  0  0  0  0  0  0
  -22.0476    1.3328  -14.3415 C   0  0  0  0  0  0  0  0  0  0  0  0
  -23.7323    0.3637  -12.5780 C   0  0  0  0  0  0  0  0  0  0  0  0
  -30.4304   -6.7675   -6.8431 C   0  0  0  0  0  0  0  0  0  0  0  0
  -30.9374   -7.0481   -5.5848 C   0  0  0  0  0  0  0  0  0  0  0  0
  -31.2046   -6.0144   -4.6878 C   0  0  0  0  0  0  0  0  0  0  0  0
  -30.8691   -4.6882   -5.0043 C   0  0  0  0  0  0  0  0  0  0  0  0
  -30.2466   -4.3757   -6.2075 C   0  0  0  0  0  0  0  0  0  0  0  0
  -30.2490   -5.4141   -7.1785 C   0  0  0  0  0  0  0  0  0  0  0  0
  -31.7492   -6.1958   -3.4444 O   0  0  0  0  0  0  0  0  0  0  0  0
  -32.2000   -5.0012   -2.8135 C   0  0  0  0  0  0  0  0  0  0  0  0
  -30.0962   -7.9243   -7.7618 C   0  0  0  0  0  0  0  0  0  0  0  0
  -28.7287   -7.9183   -8.1799 O   0  0  0  0  0  0  0  0  0  0  0  0
  -29.7380   -9.7222   -9.3938 C   0  0  0  0  0  0  0  0  0  0  0  0
  -28.4621   -8.9638   -9.1076 C   0  0  0  0  0  0  0  0  0  0  0  0
  -29.7835   -2.1313   -5.2493 C   0  0  0  0  0  0  0  0  0  0  0  0
  -28.6664   -2.1791   -4.2209 C   0  0  0  0  0  0  0  0  0  0  0  0
  -27.9198   -3.4142   -3.7694 C   0  0  0  0  0  0  0  0  0  0  0  0
  -28.9389   -2.7947   -2.8557 C   0  0  0  0  0  0  0  0  0  0  0  0
 28 29  1  0  0  0
 29 27  1  0  0  0
 27 26  1  0  0  0
 26 18  1  0  0  0
 18 19  1  0  0  0
 18 23  2  0  0  0
 19 20  2  0  0  0
 20 24  1  0  0  0
 20 21  1  0  0  0
 24 25  1  0  0  0
 21 22  2  0  0  0
 22  1  1  0  0  0
 22 23  1  0  0  0
  1 30  1  0  0  0
  1  2  1  0  0  0
 30 31  1  0  0  0
 31 32  1  0  0  0
 31 33  1  0  0  0
 32 33  1  0  0  0
  2  3  1  0  0  0
  2 11  2  0  0  0
  3  4  2  0  0  0
  4  5  1  0  0  0
  5  6  1  0  0  0
  5 10  2  0  0  0
  6  7  2  0  0  0
  7  8  1  0  0  0
  8 12  1  0  0  0
  8  9  2  0  0  0
 12 13  1  0  0  0
 12 17  2  0  0  0
 13 14  2  0  0  0
 14 15  1  0  0  0
 15 16  1  0  0  0
 15 17  1  0  0  0
  9 10  1  0  0  0
 10 11  1  0  0  0
M  END
> <minimizedAffinity>
-6.69811

$$$$
