CHEMBL3944702


 34 37  0  0  0  0  0  0  0  0999 V2000
  -29.4856   -6.2206   -5.2076 C   0  0  0  0  0  0  0  0  0  0  0  0
  -29.7108   -6.1013   -3.8800 N   0  0  0  0  0  0  0  0  0  0  0  0
  -29.4593   -7.1630   -3.1213 C   0  0  0  0  0  0  0  0  0  0  0  0
  -29.0131   -8.3430   -3.5548 N   0  0  0  0  0  0  0  0  0  0  0  0
  -28.7893   -8.4498   -4.8681 C   0  0  0  0  0  0  0  0  0  0  0  0
  -28.2817   -9.6570   -5.3110 C   0  0  0  0  0  0  0  0  0  0  0  0
  -27.8943   -9.8899   -6.6418 C   0  0  0  0  0  0  0  0  0  0  0  0
  -28.1479   -8.8872   -7.5803 C   0  0  0  0  0  0  0  0  0  0  0  0
  -28.6842   -7.6608   -7.1529 C   0  0  0  0  0  0  0  0  0  0  0  0
  -28.9996   -7.4195   -5.7807 C   0  0  0  0  0  0  0  0  0  0  0  0
  -29.8714   -5.1413   -6.0323 N   0  0  0  0  0  0  0  0  0  0  0  0
  -29.9516   -5.4240   -7.0040 H   0  0  0  0  0  0  0  0  0  0  0  0
  -28.0107   -2.0722   -7.1271 C   0  0  0  0  0  0  0  0  0  0  0  0
  -28.4182   -3.4074   -7.0173 C   0  0  0  0  0  0  0  0  0  0  0  0
  -29.3235   -3.8275   -6.0282 C   0  0  0  0  0  0  0  0  0  0  0  0
  -29.8547   -2.8665   -5.1468 C   0  0  0  0  0  0  0  0  0  0  0  0
  -29.4432   -1.5363   -5.2430 C   0  0  0  0  0  0  0  0  0  0  0  0
  -28.5460   -1.1317   -6.2413 C   0  0  0  0  0  0  0  0  0  0  0  0
  -28.2674    0.5718   -6.3503 Cl  0  0  0  0  0  0  0  0  0  0  0  0
  -27.7394   -2.1150   -9.4882 C   0  0  0  0  0  0  0  0  0  0  0  0
  -27.1964   -1.8355   -8.2039 O   0  0  0  0  0  0  0  0  0  0  0  0
  -30.7659   -3.3305   -4.2286 O   0  0  0  0  0  0  0  0  0  0  0  0
  -30.5991   -2.9021   -2.8831 C   0  0  0  0  0  0  0  0  0  0  0  0
  -27.7729   -8.9386   -8.8972 O   0  0  0  0  0  0  0  0  0  0  0  0
  -28.7701   -9.4914   -9.7521 C   0  0  0  0  0  0  0  0  0  0  0  0
  -27.2192  -11.0352   -7.0272 O   0  0  0  0  0  0  0  0  0  0  0  0
  -26.0563  -11.3055   -6.2254 C   0  0  0  0  0  0  0  0  0  0  0  0
  -24.8923  -10.3224   -6.4046 C   0  0  0  0  0  0  0  0  0  0  0  0
  -23.5666  -10.9870   -6.8194 C   0  0  0  0  0  0  0  0  0  0  0  0
  -23.0367  -11.8663   -5.7540 N   0  0  0  0  0  0  0  0  0  0  0  0
  -21.7686  -12.4659   -6.1618 C   0  0  0  0  0  0  0  0  0  0  0  0
  -22.8682  -11.0768   -4.5167 C   0  0  0  0  0  0  0  0  0  0  0  0
  -24.1738  -10.3749   -4.1148 C   0  0  0  0  0  0  0  0  0  0  0  0
  -24.6926   -9.5637   -5.1826 O   0  0  0  0  0  0  0  0  0  0  0  0
 20 21  1  0  0  0
 21 13  1  0  0  0
 13 14  1  0  0  0
 13 18  2  0  0  0
 14 15  2  0  0  0
 15 11  1  0  0  0
 15 16  1  0  0  0
 11  1  1  0  0  0
 11 12  1  0  0  0
  1  2  1  0  0  0
  1 10  2  0  0  0
  2  3  2  0  0  0
  3  4  1  0  0  0
  4  5  2  0  0  0
  5  6  1  0  0  0
  5 10  1  0  0  0
  6  7  2  0  0  0
  7 26  1  0  0  0
  7  8  1  0  0  0
 26 27  1  0  0  0
 27 28  1  0  0  0
 28 29  1  0  0  0
 28 34  1  0  0  0
 29 30  1  0  0  0
 30 31  1  0  0  0
 30 32  1  0  0  0
 32 33  1  0  0  0
 33 34  1  0  0  0
  8 24  1  0  0  0
  8  9  2  0  0  0
 24 25  1  0  0  0
  9 10  1  0  0  0
 16 22  1  0  0  0
 16 17  2  0  0  0
 22 23  1  0  0  0
 17 18  1  0  0  0
 18 19  1  0  0  0
M  END
> <minimizedAffinity>
-7.71439

$$$$
