CHEMBL3917908


 40 44  0  0  0  0  0  0  0  0999 V2000
  -28.5053   -3.1073   -8.2204 C   0  0  0  0  0  0  0  0  0  0  0  0
  -29.7382   -2.8555   -7.6081 C   0  0  0  0  0  0  0  0  0  0  0  0
  -30.3326   -3.7313   -6.7558 C   0  0  0  0  0  0  0  0  0  0  0  0
  -29.7768   -4.9494   -6.4950 C   0  0  0  0  0  0  0  0  0  0  0  0
  -30.3783   -5.6754   -5.5438 N   0  0  0  0  0  0  0  0  0  0  0  0
  -30.0102   -6.9186   -5.2565 C   0  0  0  0  0  0  0  0  0  0  0  0
  -29.0300   -7.5413   -6.0341 C   0  0  0  0  0  0  0  0  0  0  0  0
  -28.2827   -6.7752   -6.9329 N   0  0  0  0  0  0  0  0  0  0  0  0
  -28.6405   -5.4267   -7.1784 C   0  0  0  0  0  0  0  0  0  0  0  0
  -27.9548   -4.4653   -8.0657 C   0  0  0  0  0  0  0  0  0  0  0  0
  -29.1086   -9.0645   -5.9031 C   0  0  0  0  0  0  0  0  0  0  0  0
  -29.0127   -9.9627   -4.8489 C   0  0  0  0  0  0  0  0  0  0  0  0
  -28.9048  -11.2263   -5.3514 N   0  0  0  0  0  0  0  0  0  0  0  0
  -28.9432  -11.1786   -6.6797 N   0  0  0  0  0  0  0  0  0  0  0  0
  -29.1021   -9.8964   -7.0417 C   0  0  0  0  0  0  0  0  0  0  0  0
  -28.5984  -12.3287   -7.5785 C   0  0  0  0  0  0  0  0  0  0  0  0
  -27.1050  -12.4657   -7.9922 C   0  0  0  0  0  0  0  0  0  0  0  0
  -26.6833  -11.3803   -8.9980 C   0  0  0  0  0  0  0  0  0  0  0  0
  -27.5713  -11.3494  -10.1838 N   0  0  0  0  0  0  0  0  0  0  0  0
  -27.2179  -10.1884  -11.0207 C   0  0  0  0  0  0  0  0  0  0  0  0
  -29.0041  -11.2591   -9.8240 C   0  0  0  0  0  0  0  0  0  0  0  0
  -29.4197  -12.3776   -8.8686 C   0  0  0  0  0  0  0  0  0  0  0  0
  -27.8607   -1.9048   -8.7888 N   0  0  0  0  0  0  0  0  0  0  0  0
  -25.0617   -1.6143  -11.3867 C   0  0  0  0  0  0  0  0  0  0  0  0
  -25.8146   -1.7989  -12.5649 C   0  0  0  0  0  0  0  0  0  0  0  0
  -27.2003   -1.9650  -12.5036 C   0  0  0  0  0  0  0  0  0  0  0  0
  -27.8306   -1.9588  -11.2637 C   0  0  0  0  0  0  0  0  0  0  0  0
  -27.1384   -1.7557  -10.0437 C   0  0  0  0  0  0  0  0  0  0  0  0
  -25.7292   -1.5751  -10.1265 C   0  0  0  0  0  0  0  0  0  0  0  0
  -22.9896   -0.4947  -12.0764 C   0  0  0  0  0  0  0  0  0  0  0  0
  -23.7002   -1.5085  -11.4402 O   0  0  0  0  0  0  0  0  0  0  0  0
  -27.9725   -2.1487  -13.6087 O   0  0  0  0  0  0  0  0  0  0  0  0
  -27.7548   -1.6104  -14.8601 C   0  0  0  0  0  0  0  0  0  0  0  0
  -27.9384   -0.6770   -7.9225 C   0  0  0  0  0  0  0  0  0  0  0  0
  -27.4348   -0.8991   -6.4619 C   0  0  0  0  0  0  0  0  0  0  0  0
  -27.6256    0.3113   -5.6159 N   0  0  0  0  0  0  0  0  0  0  0  0
  -27.6664    1.1450   -6.2480 H   0  0  0  0  0  0  0  0  0  0  0  0
  -28.8861    0.2923   -4.8256 C   0  0  0  0  0  0  0  0  0  0  0  0
  -30.0588    0.9372   -5.5835 C   0  0  0  0  0  0  0  0  0  0  0  0
  -29.2971   -1.1523   -4.4606 C   0  0  0  0  0  0  0  0  0  0  0  0
 30 31  1  0  0  0
 31 24  1  0  0  0
 24 25  1  0  0  0
 24 29  2  0  0  0
 25 26  2  0  0  0
 26 32  1  0  0  0
 26 27  1  0  0  0
 32 33  1  0  0  0
 27 28  2  0  0  0
 28 23  1  0  0  0
 28 29  1  0  0  0
 23 34  1  0  0  0
 23  1  1  0  0  0
 34 35  1  0  0  0
 35 36  1  0  0  0
 36 38  1  0  0  0
 36 37  1  0  0  0
 38 39  1  0  0  0
 38 40  1  0  0  0
  1  2  1  0  0  0
  1 10  2  0  0  0
  2  3  2  0  0  0
  3  4  1  0  0  0
  4  5  1  0  0  0
  4  9  2  0  0  0
  5  6  2  0  0  0
  6  7  1  0  0  0
  7 11  1  0  0  0
  7  8  2  0  0  0
 11 12  1  0  0  0
 11 15  2  0  0  0
 12 13  2  0  0  0
 13 14  1  0  0  0
 14 16  1  0  0  0
 14 15  1  0  0  0
 16 17  1  0  0  0
 16 22  1  0  0  0
 17 18  1  0  0  0
 18 19  1  0  0  0
 19 20  1  0  0  0
 19 21  1  0  0  0
 21 22  1  0  0  0
  8  9  1  0  0  0
  9 10  1  0  0  0
M  END
> <minimizedAffinity>
-7.36889

$$$$
