CHEMBL505637


 58 61  0  0  0  0  0  0  0  0999 V2000
  -12.4339   -3.6938  -15.4378 C   0  0  0  0  0  0  0  0  0  0  0  0
  -13.3119   -3.3955  -14.3940 C   0  0  0  0  0  0  0  0  0  0  0  0
  -14.0092   -2.1885  -14.3924 C   0  0  0  0  0  0  0  0  0  0  0  0
  -15.2707   -1.8645  -13.0089 Br  0  0  0  0  0  0  0  0  0  0  0  0
  -13.8268   -1.2519  -15.4209 C   0  0  0  0  0  0  0  0  0  0  0  0
  -14.5488   -0.0804  -15.3947 O   0  0  0  0  0  0  0  0  0  0  0  0
  -12.9389   -1.4987  -16.4870 C   0  0  0  0  0  0  0  0  0  0  0  0
  -12.2454   -2.7346  -16.4563 C   0  0  0  0  0  0  0  0  0  0  0  0
  -15.2194   -0.1617  -14.6943 H   0  0  0  0  0  0  0  0  0  0  0  0
  -12.7904   -0.5617  -17.6454 C   0  0  0  0  0  0  0  0  0  0  0  0
  -12.6098    0.8238  -17.4130 C   0  0  0  0  0  0  0  0  0  0  0  0
  -12.4938    1.7755  -18.4422 C   0  0  0  0  0  0  0  0  0  0  0  0
  -12.5594    1.3339  -19.7639 C   0  0  0  0  0  0  0  0  0  0  0  0
  -12.7465   -0.0248  -20.0338 C   0  0  0  0  0  0  0  0  0  0  0  0
  -12.8698   -0.5783  -21.8469 Br  0  0  0  0  0  0  0  0  0  0  0  0
  -12.8572   -0.9632  -18.9925 C   0  0  0  0  0  0  0  0  0  0  0  0
  -13.0244   -2.2945  -19.2895 O   0  0  0  0  0  0  0  0  0  0  0  0
  -13.0771   -2.3843  -20.2575 H   0  0  0  0  0  0  0  0  0  0  0  0
  -12.3682    3.2428  -18.1013 C   0  0  0  0  0  0  0  0  0  0  0  0
  -13.6862    3.9776  -17.9232 C   0  0  0  0  0  0  0  0  0  0  0  0
  -14.0756    4.7981  -18.8660 N   0  0  0  0  0  0  0  0  0  0  0  0
  -15.2576    5.4864  -18.5883 O   0  0  0  0  0  0  0  0  0  0  0  0
  -15.3853    6.0144  -19.4020 H   0  0  0  0  0  0  0  0  0  0  0  0
  -14.4237    3.7002  -16.6093 C   0  0  0  0  0  0  0  0  0  0  0  0
  -13.8563    3.9073  -15.5448 O   0  0  0  0  0  0  0  0  0  0  0  0
  -15.7046    3.2094  -16.7230 N   0  0  0  0  0  0  0  0  0  0  0  0
  -16.1215    3.3489  -17.6409 H   0  0  0  0  0  0  0  0  0  0  0  0
  -16.5465    2.9923  -15.5639 C   0  0  0  0  0  0  0  0  0  0  0  0
  -17.5122    1.8184  -15.7633 C   0  0  0  0  0  0  0  0  0  0  0  0
  -18.9030    2.1147  -15.2524 C   0  0  0  0  0  0  0  0  0  0  0  0
  -19.3588    3.4373  -15.1575 C   0  0  0  0  0  0  0  0  0  0  0  0
  -20.6643    3.7156  -14.7435 C   0  0  0  0  0  0  0  0  0  0  0  0
  -21.5254    2.6694  -14.4120 C   0  0  0  0  0  0  0  0  0  0  0  0
  -22.8114    2.9446  -14.0408 O   0  0  0  0  0  0  0  0  0  0  0  0
  -21.0739    1.3509  -14.4658 C   0  0  0  0  0  0  0  0  0  0  0  0
  -22.2079   -0.1011  -14.0134 Br  0  0  0  0  0  0  0  0  0  0  0  0
  -19.7661    1.0734  -14.8783 C   0  0  0  0  0  0  0  0  0  0  0  0
  -22.9771    3.8962  -14.1369 H   0  0  0  0  0  0  0  0  0  0  0  0
  -11.7893   -5.0607  -15.5376 C   0  0  0  0  0  0  0  0  0  0  0  0
  -12.7281   -6.2546  -15.4694 C   0  0  0  0  0  0  0  0  0  0  0  0
  -13.6223   -6.3724  -16.4187 N   0  0  0  0  0  0  0  0  0  0  0  0
  -14.4106   -7.5204  -16.3539 O   0  0  0  0  0  0  0  0  0  0  0  0
  -14.9990   -7.4113  -17.1281 H   0  0  0  0  0  0  0  0  0  0  0  0
  -12.6647   -8.4329  -14.4944 O   0  0  0  0  0  0  0  0  0  0  0  0
  -12.4787   -7.2321  -14.3125 C   0  0  0  0  0  0  0  0  0  0  0  0
  -12.0877   -6.7045  -13.1054 N   0  0  0  0  0  0  0  0  0  0  0  0
  -12.0507   -5.6896  -13.0478 H   0  0  0  0  0  0  0  0  0  0  0  0
  -11.8109   -7.5435  -11.9570 C   0  0  0  0  0  0  0  0  0  0  0  0
  -11.5596   -6.7481  -10.6759 C   0  0  0  0  0  0  0  0  0  0  0  0
  -12.6559   -5.7377  -10.4374 C   0  0  0  0  0  0  0  0  0  0  0  0
  -12.4660   -4.7018   -9.5106 C   0  0  0  0  0  0  0  0  0  0  0  0
  -13.4848   -3.7862   -9.2437 C   0  0  0  0  0  0  0  0  0  0  0  0
  -14.7103   -3.9024   -9.9009 C   0  0  0  0  0  0  0  0  0  0  0  0
  -15.7100   -3.0107   -9.6331 O   0  0  0  0  0  0  0  0  0  0  0  0
  -14.9156   -4.9306  -10.8225 C   0  0  0  0  0  0  0  0  0  0  0  0
  -16.5696   -5.1327  -11.7281 Br  0  0  0  0  0  0  0  0  0  0  0  0
  -13.8922   -5.8476  -11.0910 C   0  0  0  0  0  0  0  0  0  0  0  0
  -15.4001   -2.3720   -8.9661 H   0  0  0  0  0  0  0  0  0  0  0  0
 44 45  2  0  0  0
 45 46  1  0  0  0
 45 40  1  0  0  0
 46 48  1  0  0  0
 46 47  1  0  0  0
 48 49  1  0  0  0
 49 50  1  0  0  0
 50 51  1  0  0  0
 50 57  2  0  0  0
 51 52  2  0  0  0
 52 53  1  0  0  0
 53 54  1  0  0  0
 53 55  2  0  0  0
 54 58  1  0  0  0
 55 56  1  0  0  0
 55 57  1  0  0  0
 40 39  1  0  0  0
 40 41  2  0  0  0
 39  1  1  0  0  0
  1  2  1  0  0  0
  1  8  2  0  0  0
  2  3  2  0  0  0
  3  4  1  0  0  0
  3  5  1  0  0  0
  5  6  1  0  0  0
  5  7  2  0  0  0
  6  9  1  0  0  0
  7 10  1  0  0  0
  7  8  1  0  0  0
 10 11  1  0  0  0
 10 16  2  0  0  0
 11 12  2  0  0  0
 12 19  1  0  0  0
 12 13  1  0  0  0
 19 20  1  0  0  0
 20 21  2  0  0  0
 20 24  1  0  0  0
 21 22  1  0  0  0
 22 23  1  0  0  0
 24 25  2  0  0  0
 24 26  1  0  0  0
 26 28  1  0  0  0
 26 27  1  0  0  0
 28 29  1  0  0  0
 29 30  1  0  0  0
 30 31  1  0  0  0
 30 37  2  0  0  0
 31 32  2  0  0  0
 32 33  1  0  0  0
 33 34  1  0  0  0
 33 35  2  0  0  0
 34 38  1  0  0  0
 35 36  1  0  0  0
 35 37  1  0  0  0
 13 14  2  0  0  0
 14 15  1  0  0  0
 14 16  1  0  0  0
 16 17  1  0  0  0
 17 18  1  0  0  0
 41 42  1  0  0  0
 42 43  1  0  0  0
M  END
> <minimizedAffinity>
-9.24215

$$$$
