CHEMBL3759830


 43 47  0  0  0  0  0  0  0  0999 V2000
  -21.3452    1.3606  -14.4464 C   0  0  0  0  0  0  0  0  0  0  0  0
  -22.2357    2.3670  -14.5302 N   0  0  0  0  0  0  0  0  0  0  0  0
  -21.7889    3.5782  -14.8568 C   0  0  0  0  0  0  0  0  0  0  0  0
  -20.5206    3.8949  -15.0927 N   0  0  0  0  0  0  0  0  0  0  0  0
  -19.6449    2.8943  -15.0356 C   0  0  0  0  0  0  0  0  0  0  0  0
  -18.3420    3.1982  -15.3673 C   0  0  0  0  0  0  0  0  0  0  0  0
  -17.3313    2.2291  -15.4684 C   0  0  0  0  0  0  0  0  0  0  0  0
  -17.6294    0.9123  -15.1054 C   0  0  0  0  0  0  0  0  0  0  0  0
  -18.9440    0.6005  -14.7233 C   0  0  0  0  0  0  0  0  0  0  0  0
  -19.9773    1.5767  -14.7157 C   0  0  0  0  0  0  0  0  0  0  0  0
  -21.8071    0.0403  -14.2131 N   0  0  0  0  0  0  0  0  0  0  0  0
  -21.0948   -0.6524  -14.4005 H   0  0  0  0  0  0  0  0  0  0  0  0
  -24.6137   -1.2699  -11.3117 C   0  0  0  0  0  0  0  0  0  0  0  0
  -23.8431   -2.1946  -12.0062 C   0  0  0  0  0  0  0  0  0  0  0  0
  -22.9443   -1.7850  -12.9880 C   0  0  0  0  0  0  0  0  0  0  0  0
  -22.8106   -0.4439  -13.3478 C   0  0  0  0  0  0  0  0  0  0  0  0
  -23.6306    0.4797  -12.6784 C   0  0  0  0  0  0  0  0  0  0  0  0
  -24.5352    0.0741  -11.6817 C   0  0  0  0  0  0  0  0  0  0  0  0
  -26.8364   -1.7335  -10.3157 C   0  0  0  0  0  0  0  0  0  0  0  0
  -27.5256   -1.5817  -11.3209 O   0  0  0  0  0  0  0  0  0  0  0  0
  -25.4549   -1.6397  -10.2391 N   0  0  0  0  0  0  0  0  0  0  0  0
  -25.0029   -2.0186   -9.4172 H   0  0  0  0  0  0  0  0  0  0  0  0
  -28.7852   -2.7615   -6.6355 C   0  0  0  0  0  0  0  0  0  0  0  0
  -28.2938   -1.4749   -6.8494 C   0  0  0  0  0  0  0  0  0  0  0  0
  -27.6727   -1.1602   -8.0591 C   0  0  0  0  0  0  0  0  0  0  0  0
  -27.5428   -2.1263   -9.0687 C   0  0  0  0  0  0  0  0  0  0  0  0
  -28.0186   -3.4203   -8.8494 C   0  0  0  0  0  0  0  0  0  0  0  0
  -28.6400   -3.7294   -7.6354 C   0  0  0  0  0  0  0  0  0  0  0  0
  -30.3757   -4.2327   -5.6630 C   0  0  0  0  0  0  0  0  0  0  0  0
  -29.4111   -3.1989   -5.5006 O   0  0  0  0  0  0  0  0  0  0  0  0
  -16.8026   -0.1790  -15.0796 O   0  0  0  0  0  0  0  0  0  0  0  0
  -16.0067   -0.4037  -13.9244 C   0  0  0  0  0  0  0  0  0  0  0  0
  -16.0785    2.5347  -15.9415 O   0  0  0  0  0  0  0  0  0  0  0  0
  -15.9936    3.7116  -16.7479 C   0  0  0  0  0  0  0  0  0  0  0  0
  -14.5379    4.0580  -17.0218 C   0  0  0  0  0  0  0  0  0  0  0  0
  -13.6503    2.8147  -16.8754 C   0  0  0  0  0  0  0  0  0  0  0  0
  -12.5217    3.0125  -15.9538 N   0  0  0  0  0  0  0  0  0  0  0  0
  -12.7467    4.1198  -15.0059 C   0  0  0  0  0  0  0  0  0  0  0  0
  -11.5765    4.2902  -14.0123 C   0  0  0  0  0  0  0  0  0  0  0  0
  -11.2425    3.0758  -13.2469 N   0  0  0  0  0  0  0  0  0  0  0  0
  -12.2669    2.7773  -12.2488 C   0  0  0  0  0  0  0  0  0  0  0  0
  -11.0578    1.9557  -14.1920 C   0  0  0  0  0  0  0  0  0  0  0  0
  -12.1981    1.7702  -15.2258 C   0  0  0  0  0  0  0  0  0  0  0  0
 29 30  1  0  0  0
 30 23  1  0  0  0
 23 24  1  0  0  0
 23 28  2  0  0  0
 24 25  2  0  0  0
 25 26  1  0  0  0
 26 19  1  0  0  0
 26 27  2  0  0  0
 19 20  2  0  0  0
 19 21  1  0  0  0
 21 13  1  0  0  0
 21 22  1  0  0  0
 13 14  1  0  0  0
 13 18  2  0  0  0
 14 15  2  0  0  0
 15 16  1  0  0  0
 16 11  1  0  0  0
 16 17  2  0  0  0
 11  1  1  0  0  0
 11 12  1  0  0  0
  1  2  1  0  0  0
  1 10  2  0  0  0
  2  3  2  0  0  0
  3  4  1  0  0  0
  4  5  2  0  0  0
  5  6  1  0  0  0
  5 10  1  0  0  0
  6  7  2  0  0  0
  7 33  1  0  0  0
  7  8  1  0  0  0
 33 34  1  0  0  0
 34 35  1  0  0  0
 35 36  1  0  0  0
 36 37  1  0  0  0
 37 38  1  0  0  0
 37 43  1  0  0  0
 38 39  1  0  0  0
 39 40  1  0  0  0
 40 41  1  0  0  0
 40 42  1  0  0  0
 42 43  1  0  0  0
  8 31  1  0  0  0
  8  9  2  0  0  0
 31 32  1  0  0  0
  9 10  1  0  0  0
 17 18  1  0  0  0
 27 28  1  0  0  0
M  END
> <minimizedAffinity>
-9.46463

$$$$
