CHEMBL1086675


 41 46  0  0  0  0  0  0  0  0999 V2000
  -13.4390    0.2704  -15.2721 C   0  0  0  0  0  0  0  0  0  0  0  0
  -14.6060   -0.0030  -14.5544 C   0  0  0  0  0  0  0  0  0  0  0  0
  -14.6387   -1.0227  -13.5814 C   0  0  0  0  0  0  0  0  0  0  0  0
  -13.5053   -1.7913  -13.2875 C   0  0  0  0  0  0  0  0  0  0  0  0
  -12.3584   -1.5438  -14.0435 C   0  0  0  0  0  0  0  0  0  0  0  0
  -11.2189   -2.2188  -13.8417 F   0  0  0  0  0  0  0  0  0  0  0  0
  -12.3324   -0.5529  -15.0422 C   0  0  0  0  0  0  0  0  0  0  0  0
  -13.8279    1.4149  -17.4711 C   0  0  0  0  0  0  0  0  0  0  0  0
  -14.4454    0.5027  -18.0092 O   0  0  0  0  0  0  0  0  0  0  0  0
  -13.2935    1.3546  -16.1854 N   0  0  0  0  0  0  0  0  0  0  0  0
  -12.9617    2.2278  -15.7953 H   0  0  0  0  0  0  0  0  0  0  0  0
  -14.1145    3.9582  -17.7273 C   0  0  0  0  0  0  0  0  0  0  0  0
  -13.6622    2.7053  -18.1563 C   0  0  0  0  0  0  0  0  0  0  0  0
  -13.1200    2.9663  -19.4312 C   0  0  0  0  0  0  0  0  0  0  0  0
  -13.2452    4.2369  -19.8085 N   0  0  0  0  0  0  0  0  0  0  0  0
  -13.7761    4.8711  -18.7297 N   0  0  0  0  0  0  0  0  0  0  0  0
  -13.9427    6.2877  -18.7667 C   0  0  0  0  0  0  0  0  0  0  0  0
  -13.0156    7.1015  -18.0941 C   0  0  0  0  0  0  0  0  0  0  0  0
  -13.1232    8.4940  -18.1632 C   0  0  0  0  0  0  0  0  0  0  0  0
  -14.1723    9.0820  -18.8696 C   0  0  0  0  0  0  0  0  0  0  0  0
  -15.1107    8.2789  -19.5168 C   0  0  0  0  0  0  0  0  0  0  0  0
  -14.9956    6.8857  -19.4709 C   0  0  0  0  0  0  0  0  0  0  0  0
  -14.8991    4.3158  -16.4941 C   0  0  0  0  0  0  0  0  0  0  0  0
  -16.8036    2.7913  -15.8426 C   0  0  0  0  0  0  0  0  0  0  0  0
  -16.3979    4.0244  -16.6324 C   0  0  0  0  0  0  0  0  0  0  0  0
  -13.6796   -2.6818  -12.2433 O   0  0  0  0  0  0  0  0  0  0  0  0
  -14.6861   -3.6243  -12.2620 C   0  0  0  0  0  0  0  0  0  0  0  0
  -15.7185   -3.6039  -11.3244 C   0  0  0  0  0  0  0  0  0  0  0  0
  -16.6963   -4.5802  -11.3769 C   0  0  0  0  0  0  0  0  0  0  0  0
  -16.7221   -5.6009  -12.2522 N   0  0  0  0  0  0  0  0  0  0  0  0
  -15.6665   -5.6815  -13.1050 C   0  0  0  0  0  0  0  0  0  0  0  0
  -15.5020   -6.6953  -14.0930 C   0  0  0  0  0  0  0  0  0  0  0  0
  -14.3154   -6.5746  -14.7780 C   0  0  0  0  0  0  0  0  0  0  0  0
  -13.4074   -5.2320  -14.2388 S   0  0  0  0  0  0  0  0  0  0  0  0
  -14.6241   -4.7485  -13.1158 C   0  0  0  0  0  0  0  0  0  0  0  0
  -13.9133   -7.5050  -15.8760 C   0  0  0  0  0  0  0  0  0  0  0  0
  -13.3208   -8.7398  -15.7252 C   0  0  0  0  0  0  0  0  0  0  0  0
  -13.0808   -9.1758  -16.9980 N   0  0  0  0  0  0  0  0  0  0  0  0
  -12.4426  -10.4113  -17.3730 C   0  0  0  0  0  0  0  0  0  0  0  0
  -13.5341   -8.2215  -17.8606 C   0  0  0  0  0  0  0  0  0  0  0  0
  -14.0717   -7.2107  -17.2128 N   0  0  0  0  0  0  0  0  0  0  0  0
 24 25  1  0  0  0
 25 23  1  0  0  0
 23 12  1  0  0  0
 12 13  2  0  0  0
 12 16  1  0  0  0
 13  8  1  0  0  0
 13 14  1  0  0  0
  8  9  2  0  0  0
  8 10  1  0  0  0
 10  1  1  0  0  0
 10 11  1  0  0  0
  1  2  1  0  0  0
  1  7  2  0  0  0
  2  3  2  0  0  0
  3  4  1  0  0  0
  4 26  1  0  0  0
  4  5  2  0  0  0
 26 27  1  0  0  0
 27 28  1  0  0  0
 27 35  2  0  0  0
 28 29  2  0  0  0
 29 30  1  0  0  0
 30 31  2  0  0  0
 31 32  1  0  0  0
 31 35  1  0  0  0
 32 33  2  0  0  0
 33 36  1  0  0  0
 33 34  1  0  0  0
 36 37  2  0  0  0
 36 41  1  0  0  0
 37 38  1  0  0  0
 38 39  1  0  0  0
 38 40  1  0  0  0
 40 41  2  0  0  0
 34 35  1  0  0  0
  5  6  1  0  0  0
  5  7  1  0  0  0
 14 15  2  0  0  0
 15 16  1  0  0  0
 16 17  1  0  0  0
 17 18  1  0  0  0
 17 22  2  0  0  0
 18 19  2  0  0  0
 19 20  1  0  0  0
 20 21  2  0  0  0
 21 22  1  0  0  0
M  END
> <minimizedAffinity>
-7.52964

$$$$
