CHEMBL3927914


 26 28  0  0  0  0  0  0  0  0999 V2000
  -22.6962   11.5506  -15.9545 N   0  0  0  0  0  0  0  0  0  0  0  0
  -21.8725   11.6532  -15.3544 H   0  0  0  0  0  0  0  0  0  0  0  0
  -23.9154   11.5281  -15.2912 C   0  0  0  0  0  0  0  0  0  0  0  0
  -23.9482   11.1445  -13.6662 S   0  0  0  0  0  0  0  0  0  0  0  0
  -24.9807   11.9049  -16.0856 N   0  0  0  0  0  0  0  0  0  0  0  0
  -24.7041   12.3988  -16.9211 H   0  0  0  0  0  0  0  0  0  0  0  0
  -29.0802   11.1490  -15.4308 C   0  0  0  0  0  0  0  0  0  0  0  0
  -28.2551   10.1828  -16.0041 C   0  0  0  0  0  0  0  0  0  0  0  0
  -26.8970   10.4553  -16.2203 C   0  0  0  0  0  0  0  0  0  0  0  0
  -26.3600   11.7053  -15.8969 C   0  0  0  0  0  0  0  0  0  0  0  0
  -27.1818   12.6588  -15.2980 C   0  0  0  0  0  0  0  0  0  0  0  0
  -28.5316   12.3794  -15.0671 C   0  0  0  0  0  0  0  0  0  0  0  0
  -30.8556   11.3898  -13.8667 C   0  0  0  0  0  0  0  0  0  0  0  0
  -30.4149   11.0212  -15.1664 O   0  0  0  0  0  0  0  0  0  0  0  0
  -22.5475   10.6387  -17.0217 N   0  0  0  0  0  0  0  0  0  0  0  0
  -23.2173    9.8738  -16.9923 H   0  0  0  0  0  0  0  0  0  0  0  0
  -22.6000   11.2407  -18.3169 C   0  0  0  0  0  0  0  0  0  0  0  0
  -23.7987   11.5306  -18.8883 N   0  0  0  0  0  0  0  0  0  0  0  0
  -23.8529   12.1089  -20.1296 N   0  0  0  0  0  0  0  0  0  0  0  0
  -22.7056   12.4083  -20.7732 C   0  0  0  0  0  0  0  0  0  0  0  0
  -21.4490   12.1234  -20.2527 C   0  0  0  0  0  0  0  0  0  0  0  0
  -20.2645   12.4310  -20.9428 C   0  0  0  0  0  0  0  0  0  0  0  0
  -19.0165   12.1557  -20.3800 C   0  0  0  0  0  0  0  0  0  0  0  0
  -18.9420   11.5871  -19.1146 C   0  0  0  0  0  0  0  0  0  0  0  0
  -20.1112   11.2790  -18.4203 C   0  0  0  0  0  0  0  0  0  0  0  0
  -21.3884   11.5225  -18.9773 C   0  0  0  0  0  0  0  0  0  0  0  0
 13 14  1  0  0  0
 14  7  1  0  0  0
  7  8  1  0  0  0
  7 12  2  0  0  0
  8  9  2  0  0  0
  9 10  1  0  0  0
 10  5  1  0  0  0
 10 11  2  0  0  0
  5  3  1  0  0  0
  5  6  1  0  0  0
  3  4  2  0  0  0
  3  1  1  0  0  0
  1 15  1  0  0  0
  1  2  1  0  0  0
 15 17  1  0  0  0
 15 16  1  0  0  0
 17 18  1  0  0  0
 17 26  2  0  0  0
 18 19  2  0  0  0
 19 20  1  0  0  0
 20 21  2  0  0  0
 21 22  1  0  0  0
 21 26  1  0  0  0
 22 23  2  0  0  0
 23 24  1  0  0  0
 24 25  2  0  0  0
 25 26  1  0  0  0
 11 12  1  0  0  0
M  END
> <minimizedAffinity>
-5.93507

$$$$
