CHEMBL1173107


 36 39  0  0  0  0  0  0  0  0999 V2000
  -22.1231   -0.4339  -14.0698 C   0  0  0  0  0  0  0  0  0  0  0  0
  -21.8140    0.8652  -14.2169 C   0  0  0  0  0  0  0  0  0  0  0  0
  -22.6998    2.0427  -13.8598 C   0  0  0  0  0  0  0  0  0  0  0  0
  -23.8555    2.0511  -13.4896 O   0  0  0  0  0  0  0  0  0  0  0  0
  -21.9108    3.1554  -14.0897 N   0  0  0  0  0  0  0  0  0  0  0  0
  -20.6596    2.8068  -14.5809 C   0  0  0  0  0  0  0  0  0  0  0  0
  -19.6507    3.6866  -14.9201 C   0  0  0  0  0  0  0  0  0  0  0  0
  -18.4417    3.1721  -15.3988 C   0  0  0  0  0  0  0  0  0  0  0  0
  -18.3196    1.7750  -15.5721 C   0  0  0  0  0  0  0  0  0  0  0  0
  -19.3630    0.8936  -15.2093 C   0  0  0  0  0  0  0  0  0  0  0  0
  -20.5373    1.4220  -14.7033 C   0  0  0  0  0  0  0  0  0  0  0  0
  -22.2327    4.0973  -13.9207 H   0  0  0  0  0  0  0  0  0  0  0  0
  -26.8493   -1.5863  -14.2913 C   0  0  0  0  0  0  0  0  0  0  0  0
  -25.5462   -1.3841  -13.5949 C   0  0  0  0  0  0  0  0  0  0  0  0
  -24.4435   -0.9754  -14.3166 N   0  0  0  0  0  0  0  0  0  0  0  0
  -23.3476   -0.8690  -13.5046 C   0  0  0  0  0  0  0  0  0  0  0  0
  -23.7335   -1.2379  -12.2277 C   0  0  0  0  0  0  0  0  0  0  0  0
  -22.8797   -1.2552  -11.0052 C   0  0  0  0  0  0  0  0  0  0  0  0
  -25.1440   -1.5543  -12.2707 C   0  0  0  0  0  0  0  0  0  0  0  0
  -24.4485   -0.7689  -15.3052 H   0  0  0  0  0  0  0  0  0  0  0  0
  -25.9476   -1.9910  -11.1253 C   0  0  0  0  0  0  0  0  0  0  0  0
  -25.9513   -1.4276  -10.0402 O   0  0  0  0  0  0  0  0  0  0  0  0
  -26.7446   -3.0695  -11.3525 O   0  0  0  0  0  0  0  0  0  0  0  0
  -26.7792   -3.2627  -12.3075 H   0  0  0  0  0  0  0  0  0  0  0  0
  -17.3467    4.0189  -15.7295 N   0  0  0  0  0  0  0  0  0  0  0  0
  -16.0342    3.5847  -15.7837 C   0  0  0  0  0  0  0  0  0  0  0  0
  -15.6894    2.4128  -15.6654 O   0  0  0  0  0  0  0  0  0  0  0  0
  -15.1240    4.6271  -15.9674 N   0  0  0  0  0  0  0  0  0  0  0  0
  -17.5512    4.8813  -16.2220 H   0  0  0  0  0  0  0  0  0  0  0  0
  -15.3772    5.4808  -15.4888 H   0  0  0  0  0  0  0  0  0  0  0  0
  -13.7385    4.3274  -16.0235 C   0  0  0  0  0  0  0  0  0  0  0  0
  -12.9509    4.3344  -14.8647 C   0  0  0  0  0  0  0  0  0  0  0  0
  -11.5694    4.1537  -14.9441 C   0  0  0  0  0  0  0  0  0  0  0  0
  -10.9656    3.9723  -16.1856 C   0  0  0  0  0  0  0  0  0  0  0  0
  -11.7484    3.9329  -17.3404 C   0  0  0  0  0  0  0  0  0  0  0  0
  -13.1370    4.0839  -17.2594 C   0  0  0  0  0  0  0  0  0  0  0  0
 13 14  1  0  0  0
 14 15  1  0  0  0
 14 19  2  0  0  0
 15 16  1  0  0  0
 15 20  1  0  0  0
 16  1  1  0  0  0
 16 17  2  0  0  0
  1  2  2  0  0  0
  2  3  1  0  0  0
  2 11  1  0  0  0
  3  4  2  0  0  0
  3  5  1  0  0  0
  5  6  1  0  0  0
  5 12  1  0  0  0
  6  7  1  0  0  0
  6 11  2  0  0  0
  7  8  2  0  0  0
  8 25  1  0  0  0
  8  9  1  0  0  0
 25 26  1  0  0  0
 25 29  1  0  0  0
 26 27  2  0  0  0
 26 28  1  0  0  0
 28 31  1  0  0  0
 28 30  1  0  0  0
 31 32  1  0  0  0
 31 36  2  0  0  0
 32 33  2  0  0  0
 33 34  1  0  0  0
 34 35  2  0  0  0
 35 36  1  0  0  0
  9 10  2  0  0  0
 10 11  1  0  0  0
 17 18  1  0  0  0
 17 19  1  0  0  0
 19 21  1  0  0  0
 21 22  2  0  0  0
 21 23  1  0  0  0
 23 24  1  0  0  0
M  END
> <minimizedAffinity>
-10.46412

$$$$
