CHEMBL202748


 15 16  0  0  0  0  0  0  0  0999 V2000
  -21.8864   -0.3328  -14.2657 N   0  0  0  0  0  0  0  0  0  0  0  0
  -21.5802   -0.9562  -15.0048 H   0  0  0  0  0  0  0  0  0  0  0  0
  -21.3635    0.9448  -14.5038 C   0  0  0  0  0  0  0  0  0  0  0  0
  -20.1086    1.1637  -15.0430 C   0  0  0  0  0  0  0  0  0  0  0  0
  -19.6734    2.4649  -15.1136 C   0  0  0  0  0  0  0  0  0  0  0  0
  -20.4199    3.5118  -14.7347 N   0  0  0  0  0  0  0  0  0  0  0  0
  -21.6419    3.2056  -14.2811 C   0  0  0  0  0  0  0  0  0  0  0  0
  -22.1570    1.9716  -14.1471 N   0  0  0  0  0  0  0  0  0  0  0  0
  -24.8011   -1.1193  -12.0368 C   0  0  0  0  0  0  0  0  0  0  0  0
  -25.1849   -1.1789  -13.3546 C   0  0  0  0  0  0  0  0  0  0  0  0
  -24.2049   -0.8634  -14.2638 N   0  0  0  0  0  0  0  0  0  0  0  0
  -23.0689   -0.5854  -13.6597 C   0  0  0  0  0  0  0  0  0  0  0  0
  -23.1720   -0.6118  -11.9337 S   0  0  0  0  0  0  0  0  0  0  0  0
  -26.2973   -1.7352  -10.0286 N   0  0  0  0  0  0  0  0  0  0  0  0
  -25.6285   -1.4391  -10.9307 C   0  0  0  0  0  0  0  0  0  0  0  0
 14 15  3  0  0  0
 15  9  1  0  0  0
  9 10  2  0  0  0
  9 13  1  0  0  0
 10 11  1  0  0  0
 11 12  2  0  0  0
 12  1  1  0  0  0
 12 13  1  0  0  0
  1  3  1  0  0  0
  1  2  1  0  0  0
  3  4  1  0  0  0
  3  8  2  0  0  0
  4  5  2  0  0  0
  5  6  1  0  0  0
  6  7  2  0  0  0
  7  8  1  0  0  0
M  END
> <minimizedAffinity>
-6.00216

$$$$
