CHEMBL211460


 41 45  0  0  0  0  0  0  0  0999 V2000
  -27.3641  -10.2413   -7.2107 C   0  0  0  0  0  0  0  0  0  0  0  0
  -26.7427  -10.6198   -8.3771 C   0  0  0  0  0  0  0  0  0  0  0  0
  -27.1499   -9.9593   -9.5052 C   0  0  0  0  0  0  0  0  0  0  0  0
  -28.0876   -9.0007   -9.4964 N   0  0  0  0  0  0  0  0  0  0  0  0
  -28.6301   -8.6708   -8.3115 C   0  0  0  0  0  0  0  0  0  0  0  0
  -28.2949   -9.2604   -7.1657 N   0  0  0  0  0  0  0  0  0  0  0  0
  -27.0908  -10.9643   -6.0163 N   0  0  0  0  0  0  0  0  0  0  0  0
  -28.0280  -11.9226   -5.5953 C   0  0  0  0  0  0  0  0  0  0  0  0
  -28.0815  -12.4654   -4.4974 O   0  0  0  0  0  0  0  0  0  0  0  0
  -24.6830  -11.2366   -5.2981 C   0  0  0  0  0  0  0  0  0  0  0  0
  -23.6328  -10.8663   -4.4436 C   0  0  0  0  0  0  0  0  0  0  0  0
  -23.7870   -9.8149   -3.5449 C   0  0  0  0  0  0  0  0  0  0  0  0
  -24.9812   -9.1071   -3.5124 C   0  0  0  0  0  0  0  0  0  0  0  0
  -26.0423   -9.4749   -4.3491 C   0  0  0  0  0  0  0  0  0  0  0  0
  -25.9384  -10.5637   -5.2349 C   0  0  0  0  0  0  0  0  0  0  0  0
  -23.3008  -12.1150   -7.0513 C   0  0  0  0  0  0  0  0  0  0  0  0
  -24.5034  -12.1641   -6.2954 O   0  0  0  0  0  0  0  0  0  0  0  0
  -28.9249  -12.2720   -6.6228 O   0  0  0  0  0  0  0  0  0  0  0  0
  -30.3410  -12.1689   -6.5246 C   0  0  0  0  0  0  0  0  0  0  0  0
  -31.0375  -12.1734   -5.3010 C   0  0  0  0  0  0  0  0  0  0  0  0
  -30.4604  -12.4595   -3.9434 C   0  0  0  0  0  0  0  0  0  0  0  0
  -32.4140  -11.8870   -5.3254 C   0  0  0  0  0  0  0  0  0  0  0  0
  -33.0712  -11.5663   -6.5096 C   0  0  0  0  0  0  0  0  0  0  0  0
  -32.3674  -11.5450   -7.7083 C   0  0  0  0  0  0  0  0  0  0  0  0
  -30.9985  -11.8454   -7.7354 C   0  0  0  0  0  0  0  0  0  0  0  0
  -30.2727  -11.7861   -9.0517 C   0  0  0  0  0  0  0  0  0  0  0  0
  -29.5635   -7.6395   -8.2400 N   0  0  0  0  0  0  0  0  0  0  0  0
  -30.3208   -7.7773   -8.8913 H   0  0  0  0  0  0  0  0  0  0  0  0
  -29.3589   -6.3337   -7.7806 C   0  0  0  0  0  0  0  0  0  0  0  0
  -28.3654   -5.5150   -8.3153 C   0  0  0  0  0  0  0  0  0  0  0  0
  -28.0820   -4.2721   -7.7517 C   0  0  0  0  0  0  0  0  0  0  0  0
  -28.7622   -3.7986   -6.6232 C   0  0  0  0  0  0  0  0  0  0  0  0
  -29.8029   -4.5946   -6.1323 C   0  0  0  0  0  0  0  0  0  0  0  0
  -30.1043   -5.8417   -6.7072 C   0  0  0  0  0  0  0  0  0  0  0  0
  -28.4074   -2.5741   -6.0892 N   0  0  0  0  0  0  0  0  0  0  0  0
  -28.0483   -2.4039   -4.6769 C   0  0  0  0  0  0  0  0  0  0  0  0
  -28.4102   -0.9582   -4.2468 C   0  0  0  0  0  0  0  0  0  0  0  0
  -27.7732    0.0804   -5.0945 N   0  0  0  0  0  0  0  0  0  0  0  0
  -28.2174    1.4131   -4.6941 C   0  0  0  0  0  0  0  0  0  0  0  0
  -28.1165   -0.1680   -6.5149 C   0  0  0  0  0  0  0  0  0  0  0  0
  -27.7426   -1.5946   -6.9722 C   0  0  0  0  0  0  0  0  0  0  0  0
 16 17  1  0  0  0
 17 10  1  0  0  0
 10 11  1  0  0  0
 10 15  2  0  0  0
 11 12  2  0  0  0
 12 13  1  0  0  0
 13 14  2  0  0  0
 14 15  1  0  0  0
 15  7  1  0  0  0
  7  8  1  0  0  0
  7  1  1  0  0  0
  8  9  2  0  0  0
  8 18  1  0  0  0
 18 19  1  0  0  0
 19 20  1  0  0  0
 19 25  2  0  0  0
 20 21  1  0  0  0
 20 22  2  0  0  0
 22 23  1  0  0  0
 23 24  2  0  0  0
 24 25  1  0  0  0
 25 26  1  0  0  0
  1  2  1  0  0  0
  1  6  2  0  0  0
  2  3  2  0  0  0
  3  4  1  0  0  0
  4  5  2  0  0  0
  5 27  1  0  0  0
  5  6  1  0  0  0
 27 29  1  0  0  0
 27 28  1  0  0  0
 29 30  1  0  0  0
 29 34  2  0  0  0
 30 31  2  0  0  0
 31 32  1  0  0  0
 32 35  1  0  0  0
 32 33  2  0  0  0
 35 36  1  0  0  0
 35 41  1  0  0  0
 36 37  1  0  0  0
 37 38  1  0  0  0
 38 39  1  0  0  0
 38 40  1  0  0  0
 40 41  1  0  0  0
 33 34  1  0  0  0
M  END
> <minimizedAffinity>
-6.99309

$$$$
