CHEMBL169186


 34 38  0  0  0  0  0  0  0  0999 V2000
  -13.8110   -1.0910  -13.7834 C   0  0  0  0  0  0  0  0  0  0  0  0
  -13.5769   -2.4483  -13.5839 C   0  0  0  0  0  0  0  0  0  0  0  0
  -14.4114   -3.2427  -12.7865 C   0  0  0  0  0  0  0  0  0  0  0  0
  -14.1775   -4.6087  -12.6112 C   0  0  0  0  0  0  0  0  0  0  0  0
  -15.0490   -5.3786  -11.9443 N   0  0  0  0  0  0  0  0  0  0  0  0
  -16.1254   -4.7629  -11.4416 C   0  0  0  0  0  0  0  0  0  0  0  0
  -16.3990   -3.4491  -11.4979 N   0  0  0  0  0  0  0  0  0  0  0  0
  -15.5323   -2.6921  -12.1760 C   0  0  0  0  0  0  0  0  0  0  0  0
  -15.7586   -1.3183  -12.3314 C   0  0  0  0  0  0  0  0  0  0  0  0
  -14.9271   -0.5244  -13.1334 C   0  0  0  0  0  0  0  0  0  0  0  0
  -13.3611   -0.0078  -15.9084 C   0  0  0  0  0  0  0  0  0  0  0  0
  -12.9906   -0.3338  -14.5656 O   0  0  0  0  0  0  0  0  0  0  0  0
  -13.0160   -5.2101  -13.1880 N   0  0  0  0  0  0  0  0  0  0  0  0
  -12.2584   -5.1861  -12.5085 H   0  0  0  0  0  0  0  0  0  0  0  0
  -13.0128   -6.4283  -13.9103 C   0  0  0  0  0  0  0  0  0  0  0  0
  -13.4164   -6.5336  -15.2577 C   0  0  0  0  0  0  0  0  0  0  0  0
  -13.7121   -5.1377  -16.2448 Cl  0  0  0  0  0  0  0  0  0  0  0  0
  -13.5196   -7.7860  -15.8952 C   0  0  0  0  0  0  0  0  0  0  0  0
  -13.1829   -8.9579  -15.2197 C   0  0  0  0  0  0  0  0  0  0  0  0
  -12.7012   -8.8366  -13.9368 C   0  0  0  0  0  0  0  0  0  0  0  0
  -12.6069   -7.6153  -13.3009 C   0  0  0  0  0  0  0  0  0  0  0  0
  -12.0978   -7.7453  -12.0381 O   0  0  0  0  0  0  0  0  0  0  0  0
  -11.8129   -9.1644  -11.9987 C   0  0  0  0  0  0  0  0  0  0  0  0
  -12.2836   -9.8714  -13.1604 O   0  0  0  0  0  0  0  0  0  0  0  0
  -15.3701    0.7824  -13.2035 O   0  0  0  0  0  0  0  0  0  0  0  0
  -16.7346    0.9233  -13.5785 C   0  0  0  0  0  0  0  0  0  0  0  0
  -16.9426    0.6937  -15.0739 C   0  0  0  0  0  0  0  0  0  0  0  0
  -17.8975    1.7955  -15.5631 C   0  0  0  0  0  0  0  0  0  0  0  0
  -19.1445    1.8875  -14.8015 N   0  0  0  0  0  0  0  0  0  0  0  0
  -19.8302    3.1659  -15.0194 C   0  0  0  0  0  0  0  0  0  0  0  0
  -21.0165    3.2755  -14.0695 C   0  0  0  0  0  0  0  0  0  0  0  0
  -21.9927    2.1263  -14.2777 C   0  0  0  0  0  0  0  0  0  0  0  0
  -21.2721    0.7816  -14.2361 C   0  0  0  0  0  0  0  0  0  0  0  0
  -20.0440    0.7701  -15.1482 C   0  0  0  0  0  0  0  0  0  0  0  0
 11 12  1  0  0  0
 12  1  1  0  0  0
  1  2  1  0  0  0
  1 10  2  0  0  0
  2  3  2  0  0  0
  3  4  1  0  0  0
  3  8  1  0  0  0
  4 13  1  0  0  0
  4  5  2  0  0  0
 13 15  1  0  0  0
 13 14  1  0  0  0
 15 16  1  0  0  0
 15 21  2  0  0  0
 16 17  1  0  0  0
 16 18  2  0  0  0
 18 19  1  0  0  0
 19 20  2  0  0  0
 20 21  1  0  0  0
 20 24  1  0  0  0
 21 22  1  0  0  0
 22 23  1  0  0  0
 23 24  1  0  0  0
  5  6  1  0  0  0
  6  7  2  0  0  0
  7  8  1  0  0  0
  8  9  2  0  0  0
  9 10  1  0  0  0
 10 25  1  0  0  0
 25 26  1  0  0  0
 26 27  1  0  0  0
 27 28  1  0  0  0
 28 29  1  0  0  0
 29 30  1  0  0  0
 29 34  1  0  0  0
 30 31  1  0  0  0
 31 32  1  0  0  0
 32 33  1  0  0  0
 33 34  1  0  0  0
M  END
> <minimizedAffinity>
-7.90533

$$$$
