CHEMBL3965764


 38 42  0  0  0  0  0  0  0  0999 V2000
  -15.5028    1.8824  -16.4219 O   0  0  0  0  0  0  0  0  0  0  0  0
  -16.7589    1.7792  -15.8803 C   0  0  0  0  0  0  0  0  0  0  0  0
  -17.3417    0.6213  -15.3867 C   0  0  0  0  0  0  0  0  0  0  0  0
  -18.5359    0.7055  -14.6524 C   0  0  0  0  0  0  0  0  0  0  0  0
  -19.3318    1.8590  -14.7575 C   0  0  0  0  0  0  0  0  0  0  0  0
  -20.6988    2.2213  -14.5464 C   0  0  0  0  0  0  0  0  0  0  0  0
  -20.8729    3.5414  -14.7252 N   0  0  0  0  0  0  0  0  0  0  0  0
  -19.6564    3.9931  -15.0777 N   0  0  0  0  0  0  0  0  0  0  0  0
  -18.7178    3.0140  -15.2317 C   0  0  0  0  0  0  0  0  0  0  0  0
  -17.3967    3.0223  -15.6964 C   0  0  0  0  0  0  0  0  0  0  0  0
  -19.5510    4.9844  -15.2547 H   0  0  0  0  0  0  0  0  0  0  0  0
  -21.7737    1.2890  -14.3313 C   0  0  0  0  0  0  0  0  0  0  0  0
  -21.8648    0.4568  -13.2791 C   0  0  0  0  0  0  0  0  0  0  0  0
  -22.9557   -0.4164  -12.9985 C   0  0  0  0  0  0  0  0  0  0  0  0
  -22.9912   -1.3631  -12.0048 C   0  0  0  0  0  0  0  0  0  0  0  0
  -24.2261   -1.9550  -12.1180 N   0  0  0  0  0  0  0  0  0  0  0  0
  -24.8754   -1.3477  -13.1738 C   0  0  0  0  0  0  0  0  0  0  0  0
  -26.2442   -1.7523  -13.5824 C   0  0  0  0  0  0  0  0  0  0  0  0
  -24.1243   -0.4144  -13.7155 N   0  0  0  0  0  0  0  0  0  0  0  0
  -24.5871   -2.7071  -11.5405 H   0  0  0  0  0  0  0  0  0  0  0  0
  -13.3974   -0.7639  -14.8580 C   0  0  0  0  0  0  0  0  0  0  0  0
  -12.7086   -1.1234  -16.0199 C   0  0  0  0  0  0  0  0  0  0  0  0
  -12.8346   -0.3906  -17.2026 C   0  0  0  0  0  0  0  0  0  0  0  0
  -13.6897    0.7012  -17.2519 C   0  0  0  0  0  0  0  0  0  0  0  0
  -14.4482    1.0463  -16.1298 C   0  0  0  0  0  0  0  0  0  0  0  0
  -14.2857    0.3384  -14.9239 C   0  0  0  0  0  0  0  0  0  0  0  0
  -13.8916   -2.7147  -13.3088 C   0  0  0  0  0  0  0  0  0  0  0  0
  -14.6075   -3.3038  -14.1103 O   0  0  0  0  0  0  0  0  0  0  0  0
  -13.2923   -1.4850  -13.6251 N   0  0  0  0  0  0  0  0  0  0  0  0
  -12.7514   -1.0311  -12.9093 H   0  0  0  0  0  0  0  0  0  0  0  0
  -14.5514   -3.7725  -10.9899 N   0  0  0  0  0  0  0  0  0  0  0  0
  -13.8980   -4.2271   -9.8923 N   0  0  0  0  0  0  0  0  0  0  0  0
  -12.6036   -4.0658  -10.1575 C   0  0  0  0  0  0  0  0  0  0  0  0
  -11.5490   -4.4690   -9.1911 C   0  0  0  0  0  0  0  0  0  0  0  0
  -12.4369   -3.4981  -11.4171 C   0  0  0  0  0  0  0  0  0  0  0  0
  -13.6991   -3.3103  -11.9867 C   0  0  0  0  0  0  0  0  0  0  0  0
  -16.6233   -5.0013  -11.7493 C   0  0  0  0  0  0  0  0  0  0  0  0
  -16.0000   -3.8289  -10.9916 C   0  0  0  0  0  0  0  0  0  0  0  0
 37 38  1  0  0  0
 38 31  1  0  0  0
 31 32  1  0  0  0
 31 36  1  0  0  0
 32 33  2  0  0  0
 33 34  1  0  0  0
 33 35  1  0  0  0
 35 36  2  0  0  0
 36 27  1  0  0  0
 27 28  2  0  0  0
 27 29  1  0  0  0
 29 21  1  0  0  0
 29 30  1  0  0  0
 21 22  1  0  0  0
 21 26  2  0  0  0
 22 23  2  0  0  0
 23 24  1  0  0  0
 24 25  2  0  0  0
 25  1  1  0  0  0
 25 26  1  0  0  0
  1  2  1  0  0  0
  2  3  1  0  0  0
  2 10  2  0  0  0
  3  4  2  0  0  0
  4  5  1  0  0  0
  5  6  1  0  0  0
  5  9  2  0  0  0
  6 12  1  0  0  0
  6  7  2  0  0  0
 12 13  2  0  0  0
 13 14  1  0  0  0
 14 15  2  0  0  0
 14 19  1  0  0  0
 15 16  1  0  0  0
 16 17  1  0  0  0
 16 20  1  0  0  0
 17 18  1  0  0  0
 17 19  2  0  0  0
  7  8  1  0  0  0
  8  9  1  0  0  0
  8 11  1  0  0  0
  9 10  1  0  0  0
M  END
> <minimizedAffinity>
-9.89864

$$$$
