CHEMBL69709


 30 33  0  0  0  0  0  0  0  0999 V2000
  -28.3063   -6.9271   -5.4203 C   0  0  0  0  0  0  0  0  0  0  0  0
  -29.0056   -7.9576   -5.9117 C   0  0  0  0  0  0  0  0  0  0  0  0
  -30.4304   -8.0332   -6.3851 C   0  0  0  0  0  0  0  0  0  0  0  0
  -31.2461   -7.1259   -6.4172 O   0  0  0  0  0  0  0  0  0  0  0  0
  -30.6189   -9.3489   -6.7665 N   0  0  0  0  0  0  0  0  0  0  0  0
  -31.8630   -9.8948   -7.2401 C   0  0  0  0  0  0  0  0  0  0  0  0
  -29.4518  -10.1058   -6.5935 C   0  0  0  0  0  0  0  0  0  0  0  0
  -29.3379  -11.4035   -6.8781 N   0  0  0  0  0  0  0  0  0  0  0  0
  -28.1212  -11.9045   -6.6208 C   0  0  0  0  0  0  0  0  0  0  0  0
  -27.0675  -11.2318   -6.1082 N   0  0  0  0  0  0  0  0  0  0  0  0
  -27.2375   -9.9278   -5.8016 C   0  0  0  0  0  0  0  0  0  0  0  0
  -28.4379   -9.3062   -6.0779 C   0  0  0  0  0  0  0  0  0  0  0  0
  -29.4381   -2.8274   -2.9824 C   0  0  0  0  0  0  0  0  0  0  0  0
  -29.1780   -3.6663   -4.1759 C   0  0  0  0  0  0  0  0  0  0  0  0
  -29.1802   -3.3898   -5.5172 C   0  0  0  0  0  0  0  0  0  0  0  0
  -28.8546   -4.5833   -6.2150 C   0  0  0  0  0  0  0  0  0  0  0  0
  -28.7464   -4.7580   -7.6909 C   0  0  0  0  0  0  0  0  0  0  0  0
  -28.6511   -5.5648   -5.2506 C   0  0  0  0  0  0  0  0  0  0  0  0
  -28.8629   -4.9939   -4.0262 N   0  0  0  0  0  0  0  0  0  0  0  0
  -28.7871   -5.4697   -3.1324 H   0  0  0  0  0  0  0  0  0  0  0  0
  -26.1576   -9.2190   -5.2184 N   0  0  0  0  0  0  0  0  0  0  0  0
  -25.9718   -8.3757   -5.7483 H   0  0  0  0  0  0  0  0  0  0  0  0
  -24.9366   -9.7833   -4.7806 C   0  0  0  0  0  0  0  0  0  0  0  0
  -24.7997  -10.2257   -3.4490 C   0  0  0  0  0  0  0  0  0  0  0  0
  -23.6169  -10.8491   -3.0376 C   0  0  0  0  0  0  0  0  0  0  0  0
  -22.5881  -11.0487   -3.9475 C   0  0  0  0  0  0  0  0  0  0  0  0
  -21.4548  -11.6300   -3.5342 F   0  0  0  0  0  0  0  0  0  0  0  0
  -22.7352  -10.6572   -5.2812 C   0  0  0  0  0  0  0  0  0  0  0  0
  -21.4849  -10.9316   -6.4279 Cl  0  0  0  0  0  0  0  0  0  0  0  0
  -23.9121  -10.0437   -5.6886 C   0  0  0  0  0  0  0  0  0  0  0  0
 13 14  1  0  0  0
 14 15  2  0  0  0
 14 19  1  0  0  0
 15 16  1  0  0  0
 16 17  1  0  0  0
 16 18  2  0  0  0
 18  1  1  0  0  0
 18 19  1  0  0  0
  1  2  2  0  0  0
  2  3  1  0  0  0
  2 12  1  0  0  0
  3  4  2  0  0  0
  3  5  1  0  0  0
  5  6  1  0  0  0
  5  7  1  0  0  0
  7  8  1  0  0  0
  7 12  2  0  0  0
  8  9  2  0  0  0
  9 10  1  0  0  0
 10 11  2  0  0  0
 11 21  1  0  0  0
 11 12  1  0  0  0
 21 23  1  0  0  0
 21 22  1  0  0  0
 23 24  1  0  0  0
 23 30  2  0  0  0
 24 25  2  0  0  0
 25 26  1  0  0  0
 26 27  1  0  0  0
 26 28  2  0  0  0
 28 29  1  0  0  0
 28 30  1  0  0  0
 19 20  1  0  0  0
M  END
> <minimizedAffinity>
-8.57931

$$$$
