CHEMBL2004716


 44 47  0  0  0  0  0  0  0  0999 V2000
  -19.6549    2.8268  -15.3947 C   0  0  0  0  0  0  0  0  0  0  0  0
  -20.4410    3.9093  -15.0494 C   0  0  0  0  0  0  0  0  0  0  0  0
  -21.5939    3.8311  -14.3721 N   0  0  0  0  0  0  0  0  0  0  0  0
  -22.0776    2.6295  -14.0013 C   0  0  0  0  0  0  0  0  0  0  0  0
  -23.2359    2.7286  -13.2464 N   0  0  0  0  0  0  0  0  0  0  0  0
  -21.4093    1.4220  -14.3686 C   0  0  0  0  0  0  0  0  0  0  0  0
  -21.7407   -0.0047  -14.1591 C   0  0  0  0  0  0  0  0  0  0  0  0
  -20.7752   -0.8278  -14.6976 C   0  0  0  0  0  0  0  0  0  0  0  0
  -19.4847    0.0132  -15.3962 S   0  0  0  0  0  0  0  0  0  0  0  0
  -20.1869    1.5586  -15.0624 C   0  0  0  0  0  0  0  0  0  0  0  0
  -23.3896    3.6967  -12.9863 H   0  0  0  0  0  0  0  0  0  0  0  0
  -23.3077    2.0553  -12.4964 H   0  0  0  0  0  0  0  0  0  0  0  0
  -22.9205   -0.6098  -13.5143 C   0  0  0  0  0  0  0  0  0  0  0  0
  -24.1176   -0.7291  -14.2139 C   0  0  0  0  0  0  0  0  0  0  0  0
  -25.2838   -1.1662  -13.5854 C   0  0  0  0  0  0  0  0  0  0  0  0
  -25.2618   -1.6406  -12.2752 C   0  0  0  0  0  0  0  0  0  0  0  0
  -24.0527   -1.6025  -11.5783 C   0  0  0  0  0  0  0  0  0  0  0  0
  -22.8963   -1.0798  -12.1888 C   0  0  0  0  0  0  0  0  0  0  0  0
  -26.4167   -2.1529  -11.6419 N   0  0  0  0  0  0  0  0  0  0  0  0
  -26.6983   -2.0008  -10.2928 C   0  0  0  0  0  0  0  0  0  0  0  0
  -26.0535   -1.3057   -9.5145 O   0  0  0  0  0  0  0  0  0  0  0  0
  -27.7946   -2.7581   -9.9071 N   0  0  0  0  0  0  0  0  0  0  0  0
  -27.1995   -2.4040  -12.2289 H   0  0  0  0  0  0  0  0  0  0  0  0
  -27.8614   -3.6531  -10.3695 H   0  0  0  0  0  0  0  0  0  0  0  0
  -28.2783   -2.6963   -8.5783 C   0  0  0  0  0  0  0  0  0  0  0  0
  -29.1102   -3.6932   -8.0585 C   0  0  0  0  0  0  0  0  0  0  0  0
  -29.5923   -3.5989   -6.7538 C   0  0  0  0  0  0  0  0  0  0  0  0
  -29.2703   -2.4915   -5.9716 C   0  0  0  0  0  0  0  0  0  0  0  0
  -28.4547   -1.4765   -6.4865 C   0  0  0  0  0  0  0  0  0  0  0  0
  -28.1810   -0.2360   -5.6888 C   0  0  0  0  0  0  0  0  0  0  0  0
  -27.9297   -1.6037   -7.7817 C   0  0  0  0  0  0  0  0  0  0  0  0
  -17.2154    3.2981  -15.5539 C   0  0  0  0  0  0  0  0  0  0  0  0
  -18.3883    2.9592  -16.1238 C   0  0  0  0  0  0  0  0  0  0  0  0
  -15.6935    4.6958  -16.7838 N   0  0  0  0  0  0  0  0  0  0  0  0
  -16.0160    3.4047  -16.4199 C   0  0  0  0  0  0  0  0  0  0  0  0
  -15.3898    2.4265  -16.7871 O   0  0  0  0  0  0  0  0  0  0  0  0
  -16.1447    5.4977  -16.3559 H   0  0  0  0  0  0  0  0  0  0  0  0
  -14.4985    4.9403  -17.5640 C   0  0  0  0  0  0  0  0  0  0  0  0
  -14.7081    5.9452  -18.7117 C   0  0  0  0  0  0  0  0  0  0  0  0
  -13.7053    7.0327  -18.8161 N   0  0  0  0  0  0  0  0  0  0  0  0
  -15.4656    8.6867  -19.5592 C   0  0  0  0  0  0  0  0  0  0  0  0
  -14.3216    8.3555  -18.6051 C   0  0  0  0  0  0  0  0  0  0  0  0
  -12.5607    6.7670  -17.9180 C   0  0  0  0  0  0  0  0  0  0  0  0
  -12.1949    7.8688  -16.9227 C   0  0  0  0  0  0  0  0  0  0  0  0
 41 42  1  0  0  0
 42 40  1  0  0  0
 40 43  1  0  0  0
 40 39  1  0  0  0
 43 44  1  0  0  0
 39 38  1  0  0  0
 38 34  1  0  0  0
 34 35  1  0  0  0
 34 37  1  0  0  0
 35 36  2  0  0  0
 35 32  1  0  0  0
 32 33  2  0  0  0
 33  1  1  0  0  0
  1  2  1  0  0  0
  1 10  2  0  0  0
  2  3  2  0  0  0
  3  4  1  0  0  0
  4  5  1  0  0  0
  4  6  2  0  0  0
  5 11  1  0  0  0
  5 12  1  0  0  0
  6  7  1  0  0  0
  6 10  1  0  0  0
  7 13  1  0  0  0
  7  8  2  0  0  0
 13 14  1  0  0  0
 13 18  2  0  0  0
 14 15  2  0  0  0
 15 16  1  0  0  0
 16 19  1  0  0  0
 16 17  2  0  0  0
 19 20  1  0  0  0
 19 23  1  0  0  0
 20 21  2  0  0  0
 20 22  1  0  0  0
 22 25  1  0  0  0
 22 24  1  0  0  0
 25 26  1  0  0  0
 25 31  2  0  0  0
 26 27  2  0  0  0
 27 28  1  0  0  0
 28 29  2  0  0  0
 29 30  1  0  0  0
 29 31  1  0  0  0
 17 18  1  0  0  0
  8  9  1  0  0  0
  9 10  1  0  0  0
M  END
> <minimizedAffinity>
-9.03057

$$$$
