CHEMBL1271615


 23 25  0  0  0  0  0  0  0  0999 V2000
  -28.6029   -1.1378  -10.3702 O   0  0  0  0  0  0  0  0  0  0  0  0
  -27.6006   -1.8495  -10.3637 C   0  0  0  0  0  0  0  0  0  0  0  0
  -27.2813   -2.7808   -9.3999 N   0  0  0  0  0  0  0  0  0  0  0  0
  -26.3545   -3.2087   -9.4349 H   0  0  0  0  0  0  0  0  0  0  0  0
  -28.0301   -3.0984   -8.2348 C   0  0  0  0  0  0  0  0  0  0  0  0
  -28.6591   -4.3403   -8.0677 C   0  0  0  0  0  0  0  0  0  0  0  0
  -29.4338   -4.5998   -6.9428 C   0  0  0  0  0  0  0  0  0  0  0  0
  -29.5813   -3.6190   -5.9717 C   0  0  0  0  0  0  0  0  0  0  0  0
  -28.9373   -2.3820   -6.1111 C   0  0  0  0  0  0  0  0  0  0  0  0
  -29.0846   -1.3904   -5.1339 C   0  0  0  0  0  0  0  0  0  0  0  0
  -28.4404   -0.1713   -5.2832 C   0  0  0  0  0  0  0  0  0  0  0  0
  -27.6611    0.0143   -6.4078 C   0  0  0  0  0  0  0  0  0  0  0  0
  -27.4995   -0.9131   -7.3784 N   0  0  0  0  0  0  0  0  0  0  0  0
  -28.1338   -2.1056   -7.2436 C   0  0  0  0  0  0  0  0  0  0  0  0
  -26.6481   -1.6832  -11.4995 C   0  0  0  0  0  0  0  0  0  0  0  0
  -25.3237   -1.3506  -11.1637 C   0  0  0  0  0  0  0  0  0  0  0  0
  -24.3524   -1.2372  -12.1521 C   0  0  0  0  0  0  0  0  0  0  0  0
  -22.7376   -0.8314  -11.7184 Cl  0  0  0  0  0  0  0  0  0  0  0  0
  -24.6800   -1.4565  -13.4868 C   0  0  0  0  0  0  0  0  0  0  0  0
  -25.9943   -1.7788  -13.8359 C   0  0  0  0  0  0  0  0  0  0  0  0
  -26.9765   -1.8864  -12.8463 C   0  0  0  0  0  0  0  0  0  0  0  0
  -28.2547   -2.2080  -13.2094 O   0  0  0  0  0  0  0  0  0  0  0  0
  -28.2792   -2.4359  -14.1549 H   0  0  0  0  0  0  0  0  0  0  0  0
  1  2  2  0  0  0
  2  3  1  0  0  0
  2 15  1  0  0  0
  3  5  1  0  0  0
  3  4  1  0  0  0
  5  6  1  0  0  0
  5 14  2  0  0  0
  6  7  2  0  0  0
  7  8  1  0  0  0
  8  9  2  0  0  0
  9 10  1  0  0  0
  9 14  1  0  0  0
 10 11  2  0  0  0
 11 12  1  0  0  0
 12 13  2  0  0  0
 13 14  1  0  0  0
 15 16  1  0  0  0
 15 21  2  0  0  0
 16 17  2  0  0  0
 17 18  1  0  0  0
 17 19  1  0  0  0
 19 20  2  0  0  0
 20 21  1  0  0  0
 21 22  1  0  0  0
 22 23  1  0  0  0
M  END
> <minimizedAffinity>
-9.45990

$$$$
