CHEMBL4204192


 35 38  0  0  0  0  0  0  0  0999 V2000
  -28.6179   -3.9449   -7.0555 C   0  0  0  0  0  0  0  0  0  0  0  0
  -27.9360   -3.7561   -8.2689 C   0  0  0  0  0  0  0  0  0  0  0  0
  -27.6106   -2.4818   -8.7392 C   0  0  0  0  0  0  0  0  0  0  0  0
  -27.9535   -1.3778   -7.9562 C   0  0  0  0  0  0  0  0  0  0  0  0
  -28.6310   -1.5502   -6.7392 C   0  0  0  0  0  0  0  0  0  0  0  0
  -28.9677   -2.8312   -6.2735 C   0  0  0  0  0  0  0  0  0  0  0  0
  -29.6757   -2.9866   -4.9560 C   0  0  0  0  0  0  0  0  0  0  0  0
  -30.4947   -9.5423   -6.9525 C   0  0  0  0  0  0  0  0  0  0  0  0
  -30.5016   -8.4591   -7.8056 C   0  0  0  0  0  0  0  0  0  0  0  0
  -29.8422   -7.4601   -7.1255 N   0  0  0  0  0  0  0  0  0  0  0  0
  -29.6008   -6.1375   -7.4883 C   0  0  0  0  0  0  0  0  0  0  0  0
  -28.9067   -5.3342   -6.6520 C   0  0  0  0  0  0  0  0  0  0  0  0
  -28.4066   -5.9135   -5.4009 C   0  0  0  0  0  0  0  0  0  0  0  0
  -28.6529   -7.1916   -5.0588 C   0  0  0  0  0  0  0  0  0  0  0  0
  -29.4171   -8.0163   -5.9258 C   0  0  0  0  0  0  0  0  0  0  0  0
  -29.8167   -9.2601   -5.8066 N   0  0  0  0  0  0  0  0  0  0  0  0
  -32.7580  -12.4641   -7.3289 C   0  0  0  0  0  0  0  0  0  0  0  0
  -32.4217  -11.0104   -7.1238 C   0  0  0  0  0  0  0  0  0  0  0  0
  -33.3160  -10.1972   -6.9125 O   0  0  0  0  0  0  0  0  0  0  0  0
  -31.0631  -10.7666   -7.2130 N   0  0  0  0  0  0  0  0  0  0  0  0
  -30.4483  -11.4980   -7.5380 H   0  0  0  0  0  0  0  0  0  0  0  0
  -26.9544   -2.2638   -9.9705 N   0  0  0  0  0  0  0  0  0  0  0  0
  -27.3607   -1.3912  -10.9695 C   0  0  0  0  0  0  0  0  0  0  0  0
  -28.3464   -0.6605  -10.9415 O   0  0  0  0  0  0  0  0  0  0  0  0
  -26.0655   -2.7291  -10.1386 H   0  0  0  0  0  0  0  0  0  0  0  0
  -26.4669   -1.3222  -12.1666 C   0  0  0  0  0  0  0  0  0  0  0  0
  -25.2181   -0.7225  -12.0316 C   0  0  0  0  0  0  0  0  0  0  0  0
  -24.3580   -0.6909  -13.1299 C   0  0  0  0  0  0  0  0  0  0  0  0
  -24.8042   -1.2561  -14.3311 C   0  0  0  0  0  0  0  0  0  0  0  0
  -26.0728   -1.8234  -14.3753 C   0  0  0  0  0  0  0  0  0  0  0  0
  -26.9176   -1.8781  -13.3222 N   0  0  0  0  0  0  0  0  0  0  0  0
  -22.9842   -0.0856  -13.0262 C   0  0  0  0  0  0  0  0  0  0  0  0
  -22.9773    1.2723  -13.1180 F   0  0  0  0  0  0  0  0  0  0  0  0
  -22.3797   -0.3831  -11.8434 F   0  0  0  0  0  0  0  0  0  0  0  0
  -22.1446   -0.5319  -13.9991 F   0  0  0  0  0  0  0  0  0  0  0  0
 17 18  1  0  0  0
 18 19  2  0  0  0
 18 20  1  0  0  0
 20  8  1  0  0  0
 20 21  1  0  0  0
  8  9  2  0  0  0
  8 16  1  0  0  0
  9 10  1  0  0  0
 10 11  1  0  0  0
 10 15  1  0  0  0
 11 12  2  0  0  0
 12  1  1  0  0  0
 12 13  1  0  0  0
  1  2  1  0  0  0
  1  6  2  0  0  0
  2  3  2  0  0  0
  3 22  1  0  0  0
  3  4  1  0  0  0
 22 23  1  0  0  0
 22 25  1  0  0  0
 23 24  2  0  0  0
 23 26  1  0  0  0
 26 27  1  0  0  0
 26 31  2  0  0  0
 27 28  2  0  0  0
 28 32  1  0  0  0
 28 29  1  0  0  0
 32 33  1  0  0  0
 32 34  1  0  0  0
 32 35  1  0  0  0
 29 30  2  0  0  0
 30 31  1  0  0  0
  4  5  2  0  0  0
  5  6  1  0  0  0
  6  7  1  0  0  0
 13 14  2  0  0  0
 14 15  1  0  0  0
 15 16  2  0  0  0
M  END
> <minimizedAffinity>
-10.97132

$$$$
