CHEMBL4165827


 38 42  0  0  0  0  0  0  0  0999 V2000
  -23.9922  -10.7370   -5.2271 C   0  0  0  0  0  0  0  0  0  0  0  0
  -24.6894  -10.8345   -6.4527 C   0  0  0  0  0  0  0  0  0  0  0  0
  -26.0044  -10.3502   -6.5821 C   0  0  0  0  0  0  0  0  0  0  0  0
  -26.6161   -9.7860   -5.4762 C   0  0  0  0  0  0  0  0  0  0  0  0
  -25.9032   -9.6911   -4.2731 C   0  0  0  0  0  0  0  0  0  0  0  0
  -24.6054  -10.1356   -4.1224 C   0  0  0  0  0  0  0  0  0  0  0  0
  -26.6898   -9.1328   -3.2713 N   0  0  0  0  0  0  0  0  0  0  0  0
  -27.9602   -8.8444   -3.7323 C   0  0  0  0  0  0  0  0  0  0  0  0
  -28.9158   -8.4891   -3.0723 O   0  0  0  0  0  0  0  0  0  0  0  0
  -27.9331   -9.1727   -5.2042 C   0  0  0  0  0  0  0  0  0  0  0  0
  -28.9825   -8.8597   -5.9908 C   0  0  0  0  0  0  0  0  0  0  0  0
  -26.4257   -9.0328   -2.3033 H   0  0  0  0  0  0  0  0  0  0  0  0
  -29.1061   -9.4265   -7.3557 C   0  0  0  0  0  0  0  0  0  0  0  0
  -29.7723  -10.6556   -7.4967 C   0  0  0  0  0  0  0  0  0  0  0  0
  -29.9660  -11.2231   -8.7568 C   0  0  0  0  0  0  0  0  0  0  0  0
  -29.5019  -10.5670   -9.8922 C   0  0  0  0  0  0  0  0  0  0  0  0
  -28.8341   -9.3489   -9.7682 C   0  0  0  0  0  0  0  0  0  0  0  0
  -28.6325   -8.7830   -8.5063 C   0  0  0  0  0  0  0  0  0  0  0  0
  -22.6263  -11.2936   -5.0231 C   0  0  0  0  0  0  0  0  0  0  0  0
  -22.0729  -11.3114   -3.9383 O   0  0  0  0  0  0  0  0  0  0  0  0
  -21.2093  -10.9215   -6.8345 C   0  0  0  0  0  0  0  0  0  0  0  0
  -22.1263  -11.7989   -6.1773 O   0  0  0  0  0  0  0  0  0  0  0  0
  -30.1074   -8.1343   -5.5766 N   0  0  0  0  0  0  0  0  0  0  0  0
  -30.5137   -8.5363   -4.7229 H   0  0  0  0  0  0  0  0  0  0  0  0
  -30.0721   -6.7153   -5.3805 C   0  0  0  0  0  0  0  0  0  0  0  0
  -30.9731   -6.1430   -4.4726 C   0  0  0  0  0  0  0  0  0  0  0  0
  -31.1120   -4.7511   -4.3379 C   0  0  0  0  0  0  0  0  0  0  0  0
  -30.3053   -3.9386   -5.1416 C   0  0  0  0  0  0  0  0  0  0  0  0
  -30.2701   -2.5709   -5.2931 N   0  0  0  0  0  0  0  0  0  0  0  0
  -29.1906   -2.2013   -6.0629 C   0  0  0  0  0  0  0  0  0  0  0  0
  -28.6370   -3.3648   -6.5605 C   0  0  0  0  0  0  0  0  0  0  0  0
  -29.3320   -4.4635   -5.9858 C   0  0  0  0  0  0  0  0  0  0  0  0
  -29.2111   -5.8636   -6.0929 C   0  0  0  0  0  0  0  0  0  0  0  0
  -30.8801   -1.9114   -4.8286 H   0  0  0  0  0  0  0  0  0  0  0  0
  -28.7846   -0.7777   -6.2668 C   0  0  0  0  0  0  0  0  0  0  0  0
  -29.2418    0.1388   -5.2039 N   0  0  0  0  0  0  0  0  0  0  0  0
  -28.1646    1.0086   -4.7138 C   0  0  0  0  0  0  0  0  0  0  0  0
  -30.3067    0.9932   -5.7508 C   0  0  0  0  0  0  0  0  0  0  0  0
 21 22  1  0  0  0
 22 19  1  0  0  0
 19 20  2  0  0  0
 19  1  1  0  0  0
  1  2  1  0  0  0
  1  6  2  0  0  0
  2  3  2  0  0  0
  3  4  1  0  0  0
  4  5  2  0  0  0
  4 10  1  0  0  0
  5  6  1  0  0  0
  5  7  1  0  0  0
  7  8  1  0  0  0
  7 12  1  0  0  0
  8  9  2  0  0  0
  8 10  1  0  0  0
 10 11  2  0  0  0
 11 23  1  0  0  0
 11 13  1  0  0  0
 23 25  1  0  0  0
 23 24  1  0  0  0
 25 26  1  0  0  0
 25 33  2  0  0  0
 26 27  2  0  0  0
 27 28  1  0  0  0
 28 29  1  0  0  0
 28 32  2  0  0  0
 29 30  1  0  0  0
 29 34  1  0  0  0
 30 35  1  0  0  0
 30 31  2  0  0  0
 35 36  1  0  0  0
 36 37  1  0  0  0
 36 38  1  0  0  0
 31 32  1  0  0  0
 32 33  1  0  0  0
 13 14  1  0  0  0
 13 18  2  0  0  0
 14 15  2  0  0  0
 15 16  1  0  0  0
 16 17  2  0  0  0
 17 18  1  0  0  0
M  END
> <minimizedAffinity>
-9.16970

$$$$
