CHEMBL3938621


 34 38  0  0  0  0  0  0  0  0999 V2000
  -14.3262    1.0416  -13.8801 C   0  0  0  0  0  0  0  0  0  0  0  0
  -15.3090    1.9126  -14.3663 C   0  0  0  0  0  0  0  0  0  0  0  0
  -15.1707    2.5373  -15.6358 C   0  0  0  0  0  0  0  0  0  0  0  0
  -16.0717    3.4473  -16.2309 C   0  0  0  0  0  0  0  0  0  0  0  0
  -15.8258    3.9974  -17.4359 N   0  0  0  0  0  0  0  0  0  0  0  0
  -14.7050    3.6415  -18.0618 C   0  0  0  0  0  0  0  0  0  0  0  0
  -13.7964    2.7848  -17.6019 N   0  0  0  0  0  0  0  0  0  0  0  0
  -14.0360    2.2493  -16.4067 C   0  0  0  0  0  0  0  0  0  0  0  0
  -13.1027    1.3459  -15.9329 C   0  0  0  0  0  0  0  0  0  0  0  0
  -13.2452    0.7065  -14.6993 C   0  0  0  0  0  0  0  0  0  0  0  0
  -15.8619   -0.1057  -12.5183 C   0  0  0  0  0  0  0  0  0  0  0  0
  -14.5694    0.4910  -12.6488 O   0  0  0  0  0  0  0  0  0  0  0  0
  -17.2830    3.7820  -15.5632 N   0  0  0  0  0  0  0  0  0  0  0  0
  -17.5887    4.7018  -15.8642 H   0  0  0  0  0  0  0  0  0  0  0  0
  -18.3804    2.9271  -15.2946 C   0  0  0  0  0  0  0  0  0  0  0  0
  -18.3076    1.5335  -15.4256 C   0  0  0  0  0  0  0  0  0  0  0  0
  -19.4102    0.7160  -15.1591 C   0  0  0  0  0  0  0  0  0  0  0  0
  -20.6007    1.2771  -14.7049 C   0  0  0  0  0  0  0  0  0  0  0  0
  -21.9318    0.2169  -14.4135 Cl  0  0  0  0  0  0  0  0  0  0  0  0
  -20.6730    2.6569  -14.4964 C   0  0  0  0  0  0  0  0  0  0  0  0
  -22.0993    3.4244  -13.8919 Cl  0  0  0  0  0  0  0  0  0  0  0  0
  -19.5659    3.4710  -14.7790 C   0  0  0  0  0  0  0  0  0  0  0  0
  -12.3661   -0.2443  -14.2682 O   0  0  0  0  0  0  0  0  0  0  0  0
  -12.4645   -1.5193  -14.9103 C   0  0  0  0  0  0  0  0  0  0  0  0
  -13.2686   -2.4135  -14.0202 C   0  0  0  0  0  0  0  0  0  0  0  0
  -14.4927   -2.8244  -14.2909 N   0  0  0  0  0  0  0  0  0  0  0  0
  -14.9322   -3.6301  -13.2657 C   0  0  0  0  0  0  0  0  0  0  0  0
  -14.0413   -3.8196  -12.2322 C   0  0  0  0  0  0  0  0  0  0  0  0
  -12.6194   -2.9369  -12.5047 S   0  0  0  0  0  0  0  0  0  0  0  0
  -14.2959   -4.6761  -11.0364 C   0  0  0  0  0  0  0  0  0  0  0  0
  -15.4005   -5.6387  -11.2784 N   0  0  0  0  0  0  0  0  0  0  0  0
  -14.9381   -6.7875  -12.0609 C   0  0  0  0  0  0  0  0  0  0  0  0
  -16.5536   -4.9640  -11.9278 C   0  0  0  0  0  0  0  0  0  0  0  0
  -16.2572   -4.3095  -13.2997 C   0  0  0  0  0  0  0  0  0  0  0  0
 11 12  1  0  0  0
 12  1  1  0  0  0
  1  2  1  0  0  0
  1 10  2  0  0  0
  2  3  2  0  0  0
  3  4  1  0  0  0
  3  8  1  0  0  0
  4 13  1  0  0  0
  4  5  2  0  0  0
 13 15  1  0  0  0
 13 14  1  0  0  0
 15 16  1  0  0  0
 15 22  2  0  0  0
 16 17  2  0  0  0
 17 18  1  0  0  0
 18 19  1  0  0  0
 18 20  2  0  0  0
 20 21  1  0  0  0
 20 22  1  0  0  0
  5  6  1  0  0  0
  6  7  2  0  0  0
  7  8  1  0  0  0
  8  9  2  0  0  0
  9 10  1  0  0  0
 10 23  1  0  0  0
 23 24  1  0  0  0
 24 25  1  0  0  0
 25 26  2  0  0  0
 25 29  1  0  0  0
 26 27  1  0  0  0
 27 28  2  0  0  0
 27 34  1  0  0  0
 28 29  1  0  0  0
 28 30  1  0  0  0
 30 31  1  0  0  0
 31 32  1  0  0  0
 31 33  1  0  0  0
 33 34  1  0  0  0
M  END
> <minimizedAffinity>
-8.78425

$$$$
