CHEMBL259252


 33 37  0  0  0  0  0  0  0  0999 V2000
  -30.2007   -7.2351   -7.2056 C   0  0  0  0  0  0  0  0  0  0  0  0
  -29.5492   -6.0851   -7.6348 C   0  0  0  0  0  0  0  0  0  0  0  0
  -29.5000   -4.9803   -6.7867 C   0  0  0  0  0  0  0  0  0  0  0  0
  -30.2327   -4.9187   -5.5707 C   0  0  0  0  0  0  0  0  0  0  0  0
  -30.1920   -3.8552   -4.6194 C   0  0  0  0  0  0  0  0  0  0  0  0
  -30.9719   -3.9172   -3.4498 C   0  0  0  0  0  0  0  0  0  0  0  0
  -31.8018   -5.0033   -3.2001 C   0  0  0  0  0  0  0  0  0  0  0  0
  -31.8292   -6.0640   -4.0988 C   0  0  0  0  0  0  0  0  0  0  0  0
  -31.0453   -6.0447   -5.2605 C   0  0  0  0  0  0  0  0  0  0  0  0
  -31.0087   -7.1847   -6.0739 C   0  0  0  0  0  0  0  0  0  0  0  0
  -29.2757   -2.6759   -4.6959 C   0  0  0  0  0  0  0  0  0  0  0  0
  -28.1044   -2.7982   -4.3462 O   0  0  0  0  0  0  0  0  0  0  0  0
  -29.7990   -1.4698   -5.1153 N   0  0  0  0  0  0  0  0  0  0  0  0
  -30.8039   -1.3972   -5.2118 H   0  0  0  0  0  0  0  0  0  0  0  0
  -28.9522   -0.2691   -5.2526 C   0  0  0  0  0  0  0  0  0  0  0  0
  -29.7330    1.0310   -5.5605 C   0  0  0  0  0  0  0  0  0  0  0  0
  -28.6006    1.4080   -6.5358 C   0  0  0  0  0  0  0  0  0  0  0  0
  -28.2773   -0.0947   -6.6370 C   0  0  0  0  0  0  0  0  0  0  0  0
  -30.0351   -8.4734   -7.7750 O   0  0  0  0  0  0  0  0  0  0  0  0
  -27.3449  -11.3148   -4.2562 C   0  0  0  0  0  0  0  0  0  0  0  0
  -26.6029  -11.1073   -5.4272 C   0  0  0  0  0  0  0  0  0  0  0  0
  -27.1148  -10.4368   -6.5305 C   0  0  0  0  0  0  0  0  0  0  0  0
  -26.3118  -10.3134   -7.5999 N   0  0  0  0  0  0  0  0  0  0  0  0
  -26.7815   -9.6690   -8.6849 C   0  0  0  0  0  0  0  0  0  0  0  0
  -28.0215   -9.0766   -8.7384 C   0  0  0  0  0  0  0  0  0  0  0  0
  -28.8451   -9.1676   -7.6172 C   0  0  0  0  0  0  0  0  0  0  0  0
  -28.4276   -9.9325   -6.4870 C   0  0  0  0  0  0  0  0  0  0  0  0
  -29.1876  -10.2141   -5.3165 C   0  0  0  0  0  0  0  0  0  0  0  0
  -28.6329  -10.8012   -4.1775 C   0  0  0  0  0  0  0  0  0  0  0  0
  -25.5651  -11.6032   -2.7518 C   0  0  0  0  0  0  0  0  0  0  0  0
  -26.8545  -12.0276   -3.1932 O   0  0  0  0  0  0  0  0  0  0  0  0
  -29.4764  -10.8561   -3.1030 O   0  0  0  0  0  0  0  0  0  0  0  0
  -30.3118  -12.0092   -3.0137 C   0  0  0  0  0  0  0  0  0  0  0  0
 30 31  1  0  0  0
 31 20  1  0  0  0
 20 21  1  0  0  0
 20 29  2  0  0  0
 21 22  2  0  0  0
 22 23  1  0  0  0
 22 27  1  0  0  0
 23 24  2  0  0  0
 24 25  1  0  0  0
 25 26  2  0  0  0
 26 19  1  0  0  0
 26 27  1  0  0  0
 19  1  1  0  0  0
  1  2  1  0  0  0
  1 10  2  0  0  0
  2  3  2  0  0  0
  3  4  1  0  0  0
  4  5  1  0  0  0
  4  9  2  0  0  0
  5 11  1  0  0  0
  5  6  2  0  0  0
 11 12  2  0  0  0
 11 13  1  0  0  0
 13 15  1  0  0  0
 13 14  1  0  0  0
 15 16  1  0  0  0
 15 18  1  0  0  0
 16 17  1  0  0  0
 17 18  1  0  0  0
  6  7  1  0  0  0
  7  8  2  0  0  0
  8  9  1  0  0  0
  9 10  1  0  0  0
 27 28  2  0  0  0
 28 29  1  0  0  0
 29 32  1  0  0  0
 32 33  1  0  0  0
M  END
> <minimizedAffinity>
-8.78821

$$$$
