CHEMBL118569


 31 34  0  0  0  0  0  0  0  0999 V2000
  -30.5514   -9.5277   -8.2776 C   0  0  0  0  0  0  0  0  0  0  0  0
  -29.2442   -9.6316   -8.7689 C   0  0  0  0  0  0  0  0  0  0  0  0
  -28.3516   -8.5577   -8.7126 C   0  0  0  0  0  0  0  0  0  0  0  0
  -28.8198   -7.3740   -8.1462 C   0  0  0  0  0  0  0  0  0  0  0  0
  -28.1903   -6.1678   -7.9770 N   0  0  0  0  0  0  0  0  0  0  0  0
  -29.0399   -5.2405   -7.4169 C   0  0  0  0  0  0  0  0  0  0  0  0
  -30.2283   -5.9075   -7.1676 C   0  0  0  0  0  0  0  0  0  0  0  0
  -30.1090   -7.2377   -7.6425 C   0  0  0  0  0  0  0  0  0  0  0  0
  -30.9904   -8.3303   -7.7080 C   0  0  0  0  0  0  0  0  0  0  0  0
  -27.2463   -5.9560   -8.2756 H   0  0  0  0  0  0  0  0  0  0  0  0
  -28.6727   -3.8350   -7.2361 C   0  0  0  0  0  0  0  0  0  0  0  0
  -29.1674   -3.1181   -6.1478 C   0  0  0  0  0  0  0  0  0  0  0  0
  -28.9286   -1.7454   -6.0346 C   0  0  0  0  0  0  0  0  0  0  0  0
  -29.4750   -1.0058   -4.9761 C   0  0  0  0  0  0  0  0  0  0  0  0
  -29.2747    0.3703   -4.9104 C   0  0  0  0  0  0  0  0  0  0  0  0
  -28.5211    1.0019   -5.8933 C   0  0  0  0  0  0  0  0  0  0  0  0
  -27.9602    0.2546   -6.9349 C   0  0  0  0  0  0  0  0  0  0  0  0
  -28.1522   -1.1167   -7.0310 C   0  0  0  0  0  0  0  0  0  0  0  0
  -27.6186   -1.7928   -8.0623 N   0  0  0  0  0  0  0  0  0  0  0  0
  -27.8948   -3.1077   -8.1347 C   0  0  0  0  0  0  0  0  0  0  0  0
  -27.3368   -3.6805   -9.2378 O   0  0  0  0  0  0  0  0  0  0  0  0
  -26.9081   -2.8921   -9.6164 H   0  0  0  0  0  0  0  0  0  0  0  0
  -31.4934  -10.5292   -8.2989 O   0  0  0  0  0  0  0  0  0  0  0  0
  -31.1067  -11.7074   -7.5949 C   0  0  0  0  0  0  0  0  0  0  0  0
  -31.3435  -11.5510   -6.0885 C   0  0  0  0  0  0  0  0  0  0  0  0
  -30.1525  -11.9133   -5.2853 N   0  0  0  0  0  0  0  0  0  0  0  0
  -30.5318  -12.4655   -3.9794 C   0  0  0  0  0  0  0  0  0  0  0  0
  -29.2735  -10.7343   -5.1383 C   0  0  0  0  0  0  0  0  0  0  0  0
  -28.7691  -10.5226   -3.7022 C   0  0  0  0  0  0  0  0  0  0  0  0
  -28.7776   -8.2632   -4.3204 C   0  0  0  0  0  0  0  0  0  0  0  0
  -29.0479   -9.1883   -3.2717 O   0  0  0  0  0  0  0  0  0  0  0  0
 30 31  1  0  0  0
 31 29  1  0  0  0
 29 28  1  0  0  0
 28 26  1  0  0  0
 26 27  1  0  0  0
 26 25  1  0  0  0
 25 24  1  0  0  0
 24 23  1  0  0  0
 23  1  1  0  0  0
  1  2  1  0  0  0
  1  9  2  0  0  0
  2  3  2  0  0  0
  3  4  1  0  0  0
  4  5  1  0  0  0
  4  8  2  0  0  0
  5  6  1  0  0  0
  5 10  1  0  0  0
  6 11  1  0  0  0
  6  7  2  0  0  0
 11 12  1  0  0  0
 11 20  2  0  0  0
 12 13  2  0  0  0
 13 14  1  0  0  0
 13 18  1  0  0  0
 14 15  2  0  0  0
 15 16  1  0  0  0
 16 17  2  0  0  0
 17 18  1  0  0  0
 18 19  2  0  0  0
 19 20  1  0  0  0
 20 21  1  0  0  0
 21 22  1  0  0  0
  7  8  1  0  0  0
  8  9  1  0  0  0
M  END
> <minimizedAffinity>
-8.28016

$$$$
