CHEMBL3976501


 30 31  0  0  0  0  0  0  0  0999 V2000
  -28.1619   -1.7777   -9.2505 N   0  0  0  0  0  0  0  0  0  0  0  0
  -27.2150   -1.9938  -10.2343 C   0  0  0  0  0  0  0  0  0  0  0  0
  -26.4003   -2.9098  -10.2463 O   0  0  0  0  0  0  0  0  0  0  0  0
  -27.2499   -1.0230  -11.2293 N   0  0  0  0  0  0  0  0  0  0  0  0
  -28.8847   -1.1015   -9.4479 H   0  0  0  0  0  0  0  0  0  0  0  0
  -27.4204   -0.0855  -10.8849 H   0  0  0  0  0  0  0  0  0  0  0  0
  -26.3136   -1.1079  -12.2955 C   0  0  0  0  0  0  0  0  0  0  0  0
  -25.0390   -0.5344  -12.1923 C   0  0  0  0  0  0  0  0  0  0  0  0
  -24.1660   -0.5139  -13.2917 C   0  0  0  0  0  0  0  0  0  0  0  0
  -24.5928   -1.0790  -14.5048 C   0  0  0  0  0  0  0  0  0  0  0  0
  -25.8510   -1.6805  -14.6028 C   0  0  0  0  0  0  0  0  0  0  0  0
  -26.6925   -1.7111  -13.4938 C   0  0  0  0  0  0  0  0  0  0  0  0
  -27.9109   -2.2611  -13.6083 F   0  0  0  0  0  0  0  0  0  0  0  0
  -22.7989    0.1190  -13.1827 C   0  0  0  0  0  0  0  0  0  0  0  0
  -22.7990    1.4695  -13.3566 F   0  0  0  0  0  0  0  0  0  0  0  0
  -22.2320   -0.0952  -11.9617 F   0  0  0  0  0  0  0  0  0  0  0  0
  -21.9164   -0.3776  -14.0930 F   0  0  0  0  0  0  0  0  0  0  0  0
  -28.2824   -3.8946   -5.5767 C   0  0  0  0  0  0  0  0  0  0  0  0
  -28.7475   -4.4990   -6.7414 C   0  0  0  0  0  0  0  0  0  0  0  0
  -28.7327   -3.8060   -7.9531 C   0  0  0  0  0  0  0  0  0  0  0  0
  -28.2560   -2.4906   -8.0281 C   0  0  0  0  0  0  0  0  0  0  0  0
  -27.8209   -1.8736   -6.8492 C   0  0  0  0  0  0  0  0  0  0  0  0
  -27.8339   -2.5722   -5.6289 C   0  0  0  0  0  0  0  0  0  0  0  0
  -29.2253   -4.6683   -3.3944 C   0  0  0  0  0  0  0  0  0  0  0  0
  -28.2735   -4.6817   -4.3432 C   0  0  0  0  0  0  0  0  0  0  0  0
  -30.6006   -2.8651   -2.6743 N   0  0  0  0  0  0  0  0  0  0  0  0
  -30.5206   -3.9521   -3.4856 C   0  0  0  0  0  0  0  0  0  0  0  0
  -31.4534   -4.2938   -4.1924 O   0  0  0  0  0  0  0  0  0  0  0  0
  -31.4525   -2.3204   -2.7233 H   0  0  0  0  0  0  0  0  0  0  0  0
  -29.8272   -2.5057   -2.1375 H   0  0  0  0  0  0  0  0  0  0  0  0
 26 27  1  0  0  0
 26 29  1  0  0  0
 26 30  1  0  0  0
 27 28  2  0  0  0
 27 24  1  0  0  0
 24 25  2  0  0  0
 25 18  1  0  0  0
 18 19  1  0  0  0
 18 23  2  0  0  0
 19 20  2  0  0  0
 20 21  1  0  0  0
 21  1  1  0  0  0
 21 22  2  0  0  0
  1  2  1  0  0  0
  1  5  1  0  0  0
  2  3  2  0  0  0
  2  4  1  0  0  0
  4  7  1  0  0  0
  4  6  1  0  0  0
  7  8  1  0  0  0
  7 12  2  0  0  0
  8  9  2  0  0  0
  9 14  1  0  0  0
  9 10  1  0  0  0
 14 15  1  0  0  0
 14 16  1  0  0  0
 14 17  1  0  0  0
 10 11  2  0  0  0
 11 12  1  0  0  0
 12 13  1  0  0  0
 22 23  1  0  0  0
M  END
> <minimizedAffinity>
-9.44466

$$$$
