CHEMBL260092


 37 40  0  0  0  0  0  0  0  0999 V2000
  -22.9273    0.0812  -13.1606 C   0  0  0  0  0  0  0  0  0  0  0  0
  -24.0602    0.6671  -12.6042 C   0  0  0  0  0  0  0  0  0  0  0  0
  -25.0097   -0.1171  -11.9520 C   0  0  0  0  0  0  0  0  0  0  0  0
  -24.8562   -1.4999  -11.8370 C   0  0  0  0  0  0  0  0  0  0  0  0
  -23.6991   -2.0867  -12.3663 C   0  0  0  0  0  0  0  0  0  0  0  0
  -22.7354   -1.2989  -13.0222 C   0  0  0  0  0  0  0  0  0  0  0  0
  -18.6647   -0.5569  -15.3835 N   0  0  0  0  0  0  0  0  0  0  0  0
  -18.6901    0.8377  -15.2172 C   0  0  0  0  0  0  0  0  0  0  0  0
  -17.7188    1.5222  -15.8382 N   0  0  0  0  0  0  0  0  0  0  0  0
  -17.7849    2.8544  -15.7208 C   0  0  0  0  0  0  0  0  0  0  0  0
  -18.7183    3.5527  -15.0599 N   0  0  0  0  0  0  0  0  0  0  0  0
  -19.6863    2.8368  -14.4573 C   0  0  0  0  0  0  0  0  0  0  0  0
  -19.7287    1.4370  -14.4979 C   0  0  0  0  0  0  0  0  0  0  0  0
  -20.6737    0.6126  -13.8258 N   0  0  0  0  0  0  0  0  0  0  0  0
  -21.9337    0.9274  -13.8822 C   0  0  0  0  0  0  0  0  0  0  0  0
  -22.4419    2.1263  -14.6642 C   0  0  0  0  0  0  0  0  0  0  0  0
  -22.0390    3.4146  -13.9651 C   0  0  0  0  0  0  0  0  0  0  0  0
  -20.6085    3.6178  -13.7630 N   0  0  0  0  0  0  0  0  0  0  0  0
  -17.7679   -0.8227  -15.7735 H   0  0  0  0  0  0  0  0  0  0  0  0
  -18.9014   -1.0039  -14.5024 H   0  0  0  0  0  0  0  0  0  0  0  0
  -20.3235    4.5833  -13.9161 H   0  0  0  0  0  0  0  0  0  0  0  0
  -25.8112   -2.3200  -11.1871 N   0  0  0  0  0  0  0  0  0  0  0  0
  -26.5247   -1.9736  -10.0488 C   0  0  0  0  0  0  0  0  0  0  0  0
  -26.4977   -0.8793   -9.4986 O   0  0  0  0  0  0  0  0  0  0  0  0
  -27.2627   -3.0414   -9.5541 N   0  0  0  0  0  0  0  0  0  0  0  0
  -26.1004   -3.1590  -11.6651 H   0  0  0  0  0  0  0  0  0  0  0  0
  -26.8172   -3.9399   -9.6714 H   0  0  0  0  0  0  0  0  0  0  0  0
  -28.0425   -2.8782   -8.3831 C   0  0  0  0  0  0  0  0  0  0  0  0
  -28.9770   -3.8602   -8.0563 C   0  0  0  0  0  0  0  0  0  0  0  0
  -29.6984   -3.7663   -6.8650 C   0  0  0  0  0  0  0  0  0  0  0  0
  -29.5295   -2.6648   -6.0241 C   0  0  0  0  0  0  0  0  0  0  0  0
  -28.6278   -1.6452   -6.3597 C   0  0  0  0  0  0  0  0  0  0  0  0
  -27.8754   -1.7719   -7.5391 C   0  0  0  0  0  0  0  0  0  0  0  0
  -28.4638   -0.4274   -5.4845 C   0  0  0  0  0  0  0  0  0  0  0  0
  -27.9208    0.6396   -6.1383 F   0  0  0  0  0  0  0  0  0  0  0  0
  -29.6385    0.0184   -4.9615 F   0  0  0  0  0  0  0  0  0  0  0  0
  -27.6436   -0.6597   -4.4209 F   0  0  0  0  0  0  0  0  0  0  0  0
  7  8  1  0  0  0
  7 19  1  0  0  0
  7 20  1  0  0  0
  8  9  1  0  0  0
  8 13  2  0  0  0
  9 10  2  0  0  0
 10 11  1  0  0  0
 11 12  2  0  0  0
 12 13  1  0  0  0
 12 18  1  0  0  0
 13 14  1  0  0  0
 14 15  2  0  0  0
 15  1  1  0  0  0
 15 16  1  0  0  0
  1  2  1  0  0  0
  1  6  2  0  0  0
  2  3  2  0  0  0
  3  4  1  0  0  0
  4 22  1  0  0  0
  4  5  2  0  0  0
 22 23  1  0  0  0
 22 26  1  0  0  0
 23 24  2  0  0  0
 23 25  1  0  0  0
 25 28  1  0  0  0
 25 27  1  0  0  0
 28 29  1  0  0  0
 28 33  2  0  0  0
 29 30  2  0  0  0
 30 31  1  0  0  0
 31 32  2  0  0  0
 32 34  1  0  0  0
 32 33  1  0  0  0
 34 35  1  0  0  0
 34 36  1  0  0  0
 34 37  1  0  0  0
  5  6  1  0  0  0
 16 17  1  0  0  0
 17 18  1  0  0  0
 18 21  1  0  0  0
M  END
> <minimizedAffinity>
-10.91487

$$$$
