CHEMBL392330


 25 27  0  0  0  0  0  0  0  0999 V2000
  -28.4152   -2.4656   -7.1625 C   0  0  0  0  0  0  0  0  0  0  0  0
  -28.0799   -1.4951   -6.2270 C   0  0  0  0  0  0  0  0  0  0  0  0
  -28.8699   -1.7574   -5.1010 C   0  0  0  0  0  0  0  0  0  0  0  0
  -29.6845   -2.7892   -5.2924 N   0  0  0  0  0  0  0  0  0  0  0  0
  -29.3928   -3.2286   -6.5405 N   0  0  0  0  0  0  0  0  0  0  0  0
  -27.4639   -3.8451   -8.7912 O   0  0  0  0  0  0  0  0  0  0  0  0
  -27.8315   -2.7193   -8.4691 C   0  0  0  0  0  0  0  0  0  0  0  0
  -27.6802   -1.5978   -9.2746 N   0  0  0  0  0  0  0  0  0  0  0  0
  -27.9689   -0.7064   -8.8936 H   0  0  0  0  0  0  0  0  0  0  0  0
  -27.0481   -1.5518  -10.5453 C   0  0  0  0  0  0  0  0  0  0  0  0
  -27.7566   -1.6186  -11.7464 C   0  0  0  0  0  0  0  0  0  0  0  0
  -27.0938   -1.6380  -12.9754 C   0  0  0  0  0  0  0  0  0  0  0  0
  -25.7021   -1.5919  -13.0230 C   0  0  0  0  0  0  0  0  0  0  0  0
  -24.9506   -1.6605  -14.5756 Cl  0  0  0  0  0  0  0  0  0  0  0  0
  -24.9786   -1.4929  -11.8307 C   0  0  0  0  0  0  0  0  0  0  0  0
  -23.2502   -1.4331  -11.8111 Cl  0  0  0  0  0  0  0  0  0  0  0  0
  -25.6510   -1.4563  -10.5976 C   0  0  0  0  0  0  0  0  0  0  0  0
  -30.0619   -4.4526   -6.9825 C   0  0  0  0  0  0  0  0  0  0  0  0
  -29.2855   -5.7299   -6.6217 C   0  0  0  0  0  0  0  0  0  0  0  0
  -29.7088   -7.0197   -7.3009 C   0  0  0  0  0  0  0  0  0  0  0  0
  -31.0048   -7.5020   -7.0618 C   0  0  0  0  0  0  0  0  0  0  0  0
  -31.4220   -8.6772   -7.6722 C   0  0  0  0  0  0  0  0  0  0  0  0
  -30.6517   -9.3940   -8.5144 N   0  0  0  0  0  0  0  0  0  0  0  0
  -29.4182   -8.9051   -8.7585 C   0  0  0  0  0  0  0  0  0  0  0  0
  -28.9111   -7.7386   -8.1935 C   0  0  0  0  0  0  0  0  0  0  0  0
  6  7  2  0  0  0
  7  8  1  0  0  0
  7  1  1  0  0  0
  8 10  1  0  0  0
  8  9  1  0  0  0
 10 11  1  0  0  0
 10 17  2  0  0  0
 11 12  2  0  0  0
 12 13  1  0  0  0
 13 14  1  0  0  0
 13 15  2  0  0  0
 15 16  1  0  0  0
 15 17  1  0  0  0
  1  2  2  0  0  0
  1  5  1  0  0  0
  2  3  1  0  0  0
  3  4  2  0  0  0
  4  5  1  0  0  0
  5 18  1  0  0  0
 18 19  1  0  0  0
 19 20  1  0  0  0
 20 21  1  0  0  0
 20 25  2  0  0  0
 21 22  2  0  0  0
 22 23  1  0  0  0
 23 24  2  0  0  0
 24 25  1  0  0  0
M  END
> <minimizedAffinity>
-8.21606

$$$$
