CHEMBL4758444


 34 37  0  0  0  0  0  0  0  0999 V2000
  -28.5704   -8.2573   -6.3944 C   0  0  0  0  0  0  0  0  0  0  0  0
  -29.0426   -7.5591   -7.5034 C   0  0  0  0  0  0  0  0  0  0  0  0
  -29.0707   -6.1632   -7.4985 C   0  0  0  0  0  0  0  0  0  0  0  0
  -28.6544   -5.4379   -6.3795 C   0  0  0  0  0  0  0  0  0  0  0  0
  -28.3053   -6.1354   -5.2233 C   0  0  0  0  0  0  0  0  0  0  0  0
  -28.2718   -7.5332   -5.2327 C   0  0  0  0  0  0  0  0  0  0  0  0
  -28.5343   -4.0292   -6.3649 N   0  0  0  0  0  0  0  0  0  0  0  0
  -29.4745   -3.1601   -5.8293 C   0  0  0  0  0  0  0  0  0  0  0  0
  -30.5245   -3.4829   -5.2793 O   0  0  0  0  0  0  0  0  0  0  0  0
  -27.7709   -3.6429   -6.9060 H   0  0  0  0  0  0  0  0  0  0  0  0
  -29.2308   -1.7055   -6.0240 C   0  0  0  0  0  0  0  0  0  0  0  0
  -29.9104   -0.8044   -5.1777 C   0  0  0  0  0  0  0  0  0  0  0  0
  -29.5490    0.5435   -5.1317 C   0  0  0  0  0  0  0  0  0  0  0  0
  -28.4985    1.0043   -5.9162 C   0  0  0  0  0  0  0  0  0  0  0  0
  -27.8352    0.1252   -6.7717 C   0  0  0  0  0  0  0  0  0  0  0  0
  -28.2014   -1.2263   -6.8541 C   0  0  0  0  0  0  0  0  0  0  0  0
  -27.4000   -1.9339   -7.7115 O   0  0  0  0  0  0  0  0  0  0  0  0
  -27.6071   -1.7551   -9.1085 C   0  0  0  0  0  0  0  0  0  0  0  0
  -28.4548   -9.6582   -6.4479 N   0  0  0  0  0  0  0  0  0  0  0  0
  -29.3506  -10.1344   -6.4147 H   0  0  0  0  0  0  0  0  0  0  0  0
  -23.5299  -10.8341   -6.1599 C   0  0  0  0  0  0  0  0  0  0  0  0
  -24.0439  -11.3225   -7.3771 C   0  0  0  0  0  0  0  0  0  0  0  0
  -25.3834  -11.1978   -7.7298 C   0  0  0  0  0  0  0  0  0  0  0  0
  -25.7677  -11.5874   -8.9481 N   0  0  0  0  0  0  0  0  0  0  0  0
  -27.0400  -11.3487   -9.2753 C   0  0  0  0  0  0  0  0  0  0  0  0
  -27.9472  -10.7505   -8.5033 N   0  0  0  0  0  0  0  0  0  0  0  0
  -27.5518  -10.3782   -7.2718 C   0  0  0  0  0  0  0  0  0  0  0  0
  -26.2498  -10.6172   -6.8091 C   0  0  0  0  0  0  0  0  0  0  0  0
  -25.7711  -10.2478   -5.5334 C   0  0  0  0  0  0  0  0  0  0  0  0
  -24.4177  -10.3425   -5.1992 C   0  0  0  0  0  0  0  0  0  0  0  0
  -21.3539  -10.5606   -7.0492 C   0  0  0  0  0  0  0  0  0  0  0  0
  -22.1819  -10.8347   -5.9133 O   0  0  0  0  0  0  0  0  0  0  0  0
  -24.1923   -9.8727   -3.9388 O   0  0  0  0  0  0  0  0  0  0  0  0
  -24.0454  -10.7667   -2.8521 C   0  0  0  0  0  0  0  0  0  0  0  0
 31 32  1  0  0  0
 32 21  1  0  0  0
 21 22  1  0  0  0
 21 30  2  0  0  0
 22 23  2  0  0  0
 23 24  1  0  0  0
 23 28  1  0  0  0
 24 25  2  0  0  0
 25 26  1  0  0  0
 26 27  2  0  0  0
 27 19  1  0  0  0
 27 28  1  0  0  0
 19  1  1  0  0  0
 19 20  1  0  0  0
  1  2  1  0  0  0
  1  6  2  0  0  0
  2  3  2  0  0  0
  3  4  1  0  0  0
  4  7  1  0  0  0
  4  5  2  0  0  0
  7  8  1  0  0  0
  7 10  1  0  0  0
  8  9  2  0  0  0
  8 11  1  0  0  0
 11 12  1  0  0  0
 11 16  2  0  0  0
 12 13  2  0  0  0
 13 14  1  0  0  0
 14 15  2  0  0  0
 15 16  1  0  0  0
 16 17  1  0  0  0
 17 18  1  0  0  0
  5  6  1  0  0  0
 28 29  2  0  0  0
 29 30  1  0  0  0
 30 33  1  0  0  0
 33 34  1  0  0  0
M  END
> <minimizedAffinity>
-8.45305

$$$$
