CHEMBL429845


 41 46  0  0  0  0  0  0  0  0999 V2000
  -14.8422   -0.5970  -14.0655 C   0  0  0  0  0  0  0  0  0  0  0  0
  -13.4179   -0.6638  -13.8918 C   0  0  0  0  0  0  0  0  0  0  0  0
  -12.8575    0.3515  -14.6293 C   0  0  0  0  0  0  0  0  0  0  0  0
  -13.8576    0.9803  -15.3143 N   0  0  0  0  0  0  0  0  0  0  0  0
  -13.6664    2.0056  -16.1533 N   0  0  0  0  0  0  0  0  0  0  0  0
  -14.7564    2.4395  -16.6981 C   0  0  0  0  0  0  0  0  0  0  0  0
  -16.0150    1.9556  -16.4948 N   0  0  0  0  0  0  0  0  0  0  0  0
  -16.2293    0.9761  -15.6641 C   0  0  0  0  0  0  0  0  0  0  0  0
  -15.0679    0.4104  -15.0088 C   0  0  0  0  0  0  0  0  0  0  0  0
  -12.6124   -1.6279  -13.0803 C   0  0  0  0  0  0  0  0  0  0  0  0
  -11.6988   -1.2966  -12.1918 N   0  0  0  0  0  0  0  0  0  0  0  0
  -11.2553   -2.4636  -11.6072 N   0  0  0  0  0  0  0  0  0  0  0  0
  -11.9087   -3.4444  -12.1978 C   0  0  0  0  0  0  0  0  0  0  0  0
  -12.7815   -2.9861  -13.1435 O   0  0  0  0  0  0  0  0  0  0  0  0
  -11.9112   -4.7688  -11.9666 N   0  0  0  0  0  0  0  0  0  0  0  0
  -11.7913   -5.2547  -10.5917 C   0  0  0  0  0  0  0  0  0  0  0  0
  -11.1556   -6.6600  -10.5977 C   0  0  0  0  0  0  0  0  0  0  0  0
  -11.8936   -7.6150  -11.4564 N   0  0  0  0  0  0  0  0  0  0  0  0
  -11.2073   -8.9046  -11.4806 C   0  0  0  0  0  0  0  0  0  0  0  0
  -12.0173   -7.0600  -12.8269 C   0  0  0  0  0  0  0  0  0  0  0  0
  -12.6742   -5.6563  -12.8438 C   0  0  0  0  0  0  0  0  0  0  0  0
  -15.9286   -2.8676  -13.9312 C   0  0  0  0  0  0  0  0  0  0  0  0
  -15.8353   -1.4616  -13.3304 C   0  0  0  0  0  0  0  0  0  0  0  0
  -15.6516   -1.3947  -11.8136 C   0  0  0  0  0  0  0  0  0  0  0  0
  -17.5172    0.5159  -15.4644 N   0  0  0  0  0  0  0  0  0  0  0  0
  -17.6354   -0.4700  -15.2877 H   0  0  0  0  0  0  0  0  0  0  0  0
  -18.6555    1.2546  -15.0695 C   0  0  0  0  0  0  0  0  0  0  0  0
  -19.8956    0.6759  -14.7950 C   0  0  0  0  0  0  0  0  0  0  0  0
  -20.9817    1.4346  -14.3272 C   0  0  0  0  0  0  0  0  0  0  0  0
  -20.8247    2.8101  -14.1664 C   0  0  0  0  0  0  0  0  0  0  0  0
  -21.8348    3.5747  -13.7250 F   0  0  0  0  0  0  0  0  0  0  0  0
  -19.6095    3.4237  -14.4523 C   0  0  0  0  0  0  0  0  0  0  0  0
  -18.5413    2.6429  -14.8869 C   0  0  0  0  0  0  0  0  0  0  0  0
  -17.3702    3.2433  -15.1549 F   0  0  0  0  0  0  0  0  0  0  0  0
  -22.2270    0.6925  -14.0011 C   0  0  0  0  0  0  0  0  0  0  0  0
  -23.1484    0.6754  -14.8139 O   0  0  0  0  0  0  0  0  0  0  0  0
  -22.2929    0.0270  -12.7952 N   0  0  0  0  0  0  0  0  0  0  0  0
  -21.5009    0.0409  -12.1595 H   0  0  0  0  0  0  0  0  0  0  0  0
  -23.4439   -0.7459  -12.4583 C   0  0  0  0  0  0  0  0  0  0  0  0
  -23.3446   -1.8024  -11.3925 C   0  0  0  0  0  0  0  0  0  0  0  0
  -23.5689   -2.1957  -12.8239 C   0  0  0  0  0  0  0  0  0  0  0  0
 22 23  1  0  0  0
 23 24  1  0  0  0
 23  1  1  0  0  0
  1  2  1  0  0  0
  1  9  2  0  0  0
  2 10  1  0  0  0
  2  3  2  0  0  0
 10 11  2  0  0  0
 10 14  1  0  0  0
 11 12  1  0  0  0
 12 13  2  0  0  0
 13 15  1  0  0  0
 13 14  1  0  0  0
 15 16  1  0  0  0
 15 21  1  0  0  0
 16 17  1  0  0  0
 17 18  1  0  0  0
 18 19  1  0  0  0
 18 20  1  0  0  0
 20 21  1  0  0  0
  3  4  1  0  0  0
  4  5  1  0  0  0
  4  9  1  0  0  0
  5  6  2  0  0  0
  6  7  1  0  0  0
  7  8  2  0  0  0
  8 25  1  0  0  0
  8  9  1  0  0  0
 25 27  1  0  0  0
 25 26  1  0  0  0
 27 28  1  0  0  0
 27 33  2  0  0  0
 28 29  2  0  0  0
 29 35  1  0  0  0
 29 30  1  0  0  0
 35 36  2  0  0  0
 35 37  1  0  0  0
 37 39  1  0  0  0
 37 38  1  0  0  0
 39 40  1  0  0  0
 39 41  1  0  0  0
 40 41  1  0  0  0
 30 31  1  0  0  0
 30 32  2  0  0  0
 32 33  1  0  0  0
 33 34  1  0  0  0
M  END
> <minimizedAffinity>
-9.80511

$$$$
