CHEMBL1254924


 29 32  0  0  0  0  0  0  0  0999 V2000
  -27.8062   -2.4645   -5.2180 C   0  0  0  0  0  0  0  0  0  0  0  0
  -27.6847   -1.1548   -4.7434 C   0  0  0  0  0  0  0  0  0  0  0  0
  -27.7039   -0.0904   -5.6312 C   0  0  0  0  0  0  0  0  0  0  0  0
  -27.8925   -0.3226   -6.9859 C   0  0  0  0  0  0  0  0  0  0  0  0
  -28.0524   -1.6183   -7.4926 C   0  0  0  0  0  0  0  0  0  0  0  0
  -28.0212   -2.6932   -6.5882 C   0  0  0  0  0  0  0  0  0  0  0  0
  -28.2702   -1.8787   -8.8735 N   0  0  0  0  0  0  0  0  0  0  0  0
  -27.2943   -1.8394   -9.8595 C   0  0  0  0  0  0  0  0  0  0  0  0
  -26.0949   -1.6815   -9.6557 O   0  0  0  0  0  0  0  0  0  0  0  0
  -27.8286   -1.9452  -11.1418 N   0  0  0  0  0  0  0  0  0  0  0  0
  -29.1680   -2.2590   -9.1399 H   0  0  0  0  0  0  0  0  0  0  0  0
  -28.7357   -1.5159  -11.2480 H   0  0  0  0  0  0  0  0  0  0  0  0
  -26.9594   -1.8415  -12.2604 C   0  0  0  0  0  0  0  0  0  0  0  0
  -25.6003   -1.5430  -12.1006 C   0  0  0  0  0  0  0  0  0  0  0  0
  -24.7938   -1.2966  -13.2118 C   0  0  0  0  0  0  0  0  0  0  0  0
  -25.3425   -1.3463  -14.4902 C   0  0  0  0  0  0  0  0  0  0  0  0
  -26.6859   -1.6851  -14.6578 C   0  0  0  0  0  0  0  0  0  0  0  0
  -27.4892   -1.9604  -13.5466 C   0  0  0  0  0  0  0  0  0  0  0  0
  -27.7850   -3.5645   -4.3777 O   0  0  0  0  0  0  0  0  0  0  0  0
  -30.3450   -2.6835   -2.8631 C   0  0  0  0  0  0  0  0  0  0  0  0
  -30.7098   -3.9656   -3.4218 N   0  0  0  0  0  0  0  0  0  0  0  0
  -31.9291   -4.5718   -3.2344 C   0  0  0  0  0  0  0  0  0  0  0  0
  -31.9211   -5.7604   -3.9295 C   0  0  0  0  0  0  0  0  0  0  0  0
  -30.6618   -5.8700   -4.5606 C   0  0  0  0  0  0  0  0  0  0  0  0
  -30.1976   -6.8624   -5.3470 N   0  0  0  0  0  0  0  0  0  0  0  0
  -28.9571   -6.6463   -5.7990 C   0  0  0  0  0  0  0  0  0  0  0  0
  -28.1587   -5.5970   -5.5452 N   0  0  0  0  0  0  0  0  0  0  0  0
  -28.6129   -4.6357   -4.7087 C   0  0  0  0  0  0  0  0  0  0  0  0
  -29.9123   -4.7454   -4.2271 C   0  0  0  0  0  0  0  0  0  0  0  0
 20 21  1  0  0  0
 21 22  1  0  0  0
 21 29  1  0  0  0
 22 23  2  0  0  0
 23 24  1  0  0  0
 24 25  1  0  0  0
 24 29  2  0  0  0
 25 26  2  0  0  0
 26 27  1  0  0  0
 27 28  2  0  0  0
 28 19  1  0  0  0
 28 29  1  0  0  0
 19  1  1  0  0  0
  1  2  1  0  0  0
  1  6  2  0  0  0
  2  3  2  0  0  0
  3  4  1  0  0  0
  4  5  2  0  0  0
  5  7  1  0  0  0
  5  6  1  0  0  0
  7  8  1  0  0  0
  7 11  1  0  0  0
  8  9  2  0  0  0
  8 10  1  0  0  0
 10 13  1  0  0  0
 10 12  1  0  0  0
 13 14  1  0  0  0
 13 18  2  0  0  0
 14 15  2  0  0  0
 15 16  1  0  0  0
 16 17  2  0  0  0
 17 18  1  0  0  0
M  END
> <minimizedAffinity>
-10.46807

$$$$
