CHEMBL3752129


 27 29  0  0  0  0  0  0  0  0999 V2000
  -15.4808   -3.9226  -11.3584 C   0  0  0  0  0  0  0  0  0  0  0  0
  -15.8366   -2.6789  -11.8816 C   0  0  0  0  0  0  0  0  0  0  0  0
  -15.7485   -2.4143  -13.2387 C   0  0  0  0  0  0  0  0  0  0  0  0
  -15.2546   -3.4050  -14.0950 C   0  0  0  0  0  0  0  0  0  0  0  0
  -14.8352   -4.6563  -13.6006 C   0  0  0  0  0  0  0  0  0  0  0  0
  -15.0020   -4.9335  -12.2204 C   0  0  0  0  0  0  0  0  0  0  0  0
  -16.1001   -1.1718  -13.7816 N   0  0  0  0  0  0  0  0  0  0  0  0
  -15.3007   -0.2056  -14.3518 C   0  0  0  0  0  0  0  0  0  0  0  0
  -14.0710   -0.2330  -14.4421 O   0  0  0  0  0  0  0  0  0  0  0  0
  -15.9560    0.8589  -14.9201 N   0  0  0  0  0  0  0  0  0  0  0  0
  -17.0975   -0.9617  -13.7832 H   0  0  0  0  0  0  0  0  0  0  0  0
  -15.3854    1.5012  -15.4488 H   0  0  0  0  0  0  0  0  0  0  0  0
  -17.3059    1.0191  -14.8997 C   0  0  0  0  0  0  0  0  0  0  0  0
  -18.1997    0.1273  -15.2567 N   0  0  0  0  0  0  0  0  0  0  0  0
  -19.4509    0.6936  -15.2084 C   0  0  0  0  0  0  0  0  0  0  0  0
  -19.4777    2.0162  -14.8208 C   0  0  0  0  0  0  0  0  0  0  0  0
  -17.8874    2.5442  -14.4305 S   0  0  0  0  0  0  0  0  0  0  0  0
  -14.2002   -5.5839  -14.5420 C   0  0  0  0  0  0  0  0  0  0  0  0
  -12.8913   -5.5500  -14.9720 C   0  0  0  0  0  0  0  0  0  0  0  0
  -12.7766   -6.5477  -15.8943 N   0  0  0  0  0  0  0  0  0  0  0  0
  -11.5845   -6.8828  -16.6345 C   0  0  0  0  0  0  0  0  0  0  0  0
  -13.9961   -7.1454  -16.0141 C   0  0  0  0  0  0  0  0  0  0  0  0
  -14.8812   -6.5810  -15.2211 N   0  0  0  0  0  0  0  0  0  0  0  0
  -14.4931   -3.5286   -9.2258 C   0  0  0  0  0  0  0  0  0  0  0  0
  -15.5063   -4.1589  -10.0059 O   0  0  0  0  0  0  0  0  0  0  0  0
  -14.6397   -6.1890  -11.7904 O   0  0  0  0  0  0  0  0  0  0  0  0
  -13.3233   -6.3452  -11.2760 C   0  0  0  0  0  0  0  0  0  0  0  0
 24 25  1  0  0  0
 25  1  1  0  0  0
  1  2  1  0  0  0
  1  6  2  0  0  0
  2  3  2  0  0  0
  3  7  1  0  0  0
  3  4  1  0  0  0
  7  8  1  0  0  0
  7 11  1  0  0  0
  8  9  2  0  0  0
  8 10  1  0  0  0
 10 13  1  0  0  0
 10 12  1  0  0  0
 13 14  2  0  0  0
 13 17  1  0  0  0
 14 15  1  0  0  0
 15 16  2  0  0  0
 16 17  1  0  0  0
  4  5  2  0  0  0
  5 18  1  0  0  0
  5  6  1  0  0  0
 18 19  2  0  0  0
 18 23  1  0  0  0
 19 20  1  0  0  0
 20 21  1  0  0  0
 20 22  1  0  0  0
 22 23  2  0  0  0
  6 26  1  0  0  0
 26 27  1  0  0  0
M  END
> <minimizedAffinity>
-6.14078

$$$$
