CHEMBL2004513


 28 31  0  0  0  0  0  0  0  0999 V2000
  -28.7893   -8.3514   -7.4385 C   0  0  0  0  0  0  0  0  0  0  0  0
  -28.4768   -8.8513   -6.1615 C   0  0  0  0  0  0  0  0  0  0  0  0
  -28.9537   -8.2398   -4.9965 C   0  0  0  0  0  0  0  0  0  0  0  0
  -29.6298   -7.0326   -5.0848 C   0  0  0  0  0  0  0  0  0  0  0  0
  -29.6184   -6.3420   -6.3044 C   0  0  0  0  0  0  0  0  0  0  0  0
  -29.3176   -7.0470   -7.4749 C   0  0  0  0  0  0  0  0  0  0  0  0
  -29.8408   -4.9278   -6.3994 N   0  0  0  0  0  0  0  0  0  0  0  0
  -29.8594   -4.1097   -5.2276 C   0  0  0  0  0  0  0  0  0  0  0  0
  -28.7460   -3.3521   -4.8663 C   0  0  0  0  0  0  0  0  0  0  0  0
  -28.7390   -2.6539   -3.6526 C   0  0  0  0  0  0  0  0  0  0  0  0
  -29.8616   -2.6648   -2.8198 C   0  0  0  0  0  0  0  0  0  0  0  0
  -30.9325   -3.5010   -3.1146 C   0  0  0  0  0  0  0  0  0  0  0  0
  -30.8643   -4.2882   -4.2585 C   0  0  0  0  0  0  0  0  0  0  0  0
  -31.4349   -5.5981   -4.2042 N   0  0  0  0  0  0  0  0  0  0  0  0
  -30.4075   -6.5266   -3.9028 C   0  0  0  0  0  0  0  0  0  0  0  0
  -30.1463   -6.9010   -2.7645 O   0  0  0  0  0  0  0  0  0  0  0  0
  -30.7118   -4.7923   -6.9156 H   0  0  0  0  0  0  0  0  0  0  0  0
  -31.7717   -5.8202   -5.1349 H   0  0  0  0  0  0  0  0  0  0  0  0
  -29.4135  -10.1963   -9.1364 C   0  0  0  0  0  0  0  0  0  0  0  0
  -29.1190  -10.9255  -10.3077 C   0  0  0  0  0  0  0  0  0  0  0  0
  -28.0216  -10.5957  -11.0930 C   0  0  0  0  0  0  0  0  0  0  0  0
  -27.2075   -9.5406  -10.7117 C   0  0  0  0  0  0  0  0  0  0  0  0
  -27.4638   -8.8465   -9.5226 C   0  0  0  0  0  0  0  0  0  0  0  0
  -28.5655   -9.1472   -8.6876 C   0  0  0  0  0  0  0  0  0  0  0  0
  -30.7230  -10.5041   -8.5027 C   0  0  0  0  0  0  0  0  0  0  0  0
  -30.9578  -11.5100   -7.8557 O   0  0  0  0  0  0  0  0  0  0  0  0
  -32.4234   -9.1501   -7.6578 C   0  0  0  0  0  0  0  0  0  0  0  0
  -31.5963   -9.4965   -8.7600 O   0  0  0  0  0  0  0  0  0  0  0  0
 27 28  1  0  0  0
 28 25  1  0  0  0
 25 26  2  0  0  0
 25 19  1  0  0  0
 19 20  1  0  0  0
 19 24  2  0  0  0
 20 21  2  0  0  0
 21 22  1  0  0  0
 22 23  2  0  0  0
 23 24  1  0  0  0
 24  1  1  0  0  0
  1  2  1  0  0  0
  1  6  2  0  0  0
  2  3  2  0  0  0
  3  4  1  0  0  0
  4  5  2  0  0  0
  4 15  1  0  0  0
  5  6  1  0  0  0
  5  7  1  0  0  0
  7  8  1  0  0  0
  7 17  1  0  0  0
  8  9  1  0  0  0
  8 13  2  0  0  0
  9 10  2  0  0  0
 10 11  1  0  0  0
 11 12  2  0  0  0
 12 13  1  0  0  0
 13 14  1  0  0  0
 14 15  1  0  0  0
 14 18  1  0  0  0
 15 16  2  0  0  0
M  END
> <minimizedAffinity>
-8.71781

$$$$
