CHEMBL3690577


 31 34  0  0  0  0  0  0  0  0999 V2000
  -14.9603    0.6439  -14.1343 C   0  0  0  0  0  0  0  0  0  0  0  0
  -13.6779    1.0457  -13.7826 C   0  0  0  0  0  0  0  0  0  0  0  0
  -12.9241    0.0124  -13.2984 N   0  0  0  0  0  0  0  0  0  0  0  0
  -13.7242   -1.0293  -13.3205 C   0  0  0  0  0  0  0  0  0  0  0  0
  -13.4884   -2.3730  -12.9158 C   0  0  0  0  0  0  0  0  0  0  0  0
  -14.4583   -3.3150  -13.0088 C   0  0  0  0  0  0  0  0  0  0  0  0
  -15.7872   -2.9142  -13.4903 C   0  0  0  0  0  0  0  0  0  0  0  0
  -16.0255   -1.6406  -13.8387 C   0  0  0  0  0  0  0  0  0  0  0  0
  -14.9929   -0.7028  -13.7887 N   0  0  0  0  0  0  0  0  0  0  0  0
  -14.1974   -4.6902  -12.5126 C   0  0  0  0  0  0  0  0  0  0  0  0
  -14.0033   -4.9779  -11.1620 C   0  0  0  0  0  0  0  0  0  0  0  0
  -13.8620   -6.3053  -10.7687 C   0  0  0  0  0  0  0  0  0  0  0  0
  -13.8867   -7.3001  -11.7332 C   0  0  0  0  0  0  0  0  0  0  0  0
  -13.7750   -8.5814  -11.3601 F   0  0  0  0  0  0  0  0  0  0  0  0
  -14.0255   -6.9491  -13.0692 C   0  0  0  0  0  0  0  0  0  0  0  0
  -14.0094   -7.9875  -14.1476 C   0  0  0  0  0  0  0  0  0  0  0  0
  -14.1789   -5.6586  -13.4661 N   0  0  0  0  0  0  0  0  0  0  0  0
  -18.4157    2.1167  -14.6984 C   0  0  0  0  0  0  0  0  0  0  0  0
  -18.1321    3.0350  -15.7099 C   0  0  0  0  0  0  0  0  0  0  0  0
  -16.8477    3.1254  -16.2448 C   0  0  0  0  0  0  0  0  0  0  0  0
  -15.8213    2.3325  -15.7355 C   0  0  0  0  0  0  0  0  0  0  0  0
  -16.0654    1.4363  -14.6863 C   0  0  0  0  0  0  0  0  0  0  0  0
  -17.3807    1.3133  -14.2067 C   0  0  0  0  0  0  0  0  0  0  0  0
  -21.8195    1.1643  -13.8183 N   0  0  0  0  0  0  0  0  0  0  0  0
  -20.6287    1.0244  -14.5089 C   0  0  0  0  0  0  0  0  0  0  0  0
  -20.4555    0.1311  -15.3270 O   0  0  0  0  0  0  0  0  0  0  0  0
  -19.7003    1.9660  -14.1288 N   0  0  0  0  0  0  0  0  0  0  0  0
  -22.0939    2.1187  -13.6398 H   0  0  0  0  0  0  0  0  0  0  0  0
  -19.8655    2.3953  -13.2304 H   0  0  0  0  0  0  0  0  0  0  0  0
  -22.9911   -0.8996  -13.1293 C   0  0  0  0  0  0  0  0  0  0  0  0
  -22.8709    0.2189  -14.1411 C   0  0  0  0  0  0  0  0  0  0  0  0
 30 31  1  0  0  0
 31 24  1  0  0  0
 24 25  1  0  0  0
 24 28  1  0  0  0
 25 26  2  0  0  0
 25 27  1  0  0  0
 27 18  1  0  0  0
 27 29  1  0  0  0
 18 19  1  0  0  0
 18 23  2  0  0  0
 19 20  2  0  0  0
 20 21  1  0  0  0
 21 22  2  0  0  0
 22  1  1  0  0  0
 22 23  1  0  0  0
  1  2  2  0  0  0
  1  9  1  0  0  0
  2  3  1  0  0  0
  3  4  2  0  0  0
  4  5  1  0  0  0
  4  9  1  0  0  0
  5  6  2  0  0  0
  6 10  1  0  0  0
  6  7  1  0  0  0
 10 11  1  0  0  0
 10 17  2  0  0  0
 11 12  2  0  0  0
 12 13  1  0  0  0
 13 14  1  0  0  0
 13 15  2  0  0  0
 15 16  1  0  0  0
 15 17  1  0  0  0
  7  8  2  0  0  0
  8  9  1  0  0  0
M  END
> <minimizedAffinity>
-8.68876

$$$$
