CHEMBL2063878


 32 34  0  0  0  0  0  0  0  0999 V2000
  -13.6682   -1.2225  -13.8568 C   0  0  0  0  0  0  0  0  0  0  0  0
  -13.5808   -0.5796  -15.0869 C   0  0  0  0  0  0  0  0  0  0  0  0
  -12.5187   -0.4998  -16.1252 C   0  0  0  0  0  0  0  0  0  0  0  0
  -14.7912    0.0314  -15.3274 N   0  0  0  0  0  0  0  0  0  0  0  0
  -15.6821   -0.2215  -14.3163 C   0  0  0  0  0  0  0  0  0  0  0  0
  -15.0137   -1.0016  -13.3800 C   0  0  0  0  0  0  0  0  0  0  0  0
  -15.5655   -1.5370  -12.0977 C   0  0  0  0  0  0  0  0  0  0  0  0
  -14.9994    0.5631  -16.1680 H   0  0  0  0  0  0  0  0  0  0  0  0
  -17.0171    0.2618  -14.3339 C   0  0  0  0  0  0  0  0  0  0  0  0
  -17.5049    1.4459  -14.7345 C   0  0  0  0  0  0  0  0  0  0  0  0
  -16.8295    2.6732  -15.2948 C   0  0  0  0  0  0  0  0  0  0  0  0
  -15.6458    2.8461  -15.5161 O   0  0  0  0  0  0  0  0  0  0  0  0
  -17.8503    3.5879  -15.5105 N   0  0  0  0  0  0  0  0  0  0  0  0
  -19.0868    3.0665  -15.1491 C   0  0  0  0  0  0  0  0  0  0  0  0
  -20.3120    3.6977  -15.2283 C   0  0  0  0  0  0  0  0  0  0  0  0
  -21.4366    2.9798  -14.8039 C   0  0  0  0  0  0  0  0  0  0  0  0
  -21.3045    1.6679  -14.3216 C   0  0  0  0  0  0  0  0  0  0  0  0
  -22.9941    0.6238  -13.6978 I   0  0  0  0  0  0  0  0  0  0  0  0
  -20.0558    1.0455  -14.2548 C   0  0  0  0  0  0  0  0  0  0  0  0
  -18.9452    1.7626  -14.6717 C   0  0  0  0  0  0  0  0  0  0  0  0
  -17.6836    4.5100  -15.8848 H   0  0  0  0  0  0  0  0  0  0  0  0
  -12.6797   -3.3887  -13.4577 N   0  0  0  0  0  0  0  0  0  0  0  0
  -12.6532   -2.0395  -13.1810 C   0  0  0  0  0  0  0  0  0  0  0  0
  -11.8037   -1.5465  -12.4422 O   0  0  0  0  0  0  0  0  0  0  0  0
  -13.1662   -3.6990  -14.2895 H   0  0  0  0  0  0  0  0  0  0  0  0
  -11.6844   -4.2619  -12.8742 C   0  0  0  0  0  0  0  0  0  0  0  0
  -12.1641   -4.9779  -11.5981 C   0  0  0  0  0  0  0  0  0  0  0  0
  -13.6160   -5.2745  -11.5387 N   0  0  0  0  0  0  0  0  0  0  0  0
  -14.6081   -7.2614  -12.7495 C   0  0  0  0  0  0  0  0  0  0  0  0
  -13.8691   -6.7273  -11.5265 C   0  0  0  0  0  0  0  0  0  0  0  0
  -14.2563   -4.5520  -10.4219 C   0  0  0  0  0  0  0  0  0  0  0  0
  -13.3408   -3.7130   -9.5296 C   0  0  0  0  0  0  0  0  0  0  0  0
 29 30  1  0  0  0
 30 28  1  0  0  0
 28 31  1  0  0  0
 28 27  1  0  0  0
 31 32  1  0  0  0
 27 26  1  0  0  0
 26 22  1  0  0  0
 22 23  1  0  0  0
 22 25  1  0  0  0
 23 24  2  0  0  0
 23  1  1  0  0  0
  1  2  2  0  0  0
  1  6  1  0  0  0
  2  3  1  0  0  0
  2  4  1  0  0  0
  4  5  1  0  0  0
  4  8  1  0  0  0
  5  9  1  0  0  0
  5  6  2  0  0  0
  9 10  2  0  0  0
 10 11  1  0  0  0
 10 20  1  0  0  0
 11 12  2  0  0  0
 11 13  1  0  0  0
 13 14  1  0  0  0
 13 21  1  0  0  0
 14 15  1  0  0  0
 14 20  2  0  0  0
 15 16  2  0  0  0
 16 17  1  0  0  0
 17 18  1  0  0  0
 17 19  2  0  0  0
 19 20  1  0  0  0
  6  7  1  0  0  0
M  END
> <minimizedAffinity>
-7.66144

$$$$
