CHEMBL1254753


 33 36  0  0  0  0  0  0  0  0999 V2000
  -23.2259   -0.8589  -13.6415 C   0  0  0  0  0  0  0  0  0  0  0  0
  -24.4663   -1.0128  -14.2443 C   0  0  0  0  0  0  0  0  0  0  0  0
  -25.5527   -1.4878  -13.5158 C   0  0  0  0  0  0  0  0  0  0  0  0
  -25.4382   -1.8611  -12.1741 C   0  0  0  0  0  0  0  0  0  0  0  0
  -24.1715   -1.7596  -11.5813 C   0  0  0  0  0  0  0  0  0  0  0  0
  -23.0713   -1.2626  -12.3119 C   0  0  0  0  0  0  0  0  0  0  0  0
  -26.5450   -2.3385  -11.4117 N   0  0  0  0  0  0  0  0  0  0  0  0
  -26.7841   -2.0090  -10.0878 C   0  0  0  0  0  0  0  0  0  0  0  0
  -26.0745   -1.2716   -9.3957 O   0  0  0  0  0  0  0  0  0  0  0  0
  -27.8968   -2.6227   -9.5380 N   0  0  0  0  0  0  0  0  0  0  0  0
  -27.2237   -2.9116  -11.8917 H   0  0  0  0  0  0  0  0  0  0  0  0
  -28.0555   -3.5693   -9.8546 H   0  0  0  0  0  0  0  0  0  0  0  0
  -28.2192   -2.3589   -8.1788 C   0  0  0  0  0  0  0  0  0  0  0  0
  -28.6230   -3.4070   -7.3513 C   0  0  0  0  0  0  0  0  0  0  0  0
  -29.0632   -3.1491   -6.0507 C   0  0  0  0  0  0  0  0  0  0  0  0
  -29.1185   -1.8392   -5.5790 C   0  0  0  0  0  0  0  0  0  0  0  0
  -28.6868   -0.7736   -6.3829 C   0  0  0  0  0  0  0  0  0  0  0  0
  -28.2079   -1.0477   -7.6804 C   0  0  0  0  0  0  0  0  0  0  0  0
  -28.7897    0.6453   -5.8817 C   0  0  0  0  0  0  0  0  0  0  0  0
  -28.5467    1.5742   -6.8515 F   0  0  0  0  0  0  0  0  0  0  0  0
  -30.0153    0.9486   -5.3770 F   0  0  0  0  0  0  0  0  0  0  0  0
  -27.8948    0.9144   -4.8896 F   0  0  0  0  0  0  0  0  0  0  0  0
  -22.1185   -0.3892  -14.3136 O   0  0  0  0  0  0  0  0  0  0  0  0
  -19.2939   -0.4563  -15.4962 C   0  0  0  0  0  0  0  0  0  0  0  0
  -19.4979    0.9465  -15.2104 N   0  0  0  0  0  0  0  0  0  0  0  0
  -18.5557    1.9259  -15.4093 C   0  0  0  0  0  0  0  0  0  0  0  0
  -19.1183    3.1328  -15.0551 C   0  0  0  0  0  0  0  0  0  0  0  0
  -20.4393    2.8717  -14.6272 C   0  0  0  0  0  0  0  0  0  0  0  0
  -21.3752    3.7432  -14.1965 N   0  0  0  0  0  0  0  0  0  0  0  0
  -22.5181    3.1562  -13.8286 C   0  0  0  0  0  0  0  0  0  0  0  0
  -22.8049    1.8446  -13.8351 N   0  0  0  0  0  0  0  0  0  0  0  0
  -21.8745    0.9830  -14.3081 C   0  0  0  0  0  0  0  0  0  0  0  0
  -20.6513    1.5005  -14.7074 C   0  0  0  0  0  0  0  0  0  0  0  0
 24 25  1  0  0  0
 25 26  1  0  0  0
 25 33  1  0  0  0
 26 27  2  0  0  0
 27 28  1  0  0  0
 28 29  1  0  0  0
 28 33  2  0  0  0
 29 30  2  0  0  0
 30 31  1  0  0  0
 31 32  2  0  0  0
 32 23  1  0  0  0
 32 33  1  0  0  0
 23  1  1  0  0  0
  1  2  1  0  0  0
  1  6  2  0  0  0
  2  3  2  0  0  0
  3  4  1  0  0  0
  4  7  1  0  0  0
  4  5  2  0  0  0
  7  8  1  0  0  0
  7 11  1  0  0  0
  8  9  2  0  0  0
  8 10  1  0  0  0
 10 13  1  0  0  0
 10 12  1  0  0  0
 13 14  1  0  0  0
 13 18  2  0  0  0
 14 15  2  0  0  0
 15 16  1  0  0  0
 16 17  2  0  0  0
 17 19  1  0  0  0
 17 18  1  0  0  0
 19 20  1  0  0  0
 19 21  1  0  0  0
 19 22  1  0  0  0
  5  6  1  0  0  0
M  END
> <minimizedAffinity>
-11.38989

$$$$
