CHEMBL3671519


 36 38  0  0  0  0  0  0  0  0999 V2000
  -29.2379   -8.8041   -5.1655 C   0  0  0  0  0  0  0  0  0  0  0  0
  -28.5506   -9.8722   -5.7435 C   0  0  0  0  0  0  0  0  0  0  0  0
  -27.1665  -10.0240   -5.5235 C   0  0  0  0  0  0  0  0  0  0  0  0
  -26.3541  -10.9393   -6.2094 C   0  0  0  0  0  0  0  0  0  0  0  0
  -25.0284  -11.0119   -5.9865 N   0  0  0  0  0  0  0  0  0  0  0  0
  -24.5112  -10.1571   -5.1052 C   0  0  0  0  0  0  0  0  0  0  0  0
  -25.1846   -9.2217   -4.4293 N   0  0  0  0  0  0  0  0  0  0  0  0
  -26.5000   -9.1525   -4.6489 C   0  0  0  0  0  0  0  0  0  0  0  0
  -27.2272   -8.1474   -4.0212 C   0  0  0  0  0  0  0  0  0  0  0  0
  -28.5945   -7.9651   -4.2487 C   0  0  0  0  0  0  0  0  0  0  0  0
  -30.6291   -7.8007   -6.9004 C   0  0  0  0  0  0  0  0  0  0  0  0
  -31.6936   -7.8278   -7.5107 O   0  0  0  0  0  0  0  0  0  0  0  0
  -30.4956   -8.4669   -5.7011 N   0  0  0  0  0  0  0  0  0  0  0  0
  -31.2165   -9.1803   -5.6462 H   0  0  0  0  0  0  0  0  0  0  0  0
  -28.7458   -7.6571   -8.4508 C   0  0  0  0  0  0  0  0  0  0  0  0
  -29.4266   -7.1070   -7.4383 C   0  0  0  0  0  0  0  0  0  0  0  0
  -26.9094  -11.7554   -7.2309 N   0  0  0  0  0  0  0  0  0  0  0  0
  -26.3655  -12.6065   -7.3512 H   0  0  0  0  0  0  0  0  0  0  0  0
  -27.3689  -11.2417   -8.4674 C   0  0  0  0  0  0  0  0  0  0  0  0
  -26.5044  -10.5321   -9.3133 C   0  0  0  0  0  0  0  0  0  0  0  0
  -26.9083  -10.1544  -10.5939 C   0  0  0  0  0  0  0  0  0  0  0  0
  -28.1969  -10.4610  -11.0260 C   0  0  0  0  0  0  0  0  0  0  0  0
  -28.6999  -10.0586  -12.8027 Br  0  0  0  0  0  0  0  0  0  0  0  0
  -29.1015  -11.0864  -10.1715 C   0  0  0  0  0  0  0  0  0  0  0  0
  -28.6825  -11.4609   -8.8973 C   0  0  0  0  0  0  0  0  0  0  0  0
  -29.5464  -12.0901   -8.0847 F   0  0  0  0  0  0  0  0  0  0  0  0
  -29.1586   -6.9044   -3.5830 O   0  0  0  0  0  0  0  0  0  0  0  0
  -28.8786   -5.6158   -4.1458 C   0  0  0  0  0  0  0  0  0  0  0  0
  -30.1814   -4.8932   -4.4980 C   0  0  0  0  0  0  0  0  0  0  0  0
  -30.0506   -3.4435   -4.3751 N   0  0  0  0  0  0  0  0  0  0  0  0
  -29.7804   -2.6709   -5.4807 C   0  0  0  0  0  0  0  0  0  0  0  0
  -29.7771   -3.1214   -6.6280 O   0  0  0  0  0  0  0  0  0  0  0  0
  -29.9032   -3.0538   -3.4509 H   0  0  0  0  0  0  0  0  0  0  0  0
  -29.4401   -1.2201   -5.1832 C   0  0  0  0  0  0  0  0  0  0  0  0
  -28.1641   -0.6050   -6.3307 S   0  0  0  0  0  0  0  0  0  0  0  0
  -28.7105    1.1171   -6.4969 C   0  0  0  0  0  0  0  0  0  0  0  0
 15 16  2  0  0  0
 16 11  1  0  0  0
 11 12  2  0  0  0
 11 13  1  0  0  0
 13  1  1  0  0  0
 13 14  1  0  0  0
  1  2  1  0  0  0
  1 10  2  0  0  0
  2  3  2  0  0  0
  3  4  1  0  0  0
  3  8  1  0  0  0
  4 17  1  0  0  0
  4  5  2  0  0  0
 17 19  1  0  0  0
 17 18  1  0  0  0
 19 20  1  0  0  0
 19 25  2  0  0  0
 20 21  2  0  0  0
 21 22  1  0  0  0
 22 23  1  0  0  0
 22 24  2  0  0  0
 24 25  1  0  0  0
 25 26  1  0  0  0
  5  6  1  0  0  0
  6  7  2  0  0  0
  7  8  1  0  0  0
  8  9  2  0  0  0
  9 10  1  0  0  0
 10 27  1  0  0  0
 27 28  1  0  0  0
 28 29  1  0  0  0
 29 30  1  0  0  0
 30 31  1  0  0  0
 30 33  1  0  0  0
 31 32  2  0  0  0
 31 34  1  0  0  0
 34 35  1  0  0  0
 35 36  1  0  0  0
M  END
> <minimizedAffinity>
-6.98461

$$$$
