CHEMBL1984044


 29 31  0  0  0  0  0  0  0  0999 V2000
  -17.3266    2.1717  -15.8973 C   0  0  0  0  0  0  0  0  0  0  0  0
  -16.7591    3.1595  -16.5822 N   0  0  0  0  0  0  0  0  0  0  0  0
  -15.5327    2.6737  -17.0497 C   0  0  0  0  0  0  0  0  0  0  0  0
  -14.4954    3.2457  -17.8329 C   0  0  0  0  0  0  0  0  0  0  0  0
  -13.3955    2.4347  -18.1932 C   0  0  0  0  0  0  0  0  0  0  0  0
  -13.2997    1.1087  -17.7776 C   0  0  0  0  0  0  0  0  0  0  0  0
  -14.2877    0.5427  -16.9747 C   0  0  0  0  0  0  0  0  0  0  0  0
  -15.3768    1.3510  -16.6366 C   0  0  0  0  0  0  0  0  0  0  0  0
  -16.4856    1.0837  -15.8801 N   0  0  0  0  0  0  0  0  0  0  0  0
  -16.6915    0.1989  -15.4425 H   0  0  0  0  0  0  0  0  0  0  0  0
  -21.3542    2.0306  -14.3186 C   0  0  0  0  0  0  0  0  0  0  0  0
  -20.6720    3.2413  -14.4607 C   0  0  0  0  0  0  0  0  0  0  0  0
  -19.3465    3.2788  -14.9372 C   0  0  0  0  0  0  0  0  0  0  0  0
  -18.6711    2.1078  -15.2913 C   0  0  0  0  0  0  0  0  0  0  0  0
  -19.3522    0.8896  -15.1177 C   0  0  0  0  0  0  0  0  0  0  0  0
  -20.6728    0.8523  -14.6287 C   0  0  0  0  0  0  0  0  0  0  0  0
  -22.6453    1.8834  -13.8628 O   0  0  0  0  0  0  0  0  0  0  0  0
  -23.1040    0.5280  -13.7055 C   0  0  0  0  0  0  0  0  0  0  0  0
  -23.9562    0.3603  -12.4228 C   0  0  0  0  0  0  0  0  0  0  0  0
  -24.6988   -0.9249  -12.3238 N   0  0  0  0  0  0  0  0  0  0  0  0
  -26.4194   -1.6530  -10.6080 C   0  0  0  0  0  0  0  0  0  0  0  0
  -26.0402   -0.7014  -11.7456 C   0  0  0  0  0  0  0  0  0  0  0  0
  -24.7230   -1.7064  -13.5702 C   0  0  0  0  0  0  0  0  0  0  0  0
  -26.0211   -1.6601  -14.3700 C   0  0  0  0  0  0  0  0  0  0  0  0
  -14.4694    4.6555  -18.2943 C   0  0  0  0  0  0  0  0  0  0  0  0
  -14.8083    5.6224  -17.3998 N   0  0  0  0  0  0  0  0  0  0  0  0
  -14.1163    4.9545  -19.4348 O   0  0  0  0  0  0  0  0  0  0  0  0
  -15.1048    5.3961  -16.4544 H   0  0  0  0  0  0  0  0  0  0  0  0
  -14.7376    6.5873  -17.6904 H   0  0  0  0  0  0  0  0  0  0  0  0
 21 22  1  0  0  0
 22 20  1  0  0  0
 20 23  1  0  0  0
 20 19  1  0  0  0
 23 24  1  0  0  0
 19 18  1  0  0  0
 18 17  1  0  0  0
 17 11  1  0  0  0
 11 12  1  0  0  0
 11 16  2  0  0  0
 12 13  2  0  0  0
 13 14  1  0  0  0
 14  1  1  0  0  0
 14 15  2  0  0  0
  1  2  2  0  0  0
  1  9  1  0  0  0
  2  3  1  0  0  0
  3  4  1  0  0  0
  3  8  2  0  0  0
  4 25  1  0  0  0
  4  5  2  0  0  0
 25 26  1  0  0  0
 25 27  2  0  0  0
 26 28  1  0  0  0
 26 29  1  0  0  0
  5  6  1  0  0  0
  6  7  2  0  0  0
  7  8  1  0  0  0
  8  9  1  0  0  0
  9 10  1  0  0  0
 15 16  1  0  0  0
M  END
> <minimizedAffinity>
-7.67120

$$$$
