CHEMBL257836


 35 39  0  0  0  0  0  0  0  0999 V2000
  -13.5627   -3.7543  -14.5026 C   0  0  0  0  0  0  0  0  0  0  0  0
  -12.5462   -3.3743  -15.3399 C   0  0  0  0  0  0  0  0  0  0  0  0
  -12.6285   -2.0278  -15.5144 N   0  0  0  0  0  0  0  0  0  0  0  0
  -11.8081   -1.3405  -16.3212 N   0  0  0  0  0  0  0  0  0  0  0  0
  -12.0001   -0.0667  -16.3010 C   0  0  0  0  0  0  0  0  0  0  0  0
  -12.9127    0.6020  -15.5373 N   0  0  0  0  0  0  0  0  0  0  0  0
  -13.7301   -0.0514  -14.7576 C   0  0  0  0  0  0  0  0  0  0  0  0
  -13.6390   -1.4975  -14.7445 C   0  0  0  0  0  0  0  0  0  0  0  0
  -14.2921   -2.5650  -14.1031 C   0  0  0  0  0  0  0  0  0  0  0  0
  -13.7011   -7.8082  -11.7250 C   0  0  0  0  0  0  0  0  0  0  0  0
  -13.8488   -6.9677  -12.9228 C   0  0  0  0  0  0  0  0  0  0  0  0
  -14.4955   -7.2256  -14.0354 N   0  0  0  0  0  0  0  0  0  0  0  0
  -14.4498   -6.0695  -14.7743 N   0  0  0  0  0  0  0  0  0  0  0  0
  -13.7714   -5.1762  -14.0781 C   0  0  0  0  0  0  0  0  0  0  0  0
  -13.3232   -5.7049  -12.8858 O   0  0  0  0  0  0  0  0  0  0  0  0
  -15.4313   -2.6287  -13.0935 C   0  0  0  0  0  0  0  0  0  0  0  0
  -16.5252   -3.5998  -13.5460 C   0  0  0  0  0  0  0  0  0  0  0  0
  -15.0827   -2.8544  -11.6311 C   0  0  0  0  0  0  0  0  0  0  0  0
  -14.6388    0.6759  -14.0138 N   0  0  0  0  0  0  0  0  0  0  0  0
  -14.8867    0.1990  -13.1509 H   0  0  0  0  0  0  0  0  0  0  0  0
  -15.7824    1.3077  -14.5736 C   0  0  0  0  0  0  0  0  0  0  0  0
  -17.0411    0.6856  -14.5995 C   0  0  0  0  0  0  0  0  0  0  0  0
  -18.1593    1.3174  -15.1783 C   0  0  0  0  0  0  0  0  0  0  0  0
  -17.9907    2.5765  -15.7576 C   0  0  0  0  0  0  0  0  0  0  0  0
  -19.0221    3.2207  -16.3249 F   0  0  0  0  0  0  0  0  0  0  0  0
  -16.7469    3.2020  -15.7689 C   0  0  0  0  0  0  0  0  0  0  0  0
  -15.6587    2.5614  -15.1857 C   0  0  0  0  0  0  0  0  0  0  0  0
  -14.4644    3.1733  -15.1921 F   0  0  0  0  0  0  0  0  0  0  0  0
  -19.4675    0.6081  -15.1344 C   0  0  0  0  0  0  0  0  0  0  0  0
  -19.5641   -0.5104  -15.6345 O   0  0  0  0  0  0  0  0  0  0  0  0
  -20.5308    1.2476  -14.5198 N   0  0  0  0  0  0  0  0  0  0  0  0
  -20.4008    2.1788  -14.1382 H   0  0  0  0  0  0  0  0  0  0  0  0
  -21.8190    0.6388  -14.3974 C   0  0  0  0  0  0  0  0  0  0  0  0
  -22.9293    1.3187  -13.6447 C   0  0  0  0  0  0  0  0  0  0  0  0
  -22.2797    0.0927  -13.0741 C   0  0  0  0  0  0  0  0  0  0  0  0
 10 11  1  0  0  0
 11 12  2  0  0  0
 11 15  1  0  0  0
 12 13  1  0  0  0
 13 14  2  0  0  0
 14  1  1  0  0  0
 14 15  1  0  0  0
  1  2  2  0  0  0
  1  9  1  0  0  0
  2  3  1  0  0  0
  3  4  1  0  0  0
  3  8  1  0  0  0
  4  5  2  0  0  0
  5  6  1  0  0  0
  6  7  2  0  0  0
  7 19  1  0  0  0
  7  8  1  0  0  0
 19 21  1  0  0  0
 19 20  1  0  0  0
 21 22  1  0  0  0
 21 27  2  0  0  0
 22 23  2  0  0  0
 23 29  1  0  0  0
 23 24  1  0  0  0
 29 30  2  0  0  0
 29 31  1  0  0  0
 31 33  1  0  0  0
 31 32  1  0  0  0
 33 34  1  0  0  0
 33 35  1  0  0  0
 34 35  1  0  0  0
 24 25  1  0  0  0
 24 26  2  0  0  0
 26 27  1  0  0  0
 27 28  1  0  0  0
  8  9  2  0  0  0
  9 16  1  0  0  0
 16 17  1  0  0  0
 16 18  1  0  0  0
M  END
> <minimizedAffinity>
-7.88334

$$$$
