CHEMBL598633


 27 30  0  0  0  0  0  0  0  0999 V2000
  -29.5340   -2.7529   -2.6020 O   0  0  0  0  0  0  0  0  0  0  0  0
  -29.4811   -2.9404   -3.8158 C   0  0  0  0  0  0  0  0  0  0  0  0
  -30.5576   -3.7175   -4.5450 C   0  0  0  0  0  0  0  0  0  0  0  0
  -29.9865   -4.9352   -5.1803 C   0  0  0  0  0  0  0  0  0  0  0  0
  -30.2752   -6.2077   -4.7450 C   0  0  0  0  0  0  0  0  0  0  0  0
  -29.7127   -7.3164   -5.2557 N   0  0  0  0  0  0  0  0  0  0  0  0
  -28.8440   -7.1437   -6.2604 C   0  0  0  0  0  0  0  0  0  0  0  0
  -28.5145   -5.9402   -6.7557 N   0  0  0  0  0  0  0  0  0  0  0  0
  -29.0795   -4.8388   -6.2159 C   0  0  0  0  0  0  0  0  0  0  0  0
  -28.6443   -3.5308   -6.7602 C   0  0  0  0  0  0  0  0  0  0  0  0
  -28.5696   -3.4563   -8.1198 N   0  0  0  0  0  0  0  0  0  0  0  0
  -28.1260   -2.3074   -8.6735 C   0  0  0  0  0  0  0  0  0  0  0  0
  -27.7132   -1.2114   -7.9399 C   0  0  0  0  0  0  0  0  0  0  0  0
  -27.7787   -1.2876   -6.5541 C   0  0  0  0  0  0  0  0  0  0  0  0
  -28.3028   -2.4327   -5.9461 C   0  0  0  0  0  0  0  0  0  0  0  0
  -28.4775   -2.3683   -4.5492 N   0  0  0  0  0  0  0  0  0  0  0  0
  -27.9336   -1.6946   -4.0218 H   0  0  0  0  0  0  0  0  0  0  0  0
  -28.2272   -8.2893   -6.7547 N   0  0  0  0  0  0  0  0  0  0  0  0
  -27.9007   -8.8740   -5.9996 H   0  0  0  0  0  0  0  0  0  0  0  0
  -28.4543   -8.9319   -7.9799 C   0  0  0  0  0  0  0  0  0  0  0  0
  -27.3987   -9.0800   -8.8896 C   0  0  0  0  0  0  0  0  0  0  0  0
  -27.6144   -9.6478  -10.1504 C   0  0  0  0  0  0  0  0  0  0  0  0
  -28.8874  -10.0932  -10.4926 C   0  0  0  0  0  0  0  0  0  0  0  0
  -29.1478  -10.6514  -11.7085 O   0  0  0  0  0  0  0  0  0  0  0  0
  -29.9416   -9.9762   -9.6003 C   0  0  0  0  0  0  0  0  0  0  0  0
  -29.7248   -9.3905   -8.3539 C   0  0  0  0  0  0  0  0  0  0  0  0
  -28.3370  -10.6226  -12.2391 H   0  0  0  0  0  0  0  0  0  0  0  0
  1  2  2  0  0  0
  2  3  1  0  0  0
  2 16  1  0  0  0
  3  4  1  0  0  0
  4  5  1  0  0  0
  4  9  2  0  0  0
  5  6  2  0  0  0
  6  7  1  0  0  0
  7 18  1  0  0  0
  7  8  2  0  0  0
 18 20  1  0  0  0
 18 19  1  0  0  0
 20 21  1  0  0  0
 20 26  2  0  0  0
 21 22  2  0  0  0
 22 23  1  0  0  0
 23 24  1  0  0  0
 23 25  2  0  0  0
 24 27  1  0  0  0
 25 26  1  0  0  0
  8  9  1  0  0  0
  9 10  1  0  0  0
 10 11  1  0  0  0
 10 15  2  0  0  0
 11 12  2  0  0  0
 12 13  1  0  0  0
 13 14  2  0  0  0
 14 15  1  0  0  0
 15 16  1  0  0  0
 16 17  1  0  0  0
M  END
> <minimizedAffinity>
-8.54916

$$$$
