CHEMBL1682357


 22 25  0  0  0  0  0  0  0  0999 V2000
  -28.6203   -3.7832   -4.3738 C   0  0  0  0  0  0  0  0  0  0  0  0
  -29.5724   -4.2800   -5.2982 C   0  0  0  0  0  0  0  0  0  0  0  0
  -29.1531   -5.5610   -5.5815 C   0  0  0  0  0  0  0  0  0  0  0  0
  -28.0117   -5.8042   -4.8783 O   0  0  0  0  0  0  0  0  0  0  0  0
  -27.6821   -4.7024   -4.1123 N   0  0  0  0  0  0  0  0  0  0  0  0
  -29.6530   -6.6504   -6.4199 C   0  0  0  0  0  0  0  0  0  0  0  0
  -28.8302   -7.2550   -7.3863 C   0  0  0  0  0  0  0  0  0  0  0  0
  -29.2952   -8.2604   -8.2450 C   0  0  0  0  0  0  0  0  0  0  0  0
  -30.6225   -8.6601   -8.0886 C   0  0  0  0  0  0  0  0  0  0  0  0
  -31.3898   -9.5683   -8.7708 N   0  0  0  0  0  0  0  0  0  0  0  0
  -32.6299   -9.7241   -8.2719 N   0  0  0  0  0  0  0  0  0  0  0  0
  -32.6665   -8.8513   -7.2605 C   0  0  0  0  0  0  0  0  0  0  0  0
  -31.4574   -8.1308   -7.1146 C   0  0  0  0  0  0  0  0  0  0  0  0
  -30.9781   -7.1081   -6.2755 C   0  0  0  0  0  0  0  0  0  0  0  0
  -31.1276  -10.1115   -9.5859 H   0  0  0  0  0  0  0  0  0  0  0  0
  -28.6275   -2.4781   -3.6570 C   0  0  0  0  0  0  0  0  0  0  0  0
  -28.7528    0.6880   -6.5925 C   0  0  0  0  0  0  0  0  0  0  0  0
  -29.8387    0.4849   -5.7429 C   0  0  0  0  0  0  0  0  0  0  0  0
  -29.8094   -0.5460   -4.7997 C   0  0  0  0  0  0  0  0  0  0  0  0
  -28.6911   -1.3877   -4.6984 C   0  0  0  0  0  0  0  0  0  0  0  0
  -27.6083   -1.1765   -5.5668 C   0  0  0  0  0  0  0  0  0  0  0  0
  -27.6378   -0.1444   -6.5050 C   0  0  0  0  0  0  0  0  0  0  0  0
 17 18  1  0  0  0
 17 22  2  0  0  0
 18 19  2  0  0  0
 19 20  1  0  0  0
 20 16  1  0  0  0
 20 21  2  0  0  0
 16  1  1  0  0  0
  1  2  1  0  0  0
  1  5  2  0  0  0
  2  3  2  0  0  0
  3  6  1  0  0  0
  3  4  1  0  0  0
  6  7  1  0  0  0
  6 14  2  0  0  0
  7  8  2  0  0  0
  8  9  1  0  0  0
  9 10  1  0  0  0
  9 13  2  0  0  0
 10 11  1  0  0  0
 10 15  1  0  0  0
 11 12  2  0  0  0
 12 13  1  0  0  0
 13 14  1  0  0  0
  4  5  1  0  0  0
 21 22  1  0  0  0
M  END
> <minimizedAffinity>
-8.82836

$$$$
