CHEMBL477611


 33 36  0  0  0  0  0  0  0  0999 V2000
  -28.9934   -7.0335   -4.9632 C   0  0  0  0  0  0  0  0  0  0  0  0
  -29.5106   -8.1242   -5.6370 C   0  0  0  0  0  0  0  0  0  0  0  0
  -28.7014   -9.2286   -5.7679 C   0  0  0  0  0  0  0  0  0  0  0  0
  -27.4527   -9.2899   -5.2852 N   0  0  0  0  0  0  0  0  0  0  0  0
  -27.0148   -8.2021   -4.6410 C   0  0  0  0  0  0  0  0  0  0  0  0
  -27.7344   -7.0752   -4.4896 N   0  0  0  0  0  0  0  0  0  0  0  0
  -29.7856   -5.8706   -4.7350 N   0  0  0  0  0  0  0  0  0  0  0  0
  -31.0003   -6.1338   -3.9549 C   0  0  0  0  0  0  0  0  0  0  0  0
  -28.1271    0.7635   -4.9433 C   0  0  0  0  0  0  0  0  0  0  0  0
  -28.1776   -0.5449   -5.6423 C   0  0  0  0  0  0  0  0  0  0  0  0
  -27.7957   -0.6518   -6.9218 N   0  0  0  0  0  0  0  0  0  0  0  0
  -27.9803   -1.9552   -7.2036 N   0  0  0  0  0  0  0  0  0  0  0  0
  -28.4637   -2.6947   -6.1579 C   0  0  0  0  0  0  0  0  0  0  0  0
  -28.8006   -4.0540   -6.0454 C   0  0  0  0  0  0  0  0  0  0  0  0
  -29.3286   -4.5289   -4.8242 C   0  0  0  0  0  0  0  0  0  0  0  0
  -29.4288   -3.6152   -3.7579 C   0  0  0  0  0  0  0  0  0  0  0  0
  -29.0839   -2.2579   -3.8826 C   0  0  0  0  0  0  0  0  0  0  0  0
  -28.6031   -1.7931   -5.1137 C   0  0  0  0  0  0  0  0  0  0  0  0
  -27.7614   -2.2781   -8.1386 H   0  0  0  0  0  0  0  0  0  0  0  0
  -25.7265   -8.2848   -4.1088 N   0  0  0  0  0  0  0  0  0  0  0  0
  -25.2599   -7.3968   -4.2398 H   0  0  0  0  0  0  0  0  0  0  0  0
  -24.8752   -9.4006   -4.1063 C   0  0  0  0  0  0  0  0  0  0  0  0
  -24.9347  -10.3020   -3.0351 C   0  0  0  0  0  0  0  0  0  0  0  0
  -24.1476  -11.4583   -3.0213 C   0  0  0  0  0  0  0  0  0  0  0  0
  -23.2831  -11.7272   -4.0805 C   0  0  0  0  0  0  0  0  0  0  0  0
  -23.2171  -10.8315   -5.1474 C   0  0  0  0  0  0  0  0  0  0  0  0
  -23.9884   -9.6680   -5.1544 C   0  0  0  0  0  0  0  0  0  0  0  0
  -22.1650  -11.1669   -6.5332 S   0  0  0  0  0  0  0  0  0  0  0  0
  -21.5067   -9.6431   -6.7924 N   0  0  0  0  0  0  0  0  0  0  0  0
  -21.0927  -12.0313   -6.1013 O   0  0  0  0  0  0  0  0  0  0  0  0
  -23.0001  -11.4693   -7.6708 O   0  0  0  0  0  0  0  0  0  0  0  0
  -20.8630   -9.3625   -6.0525 H   0  0  0  0  0  0  0  0  0  0  0  0
  -22.2053   -8.9486   -7.0494 H   0  0  0  0  0  0  0  0  0  0  0  0
  9 10  1  0  0  0
 10 11  2  0  0  0
 10 18  1  0  0  0
 11 12  1  0  0  0
 12 13  1  0  0  0
 12 19  1  0  0  0
 13 14  1  0  0  0
 13 18  2  0  0  0
 14 15  2  0  0  0
 15  7  1  0  0  0
 15 16  1  0  0  0
  7  8  1  0  0  0
  7  1  1  0  0  0
  1  2  1  0  0  0
  1  6  2  0  0  0
  2  3  2  0  0  0
  3  4  1  0  0  0
  4  5  2  0  0  0
  5 20  1  0  0  0
  5  6  1  0  0  0
 20 22  1  0  0  0
 20 21  1  0  0  0
 22 23  1  0  0  0
 22 27  2  0  0  0
 23 24  2  0  0  0
 24 25  1  0  0  0
 25 26  2  0  0  0
 26 28  1  0  0  0
 26 27  1  0  0  0
 28 29  1  0  0  0
 28 30  2  0  0  0
 28 31  2  0  0  0
 29 32  1  0  0  0
 29 33  1  0  0  0
 16 17  2  0  0  0
 17 18  1  0  0  0
M  END
> <minimizedAffinity>
-9.22415

$$$$
