CHEMBL2409782


 35 39  0  0  0  0  0  0  0  0999 V2000
  -16.5001    1.0244  -14.9441 C   0  0  0  0  0  0  0  0  0  0  0  0
  -17.7890    1.5034  -14.6524 C   0  0  0  0  0  0  0  0  0  0  0  0
  -18.2402    2.7396  -15.1228 C   0  0  0  0  0  0  0  0  0  0  0  0
  -17.3716    3.5623  -15.8268 C   0  0  0  0  0  0  0  0  0  0  0  0
  -16.0878    3.1126  -16.1259 C   0  0  0  0  0  0  0  0  0  0  0  0
  -15.6415    1.8431  -15.7069 C   0  0  0  0  0  0  0  0  0  0  0  0
  -14.2579    1.4224  -16.1173 C   0  0  0  0  0  0  0  0  0  0  0  0
  -15.3837   -0.4646  -13.2709 C   0  0  0  0  0  0  0  0  0  0  0  0
  -15.2271    0.4189  -12.4334 O   0  0  0  0  0  0  0  0  0  0  0  0
  -16.0488   -0.2442  -14.4730 N   0  0  0  0  0  0  0  0  0  0  0  0
  -16.3260   -1.0562  -15.0025 H   0  0  0  0  0  0  0  0  0  0  0  0
  -14.7186   -5.3673  -11.9989 C   0  0  0  0  0  0  0  0  0  0  0  0
  -14.5893   -3.9678  -12.4681 C   0  0  0  0  0  0  0  0  0  0  0  0
  -15.5853   -2.9704  -12.6181 C   0  0  0  0  0  0  0  0  0  0  0  0
  -14.9187   -1.8198  -13.0193 C   0  0  0  0  0  0  0  0  0  0  0  0
  -13.6025   -2.2241  -13.1606 N   0  0  0  0  0  0  0  0  0  0  0  0
  -12.4444   -1.4839  -13.6083 C   0  0  0  0  0  0  0  0  0  0  0  0
  -13.3875   -3.5035  -12.8021 N   0  0  0  0  0  0  0  0  0  0  0  0
  -19.5190    3.0956  -14.7611 O   0  0  0  0  0  0  0  0  0  0  0  0
  -20.4723    2.0953  -14.5748 C   0  0  0  0  0  0  0  0  0  0  0  0
  -20.2043    0.9062  -15.2452 C   0  0  0  0  0  0  0  0  0  0  0  0
  -21.0960   -0.1578  -15.1201 C   0  0  0  0  0  0  0  0  0  0  0  0
  -22.2330    0.0333  -14.3213 C   0  0  0  0  0  0  0  0  0  0  0  0
  -23.2387   -0.8707  -14.0618 N   0  0  0  0  0  0  0  0  0  0  0  0
  -24.1210   -0.3154  -13.2726 C   0  0  0  0  0  0  0  0  0  0  0  0
  -23.7949    1.2772  -12.7443 S   0  0  0  0  0  0  0  0  0  0  0  0
  -22.3863    1.2743  -13.7101 C   0  0  0  0  0  0  0  0  0  0  0  0
  -21.5648    2.3377  -13.8107 N   0  0  0  0  0  0  0  0  0  0  0  0
  -25.2955   -0.8411  -12.8073 N   0  0  0  0  0  0  0  0  0  0  0  0
  -25.3614   -1.4406  -11.5735 C   0  0  0  0  0  0  0  0  0  0  0  0
  -24.4535   -1.5976  -10.7709 O   0  0  0  0  0  0  0  0  0  0  0  0
  -26.0751   -0.8784  -13.4446 H   0  0  0  0  0  0  0  0  0  0  0  0
  -26.7124   -2.0082  -11.2754 C   0  0  0  0  0  0  0  0  0  0  0  0
  -27.8741   -1.0920  -10.9570 C   0  0  0  0  0  0  0  0  0  0  0  0
  -27.2542   -1.9147   -9.8667 C   0  0  0  0  0  0  0  0  0  0  0  0
 12 13  1  0  0  0
 13 14  1  0  0  0
 13 18  2  0  0  0
 14 15  2  0  0  0
 15  8  1  0  0  0
 15 16  1  0  0  0
  8  9  2  0  0  0
  8 10  1  0  0  0
 10  1  1  0  0  0
 10 11  1  0  0  0
  1  2  1  0  0  0
  1  6  2  0  0  0
  2  3  2  0  0  0
  3 19  1  0  0  0
  3  4  1  0  0  0
 19 20  1  0  0  0
 20 21  1  0  0  0
 20 28  2  0  0  0
 21 22  2  0  0  0
 22 23  1  0  0  0
 23 24  1  0  0  0
 23 27  2  0  0  0
 24 25  2  0  0  0
 25 29  1  0  0  0
 25 26  1  0  0  0
 29 30  1  0  0  0
 29 32  1  0  0  0
 30 31  2  0  0  0
 30 33  1  0  0  0
 33 34  1  0  0  0
 33 35  1  0  0  0
 34 35  1  0  0  0
 26 27  1  0  0  0
 27 28  1  0  0  0
  4  5  2  0  0  0
  5  6  1  0  0  0
  6  7  1  0  0  0
 16 17  1  0  0  0
 16 18  1  0  0  0
M  END
> <minimizedAffinity>
-9.15644

$$$$
