CHEMBL4647154


 39 43  0  0  0  0  0  0  0  0999 V2000
  -25.4926  -11.0712   -4.2717 C   0  0  0  0  0  0  0  0  0  0  0  0
  -25.5047  -11.1349   -5.6835 C   0  0  0  0  0  0  0  0  0  0  0  0
  -26.3785  -10.3298   -6.4442 C   0  0  0  0  0  0  0  0  0  0  0  0
  -27.2419   -9.4718   -5.7822 C   0  0  0  0  0  0  0  0  0  0  0  0
  -27.2021   -9.4173   -4.3820 C   0  0  0  0  0  0  0  0  0  0  0  0
  -26.3481  -10.1843   -3.6116 C   0  0  0  0  0  0  0  0  0  0  0  0
  -28.1433   -8.5219   -3.8924 N   0  0  0  0  0  0  0  0  0  0  0  0
  -28.8762   -7.9567   -4.9105 C   0  0  0  0  0  0  0  0  0  0  0  0
  -29.8534   -7.2318   -4.7967 O   0  0  0  0  0  0  0  0  0  0  0  0
  -28.2808   -8.4986   -6.1866 C   0  0  0  0  0  0  0  0  0  0  0  0
  -28.7563   -8.0635   -7.3712 C   0  0  0  0  0  0  0  0  0  0  0  0
  -28.3418   -8.3382   -2.9174 H   0  0  0  0  0  0  0  0  0  0  0  0
  -28.4285   -8.8083   -8.6110 C   0  0  0  0  0  0  0  0  0  0  0  0
  -29.3351   -9.7811   -9.0666 C   0  0  0  0  0  0  0  0  0  0  0  0
  -29.0829  -10.4998  -10.2355 C   0  0  0  0  0  0  0  0  0  0  0  0
  -27.9256  -10.2464  -10.9657 C   0  0  0  0  0  0  0  0  0  0  0  0
  -27.0207   -9.2802  -10.5261 C   0  0  0  0  0  0  0  0  0  0  0  0
  -27.2654   -8.5678   -9.3509 C   0  0  0  0  0  0  0  0  0  0  0  0
  -24.6179  -11.9323   -3.4234 C   0  0  0  0  0  0  0  0  0  0  0  0
  -24.9796  -12.3853   -2.3487 O   0  0  0  0  0  0  0  0  0  0  0  0
  -22.3565  -11.3572   -3.4417 C   0  0  0  0  0  0  0  0  0  0  0  0
  -23.4135  -12.1414   -4.0059 O   0  0  0  0  0  0  0  0  0  0  0  0
  -29.7586   -7.1013   -7.5404 N   0  0  0  0  0  0  0  0  0  0  0  0
  -30.5951   -7.3425   -6.9927 H   0  0  0  0  0  0  0  0  0  0  0  0
  -29.5653   -5.6978   -7.4141 C   0  0  0  0  0  0  0  0  0  0  0  0
  -28.3334   -5.1580   -7.7743 C   0  0  0  0  0  0  0  0  0  0  0  0
  -28.0387   -3.8103   -7.5245 C   0  0  0  0  0  0  0  0  0  0  0  0
  -28.9802   -2.9950   -6.8921 C   0  0  0  0  0  0  0  0  0  0  0  0
  -30.2156   -3.4716   -6.6129 N   0  0  0  0  0  0  0  0  0  0  0  0
  -30.4723   -4.7881   -6.8804 C   0  0  0  0  0  0  0  0  0  0  0  0
  -28.6144   -1.6512   -6.4833 N   0  0  0  0  0  0  0  0  0  0  0  0
  -28.5596   -0.5557   -7.3431 C   0  0  0  0  0  0  0  0  0  0  0  0
  -28.1575    0.5674   -6.6627 C   0  0  0  0  0  0  0  0  0  0  0  0
  -27.9375    0.1802   -5.3356 C   0  0  0  0  0  0  0  0  0  0  0  0
  -28.2012   -1.1817   -5.2238 C   0  0  0  0  0  0  0  0  0  0  0  0
  -27.9908   -2.0040   -3.9826 C   0  0  0  0  0  0  0  0  0  0  0  0
  -28.9987   -3.0802   -3.8451 N   0  0  0  0  0  0  0  0  0  0  0  0
  -28.3572   -4.3612   -3.5283 C   0  0  0  0  0  0  0  0  0  0  0  0
  -29.9548   -2.7402   -2.7898 C   0  0  0  0  0  0  0  0  0  0  0  0
 21 22  1  0  0  0
 22 19  1  0  0  0
 19 20  2  0  0  0
 19  1  1  0  0  0
  1  2  1  0  0  0
  1  6  2  0  0  0
  2  3  2  0  0  0
  3  4  1  0  0  0
  4  5  2  0  0  0
  4 10  1  0  0  0
  5  6  1  0  0  0
  5  7  1  0  0  0
  7  8  1  0  0  0
  7 12  1  0  0  0
  8  9  2  0  0  0
  8 10  1  0  0  0
 10 11  2  0  0  0
 11 23  1  0  0  0
 11 13  1  0  0  0
 23 25  1  0  0  0
 23 24  1  0  0  0
 25 26  1  0  0  0
 25 30  2  0  0  0
 26 27  2  0  0  0
 27 28  1  0  0  0
 28 31  1  0  0  0
 28 29  2  0  0  0
 31 32  1  0  0  0
 31 35  1  0  0  0
 32 33  2  0  0  0
 33 34  1  0  0  0
 34 35  2  0  0  0
 35 36  1  0  0  0
 36 37  1  0  0  0
 37 38  1  0  0  0
 37 39  1  0  0  0
 29 30  1  0  0  0
 13 14  1  0  0  0
 13 18  2  0  0  0
 14 15  2  0  0  0
 15 16  1  0  0  0
 16 17  2  0  0  0
 17 18  1  0  0  0
M  END
> <minimizedAffinity>
-8.23078

$$$$
