CHEMBL271042


 29 34  0  0  0  0  0  0  0  0999 V2000
  -28.4705   -2.6961   -7.5411 N   0  0  0  0  0  0  0  0  0  0  0  0
  -28.6532   -1.4807   -6.8497 C   0  0  0  0  0  0  0  0  0  0  0  0
  -28.1006   -0.2022   -7.0601 C   0  0  0  0  0  0  0  0  0  0  0  0
  -28.3487    0.7977   -6.1111 C   0  0  0  0  0  0  0  0  0  0  0  0
  -29.1653    0.5589   -5.0121 C   0  0  0  0  0  0  0  0  0  0  0  0
  -29.7263   -0.7017   -4.8119 C   0  0  0  0  0  0  0  0  0  0  0  0
  -29.4395   -1.7406   -5.7159 C   0  0  0  0  0  0  0  0  0  0  0  0
  -29.6213   -3.1089   -5.7885 C   0  0  0  0  0  0  0  0  0  0  0  0
  -29.9675   -3.8951   -4.6789 C   0  0  0  0  0  0  0  0  0  0  0  0
  -29.5777   -5.2493   -4.7488 C   0  0  0  0  0  0  0  0  0  0  0  0
  -29.0322   -5.8484   -5.8965 C   0  0  0  0  0  0  0  0  0  0  0  0
  -29.3127   -5.1182   -7.0960 C   0  0  0  0  0  0  0  0  0  0  0  0
  -29.2063   -3.7181   -6.9403 C   0  0  0  0  0  0  0  0  0  0  0  0
  -30.4393   -5.8033   -7.9711 C   0  0  0  0  0  0  0  0  0  0  0  0
  -31.1844   -6.9963   -7.2436 C   0  0  0  0  0  0  0  0  0  0  0  0
  -30.1273   -7.8890   -6.6967 C   0  0  0  0  0  0  0  0  0  0  0  0
  -29.8890   -9.1589   -7.0188 N   0  0  0  0  0  0  0  0  0  0  0  0
  -28.6073   -9.3305   -6.6066 N   0  0  0  0  0  0  0  0  0  0  0  0
  -27.9191  -10.5608   -6.9151 C   0  0  0  0  0  0  0  0  0  0  0  0
  -28.0272   -8.1826   -6.1208 C   0  0  0  0  0  0  0  0  0  0  0  0
  -29.0596   -7.2855   -6.0147 C   0  0  0  0  0  0  0  0  0  0  0  0
  -29.9883   -5.8797   -3.5161 C   0  0  0  0  0  0  0  0  0  0  0  0
  -29.9051   -7.0159   -3.0803 O   0  0  0  0  0  0  0  0  0  0  0  0
  -30.6215   -4.8638   -2.8090 N   0  0  0  0  0  0  0  0  0  0  0  0
  -30.6145   -3.5536   -3.4199 C   0  0  0  0  0  0  0  0  0  0  0  0
  -31.0717   -5.0832   -1.9336 H   0  0  0  0  0  0  0  0  0  0  0  0
  -27.4196   -2.8909   -8.5357 C   0  0  0  0  0  0  0  0  0  0  0  0
  -26.3358   -1.6895  -10.5259 C   0  0  0  0  0  0  0  0  0  0  0  0
  -27.6310   -2.0953   -9.8373 C   0  0  0  0  0  0  0  0  0  0  0  0
 28 29  1  0  0  0
 29 27  1  0  0  0
 27  1  1  0  0  0
  1  2  1  0  0  0
  1 13  1  0  0  0
  2  3  1  0  0  0
  2  7  2  0  0  0
  3  4  2  0  0  0
  4  5  1  0  0  0
  5  6  2  0  0  0
  6  7  1  0  0  0
  7  8  1  0  0  0
  8  9  1  0  0  0
  8 13  2  0  0  0
  9 10  2  0  0  0
  9 25  1  0  0  0
 10 11  1  0  0  0
 10 22  1  0  0  0
 11 12  2  0  0  0
 11 21  1  0  0  0
 12 13  1  0  0  0
 12 14  1  0  0  0
 14 15  1  0  0  0
 15 16  1  0  0  0
 16 17  2  0  0  0
 16 21  1  0  0  0
 17 18  1  0  0  0
 18 19  1  0  0  0
 18 20  1  0  0  0
 20 21  2  0  0  0
 22 23  2  0  0  0
 22 24  1  0  0  0
 24 25  1  0  0  0
 24 26  1  0  0  0
M  END
> <minimizedAffinity>
-8.92766

$$$$
