CHEMBL1083454


 37 44  0  0  0  0  0  0  0  0999 V2000
  -30.7858    1.6932   -4.3924 C   0  0  0  0  0  0  0  0  0  0  0  0
  -29.8390    0.9375   -5.1867 N   0  0  0  0  0  0  0  0  0  0  0  0
  -30.0658    0.0173   -6.2026 C   0  0  0  0  0  0  0  0  0  0  0  0
  -28.8449   -0.6198   -6.4837 C   0  0  0  0  0  0  0  0  0  0  0  0
  -28.1535   -0.2684   -5.2540 C   0  0  0  0  0  0  0  0  0  0  0  0
  -28.6030    0.8417   -4.6799 N   0  0  0  0  0  0  0  0  0  0  0  0
  -27.4681   -1.2827   -4.3891 C   0  0  0  0  0  0  0  0  0  0  0  0
  -27.1340   -2.4911   -5.2293 C   0  0  0  0  0  0  0  0  0  0  0  0
  -28.4231   -2.8779   -5.9603 C   0  0  0  0  0  0  0  0  0  0  0  0
  -28.7375   -2.0048   -7.0126 C   0  0  0  0  0  0  0  0  0  0  0  0
  -28.2106   -2.5833   -8.2096 C   0  0  0  0  0  0  0  0  0  0  0  0
  -28.0482   -4.0331   -8.3733 C   0  0  0  0  0  0  0  0  0  0  0  0
  -28.5798   -4.8327   -7.3340 C   0  0  0  0  0  0  0  0  0  0  0  0
  -28.7381   -6.2077   -7.1656 C   0  0  0  0  0  0  0  0  0  0  0  0
  -28.3848   -7.4125   -7.8305 C   0  0  0  0  0  0  0  0  0  0  0  0
  -28.7652   -8.6614   -7.2834 C   0  0  0  0  0  0  0  0  0  0  0  0
  -29.6425   -8.6712   -6.1946 C   0  0  0  0  0  0  0  0  0  0  0  0
  -29.9651   -7.5116   -5.4900 C   0  0  0  0  0  0  0  0  0  0  0  0
  -29.4640   -6.2810   -5.9482 C   0  0  0  0  0  0  0  0  0  0  0  0
  -29.5040   -5.0276   -5.3841 N   0  0  0  0  0  0  0  0  0  0  0  0
  -28.8072   -4.1782   -6.1706 C   0  0  0  0  0  0  0  0  0  0  0  0
  -27.2325   -4.3991   -9.5190 C   0  0  0  0  0  0  0  0  0  0  0  0
  -26.9018   -3.0542   -9.9854 N   0  0  0  0  0  0  0  0  0  0  0  0
  -27.4548   -1.9755   -9.2719 C   0  0  0  0  0  0  0  0  0  0  0  0
  -27.1882   -0.8145   -9.5510 O   0  0  0  0  0  0  0  0  0  0  0  0
  -26.1443   -2.8716  -10.6307 H   0  0  0  0  0  0  0  0  0  0  0  0
  -28.1681   -9.9532   -7.8282 C   0  0  0  0  0  0  0  0  0  0  0  0
  -27.0835   -9.8462   -8.9206 C   0  0  0  0  0  0  0  0  0  0  0  0
  -27.6381   -9.4506  -10.2919 C   0  0  0  0  0  0  0  0  0  0  0  0
  -28.8405  -10.3034  -10.6616 C   0  0  0  0  0  0  0  0  0  0  0  0
  -29.8337  -10.3997   -9.5115 C   0  0  0  0  0  0  0  0  0  0  0  0
  -29.2119  -10.8283   -8.2969 O   0  0  0  0  0  0  0  0  0  0  0  0
  -30.1773   -4.5325   -4.2099 C   0  0  0  0  0  0  0  0  0  0  0  0
  -31.4953   -5.2095   -3.8899 C   0  0  0  0  0  0  0  0  0  0  0  0
  -32.0323   -4.3652   -2.7381 C   0  0  0  0  0  0  0  0  0  0  0  0
  -31.2836   -3.0248   -2.7896 C   0  0  0  0  0  0  0  0  0  0  0  0
  -30.4550   -3.0520   -4.0679 C   0  0  0  0  0  0  0  0  0  0  0  0
  1  2  1  0  0  0
  2  3  1  0  0  0
  2  6  1  0  0  0
  3  4  2  0  0  0
  4  5  1  0  0  0
  4 10  1  0  0  0
  5  6  2  0  0  0
  5  7  1  0  0  0
  7  8  1  0  0  0
  8  9  1  0  0  0
  9 10  1  0  0  0
  9 21  2  0  0  0
 10 11  2  0  0  0
 11 12  1  0  0  0
 11 24  1  0  0  0
 12 13  2  0  0  0
 12 22  1  0  0  0
 13 14  1  0  0  0
 13 21  1  0  0  0
 14 15  1  0  0  0
 14 19  2  0  0  0
 15 16  2  0  0  0
 16 27  1  0  0  0
 16 17  1  0  0  0
 27 28  1  0  0  0
 27 32  1  0  0  0
 28 29  1  0  0  0
 29 30  1  0  0  0
 30 31  1  0  0  0
 31 32  1  0  0  0
 17 18  2  0  0  0
 18 19  1  0  0  0
 19 20  1  0  0  0
 20 33  1  0  0  0
 20 21  1  0  0  0
 33 34  1  0  0  0
 33 37  1  0  0  0
 34 35  1  0  0  0
 35 36  1  0  0  0
 36 37  1  0  0  0
 22 23  1  0  0  0
 23 24  1  0  0  0
 23 26  1  0  0  0
 24 25  2  0  0  0
M  END
> <minimizedAffinity>
-6.12866

$$$$
