CHEMBL185197


 31 34  0  0  0  0  0  0  0  0999 V2000
  -25.4251   -1.8738  -12.1244 C   0  0  0  0  0  0  0  0  0  0  0  0
  -24.2124   -1.7493  -11.4628 C   0  0  0  0  0  0  0  0  0  0  0  0
  -23.0936   -1.2638  -12.1492 C   0  0  0  0  0  0  0  0  0  0  0  0
  -23.1696   -0.7675  -13.4626 C   0  0  0  0  0  0  0  0  0  0  0  0
  -24.4122   -0.9216  -14.1044 C   0  0  0  0  0  0  0  0  0  0  0  0
  -24.5877   -0.5049  -15.3685 F   0  0  0  0  0  0  0  0  0  0  0  0
  -25.5173   -1.4861  -13.4606 C   0  0  0  0  0  0  0  0  0  0  0  0
  -22.0132   -0.0769  -14.0963 C   0  0  0  0  0  0  0  0  0  0  0  0
  -20.9740   -0.7937  -14.7410 C   0  0  0  0  0  0  0  0  0  0  0  0
  -19.9067   -0.1605  -15.4137 C   0  0  0  0  0  0  0  0  0  0  0  0
  -19.8329    1.2264  -15.4637 C   0  0  0  0  0  0  0  0  0  0  0  0
  -20.8326    1.9283  -14.8309 C   0  0  0  0  0  0  0  0  0  0  0  0
  -21.9000    1.3175  -14.1534 C   0  0  0  0  0  0  0  0  0  0  0  0
  -22.7871    2.3950  -13.6046 C   0  0  0  0  0  0  0  0  0  0  0  0
  -22.1806    3.6078  -14.0782 N   0  0  0  0  0  0  0  0  0  0  0  0
  -21.0094    3.3869  -14.7535 C   0  0  0  0  0  0  0  0  0  0  0  0
  -20.2509    4.2285  -15.1943 O   0  0  0  0  0  0  0  0  0  0  0  0
  -22.4662    4.5433  -13.8233 H   0  0  0  0  0  0  0  0  0  0  0  0
  -27.8321   -2.7364   -9.5693 N   0  0  0  0  0  0  0  0  0  0  0  0
  -26.7062   -2.1208  -10.0864 C   0  0  0  0  0  0  0  0  0  0  0  0
  -25.9633   -1.3569   -9.4815 O   0  0  0  0  0  0  0  0  0  0  0  0
  -26.5239   -2.4267  -11.4286 N   0  0  0  0  0  0  0  0  0  0  0  0
  -28.2186   -3.5000  -10.1058 H   0  0  0  0  0  0  0  0  0  0  0  0
  -27.3901   -2.4959  -11.9439 H   0  0  0  0  0  0  0  0  0  0  0  0
  -28.1949    0.1926   -5.5914 C   0  0  0  0  0  0  0  0  0  0  0  0
  -28.5485   -1.0742   -6.3142 C   0  0  0  0  0  0  0  0  0  0  0  0
  -29.3976   -2.0039   -5.7090 C   0  0  0  0  0  0  0  0  0  0  0  0
  -29.7265   -3.1791   -6.3699 C   0  0  0  0  0  0  0  0  0  0  0  0
  -29.2110   -3.4369   -7.6400 C   0  0  0  0  0  0  0  0  0  0  0  0
  -28.3701   -2.5195   -8.2772 C   0  0  0  0  0  0  0  0  0  0  0  0
  -28.0372   -1.3375   -7.5999 C   0  0  0  0  0  0  0  0  0  0  0  0
 25 26  1  0  0  0
 26 27  1  0  0  0
 26 31  2  0  0  0
 27 28  2  0  0  0
 28 29  1  0  0  0
 29 30  2  0  0  0
 30 19  1  0  0  0
 30 31  1  0  0  0
 19 20  1  0  0  0
 19 23  1  0  0  0
 20 21  2  0  0  0
 20 22  1  0  0  0
 22  1  1  0  0  0
 22 24  1  0  0  0
  1  2  1  0  0  0
  1  7  2  0  0  0
  2  3  2  0  0  0
  3  4  1  0  0  0
  4  8  1  0  0  0
  4  5  2  0  0  0
  8  9  1  0  0  0
  8 13  2  0  0  0
  9 10  2  0  0  0
 10 11  1  0  0  0
 11 12  2  0  0  0
 12 13  1  0  0  0
 12 16  1  0  0  0
 13 14  1  0  0  0
 14 15  1  0  0  0
 15 16  1  0  0  0
 15 18  1  0  0  0
 16 17  2  0  0  0
  5  6  1  0  0  0
  5  7  1  0  0  0
M  END
> <minimizedAffinity>
-10.94847

$$$$
