CHEMBL3952866


 37 40  0  0  0  0  0  0  0  0999 V2000
  -28.7706   -7.6944   -5.8626 N   0  0  0  0  0  0  0  0  0  0  0  0
  -28.4322   -6.3049   -5.6235 C   0  0  0  0  0  0  0  0  0  0  0  0
  -27.6118   -6.0935   -4.5111 C   0  0  0  0  0  0  0  0  0  0  0  0
  -27.6632   -4.8994   -3.8235 C   0  0  0  0  0  0  0  0  0  0  0  0
  -28.3699   -3.8227   -4.2950 C   0  0  0  0  0  0  0  0  0  0  0  0
  -28.4591   -2.8040   -3.4358 N   0  0  0  0  0  0  0  0  0  0  0  0
  -28.9776   -1.6669   -3.9127 C   0  0  0  0  0  0  0  0  0  0  0  0
  -29.3278   -1.5181   -5.2405 C   0  0  0  0  0  0  0  0  0  0  0  0
  -29.3553   -2.5987   -6.0936 N   0  0  0  0  0  0  0  0  0  0  0  0
  -28.9221   -3.8359   -5.6038 C   0  0  0  0  0  0  0  0  0  0  0  0
  -28.9916   -5.1439   -6.2282 C   0  0  0  0  0  0  0  0  0  0  0  0
  -29.4574   -0.1411   -5.7127 C   0  0  0  0  0  0  0  0  0  0  0  0
  -30.6041    0.6967   -5.7110 C   0  0  0  0  0  0  0  0  0  0  0  0
  -30.4675    1.7772   -6.4895 N   0  0  0  0  0  0  0  0  0  0  0  0
  -29.2599    1.6134   -7.0488 N   0  0  0  0  0  0  0  0  0  0  0  0
  -28.6520    0.4448   -6.6770 C   0  0  0  0  0  0  0  0  0  0  0  0
  -28.9430    2.3079   -7.7205 H   0  0  0  0  0  0  0  0  0  0  0  0
  -28.7613   -9.6474   -9.0607 C   0  0  0  0  0  0  0  0  0  0  0  0
  -30.1231   -9.8831   -9.2521 C   0  0  0  0  0  0  0  0  0  0  0  0
  -31.0513   -9.3282   -8.3750 C   0  0  0  0  0  0  0  0  0  0  0  0
  -30.6108   -8.5397   -7.3010 C   0  0  0  0  0  0  0  0  0  0  0  0
  -29.2490   -8.2906   -7.0607 C   0  0  0  0  0  0  0  0  0  0  0  0
  -28.3365   -8.8374   -7.9856 C   0  0  0  0  0  0  0  0  0  0  0  0
  -26.5567  -10.5696   -9.1751 C   0  0  0  0  0  0  0  0  0  0  0  0
  -27.7645  -10.1893   -9.8363 O   0  0  0  0  0  0  0  0  0  0  0  0
  -32.4082   -9.5154   -8.4313 O   0  0  0  0  0  0  0  0  0  0  0  0
  -33.1705   -9.0971   -7.3036 C   0  0  0  0  0  0  0  0  0  0  0  0
  -29.3424   -8.2390   -4.5714 C   0  0  0  0  0  0  0  0  0  0  0  0
  -29.0998   -9.7183   -4.2170 C   0  0  0  0  0  0  0  0  0  0  0  0
  -27.7681  -10.0997   -3.5437 C   0  0  0  0  0  0  0  0  0  0  0  0
  -26.9695  -10.8280   -4.5470 N   0  0  0  0  0  0  0  0  0  0  0  0
  -27.5846  -11.2488   -5.2473 H   0  0  0  0  0  0  0  0  0  0  0  0
  -25.9413  -10.0127   -5.2368 C   0  0  0  0  0  0  0  0  0  0  0  0
  -24.7825   -9.4757   -4.3479 C   0  0  0  0  0  0  0  0  0  0  0  0
  -25.0864   -8.2972   -3.7558 F   0  0  0  0  0  0  0  0  0  0  0  0
  -24.4903  -10.3527   -3.3571 F   0  0  0  0  0  0  0  0  0  0  0  0
  -23.6532   -9.2927   -5.0693 F   0  0  0  0  0  0  0  0  0  0  0  0
 24 25  1  0  0  0
 25 18  1  0  0  0
 18 19  1  0  0  0
 18 23  2  0  0  0
 19 20  2  0  0  0
 20 26  1  0  0  0
 20 21  1  0  0  0
 26 27  1  0  0  0
 21 22  2  0  0  0
 22  1  1  0  0  0
 22 23  1  0  0  0
  1 28  1  0  0  0
  1  2  1  0  0  0
 28 29  1  0  0  0
 29 30  1  0  0  0
 30 31  1  0  0  0
 31 33  1  0  0  0
 31 32  1  0  0  0
 33 34  1  0  0  0
 34 35  1  0  0  0
 34 36  1  0  0  0
 34 37  1  0  0  0
  2  3  1  0  0  0
  2 11  2  0  0  0
  3  4  2  0  0  0
  4  5  1  0  0  0
  5  6  1  0  0  0
  5 10  2  0  0  0
  6  7  2  0  0  0
  7  8  1  0  0  0
  8 12  1  0  0  0
  8  9  2  0  0  0
 12 13  1  0  0  0
 12 16  2  0  0  0
 13 14  2  0  0  0
 14 15  1  0  0  0
 15 16  1  0  0  0
 15 17  1  0  0  0
  9 10  1  0  0  0
 10 11  1  0  0  0
M  END
> <minimizedAffinity>
-7.78250

$$$$
