CHEMBL383255


 33 36  0  0  0  0  0  0  0  0999 V2000
  -28.5430   -2.7127   -7.4986 C   0  0  0  0  0  0  0  0  0  0  0  0
  -27.5063   -1.9311   -7.2728 N   0  0  0  0  0  0  0  0  0  0  0  0
  -27.0594   -1.5055   -8.4972 N   0  0  0  0  0  0  0  0  0  0  0  0
  -27.8348   -2.0618   -9.4002 C   0  0  0  0  0  0  0  0  0  0  0  0
  -28.8213   -2.8203   -8.8398 O   0  0  0  0  0  0  0  0  0  0  0  0
  -29.4443   -1.4818   -4.8273 C   0  0  0  0  0  0  0  0  0  0  0  0
  -29.6707   -2.8315   -5.2860 N   0  0  0  0  0  0  0  0  0  0  0  0
  -30.3155   -3.8111   -4.5798 C   0  0  0  0  0  0  0  0  0  0  0  0
  -30.2958   -4.9631   -5.2165 N   0  0  0  0  0  0  0  0  0  0  0  0
  -29.6728   -4.6971   -6.3999 C   0  0  0  0  0  0  0  0  0  0  0  0
  -29.2725   -3.3834   -6.4802 C   0  0  0  0  0  0  0  0  0  0  0  0
  -29.4717   -5.6286   -7.3430 N   0  0  0  0  0  0  0  0  0  0  0  0
  -29.8980   -5.5063   -8.2571 H   0  0  0  0  0  0  0  0  0  0  0  0
  -29.1514   -6.9998   -7.0208 C   0  0  0  0  0  0  0  0  0  0  0  0
  -30.3017   -7.8897   -7.4472 C   0  0  0  0  0  0  0  0  0  0  0  0
  -30.0843   -8.9683   -8.3129 C   0  0  0  0  0  0  0  0  0  0  0  0
  -31.1550   -9.7790   -8.6634 C   0  0  0  0  0  0  0  0  0  0  0  0
  -32.4135   -9.5944   -8.2108 N   0  0  0  0  0  0  0  0  0  0  0  0
  -32.6052   -8.5549   -7.3724 C   0  0  0  0  0  0  0  0  0  0  0  0
  -31.5984   -7.6883   -6.9666 C   0  0  0  0  0  0  0  0  0  0  0  0
  -27.8150   -2.0377  -10.7438 N   0  0  0  0  0  0  0  0  0  0  0  0
  -28.5598   -2.5319  -11.2183 H   0  0  0  0  0  0  0  0  0  0  0  0
  -26.6741   -1.8177  -11.5375 C   0  0  0  0  0  0  0  0  0  0  0  0
  -26.7115   -1.7654  -12.9363 C   0  0  0  0  0  0  0  0  0  0  0  0
  -25.5529   -1.5663  -13.6975 C   0  0  0  0  0  0  0  0  0  0  0  0
  -24.3299   -1.3955  -13.0664 C   0  0  0  0  0  0  0  0  0  0  0  0
  -24.2651   -1.5101  -11.6760 C   0  0  0  0  0  0  0  0  0  0  0  0
  -25.4230   -1.7225  -10.9193 C   0  0  0  0  0  0  0  0  0  0  0  0
  -23.1397   -1.1708  -13.6829 O   0  0  0  0  0  0  0  0  0  0  0  0
  -22.5097    0.0969  -13.5567 C   0  0  0  0  0  0  0  0  0  0  0  0
  -21.8396    0.2819  -12.4006 F   0  0  0  0  0  0  0  0  0  0  0  0
  -21.6199    0.2300  -14.5672 F   0  0  0  0  0  0  0  0  0  0  0  0
  -23.4367    1.0707  -13.6828 F   0  0  0  0  0  0  0  0  0  0  0  0
  6  7  1  0  0  0
  7  8  1  0  0  0
  7 11  1  0  0  0
  8  9  2  0  0  0
  9 10  1  0  0  0
 10 12  1  0  0  0
 10 11  2  0  0  0
 12 14  1  0  0  0
 12 13  1  0  0  0
 14 15  1  0  0  0
 15 16  1  0  0  0
 15 20  2  0  0  0
 16 17  2  0  0  0
 17 18  1  0  0  0
 18 19  2  0  0  0
 19 20  1  0  0  0
 11  1  1  0  0  0
  1  2  2  0  0  0
  1  5  1  0  0  0
  2  3  1  0  0  0
  3  4  2  0  0  0
  4 21  1  0  0  0
  4  5  1  0  0  0
 21 23  1  0  0  0
 21 22  1  0  0  0
 23 24  1  0  0  0
 23 28  2  0  0  0
 24 25  2  0  0  0
 25 26  1  0  0  0
 26 29  1  0  0  0
 26 27  2  0  0  0
 29 30  1  0  0  0
 30 31  1  0  0  0
 30 32  1  0  0  0
 30 33  1  0  0  0
 27 28  1  0  0  0
M  END
> <minimizedAffinity>
-10.23791

$$$$
