CHEMBL3671487


 35 37  0  0  0  0  0  0  0  0999 V2000
  -26.8582   -8.9769   -4.9704 C   0  0  0  0  0  0  0  0  0  0  0  0
  -27.6391   -7.9983   -4.3562 C   0  0  0  0  0  0  0  0  0  0  0  0
  -28.9154   -7.6880   -4.8679 C   0  0  0  0  0  0  0  0  0  0  0  0
  -29.6977   -6.6074   -4.4363 C   0  0  0  0  0  0  0  0  0  0  0  0
  -30.8998   -6.3449   -4.9825 N   0  0  0  0  0  0  0  0  0  0  0  0
  -31.3070   -7.1398   -5.9722 C   0  0  0  0  0  0  0  0  0  0  0  0
  -30.6213   -8.1650   -6.4856 N   0  0  0  0  0  0  0  0  0  0  0  0
  -29.4322   -8.4244   -5.9427 C   0  0  0  0  0  0  0  0  0  0  0  0
  -28.6610   -9.4443   -6.4933 C   0  0  0  0  0  0  0  0  0  0  0  0
  -27.3873   -9.7540   -6.0110 C   0  0  0  0  0  0  0  0  0  0  0  0
  -24.9382  -10.0469   -3.9095 C   0  0  0  0  0  0  0  0  0  0  0  0
  -23.7310  -10.2629   -3.9531 O   0  0  0  0  0  0  0  0  0  0  0  0
  -25.4887   -9.0183   -4.6430 N   0  0  0  0  0  0  0  0  0  0  0  0
  -24.8421   -8.7862   -5.3916 H   0  0  0  0  0  0  0  0  0  0  0  0
  -25.6812  -12.2284   -3.0985 C   0  0  0  0  0  0  0  0  0  0  0  0
  -25.8704  -10.9036   -3.1272 C   0  0  0  0  0  0  0  0  0  0  0  0
  -29.1845   -5.6992   -3.4712 N   0  0  0  0  0  0  0  0  0  0  0  0
  -29.6424   -5.8224   -2.5723 H   0  0  0  0  0  0  0  0  0  0  0  0
  -28.9290   -4.3356   -3.7520 C   0  0  0  0  0  0  0  0  0  0  0  0
  -27.7178   -3.9423   -4.3462 C   0  0  0  0  0  0  0  0  0  0  0  0
  -27.5282   -2.6233   -4.7623 C   0  0  0  0  0  0  0  0  0  0  0  0
  -28.5326   -1.6859   -4.5601 C   0  0  0  0  0  0  0  0  0  0  0  0
  -28.3172    0.0686   -5.2360 Br  0  0  0  0  0  0  0  0  0  0  0  0
  -29.7076   -2.0337   -3.8977 C   0  0  0  0  0  0  0  0  0  0  0  0
  -29.8913   -3.3528   -3.4931 C   0  0  0  0  0  0  0  0  0  0  0  0
  -31.0351   -3.6960   -2.8790 F   0  0  0  0  0  0  0  0  0  0  0  0
  -26.7628  -10.7937   -6.6591 O   0  0  0  0  0  0  0  0  0  0  0  0
  -25.8966  -10.3931   -7.7233 C   0  0  0  0  0  0  0  0  0  0  0  0
  -26.4416  -10.8188   -9.0843 C   0  0  0  0  0  0  0  0  0  0  0  0
  -27.1212   -9.6068   -9.7197 C   0  0  0  0  0  0  0  0  0  0  0  0
  -27.6524   -9.8618  -11.0380 N   0  0  0  0  0  0  0  0  0  0  0  0
  -27.1033   -9.2842  -12.1601 C   0  0  0  0  0  0  0  0  0  0  0  0
  -27.8824   -9.5281  -13.4253 C   0  0  0  0  0  0  0  0  0  0  0  0
  -26.0826   -8.6040  -12.1449 O   0  0  0  0  0  0  0  0  0  0  0  0
  -28.5383  -10.3446  -11.1126 H   0  0  0  0  0  0  0  0  0  0  0  0
 15 16  2  0  0  0
 16 11  1  0  0  0
 11 12  2  0  0  0
 11 13  1  0  0  0
 13  1  1  0  0  0
 13 14  1  0  0  0
  1  2  1  0  0  0
  1 10  2  0  0  0
  2  3  2  0  0  0
  3  4  1  0  0  0
  3  8  1  0  0  0
  4 17  1  0  0  0
  4  5  2  0  0  0
 17 19  1  0  0  0
 17 18  1  0  0  0
 19 20  1  0  0  0
 19 25  2  0  0  0
 20 21  2  0  0  0
 21 22  1  0  0  0
 22 23  1  0  0  0
 22 24  2  0  0  0
 24 25  1  0  0  0
 25 26  1  0  0  0
  5  6  1  0  0  0
  6  7  2  0  0  0
  7  8  1  0  0  0
  8  9  2  0  0  0
  9 10  1  0  0  0
 10 27  1  0  0  0
 27 28  1  0  0  0
 28 29  1  0  0  0
 29 30  1  0  0  0
 30 31  1  0  0  0
 31 32  1  0  0  0
 31 35  1  0  0  0
 32 33  1  0  0  0
 32 34  2  0  0  0
M  END
> <minimizedAffinity>
-8.03071

$$$$
