CHEMBL1242114


 25 27  0  0  0  0  0  0  0  0999 V2000
  -29.4428   -6.4691   -6.4783 C   0  0  0  0  0  0  0  0  0  0  0  0
  -30.5166   -6.9957   -7.0984 N   0  0  0  0  0  0  0  0  0  0  0  0
  -30.5427   -8.2842   -6.6953 N   0  0  0  0  0  0  0  0  0  0  0  0
  -29.5505   -8.5951   -5.8079 C   0  0  0  0  0  0  0  0  0  0  0  0
  -29.3277   -9.7919   -5.2351 N   0  0  0  0  0  0  0  0  0  0  0  0
  -28.2689   -9.7518   -4.4121 C   0  0  0  0  0  0  0  0  0  0  0  0
  -27.4930   -8.6967   -4.1171 N   0  0  0  0  0  0  0  0  0  0  0  0
  -27.7592   -7.5113   -4.7036 C   0  0  0  0  0  0  0  0  0  0  0  0
  -26.9401   -6.4560   -4.3210 N   0  0  0  0  0  0  0  0  0  0  0  0
  -28.8240   -7.4305   -5.6156 C   0  0  0  0  0  0  0  0  0  0  0  0
  -26.3984   -6.7171   -3.5040 H   0  0  0  0  0  0  0  0  0  0  0  0
  -27.4106   -5.5613   -4.2568 H   0  0  0  0  0  0  0  0  0  0  0  0
  -28.3208   -2.3972   -7.2611 C   0  0  0  0  0  0  0  0  0  0  0  0
  -29.0610   -2.7218   -6.1245 C   0  0  0  0  0  0  0  0  0  0  0  0
  -29.4011   -4.0524   -5.8574 C   0  0  0  0  0  0  0  0  0  0  0  0
  -29.0636   -5.0788   -6.7448 C   0  0  0  0  0  0  0  0  0  0  0  0
  -28.3140   -4.7552   -7.8856 C   0  0  0  0  0  0  0  0  0  0  0  0
  -27.9432   -3.4294   -8.1307 C   0  0  0  0  0  0  0  0  0  0  0  0
  -27.1908   -3.1301   -9.2363 O   0  0  0  0  0  0  0  0  0  0  0  0
  -26.9141   -3.9571   -9.6617 H   0  0  0  0  0  0  0  0  0  0  0  0
  -27.9596   -0.1483   -6.5686 C   0  0  0  0  0  0  0  0  0  0  0  0
  -27.9150   -1.1324   -7.5930 O   0  0  0  0  0  0  0  0  0  0  0  0
  -31.5701   -9.1876   -7.2038 C   0  0  0  0  0  0  0  0  0  0  0  0
  -32.9382   -8.5070   -7.2548 C   0  0  0  0  0  0  0  0  0  0  0  0
  -31.1910   -9.7593   -8.5702 C   0  0  0  0  0  0  0  0  0  0  0  0
 21 22  1  0  0  0
 22 13  1  0  0  0
 13 14  1  0  0  0
 13 18  2  0  0  0
 14 15  2  0  0  0
 15 16  1  0  0  0
 16  1  1  0  0  0
 16 17  2  0  0  0
  1  2  2  0  0  0
  1 10  1  0  0  0
  2  3  1  0  0  0
  3 23  1  0  0  0
  3  4  1  0  0  0
 23 24  1  0  0  0
 23 25  1  0  0  0
  4  5  1  0  0  0
  4 10  2  0  0  0
  5  6  2  0  0  0
  6  7  1  0  0  0
  7  8  2  0  0  0
  8  9  1  0  0  0
  8 10  1  0  0  0
  9 11  1  0  0  0
  9 12  1  0  0  0
 17 18  1  0  0  0
 18 19  1  0  0  0
 19 20  1  0  0  0
M  END
> <minimizedAffinity>
-7.44964

$$$$
