CHEMBL3908700


 36 40  0  0  0  0  0  0  0  0999 V2000
  -24.4632   -1.2060  -13.2791 C   0  0  0  0  0  0  0  0  0  0  0  0
  -23.8998   -1.4382  -12.0264 C   0  0  0  0  0  0  0  0  0  0  0  0
  -24.6882   -1.9726  -11.0057 C   0  0  0  0  0  0  0  0  0  0  0  0
  -26.0362   -2.2093  -11.2473 C   0  0  0  0  0  0  0  0  0  0  0  0
  -26.6037   -1.9294  -12.4362 N   0  0  0  0  0  0  0  0  0  0  0  0
  -25.8208   -1.4311  -13.4171 C   0  0  0  0  0  0  0  0  0  0  0  0
  -26.7998   -2.7576  -10.2179 N   0  0  0  0  0  0  0  0  0  0  0  0
  -27.2344   -2.0789   -9.1041 C   0  0  0  0  0  0  0  0  0  0  0  0
  -27.0006   -0.9035   -8.8274 O   0  0  0  0  0  0  0  0  0  0  0  0
  -28.0113   -2.8434   -8.2452 N   0  0  0  0  0  0  0  0  0  0  0  0
  -28.6168   -2.2360   -7.0883 C   0  0  0  0  0  0  0  0  0  0  0  0
  -29.4764   -3.3394   -6.5172 C   0  0  0  0  0  0  0  0  0  0  0  0
  -28.7930   -4.5396   -6.9413 N   0  0  0  0  0  0  0  0  0  0  0  0
  -27.9997   -4.2496   -8.0781 C   0  0  0  0  0  0  0  0  0  0  0  0
  -27.4474   -5.0313   -8.8394 O   0  0  0  0  0  0  0  0  0  0  0  0
  -27.0511   -3.7423  -10.2760 H   0  0  0  0  0  0  0  0  0  0  0  0
  -28.9975   -5.8079   -6.3564 C   0  0  0  0  0  0  0  0  0  0  0  0
  -29.9154   -6.7146   -6.9028 C   0  0  0  0  0  0  0  0  0  0  0  0
  -30.0967   -7.9807   -6.3391 C   0  0  0  0  0  0  0  0  0  0  0  0
  -29.3642   -8.3419   -5.2183 C   0  0  0  0  0  0  0  0  0  0  0  0
  -29.5421   -9.5516   -4.6724 F   0  0  0  0  0  0  0  0  0  0  0  0
  -28.4463   -7.4664   -4.6576 C   0  0  0  0  0  0  0  0  0  0  0  0
  -28.2554   -6.2049   -5.2316 C   0  0  0  0  0  0  0  0  0  0  0  0
  -23.7891   -0.7367  -14.3776 O   0  0  0  0  0  0  0  0  0  0  0  0
  -21.0115    1.6790  -14.5044 C   0  0  0  0  0  0  0  0  0  0  0  0
  -21.7235    0.5172  -14.7650 C   0  0  0  0  0  0  0  0  0  0  0  0
  -23.0166    0.3970  -14.2613 C   0  0  0  0  0  0  0  0  0  0  0  0
  -23.6079    1.4824  -13.6300 C   0  0  0  0  0  0  0  0  0  0  0  0
  -22.8442    2.6211  -13.4533 C   0  0  0  0  0  0  0  0  0  0  0  0
  -21.5575    2.7337  -13.8516 N   0  0  0  0  0  0  0  0  0  0  0  0
  -16.6822    3.5183  -16.0883 C   0  0  0  0  0  0  0  0  0  0  0  0
  -17.7079    2.6395  -15.5830 N   0  0  0  0  0  0  0  0  0  0  0  0
  -18.9890    2.9711  -15.2573 C   0  0  0  0  0  0  0  0  0  0  0  0
  -19.6195    1.7946  -14.9044 C   0  0  0  0  0  0  0  0  0  0  0  0
  -18.5979    0.8213  -15.0135 C   0  0  0  0  0  0  0  0  0  0  0  0
  -17.4345    1.3319  -15.4244 N   0  0  0  0  0  0  0  0  0  0  0  0
 31 32  1  0  0  0
 32 33  1  0  0  0
 32 36  1  0  0  0
 33 34  2  0  0  0
 34 25  1  0  0  0
 34 35  1  0  0  0
 25 26  1  0  0  0
 25 30  2  0  0  0
 26 27  2  0  0  0
 27 24  1  0  0  0
 27 28  1  0  0  0
 24  1  1  0  0  0
  1  2  1  0  0  0
  1  6  2  0  0  0
  2  3  2  0  0  0
  3  4  1  0  0  0
  4  7  1  0  0  0
  4  5  2  0  0  0
  7  8  1  0  0  0
  7 16  1  0  0  0
  8  9  2  0  0  0
  8 10  1  0  0  0
 10 11  1  0  0  0
 10 14  1  0  0  0
 11 12  1  0  0  0
 12 13  1  0  0  0
 13 17  1  0  0  0
 13 14  1  0  0  0
 17 18  1  0  0  0
 17 23  2  0  0  0
 18 19  2  0  0  0
 19 20  1  0  0  0
 20 21  1  0  0  0
 20 22  2  0  0  0
 22 23  1  0  0  0
 14 15  2  0  0  0
  5  6  1  0  0  0
 28 29  2  0  0  0
 29 30  1  0  0  0
 35 36  2  0  0  0
M  END
> <minimizedAffinity>
-9.54496

$$$$
