CHEMBL427264


 34 38  0  0  0  0  0  0  0  0999 V2000
  -26.9277   -1.9780  -10.8884 C   0  0  0  0  0  0  0  0  0  0  0  0
  -25.6801   -1.6453  -10.6390 N   0  0  0  0  0  0  0  0  0  0  0  0
  -25.0961   -1.4032  -11.8593 C   0  0  0  0  0  0  0  0  0  0  0  0
  -23.7890   -1.0027  -12.1739 C   0  0  0  0  0  0  0  0  0  0  0  0
  -23.4560   -0.7969  -13.5207 C   0  0  0  0  0  0  0  0  0  0  0  0
  -24.3920   -1.0560  -14.5325 C   0  0  0  0  0  0  0  0  0  0  0  0
  -25.7081   -1.4242  -14.2340 C   0  0  0  0  0  0  0  0  0  0  0  0
  -26.0122   -1.5916  -12.8851 C   0  0  0  0  0  0  0  0  0  0  0  0
  -27.1633   -1.9559  -12.2409 N   0  0  0  0  0  0  0  0  0  0  0  0
  -28.0497   -2.1418  -12.6803 H   0  0  0  0  0  0  0  0  0  0  0  0
  -27.9570   -2.2794  -10.0662 N   0  0  0  0  0  0  0  0  0  0  0  0
  -28.8842   -2.3956  -10.4565 H   0  0  0  0  0  0  0  0  0  0  0  0
  -28.5143   -3.4268   -6.5669 C   0  0  0  0  0  0  0  0  0  0  0  0
  -28.3712   -3.3987   -7.9691 C   0  0  0  0  0  0  0  0  0  0  0  0
  -27.9587   -2.2452   -8.6576 C   0  0  0  0  0  0  0  0  0  0  0  0
  -27.6515   -1.1135   -7.9011 C   0  0  0  0  0  0  0  0  0  0  0  0
  -27.7664   -1.1262   -6.5071 C   0  0  0  0  0  0  0  0  0  0  0  0
  -28.2044   -2.2735   -5.8437 C   0  0  0  0  0  0  0  0  0  0  0  0
  -28.3543   -2.1998   -4.1268 Cl  0  0  0  0  0  0  0  0  0  0  0  0
  -29.2745   -5.6842   -6.7792 F   0  0  0  0  0  0  0  0  0  0  0  0
  -29.0163   -4.6737   -5.8949 C   0  0  0  0  0  0  0  0  0  0  0  0
  -30.1838   -4.4876   -5.2201 F   0  0  0  0  0  0  0  0  0  0  0  0
  -28.1307   -5.1978   -5.0039 F   0  0  0  0  0  0  0  0  0  0  0  0
  -22.1596   -0.3848  -13.7603 O   0  0  0  0  0  0  0  0  0  0  0  0
  -21.9030    0.9455  -14.0338 C   0  0  0  0  0  0  0  0  0  0  0  0
  -22.7898    1.9888  -13.7235 C   0  0  0  0  0  0  0  0  0  0  0  0
  -22.4533    3.2885  -14.0848 C   0  0  0  0  0  0  0  0  0  0  0  0
  -21.3022    3.6713  -14.6752 N   0  0  0  0  0  0  0  0  0  0  0  0
  -20.4497    2.6484  -14.8672 C   0  0  0  0  0  0  0  0  0  0  0  0
  -19.1951    2.7821  -15.3926 N   0  0  0  0  0  0  0  0  0  0  0  0
  -18.5731    1.5633  -15.4339 C   0  0  0  0  0  0  0  0  0  0  0  0
  -19.4606    0.6239  -14.9501 C   0  0  0  0  0  0  0  0  0  0  0  0
  -20.6587    1.3014  -14.5828 C   0  0  0  0  0  0  0  0  0  0  0  0
  -18.8027    3.6640  -15.6778 H   0  0  0  0  0  0  0  0  0  0  0  0
 20 21  1  0  0  0
 21 22  1  0  0  0
 21 23  1  0  0  0
 21 13  1  0  0  0
 13 14  1  0  0  0
 13 18  2  0  0  0
 14 15  2  0  0  0
 15 11  1  0  0  0
 15 16  1  0  0  0
 11  1  1  0  0  0
 11 12  1  0  0  0
  1  2  2  0  0  0
  1  9  1  0  0  0
  2  3  1  0  0  0
  3  4  1  0  0  0
  3  8  2  0  0  0
  4  5  2  0  0  0
  5 24  1  0  0  0
  5  6  1  0  0  0
 24 25  1  0  0  0
 25 26  1  0  0  0
 25 33  2  0  0  0
 26 27  2  0  0  0
 27 28  1  0  0  0
 28 29  2  0  0  0
 29 30  1  0  0  0
 29 33  1  0  0  0
 30 31  1  0  0  0
 30 34  1  0  0  0
 31 32  2  0  0  0
 32 33  1  0  0  0
  6  7  2  0  0  0
  7  8  1  0  0  0
  8  9  1  0  0  0
  9 10  1  0  0  0
 16 17  2  0  0  0
 17 18  1  0  0  0
 18 19  1  0  0  0
M  END
> <minimizedAffinity>
-11.70579

$$$$
