CHEMBL1242199


 26 29  0  0  0  0  0  0  0  0999 V2000
  -12.6017   -0.9219  -13.5962 N   0  0  0  0  0  0  0  0  0  0  0  0
  -13.4150    0.0445  -14.1777 C   0  0  0  0  0  0  0  0  0  0  0  0
  -12.7693    1.0836  -14.7445 N   0  0  0  0  0  0  0  0  0  0  0  0
  -13.4920    2.0374  -15.3598 C   0  0  0  0  0  0  0  0  0  0  0  0
  -14.8226    2.0940  -15.5063 N   0  0  0  0  0  0  0  0  0  0  0  0
  -15.4289    1.0457  -14.9219 C   0  0  0  0  0  0  0  0  0  0  0  0
  -14.8187    0.0047  -14.2358 C   0  0  0  0  0  0  0  0  0  0  0  0
  -15.9043   -0.8150  -13.7790 C   0  0  0  0  0  0  0  0  0  0  0  0
  -17.0841   -0.3391  -14.2227 N   0  0  0  0  0  0  0  0  0  0  0  0
  -16.7723    0.7967  -14.8819 N   0  0  0  0  0  0  0  0  0  0  0  0
  -11.6401   -0.7532  -13.8758 H   0  0  0  0  0  0  0  0  0  0  0  0
  -12.9233   -1.8688  -13.7568 H   0  0  0  0  0  0  0  0  0  0  0  0
  -15.8816   -2.0225  -12.9446 C   0  0  0  0  0  0  0  0  0  0  0  0
  -15.7476   -1.9383  -11.5510 C   0  0  0  0  0  0  0  0  0  0  0  0
  -15.6734   -3.0968  -10.7798 C   0  0  0  0  0  0  0  0  0  0  0  0
  -15.4632   -3.0319   -9.4340 O   0  0  0  0  0  0  0  0  0  0  0  0
  -15.8042   -4.3486  -11.3602 C   0  0  0  0  0  0  0  0  0  0  0  0
  -15.9942   -4.4335  -12.7325 C   0  0  0  0  0  0  0  0  0  0  0  0
  -16.1479   -5.6353  -13.3024 F   0  0  0  0  0  0  0  0  0  0  0  0
  -16.0222   -3.2902  -13.5275 C   0  0  0  0  0  0  0  0  0  0  0  0
  -15.3080   -2.1052   -9.1821 H   0  0  0  0  0  0  0  0  0  0  0  0
  -17.8178    1.6305  -15.4381 C   0  0  0  0  0  0  0  0  0  0  0  0
  -17.8647    3.0418  -14.8488 C   0  0  0  0  0  0  0  0  0  0  0  0
  -19.2803    3.5429  -15.1251 C   0  0  0  0  0  0  0  0  0  0  0  0
  -20.1182    2.3153  -15.4790 C   0  0  0  0  0  0  0  0  0  0  0  0
  -19.2335    1.1066  -15.2001 C   0  0  0  0  0  0  0  0  0  0  0  0
  1  2  1  0  0  0
  1 11  1  0  0  0
  1 12  1  0  0  0
  2  3  1  0  0  0
  2  7  2  0  0  0
  3  4  2  0  0  0
  4  5  1  0  0  0
  5  6  2  0  0  0
  6  7  1  0  0  0
  6 10  1  0  0  0
  7  8  1  0  0  0
  8 13  1  0  0  0
  8  9  2  0  0  0
 13 14  1  0  0  0
 13 20  2  0  0  0
 14 15  2  0  0  0
 15 16  1  0  0  0
 15 17  1  0  0  0
 16 21  1  0  0  0
 17 18  2  0  0  0
 18 19  1  0  0  0
 18 20  1  0  0  0
  9 10  1  0  0  0
 10 22  1  0  0  0
 22 23  1  0  0  0
 22 26  1  0  0  0
 23 24  1  0  0  0
 24 25  1  0  0  0
 25 26  1  0  0  0
M  END
> <minimizedAffinity>
-8.00465

$$$$
