CHEMBL489329


 27 30  0  0  0  0  0  0  0  0999 V2000
  -28.1348   -0.7841   -6.9231 C   0  0  0  0  0  0  0  0  0  0  0  0
  -28.4336    0.5948   -6.9944 C   0  0  0  0  0  0  0  0  0  0  0  0
  -28.9384    1.2899   -5.8994 C   0  0  0  0  0  0  0  0  0  0  0  0
  -29.1382    0.6201   -4.7045 C   0  0  0  0  0  0  0  0  0  0  0  0
  -28.8341   -0.7406   -4.6088 C   0  0  0  0  0  0  0  0  0  0  0  0
  -28.3686   -1.4896   -5.7111 C   0  0  0  0  0  0  0  0  0  0  0  0
  -26.9522   -1.8011  -10.1820 N   0  0  0  0  0  0  0  0  0  0  0  0
  -27.3971   -0.7872   -9.3656 C   0  0  0  0  0  0  0  0  0  0  0  0
  -27.6700   -1.3937   -8.1622 C   0  0  0  0  0  0  0  0  0  0  0  0
  -27.4799   -2.7446   -8.2984 N   0  0  0  0  0  0  0  0  0  0  0  0
  -27.0587   -2.9846   -9.5307 N   0  0  0  0  0  0  0  0  0  0  0  0
  -22.8299   -1.2791  -13.2113 Cl  0  0  0  0  0  0  0  0  0  0  0  0
  -24.5222   -1.4923  -12.9788 C   0  0  0  0  0  0  0  0  0  0  0  0
  -25.3584   -1.6336  -14.0852 C   0  0  0  0  0  0  0  0  0  0  0  0
  -26.7262   -1.8178  -13.8978 C   0  0  0  0  0  0  0  0  0  0  0  0
  -27.2567   -1.8629  -12.6048 C   0  0  0  0  0  0  0  0  0  0  0  0
  -26.4121   -1.7186  -11.4890 C   0  0  0  0  0  0  0  0  0  0  0  0
  -25.0387   -1.5277  -11.6843 C   0  0  0  0  0  0  0  0  0  0  0  0
  -28.0412   -2.8579   -5.5540 N   0  0  0  0  0  0  0  0  0  0  0  0
  -28.5871   -3.4341   -6.1884 H   0  0  0  0  0  0  0  0  0  0  0  0
  -28.0920   -3.4240   -4.2058 C   0  0  0  0  0  0  0  0  0  0  0  0
  -29.3282   -4.2640   -4.0404 C   0  0  0  0  0  0  0  0  0  0  0  0
  -30.5485   -3.6987   -3.6544 C   0  0  0  0  0  0  0  0  0  0  0  0
  -31.6840   -4.4985   -3.5643 C   0  0  0  0  0  0  0  0  0  0  0  0
  -31.5605   -5.8455   -3.8594 C   0  0  0  0  0  0  0  0  0  0  0  0
  -30.4006   -6.4290   -4.2304 N   0  0  0  0  0  0  0  0  0  0  0  0
  -29.3150   -5.6271   -4.3146 C   0  0  0  0  0  0  0  0  0  0  0  0
 12 13  1  0  0  0
 13 14  1  0  0  0
 13 18  2  0  0  0
 14 15  2  0  0  0
 15 16  1  0  0  0
 16 17  2  0  0  0
 17  7  1  0  0  0
 17 18  1  0  0  0
  7  8  1  0  0  0
  7 11  1  0  0  0
  8  9  2  0  0  0
  9  1  1  0  0  0
  9 10  1  0  0  0
  1  2  1  0  0  0
  1  6  2  0  0  0
  2  3  2  0  0  0
  3  4  1  0  0  0
  4  5  2  0  0  0
  5  6  1  0  0  0
  6 19  1  0  0  0
 19 21  1  0  0  0
 19 20  1  0  0  0
 21 22  1  0  0  0
 22 23  1  0  0  0
 22 27  2  0  0  0
 23 24  2  0  0  0
 24 25  1  0  0  0
 25 26  2  0  0  0
 26 27  1  0  0  0
 10 11  2  0  0  0
M  END
> <minimizedAffinity>
-9.24088

$$$$
