CHEMBL2018745


 28 30  0  0  0  0  0  0  0  0999 V2000
  -27.9699   -2.3517   -9.8561 N   0  0  0  0  0  0  0  0  0  0  0  0
  -28.2826   -3.2968  -10.0458 H   0  0  0  0  0  0  0  0  0  0  0  0
  -28.0191   -2.1039   -8.4549 C   0  0  0  0  0  0  0  0  0  0  0  0
  -27.5800   -0.9305   -7.9657 N   0  0  0  0  0  0  0  0  0  0  0  0
  -27.6742   -0.7422   -6.6470 C   0  0  0  0  0  0  0  0  0  0  0  0
  -28.1776   -1.6065   -5.7625 N   0  0  0  0  0  0  0  0  0  0  0  0
  -28.6063   -2.7725   -6.2467 C   0  0  0  0  0  0  0  0  0  0  0  0
  -29.1104   -3.7011   -5.3454 C   0  0  0  0  0  0  0  0  0  0  0  0
  -29.5315   -4.9817   -5.7320 C   0  0  0  0  0  0  0  0  0  0  0  0
  -29.4694   -5.3281   -7.0870 C   0  0  0  0  0  0  0  0  0  0  0  0
  -29.0114   -4.3771   -8.0101 C   0  0  0  0  0  0  0  0  0  0  0  0
  -28.5507   -3.1006   -7.6049 C   0  0  0  0  0  0  0  0  0  0  0  0
  -29.9408   -5.9221   -4.8261 O   0  0  0  0  0  0  0  0  0  0  0  0
  -31.1983   -5.7283   -4.1896 C   0  0  0  0  0  0  0  0  0  0  0  0
  -29.8064   -6.5128   -7.6863 O   0  0  0  0  0  0  0  0  0  0  0  0
  -28.7681   -7.3912   -8.0957 C   0  0  0  0  0  0  0  0  0  0  0  0
  -25.0694   -1.1464  -12.7300 C   0  0  0  0  0  0  0  0  0  0  0  0
  -26.3578   -1.4951  -13.1266 C   0  0  0  0  0  0  0  0  0  0  0  0
  -27.3235   -1.8874  -12.1937 C   0  0  0  0  0  0  0  0  0  0  0  0
  -27.0437   -1.9159  -10.8300 C   0  0  0  0  0  0  0  0  0  0  0  0
  -25.7203   -1.6425  -10.4443 C   0  0  0  0  0  0  0  0  0  0  0  0
  -24.7399   -1.2645  -11.3793 C   0  0  0  0  0  0  0  0  0  0  0  0
  -22.8373   -0.2215  -13.2802 C   0  0  0  0  0  0  0  0  0  0  0  0
  -22.3879   -0.1995  -12.1403 O   0  0  0  0  0  0  0  0  0  0  0  0
  -24.0867   -0.7014  -13.6462 N   0  0  0  0  0  0  0  0  0  0  0  0
  -24.2534   -0.8812  -14.6273 H   0  0  0  0  0  0  0  0  0  0  0  0
  -21.0517    1.3768  -13.9723 C   0  0  0  0  0  0  0  0  0  0  0  0
  -22.0086    0.2893  -14.4447 C   0  0  0  0  0  0  0  0  0  0  0  0
 27 28  1  0  0  0
 28 23  1  0  0  0
 23 24  2  0  0  0
 23 25  1  0  0  0
 25 17  1  0  0  0
 25 26  1  0  0  0
 17 18  1  0  0  0
 17 22  2  0  0  0
 18 19  2  0  0  0
 19 20  1  0  0  0
 20  1  1  0  0  0
 20 21  2  0  0  0
  1  3  1  0  0  0
  1  2  1  0  0  0
  3  4  1  0  0  0
  3 12  2  0  0  0
  4  5  2  0  0  0
  5  6  1  0  0  0
  6  7  2  0  0  0
  7  8  1  0  0  0
  7 12  1  0  0  0
  8  9  2  0  0  0
  9 13  1  0  0  0
  9 10  1  0  0  0
 13 14  1  0  0  0
 10 15  1  0  0  0
 10 11  2  0  0  0
 15 16  1  0  0  0
 11 12  1  0  0  0
 21 22  1  0  0  0
M  END
> <minimizedAffinity>
-8.89326

$$$$
