CHEMBL3694685


 36 39  0  0  0  0  0  0  0  0999 V2000
  -18.8656    2.0112  -15.0227 C   0  0  0  0  0  0  0  0  0  0  0  0
  -19.4745    0.6933  -15.2581 C   0  0  0  0  0  0  0  0  0  0  0  0
  -20.7669    0.4799  -14.9654 C   0  0  0  0  0  0  0  0  0  0  0  0
  -21.5345    1.5034  -14.4025 N   0  0  0  0  0  0  0  0  0  0  0  0
  -22.8435    1.5162  -13.9153 C   0  0  0  0  0  0  0  0  0  0  0  0
  -23.0490    2.8445  -13.5725 C   0  0  0  0  0  0  0  0  0  0  0  0
  -21.9320    3.6128  -13.7633 N   0  0  0  0  0  0  0  0  0  0  0  0
  -21.0191    2.7860  -14.2228 C   0  0  0  0  0  0  0  0  0  0  0  0
  -19.6479    3.0086  -14.5420 C   0  0  0  0  0  0  0  0  0  0  0  0
  -14.8090    2.7871  -15.8306 C   0  0  0  0  0  0  0  0  0  0  0  0
  -15.2374    1.5905  -15.3007 C   0  0  0  0  0  0  0  0  0  0  0  0
  -16.5281    1.3093  -15.0358 N   0  0  0  0  0  0  0  0  0  0  0  0
  -17.4277    2.2749  -15.3055 C   0  0  0  0  0  0  0  0  0  0  0  0
  -17.1101    3.4773  -15.8284 N   0  0  0  0  0  0  0  0  0  0  0  0
  -15.8048    3.7052  -16.0752 C   0  0  0  0  0  0  0  0  0  0  0  0
  -12.9046    4.3589  -15.4833 C   0  0  0  0  0  0  0  0  0  0  0  0
  -13.3725    3.0617  -16.1240 C   0  0  0  0  0  0  0  0  0  0  0  0
  -13.1315    3.1519  -17.4640 F   0  0  0  0  0  0  0  0  0  0  0  0
  -12.5568    2.0629  -15.6780 F   0  0  0  0  0  0  0  0  0  0  0  0
  -23.7397    0.3586  -13.7458 C   0  0  0  0  0  0  0  0  0  0  0  0
  -24.0935   -0.4279  -14.8492 C   0  0  0  0  0  0  0  0  0  0  0  0
  -24.9619   -1.5031  -14.7143 C   0  0  0  0  0  0  0  0  0  0  0  0
  -25.4225   -1.8673  -13.4560 C   0  0  0  0  0  0  0  0  0  0  0  0
  -25.0186   -1.1770  -12.3140 C   0  0  0  0  0  0  0  0  0  0  0  0
  -24.2034   -0.0391  -12.4711 C   0  0  0  0  0  0  0  0  0  0  0  0
  -25.3887   -1.5893  -11.0045 N   0  0  0  0  0  0  0  0  0  0  0  0
  -26.6769   -1.6595  -10.5169 C   0  0  0  0  0  0  0  0  0  0  0  0
  -27.7138   -1.3819  -11.1081 O   0  0  0  0  0  0  0  0  0  0  0  0
  -26.7285   -2.0534   -9.1969 N   0  0  0  0  0  0  0  0  0  0  0  0
  -24.6495   -1.9066  -10.4006 H   0  0  0  0  0  0  0  0  0  0  0  0
  -26.0035   -2.6763   -8.8732 H   0  0  0  0  0  0  0  0  0  0  0  0
  -28.0532   -2.1786   -8.5689 C   0  0  0  0  0  0  0  0  0  0  0  0
  -28.4216   -3.5668   -8.0199 C   0  0  0  0  0  0  0  0  0  0  0  0
  -28.3368   -3.6230   -6.6713 F   0  0  0  0  0  0  0  0  0  0  0  0
  -29.7082   -3.8590   -8.3418 F   0  0  0  0  0  0  0  0  0  0  0  0
  -27.6514   -4.5482   -8.5338 F   0  0  0  0  0  0  0  0  0  0  0  0
 16 17  1  0  0  0
 17 18  1  0  0  0
 17 19  1  0  0  0
 17 10  1  0  0  0
 10 11  1  0  0  0
 10 15  2  0  0  0
 11 12  2  0  0  0
 12 13  1  0  0  0
 13  1  1  0  0  0
 13 14  2  0  0  0
  1  2  1  0  0  0
  1  9  2  0  0  0
  2  3  2  0  0  0
  3  4  1  0  0  0
  4  5  1  0  0  0
  4  8  1  0  0  0
  5 20  1  0  0  0
  5  6  2  0  0  0
 20 21  1  0  0  0
 20 25  2  0  0  0
 21 22  2  0  0  0
 22 23  1  0  0  0
 23 24  2  0  0  0
 24 26  1  0  0  0
 24 25  1  0  0  0
 26 27  1  0  0  0
 26 30  1  0  0  0
 27 28  2  0  0  0
 27 29  1  0  0  0
 29 32  1  0  0  0
 29 31  1  0  0  0
 32 33  1  0  0  0
 33 34  1  0  0  0
 33 35  1  0  0  0
 33 36  1  0  0  0
  6  7  1  0  0  0
  7  8  2  0  0  0
  8  9  1  0  0  0
 14 15  1  0  0  0
M  END
> <minimizedAffinity>
-9.94474

$$$$
