CHEMBL255405


 32 37  0  0  0  0  0  0  0  0999 V2000
  -12.9430   -1.0844  -15.3035 N   0  0  0  0  0  0  0  0  0  0  0  0
  -13.5697   -2.0482  -14.4834 C   0  0  0  0  0  0  0  0  0  0  0  0
  -13.3823   -3.4417  -14.3487 C   0  0  0  0  0  0  0  0  0  0  0  0
  -14.2746   -4.1655  -13.5331 C   0  0  0  0  0  0  0  0  0  0  0  0
  -15.2845   -3.5157  -12.8209 C   0  0  0  0  0  0  0  0  0  0  0  0
  -15.4335   -2.1346  -12.9269 C   0  0  0  0  0  0  0  0  0  0  0  0
  -14.6037   -1.4062  -13.7881 C   0  0  0  0  0  0  0  0  0  0  0  0
  -14.5781   -0.1312  -14.3061 C   0  0  0  0  0  0  0  0  0  0  0  0
  -15.7046    0.6981  -14.2957 C   0  0  0  0  0  0  0  0  0  0  0  0
  -15.7563    1.6624  -15.3214 C   0  0  0  0  0  0  0  0  0  0  0  0
  -14.6993    1.9145  -16.2136 C   0  0  0  0  0  0  0  0  0  0  0  0
  -13.4359    1.4499  -15.7233 C   0  0  0  0  0  0  0  0  0  0  0  0
  -13.5059    0.1779  -15.0980 C   0  0  0  0  0  0  0  0  0  0  0  0
  -12.5771    2.6510  -15.1117 C   0  0  0  0  0  0  0  0  0  0  0  0
  -13.3592    4.0251  -14.9861 C   0  0  0  0  0  0  0  0  0  0  0  0
  -14.0082    4.2637  -16.3027 C   0  0  0  0  0  0  0  0  0  0  0  0
  -13.7927    5.2705  -17.1476 N   0  0  0  0  0  0  0  0  0  0  0  0
  -14.2676    4.7764  -18.3194 N   0  0  0  0  0  0  0  0  0  0  0  0
  -14.0746    5.5237  -19.5382 C   0  0  0  0  0  0  0  0  0  0  0  0
  -14.6917    3.4712  -18.2360 C   0  0  0  0  0  0  0  0  0  0  0  0
  -14.6764    3.1822  -16.8971 C   0  0  0  0  0  0  0  0  0  0  0  0
  -16.9928    2.3872  -15.1582 C   0  0  0  0  0  0  0  0  0  0  0  0
  -17.5112    3.3107  -15.7607 O   0  0  0  0  0  0  0  0  0  0  0  0
  -17.5743    1.8254  -14.0268 N   0  0  0  0  0  0  0  0  0  0  0  0
  -16.8936    0.6930  -13.4543 C   0  0  0  0  0  0  0  0  0  0  0  0
  -18.4349    2.2098  -13.6651 H   0  0  0  0  0  0  0  0  0  0  0  0
  -16.2958   -4.2082  -11.9771 C   0  0  0  0  0  0  0  0  0  0  0  0
  -16.9488   -5.4629  -12.4758 C   0  0  0  0  0  0  0  0  0  0  0  0
  -16.5683   -3.7544  -10.8655 O   0  0  0  0  0  0  0  0  0  0  0  0
  -12.0042   -1.4209  -16.3657 C   0  0  0  0  0  0  0  0  0  0  0  0
  -13.3458   -1.0406  -18.5176 C   0  0  0  0  0  0  0  0  0  0  0  0
  -12.6441   -2.0463  -17.6184 C   0  0  0  0  0  0  0  0  0  0  0  0
 31 32  1  0  0  0
 32 30  1  0  0  0
 30  1  1  0  0  0
  1  2  1  0  0  0
  1 13  1  0  0  0
  2  3  1  0  0  0
  2  7  2  0  0  0
  3  4  2  0  0  0
  4  5  1  0  0  0
  5 27  1  0  0  0
  5  6  2  0  0  0
 27 28  1  0  0  0
 27 29  2  0  0  0
  6  7  1  0  0  0
  7  8  1  0  0  0
  8  9  1  0  0  0
  8 13  2  0  0  0
  9 10  2  0  0  0
  9 25  1  0  0  0
 10 11  1  0  0  0
 10 22  1  0  0  0
 11 12  2  0  0  0
 11 21  1  0  0  0
 12 13  1  0  0  0
 12 14  1  0  0  0
 14 15  1  0  0  0
 15 16  1  0  0  0
 16 17  2  0  0  0
 16 21  1  0  0  0
 17 18  1  0  0  0
 18 19  1  0  0  0
 18 20  1  0  0  0
 20 21  2  0  0  0
 22 23  2  0  0  0
 22 24  1  0  0  0
 24 25  1  0  0  0
 24 26  1  0  0  0
M  END
> <minimizedAffinity>
-7.29787

$$$$
