CHEMBL272693


 35 39  0  0  0  0  0  0  0  0999 V2000
  -29.2558   -5.7022   -6.1210 C   0  0  0  0  0  0  0  0  0  0  0  0
  -29.2210   -5.4978   -7.4970 C   0  0  0  0  0  0  0  0  0  0  0  0
  -28.7772   -4.2783   -8.0272 C   0  0  0  0  0  0  0  0  0  0  0  0
  -28.4074   -3.1917   -7.1950 C   0  0  0  0  0  0  0  0  0  0  0  0
  -27.9723   -1.9041   -7.6359 C   0  0  0  0  0  0  0  0  0  0  0  0
  -27.6287   -0.9077   -6.7016 C   0  0  0  0  0  0  0  0  0  0  0  0
  -27.7105   -1.1512   -5.3375 C   0  0  0  0  0  0  0  0  0  0  0  0
  -28.1120   -2.4038   -4.8905 C   0  0  0  0  0  0  0  0  0  0  0  0
  -28.4465   -3.4258   -5.7920 C   0  0  0  0  0  0  0  0  0  0  0  0
  -28.8150   -4.6830   -5.2798 C   0  0  0  0  0  0  0  0  0  0  0  0
  -27.7482   -1.5072   -9.0613 C   0  0  0  0  0  0  0  0  0  0  0  0
  -28.5760   -0.7551   -9.5672 O   0  0  0  0  0  0  0  0  0  0  0  0
  -26.6799   -2.0889   -9.7172 N   0  0  0  0  0  0  0  0  0  0  0  0
  -26.1684   -2.8086   -9.2221 H   0  0  0  0  0  0  0  0  0  0  0  0
  -26.3121   -1.8672  -11.0680 C   0  0  0  0  0  0  0  0  0  0  0  0
  -27.1921   -1.9573  -12.1427 C   0  0  0  0  0  0  0  0  0  0  0  0
  -26.7040   -1.7573  -13.4270 C   0  0  0  0  0  0  0  0  0  0  0  0
  -25.4184   -1.4680  -13.7077 N   0  0  0  0  0  0  0  0  0  0  0  0
  -24.5855   -1.3654  -12.6524 C   0  0  0  0  0  0  0  0  0  0  0  0
  -24.9786   -1.5426  -11.3339 C   0  0  0  0  0  0  0  0  0  0  0  0
  -29.7400   -6.9309   -5.7202 O   0  0  0  0  0  0  0  0  0  0  0  0
  -29.2313  -10.3332   -9.5905 C   0  0  0  0  0  0  0  0  0  0  0  0
  -30.5857  -10.1894   -9.2489 C   0  0  0  0  0  0  0  0  0  0  0  0
  -31.0171   -9.3339   -8.2428 C   0  0  0  0  0  0  0  0  0  0  0  0
  -32.3388   -9.1604   -8.0776 N   0  0  0  0  0  0  0  0  0  0  0  0
  -32.7580   -8.2676   -7.1567 C   0  0  0  0  0  0  0  0  0  0  0  0
  -31.9043   -7.5098   -6.3828 C   0  0  0  0  0  0  0  0  0  0  0  0
  -30.5339   -7.6950   -6.5534 C   0  0  0  0  0  0  0  0  0  0  0  0
  -30.0555   -8.6565   -7.4739 C   0  0  0  0  0  0  0  0  0  0  0  0
  -28.6954   -8.9552   -7.6933 C   0  0  0  0  0  0  0  0  0  0  0  0
  -28.2704   -9.7175   -8.7805 C   0  0  0  0  0  0  0  0  0  0  0  0
  -28.8369  -10.3946  -11.9339 C   0  0  0  0  0  0  0  0  0  0  0  0
  -28.8250  -11.0657  -10.6745 O   0  0  0  0  0  0  0  0  0  0  0  0
  -26.9081   -9.7181   -8.8965 O   0  0  0  0  0  0  0  0  0  0  0  0
  -26.1563  -10.7136   -8.2232 C   0  0  0  0  0  0  0  0  0  0  0  0
 32 33  1  0  0  0
 33 22  1  0  0  0
 22 23  1  0  0  0
 22 31  2  0  0  0
 23 24  2  0  0  0
 24 25  1  0  0  0
 24 29  1  0  0  0
 25 26  2  0  0  0
 26 27  1  0  0  0
 27 28  2  0  0  0
 28 21  1  0  0  0
 28 29  1  0  0  0
 21  1  1  0  0  0
  1  2  1  0  0  0
  1 10  2  0  0  0
  2  3  2  0  0  0
  3  4  1  0  0  0
  4  5  1  0  0  0
  4  9  2  0  0  0
  5 11  1  0  0  0
  5  6  2  0  0  0
 11 12  2  0  0  0
 11 13  1  0  0  0
 13 15  1  0  0  0
 13 14  1  0  0  0
 15 16  1  0  0  0
 15 20  2  0  0  0
 16 17  2  0  0  0
 17 18  1  0  0  0
 18 19  2  0  0  0
 19 20  1  0  0  0
  6  7  1  0  0  0
  7  8  2  0  0  0
  8  9  1  0  0  0
  9 10  1  0  0  0
 29 30  2  0  0  0
 30 31  1  0  0  0
 31 34  1  0  0  0
 34 35  1  0  0  0
M  END
> <minimizedAffinity>
-9.87829

$$$$
