CHEMBL2180602


 34 37  0  0  0  0  0  0  0  0999 V2000
  -28.9700   -9.8386   -6.1826 C   0  0  0  0  0  0  0  0  0  0  0  0
  -29.2246   -9.5983   -4.8367 C   0  0  0  0  0  0  0  0  0  0  0  0
  -29.4251  -10.5251   -3.6883 C   0  0  0  0  0  0  0  0  0  0  0  0
  -29.1994   -8.2244   -4.6382 N   0  0  0  0  0  0  0  0  0  0  0  0
  -28.9189   -7.5762   -5.8113 C   0  0  0  0  0  0  0  0  0  0  0  0
  -28.7802   -8.5523   -6.7782 C   0  0  0  0  0  0  0  0  0  0  0  0
  -28.4661   -8.2965   -8.2071 C   0  0  0  0  0  0  0  0  0  0  0  0
  -28.3403   -6.8315   -8.5858 C   0  0  0  0  0  0  0  0  0  0  0  0
  -28.4608   -5.7718   -7.4860 C   0  0  0  0  0  0  0  0  0  0  0  0
  -28.7713   -6.1652   -6.0381 C   0  0  0  0  0  0  0  0  0  0  0  0
  -28.8584   -5.1661   -5.1168 C   0  0  0  0  0  0  0  0  0  0  0  0
  -29.1351   -5.2676   -3.6254 C   0  0  0  0  0  0  0  0  0  0  0  0
  -29.3366   -6.2610   -2.9506 O   0  0  0  0  0  0  0  0  0  0  0  0
  -29.1180   -3.9711   -3.1419 N   0  0  0  0  0  0  0  0  0  0  0  0
  -28.8684   -3.0461   -4.1452 C   0  0  0  0  0  0  0  0  0  0  0  0
  -28.7890   -1.6687   -3.9875 C   0  0  0  0  0  0  0  0  0  0  0  0
  -28.5262   -0.8993   -5.1209 C   0  0  0  0  0  0  0  0  0  0  0  0
  -28.3518   -1.5223   -6.3542 C   0  0  0  0  0  0  0  0  0  0  0  0
  -28.1014   -0.7778   -7.4405 F   0  0  0  0  0  0  0  0  0  0  0  0
  -28.4345   -2.9059   -6.4927 C   0  0  0  0  0  0  0  0  0  0  0  0
  -28.6969   -3.6923   -5.3740 C   0  0  0  0  0  0  0  0  0  0  0  0
  -29.3307   -7.7725   -3.7367 H   0  0  0  0  0  0  0  0  0  0  0  0
  -29.2764   -3.7520   -2.1697 H   0  0  0  0  0  0  0  0  0  0  0  0
  -29.6208  -11.2815   -8.0093 N   0  0  0  0  0  0  0  0  0  0  0  0
  -28.8275  -11.1099   -6.8990 C   0  0  0  0  0  0  0  0  0  0  0  0
  -28.0030  -11.9576   -6.5620 O   0  0  0  0  0  0  0  0  0  0  0  0
  -30.0266  -10.4592   -8.4391 H   0  0  0  0  0  0  0  0  0  0  0  0
  -29.4424  -12.4647   -8.8232 C   0  0  0  0  0  0  0  0  0  0  0  0
  -28.4936  -12.2436  -10.0106 C   0  0  0  0  0  0  0  0  0  0  0  0
  -28.2906  -10.8267  -10.3962 N   0  0  0  0  0  0  0  0  0  0  0  0
  -26.0193  -11.1435   -9.3289 C   0  0  0  0  0  0  0  0  0  0  0  0
  -26.8594  -10.4716  -10.4105 C   0  0  0  0  0  0  0  0  0  0  0  0
  -28.9928  -10.5227  -11.6574 C   0  0  0  0  0  0  0  0  0  0  0  0
  -28.1859   -9.7900  -12.7285 C   0  0  0  0  0  0  0  0  0  0  0  0
 31 32  1  0  0  0
 32 30  1  0  0  0
 30 33  1  0  0  0
 30 29  1  0  0  0
 33 34  1  0  0  0
 29 28  1  0  0  0
 28 24  1  0  0  0
 24 25  1  0  0  0
 24 27  1  0  0  0
 25 26  2  0  0  0
 25  1  1  0  0  0
  1  2  2  0  0  0
  1  6  1  0  0  0
  2  3  1  0  0  0
  2  4  1  0  0  0
  4  5  1  0  0  0
  4 22  1  0  0  0
  5  6  2  0  0  0
  5 10  1  0  0  0
  6  7  1  0  0  0
  7  8  1  0  0  0
  8  9  1  0  0  0
  9 10  1  0  0  0
 10 11  2  0  0  0
 11 12  1  0  0  0
 11 21  1  0  0  0
 12 13  2  0  0  0
 12 14  1  0  0  0
 14 15  1  0  0  0
 14 23  1  0  0  0
 15 16  1  0  0  0
 15 21  2  0  0  0
 16 17  2  0  0  0
 17 18  1  0  0  0
 18 19  1  0  0  0
 18 20  2  0  0  0
 20 21  1  0  0  0
M  END
> <minimizedAffinity>
-7.46889

$$$$
