CHEMBL360526


 35 38  0  0  0  0  0  0  0  0999 V2000
  -19.2672    2.5248  -14.6820 C   0  0  0  0  0  0  0  0  0  0  0  0
  -20.5257    2.9660  -14.2859 C   0  0  0  0  0  0  0  0  0  0  0  0
  -21.5930    2.0644  -14.2515 C   0  0  0  0  0  0  0  0  0  0  0  0
  -21.4507    0.7464  -14.6983 C   0  0  0  0  0  0  0  0  0  0  0  0
  -20.2258    0.3687  -15.2584 C   0  0  0  0  0  0  0  0  0  0  0  0
  -19.1391    1.2546  -15.2480 C   0  0  0  0  0  0  0  0  0  0  0  0
  -22.4618   -0.2395  -14.5610 N   0  0  0  0  0  0  0  0  0  0  0  0
  -23.4736   -0.2244  -13.6203 C   0  0  0  0  0  0  0  0  0  0  0  0
  -23.7314    0.7089  -12.8680 O   0  0  0  0  0  0  0  0  0  0  0  0
  -24.1870   -1.4209  -13.5934 N   0  0  0  0  0  0  0  0  0  0  0  0
  -22.4413   -1.0214  -15.2015 H   0  0  0  0  0  0  0  0  0  0  0  0
  -23.6180   -2.2501  -13.7163 H   0  0  0  0  0  0  0  0  0  0  0  0
  -25.2605   -1.5649  -12.6733 C   0  0  0  0  0  0  0  0  0  0  0  0
  -26.5947   -1.5017  -13.0937 C   0  0  0  0  0  0  0  0  0  0  0  0
  -27.6253   -1.5144  -12.1536 C   0  0  0  0  0  0  0  0  0  0  0  0
  -27.3205   -1.5899  -10.8026 C   0  0  0  0  0  0  0  0  0  0  0  0
  -28.3122   -1.5577   -9.9033 F   0  0  0  0  0  0  0  0  0  0  0  0
  -26.0052   -1.6910  -10.3674 C   0  0  0  0  0  0  0  0  0  0  0  0
  -24.9835   -1.7000  -11.3102 C   0  0  0  0  0  0  0  0  0  0  0  0
  -23.7091   -1.7606  -10.8935 F   0  0  0  0  0  0  0  0  0  0  0  0
  -18.1012    3.2363  -14.5105 O   0  0  0  0  0  0  0  0  0  0  0  0
  -13.9327    0.1492  -13.8647 C   0  0  0  0  0  0  0  0  0  0  0  0
  -13.8523    0.8393  -15.0864 C   0  0  0  0  0  0  0  0  0  0  0  0
  -14.8446    1.7086  -15.5276 C   0  0  0  0  0  0  0  0  0  0  0  0
  -14.6135    2.4185  -16.6427 N   0  0  0  0  0  0  0  0  0  0  0  0
  -15.5281    3.3324  -17.0222 C   0  0  0  0  0  0  0  0  0  0  0  0
  -16.6766    3.6030  -16.3077 C   0  0  0  0  0  0  0  0  0  0  0  0
  -16.9301    2.8609  -15.1568 C   0  0  0  0  0  0  0  0  0  0  0  0
  -16.0242    1.8341  -14.7715 C   0  0  0  0  0  0  0  0  0  0  0  0
  -16.1861    0.9492  -13.6815 C   0  0  0  0  0  0  0  0  0  0  0  0
  -15.1395    0.1775  -13.1694 C   0  0  0  0  0  0  0  0  0  0  0  0
  -12.4135   -1.6465  -14.1719 C   0  0  0  0  0  0  0  0  0  0  0  0
  -12.8768   -0.5633  -13.3627 O   0  0  0  0  0  0  0  0  0  0  0  0
  -15.4956   -0.4173  -11.9932 O   0  0  0  0  0  0  0  0  0  0  0  0
  -15.7081   -1.8125  -11.9312 C   0  0  0  0  0  0  0  0  0  0  0  0
 32 33  1  0  0  0
 33 22  1  0  0  0
 22 23  1  0  0  0
 22 31  2  0  0  0
 23 24  2  0  0  0
 24 25  1  0  0  0
 24 29  1  0  0  0
 25 26  2  0  0  0
 26 27  1  0  0  0
 27 28  2  0  0  0
 28 21  1  0  0  0
 28 29  1  0  0  0
 21  1  1  0  0  0
  1  2  1  0  0  0
  1  6  2  0  0  0
  2  3  2  0  0  0
  3  4  1  0  0  0
  4  7  1  0  0  0
  4  5  2  0  0  0
  7  8  1  0  0  0
  7 11  1  0  0  0
  8  9  2  0  0  0
  8 10  1  0  0  0
 10 13  1  0  0  0
 10 12  1  0  0  0
 13 14  1  0  0  0
 13 19  2  0  0  0
 14 15  2  0  0  0
 15 16  1  0  0  0
 16 17  1  0  0  0
 16 18  2  0  0  0
 18 19  1  0  0  0
 19 20  1  0  0  0
  5  6  1  0  0  0
 29 30  2  0  0  0
 30 31  1  0  0  0
 31 34  1  0  0  0
 34 35  1  0  0  0
M  END
> <minimizedAffinity>
-9.98391

$$$$
