CHEMBL1807478


 41 45  0  0  0  0  0  0  0  0999 V2000
  -27.3697   -2.4079   -8.8092 C   0  0  0  0  0  0  0  0  0  0  0  0
  -27.8888   -3.6283   -8.4517 C   0  0  0  0  0  0  0  0  0  0  0  0
  -28.7733   -3.3779   -7.3735 C   0  0  0  0  0  0  0  0  0  0  0  0
  -28.8178   -2.0671   -7.0913 N   0  0  0  0  0  0  0  0  0  0  0  0
  -27.9377   -1.5165   -7.9417 N   0  0  0  0  0  0  0  0  0  0  0  0
  -27.7963   -0.5131   -7.8861 H   0  0  0  0  0  0  0  0  0  0  0  0
  -29.5216   -4.3760   -6.6163 C   0  0  0  0  0  0  0  0  0  0  0  0
  -30.0199   -4.0667   -5.3463 C   0  0  0  0  0  0  0  0  0  0  0  0
  -30.7679   -5.0010   -4.6336 C   0  0  0  0  0  0  0  0  0  0  0  0
  -31.0466   -6.2504   -5.2020 C   0  0  0  0  0  0  0  0  0  0  0  0
  -30.5726   -6.5603   -6.4813 C   0  0  0  0  0  0  0  0  0  0  0  0
  -29.7974   -5.6333   -7.1775 C   0  0  0  0  0  0  0  0  0  0  0  0
  -30.8763   -7.8092   -7.0877 N   0  0  0  0  0  0  0  0  0  0  0  0
  -31.8502   -8.1113   -7.0527 H   0  0  0  0  0  0  0  0  0  0  0  0
  -29.8171   -9.1201   -6.9110 S   0  0  0  0  0  0  0  0  0  0  0  0
  -28.7578   -8.6938   -6.0227 O   0  0  0  0  0  0  0  0  0  0  0  0
  -30.5997  -10.3111   -6.6052 O   0  0  0  0  0  0  0  0  0  0  0  0
  -29.0870   -9.3667   -8.5142 C   0  0  0  0  0  0  0  0  0  0  0  0
  -27.8208   -8.8185   -8.7536 C   0  0  0  0  0  0  0  0  0  0  0  0
  -27.1435   -9.1021   -9.9384 C   0  0  0  0  0  0  0  0  0  0  0  0
  -27.7150   -9.9595  -10.8790 C   0  0  0  0  0  0  0  0  0  0  0  0
  -28.9745  -10.5173  -10.6426 C   0  0  0  0  0  0  0  0  0  0  0  0
  -29.6668  -10.2256   -9.4597 C   0  0  0  0  0  0  0  0  0  0  0  0
  -28.0608   -1.2906  -11.2903 O   0  0  0  0  0  0  0  0  0  0  0  0
  -26.8878   -1.5525  -11.0698 C   0  0  0  0  0  0  0  0  0  0  0  0
  -26.4623   -2.1246   -9.8207 N   0  0  0  0  0  0  0  0  0  0  0  0
  -25.4730   -2.2061   -9.6251 H   0  0  0  0  0  0  0  0  0  0  0  0
  -25.8350   -1.1859  -12.0308 C   0  0  0  0  0  0  0  0  0  0  0  0
  -24.7927   -0.3787  -11.5606 C   0  0  0  0  0  0  0  0  0  0  0  0
  -23.7735    0.0157  -12.4254 C   0  0  0  0  0  0  0  0  0  0  0  0
  -23.7840   -0.3887  -13.7651 C   0  0  0  0  0  0  0  0  0  0  0  0
  -24.8407   -1.1771  -14.2320 C   0  0  0  0  0  0  0  0  0  0  0  0
  -25.8625   -1.5887  -13.3674 C   0  0  0  0  0  0  0  0  0  0  0  0
  -22.8148   -0.0692  -14.6895 O   0  0  0  0  0  0  0  0  0  0  0  0
  -21.8704    0.9140  -14.2266 C   0  0  0  0  0  0  0  0  0  0  0  0
  -20.5625    0.8974  -15.0407 C   0  0  0  0  0  0  0  0  0  0  0  0
  -19.3953    1.4448  -14.3070 N   0  0  0  0  0  0  0  0  0  0  0  0
  -19.4227    2.9204  -14.2914 C   0  0  0  0  0  0  0  0  0  0  0  0
  -18.7854    3.3226  -15.6108 C   0  0  0  0  0  0  0  0  0  0  0  0
  -17.6763    2.3015  -15.7839 C   0  0  0  0  0  0  0  0  0  0  0  0
  -18.0730    1.1347  -14.8813 C   0  0  0  0  0  0  0  0  0  0  0  0
 24 25  2  0  0  0
 25 26  1  0  0  0
 25 28  1  0  0  0
 26  1  1  0  0  0
 26 27  1  0  0  0
  1  2  2  0  0  0
  1  5  1  0  0  0
  2  3  1  0  0  0
  3  7  1  0  0  0
  3  4  2  0  0  0
  7  8  1  0  0  0
  7 12  2  0  0  0
  8  9  2  0  0  0
  9 10  1  0  0  0
 10 11  2  0  0  0
 11 13  1  0  0  0
 11 12  1  0  0  0
 13 15  1  0  0  0
 13 14  1  0  0  0
 15 16  2  0  0  0
 15 17  2  0  0  0
 15 18  1  0  0  0
 18 19  1  0  0  0
 18 23  2  0  0  0
 19 20  2  0  0  0
 20 21  1  0  0  0
 21 22  2  0  0  0
 22 23  1  0  0  0
  4  5  1  0  0  0
  5  6  1  0  0  0
 28 29  1  0  0  0
 28 33  2  0  0  0
 29 30  2  0  0  0
 30 31  1  0  0  0
 31 34  1  0  0  0
 31 32  2  0  0  0
 34 35  1  0  0  0
 35 36  1  0  0  0
 36 37  1  0  0  0
 37 38  1  0  0  0
 37 41  1  0  0  0
 38 39  1  0  0  0
 39 40  1  0  0  0
 40 41  1  0  0  0
 32 33  1  0  0  0
M  END
> <minimizedAffinity>
-10.53240

$$$$
