CHEMBL1087524


 41 45  0  0  0  0  0  0  0  0999 V2000
  -30.5921   -5.8279   -4.8633 C   0  0  0  0  0  0  0  0  0  0  0  0
  -29.9251   -4.9790   -5.9222 C   0  0  0  0  0  0  0  0  0  0  0  0
  -29.7215   -3.6191   -5.6494 C   0  0  0  0  0  0  0  0  0  0  0  0
  -29.0673   -2.8043   -6.5710 C   0  0  0  0  0  0  0  0  0  0  0  0
  -28.5286   -3.3535   -7.7365 C   0  0  0  0  0  0  0  0  0  0  0  0
  -28.7234   -4.7108   -7.9984 C   0  0  0  0  0  0  0  0  0  0  0  0
  -29.4968   -5.5169   -7.1622 C   0  0  0  0  0  0  0  0  0  0  0  0
  -27.8608   -2.4411   -8.7151 C   0  0  0  0  0  0  0  0  0  0  0  0
  -27.8318   -1.2491   -8.4248 O   0  0  0  0  0  0  0  0  0  0  0  0
  -27.3599   -3.0135   -9.8792 N   0  0  0  0  0  0  0  0  0  0  0  0
  -27.4844   -4.0047  -10.0209 H   0  0  0  0  0  0  0  0  0  0  0  0
  -26.7977   -2.3127  -10.9751 C   0  0  0  0  0  0  0  0  0  0  0  0
  -27.5124   -1.9840  -12.1250 C   0  0  0  0  0  0  0  0  0  0  0  0
  -26.8826   -1.3658  -13.2040 C   0  0  0  0  0  0  0  0  0  0  0  0
  -25.5160   -1.0933  -13.1592 C   0  0  0  0  0  0  0  0  0  0  0  0
  -24.7740   -1.4000  -12.0142 C   0  0  0  0  0  0  0  0  0  0  0  0
  -25.4384   -1.9643  -10.9084 C   0  0  0  0  0  0  0  0  0  0  0  0
  -23.2812   -1.1799  -11.9866 C   0  0  0  0  0  0  0  0  0  0  0  0
  -22.9274    0.1125  -11.7278 F   0  0  0  0  0  0  0  0  0  0  0  0
  -22.6535   -1.9324  -11.0402 F   0  0  0  0  0  0  0  0  0  0  0  0
  -22.6743   -1.4863  -13.1657 F   0  0  0  0  0  0  0  0  0  0  0  0
  -29.8597   -6.8304   -7.5012 N   0  0  0  0  0  0  0  0  0  0  0  0
  -30.4980   -6.8515   -8.2914 H   0  0  0  0  0  0  0  0  0  0  0  0
  -29.2361   -8.0391   -7.4018 C   0  0  0  0  0  0  0  0  0  0  0  0
  -27.9547   -8.0829   -7.7161 N   0  0  0  0  0  0  0  0  0  0  0  0
  -27.9652   -8.8182   -8.8688 C   0  0  0  0  0  0  0  0  0  0  0  0
  -27.0024   -8.8790   -9.8802 C   0  0  0  0  0  0  0  0  0  0  0  0
  -27.3031   -9.6082  -11.0328 C   0  0  0  0  0  0  0  0  0  0  0  0
  -28.5058  -10.3131  -11.1444 C   0  0  0  0  0  0  0  0  0  0  0  0
  -29.4529  -10.3159  -10.1133 C   0  0  0  0  0  0  0  0  0  0  0  0
  -29.1629   -9.5226   -9.0051 C   0  0  0  0  0  0  0  0  0  0  0  0
  -29.7913   -9.2592   -7.7869 N   0  0  0  0  0  0  0  0  0  0  0  0
  -30.6017  -10.1739   -7.0580 C   0  0  0  0  0  0  0  0  0  0  0  0
  -31.9736  -10.1905   -7.2413 C   0  0  0  0  0  0  0  0  0  0  0  0
  -32.6768  -11.1125   -6.4969 C   0  0  0  0  0  0  0  0  0  0  0  0
  -34.0329  -11.3173   -6.7096 N   0  0  0  0  0  0  0  0  0  0  0  0
  -32.0900  -11.9297   -5.6178 N   0  0  0  0  0  0  0  0  0  0  0  0
  -30.7663  -11.8178   -5.4795 C   0  0  0  0  0  0  0  0  0  0  0  0
  -29.9840  -10.9852   -6.1687 N   0  0  0  0  0  0  0  0  0  0  0  0
  -34.5888  -10.4734   -6.6583 H   0  0  0  0  0  0  0  0  0  0  0  0
  -34.3618  -12.0315   -6.0630 H   0  0  0  0  0  0  0  0  0  0  0  0
  1  2  1  0  0  0
  2  3  1  0  0  0
  2  7  2  0  0  0
  3  4  2  0  0  0
  4  5  1  0  0  0
  5  8  1  0  0  0
  5  6  2  0  0  0
  8  9  2  0  0  0
  8 10  1  0  0  0
 10 12  1  0  0  0
 10 11  1  0  0  0
 12 13  1  0  0  0
 12 17  2  0  0  0
 13 14  2  0  0  0
 14 15  1  0  0  0
 15 16  2  0  0  0
 16 18  1  0  0  0
 16 17  1  0  0  0
 18 19  1  0  0  0
 18 20  1  0  0  0
 18 21  1  0  0  0
  6  7  1  0  0  0
  7 22  1  0  0  0
 22 24  1  0  0  0
 22 23  1  0  0  0
 24 25  2  0  0  0
 24 32  1  0  0  0
 25 26  1  0  0  0
 26 27  1  0  0  0
 26 31  2  0  0  0
 27 28  2  0  0  0
 28 29  1  0  0  0
 29 30  2  0  0  0
 30 31  1  0  0  0
 31 32  1  0  0  0
 32 33  1  0  0  0
 33 34  1  0  0  0
 33 39  2  0  0  0
 34 35  2  0  0  0
 35 36  1  0  0  0
 35 37  1  0  0  0
 36 40  1  0  0  0
 36 41  1  0  0  0
 37 38  2  0  0  0
 38 39  1  0  0  0
M  END
> <minimizedAffinity>
-11.04507

$$$$
