CHEMBL1971021


 35 38  0  0  0  0  0  0  0  0999 V2000
  -15.0880   -2.4041  -12.4212 C   0  0  0  0  0  0  0  0  0  0  0  0
  -13.7432   -2.4360  -12.1274 C   0  0  0  0  0  0  0  0  0  0  0  0
  -13.0735   -3.6567  -12.1524 C   0  0  0  0  0  0  0  0  0  0  0  0
  -13.7038   -4.9091  -12.3973 C   0  0  0  0  0  0  0  0  0  0  0  0
  -15.0882   -4.8639  -12.6714 C   0  0  0  0  0  0  0  0  0  0  0  0
  -15.7410   -3.6030  -12.7219 C   0  0  0  0  0  0  0  0  0  0  0  0
  -12.8137   -6.1067  -12.4938 C   0  0  0  0  0  0  0  0  0  0  0  0
  -12.5480   -6.9192  -11.3659 C   0  0  0  0  0  0  0  0  0  0  0  0
  -12.0318   -8.2274  -11.4576 C   0  0  0  0  0  0  0  0  0  0  0  0
  -11.9262   -8.8380  -12.6957 C   0  0  0  0  0  0  0  0  0  0  0  0
  -12.1889   -8.0459  -13.7912 C   0  0  0  0  0  0  0  0  0  0  0  0
  -12.4561   -6.6722  -13.7212 C   0  0  0  0  0  0  0  0  0  0  0  0
  -12.5233   -6.1896  -15.1345 C   0  0  0  0  0  0  0  0  0  0  0  0
  -13.0316   -7.3540  -15.8193 N   0  0  0  0  0  0  0  0  0  0  0  0
  -12.7320   -8.4944  -15.0867 C   0  0  0  0  0  0  0  0  0  0  0  0
  -13.0892   -9.6273  -15.3411 O   0  0  0  0  0  0  0  0  0  0  0  0
  -13.9717   -7.3635  -16.2022 H   0  0  0  0  0  0  0  0  0  0  0  0
  -16.5936    0.7569  -13.2613 N   0  0  0  0  0  0  0  0  0  0  0  0
  -15.9485   -0.4267  -13.5460 C   0  0  0  0  0  0  0  0  0  0  0  0
  -15.6188   -0.8106  -14.6600 O   0  0  0  0  0  0  0  0  0  0  0  0
  -15.7445   -1.1642  -12.3987 N   0  0  0  0  0  0  0  0  0  0  0  0
  -16.3954    1.1729  -12.3549 H   0  0  0  0  0  0  0  0  0  0  0  0
  -16.4378   -1.0265  -11.6722 H   0  0  0  0  0  0  0  0  0  0  0  0
  -20.4813    2.9444  -15.3317 C   0  0  0  0  0  0  0  0  0  0  0  0
  -19.0097    2.7078  -15.2809 C   0  0  0  0  0  0  0  0  0  0  0  0
  -18.1431    3.4049  -16.1339 C   0  0  0  0  0  0  0  0  0  0  0  0
  -16.7658    3.1941  -16.0764 C   0  0  0  0  0  0  0  0  0  0  0  0
  -15.8061    3.9290  -16.9628 C   0  0  0  0  0  0  0  0  0  0  0  0
  -16.2572    2.2925  -15.1423 C   0  0  0  0  0  0  0  0  0  0  0  0
  -17.1012    1.6197  -14.2566 C   0  0  0  0  0  0  0  0  0  0  0  0
  -18.4803    1.8038  -14.3483 C   0  0  0  0  0  0  0  0  0  0  0  0
  -15.9788   -6.0482  -12.9831 C   0  0  0  0  0  0  0  0  0  0  0  0
  -15.5918   -7.2360  -12.4485 F   0  0  0  0  0  0  0  0  0  0  0  0
  -17.2603   -5.8733  -12.5477 F   0  0  0  0  0  0  0  0  0  0  0  0
  -16.0812   -6.2594  -14.3287 F   0  0  0  0  0  0  0  0  0  0  0  0
 24 25  1  0  0  0
 25 26  1  0  0  0
 25 31  2  0  0  0
 26 27  2  0  0  0
 27 28  1  0  0  0
 27 29  1  0  0  0
 29 30  2  0  0  0
 30 18  1  0  0  0
 30 31  1  0  0  0
 18 19  1  0  0  0
 18 22  1  0  0  0
 19 20  2  0  0  0
 19 21  1  0  0  0
 21  1  1  0  0  0
 21 23  1  0  0  0
  1  2  1  0  0  0
  1  6  2  0  0  0
  2  3  2  0  0  0
  3  4  1  0  0  0
  4  7  1  0  0  0
  4  5  2  0  0  0
  7  8  1  0  0  0
  7 12  2  0  0  0
  8  9  2  0  0  0
  9 10  1  0  0  0
 10 11  2  0  0  0
 11 12  1  0  0  0
 11 15  1  0  0  0
 12 13  1  0  0  0
 13 14  1  0  0  0
 14 15  1  0  0  0
 14 17  1  0  0  0
 15 16  2  0  0  0
  5 32  1  0  0  0
  5  6  1  0  0  0
 32 33  1  0  0  0
 32 34  1  0  0  0
 32 35  1  0  0  0
M  END
> <minimizedAffinity>
-8.62559

$$$$
