CHEMBL101311


 33 35  0  0  0  0  0  0  0  0999 V2000
  -15.7555   -1.4704  -11.7968 N   0  0  0  0  0  0  0  0  0  0  0  0
  -15.6460   -1.0004  -10.9078 H   0  0  0  0  0  0  0  0  0  0  0  0
  -14.5875   -5.5309  -11.7541 C   0  0  0  0  0  0  0  0  0  0  0  0
  -13.6213   -4.5333  -11.7858 C   0  0  0  0  0  0  0  0  0  0  0  0
  -14.0063   -3.1940  -11.7843 C   0  0  0  0  0  0  0  0  0  0  0  0
  -15.3582   -2.8219  -11.7755 C   0  0  0  0  0  0  0  0  0  0  0  0
  -16.3218   -3.8306  -11.7045 C   0  0  0  0  0  0  0  0  0  0  0  0
  -15.9380   -5.1763  -11.7179 C   0  0  0  0  0  0  0  0  0  0  0  0
  -14.3324   -6.8699  -11.8042 O   0  0  0  0  0  0  0  0  0  0  0  0
  -13.5396   -7.3366  -12.9075 C   0  0  0  0  0  0  0  0  0  0  0  0
  -14.4503   -7.3852  -14.1437 C   0  0  0  0  0  0  0  0  0  0  0  0
  -15.4188   -8.4193  -13.9013 O   0  0  0  0  0  0  0  0  0  0  0  0
  -14.9075   -9.2298  -13.7190 H   0  0  0  0  0  0  0  0  0  0  0  0
  -13.6238   -7.6676  -15.4244 C   0  0  0  0  0  0  0  0  0  0  0  0
  -13.6567   -5.7063  -16.8138 C   0  0  0  0  0  0  0  0  0  0  0  0
  -14.1408   -7.0847  -16.6847 N   0  0  0  0  0  0  0  0  0  0  0  0
  -13.7247   -7.8581  -17.8591 C   0  0  0  0  0  0  0  0  0  0  0  0
  -15.4229   -0.5657  -12.8122 C   0  0  0  0  0  0  0  0  0  0  0  0
  -14.1829   -0.0707  -12.8249 N   0  0  0  0  0  0  0  0  0  0  0  0
  -13.8906    0.7543  -13.8496 C   0  0  0  0  0  0  0  0  0  0  0  0
  -14.7800    1.0916  -14.8440 C   0  0  0  0  0  0  0  0  0  0  0  0
  -16.0445    0.5575  -14.7403 C   0  0  0  0  0  0  0  0  0  0  0  0
  -16.3526   -0.2579  -13.7280 N   0  0  0  0  0  0  0  0  0  0  0  0
  -17.0261    0.9116  -15.6868 N   0  0  0  0  0  0  0  0  0  0  0  0
  -17.0598    0.2491  -16.4580 H   0  0  0  0  0  0  0  0  0  0  0  0
  -18.2939    1.5159  -15.4663 C   0  0  0  0  0  0  0  0  0  0  0  0
  -19.4219    0.7714  -15.0831 C   0  0  0  0  0  0  0  0  0  0  0  0
  -20.6299    1.3984  -14.7706 C   0  0  0  0  0  0  0  0  0  0  0  0
  -21.9939    0.4493  -14.3203 Cl  0  0  0  0  0  0  0  0  0  0  0  0
  -20.7365    2.7851  -14.8010 C   0  0  0  0  0  0  0  0  0  0  0  0
  -19.6275    3.5503  -15.1573 C   0  0  0  0  0  0  0  0  0  0  0  0
  -18.4204    2.9211  -15.4838 C   0  0  0  0  0  0  0  0  0  0  0  0
  -17.0738    3.9200  -15.9177 Cl  0  0  0  0  0  0  0  0  0  0  0  0
 15 16  1  0  0  0
 16 17  1  0  0  0
 16 14  1  0  0  0
 14 11  1  0  0  0
 11 12  1  0  0  0
 11 10  1  0  0  0
 12 13  1  0  0  0
 10  9  1  0  0  0
  9  3  1  0  0  0
  3  4  1  0  0  0
  3  8  2  0  0  0
  4  5  2  0  0  0
  5  6  1  0  0  0
  6  1  1  0  0  0
  6  7  2  0  0  0
  1 18  1  0  0  0
  1  2  1  0  0  0
 18 19  1  0  0  0
 18 23  2  0  0  0
 19 20  2  0  0  0
 20 21  1  0  0  0
 21 22  2  0  0  0
 22 24  1  0  0  0
 22 23  1  0  0  0
 24 26  1  0  0  0
 24 25  1  0  0  0
 26 27  1  0  0  0
 26 32  2  0  0  0
 27 28  2  0  0  0
 28 29  1  0  0  0
 28 30  1  0  0  0
 30 31  2  0  0  0
 31 32  1  0  0  0
 32 33  1  0  0  0
  7  8  1  0  0  0
M  END
> <minimizedAffinity>
-8.47630

$$$$
