CHEMBL3889762


 46 50  0  0  0  0  0  0  0  0999 V2000
  -20.0088    0.8078  -15.2867 N   0  0  0  0  0  0  0  0  0  0  0  0
  -18.8093    1.4041  -14.9203 C   0  0  0  0  0  0  0  0  0  0  0  0
  -18.5620    1.9051  -13.8292 O   0  0  0  0  0  0  0  0  0  0  0  0
  -17.9039    1.4404  -15.9762 N   0  0  0  0  0  0  0  0  0  0  0  0
  -20.0650    0.4314  -16.2168 H   0  0  0  0  0  0  0  0  0  0  0  0
  -18.3309    1.6378  -16.8696 H   0  0  0  0  0  0  0  0  0  0  0  0
  -21.6125    3.2725  -14.8879 C   0  0  0  0  0  0  0  0  0  0  0  0
  -21.9101    1.9476  -14.2400 C   0  0  0  0  0  0  0  0  0  0  0  0
  -22.9994    1.9013  -13.3508 C   0  0  0  0  0  0  0  0  0  0  0  0
  -23.4316    0.7005  -12.7805 C   0  0  0  0  0  0  0  0  0  0  0  0
  -22.7414   -0.4694  -13.0598 C   0  0  0  0  0  0  0  0  0  0  0  0
  -21.6327   -0.4317  -13.9090 C   0  0  0  0  0  0  0  0  0  0  0  0
  -21.1839    0.7657  -14.4911 C   0  0  0  0  0  0  0  0  0  0  0  0
  -24.4857    0.6153  -11.9024 O   0  0  0  0  0  0  0  0  0  0  0  0
  -25.3681   -0.4462  -12.0624 C   0  0  0  0  0  0  0  0  0  0  0  0
  -25.7681   -1.1012  -10.9179 C   0  0  0  0  0  0  0  0  0  0  0  0
  -26.6458   -2.1433  -11.1101 C   0  0  0  0  0  0  0  0  0  0  0  0
  -27.1029   -2.4713  -12.3241 N   0  0  0  0  0  0  0  0  0  0  0  0
  -26.6406   -1.7851  -13.3682 C   0  0  0  0  0  0  0  0  0  0  0  0
  -25.7640   -0.7885  -13.3015 N   0  0  0  0  0  0  0  0  0  0  0  0
  -27.0675   -2.8863   -9.9920 N   0  0  0  0  0  0  0  0  0  0  0  0
  -27.7104   -2.3248   -8.9125 C   0  0  0  0  0  0  0  0  0  0  0  0
  -28.0070   -1.1427   -8.7412 O   0  0  0  0  0  0  0  0  0  0  0  0
  -26.9141   -3.8803  -10.0004 H   0  0  0  0  0  0  0  0  0  0  0  0
  -28.0474   -3.3084   -7.8394 C   0  0  0  0  0  0  0  0  0  0  0  0
  -29.4155   -3.9562   -7.8009 C   0  0  0  0  0  0  0  0  0  0  0  0
  -29.0554   -2.9126   -6.7846 C   0  0  0  0  0  0  0  0  0  0  0  0
  -16.6134    1.9914  -15.7740 C   0  0  0  0  0  0  0  0  0  0  0  0
  -16.2481    3.1547  -16.4567 C   0  0  0  0  0  0  0  0  0  0  0  0
  -15.0142    3.7956  -16.2323 C   0  0  0  0  0  0  0  0  0  0  0  0
  -14.1235    3.1913  -15.3376 C   0  0  0  0  0  0  0  0  0  0  0  0
  -14.4404    1.9705  -14.6989 C   0  0  0  0  0  0  0  0  0  0  0  0
  -15.7053    1.4016  -14.8994 C   0  0  0  0  0  0  0  0  0  0  0  0
  -13.4527    1.2463  -13.8174 C   0  0  0  0  0  0  0  0  0  0  0  0
  -13.9643    0.1331  -13.2214 F   0  0  0  0  0  0  0  0  0  0  0  0
  -12.3414    0.8350  -14.4876 F   0  0  0  0  0  0  0  0  0  0  0  0
  -13.0027    2.0321  -12.7995 F   0  0  0  0  0  0  0  0  0  0  0  0
  -14.8065    5.0133  -16.8523 N   0  0  0  0  0  0  0  0  0  0  0  0
  -14.7493    5.8076  -16.2239 H   0  0  0  0  0  0  0  0  0  0  0  0
  -14.7887    5.3276  -18.2826 C   0  0  0  0  0  0  0  0  0  0  0  0
  -13.7424    4.5133  -19.0430 C   0  0  0  0  0  0  0  0  0  0  0  0
  -12.3094    4.8843  -18.6526 C   0  0  0  0  0  0  0  0  0  0  0  0
  -12.0150    6.3226  -18.7433 N   0  0  0  0  0  0  0  0  0  0  0  0
  -10.6967    6.5977  -18.1535 C   0  0  0  0  0  0  0  0  0  0  0  0
  -13.0277    7.1649  -18.0939 C   0  0  0  0  0  0  0  0  0  0  0  0
  -14.4658    6.8152  -18.4885 C   0  0  0  0  0  0  0  0  0  0  0  0
  7  8  1  0  0  0
  8  9  1  0  0  0
  8 13  2  0  0  0
  9 10  2  0  0  0
 10 14  1  0  0  0
 10 11  1  0  0  0
 14 15  1  0  0  0
 15 16  1  0  0  0
 15 20  2  0  0  0
 16 17  2  0  0  0
 17 21  1  0  0  0
 17 18  1  0  0  0
 21 22  1  0  0  0
 21 24  1  0  0  0
 22 23  2  0  0  0
 22 25  1  0  0  0
 25 26  1  0  0  0
 25 27  1  0  0  0
 26 27  1  0  0  0
 18 19  2  0  0  0
 19 20  1  0  0  0
 11 12  2  0  0  0
 12 13  1  0  0  0
 13  1  1  0  0  0
  1  2  1  0  0  0
  1  5  1  0  0  0
  2  3  2  0  0  0
  2  4  1  0  0  0
  4 28  1  0  0  0
  4  6  1  0  0  0
 28 29  1  0  0  0
 28 33  2  0  0  0
 29 30  2  0  0  0
 30 38  1  0  0  0
 30 31  1  0  0  0
 38 40  1  0  0  0
 38 39  1  0  0  0
 40 41  1  0  0  0
 40 46  1  0  0  0
 41 42  1  0  0  0
 42 43  1  0  0  0
 43 44  1  0  0  0
 43 45  1  0  0  0
 45 46  1  0  0  0
 31 32  2  0  0  0
 32 34  1  0  0  0
 32 33  1  0  0  0
 34 35  1  0  0  0
 34 36  1  0  0  0
 34 37  1  0  0  0
M  END
> <minimizedAffinity>
-9.42726

$$$$
