CHEMBL149243


 27 29  0  0  0  0  0  0  0  0999 V2000
  -18.3919    2.9042  -15.6719 C   0  0  0  0  0  0  0  0  0  0  0  0
  -18.3131    1.4981  -15.6499 C   0  0  0  0  0  0  0  0  0  0  0  0
  -19.3649    0.7208  -15.1335 C   0  0  0  0  0  0  0  0  0  0  0  0
  -20.4858    1.3705  -14.6473 C   0  0  0  0  0  0  0  0  0  0  0  0
  -20.5436    2.7668  -14.6717 C   0  0  0  0  0  0  0  0  0  0  0  0
  -19.5180    3.5512  -15.1596 C   0  0  0  0  0  0  0  0  0  0  0  0
  -21.7557    3.2159  -14.1618 N   0  0  0  0  0  0  0  0  0  0  0  0
  -22.5746    2.1610  -13.7870 C   0  0  0  0  0  0  0  0  0  0  0  0
  -23.7095    2.2596  -13.3677 O   0  0  0  0  0  0  0  0  0  0  0  0
  -21.7556    0.9180  -14.0541 C   0  0  0  0  0  0  0  0  0  0  0  0
  -22.0914   -0.3536  -13.7835 C   0  0  0  0  0  0  0  0  0  0  0  0
  -22.0496    4.1779  -14.0927 H   0  0  0  0  0  0  0  0  0  0  0  0
  -23.3030   -0.7132  -13.1428 C   0  0  0  0  0  0  0  0  0  0  0  0
  -23.3364   -0.7470  -11.7730 N   0  0  0  0  0  0  0  0  0  0  0  0
  -24.5807   -1.1348  -11.3501 C   0  0  0  0  0  0  0  0  0  0  0  0
  -25.3705   -1.3752  -12.4596 C   0  0  0  0  0  0  0  0  0  0  0  0
  -24.5565   -1.0829  -13.6099 C   0  0  0  0  0  0  0  0  0  0  0  0
  -24.9333   -1.2099  -15.0460 C   0  0  0  0  0  0  0  0  0  0  0  0
  -22.5480   -0.5673  -11.1663 H   0  0  0  0  0  0  0  0  0  0  0  0
  -26.7693   -1.9231  -12.4438 C   0  0  0  0  0  0  0  0  0  0  0  0
  -27.6768   -1.2691  -11.4062 C   0  0  0  0  0  0  0  0  0  0  0  0
  -27.4370   -1.8661  -10.0388 C   0  0  0  0  0  0  0  0  0  0  0  0
  -27.6518   -1.3131   -8.9724 O   0  0  0  0  0  0  0  0  0  0  0  0
  -26.9372   -3.1232  -10.1048 O   0  0  0  0  0  0  0  0  0  0  0  0
  -26.8111   -3.4483  -11.0159 H   0  0  0  0  0  0  0  0  0  0  0  0
  -16.0769    3.2411  -16.0530 C   0  0  0  0  0  0  0  0  0  0  0  0
  -17.4074    3.7405  -16.1272 O   0  0  0  0  0  0  0  0  0  0  0  0
 26 27  1  0  0  0
 27  1  1  0  0  0
  1  2  1  0  0  0
  1  6  2  0  0  0
  2  3  2  0  0  0
  3  4  1  0  0  0
  4  5  2  0  0  0
  4 10  1  0  0  0
  5  6  1  0  0  0
  5  7  1  0  0  0
  7  8  1  0  0  0
  7 12  1  0  0  0
  8  9  2  0  0  0
  8 10  1  0  0  0
 10 11  2  0  0  0
 11 13  1  0  0  0
 13 14  1  0  0  0
 13 17  2  0  0  0
 14 15  1  0  0  0
 14 19  1  0  0  0
 15 16  2  0  0  0
 16 20  1  0  0  0
 16 17  1  0  0  0
 20 21  1  0  0  0
 21 22  1  0  0  0
 22 23  2  0  0  0
 22 24  1  0  0  0
 24 25  1  0  0  0
 17 18  1  0  0  0
M  END
> <minimizedAffinity>
-9.87713

$$$$
