CHEMBL3633759


 31 33  0  0  0  0  0  0  0  0999 V2000
  -30.2285   -4.2835   -5.5277 C   0  0  0  0  0  0  0  0  0  0  0  0
  -29.9050   -2.9242   -5.4416 C   0  0  0  0  0  0  0  0  0  0  0  0
  -29.0715   -2.2996   -6.3546 C   0  0  0  0  0  0  0  0  0  0  0  0
  -28.7909   -1.0094   -6.1566 N   0  0  0  0  0  0  0  0  0  0  0  0
  -27.9778   -0.4322   -7.0426 C   0  0  0  0  0  0  0  0  0  0  0  0
  -27.4491   -1.0205   -8.1148 N   0  0  0  0  0  0  0  0  0  0  0  0
  -27.7548   -2.3179   -8.3192 C   0  0  0  0  0  0  0  0  0  0  0  0
  -28.5653   -3.0398   -7.4282 C   0  0  0  0  0  0  0  0  0  0  0  0
  -28.8961   -4.4130   -7.5419 C   0  0  0  0  0  0  0  0  0  0  0  0
  -29.7516   -5.0232   -6.6221 C   0  0  0  0  0  0  0  0  0  0  0  0
  -31.5739   -4.1834   -3.5343 C   0  0  0  0  0  0  0  0  0  0  0  0
  -30.9887   -4.9312   -4.5948 O   0  0  0  0  0  0  0  0  0  0  0  0
  -27.2558   -2.9529   -9.4916 N   0  0  0  0  0  0  0  0  0  0  0  0
  -27.8763   -3.7183   -9.7371 H   0  0  0  0  0  0  0  0  0  0  0  0
  -26.8061   -2.2441  -10.6300 C   0  0  0  0  0  0  0  0  0  0  0  0
  -27.6059   -2.1669  -11.7807 C   0  0  0  0  0  0  0  0  0  0  0  0
  -27.1447   -1.5361  -12.9353 C   0  0  0  0  0  0  0  0  0  0  0  0
  -25.8764   -0.9630  -12.9499 C   0  0  0  0  0  0  0  0  0  0  0  0
  -25.0879   -1.0120  -11.8013 C   0  0  0  0  0  0  0  0  0  0  0  0
  -23.5140   -0.3083  -11.8268 Cl  0  0  0  0  0  0  0  0  0  0  0  0
  -25.5463   -1.6362  -10.6425 C   0  0  0  0  0  0  0  0  0  0  0  0
  -30.0118   -6.3511   -6.8772 O   0  0  0  0  0  0  0  0  0  0  0  0
  -28.8795   -7.0671   -7.3675 C   0  0  0  0  0  0  0  0  0  0  0  0
  -28.7534   -8.4286   -6.6825 C   0  0  0  0  0  0  0  0  0  0  0  0
  -27.9969   -8.2521   -5.3678 C   0  0  0  0  0  0  0  0  0  0  0  0
  -28.8615   -8.3439   -4.1337 C   0  0  0  0  0  0  0  0  0  0  0  0
  -29.1080   -9.3782   -3.5212 O   0  0  0  0  0  0  0  0  0  0  0  0
  -29.3469   -7.1145   -3.7399 N   0  0  0  0  0  0  0  0  0  0  0  0
  -30.2367   -7.1246   -2.6415 O   0  0  0  0  0  0  0  0  0  0  0  0
  -29.4095   -6.3172   -4.3628 H   0  0  0  0  0  0  0  0  0  0  0  0
  -30.2378   -8.0714   -2.3805 H   0  0  0  0  0  0  0  0  0  0  0  0
 11 12  1  0  0  0
 12  1  1  0  0  0
  1  2  1  0  0  0
  1 10  2  0  0  0
  2  3  2  0  0  0
  3  4  1  0  0  0
  3  8  1  0  0  0
  4  5  2  0  0  0
  5  6  1  0  0  0
  6  7  2  0  0  0
  7 13  1  0  0  0
  7  8  1  0  0  0
 13 15  1  0  0  0
 13 14  1  0  0  0
 15 16  1  0  0  0
 15 21  2  0  0  0
 16 17  2  0  0  0
 17 18  1  0  0  0
 18 19  2  0  0  0
 19 20  1  0  0  0
 19 21  1  0  0  0
  8  9  2  0  0  0
  9 10  1  0  0  0
 10 22  1  0  0  0
 22 23  1  0  0  0
 23 24  1  0  0  0
 24 25  1  0  0  0
 25 26  1  0  0  0
 26 27  2  0  0  0
 26 28  1  0  0  0
 28 29  1  0  0  0
 28 30  1  0  0  0
 29 31  1  0  0  0
M  END
> <minimizedAffinity>
-8.29577

$$$$
