CHEMBL452679


101103  0  0  0  0  0  0  0  0999 V2000
  -12.0313    1.2477  -14.2618 N   0  0  0  0  0  0  0  0  0  0  0  0
  -13.4059    1.4795  -14.2434 C   0  0  0  0  0  0  0  0  0  0  0  0
  -13.9067    2.5955  -14.0547 O   0  0  0  0  0  0  0  0  0  0  0  0
  -14.2697    0.3356  -14.7551 C   0  0  0  0  0  0  0  0  0  0  0  0
  -15.5847    0.5482  -15.3724 N   0  0  0  0  0  0  0  0  0  0  0  0
  -16.7607    0.4827  -14.6465 C   0  0  0  0  0  0  0  0  0  0  0  0
  -16.7565    0.5727  -13.4135 O   0  0  0  0  0  0  0  0  0  0  0  0
  -18.1362    0.4959  -15.3739 C   0  0  0  0  0  0  0  0  0  0  0  0
  -19.4366    1.0627  -14.9339 N   0  0  0  0  0  0  0  0  0  0  0  0
  -20.5758    0.2758  -14.7350 C   0  0  0  0  0  0  0  0  0  0  0  0
  -20.5468   -0.9329  -14.9896 O   0  0  0  0  0  0  0  0  0  0  0  0
  -19.4251    2.5080  -14.7039 C   0  0  0  0  0  0  0  0  0  0  0  0
  -18.2700    3.1950  -15.3498 C   0  0  0  0  0  0  0  0  0  0  0  0
  -17.9400    3.3911  -16.6772 C   0  0  0  0  0  0  0  0  0  0  0  0
  -16.7586    4.1665  -16.6920 C   0  0  0  0  0  0  0  0  0  0  0  0
  -16.4435    4.4046  -15.3743 C   0  0  0  0  0  0  0  0  0  0  0  0
  -17.3587    3.8248  -14.5491 O   0  0  0  0  0  0  0  0  0  0  0  0
  -21.8986    0.9918  -14.2715 C   0  0  0  0  0  0  0  0  0  0  0  0
  -23.0807    0.2147  -13.8215 N   0  0  0  0  0  0  0  0  0  0  0  0
  -23.0639   -0.3954  -12.5649 C   0  0  0  0  0  0  0  0  0  0  0  0
  -22.1401   -0.2725  -11.7871 O   0  0  0  0  0  0  0  0  0  0  0  0
  -24.3205    0.3425  -14.5917 C   0  0  0  0  0  0  0  0  0  0  0  0
  -24.6612   -1.0124  -15.1551 C   0  0  0  0  0  0  0  0  0  0  0  0
  -25.7378   -1.8532  -14.5472 C   0  0  0  0  0  0  0  0  0  0  0  0
  -27.2027   -1.5617  -14.4868 C   0  0  0  0  0  0  0  0  0  0  0  0
  -27.8767   -2.3803  -13.5101 N   0  0  0  0  0  0  0  0  0  0  0  0
  -27.6810   -3.3681  -13.7389 H   0  0  0  0  0  0  0  0  0  0  0  0
  -28.8769   -2.2883  -13.6757 H   0  0  0  0  0  0  0  0  0  0  0  0
  -24.3407   -1.2108  -12.2137 C   0  0  0  0  0  0  0  0  0  0  0  0
  -25.1313   -0.6462  -11.1041 N   0  0  0  0  0  0  0  0  0  0  0  0
  -25.6946    0.1206  -11.4752 H   0  0  0  0  0  0  0  0  0  0  0  0
  -26.0179   -1.6778  -10.5164 C   0  0  0  0  0  0  0  0  0  0  0  0
  -27.2845   -1.1045   -9.8512 C   0  0  0  0  0  0  0  0  0  0  0  0
  -27.7117   -1.8448   -8.6224 C   0  0  0  0  0  0  0  0  0  0  0  0
  -27.9803   -3.1968   -8.5332 C   0  0  0  0  0  0  0  0  0  0  0  0
  -28.4231   -3.4633   -7.2647 N   0  0  0  0  0  0  0  0  0  0  0  0
  -28.4579   -2.3083   -6.5169 C   0  0  0  0  0  0  0  0  0  0  0  0
  -28.8731   -2.0912   -5.1956 C   0  0  0  0  0  0  0  0  0  0  0  0
  -28.8189   -0.7877   -4.7038 C   0  0  0  0  0  0  0  0  0  0  0  0
  -28.3256    0.2586   -5.4774 C   0  0  0  0  0  0  0  0  0  0  0  0
  -27.8986    0.0172   -6.7917 C   0  0  0  0  0  0  0  0  0  0  0  0
  -27.9881   -1.2842   -7.3329 C   0  0  0  0  0  0  0  0  0  0  0  0
  -28.7049   -4.3732   -6.9286 H   0  0  0  0  0  0  0  0  0  0  0  0
  -15.5311    0.8615  -16.7875 C   0  0  0  0  0  0  0  0  0  0  0  0
  -14.0966    0.9220  -17.2712 C   0  0  0  0  0  0  0  0  0  0  0  0
  -14.0055    1.2297  -18.7677 C   0  0  0  0  0  0  0  0  0  0  0  0
  -12.5590    1.5304  -19.1060 C   0  0  0  0  0  0  0  0  0  0  0  0
  -11.8170    0.3065  -19.3428 N   0  0  0  0  0  0  0  0  0  0  0  0
  -11.8460   -0.2895  -18.5191 H   0  0  0  0  0  0  0  0  0  0  0  0
  -10.8404    0.5418  -19.5072 H   0  0  0  0  0  0  0  0  0  0  0  0
  -11.2371    2.4121  -14.6822 C   0  0  0  0  0  0  0  0  0  0  0  0
  -10.7956    3.2466  -13.4774 C   0  0  0  0  0  0  0  0  0  0  0  0
  -10.7199    4.7069  -13.9101 C   0  0  0  0  0  0  0  0  0  0  0  0
  -11.5696    3.2260  -12.1870 C   0  0  0  0  0  0  0  0  0  0  0  0
  -11.4579   -0.1247  -14.3476 C   0  0  0  0  0  0  0  0  0  0  0  0
  -12.3630   -2.3821  -13.5357 N   0  0  0  0  0  0  0  0  0  0  0  0
  -11.5703   -1.2422  -13.2477 C   0  0  0  0  0  0  0  0  0  0  0  0
  -11.0714   -1.1164  -12.1288 O   0  0  0  0  0  0  0  0  0  0  0  0
  -12.7343   -3.3189  -12.4315 C   0  0  0  0  0  0  0  0  0  0  0  0
  -14.1251   -3.3295  -11.7481 C   0  0  0  0  0  0  0  0  0  0  0  0
  -14.3223   -3.5864  -10.2347 C   0  0  0  0  0  0  0  0  0  0  0  0
  -13.3112   -4.4851   -9.5121 C   0  0  0  0  0  0  0  0  0  0  0  0
  -13.9851   -5.5998   -8.8369 N   0  0  0  0  0  0  0  0  0  0  0  0
  -14.6678   -5.2476   -8.1640 H   0  0  0  0  0  0  0  0  0  0  0  0
  -13.3010   -6.1244   -8.2862 H   0  0  0  0  0  0  0  0  0  0  0  0
  -12.7903   -2.6662  -14.9137 C   0  0  0  0  0  0  0  0  0  0  0  0
  -12.5218   -4.2296  -16.8861 N   0  0  0  0  0  0  0  0  0  0  0  0
  -12.0318   -3.1436  -16.1909 C   0  0  0  0  0  0  0  0  0  0  0  0
  -11.1170   -2.4352  -16.6338 O   0  0  0  0  0  0  0  0  0  0  0  0
  -13.6896   -4.8868  -16.3808 C   0  0  0  0  0  0  0  0  0  0  0  0
  -13.8162   -5.8829  -15.2385 C   0  0  0  0  0  0  0  0  0  0  0  0
  -14.5857   -5.6458  -14.3089 O   0  0  0  0  0  0  0  0  0  0  0  0
  -12.9303   -6.9564  -15.2453 N   0  0  0  0  0  0  0  0  0  0  0  0
  -12.8834   -7.8104  -14.0712 C   0  0  0  0  0  0  0  0  0  0  0  0
  -11.8823   -7.3103  -13.0235 C   0  0  0  0  0  0  0  0  0  0  0  0
  -12.1672   -8.0210  -11.7020 C   0  0  0  0  0  0  0  0  0  0  0  0
  -13.0981   -9.2153  -11.8590 C   0  0  0  0  0  0  0  0  0  0  0  0
  -12.2943  -10.4103  -12.0850 N   0  0  0  0  0  0  0  0  0  0  0  0
  -11.8141  -10.3348  -12.9819 H   0  0  0  0  0  0  0  0  0  0  0  0
  -12.8977  -11.2279  -12.1502 H   0  0  0  0  0  0  0  0  0  0  0  0
  -12.3139   -7.4920  -16.4740 C   0  0  0  0  0  0  0  0  0  0  0  0
  -12.8463   -8.9034  -16.7903 C   0  0  0  0  0  0  0  0  0  0  0  0
  -13.4979   -9.5244  -15.9620 O   0  0  0  0  0  0  0  0  0  0  0  0
  -12.5027   -9.4877  -18.0194 N   0  0  0  0  0  0  0  0  0  0  0  0
  -12.8831  -10.9225  -18.2559 C   0  0  0  0  0  0  0  0  0  0  0  0
  -14.3322  -11.4194  -18.5476 C   0  0  0  0  0  0  0  0  0  0  0  0
  -15.0669  -11.8435  -17.4630 N   0  0  0  0  0  0  0  0  0  0  0  0
  -14.8519  -11.4405  -19.6595 O   0  0  0  0  0  0  0  0  0  0  0  0
  -14.8416  -11.5382  -16.5246 H   0  0  0  0  0  0  0  0  0  0  0  0
  -16.0550  -12.0045  -17.6432 H   0  0  0  0  0  0  0  0  0  0  0  0
  -11.9970   -8.7145  -19.1398 C   0  0  0  0  0  0  0  0  0  0  0  0
  -12.7864   -8.6105  -20.4374 C   0  0  0  0  0  0  0  0  0  0  0  0
  -11.8835   -8.8892  -21.6219 C   0  0  0  0  0  0  0  0  0  0  0  0
  -12.3645  -10.1217  -22.3677 C   0  0  0  0  0  0  0  0  0  0  0  0
  -13.7715  -10.3314  -22.0660 N   0  0  0  0  0  0  0  0  0  0  0  0
  -13.8929  -10.4534  -21.0634 H   0  0  0  0  0  0  0  0  0  0  0  0
  -14.0918  -11.1856  -22.5119 H   0  0  0  0  0  0  0  0  0  0  0  0
  -12.0070   -4.5370  -18.2050 C   0  0  0  0  0  0  0  0  0  0  0  0
  -14.0368   -5.2861  -19.4184 C   0  0  0  0  0  0  0  0  0  0  0  0
  -12.9624   -4.2024  -19.3623 C   0  0  0  0  0  0  0  0  0  0  0  0
  -13.5737   -2.8129  -19.2237 C   0  0  0  0  0  0  0  0  0  0  0  0
 99100  1  0  0  0
100101  1  0  0  0
100 98  1  0  0  0
 98 67  1  0  0  0
 67 70  1  0  0  0
 67 68  1  0  0  0
 70 71  1  0  0  0
 71 72  2  0  0  0
 71 73  1  0  0  0
 73 74  1  0  0  0
 73 81  1  0  0  0
 74 75  1  0  0  0
 75 76  1  0  0  0
 76 77  1  0  0  0
 77 78  1  0  0  0
 78 79  1  0  0  0
 78 80  1  0  0  0
 81 82  1  0  0  0
 82 83  2  0  0  0
 82 84  1  0  0  0
 84 91  1  0  0  0
 84 85  1  0  0  0
 91 92  1  0  0  0
 92 93  1  0  0  0
 93 94  1  0  0  0
 94 95  1  0  0  0
 95 96  1  0  0  0
 95 97  1  0  0  0
 85 86  1  0  0  0
 86 87  1  0  0  0
 86 88  2  0  0  0
 87 89  1  0  0  0
 87 90  1  0  0  0
 68 69  2  0  0  0
 68 66  1  0  0  0
 66 56  1  0  0  0
 56 59  1  0  0  0
 56 57  1  0  0  0
 59 60  1  0  0  0
 60 61  1  0  0  0
 61 62  1  0  0  0
 62 63  1  0  0  0
 63 64  1  0  0  0
 63 65  1  0  0  0
 57 58  2  0  0  0
 57 55  1  0  0  0
 55  1  1  0  0  0
  1 51  1  0  0  0
  1  2  1  0  0  0
 51 52  1  0  0  0
 52 53  1  0  0  0
 52 54  1  0  0  0
  2  3  2  0  0  0
  2  4  1  0  0  0
  4  5  1  0  0  0
  5 44  1  0  0  0
  5  6  1  0  0  0
 44 45  1  0  0  0
 45 46  1  0  0  0
 46 47  1  0  0  0
 47 48  1  0  0  0
 48 49  1  0  0  0
 48 50  1  0  0  0
  6  7  2  0  0  0
  6  8  1  0  0  0
  8  9  1  0  0  0
  9 12  1  0  0  0
  9 10  1  0  0  0
 12 13  1  0  0  0
 13 14  2  0  0  0
 13 17  1  0  0  0
 14 15  1  0  0  0
 15 16  2  0  0  0
 16 17  1  0  0  0
 10 11  2  0  0  0
 10 18  1  0  0  0
 18 19  1  0  0  0
 19 22  1  0  0  0
 19 20  1  0  0  0
 22 23  1  0  0  0
 23 24  1  0  0  0
 24 25  1  0  0  0
 25 26  1  0  0  0
 26 27  1  0  0  0
 26 28  1  0  0  0
 20 21  2  0  0  0
 20 29  1  0  0  0
 29 30  1  0  0  0
 30 32  1  0  0  0
 30 31  1  0  0  0
 32 33  1  0  0  0
 33 34  1  0  0  0
 34 35  2  0  0  0
 34 42  1  0  0  0
 35 36  1  0  0  0
 36 37  1  0  0  0
 36 43  1  0  0  0
 37 38  1  0  0  0
 37 42  2  0  0  0
 38 39  2  0  0  0
 39 40  1  0  0  0
 40 41  2  0  0  0
 41 42  1  0  0  0
M  END
> <minimizedAffinity>
-5.59753

$$$$
