CHEMBL3936672


 38 42  0  0  0  0  0  0  0  0999 V2000
  -12.4241   -3.5320  -13.2479 N   0  0  0  0  0  0  0  0  0  0  0  0
  -12.3158   -2.1800  -13.7865 C   0  0  0  0  0  0  0  0  0  0  0  0
  -11.1486   -1.5350  -13.4016 C   0  0  0  0  0  0  0  0  0  0  0  0
  -11.0903   -0.1727  -13.3328 C   0  0  0  0  0  0  0  0  0  0  0  0
  -12.0959    0.6355  -13.7989 C   0  0  0  0  0  0  0  0  0  0  0  0
  -11.9059    1.9076  -13.4627 N   0  0  0  0  0  0  0  0  0  0  0  0
  -12.7089    2.8158  -14.0169 C   0  0  0  0  0  0  0  0  0  0  0  0
  -13.6540    2.4841  -14.9619 C   0  0  0  0  0  0  0  0  0  0  0  0
  -13.9375    1.1426  -15.2244 N   0  0  0  0  0  0  0  0  0  0  0  0
  -13.1699    0.1285  -14.5654 C   0  0  0  0  0  0  0  0  0  0  0  0
  -13.2846   -1.3570  -14.4628 C   0  0  0  0  0  0  0  0  0  0  0  0
  -14.1699    3.6571  -15.7086 C   0  0  0  0  0  0  0  0  0  0  0  0
  -15.4816    3.8769  -16.2346 C   0  0  0  0  0  0  0  0  0  0  0  0
  -15.5245    4.8071  -17.2011 N   0  0  0  0  0  0  0  0  0  0  0  0
  -14.2396    5.1649  -17.3539 N   0  0  0  0  0  0  0  0  0  0  0  0
  -13.8758    6.2237  -18.2735 C   0  0  0  0  0  0  0  0  0  0  0  0
  -13.3911    4.4275  -16.5668 C   0  0  0  0  0  0  0  0  0  0  0  0
  -13.0498   -4.2336   -9.6085 C   0  0  0  0  0  0  0  0  0  0  0  0
  -14.4050   -4.5521   -9.6205 C   0  0  0  0  0  0  0  0  0  0  0  0
  -15.1036   -4.5825  -10.8228 C   0  0  0  0  0  0  0  0  0  0  0  0
  -14.4356   -4.2968  -12.0249 C   0  0  0  0  0  0  0  0  0  0  0  0
  -13.0643   -3.9896  -12.0688 C   0  0  0  0  0  0  0  0  0  0  0  0
  -12.3837   -3.9760  -10.8315 C   0  0  0  0  0  0  0  0  0  0  0  0
  -12.3387   -5.2148   -7.5481 C   0  0  0  0  0  0  0  0  0  0  0  0
  -12.2997   -4.1145   -8.4626 O   0  0  0  0  0  0  0  0  0  0  0  0
  -16.4448   -4.8423  -10.9445 O   0  0  0  0  0  0  0  0  0  0  0  0
  -16.8790   -5.4166  -12.1747 C   0  0  0  0  0  0  0  0  0  0  0  0
  -11.2280   -4.3403  -13.7358 C   0  0  0  0  0  0  0  0  0  0  0  0
  -11.1421   -5.8725  -13.5052 C   0  0  0  0  0  0  0  0  0  0  0  0
  -11.7382   -6.8508  -14.5505 C   0  0  0  0  0  0  0  0  0  0  0  0
  -12.1576   -8.1567  -13.9417 N   0  0  0  0  0  0  0  0  0  0  0  0
  -13.5385   -8.5310  -14.3225 C   0  0  0  0  0  0  0  0  0  0  0  0
  -14.4312   -7.9033  -13.2682 C   0  0  0  0  0  0  0  0  0  0  0  0
  -13.6378   -8.1026  -11.9944 C   0  0  0  0  0  0  0  0  0  0  0  0
  -12.1741   -8.1441  -12.4471 C   0  0  0  0  0  0  0  0  0  0  0  0
  -11.4724   -9.3997  -11.8861 C   0  0  0  0  0  0  0  0  0  0  0  0
  -12.2770  -10.5572  -12.0910 O   0  0  0  0  0  0  0  0  0  0  0  0
  -13.1536  -10.3038  -11.7424 H   0  0  0  0  0  0  0  0  0  0  0  0
 24 25  1  0  0  0
 25 18  1  0  0  0
 18 19  1  0  0  0
 18 23  2  0  0  0
 19 20  2  0  0  0
 20 26  1  0  0  0
 20 21  1  0  0  0
 26 27  1  0  0  0
 21 22  2  0  0  0
 22  1  1  0  0  0
 22 23  1  0  0  0
  1 28  1  0  0  0
  1  2  1  0  0  0
 28 29  1  0  0  0
 29 30  1  0  0  0
 30 31  1  0  0  0
 31 32  1  0  0  0
 31 35  1  0  0  0
 32 33  1  0  0  0
 33 34  1  0  0  0
 34 35  1  0  0  0
 35 36  1  0  0  0
 36 37  1  0  0  0
 37 38  1  0  0  0
  2  3  1  0  0  0
  2 11  2  0  0  0
  3  4  2  0  0  0
  4  5  1  0  0  0
  5  6  1  0  0  0
  5 10  2  0  0  0
  6  7  2  0  0  0
  7  8  1  0  0  0
  8 12  1  0  0  0
  8  9  2  0  0  0
 12 13  1  0  0  0
 12 17  2  0  0  0
 13 14  2  0  0  0
 14 15  1  0  0  0
 15 16  1  0  0  0
 15 17  1  0  0  0
  9 10  1  0  0  0
 10 11  1  0  0  0
M  END
> <minimizedAffinity>
-6.93178

$$$$
