CHEMBL184706


 31 34  0  0  0  0  0  0  0  0999 V2000
  -21.0927    1.5909  -14.7515 C   0  0  0  0  0  0  0  0  0  0  0  0
  -21.1591    0.2008  -14.7884 C   0  0  0  0  0  0  0  0  0  0  0  0
  -22.1701   -0.4734  -14.0973 C   0  0  0  0  0  0  0  0  0  0  0  0
  -23.1900    0.2106  -13.4126 C   0  0  0  0  0  0  0  0  0  0  0  0
  -23.0899    1.6139  -13.3684 C   0  0  0  0  0  0  0  0  0  0  0  0
  -22.0408    2.2843  -14.0048 C   0  0  0  0  0  0  0  0  0  0  0  0
  -21.9999    3.6249  -13.9625 F   0  0  0  0  0  0  0  0  0  0  0  0
  -24.3352   -0.5073  -12.8000 C   0  0  0  0  0  0  0  0  0  0  0  0
  -24.4179   -0.7038  -11.4004 C   0  0  0  0  0  0  0  0  0  0  0  0
  -25.5184   -1.3364  -10.7833 C   0  0  0  0  0  0  0  0  0  0  0  0
  -26.5819   -1.8039  -11.5466 C   0  0  0  0  0  0  0  0  0  0  0  0
  -26.5029   -1.6188  -12.9102 C   0  0  0  0  0  0  0  0  0  0  0  0
  -25.4162   -0.9936  -13.5434 C   0  0  0  0  0  0  0  0  0  0  0  0
  -25.6866   -0.9556  -15.0157 C   0  0  0  0  0  0  0  0  0  0  0  0
  -26.9928   -1.5433  -15.1333 N   0  0  0  0  0  0  0  0  0  0  0  0
  -27.4872   -1.9872  -13.9308 C   0  0  0  0  0  0  0  0  0  0  0  0
  -28.5315   -2.5788  -13.7406 O   0  0  0  0  0  0  0  0  0  0  0  0
  -27.4680   -1.7430  -16.0032 H   0  0  0  0  0  0  0  0  0  0  0  0
  -17.9211    2.8377  -15.9903 N   0  0  0  0  0  0  0  0  0  0  0  0
  -18.7620    2.0492  -15.2243 C   0  0  0  0  0  0  0  0  0  0  0  0
  -18.3960    1.1961  -14.4176 O   0  0  0  0  0  0  0  0  0  0  0  0
  -20.1027    2.3018  -15.4765 N   0  0  0  0  0  0  0  0  0  0  0  0
  -18.3462    3.6275  -16.4560 H   0  0  0  0  0  0  0  0  0  0  0  0
  -20.3221    2.4706  -16.4507 H   0  0  0  0  0  0  0  0  0  0  0  0
  -13.4933    5.0413  -15.6297 C   0  0  0  0  0  0  0  0  0  0  0  0
  -14.3283    3.8204  -15.8799 C   0  0  0  0  0  0  0  0  0  0  0  0
  -13.7061    2.6055  -16.1785 C   0  0  0  0  0  0  0  0  0  0  0  0
  -14.4658    1.4652  -16.4074 C   0  0  0  0  0  0  0  0  0  0  0  0
  -15.8531    1.5319  -16.3450 C   0  0  0  0  0  0  0  0  0  0  0  0
  -16.5124    2.7307  -16.0496 C   0  0  0  0  0  0  0  0  0  0  0  0
  -15.7336    3.8768  -15.8161 C   0  0  0  0  0  0  0  0  0  0  0  0
 25 26  1  0  0  0
 26 27  1  0  0  0
 26 31  2  0  0  0
 27 28  2  0  0  0
 28 29  1  0  0  0
 29 30  2  0  0  0
 30 19  1  0  0  0
 30 31  1  0  0  0
 19 20  1  0  0  0
 19 23  1  0  0  0
 20 21  2  0  0  0
 20 22  1  0  0  0
 22  1  1  0  0  0
 22 24  1  0  0  0
  1  2  1  0  0  0
  1  6  2  0  0  0
  2  3  2  0  0  0
  3  4  1  0  0  0
  4  8  1  0  0  0
  4  5  2  0  0  0
  8  9  1  0  0  0
  8 13  2  0  0  0
  9 10  2  0  0  0
 10 11  1  0  0  0
 11 12  2  0  0  0
 12 13  1  0  0  0
 12 16  1  0  0  0
 13 14  1  0  0  0
 14 15  1  0  0  0
 15 16  1  0  0  0
 15 18  1  0  0  0
 16 17  2  0  0  0
  5  6  1  0  0  0
  6  7  1  0  0  0
M  END
> <minimizedAffinity>
-10.04285

$$$$
