CHEMBL1988038


 28 31  0  0  0  0  0  0  0  0999 V2000
  -28.7583   -5.8294   -6.3040 C   0  0  0  0  0  0  0  0  0  0  0  0
  -29.4158   -5.3755   -5.1486 C   0  0  0  0  0  0  0  0  0  0  0  0
  -29.5410   -4.0072   -4.8886 C   0  0  0  0  0  0  0  0  0  0  0  0
  -29.0240   -3.1105   -5.8106 C   0  0  0  0  0  0  0  0  0  0  0  0
  -28.3947   -3.5759   -6.9834 C   0  0  0  0  0  0  0  0  0  0  0  0
  -28.2373   -4.9284   -7.2345 C   0  0  0  0  0  0  0  0  0  0  0  0
  -27.9838   -2.3750   -7.7604 C   0  0  0  0  0  0  0  0  0  0  0  0
  -27.4065   -2.2440   -8.9126 N   0  0  0  0  0  0  0  0  0  0  0  0
  -27.1381   -3.4683   -9.5206 O   0  0  0  0  0  0  0  0  0  0  0  0
  -28.3786   -1.1985   -6.9530 C   0  0  0  0  0  0  0  0  0  0  0  0
  -28.1981    0.1462   -7.2222 C   0  0  0  0  0  0  0  0  0  0  0  0
  -28.6590    1.0569   -6.2709 C   0  0  0  0  0  0  0  0  0  0  0  0
  -29.2821    0.6077   -5.0920 C   0  0  0  0  0  0  0  0  0  0  0  0
  -29.4587   -0.7599   -4.8442 C   0  0  0  0  0  0  0  0  0  0  0  0
  -29.0014   -1.6651   -5.7881 C   0  0  0  0  0  0  0  0  0  0  0  0
  -26.6938   -3.1991  -10.3458 H   0  0  0  0  0  0  0  0  0  0  0  0
  -28.5541   -7.2253   -6.5058 N   0  0  0  0  0  0  0  0  0  0  0  0
  -27.6422   -7.5214   -6.8563 H   0  0  0  0  0  0  0  0  0  0  0  0
  -30.1624   -9.1782   -6.3302 O   0  0  0  0  0  0  0  0  0  0  0  0
  -29.8030   -8.1118   -7.2404 S   0  0  0  0  0  0  0  0  0  0  0  0
  -30.7997   -7.1867   -7.7343 O   0  0  0  0  0  0  0  0  0  0  0  0
  -29.0244   -8.8627   -8.6349 C   0  0  0  0  0  0  0  0  0  0  0  0
  -27.7071   -8.5451   -8.9789 C   0  0  0  0  0  0  0  0  0  0  0  0
  -27.1119   -9.1829  -10.0707 C   0  0  0  0  0  0  0  0  0  0  0  0
  -27.8293  -10.1255  -10.8107 C   0  0  0  0  0  0  0  0  0  0  0  0
  -29.1478  -10.4270  -10.4683 C   0  0  0  0  0  0  0  0  0  0  0  0
  -29.7422   -9.7885   -9.3833 C   0  0  0  0  0  0  0  0  0  0  0  0
  -30.9905  -10.1341   -9.0397 F   0  0  0  0  0  0  0  0  0  0  0  0
 19 20  2  0  0  0
 20 21  2  0  0  0
 20 17  1  0  0  0
 20 22  1  0  0  0
 17  1  1  0  0  0
 17 18  1  0  0  0
  1  2  1  0  0  0
  1  6  2  0  0  0
  2  3  2  0  0  0
  3  4  1  0  0  0
  4  5  2  0  0  0
  4 15  1  0  0  0
  5  6  1  0  0  0
  5  7  1  0  0  0
  7  8  2  0  0  0
  7 10  1  0  0  0
  8  9  1  0  0  0
  9 16  1  0  0  0
 10 11  1  0  0  0
 10 15  2  0  0  0
 11 12  2  0  0  0
 12 13  1  0  0  0
 13 14  2  0  0  0
 14 15  1  0  0  0
 22 23  1  0  0  0
 22 27  2  0  0  0
 23 24  2  0  0  0
 24 25  1  0  0  0
 25 26  2  0  0  0
 26 27  1  0  0  0
 27 28  1  0  0  0
M  END
> <minimizedAffinity>
-9.76689

$$$$
