CHEMBL222076


 30 32  0  0  0  0  0  0  0  0999 V2000
  -30.7051   -8.1046   -6.6728 C   0  0  0  0  0  0  0  0  0  0  0  0
  -32.0014   -7.7566   -6.5270 N   0  0  0  0  0  0  0  0  0  0  0  0
  -32.8828   -8.4428   -7.2605 C   0  0  0  0  0  0  0  0  0  0  0  0
  -32.5896   -9.4175   -8.1249 N   0  0  0  0  0  0  0  0  0  0  0  0
  -31.2897   -9.7059   -8.2879 C   0  0  0  0  0  0  0  0  0  0  0  0
  -31.0468  -10.7837   -9.1388 N   0  0  0  0  0  0  0  0  0  0  0  0
  -30.2791   -9.0624   -7.5817 C   0  0  0  0  0  0  0  0  0  0  0  0
  -31.9043  -11.0293   -9.6205 H   0  0  0  0  0  0  0  0  0  0  0  0
  -30.2563  -10.5974   -9.7563 H   0  0  0  0  0  0  0  0  0  0  0  0
  -28.8587   -9.3582   -7.8011 C   0  0  0  0  0  0  0  0  0  0  0  0
  -28.3051   -9.1363   -8.9529 N   0  0  0  0  0  0  0  0  0  0  0  0
  -26.9537   -9.5004   -8.9082 O   0  0  0  0  0  0  0  0  0  0  0  0
  -26.7543  -10.5794   -9.8246 C   0  0  0  0  0  0  0  0  0  0  0  0
  -27.7328  -10.4572  -10.9825 C   0  0  0  0  0  0  0  0  0  0  0  0
  -27.2206   -9.5079  -12.0572 C   0  0  0  0  0  0  0  0  0  0  0  0
  -26.4262   -8.4880  -11.4637 O   0  0  0  0  0  0  0  0  0  0  0  0
  -26.9894   -7.9984  -10.8398 H   0  0  0  0  0  0  0  0  0  0  0  0
  -29.7584   -7.4250   -5.9145 O   0  0  0  0  0  0  0  0  0  0  0  0
  -27.9759   -0.3241   -6.8007 C   0  0  0  0  0  0  0  0  0  0  0  0
  -28.5828   -1.6673   -6.6399 C   0  0  0  0  0  0  0  0  0  0  0  0
  -28.3437   -2.8565   -7.2997 C   0  0  0  0  0  0  0  0  0  0  0  0
  -29.0473   -3.8883   -6.6148 C   0  0  0  0  0  0  0  0  0  0  0  0
  -29.1055   -5.2918   -6.7311 C   0  0  0  0  0  0  0  0  0  0  0  0
  -28.4054   -5.9132   -7.6947 F   0  0  0  0  0  0  0  0  0  0  0  0
  -29.8493   -6.0462   -5.8117 C   0  0  0  0  0  0  0  0  0  0  0  0
  -30.5403   -5.3931   -4.7852 C   0  0  0  0  0  0  0  0  0  0  0  0
  -30.5467   -3.9961   -4.6804 C   0  0  0  0  0  0  0  0  0  0  0  0
  -29.7730   -3.2740   -5.5943 C   0  0  0  0  0  0  0  0  0  0  0  0
  -29.5362   -1.9198   -5.6825 N   0  0  0  0  0  0  0  0  0  0  0  0
  -29.9351   -1.2281   -5.0636 H   0  0  0  0  0  0  0  0  0  0  0  0
 19 20  1  0  0  0
 20 21  2  0  0  0
 20 29  1  0  0  0
 21 22  1  0  0  0
 22 23  1  0  0  0
 22 28  2  0  0  0
 23 24  1  0  0  0
 23 25  2  0  0  0
 25 18  1  0  0  0
 25 26  1  0  0  0
 18  1  1  0  0  0
  1  2  1  0  0  0
  1  7  2  0  0  0
  2  3  2  0  0  0
  3  4  1  0  0  0
  4  5  2  0  0  0
  5  6  1  0  0  0
  5  7  1  0  0  0
  6  8  1  0  0  0
  6  9  1  0  0  0
  7 10  1  0  0  0
 10 11  2  0  0  0
 11 12  1  0  0  0
 12 13  1  0  0  0
 13 14  1  0  0  0
 14 15  1  0  0  0
 15 16  1  0  0  0
 16 17  1  0  0  0
 26 27  2  0  0  0
 27 28  1  0  0  0
 28 29  1  0  0  0
 29 30  1  0  0  0
M  END
> <minimizedAffinity>
-7.88829

$$$$
