CHEMBL3895044


 39 42  0  0  0  0  0  0  0  0999 V2000
  -15.7270   -2.7551  -13.6225 C   0  0  0  0  0  0  0  0  0  0  0  0
  -14.4405   -1.9808  -13.5192 C   0  0  0  0  0  0  0  0  0  0  0  0
  -13.4300   -2.5502  -12.7082 C   0  0  0  0  0  0  0  0  0  0  0  0
  -12.1576   -1.9856  -12.6134 C   0  0  0  0  0  0  0  0  0  0  0  0
  -11.9040   -0.7984  -13.2815 C   0  0  0  0  0  0  0  0  0  0  0  0
  -12.9058   -0.2023  -14.0592 C   0  0  0  0  0  0  0  0  0  0  0  0
  -14.1798   -0.7763  -14.2100 C   0  0  0  0  0  0  0  0  0  0  0  0
  -15.1935   -0.1481  -14.9983 N   0  0  0  0  0  0  0  0  0  0  0  0
  -16.3296    0.4910  -14.5076 C   0  0  0  0  0  0  0  0  0  0  0  0
  -16.5456    0.7457  -13.3279 O   0  0  0  0  0  0  0  0  0  0  0  0
  -17.2581    0.7680  -15.5081 N   0  0  0  0  0  0  0  0  0  0  0  0
  -15.0094   -0.0511  -15.9856 H   0  0  0  0  0  0  0  0  0  0  0  0
  -17.2486    0.1190  -16.2814 H   0  0  0  0  0  0  0  0  0  0  0  0
  -18.5111    1.3682  -15.2024 C   0  0  0  0  0  0  0  0  0  0  0  0
  -18.5669    2.7426  -14.9925 C   0  0  0  0  0  0  0  0  0  0  0  0
  -19.7947    3.3572  -14.7191 C   0  0  0  0  0  0  0  0  0  0  0  0
  -20.9747    2.6044  -14.5958 C   0  0  0  0  0  0  0  0  0  0  0  0
  -22.3604    3.4666  -14.0324 Cl  0  0  0  0  0  0  0  0  0  0  0  0
  -20.9421    1.2253  -14.8223 C   0  0  0  0  0  0  0  0  0  0  0  0
  -19.6980    0.6253  -15.1124 C   0  0  0  0  0  0  0  0  0  0  0  0
  -21.9469    0.3088  -14.7167 O   0  0  0  0  0  0  0  0  0  0  0  0
  -22.5143   -0.0458  -13.4654 C   0  0  0  0  0  0  0  0  0  0  0  0
  -22.6740   -1.3720  -13.2946 F   0  0  0  0  0  0  0  0  0  0  0  0
  -21.6802    0.3855  -12.4891 F   0  0  0  0  0  0  0  0  0  0  0  0
  -23.6941    0.5909  -13.3040 F   0  0  0  0  0  0  0  0  0  0  0  0
  -11.1521   -2.4984  -11.8223 O   0  0  0  0  0  0  0  0  0  0  0  0
  -11.4910   -3.4516  -10.8637 C   0  0  0  0  0  0  0  0  0  0  0  0
  -11.6091   -4.7533  -11.2938 C   0  0  0  0  0  0  0  0  0  0  0  0
  -11.9540   -5.6749  -10.3248 C   0  0  0  0  0  0  0  0  0  0  0  0
  -12.1391   -5.3201   -9.0487 N   0  0  0  0  0  0  0  0  0  0  0  0
  -12.0212   -4.0298   -8.7426 C   0  0  0  0  0  0  0  0  0  0  0  0
  -11.7160   -3.0572   -9.6023 N   0  0  0  0  0  0  0  0  0  0  0  0
  -12.0973   -7.0242  -10.6946 N   0  0  0  0  0  0  0  0  0  0  0  0
  -13.1207   -7.4952  -11.4928 C   0  0  0  0  0  0  0  0  0  0  0  0
  -14.0319   -6.8538  -11.9948 O   0  0  0  0  0  0  0  0  0  0  0  0
  -11.3995   -7.6797  -10.3738 H   0  0  0  0  0  0  0  0  0  0  0  0
  -13.0662   -8.9733  -11.7228 C   0  0  0  0  0  0  0  0  0  0  0  0
  -11.7523   -9.6432  -12.0702 C   0  0  0  0  0  0  0  0  0  0  0  0
  -12.8087   -9.4833  -13.1230 C   0  0  0  0  0  0  0  0  0  0  0  0
  1  2  1  0  0  0
  2  3  1  0  0  0
  2  7  2  0  0  0
  3  4  2  0  0  0
  4 26  1  0  0  0
  4  5  1  0  0  0
 26 27  1  0  0  0
 27 28  1  0  0  0
 27 32  2  0  0  0
 28 29  2  0  0  0
 29 33  1  0  0  0
 29 30  1  0  0  0
 33 34  1  0  0  0
 33 36  1  0  0  0
 34 35  2  0  0  0
 34 37  1  0  0  0
 37 38  1  0  0  0
 37 39  1  0  0  0
 38 39  1  0  0  0
 30 31  2  0  0  0
 31 32  1  0  0  0
  5  6  2  0  0  0
  6  7  1  0  0  0
  7  8  1  0  0  0
  8  9  1  0  0  0
  8 12  1  0  0  0
  9 10  2  0  0  0
  9 11  1  0  0  0
 11 14  1  0  0  0
 11 13  1  0  0  0
 14 15  1  0  0  0
 14 20  2  0  0  0
 15 16  2  0  0  0
 16 17  1  0  0  0
 17 18  1  0  0  0
 17 19  2  0  0  0
 19 21  1  0  0  0
 19 20  1  0  0  0
 21 22  1  0  0  0
 22 23  1  0  0  0
 22 24  1  0  0  0
 22 25  1  0  0  0
M  END
> <minimizedAffinity>
-9.82027

$$$$
