CHEMBL4171115


 49 54  0  0  0  0  0  0  0  0999 V2000
  -18.5628    0.9690  -15.1311 C   0  0  0  0  0  0  0  0  0  0  0  0
  -18.4348    2.1988  -15.7836 C   0  0  0  0  0  0  0  0  0  0  0  0
  -17.1753    2.8022  -15.9276 C   0  0  0  0  0  0  0  0  0  0  0  0
  -16.0112    2.2022  -15.4363 C   0  0  0  0  0  0  0  0  0  0  0  0
  -16.1573    0.9830  -14.7764 C   0  0  0  0  0  0  0  0  0  0  0  0
  -15.0782    0.3718  -14.2596 F   0  0  0  0  0  0  0  0  0  0  0  0
  -17.3993    0.3444  -14.6538 C   0  0  0  0  0  0  0  0  0  0  0  0
  -14.7083    2.7566  -15.6039 N   0  0  0  0  0  0  0  0  0  0  0  0
  -14.0288    2.6850  -16.7950 C   0  0  0  0  0  0  0  0  0  0  0  0
  -14.4437    2.0229  -17.7601 O   0  0  0  0  0  0  0  0  0  0  0  0
  -12.8206    3.3504  -16.8487 N   0  0  0  0  0  0  0  0  0  0  0  0
  -14.1752    2.9265  -14.7564 H   0  0  0  0  0  0  0  0  0  0  0  0
  -12.1917    3.1235  -16.0808 H   0  0  0  0  0  0  0  0  0  0  0  0
  -12.1602    3.4557  -18.1475 N   0  0  0  0  0  0  0  0  0  0  0  0
  -11.5780    2.3317  -18.7556 C   0  0  0  0  0  0  0  0  0  0  0  0
  -11.7486    1.1554  -18.4455 O   0  0  0  0  0  0  0  0  0  0  0  0
  -10.6980    2.7146  -19.9201 C   0  0  0  0  0  0  0  0  0  0  0  0
  -10.8137    4.5005  -20.1507 S   0  0  0  0  0  0  0  0  0  0  0  0
  -11.7074    4.7605  -18.5929 C   0  0  0  0  0  0  0  0  0  0  0  0
  -12.8025    5.7836  -18.7276 C   0  0  0  0  0  0  0  0  0  0  0  0
  -14.0610    5.4941  -19.2646 C   0  0  0  0  0  0  0  0  0  0  0  0
  -14.3234    4.2739  -19.7525 F   0  0  0  0  0  0  0  0  0  0  0  0
  -15.0805    6.4469  -19.2970 C   0  0  0  0  0  0  0  0  0  0  0  0
  -14.8544    7.7253  -18.7919 C   0  0  0  0  0  0  0  0  0  0  0  0
  -13.5955    8.0513  -18.2946 C   0  0  0  0  0  0  0  0  0  0  0  0
  -12.5880    7.0879  -18.2739 C   0  0  0  0  0  0  0  0  0  0  0  0
  -11.3928    7.4269  -17.7715 F   0  0  0  0  0  0  0  0  0  0  0  0
  -19.8436    0.4578  -14.9816 O   0  0  0  0  0  0  0  0  0  0  0  0
  -23.0776   -0.8801  -12.4032 C   0  0  0  0  0  0  0  0  0  0  0  0
  -21.9626   -0.4017  -13.0831 C   0  0  0  0  0  0  0  0  0  0  0  0
  -21.9314    0.8568  -13.6975 C   0  0  0  0  0  0  0  0  0  0  0  0
  -20.8908    1.2653  -14.5624 C   0  0  0  0  0  0  0  0  0  0  0  0
  -20.8461    2.5829  -14.9920 C   0  0  0  0  0  0  0  0  0  0  0  0
  -21.8735    3.4210  -14.6035 C   0  0  0  0  0  0  0  0  0  0  0  0
  -22.9423    3.0255  -13.8774 N   0  0  0  0  0  0  0  0  0  0  0  0
  -22.9790    1.7567  -13.4403 C   0  0  0  0  0  0  0  0  0  0  0  0
  -24.0628    1.3172  -12.6847 C   0  0  0  0  0  0  0  0  0  0  0  0
  -24.1282    0.0177  -12.1543 C   0  0  0  0  0  0  0  0  0  0  0  0
  -23.5223   -3.1954  -12.8890 C   0  0  0  0  0  0  0  0  0  0  0  0
  -23.1293   -2.1763  -11.9620 O   0  0  0  0  0  0  0  0  0  0  0  0
  -25.2498   -0.2039  -11.3848 O   0  0  0  0  0  0  0  0  0  0  0  0
  -26.2869   -0.9159  -12.0594 C   0  0  0  0  0  0  0  0  0  0  0  0
  -26.9151   -1.9888  -11.1830 C   0  0  0  0  0  0  0  0  0  0  0  0
  -27.5753   -1.3824   -9.9464 C   0  0  0  0  0  0  0  0  0  0  0  0
  -27.1493   -2.0545   -8.7080 N   0  0  0  0  0  0  0  0  0  0  0  0
  -27.6046   -3.4559   -8.6957 C   0  0  0  0  0  0  0  0  0  0  0  0
  -28.9928   -3.4034   -8.0905 C   0  0  0  0  0  0  0  0  0  0  0  0
  -28.8470   -2.3538   -7.0106 C   0  0  0  0  0  0  0  0  0  0  0  0
  -27.7395   -1.4369   -7.5054 C   0  0  0  0  0  0  0  0  0  0  0  0
 39 40  1  0  0  0
 40 29  1  0  0  0
 29 30  1  0  0  0
 29 38  2  0  0  0
 30 31  2  0  0  0
 31 32  1  0  0  0
 31 36  1  0  0  0
 32 28  1  0  0  0
 32 33  2  0  0  0
 28  1  1  0  0  0
  1  2  1  0  0  0
  1  7  2  0  0  0
  2  3  2  0  0  0
  3  4  1  0  0  0
  4  8  1  0  0  0
  4  5  2  0  0  0
  8  9  1  0  0  0
  8 12  1  0  0  0
  9 10  2  0  0  0
  9 11  1  0  0  0
 11 14  1  0  0  0
 11 13  1  0  0  0
 14 15  1  0  0  0
 14 19  1  0  0  0
 15 16  2  0  0  0
 15 17  1  0  0  0
 17 18  1  0  0  0
 18 19  1  0  0  0
 19 20  1  0  0  0
 20 21  1  0  0  0
 20 26  2  0  0  0
 21 22  1  0  0  0
 21 23  2  0  0  0
 23 24  1  0  0  0
 24 25  2  0  0  0
 25 26  1  0  0  0
 26 27  1  0  0  0
  5  6  1  0  0  0
  5  7  1  0  0  0
 33 34  1  0  0  0
 34 35  2  0  0  0
 35 36  1  0  0  0
 36 37  2  0  0  0
 37 38  1  0  0  0
 38 41  1  0  0  0
 41 42  1  0  0  0
 42 43  1  0  0  0
 43 44  1  0  0  0
 44 45  1  0  0  0
 45 46  1  0  0  0
 45 49  1  0  0  0
 46 47  1  0  0  0
 47 48  1  0  0  0
 48 49  1  0  0  0
M  END
> <minimizedAffinity>
-8.13175

$$$$
