CHEMBL407532


 22 24  0  0  0  0  0  0  0  0999 V2000
  -29.2707   -6.2372   -2.8765 N   0  0  0  0  0  0  0  0  0  0  0  0
  -29.0635   -6.7934   -4.1506 C   0  0  0  0  0  0  0  0  0  0  0  0
  -29.2766   -8.1111   -4.2683 N   0  0  0  0  0  0  0  0  0  0  0  0
  -29.1402   -8.6064   -5.5046 C   0  0  0  0  0  0  0  0  0  0  0  0
  -28.8247   -7.9212   -6.6143 N   0  0  0  0  0  0  0  0  0  0  0  0
  -28.6279   -6.5984   -6.4644 C   0  0  0  0  0  0  0  0  0  0  0  0
  -28.7388   -5.9594   -5.2246 C   0  0  0  0  0  0  0  0  0  0  0  0
  -28.4721   -4.5893   -4.9708 N   0  0  0  0  0  0  0  0  0  0  0  0
  -28.9340   -3.6914   -5.7806 C   0  0  0  0  0  0  0  0  0  0  0  0
  -29.7740   -4.0227   -6.9955 C   0  0  0  0  0  0  0  0  0  0  0  0
  -28.9199   -4.7144   -8.0451 C   0  0  0  0  0  0  0  0  0  0  0  0
  -28.2597   -5.9499   -7.6401 N   0  0  0  0  0  0  0  0  0  0  0  0
  -29.3034   -6.9814   -2.1906 H   0  0  0  0  0  0  0  0  0  0  0  0
  -28.5776   -5.5148   -2.7013 H   0  0  0  0  0  0  0  0  0  0  0  0
  -28.2660   -6.6603   -8.3681 H   0  0  0  0  0  0  0  0  0  0  0  0
  -28.6536   -2.2614   -5.4900 C   0  0  0  0  0  0  0  0  0  0  0  0
  -27.3853   -1.8510   -5.0652 C   0  0  0  0  0  0  0  0  0  0  0  0
  -27.1377   -0.5052   -4.8092 C   0  0  0  0  0  0  0  0  0  0  0  0
  -28.1599    0.4295   -4.9685 C   0  0  0  0  0  0  0  0  0  0  0  0
  -29.4261    0.0178   -5.3855 C   0  0  0  0  0  0  0  0  0  0  0  0
  -30.6770    1.1813   -5.5833 Cl  0  0  0  0  0  0  0  0  0  0  0  0
  -29.6806   -1.3250   -5.6480 C   0  0  0  0  0  0  0  0  0  0  0  0
  1  2  1  0  0  0
  1 13  1  0  0  0
  1 14  1  0  0  0
  2  3  1  0  0  0
  2  7  2  0  0  0
  3  4  2  0  0  0
  4  5  1  0  0  0
  5  6  2  0  0  0
  6  7  1  0  0  0
  6 12  1  0  0  0
  7  8  1  0  0  0
  8  9  2  0  0  0
  9 16  1  0  0  0
  9 10  1  0  0  0
 16 17  1  0  0  0
 16 22  2  0  0  0
 17 18  2  0  0  0
 18 19  1  0  0  0
 19 20  2  0  0  0
 20 21  1  0  0  0
 20 22  1  0  0  0
 10 11  1  0  0  0
 11 12  1  0  0  0
 12 15  1  0  0  0
M  END
> <minimizedAffinity>
-8.27369

$$$$
