CHEMBL3913993


 31 34  0  0  0  0  0  0  0  0999 V2000
  -26.7716   -9.2511   -4.7210 C   0  0  0  0  0  0  0  0  0  0  0  0
  -27.4469   -8.0370   -4.6025 C   0  0  0  0  0  0  0  0  0  0  0  0
  -28.3963   -7.6147   -5.5621 C   0  0  0  0  0  0  0  0  0  0  0  0
  -29.1240   -6.4207   -5.4885 C   0  0  0  0  0  0  0  0  0  0  0  0
  -30.0530   -6.0871   -6.4012 N   0  0  0  0  0  0  0  0  0  0  0  0
  -30.2417   -6.9468   -7.4044 C   0  0  0  0  0  0  0  0  0  0  0  0
  -29.6055   -8.1066   -7.5738 N   0  0  0  0  0  0  0  0  0  0  0  0
  -28.6937   -8.4258   -6.6535 C   0  0  0  0  0  0  0  0  0  0  0  0
  -27.9955   -9.6101   -6.7878 C   0  0  0  0  0  0  0  0  0  0  0  0
  -26.9999  -10.0195   -5.8780 C   0  0  0  0  0  0  0  0  0  0  0  0
  -26.1403  -10.9569   -3.1195 C   0  0  0  0  0  0  0  0  0  0  0  0
  -25.8851   -9.7193   -3.7884 O   0  0  0  0  0  0  0  0  0  0  0  0
  -28.8622   -5.5255   -4.4156 N   0  0  0  0  0  0  0  0  0  0  0  0
  -28.0925   -5.8884   -3.8573 H   0  0  0  0  0  0  0  0  0  0  0  0
  -28.7920   -4.1253   -4.5639 C   0  0  0  0  0  0  0  0  0  0  0  0
  -27.6407   -3.5461   -5.1231 C   0  0  0  0  0  0  0  0  0  0  0  0
  -27.5105   -2.1659   -5.2294 C   0  0  0  0  0  0  0  0  0  0  0  0
  -28.5447   -1.3442   -4.7879 C   0  0  0  0  0  0  0  0  0  0  0  0
  -28.3381    0.5321   -4.8680 Br  0  0  0  0  0  0  0  0  0  0  0  0
  -29.7201   -1.8930   -4.2765 C   0  0  0  0  0  0  0  0  0  0  0  0
  -29.8436   -3.2795   -4.1753 C   0  0  0  0  0  0  0  0  0  0  0  0
  -31.4543   -3.9935   -3.4631 Br  0  0  0  0  0  0  0  0  0  0  0  0
  -26.2346  -11.1548   -6.0992 O   0  0  0  0  0  0  0  0  0  0  0  0
  -25.0541  -10.9055   -6.8873 C   0  0  0  0  0  0  0  0  0  0  0  0
  -24.0345  -12.0550   -6.8929 C   0  0  0  0  0  0  0  0  0  0  0  0
  -23.5642  -12.4650   -5.4872 C   0  0  0  0  0  0  0  0  0  0  0  0
  -22.7503  -11.4027   -4.8597 N   0  0  0  0  0  0  0  0  0  0  0  0
  -22.3366  -11.7976   -3.5183 C   0  0  0  0  0  0  0  0  0  0  0  0
  -21.5879  -11.1255   -5.7234 C   0  0  0  0  0  0  0  0  0  0  0  0
  -22.0393  -10.7318   -7.1386 C   0  0  0  0  0  0  0  0  0  0  0  0
  -22.8944  -11.7263   -7.7306 O   0  0  0  0  0  0  0  0  0  0  0  0
 11 12  1  0  0  0
 12  1  1  0  0  0
  1  2  1  0  0  0
  1 10  2  0  0  0
  2  3  2  0  0  0
  3  4  1  0  0  0
  3  8  1  0  0  0
  4 13  1  0  0  0
  4  5  2  0  0  0
 13 15  1  0  0  0
 13 14  1  0  0  0
 15 16  1  0  0  0
 15 21  2  0  0  0
 16 17  2  0  0  0
 17 18  1  0  0  0
 18 19  1  0  0  0
 18 20  2  0  0  0
 20 21  1  0  0  0
 21 22  1  0  0  0
  5  6  1  0  0  0
  6  7  2  0  0  0
  7  8  1  0  0  0
  8  9  2  0  0  0
  9 10  1  0  0  0
 10 23  1  0  0  0
 23 24  1  0  0  0
 24 25  1  0  0  0
 25 26  1  0  0  0
 25 31  1  0  0  0
 26 27  1  0  0  0
 27 28  1  0  0  0
 27 29  1  0  0  0
 29 30  1  0  0  0
 30 31  1  0  0  0
M  END
> <minimizedAffinity>
-7.53304

$$$$
