CHEMBL360781


 36 39  0  0  0  0  0  0  0  0999 V2000
  -23.2828   -1.2159  -13.6968 C   0  0  0  0  0  0  0  0  0  0  0  0
  -24.5157   -1.2194  -14.3397 C   0  0  0  0  0  0  0  0  0  0  0  0
  -25.6681   -1.5562  -13.6205 C   0  0  0  0  0  0  0  0  0  0  0  0
  -25.5985   -1.9762  -12.2887 C   0  0  0  0  0  0  0  0  0  0  0  0
  -24.3328   -2.1322  -11.7095 C   0  0  0  0  0  0  0  0  0  0  0  0
  -23.1799   -1.7528  -12.4119 C   0  0  0  0  0  0  0  0  0  0  0  0
  -26.7353   -2.1879  -11.4773 N   0  0  0  0  0  0  0  0  0  0  0  0
  -26.8455   -1.8912  -10.1315 C   0  0  0  0  0  0  0  0  0  0  0  0
  -26.0126   -1.2804   -9.4745 O   0  0  0  0  0  0  0  0  0  0  0  0
  -27.9952   -2.4333   -9.5674 N   0  0  0  0  0  0  0  0  0  0  0  0
  -27.5501   -2.5976  -11.9194 H   0  0  0  0  0  0  0  0  0  0  0  0
  -28.2463   -3.3448   -9.9445 H   0  0  0  0  0  0  0  0  0  0  0  0
  -28.2680   -2.2443   -8.1792 C   0  0  0  0  0  0  0  0  0  0  0  0
  -28.1008   -0.9625   -7.6267 C   0  0  0  0  0  0  0  0  0  0  0  0
  -28.2833   -0.7292   -6.2624 C   0  0  0  0  0  0  0  0  0  0  0  0
  -28.6548   -1.7719   -5.4208 C   0  0  0  0  0  0  0  0  0  0  0  0
  -28.8600   -3.0477   -5.9472 C   0  0  0  0  0  0  0  0  0  0  0  0
  -28.6779   -3.2863   -7.3246 C   0  0  0  0  0  0  0  0  0  0  0  0
  -28.8506   -4.6626   -7.8107 N   0  0  0  0  0  0  0  0  0  0  0  0
  -27.8876   -5.2102   -8.3734 O   0  0  0  0  0  0  0  0  0  0  0  0
  -29.9526   -5.2032   -7.6435 O   0  0  0  0  0  0  0  0  0  0  0  0
  -22.1338   -0.6703  -14.2205 O   0  0  0  0  0  0  0  0  0  0  0  0
  -18.3432    2.8879  -14.8513 C   0  0  0  0  0  0  0  0  0  0  0  0
  -19.5731    3.5108  -14.5833 C   0  0  0  0  0  0  0  0  0  0  0  0
  -20.7533    2.7950  -14.4025 C   0  0  0  0  0  0  0  0  0  0  0  0
  -21.8480    3.4799  -14.0381 N   0  0  0  0  0  0  0  0  0  0  0  0
  -22.9749    2.7954  -13.7742 C   0  0  0  0  0  0  0  0  0  0  0  0
  -23.0623    1.4198  -13.8340 C   0  0  0  0  0  0  0  0  0  0  0  0
  -21.9307    0.7010  -14.2163 C   0  0  0  0  0  0  0  0  0  0  0  0
  -20.7443    1.4008  -14.5745 C   0  0  0  0  0  0  0  0  0  0  0  0
  -19.5505    0.8237  -15.0622 C   0  0  0  0  0  0  0  0  0  0  0  0
  -18.3397    1.5223  -15.1273 C   0  0  0  0  0  0  0  0  0  0  0  0
  -16.6587    3.9151  -16.1762 C   0  0  0  0  0  0  0  0  0  0  0  0
  -17.1658    3.5865  -14.8819 O   0  0  0  0  0  0  0  0  0  0  0  0
  -17.3025    0.6874  -15.4293 O   0  0  0  0  0  0  0  0  0  0  0  0
  -16.4121    0.2576  -14.4156 C   0  0  0  0  0  0  0  0  0  0  0  0
 33 34  1  0  0  0
 34 23  1  0  0  0
 23 24  1  0  0  0
 23 32  2  0  0  0
 24 25  2  0  0  0
 25 26  1  0  0  0
 25 30  1  0  0  0
 26 27  2  0  0  0
 27 28  1  0  0  0
 28 29  2  0  0  0
 29 22  1  0  0  0
 29 30  1  0  0  0
 22  1  1  0  0  0
  1  2  1  0  0  0
  1  6  2  0  0  0
  2  3  2  0  0  0
  3  4  1  0  0  0
  4  7  1  0  0  0
  4  5  2  0  0  0
  7  8  1  0  0  0
  7 11  1  0  0  0
  8  9  2  0  0  0
  8 10  1  0  0  0
 10 13  1  0  0  0
 10 12  1  0  0  0
 13 14  1  0  0  0
 13 18  2  0  0  0
 14 15  2  0  0  0
 15 16  1  0  0  0
 16 17  2  0  0  0
 17 18  1  0  0  0
 18 19  1  0  0  0
 19 20  2  0  0  0
 19 21  1  0  0  0
  5  6  1  0  0  0
 30 31  2  0  0  0
 31 32  1  0  0  0
 32 35  1  0  0  0
 35 36  1  0  0  0
M  CHG 1  19   1
M  CHG 1  21  -1
M  END
> <minimizedAffinity>
-10.88510

$$$$
