CHEMBL3827870


 35 39  0  0  0  0  0  0  0  0999 V2000
  -26.7672  -11.0713   -3.7822 C   0  0  0  0  0  0  0  0  0  0  0  0
  -26.9005  -11.1242   -5.1787 C   0  0  0  0  0  0  0  0  0  0  0  0
  -27.6524  -10.1654   -5.8687 C   0  0  0  0  0  0  0  0  0  0  0  0
  -28.3310   -9.1896   -5.1560 C   0  0  0  0  0  0  0  0  0  0  0  0
  -28.1958   -9.1643   -3.7680 C   0  0  0  0  0  0  0  0  0  0  0  0
  -27.4022  -10.0552   -3.0623 C   0  0  0  0  0  0  0  0  0  0  0  0
  -29.0015   -8.0521   -3.2677 C   0  0  0  0  0  0  0  0  0  0  0  0
  -29.1039   -7.6865   -2.1075 O   0  0  0  0  0  0  0  0  0  0  0  0
  -29.6057   -7.4248   -4.4651 C   0  0  0  0  0  0  0  0  0  0  0  0
  -29.1636   -8.0543   -5.5609 C   0  0  0  0  0  0  0  0  0  0  0  0
  -29.3297   -7.5192   -6.8274 N   0  0  0  0  0  0  0  0  0  0  0  0
  -29.6635   -6.1415   -6.9800 C   0  0  0  0  0  0  0  0  0  0  0  0
  -29.7310   -5.5253   -8.0426 O   0  0  0  0  0  0  0  0  0  0  0  0
  -30.0579   -5.4188   -5.7482 C   0  0  0  0  0  0  0  0  0  0  0  0
  -30.1875   -4.0388   -5.7063 C   0  0  0  0  0  0  0  0  0  0  0  0
  -30.6132   -3.5128   -4.4978 C   0  0  0  0  0  0  0  0  0  0  0  0
  -31.4080   -4.2869   -3.6612 C   0  0  0  0  0  0  0  0  0  0  0  0
  -31.1208   -5.6365   -3.6115 C   0  0  0  0  0  0  0  0  0  0  0  0
  -30.3036   -6.1687   -4.5936 C   0  0  0  0  0  0  0  0  0  0  0  0
  -29.1776   -8.2752   -8.0170 C   0  0  0  0  0  0  0  0  0  0  0  0
  -30.1940   -9.1174   -8.4230 C   0  0  0  0  0  0  0  0  0  0  0  0
  -30.0343   -9.8862   -9.5589 C   0  0  0  0  0  0  0  0  0  0  0  0
  -28.8442   -9.8504  -10.3027 C   0  0  0  0  0  0  0  0  0  0  0  0
  -27.8248   -8.9867   -9.9086 C   0  0  0  0  0  0  0  0  0  0  0  0
  -27.9906   -8.1992   -8.7659 C   0  0  0  0  0  0  0  0  0  0  0  0
  -28.5951  -10.6321  -11.4143 O   0  0  0  0  0  0  0  0  0  0  0  0
  -29.0430  -10.0164  -12.6119 C   0  0  0  0  0  0  0  0  0  0  0  0
  -28.1656  -10.3531  -13.8133 C   0  0  0  0  0  0  0  0  0  0  0  0
  -27.3771   -9.1775  -14.2431 N   0  0  0  0  0  0  0  0  0  0  0  0
  -26.3998   -8.7533  -13.2363 C   0  0  0  0  0  0  0  0  0  0  0  0
  -26.7023   -9.4567  -15.5078 C   0  0  0  0  0  0  0  0  0  0  0  0
  -24.6801  -11.5854   -2.7690 C   0  0  0  0  0  0  0  0  0  0  0  0
  -26.0318  -11.9508   -3.0358 O   0  0  0  0  0  0  0  0  0  0  0  0
  -29.9103   -2.4346   -4.0009 O   0  0  0  0  0  0  0  0  0  0  0  0
  -28.7675   -2.8511   -3.2200 C   0  0  0  0  0  0  0  0  0  0  0  0
 32 33  1  0  0  0
 33  1  1  0  0  0
  1  2  1  0  0  0
  1  6  2  0  0  0
  2  3  2  0  0  0
  3  4  1  0  0  0
  4  5  2  0  0  0
  4 10  1  0  0  0
  5  6  1  0  0  0
  5  7  1  0  0  0
  7  8  2  0  0  0
  7  9  1  0  0  0
  9 10  2  0  0  0
  9 19  1  0  0  0
 10 11  1  0  0  0
 11 20  1  0  0  0
 11 12  1  0  0  0
 20 21  1  0  0  0
 20 25  2  0  0  0
 21 22  2  0  0  0
 22 23  1  0  0  0
 23 26  1  0  0  0
 23 24  2  0  0  0
 26 27  1  0  0  0
 27 28  1  0  0  0
 28 29  1  0  0  0
 29 30  1  0  0  0
 29 31  1  0  0  0
 24 25  1  0  0  0
 12 13  2  0  0  0
 12 14  1  0  0  0
 14 15  1  0  0  0
 14 19  2  0  0  0
 15 16  2  0  0  0
 16 34  1  0  0  0
 16 17  1  0  0  0
 34 35  1  0  0  0
 17 18  2  0  0  0
 18 19  1  0  0  0
M  END
> <minimizedAffinity>
-6.04443

$$$$
