CHEMBL4105329


 38 42  0  0  0  0  0  0  0  0999 V2000
  -28.9902   -7.1904   -6.5475 C   0  0  0  0  0  0  0  0  0  0  0  0
  -29.1553   -5.9077   -7.1195 C   0  0  0  0  0  0  0  0  0  0  0  0
  -28.9223   -4.7192   -6.4320 C   0  0  0  0  0  0  0  0  0  0  0  0
  -28.4196   -4.8960   -5.1479 C   0  0  0  0  0  0  0  0  0  0  0  0
  -28.1645   -6.0957   -4.5559 N   0  0  0  0  0  0  0  0  0  0  0  0
  -28.4096   -7.2413   -5.2604 C   0  0  0  0  0  0  0  0  0  0  0  0
  -33.2472  -11.0595   -6.4135 C   0  0  0  0  0  0  0  0  0  0  0  0
  -32.2225  -11.0454   -7.4858 C   0  0  0  0  0  0  0  0  0  0  0  0
  -32.1929  -11.9998   -8.4247 N   0  0  0  0  0  0  0  0  0  0  0  0
  -31.1273  -11.6743   -9.1786 N   0  0  0  0  0  0  0  0  0  0  0  0
  -30.4316  -10.5862   -8.7256 C   0  0  0  0  0  0  0  0  0  0  0  0
  -29.2525   -9.9834   -9.1607 C   0  0  0  0  0  0  0  0  0  0  0  0
  -28.7924   -8.8867   -8.4167 C   0  0  0  0  0  0  0  0  0  0  0  0
  -29.5037   -8.3571   -7.3184 C   0  0  0  0  0  0  0  0  0  0  0  0
  -30.7282   -8.9617   -6.9735 C   0  0  0  0  0  0  0  0  0  0  0  0
  -31.1611  -10.1185   -7.6437 C   0  0  0  0  0  0  0  0  0  0  0  0
  -30.9152  -12.2519   -9.9838 H   0  0  0  0  0  0  0  0  0  0  0  0
  -28.0175   -8.4873   -4.5282 C   0  0  0  0  0  0  0  0  0  0  0  0
  -28.9926   -9.4585   -4.2126 C   0  0  0  0  0  0  0  0  0  0  0  0
  -28.6504  -10.6605   -3.5811 C   0  0  0  0  0  0  0  0  0  0  0  0
  -29.8789  -11.7839   -3.1423 Cl  0  0  0  0  0  0  0  0  0  0  0  0
  -27.3230  -10.9580   -3.2921 C   0  0  0  0  0  0  0  0  0  0  0  0
  -26.3397  -10.0151   -3.5662 C   0  0  0  0  0  0  0  0  0  0  0  0
  -26.6984   -8.7802   -4.1184 C   0  0  0  0  0  0  0  0  0  0  0  0
  -25.7170   -7.8301   -4.2168 O   0  0  0  0  0  0  0  0  0  0  0  0
  -24.8629   -8.2753   -4.3482 H   0  0  0  0  0  0  0  0  0  0  0  0
  -29.0797   -3.4592   -7.0058 N   0  0  0  0  0  0  0  0  0  0  0  0
  -29.8501   -3.3630   -7.6574 H   0  0  0  0  0  0  0  0  0  0  0  0
  -27.9267   -2.5960   -7.3255 C   0  0  0  0  0  0  0  0  0  0  0  0
  -27.9681   -1.3061   -6.5144 C   0  0  0  0  0  0  0  0  0  0  0  0
  -28.4905   -0.1359   -7.0985 C   0  0  0  0  0  0  0  0  0  0  0  0
  -28.6228    1.0417   -6.3568 C   0  0  0  0  0  0  0  0  0  0  0  0
  -28.2311    1.0660   -5.0244 C   0  0  0  0  0  0  0  0  0  0  0  0
  -27.6910   -0.0755   -4.4331 C   0  0  0  0  0  0  0  0  0  0  0  0
  -27.5572   -1.2525   -5.1733 C   0  0  0  0  0  0  0  0  0  0  0  0
  -27.7928   -2.3549   -8.8505 C   0  0  0  0  0  0  0  0  0  0  0  0
  -27.1457   -3.4150   -9.5506 O   0  0  0  0  0  0  0  0  0  0  0  0
  -26.1945   -3.3439   -9.3435 H   0  0  0  0  0  0  0  0  0  0  0  0
  7  8  1  0  0  0
  8  9  2  0  0  0
  8 16  1  0  0  0
  9 10  1  0  0  0
 10 11  1  0  0  0
 10 17  1  0  0  0
 11 12  1  0  0  0
 11 16  2  0  0  0
 12 13  2  0  0  0
 13 14  1  0  0  0
 14  1  1  0  0  0
 14 15  2  0  0  0
  1  2  1  0  0  0
  1  6  2  0  0  0
  2  3  2  0  0  0
  3 27  1  0  0  0
  3  4  1  0  0  0
 27 29  1  0  0  0
 27 28  1  0  0  0
 29 36  1  0  0  0
 29 30  1  0  0  0
 36 37  1  0  0  0
 37 38  1  0  0  0
 30 31  1  0  0  0
 30 35  2  0  0  0
 31 32  2  0  0  0
 32 33  1  0  0  0
 33 34  2  0  0  0
 34 35  1  0  0  0
  4  5  2  0  0  0
  5  6  1  0  0  0
  6 18  1  0  0  0
 18 19  1  0  0  0
 18 24  2  0  0  0
 19 20  2  0  0  0
 20 21  1  0  0  0
 20 22  1  0  0  0
 22 23  2  0  0  0
 23 24  1  0  0  0
 24 25  1  0  0  0
 25 26  1  0  0  0
 15 16  1  0  0  0
M  END
> <minimizedAffinity>
-10.05777

$$$$
