CHEMBL2063322


 37 40  0  0  0  0  0  0  0  0999 V2000
  -15.9073    3.3539  -16.5351 C   0  0  0  0  0  0  0  0  0  0  0  0
  -16.7364    2.2314  -16.2791 C   0  0  0  0  0  0  0  0  0  0  0  0
  -17.8046    2.7012  -15.5577 C   0  0  0  0  0  0  0  0  0  0  0  0
  -17.5674    4.0427  -15.4125 N   0  0  0  0  0  0  0  0  0  0  0  0
  -16.4174    4.4570  -15.9672 N   0  0  0  0  0  0  0  0  0  0  0  0
  -18.1421    4.7378  -14.9512 H   0  0  0  0  0  0  0  0  0  0  0  0
  -12.2630    3.3443  -18.7683 C   0  0  0  0  0  0  0  0  0  0  0  0
  -12.4514    2.4526  -17.7063 C   0  0  0  0  0  0  0  0  0  0  0  0
  -13.6403    2.4613  -16.9808 C   0  0  0  0  0  0  0  0  0  0  0  0
  -14.6695    3.3557  -17.3092 C   0  0  0  0  0  0  0  0  0  0  0  0
  -14.4863    4.2406  -18.3770 C   0  0  0  0  0  0  0  0  0  0  0  0
  -13.2916    4.2348  -19.1024 C   0  0  0  0  0  0  0  0  0  0  0  0
  -10.9888    3.2955  -19.5650 C   0  0  0  0  0  0  0  0  0  0  0  0
  -11.3751    2.2013  -21.7212 C   0  0  0  0  0  0  0  0  0  0  0  0
  -11.7442    3.2076  -22.3065 O   0  0  0  0  0  0  0  0  0  0  0  0
  -10.9636    2.1481  -20.4288 N   0  0  0  0  0  0  0  0  0  0  0  0
  -10.7056    1.2398  -20.0721 H   0  0  0  0  0  0  0  0  0  0  0  0
  -11.3943    0.9434  -22.2237 O   0  0  0  0  0  0  0  0  0  0  0  0
  -12.4674   -1.0250  -21.3967 C   0  0  0  0  0  0  0  0  0  0  0  0
  -12.6643    0.2825  -22.1439 C   0  0  0  0  0  0  0  0  0  0  0  0
  -18.9025    2.0033  -15.0701 N   0  0  0  0  0  0  0  0  0  0  0  0
  -20.2249    2.5667  -15.0169 C   0  0  0  0  0  0  0  0  0  0  0  0
  -20.4621    3.6897  -15.4408 O   0  0  0  0  0  0  0  0  0  0  0  0
  -18.7636    1.0442  -14.7856 H   0  0  0  0  0  0  0  0  0  0  0  0
  -21.3027    1.7162  -14.4726 C   0  0  0  0  0  0  0  0  0  0  0  0
  -21.2656    0.3272  -14.5705 C   0  0  0  0  0  0  0  0  0  0  0  0
  -22.3138   -0.4229  -14.0342 C   0  0  0  0  0  0  0  0  0  0  0  0
  -23.4085    0.1739  -13.3850 C   0  0  0  0  0  0  0  0  0  0  0  0
  -23.4069    1.5686  -13.2779 C   0  0  0  0  0  0  0  0  0  0  0  0
  -22.3688    2.3369  -13.8125 C   0  0  0  0  0  0  0  0  0  0  0  0
  -24.3831   -0.6236  -12.8229 N   0  0  0  0  0  0  0  0  0  0  0  0
  -25.3328   -1.4019  -13.6350 C   0  0  0  0  0  0  0  0  0  0  0  0
  -26.6748   -1.5127  -12.8672 C   0  0  0  0  0  0  0  0  0  0  0  0
  -26.5183   -2.0920  -11.5113 N   0  0  0  0  0  0  0  0  0  0  0  0
  -27.8001   -2.1053  -10.8103 C   0  0  0  0  0  0  0  0  0  0  0  0
  -25.5224   -1.3050  -10.7491 C   0  0  0  0  0  0  0  0  0  0  0  0
  -24.1671   -1.2005  -11.4825 C   0  0  0  0  0  0  0  0  0  0  0  0
 19 20  1  0  0  0
 20 18  1  0  0  0
 18 14  1  0  0  0
 14 15  2  0  0  0
 14 16  1  0  0  0
 16 13  1  0  0  0
 16 17  1  0  0  0
 13  7  1  0  0  0
  7  8  1  0  0  0
  7 12  2  0  0  0
  8  9  2  0  0  0
  9 10  1  0  0  0
 10  1  1  0  0  0
 10 11  2  0  0  0
  1  2  1  0  0  0
  1  5  2  0  0  0
  2  3  2  0  0  0
  3 21  1  0  0  0
  3  4  1  0  0  0
 21 22  1  0  0  0
 21 24  1  0  0  0
 22 23  2  0  0  0
 22 25  1  0  0  0
 25 26  1  0  0  0
 25 30  2  0  0  0
 26 27  2  0  0  0
 27 28  1  0  0  0
 28 31  1  0  0  0
 28 29  2  0  0  0
 31 32  1  0  0  0
 31 37  1  0  0  0
 32 33  1  0  0  0
 33 34  1  0  0  0
 34 35  1  0  0  0
 34 36  1  0  0  0
 36 37  1  0  0  0
 29 30  1  0  0  0
  4  5  1  0  0  0
  4  6  1  0  0  0
 11 12  1  0  0  0
M  END
> <minimizedAffinity>
-7.96298

$$$$
