CHEMBL3690541


 34 37  0  0  0  0  0  0  0  0999 V2000
  -29.6639   -6.2019   -3.5175 C   0  0  0  0  0  0  0  0  0  0  0  0
  -31.0194   -6.1240   -3.1996 C   0  0  0  0  0  0  0  0  0  0  0  0
  -31.7936   -5.0616   -3.6566 C   0  0  0  0  0  0  0  0  0  0  0  0
  -31.2091   -4.0466   -4.4059 C   0  0  0  0  0  0  0  0  0  0  0  0
  -29.8298   -4.0291   -4.6379 C   0  0  0  0  0  0  0  0  0  0  0  0
  -29.0729   -5.1434   -4.2301 C   0  0  0  0  0  0  0  0  0  0  0  0
  -29.1858   -2.8745   -5.2780 C   0  0  0  0  0  0  0  0  0  0  0  0
  -28.9205   -1.6099   -4.7732 C   0  0  0  0  0  0  0  0  0  0  0  0
  -28.3005   -0.8046   -5.6898 N   0  0  0  0  0  0  0  0  0  0  0  0
  -28.1776   -1.5425   -6.7697 C   0  0  0  0  0  0  0  0  0  0  0  0
  -27.5881   -1.2405   -8.0316 C   0  0  0  0  0  0  0  0  0  0  0  0
  -27.5576   -2.1545   -9.0334 C   0  0  0  0  0  0  0  0  0  0  0  0
  -28.1895   -3.4629   -8.8104 C   0  0  0  0  0  0  0  0  0  0  0  0
  -28.7632   -3.7462   -7.6308 C   0  0  0  0  0  0  0  0  0  0  0  0
  -28.7311   -2.8086   -6.5955 N   0  0  0  0  0  0  0  0  0  0  0  0
  -26.8823   -1.8085  -10.3140 C   0  0  0  0  0  0  0  0  0  0  0  0
  -25.6171   -1.3464  -10.2645 N   0  0  0  0  0  0  0  0  0  0  0  0
  -25.0164   -1.1017  -11.4408 C   0  0  0  0  0  0  0  0  0  0  0  0
  -25.6263   -1.2972  -12.6543 C   0  0  0  0  0  0  0  0  0  0  0  0
  -26.9194   -1.7535  -12.5878 C   0  0  0  0  0  0  0  0  0  0  0  0
  -27.6436   -1.9719  -13.7238 O   0  0  0  0  0  0  0  0  0  0  0  0
  -27.5690   -2.0170  -11.4505 N   0  0  0  0  0  0  0  0  0  0  0  0
  -27.1119   -1.7098  -14.4864 H   0  0  0  0  0  0  0  0  0  0  0  0
  -28.1469   -8.0990   -5.2363 O   0  0  0  0  0  0  0  0  0  0  0  0
  -28.1653   -8.1372   -4.0137 C   0  0  0  0  0  0  0  0  0  0  0  0
  -27.4326   -9.0798   -3.3217 N   0  0  0  0  0  0  0  0  0  0  0  0
  -28.8495   -7.2998   -3.1596 N   0  0  0  0  0  0  0  0  0  0  0  0
  -27.7980   -9.3460   -2.4192 H   0  0  0  0  0  0  0  0  0  0  0  0
  -28.7044   -7.4475   -2.1730 H   0  0  0  0  0  0  0  0  0  0  0  0
  -26.7575  -10.1384   -4.0832 C   0  0  0  0  0  0  0  0  0  0  0  0
  -25.2245  -10.0541   -4.0959 C   0  0  0  0  0  0  0  0  0  0  0  0
  -24.6506  -11.2786   -4.0338 F   0  0  0  0  0  0  0  0  0  0  0  0
  -24.7507   -9.4216   -5.1880 F   0  0  0  0  0  0  0  0  0  0  0  0
  -24.7916   -9.3671   -3.0088 F   0  0  0  0  0  0  0  0  0  0  0  0
 24 25  2  0  0  0
 25 26  1  0  0  0
 25 27  1  0  0  0
 26 30  1  0  0  0
 26 28  1  0  0  0
 30 31  1  0  0  0
 31 32  1  0  0  0
 31 33  1  0  0  0
 31 34  1  0  0  0
 27  1  1  0  0  0
 27 29  1  0  0  0
  1  2  1  0  0  0
  1  6  2  0  0  0
  2  3  2  0  0  0
  3  4  1  0  0  0
  4  5  2  0  0  0
  5  7  1  0  0  0
  5  6  1  0  0  0
  7  8  2  0  0  0
  7 15  1  0  0  0
  8  9  1  0  0  0
  9 10  2  0  0  0
 10 11  1  0  0  0
 10 15  1  0  0  0
 11 12  2  0  0  0
 12 16  1  0  0  0
 12 13  1  0  0  0
 16 17  1  0  0  0
 16 22  2  0  0  0
 17 18  2  0  0  0
 18 19  1  0  0  0
 19 20  2  0  0  0
 20 21  1  0  0  0
 20 22  1  0  0  0
 21 23  1  0  0  0
 13 14  2  0  0  0
 14 15  1  0  0  0
M  END
> <minimizedAffinity>
-9.73487

$$$$
