CHEMBL1242557


 36 39  0  0  0  0  0  0  0  0999 V2000
  -30.0633   -9.0661   -7.1404 C   0  0  0  0  0  0  0  0  0  0  0  0
  -30.7524   -7.9639   -7.6256 C   0  0  0  0  0  0  0  0  0  0  0  0
  -30.8539   -6.8038   -6.8567 C   0  0  0  0  0  0  0  0  0  0  0  0
  -30.1905   -6.6542   -5.6278 C   0  0  0  0  0  0  0  0  0  0  0  0
  -29.4537   -7.7559   -5.1458 C   0  0  0  0  0  0  0  0  0  0  0  0
  -28.6891   -7.7524   -3.8489 C   0  0  0  0  0  0  0  0  0  0  0  0
  -29.4187   -8.9565   -5.9053 C   0  0  0  0  0  0  0  0  0  0  0  0
  -30.2356   -5.4177   -4.9176 N   0  0  0  0  0  0  0  0  0  0  0  0
  -29.8207   -4.1943   -5.4248 C   0  0  0  0  0  0  0  0  0  0  0  0
  -29.3953   -4.0006   -6.5593 O   0  0  0  0  0  0  0  0  0  0  0  0
  -29.8618   -3.1730   -4.4794 N   0  0  0  0  0  0  0  0  0  0  0  0
  -30.5395   -5.4374   -3.9550 H   0  0  0  0  0  0  0  0  0  0  0  0
  -29.6112   -3.4551   -3.5395 H   0  0  0  0  0  0  0  0  0  0  0  0
  -29.4018   -1.8720   -4.8473 C   0  0  0  0  0  0  0  0  0  0  0  0
  -30.2928   -0.8453   -5.1940 C   0  0  0  0  0  0  0  0  0  0  0  0
  -29.8136    0.3699   -5.6892 C   0  0  0  0  0  0  0  0  0  0  0  0
  -28.4451    0.5456   -5.8480 C   0  0  0  0  0  0  0  0  0  0  0  0
  -27.9858    1.6933   -6.3676 F   0  0  0  0  0  0  0  0  0  0  0  0
  -27.5456   -0.4416   -5.4735 C   0  0  0  0  0  0  0  0  0  0  0  0
  -28.0290   -1.6399   -4.9531 C   0  0  0  0  0  0  0  0  0  0  0  0
  -27.1661   -2.6136   -4.6257 F   0  0  0  0  0  0  0  0  0  0  0  0
  -29.9384  -10.2659   -7.8201 O   0  0  0  0  0  0  0  0  0  0  0  0
  -25.1309  -11.9105   -7.4133 C   0  0  0  0  0  0  0  0  0  0  0  0
  -25.3726  -11.5045   -8.7353 C   0  0  0  0  0  0  0  0  0  0  0  0
  -26.6072  -11.0357   -9.1587 C   0  0  0  0  0  0  0  0  0  0  0  0
  -26.7103  -10.6084  -10.4279 N   0  0  0  0  0  0  0  0  0  0  0  0
  -27.8949  -10.1212  -10.8444 C   0  0  0  0  0  0  0  0  0  0  0  0
  -29.0072  -10.0306  -10.0387 C   0  0  0  0  0  0  0  0  0  0  0  0
  -28.8835  -10.4251   -8.7071 C   0  0  0  0  0  0  0  0  0  0  0  0
  -27.6756  -10.9997   -8.2471 C   0  0  0  0  0  0  0  0  0  0  0  0
  -27.4679  -11.5228   -6.9513 C   0  0  0  0  0  0  0  0  0  0  0  0
  -26.2074  -11.9747   -6.5219 C   0  0  0  0  0  0  0  0  0  0  0  0
  -23.0081  -11.1717   -6.6616 C   0  0  0  0  0  0  0  0  0  0  0  0
  -23.8702  -12.2628   -7.0035 O   0  0  0  0  0  0  0  0  0  0  0  0
  -26.2338  -12.4183   -5.2284 O   0  0  0  0  0  0  0  0  0  0  0  0
  -26.6163  -11.5314   -4.1891 C   0  0  0  0  0  0  0  0  0  0  0  0
 33 34  1  0  0  0
 34 23  1  0  0  0
 23 24  1  0  0  0
 23 32  2  0  0  0
 24 25  2  0  0  0
 25 26  1  0  0  0
 25 30  1  0  0  0
 26 27  2  0  0  0
 27 28  1  0  0  0
 28 29  2  0  0  0
 29 22  1  0  0  0
 29 30  1  0  0  0
 22  1  1  0  0  0
  1  2  1  0  0  0
  1  7  2  0  0  0
  2  3  2  0  0  0
  3  4  1  0  0  0
  4  8  1  0  0  0
  4  5  2  0  0  0
  8  9  1  0  0  0
  8 12  1  0  0  0
  9 10  2  0  0  0
  9 11  1  0  0  0
 11 14  1  0  0  0
 11 13  1  0  0  0
 14 15  1  0  0  0
 14 20  2  0  0  0
 15 16  2  0  0  0
 16 17  1  0  0  0
 17 18  1  0  0  0
 17 19  2  0  0  0
 19 20  1  0  0  0
 20 21  1  0  0  0
  5  6  1  0  0  0
  5  7  1  0  0  0
 30 31  2  0  0  0
 31 32  1  0  0  0
 32 35  1  0  0  0
 35 36  1  0  0  0
M  END
> <minimizedAffinity>
-8.40448

$$$$
