CHEMBL3939438


 43 47  0  0  0  0  0  0  0  0999 V2000
  -17.2806    1.8195  -13.8487 O   0  0  0  0  0  0  0  0  0  0  0  0
  -17.2781    2.1666  -15.0239 C   0  0  0  0  0  0  0  0  0  0  0  0
  -18.4330    2.3735  -15.7574 N   0  0  0  0  0  0  0  0  0  0  0  0
  -16.1227    2.3707  -15.7618 N   0  0  0  0  0  0  0  0  0  0  0  0
  -18.3366    2.4340  -16.7611 H   0  0  0  0  0  0  0  0  0  0  0  0
  -16.1888    2.9614  -16.5775 H   0  0  0  0  0  0  0  0  0  0  0  0
  -19.7423    2.1670  -15.2423 C   0  0  0  0  0  0  0  0  0  0  0  0
  -20.5436    3.1893  -14.7266 C   0  0  0  0  0  0  0  0  0  0  0  0
  -21.7653    2.9010  -14.1217 C   0  0  0  0  0  0  0  0  0  0  0  0
  -22.1710    1.5823  -14.0749 C   0  0  0  0  0  0  0  0  0  0  0  0
  -21.4777    0.5721  -14.6439 N   0  0  0  0  0  0  0  0  0  0  0  0
  -20.2786    0.8836  -15.2000 C   0  0  0  0  0  0  0  0  0  0  0  0
  -23.3723    1.3345  -13.4211 O   0  0  0  0  0  0  0  0  0  0  0  0
  -23.5989    0.0677  -12.9322 C   0  0  0  0  0  0  0  0  0  0  0  0
  -22.8701   -1.0523  -13.3206 C   0  0  0  0  0  0  0  0  0  0  0  0
  -23.2172   -2.2615  -12.7649 C   0  0  0  0  0  0  0  0  0  0  0  0
  -24.1820   -2.4039  -11.8367 N   0  0  0  0  0  0  0  0  0  0  0  0
  -24.8430   -1.3110  -11.4194 C   0  0  0  0  0  0  0  0  0  0  0  0
  -24.5772   -0.0523  -11.9435 C   0  0  0  0  0  0  0  0  0  0  0  0
  -25.8345   -1.4269  -10.4300 N   0  0  0  0  0  0  0  0  0  0  0  0
  -27.1810   -1.5756  -10.6925 C   0  0  0  0  0  0  0  0  0  0  0  0
  -27.7282   -1.5999  -11.7840 O   0  0  0  0  0  0  0  0  0  0  0  0
  -25.5306   -1.4115   -9.4696 H   0  0  0  0  0  0  0  0  0  0  0  0
  -28.0713   -1.7243   -9.4966 C   0  0  0  0  0  0  0  0  0  0  0  0
  -27.6573   -1.4835   -8.0686 C   0  0  0  0  0  0  0  0  0  0  0  0
  -27.9169   -2.8856   -8.5466 C   0  0  0  0  0  0  0  0  0  0  0  0
  -14.8195    2.0495  -15.2948 C   0  0  0  0  0  0  0  0  0  0  0  0
  -14.4086    0.7277  -15.0651 C   0  0  0  0  0  0  0  0  0  0  0  0
  -13.1419    0.3802  -14.5775 C   0  0  0  0  0  0  0  0  0  0  0  0
  -12.2576    1.4345  -14.3444 C   0  0  0  0  0  0  0  0  0  0  0  0
  -12.6037    2.7709  -14.6258 C   0  0  0  0  0  0  0  0  0  0  0  0
  -13.8986    3.0724  -15.0858 C   0  0  0  0  0  0  0  0  0  0  0  0
  -12.7996   -0.9393  -14.3603 N   0  0  0  0  0  0  0  0  0  0  0  0
  -13.8126   -1.9993  -14.2868 C   0  0  0  0  0  0  0  0  0  0  0  0
  -13.7038   -2.7179  -12.9479 C   0  0  0  0  0  0  0  0  0  0  0  0
  -12.2812   -3.2129  -12.7341 C   0  0  0  0  0  0  0  0  0  0  0  0
  -12.0103   -4.1747  -13.6631 F   0  0  0  0  0  0  0  0  0  0  0  0
  -11.2568   -2.0969  -12.8797 C   0  0  0  0  0  0  0  0  0  0  0  0
  -11.4140   -1.3841  -14.2223 C   0  0  0  0  0  0  0  0  0  0  0  0
  -11.5765    3.8646  -14.4871 C   0  0  0  0  0  0  0  0  0  0  0  0
  -12.1104    5.1155  -14.4077 F   0  0  0  0  0  0  0  0  0  0  0  0
  -10.8194    3.7140  -13.3639 F   0  0  0  0  0  0  0  0  0  0  0  0
  -10.6976    3.8978  -15.5259 F   0  0  0  0  0  0  0  0  0  0  0  0
  1  2  2  0  0  0
  2  3  1  0  0  0
  2  4  1  0  0  0
  3  7  1  0  0  0
  3  5  1  0  0  0
  7  8  1  0  0  0
  7 12  2  0  0  0
  8  9  2  0  0  0
  9 10  1  0  0  0
 10 13  1  0  0  0
 10 11  2  0  0  0
 13 14  1  0  0  0
 14 15  1  0  0  0
 14 19  2  0  0  0
 15 16  2  0  0  0
 16 17  1  0  0  0
 17 18  2  0  0  0
 18 20  1  0  0  0
 18 19  1  0  0  0
 20 21  1  0  0  0
 20 23  1  0  0  0
 21 22  2  0  0  0
 21 24  1  0  0  0
 24 25  1  0  0  0
 24 26  1  0  0  0
 25 26  1  0  0  0
 11 12  1  0  0  0
  4 27  1  0  0  0
  4  6  1  0  0  0
 27 28  1  0  0  0
 27 32  2  0  0  0
 28 29  2  0  0  0
 29 33  1  0  0  0
 29 30  1  0  0  0
 33 34  1  0  0  0
 33 39  1  0  0  0
 34 35  1  0  0  0
 35 36  1  0  0  0
 36 37  1  0  0  0
 36 38  1  0  0  0
 38 39  1  0  0  0
 30 31  2  0  0  0
 31 40  1  0  0  0
 31 32  1  0  0  0
 40 41  1  0  0  0
 40 42  1  0  0  0
 40 43  1  0  0  0
M  END
> <minimizedAffinity>
-9.71517

$$$$
