CHEMBL610512


 25 28  0  0  0  0  0  0  0  0999 V2000
  -32.7786   -9.3486   -8.0759 O   0  0  0  0  0  0  0  0  0  0  0  0
  -31.5488   -9.3267   -8.1270 C   0  0  0  0  0  0  0  0  0  0  0  0
  -30.7096   -8.9204   -6.9354 C   0  0  0  0  0  0  0  0  0  0  0  0
  -29.8926   -7.7060   -7.2535 C   0  0  0  0  0  0  0  0  0  0  0  0
  -30.1832   -6.4791   -6.6496 C   0  0  0  0  0  0  0  0  0  0  0  0
  -29.4584   -5.3595   -7.0302 C   0  0  0  0  0  0  0  0  0  0  0  0
  -29.7298   -4.0317   -6.4668 C   0  0  0  0  0  0  0  0  0  0  0  0
  -30.5881   -3.8613   -5.6073 O   0  0  0  0  0  0  0  0  0  0  0  0
  -28.9704   -3.0029   -6.9612 N   0  0  0  0  0  0  0  0  0  0  0  0
  -28.0009   -3.1158   -7.9167 C   0  0  0  0  0  0  0  0  0  0  0  0
  -27.3811   -2.1346   -8.3178 O   0  0  0  0  0  0  0  0  0  0  0  0
  -27.7678   -4.3662   -8.3978 N   0  0  0  0  0  0  0  0  0  0  0  0
  -28.4689   -5.4919   -7.9851 C   0  0  0  0  0  0  0  0  0  0  0  0
  -28.1540   -6.6689   -8.5699 N   0  0  0  0  0  0  0  0  0  0  0  0
  -28.8676   -7.7764   -8.2063 C   0  0  0  0  0  0  0  0  0  0  0  0
  -28.5398   -9.0510   -8.8936 C   0  0  0  0  0  0  0  0  0  0  0  0
  -27.2126   -9.3473   -8.9839 N   0  0  0  0  0  0  0  0  0  0  0  0
  -26.8574  -10.4863   -9.6193 C   0  0  0  0  0  0  0  0  0  0  0  0
  -27.7575  -11.3451  -10.2225 C   0  0  0  0  0  0  0  0  0  0  0  0
  -29.1085  -11.0334  -10.1507 C   0  0  0  0  0  0  0  0  0  0  0  0
  -29.5205   -9.9099   -9.4291 C   0  0  0  0  0  0  0  0  0  0  0  0
  -30.9103   -9.7631   -9.2580 N   0  0  0  0  0  0  0  0  0  0  0  0
  -29.1475   -2.0771   -6.5982 H   0  0  0  0  0  0  0  0  0  0  0  0
  -27.0599   -4.4880   -9.1085 H   0  0  0  0  0  0  0  0  0  0  0  0
  -31.5353  -10.2261   -9.9088 H   0  0  0  0  0  0  0  0  0  0  0  0
  1  2  2  0  0  0
  2  3  1  0  0  0
  2 22  1  0  0  0
  3  4  1  0  0  0
  4  5  1  0  0  0
  4 15  2  0  0  0
  5  6  2  0  0  0
  6  7  1  0  0  0
  6 13  1  0  0  0
  7  8  2  0  0  0
  7  9  1  0  0  0
  9 10  1  0  0  0
  9 23  1  0  0  0
 10 11  2  0  0  0
 10 12  1  0  0  0
 12 13  1  0  0  0
 12 24  1  0  0  0
 13 14  2  0  0  0
 14 15  1  0  0  0
 15 16  1  0  0  0
 16 17  1  0  0  0
 16 21  2  0  0  0
 17 18  2  0  0  0
 18 19  1  0  0  0
 19 20  2  0  0  0
 20 21  1  0  0  0
 21 22  1  0  0  0
 22 25  1  0  0  0
M  END
> <minimizedAffinity>
-8.96321

$$$$
