CHEMBL2018765


 30 32  0  0  0  0  0  0  0  0999 V2000
  -28.9767   -8.8159   -6.4729 C   0  0  0  0  0  0  0  0  0  0  0  0
  -29.5494   -8.4320   -5.2407 C   0  0  0  0  0  0  0  0  0  0  0  0
  -29.7620   -7.1018   -4.8861 C   0  0  0  0  0  0  0  0  0  0  0  0
  -30.2717   -6.8092   -3.6810 N   0  0  0  0  0  0  0  0  0  0  0  0
  -30.4033   -5.5101   -3.3835 C   0  0  0  0  0  0  0  0  0  0  0  0
  -30.0851   -4.4841   -4.1758 N   0  0  0  0  0  0  0  0  0  0  0  0
  -29.5965   -4.7862   -5.3922 C   0  0  0  0  0  0  0  0  0  0  0  0
  -29.3996   -6.1150   -5.8011 C   0  0  0  0  0  0  0  0  0  0  0  0
  -28.8518   -6.4930   -7.0485 C   0  0  0  0  0  0  0  0  0  0  0  0
  -28.6731   -7.8317   -7.4161 C   0  0  0  0  0  0  0  0  0  0  0  0
  -29.2814   -3.7332   -6.2950 N   0  0  0  0  0  0  0  0  0  0  0  0
  -29.9735   -3.7263   -7.0376 H   0  0  0  0  0  0  0  0  0  0  0  0
  -28.8919   -2.4343   -5.9085 C   0  0  0  0  0  0  0  0  0  0  0  0
  -27.5966   -2.1839   -5.4307 C   0  0  0  0  0  0  0  0  0  0  0  0
  -27.2341   -0.9149   -4.9818 C   0  0  0  0  0  0  0  0  0  0  0  0
  -28.1668    0.1139   -5.0186 C   0  0  0  0  0  0  0  0  0  0  0  0
  -27.8153    1.3189   -4.5470 F   0  0  0  0  0  0  0  0  0  0  0  0
  -29.4430   -0.1060   -5.5316 C   0  0  0  0  0  0  0  0  0  0  0  0
  -30.5996    1.1689   -5.5862 Cl  0  0  0  0  0  0  0  0  0  0  0  0
  -29.8026   -1.3737   -5.9918 C   0  0  0  0  0  0  0  0  0  0  0  0
  -28.1272   -7.9287   -8.6632 O   0  0  0  0  0  0  0  0  0  0  0  0
  -28.4585   -9.0209   -9.5070 C   0  0  0  0  0  0  0  0  0  0  0  0
  -28.7603  -10.1668   -6.5347 O   0  0  0  0  0  0  0  0  0  0  0  0
  -29.8926  -11.0033   -6.3250 C   0  0  0  0  0  0  0  0  0  0  0  0
  -30.5623  -11.4081   -7.6350 C   0  0  0  0  0  0  0  0  0  0  0  0
  -31.9653  -10.9427   -7.7103 N   0  0  0  0  0  0  0  0  0  0  0  0
  -33.8144  -12.2286   -6.5802 C   0  0  0  0  0  0  0  0  0  0  0  0
  -32.6511  -11.2522   -6.4493 C   0  0  0  0  0  0  0  0  0  0  0  0
  -32.1265   -9.5551   -8.1716 C   0  0  0  0  0  0  0  0  0  0  0  0
  -32.7377   -8.5796   -7.1737 C   0  0  0  0  0  0  0  0  0  0  0  0
 27 28  1  0  0  0
 28 26  1  0  0  0
 26 29  1  0  0  0
 26 25  1  0  0  0
 29 30  1  0  0  0
 25 24  1  0  0  0
 24 23  1  0  0  0
 23  1  1  0  0  0
  1  2  1  0  0  0
  1 10  2  0  0  0
  2  3  2  0  0  0
  3  4  1  0  0  0
  3  8  1  0  0  0
  4  5  2  0  0  0
  5  6  1  0  0  0
  6  7  2  0  0  0
  7 11  1  0  0  0
  7  8  1  0  0  0
 11 13  1  0  0  0
 11 12  1  0  0  0
 13 14  1  0  0  0
 13 20  2  0  0  0
 14 15  2  0  0  0
 15 16  1  0  0  0
 16 17  1  0  0  0
 16 18  2  0  0  0
 18 19  1  0  0  0
 18 20  1  0  0  0
  8  9  2  0  0  0
  9 10  1  0  0  0
 10 21  1  0  0  0
 21 22  1  0  0  0
M  END
> <minimizedAffinity>
-7.18420

$$$$
