CHEMBL3577116


 36 38  0  0  0  0  0  0  0  0999 V2000
  -29.4400   -4.8125   -6.8754 C   0  0  0  0  0  0  0  0  0  0  0  0
  -28.5586   -4.5294   -7.9359 C   0  0  0  0  0  0  0  0  0  0  0  0
  -27.9992   -3.2550   -8.0944 C   0  0  0  0  0  0  0  0  0  0  0  0
  -28.3756   -2.2558   -7.2018 C   0  0  0  0  0  0  0  0  0  0  0  0
  -27.8566   -1.0209   -7.3253 F   0  0  0  0  0  0  0  0  0  0  0  0
  -29.2903   -2.5002   -6.1761 C   0  0  0  0  0  0  0  0  0  0  0  0
  -29.8107   -3.7908   -5.9816 C   0  0  0  0  0  0  0  0  0  0  0  0
  -30.6740   -4.0824   -4.7852 C   0  0  0  0  0  0  0  0  0  0  0  0
  -29.3594   -8.4689   -5.7839 N   0  0  0  0  0  0  0  0  0  0  0  0
  -28.9515   -7.1432   -5.9268 C   0  0  0  0  0  0  0  0  0  0  0  0
  -27.8889   -6.7179   -5.4717 O   0  0  0  0  0  0  0  0  0  0  0  0
  -29.8584   -6.2178   -6.6874 C   0  0  0  0  0  0  0  0  0  0  0  0
  -30.9926   -6.6720   -7.2438 C   0  0  0  0  0  0  0  0  0  0  0  0
  -31.3692   -8.0758   -7.1025 C   0  0  0  0  0  0  0  0  0  0  0  0
  -32.5061   -8.6051   -7.7008 C   0  0  0  0  0  0  0  0  0  0  0  0
  -32.8629   -9.9144   -7.6536 N   0  0  0  0  0  0  0  0  0  0  0  0
  -32.0793  -10.7553   -6.9581 C   0  0  0  0  0  0  0  0  0  0  0  0
  -30.9637  -10.2888   -6.2695 C   0  0  0  0  0  0  0  0  0  0  0  0
  -30.5680   -8.9510   -6.3736 C   0  0  0  0  0  0  0  0  0  0  0  0
  -32.3869  -12.1169   -6.8207 N   0  0  0  0  0  0  0  0  0  0  0  0
  -33.7565  -12.4658   -6.4889 C   0  0  0  0  0  0  0  0  0  0  0  0
  -32.0698  -12.6258   -7.6410 H   0  0  0  0  0  0  0  0  0  0  0  0
  -28.4895   -9.4034   -3.6746 C   0  0  0  0  0  0  0  0  0  0  0  0
  -28.4004   -9.4039   -5.1967 C   0  0  0  0  0  0  0  0  0  0  0  0
  -27.0400   -2.9616   -9.0990 N   0  0  0  0  0  0  0  0  0  0  0  0
  -27.2718   -2.1134  -10.1592 C   0  0  0  0  0  0  0  0  0  0  0  0
  -28.2903   -1.4617  -10.3283 O   0  0  0  0  0  0  0  0  0  0  0  0
  -26.2250   -2.0363  -11.0427 N   0  0  0  0  0  0  0  0  0  0  0  0
  -26.0924   -3.2555   -8.9174 H   0  0  0  0  0  0  0  0  0  0  0  0
  -25.4534   -2.6843  -10.9794 H   0  0  0  0  0  0  0  0  0  0  0  0
  -26.4031   -1.2659  -12.2633 C   0  0  0  0  0  0  0  0  0  0  0  0
  -25.2321   -1.4507  -13.2411 C   0  0  0  0  0  0  0  0  0  0  0  0
  -23.8957   -0.8017  -12.7831 C   0  0  0  0  0  0  0  0  0  0  0  0
  -23.0882   -1.7615  -11.8907 C   0  0  0  0  0  0  0  0  0  0  0  0
  -23.0409   -0.4694  -14.0225 C   0  0  0  0  0  0  0  0  0  0  0  0
  -24.1633    0.5030  -12.0167 C   0  0  0  0  0  0  0  0  0  0  0  0
 23 24  1  0  0  0
 24  9  1  0  0  0
  9 10  1  0  0  0
  9 19  1  0  0  0
 10 11  2  0  0  0
 10 12  1  0  0  0
 12  1  1  0  0  0
 12 13  2  0  0  0
  1  2  1  0  0  0
  1  7  2  0  0  0
  2  3  2  0  0  0
  3 25  1  0  0  0
  3  4  1  0  0  0
 25 26  1  0  0  0
 25 29  1  0  0  0
 26 27  2  0  0  0
 26 28  1  0  0  0
 28 31  1  0  0  0
 28 30  1  0  0  0
 31 32  1  0  0  0
 32 33  1  0  0  0
 33 34  1  0  0  0
 33 35  1  0  0  0
 33 36  1  0  0  0
  4  5  1  0  0  0
  4  6  2  0  0  0
  6  7  1  0  0  0
  7  8  1  0  0  0
 13 14  1  0  0  0
 14 15  1  0  0  0
 14 19  2  0  0  0
 15 16  2  0  0  0
 16 17  1  0  0  0
 17 20  1  0  0  0
 17 18  2  0  0  0
 20 21  1  0  0  0
 20 22  1  0  0  0
 18 19  1  0  0  0
M  END
> <minimizedAffinity>
-9.99023

$$$$
