CHEMBL2430198


 35 39  0  0  0  0  0  0  0  0999 V2000
  -12.9842   -0.4565  -15.9340 C   0  0  0  0  0  0  0  0  0  0  0  0
  -13.6900   -1.2603  -14.8981 C   0  0  0  0  0  0  0  0  0  0  0  0
  -13.3394   -2.5913  -14.7068 N   0  0  0  0  0  0  0  0  0  0  0  0
  -14.0973   -3.1481  -13.7133 C   0  0  0  0  0  0  0  0  0  0  0  0
  -14.9453   -2.1605  -13.2637 C   0  0  0  0  0  0  0  0  0  0  0  0
  -14.7102   -0.9515  -14.0009 C   0  0  0  0  0  0  0  0  0  0  0  0
  -15.9450   -2.3398  -12.1807 C   0  0  0  0  0  0  0  0  0  0  0  0
  -15.9914   -3.7225  -11.5593 C   0  0  0  0  0  0  0  0  0  0  0  0
  -15.0422   -4.7990  -12.0909 C   0  0  0  0  0  0  0  0  0  0  0  0
  -14.0480   -4.4917  -13.2129 C   0  0  0  0  0  0  0  0  0  0  0  0
  -13.2277   -5.4971  -13.6263 C   0  0  0  0  0  0  0  0  0  0  0  0
  -12.1554   -5.4758  -14.7064 C   0  0  0  0  0  0  0  0  0  0  0  0
  -11.8077   -4.5545  -15.4211 O   0  0  0  0  0  0  0  0  0  0  0  0
  -11.6158   -6.7519  -14.7346 N   0  0  0  0  0  0  0  0  0  0  0  0
  -12.2124   -7.5873  -13.8030 C   0  0  0  0  0  0  0  0  0  0  0  0
  -11.8993   -8.9216  -13.5810 C   0  0  0  0  0  0  0  0  0  0  0  0
  -12.6127   -9.6036  -12.5944 C   0  0  0  0  0  0  0  0  0  0  0  0
  -13.5993   -8.9381  -11.8722 C   0  0  0  0  0  0  0  0  0  0  0  0
  -14.2834   -9.5953  -10.9258 F   0  0  0  0  0  0  0  0  0  0  0  0
  -13.8984   -7.5990  -12.1100 C   0  0  0  0  0  0  0  0  0  0  0  0
  -13.1993   -6.9012  -13.0896 C   0  0  0  0  0  0  0  0  0  0  0  0
  -12.6162   -3.0758  -15.2337 H   0  0  0  0  0  0  0  0  0  0  0  0
  -10.8761   -7.0134  -15.3694 H   0  0  0  0  0  0  0  0  0  0  0  0
  -15.4597    0.2944  -13.7590 C   0  0  0  0  0  0  0  0  0  0  0  0
  -15.1853    1.0470  -12.8240 O   0  0  0  0  0  0  0  0  0  0  0  0
  -16.4849    0.6068  -14.6186 N   0  0  0  0  0  0  0  0  0  0  0  0
  -16.7425   -0.0337  -15.3475 H   0  0  0  0  0  0  0  0  0  0  0  0
  -17.2671    1.8052  -14.3889 C   0  0  0  0  0  0  0  0  0  0  0  0
  -18.2734    2.0700  -15.4983 C   0  0  0  0  0  0  0  0  0  0  0  0
  -19.6715    2.0319  -14.9456 C   0  0  0  0  0  0  0  0  0  0  0  0
  -20.3469    0.8216  -14.8085 C   0  0  0  0  0  0  0  0  0  0  0  0
  -21.6666    0.8374  -14.3676 C   0  0  0  0  0  0  0  0  0  0  0  0
  -22.2741    2.0533  -14.0802 C   0  0  0  0  0  0  0  0  0  0  0  0
  -21.5303    3.2095  -14.2403 C   0  0  0  0  0  0  0  0  0  0  0  0
  -20.2483    3.2247  -14.6648 N   0  0  0  0  0  0  0  0  0  0  0  0
  1  2  1  0  0  0
  2  3  1  0  0  0
  2  6  2  0  0  0
  3  4  1  0  0  0
  3 22  1  0  0  0
  4  5  2  0  0  0
  4 10  1  0  0  0
  5  6  1  0  0  0
  5  7  1  0  0  0
  6 24  1  0  0  0
 24 25  2  0  0  0
 24 26  1  0  0  0
 26 28  1  0  0  0
 26 27  1  0  0  0
 28 29  1  0  0  0
 29 30  1  0  0  0
 30 31  1  0  0  0
 30 35  2  0  0  0
 31 32  2  0  0  0
 32 33  1  0  0  0
 33 34  2  0  0  0
 34 35  1  0  0  0
  7  8  1  0  0  0
  8  9  1  0  0  0
  9 10  1  0  0  0
 10 11  2  0  0  0
 11 12  1  0  0  0
 11 21  1  0  0  0
 12 13  2  0  0  0
 12 14  1  0  0  0
 14 15  1  0  0  0
 14 23  1  0  0  0
 15 16  1  0  0  0
 15 21  2  0  0  0
 16 17  2  0  0  0
 17 18  1  0  0  0
 18 19  1  0  0  0
 18 20  2  0  0  0
 20 21  1  0  0  0
M  END
> <minimizedAffinity>
-8.71780

$$$$
