CHEMBL485556


 38 41  0  0  0  0  0  0  0  0999 V2000
  -30.1523   -4.7793   -4.5678 C   0  0  0  0  0  0  0  0  0  0  0  0
  -29.6560   -6.0686   -4.7833 C   0  0  0  0  0  0  0  0  0  0  0  0
  -28.9148   -6.3739   -5.9324 C   0  0  0  0  0  0  0  0  0  0  0  0
  -28.6818   -5.3372   -6.8501 C   0  0  0  0  0  0  0  0  0  0  0  0
  -29.1527   -4.0457   -6.6457 C   0  0  0  0  0  0  0  0  0  0  0  0
  -29.9013   -3.7529   -5.4903 C   0  0  0  0  0  0  0  0  0  0  0  0
  -28.7866   -3.2301   -7.6861 N   0  0  0  0  0  0  0  0  0  0  0  0
  -28.1268   -3.9736   -8.5479 C   0  0  0  0  0  0  0  0  0  0  0  0
  -28.0338   -5.2738   -8.0726 N   0  0  0  0  0  0  0  0  0  0  0  0
  -32.0054   -5.4811   -3.1524 C   0  0  0  0  0  0  0  0  0  0  0  0
  -30.9434   -4.5150   -3.4198 N   0  0  0  0  0  0  0  0  0  0  0  0
  -30.9732   -3.2663   -2.7922 C   0  0  0  0  0  0  0  0  0  0  0  0
  -31.8303   -2.9686   -1.9533 O   0  0  0  0  0  0  0  0  0  0  0  0
  -29.8297   -2.2937   -3.1178 C   0  0  0  0  0  0  0  0  0  0  0  0
  -30.1622   -1.5053   -4.3914 C   0  0  0  0  0  0  0  0  0  0  0  0
  -29.0625   -0.4960   -4.7108 C   0  0  0  0  0  0  0  0  0  0  0  0
  -27.6994   -1.1732   -4.8252 C   0  0  0  0  0  0  0  0  0  0  0  0
  -27.3744   -2.0058   -3.5868 C   0  0  0  0  0  0  0  0  0  0  0  0
  -28.4841   -3.0124   -3.2792 C   0  0  0  0  0  0  0  0  0  0  0  0
  -27.6035   -3.5707   -9.7677 N   0  0  0  0  0  0  0  0  0  0  0  0
  -27.0336   -2.3172   -9.9466 C   0  0  0  0  0  0  0  0  0  0  0  0
  -26.8564   -1.4628   -9.0861 O   0  0  0  0  0  0  0  0  0  0  0  0
  -27.5528   -4.2431  -10.5127 H   0  0  0  0  0  0  0  0  0  0  0  0
  -26.4987   -2.0222  -11.3233 C   0  0  0  0  0  0  0  0  0  0  0  0
  -25.1395   -1.8046  -11.5871 C   0  0  0  0  0  0  0  0  0  0  0  0
  -24.7051   -1.5310  -12.8965 C   0  0  0  0  0  0  0  0  0  0  0  0
  -25.6166   -1.4828  -13.9589 C   0  0  0  0  0  0  0  0  0  0  0  0
  -26.9694   -1.7289  -13.7060 C   0  0  0  0  0  0  0  0  0  0  0  0
  -27.4030   -1.9953  -12.3969 C   0  0  0  0  0  0  0  0  0  0  0  0
  -25.1688   -1.1796  -15.2932 C   0  0  0  0  0  0  0  0  0  0  0  0
  -24.8147   -0.9195  -16.3657 N   0  0  0  0  0  0  0  0  0  0  0  0
  -27.4661   -6.4247   -8.7524 C   0  0  0  0  0  0  0  0  0  0  0  0
  -28.2939   -7.7092   -8.7115 C   0  0  0  0  0  0  0  0  0  0  0  0
  -27.3985   -8.8838   -9.0444 C   0  0  0  0  0  0  0  0  0  0  0  0
  -26.7020   -9.4044   -7.9984 N   0  0  0  0  0  0  0  0  0  0  0  0
  -27.2671   -9.3437  -10.1724 O   0  0  0  0  0  0  0  0  0  0  0  0
  -26.8314   -9.1245   -7.0366 H   0  0  0  0  0  0  0  0  0  0  0  0
  -26.1170  -10.2126   -8.1847 H   0  0  0  0  0  0  0  0  0  0  0  0
 10 11  1  0  0  0
 11 12  1  0  0  0
 11  1  1  0  0  0
 12 13  2  0  0  0
 12 14  1  0  0  0
 14 15  1  0  0  0
 14 19  1  0  0  0
 15 16  1  0  0  0
 16 17  1  0  0  0
 17 18  1  0  0  0
 18 19  1  0  0  0
  1  2  1  0  0  0
  1  6  2  0  0  0
  2  3  2  0  0  0
  3  4  1  0  0  0
  4  5  2  0  0  0
  4  9  1  0  0  0
  5  6  1  0  0  0
  5  7  1  0  0  0
  7  8  2  0  0  0
  8 20  1  0  0  0
  8  9  1  0  0  0
 20 21  1  0  0  0
 20 23  1  0  0  0
 21 22  2  0  0  0
 21 24  1  0  0  0
 24 25  1  0  0  0
 24 29  2  0  0  0
 25 26  2  0  0  0
 26 27  1  0  0  0
 27 30  1  0  0  0
 27 28  2  0  0  0
 30 31  3  0  0  0
 28 29  1  0  0  0
  9 32  1  0  0  0
 32 33  1  0  0  0
 33 34  1  0  0  0
 34 35  1  0  0  0
 34 36  2  0  0  0
 35 37  1  0  0  0
 35 38  1  0  0  0
M  END
> <minimizedAffinity>
-3.35273

$$$$
