CHEMBL118386


 29 33  0  0  0  0  0  0  0  0999 V2000
  -15.5139    4.4721  -16.3205 C   0  0  0  0  0  0  0  0  0  0  0  0
  -14.5823    3.5003  -16.6910 C   0  0  0  0  0  0  0  0  0  0  0  0
  -14.9271    2.1455  -16.6585 C   0  0  0  0  0  0  0  0  0  0  0  0
  -16.2248    1.7726  -16.3192 C   0  0  0  0  0  0  0  0  0  0  0  0
  -17.1564    2.7420  -15.9321 C   0  0  0  0  0  0  0  0  0  0  0  0
  -16.7974    4.0933  -15.9306 C   0  0  0  0  0  0  0  0  0  0  0  0
  -18.4708    2.3208  -15.4690 C   0  0  0  0  0  0  0  0  0  0  0  0
  -18.8215    0.8916  -15.2357 C   0  0  0  0  0  0  0  0  0  0  0  0
  -19.9513    0.4458  -14.7688 N   0  0  0  0  0  0  0  0  0  0  0  0
  -20.8935    1.3961  -14.4617 C   0  0  0  0  0  0  0  0  0  0  0  0
  -22.1617    1.3153  -13.9207 C   0  0  0  0  0  0  0  0  0  0  0  0
  -22.6094    2.6482  -13.8478 C   0  0  0  0  0  0  0  0  0  0  0  0
  -21.7110    3.5271  -14.2992 N   0  0  0  0  0  0  0  0  0  0  0  0
  -20.6531    2.7618  -14.6633 N   0  0  0  0  0  0  0  0  0  0  0  0
  -19.4352    3.2018  -15.1647 C   0  0  0  0  0  0  0  0  0  0  0  0
  -22.9006    0.1229  -13.4892 C   0  0  0  0  0  0  0  0  0  0  0  0
  -23.9689   -0.4536  -14.2367 C   0  0  0  0  0  0  0  0  0  0  0  0
  -24.4988   -1.5655  -13.6112 C   0  0  0  0  0  0  0  0  0  0  0  0
  -23.7171   -1.9076  -12.1308 S   0  0  0  0  0  0  0  0  0  0  0  0
  -22.6657   -0.5717  -12.3202 C   0  0  0  0  0  0  0  0  0  0  0  0
  -14.0657    1.1064  -16.9095 O   0  0  0  0  0  0  0  0  0  0  0  0
  -13.0030    1.0029  -15.9555 C   0  0  0  0  0  0  0  0  0  0  0  0
  -12.9350   -0.4143  -15.3612 C   0  0  0  0  0  0  0  0  0  0  0  0
  -13.1499   -0.4497  -13.9081 N   0  0  0  0  0  0  0  0  0  0  0  0
  -13.5577   -1.7805  -13.4185 C   0  0  0  0  0  0  0  0  0  0  0  0
  -15.0767   -2.0064  -13.3629 C   0  0  0  0  0  0  0  0  0  0  0  0
  -15.7100   -0.9969  -12.5718 O   0  0  0  0  0  0  0  0  0  0  0  0
  -15.4980    0.2842  -13.1674 C   0  0  0  0  0  0  0  0  0  0  0  0
  -14.0028    0.6041  -13.3265 C   0  0  0  0  0  0  0  0  0  0  0  0
  1  2  1  0  0  0
  1  6  2  0  0  0
  2  3  2  0  0  0
  3 21  1  0  0  0
  3  4  1  0  0  0
 21 22  1  0  0  0
 22 23  1  0  0  0
 23 24  1  0  0  0
 24 25  1  0  0  0
 24 29  1  0  0  0
 25 26  1  0  0  0
 26 27  1  0  0  0
 27 28  1  0  0  0
 28 29  1  0  0  0
  4  5  2  0  0  0
  5  7  1  0  0  0
  5  6  1  0  0  0
  7  8  1  0  0  0
  7 15  2  0  0  0
  8  9  2  0  0  0
  9 10  1  0  0  0
 10 11  2  0  0  0
 10 14  1  0  0  0
 11 16  1  0  0  0
 11 12  1  0  0  0
 16 17  1  0  0  0
 16 20  2  0  0  0
 17 18  2  0  0  0
 18 19  1  0  0  0
 19 20  1  0  0  0
 12 13  2  0  0  0
 13 14  1  0  0  0
 14 15  1  0  0  0
M  END
> <minimizedAffinity>
-8.67261

$$$$
