CHEMBL3943080


 35 39  0  0  0  0  0  0  0  0999 V2000
  -27.9788   -2.0355   -8.4813 N   0  0  0  0  0  0  0  0  0  0  0  0
  -27.5123   -1.4981   -9.7401 C   0  0  0  0  0  0  0  0  0  0  0  0
  -28.3426   -1.7636  -10.8270 C   0  0  0  0  0  0  0  0  0  0  0  0
  -27.8080   -1.8686  -12.0970 C   0  0  0  0  0  0  0  0  0  0  0  0
  -26.5018   -1.5483  -12.3584 C   0  0  0  0  0  0  0  0  0  0  0  0
  -26.0816   -1.8915  -13.5807 N   0  0  0  0  0  0  0  0  0  0  0  0
  -24.8755   -1.4500  -13.9437 C   0  0  0  0  0  0  0  0  0  0  0  0
  -24.1348   -0.6174  -13.1302 C   0  0  0  0  0  0  0  0  0  0  0  0
  -24.5126   -0.3739  -11.8147 N   0  0  0  0  0  0  0  0  0  0  0  0
  -25.6974   -0.9226  -11.3781 C   0  0  0  0  0  0  0  0  0  0  0  0
  -26.2260   -0.9676  -10.0284 C   0  0  0  0  0  0  0  0  0  0  0  0
  -23.0766    0.1383  -13.7889 C   0  0  0  0  0  0  0  0  0  0  0  0
  -21.8420   -0.3264  -14.3175 C   0  0  0  0  0  0  0  0  0  0  0  0
  -20.9988    0.6670  -14.6313 N   0  0  0  0  0  0  0  0  0  0  0  0
  -21.6874    1.7727  -14.3032 N   0  0  0  0  0  0  0  0  0  0  0  0
  -21.2448    3.0707  -14.7572 C   0  0  0  0  0  0  0  0  0  0  0  0
  -22.8550    1.4983  -13.6404 C   0  0  0  0  0  0  0  0  0  0  0  0
  -28.8780    0.3917   -5.7609 C   0  0  0  0  0  0  0  0  0  0  0  0
  -28.5608   -0.3390   -4.6160 C   0  0  0  0  0  0  0  0  0  0  0  0
  -27.9762   -1.5929   -4.7442 C   0  0  0  0  0  0  0  0  0  0  0  0
  -27.7217   -2.1176   -6.0176 C   0  0  0  0  0  0  0  0  0  0  0  0
  -28.0325   -1.4256   -7.1998 C   0  0  0  0  0  0  0  0  0  0  0  0
  -28.5884   -0.1409   -7.0397 C   0  0  0  0  0  0  0  0  0  0  0  0
  -30.8242    1.6786   -6.2899 C   0  0  0  0  0  0  0  0  0  0  0  0
  -29.5052    1.6147   -5.7400 O   0  0  0  0  0  0  0  0  0  0  0  0
  -27.6438   -2.4258   -3.7091 O   0  0  0  0  0  0  0  0  0  0  0  0
  -28.7136   -2.9937   -2.9623 C   0  0  0  0  0  0  0  0  0  0  0  0
  -27.7058   -3.5286   -8.4981 C   0  0  0  0  0  0  0  0  0  0  0  0
  -28.9031   -4.4641   -8.2136 C   0  0  0  0  0  0  0  0  0  0  0  0
  -28.6893   -5.4834   -7.1897 N   0  0  0  0  0  0  0  0  0  0  0  0
  -28.7895   -5.1933   -5.7846 C   0  0  0  0  0  0  0  0  0  0  0  0
  -28.2611   -6.4549   -5.1263 C   0  0  0  0  0  0  0  0  0  0  0  0
  -28.6308   -7.5632   -6.1050 C   0  0  0  0  0  0  0  0  0  0  0  0
  -28.6407   -6.8484   -7.4378 C   0  0  0  0  0  0  0  0  0  0  0  0
  -28.6631   -7.3910   -8.5303 O   0  0  0  0  0  0  0  0  0  0  0  0
 24 25  1  0  0  0
 25 18  1  0  0  0
 18 19  1  0  0  0
 18 23  2  0  0  0
 19 20  2  0  0  0
 20 26  1  0  0  0
 20 21  1  0  0  0
 26 27  1  0  0  0
 21 22  2  0  0  0
 22  1  1  0  0  0
 22 23  1  0  0  0
  1 28  1  0  0  0
  1  2  1  0  0  0
 28 29  1  0  0  0
 29 30  1  0  0  0
 30 31  1  0  0  0
 30 34  1  0  0  0
 31 32  1  0  0  0
 32 33  1  0  0  0
 33 34  1  0  0  0
 34 35  2  0  0  0
  2  3  1  0  0  0
  2 11  2  0  0  0
  3  4  2  0  0  0
  4  5  1  0  0  0
  5  6  1  0  0  0
  5 10  2  0  0  0
  6  7  2  0  0  0
  7  8  1  0  0  0
  8 12  1  0  0  0
  8  9  2  0  0  0
 12 13  1  0  0  0
 12 17  2  0  0  0
 13 14  2  0  0  0
 14 15  1  0  0  0
 15 16  1  0  0  0
 15 17  1  0  0  0
  9 10  1  0  0  0
 10 11  1  0  0  0
M  END
> <minimizedAffinity>
-8.44265

$$$$
