CHEMBL3690530


 39 42  0  0  0  0  0  0  0  0999 V2000
  -28.9799   -4.7362   -6.2713 C   0  0  0  0  0  0  0  0  0  0  0  0
  -28.7508   -5.4149   -7.5561 C   0  0  0  0  0  0  0  0  0  0  0  0
  -28.7460   -6.7553   -7.6273 C   0  0  0  0  0  0  0  0  0  0  0  0
  -28.9139   -7.5180   -6.4698 N   0  0  0  0  0  0  0  0  0  0  0  0
  -28.8625   -8.8985   -6.2569 C   0  0  0  0  0  0  0  0  0  0  0  0
  -29.1995   -9.0353   -4.9190 C   0  0  0  0  0  0  0  0  0  0  0  0
  -29.3779   -7.8243   -4.3008 N   0  0  0  0  0  0  0  0  0  0  0  0
  -29.1690   -6.9245   -5.2343 C   0  0  0  0  0  0  0  0  0  0  0  0
  -29.1848   -5.4966   -5.1671 C   0  0  0  0  0  0  0  0  0  0  0  0
  -27.4481   -0.4916   -7.6951 N   0  0  0  0  0  0  0  0  0  0  0  0
  -28.3096   -1.1740   -6.8498 C   0  0  0  0  0  0  0  0  0  0  0  0
  -28.3162   -2.5065   -7.0241 N   0  0  0  0  0  0  0  0  0  0  0  0
  -29.0494   -3.2492   -6.1751 C   0  0  0  0  0  0  0  0  0  0  0  0
  -29.7972   -2.7330   -5.1845 N   0  0  0  0  0  0  0  0  0  0  0  0
  -29.7601   -1.3959   -5.0436 C   0  0  0  0  0  0  0  0  0  0  0  0
  -29.0167   -0.5557   -5.8456 C   0  0  0  0  0  0  0  0  0  0  0  0
  -27.0896   -1.1350   -8.3973 H   0  0  0  0  0  0  0  0  0  0  0  0
  -27.8183    0.3626   -8.0992 H   0  0  0  0  0  0  0  0  0  0  0  0
  -29.0250    0.9036   -5.5739 C   0  0  0  0  0  0  0  0  0  0  0  0
  -28.8114    1.7008   -6.6572 F   0  0  0  0  0  0  0  0  0  0  0  0
  -30.2218    1.3153   -5.0622 F   0  0  0  0  0  0  0  0  0  0  0  0
  -28.0936    1.2685   -4.6489 F   0  0  0  0  0  0  0  0  0  0  0  0
  -28.4660   -9.9271   -7.2389 C   0  0  0  0  0  0  0  0  0  0  0  0
  -29.4487  -10.5677   -8.0046 C   0  0  0  0  0  0  0  0  0  0  0  0
  -29.1154  -11.5678   -8.9081 C   0  0  0  0  0  0  0  0  0  0  0  0
  -27.7816  -11.8872   -9.1265 C   0  0  0  0  0  0  0  0  0  0  0  0
  -26.7592  -11.2079   -8.4608 C   0  0  0  0  0  0  0  0  0  0  0  0
  -27.1140  -10.2474   -7.4906 C   0  0  0  0  0  0  0  0  0  0  0  0
  -25.3870  -11.4495   -8.7419 N   0  0  0  0  0  0  0  0  0  0  0  0
  -24.4043  -11.7153   -7.8079 C   0  0  0  0  0  0  0  0  0  0  0  0
  -24.5378  -11.7957   -6.5933 O   0  0  0  0  0  0  0  0  0  0  0  0
  -23.1537  -11.8497   -8.3702 N   0  0  0  0  0  0  0  0  0  0  0  0
  -25.1132  -11.4518   -9.7129 H   0  0  0  0  0  0  0  0  0  0  0  0
  -23.1118  -12.2545   -9.2943 H   0  0  0  0  0  0  0  0  0  0  0  0
  -22.0237  -12.1278   -7.4689 C   0  0  0  0  0  0  0  0  0  0  0  0
  -21.3886  -10.9116   -6.7759 C   0  0  0  0  0  0  0  0  0  0  0  0
  -22.2255   -9.8492   -6.7447 F   0  0  0  0  0  0  0  0  0  0  0  0
  -21.1015  -11.2191   -5.4848 F   0  0  0  0  0  0  0  0  0  0  0  0
  -20.2352  -10.5258   -7.3590 F   0  0  0  0  0  0  0  0  0  0  0  0
 10 11  1  0  0  0
 10 17  1  0  0  0
 10 18  1  0  0  0
 11 12  1  0  0  0
 11 16  2  0  0  0
 12 13  2  0  0  0
 13  1  1  0  0  0
 13 14  1  0  0  0
  1  2  1  0  0  0
  1  9  2  0  0  0
  2  3  2  0  0  0
  3  4  1  0  0  0
  4  5  1  0  0  0
  4  8  1  0  0  0
  5 23  1  0  0  0
  5  6  2  0  0  0
 23 24  1  0  0  0
 23 28  2  0  0  0
 24 25  2  0  0  0
 25 26  1  0  0  0
 26 27  2  0  0  0
 27 29  1  0  0  0
 27 28  1  0  0  0
 29 30  1  0  0  0
 29 33  1  0  0  0
 30 31  2  0  0  0
 30 32  1  0  0  0
 32 35  1  0  0  0
 32 34  1  0  0  0
 35 36  1  0  0  0
 36 37  1  0  0  0
 36 38  1  0  0  0
 36 39  1  0  0  0
  6  7  1  0  0  0
  7  8  2  0  0  0
  8  9  1  0  0  0
 14 15  2  0  0  0
 15 16  1  0  0  0
 16 19  1  0  0  0
 19 20  1  0  0  0
 19 21  1  0  0  0
 19 22  1  0  0  0
M  END
> <minimizedAffinity>
-9.46237

$$$$
