CHEMBL3931691


 36 39  0  0  0  0  0  0  0  0999 V2000
  -26.9784   -1.6985  -10.1331 C   0  0  0  0  0  0  0  0  0  0  0  0
  -27.7266   -1.1087  -10.9085 O   0  0  0  0  0  0  0  0  0  0  0  0
  -25.6258   -1.9519  -10.3244 N   0  0  0  0  0  0  0  0  0  0  0  0
  -25.1914   -2.5529   -9.6303 H   0  0  0  0  0  0  0  0  0  0  0  0
  -28.5473   -4.0100   -7.6909 C   0  0  0  0  0  0  0  0  0  0  0  0
  -28.0154   -3.5419   -8.8720 C   0  0  0  0  0  0  0  0  0  0  0  0
  -27.5575   -2.2406   -8.8706 C   0  0  0  0  0  0  0  0  0  0  0  0
  -27.6006   -1.4161   -7.8004 N   0  0  0  0  0  0  0  0  0  0  0  0
  -28.1513   -1.9636   -6.7100 C   0  0  0  0  0  0  0  0  0  0  0  0
  -28.6293   -3.2147   -6.6008 N   0  0  0  0  0  0  0  0  0  0  0  0
  -30.2295   -7.9780   -7.4535 C   0  0  0  0  0  0  0  0  0  0  0  0
  -29.0108   -7.7655   -8.1026 C   0  0  0  0  0  0  0  0  0  0  0  0
  -28.4500   -6.4861   -8.1545 C   0  0  0  0  0  0  0  0  0  0  0  0
  -29.0877   -5.3786   -7.5634 C   0  0  0  0  0  0  0  0  0  0  0  0
  -30.2837   -5.6214   -6.8682 C   0  0  0  0  0  0  0  0  0  0  0  0
  -30.8475   -6.9012   -6.8117 C   0  0  0  0  0  0  0  0  0  0  0  0
  -32.3710   -9.2845   -7.5653 C   0  0  0  0  0  0  0  0  0  0  0  0
  -30.8576   -9.3469   -7.4426 C   0  0  0  0  0  0  0  0  0  0  0  0
  -24.8656   -1.5426  -11.4407 C   0  0  0  0  0  0  0  0  0  0  0  0
  -25.4374   -1.3457  -12.6975 C   0  0  0  0  0  0  0  0  0  0  0  0
  -24.6563   -0.9904  -13.7958 C   0  0  0  0  0  0  0  0  0  0  0  0
  -23.2941   -0.7362  -13.6421 C   0  0  0  0  0  0  0  0  0  0  0  0
  -22.7059   -0.9413  -12.3917 C   0  0  0  0  0  0  0  0  0  0  0  0
  -23.4903   -1.3346  -11.2916 C   0  0  0  0  0  0  0  0  0  0  0  0
  -22.4779   -0.3126  -14.6736 O   0  0  0  0  0  0  0  0  0  0  0  0
  -21.8421    0.9113  -14.5628 C   0  0  0  0  0  0  0  0  0  0  0  0
  -22.4609    2.0491  -14.0443 C   0  0  0  0  0  0  0  0  0  0  0  0
  -21.7702    3.2470  -14.0662 C   0  0  0  0  0  0  0  0  0  0  0  0
  -20.4974    3.3697  -14.4897 N   0  0  0  0  0  0  0  0  0  0  0  0
  -19.8858    2.2241  -14.9103 C   0  0  0  0  0  0  0  0  0  0  0  0
  -20.5126    0.9845  -14.9652 C   0  0  0  0  0  0  0  0  0  0  0  0
  -18.4488    2.3710  -15.3308 C   0  0  0  0  0  0  0  0  0  0  0  0
  -17.7416    1.3835  -15.5258 O   0  0  0  0  0  0  0  0  0  0  0  0
  -18.0210    3.6703  -15.4702 N   0  0  0  0  0  0  0  0  0  0  0  0
  -16.6841    4.0322  -15.8756 C   0  0  0  0  0  0  0  0  0  0  0  0
  -18.7098    4.3938  -15.2841 H   0  0  0  0  0  0  0  0  0  0  0  0
 17 18  1  0  0  0
 18 11  1  0  0  0
 11 12  1  0  0  0
 11 16  2  0  0  0
 12 13  2  0  0  0
 13 14  1  0  0  0
 14  5  1  0  0  0
 14 15  2  0  0  0
  5  6  1  0  0  0
  5 10  2  0  0  0
  6  7  2  0  0  0
  7  1  1  0  0  0
  7  8  1  0  0  0
  1  2  2  0  0  0
  1  3  1  0  0  0
  3 19  1  0  0  0
  3  4  1  0  0  0
 19 20  1  0  0  0
 19 24  2  0  0  0
 20 21  2  0  0  0
 21 22  1  0  0  0
 22 25  1  0  0  0
 22 23  2  0  0  0
 25 26  1  0  0  0
 26 27  1  0  0  0
 26 31  2  0  0  0
 27 28  2  0  0  0
 28 29  1  0  0  0
 29 30  2  0  0  0
 30 32  1  0  0  0
 30 31  1  0  0  0
 32 33  2  0  0  0
 32 34  1  0  0  0
 34 35  1  0  0  0
 34 36  1  0  0  0
 23 24  1  0  0  0
  8  9  2  0  0  0
  9 10  1  0  0  0
 15 16  1  0  0  0
M  END
> <minimizedAffinity>
-11.02198

$$$$
