CHEMBL3628802


 22 25  0  0  0  0  0  0  0  0999 V2000
  -30.0794   -6.1748   -6.0620 C   0  0  0  0  0  0  0  0  0  0  0  0
  -30.3915   -7.0436   -5.0692 N   0  0  0  0  0  0  0  0  0  0  0  0
  -30.0822   -6.7096   -3.8122 C   0  0  0  0  0  0  0  0  0  0  0  0
  -29.4544   -5.6095   -3.4025 N   0  0  0  0  0  0  0  0  0  0  0  0
  -29.1202   -4.7947   -4.4170 C   0  0  0  0  0  0  0  0  0  0  0  0
  -28.2721   -3.3522   -4.1054 S   0  0  0  0  0  0  0  0  0  0  0  0
  -28.2545   -2.9413   -5.7530 C   0  0  0  0  0  0  0  0  0  0  0  0
  -28.8979   -3.8761   -6.5460 C   0  0  0  0  0  0  0  0  0  0  0  0
  -29.3919   -4.9867   -5.7658 C   0  0  0  0  0  0  0  0  0  0  0  0
  -29.0440   -3.6656   -8.0290 C   0  0  0  0  0  0  0  0  0  0  0  0
  -28.0620   -2.6052   -8.5598 C   0  0  0  0  0  0  0  0  0  0  0  0
  -28.0224   -1.3600   -7.6631 C   0  0  0  0  0  0  0  0  0  0  0  0
  -27.5662   -1.7048   -6.2397 C   0  0  0  0  0  0  0  0  0  0  0  0
  -30.4161   -6.4974   -7.3777 O   0  0  0  0  0  0  0  0  0  0  0  0
  -28.0388  -10.9232   -9.6294 F   0  0  0  0  0  0  0  0  0  0  0  0
  -28.6163   -9.8538   -9.0624 C   0  0  0  0  0  0  0  0  0  0  0  0
  -27.8651   -8.6935   -8.9129 C   0  0  0  0  0  0  0  0  0  0  0  0
  -28.4469   -7.5687   -8.3285 C   0  0  0  0  0  0  0  0  0  0  0  0
  -29.7927   -7.5923   -7.9380 C   0  0  0  0  0  0  0  0  0  0  0  0
  -30.5348   -8.7700   -8.0604 C   0  0  0  0  0  0  0  0  0  0  0  0
  -29.9420   -9.9011   -8.6268 C   0  0  0  0  0  0  0  0  0  0  0  0
  -30.8563  -11.3524   -8.7854 Cl  0  0  0  0  0  0  0  0  0  0  0  0
 15 16  1  0  0  0
 16 17  1  0  0  0
 16 21  2  0  0  0
 17 18  2  0  0  0
 18 19  1  0  0  0
 19 14  1  0  0  0
 19 20  2  0  0  0
 14  1  1  0  0  0
  1  2  1  0  0  0
  1  9  2  0  0  0
  2  3  2  0  0  0
  3  4  1  0  0  0
  4  5  2  0  0  0
  5  6  1  0  0  0
  5  9  1  0  0  0
  6  7  1  0  0  0
  7  8  2  0  0  0
  7 13  1  0  0  0
  8  9  1  0  0  0
  8 10  1  0  0  0
 10 11  1  0  0  0
 11 12  1  0  0  0
 12 13  1  0  0  0
 20 21  1  0  0  0
 21 22  1  0  0  0
M  END
> <minimizedAffinity>
-7.71609

$$$$
