CHEMBL66102


 32 36  0  0  0  0  0  0  0  0999 V2000
  -28.7301   -7.1625   -6.2837 C   0  0  0  0  0  0  0  0  0  0  0  0
  -28.6322   -7.6992   -7.5557 C   0  0  0  0  0  0  0  0  0  0  0  0
  -28.6092   -9.0690   -7.4627 N   0  0  0  0  0  0  0  0  0  0  0  0
  -28.7020   -9.4315   -6.1430 C   0  0  0  0  0  0  0  0  0  0  0  0
  -28.7156  -10.7014   -5.6965 N   0  0  0  0  0  0  0  0  0  0  0  0
  -28.8261  -10.7607   -4.3619 C   0  0  0  0  0  0  0  0  0  0  0  0
  -28.9361   -9.7419   -3.4957 N   0  0  0  0  0  0  0  0  0  0  0  0
  -28.9323   -8.4843   -3.9785 C   0  0  0  0  0  0  0  0  0  0  0  0
  -29.0923   -7.4859   -3.0242 N   0  0  0  0  0  0  0  0  0  0  0  0
  -28.7932   -8.2777   -5.3684 C   0  0  0  0  0  0  0  0  0  0  0  0
  -29.3856   -7.8945   -2.1442 H   0  0  0  0  0  0  0  0  0  0  0  0
  -29.6511   -6.7063   -3.3455 H   0  0  0  0  0  0  0  0  0  0  0  0
  -29.2632   -3.0649   -5.2399 C   0  0  0  0  0  0  0  0  0  0  0  0
  -30.0175   -3.6123   -6.2737 C   0  0  0  0  0  0  0  0  0  0  0  0
  -29.8288   -4.9504   -6.6393 C   0  0  0  0  0  0  0  0  0  0  0  0
  -28.8185   -5.7230   -6.0470 C   0  0  0  0  0  0  0  0  0  0  0  0
  -27.9332   -5.0863   -5.1741 C   0  0  0  0  0  0  0  0  0  0  0  0
  -28.1793   -3.7839   -4.7382 C   0  0  0  0  0  0  0  0  0  0  0  0
  -29.4580   -1.8335   -4.6649 O   0  0  0  0  0  0  0  0  0  0  0  0
  -28.4605   -0.3310   -6.3854 C   0  0  0  0  0  0  0  0  0  0  0  0
  -28.5814    0.8996   -7.0472 C   0  0  0  0  0  0  0  0  0  0  0  0
  -29.6482    1.7585   -6.7703 C   0  0  0  0  0  0  0  0  0  0  0  0
  -30.6150    1.3912   -5.8422 C   0  0  0  0  0  0  0  0  0  0  0  0
  -30.4937    0.1820   -5.1621 C   0  0  0  0  0  0  0  0  0  0  0  0
  -29.4081   -0.6708   -5.4036 C   0  0  0  0  0  0  0  0  0  0  0  0
  -27.4872   -1.6975   -8.0684 C   0  0  0  0  0  0  0  0  0  0  0  0
  -27.4939   -1.2481   -6.7155 O   0  0  0  0  0  0  0  0  0  0  0  0
  -28.4976   -9.9897   -8.5769 C   0  0  0  0  0  0  0  0  0  0  0  0
  -27.1871   -9.8643   -9.3584 C   0  0  0  0  0  0  0  0  0  0  0  0
  -27.4768  -10.4830  -10.7230 C   0  0  0  0  0  0  0  0  0  0  0  0
  -28.9971  -10.5636  -10.8541 C   0  0  0  0  0  0  0  0  0  0  0  0
  -29.5651   -9.8114   -9.6570 C   0  0  0  0  0  0  0  0  0  0  0  0
 26 27  1  0  0  0
 27 20  1  0  0  0
 20 21  1  0  0  0
 20 25  2  0  0  0
 21 22  2  0  0  0
 22 23  1  0  0  0
 23 24  2  0  0  0
 24 25  1  0  0  0
 25 19  1  0  0  0
 19 13  1  0  0  0
 13 14  1  0  0  0
 13 18  2  0  0  0
 14 15  2  0  0  0
 15 16  1  0  0  0
 16  1  1  0  0  0
 16 17  2  0  0  0
  1  2  2  0  0  0
  1 10  1  0  0  0
  2  3  1  0  0  0
  3 28  1  0  0  0
  3  4  1  0  0  0
 28 29  1  0  0  0
 28 32  1  0  0  0
 29 30  1  0  0  0
 30 31  1  0  0  0
 31 32  1  0  0  0
  4  5  1  0  0  0
  4 10  2  0  0  0
  5  6  2  0  0  0
  6  7  1  0  0  0
  7  8  2  0  0  0
  8  9  1  0  0  0
  8 10  1  0  0  0
  9 11  1  0  0  0
  9 12  1  0  0  0
 17 18  1  0  0  0
M  END
> <minimizedAffinity>
-8.84229

$$$$
