CHEMBL2096808


 40 43  0  0  0  0  0  0  0  0999 V2000
  -24.6599   -0.8633  -15.5981 C   0  0  0  0  0  0  0  0  0  0  0  0
  -24.4186   -0.3445  -14.2470 N   0  0  0  0  0  0  0  0  0  0  0  0
  -25.0846   -0.9616  -13.1766 C   0  0  0  0  0  0  0  0  0  0  0  0
  -24.5444   -0.9858  -11.8920 C   0  0  0  0  0  0  0  0  0  0  0  0
  -25.2287   -1.5793  -10.8301 C   0  0  0  0  0  0  0  0  0  0  0  0
  -26.4878   -2.1616  -11.0152 C   0  0  0  0  0  0  0  0  0  0  0  0
  -27.0386   -2.1515  -12.2967 C   0  0  0  0  0  0  0  0  0  0  0  0
  -26.3410   -1.5649  -13.3607 C   0  0  0  0  0  0  0  0  0  0  0  0
  -27.2147   -2.7756   -9.9692 N   0  0  0  0  0  0  0  0  0  0  0  0
  -27.5362   -2.1803   -8.7635 C   0  0  0  0  0  0  0  0  0  0  0  0
  -27.3161   -1.0101   -8.4746 O   0  0  0  0  0  0  0  0  0  0  0  0
  -28.1059   -3.0828   -7.8713 N   0  0  0  0  0  0  0  0  0  0  0  0
  -27.6310   -3.6764  -10.1576 H   0  0  0  0  0  0  0  0  0  0  0  0
  -27.7295   -4.0170   -7.9331 H   0  0  0  0  0  0  0  0  0  0  0  0
  -28.4532   -2.6359   -6.5734 C   0  0  0  0  0  0  0  0  0  0  0  0
  -27.5559   -1.8879   -5.8018 C   0  0  0  0  0  0  0  0  0  0  0  0
  -27.8611   -1.5625   -4.4814 C   0  0  0  0  0  0  0  0  0  0  0  0
  -29.0645   -1.9890   -3.9259 C   0  0  0  0  0  0  0  0  0  0  0  0
  -29.9755   -2.7085   -4.7014 C   0  0  0  0  0  0  0  0  0  0  0  0
  -29.6834   -3.0116   -6.0336 C   0  0  0  0  0  0  0  0  0  0  0  0
  -23.2939    0.5108  -14.1700 C   0  0  0  0  0  0  0  0  0  0  0  0
  -23.3875    1.7720  -13.6167 C   0  0  0  0  0  0  0  0  0  0  0  0
  -22.2425    2.5307  -13.5863 C   0  0  0  0  0  0  0  0  0  0  0  0
  -21.0615    2.1066  -14.0683 N   0  0  0  0  0  0  0  0  0  0  0  0
  -21.0445    0.8807  -14.5979 C   0  0  0  0  0  0  0  0  0  0  0  0
  -22.1135    0.0703  -14.6373 N   0  0  0  0  0  0  0  0  0  0  0  0
  -19.8329    0.4353  -15.1356 N   0  0  0  0  0  0  0  0  0  0  0  0
  -19.7260   -0.5526  -14.9453 H   0  0  0  0  0  0  0  0  0  0  0  0
  -18.6333    1.1618  -15.2112 C   0  0  0  0  0  0  0  0  0  0  0  0
  -18.5279    2.3654  -15.9285 C   0  0  0  0  0  0  0  0  0  0  0  0
  -17.3134    3.0427  -16.0442 C   0  0  0  0  0  0  0  0  0  0  0  0
  -16.1744    2.5246  -15.4398 C   0  0  0  0  0  0  0  0  0  0  0  0
  -16.2725    1.3413  -14.7066 C   0  0  0  0  0  0  0  0  0  0  0  0
  -17.4942    0.6710  -14.5660 C   0  0  0  0  0  0  0  0  0  0  0  0
  -14.8221    0.6841  -13.9280 S   0  0  0  0  0  0  0  0  0  0  0  0
  -14.7223   -0.8186  -14.6475 N   0  0  0  0  0  0  0  0  0  0  0  0
  -13.6797    1.4431  -14.3811 O   0  0  0  0  0  0  0  0  0  0  0  0
  -15.1151    0.4720  -12.5303 O   0  0  0  0  0  0  0  0  0  0  0  0
  -14.3040   -0.8258  -15.5732 H   0  0  0  0  0  0  0  0  0  0  0  0
  -15.4770   -1.4634  -14.4322 H   0  0  0  0  0  0  0  0  0  0  0  0
  1  2  1  0  0  0
  2  3  1  0  0  0
  2 21  1  0  0  0
  3  4  1  0  0  0
  3  8  2  0  0  0
  4  5  2  0  0  0
  5  6  1  0  0  0
  6  9  1  0  0  0
  6  7  2  0  0  0
  9 10  1  0  0  0
  9 13  1  0  0  0
 10 11  2  0  0  0
 10 12  1  0  0  0
 12 15  1  0  0  0
 12 14  1  0  0  0
 15 16  1  0  0  0
 15 20  2  0  0  0
 16 17  2  0  0  0
 17 18  1  0  0  0
 18 19  2  0  0  0
 19 20  1  0  0  0
  7  8  1  0  0  0
 21 22  1  0  0  0
 21 26  2  0  0  0
 22 23  2  0  0  0
 23 24  1  0  0  0
 24 25  2  0  0  0
 25 27  1  0  0  0
 25 26  1  0  0  0
 27 29  1  0  0  0
 27 28  1  0  0  0
 29 30  1  0  0  0
 29 34  2  0  0  0
 30 31  2  0  0  0
 31 32  1  0  0  0
 32 33  2  0  0  0
 33 35  1  0  0  0
 33 34  1  0  0  0
 35 36  1  0  0  0
 35 37  2  0  0  0
 35 38  2  0  0  0
 36 39  1  0  0  0
 36 40  1  0  0  0
M  END
> <minimizedAffinity>
-10.43321

$$$$
