CHEMBL3898138


 34 37  0  0  0  0  0  0  0  0999 V2000
  -29.5423   -5.4285   -7.1693 C   0  0  0  0  0  0  0  0  0  0  0  0
  -29.0284   -4.4838   -8.0646 C   0  0  0  0  0  0  0  0  0  0  0  0
  -28.5427   -3.2308   -7.6182 C   0  0  0  0  0  0  0  0  0  0  0  0
  -28.1047   -2.1886   -8.4381 C   0  0  0  0  0  0  0  0  0  0  0  0
  -27.6174   -1.0341   -7.9388 N   0  0  0  0  0  0  0  0  0  0  0  0
  -27.5867   -0.9091   -6.6139 C   0  0  0  0  0  0  0  0  0  0  0  0
  -28.0032   -1.8257   -5.7415 N   0  0  0  0  0  0  0  0  0  0  0  0
  -28.4717   -2.9620   -6.2593 C   0  0  0  0  0  0  0  0  0  0  0  0
  -28.8991   -3.9287   -5.3835 C   0  0  0  0  0  0  0  0  0  0  0  0
  -29.4268   -5.1692   -5.7919 C   0  0  0  0  0  0  0  0  0  0  0  0
  -29.2805   -7.6132   -8.1313 C   0  0  0  0  0  0  0  0  0  0  0  0
  -30.1304   -6.5928   -7.5884 O   0  0  0  0  0  0  0  0  0  0  0  0
  -28.2127   -2.3332   -9.8473 N   0  0  0  0  0  0  0  0  0  0  0  0
  -29.1338   -2.0210  -10.1399 H   0  0  0  0  0  0  0  0  0  0  0  0
  -27.1901   -1.9680  -10.7464 C   0  0  0  0  0  0  0  0  0  0  0  0
  -25.9292   -1.6078  -10.2665 C   0  0  0  0  0  0  0  0  0  0  0  0
  -24.9273   -1.1961  -11.1343 C   0  0  0  0  0  0  0  0  0  0  0  0
  -25.1788   -1.1529  -12.5086 C   0  0  0  0  0  0  0  0  0  0  0  0
  -23.9017   -0.5949  -13.5353 Cl  0  0  0  0  0  0  0  0  0  0  0  0
  -26.4267   -1.5399  -13.0028 C   0  0  0  0  0  0  0  0  0  0  0  0
  -26.8064   -1.5087  -14.6884 Cl  0  0  0  0  0  0  0  0  0  0  0  0
  -27.4284   -1.9594  -12.1215 C   0  0  0  0  0  0  0  0  0  0  0  0
  -29.8193   -6.1260   -4.8634 O   0  0  0  0  0  0  0  0  0  0  0  0
  -28.7228   -6.5906   -4.0600 C   0  0  0  0  0  0  0  0  0  0  0  0
  -28.4198   -8.0805   -4.0876 C   0  0  0  0  0  0  0  0  0  0  0  0
  -27.0102   -8.3761   -4.6273 C   0  0  0  0  0  0  0  0  0  0  0  0
  -26.7559   -9.8324   -4.7845 N   0  0  0  0  0  0  0  0  0  0  0  0
  -27.8246  -10.3730   -5.6588 C   0  0  0  0  0  0  0  0  0  0  0  0
  -29.2467  -10.0527   -5.1753 C   0  0  0  0  0  0  0  0  0  0  0  0
  -29.4311   -8.6539   -4.9524 O   0  0  0  0  0  0  0  0  0  0  0  0
  -26.7090  -10.4799   -3.4656 C   0  0  0  0  0  0  0  0  0  0  0  0
  -25.4114  -11.1791   -3.2124 C   0  0  0  0  0  0  0  0  0  0  0  0
  -24.2531  -10.5264   -3.0508 C   0  0  0  0  0  0  0  0  0  0  0  0
  -22.6262  -11.3511   -2.7341 Br  0  0  0  0  0  0  0  0  0  0  0  0
 11 12  1  0  0  0
 12  1  1  0  0  0
  1  2  1  0  0  0
  1 10  2  0  0  0
  2  3  2  0  0  0
  3  4  1  0  0  0
  3  8  1  0  0  0
  4 13  1  0  0  0
  4  5  2  0  0  0
 13 15  1  0  0  0
 13 14  1  0  0  0
 15 16  1  0  0  0
 15 22  2  0  0  0
 16 17  2  0  0  0
 17 18  1  0  0  0
 18 19  1  0  0  0
 18 20  2  0  0  0
 20 21  1  0  0  0
 20 22  1  0  0  0
  5  6  1  0  0  0
  6  7  2  0  0  0
  7  8  1  0  0  0
  8  9  2  0  0  0
  9 10  1  0  0  0
 10 23  1  0  0  0
 23 24  1  0  0  0
 24 25  1  0  0  0
 25 26  1  0  0  0
 25 30  1  0  0  0
 26 27  1  0  0  0
 27 31  1  0  0  0
 27 28  1  0  0  0
 31 32  1  0  0  0
 32 33  2  0  0  0
 33 34  1  0  0  0
 28 29  1  0  0  0
 29 30  1  0  0  0
M  END
> <minimizedAffinity>
-8.40447

$$$$
