CHEMBL218817


 44 50  0  0  0  0  0  0  0  0999 V2000
  -28.3101   -2.5398   -7.6163 C   0  0  0  0  0  0  0  0  0  0  0  0
  -28.8569   -2.1184   -6.4058 C   0  0  0  0  0  0  0  0  0  0  0  0
  -29.1855   -3.0317   -5.4016 C   0  0  0  0  0  0  0  0  0  0  0  0
  -28.9673   -4.4008   -5.6610 C   0  0  0  0  0  0  0  0  0  0  0  0
  -28.6318   -4.8156   -6.9124 C   0  0  0  0  0  0  0  0  0  0  0  0
  -28.2855   -3.9030   -7.9184 C   0  0  0  0  0  0  0  0  0  0  0  0
  -28.6906   -6.1726   -6.7592 C   0  0  0  0  0  0  0  0  0  0  0  0
  -29.7810   -6.7712   -7.4822 C   0  0  0  0  0  0  0  0  0  0  0  0
  -29.4545   -8.0928   -7.8895 C   0  0  0  0  0  0  0  0  0  0  0  0
  -28.1687   -8.5848   -7.5662 C   0  0  0  0  0  0  0  0  0  0  0  0
  -27.9460   -7.9673   -6.0950 C   0  0  0  0  0  0  0  0  0  0  0  0
  -28.5394   -6.7576   -5.4214 C   0  0  0  0  0  0  0  0  0  0  0  0
  -29.1124   -5.5812   -4.8651 N   0  0  0  0  0  0  0  0  0  0  0  0
  -27.0737   -8.9574   -5.3056 C   0  0  0  0  0  0  0  0  0  0  0  0
  -27.7210  -10.3608   -5.4239 C   0  0  0  0  0  0  0  0  0  0  0  0
  -27.3631  -10.8330   -6.7759 C   0  0  0  0  0  0  0  0  0  0  0  0
  -26.5282  -11.8475   -6.9709 N   0  0  0  0  0  0  0  0  0  0  0  0
  -25.9554  -11.5522   -8.1469 N   0  0  0  0  0  0  0  0  0  0  0  0
  -24.6987  -12.2465   -8.4069 C   0  0  0  0  0  0  0  0  0  0  0  0
  -26.5781  -10.4479   -8.7642 C   0  0  0  0  0  0  0  0  0  0  0  0
  -27.5545   -9.9547   -7.8678 C   0  0  0  0  0  0  0  0  0  0  0  0
  -30.7189   -8.7886   -8.0385 C   0  0  0  0  0  0  0  0  0  0  0  0
  -31.0193   -9.9521   -8.2910 O   0  0  0  0  0  0  0  0  0  0  0  0
  -31.7004   -7.8578   -7.6569 N   0  0  0  0  0  0  0  0  0  0  0  0
  -31.2132   -6.5788   -7.1961 C   0  0  0  0  0  0  0  0  0  0  0  0
  -32.6264   -8.1912   -7.4182 H   0  0  0  0  0  0  0  0  0  0  0  0
  -26.6665   -0.9701  -10.4678 N   0  0  0  0  0  0  0  0  0  0  0  0
  -27.1738   -2.0490   -9.7579 C   0  0  0  0  0  0  0  0  0  0  0  0
  -27.1378   -3.2100  -10.1497 O   0  0  0  0  0  0  0  0  0  0  0  0
  -27.7157   -1.6551   -8.5459 N   0  0  0  0  0  0  0  0  0  0  0  0
  -26.4724   -0.1344   -9.9376 H   0  0  0  0  0  0  0  0  0  0  0  0
  -27.9869   -0.6863   -8.4758 H   0  0  0  0  0  0  0  0  0  0  0  0
  -23.9847   -1.0197  -13.0315 C   0  0  0  0  0  0  0  0  0  0  0  0
  -24.6693   -1.5312  -14.1352 C   0  0  0  0  0  0  0  0  0  0  0  0
  -26.0363   -1.7739  -14.0579 C   0  0  0  0  0  0  0  0  0  0  0  0
  -26.7160   -1.5368  -12.8674 C   0  0  0  0  0  0  0  0  0  0  0  0
  -26.0380   -1.0866  -11.7314 C   0  0  0  0  0  0  0  0  0  0  0  0
  -24.6771   -0.7780  -11.8360 C   0  0  0  0  0  0  0  0  0  0  0  0
  -22.1809    0.2733  -13.8727 C   0  0  0  0  0  0  0  0  0  0  0  0
  -22.6424   -0.7479  -12.9931 O   0  0  0  0  0  0  0  0  0  0  0  0
  -29.6379   -5.2155   -3.5306 C   0  0  0  0  0  0  0  0  0  0  0  0
  -30.9890   -4.7563   -2.9339 C   0  0  0  0  0  0  0  0  0  0  0  0
  -31.1224   -3.2515   -2.7305 C   0  0  0  0  0  0  0  0  0  0  0  0
  -32.2202   -5.3461   -3.5823 C   0  0  0  0  0  0  0  0  0  0  0  0
 39 40  1  0  0  0
 40 33  1  0  0  0
 33 34  1  0  0  0
 33 38  2  0  0  0
 34 35  2  0  0  0
 35 36  1  0  0  0
 36 37  2  0  0  0
 37 27  1  0  0  0
 37 38  1  0  0  0
 27 28  1  0  0  0
 27 31  1  0  0  0
 28 29  2  0  0  0
 28 30  1  0  0  0
 30  1  1  0  0  0
 30 32  1  0  0  0
  1  2  1  0  0  0
  1  6  2  0  0  0
  2  3  2  0  0  0
  3  4  1  0  0  0
  4  5  2  0  0  0
  4 13  1  0  0  0
  5  6  1  0  0  0
  5  7  1  0  0  0
  7  8  1  0  0  0
  7 12  2  0  0  0
  8  9  2  0  0  0
  8 25  1  0  0  0
  9 10  1  0  0  0
  9 22  1  0  0  0
 10 11  2  0  0  0
 10 21  1  0  0  0
 11 12  1  0  0  0
 11 14  1  0  0  0
 12 13  1  0  0  0
 13 41  1  0  0  0
 41 42  1  0  0  0
 42 43  1  0  0  0
 42 44  1  0  0  0
 14 15  1  0  0  0
 15 16  1  0  0  0
 16 17  2  0  0  0
 16 21  1  0  0  0
 17 18  1  0  0  0
 18 19  1  0  0  0
 18 20  1  0  0  0
 20 21  2  0  0  0
 22 23  2  0  0  0
 22 24  1  0  0  0
 24 25  1  0  0  0
 24 26  1  0  0  0
M  END
> <minimizedAffinity>
-9.91679

$$$$
