CHEMBL3911339


 34 37  0  0  0  0  0  0  0  0999 V2000
  -29.5129   -8.3071   -5.8605 C   0  0  0  0  0  0  0  0  0  0  0  0
  -28.3462   -7.8162   -5.2891 C   0  0  0  0  0  0  0  0  0  0  0  0
  -28.3184   -6.5204   -4.7751 C   0  0  0  0  0  0  0  0  0  0  0  0
  -29.4458   -5.6917   -4.8329 C   0  0  0  0  0  0  0  0  0  0  0  0
  -30.6004   -6.1777   -5.4513 C   0  0  0  0  0  0  0  0  0  0  0  0
  -30.6227   -7.4682   -5.9907 C   0  0  0  0  0  0  0  0  0  0  0  0
  -29.4835   -4.3853   -4.2949 N   0  0  0  0  0  0  0  0  0  0  0  0
  -29.3282   -3.2258   -5.0216 C   0  0  0  0  0  0  0  0  0  0  0  0
  -29.2021   -3.1745   -6.2416 O   0  0  0  0  0  0  0  0  0  0  0  0
  -29.3029   -2.0940   -4.2146 N   0  0  0  0  0  0  0  0  0  0  0  0
  -29.7845   -4.2807   -3.3365 H   0  0  0  0  0  0  0  0  0  0  0  0
  -28.7542   -2.2105   -3.3710 H   0  0  0  0  0  0  0  0  0  0  0  0
  -29.1293   -0.8451   -4.8653 C   0  0  0  0  0  0  0  0  0  0  0  0
  -30.2392   -0.0684   -5.2216 C   0  0  0  0  0  0  0  0  0  0  0  0
  -30.0937    1.0357   -6.0667 C   0  0  0  0  0  0  0  0  0  0  0  0
  -31.3015    1.7994   -6.5239 C   0  0  0  0  0  0  0  0  0  0  0  0
  -28.8171    1.3621   -6.5423 C   0  0  0  0  0  0  0  0  0  0  0  0
  -27.6983    0.6283   -6.1328 C   0  0  0  0  0  0  0  0  0  0  0  0
  -27.8586   -0.4564   -5.2780 C   0  0  0  0  0  0  0  0  0  0  0  0
  -26.7900   -1.1952   -4.9382 F   0  0  0  0  0  0  0  0  0  0  0  0
  -29.4625   -9.6125   -6.2896 O   0  0  0  0  0  0  0  0  0  0  0  0
  -25.5449  -11.2715   -8.1187 C   0  0  0  0  0  0  0  0  0  0  0  0
  -26.1619  -11.0799   -9.3405 C   0  0  0  0  0  0  0  0  0  0  0  0
  -27.4897  -10.5875   -9.2202 C   0  0  0  0  0  0  0  0  0  0  0  0
  -28.3143  -10.3197  -10.2692 N   0  0  0  0  0  0  0  0  0  0  0  0
  -29.5454   -9.8862   -9.9491 C   0  0  0  0  0  0  0  0  0  0  0  0
  -30.0030   -9.6754   -8.6657 C   0  0  0  0  0  0  0  0  0  0  0  0
  -29.1224   -9.8637   -7.5992 C   0  0  0  0  0  0  0  0  0  0  0  0
  -27.8545  -10.3880   -7.8926 C   0  0  0  0  0  0  0  0  0  0  0  0
  -26.5849  -10.8458   -6.8288 S   0  0  0  0  0  0  0  0  0  0  0  0
  -24.2061  -11.7471   -7.8353 C   0  0  0  0  0  0  0  0  0  0  0  0
  -23.4713  -12.3644   -8.5970 O   0  0  0  0  0  0  0  0  0  0  0  0
  -22.7803  -10.4972   -6.4498 C   0  0  0  0  0  0  0  0  0  0  0  0
  -23.8711  -11.4104   -6.5543 O   0  0  0  0  0  0  0  0  0  0  0  0
 33 34  1  0  0  0
 34 31  1  0  0  0
 31 32  2  0  0  0
 31 22  1  0  0  0
 22 23  2  0  0  0
 22 30  1  0  0  0
 23 24  1  0  0  0
 24 25  1  0  0  0
 24 29  2  0  0  0
 25 26  2  0  0  0
 26 27  1  0  0  0
 27 28  2  0  0  0
 28 21  1  0  0  0
 28 29  1  0  0  0
 21  1  1  0  0  0
  1  2  1  0  0  0
  1  6  2  0  0  0
  2  3  2  0  0  0
  3  4  1  0  0  0
  4  7  1  0  0  0
  4  5  2  0  0  0
  7  8  1  0  0  0
  7 11  1  0  0  0
  8  9  2  0  0  0
  8 10  1  0  0  0
 10 13  1  0  0  0
 10 12  1  0  0  0
 13 14  1  0  0  0
 13 19  2  0  0  0
 14 15  2  0  0  0
 15 16  1  0  0  0
 15 17  1  0  0  0
 17 18  2  0  0  0
 18 19  1  0  0  0
 19 20  1  0  0  0
  5  6  1  0  0  0
 29 30  1  0  0  0
M  END
> <minimizedAffinity>
-8.72761

$$$$
