CHEMBL3746141


 34 38  0  0  0  0  0  0  0  0999 V2000
  -14.7072   -0.5145  -13.4876 C   0  0  0  0  0  0  0  0  0  0  0  0
  -13.8635    0.4833  -13.9748 C   0  0  0  0  0  0  0  0  0  0  0  0
  -14.3617    1.5505  -14.7248 C   0  0  0  0  0  0  0  0  0  0  0  0
  -15.7489    1.6176  -14.9406 C   0  0  0  0  0  0  0  0  0  0  0  0
  -16.6215    0.6830  -14.3696 C   0  0  0  0  0  0  0  0  0  0  0  0
  -17.9449    1.1056  -14.6525 C   0  0  0  0  0  0  0  0  0  0  0  0
  -17.8563    2.2815  -15.3568 C   0  0  0  0  0  0  0  0  0  0  0  0
  -16.5239    2.5702  -15.6036 N   0  0  0  0  0  0  0  0  0  0  0  0
  -16.0841    3.6925  -16.3350 C   0  0  0  0  0  0  0  0  0  0  0  0
  -16.7032    4.7378  -16.2106 O   0  0  0  0  0  0  0  0  0  0  0  0
  -15.0885    3.3514  -17.2288 N   0  0  0  0  0  0  0  0  0  0  0  0
  -16.0923   -0.4027  -13.6422 C   0  0  0  0  0  0  0  0  0  0  0  0
  -14.9355    2.3801  -17.4626 H   0  0  0  0  0  0  0  0  0  0  0  0
  -14.4863    4.3080  -18.0337 C   0  0  0  0  0  0  0  0  0  0  0  0
  -13.5880    5.3154  -17.5915 C   0  0  0  0  0  0  0  0  0  0  0  0
  -13.2479    6.0177  -18.7320 C   0  0  0  0  0  0  0  0  0  0  0  0
  -13.9294    5.4830  -19.7787 O   0  0  0  0  0  0  0  0  0  0  0  0
  -14.6918    4.4233  -19.3484 N   0  0  0  0  0  0  0  0  0  0  0  0
  -12.3084    7.1615  -19.0321 C   0  0  0  0  0  0  0  0  0  0  0  0
  -11.9411    7.1464  -20.5261 C   0  0  0  0  0  0  0  0  0  0  0  0
  -12.9447    8.5298  -18.7075 C   0  0  0  0  0  0  0  0  0  0  0  0
  -11.0282    7.0213  -18.1914 C   0  0  0  0  0  0  0  0  0  0  0  0
  -14.2673   -1.6011  -12.7648 O   0  0  0  0  0  0  0  0  0  0  0  0
  -15.1813   -3.3647  -10.1823 C   0  0  0  0  0  0  0  0  0  0  0  0
  -16.0719   -3.5874  -11.4004 C   0  0  0  0  0  0  0  0  0  0  0  0
  -16.8125   -4.8722  -11.2428 N   0  0  0  0  0  0  0  0  0  0  0  0
  -16.4002   -5.7548  -12.3704 C   0  0  0  0  0  0  0  0  0  0  0  0
  -15.4657   -4.9476  -13.2227 C   0  0  0  0  0  0  0  0  0  0  0  0
  -14.8659   -5.3643  -14.3458 N   0  0  0  0  0  0  0  0  0  0  0  0
  -14.0697   -4.4433  -14.9138 C   0  0  0  0  0  0  0  0  0  0  0  0
  -13.8453   -3.1938  -14.4662 N   0  0  0  0  0  0  0  0  0  0  0  0
  -14.4593   -2.8594  -13.3102 C   0  0  0  0  0  0  0  0  0  0  0  0
  -15.2979   -3.7123  -12.6575 C   0  0  0  0  0  0  0  0  0  0  0  0
  -17.8077   -4.6781  -11.3518 H   0  0  0  0  0  0  0  0  0  0  0  0
 25 26  1  0  0  0
 25 33  1  0  0  0
 25 24  1  0  0  0
 26 27  1  0  0  0
 26 34  1  0  0  0
 27 28  1  0  0  0
 28 29  1  0  0  0
 28 33  2  0  0  0
 29 30  2  0  0  0
 30 31  1  0  0  0
 31 32  2  0  0  0
 32 23  1  0  0  0
 32 33  1  0  0  0
 23  1  1  0  0  0
  1  2  1  0  0  0
  1 12  2  0  0  0
  2  3  2  0  0  0
  3  4  1  0  0  0
  4  5  2  0  0  0
  4  8  1  0  0  0
  5  6  1  0  0  0
  5 12  1  0  0  0
  6  7  2  0  0  0
  7  8  1  0  0  0
  8  9  1  0  0  0
  9 10  2  0  0  0
  9 11  1  0  0  0
 11 14  1  0  0  0
 11 13  1  0  0  0
 14 15  1  0  0  0
 14 18  2  0  0  0
 15 16  2  0  0  0
 16 19  1  0  0  0
 16 17  1  0  0  0
 19 20  1  0  0  0
 19 21  1  0  0  0
 19 22  1  0  0  0
 17 18  1  0  0  0
M  END
> <minimizedAffinity>
-8.32243

$$$$
