CHEMBL189998


 33 36  0  0  0  0  0  0  0  0999 V2000
  -29.2163   -3.1759   -6.1693 C   0  0  0  0  0  0  0  0  0  0  0  0
  -29.1239   -1.8437   -5.7668 C   0  0  0  0  0  0  0  0  0  0  0  0
  -28.4572   -0.8765   -6.4437 N   0  0  0  0  0  0  0  0  0  0  0  0
  -27.8881   -1.2426   -7.6150 C   0  0  0  0  0  0  0  0  0  0  0  0
  -27.9421   -2.5235   -8.1586 C   0  0  0  0  0  0  0  0  0  0  0  0
  -28.5881   -3.4933   -7.3843 C   0  0  0  0  0  0  0  0  0  0  0  0
  -30.2408   -6.4194   -4.8505 C   0  0  0  0  0  0  0  0  0  0  0  0
  -31.2614   -6.0497   -3.9731 C   0  0  0  0  0  0  0  0  0  0  0  0
  -31.6380   -4.7680   -3.7543 N   0  0  0  0  0  0  0  0  0  0  0  0
  -30.9698   -3.8470   -4.4852 C   0  0  0  0  0  0  0  0  0  0  0  0
  -29.9590   -4.1724   -5.3867 C   0  0  0  0  0  0  0  0  0  0  0  0
  -29.5970   -5.4677   -5.5680 N   0  0  0  0  0  0  0  0  0  0  0  0
  -29.9529   -7.7874   -5.0733 N   0  0  0  0  0  0  0  0  0  0  0  0
  -29.0726   -8.0433   -4.6343 H   0  0  0  0  0  0  0  0  0  0  0  0
  -27.3936   -9.4736   -9.1789 Cl  0  0  0  0  0  0  0  0  0  0  0  0
  -28.8641   -9.1770   -8.3348 C   0  0  0  0  0  0  0  0  0  0  0  0
  -30.0798   -9.4873   -8.9410 C   0  0  0  0  0  0  0  0  0  0  0  0
  -31.2701   -9.2343   -8.2637 C   0  0  0  0  0  0  0  0  0  0  0  0
  -31.2355   -8.6906   -6.9776 C   0  0  0  0  0  0  0  0  0  0  0  0
  -30.0144   -8.4131   -6.3449 C   0  0  0  0  0  0  0  0  0  0  0  0
  -28.8274   -8.6254   -7.0534 C   0  0  0  0  0  0  0  0  0  0  0  0
  -27.4008   -2.7712   -9.4213 N   0  0  0  0  0  0  0  0  0  0  0  0
  -28.0536   -3.2637  -10.0287 H   0  0  0  0  0  0  0  0  0  0  0  0
  -26.5934   -1.7582  -10.0940 C   0  0  0  0  0  0  0  0  0  0  0  0
  -26.8683   -1.7767  -11.6033 C   0  0  0  0  0  0  0  0  0  0  0  0
  -25.8213   -0.9718  -12.3684 C   0  0  0  0  0  0  0  0  0  0  0  0
  -24.8030   -1.8050  -13.0389 N   0  0  0  0  0  0  0  0  0  0  0  0
  -23.5741   -2.0047  -12.2375 C   0  0  0  0  0  0  0  0  0  0  0  0
  -22.7524   -0.7140  -12.0252 C   0  0  0  0  0  0  0  0  0  0  0  0
  -22.3600   -0.0775  -13.2952 N   0  0  0  0  0  0  0  0  0  0  0  0
  -23.5392    0.0975  -14.1637 C   0  0  0  0  0  0  0  0  0  0  0  0
  -24.4048   -1.1776  -14.3210 C   0  0  0  0  0  0  0  0  0  0  0  0
  -21.7162   -0.7154  -13.7729 H   0  0  0  0  0  0  0  0  0  0  0  0
 15 16  1  0  0  0
 16 17  1  0  0  0
 16 21  2  0  0  0
 17 18  2  0  0  0
 18 19  1  0  0  0
 19 20  2  0  0  0
 20 13  1  0  0  0
 20 21  1  0  0  0
 13  7  1  0  0  0
 13 14  1  0  0  0
  7  8  1  0  0  0
  7 12  2  0  0  0
  8  9  2  0  0  0
  9 10  1  0  0  0
 10 11  2  0  0  0
 11  1  1  0  0  0
 11 12  1  0  0  0
  1  2  1  0  0  0
  1  6  2  0  0  0
  2  3  2  0  0  0
  3  4  1  0  0  0
  4  5  2  0  0  0
  5 22  1  0  0  0
  5  6  1  0  0  0
 22 24  1  0  0  0
 22 23  1  0  0  0
 24 25  1  0  0  0
 25 26  1  0  0  0
 26 27  1  0  0  0
 27 28  1  0  0  0
 27 32  1  0  0  0
 28 29  1  0  0  0
 29 30  1  0  0  0
 30 31  1  0  0  0
 30 33  1  0  0  0
 31 32  1  0  0  0
M  END
> <minimizedAffinity>
-8.74548

$$$$
