CHEMBL274654


 26 28  0  0  0  0  0  0  0  0999 V2000
  -14.1855    1.4622  -17.6137 C   0  0  0  0  0  0  0  0  0  0  0  0
  -14.8744    1.0436  -16.3636 C   0  0  0  0  0  0  0  0  0  0  0  0
  -16.2454    1.0418  -16.2891 N   0  0  0  0  0  0  0  0  0  0  0  0
  -16.6548    0.6144  -15.0547 C   0  0  0  0  0  0  0  0  0  0  0  0
  -15.5252    0.3817  -14.2895 C   0  0  0  0  0  0  0  0  0  0  0  0
  -15.5108   -0.0427  -12.8620 C   0  0  0  0  0  0  0  0  0  0  0  0
  -14.3814    0.6446  -15.1273 C   0  0  0  0  0  0  0  0  0  0  0  0
  -16.8631    1.3313  -17.0347 H   0  0  0  0  0  0  0  0  0  0  0  0
  -18.0465    0.4928  -14.8223 C   0  0  0  0  0  0  0  0  0  0  0  0
  -18.8556    1.5412  -14.6120 C   0  0  0  0  0  0  0  0  0  0  0  0
  -18.4824    3.0056  -14.5896 C   0  0  0  0  0  0  0  0  0  0  0  0
  -17.3900    3.5245  -14.7114 O   0  0  0  0  0  0  0  0  0  0  0  0
  -19.6800    3.6767  -14.4093 N   0  0  0  0  0  0  0  0  0  0  0  0
  -20.7507    2.7967  -14.2949 C   0  0  0  0  0  0  0  0  0  0  0  0
  -22.0748    3.1331  -14.1063 C   0  0  0  0  0  0  0  0  0  0  0  0
  -22.9931    2.0895  -14.0015 C   0  0  0  0  0  0  0  0  0  0  0  0
  -22.5658    0.7476  -14.0831 C   0  0  0  0  0  0  0  0  0  0  0  0
  -21.2157    0.4316  -14.2826 C   0  0  0  0  0  0  0  0  0  0  0  0
  -20.3090    1.4722  -14.3943 C   0  0  0  0  0  0  0  0  0  0  0  0
  -19.7311    4.6834  -14.3581 H   0  0  0  0  0  0  0  0  0  0  0  0
  -12.9300    0.5449  -14.7293 C   0  0  0  0  0  0  0  0  0  0  0  0
  -12.2750    1.9125  -14.5505 C   0  0  0  0  0  0  0  0  0  0  0  0
  -12.4870    2.4767  -13.1696 C   0  0  0  0  0  0  0  0  0  0  0  0
  -12.8144    1.8429  -12.1805 O   0  0  0  0  0  0  0  0  0  0  0  0
  -12.2600    3.8134  -13.1298 O   0  0  0  0  0  0  0  0  0  0  0  0
  -11.9961    4.1899  -13.9912 H   0  0  0  0  0  0  0  0  0  0  0  0
  1  2  1  0  0  0
  2  3  1  0  0  0
  2  7  2  0  0  0
  3  4  1  0  0  0
  3  8  1  0  0  0
  4  9  1  0  0  0
  4  5  2  0  0  0
  9 10  2  0  0  0
 10 11  1  0  0  0
 10 19  1  0  0  0
 11 12  2  0  0  0
 11 13  1  0  0  0
 13 14  1  0  0  0
 13 20  1  0  0  0
 14 15  1  0  0  0
 14 19  2  0  0  0
 15 16  2  0  0  0
 16 17  1  0  0  0
 17 18  2  0  0  0
 18 19  1  0  0  0
  5  6  1  0  0  0
  5  7  1  0  0  0
  7 21  1  0  0  0
 21 22  1  0  0  0
 22 23  1  0  0  0
 23 24  2  0  0  0
 23 25  1  0  0  0
 25 26  1  0  0  0
M  END
> <minimizedAffinity>
-8.15538

$$$$
