CHEMBL4239716


 20 22  0  0  0  0  0  0  0  0999 V2000
  -30.4718   -5.3527   -4.2457 N   0  0  0  0  0  0  0  0  0  0  0  0
  -31.6676   -5.5996   -3.4360 C   0  0  0  0  0  0  0  0  0  0  0  0
  -29.7820   -6.5561   -4.5214 C   0  0  0  0  0  0  0  0  0  0  0  0
  -29.4659   -7.3616   -3.4569 N   0  0  0  0  0  0  0  0  0  0  0  0
  -28.8253   -8.5262   -3.6561 C   0  0  0  0  0  0  0  0  0  0  0  0
  -28.4079   -9.0344   -4.8083 N   0  0  0  0  0  0  0  0  0  0  0  0
  -28.6789   -8.2184   -5.8310 C   0  0  0  0  0  0  0  0  0  0  0  0
  -28.2985   -8.5293   -7.0981 O   0  0  0  0  0  0  0  0  0  0  0  0
  -28.6639   -7.4969   -7.8869 C   0  0  0  0  0  0  0  0  0  0  0  0
  -29.2773   -6.5046   -7.1604 C   0  0  0  0  0  0  0  0  0  0  0  0
  -29.7195   -5.2209   -7.7501 C   0  0  0  0  0  0  0  0  0  0  0  0
  -29.3308   -6.9859   -5.8002 C   0  0  0  0  0  0  0  0  0  0  0  0
  -28.7454   -1.5058   -4.7711 C   0  0  0  0  0  0  0  0  0  0  0  0
  -28.2856   -2.3572   -3.7603 C   0  0  0  0  0  0  0  0  0  0  0  0
  -28.8905   -3.6030   -3.5313 C   0  0  0  0  0  0  0  0  0  0  0  0
  -29.9536   -4.0506   -4.3295 C   0  0  0  0  0  0  0  0  0  0  0  0
  -30.4517   -3.1554   -5.2932 C   0  0  0  0  0  0  0  0  0  0  0  0
  -29.8591   -1.9008   -5.5115 C   0  0  0  0  0  0  0  0  0  0  0  0
  -28.6763    0.7247   -6.4935 C   0  0  0  0  0  0  0  0  0  0  0  0
  -27.8774    0.0366   -5.0145 S   0  0  0  0  0  0  0  0  0  0  0  0
 19 20  1  0  0  0
 20 13  1  0  0  0
 13 14  1  0  0  0
 13 18  2  0  0  0
 14 15  2  0  0  0
 15 16  1  0  0  0
 16  1  1  0  0  0
 16 17  2  0  0  0
  1  2  1  0  0  0
  1  3  1  0  0  0
  3  4  1  0  0  0
  3 12  2  0  0  0
  4  5  2  0  0  0
  5  6  1  0  0  0
  6  7  2  0  0  0
  7  8  1  0  0  0
  7 12  1  0  0  0
  8  9  1  0  0  0
  9 10  2  0  0  0
 10 11  1  0  0  0
 10 12  1  0  0  0
 17 18  1  0  0  0
M  END
> <minimizedAffinity>
-6.88860

$$$$
