CHEMBL4073474


 42 46  0  0  0  0  0  0  0  0999 V2000
  -16.5489    0.4223  -14.3018 C   0  0  0  0  0  0  0  0  0  0  0  0
  -15.5881    0.6985  -15.0148 O   0  0  0  0  0  0  0  0  0  0  0  0
  -16.5963   -0.5907  -13.3499 N   0  0  0  0  0  0  0  0  0  0  0  0
  -17.5043   -0.8485  -12.9857 H   0  0  0  0  0  0  0  0  0  0  0  0
  -21.2681    3.5997  -15.4505 C   0  0  0  0  0  0  0  0  0  0  0  0
  -20.0805    2.7454  -15.1011 C   0  0  0  0  0  0  0  0  0  0  0  0
  -18.7951    3.2786  -15.2603 C   0  0  0  0  0  0  0  0  0  0  0  0
  -17.6713    2.4999  -14.9939 C   0  0  0  0  0  0  0  0  0  0  0  0
  -17.8067    1.1751  -14.5584 C   0  0  0  0  0  0  0  0  0  0  0  0
  -19.0826    0.6408  -14.3569 C   0  0  0  0  0  0  0  0  0  0  0  0
  -20.2193    1.4188  -14.6400 C   0  0  0  0  0  0  0  0  0  0  0  0
  -21.5178    0.8336  -14.4811 C   0  0  0  0  0  0  0  0  0  0  0  0
  -22.6060    0.3192  -14.3802 C   0  0  0  0  0  0  0  0  0  0  0  0
  -23.8743   -0.3276  -14.2617 C   0  0  0  0  0  0  0  0  0  0  0  0
  -24.5175   -0.8761  -15.3565 C   0  0  0  0  0  0  0  0  0  0  0  0
  -25.7010   -1.5205  -15.2783 N   0  0  0  0  0  0  0  0  0  0  0  0
  -26.2617   -1.6080  -14.0404 C   0  0  0  0  0  0  0  0  0  0  0  0
  -25.7305   -1.0835  -12.8558 C   0  0  0  0  0  0  0  0  0  0  0  0
  -24.4959   -0.4374  -13.0139 C   0  0  0  0  0  0  0  0  0  0  0  0
  -26.3469   -1.1745  -11.6293 N   0  0  0  0  0  0  0  0  0  0  0  0
  -25.6666   -1.3353  -10.3481 C   0  0  0  0  0  0  0  0  0  0  0  0
  -26.6728   -2.1308   -9.5237 C   0  0  0  0  0  0  0  0  0  0  0  0
  -28.0158   -1.5953   -9.9918 C   0  0  0  0  0  0  0  0  0  0  0  0
  -27.7976   -1.2564  -11.4650 C   0  0  0  0  0  0  0  0  0  0  0  0
  -15.5246   -1.4855  -13.0854 C   0  0  0  0  0  0  0  0  0  0  0  0
  -14.6320   -1.8964  -14.0720 C   0  0  0  0  0  0  0  0  0  0  0  0
  -13.6756   -2.8760  -13.8123 C   0  0  0  0  0  0  0  0  0  0  0  0
  -13.5805   -3.4823  -12.5509 C   0  0  0  0  0  0  0  0  0  0  0  0
  -14.4272   -3.0351  -11.5130 C   0  0  0  0  0  0  0  0  0  0  0  0
  -15.3787   -2.0167  -11.7974 C   0  0  0  0  0  0  0  0  0  0  0  0
  -14.4346   -3.6179  -10.1086 C   0  0  0  0  0  0  0  0  0  0  0  0
  -14.8075   -4.9163   -9.9719 F   0  0  0  0  0  0  0  0  0  0  0  0
  -13.1894   -3.5623   -9.5464 F   0  0  0  0  0  0  0  0  0  0  0  0
  -15.2369   -2.9030   -9.2666 F   0  0  0  0  0  0  0  0  0  0  0  0
  -12.6104   -4.6376  -12.4041 C   0  0  0  0  0  0  0  0  0  0  0  0
  -13.2889   -5.9305  -12.3453 N   0  0  0  0  0  0  0  0  0  0  0  0
  -14.1700   -6.2152  -13.4885 C   0  0  0  0  0  0  0  0  0  0  0  0
  -14.8912   -7.5705  -13.2957 C   0  0  0  0  0  0  0  0  0  0  0  0
  -13.9923   -8.7233  -13.0840 N   0  0  0  0  0  0  0  0  0  0  0  0
  -13.3077   -9.0945  -14.3192 C   0  0  0  0  0  0  0  0  0  0  0  0
  -13.0335   -8.3952  -12.0082 C   0  0  0  0  0  0  0  0  0  0  0  0
  -12.3247   -7.0286  -12.1591 C   0  0  0  0  0  0  0  0  0  0  0  0
  5  6  1  0  0  0
  6  7  1  0  0  0
  6 11  2  0  0  0
  7  8  2  0  0  0
  8  9  1  0  0  0
  9  1  1  0  0  0
  9 10  2  0  0  0
  1  2  2  0  0  0
  1  3  1  0  0  0
  3 25  1  0  0  0
  3  4  1  0  0  0
 25 26  1  0  0  0
 25 30  2  0  0  0
 26 27  2  0  0  0
 27 28  1  0  0  0
 28 35  1  0  0  0
 28 29  2  0  0  0
 35 36  1  0  0  0
 36 37  1  0  0  0
 36 42  1  0  0  0
 37 38  1  0  0  0
 38 39  1  0  0  0
 39 40  1  0  0  0
 39 41  1  0  0  0
 41 42  1  0  0  0
 29 31  1  0  0  0
 29 30  1  0  0  0
 31 32  1  0  0  0
 31 33  1  0  0  0
 31 34  1  0  0  0
 10 11  1  0  0  0
 11 12  1  0  0  0
 12 13  3  0  0  0
 13 14  1  0  0  0
 14 15  1  0  0  0
 14 19  2  0  0  0
 15 16  2  0  0  0
 16 17  1  0  0  0
 17 18  2  0  0  0
 18 20  1  0  0  0
 18 19  1  0  0  0
 20 21  1  0  0  0
 20 24  1  0  0  0
 21 22  1  0  0  0
 22 23  1  0  0  0
 23 24  1  0  0  0
M  END
> <minimizedAffinity>
-9.90111

$$$$
