CHEMBL3959310


 36 40  0  0  0  0  0  0  0  0999 V2000
  -29.5485   -7.5059   -3.0825 O   0  0  0  0  0  0  0  0  0  0  0  0
  -28.9176   -7.8713   -4.0752 C   0  0  0  0  0  0  0  0  0  0  0  0
  -28.8562   -6.9681   -5.2634 C   0  0  0  0  0  0  0  0  0  0  0  0
  -29.4001   -7.2890   -6.5214 C   0  0  0  0  0  0  0  0  0  0  0  0
  -29.3572   -6.3772   -7.6018 C   0  0  0  0  0  0  0  0  0  0  0  0
  -28.9002   -5.0689   -7.3457 C   0  0  0  0  0  0  0  0  0  0  0  0
  -28.9079   -3.7753   -7.9776 C   0  0  0  0  0  0  0  0  0  0  0  0
  -29.6245   -3.0174   -7.1130 N   0  0  0  0  0  0  0  0  0  0  0  0
  -29.0831   -3.4275   -5.9385 N   0  0  0  0  0  0  0  0  0  0  0  0
  -28.6905   -4.7449   -6.0085 C   0  0  0  0  0  0  0  0  0  0  0  0
  -28.4174   -5.6630   -5.0048 C   0  0  0  0  0  0  0  0  0  0  0  0
  -29.2184   -2.8616   -5.1128 H   0  0  0  0  0  0  0  0  0  0  0  0
  -27.7676   -3.0223   -8.5008 C   0  0  0  0  0  0  0  0  0  0  0  0
  -27.8631   -1.8523   -9.1648 C   0  0  0  0  0  0  0  0  0  0  0  0
  -27.0658   -1.5927  -10.3884 C   0  0  0  0  0  0  0  0  0  0  0  0
  -27.6729   -1.6447  -11.6402 C   0  0  0  0  0  0  0  0  0  0  0  0
  -26.8722   -1.6636  -12.7846 C   0  0  0  0  0  0  0  0  0  0  0  0
  -25.4898   -1.6355  -12.6543 C   0  0  0  0  0  0  0  0  0  0  0  0
  -24.9634   -1.5695  -11.3778 C   0  0  0  0  0  0  0  0  0  0  0  0
  -25.7165   -1.5441  -10.2535 N   0  0  0  0  0  0  0  0  0  0  0  0
  -28.3249   -9.2265   -4.0480 C   0  0  0  0  0  0  0  0  0  0  0  0
  -29.1131  -10.2538   -3.5162 C   0  0  0  0  0  0  0  0  0  0  0  0
  -28.6310  -11.5545   -3.4990 C   0  0  0  0  0  0  0  0  0  0  0  0
  -27.3784  -11.8340   -4.0431 C   0  0  0  0  0  0  0  0  0  0  0  0
  -26.5857  -10.8228   -4.5952 C   0  0  0  0  0  0  0  0  0  0  0  0
  -27.0376   -9.5025   -4.5337 C   0  0  0  0  0  0  0  0  0  0  0  0
  -25.3624  -11.0823   -5.2490 N   0  0  0  0  0  0  0  0  0  0  0  0
  -25.1479  -10.9936   -6.6162 C   0  0  0  0  0  0  0  0  0  0  0  0
  -25.9845  -10.7050   -7.4690 O   0  0  0  0  0  0  0  0  0  0  0  0
  -24.5197  -11.2135   -4.6931 H   0  0  0  0  0  0  0  0  0  0  0  0
  -23.7390  -11.2344   -7.0499 C   0  0  0  0  0  0  0  0  0  0  0  0
  -22.7235  -10.4931   -6.4401 C   0  0  0  0  0  0  0  0  0  0  0  0
  -21.4105  -10.7108   -6.8454 C   0  0  0  0  0  0  0  0  0  0  0  0
  -21.1593  -11.6631   -7.8208 C   0  0  0  0  0  0  0  0  0  0  0  0
  -22.2335  -12.3649   -8.3600 C   0  0  0  0  0  0  0  0  0  0  0  0
  -23.5247  -12.1787   -7.9986 N   0  0  0  0  0  0  0  0  0  0  0  0
  1  2  2  0  0  0
  2 21  1  0  0  0
  2  3  1  0  0  0
 21 22  1  0  0  0
 21 26  2  0  0  0
 22 23  2  0  0  0
 23 24  1  0  0  0
 24 25  2  0  0  0
 25 27  1  0  0  0
 25 26  1  0  0  0
 27 28  1  0  0  0
 27 30  1  0  0  0
 28 29  2  0  0  0
 28 31  1  0  0  0
 31 32  1  0  0  0
 31 36  2  0  0  0
 32 33  2  0  0  0
 33 34  1  0  0  0
 34 35  2  0  0  0
 35 36  1  0  0  0
  3  4  1  0  0  0
  3 11  2  0  0  0
  4  5  2  0  0  0
  5  6  1  0  0  0
  6  7  1  0  0  0
  6 10  2  0  0  0
  7 13  1  0  0  0
  7  8  2  0  0  0
 13 14  2  0  0  0
 14 15  1  0  0  0
 15 16  1  0  0  0
 15 20  2  0  0  0
 16 17  2  0  0  0
 17 18  1  0  0  0
 18 19  2  0  0  0
 19 20  1  0  0  0
  8  9  1  0  0  0
  9 10  1  0  0  0
  9 12  1  0  0  0
 10 11  1  0  0  0
M  END
> <minimizedAffinity>
-9.61178

$$$$
