CHEMBL3940692


 39 42  0  0  0  0  0  0  0  0999 V2000
  -25.5441   -1.7518  -12.1293 C   0  0  0  0  0  0  0  0  0  0  0  0
  -25.5882   -1.5098  -13.5118 C   0  0  0  0  0  0  0  0  0  0  0  0
  -24.4613   -1.0842  -14.2195 C   0  0  0  0  0  0  0  0  0  0  0  0
  -23.2730   -0.8357  -13.5455 C   0  0  0  0  0  0  0  0  0  0  0  0
  -23.2700   -0.9259  -12.1492 C   0  0  0  0  0  0  0  0  0  0  0  0
  -22.1795   -0.5893  -11.4451 F   0  0  0  0  0  0  0  0  0  0  0  0
  -24.3839   -1.4007  -11.4413 C   0  0  0  0  0  0  0  0  0  0  0  0
  -27.9124   -2.8322   -9.5276 N   0  0  0  0  0  0  0  0  0  0  0  0
  -26.8636   -2.1056  -10.0832 C   0  0  0  0  0  0  0  0  0  0  0  0
  -26.2015   -1.2888   -9.4548 O   0  0  0  0  0  0  0  0  0  0  0  0
  -26.6271   -2.3627  -11.4266 N   0  0  0  0  0  0  0  0  0  0  0  0
  -28.4268   -3.4550  -10.1307 H   0  0  0  0  0  0  0  0  0  0  0  0
  -27.4046   -2.6949  -11.9788 H   0  0  0  0  0  0  0  0  0  0  0  0
  -29.0487   -2.5077   -5.4199 C   0  0  0  0  0  0  0  0  0  0  0  0
  -29.0701   -3.7430   -6.0671 C   0  0  0  0  0  0  0  0  0  0  0  0
  -28.7112   -3.8462   -7.4059 C   0  0  0  0  0  0  0  0  0  0  0  0
  -28.3120   -2.7371   -8.1619 C   0  0  0  0  0  0  0  0  0  0  0  0
  -28.3102   -1.4917   -7.5187 C   0  0  0  0  0  0  0  0  0  0  0  0
  -28.6779   -1.3631   -6.1462 C   0  0  0  0  0  0  0  0  0  0  0  0
  -28.6504    0.0109   -5.5162 C   0  0  0  0  0  0  0  0  0  0  0  0
  -27.8320    0.1418   -4.4420 F   0  0  0  0  0  0  0  0  0  0  0  0
  -28.2530    0.9649   -6.4017 F   0  0  0  0  0  0  0  0  0  0  0  0
  -29.8841    0.3939   -5.0858 F   0  0  0  0  0  0  0  0  0  0  0  0
  -29.7021   -2.5482   -2.9128 N   0  0  0  0  0  0  0  0  0  0  0  0
  -29.4146   -2.5005   -4.0353 C   0  0  0  0  0  0  0  0  0  0  0  0
  -22.2153   -0.4471  -14.3352 O   0  0  0  0  0  0  0  0  0  0  0  0
  -21.8281    0.8741  -14.3846 C   0  0  0  0  0  0  0  0  0  0  0  0
  -22.5311    1.9271  -13.8127 C   0  0  0  0  0  0  0  0  0  0  0  0
  -22.0632    3.2024  -14.0323 C   0  0  0  0  0  0  0  0  0  0  0  0
  -20.9314    3.4697  -14.7056 N   0  0  0  0  0  0  0  0  0  0  0  0
  -20.2052    2.4488  -15.1875 C   0  0  0  0  0  0  0  0  0  0  0  0
  -20.6185    1.1303  -15.0395 C   0  0  0  0  0  0  0  0  0  0  0  0
  -19.0040    2.7149  -15.8672 N   0  0  0  0  0  0  0  0  0  0  0  0
  -17.7566    2.4260  -15.3495 C   0  0  0  0  0  0  0  0  0  0  0  0
  -17.4957    1.9158  -14.2689 O   0  0  0  0  0  0  0  0  0  0  0  0
  -19.0672    3.1507  -16.7738 H   0  0  0  0  0  0  0  0  0  0  0  0
  -16.6170    2.8046  -16.2466 C   0  0  0  0  0  0  0  0  0  0  0  0
  -15.2521    3.0458  -15.6354 C   0  0  0  0  0  0  0  0  0  0  0  0
  -16.0466    4.2065  -16.1597 C   0  0  0  0  0  0  0  0  0  0  0  0
 24 25  3  0  0  0
 25 14  1  0  0  0
 14 15  1  0  0  0
 14 19  2  0  0  0
 15 16  2  0  0  0
 16 17  1  0  0  0
 17  8  1  0  0  0
 17 18  2  0  0  0
  8  9  1  0  0  0
  8 12  1  0  0  0
  9 10  2  0  0  0
  9 11  1  0  0  0
 11  1  1  0  0  0
 11 13  1  0  0  0
  1  2  1  0  0  0
  1  7  2  0  0  0
  2  3  2  0  0  0
  3  4  1  0  0  0
  4 26  1  0  0  0
  4  5  2  0  0  0
 26 27  1  0  0  0
 27 28  1  0  0  0
 27 32  2  0  0  0
 28 29  2  0  0  0
 29 30  1  0  0  0
 30 31  2  0  0  0
 31 33  1  0  0  0
 31 32  1  0  0  0
 33 34  1  0  0  0
 33 36  1  0  0  0
 34 35  2  0  0  0
 34 37  1  0  0  0
 37 38  1  0  0  0
 37 39  1  0  0  0
 38 39  1  0  0  0
  5  6  1  0  0  0
  5  7  1  0  0  0
 18 19  1  0  0  0
 19 20  1  0  0  0
 20 21  1  0  0  0
 20 22  1  0  0  0
 20 23  1  0  0  0
M  END
> <minimizedAffinity>
-11.88136

$$$$
