CHEMBL1084634


 34 37  0  0  0  0  0  0  0  0999 V2000
  -28.1809   -2.6121   -8.3896 C   0  0  0  0  0  0  0  0  0  0  0  0
  -28.3312   -3.9876   -8.1899 C   0  0  0  0  0  0  0  0  0  0  0  0
  -28.4780   -4.5236   -6.9214 C   0  0  0  0  0  0  0  0  0  0  0  0
  -28.3741   -3.7107   -5.7971 C   0  0  0  0  0  0  0  0  0  0  0  0
  -28.2140   -2.3136   -5.9456 C   0  0  0  0  0  0  0  0  0  0  0  0
  -28.1800   -1.4646   -4.8168 C   0  0  0  0  0  0  0  0  0  0  0  0
  -28.0321   -0.0853   -4.9384 C   0  0  0  0  0  0  0  0  0  0  0  0
  -27.8995    0.4775   -6.1972 C   0  0  0  0  0  0  0  0  0  0  0  0
  -27.9290   -0.3381   -7.3345 C   0  0  0  0  0  0  0  0  0  0  0  0
  -28.0993   -1.7452   -7.2536 C   0  0  0  0  0  0  0  0  0  0  0  0
  -27.2246   -1.2360  -11.6402 N   0  0  0  0  0  0  0  0  0  0  0  0
  -26.9793   -1.7155  -10.3712 C   0  0  0  0  0  0  0  0  0  0  0  0
  -25.8373   -1.7972   -9.9387 O   0  0  0  0  0  0  0  0  0  0  0  0
  -28.1362   -2.1045   -9.7215 N   0  0  0  0  0  0  0  0  0  0  0  0
  -28.1323   -0.8366  -11.8251 H   0  0  0  0  0  0  0  0  0  0  0  0
  -28.9208   -2.2889  -10.3223 H   0  0  0  0  0  0  0  0  0  0  0  0
  -25.8979   -1.6697  -13.6789 C   0  0  0  0  0  0  0  0  0  0  0  0
  -26.1062   -0.7924  -12.4560 C   0  0  0  0  0  0  0  0  0  0  0  0
  -28.4931   -4.2292   -4.5157 O   0  0  0  0  0  0  0  0  0  0  0  0
  -29.7613   -4.5511   -4.0387 C   0  0  0  0  0  0  0  0  0  0  0  0
  -30.5030   -3.5351   -3.5141 N   0  0  0  0  0  0  0  0  0  0  0  0
  -31.7188   -3.8315   -3.0238 C   0  0  0  0  0  0  0  0  0  0  0  0
  -32.2642   -5.0950   -3.0761 C   0  0  0  0  0  0  0  0  0  0  0  0
  -31.5104   -6.1111   -3.6622 C   0  0  0  0  0  0  0  0  0  0  0  0
  -30.2131   -5.8736   -4.1607 C   0  0  0  0  0  0  0  0  0  0  0  0
  -29.4381   -6.9870   -4.7559 C   0  0  0  0  0  0  0  0  0  0  0  0
  -29.8997   -7.7833   -5.7837 C   0  0  0  0  0  0  0  0  0  0  0  0
  -29.0517   -8.7750   -6.2142 C   0  0  0  0  0  0  0  0  0  0  0  0
  -27.8336   -8.9787   -5.6982 N   0  0  0  0  0  0  0  0  0  0  0  0
  -27.4396   -8.1597   -4.7206 C   0  0  0  0  0  0  0  0  0  0  0  0
  -28.1950   -7.1641   -4.2406 N   0  0  0  0  0  0  0  0  0  0  0  0
  -26.2159   -8.3185   -4.1297 N   0  0  0  0  0  0  0  0  0  0  0  0
  -25.3707   -9.4514   -4.3807 C   0  0  0  0  0  0  0  0  0  0  0  0
  -25.8435   -7.4757   -3.7206 H   0  0  0  0  0  0  0  0  0  0  0  0
 17 18  1  0  0  0
 18 11  1  0  0  0
 11 12  1  0  0  0
 11 15  1  0  0  0
 12 13  2  0  0  0
 12 14  1  0  0  0
 14  1  1  0  0  0
 14 16  1  0  0  0
  1  2  1  0  0  0
  1 10  2  0  0  0
  2  3  2  0  0  0
  3  4  1  0  0  0
  4 19  1  0  0  0
  4  5  2  0  0  0
 19 20  1  0  0  0
 20 21  1  0  0  0
 20 25  2  0  0  0
 21 22  2  0  0  0
 22 23  1  0  0  0
 23 24  2  0  0  0
 24 25  1  0  0  0
 25 26  1  0  0  0
 26 27  1  0  0  0
 26 31  2  0  0  0
 27 28  2  0  0  0
 28 29  1  0  0  0
 29 30  2  0  0  0
 30 32  1  0  0  0
 30 31  1  0  0  0
 32 33  1  0  0  0
 32 34  1  0  0  0
  5  6  1  0  0  0
  5 10  1  0  0  0
  6  7  2  0  0  0
  7  8  1  0  0  0
  8  9  2  0  0  0
  9 10  1  0  0  0
M  END
> <minimizedAffinity>
-9.72373

$$$$
