CHEMBL1934320


 43 47  0  0  0  0  0  0  0  0999 V2000
  -23.5708   -0.4112  -13.6750 C   0  0  0  0  0  0  0  0  0  0  0  0
  -23.9196    0.1340  -12.4361 C   0  0  0  0  0  0  0  0  0  0  0  0
  -25.1272   -0.2109  -11.8135 C   0  0  0  0  0  0  0  0  0  0  0  0
  -26.0551   -1.0424  -12.4538 C   0  0  0  0  0  0  0  0  0  0  0  0
  -25.7464   -1.5202  -13.7327 C   0  0  0  0  0  0  0  0  0  0  0  0
  -24.5107   -1.2231  -14.3211 C   0  0  0  0  0  0  0  0  0  0  0  0
  -22.3190   -0.1168  -14.2584 N   0  0  0  0  0  0  0  0  0  0  0  0
  -22.1297   -0.6538  -15.0945 H   0  0  0  0  0  0  0  0  0  0  0  0
  -17.6696    1.6206  -15.3591 C   0  0  0  0  0  0  0  0  0  0  0  0
  -18.2311    0.3533  -15.4050 C   0  0  0  0  0  0  0  0  0  0  0  0
  -19.5885    0.1939  -15.1524 C   0  0  0  0  0  0  0  0  0  0  0  0
  -20.3940    1.2838  -14.7889 C   0  0  0  0  0  0  0  0  0  0  0  0
  -21.7267    1.1761  -14.3641 C   0  0  0  0  0  0  0  0  0  0  0  0
  -22.4576    2.2536  -14.0397 N   0  0  0  0  0  0  0  0  0  0  0  0
  -21.8448    3.4440  -14.1228 C   0  0  0  0  0  0  0  0  0  0  0  0
  -20.5792    3.6548  -14.4575 N   0  0  0  0  0  0  0  0  0  0  0  0
  -19.8355    2.5834  -14.7620 C   0  0  0  0  0  0  0  0  0  0  0  0
  -18.4841    2.7221  -15.0671 C   0  0  0  0  0  0  0  0  0  0  0  0
  -16.3384    1.8637  -15.5969 O   0  0  0  0  0  0  0  0  0  0  0  0
  -15.4641    0.8060  -15.1738 C   0  0  0  0  0  0  0  0  0  0  0  0
  -13.6219   -2.9734  -13.1960 C   0  0  0  0  0  0  0  0  0  0  0  0
  -13.9200   -1.5675  -12.9234 N   0  0  0  0  0  0  0  0  0  0  0  0
  -13.1664   -0.7105  -13.8511 C   0  0  0  0  0  0  0  0  0  0  0  0
  -13.4769    0.7715  -13.6260 C   0  0  0  0  0  0  0  0  0  0  0  0
  -14.9786    1.0442  -13.7441 C   0  0  0  0  0  0  0  0  0  0  0  0
  -15.7228    0.1329  -12.7586 C   0  0  0  0  0  0  0  0  0  0  0  0
  -15.3704   -1.3424  -12.9781 C   0  0  0  0  0  0  0  0  0  0  0  0
  -27.3017   -1.5092  -11.7390 C   0  0  0  0  0  0  0  0  0  0  0  0
  -27.1736   -1.8337  -10.2575 C   0  0  0  0  0  0  0  0  0  0  0  0
  -26.0529   -1.8925   -9.7461 O   0  0  0  0  0  0  0  0  0  0  0  0
  -28.3384   -2.1595   -9.5720 N   0  0  0  0  0  0  0  0  0  0  0  0
  -29.1259   -2.4669  -10.1316 H   0  0  0  0  0  0  0  0  0  0  0  0
  -28.2628   -2.5965   -8.2294 C   0  0  0  0  0  0  0  0  0  0  0  0
  -27.9438   -1.6925   -7.2202 C   0  0  0  0  0  0  0  0  0  0  0  0
  -27.9375   -2.1181   -5.8880 C   0  0  0  0  0  0  0  0  0  0  0  0
  -28.2503   -3.4393   -5.5522 C   0  0  0  0  0  0  0  0  0  0  0  0
  -28.1128   -3.8546   -3.8823 Cl  0  0  0  0  0  0  0  0  0  0  0  0
  -28.6273   -4.3488   -6.5458 C   0  0  0  0  0  0  0  0  0  0  0  0
  -28.5707   -3.9229   -7.8937 C   0  0  0  0  0  0  0  0  0  0  0  0
  -29.1834   -5.7177   -6.2471 C   0  0  0  0  0  0  0  0  0  0  0  0
  -30.2388   -5.7558   -5.3905 F   0  0  0  0  0  0  0  0  0  0  0  0
  -29.6341   -6.3347   -7.3783 F   0  0  0  0  0  0  0  0  0  0  0  0
  -28.2539   -6.5624   -5.7172 F   0  0  0  0  0  0  0  0  0  0  0  0
 21 22  1  0  0  0
 22 23  1  0  0  0
 22 27  1  0  0  0
 23 24  1  0  0  0
 24 25  1  0  0  0
 25 20  1  0  0  0
 25 26  1  0  0  0
 20 19  1  0  0  0
 19  9  1  0  0  0
  9 10  1  0  0  0
  9 18  2  0  0  0
 10 11  2  0  0  0
 11 12  1  0  0  0
 12 13  1  0  0  0
 12 17  2  0  0  0
 13  7  1  0  0  0
 13 14  2  0  0  0
  7  1  1  0  0  0
  7  8  1  0  0  0
  1  2  1  0  0  0
  1  6  2  0  0  0
  2  3  2  0  0  0
  3  4  1  0  0  0
  4 28  1  0  0  0
  4  5  2  0  0  0
 28 29  1  0  0  0
 29 30  2  0  0  0
 29 31  1  0  0  0
 31 33  1  0  0  0
 31 32  1  0  0  0
 33 34  1  0  0  0
 33 39  2  0  0  0
 34 35  2  0  0  0
 35 36  1  0  0  0
 36 37  1  0  0  0
 36 38  2  0  0  0
 38 40  1  0  0  0
 38 39  1  0  0  0
 40 41  1  0  0  0
 40 42  1  0  0  0
 40 43  1  0  0  0
  5  6  1  0  0  0
 14 15  1  0  0  0
 15 16  2  0  0  0
 16 17  1  0  0  0
 17 18  1  0  0  0
 26 27  1  0  0  0
M  END
> <minimizedAffinity>
-12.18884

$$$$
