CHEMBL3633294


 32 35  0  0  0  0  0  0  0  0999 V2000
  -29.9287   -6.1558   -6.6213 C   0  0  0  0  0  0  0  0  0  0  0  0
  -29.5235   -6.1000   -5.2719 C   0  0  0  0  0  0  0  0  0  0  0  0
  -28.8999   -4.9783   -4.7446 C   0  0  0  0  0  0  0  0  0  0  0  0
  -28.6854   -3.8739   -5.5556 C   0  0  0  0  0  0  0  0  0  0  0  0
  -29.0124   -3.8974   -6.9158 C   0  0  0  0  0  0  0  0  0  0  0  0
  -29.6243   -5.0472   -7.4383 C   0  0  0  0  0  0  0  0  0  0  0  0
  -27.7359   -7.6289   -8.7550 N   0  0  0  0  0  0  0  0  0  0  0  0
  -28.8251   -8.4138   -8.8142 C   0  0  0  0  0  0  0  0  0  0  0  0
  -28.8420   -9.4653   -9.6276 N   0  0  0  0  0  0  0  0  0  0  0  0
  -30.0606   -9.9819   -9.4546 N   0  0  0  0  0  0  0  0  0  0  0  0
  -30.8338   -9.3150   -8.5450 C   0  0  0  0  0  0  0  0  0  0  0  0
  -32.1430   -9.5701   -8.1269 C   0  0  0  0  0  0  0  0  0  0  0  0
  -32.6813   -8.7213   -7.1698 C   0  0  0  0  0  0  0  0  0  0  0  0
  -31.9327   -7.6598   -6.6703 C   0  0  0  0  0  0  0  0  0  0  0  0
  -30.6120   -7.3715   -7.1118 C   0  0  0  0  0  0  0  0  0  0  0  0
  -30.0474   -8.2546   -8.0791 C   0  0  0  0  0  0  0  0  0  0  0  0
  -27.0550   -7.8136   -9.4847 H   0  0  0  0  0  0  0  0  0  0  0  0
  -27.8665   -6.6369   -8.5945 H   0  0  0  0  0  0  0  0  0  0  0  0
  -30.3160  -10.8000   -9.9947 H   0  0  0  0  0  0  0  0  0  0  0  0
  -28.7353   -2.8063   -7.7820 N   0  0  0  0  0  0  0  0  0  0  0  0
  -27.8407   -2.8870   -8.8373 C   0  0  0  0  0  0  0  0  0  0  0  0
  -27.2010   -3.8941   -9.1167 O   0  0  0  0  0  0  0  0  0  0  0  0
  -27.7424   -1.7096   -9.5656 N   0  0  0  0  0  0  0  0  0  0  0  0
  -29.3916   -2.0379   -7.7856 H   0  0  0  0  0  0  0  0  0  0  0  0
  -27.9260   -0.8483   -9.0684 H   0  0  0  0  0  0  0  0  0  0  0  0
  -26.9974   -1.6207  -10.7742 C   0  0  0  0  0  0  0  0  0  0  0  0
  -27.6081   -1.6953  -12.0361 C   0  0  0  0  0  0  0  0  0  0  0  0
  -26.8572   -1.7190  -13.2105 C   0  0  0  0  0  0  0  0  0  0  0  0
  -25.4738   -1.6333  -13.1435 C   0  0  0  0  0  0  0  0  0  0  0  0
  -24.8570   -1.4966  -11.8999 C   0  0  0  0  0  0  0  0  0  0  0  0
  -23.1410   -1.3637  -11.8263 Cl  0  0  0  0  0  0  0  0  0  0  0  0
  -25.6061   -1.4825  -10.7164 C   0  0  0  0  0  0  0  0  0  0  0  0
  7  8  1  0  0  0
  7 17  1  0  0  0
  7 18  1  0  0  0
  8  9  2  0  0  0
  8 16  1  0  0  0
  9 10  1  0  0  0
 10 11  1  0  0  0
 10 19  1  0  0  0
 11 12  1  0  0  0
 11 16  2  0  0  0
 12 13  2  0  0  0
 13 14  1  0  0  0
 14 15  2  0  0  0
 15  1  1  0  0  0
 15 16  1  0  0  0
  1  2  1  0  0  0
  1  6  2  0  0  0
  2  3  2  0  0  0
  3  4  1  0  0  0
  4  5  2  0  0  0
  5 20  1  0  0  0
  5  6  1  0  0  0
 20 21  1  0  0  0
 20 24  1  0  0  0
 21 22  2  0  0  0
 21 23  1  0  0  0
 23 26  1  0  0  0
 23 25  1  0  0  0
 26 27  1  0  0  0
 26 32  2  0  0  0
 27 28  2  0  0  0
 28 29  1  0  0  0
 29 30  2  0  0  0
 30 31  1  0  0  0
 30 32  1  0  0  0
M  END
> <minimizedAffinity>
-10.05880

$$$$
