CHEMBL3676362


 36 38  0  0  0  0  0  0  0  0999 V2000
  -28.1740   -9.0611   -7.3818 C   0  0  0  0  0  0  0  0  0  0  0  0
  -28.8039   -7.8791   -6.9957 C   0  0  0  0  0  0  0  0  0  0  0  0
  -29.0932   -7.6115   -5.6472 C   0  0  0  0  0  0  0  0  0  0  0  0
  -29.7961   -6.4860   -5.2306 C   0  0  0  0  0  0  0  0  0  0  0  0
  -30.0636   -6.2760   -3.9199 N   0  0  0  0  0  0  0  0  0  0  0  0
  -29.6427   -7.2038   -3.0633 C   0  0  0  0  0  0  0  0  0  0  0  0
  -28.9877   -8.3288   -3.3723 N   0  0  0  0  0  0  0  0  0  0  0  0
  -28.7181   -8.5318   -4.6659 C   0  0  0  0  0  0  0  0  0  0  0  0
  -28.0691   -9.7001   -5.0597 C   0  0  0  0  0  0  0  0  0  0  0  0
  -27.7479   -9.9707   -6.4026 C   0  0  0  0  0  0  0  0  0  0  0  0
  -29.0517   -9.9834   -9.4511 C   0  0  0  0  0  0  0  0  0  0  0  0
  -30.0773  -10.4424   -8.9623 O   0  0  0  0  0  0  0  0  0  0  0  0
  -28.0805   -9.2729   -8.7677 N   0  0  0  0  0  0  0  0  0  0  0  0
  -27.2538   -8.9633   -9.2498 H   0  0  0  0  0  0  0  0  0  0  0  0
  -27.4706   -9.9291  -11.3165 C   0  0  0  0  0  0  0  0  0  0  0  0
  -28.7111  -10.1873  -10.8824 C   0  0  0  0  0  0  0  0  0  0  0  0
  -30.3372   -5.5786   -6.1782 N   0  0  0  0  0  0  0  0  0  0  0  0
  -30.5525   -6.0314   -7.0609 H   0  0  0  0  0  0  0  0  0  0  0  0
  -29.9022   -4.2431   -6.3268 C   0  0  0  0  0  0  0  0  0  0  0  0
  -30.2620   -3.2774   -5.3792 C   0  0  0  0  0  0  0  0  0  0  0  0
  -29.7059   -2.0011   -5.4107 C   0  0  0  0  0  0  0  0  0  0  0  0
  -28.7964   -1.6640   -6.4161 C   0  0  0  0  0  0  0  0  0  0  0  0
  -27.9879    0.0507   -6.3021 Br  0  0  0  0  0  0  0  0  0  0  0  0
  -28.4917   -2.5858   -7.4251 C   0  0  0  0  0  0  0  0  0  0  0  0
  -27.4079   -2.2104   -8.7188 Cl  0  0  0  0  0  0  0  0  0  0  0  0
  -29.0573   -3.8644   -7.3763 C   0  0  0  0  0  0  0  0  0  0  0  0
  -28.7585   -4.7752   -8.3201 F   0  0  0  0  0  0  0  0  0  0  0  0
  -27.1745  -11.2019   -6.5957 O   0  0  0  0  0  0  0  0  0  0  0  0
  -25.8238  -11.3322   -6.1645 C   0  0  0  0  0  0  0  0  0  0  0  0
  -24.8787  -10.4298   -6.9733 C   0  0  0  0  0  0  0  0  0  0  0  0
  -24.0135   -9.6315   -6.0929 N   0  0  0  0  0  0  0  0  0  0  0  0
  -24.5801   -9.1302   -5.4069 H   0  0  0  0  0  0  0  0  0  0  0  0
  -23.0406  -10.4765   -5.3940 C   0  0  0  0  0  0  0  0  0  0  0  0
  -21.9347  -10.8844   -6.3585 C   0  0  0  0  0  0  0  0  0  0  0  0
  -21.4257  -12.3016   -6.2982 C   0  0  0  0  0  0  0  0  0  0  0  0
  -21.4367  -10.0682   -7.1378 O   0  0  0  0  0  0  0  0  0  0  0  0
 15 16  2  0  0  0
 16 11  1  0  0  0
 11 12  2  0  0  0
 11 13  1  0  0  0
 13  1  1  0  0  0
 13 14  1  0  0  0
  1  2  1  0  0  0
  1 10  2  0  0  0
  2  3  2  0  0  0
  3  4  1  0  0  0
  3  8  1  0  0  0
  4 17  1  0  0  0
  4  5  2  0  0  0
 17 19  1  0  0  0
 17 18  1  0  0  0
 19 20  1  0  0  0
 19 26  2  0  0  0
 20 21  2  0  0  0
 21 22  1  0  0  0
 22 23  1  0  0  0
 22 24  2  0  0  0
 24 25  1  0  0  0
 24 26  1  0  0  0
 26 27  1  0  0  0
  5  6  1  0  0  0
  6  7  2  0  0  0
  7  8  1  0  0  0
  8  9  2  0  0  0
  9 10  1  0  0  0
 10 28  1  0  0  0
 28 29  1  0  0  0
 29 30  1  0  0  0
 30 31  1  0  0  0
 31 33  1  0  0  0
 31 32  1  0  0  0
 33 34  1  0  0  0
 34 35  1  0  0  0
 34 36  2  0  0  0
M  END
> <minimizedAffinity>
-7.78549

$$$$
