CHEMBL219774


 40 43  0  0  0  0  0  0  0  0999 V2000
  -27.2739   12.3891  -13.5616 C   0  0  0  0  0  0  0  0  0  0  0  0
  -27.6131   12.5009  -14.9067 C   0  0  0  0  0  0  0  0  0  0  0  0
  -26.6771   12.2538  -15.9099 C   0  0  0  0  0  0  0  0  0  0  0  0
  -25.3486   11.8617  -15.6202 C   0  0  0  0  0  0  0  0  0  0  0  0
  -24.9900   11.7229  -14.2381 C   0  0  0  0  0  0  0  0  0  0  0  0
  -23.8288   11.3788  -13.4590 C   0  0  0  0  0  0  0  0  0  0  0  0
  -22.6023   11.0697  -13.8991 N   0  0  0  0  0  0  0  0  0  0  0  0
  -24.0623   11.3921  -12.1534 N   0  0  0  0  0  0  0  0  0  0  0  0
  -25.3512   11.7083  -12.0675 N   0  0  0  0  0  0  0  0  0  0  0  0
  -25.9667   11.9760  -13.2596 C   0  0  0  0  0  0  0  0  0  0  0  0
  -22.4641   10.6367  -14.8039 H   0  0  0  0  0  0  0  0  0  0  0  0
  -21.9444   10.7526  -13.1961 H   0  0  0  0  0  0  0  0  0  0  0  0
  -25.7515   11.7349  -11.1412 H   0  0  0  0  0  0  0  0  0  0  0  0
  -24.3917   11.6062  -16.7159 C   0  0  0  0  0  0  0  0  0  0  0  0
  -23.8167   12.6585  -17.4279 C   0  0  0  0  0  0  0  0  0  0  0  0
  -22.8208   12.4429  -18.3836 C   0  0  0  0  0  0  0  0  0  0  0  0
  -22.4361   11.1524  -18.7503 C   0  0  0  0  0  0  0  0  0  0  0  0
  -23.0724   10.0796  -18.1276 C   0  0  0  0  0  0  0  0  0  0  0  0
  -24.0247   10.3044  -17.1120 C   0  0  0  0  0  0  0  0  0  0  0  0
  -21.4699   10.8970  -19.7533 N   0  0  0  0  0  0  0  0  0  0  0  0
  -20.0993   11.0195  -19.5825 C   0  0  0  0  0  0  0  0  0  0  0  0
  -19.5458   11.2122  -18.5004 O   0  0  0  0  0  0  0  0  0  0  0  0
  -19.4043   10.9422  -20.7861 N   0  0  0  0  0  0  0  0  0  0  0  0
  -21.7838   10.4472  -20.6016 H   0  0  0  0  0  0  0  0  0  0  0  0
  -19.8971   11.3146  -21.5772 H   0  0  0  0  0  0  0  0  0  0  0  0
  -17.9902   11.0669  -20.7940 C   0  0  0  0  0  0  0  0  0  0  0  0
  -17.3444   12.1296  -21.4285 C   0  0  0  0  0  0  0  0  0  0  0  0
  -15.9554   12.1835  -21.4968 C   0  0  0  0  0  0  0  0  0  0  0  0
  -15.1962   11.1653  -20.9266 C   0  0  0  0  0  0  0  0  0  0  0  0
  -15.8200   10.1033  -20.2602 C   0  0  0  0  0  0  0  0  0  0  0  0
  -15.0075    8.9799  -19.6907 C   0  0  0  0  0  0  0  0  0  0  0  0
  -17.2251   10.0666  -20.1803 C   0  0  0  0  0  0  0  0  0  0  0  0
  -28.3076   12.6480  -12.6779 O   0  0  0  0  0  0  0  0  0  0  0  0
  -29.6123   12.2417  -13.0990 C   0  0  0  0  0  0  0  0  0  0  0  0
  -30.0160   10.9813  -12.3219 C   0  0  0  0  0  0  0  0  0  0  0  0
  -31.4202   10.9529  -11.8593 N   0  0  0  0  0  0  0  0  0  0  0  0
  -32.1452   12.2425   -9.8094 C   0  0  0  0  0  0  0  0  0  0  0  0
  -31.7664   12.2676  -11.2870 C   0  0  0  0  0  0  0  0  0  0  0  0
  -32.3790   10.4675  -12.8629 C   0  0  0  0  0  0  0  0  0  0  0  0
  -33.0701    9.1441  -12.5521 C   0  0  0  0  0  0  0  0  0  0  0  0
 37 38  1  0  0  0
 38 36  1  0  0  0
 36 39  1  0  0  0
 36 35  1  0  0  0
 39 40  1  0  0  0
 35 34  1  0  0  0
 34 33  1  0  0  0
 33  1  1  0  0  0
  1  2  1  0  0  0
  1 10  2  0  0  0
  2  3  2  0  0  0
  3  4  1  0  0  0
  4 14  1  0  0  0
  4  5  2  0  0  0
 14 15  1  0  0  0
 14 19  2  0  0  0
 15 16  2  0  0  0
 16 17  1  0  0  0
 17 20  1  0  0  0
 17 18  2  0  0  0
 20 21  1  0  0  0
 20 24  1  0  0  0
 21 22  2  0  0  0
 21 23  1  0  0  0
 23 26  1  0  0  0
 23 25  1  0  0  0
 26 27  1  0  0  0
 26 32  2  0  0  0
 27 28  2  0  0  0
 28 29  1  0  0  0
 29 30  2  0  0  0
 30 31  1  0  0  0
 30 32  1  0  0  0
 18 19  1  0  0  0
  5  6  1  0  0  0
  5 10  1  0  0  0
  6  7  1  0  0  0
  6  8  2  0  0  0
  7 11  1  0  0  0
  7 12  1  0  0  0
  8  9  1  0  0  0
  9 10  1  0  0  0
  9 13  1  0  0  0
M  END
> <minimizedAffinity>
-6.19870

$$$$
