CHEMBL3906367


 35 38  0  0  0  0  0  0  0  0999 V2000
  -29.6059   -3.9298   -4.1838 C   0  0  0  0  0  0  0  0  0  0  0  0
  -30.6984   -3.6144   -3.3738 C   0  0  0  0  0  0  0  0  0  0  0  0
  -31.7548   -4.5001   -3.2894 C   0  0  0  0  0  0  0  0  0  0  0  0
  -31.8645   -5.6409   -3.9893 N   0  0  0  0  0  0  0  0  0  0  0  0
  -30.8479   -5.9033   -4.8525 C   0  0  0  0  0  0  0  0  0  0  0  0
  -30.7977   -7.0209   -5.7316 C   0  0  0  0  0  0  0  0  0  0  0  0
  -29.6635   -7.0351   -6.5165 C   0  0  0  0  0  0  0  0  0  0  0  0
  -28.6410   -5.7133   -6.1513 S   0  0  0  0  0  0  0  0  0  0  0  0
  -29.7241   -5.0865   -4.9737 C   0  0  0  0  0  0  0  0  0  0  0  0
  -29.3235   -8.0212   -7.5355 C   0  0  0  0  0  0  0  0  0  0  0  0
  -28.8185   -7.7177   -8.6093 O   0  0  0  0  0  0  0  0  0  0  0  0
  -29.6129   -9.3315   -7.2109 N   0  0  0  0  0  0  0  0  0  0  0  0
  -30.0348   -9.5121   -6.3075 H   0  0  0  0  0  0  0  0  0  0  0  0
  -29.3700  -10.4411   -8.1039 C   0  0  0  0  0  0  0  0  0  0  0  0
  -30.5505  -11.4038   -8.1474 C   0  0  0  0  0  0  0  0  0  0  0  0
  -31.8624  -10.7380   -7.7545 C   0  0  0  0  0  0  0  0  0  0  0  0
  -32.2339   -9.7930   -8.7503 O   0  0  0  0  0  0  0  0  0  0  0  0
  -31.5991   -9.0566   -8.7041 H   0  0  0  0  0  0  0  0  0  0  0  0
  -28.4732   -3.1472   -4.2962 O   0  0  0  0  0  0  0  0  0  0  0  0
  -27.9034   -0.9620   -7.1748 C   0  0  0  0  0  0  0  0  0  0  0  0
  -28.6103    0.1784   -6.7854 C   0  0  0  0  0  0  0  0  0  0  0  0
  -29.1904    0.2632   -5.5211 C   0  0  0  0  0  0  0  0  0  0  0  0
  -29.0926   -0.8072   -4.6395 C   0  0  0  0  0  0  0  0  0  0  0  0
  -28.5096   -2.0028   -5.0642 C   0  0  0  0  0  0  0  0  0  0  0  0
  -27.8823   -2.0659   -6.3150 C   0  0  0  0  0  0  0  0  0  0  0  0
  -27.5271   -1.8722   -9.4788 C   0  0  0  0  0  0  0  0  0  0  0  0
  -28.4805   -2.6450   -9.5191 O   0  0  0  0  0  0  0  0  0  0  0  0
  -27.2140   -1.0491   -8.4033 N   0  0  0  0  0  0  0  0  0  0  0  0
  -26.4670   -0.3848   -8.5755 H   0  0  0  0  0  0  0  0  0  0  0  0
  -28.1429   -1.9686  -12.6809 C   0  0  0  0  0  0  0  0  0  0  0  0
  -26.8493   -1.7575  -11.9801 C   0  0  0  0  0  0  0  0  0  0  0  0
  -25.5807   -1.5528  -12.5892 C   0  0  0  0  0  0  0  0  0  0  0  0
  -24.6754   -1.3960  -11.5689 C   0  0  0  0  0  0  0  0  0  0  0  0
  -25.2933   -1.4864  -10.3659 O   0  0  0  0  0  0  0  0  0  0  0  0
  -26.6243   -1.7167  -10.6085 C   0  0  0  0  0  0  0  0  0  0  0  0
 30 31  1  0  0  0
 31 32  1  0  0  0
 31 35  2  0  0  0
 32 33  2  0  0  0
 33 34  1  0  0  0
 34 35  1  0  0  0
 35 26  1  0  0  0
 26 27  2  0  0  0
 26 28  1  0  0  0
 28 20  1  0  0  0
 28 29  1  0  0  0
 20 21  1  0  0  0
 20 25  2  0  0  0
 21 22  2  0  0  0
 22 23  1  0  0  0
 23 24  2  0  0  0
 24 19  1  0  0  0
 24 25  1  0  0  0
 19  1  1  0  0  0
  1  2  1  0  0  0
  1  9  2  0  0  0
  2  3  2  0  0  0
  3  4  1  0  0  0
  4  5  2  0  0  0
  5  6  1  0  0  0
  5  9  1  0  0  0
  6  7  2  0  0  0
  7 10  1  0  0  0
  7  8  1  0  0  0
 10 11  2  0  0  0
 10 12  1  0  0  0
 12 14  1  0  0  0
 12 13  1  0  0  0
 14 15  1  0  0  0
 15 16  1  0  0  0
 16 17  1  0  0  0
 17 18  1  0  0  0
  8  9  1  0  0  0
M  END
> <minimizedAffinity>
-9.24989

$$$$
