CHEMBL401876


 34 39  0  0  0  0  0  0  0  0999 V2000
  -14.6430   -2.6337  -12.5379 C   0  0  0  0  0  0  0  0  0  0  0  0
  -13.4230   -2.9568  -13.1479 C   0  0  0  0  0  0  0  0  0  0  0  0
  -12.8578   -2.1494  -14.1240 C   0  0  0  0  0  0  0  0  0  0  0  0
  -13.5513   -0.9886  -14.4955 C   0  0  0  0  0  0  0  0  0  0  0  0
  -14.8681   -0.7338  -14.0467 C   0  0  0  0  0  0  0  0  0  0  0  0
  -15.4034   -1.5458  -13.0202 C   0  0  0  0  0  0  0  0  0  0  0  0
  -15.2248    0.3519  -14.8339 C   0  0  0  0  0  0  0  0  0  0  0  0
  -16.4221    1.0934  -14.9036 C   0  0  0  0  0  0  0  0  0  0  0  0
  -16.3990    2.2141  -15.8796 C   0  0  0  0  0  0  0  0  0  0  0  0
  -15.1278    2.7150  -16.3013 C   0  0  0  0  0  0  0  0  0  0  0  0
  -14.2674    2.4309  -15.2623 C   0  0  0  0  0  0  0  0  0  0  0  0
  -14.1131    1.0534  -15.1918 C   0  0  0  0  0  0  0  0  0  0  0  0
  -13.1546    0.0642  -15.3109 N   0  0  0  0  0  0  0  0  0  0  0  0
  -13.3292    3.5708  -14.9150 C   0  0  0  0  0  0  0  0  0  0  0  0
  -12.2164    3.4503  -15.8986 C   0  0  0  0  0  0  0  0  0  0  0  0
  -12.8528    3.3145  -17.2270 C   0  0  0  0  0  0  0  0  0  0  0  0
  -12.1058    3.3143  -18.3109 N   0  0  0  0  0  0  0  0  0  0  0  0
  -12.9836    3.7731  -19.2013 N   0  0  0  0  0  0  0  0  0  0  0  0
  -12.3544    4.7038  -20.1115 C   0  0  0  0  0  0  0  0  0  0  0  0
  -14.3228    3.5576  -18.8100 C   0  0  0  0  0  0  0  0  0  0  0  0
  -14.2872    3.1460  -17.4830 C   0  0  0  0  0  0  0  0  0  0  0  0
  -17.5413    3.0337  -15.4909 C   0  0  0  0  0  0  0  0  0  0  0  0
  -17.9362    4.1272  -15.8818 O   0  0  0  0  0  0  0  0  0  0  0  0
  -18.1162    2.4021  -14.3754 N   0  0  0  0  0  0  0  0  0  0  0  0
  -17.4638    1.2081  -13.8862 C   0  0  0  0  0  0  0  0  0  0  0  0
  -18.7308    2.9456  -13.7844 H   0  0  0  0  0  0  0  0  0  0  0  0
  -14.4052   -3.3379  -10.2235 N   0  0  0  0  0  0  0  0  0  0  0  0
  -15.0893   -3.4166  -11.3313 C   0  0  0  0  0  0  0  0  0  0  0  0
  -16.3216   -4.3031  -11.4893 C   0  0  0  0  0  0  0  0  0  0  0  0
  -13.9811   -5.0923   -8.7851 C   0  0  0  0  0  0  0  0  0  0  0  0
  -14.9582   -4.1665   -9.2349 O   0  0  0  0  0  0  0  0  0  0  0  0
  -12.1384   -0.0147  -16.3737 C   0  0  0  0  0  0  0  0  0  0  0  0
  -10.6966   -0.0372  -15.8654 C   0  0  0  0  0  0  0  0  0  0  0  0
  -12.3274   -1.1891  -17.3557 C   0  0  0  0  0  0  0  0  0  0  0  0
 30 31  1  0  0  0
 31 27  1  0  0  0
 27 28  2  0  0  0
 28 29  1  0  0  0
 28  1  1  0  0  0
  1  2  1  0  0  0
  1  6  2  0  0  0
  2  3  2  0  0  0
  3  4  1  0  0  0
  4  5  2  0  0  0
  4 13  1  0  0  0
  5  6  1  0  0  0
  5  7  1  0  0  0
  7  8  1  0  0  0
  7 12  2  0  0  0
  8  9  2  0  0  0
  8 25  1  0  0  0
  9 10  1  0  0  0
  9 22  1  0  0  0
 10 11  2  0  0  0
 10 21  1  0  0  0
 11 12  1  0  0  0
 11 14  1  0  0  0
 12 13  1  0  0  0
 13 32  1  0  0  0
 32 33  1  0  0  0
 32 34  1  0  0  0
 14 15  1  0  0  0
 15 16  1  0  0  0
 16 17  2  0  0  0
 16 21  1  0  0  0
 17 18  1  0  0  0
 18 19  1  0  0  0
 18 20  1  0  0  0
 20 21  2  0  0  0
 22 23  2  0  0  0
 22 24  1  0  0  0
 24 25  1  0  0  0
 24 26  1  0  0  0
M  END
> <minimizedAffinity>
-7.66271

$$$$
