CHEMBL2337366


 28 31  0  0  0  0  0  0  0  0999 V2000
  -29.0180   -6.5454   -6.4396 C   0  0  0  0  0  0  0  0  0  0  0  0
  -30.3248   -6.6714   -6.0568 N   0  0  0  0  0  0  0  0  0  0  0  0
  -30.6042   -6.3743   -4.7823 C   0  0  0  0  0  0  0  0  0  0  0  0
  -31.9292   -6.2770   -4.4101 N   0  0  0  0  0  0  0  0  0  0  0  0
  -29.6907   -6.1301   -3.8375 N   0  0  0  0  0  0  0  0  0  0  0  0
  -28.5116   -5.7587   -4.3731 C   0  0  0  0  0  0  0  0  0  0  0  0
  -27.6524   -4.8589   -3.7643 N   0  0  0  0  0  0  0  0  0  0  0  0
  -28.1014   -3.6737   -4.3316 C   0  0  0  0  0  0  0  0  0  0  0  0
  -28.3625   -2.4346   -3.7417 C   0  0  0  0  0  0  0  0  0  0  0  0
  -28.9581   -1.4635   -4.5511 C   0  0  0  0  0  0  0  0  0  0  0  0
  -29.1925   -1.7063   -5.9098 C   0  0  0  0  0  0  0  0  0  0  0  0
  -28.9076   -2.9642   -6.4612 C   0  0  0  0  0  0  0  0  0  0  0  0
  -29.1650   -3.2892   -8.1156 Cl  0  0  0  0  0  0  0  0  0  0  0  0
  -28.4168   -4.0323   -5.6625 C   0  0  0  0  0  0  0  0  0  0  0  0
  -28.3063   -5.5320   -5.7420 C   0  0  0  0  0  0  0  0  0  0  0  0
  -32.4929   -6.9778   -4.8642 H   0  0  0  0  0  0  0  0  0  0  0  0
  -31.9968   -6.1730   -3.4092 H   0  0  0  0  0  0  0  0  0  0  0  0
  -26.6595   -5.0302   -3.7868 H   0  0  0  0  0  0  0  0  0  0  0  0
  -28.4702   -7.7699   -6.8773 N   0  0  0  0  0  0  0  0  0  0  0  0
  -27.9431   -8.1814   -6.1139 H   0  0  0  0  0  0  0  0  0  0  0  0
  -27.7113   -9.4351  -10.1309 C   0  0  0  0  0  0  0  0  0  0  0  0
  -28.7798  -10.3109  -10.2408 C   0  0  0  0  0  0  0  0  0  0  0  0
  -29.7736  -10.3157   -9.2621 C   0  0  0  0  0  0  0  0  0  0  0  0
  -29.6951   -9.4621   -8.1557 C   0  0  0  0  0  0  0  0  0  0  0  0
  -28.6196   -8.5905   -8.0056 C   0  0  0  0  0  0  0  0  0  0  0  0
  -27.6529   -8.5524   -9.0380 C   0  0  0  0  0  0  0  0  0  0  0  0
  -27.0565   -9.2414  -12.4098 C   0  0  0  0  0  0  0  0  0  0  0  0
  -26.6808   -9.3471  -11.0361 O   0  0  0  0  0  0  0  0  0  0  0  0
 27 28  1  0  0  0
 28 21  1  0  0  0
 21 22  1  0  0  0
 21 26  2  0  0  0
 22 23  2  0  0  0
 23 24  1  0  0  0
 24 25  2  0  0  0
 25 19  1  0  0  0
 25 26  1  0  0  0
 19  1  1  0  0  0
 19 20  1  0  0  0
  1  2  1  0  0  0
  1 15  2  0  0  0
  2  3  2  0  0  0
  3  4  1  0  0  0
  3  5  1  0  0  0
  4 16  1  0  0  0
  4 17  1  0  0  0
  5  6  2  0  0  0
  6  7  1  0  0  0
  6 15  1  0  0  0
  7  8  1  0  0  0
  7 18  1  0  0  0
  8  9  1  0  0  0
  8 14  2  0  0  0
  9 10  2  0  0  0
 10 11  1  0  0  0
 11 12  2  0  0  0
 12 13  1  0  0  0
 12 14  1  0  0  0
 14 15  1  0  0  0
M  END
> <minimizedAffinity>
-8.49571

$$$$
