CHEMBL597191


 30 33  0  0  0  0  0  0  0  0999 V2000
  -29.1833   -7.6506   -3.8715 C   0  0  0  0  0  0  0  0  0  0  0  0
  -28.7756   -8.5742   -2.9873 N   0  0  0  0  0  0  0  0  0  0  0  0
  -28.4113   -9.7656   -3.4724 C   0  0  0  0  0  0  0  0  0  0  0  0
  -28.4207  -10.0461   -4.8147 C   0  0  0  0  0  0  0  0  0  0  0  0
  -29.0586   -9.1248   -5.6278 C   0  0  0  0  0  0  0  0  0  0  0  0
  -29.4491   -7.9237   -5.1658 N   0  0  0  0  0  0  0  0  0  0  0  0
  -29.0990   -9.3659   -7.0833 C   0  0  0  0  0  0  0  0  0  0  0  0
  -30.3002   -9.6469   -7.7528 C   0  0  0  0  0  0  0  0  0  0  0  0
  -30.3059   -9.9512   -9.1259 C   0  0  0  0  0  0  0  0  0  0  0  0
  -29.1256   -9.8855   -9.8670 C   0  0  0  0  0  0  0  0  0  0  0  0
  -27.9308   -9.5722   -9.2191 C   0  0  0  0  0  0  0  0  0  0  0  0
  -27.9042   -9.4336   -7.8293 C   0  0  0  0  0  0  0  0  0  0  0  0
  -26.6429   -9.5173   -7.2087 N   0  0  0  0  0  0  0  0  0  0  0  0
  -26.3611  -10.3008   -6.1065 C   0  0  0  0  0  0  0  0  0  0  0  0
  -25.1992  -10.4165   -5.7156 O   0  0  0  0  0  0  0  0  0  0  0  0
  -27.5105  -11.0569   -5.4274 C   0  0  0  0  0  0  0  0  0  0  0  0
  -25.8186   -9.2372   -7.7281 H   0  0  0  0  0  0  0  0  0  0  0  0
  -29.1204   -6.3518   -3.3810 N   0  0  0  0  0  0  0  0  0  0  0  0
  -29.1216   -6.3643   -2.3714 H   0  0  0  0  0  0  0  0  0  0  0  0
  -28.9816   -2.5878   -5.2938 C   0  0  0  0  0  0  0  0  0  0  0  0
  -27.8575   -3.0867   -4.6387 C   0  0  0  0  0  0  0  0  0  0  0  0
  -27.9173   -4.3245   -3.9867 C   0  0  0  0  0  0  0  0  0  0  0  0
  -29.0687   -5.1050   -4.0006 C   0  0  0  0  0  0  0  0  0  0  0  0
  -30.2114   -4.5700   -4.6181 C   0  0  0  0  0  0  0  0  0  0  0  0
  -30.1661   -3.3286   -5.2655 C   0  0  0  0  0  0  0  0  0  0  0  0
  -29.0294   -1.4071   -5.9853 O   0  0  0  0  0  0  0  0  0  0  0  0
  -28.2731    0.6353   -4.9904 C   0  0  0  0  0  0  0  0  0  0  0  0
  -29.4593   -0.2690   -5.2352 C   0  0  0  0  0  0  0  0  0  0  0  0
  -28.9912  -10.1460  -11.2021 O   0  0  0  0  0  0  0  0  0  0  0  0
  -27.7250   -9.8725  -11.7953 C   0  0  0  0  0  0  0  0  0  0  0  0
 27 28  1  0  0  0
 28 26  1  0  0  0
 26 20  1  0  0  0
 20 21  1  0  0  0
 20 25  2  0  0  0
 21 22  2  0  0  0
 22 23  1  0  0  0
 23 18  1  0  0  0
 23 24  2  0  0  0
 18  1  1  0  0  0
 18 19  1  0  0  0
  1  2  1  0  0  0
  1  6  2  0  0  0
  2  3  2  0  0  0
  3  4  1  0  0  0
  4  5  2  0  0  0
  4 16  1  0  0  0
  5  6  1  0  0  0
  5  7  1  0  0  0
  7  8  1  0  0  0
  7 12  2  0  0  0
  8  9  2  0  0  0
  9 10  1  0  0  0
 10 29  1  0  0  0
 10 11  2  0  0  0
 29 30  1  0  0  0
 11 12  1  0  0  0
 12 13  1  0  0  0
 13 14  1  0  0  0
 13 17  1  0  0  0
 14 15  2  0  0  0
 14 16  1  0  0  0
 24 25  1  0  0  0
M  END
> <minimizedAffinity>
-8.22671

$$$$
