CHEMBL295528


 47 52  0  0  0  0  0  0  0  0999 V2000
  -29.4140   -4.5054   -6.3927 C   0  0  0  0  0  0  0  0  0  0  0  0
  -29.5556   -5.7730   -6.7947 N   0  0  0  0  0  0  0  0  0  0  0  0
  -30.2098   -6.3681   -5.7924 N   0  0  0  0  0  0  0  0  0  0  0  0
  -30.5736   -5.5060   -4.7942 C   0  0  0  0  0  0  0  0  0  0  0  0
  -31.2983   -5.8002   -3.6956 N   0  0  0  0  0  0  0  0  0  0  0  0
  -31.4700   -4.7105   -2.9296 C   0  0  0  0  0  0  0  0  0  0  0  0
  -31.0274   -3.4561   -3.1530 N   0  0  0  0  0  0  0  0  0  0  0  0
  -30.3167   -3.2142   -4.2734 C   0  0  0  0  0  0  0  0  0  0  0  0
  -29.9189   -1.9025   -4.4687 N   0  0  0  0  0  0  0  0  0  0  0  0
  -30.0590   -4.2755   -5.1479 C   0  0  0  0  0  0  0  0  0  0  0  0
  -30.3975   -1.2778   -3.8335 H   0  0  0  0  0  0  0  0  0  0  0  0
  -29.8830   -1.6017   -5.4335 H   0  0  0  0  0  0  0  0  0  0  0  0
  -27.7945   -1.3413   -7.6065 C   0  0  0  0  0  0  0  0  0  0  0  0
  -28.5403   -2.2574   -6.8503 C   0  0  0  0  0  0  0  0  0  0  0  0
  -28.7398   -3.5756   -7.2735 C   0  0  0  0  0  0  0  0  0  0  0  0
  -28.2602   -3.9711   -8.5096 C   0  0  0  0  0  0  0  0  0  0  0  0
  -27.5123   -3.0812   -9.2643 C   0  0  0  0  0  0  0  0  0  0  0  0
  -27.2827   -1.7526   -8.8547 C   0  0  0  0  0  0  0  0  0  0  0  0
  -26.5156   -0.8710   -9.6798 N   0  0  0  0  0  0  0  0  0  0  0  0
  -26.5014   -0.9657  -11.0678 C   0  0  0  0  0  0  0  0  0  0  0  0
  -27.3071   -1.6490  -11.6990 O   0  0  0  0  0  0  0  0  0  0  0  0
  -26.1298   -0.0575   -9.2306 H   0  0  0  0  0  0  0  0  0  0  0  0
  -25.4843   -0.1158  -11.8243 C   0  0  0  0  0  0  0  0  0  0  0  0
  -24.4721   -0.9567  -12.6876 C   0  0  0  0  0  0  0  0  0  0  0  0
  -23.7413   -1.9715  -11.7692 C   0  0  0  0  0  0  0  0  0  0  0  0
  -25.1616   -1.8145  -13.7894 C   0  0  0  0  0  0  0  0  0  0  0  0
  -23.4546   -0.0068  -13.3757 C   0  0  0  0  0  0  0  0  0  0  0  0
  -23.5833    1.3914  -13.3093 C   0  0  0  0  0  0  0  0  0  0  0  0
  -22.5770    2.2381  -13.7881 C   0  0  0  0  0  0  0  0  0  0  0  0
  -21.4283    1.7085  -14.3658 C   0  0  0  0  0  0  0  0  0  0  0  0
  -21.3022    0.3321  -14.5010 C   0  0  0  0  0  0  0  0  0  0  0  0
  -22.3112   -0.5128  -14.0290 C   0  0  0  0  0  0  0  0  0  0  0  0
  -28.7144    0.6303   -6.6625 C   0  0  0  0  0  0  0  0  0  0  0  0
  -27.5595   -0.0550   -7.1727 O   0  0  0  0  0  0  0  0  0  0  0  0
  -30.4797   -7.7944   -5.8776 C   0  0  0  0  0  0  0  0  0  0  0  0
  -30.8664   -8.1761   -7.3064 C   0  0  0  0  0  0  0  0  0  0  0  0
  -29.6727   -8.4019   -8.2269 C   0  0  0  0  0  0  0  0  0  0  0  0
  -28.6805   -9.4531   -7.6909 C   0  0  0  0  0  0  0  0  0  0  0  0
  -28.2016   -8.9843   -6.2974 C   0  0  0  0  0  0  0  0  0  0  0  0
  -29.3249   -8.6450   -5.3041 C   0  0  0  0  0  0  0  0  0  0  0  0
  -29.0434  -10.8734   -7.8272 N   0  0  0  0  0  0  0  0  0  0  0  0
  -29.9847  -11.2510   -8.8893 C   0  0  0  0  0  0  0  0  0  0  0  0
  -31.4709  -11.2970   -8.4485 C   0  0  0  0  0  0  0  0  0  0  0  0
  -31.7276  -12.0069   -7.1780 N   0  0  0  0  0  0  0  0  0  0  0  0
  -33.0529  -11.6723   -6.6510 C   0  0  0  0  0  0  0  0  0  0  0  0
  -30.7038  -11.7556   -6.1483 C   0  0  0  0  0  0  0  0  0  0  0  0
  -29.2523  -11.7291   -6.6636 C   0  0  0  0  0  0  0  0  0  0  0  0
 33 34  1  0  0  0
 34 13  1  0  0  0
 13 14  1  0  0  0
 13 18  2  0  0  0
 14 15  2  0  0  0
 15  1  1  0  0  0
 15 16  1  0  0  0
  1  2  2  0  0  0
  1 10  1  0  0  0
  2  3  1  0  0  0
  3  4  1  0  0  0
 35 36  1  0  0  0
 35 40  1  0  0  0
 35  3  1  0  0  0
 36 37  1  0  0  0
 37 38  1  0  0  0
 38 39  1  0  0  0
 38 41  1  0  0  0
 41 42  1  0  0  0
 41 47  1  0  0  0
 42 43  1  0  0  0
 43 44  1  0  0  0
 44 45  1  0  0  0
 44 46  1  0  0  0
 46 47  1  0  0  0
 39 40  1  0  0  0
  4  5  1  0  0  0
  4 10  2  0  0  0
  5  6  2  0  0  0
  6  7  1  0  0  0
  7  8  2  0  0  0
  8  9  1  0  0  0
  8 10  1  0  0  0
  9 11  1  0  0  0
  9 12  1  0  0  0
 16 17  2  0  0  0
 17 18  1  0  0  0
 18 19  1  0  0  0
 19 20  1  0  0  0
 19 22  1  0  0  0
 20 21  2  0  0  0
 20 23  1  0  0  0
 23 24  1  0  0  0
 24 25  1  0  0  0
 24 26  1  0  0  0
 24 27  1  0  0  0
 27 28  1  0  0  0
 27 32  2  0  0  0
 28 29  2  0  0  0
 29 30  1  0  0  0
 30 31  2  0  0  0
 31 32  1  0  0  0
M  END
> <minimizedAffinity>
-10.96325

$$$$
