CHEMBL410892


 40 45  0  0  0  0  0  0  0  0999 V2000
  -29.2740   -8.1396   -6.3207 N   0  0  0  0  0  0  0  0  0  0  0  0
  -28.5692   -7.7859   -7.4576 C   0  0  0  0  0  0  0  0  0  0  0  0
  -28.0993   -8.5631   -8.2831 O   0  0  0  0  0  0  0  0  0  0  0  0
  -28.3871   -6.3475   -7.6949 C   0  0  0  0  0  0  0  0  0  0  0  0
  -27.6477   -5.9117   -8.7483 C   0  0  0  0  0  0  0  0  0  0  0  0
  -27.5111   -4.6096   -9.0141 N   0  0  0  0  0  0  0  0  0  0  0  0
  -28.0973   -3.6834   -8.2370 C   0  0  0  0  0  0  0  0  0  0  0  0
  -28.8264   -4.0220   -7.1680 N   0  0  0  0  0  0  0  0  0  0  0  0
  -28.9487   -5.3582   -6.9181 C   0  0  0  0  0  0  0  0  0  0  0  0
  -29.6947   -5.8104   -5.8165 N   0  0  0  0  0  0  0  0  0  0  0  0
  -30.3990   -5.0917   -4.8717 C   0  0  0  0  0  0  0  0  0  0  0  0
  -30.6258   -3.7221   -4.6664 C   0  0  0  0  0  0  0  0  0  0  0  0
  -31.4399   -3.3599   -3.5882 C   0  0  0  0  0  0  0  0  0  0  0  0
  -32.0006   -4.3234   -2.7507 C   0  0  0  0  0  0  0  0  0  0  0  0
  -31.7588   -5.6795   -2.9593 C   0  0  0  0  0  0  0  0  0  0  0  0
  -30.9385   -6.0779   -4.0420 C   0  0  0  0  0  0  0  0  0  0  0  0
  -30.5859   -7.3251   -4.4363 N   0  0  0  0  0  0  0  0  0  0  0  0
  -29.8462   -7.1574   -5.5185 C   0  0  0  0  0  0  0  0  0  0  0  0
  -31.5463   -9.6123   -7.4906 C   0  0  0  0  0  0  0  0  0  0  0  0
  -30.5869  -10.2119   -6.4992 C   0  0  0  0  0  0  0  0  0  0  0  0
  -30.8121  -11.5348   -6.0819 C   0  0  0  0  0  0  0  0  0  0  0  0
  -29.9496  -12.1598   -5.1882 C   0  0  0  0  0  0  0  0  0  0  0  0
  -28.8476  -11.4711   -4.6939 C   0  0  0  0  0  0  0  0  0  0  0  0
  -28.6049  -10.1365   -5.0609 C   0  0  0  0  0  0  0  0  0  0  0  0
  -27.4360   -9.4350   -4.4234 C   0  0  0  0  0  0  0  0  0  0  0  0
  -29.4876   -9.4967   -5.9652 C   0  0  0  0  0  0  0  0  0  0  0  0
  -27.9028   -2.3251   -8.5340 N   0  0  0  0  0  0  0  0  0  0  0  0
  -27.6657   -1.7952   -7.7112 H   0  0  0  0  0  0  0  0  0  0  0  0
  -27.4292   -1.8378   -9.7672 C   0  0  0  0  0  0  0  0  0  0  0  0
  -28.2937   -1.7015  -10.8490 C   0  0  0  0  0  0  0  0  0  0  0  0
  -27.8340   -1.4919  -12.1266 C   0  0  0  0  0  0  0  0  0  0  0  0
  -26.4834   -1.3419  -12.3907 C   0  0  0  0  0  0  0  0  0  0  0  0
  -25.5950   -1.3470  -11.3059 C   0  0  0  0  0  0  0  0  0  0  0  0
  -26.0709   -1.5910   -9.9967 C   0  0  0  0  0  0  0  0  0  0  0  0
  -26.0190   -1.2169  -13.6811 O   0  0  0  0  0  0  0  0  0  0  0  0
  -24.6218   -1.5810  -13.8006 C   0  0  0  0  0  0  0  0  0  0  0  0
  -23.7729   -0.4537  -14.3718 C   0  0  0  0  0  0  0  0  0  0  0  0
  -22.4269   -0.3671  -13.7605 N   0  0  0  0  0  0  0  0  0  0  0  0
  -21.5901    0.6691  -14.3741 C   0  0  0  0  0  0  0  0  0  0  0  0
  -22.5544   -0.1052  -12.3258 C   0  0  0  0  0  0  0  0  0  0  0  0
 19 20  1  0  0  0
 20 21  1  0  0  0
 20 26  2  0  0  0
 21 22  2  0  0  0
 22 23  1  0  0  0
 23 24  2  0  0  0
 24 25  1  0  0  0
 24 26  1  0  0  0
 26  1  1  0  0  0
  1  2  1  0  0  0
  1 18  1  0  0  0
  2  3  2  0  0  0
  2  4  1  0  0  0
  4  5  1  0  0  0
  4  9  2  0  0  0
  5  6  2  0  0  0
  6  7  1  0  0  0
  7 27  1  0  0  0
  7  8  2  0  0  0
 27 29  1  0  0  0
 27 28  1  0  0  0
 29 30  1  0  0  0
 29 34  2  0  0  0
 30 31  2  0  0  0
 31 32  1  0  0  0
 32 35  1  0  0  0
 32 33  2  0  0  0
 35 36  1  0  0  0
 36 37  1  0  0  0
 37 38  1  0  0  0
 38 39  1  0  0  0
 38 40  1  0  0  0
 33 34  1  0  0  0
  8  9  1  0  0  0
  9 10  1  0  0  0
 10 11  1  0  0  0
 10 18  1  0  0  0
 11 12  1  0  0  0
 11 16  2  0  0  0
 12 13  2  0  0  0
 13 14  1  0  0  0
 14 15  2  0  0  0
 15 16  1  0  0  0
 16 17  1  0  0  0
 17 18  2  0  0  0
M  END
> <minimizedAffinity>
-7.35694

$$$$
