CHEMBL2430262


 31 34  0  0  0  0  0  0  0  0999 V2000
  -29.7851  -11.0082   -4.2202 C   0  0  0  0  0  0  0  0  0  0  0  0
  -29.3943   -9.9759   -5.2192 C   0  0  0  0  0  0  0  0  0  0  0  0
  -29.4576   -8.6254   -4.9010 N   0  0  0  0  0  0  0  0  0  0  0  0
  -29.1036   -7.8607   -5.9798 C   0  0  0  0  0  0  0  0  0  0  0  0
  -28.8090   -8.7395   -7.0043 C   0  0  0  0  0  0  0  0  0  0  0  0
  -28.9986  -10.0829   -6.5485 C   0  0  0  0  0  0  0  0  0  0  0  0
  -28.3663   -8.3385   -8.3643 C   0  0  0  0  0  0  0  0  0  0  0  0
  -28.2230   -6.8433   -8.5808 C   0  0  0  0  0  0  0  0  0  0  0  0
  -28.5930   -5.8926   -7.4384 C   0  0  0  0  0  0  0  0  0  0  0  0
  -29.0439   -6.4300   -6.0769 C   0  0  0  0  0  0  0  0  0  0  0  0
  -29.3487   -5.5248   -5.1061 C   0  0  0  0  0  0  0  0  0  0  0  0
  -29.8244   -5.7779   -3.6821 C   0  0  0  0  0  0  0  0  0  0  0  0
  -30.0294   -6.8391   -3.1231 O   0  0  0  0  0  0  0  0  0  0  0  0
  -29.9908   -4.5250   -3.1104 N   0  0  0  0  0  0  0  0  0  0  0  0
  -29.6771   -3.5015   -3.9941 C   0  0  0  0  0  0  0  0  0  0  0  0
  -29.7349   -2.1399   -3.7253 C   0  0  0  0  0  0  0  0  0  0  0  0
  -29.3767   -1.2584   -4.7467 C   0  0  0  0  0  0  0  0  0  0  0  0
  -28.9811   -1.7596   -5.9852 C   0  0  0  0  0  0  0  0  0  0  0  0
  -28.6406   -0.9114   -6.9635 F   0  0  0  0  0  0  0  0  0  0  0  0
  -28.9329   -3.1303   -6.2350 C   0  0  0  0  0  0  0  0  0  0  0  0
  -29.2810   -4.0259   -5.2278 C   0  0  0  0  0  0  0  0  0  0  0  0
  -29.7512   -8.2604   -3.9982 H   0  0  0  0  0  0  0  0  0  0  0  0
  -30.3057   -4.3960   -2.1572 H   0  0  0  0  0  0  0  0  0  0  0  0
  -28.8264  -11.2666   -7.4024 C   0  0  0  0  0  0  0  0  0  0  0  0
  -29.7341  -12.0742   -7.5888 O   0  0  0  0  0  0  0  0  0  0  0  0
  -27.6200  -11.3918   -8.0503 N   0  0  0  0  0  0  0  0  0  0  0  0
  -26.9562  -10.6348   -7.9984 H   0  0  0  0  0  0  0  0  0  0  0  0
  -27.4002  -12.4656   -9.0073 C   0  0  0  0  0  0  0  0  0  0  0  0
  -28.0106  -12.1577  -10.3757 C   0  0  0  0  0  0  0  0  0  0  0  0
  -27.7088  -10.8150  -10.7541 O   0  0  0  0  0  0  0  0  0  0  0  0
  -28.1914  -10.2444  -10.1311 H   0  0  0  0  0  0  0  0  0  0  0  0
  1  2  1  0  0  0
  2  3  1  0  0  0
  2  6  2  0  0  0
  3  4  1  0  0  0
  3 22  1  0  0  0
  4  5  2  0  0  0
  4 10  1  0  0  0
  5  6  1  0  0  0
  5  7  1  0  0  0
  6 24  1  0  0  0
 24 25  2  0  0  0
 24 26  1  0  0  0
 26 28  1  0  0  0
 26 27  1  0  0  0
 28 29  1  0  0  0
 29 30  1  0  0  0
 30 31  1  0  0  0
  7  8  1  0  0  0
  8  9  1  0  0  0
  9 10  1  0  0  0
 10 11  2  0  0  0
 11 12  1  0  0  0
 11 21  1  0  0  0
 12 13  2  0  0  0
 12 14  1  0  0  0
 14 15  1  0  0  0
 14 23  1  0  0  0
 15 16  1  0  0  0
 15 21  2  0  0  0
 16 17  2  0  0  0
 17 18  1  0  0  0
 18 19  1  0  0  0
 18 20  2  0  0  0
 20 21  1  0  0  0
M  END
> <minimizedAffinity>
-7.58578

$$$$
