CHEMBL189125


 31 33  0  0  0  0  0  0  0  0999 V2000
  -32.8780   -7.9169   -6.4497 N   0  0  0  0  0  0  0  0  0  0  0  0
  -31.9603   -8.6422   -7.2098 C   0  0  0  0  0  0  0  0  0  0  0  0
  -32.5356   -9.5550   -8.0149 N   0  0  0  0  0  0  0  0  0  0  0  0
  -31.7163  -10.3180   -8.7727 C   0  0  0  0  0  0  0  0  0  0  0  0
  -30.3262  -10.2396   -8.7760 C   0  0  0  0  0  0  0  0  0  0  0  0
  -29.7750   -9.2505   -7.9634 C   0  0  0  0  0  0  0  0  0  0  0  0
  -30.5749   -8.4374   -7.1316 C   0  0  0  0  0  0  0  0  0  0  0  0
  -33.7986   -8.2581   -6.7269 H   0  0  0  0  0  0  0  0  0  0  0  0
  -32.7956   -6.9211   -6.6254 H   0  0  0  0  0  0  0  0  0  0  0  0
  -29.9366   -7.4597   -6.2304 C   0  0  0  0  0  0  0  0  0  0  0  0
  -28.9003   -7.7667   -5.3512 C   0  0  0  0  0  0  0  0  0  0  0  0
  -28.3106   -6.8509   -4.5432 N   0  0  0  0  0  0  0  0  0  0  0  0
  -28.7951   -5.5928   -4.6590 C   0  0  0  0  0  0  0  0  0  0  0  0
  -29.8224   -5.2403   -5.5327 C   0  0  0  0  0  0  0  0  0  0  0  0
  -30.3947   -6.1800   -6.3213 N   0  0  0  0  0  0  0  0  0  0  0  0
  -30.2577   -3.8980   -5.5858 N   0  0  0  0  0  0  0  0  0  0  0  0
  -30.8209   -3.6791   -4.7716 H   0  0  0  0  0  0  0  0  0  0  0  0
  -29.5010   -2.8060   -6.0623 C   0  0  0  0  0  0  0  0  0  0  0  0
  -28.7289   -2.9398   -7.2260 C   0  0  0  0  0  0  0  0  0  0  0  0
  -27.9238   -1.8867   -7.6763 C   0  0  0  0  0  0  0  0  0  0  0  0
  -27.8612   -0.6976   -6.9516 C   0  0  0  0  0  0  0  0  0  0  0  0
  -28.5999   -0.5676   -5.7802 C   0  0  0  0  0  0  0  0  0  0  0  0
  -28.5044    0.8856   -4.8626 Cl  0  0  0  0  0  0  0  0  0  0  0  0
  -29.4075   -1.6125   -5.3356 C   0  0  0  0  0  0  0  0  0  0  0  0
  -29.5894  -11.1198   -9.5667 N   0  0  0  0  0  0  0  0  0  0  0  0
  -30.0801  -12.0037   -9.7013 H   0  0  0  0  0  0  0  0  0  0  0  0
  -28.9391  -10.6275  -10.7778 C   0  0  0  0  0  0  0  0  0  0  0  0
  -27.4281  -10.5932  -10.5663 C   0  0  0  0  0  0  0  0  0  0  0  0
  -26.9102   -9.1730  -10.3621 C   0  0  0  0  0  0  0  0  0  0  0  0
  -26.4961   -8.6333  -11.6126 O   0  0  0  0  0  0  0  0  0  0  0  0
  -25.7066   -9.1284  -11.8906 H   0  0  0  0  0  0  0  0  0  0  0  0
  1  2  1  0  0  0
  1  8  1  0  0  0
  1  9  1  0  0  0
  2  3  1  0  0  0
  2  7  2  0  0  0
  3  4  2  0  0  0
  4  5  1  0  0  0
  5 25  1  0  0  0
  5  6  2  0  0  0
 25 27  1  0  0  0
 25 26  1  0  0  0
 27 28  1  0  0  0
 28 29  1  0  0  0
 29 30  1  0  0  0
 30 31  1  0  0  0
  6  7  1  0  0  0
  7 10  1  0  0  0
 10 11  1  0  0  0
 10 15  2  0  0  0
 11 12  2  0  0  0
 12 13  1  0  0  0
 13 14  2  0  0  0
 14 16  1  0  0  0
 14 15  1  0  0  0
 16 18  1  0  0  0
 16 17  1  0  0  0
 18 19  1  0  0  0
 18 24  2  0  0  0
 19 20  2  0  0  0
 20 21  1  0  0  0
 21 22  2  0  0  0
 22 23  1  0  0  0
 22 24  1  0  0  0
M  END
> <minimizedAffinity>
-8.17465

$$$$
