CHEMBL255406


 33 38  0  0  0  0  0  0  0  0999 V2000
  -26.5664  -10.5113   -4.7823 N   0  0  0  0  0  0  0  0  0  0  0  0
  -25.2198  -10.6860   -5.1847 C   0  0  0  0  0  0  0  0  0  0  0  0
  -23.9962  -10.4804   -4.5152 C   0  0  0  0  0  0  0  0  0  0  0  0
  -22.7941  -10.6282   -5.2411 C   0  0  0  0  0  0  0  0  0  0  0  0
  -22.8031  -11.0234   -6.5803 C   0  0  0  0  0  0  0  0  0  0  0  0
  -24.0144  -11.2460   -7.2255 C   0  0  0  0  0  0  0  0  0  0  0  0
  -25.2222  -11.0447   -6.5384 C   0  0  0  0  0  0  0  0  0  0  0  0
  -26.5560  -10.9874   -6.8669 C   0  0  0  0  0  0  0  0  0  0  0  0
  -26.9952  -10.8106   -8.1892 C   0  0  0  0  0  0  0  0  0  0  0  0
  -28.2742  -10.2308   -8.3191 C   0  0  0  0  0  0  0  0  0  0  0  0
  -29.1442  -10.0116   -7.2473 C   0  0  0  0  0  0  0  0  0  0  0  0
  -28.8181  -10.7879   -6.0852 C   0  0  0  0  0  0  0  0  0  0  0  0
  -27.4303  -10.8471   -5.8322 C   0  0  0  0  0  0  0  0  0  0  0  0
  -29.7573  -12.0768   -5.9710 C   0  0  0  0  0  0  0  0  0  0  0  0
  -30.7089  -12.3176   -7.2161 C   0  0  0  0  0  0  0  0  0  0  0  0
  -31.3673  -11.0151   -7.5048 C   0  0  0  0  0  0  0  0  0  0  0  0
  -32.6670  -10.7309   -7.4384 N   0  0  0  0  0  0  0  0  0  0  0  0
  -32.6643   -9.3785   -7.3214 N   0  0  0  0  0  0  0  0  0  0  0  0
  -33.9002   -8.6827   -7.0556 C   0  0  0  0  0  0  0  0  0  0  0  0
  -31.4054   -8.8347   -7.2333 C   0  0  0  0  0  0  0  0  0  0  0  0
  -30.5535   -9.8697   -7.5193 C   0  0  0  0  0  0  0  0  0  0  0  0
  -28.5256  -10.0790   -9.7360 C   0  0  0  0  0  0  0  0  0  0  0  0
  -29.4641   -9.6416  -10.3845 O   0  0  0  0  0  0  0  0  0  0  0  0
  -27.3944  -10.6120  -10.3485 N   0  0  0  0  0  0  0  0  0  0  0  0
  -26.3258  -11.0306   -9.4677 C   0  0  0  0  0  0  0  0  0  0  0  0
  -27.3521  -10.6665  -11.3573 H   0  0  0  0  0  0  0  0  0  0  0  0
  -21.5807  -11.1813   -7.4224 C   0  0  0  0  0  0  0  0  0  0  0  0
  -20.5529  -10.0893   -7.4562 C   0  0  0  0  0  0  0  0  0  0  0  0
  -21.4192  -12.2067   -8.0643 O   0  0  0  0  0  0  0  0  0  0  0  0
  -26.9668   -9.9079   -3.5175 C   0  0  0  0  0  0  0  0  0  0  0  0
  -27.9822   -8.7460   -3.6131 C   0  0  0  0  0  0  0  0  0  0  0  0
  -28.7949   -6.9536   -5.2314 C   0  0  0  0  0  0  0  0  0  0  0  0
  -27.6042   -7.5892   -4.5412 C   0  0  0  0  0  0  0  0  0  0  0  0
 32 33  1  0  0  0
 33 31  1  0  0  0
 31 30  1  0  0  0
 30  1  1  0  0  0
  1  2  1  0  0  0
  1 13  1  0  0  0
  2  3  1  0  0  0
  2  7  2  0  0  0
  3  4  2  0  0  0
  4  5  1  0  0  0
  5 27  1  0  0  0
  5  6  2  0  0  0
 27 28  1  0  0  0
 27 29  2  0  0  0
  6  7  1  0  0  0
  7  8  1  0  0  0
  8  9  1  0  0  0
  8 13  2  0  0  0
  9 10  2  0  0  0
  9 25  1  0  0  0
 10 11  1  0  0  0
 10 22  1  0  0  0
 11 12  2  0  0  0
 11 21  1  0  0  0
 12 13  1  0  0  0
 12 14  1  0  0  0
 14 15  1  0  0  0
 15 16  1  0  0  0
 16 17  2  0  0  0
 16 21  1  0  0  0
 17 18  1  0  0  0
 18 19  1  0  0  0
 18 20  1  0  0  0
 20 21  2  0  0  0
 22 23  2  0  0  0
 22 24  1  0  0  0
 24 25  1  0  0  0
 24 26  1  0  0  0
M  END
> <minimizedAffinity>
-6.68538

$$$$
