CHEMBL553


 30 32  0  0  0  0  0  0  0  0999 V2000
  -30.2571   -5.3044   -5.8979 C   0  0  0  0  0  0  0  0  0  0  0  0
  -31.0042   -5.8066   -4.8951 N   0  0  0  0  0  0  0  0  0  0  0  0
  -31.0205   -5.1236   -3.7503 C   0  0  0  0  0  0  0  0  0  0  0  0
  -30.3572   -3.9906   -3.5013 N   0  0  0  0  0  0  0  0  0  0  0  0
  -29.6057   -3.4995   -4.4919 C   0  0  0  0  0  0  0  0  0  0  0  0
  -28.9051   -2.3134   -4.2823 C   0  0  0  0  0  0  0  0  0  0  0  0
  -28.1165   -1.6759   -5.2701 C   0  0  0  0  0  0  0  0  0  0  0  0
  -27.9916   -2.3046   -6.5115 C   0  0  0  0  0  0  0  0  0  0  0  0
  -28.6975   -3.5039   -6.7281 C   0  0  0  0  0  0  0  0  0  0  0  0
  -29.5073   -4.1175   -5.7405 C   0  0  0  0  0  0  0  0  0  0  0  0
  -30.1459   -6.0685   -7.0955 N   0  0  0  0  0  0  0  0  0  0  0  0
  -31.0713   -6.2731   -7.4601 H   0  0  0  0  0  0  0  0  0  0  0  0
  -28.8047   -9.2426   -8.4909 C   0  0  0  0  0  0  0  0  0  0  0  0
  -28.0688   -9.7385   -7.4186 C   0  0  0  0  0  0  0  0  0  0  0  0
  -28.0167   -9.0206   -6.2277 C   0  0  0  0  0  0  0  0  0  0  0  0
  -28.6828   -7.7983   -6.1220 C   0  0  0  0  0  0  0  0  0  0  0  0
  -29.3865   -7.2682   -7.2090 C   0  0  0  0  0  0  0  0  0  0  0  0
  -29.4839   -8.0244   -8.3819 C   0  0  0  0  0  0  0  0  0  0  0  0
  -28.9331  -10.6114  -10.7329 C   0  0  0  0  0  0  0  0  0  0  0  0
  -28.8781   -9.9919   -9.7024 C   0  0  0  0  0  0  0  0  0  0  0  0
  -27.6277   -0.4805   -4.7978 O   0  0  0  0  0  0  0  0  0  0  0  0
  -28.4145    0.6785   -4.9991 C   0  0  0  0  0  0  0  0  0  0  0  0
  -28.3898    1.2289   -6.4211 C   0  0  0  0  0  0  0  0  0  0  0  0
  -29.7651    1.5043   -6.7091 O   0  0  0  0  0  0  0  0  0  0  0  0
  -30.6589    1.1973   -5.6601 C   0  0  0  0  0  0  0  0  0  0  0  0
  -27.3504   -1.9308   -7.6560 O   0  0  0  0  0  0  0  0  0  0  0  0
  -27.8371   -2.3323   -8.9304 C   0  0  0  0  0  0  0  0  0  0  0  0
  -26.8613   -2.0435  -10.0699 C   0  0  0  0  0  0  0  0  0  0  0  0
  -27.5227   -1.5190  -11.2207 O   0  0  0  0  0  0  0  0  0  0  0  0
  -26.5886   -1.2297  -12.2562 C   0  0  0  0  0  0  0  0  0  0  0  0
 19 20  3  0  0  0
 20 13  1  0  0  0
 13 14  1  0  0  0
 13 18  2  0  0  0
 14 15  2  0  0  0
 15 16  1  0  0  0
 16 17  2  0  0  0
 17 11  1  0  0  0
 17 18  1  0  0  0
 11  1  1  0  0  0
 11 12  1  0  0  0
  1  2  1  0  0  0
  1 10  2  0  0  0
  2  3  2  0  0  0
  3  4  1  0  0  0
  4  5  2  0  0  0
  5  6  1  0  0  0
  5 10  1  0  0  0
  6  7  2  0  0  0
  7 21  1  0  0  0
  7  8  1  0  0  0
 21 22  1  0  0  0
 22 23  1  0  0  0
 23 24  1  0  0  0
 24 25  1  0  0  0
  8 26  1  0  0  0
  8  9  2  0  0  0
 26 27  1  0  0  0
 27 28  1  0  0  0
 28 29  1  0  0  0
 29 30  1  0  0  0
  9 10  1  0  0  0
M  END
> <minimizedAffinity>
-7.33781

$$$$
