CHEMBL1202478


 32 35  0  0  0  0  0  0  0  0999 V2000
  -28.4030   -4.1240   -5.3758 C   0  0  0  0  0  0  0  0  0  0  0  0
  -28.3166   -5.4599   -4.9479 C   0  0  0  0  0  0  0  0  0  0  0  0
  -28.5074   -6.5419   -5.8254 C   0  0  0  0  0  0  0  0  0  0  0  0
  -28.4663   -7.8940   -5.4161 C   0  0  0  0  0  0  0  0  0  0  0  0
  -28.6614   -8.8662   -6.3539 N   0  0  0  0  0  0  0  0  0  0  0  0
  -28.8952   -8.5813   -7.6544 C   0  0  0  0  0  0  0  0  0  0  0  0
  -28.9768   -7.2963   -8.0596 N   0  0  0  0  0  0  0  0  0  0  0  0
  -28.7942   -6.2710   -7.1783 C   0  0  0  0  0  0  0  0  0  0  0  0
  -28.8877   -4.9625   -7.6337 C   0  0  0  0  0  0  0  0  0  0  0  0
  -28.6879   -3.8690   -6.7760 C   0  0  0  0  0  0  0  0  0  0  0  0
  -28.7795   -3.0319   -3.1386 C   0  0  0  0  0  0  0  0  0  0  0  0
  -28.1879   -3.2110   -4.3786 O   0  0  0  0  0  0  0  0  0  0  0  0
  -28.1861   -8.3002   -4.0716 N   0  0  0  0  0  0  0  0  0  0  0  0
  -28.7269   -7.8969   -3.2935 H   0  0  0  0  0  0  0  0  0  0  0  0
  -27.1085   -9.1900   -3.7680 C   0  0  0  0  0  0  0  0  0  0  0  0
  -25.7668   -8.7650   -3.8888 C   0  0  0  0  0  0  0  0  0  0  0  0
  -24.7146   -9.6263   -3.5885 C   0  0  0  0  0  0  0  0  0  0  0  0
  -24.9782  -10.9267   -3.1613 C   0  0  0  0  0  0  0  0  0  0  0  0
  -23.5264  -12.0896   -2.7282 Br  0  0  0  0  0  0  0  0  0  0  0  0
  -26.3006  -11.3721   -3.0541 C   0  0  0  0  0  0  0  0  0  0  0  0
  -27.3630  -10.5142   -3.3701 C   0  0  0  0  0  0  0  0  0  0  0  0
  -28.6375  -10.9637   -3.2496 F   0  0  0  0  0  0  0  0  0  0  0  0
  -28.7593   -2.6500   -7.3812 O   0  0  0  0  0  0  0  0  0  0  0  0
  -27.7322   -2.0022   -8.0078 C   0  0  0  0  0  0  0  0  0  0  0  0
  -27.8628   -1.9025   -9.4834 C   0  0  0  0  0  0  0  0  0  0  0  0
  -26.7200   -1.6304  -10.1315 C   0  0  0  0  0  0  0  0  0  0  0  0
  -26.6058   -1.5021  -11.6105 C   0  0  0  0  0  0  0  0  0  0  0  0
  -25.3130   -2.0252  -12.1294 N   0  0  0  0  0  0  0  0  0  0  0  0
  -24.1235   -1.5236  -11.4094 C   0  0  0  0  0  0  0  0  0  0  0  0
  -23.8096   -0.1841  -12.0393 C   0  0  0  0  0  0  0  0  0  0  0  0
  -23.9411   -0.5491  -13.4972 C   0  0  0  0  0  0  0  0  0  0  0  0
  -25.1224   -1.5246  -13.5153 C   0  0  0  0  0  0  0  0  0  0  0  0
 11 12  1  0  0  0
 12  1  1  0  0  0
  1  2  1  0  0  0
  1 10  2  0  0  0
  2  3  2  0  0  0
  3  4  1  0  0  0
  3  8  1  0  0  0
  4 13  1  0  0  0
  4  5  2  0  0  0
 13 15  1  0  0  0
 13 14  1  0  0  0
 15 16  1  0  0  0
 15 21  2  0  0  0
 16 17  2  0  0  0
 17 18  1  0  0  0
 18 19  1  0  0  0
 18 20  2  0  0  0
 20 21  1  0  0  0
 21 22  1  0  0  0
  5  6  1  0  0  0
  6  7  2  0  0  0
  7  8  1  0  0  0
  8  9  2  0  0  0
  9 10  1  0  0  0
 10 23  1  0  0  0
 23 24  1  0  0  0
 24 25  1  0  0  0
 25 26  2  0  0  0
 26 27  1  0  0  0
 27 28  1  0  0  0
 28 29  1  0  0  0
 28 32  1  0  0  0
 29 30  1  0  0  0
 30 31  1  0  0  0
 31 32  1  0  0  0
M  END
> <minimizedAffinity>
-8.38854

$$$$
