CHEMBL3941337


 38 42  0  0  0  0  0  0  0  0999 V2000
  -27.6408   -2.1808   -8.8024 N   0  0  0  0  0  0  0  0  0  0  0  0
  -27.0196   -1.8154  -10.0551 C   0  0  0  0  0  0  0  0  0  0  0  0
  -27.8174   -1.7781  -11.1978 C   0  0  0  0  0  0  0  0  0  0  0  0
  -27.3145   -1.6999  -12.4745 C   0  0  0  0  0  0  0  0  0  0  0  0
  -26.0005   -1.4850  -12.7109 C   0  0  0  0  0  0  0  0  0  0  0  0
  -25.7433   -1.5494  -14.0067 N   0  0  0  0  0  0  0  0  0  0  0  0
  -24.5802   -1.0433  -14.3874 C   0  0  0  0  0  0  0  0  0  0  0  0
  -23.7055   -0.4724  -13.4879 C   0  0  0  0  0  0  0  0  0  0  0  0
  -23.9138   -0.5691  -12.1153 N   0  0  0  0  0  0  0  0  0  0  0  0
  -25.1205   -1.1558  -11.6720 C   0  0  0  0  0  0  0  0  0  0  0  0
  -25.6534   -1.4462  -10.3106 C   0  0  0  0  0  0  0  0  0  0  0  0
  -22.6858    0.3714  -14.1155 C   0  0  0  0  0  0  0  0  0  0  0  0
  -21.4315    0.0226  -14.6849 C   0  0  0  0  0  0  0  0  0  0  0  0
  -20.6288    1.0799  -14.8769 N   0  0  0  0  0  0  0  0  0  0  0  0
  -21.3528    2.1111  -14.4120 N   0  0  0  0  0  0  0  0  0  0  0  0
  -20.9472    3.4757  -14.6577 C   0  0  0  0  0  0  0  0  0  0  0  0
  -22.5110    1.7146  -13.8053 C   0  0  0  0  0  0  0  0  0  0  0  0
  -27.9080   -1.4290   -7.5894 C   0  0  0  0  0  0  0  0  0  0  0  0
  -27.4982   -1.9180   -6.3110 C   0  0  0  0  0  0  0  0  0  0  0  0
  -27.8136   -1.3239   -5.0897 C   0  0  0  0  0  0  0  0  0  0  0  0
  -28.5020   -0.1267   -5.1069 C   0  0  0  0  0  0  0  0  0  0  0  0
  -28.8098    0.4753   -6.3314 C   0  0  0  0  0  0  0  0  0  0  0  0
  -28.5361   -0.1811   -7.5577 C   0  0  0  0  0  0  0  0  0  0  0  0
  -27.4967   -1.8302   -3.8561 O   0  0  0  0  0  0  0  0  0  0  0  0
  -28.4926   -2.6133   -3.1951 C   0  0  0  0  0  0  0  0  0  0  0  0
  -29.4055    1.7089   -6.4368 O   0  0  0  0  0  0  0  0  0  0  0  0
  -30.8335    1.6982   -6.4422 C   0  0  0  0  0  0  0  0  0  0  0  0
  -27.8404   -3.6625   -8.5754 C   0  0  0  0  0  0  0  0  0  0  0  0
  -29.5808   -4.3277   -6.6614 C   0  0  0  0  0  0  0  0  0  0  0  0
  -28.8600   -3.9564   -7.5441 C   0  0  0  0  0  0  0  0  0  0  0  0
  -30.2659   -6.4544   -3.6539 C   0  0  0  0  0  0  0  0  0  0  0  0
  -31.3107   -5.7249   -3.0798 C   0  0  0  0  0  0  0  0  0  0  0  0
  -31.8160   -4.5908   -3.7189 C   0  0  0  0  0  0  0  0  0  0  0  0
  -31.2434   -4.1681   -4.9161 C   0  0  0  0  0  0  0  0  0  0  0  0
  -30.1736   -4.8703   -5.4833 C   0  0  0  0  0  0  0  0  0  0  0  0
  -29.6786   -6.0005   -4.8416 C   0  0  0  0  0  0  0  0  0  0  0  0
  -28.7623   -8.2483   -3.9160 C   0  0  0  0  0  0  0  0  0  0  0  0
  -29.7359   -7.5933   -3.1025 O   0  0  0  0  0  0  0  0  0  0  0  0
 37 38  1  0  0  0
 38 31  1  0  0  0
 31 32  1  0  0  0
 31 36  2  0  0  0
 32 33  2  0  0  0
 33 34  1  0  0  0
 34 35  2  0  0  0
 35 29  1  0  0  0
 35 36  1  0  0  0
 29 30  3  0  0  0
 30 28  1  0  0  0
 28  1  1  0  0  0
  1 18  1  0  0  0
  1  2  1  0  0  0
 18 19  1  0  0  0
 18 23  2  0  0  0
 19 20  2  0  0  0
 20 24  1  0  0  0
 20 21  1  0  0  0
 24 25  1  0  0  0
 21 22  2  0  0  0
 22 26  1  0  0  0
 22 23  1  0  0  0
 26 27  1  0  0  0
  2  3  1  0  0  0
  2 11  2  0  0  0
  3  4  2  0  0  0
  4  5  1  0  0  0
  5  6  1  0  0  0
  5 10  2  0  0  0
  6  7  2  0  0  0
  7  8  1  0  0  0
  8 12  1  0  0  0
  8  9  2  0  0  0
 12 13  1  0  0  0
 12 17  2  0  0  0
 13 14  2  0  0  0
 14 15  1  0  0  0
 15 16  1  0  0  0
 15 17  1  0  0  0
  9 10  1  0  0  0
 10 11  1  0  0  0
M  END
> <minimizedAffinity>
-9.98296

$$$$
