CHEMBL175862


 30 33  0  0  0  0  0  0  0  0999 V2000
  -28.2524   -8.6199   -5.7023 C   0  0  0  0  0  0  0  0  0  0  0  0
  -28.6637   -9.7049   -5.0769 N   0  0  0  0  0  0  0  0  0  0  0  0
  -29.0717   -9.5157   -3.8442 C   0  0  0  0  0  0  0  0  0  0  0  0
  -29.5067  -10.6462   -3.2277 O   0  0  0  0  0  0  0  0  0  0  0  0
  -29.1324   -8.3800   -3.1825 N   0  0  0  0  0  0  0  0  0  0  0  0
  -28.7222   -7.3413   -3.8974 C   0  0  0  0  0  0  0  0  0  0  0  0
  -28.2769   -7.4156   -5.1547 N   0  0  0  0  0  0  0  0  0  0  0  0
  -29.3204  -11.2782   -3.9461 H   0  0  0  0  0  0  0  0  0  0  0  0
  -27.7637   -8.6927   -6.9974 N   0  0  0  0  0  0  0  0  0  0  0  0
  -26.8092   -8.3524   -6.9648 H   0  0  0  0  0  0  0  0  0  0  0  0
  -28.3125   -6.6556   -8.2584 C   0  0  0  0  0  0  0  0  0  0  0  0
  -28.5785   -8.1723   -8.1071 C   0  0  0  0  0  0  0  0  0  0  0  0
  -28.0489   -8.8409   -9.4007 C   0  0  0  0  0  0  0  0  0  0  0  0
  -30.0642   -8.5473   -7.9397 C   0  0  0  0  0  0  0  0  0  0  0  0
  -30.9969   -7.6711   -7.3521 C   0  0  0  0  0  0  0  0  0  0  0  0
  -32.3241   -8.0553   -7.1442 C   0  0  0  0  0  0  0  0  0  0  0  0
  -32.7521   -9.3218   -7.5271 C   0  0  0  0  0  0  0  0  0  0  0  0
  -31.8510  -10.2098   -8.1064 C   0  0  0  0  0  0  0  0  0  0  0  0
  -30.5207   -9.8298   -8.3049 C   0  0  0  0  0  0  0  0  0  0  0  0
  -28.7659   -6.1040   -3.2517 N   0  0  0  0  0  0  0  0  0  0  0  0
  -29.2133   -6.2420   -2.3526 H   0  0  0  0  0  0  0  0  0  0  0  0
  -29.0280   -4.8409   -3.8137 C   0  0  0  0  0  0  0  0  0  0  0  0
  -30.3289   -4.5692   -4.2455 C   0  0  0  0  0  0  0  0  0  0  0  0
  -30.6547   -3.3552   -4.8609 C   0  0  0  0  0  0  0  0  0  0  0  0
  -29.6545   -2.3808   -5.0511 C   0  0  0  0  0  0  0  0  0  0  0  0
  -29.8278   -1.1440   -5.6512 N   0  0  0  0  0  0  0  0  0  0  0  0
  -28.6884   -0.4913   -5.6428 C   0  0  0  0  0  0  0  0  0  0  0  0
  -27.3500   -1.2987   -4.9460 S   0  0  0  0  0  0  0  0  0  0  0  0
  -28.3602   -2.6531   -4.6046 C   0  0  0  0  0  0  0  0  0  0  0  0
  -28.0283   -3.8710   -3.9873 C   0  0  0  0  0  0  0  0  0  0  0  0
 11 12  1  0  0  0
 12 13  1  0  0  0
 12  9  1  0  0  0
 12 14  1  0  0  0
  9  1  1  0  0  0
  9 10  1  0  0  0
  1  2  1  0  0  0
  1  7  2  0  0  0
  2  3  2  0  0  0
  3  4  1  0  0  0
  3  5  1  0  0  0
  4  8  1  0  0  0
  5  6  2  0  0  0
  6 20  1  0  0  0
  6  7  1  0  0  0
 20 22  1  0  0  0
 20 21  1  0  0  0
 22 23  1  0  0  0
 22 30  2  0  0  0
 23 24  2  0  0  0
 24 25  1  0  0  0
 25 26  1  0  0  0
 25 29  2  0  0  0
 26 27  2  0  0  0
 27 28  1  0  0  0
 28 29  1  0  0  0
 29 30  1  0  0  0
 14 15  1  0  0  0
 14 19  2  0  0  0
 15 16  2  0  0  0
 16 17  1  0  0  0
 17 18  2  0  0  0
 18 19  1  0  0  0
M  END
> <minimizedAffinity>
-8.61452

$$$$
