CHEMBL4644718


 44 49  0  0  0  0  0  0  0  0999 V2000
  -16.9313    2.0012  -14.8825 C   0  0  0  0  0  0  0  0  0  0  0  0
  -17.1783    0.9785  -13.9383 C   0  0  0  0  0  0  0  0  0  0  0  0
  -16.2870   -0.1011  -13.7819 C   0  0  0  0  0  0  0  0  0  0  0  0
  -15.1614   -0.1570  -14.5872 C   0  0  0  0  0  0  0  0  0  0  0  0
  -14.9247    0.8783  -15.5050 C   0  0  0  0  0  0  0  0  0  0  0  0
  -15.7718    1.9585  -15.6667 C   0  0  0  0  0  0  0  0  0  0  0  0
  -13.7787    0.6235  -16.2508 N   0  0  0  0  0  0  0  0  0  0  0  0
  -13.2578   -0.6183  -15.9427 C   0  0  0  0  0  0  0  0  0  0  0  0
  -12.4715   -1.2659  -16.6111 O   0  0  0  0  0  0  0  0  0  0  0  0
  -14.0340   -1.0976  -14.7460 C   0  0  0  0  0  0  0  0  0  0  0  0
  -13.6362   -2.2126  -14.0891 C   0  0  0  0  0  0  0  0  0  0  0  0
  -13.4383    1.1685  -17.0337 H   0  0  0  0  0  0  0  0  0  0  0  0
  -14.5803   -2.9110  -13.2006 C   0  0  0  0  0  0  0  0  0  0  0  0
  -14.4479   -2.7360  -11.8140 C   0  0  0  0  0  0  0  0  0  0  0  0
  -15.3504   -3.3383  -10.9413 C   0  0  0  0  0  0  0  0  0  0  0  0
  -16.3852   -4.1204  -11.4495 C   0  0  0  0  0  0  0  0  0  0  0  0
  -16.5237   -4.2957  -12.8278 C   0  0  0  0  0  0  0  0  0  0  0  0
  -15.6261   -3.6876  -13.7053 C   0  0  0  0  0  0  0  0  0  0  0  0
  -17.8775    3.1281  -15.1216 C   0  0  0  0  0  0  0  0  0  0  0  0
  -17.6308    4.0596  -15.8729 O   0  0  0  0  0  0  0  0  0  0  0  0
  -20.2087    3.2635  -15.1775 C   0  0  0  0  0  0  0  0  0  0  0  0
  -19.0301    2.9579  -14.4271 O   0  0  0  0  0  0  0  0  0  0  0  0
  -12.4263   -2.9066  -14.2281 N   0  0  0  0  0  0  0  0  0  0  0  0
  -12.0012   -3.0246  -13.3073 H   0  0  0  0  0  0  0  0  0  0  0  0
  -12.3609   -4.1632  -14.9043 C   0  0  0  0  0  0  0  0  0  0  0  0
  -13.2346   -4.4871  -15.9463 C   0  0  0  0  0  0  0  0  0  0  0  0
  -13.2001   -5.7498  -16.5550 C   0  0  0  0  0  0  0  0  0  0  0  0
  -12.2464   -6.7027  -16.1781 C   0  0  0  0  0  0  0  0  0  0  0  0
  -11.3064   -6.3481  -15.2035 C   0  0  0  0  0  0  0  0  0  0  0  0
  -11.3629   -5.0911  -14.5770 C   0  0  0  0  0  0  0  0  0  0  0  0
  -12.2762   -8.0250  -16.7423 N   0  0  0  0  0  0  0  0  0  0  0  0
  -12.8001   -9.1793  -16.1394 C   0  0  0  0  0  0  0  0  0  0  0  0
  -13.5399   -9.2505  -14.8458 C   0  0  0  0  0  0  0  0  0  0  0  0
  -12.5748  -10.2562  -16.9757 C   0  0  0  0  0  0  0  0  0  0  0  0
  -11.9264   -9.7866  -18.1221 C   0  0  0  0  0  0  0  0  0  0  0  0
  -11.7045   -8.4300  -17.9619 C   0  0  0  0  0  0  0  0  0  0  0  0
  -10.8391   -7.5922  -18.8637 C   0  0  0  0  0  0  0  0  0  0  0  0
  -11.6230   -6.8384  -19.8347 N   0  0  0  0  0  0  0  0  0  0  0  0
  -13.0411   -7.2167  -19.8847 C   0  0  0  0  0  0  0  0  0  0  0  0
  -13.7487   -6.4851  -21.0470 C   0  0  0  0  0  0  0  0  0  0  0  0
  -13.6750   -5.0101  -20.9919 N   0  0  0  0  0  0  0  0  0  0  0  0
  -14.5629   -4.4718  -19.9682 C   0  0  0  0  0  0  0  0  0  0  0  0
  -12.2719   -4.6035  -20.7454 C   0  0  0  0  0  0  0  0  0  0  0  0
  -11.5005   -5.3863  -19.6542 C   0  0  0  0  0  0  0  0  0  0  0  0
 21 22  1  0  0  0
 22 19  1  0  0  0
 19 20  2  0  0  0
 19  1  1  0  0  0
  1  2  1  0  0  0
  1  6  2  0  0  0
  2  3  2  0  0  0
  3  4  1  0  0  0
  4  5  2  0  0  0
  4 10  1  0  0  0
  5  6  1  0  0  0
  5  7  1  0  0  0
  7  8  1  0  0  0
  7 12  1  0  0  0
  8  9  2  0  0  0
  8 10  1  0  0  0
 10 11  2  0  0  0
 11 23  1  0  0  0
 11 13  1  0  0  0
 23 25  1  0  0  0
 23 24  1  0  0  0
 25 26  1  0  0  0
 25 30  2  0  0  0
 26 27  2  0  0  0
 27 28  1  0  0  0
 28 31  1  0  0  0
 28 29  2  0  0  0
 31 32  1  0  0  0
 31 36  1  0  0  0
 32 33  1  0  0  0
 32 34  2  0  0  0
 34 35  1  0  0  0
 35 36  2  0  0  0
 36 37  1  0  0  0
 37 38  1  0  0  0
 38 39  1  0  0  0
 38 44  1  0  0  0
 39 40  1  0  0  0
 40 41  1  0  0  0
 41 42  1  0  0  0
 41 43  1  0  0  0
 43 44  1  0  0  0
 29 30  1  0  0  0
 13 14  1  0  0  0
 13 18  2  0  0  0
 14 15  2  0  0  0
 15 16  1  0  0  0
 16 17  2  0  0  0
 17 18  1  0  0  0
M  END
> <minimizedAffinity>
-7.07931

$$$$
