CHEMBL3690448


 35 38  0  0  0  0  0  0  0  0999 V2000
  -18.8541    2.0165  -15.0859 C   0  0  0  0  0  0  0  0  0  0  0  0
  -19.4346    0.6755  -15.2537 C   0  0  0  0  0  0  0  0  0  0  0  0
  -20.7169    0.4409  -14.9298 C   0  0  0  0  0  0  0  0  0  0  0  0
  -21.5018    1.4675  -14.3957 N   0  0  0  0  0  0  0  0  0  0  0  0
  -22.8111    1.4794  -13.9069 C   0  0  0  0  0  0  0  0  0  0  0  0
  -23.0224    2.8100  -13.5731 C   0  0  0  0  0  0  0  0  0  0  0  0
  -21.9180    3.5876  -13.7925 N   0  0  0  0  0  0  0  0  0  0  0  0
  -21.0080    2.7631  -14.2604 C   0  0  0  0  0  0  0  0  0  0  0  0
  -19.6520    3.0109  -14.6289 C   0  0  0  0  0  0  0  0  0  0  0  0
  -13.6014    3.0973  -16.6888 N   0  0  0  0  0  0  0  0  0  0  0  0
  -14.8887    2.8383  -16.2303 C   0  0  0  0  0  0  0  0  0  0  0  0
  -15.8916    3.8034  -16.2457 C   0  0  0  0  0  0  0  0  0  0  0  0
  -17.1712    3.5635  -15.8600 N   0  0  0  0  0  0  0  0  0  0  0  0
  -17.4421    2.2966  -15.4585 C   0  0  0  0  0  0  0  0  0  0  0  0
  -16.4351    1.3319  -15.4633 C   0  0  0  0  0  0  0  0  0  0  0  0
  -15.1511    1.5815  -15.8375 N   0  0  0  0  0  0  0  0  0  0  0  0
  -13.1903    3.9232  -16.2707 H   0  0  0  0  0  0  0  0  0  0  0  0
  -13.0440    2.2624  -16.5237 H   0  0  0  0  0  0  0  0  0  0  0  0
  -23.7143    0.3274  -13.7384 C   0  0  0  0  0  0  0  0  0  0  0  0
  -24.0797   -0.4586  -14.8375 C   0  0  0  0  0  0  0  0  0  0  0  0
  -24.9496   -1.5331  -14.6939 C   0  0  0  0  0  0  0  0  0  0  0  0
  -25.4057   -1.8904  -13.4306 C   0  0  0  0  0  0  0  0  0  0  0  0
  -24.9945   -1.1944  -12.2903 C   0  0  0  0  0  0  0  0  0  0  0  0
  -24.1755   -0.0624  -12.4599 C   0  0  0  0  0  0  0  0  0  0  0  0
  -25.3637   -1.5997  -10.9818 N   0  0  0  0  0  0  0  0  0  0  0  0
  -26.6497   -1.6308  -10.4768 C   0  0  0  0  0  0  0  0  0  0  0  0
  -27.6856   -1.3243  -11.0559 O   0  0  0  0  0  0  0  0  0  0  0  0
  -26.6980   -2.0209   -9.1571 N   0  0  0  0  0  0  0  0  0  0  0  0
  -24.6253   -1.9248  -10.3817 H   0  0  0  0  0  0  0  0  0  0  0  0
  -26.0016   -2.6830   -8.8482 H   0  0  0  0  0  0  0  0  0  0  0  0
  -28.0211   -2.0873   -8.5106 C   0  0  0  0  0  0  0  0  0  0  0  0
  -28.4604   -3.4677   -7.9942 C   0  0  0  0  0  0  0  0  0  0  0  0
  -29.7329   -3.7645   -8.3444 F   0  0  0  0  0  0  0  0  0  0  0  0
  -27.6724   -4.4305   -8.5380 F   0  0  0  0  0  0  0  0  0  0  0  0
  -28.3532   -3.5767   -6.6542 F   0  0  0  0  0  0  0  0  0  0  0  0
 10 11  1  0  0  0
 10 17  1  0  0  0
 10 18  1  0  0  0
 11 12  1  0  0  0
 11 16  2  0  0  0
 12 13  2  0  0  0
 13 14  1  0  0  0
 14  1  1  0  0  0
 14 15  2  0  0  0
  1  2  1  0  0  0
  1  9  2  0  0  0
  2  3  2  0  0  0
  3  4  1  0  0  0
  4  5  1  0  0  0
  4  8  1  0  0  0
  5 19  1  0  0  0
  5  6  2  0  0  0
 19 20  1  0  0  0
 19 24  2  0  0  0
 20 21  2  0  0  0
 21 22  1  0  0  0
 22 23  2  0  0  0
 23 25  1  0  0  0
 23 24  1  0  0  0
 25 26  1  0  0  0
 25 29  1  0  0  0
 26 27  2  0  0  0
 26 28  1  0  0  0
 28 31  1  0  0  0
 28 30  1  0  0  0
 31 32  1  0  0  0
 32 33  1  0  0  0
 32 34  1  0  0  0
 32 35  1  0  0  0
  6  7  1  0  0  0
  7  8  2  0  0  0
  8  9  1  0  0  0
 15 16  1  0  0  0
M  END
> <minimizedAffinity>
-10.04695

$$$$
