CHEMBL2047245


 27 30  0  0  0  0  0  0  0  0999 V2000
  -28.1396   -2.0467   -8.1035 C   0  0  0  0  0  0  0  0  0  0  0  0
  -27.9281   -0.7551   -7.7783 N   0  0  0  0  0  0  0  0  0  0  0  0
  -28.2129   -0.3588   -6.5290 C   0  0  0  0  0  0  0  0  0  0  0  0
  -27.8741    0.9402   -6.2086 N   0  0  0  0  0  0  0  0  0  0  0  0
  -28.8409   -1.0915   -5.6095 N   0  0  0  0  0  0  0  0  0  0  0  0
  -29.0053   -2.3766   -5.9607 C   0  0  0  0  0  0  0  0  0  0  0  0
  -28.5538   -2.9423   -7.1493 C   0  0  0  0  0  0  0  0  0  0  0  0
  -28.8571   -4.3493   -7.1586 C   0  0  0  0  0  0  0  0  0  0  0  0
  -28.3893   -5.3761   -7.9592 C   0  0  0  0  0  0  0  0  0  0  0  0
  -28.8956   -6.6612   -7.7566 C   0  0  0  0  0  0  0  0  0  0  0  0
  -29.8767   -6.8975   -6.7807 C   0  0  0  0  0  0  0  0  0  0  0  0
  -30.2903   -5.8770   -5.9193 C   0  0  0  0  0  0  0  0  0  0  0  0
  -29.7242   -4.6237   -6.0803 C   0  0  0  0  0  0  0  0  0  0  0  0
  -29.8419   -3.3977   -5.1934 C   0  0  0  0  0  0  0  0  0  0  0  0
  -27.7579    1.4757   -7.0622 H   0  0  0  0  0  0  0  0  0  0  0  0
  -28.4827    1.3054   -5.4967 H   0  0  0  0  0  0  0  0  0  0  0  0
  -28.0878   -2.4354   -9.4604 N   0  0  0  0  0  0  0  0  0  0  0  0
  -28.4814   -3.3490   -9.6228 H   0  0  0  0  0  0  0  0  0  0  0  0
  -25.4624   -1.0938  -12.5075 C   0  0  0  0  0  0  0  0  0  0  0  0
  -26.7998   -1.4037  -12.7850 C   0  0  0  0  0  0  0  0  0  0  0  0
  -27.6675   -1.8194  -11.7663 C   0  0  0  0  0  0  0  0  0  0  0  0
  -27.2149   -1.9608  -10.4529 C   0  0  0  0  0  0  0  0  0  0  0  0
  -25.8949   -1.5870  -10.1688 C   0  0  0  0  0  0  0  0  0  0  0  0
  -25.0270   -1.1666  -11.1798 C   0  0  0  0  0  0  0  0  0  0  0  0
  -23.0805   -1.1779  -13.3558 C   0  0  0  0  0  0  0  0  0  0  0  0
  -24.5168   -0.7367  -13.6400 C   0  0  0  0  0  0  0  0  0  0  0  0
  -25.0174   -1.3186  -14.9656 C   0  0  0  0  0  0  0  0  0  0  0  0
 25 26  1  0  0  0
 26 27  1  0  0  0
 26 19  1  0  0  0
 19 20  1  0  0  0
 19 24  2  0  0  0
 20 21  2  0  0  0
 21 22  1  0  0  0
 22 17  1  0  0  0
 22 23  2  0  0  0
 17  1  1  0  0  0
 17 18  1  0  0  0
  1  2  1  0  0  0
  1  7  2  0  0  0
  2  3  2  0  0  0
  3  4  1  0  0  0
  3  5  1  0  0  0
  4 15  1  0  0  0
  4 16  1  0  0  0
  5  6  2  0  0  0
  6  7  1  0  0  0
  6 14  1  0  0  0
  7  8  1  0  0  0
  8  9  1  0  0  0
  8 13  2  0  0  0
  9 10  2  0  0  0
 10 11  1  0  0  0
 11 12  2  0  0  0
 12 13  1  0  0  0
 13 14  1  0  0  0
 23 24  1  0  0  0
M  END
> <minimizedAffinity>
-9.77828

$$$$
