CHEMBL475251


 37 40  0  0  0  0  0  0  0  0999 V2000
  -28.4674   -9.1040   -7.2365 C   0  0  0  0  0  0  0  0  0  0  0  0
  -29.3760   -9.5539   -8.1175 N   0  0  0  0  0  0  0  0  0  0  0  0
  -30.6249   -9.0680   -8.0216 C   0  0  0  0  0  0  0  0  0  0  0  0
  -30.9993   -8.1606   -7.0684 C   0  0  0  0  0  0  0  0  0  0  0  0
  -32.2539   -7.6958   -7.0089 F   0  0  0  0  0  0  0  0  0  0  0  0
  -30.0344   -7.7886   -6.1501 C   0  0  0  0  0  0  0  0  0  0  0  0
  -28.7662   -8.2507   -6.2517 N   0  0  0  0  0  0  0  0  0  0  0  0
  -27.1237   -9.4801   -7.3642 N   0  0  0  0  0  0  0  0  0  0  0  0
  -26.9658   -9.7692   -8.3227 H   0  0  0  0  0  0  0  0  0  0  0  0
  -26.4669  -11.7995   -4.5123 C   0  0  0  0  0  0  0  0  0  0  0  0
  -27.1290  -11.0745   -5.5046 C   0  0  0  0  0  0  0  0  0  0  0  0
  -26.4370  -10.2718   -6.4208 C   0  0  0  0  0  0  0  0  0  0  0  0
  -25.0447  -10.2812   -6.4090 C   0  0  0  0  0  0  0  0  0  0  0  0
  -24.3565  -10.9830   -5.4140 C   0  0  0  0  0  0  0  0  0  0  0  0
  -25.0618  -11.7605   -4.4679 C   0  0  0  0  0  0  0  0  0  0  0  0
  -28.4944  -12.0892   -3.2781 C   0  0  0  0  0  0  0  0  0  0  0  0
  -27.1441  -12.4658   -3.5235 O   0  0  0  0  0  0  0  0  0  0  0  0
  -22.9831  -10.9823   -5.3234 O   0  0  0  0  0  0  0  0  0  0  0  0
  -22.3014  -10.4251   -6.4431 C   0  0  0  0  0  0  0  0  0  0  0  0
  -24.2827  -12.3796   -3.5181 O   0  0  0  0  0  0  0  0  0  0  0  0
  -24.1528  -11.7141   -2.2682 C   0  0  0  0  0  0  0  0  0  0  0  0
  -30.3857   -6.8921   -5.1166 N   0  0  0  0  0  0  0  0  0  0  0  0
  -30.2169   -7.2608   -4.1856 H   0  0  0  0  0  0  0  0  0  0  0  0
  -30.1720   -5.5071   -5.0953 C   0  0  0  0  0  0  0  0  0  0  0  0
  -30.8440   -4.6642   -4.2087 C   0  0  0  0  0  0  0  0  0  0  0  0
  -30.6705   -3.2906   -4.2831 C   0  0  0  0  0  0  0  0  0  0  0  0
  -29.7727   -2.7934   -5.2013 C   0  0  0  0  0  0  0  0  0  0  0  0
  -29.1096   -3.6856   -6.0387 C   0  0  0  0  0  0  0  0  0  0  0  0
  -29.2932   -5.0244   -6.0052 N   0  0  0  0  0  0  0  0  0  0  0  0
  -28.2671   -3.1819   -7.0186 N   0  0  0  0  0  0  0  0  0  0  0  0
  -28.0298   -1.8352   -7.1304 C   0  0  0  0  0  0  0  0  0  0  0  0
  -27.4712   -1.3645   -8.1189 O   0  0  0  0  0  0  0  0  0  0  0  0
  -28.4066   -1.0154   -5.8722 C   0  0  0  0  0  0  0  0  0  0  0  0
  -27.2597   -1.1301   -4.8524 C   0  0  0  0  0  0  0  0  0  0  0  0
  -28.6095    0.4595   -6.2248 C   0  0  0  0  0  0  0  0  0  0  0  0
  -29.6180   -1.4371   -5.2368 O   0  0  0  0  0  0  0  0  0  0  0  0
  -27.9370   -3.8107   -7.7352 H   0  0  0  0  0  0  0  0  0  0  0  0
 16 17  1  0  0  0
 17 10  1  0  0  0
 10 11  1  0  0  0
 10 15  2  0  0  0
 11 12  2  0  0  0
 12  8  1  0  0  0
 12 13  1  0  0  0
  8  1  1  0  0  0
  8  9  1  0  0  0
  1  2  1  0  0  0
  1  7  2  0  0  0
  2  3  2  0  0  0
  3  4  1  0  0  0
  4  5  1  0  0  0
  4  6  2  0  0  0
  6 22  1  0  0  0
  6  7  1  0  0  0
 22 24  1  0  0  0
 22 23  1  0  0  0
 24 25  1  0  0  0
 24 29  2  0  0  0
 25 26  2  0  0  0
 26 27  1  0  0  0
 27 28  2  0  0  0
 27 36  1  0  0  0
 28 29  1  0  0  0
 28 30  1  0  0  0
 30 31  1  0  0  0
 30 37  1  0  0  0
 31 32  2  0  0  0
 31 33  1  0  0  0
 33 34  1  0  0  0
 33 35  1  0  0  0
 33 36  1  0  0  0
 13 14  2  0  0  0
 14 18  1  0  0  0
 14 15  1  0  0  0
 18 19  1  0  0  0
 15 20  1  0  0  0
 20 21  1  0  0  0
M  END
> <minimizedAffinity>
-8.36096

$$$$
