CHEMBL365140


 37 39  0  0  0  0  0  0  0  0999 V2000
  -28.5835   -7.6059   -5.7186 C   0  0  0  0  0  0  0  0  0  0  0  0
  -28.1570   -6.6130   -4.8248 C   0  0  0  0  0  0  0  0  0  0  0  0
  -28.2406   -5.2587   -5.1565 C   0  0  0  0  0  0  0  0  0  0  0  0
  -27.8243   -4.2538   -4.3075 C   0  0  0  0  0  0  0  0  0  0  0  0
  -27.9025   -2.9570   -4.6158 N   0  0  0  0  0  0  0  0  0  0  0  0
  -28.4383   -2.6604   -5.7944 C   0  0  0  0  0  0  0  0  0  0  0  0
  -28.8486   -3.5706   -6.6963 N   0  0  0  0  0  0  0  0  0  0  0  0
  -28.7393   -4.8634   -6.3886 C   0  0  0  0  0  0  0  0  0  0  0  0
  -29.0942   -5.7956   -7.2821 N   0  0  0  0  0  0  0  0  0  0  0  0
  -29.0611   -7.1180   -6.9481 C   0  0  0  0  0  0  0  0  0  0  0  0
  -26.9582  -11.0272   -5.2477 C   0  0  0  0  0  0  0  0  0  0  0  0
  -27.8109  -11.6153   -4.3141 C   0  0  0  0  0  0  0  0  0  0  0  0
  -28.9344  -10.9208   -3.8771 C   0  0  0  0  0  0  0  0  0  0  0  0
  -29.2354   -9.6724   -4.4296 C   0  0  0  0  0  0  0  0  0  0  0  0
  -28.3656   -9.0252   -5.3340 C   0  0  0  0  0  0  0  0  0  0  0  0
  -27.2204   -9.7357   -5.7202 C   0  0  0  0  0  0  0  0  0  0  0  0
  -24.9907  -10.7368   -6.5316 C   0  0  0  0  0  0  0  0  0  0  0  0
  -25.7977  -11.5799   -5.7189 O   0  0  0  0  0  0  0  0  0  0  0  0
  -29.7996  -11.3560   -2.9078 O   0  0  0  0  0  0  0  0  0  0  0  0
  -30.6882  -12.3995   -3.3025 C   0  0  0  0  0  0  0  0  0  0  0  0
  -29.4617   -7.9845   -7.9964 N   0  0  0  0  0  0  0  0  0  0  0  0
  -28.4902   -8.4278   -8.8766 C   0  0  0  0  0  0  0  0  0  0  0  0
  -27.3091   -8.1199   -8.8185 O   0  0  0  0  0  0  0  0  0  0  0  0
  -29.0189   -9.3153   -9.8024 N   0  0  0  0  0  0  0  0  0  0  0  0
  -29.9189   -8.8006   -7.6110 H   0  0  0  0  0  0  0  0  0  0  0  0
  -29.9690   -9.1061  -10.0785 H   0  0  0  0  0  0  0  0  0  0  0  0
  -28.2053  -10.1216  -10.7384 C   0  0  0  0  0  0  0  0  0  0  0  0
  -28.9952  -10.3812  -12.0337 C   0  0  0  0  0  0  0  0  0  0  0  0
  -26.9280   -9.3417  -11.1247 C   0  0  0  0  0  0  0  0  0  0  0  0
  -27.7593  -11.4547  -10.1171 C   0  0  0  0  0  0  0  0  0  0  0  0
  -28.4656   -1.3197   -6.0942 N   0  0  0  0  0  0  0  0  0  0  0  0
  -28.6454   -1.1677   -7.0781 H   0  0  0  0  0  0  0  0  0  0  0  0
  -27.5709   -0.4028   -5.4254 C   0  0  0  0  0  0  0  0  0  0  0  0
  -28.3964    0.7758   -4.9197 C   0  0  0  0  0  0  0  0  0  0  0  0
  -29.5717    1.0900   -5.8401 C   0  0  0  0  0  0  0  0  0  0  0  0
  -29.1248    1.7210   -7.0328 O   0  0  0  0  0  0  0  0  0  0  0  0
  -28.9242    2.6526   -6.8004 H   0  0  0  0  0  0  0  0  0  0  0  0
 17 18  1  0  0  0
 18 11  1  0  0  0
 11 12  1  0  0  0
 11 16  2  0  0  0
 12 13  2  0  0  0
 13 19  1  0  0  0
 13 14  1  0  0  0
 19 20  1  0  0  0
 14 15  2  0  0  0
 15  1  1  0  0  0
 15 16  1  0  0  0
  1  2  1  0  0  0
  1 10  2  0  0  0
  2  3  2  0  0  0
  3  4  1  0  0  0
  3  8  1  0  0  0
  4  5  2  0  0  0
  5  6  1  0  0  0
  6 31  1  0  0  0
  6  7  2  0  0  0
 31 33  1  0  0  0
 31 32  1  0  0  0
 33 34  1  0  0  0
 34 35  1  0  0  0
 35 36  1  0  0  0
 36 37  1  0  0  0
  7  8  1  0  0  0
  8  9  2  0  0  0
  9 10  1  0  0  0
 10 21  1  0  0  0
 21 22  1  0  0  0
 21 25  1  0  0  0
 22 23  2  0  0  0
 22 24  1  0  0  0
 24 27  1  0  0  0
 24 26  1  0  0  0
 27 28  1  0  0  0
 27 29  1  0  0  0
 27 30  1  0  0  0
M  END
> <minimizedAffinity>
-8.15233

$$$$
