CHEMBL1987756


 29 31  0  0  0  0  0  0  0  0999 V2000
  -27.3903   -3.3476   -8.7577 N   0  0  0  0  0  0  0  0  0  0  0  0
  -26.9414   -4.0185   -9.3772 H   0  0  0  0  0  0  0  0  0  0  0  0
  -29.8876   -3.6654   -8.5232 O   0  0  0  0  0  0  0  0  0  0  0  0
  -28.6582   -4.0088   -7.8507 S   0  0  0  0  0  0  0  0  0  0  0  0
  -28.3130   -5.3797   -7.5524 O   0  0  0  0  0  0  0  0  0  0  0  0
  -28.5946   -3.0678   -6.3330 C   0  0  0  0  0  0  0  0  0  0  0  0
  -27.6267   -2.0517   -6.2490 C   0  0  0  0  0  0  0  0  0  0  0  0
  -27.5062   -1.3004   -5.0861 C   0  0  0  0  0  0  0  0  0  0  0  0
  -28.3564   -1.5493   -4.0131 C   0  0  0  0  0  0  0  0  0  0  0  0
  -29.3386   -2.5524   -4.0869 C   0  0  0  0  0  0  0  0  0  0  0  0
  -30.1999   -2.7877   -3.0123 C   0  0  0  0  0  0  0  0  0  0  0  0
  -31.1725   -3.7243   -2.9928 N   0  0  0  0  0  0  0  0  0  0  0  0
  -31.2790   -4.4952   -4.0865 C   0  0  0  0  0  0  0  0  0  0  0  0
  -30.4695   -4.3585   -5.2047 C   0  0  0  0  0  0  0  0  0  0  0  0
  -29.4739   -3.3508   -5.2455 C   0  0  0  0  0  0  0  0  0  0  0  0
  -27.6305   -2.0110   -9.3033 C   0  0  0  0  0  0  0  0  0  0  0  0
  -26.9579   -1.8239  -10.6726 C   0  0  0  0  0  0  0  0  0  0  0  0
  -25.5052   -1.6281  -10.5725 N   0  0  0  0  0  0  0  0  0  0  0  0
  -25.1589   -2.0761   -9.7236 H   0  0  0  0  0  0  0  0  0  0  0  0
  -24.8053   -2.1992  -11.7234 C   0  0  0  0  0  0  0  0  0  0  0  0
  -23.7464   -1.2564  -12.1817 C   0  0  0  0  0  0  0  0  0  0  0  0
  -23.8437   -0.5256  -13.3055 C   0  0  0  0  0  0  0  0  0  0  0  0
  -22.8052    0.3994  -13.7693 C   0  0  0  0  0  0  0  0  0  0  0  0
  -21.6360   -0.0598  -14.3910 C   0  0  0  0  0  0  0  0  0  0  0  0
  -20.6683    0.8396  -14.8389 C   0  0  0  0  0  0  0  0  0  0  0  0
  -20.8728    2.2061  -14.6843 C   0  0  0  0  0  0  0  0  0  0  0  0
  -19.5609    3.4223  -15.2925 Br  0  0  0  0  0  0  0  0  0  0  0  0
  -22.0401    2.6836  -14.0899 C   0  0  0  0  0  0  0  0  0  0  0  0
  -23.0065    1.7810  -13.6379 C   0  0  0  0  0  0  0  0  0  0  0  0
  3  4  2  0  0  0
  4  5  2  0  0  0
  4  1  1  0  0  0
  4  6  1  0  0  0
  1 16  1  0  0  0
  1  2  1  0  0  0
 16 17  1  0  0  0
 17 18  1  0  0  0
 18 20  1  0  0  0
 18 19  1  0  0  0
 20 21  1  0  0  0
 21 22  2  0  0  0
 22 23  1  0  0  0
 23 24  1  0  0  0
 23 29  2  0  0  0
 24 25  2  0  0  0
 25 26  1  0  0  0
 26 27  1  0  0  0
 26 28  2  0  0  0
 28 29  1  0  0  0
  6  7  1  0  0  0
  6 15  2  0  0  0
  7  8  2  0  0  0
  8  9  1  0  0  0
  9 10  2  0  0  0
 10 11  1  0  0  0
 10 15  1  0  0  0
 11 12  2  0  0  0
 12 13  1  0  0  0
 13 14  2  0  0  0
 14 15  1  0  0  0
M  END
> <minimizedAffinity>
-9.58377

$$$$
