CHEMBL381206


 35 38  0  0  0  0  0  0  0  0999 V2000
  -28.8490   -8.3371   -4.8076 C   0  0  0  0  0  0  0  0  0  0  0  0
  -29.2488   -8.1408   -3.5334 N   0  0  0  0  0  0  0  0  0  0  0  0
  -29.6727   -6.9245   -3.2080 C   0  0  0  0  0  0  0  0  0  0  0  0
  -29.7240   -5.8742   -4.0292 N   0  0  0  0  0  0  0  0  0  0  0  0
  -29.3434   -6.0797   -5.2915 C   0  0  0  0  0  0  0  0  0  0  0  0
  -29.3967   -4.9777   -6.1288 C   0  0  0  0  0  0  0  0  0  0  0  0
  -29.0817   -5.0617   -7.4798 C   0  0  0  0  0  0  0  0  0  0  0  0
  -28.6892   -6.2774   -8.0079 C   0  0  0  0  0  0  0  0  0  0  0  0
  -28.5568   -7.4009   -7.1810 C   0  0  0  0  0  0  0  0  0  0  0  0
  -28.8931   -7.3176   -5.7897 C   0  0  0  0  0  0  0  0  0  0  0  0
  -28.3590   -9.6236   -5.1288 N   0  0  0  0  0  0  0  0  0  0  0  0
  -28.4784   -9.8177   -6.1185 H   0  0  0  0  0  0  0  0  0  0  0  0
  -24.7908  -10.3629   -4.3164 C   0  0  0  0  0  0  0  0  0  0  0  0
  -24.9244  -11.3774   -3.3725 C   0  0  0  0  0  0  0  0  0  0  0  0
  -26.1968  -11.8457   -3.0300 C   0  0  0  0  0  0  0  0  0  0  0  0
  -27.3357  -11.2899   -3.6238 C   0  0  0  0  0  0  0  0  0  0  0  0
  -28.8845  -11.9210   -3.1817 Cl  0  0  0  0  0  0  0  0  0  0  0  0
  -27.2242  -10.2535   -4.5648 C   0  0  0  0  0  0  0  0  0  0  0  0
  -25.9347   -9.7993   -4.8858 C   0  0  0  0  0  0  0  0  0  0  0  0
  -23.3701   -9.8361   -6.1271 C   0  0  0  0  0  0  0  0  0  0  0  0
  -23.6104   -9.8090   -4.7262 O   0  0  0  0  0  0  0  0  0  0  0  0
  -29.1201   -3.8887   -8.1745 O   0  0  0  0  0  0  0  0  0  0  0  0
  -27.8801   -3.2059   -8.3981 C   0  0  0  0  0  0  0  0  0  0  0  0
  -28.1967   -1.7333   -8.6443 C   0  0  0  0  0  0  0  0  0  0  0  0
  -27.7232   -0.8916   -7.4499 C   0  0  0  0  0  0  0  0  0  0  0  0
  -28.1415   -1.3934   -6.1325 N   0  0  0  0  0  0  0  0  0  0  0  0
  -29.5851   -1.2042   -5.8639 C   0  0  0  0  0  0  0  0  0  0  0  0
  -29.9936    0.2680   -5.6995 C   0  0  0  0  0  0  0  0  0  0  0  0
  -29.2630    0.8831   -4.6308 O   0  0  0  0  0  0  0  0  0  0  0  0
  -27.8498    0.7859   -4.8511 C   0  0  0  0  0  0  0  0  0  0  0  0
  -27.3986   -0.6768   -5.0643 C   0  0  0  0  0  0  0  0  0  0  0  0
  -28.0984   -8.6079   -7.6585 O   0  0  0  0  0  0  0  0  0  0  0  0
  -28.5612   -9.0572   -8.9422 C   0  0  0  0  0  0  0  0  0  0  0  0
  -27.5254   -9.9782   -9.5894 C   0  0  0  0  0  0  0  0  0  0  0  0
  -29.8652   -9.8208   -8.7288 C   0  0  0  0  0  0  0  0  0  0  0  0
 20 21  1  0  0  0
 21 13  1  0  0  0
 13 14  1  0  0  0
 13 19  2  0  0  0
 14 15  2  0  0  0
 15 16  1  0  0  0
 16 17  1  0  0  0
 16 18  2  0  0  0
 18 11  1  0  0  0
 18 19  1  0  0  0
 11  1  1  0  0  0
 11 12  1  0  0  0
  1  2  1  0  0  0
  1 10  2  0  0  0
  2  3  2  0  0  0
  3  4  1  0  0  0
  4  5  2  0  0  0
  5  6  1  0  0  0
  5 10  1  0  0  0
  6  7  2  0  0  0
  7 22  1  0  0  0
  7  8  1  0  0  0
 22 23  1  0  0  0
 23 24  1  0  0  0
 24 25  1  0  0  0
 25 26  1  0  0  0
 26 27  1  0  0  0
 26 31  1  0  0  0
 27 28  1  0  0  0
 28 29  1  0  0  0
 29 30  1  0  0  0
 30 31  1  0  0  0
  8  9  2  0  0  0
  9 32  1  0  0  0
  9 10  1  0  0  0
 32 33  1  0  0  0
 33 34  1  0  0  0
 33 35  1  0  0  0
M  END
> <minimizedAffinity>
-7.17651

$$$$
