CHEMBL3671549


 37 39  0  0  0  0  0  0  0  0999 V2000
  -29.7884   -5.0096   -6.9513 C   0  0  0  0  0  0  0  0  0  0  0  0
  -29.1778   -4.2239   -7.9282 C   0  0  0  0  0  0  0  0  0  0  0  0
  -28.5917   -2.9876   -7.5849 C   0  0  0  0  0  0  0  0  0  0  0  0
  -28.0405   -2.0872   -8.5106 C   0  0  0  0  0  0  0  0  0  0  0  0
  -27.4965   -0.9198   -8.1168 N   0  0  0  0  0  0  0  0  0  0  0  0
  -27.5159   -0.6477   -6.8123 C   0  0  0  0  0  0  0  0  0  0  0  0
  -28.0332   -1.4223   -5.8519 N   0  0  0  0  0  0  0  0  0  0  0  0
  -28.5626   -2.5849   -6.2405 C   0  0  0  0  0  0  0  0  0  0  0  0
  -29.1142   -3.4204   -5.2777 C   0  0  0  0  0  0  0  0  0  0  0  0
  -29.7067   -4.6481   -5.6013 C   0  0  0  0  0  0  0  0  0  0  0  0
  -30.1837   -7.3569   -7.5496 C   0  0  0  0  0  0  0  0  0  0  0  0
  -31.0029   -8.2652   -7.6598 O   0  0  0  0  0  0  0  0  0  0  0  0
  -30.6126   -6.0626   -7.3787 N   0  0  0  0  0  0  0  0  0  0  0  0
  -31.5704   -6.0554   -7.0442 H   0  0  0  0  0  0  0  0  0  0  0  0
  -28.1050   -8.0761   -8.6626 C   0  0  0  0  0  0  0  0  0  0  0  0
  -28.7134   -7.6105   -7.5621 C   0  0  0  0  0  0  0  0  0  0  0  0
  -28.0856   -2.3912   -9.9037 N   0  0  0  0  0  0  0  0  0  0  0  0
  -29.0360   -2.2590  -10.2377 H   0  0  0  0  0  0  0  0  0  0  0  0
  -27.1286   -1.9434  -10.8456 C   0  0  0  0  0  0  0  0  0  0  0  0
  -25.8528   -1.5408  -10.4246 C   0  0  0  0  0  0  0  0  0  0  0  0
  -24.8799   -1.1655  -11.3595 C   0  0  0  0  0  0  0  0  0  0  0  0
  -25.1872   -1.1643  -12.7198 C   0  0  0  0  0  0  0  0  0  0  0  0
  -23.8471   -0.7430  -13.9836 Br  0  0  0  0  0  0  0  0  0  0  0  0
  -26.4737   -1.4895  -13.1359 C   0  0  0  0  0  0  0  0  0  0  0  0
  -26.8032   -1.4699  -14.4365 F   0  0  0  0  0  0  0  0  0  0  0  0
  -27.4408   -1.8580  -12.2085 C   0  0  0  0  0  0  0  0  0  0  0  0
  -30.1968   -5.3575   -4.5314 O   0  0  0  0  0  0  0  0  0  0  0  0
  -29.2121   -6.0538   -3.7559 C   0  0  0  0  0  0  0  0  0  0  0  0
  -29.4211   -7.5711   -3.8349 C   0  0  0  0  0  0  0  0  0  0  0  0
  -28.1571   -8.2911   -3.8700 N   0  0  0  0  0  0  0  0  0  0  0  0
  -28.0830   -9.6266   -3.5252 C   0  0  0  0  0  0  0  0  0  0  0  0
  -29.0735  -10.3343   -3.3622 O   0  0  0  0  0  0  0  0  0  0  0  0
  -27.2799   -7.7808   -3.7976 H   0  0  0  0  0  0  0  0  0  0  0  0
  -26.6568  -10.1741   -3.3804 C   0  0  0  0  0  0  0  0  0  0  0  0
  -26.0879  -10.6138   -4.6838 N   0  0  0  0  0  0  0  0  0  0  0  0
  -27.1013  -10.5731   -5.7476 C   0  0  0  0  0  0  0  0  0  0  0  0
  -24.9912   -9.7048   -5.0513 C   0  0  0  0  0  0  0  0  0  0  0  0
 15 16  2  0  0  0
 16 11  1  0  0  0
 11 12  2  0  0  0
 11 13  1  0  0  0
 13  1  1  0  0  0
 13 14  1  0  0  0
  1  2  1  0  0  0
  1 10  2  0  0  0
  2  3  2  0  0  0
  3  4  1  0  0  0
  3  8  1  0  0  0
  4 17  1  0  0  0
  4  5  2  0  0  0
 17 19  1  0  0  0
 17 18  1  0  0  0
 19 20  1  0  0  0
 19 26  2  0  0  0
 20 21  2  0  0  0
 21 22  1  0  0  0
 22 23  1  0  0  0
 22 24  2  0  0  0
 24 25  1  0  0  0
 24 26  1  0  0  0
  5  6  1  0  0  0
  6  7  2  0  0  0
  7  8  1  0  0  0
  8  9  2  0  0  0
  9 10  1  0  0  0
 10 27  1  0  0  0
 27 28  1  0  0  0
 28 29  1  0  0  0
 29 30  1  0  0  0
 30 31  1  0  0  0
 30 33  1  0  0  0
 31 32  2  0  0  0
 31 34  1  0  0  0
 34 35  1  0  0  0
 35 36  1  0  0  0
 35 37  1  0  0  0
M  END
> <minimizedAffinity>
-8.62791

$$$$
