CHEMBL2023494


 37 40  0  0  0  0  0  0  0  0999 V2000
  -27.2975   -1.9803   -8.6822 C   0  0  0  0  0  0  0  0  0  0  0  0
  -27.4988   -3.3192   -9.0221 C   0  0  0  0  0  0  0  0  0  0  0  0
  -28.3879   -4.1040   -8.2860 C   0  0  0  0  0  0  0  0  0  0  0  0
  -29.0408   -3.5973   -7.1462 C   0  0  0  0  0  0  0  0  0  0  0  0
  -28.6513   -2.3273   -6.6765 C   0  0  0  0  0  0  0  0  0  0  0  0
  -27.8156   -1.5113   -7.4702 C   0  0  0  0  0  0  0  0  0  0  0  0
  -29.0823   -1.7186   -5.5234 O   0  0  0  0  0  0  0  0  0  0  0  0
  -28.1137   -1.3737   -4.5321 C   0  0  0  0  0  0  0  0  0  0  0  0
  -26.6141   -1.0964   -9.5104 O   0  0  0  0  0  0  0  0  0  0  0  0
  -23.3143   -0.7238  -13.4220 C   0  0  0  0  0  0  0  0  0  0  0  0
  -23.2049   -0.3881  -12.0704 C   0  0  0  0  0  0  0  0  0  0  0  0
  -24.2876   -0.5961  -11.2153 C   0  0  0  0  0  0  0  0  0  0  0  0
  -25.5175   -1.0948  -11.6884 C   0  0  0  0  0  0  0  0  0  0  0  0
  -26.6801   -1.3035  -10.8927 C   0  0  0  0  0  0  0  0  0  0  0  0
  -27.8645   -1.6773  -11.5210 C   0  0  0  0  0  0  0  0  0  0  0  0
  -27.8404   -1.9967  -12.8593 C   0  0  0  0  0  0  0  0  0  0  0  0
  -26.7473   -1.8732  -13.6303 N   0  0  0  0  0  0  0  0  0  0  0  0
  -25.6251   -1.4044  -13.0729 C   0  0  0  0  0  0  0  0  0  0  0  0
  -24.5229   -1.2088  -13.9033 C   0  0  0  0  0  0  0  0  0  0  0  0
  -21.5679    0.6304  -14.2343 C   0  0  0  0  0  0  0  0  0  0  0  0
  -22.3197   -0.5794  -14.3428 O   0  0  0  0  0  0  0  0  0  0  0  0
  -30.1184   -4.4224   -6.4715 C   0  0  0  0  0  0  0  0  0  0  0  0
  -29.9884   -5.9302   -6.4968 C   0  0  0  0  0  0  0  0  0  0  0  0
  -29.2680   -6.5139   -5.6875 O   0  0  0  0  0  0  0  0  0  0  0  0
  -30.7850   -6.5477   -7.4457 N   0  0  0  0  0  0  0  0  0  0  0  0
  -31.0060   -5.9969   -8.2666 H   0  0  0  0  0  0  0  0  0  0  0  0
  -30.8090   -7.9437   -7.5965 C   0  0  0  0  0  0  0  0  0  0  0  0
  -31.8471   -8.6506   -6.9927 C   0  0  0  0  0  0  0  0  0  0  0  0
  -31.9257  -10.0388   -7.1337 C   0  0  0  0  0  0  0  0  0  0  0  0
  -33.1370  -10.7885   -6.6674 C   0  0  0  0  0  0  0  0  0  0  0  0
  -30.9114  -10.7169   -7.8219 C   0  0  0  0  0  0  0  0  0  0  0  0
  -29.8932  -10.0096   -8.4796 C   0  0  0  0  0  0  0  0  0  0  0  0
  -29.8428   -8.6148   -8.3495 C   0  0  0  0  0  0  0  0  0  0  0  0
  -28.9300  -10.7284   -9.4030 C   0  0  0  0  0  0  0  0  0  0  0  0
  -28.3904   -9.8596  -10.4695 N   0  0  0  0  0  0  0  0  0  0  0  0
  -26.9248   -9.9093  -10.5340 C   0  0  0  0  0  0  0  0  0  0  0  0
  -28.9419  -10.2555  -11.7665 C   0  0  0  0  0  0  0  0  0  0  0  0
 20 21  1  0  0  0
 21 10  1  0  0  0
 10 11  1  0  0  0
 10 19  2  0  0  0
 11 12  2  0  0  0
 12 13  1  0  0  0
 13 14  1  0  0  0
 13 18  2  0  0  0
 14  9  1  0  0  0
 14 15  2  0  0  0
  9  1  1  0  0  0
  1  2  1  0  0  0
  1  6  2  0  0  0
  2  3  2  0  0  0
  3  4  1  0  0  0
  4 22  1  0  0  0
  4  5  2  0  0  0
 22 23  1  0  0  0
 23 24  2  0  0  0
 23 25  1  0  0  0
 25 27  1  0  0  0
 25 26  1  0  0  0
 27 28  1  0  0  0
 27 33  2  0  0  0
 28 29  2  0  0  0
 29 30  1  0  0  0
 29 31  1  0  0  0
 31 32  2  0  0  0
 32 34  1  0  0  0
 32 33  1  0  0  0
 34 35  1  0  0  0
 35 36  1  0  0  0
 35 37  1  0  0  0
  5  7  1  0  0  0
  5  6  1  0  0  0
  7  8  1  0  0  0
 15 16  1  0  0  0
 16 17  2  0  0  0
 17 18  1  0  0  0
 18 19  1  0  0  0
M  END
> <minimizedAffinity>
-9.21673

$$$$
