CHEMBL4071058


 33 35  0  0  0  0  0  0  0  0999 V2000
  -29.3760   -3.9496   -7.4190 C   0  0  0  0  0  0  0  0  0  0  0  0
  -29.9733   -3.3353   -6.3221 C   0  0  0  0  0  0  0  0  0  0  0  0
  -30.1541   -4.0362   -5.1271 C   0  0  0  0  0  0  0  0  0  0  0  0
  -29.7349   -5.3447   -4.9794 C   0  0  0  0  0  0  0  0  0  0  0  0
  -29.8767   -5.9098   -3.7777 N   0  0  0  0  0  0  0  0  0  0  0  0
  -29.4357   -7.1614   -3.6519 C   0  0  0  0  0  0  0  0  0  0  0  0
  -28.8837   -7.8942   -4.6185 N   0  0  0  0  0  0  0  0  0  0  0  0
  -28.7476   -7.3169   -5.8295 C   0  0  0  0  0  0  0  0  0  0  0  0
  -29.1702   -6.0009   -6.0836 C   0  0  0  0  0  0  0  0  0  0  0  0
  -29.0418   -5.3033   -7.3204 C   0  0  0  0  0  0  0  0  0  0  0  0
  -28.0422   -2.3088   -8.7227 C   0  0  0  0  0  0  0  0  0  0  0  0
  -27.2603   -1.9743   -7.8338 O   0  0  0  0  0  0  0  0  0  0  0  0
  -29.0564   -3.2532   -8.6064 N   0  0  0  0  0  0  0  0  0  0  0  0
  -29.4209   -3.6252   -9.4833 H   0  0  0  0  0  0  0  0  0  0  0  0
  -27.8606   -1.7645  -10.1379 C   0  0  0  0  0  0  0  0  0  0  0  0
  -26.1924   -1.9284  -11.9078 C   0  0  0  0  0  0  0  0  0  0  0  0
  -27.0424   -1.8250  -12.7789 O   0  0  0  0  0  0  0  0  0  0  0  0
  -26.4944   -1.9253  -10.5828 N   0  0  0  0  0  0  0  0  0  0  0  0
  -25.7597   -2.1656   -9.9290 H   0  0  0  0  0  0  0  0  0  0  0  0
  -24.8557   -2.0526  -12.0892 O   0  0  0  0  0  0  0  0  0  0  0  0
  -24.6311    0.3890  -11.9539 C   0  0  0  0  0  0  0  0  0  0  0  0
  -24.0948   -0.9094  -12.5710 C   0  0  0  0  0  0  0  0  0  0  0  0
  -24.0668   -0.8555  -14.1035 C   0  0  0  0  0  0  0  0  0  0  0  0
  -22.6515   -1.1098  -12.0753 C   0  0  0  0  0  0  0  0  0  0  0  0
  -28.1156   -8.0728   -6.8627 N   0  0  0  0  0  0  0  0  0  0  0  0
  -27.2335   -8.4302   -6.5114 H   0  0  0  0  0  0  0  0  0  0  0  0
  -28.7927   -9.0306   -7.6609 C   0  0  0  0  0  0  0  0  0  0  0  0
  -29.7151   -9.9170   -7.0842 C   0  0  0  0  0  0  0  0  0  0  0  0
  -30.3386  -10.9066   -7.8448 C   0  0  0  0  0  0  0  0  0  0  0  0
  -30.0541  -11.0160   -9.2026 C   0  0  0  0  0  0  0  0  0  0  0  0
  -29.1614  -10.1213   -9.7907 C   0  0  0  0  0  0  0  0  0  0  0  0
  -28.7694  -10.2774  -11.6350 Br  0  0  0  0  0  0  0  0  0  0  0  0
  -28.5389   -9.1250   -9.0336 C   0  0  0  0  0  0  0  0  0  0  0  0
 21 22  1  0  0  0
 22 23  1  0  0  0
 22 24  1  0  0  0
 22 20  1  0  0  0
 20 16  1  0  0  0
 16 17  2  0  0  0
 16 18  1  0  0  0
 18 15  1  0  0  0
 18 19  1  0  0  0
 15 11  1  0  0  0
 11 12  2  0  0  0
 11 13  1  0  0  0
 13  1  1  0  0  0
 13 14  1  0  0  0
  1  2  1  0  0  0
  1 10  2  0  0  0
  2  3  2  0  0  0
  3  4  1  0  0  0
  4  5  1  0  0  0
  4  9  2  0  0  0
  5  6  2  0  0  0
  6  7  1  0  0  0
  7  8  2  0  0  0
  8 25  1  0  0  0
  8  9  1  0  0  0
 25 27  1  0  0  0
 25 26  1  0  0  0
 27 28  1  0  0  0
 27 33  2  0  0  0
 28 29  2  0  0  0
 29 30  1  0  0  0
 30 31  2  0  0  0
 31 32  1  0  0  0
 31 33  1  0  0  0
  9 10  1  0  0  0
M  END
> <minimizedAffinity>
-9.37856

$$$$
