CHEMBL415756


 21 24  0  0  0  0  0  0  0  0999 V2000
  -18.2211    2.3397  -15.4767 C   0  0  0  0  0  0  0  0  0  0  0  0
  -18.4964    0.9457  -15.1366 C   0  0  0  0  0  0  0  0  0  0  0  0
  -19.6862    0.6104  -14.6123 C   0  0  0  0  0  0  0  0  0  0  0  0
  -20.6656    1.5906  -14.4247 N   0  0  0  0  0  0  0  0  0  0  0  0
  -21.9751    1.5045  -13.9572 C   0  0  0  0  0  0  0  0  0  0  0  0
  -22.4105    2.8228  -13.9533 C   0  0  0  0  0  0  0  0  0  0  0  0
  -21.4619    3.6904  -14.4175 N   0  0  0  0  0  0  0  0  0  0  0  0
  -20.4276    2.9364  -14.7125 C   0  0  0  0  0  0  0  0  0  0  0  0
  -19.1571    3.2889  -15.2543 C   0  0  0  0  0  0  0  0  0  0  0  0
  -14.4532    3.5439  -17.0829 C   0  0  0  0  0  0  0  0  0  0  0  0
  -15.4148    4.5056  -16.7689 C   0  0  0  0  0  0  0  0  0  0  0  0
  -16.6524    4.1114  -16.2552 C   0  0  0  0  0  0  0  0  0  0  0  0
  -16.9312    2.7541  -16.0521 C   0  0  0  0  0  0  0  0  0  0  0  0
  -15.9604    1.7965  -16.3684 C   0  0  0  0  0  0  0  0  0  0  0  0
  -14.7252    2.1908  -16.8834 C   0  0  0  0  0  0  0  0  0  0  0  0
  -22.7116    0.2943  -13.5653 C   0  0  0  0  0  0  0  0  0  0  0  0
  -22.4711   -0.2939  -12.3127 C   0  0  0  0  0  0  0  0  0  0  0  0
  -23.1884   -1.4190  -11.8933 C   0  0  0  0  0  0  0  0  0  0  0  0
  -24.1474   -1.9853  -12.7275 C   0  0  0  0  0  0  0  0  0  0  0  0
  -24.4021   -1.4154  -13.9707 C   0  0  0  0  0  0  0  0  0  0  0  0
  -23.7057   -0.2721  -14.3748 C   0  0  0  0  0  0  0  0  0  0  0  0
 10 11  1  0  0  0
 10 15  2  0  0  0
 11 12  2  0  0  0
 12 13  1  0  0  0
 13  1  1  0  0  0
 13 14  2  0  0  0
  1  2  1  0  0  0
  1  9  2  0  0  0
  2  3  2  0  0  0
  3  4  1  0  0  0
  4  5  1  0  0  0
  4  8  1  0  0  0
  5 16  1  0  0  0
  5  6  2  0  0  0
 16 17  1  0  0  0
 16 21  2  0  0  0
 17 18  2  0  0  0
 18 19  1  0  0  0
 19 20  2  0  0  0
 20 21  1  0  0  0
  6  7  1  0  0  0
  7  8  2  0  0  0
  8  9  1  0  0  0
 14 15  1  0  0  0
M  END
> <minimizedAffinity>
-9.89513

$$$$
