CHEMBL146697


 31 33  0  0  0  0  0  0  0  0999 V2000
  -30.0763   -4.9359   -5.8434 C   0  0  0  0  0  0  0  0  0  0  0  0
  -29.3018   -5.9915   -5.5402 C   0  0  0  0  0  0  0  0  0  0  0  0
  -28.0352   -5.9641   -4.7076 C   0  0  0  0  0  0  0  0  0  0  0  0
  -27.5402   -5.0502   -4.0787 O   0  0  0  0  0  0  0  0  0  0  0  0
  -27.5514   -7.2588   -4.7513 N   0  0  0  0  0  0  0  0  0  0  0  0
  -28.3792   -8.0910   -5.4911 C   0  0  0  0  0  0  0  0  0  0  0  0
  -28.1683   -9.4351   -5.7227 C   0  0  0  0  0  0  0  0  0  0  0  0
  -29.1056  -10.0982   -6.5134 C   0  0  0  0  0  0  0  0  0  0  0  0
  -30.2151   -9.3996   -7.0340 C   0  0  0  0  0  0  0  0  0  0  0  0
  -30.4107   -8.0267   -6.7935 C   0  0  0  0  0  0  0  0  0  0  0  0
  -29.4782   -7.3825   -5.9969 C   0  0  0  0  0  0  0  0  0  0  0  0
  -26.7026   -7.5270   -4.2782 H   0  0  0  0  0  0  0  0  0  0  0  0
  -28.3768   -2.9423   -7.6283 C   0  0  0  0  0  0  0  0  0  0  0  0
  -28.8971   -2.7021   -6.2539 C   0  0  0  0  0  0  0  0  0  0  0  0
  -28.6451   -1.5902   -5.3793 C   0  0  0  0  0  0  0  0  0  0  0  0
  -29.3450   -1.8443   -4.2130 C   0  0  0  0  0  0  0  0  0  0  0  0
  -29.9563   -3.0662   -4.3212 N   0  0  0  0  0  0  0  0  0  0  0  0
  -29.6658   -3.6126   -5.5429 C   0  0  0  0  0  0  0  0  0  0  0  0
  -30.4600   -3.5271   -3.5757 H   0  0  0  0  0  0  0  0  0  0  0  0
  -27.7371   -0.4129   -5.5978 C   0  0  0  0  0  0  0  0  0  0  0  0
  -28.3239    0.9046   -5.1079 C   0  0  0  0  0  0  0  0  0  0  0  0
  -29.4832    1.3507   -5.9631 C   0  0  0  0  0  0  0  0  0  0  0  0
  -30.6591    1.3358   -5.6367 O   0  0  0  0  0  0  0  0  0  0  0  0
  -29.0750    1.7898   -7.1789 O   0  0  0  0  0  0  0  0  0  0  0  0
  -28.1074    1.7464   -7.3033 H   0  0  0  0  0  0  0  0  0  0  0  0
  -31.3480  -10.2883   -8.0687 S   0  0  0  0  0  0  0  0  0  0  0  0
  -30.5026  -10.3474   -9.5168 N   0  0  0  0  0  0  0  0  0  0  0  0
  -31.4457  -11.6497   -7.6014 O   0  0  0  0  0  0  0  0  0  0  0  0
  -32.5080   -9.4639   -8.3166 O   0  0  0  0  0  0  0  0  0  0  0  0
  -30.3260  -11.3185   -9.7759 H   0  0  0  0  0  0  0  0  0  0  0  0
  -31.0003   -9.8174  -10.2335 H   0  0  0  0  0  0  0  0  0  0  0  0
 13 14  1  0  0  0
 14 15  1  0  0  0
 14 18  2  0  0  0
 15 20  1  0  0  0
 15 16  2  0  0  0
 20 21  1  0  0  0
 21 22  1  0  0  0
 22 23  2  0  0  0
 22 24  1  0  0  0
 24 25  1  0  0  0
 16 17  1  0  0  0
 17 18  1  0  0  0
 17 19  1  0  0  0
 18  1  1  0  0  0
  1  2  2  0  0  0
  2  3  1  0  0  0
  2 11  1  0  0  0
  3  4  2  0  0  0
  3  5  1  0  0  0
  5  6  1  0  0  0
  5 12  1  0  0  0
  6  7  1  0  0  0
  6 11  2  0  0  0
  7  8  2  0  0  0
  8  9  1  0  0  0
  9 26  1  0  0  0
  9 10  2  0  0  0
 26 27  1  0  0  0
 26 28  2  0  0  0
 26 29  2  0  0  0
 27 30  1  0  0  0
 27 31  1  0  0  0
 10 11  1  0  0  0
M  END
> <minimizedAffinity>
-9.14589

$$$$
