CHEMBL260305


 33 36  0  0  0  0  0  0  0  0999 V2000
  -26.0458   10.7476  -15.9047 C   0  0  0  0  0  0  0  0  0  0  0  0
  -26.0353   11.7279  -14.9105 C   0  0  0  0  0  0  0  0  0  0  0  0
  -27.1951   12.0160  -14.1770 C   0  0  0  0  0  0  0  0  0  0  0  0
  -28.4031   11.3417  -14.4220 C   0  0  0  0  0  0  0  0  0  0  0  0
  -28.4106   10.4415  -15.5049 C   0  0  0  0  0  0  0  0  0  0  0  0
  -27.2500   10.1371  -16.2337 C   0  0  0  0  0  0  0  0  0  0  0  0
  -29.6091   11.5878  -13.5971 C   0  0  0  0  0  0  0  0  0  0  0  0
  -30.9084   11.6095  -14.1754 C   0  0  0  0  0  0  0  0  0  0  0  0
  -32.0704   11.7655  -13.4133 C   0  0  0  0  0  0  0  0  0  0  0  0
  -31.9885   11.8793  -12.0335 C   0  0  0  0  0  0  0  0  0  0  0  0
  -33.0983   11.9915  -11.2940 F   0  0  0  0  0  0  0  0  0  0  0  0
  -30.7227   11.8960  -11.4670 C   0  0  0  0  0  0  0  0  0  0  0  0
  -30.4571   12.0172  -10.1429 O   0  0  0  0  0  0  0  0  0  0  0  0
  -29.0928   12.0705   -9.9516 N   0  0  0  0  0  0  0  0  0  0  0  0
  -28.5513   11.9948  -11.1689 C   0  0  0  0  0  0  0  0  0  0  0  0
  -27.2272   12.1336  -11.3815 N   0  0  0  0  0  0  0  0  0  0  0  0
  -29.5377   11.7998  -12.1873 C   0  0  0  0  0  0  0  0  0  0  0  0
  -26.6877   12.4919  -10.5993 H   0  0  0  0  0  0  0  0  0  0  0  0
  -26.9113   12.5132  -12.2707 H   0  0  0  0  0  0  0  0  0  0  0  0
  -23.1027   10.6051  -18.0294 N   0  0  0  0  0  0  0  0  0  0  0  0
  -24.2239   11.1812  -17.4577 C   0  0  0  0  0  0  0  0  0  0  0  0
  -24.6081   12.3279  -17.6453 O   0  0  0  0  0  0  0  0  0  0  0  0
  -24.8512   10.3303  -16.5491 N   0  0  0  0  0  0  0  0  0  0  0  0
  -22.8383    9.6946  -17.6888 H   0  0  0  0  0  0  0  0  0  0  0  0
  -24.2183    9.7803  -15.9878 H   0  0  0  0  0  0  0  0  0  0  0  0
  -18.4143   11.6000  -19.2412 C   0  0  0  0  0  0  0  0  0  0  0  0
  -19.8838   11.7503  -19.5124 C   0  0  0  0  0  0  0  0  0  0  0  0
  -20.3140   12.5479  -20.5779 C   0  0  0  0  0  0  0  0  0  0  0  0
  -21.6693   12.6581  -20.8519 C   0  0  0  0  0  0  0  0  0  0  0  0
  -22.6060   11.9930  -20.0584 C   0  0  0  0  0  0  0  0  0  0  0  0
  -23.8738   12.0568  -20.4778 F   0  0  0  0  0  0  0  0  0  0  0  0
  -22.2133   11.2376  -18.9432 C   0  0  0  0  0  0  0  0  0  0  0  0
  -20.8360   11.0990  -18.7029 C   0  0  0  0  0  0  0  0  0  0  0  0
 26 27  1  0  0  0
 27 28  1  0  0  0
 27 33  2  0  0  0
 28 29  2  0  0  0
 29 30  1  0  0  0
 30 31  1  0  0  0
 30 32  2  0  0  0
 32 20  1  0  0  0
 32 33  1  0  0  0
 20 21  1  0  0  0
 20 24  1  0  0  0
 21 22  2  0  0  0
 21 23  1  0  0  0
 23  1  1  0  0  0
 23 25  1  0  0  0
  1  2  1  0  0  0
  1  6  2  0  0  0
  2  3  2  0  0  0
  3  4  1  0  0  0
  4  7  1  0  0  0
  4  5  2  0  0  0
  7  8  1  0  0  0
  7 17  2  0  0  0
  8  9  2  0  0  0
  9 10  1  0  0  0
 10 11  1  0  0  0
 10 12  2  0  0  0
 12 13  1  0  0  0
 12 17  1  0  0  0
 13 14  1  0  0  0
 14 15  2  0  0  0
 15 16  1  0  0  0
 15 17  1  0  0  0
 16 18  1  0  0  0
 16 19  1  0  0  0
  5  6  1  0  0  0
M  END
> <minimizedAffinity>
-7.65532

$$$$
