CHEMBL199528


 23 25  0  0  0  0  0  0  0  0999 V2000
  -28.8550   -6.4566   -6.7854 C   0  0  0  0  0  0  0  0  0  0  0  0
  -28.9220   -5.0442   -6.9803 C   0  0  0  0  0  0  0  0  0  0  0  0
  -28.8106   -4.3152   -5.7592 C   0  0  0  0  0  0  0  0  0  0  0  0
  -28.7671   -3.0953   -5.1464 C   0  0  0  0  0  0  0  0  0  0  0  0
  -28.6582   -3.4461   -3.7892 N   0  0  0  0  0  0  0  0  0  0  0  0
  -28.5085   -4.7839   -3.5590 N   0  0  0  0  0  0  0  0  0  0  0  0
  -28.5886   -5.2509   -4.7674 C   0  0  0  0  0  0  0  0  0  0  0  0
  -28.3918   -6.9302   -5.1292 S   0  0  0  0  0  0  0  0  0  0  0  0
  -28.6586   -2.8184   -2.9926 H   0  0  0  0  0  0  0  0  0  0  0  0
  -28.7877   -1.7053   -5.5951 C   0  0  0  0  0  0  0  0  0  0  0  0
  -27.9044   -1.2421   -6.5752 C   0  0  0  0  0  0  0  0  0  0  0  0
  -27.9413    0.0934   -6.9887 C   0  0  0  0  0  0  0  0  0  0  0  0
  -28.8564    0.9820   -6.4296 C   0  0  0  0  0  0  0  0  0  0  0  0
  -29.7339    0.5411   -5.4445 C   0  0  0  0  0  0  0  0  0  0  0  0
  -29.6932   -0.7930   -5.0300 C   0  0  0  0  0  0  0  0  0  0  0  0
  -30.1558   -8.2554   -7.9788 N   0  0  0  0  0  0  0  0  0  0  0  0
  -31.3120   -8.1907   -7.0961 C   0  0  0  0  0  0  0  0  0  0  0  0
  -28.9918   -7.4625   -7.8558 C   0  0  0  0  0  0  0  0  0  0  0  0
  -28.0970   -7.5739   -8.6951 O   0  0  0  0  0  0  0  0  0  0  0  0
  -30.2106   -9.2679   -9.0429 C   0  0  0  0  0  0  0  0  0  0  0  0
  -29.6788  -10.6331   -8.5978 C   0  0  0  0  0  0  0  0  0  0  0  0
  -28.8922  -10.5551  -10.9952 C   0  0  0  0  0  0  0  0  0  0  0  0
  -28.7572  -11.2576   -9.6512 C   0  0  0  0  0  0  0  0  0  0  0  0
 22 23  1  0  0  0
 23 21  1  0  0  0
 21 20  1  0  0  0
 20 16  1  0  0  0
 16 17  1  0  0  0
 16 18  1  0  0  0
 18 19  2  0  0  0
 18  1  1  0  0  0
  1  2  2  0  0  0
  1  8  1  0  0  0
  2  3  1  0  0  0
  3  4  2  0  0  0
  3  7  1  0  0  0
  4 10  1  0  0  0
  4  5  1  0  0  0
 10 11  1  0  0  0
 10 15  2  0  0  0
 11 12  2  0  0  0
 12 13  1  0  0  0
 13 14  2  0  0  0
 14 15  1  0  0  0
  5  6  1  0  0  0
  5  9  1  0  0  0
  6  7  2  0  0  0
  7  8  1  0  0  0
M  END
> <minimizedAffinity>
-7.44923

$$$$
