CHEMBL459896


 35 39  0  0  0  0  0  0  0  0999 V2000
  -28.5047   -4.0818   -5.0647 C   0  0  0  0  0  0  0  0  0  0  0  0
  -28.9236   -4.3874   -3.7425 C   0  0  0  0  0  0  0  0  0  0  0  0
  -29.3233   -5.6753   -3.4111 C   0  0  0  0  0  0  0  0  0  0  0  0
  -29.5560   -6.5522   -4.4258 C   0  0  0  0  0  0  0  0  0  0  0  0
  -29.6910   -6.0022   -5.6665 C   0  0  0  0  0  0  0  0  0  0  0  0
  -30.5888   -6.6190   -6.5093 C   0  0  0  0  0  0  0  0  0  0  0  0
  -29.8496   -7.3530   -7.3564 C   0  0  0  0  0  0  0  0  0  0  0  0
  -28.9128   -6.6109   -8.0690 C   0  0  0  0  0  0  0  0  0  0  0  0
  -28.4781   -5.3442   -7.5008 C   0  0  0  0  0  0  0  0  0  0  0  0
  -28.8369   -5.0218   -6.1228 C   0  0  0  0  0  0  0  0  0  0  0  0
  -27.7220   -2.9124   -5.1677 N   0  0  0  0  0  0  0  0  0  0  0  0
  -26.7225   -3.0986   -5.1336 H   0  0  0  0  0  0  0  0  0  0  0  0
  -27.8533   -1.1729   -6.9034 C   0  0  0  0  0  0  0  0  0  0  0  0
  -28.2379    0.1236   -7.2713 C   0  0  0  0  0  0  0  0  0  0  0  0
  -28.6830    1.0192   -6.2949 C   0  0  0  0  0  0  0  0  0  0  0  0
  -28.7048    0.6538   -4.9553 C   0  0  0  0  0  0  0  0  0  0  0  0
  -28.3592   -0.6414   -4.5888 C   0  0  0  0  0  0  0  0  0  0  0  0
  -27.9997   -1.5968   -5.5545 C   0  0  0  0  0  0  0  0  0  0  0  0
  -27.7409   -1.9248   -9.1554 C   0  0  0  0  0  0  0  0  0  0  0  0
  -27.3128   -2.0844   -7.8025 O   0  0  0  0  0  0  0  0  0  0  0  0
  -30.2170   -8.6603   -7.2438 O   0  0  0  0  0  0  0  0  0  0  0  0
  -29.3903   -9.6281   -6.7311 C   0  0  0  0  0  0  0  0  0  0  0  0
  -29.6839  -10.1866   -5.4957 C   0  0  0  0  0  0  0  0  0  0  0  0
  -28.6407  -10.6322   -4.7249 C   0  0  0  0  0  0  0  0  0  0  0  0
  -27.3638  -10.5987   -5.1172 N   0  0  0  0  0  0  0  0  0  0  0  0
  -27.1479  -10.3458   -6.4186 C   0  0  0  0  0  0  0  0  0  0  0  0
  -25.8812  -10.7086   -6.8080 C   0  0  0  0  0  0  0  0  0  0  0  0
  -25.6336  -10.9952   -8.1500 C   0  0  0  0  0  0  0  0  0  0  0  0
  -26.5548  -10.5530   -9.1147 C   0  0  0  0  0  0  0  0  0  0  0  0
  -27.7493   -9.9158   -8.6846 C   0  0  0  0  0  0  0  0  0  0  0  0
  -28.1047   -9.9035   -7.3023 C   0  0  0  0  0  0  0  0  0  0  0  0
  -24.5789  -11.8078   -8.5014 O   0  0  0  0  0  0  0  0  0  0  0  0
  -23.4561  -11.8082   -7.6084 C   0  0  0  0  0  0  0  0  0  0  0  0
  -26.4972  -10.7774  -10.4668 O   0  0  0  0  0  0  0  0  0  0  0  0
  -27.2591   -9.9223  -11.3154 C   0  0  0  0  0  0  0  0  0  0  0  0
 19 20  1  0  0  0
 20 13  1  0  0  0
 13 14  1  0  0  0
 13 18  2  0  0  0
 14 15  2  0  0  0
 15 16  1  0  0  0
 16 17  2  0  0  0
 17 18  1  0  0  0
 18 11  1  0  0  0
 11  1  1  0  0  0
 11 12  1  0  0  0
  1  2  1  0  0  0
  1 10  2  0  0  0
  2  3  2  0  0  0
  3  4  1  0  0  0
  4  5  2  0  0  0
  5  6  1  0  0  0
  5 10  1  0  0  0
  6  7  2  0  0  0
  7 21  1  0  0  0
  7  8  1  0  0  0
 21 22  1  0  0  0
 22 23  1  0  0  0
 22 31  2  0  0  0
 23 24  2  0  0  0
 24 25  1  0  0  0
 25 26  2  0  0  0
 26 27  1  0  0  0
 26 31  1  0  0  0
 27 28  2  0  0  0
 28 32  1  0  0  0
 28 29  1  0  0  0
 32 33  1  0  0  0
 29 34  1  0  0  0
 29 30  2  0  0  0
 34 35  1  0  0  0
 30 31  1  0  0  0
  8  9  2  0  0  0
  9 10  1  0  0  0
M  END
> <minimizedAffinity>
-8.78690

$$$$
