CHEMBL353281


 23 26  0  0  0  0  0  0  0  0999 V2000
  -29.7017   -7.4064   -6.1912 C   0  0  0  0  0  0  0  0  0  0  0  0
  -29.4199   -7.7570   -4.8805 C   0  0  0  0  0  0  0  0  0  0  0  0
  -29.3228   -6.6634   -4.0652 N   0  0  0  0  0  0  0  0  0  0  0  0
  -29.5107   -5.6321   -4.8581 C   0  0  0  0  0  0  0  0  0  0  0  0
  -29.3031   -4.2400   -4.6335 C   0  0  0  0  0  0  0  0  0  0  0  0
  -29.5218   -3.3554   -5.6320 C   0  0  0  0  0  0  0  0  0  0  0  0
  -30.0903   -3.7989   -6.9031 C   0  0  0  0  0  0  0  0  0  0  0  0
  -30.2137   -5.1131   -7.1425 C   0  0  0  0  0  0  0  0  0  0  0  0
  -29.8672   -6.0281   -6.1460 N   0  0  0  0  0  0  0  0  0  0  0  0
  -29.3220   -9.8698   -9.5759 C   0  0  0  0  0  0  0  0  0  0  0  0
  -30.5122   -9.8948   -8.8718 C   0  0  0  0  0  0  0  0  0  0  0  0
  -30.6468   -9.0500   -7.7739 C   0  0  0  0  0  0  0  0  0  0  0  0
  -29.5915   -8.2076   -7.4061 C   0  0  0  0  0  0  0  0  0  0  0  0
  -28.4554   -8.2352   -8.2068 C   0  0  0  0  0  0  0  0  0  0  0  0
  -28.2905   -9.0532   -9.2731 N   0  0  0  0  0  0  0  0  0  0  0  0
  -28.8692  -10.1074  -11.8532 C   0  0  0  0  0  0  0  0  0  0  0  0
  -29.2183  -10.7511  -10.6326 O   0  0  0  0  0  0  0  0  0  0  0  0
  -29.0153   -1.9883   -5.4506 C   0  0  0  0  0  0  0  0  0  0  0  0
  -29.9231   -0.9202   -5.5212 C   0  0  0  0  0  0  0  0  0  0  0  0
  -29.4857    0.3904   -5.3488 C   0  0  0  0  0  0  0  0  0  0  0  0
  -28.1377    0.6392   -5.1003 C   0  0  0  0  0  0  0  0  0  0  0  0
  -27.2309   -0.4205   -5.0211 C   0  0  0  0  0  0  0  0  0  0  0  0
  -27.6674   -1.7334   -5.1939 C   0  0  0  0  0  0  0  0  0  0  0  0
 16 17  1  0  0  0
 17 10  1  0  0  0
 10 11  1  0  0  0
 10 15  2  0  0  0
 11 12  2  0  0  0
 12 13  1  0  0  0
 13  1  1  0  0  0
 13 14  2  0  0  0
  1  2  2  0  0  0
  1  9  1  0  0  0
  2  3  1  0  0  0
  3  4  2  0  0  0
  4  5  1  0  0  0
  4  9  1  0  0  0
  5  6  2  0  0  0
  6 18  1  0  0  0
  6  7  1  0  0  0
 18 19  1  0  0  0
 18 23  2  0  0  0
 19 20  2  0  0  0
 20 21  1  0  0  0
 21 22  2  0  0  0
 22 23  1  0  0  0
  7  8  2  0  0  0
  8  9  1  0  0  0
 14 15  1  0  0  0
M  END
> <minimizedAffinity>
-8.35219

$$$$
