CHEMBL3660275


 36 39  0  0  0  0  0  0  0  0999 V2000
  -28.6531   -2.9865   -6.7253 C   0  0  0  0  0  0  0  0  0  0  0  0
  -27.9332   -3.0686   -5.5269 C   0  0  0  0  0  0  0  0  0  0  0  0
  -28.1052   -4.1476   -4.6591 C   0  0  0  0  0  0  0  0  0  0  0  0
  -29.0572   -5.1255   -4.9426 C   0  0  0  0  0  0  0  0  0  0  0  0
  -29.7980   -5.0339   -6.1273 C   0  0  0  0  0  0  0  0  0  0  0  0
  -29.6152   -3.9559   -7.0084 C   0  0  0  0  0  0  0  0  0  0  0  0
  -27.3685   -1.3058   -9.6845 N   0  0  0  0  0  0  0  0  0  0  0  0
  -27.5920   -2.3578   -8.8071 C   0  0  0  0  0  0  0  0  0  0  0  0
  -27.2121   -3.5102   -8.9873 O   0  0  0  0  0  0  0  0  0  0  0  0
  -28.3405   -1.9899   -7.6907 N   0  0  0  0  0  0  0  0  0  0  0  0
  -27.5295   -0.3741   -9.3368 H   0  0  0  0  0  0  0  0  0  0  0  0
  -29.0516   -1.2954   -7.8699 H   0  0  0  0  0  0  0  0  0  0  0  0
  -23.2332   -1.3244  -12.4439 C   0  0  0  0  0  0  0  0  0  0  0  0
  -24.7238   -1.4357  -12.3223 C   0  0  0  0  0  0  0  0  0  0  0  0
  -25.4924   -1.6553  -13.4710 C   0  0  0  0  0  0  0  0  0  0  0  0
  -26.8703   -1.7590  -13.3778 C   0  0  0  0  0  0  0  0  0  0  0  0
  -27.4948   -1.6438  -12.1376 C   0  0  0  0  0  0  0  0  0  0  0  0
  -26.7598   -1.4338  -10.9641 C   0  0  0  0  0  0  0  0  0  0  0  0
  -25.3664   -1.3281  -11.0696 C   0  0  0  0  0  0  0  0  0  0  0  0
  -29.2716   -6.2453   -4.1653 O   0  0  0  0  0  0  0  0  0  0  0  0
  -28.8765   -7.4874   -4.6157 C   0  0  0  0  0  0  0  0  0  0  0  0
  -29.6846   -8.3395   -5.3594 C   0  0  0  0  0  0  0  0  0  0  0  0
  -29.1648   -9.5623   -5.7454 C   0  0  0  0  0  0  0  0  0  0  0  0
  -27.9029   -9.9579   -5.4844 N   0  0  0  0  0  0  0  0  0  0  0  0
  -27.1114   -9.0911   -4.8020 C   0  0  0  0  0  0  0  0  0  0  0  0
  -27.5595   -7.8511   -4.3549 C   0  0  0  0  0  0  0  0  0  0  0  0
  -25.7507   -9.5768   -4.5921 C   0  0  0  0  0  0  0  0  0  0  0  0
  -25.1281  -10.1905   -3.5180 C   0  0  0  0  0  0  0  0  0  0  0  0
  -23.7596  -10.4450   -3.8555 C   0  0  0  0  0  0  0  0  0  0  0  0
  -23.5985   -9.9599   -5.1401 C   0  0  0  0  0  0  0  0  0  0  0  0
  -24.7874   -9.4418   -5.5686 N   0  0  0  0  0  0  0  0  0  0  0  0
  -24.9691   -9.0109   -6.4684 H   0  0  0  0  0  0  0  0  0  0  0  0
  -22.6843  -11.0716   -3.0838 C   0  0  0  0  0  0  0  0  0  0  0  0
  -21.5974  -11.3707   -3.5594 O   0  0  0  0  0  0  0  0  0  0  0  0
  -22.9704  -11.3078   -1.7784 O   0  0  0  0  0  0  0  0  0  0  0  0
  -23.8675  -11.0316   -1.5326 H   0  0  0  0  0  0  0  0  0  0  0  0
 13 14  1  0  0  0
 14 15  1  0  0  0
 14 19  2  0  0  0
 15 16  2  0  0  0
 16 17  1  0  0  0
 17 18  2  0  0  0
 18  7  1  0  0  0
 18 19  1  0  0  0
  7  8  1  0  0  0
  7 11  1  0  0  0
  8  9  2  0  0  0
  8 10  1  0  0  0
 10  1  1  0  0  0
 10 12  1  0  0  0
  1  2  1  0  0  0
  1  6  2  0  0  0
  2  3  2  0  0  0
  3  4  1  0  0  0
  4 20  1  0  0  0
  4  5  2  0  0  0
 20 21  1  0  0  0
 21 22  1  0  0  0
 21 26  2  0  0  0
 22 23  2  0  0  0
 23 24  1  0  0  0
 24 25  2  0  0  0
 25 27  1  0  0  0
 25 26  1  0  0  0
 27 28  2  0  0  0
 27 31  1  0  0  0
 28 29  1  0  0  0
 29 33  1  0  0  0
 29 30  2  0  0  0
 33 34  2  0  0  0
 33 35  1  0  0  0
 35 36  1  0  0  0
 30 31  1  0  0  0
 31 32  1  0  0  0
  5  6  1  0  0  0
M  END
> <minimizedAffinity>
-9.67929

$$$$
