CHEMBL1254006


 39 42  0  0  0  0  0  0  0  0999 V2000
  -29.1592   -4.7345   -6.2624 C   0  0  0  0  0  0  0  0  0  0  0  0
  -29.0389   -4.9825   -7.6288 C   0  0  0  0  0  0  0  0  0  0  0  0
  -28.5196   -4.0121   -8.4856 C   0  0  0  0  0  0  0  0  0  0  0  0
  -28.0749   -2.7822   -7.9981 C   0  0  0  0  0  0  0  0  0  0  0  0
  -28.1430   -2.5613   -6.6092 C   0  0  0  0  0  0  0  0  0  0  0  0
  -27.5616   -1.0834   -5.9172 Cl  0  0  0  0  0  0  0  0  0  0  0  0
  -28.6798   -3.5300   -5.7456 C   0  0  0  0  0  0  0  0  0  0  0  0
  -27.5370   -1.7855   -8.8557 N   0  0  0  0  0  0  0  0  0  0  0  0
  -26.9400   -2.0052  -10.0844 C   0  0  0  0  0  0  0  0  0  0  0  0
  -26.8909   -3.0844  -10.6627 O   0  0  0  0  0  0  0  0  0  0  0  0
  -26.3432   -0.8547  -10.5840 N   0  0  0  0  0  0  0  0  0  0  0  0
  -27.7738   -0.8267   -8.6246 H   0  0  0  0  0  0  0  0  0  0  0  0
  -25.9628   -0.2449   -9.8747 H   0  0  0  0  0  0  0  0  0  0  0  0
  -25.6658   -0.8769  -11.8268 C   0  0  0  0  0  0  0  0  0  0  0  0
  -26.2782   -1.5118  -12.9101 C   0  0  0  0  0  0  0  0  0  0  0  0
  -25.6730   -1.4839  -14.1672 C   0  0  0  0  0  0  0  0  0  0  0  0
  -24.4301   -0.8722  -14.3371 C   0  0  0  0  0  0  0  0  0  0  0  0
  -23.7820   -0.2686  -13.2504 C   0  0  0  0  0  0  0  0  0  0  0  0
  -24.4216   -0.2608  -12.0002 C   0  0  0  0  0  0  0  0  0  0  0  0
  -22.4178    0.3569  -13.4042 C   0  0  0  0  0  0  0  0  0  0  0  0
  -21.6799   -0.1931  -14.4102 F   0  0  0  0  0  0  0  0  0  0  0  0
  -22.4659    1.6913  -13.6686 F   0  0  0  0  0  0  0  0  0  0  0  0
  -21.6567    0.2252  -12.2805 F   0  0  0  0  0  0  0  0  0  0  0  0
  -29.6731   -5.6566   -5.3731 O   0  0  0  0  0  0  0  0  0  0  0  0
  -31.6975   -7.3648   -6.8443 C   0  0  0  0  0  0  0  0  0  0  0  0
  -30.6941   -8.3612   -6.5250 N   0  0  0  0  0  0  0  0  0  0  0  0
  -30.7058   -9.7180   -6.8433 C   0  0  0  0  0  0  0  0  0  0  0  0
  -29.5663  -10.2593   -6.2592 C   0  0  0  0  0  0  0  0  0  0  0  0
  -28.8393   -9.2298   -5.6397 C   0  0  0  0  0  0  0  0  0  0  0  0
  -27.6732   -9.3169   -4.9693 N   0  0  0  0  0  0  0  0  0  0  0  0
  -27.2320   -8.1406   -4.5163 C   0  0  0  0  0  0  0  0  0  0  0  0
  -27.8184   -6.9419   -4.6502 N   0  0  0  0  0  0  0  0  0  0  0  0
  -29.0171   -6.8806   -5.2766 C   0  0  0  0  0  0  0  0  0  0  0  0
  -29.5411   -8.0491   -5.8197 C   0  0  0  0  0  0  0  0  0  0  0  0
  -31.7772  -10.4714   -7.6036 C   0  0  0  0  0  0  0  0  0  0  0  0
  -31.2626  -11.8137   -8.1476 C   0  0  0  0  0  0  0  0  0  0  0  0
  -33.0030  -10.7125   -6.7219 C   0  0  0  0  0  0  0  0  0  0  0  0
  -32.1596   -9.6866   -8.7280 O   0  0  0  0  0  0  0  0  0  0  0  0
  -31.4307   -9.7309   -9.3697 H   0  0  0  0  0  0  0  0  0  0  0  0
 25 26  1  0  0  0
 26 27  1  0  0  0
 26 34  1  0  0  0
 27 35  1  0  0  0
 27 28  2  0  0  0
 35 36  1  0  0  0
 35 37  1  0  0  0
 35 38  1  0  0  0
 38 39  1  0  0  0
 28 29  1  0  0  0
 29 30  1  0  0  0
 29 34  2  0  0  0
 30 31  2  0  0  0
 31 32  1  0  0  0
 32 33  2  0  0  0
 33 24  1  0  0  0
 33 34  1  0  0  0
 24  1  1  0  0  0
  1  2  1  0  0  0
  1  7  2  0  0  0
  2  3  2  0  0  0
  3  4  1  0  0  0
  4  8  1  0  0  0
  4  5  2  0  0  0
  8  9  1  0  0  0
  8 12  1  0  0  0
  9 10  2  0  0  0
  9 11  1  0  0  0
 11 14  1  0  0  0
 11 13  1  0  0  0
 14 15  1  0  0  0
 14 19  2  0  0  0
 15 16  2  0  0  0
 16 17  1  0  0  0
 17 18  2  0  0  0
 18 20  1  0  0  0
 18 19  1  0  0  0
 20 21  1  0  0  0
 20 22  1  0  0  0
 20 23  1  0  0  0
  5  6  1  0  0  0
  5  7  1  0  0  0
M  END
> <minimizedAffinity>
-10.61419

$$$$
