CHEMBL1940852


 22 24  0  0  0  0  0  0  0  0999 V2000
  -20.9719    1.0901  -14.3736 C   0  0  0  0  0  0  0  0  0  0  0  0
  -19.6890    0.6638  -14.7254 C   0  0  0  0  0  0  0  0  0  0  0  0
  -18.7293    1.5895  -15.1620 C   0  0  0  0  0  0  0  0  0  0  0  0
  -17.4529    1.1873  -15.5894 C   0  0  0  0  0  0  0  0  0  0  0  0
  -16.5389    2.1279  -16.0629 C   0  0  0  0  0  0  0  0  0  0  0  0
  -16.8766    3.4812  -16.0855 C   0  0  0  0  0  0  0  0  0  0  0  0
  -15.9050    4.5187  -16.5627 C   0  0  0  0  0  0  0  0  0  0  0  0
  -18.1460    3.8733  -15.6338 C   0  0  0  0  0  0  0  0  0  0  0  0
  -19.0844    2.9537  -15.1883 C   0  0  0  0  0  0  0  0  0  0  0  0
  -20.2944    3.3881  -14.8109 N   0  0  0  0  0  0  0  0  0  0  0  0
  -21.2051    2.4650  -14.4268 C   0  0  0  0  0  0  0  0  0  0  0  0
  -22.7121    3.1766  -13.9943 Cl  0  0  0  0  0  0  0  0  0  0  0  0
  -22.3783   -0.0670  -12.7251 C   0  0  0  0  0  0  0  0  0  0  0  0
  -21.9704    0.0833  -13.9967 C   0  0  0  0  0  0  0  0  0  0  0  0
  -23.3629   -1.1360  -12.3600 C   0  0  0  0  0  0  0  0  0  0  0  0
  -23.1062   -1.8640  -11.4030 O   0  0  0  0  0  0  0  0  0  0  0  0
  -28.2615   -2.1718  -13.3157 C   0  0  0  0  0  0  0  0  0  0  0  0
  -26.8610   -1.7514  -13.6046 C   0  0  0  0  0  0  0  0  0  0  0  0
  -26.3820   -1.3681  -14.8404 C   0  0  0  0  0  0  0  0  0  0  0  0
  -24.7250   -0.9590  -14.8036 S   0  0  0  0  0  0  0  0  0  0  0  0
  -24.6011   -1.2757  -13.1275 C   0  0  0  0  0  0  0  0  0  0  0  0
  -25.8219   -1.6908  -12.6209 C   0  0  0  0  0  0  0  0  0  0  0  0
 17 18  1  0  0  0
 18 19  2  0  0  0
 18 22  1  0  0  0
 19 20  1  0  0  0
 20 21  1  0  0  0
 21 15  1  0  0  0
 21 22  2  0  0  0
 15 16  2  0  0  0
 15 13  1  0  0  0
 13 14  2  0  0  0
 14  1  1  0  0  0
  1  2  1  0  0  0
  1 11  2  0  0  0
  2  3  2  0  0  0
  3  4  1  0  0  0
  3  9  1  0  0  0
  4  5  2  0  0  0
  5  6  1  0  0  0
  6  7  1  0  0  0
  6  8  2  0  0  0
  8  9  1  0  0  0
  9 10  2  0  0  0
 10 11  1  0  0  0
 11 12  1  0  0  0
M  END
> <minimizedAffinity>
-9.75131

$$$$
