CHEMBL4469836


 39 43  0  0  0  0  0  0  0  0999 V2000
  -23.2923    0.1638  -13.8579 C   0  0  0  0  0  0  0  0  0  0  0  0
  -22.2594   -0.4740  -14.5704 C   0  0  0  0  0  0  0  0  0  0  0  0
  -21.1193    0.2279  -14.9846 C   0  0  0  0  0  0  0  0  0  0  0  0
  -21.1198    1.6104  -14.7707 C   0  0  0  0  0  0  0  0  0  0  0  0
  -20.2802    2.7331  -15.0410 C   0  0  0  0  0  0  0  0  0  0  0  0
  -20.8679    3.8666  -14.6459 N   0  0  0  0  0  0  0  0  0  0  0  0
  -22.0368    3.4869  -14.1172 N   0  0  0  0  0  0  0  0  0  0  0  0
  -22.2266    2.1419  -14.1246 C   0  0  0  0  0  0  0  0  0  0  0  0
  -23.2878    1.4920  -13.6157 N   0  0  0  0  0  0  0  0  0  0  0  0
  -22.6767    4.1960  -13.7824 H   0  0  0  0  0  0  0  0  0  0  0  0
  -25.7022   -1.5452  -11.3976 C   0  0  0  0  0  0  0  0  0  0  0  0
  -26.7645   -1.8263  -12.2518 C   0  0  0  0  0  0  0  0  0  0  0  0
  -26.6809   -1.6005  -13.6287 C   0  0  0  0  0  0  0  0  0  0  0  0
  -25.4914   -1.0680  -14.1569 C   0  0  0  0  0  0  0  0  0  0  0  0
  -25.1998   -1.1092  -15.8804 Cl  0  0  0  0  0  0  0  0  0  0  0  0
  -24.4436   -0.6045  -13.2994 C   0  0  0  0  0  0  0  0  0  0  0  0
  -24.5635   -0.8918  -11.9108 C   0  0  0  0  0  0  0  0  0  0  0  0
  -23.3233   -0.4456  -10.7658 Cl  0  0  0  0  0  0  0  0  0  0  0  0
  -27.0375   -1.8804   -9.4559 C   0  0  0  0  0  0  0  0  0  0  0  0
  -25.7425   -1.8341  -10.0541 O   0  0  0  0  0  0  0  0  0  0  0  0
  -27.8340   -1.9984  -14.2480 O   0  0  0  0  0  0  0  0  0  0  0  0
  -28.7974   -2.7899  -13.5748 C   0  0  0  0  0  0  0  0  0  0  0  0
  -19.0239    2.6821  -15.6248 N   0  0  0  0  0  0  0  0  0  0  0  0
  -17.9213    2.1607  -14.9716 C   0  0  0  0  0  0  0  0  0  0  0  0
  -17.8945    1.7050  -13.8368 O   0  0  0  0  0  0  0  0  0  0  0  0
  -18.9610    2.9928  -16.5823 H   0  0  0  0  0  0  0  0  0  0  0  0
  -16.6299    2.1369  -15.7132 C   0  0  0  0  0  0  0  0  0  0  0  0
  -15.8609    0.9912  -15.9024 C   0  0  0  0  0  0  0  0  0  0  0  0
  -14.7158    1.0593  -16.7088 C   0  0  0  0  0  0  0  0  0  0  0  0
  -14.3126    2.2459  -17.3496 C   0  0  0  0  0  0  0  0  0  0  0  0
  -15.0930    3.3815  -17.1340 C   0  0  0  0  0  0  0  0  0  0  0  0
  -16.2304    3.3323  -16.3262 C   0  0  0  0  0  0  0  0  0  0  0  0
  -13.2354    2.2332  -18.2107 N   0  0  0  0  0  0  0  0  0  0  0  0
  -12.6177    3.4712  -18.7118 C   0  0  0  0  0  0  0  0  0  0  0  0
  -12.0576    3.2106  -20.1331 C   0  0  0  0  0  0  0  0  0  0  0  0
  -11.1187    2.0631  -20.1867 N   0  0  0  0  0  0  0  0  0  0  0  0
  -10.6966    1.8118  -21.5620 C   0  0  0  0  0  0  0  0  0  0  0  0
  -11.7777    0.8601  -19.6250 C   0  0  0  0  0  0  0  0  0  0  0  0
  -12.3082    1.0916  -18.1943 C   0  0  0  0  0  0  0  0  0  0  0  0
 19 20  1  0  0  0
 20 11  1  0  0  0
 11 12  1  0  0  0
 11 17  2  0  0  0
 12 13  2  0  0  0
 13 21  1  0  0  0
 13 14  1  0  0  0
 21 22  1  0  0  0
 14 15  1  0  0  0
 14 16  2  0  0  0
 16  1  1  0  0  0
 16 17  1  0  0  0
  1  2  1  0  0  0
  1  9  2  0  0  0
  2  3  2  0  0  0
  3  4  1  0  0  0
  4  5  1  0  0  0
  4  8  2  0  0  0
  5 23  1  0  0  0
  5  6  2  0  0  0
 23 24  1  0  0  0
 23 26  1  0  0  0
 24 25  2  0  0  0
 24 27  1  0  0  0
 27 28  1  0  0  0
 27 32  2  0  0  0
 28 29  2  0  0  0
 29 30  1  0  0  0
 30 33  1  0  0  0
 30 31  2  0  0  0
 33 34  1  0  0  0
 33 39  1  0  0  0
 34 35  1  0  0  0
 35 36  1  0  0  0
 36 37  1  0  0  0
 36 38  1  0  0  0
 38 39  1  0  0  0
 31 32  1  0  0  0
  6  7  1  0  0  0
  7  8  1  0  0  0
  7 10  1  0  0  0
  8  9  1  0  0  0
 17 18  1  0  0  0
M  END
> <minimizedAffinity>
-8.52374

$$$$
