CHEMBL4781578


 38 40  0  0  0  0  0  0  0  0999 V2000
  -14.2755    0.6102  -15.1647 C   0  0  0  0  0  0  0  0  0  0  0  0
  -14.7890    1.0324  -16.3881 C   0  0  0  0  0  0  0  0  0  0  0  0
  -14.1470    1.3296  -17.6969 C   0  0  0  0  0  0  0  0  0  0  0  0
  -16.1651    1.0416  -16.2845 N   0  0  0  0  0  0  0  0  0  0  0  0
  -16.5630    0.6044  -15.0450 C   0  0  0  0  0  0  0  0  0  0  0  0
  -15.4173    0.3516  -14.3128 C   0  0  0  0  0  0  0  0  0  0  0  0
  -15.3523   -0.1602  -12.9135 C   0  0  0  0  0  0  0  0  0  0  0  0
  -16.7889    1.2374  -17.0538 H   0  0  0  0  0  0  0  0  0  0  0  0
  -17.9585    0.4864  -14.7642 C   0  0  0  0  0  0  0  0  0  0  0  0
  -18.7774    1.5301  -14.6022 C   0  0  0  0  0  0  0  0  0  0  0  0
  -18.3903    2.9964  -14.6415 C   0  0  0  0  0  0  0  0  0  0  0  0
  -17.2916    3.4971  -14.6924 O   0  0  0  0  0  0  0  0  0  0  0  0
  -19.5849    3.6926  -14.5554 N   0  0  0  0  0  0  0  0  0  0  0  0
  -20.6637    2.8349  -14.3887 C   0  0  0  0  0  0  0  0  0  0  0  0
  -21.9742    3.2225  -14.2089 C   0  0  0  0  0  0  0  0  0  0  0  0
  -22.9132    2.2159  -14.0079 C   0  0  0  0  0  0  0  0  0  0  0  0
  -22.5345    0.8521  -13.9794 C   0  0  0  0  0  0  0  0  0  0  0  0
  -21.1837    0.4946  -14.2036 C   0  0  0  0  0  0  0  0  0  0  0  0
  -20.2479    1.5010  -14.3968 C   0  0  0  0  0  0  0  0  0  0  0  0
  -19.6211    4.6969  -14.5518 H   0  0  0  0  0  0  0  0  0  0  0  0
  -23.6377   -0.1574  -13.7181 C   0  0  0  0  0  0  0  0  0  0  0  0
  -24.2486   -0.1525  -12.3235 C   0  0  0  0  0  0  0  0  0  0  0  0
  -24.1453   -1.4538  -11.5530 C   0  0  0  0  0  0  0  0  0  0  0  0
  -25.2859   -2.0092  -11.0627 N   0  0  0  0  0  0  0  0  0  0  0  0
  -23.0793   -2.0340  -11.4154 O   0  0  0  0  0  0  0  0  0  0  0  0
  -26.2137   -1.6272  -11.1585 H   0  0  0  0  0  0  0  0  0  0  0  0
  -25.1775   -2.8906  -10.5737 H   0  0  0  0  0  0  0  0  0  0  0  0
  -12.4510   -0.9480  -14.8387 N   0  0  0  0  0  0  0  0  0  0  0  0
  -12.8703    0.3645  -14.8199 C   0  0  0  0  0  0  0  0  0  0  0  0
  -12.0924    1.2847  -14.5520 O   0  0  0  0  0  0  0  0  0  0  0  0
  -13.0424   -1.6370  -15.2861 H   0  0  0  0  0  0  0  0  0  0  0  0
  -11.0651   -1.2672  -14.5765 C   0  0  0  0  0  0  0  0  0  0  0  0
  -10.8153   -2.4867  -13.6561 C   0  0  0  0  0  0  0  0  0  0  0  0
  -12.0388   -3.1746  -13.1552 N   0  0  0  0  0  0  0  0  0  0  0  0
  -13.3193   -5.3851  -13.3887 C   0  0  0  0  0  0  0  0  0  0  0  0
  -12.1074   -4.5284  -13.7461 C   0  0  0  0  0  0  0  0  0  0  0  0
  -12.0748   -3.1777  -11.6761 C   0  0  0  0  0  0  0  0  0  0  0  0
  -10.8129   -3.6336  -10.9468 C   0  0  0  0  0  0  0  0  0  0  0  0
 35 36  1  0  0  0
 36 34  1  0  0  0
 34 37  1  0  0  0
 34 33  1  0  0  0
 37 38  1  0  0  0
 33 32  1  0  0  0
 32 28  1  0  0  0
 28 29  1  0  0  0
 28 31  1  0  0  0
 29 30  2  0  0  0
 29  1  1  0  0  0
  1  2  2  0  0  0
  1  6  1  0  0  0
  2  3  1  0  0  0
  2  4  1  0  0  0
  4  5  1  0  0  0
  4  8  1  0  0  0
  5  9  1  0  0  0
  5  6  2  0  0  0
  9 10  2  0  0  0
 10 11  1  0  0  0
 10 19  1  0  0  0
 11 12  2  0  0  0
 11 13  1  0  0  0
 13 14  1  0  0  0
 13 20  1  0  0  0
 14 15  1  0  0  0
 14 19  2  0  0  0
 15 16  2  0  0  0
 16 17  1  0  0  0
 17 21  1  0  0  0
 17 18  2  0  0  0
 21 22  1  0  0  0
 22 23  1  0  0  0
 23 24  1  0  0  0
 23 25  2  0  0  0
 24 26  1  0  0  0
 24 27  1  0  0  0
 18 19  1  0  0  0
  6  7  1  0  0  0
M  END
> <minimizedAffinity>
-7.97738

$$$$
