CHEMBL3920116


 26 29  0  0  0  0  0  0  0  0999 V2000
  -28.4606   -8.2501   -7.2179 C   0  0  0  0  0  0  0  0  0  0  0  0
  -29.2037   -8.6583   -6.1756 N   0  0  0  0  0  0  0  0  0  0  0  0
  -29.8777   -7.7037   -5.4906 C   0  0  0  0  0  0  0  0  0  0  0  0
  -29.8739   -6.3676   -5.8243 C   0  0  0  0  0  0  0  0  0  0  0  0
  -29.1475   -6.0639   -6.9603 C   0  0  0  0  0  0  0  0  0  0  0  0
  -28.4291   -6.9804   -7.6361 N   0  0  0  0  0  0  0  0  0  0  0  0
  -29.0607   -4.6539   -7.4776 C   0  0  0  0  0  0  0  0  0  0  0  0
  -30.1991   -3.8026   -6.9224 C   0  0  0  0  0  0  0  0  0  0  0  0
  -30.2503   -3.9717   -5.4704 N   0  0  0  0  0  0  0  0  0  0  0  0
  -29.9424   -3.0245   -4.4915 C   0  0  0  0  0  0  0  0  0  0  0  0
  -30.1881   -3.2306   -3.3021 O   0  0  0  0  0  0  0  0  0  0  0  0
  -30.6385   -5.3248   -5.0561 C   0  0  0  0  0  0  0  0  0  0  0  0
  -29.2968   -1.7252   -4.8285 C   0  0  0  0  0  0  0  0  0  0  0  0
  -29.9781   -0.5793   -5.2420 C   0  0  0  0  0  0  0  0  0  0  0  0
  -29.2822    0.5889   -5.5493 C   0  0  0  0  0  0  0  0  0  0  0  0
  -27.9020    0.5604   -5.4911 C   0  0  0  0  0  0  0  0  0  0  0  0
  -27.1964   -0.5378   -5.1510 N   0  0  0  0  0  0  0  0  0  0  0  0
  -27.9076   -1.6555   -4.8376 C   0  0  0  0  0  0  0  0  0  0  0  0
  -27.7175   -9.2329   -7.8853 N   0  0  0  0  0  0  0  0  0  0  0  0
  -26.9296   -9.5005   -7.3131 H   0  0  0  0  0  0  0  0  0  0  0  0
  -30.0284  -10.7808   -9.0402 C   0  0  0  0  0  0  0  0  0  0  0  0
  -28.8584  -10.2883   -9.7265 N   0  0  0  0  0  0  0  0  0  0  0  0
  -28.7412  -10.5250  -11.0516 N   0  0  0  0  0  0  0  0  0  0  0  0
  -27.6098   -9.9051  -11.3823 C   0  0  0  0  0  0  0  0  0  0  0  0
  -27.0020   -9.2799  -10.2838 C   0  0  0  0  0  0  0  0  0  0  0  0
  -27.8192   -9.5475   -9.2035 C   0  0  0  0  0  0  0  0  0  0  0  0
 21 22  1  0  0  0
 22 23  1  0  0  0
 22 26  1  0  0  0
 23 24  2  0  0  0
 24 25  1  0  0  0
 25 26  2  0  0  0
 26 19  1  0  0  0
 19  1  1  0  0  0
 19 20  1  0  0  0
  1  2  1  0  0  0
  1  6  2  0  0  0
  2  3  2  0  0  0
  3  4  1  0  0  0
  4  5  2  0  0  0
  4 12  1  0  0  0
  5  6  1  0  0  0
  5  7  1  0  0  0
  7  8  1  0  0  0
  8  9  1  0  0  0
  9 10  1  0  0  0
  9 12  1  0  0  0
 10 11  2  0  0  0
 10 13  1  0  0  0
 13 14  1  0  0  0
 13 18  2  0  0  0
 14 15  2  0  0  0
 15 16  1  0  0  0
 16 17  2  0  0  0
 17 18  1  0  0  0
M  END
> <minimizedAffinity>
-8.16597

$$$$
