CHEMBL3967877


 47 51  0  0  0  0  0  0  0  0999 V2000
  -14.5463    2.0867  -17.0482 C   0  0  0  0  0  0  0  0  0  0  0  0
  -14.4436    1.0432  -17.9700 C   0  0  0  0  0  0  0  0  0  0  0  0
  -13.9029    1.2983  -19.2143 C   0  0  0  0  0  0  0  0  0  0  0  0
  -13.4058    2.4798  -19.6152 N   0  0  0  0  0  0  0  0  0  0  0  0
  -13.4413    3.4796  -18.6953 C   0  0  0  0  0  0  0  0  0  0  0  0
  -12.9307    4.7901  -18.9036 C   0  0  0  0  0  0  0  0  0  0  0  0
  -13.0946    5.6151  -17.8100 C   0  0  0  0  0  0  0  0  0  0  0  0
  -13.8734    4.7878  -16.5278 S   0  0  0  0  0  0  0  0  0  0  0  0
  -13.9934    3.3245  -17.4239 C   0  0  0  0  0  0  0  0  0  0  0  0
  -12.6840    7.0107  -17.7115 C   0  0  0  0  0  0  0  0  0  0  0  0
  -11.9011    7.4069  -16.8547 O   0  0  0  0  0  0  0  0  0  0  0  0
  -13.2302    7.8617  -18.6508 N   0  0  0  0  0  0  0  0  0  0  0  0
  -13.8282    7.4652  -19.3668 H   0  0  0  0  0  0  0  0  0  0  0  0
  -12.8956    9.2683  -18.7127 C   0  0  0  0  0  0  0  0  0  0  0  0
  -13.8135   10.0136  -19.6786 C   0  0  0  0  0  0  0  0  0  0  0  0
  -14.2950    9.1216  -20.8303 C   0  0  0  0  0  0  0  0  0  0  0  0
  -15.6419    9.4474  -21.3361 N   0  0  0  0  0  0  0  0  0  0  0  0
  -16.4478    8.2316  -21.5437 C   0  0  0  0  0  0  0  0  0  0  0  0
  -17.8426    8.5576  -22.0709 C   0  0  0  0  0  0  0  0  0  0  0  0
  -18.5750    9.5124  -21.1398 C   0  0  0  0  0  0  0  0  0  0  0  0
  -17.7260   10.7639  -20.8870 C   0  0  0  0  0  0  0  0  0  0  0  0
  -16.3142   10.3785  -20.4131 C   0  0  0  0  0  0  0  0  0  0  0  0
  -18.3887   11.6864  -19.8586 C   0  0  0  0  0  0  0  0  0  0  0  0
  -19.7661   11.3737  -19.6955 O   0  0  0  0  0  0  0  0  0  0  0  0
  -20.1860   11.4339  -20.5709 H   0  0  0  0  0  0  0  0  0  0  0  0
  -15.0794    1.9355  -15.7847 O   0  0  0  0  0  0  0  0  0  0  0  0
  -19.2128    1.9472  -15.1682 C   0  0  0  0  0  0  0  0  0  0  0  0
  -18.4698    0.7642  -15.1105 C   0  0  0  0  0  0  0  0  0  0  0  0
  -17.0900    0.7902  -15.3382 C   0  0  0  0  0  0  0  0  0  0  0  0
  -16.4439    2.0003  -15.6097 C   0  0  0  0  0  0  0  0  0  0  0  0
  -17.1777    3.1900  -15.6224 C   0  0  0  0  0  0  0  0  0  0  0  0
  -18.5573    3.1465  -15.4510 C   0  0  0  0  0  0  0  0  0  0  0  0
  -19.2574    4.2896  -15.4941 F   0  0  0  0  0  0  0  0  0  0  0  0
  -22.5730    1.0096  -14.1810 N   0  0  0  0  0  0  0  0  0  0  0  0
  -21.2215    0.8186  -14.4221 C   0  0  0  0  0  0  0  0  0  0  0  0
  -20.5855   -0.2032  -14.1964 O   0  0  0  0  0  0  0  0  0  0  0  0
  -20.6055    1.9758  -14.8913 N   0  0  0  0  0  0  0  0  0  0  0  0
  -22.9255    1.9480  -14.2998 H   0  0  0  0  0  0  0  0  0  0  0  0
  -20.9161    2.8169  -14.4222 H   0  0  0  0  0  0  0  0  0  0  0  0
  -26.6731   -1.7027  -14.7619 C   0  0  0  0  0  0  0  0  0  0  0  0
  -25.5131   -1.2628  -13.9152 C   0  0  0  0  0  0  0  0  0  0  0  0
  -25.3910   -1.7452  -12.6081 C   0  0  0  0  0  0  0  0  0  0  0  0
  -24.3013   -1.3732  -11.8311 C   0  0  0  0  0  0  0  0  0  0  0  0
  -23.3400   -0.5071  -12.3422 C   0  0  0  0  0  0  0  0  0  0  0  0
  -22.2630   -0.3134  -11.5718 F   0  0  0  0  0  0  0  0  0  0  0  0
  -23.4613    0.0503  -13.6260 C   0  0  0  0  0  0  0  0  0  0  0  0
  -24.5492   -0.3678  -14.4172 C   0  0  0  0  0  0  0  0  0  0  0  0
 40 41  1  0  0  0
 41 42  1  0  0  0
 41 47  2  0  0  0
 42 43  2  0  0  0
 43 44  1  0  0  0
 44 45  1  0  0  0
 44 46  2  0  0  0
 46 34  1  0  0  0
 46 47  1  0  0  0
 34 35  1  0  0  0
 34 38  1  0  0  0
 35 36  2  0  0  0
 35 37  1  0  0  0
 37 27  1  0  0  0
 37 39  1  0  0  0
 27 28  1  0  0  0
 27 32  2  0  0  0
 28 29  2  0  0  0
 29 30  1  0  0  0
 30 26  1  0  0  0
 30 31  2  0  0  0
 26  1  1  0  0  0
  1  2  1  0  0  0
  1  9  2  0  0  0
  2  3  2  0  0  0
  3  4  1  0  0  0
  4  5  2  0  0  0
  5  6  1  0  0  0
  5  9  1  0  0  0
  6  7  2  0  0  0
  7 10  1  0  0  0
  7  8  1  0  0  0
 10 11  2  0  0  0
 10 12  1  0  0  0
 12 14  1  0  0  0
 12 13  1  0  0  0
 14 15  1  0  0  0
 15 16  1  0  0  0
 16 17  1  0  0  0
 17 18  1  0  0  0
 17 22  1  0  0  0
 18 19  1  0  0  0
 19 20  1  0  0  0
 20 21  1  0  0  0
 21 23  1  0  0  0
 21 22  1  0  0  0
 23 24  1  0  0  0
 24 25  1  0  0  0
  8  9  1  0  0  0
 31 32  1  0  0  0
 32 33  1  0  0  0
M  END
> <minimizedAffinity>
-7.81253

$$$$
