CHEMBL271141


 47 52  0  0  0  0  0  0  0  0999 V2000
  -24.2465    0.2416  -13.2496 C   0  0  0  0  0  0  0  0  0  0  0  0
  -24.2555    1.2291  -12.5228 O   0  0  0  0  0  0  0  0  0  0  0  0
  -23.2328   -0.0882  -14.1269 N   0  0  0  0  0  0  0  0  0  0  0  0
  -23.4103   -0.8306  -14.7914 H   0  0  0  0  0  0  0  0  0  0  0  0
  -25.4214   -1.0767  -15.8141 C   0  0  0  0  0  0  0  0  0  0  0  0
  -26.0090   -1.2073  -14.4409 C   0  0  0  0  0  0  0  0  0  0  0  0
  -27.1669   -1.9891  -14.2991 C   0  0  0  0  0  0  0  0  0  0  0  0
  -27.7431   -2.2267  -13.0442 C   0  0  0  0  0  0  0  0  0  0  0  0
  -27.1838   -1.6907  -11.8883 C   0  0  0  0  0  0  0  0  0  0  0  0
  -26.0389   -0.8981  -12.0126 C   0  0  0  0  0  0  0  0  0  0  0  0
  -25.4610   -0.6299  -13.2750 C   0  0  0  0  0  0  0  0  0  0  0  0
  -27.7058   -1.9241  -10.5928 N   0  0  0  0  0  0  0  0  0  0  0  0
  -27.0180   -1.7676   -9.4006 C   0  0  0  0  0  0  0  0  0  0  0  0
  -25.8290   -1.4945   -9.2773 O   0  0  0  0  0  0  0  0  0  0  0  0
  -28.6331   -2.3304  -10.5518 H   0  0  0  0  0  0  0  0  0  0  0  0
  -27.7926   -2.0212   -8.1554 C   0  0  0  0  0  0  0  0  0  0  0  0
  -28.0691   -0.9172   -7.3130 C   0  0  0  0  0  0  0  0  0  0  0  0
  -28.8194   -1.0718   -6.1435 C   0  0  0  0  0  0  0  0  0  0  0  0
  -29.3073   -2.3283   -5.8669 C   0  0  0  0  0  0  0  0  0  0  0  0
  -29.0654   -3.4022   -6.6984 C   0  0  0  0  0  0  0  0  0  0  0  0
  -28.3036   -3.2891   -7.8460 C   0  0  0  0  0  0  0  0  0  0  0  0
  -29.6776   -4.5371   -6.2610 O   0  0  0  0  0  0  0  0  0  0  0  0
  -30.4270   -4.0030   -5.1580 C   0  0  0  0  0  0  0  0  0  0  0  0
  -31.7442   -4.0294   -5.4817 F   0  0  0  0  0  0  0  0  0  0  0  0
  -30.2520   -4.8053   -4.0811 F   0  0  0  0  0  0  0  0  0  0  0  0
  -30.0801   -2.6594   -4.7982 O   0  0  0  0  0  0  0  0  0  0  0  0
  -22.0190    0.6148  -14.2807 C   0  0  0  0  0  0  0  0  0  0  0  0
  -21.5666    1.2473  -15.4237 C   0  0  0  0  0  0  0  0  0  0  0  0
  -20.3840    1.9099  -15.5202 N   0  0  0  0  0  0  0  0  0  0  0  0
  -19.6337    1.9618  -14.4146 C   0  0  0  0  0  0  0  0  0  0  0  0
  -19.9852    1.3655  -13.2605 N   0  0  0  0  0  0  0  0  0  0  0  0
  -21.1599    0.7162  -13.2127 C   0  0  0  0  0  0  0  0  0  0  0  0
  -18.4318    2.6633  -14.4638 N   0  0  0  0  0  0  0  0  0  0  0  0
  -18.2389    3.1850  -13.6226 H   0  0  0  0  0  0  0  0  0  0  0  0
  -17.3936    2.4717  -15.3829 C   0  0  0  0  0  0  0  0  0  0  0  0
  -16.7469    1.2424  -15.4861 C   0  0  0  0  0  0  0  0  0  0  0  0
  -15.5944    1.1171  -16.2745 C   0  0  0  0  0  0  0  0  0  0  0  0
  -15.0690    2.2013  -16.9968 C   0  0  0  0  0  0  0  0  0  0  0  0
  -15.7559    3.4113  -16.9232 C   0  0  0  0  0  0  0  0  0  0  0  0
  -16.8952    3.5410  -16.1341 C   0  0  0  0  0  0  0  0  0  0  0  0
  -13.9471    2.0288  -17.7958 N   0  0  0  0  0  0  0  0  0  0  0  0
  -13.6058    3.0638  -18.7857 C   0  0  0  0  0  0  0  0  0  0  0  0
  -12.7143    2.4307  -19.8715 C   0  0  0  0  0  0  0  0  0  0  0  0
  -11.4781    1.8339  -19.3133 N   0  0  0  0  0  0  0  0  0  0  0  0
  -10.7185    1.1810  -20.3761 C   0  0  0  0  0  0  0  0  0  0  0  0
  -11.8342    0.8580  -18.2523 C   0  0  0  0  0  0  0  0  0  0  0  0
  -12.7451    1.4607  -17.1540 C   0  0  0  0  0  0  0  0  0  0  0  0
  5  6  1  0  0  0
  6  7  1  0  0  0
  6 11  2  0  0  0
  7  8  2  0  0  0
  8  9  1  0  0  0
  9 12  1  0  0  0
  9 10  2  0  0  0
 12 13  1  0  0  0
 12 15  1  0  0  0
 13 14  2  0  0  0
 13 16  1  0  0  0
 16 17  1  0  0  0
 16 21  2  0  0  0
 17 18  2  0  0  0
 18 19  1  0  0  0
 19 20  2  0  0  0
 19 26  1  0  0  0
 20 21  1  0  0  0
 20 22  1  0  0  0
 22 23  1  0  0  0
 23 24  1  0  0  0
 23 25  1  0  0  0
 23 26  1  0  0  0
 10 11  1  0  0  0
 11  1  1  0  0  0
  1  2  2  0  0  0
  1  3  1  0  0  0
  3 27  1  0  0  0
  3  4  1  0  0  0
 27 28  1  0  0  0
 27 32  2  0  0  0
 28 29  2  0  0  0
 29 30  1  0  0  0
 30 33  1  0  0  0
 30 31  2  0  0  0
 33 35  1  0  0  0
 33 34  1  0  0  0
 35 36  1  0  0  0
 35 40  2  0  0  0
 36 37  2  0  0  0
 37 38  1  0  0  0
 38 41  1  0  0  0
 38 39  2  0  0  0
 41 42  1  0  0  0
 41 47  1  0  0  0
 42 43  1  0  0  0
 43 44  1  0  0  0
 44 45  1  0  0  0
 44 46  1  0  0  0
 46 47  1  0  0  0
 39 40  1  0  0  0
 31 32  1  0  0  0
M  END
> <minimizedAffinity>
-8.35906

$$$$
