CHEMBL176705


 26 29  0  0  0  0  0  0  0  0999 V2000
  -28.8584   -5.3711   -6.5250 C   0  0  0  0  0  0  0  0  0  0  0  0
  -28.6660   -5.9818   -7.7512 C   0  0  0  0  0  0  0  0  0  0  0  0
  -28.6826   -7.3577   -7.5901 N   0  0  0  0  0  0  0  0  0  0  0  0
  -28.8504   -7.6241   -6.2338 C   0  0  0  0  0  0  0  0  0  0  0  0
  -28.8793   -8.8499   -5.6696 N   0  0  0  0  0  0  0  0  0  0  0  0
  -28.9917   -8.8111   -4.3420 C   0  0  0  0  0  0  0  0  0  0  0  0
  -29.0547   -7.7276   -3.5606 N   0  0  0  0  0  0  0  0  0  0  0  0
  -28.9874   -6.5112   -4.1356 C   0  0  0  0  0  0  0  0  0  0  0  0
  -28.9846   -5.4582   -3.2528 N   0  0  0  0  0  0  0  0  0  0  0  0
  -28.9066   -6.4153   -5.5406 C   0  0  0  0  0  0  0  0  0  0  0  0
  -29.2054   -5.6870   -2.2965 H   0  0  0  0  0  0  0  0  0  0  0  0
  -28.9392   -4.4997   -3.5551 H   0  0  0  0  0  0  0  0  0  0  0  0
  -29.1313   -1.1614   -5.8138 C   0  0  0  0  0  0  0  0  0  0  0  0
  -30.1494   -2.0187   -5.4056 C   0  0  0  0  0  0  0  0  0  0  0  0
  -30.0910   -3.3796   -5.7227 C   0  0  0  0  0  0  0  0  0  0  0  0
  -28.9752   -3.9240   -6.3699 C   0  0  0  0  0  0  0  0  0  0  0  0
  -27.9808   -3.0516   -6.8254 C   0  0  0  0  0  0  0  0  0  0  0  0
  -28.0675   -1.6802   -6.5573 C   0  0  0  0  0  0  0  0  0  0  0  0
  -30.2691    0.9239   -5.7380 C   0  0  0  0  0  0  0  0  0  0  0  0
  -29.0670    0.1814   -5.5653 O   0  0  0  0  0  0  0  0  0  0  0  0
  -28.5302   -8.3152   -8.6429 C   0  0  0  0  0  0  0  0  0  0  0  0
  -27.2923   -8.4771   -9.2814 C   0  0  0  0  0  0  0  0  0  0  0  0
  -27.1369   -9.4458  -10.2787 C   0  0  0  0  0  0  0  0  0  0  0  0
  -28.2168  -10.2391  -10.6630 C   0  0  0  0  0  0  0  0  0  0  0  0
  -29.4545  -10.0673  -10.0504 C   0  0  0  0  0  0  0  0  0  0  0  0
  -29.6111   -9.1159   -9.0404 C   0  0  0  0  0  0  0  0  0  0  0  0
 19 20  1  0  0  0
 20 13  1  0  0  0
 13 14  1  0  0  0
 13 18  2  0  0  0
 14 15  2  0  0  0
 15 16  1  0  0  0
 16  1  1  0  0  0
 16 17  2  0  0  0
  1  2  2  0  0  0
  1 10  1  0  0  0
  2  3  1  0  0  0
  3 21  1  0  0  0
  3  4  1  0  0  0
 21 22  1  0  0  0
 21 26  2  0  0  0
 22 23  2  0  0  0
 23 24  1  0  0  0
 24 25  2  0  0  0
 25 26  1  0  0  0
  4  5  1  0  0  0
  4 10  2  0  0  0
  5  6  2  0  0  0
  6  7  1  0  0  0
  7  8  2  0  0  0
  8  9  1  0  0  0
  8 10  1  0  0  0
  9 11  1  0  0  0
  9 12  1  0  0  0
 17 18  1  0  0  0
M  END
> <minimizedAffinity>
-8.35730

$$$$
