CHEMBL3953855


 25 28  0  0  0  0  0  0  0  0999 V2000
  -32.0875   -4.9965   -2.7151 N   0  0  0  0  0  0  0  0  0  0  0  0
  -31.1963   -5.1746   -3.7522 C   0  0  0  0  0  0  0  0  0  0  0  0
  -30.1529   -4.3301   -3.8042 N   0  0  0  0  0  0  0  0  0  0  0  0
  -29.2462   -4.4745   -4.7912 C   0  0  0  0  0  0  0  0  0  0  0  0
  -29.4182   -5.4456   -5.7315 C   0  0  0  0  0  0  0  0  0  0  0  0
  -30.5334   -6.2563   -5.5900 C   0  0  0  0  0  0  0  0  0  0  0  0
  -31.4512   -6.1465   -4.6292 N   0  0  0  0  0  0  0  0  0  0  0  0
  -30.5113   -7.2760   -6.6119 C   0  0  0  0  0  0  0  0  0  0  0  0
  -31.3907   -8.3097   -6.8774 C   0  0  0  0  0  0  0  0  0  0  0  0
  -31.0977   -9.1667   -7.9421 C   0  0  0  0  0  0  0  0  0  0  0  0
  -29.9377   -8.9845   -8.7174 C   0  0  0  0  0  0  0  0  0  0  0  0
  -29.0468   -7.9428   -8.4450 C   0  0  0  0  0  0  0  0  0  0  0  0
  -29.3466   -7.0959   -7.3927 C   0  0  0  0  0  0  0  0  0  0  0  0
  -28.5587   -5.9057   -6.8752 C   0  0  0  0  0  0  0  0  0  0  0  0
  -32.0389   -4.0463   -2.3786 H   0  0  0  0  0  0  0  0  0  0  0  0
  -32.9942   -5.3661   -2.9631 H   0  0  0  0  0  0  0  0  0  0  0  0
  -28.1191   -3.6309   -4.8424 N   0  0  0  0  0  0  0  0  0  0  0  0
  -27.2832   -4.1702   -5.0365 H   0  0  0  0  0  0  0  0  0  0  0  0
  -28.1070   -2.3374   -5.4091 C   0  0  0  0  0  0  0  0  0  0  0  0
  -27.9737   -2.1673   -6.7944 C   0  0  0  0  0  0  0  0  0  0  0  0
  -27.8913   -0.8864   -7.3546 C   0  0  0  0  0  0  0  0  0  0  0  0
  -27.9149    0.2378   -6.5323 C   0  0  0  0  0  0  0  0  0  0  0  0
  -28.0217    0.0726   -5.1592 C   0  0  0  0  0  0  0  0  0  0  0  0
  -28.0219    1.1491   -4.3620 F   0  0  0  0  0  0  0  0  0  0  0  0
  -28.1129   -1.1944   -4.5969 C   0  0  0  0  0  0  0  0  0  0  0  0
  1  2  1  0  0  0
  1 15  1  0  0  0
  1 16  1  0  0  0
  2  3  1  0  0  0
  2  7  2  0  0  0
  3  4  2  0  0  0
  4 17  1  0  0  0
  4  5  1  0  0  0
 17 19  1  0  0  0
 17 18  1  0  0  0
 19 20  1  0  0  0
 19 25  2  0  0  0
 20 21  2  0  0  0
 21 22  1  0  0  0
 22 23  2  0  0  0
 23 24  1  0  0  0
 23 25  1  0  0  0
  5  6  2  0  0  0
  5 14  1  0  0  0
  6  7  1  0  0  0
  6  8  1  0  0  0
  8  9  1  0  0  0
  8 13  2  0  0  0
  9 10  2  0  0  0
 10 11  1  0  0  0
 11 12  2  0  0  0
 12 13  1  0  0  0
 13 14  1  0  0  0
M  END
> <minimizedAffinity>
-9.16222

$$$$
