CHEMBL1983980


 41 46  0  0  0  0  0  0  0  0999 V2000
  -14.1351   -3.7337  -11.1640 C   0  0  0  0  0  0  0  0  0  0  0  0
  -13.6224   -3.4654   -9.8827 C   0  0  0  0  0  0  0  0  0  0  0  0
  -13.0410   -4.4836   -9.1263 C   0  0  0  0  0  0  0  0  0  0  0  0
  -12.9698   -5.7761   -9.6349 C   0  0  0  0  0  0  0  0  0  0  0  0
  -13.4440   -6.0473  -10.9211 C   0  0  0  0  0  0  0  0  0  0  0  0
  -14.0169   -5.0304  -11.7124 C   0  0  0  0  0  0  0  0  0  0  0  0
  -14.5639   -5.4171  -13.0840 C   0  0  0  0  0  0  0  0  0  0  0  0
  -13.7399   -6.4361  -13.7478 N   0  0  0  0  0  0  0  0  0  0  0  0
  -12.9659   -7.3825  -12.9446 C   0  0  0  0  0  0  0  0  0  0  0  0
  -13.4083   -7.4370  -11.4885 C   0  0  0  0  0  0  0  0  0  0  0  0
  -13.7076   -6.4882  -15.1118 C   0  0  0  0  0  0  0  0  0  0  0  0
  -13.8732   -7.5806  -15.8256 N   0  0  0  0  0  0  0  0  0  0  0  0
  -13.6629   -7.3354  -17.1944 C   0  0  0  0  0  0  0  0  0  0  0  0
  -13.4360   -6.0064  -17.5230 C   0  0  0  0  0  0  0  0  0  0  0  0
  -13.4728   -5.0790  -16.0837 S   0  0  0  0  0  0  0  0  0  0  0  0
  -13.2688   -5.3247  -18.8130 C   0  0  0  0  0  0  0  0  0  0  0  0
  -11.9895   -5.0148  -19.2857 C   0  0  0  0  0  0  0  0  0  0  0  0
  -11.8034   -4.3155  -20.4780 C   0  0  0  0  0  0  0  0  0  0  0  0
  -12.9000   -3.9448  -21.2578 C   0  0  0  0  0  0  0  0  0  0  0  0
  -14.1841   -4.2917  -20.8227 C   0  0  0  0  0  0  0  0  0  0  0  0
  -14.3675   -4.9692  -19.6130 C   0  0  0  0  0  0  0  0  0  0  0  0
  -12.7103   -3.1478  -22.5170 C   0  0  0  0  0  0  0  0  0  0  0  0
  -13.3196   -1.8709  -22.3947 O   0  0  0  0  0  0  0  0  0  0  0  0
  -14.2487   -2.0289  -22.1556 H   0  0  0  0  0  0  0  0  0  0  0  0
  -13.7607   -8.4649  -18.1219 C   0  0  0  0  0  0  0  0  0  0  0  0
  -13.6144   -8.4170  -19.3292 O   0  0  0  0  0  0  0  0  0  0  0  0
  -14.0872   -9.6178  -17.4769 O   0  0  0  0  0  0  0  0  0  0  0  0
  -14.1087   -9.4304  -16.5110 H   0  0  0  0  0  0  0  0  0  0  0  0
  -16.0952   -2.5422  -11.5205 O   0  0  0  0  0  0  0  0  0  0  0  0
  -14.9268   -2.6838  -11.8639 C   0  0  0  0  0  0  0  0  0  0  0  0
  -14.2761   -1.9709  -12.8478 N   0  0  0  0  0  0  0  0  0  0  0  0
  -13.3827   -2.2776  -13.2058 H   0  0  0  0  0  0  0  0  0  0  0  0
  -14.8592   -0.9705  -13.5887 C   0  0  0  0  0  0  0  0  0  0  0  0
  -16.1484   -0.9440  -13.8300 N   0  0  0  0  0  0  0  0  0  0  0  0
  -16.4575    0.2230  -14.5229 C   0  0  0  0  0  0  0  0  0  0  0  0
  -17.7460    0.6688  -14.8744 C   0  0  0  0  0  0  0  0  0  0  0  0
  -17.8975    1.8787  -15.5631 C   0  0  0  0  0  0  0  0  0  0  0  0
  -16.7842    2.6369  -15.9150 C   0  0  0  0  0  0  0  0  0  0  0  0
  -15.4962    2.2152  -15.5848 C   0  0  0  0  0  0  0  0  0  0  0  0
  -15.3629    1.0098  -14.8781 C   0  0  0  0  0  0  0  0  0  0  0  0
  -13.9349    0.2649  -14.3128 S   0  0  0  0  0  0  0  0  0  0  0  0
 29 30  2  0  0  0
 30 31  1  0  0  0
 30  1  1  0  0  0
 31 33  1  0  0  0
 31 32  1  0  0  0
 33 34  2  0  0  0
 33 41  1  0  0  0
 34 35  1  0  0  0
 35 36  1  0  0  0
 35 40  2  0  0  0
 36 37  2  0  0  0
 37 38  1  0  0  0
 38 39  2  0  0  0
 39 40  1  0  0  0
 40 41  1  0  0  0
  1  2  1  0  0  0
  1  6  2  0  0  0
  2  3  2  0  0  0
  3  4  1  0  0  0
  4  5  2  0  0  0
  5  6  1  0  0  0
  5 10  1  0  0  0
  6  7  1  0  0  0
  7  8  1  0  0  0
  8 11  1  0  0  0
  8  9  1  0  0  0
 11 12  2  0  0  0
 11 15  1  0  0  0
 12 13  1  0  0  0
 13 25  1  0  0  0
 13 14  2  0  0  0
 25 26  2  0  0  0
 25 27  1  0  0  0
 27 28  1  0  0  0
 14 16  1  0  0  0
 14 15  1  0  0  0
 16 17  1  0  0  0
 16 21  2  0  0  0
 17 18  2  0  0  0
 18 19  1  0  0  0
 19 22  1  0  0  0
 19 20  2  0  0  0
 22 23  1  0  0  0
 23 24  1  0  0  0
 20 21  1  0  0  0
  9 10  1  0  0  0
M  END
> <minimizedAffinity>
-8.12001

$$$$
