CHEMBL402319


 42 46  0  0  0  0  0  0  0  0999 V2000
  -28.9018   -4.7059   -5.9961 C   0  0  0  0  0  0  0  0  0  0  0  0
  -28.5551   -3.8014   -4.9197 C   0  0  0  0  0  0  0  0  0  0  0  0
  -28.4959   -4.5272   -3.7581 C   0  0  0  0  0  0  0  0  0  0  0  0
  -28.8487   -5.8141   -4.0440 N   0  0  0  0  0  0  0  0  0  0  0  0
  -28.8882   -6.7846   -3.1215 N   0  0  0  0  0  0  0  0  0  0  0  0
  -29.2643   -7.9269   -3.5887 C   0  0  0  0  0  0  0  0  0  0  0  0
  -29.6292   -8.1954   -4.8768 N   0  0  0  0  0  0  0  0  0  0  0  0
  -29.5958   -7.2600   -5.7875 C   0  0  0  0  0  0  0  0  0  0  0  0
  -29.1427   -5.9450   -5.3770 C   0  0  0  0  0  0  0  0  0  0  0  0
  -28.2687   -2.3293   -4.9605 C   0  0  0  0  0  0  0  0  0  0  0  0
  -27.0567   -1.8102   -4.9315 N   0  0  0  0  0  0  0  0  0  0  0  0
  -27.1975   -0.4473   -4.9953 N   0  0  0  0  0  0  0  0  0  0  0  0
  -28.4865   -0.2109   -5.0646 C   0  0  0  0  0  0  0  0  0  0  0  0
  -29.2346   -1.3510   -5.0581 O   0  0  0  0  0  0  0  0  0  0  0  0
  -29.1544    0.9524   -5.1317 N   0  0  0  0  0  0  0  0  0  0  0  0
  -29.6861    1.2326   -4.3155 H   0  0  0  0  0  0  0  0  0  0  0  0
  -29.6737    1.3813   -6.4188 C   0  0  0  0  0  0  0  0  0  0  0  0
  -31.1785    1.6356   -6.3421 C   0  0  0  0  0  0  0  0  0  0  0  0
  -31.6624    2.5416   -7.4745 C   0  0  0  0  0  0  0  0  0  0  0  0
  -33.0803    2.3127   -7.7400 N   0  0  0  0  0  0  0  0  0  0  0  0
  -33.2174    1.3655   -8.0911 H   0  0  0  0  0  0  0  0  0  0  0  0
  -33.3822    2.9370   -8.4880 H   0  0  0  0  0  0  0  0  0  0  0  0
  -27.9583   -5.1127   -8.3264 C   0  0  0  0  0  0  0  0  0  0  0  0
  -28.9178   -4.2977   -7.4607 C   0  0  0  0  0  0  0  0  0  0  0  0
  -30.3073   -4.1480   -8.0753 C   0  0  0  0  0  0  0  0  0  0  0  0
  -29.9798   -7.5836   -7.0683 N   0  0  0  0  0  0  0  0  0  0  0  0
  -30.7322   -7.0674   -7.4950 H   0  0  0  0  0  0  0  0  0  0  0  0
  -29.6087   -8.7269   -7.8085 C   0  0  0  0  0  0  0  0  0  0  0  0
  -28.2773   -9.1422   -7.9452 C   0  0  0  0  0  0  0  0  0  0  0  0
  -27.9398  -10.3025   -8.6655 C   0  0  0  0  0  0  0  0  0  0  0  0
  -28.9583  -11.0161   -9.3000 C   0  0  0  0  0  0  0  0  0  0  0  0
  -28.6894  -12.1289  -10.0023 F   0  0  0  0  0  0  0  0  0  0  0  0
  -30.2833  -10.6026   -9.2180 C   0  0  0  0  0  0  0  0  0  0  0  0
  -30.5957   -9.4694   -8.4729 C   0  0  0  0  0  0  0  0  0  0  0  0
  -31.8790   -9.0871   -8.3890 F   0  0  0  0  0  0  0  0  0  0  0  0
  -26.5087  -10.7230   -8.6840 C   0  0  0  0  0  0  0  0  0  0  0  0
  -25.9528  -10.9262   -9.7601 O   0  0  0  0  0  0  0  0  0  0  0  0
  -25.8664  -10.8590   -7.4691 N   0  0  0  0  0  0  0  0  0  0  0  0
  -26.3862  -10.7091   -6.6104 H   0  0  0  0  0  0  0  0  0  0  0  0
  -24.5077  -11.2912   -7.3670 C   0  0  0  0  0  0  0  0  0  0  0  0
  -24.0045  -11.9021   -6.0876 C   0  0  0  0  0  0  0  0  0  0  0  0
  -23.5141  -10.5503   -6.5159 C   0  0  0  0  0  0  0  0  0  0  0  0
 23 24  1  0  0  0
 24 25  1  0  0  0
 24  1  1  0  0  0
  1  2  1  0  0  0
  1  9  2  0  0  0
  2 10  1  0  0  0
  2  3  2  0  0  0
 10 11  2  0  0  0
 10 14  1  0  0  0
 11 12  1  0  0  0
 12 13  2  0  0  0
 13 15  1  0  0  0
 13 14  1  0  0  0
 15 17  1  0  0  0
 15 16  1  0  0  0
 17 18  1  0  0  0
 18 19  1  0  0  0
 19 20  1  0  0  0
 20 21  1  0  0  0
 20 22  1  0  0  0
  3  4  1  0  0  0
  4  5  1  0  0  0
  4  9  1  0  0  0
  5  6  2  0  0  0
  6  7  1  0  0  0
  7  8  2  0  0  0
  8 26  1  0  0  0
  8  9  1  0  0  0
 26 28  1  0  0  0
 26 27  1  0  0  0
 28 29  1  0  0  0
 28 34  2  0  0  0
 29 30  2  0  0  0
 30 36  1  0  0  0
 30 31  1  0  0  0
 36 37  2  0  0  0
 36 38  1  0  0  0
 38 40  1  0  0  0
 38 39  1  0  0  0
 40 41  1  0  0  0
 40 42  1  0  0  0
 41 42  1  0  0  0
 31 32  1  0  0  0
 31 33  2  0  0  0
 33 34  1  0  0  0
 34 35  1  0  0  0
M  END
> <minimizedAffinity>
-8.19870

$$$$
