CHEMBL3971161


 37 40  0  0  0  0  0  0  0  0999 V2000
  -26.1956   -1.4686  -12.7634 C   0  0  0  0  0  0  0  0  0  0  0  0
  -26.4102   -1.6126  -14.1388 C   0  0  0  0  0  0  0  0  0  0  0  0
  -25.4106   -1.3116  -15.0619 C   0  0  0  0  0  0  0  0  0  0  0  0
  -24.1866   -0.8280  -14.6224 C   0  0  0  0  0  0  0  0  0  0  0  0
  -23.9807   -0.5674  -13.2643 C   0  0  0  0  0  0  0  0  0  0  0  0
  -24.9788   -0.9085  -12.3326 C   0  0  0  0  0  0  0  0  0  0  0  0
  -25.9324   -1.4518   -9.8771 O   0  0  0  0  0  0  0  0  0  0  0  0
  -26.9605   -1.8432  -10.4151 C   0  0  0  0  0  0  0  0  0  0  0  0
  -27.1528   -1.8890  -11.7935 N   0  0  0  0  0  0  0  0  0  0  0  0
  -28.0852   -2.2572   -9.7093 N   0  0  0  0  0  0  0  0  0  0  0  0
  -28.0899   -2.0422  -12.1298 H   0  0  0  0  0  0  0  0  0  0  0  0
  -28.8432   -2.6514  -10.2430 H   0  0  0  0  0  0  0  0  0  0  0  0
  -28.2359   -2.2374   -8.2957 C   0  0  0  0  0  0  0  0  0  0  0  0
  -28.2694   -3.3832   -7.5001 C   0  0  0  0  0  0  0  0  0  0  0  0
  -28.4333   -3.2956   -6.1149 C   0  0  0  0  0  0  0  0  0  0  0  0
  -28.5455   -2.0559   -5.4866 C   0  0  0  0  0  0  0  0  0  0  0  0
  -28.7657   -2.0820   -3.7767 Cl  0  0  0  0  0  0  0  0  0  0  0  0
  -28.4801   -0.8844   -6.2445 C   0  0  0  0  0  0  0  0  0  0  0  0
  -28.3407   -0.9961   -7.6555 C   0  0  0  0  0  0  0  0  0  0  0  0
  -28.5190    0.5028   -5.6595 C   0  0  0  0  0  0  0  0  0  0  0  0
  -27.6060    0.7901   -4.6980 F   0  0  0  0  0  0  0  0  0  0  0  0
  -28.3385    1.4528   -6.6241 F   0  0  0  0  0  0  0  0  0  0  0  0
  -29.7341    0.7835   -5.1048 F   0  0  0  0  0  0  0  0  0  0  0  0
  -22.7858   -0.0539  -12.7835 O   0  0  0  0  0  0  0  0  0  0  0  0
  -22.1637    0.9519  -13.5298 C   0  0  0  0  0  0  0  0  0  0  0  0
  -20.9719    0.6443  -14.1617 C   0  0  0  0  0  0  0  0  0  0  0  0
  -20.3874    1.6714  -14.8815 C   0  0  0  0  0  0  0  0  0  0  0  0
  -20.9700    2.8708  -14.9868 N   0  0  0  0  0  0  0  0  0  0  0  0
  -22.1093    3.0713  -14.3281 C   0  0  0  0  0  0  0  0  0  0  0  0
  -22.7299    2.1717  -13.5686 N   0  0  0  0  0  0  0  0  0  0  0  0
  -19.1434    1.4602  -15.5043 N   0  0  0  0  0  0  0  0  0  0  0  0
  -17.9384    1.4334  -14.8202 C   0  0  0  0  0  0  0  0  0  0  0  0
  -17.7744    1.6067  -13.6210 O   0  0  0  0  0  0  0  0  0  0  0  0
  -19.1355    1.2553  -16.4912 H   0  0  0  0  0  0  0  0  0  0  0  0
  -16.7098    1.1367  -15.6119 C   0  0  0  0  0  0  0  0  0  0  0  0
  -15.2806    1.3954  -15.2133 C   0  0  0  0  0  0  0  0  0  0  0  0
  -15.9345    2.2753  -16.2397 C   0  0  0  0  0  0  0  0  0  0  0  0
  7  8  2  0  0  0
  8  9  1  0  0  0
  8 10  1  0  0  0
  9  1  1  0  0  0
  9 11  1  0  0  0
  1  2  1  0  0  0
  1  6  2  0  0  0
  2  3  2  0  0  0
  3  4  1  0  0  0
  4  5  2  0  0  0
  5 24  1  0  0  0
  5  6  1  0  0  0
 24 25  1  0  0  0
 25 26  1  0  0  0
 25 30  2  0  0  0
 26 27  2  0  0  0
 27 31  1  0  0  0
 27 28  1  0  0  0
 31 32  1  0  0  0
 31 34  1  0  0  0
 32 33  2  0  0  0
 32 35  1  0  0  0
 35 36  1  0  0  0
 35 37  1  0  0  0
 36 37  1  0  0  0
 28 29  2  0  0  0
 29 30  1  0  0  0
 10 13  1  0  0  0
 10 12  1  0  0  0
 13 14  1  0  0  0
 13 19  2  0  0  0
 14 15  2  0  0  0
 15 16  1  0  0  0
 16 17  1  0  0  0
 16 18  2  0  0  0
 18 20  1  0  0  0
 18 19  1  0  0  0
 20 21  1  0  0  0
 20 22  1  0  0  0
 20 23  1  0  0  0
M  END
> <minimizedAffinity>
-11.16957

$$$$
