CHEMBL3976140


 38 41  0  0  0  0  0  0  0  0999 V2000
  -27.6127   -0.2496   -5.3748 C   0  0  0  0  0  0  0  0  0  0  0  0
  -28.0122   -1.2991   -6.3742 C   0  0  0  0  0  0  0  0  0  0  0  0
  -27.7992   -1.0135   -7.7339 C   0  0  0  0  0  0  0  0  0  0  0  0
  -28.1025   -1.9315   -8.7477 C   0  0  0  0  0  0  0  0  0  0  0  0
  -28.7293   -3.1230   -8.3915 C   0  0  0  0  0  0  0  0  0  0  0  0
  -28.9877   -3.4083   -7.0407 C   0  0  0  0  0  0  0  0  0  0  0  0
  -28.6027   -2.5224   -6.0199 C   0  0  0  0  0  0  0  0  0  0  0  0
  -27.8111   -1.6672  -10.1122 N   0  0  0  0  0  0  0  0  0  0  0  0
  -26.5203   -1.6241  -10.6135 C   0  0  0  0  0  0  0  0  0  0  0  0
  -25.5247   -1.9669   -9.9772 O   0  0  0  0  0  0  0  0  0  0  0  0
  -26.4596   -1.1241  -11.9065 N   0  0  0  0  0  0  0  0  0  0  0  0
  -28.5357   -1.8540  -10.7860 H   0  0  0  0  0  0  0  0  0  0  0  0
  -27.1511   -0.4153  -12.1107 H   0  0  0  0  0  0  0  0  0  0  0  0
  -25.2111   -1.0116  -12.5660 C   0  0  0  0  0  0  0  0  0  0  0  0
  -24.4421   -2.1472  -12.8605 C   0  0  0  0  0  0  0  0  0  0  0  0
  -23.1487   -2.0149  -13.3664 C   0  0  0  0  0  0  0  0  0  0  0  0
  -22.6228   -0.7484  -13.6055 C   0  0  0  0  0  0  0  0  0  0  0  0
  -23.4132    0.3852  -13.4173 C   0  0  0  0  0  0  0  0  0  0  0  0
  -24.7069    0.2497  -12.8903 C   0  0  0  0  0  0  0  0  0  0  0  0
  -23.0192    1.6718  -13.6358 O   0  0  0  0  0  0  0  0  0  0  0  0
  -21.7114    1.9194  -14.1347 C   0  0  0  0  0  0  0  0  0  0  0  0
  -20.7234    1.3872  -13.3859 F   0  0  0  0  0  0  0  0  0  0  0  0
  -21.6242    1.3751  -15.3701 F   0  0  0  0  0  0  0  0  0  0  0  0
  -21.5114    3.2495  -14.2467 F   0  0  0  0  0  0  0  0  0  0  0  0
  -28.8750   -2.7740   -4.6863 O   0  0  0  0  0  0  0  0  0  0  0  0
  -29.4950   -3.9800   -4.3470 C   0  0  0  0  0  0  0  0  0  0  0  0
  -28.6788   -5.0576   -4.0476 C   0  0  0  0  0  0  0  0  0  0  0  0
  -29.3198   -6.2437   -3.7398 C   0  0  0  0  0  0  0  0  0  0  0  0
  -30.6566   -6.3319   -3.7287 N   0  0  0  0  0  0  0  0  0  0  0  0
  -31.3522   -5.2394   -4.0468 C   0  0  0  0  0  0  0  0  0  0  0  0
  -30.8363   -4.0551   -4.3759 N   0  0  0  0  0  0  0  0  0  0  0  0
  -28.5563   -7.4028   -3.4888 N   0  0  0  0  0  0  0  0  0  0  0  0
  -27.9529   -8.1558   -4.4805 C   0  0  0  0  0  0  0  0  0  0  0  0
  -28.1511   -8.0767   -5.6852 O   0  0  0  0  0  0  0  0  0  0  0  0
  -28.4207   -7.6772   -2.5302 H   0  0  0  0  0  0  0  0  0  0  0  0
  -26.9609   -9.1896   -4.0386 C   0  0  0  0  0  0  0  0  0  0  0  0
  -25.5011   -8.8449   -3.8847 C   0  0  0  0  0  0  0  0  0  0  0  0
  -25.9287   -9.8624   -4.9040 C   0  0  0  0  0  0  0  0  0  0  0  0
  1  2  1  0  0  0
  2  3  1  0  0  0
  2  7  2  0  0  0
  3  4  2  0  0  0
  4  8  1  0  0  0
  4  5  1  0  0  0
  8  9  1  0  0  0
  8 12  1  0  0  0
  9 10  2  0  0  0
  9 11  1  0  0  0
 11 14  1  0  0  0
 11 13  1  0  0  0
 14 15  1  0  0  0
 14 19  2  0  0  0
 15 16  2  0  0  0
 16 17  1  0  0  0
 17 18  2  0  0  0
 18 20  1  0  0  0
 18 19  1  0  0  0
 20 21  1  0  0  0
 21 22  1  0  0  0
 21 23  1  0  0  0
 21 24  1  0  0  0
  5  6  2  0  0  0
  6  7  1  0  0  0
  7 25  1  0  0  0
 25 26  1  0  0  0
 26 27  1  0  0  0
 26 31  2  0  0  0
 27 28  2  0  0  0
 28 32  1  0  0  0
 28 29  1  0  0  0
 32 33  1  0  0  0
 32 35  1  0  0  0
 33 34  2  0  0  0
 33 36  1  0  0  0
 36 37  1  0  0  0
 36 38  1  0  0  0
 37 38  1  0  0  0
 29 30  2  0  0  0
 30 31  1  0  0  0
M  END
> <minimizedAffinity>
-10.03124

$$$$
