CHEMBL3690562


 37 41  0  0  0  0  0  0  0  0999 V2000
  -22.7689    1.4552  -13.9136 C   0  0  0  0  0  0  0  0  0  0  0  0
  -23.0319    2.7734  -13.5679 C   0  0  0  0  0  0  0  0  0  0  0  0
  -21.9733    3.6004  -13.8223 N   0  0  0  0  0  0  0  0  0  0  0  0
  -21.0394    2.8185  -14.3133 C   0  0  0  0  0  0  0  0  0  0  0  0
  -19.7217    3.1271  -14.7590 C   0  0  0  0  0  0  0  0  0  0  0  0
  -18.8965    2.1637  -15.2399 C   0  0  0  0  0  0  0  0  0  0  0  0
  -19.3776    0.7745  -15.2625 C   0  0  0  0  0  0  0  0  0  0  0  0
  -20.6067    0.4736  -14.8165 C   0  0  0  0  0  0  0  0  0  0  0  0
  -21.4539    1.4899  -14.3713 N   0  0  0  0  0  0  0  0  0  0  0  0
  -24.9316   -1.2777  -12.3870 C   0  0  0  0  0  0  0  0  0  0  0  0
  -25.3967   -1.9000  -13.5431 C   0  0  0  0  0  0  0  0  0  0  0  0
  -24.9480   -1.4847  -14.7968 C   0  0  0  0  0  0  0  0  0  0  0  0
  -24.0725   -0.4053  -14.9074 C   0  0  0  0  0  0  0  0  0  0  0  0
  -23.6203    0.2671  -13.7652 C   0  0  0  0  0  0  0  0  0  0  0  0
  -24.0136   -0.2236  -12.5092 C   0  0  0  0  0  0  0  0  0  0  0  0
  -27.6562   -1.3943  -11.1924 O   0  0  0  0  0  0  0  0  0  0  0  0
  -26.6247   -1.6577  -10.5906 C   0  0  0  0  0  0  0  0  0  0  0  0
  -26.6479   -2.0634   -9.2714 N   0  0  0  0  0  0  0  0  0  0  0  0
  -25.3407   -1.6342  -11.0840 N   0  0  0  0  0  0  0  0  0  0  0  0
  -25.8363   -1.8208   -8.7211 H   0  0  0  0  0  0  0  0  0  0  0  0
  -24.6180   -1.9414  -10.4515 H   0  0  0  0  0  0  0  0  0  0  0  0
  -27.9305   -2.0637   -8.5582 C   0  0  0  0  0  0  0  0  0  0  0  0
  -28.4143   -3.4411   -8.0844 C   0  0  0  0  0  0  0  0  0  0  0  0
  -29.6920   -3.6837   -8.4604 F   0  0  0  0  0  0  0  0  0  0  0  0
  -27.6413   -4.4454   -8.5436 F   0  0  0  0  0  0  0  0  0  0  0  0
  -28.3911   -3.4968   -6.7291 F   0  0  0  0  0  0  0  0  0  0  0  0
  -17.5294    2.5303  -15.6958 C   0  0  0  0  0  0  0  0  0  0  0  0
  -17.2110    3.8333  -15.7841 N   0  0  0  0  0  0  0  0  0  0  0  0
  -15.9581    4.1264  -16.1653 C   0  0  0  0  0  0  0  0  0  0  0  0
  -15.0097    3.1741  -16.4558 C   0  0  0  0  0  0  0  0  0  0  0  0
  -15.4244    1.8627  -16.3475 C   0  0  0  0  0  0  0  0  0  0  0  0
  -16.6811    1.5220  -15.9765 N   0  0  0  0  0  0  0  0  0  0  0  0
  -14.5176    0.8034  -16.6264 N   0  0  0  0  0  0  0  0  0  0  0  0
  -13.8271    0.0041  -15.7415 C   0  0  0  0  0  0  0  0  0  0  0  0
  -13.0936   -0.8649  -16.5172 C   0  0  0  0  0  0  0  0  0  0  0  0
  -13.3021   -0.6272  -17.8456 N   0  0  0  0  0  0  0  0  0  0  0  0
  -14.1604    0.3709  -17.8834 C   0  0  0  0  0  0  0  0  0  0  0  0
 16 17  2  0  0  0
 17 18  1  0  0  0
 17 19  1  0  0  0
 18 22  1  0  0  0
 18 20  1  0  0  0
 22 23  1  0  0  0
 23 24  1  0  0  0
 23 25  1  0  0  0
 23 26  1  0  0  0
 19 10  1  0  0  0
 19 21  1  0  0  0
 10 11  1  0  0  0
 10 15  2  0  0  0
 11 12  2  0  0  0
 12 13  1  0  0  0
 13 14  2  0  0  0
 14  1  1  0  0  0
 14 15  1  0  0  0
  1  2  2  0  0  0
  1  9  1  0  0  0
  2  3  1  0  0  0
  3  4  2  0  0  0
  4  5  1  0  0  0
  4  9  1  0  0  0
  5  6  2  0  0  0
  6 27  1  0  0  0
  6  7  1  0  0  0
 27 28  1  0  0  0
 27 32  2  0  0  0
 28 29  2  0  0  0
 29 30  1  0  0  0
 30 31  2  0  0  0
 31 33  1  0  0  0
 31 32  1  0  0  0
 33 34  1  0  0  0
 33 37  1  0  0  0
 34 35  2  0  0  0
 35 36  1  0  0  0
 36 37  2  0  0  0
  7  8  2  0  0  0
  8  9  1  0  0  0
M  END
> <minimizedAffinity>
-10.53244

$$$$
