CHEMBL3216254


 41 45  0  0  0  0  0  0  0  0999 V2000
  -28.8794   -3.7985   -7.1153 N   0  0  0  0  0  0  0  0  0  0  0  0
  -28.7980   -3.2995   -5.8163 C   0  0  0  0  0  0  0  0  0  0  0  0
  -28.6406   -4.3657   -4.9399 C   0  0  0  0  0  0  0  0  0  0  0  0
  -28.6898   -5.4914   -5.6719 C   0  0  0  0  0  0  0  0  0  0  0  0
  -28.4875   -6.7874   -5.2491 C   0  0  0  0  0  0  0  0  0  0  0  0
  -28.5394   -7.7987   -6.1945 C   0  0  0  0  0  0  0  0  0  0  0  0
  -28.8971   -7.5030   -7.5380 C   0  0  0  0  0  0  0  0  0  0  0  0
  -29.0750   -6.1629   -7.9393 C   0  0  0  0  0  0  0  0  0  0  0  0
  -28.9146   -5.1538   -6.9687 C   0  0  0  0  0  0  0  0  0  0  0  0
  -28.3680   -4.3049   -3.4824 C   0  0  0  0  0  0  0  0  0  0  0  0
  -28.9777   -3.0493   -2.8869 C   0  0  0  0  0  0  0  0  0  0  0  0
  -30.4290   -3.2127   -2.8115 N   0  0  0  0  0  0  0  0  0  0  0  0
  -28.5507   -1.8009   -3.7090 C   0  0  0  0  0  0  0  0  0  0  0  0
  -28.8410   -1.8770   -5.2529 C   0  0  0  0  0  0  0  0  0  0  0  0
  -30.8369   -2.4873   -2.1820 H   0  0  0  0  0  0  0  0  0  0  0  0
  -30.8719   -3.1852   -3.7566 H   0  0  0  0  0  0  0  0  0  0  0  0
  -28.6551   -3.1907   -8.4617 C   0  0  0  0  0  0  0  0  0  0  0  0
  -27.8425   -1.9263   -8.7047 C   0  0  0  0  0  0  0  0  0  0  0  0
  -27.7390   -1.6401  -10.1726 C   0  0  0  0  0  0  0  0  0  0  0  0
  -26.4310   -2.1159  -10.7684 C   0  0  0  0  0  0  0  0  0  0  0  0
  -26.5093   -1.8319  -12.2648 C   0  0  0  0  0  0  0  0  0  0  0  0
  -23.1693    0.4626  -13.6848 C   0  0  0  0  0  0  0  0  0  0  0  0
  -23.8028   -0.4721  -14.5181 C   0  0  0  0  0  0  0  0  0  0  0  0
  -24.8783   -1.2207  -14.0543 C   0  0  0  0  0  0  0  0  0  0  0  0
  -25.3369   -1.0555  -12.7460 C   0  0  0  0  0  0  0  0  0  0  0  0
  -24.7143   -0.1378  -11.8982 C   0  0  0  0  0  0  0  0  0  0  0  0
  -23.6422    0.6178  -12.3588 C   0  0  0  0  0  0  0  0  0  0  0  0
  -22.0966    2.7045  -14.0277 C   0  0  0  0  0  0  0  0  0  0  0  0
  -22.0628    1.2495  -14.1596 N   0  0  0  0  0  0  0  0  0  0  0  0
  -20.8902    0.6209  -14.7362 C   0  0  0  0  0  0  0  0  0  0  0  0
  -28.1757   -9.0247   -5.7546 O   0  0  0  0  0  0  0  0  0  0  0  0
  -26.9991   -9.6755   -6.0398 C   0  0  0  0  0  0  0  0  0  0  0  0
  -27.2208  -10.9620   -6.8728 C   0  0  0  0  0  0  0  0  0  0  0  0
  -27.6998  -10.7600   -8.3005 C   0  0  0  0  0  0  0  0  0  0  0  0
  -29.0411  -11.0018   -8.6516 C   0  0  0  0  0  0  0  0  0  0  0  0
  -29.4937  -10.7518   -9.9534 C   0  0  0  0  0  0  0  0  0  0  0  0
  -28.6164  -10.2481  -10.9250 C   0  0  0  0  0  0  0  0  0  0  0  0
  -29.0432   -9.9818  -12.1757 O   0  0  0  0  0  0  0  0  0  0  0  0
  -27.2799  -10.0100  -10.5861 C   0  0  0  0  0  0  0  0  0  0  0  0
  -26.8233  -10.2657   -9.2864 C   0  0  0  0  0  0  0  0  0  0  0  0
  -29.9629  -10.1145  -12.4477 H   0  0  0  0  0  0  0  0  0  0  0  0
 28 29  1  0  0  0
 29 30  1  0  0  0
 29 22  1  0  0  0
 22 23  1  0  0  0
 22 27  2  0  0  0
 23 24  2  0  0  0
 24 25  1  0  0  0
 25 21  1  0  0  0
 25 26  2  0  0  0
 21 20  1  0  0  0
 20 19  1  0  0  0
 19 18  1  0  0  0
 18 17  1  0  0  0
 17  1  1  0  0  0
  1  2  1  0  0  0
  1  9  1  0  0  0
  2  3  2  0  0  0
  2 14  1  0  0  0
  3  4  1  0  0  0
  3 10  1  0  0  0
  4  5  1  0  0  0
  4  9  2  0  0  0
  5  6  2  0  0  0
  6 31  1  0  0  0
  6  7  1  0  0  0
 31 32  1  0  0  0
 32 33  1  0  0  0
 33 34  1  0  0  0
 34 35  1  0  0  0
 34 40  2  0  0  0
 35 36  2  0  0  0
 36 37  1  0  0  0
 37 38  1  0  0  0
 37 39  2  0  0  0
 38 41  1  0  0  0
 39 40  1  0  0  0
  7  8  2  0  0  0
  8  9  1  0  0  0
 10 11  1  0  0  0
 11 12  1  0  0  0
 11 13  1  0  0  0
 12 15  1  0  0  0
 12 16  1  0  0  0
 13 14  1  0  0  0
 26 27  1  0  0  0
M  END
> <minimizedAffinity>
-10.18308

$$$$
