CHEMBL149073


 30 32  0  0  0  0  0  0  0  0999 V2000
  -18.0058    0.5046  -14.7859 C   0  0  0  0  0  0  0  0  0  0  0  0
  -18.8229    1.5589  -14.6375 C   0  0  0  0  0  0  0  0  0  0  0  0
  -18.4463    3.0223  -14.7335 C   0  0  0  0  0  0  0  0  0  0  0  0
  -17.3602    3.5275  -14.9301 O   0  0  0  0  0  0  0  0  0  0  0  0
  -19.6362    3.7084  -14.5609 N   0  0  0  0  0  0  0  0  0  0  0  0
  -20.7049    2.8429  -14.3580 C   0  0  0  0  0  0  0  0  0  0  0  0
  -22.0206    3.2100  -14.1749 C   0  0  0  0  0  0  0  0  0  0  0  0
  -22.9486    2.1847  -13.9897 C   0  0  0  0  0  0  0  0  0  0  0  0
  -22.5441    0.8306  -13.9829 C   0  0  0  0  0  0  0  0  0  0  0  0
  -21.1925    0.4824  -14.1926 C   0  0  0  0  0  0  0  0  0  0  0  0
  -20.2746    1.5094  -14.3792 C   0  0  0  0  0  0  0  0  0  0  0  0
  -19.6804    4.7162  -14.5909 H   0  0  0  0  0  0  0  0  0  0  0  0
  -14.1759    1.4117  -17.6553 C   0  0  0  0  0  0  0  0  0  0  0  0
  -14.8539    1.0249  -16.3882 C   0  0  0  0  0  0  0  0  0  0  0  0
  -16.2242    1.0047  -16.3002 N   0  0  0  0  0  0  0  0  0  0  0  0
  -16.6172    0.6241  -15.0443 C   0  0  0  0  0  0  0  0  0  0  0  0
  -15.4737    0.4400  -14.2821 C   0  0  0  0  0  0  0  0  0  0  0  0
  -15.4294    0.0850  -12.8368 C   0  0  0  0  0  0  0  0  0  0  0  0
  -14.3424    0.6821  -15.1442 C   0  0  0  0  0  0  0  0  0  0  0  0
  -16.8512    1.2609  -17.0506 H   0  0  0  0  0  0  0  0  0  0  0  0
  -12.8848    0.6253  -14.7631 C   0  0  0  0  0  0  0  0  0  0  0  0
  -12.2669    2.0096  -14.5858 C   0  0  0  0  0  0  0  0  0  0  0  0
  -12.4227    2.5276  -13.1795 C   0  0  0  0  0  0  0  0  0  0  0  0
  -12.7230    1.8619  -12.2028 O   0  0  0  0  0  0  0  0  0  0  0  0
  -12.1786    3.8591  -13.1001 O   0  0  0  0  0  0  0  0  0  0  0  0
  -11.9438    4.2663  -13.9561 H   0  0  0  0  0  0  0  0  0  0  0  0
  -23.6140   -0.1867  -13.8040 C   0  0  0  0  0  0  0  0  0  0  0  0
  -24.2129   -0.6831  -14.7430 O   0  0  0  0  0  0  0  0  0  0  0  0
  -23.8926   -0.4743  -12.5178 O   0  0  0  0  0  0  0  0  0  0  0  0
  -23.5019    0.1242  -11.8570 H   0  0  0  0  0  0  0  0  0  0  0  0
 13 14  1  0  0  0
 14 15  1  0  0  0
 14 19  2  0  0  0
 15 16  1  0  0  0
 15 20  1  0  0  0
 16  1  1  0  0  0
 16 17  2  0  0  0
  1  2  2  0  0  0
  2  3  1  0  0  0
  2 11  1  0  0  0
  3  4  2  0  0  0
  3  5  1  0  0  0
  5  6  1  0  0  0
  5 12  1  0  0  0
  6  7  1  0  0  0
  6 11  2  0  0  0
  7  8  2  0  0  0
  8  9  1  0  0  0
  9 27  1  0  0  0
  9 10  2  0  0  0
 27 28  2  0  0  0
 27 29  1  0  0  0
 29 30  1  0  0  0
 10 11  1  0  0  0
 17 18  1  0  0  0
 17 19  1  0  0  0
 19 21  1  0  0  0
 21 22  1  0  0  0
 22 23  1  0  0  0
 23 24  2  0  0  0
 23 25  1  0  0  0
 25 26  1  0  0  0
M  END
> <minimizedAffinity>
-8.76025

$$$$
