CHEMBL219584


 33 36  0  0  0  0  0  0  0  0999 V2000
  -20.7774    3.6146  -15.4890 C   0  0  0  0  0  0  0  0  0  0  0  0
  -19.4824    2.8600  -15.3474 C   0  0  0  0  0  0  0  0  0  0  0  0
  -18.2948    3.4632  -15.7801 C   0  0  0  0  0  0  0  0  0  0  0  0
  -17.0924    2.7624  -15.7388 C   0  0  0  0  0  0  0  0  0  0  0  0
  -17.0446    1.4490  -15.2509 C   0  0  0  0  0  0  0  0  0  0  0  0
  -18.2128    0.8532  -14.7614 C   0  0  0  0  0  0  0  0  0  0  0  0
  -19.4338    1.5506  -14.8260 C   0  0  0  0  0  0  0  0  0  0  0  0
  -15.7139    0.7811  -15.2780 C   0  0  0  0  0  0  0  0  0  0  0  0
  -15.1023    0.8183  -16.3424 O   0  0  0  0  0  0  0  0  0  0  0  0
  -15.3202    0.0791  -14.1427 N   0  0  0  0  0  0  0  0  0  0  0  0
  -16.0212   -0.1017  -13.4353 H   0  0  0  0  0  0  0  0  0  0  0  0
  -14.1253   -0.6878  -14.0692 C   0  0  0  0  0  0  0  0  0  0  0  0
  -12.8579   -0.0982  -13.9893 C   0  0  0  0  0  0  0  0  0  0  0  0
  -11.6966   -0.8654  -14.0363 C   0  0  0  0  0  0  0  0  0  0  0  0
  -11.7875   -2.2412  -14.1904 C   0  0  0  0  0  0  0  0  0  0  0  0
  -13.0413   -2.8662  -14.2604 C   0  0  0  0  0  0  0  0  0  0  0  0
  -14.2110   -2.0847  -14.1416 C   0  0  0  0  0  0  0  0  0  0  0  0
  -13.1178   -4.3467  -14.5402 C   0  0  0  0  0  0  0  0  0  0  0  0
  -12.0149   -4.8314  -15.1794 F   0  0  0  0  0  0  0  0  0  0  0  0
  -13.2558   -5.0957  -13.4135 F   0  0  0  0  0  0  0  0  0  0  0  0
  -14.1744   -4.6682  -15.3381 F   0  0  0  0  0  0  0  0  0  0  0  0
  -20.6348    0.8955  -14.3866 C   0  0  0  0  0  0  0  0  0  0  0  0
  -21.6211    0.3371  -13.9712 C   0  0  0  0  0  0  0  0  0  0  0  0
  -22.7989   -0.2891  -13.4503 C   0  0  0  0  0  0  0  0  0  0  0  0
  -22.9495   -0.5422  -12.0952 C   0  0  0  0  0  0  0  0  0  0  0  0
  -24.0664   -1.0745  -11.5353 N   0  0  0  0  0  0  0  0  0  0  0  0
  -25.1034   -1.3567  -12.3467 C   0  0  0  0  0  0  0  0  0  0  0  0
  -26.2938   -1.8376  -11.8114 C   0  0  0  0  0  0  0  0  0  0  0  0
  -27.4155   -2.0814  -12.6115 C   0  0  0  0  0  0  0  0  0  0  0  0
  -27.3382   -1.8954  -13.9867 C   0  0  0  0  0  0  0  0  0  0  0  0
  -26.1470   -1.4494  -14.5545 C   0  0  0  0  0  0  0  0  0  0  0  0
  -25.0399   -1.1495  -13.7423 C   0  0  0  0  0  0  0  0  0  0  0  0
  -23.8630   -0.6137  -14.2856 C   0  0  0  0  0  0  0  0  0  0  0  0
  1  2  1  0  0  0
  2  3  1  0  0  0
  2  7  2  0  0  0
  3  4  2  0  0  0
  4  5  1  0  0  0
  5  8  1  0  0  0
  5  6  2  0  0  0
  8  9  2  0  0  0
  8 10  1  0  0  0
 10 12  1  0  0  0
 10 11  1  0  0  0
 12 13  1  0  0  0
 12 17  2  0  0  0
 13 14  2  0  0  0
 14 15  1  0  0  0
 15 16  2  0  0  0
 16 18  1  0  0  0
 16 17  1  0  0  0
 18 19  1  0  0  0
 18 20  1  0  0  0
 18 21  1  0  0  0
  6  7  1  0  0  0
  7 22  1  0  0  0
 22 23  3  0  0  0
 23 24  1  0  0  0
 24 25  1  0  0  0
 24 33  2  0  0  0
 25 26  2  0  0  0
 26 27  1  0  0  0
 27 28  1  0  0  0
 27 32  2  0  0  0
 28 29  2  0  0  0
 29 30  1  0  0  0
 30 31  2  0  0  0
 31 32  1  0  0  0
 32 33  1  0  0  0
M  END
> <minimizedAffinity>
-10.48851

$$$$
