CHEMBL3900574


 35 38  0  0  0  0  0  0  0  0999 V2000
  -24.8073   -1.4387  -13.1291 N   0  0  0  0  0  0  0  0  0  0  0  0
  -25.5196   -1.5405  -11.8385 C   0  0  0  0  0  0  0  0  0  0  0  0
  -25.8467   -2.8126  -11.4651 C   0  0  0  0  0  0  0  0  0  0  0  0
  -26.4997   -2.9233  -10.3125 C   0  0  0  0  0  0  0  0  0  0  0  0
  -27.0318   -1.9088   -9.5250 C   0  0  0  0  0  0  0  0  0  0  0  0
  -28.1238   -2.4023   -9.2115 N   0  0  0  0  0  0  0  0  0  0  0  0
  -27.9932   -2.9983   -8.0895 C   0  0  0  0  0  0  0  0  0  0  0  0
  -28.2625   -2.2077   -7.1161 C   0  0  0  0  0  0  0  0  0  0  0  0
  -27.7154   -0.7814   -7.7409 N   0  0  0  0  0  0  0  0  0  0  0  0
  -26.8718   -0.6354   -9.2877 C   0  0  0  0  0  0  0  0  0  0  0  0
  -26.0070   -0.4592  -10.8664 C   0  0  0  0  0  0  0  0  0  0  0  0
  -29.2191   -3.4764   -6.1889 C   0  0  0  0  0  0  0  0  0  0  0  0
  -29.1329   -4.9030   -5.5717 C   0  0  0  0  0  0  0  0  0  0  0  0
  -30.0286   -5.2965   -4.6009 N   0  0  0  0  0  0  0  0  0  0  0  0
  -30.7768   -4.2234   -4.3260 N   0  0  0  0  0  0  0  0  0  0  0  0
  -31.8215   -4.2680   -3.2308 C   0  0  0  0  0  0  0  0  0  0  0  0
  -30.3176   -3.1441   -5.2028 C   0  0  0  0  0  0  0  0  0  0  0  0
  -21.4955    0.1370  -14.3524 C   0  0  0  0  0  0  0  0  0  0  0  0
  -21.7240    1.4197  -14.0301 C   0  0  0  0  0  0  0  0  0  0  0  0
  -22.9100    1.7888  -13.3933 C   0  0  0  0  0  0  0  0  0  0  0  0
  -23.8779    0.8390  -13.0386 C   0  0  0  0  0  0  0  0  0  0  0  0
  -23.7434   -0.4894  -13.4041 C   0  0  0  0  0  0  0  0  0  0  0  0
  -22.4732   -0.7431  -13.9777 C   0  0  0  0  0  0  0  0  0  0  0  0
  -19.3639    0.4859  -15.2617 C   0  0  0  0  0  0  0  0  0  0  0  0
  -20.4751   -0.3755  -15.0971 O   0  0  0  0  0  0  0  0  0  0  0  0
  -23.2179    3.0930  -13.1271 O   0  0  0  0  0  0  0  0  0  0  0  0
  -22.3003    4.0280  -13.6888 C   0  0  0  0  0  0  0  0  0  0  0  0
  -25.6372   -1.9283  -14.2948 C   0  0  0  0  0  0  0  0  0  0  0  0
  -26.9488   -1.1854  -14.5352 C   0  0  0  0  0  0  0  0  0  0  0  0
  -27.1939   -0.9894  -15.9768 O   0  0  0  0  0  0  0  0  0  0  0  0
  -26.9679   -1.7854  -16.4835 H   0  0  0  0  0  0  0  0  0  0  0  0
  -28.1896   -1.8300  -14.0654 C   0  0  0  0  0  0  0  0  0  0  0  0
  -29.2015   -1.3576  -14.8169 F   0  0  0  0  0  0  0  0  0  0  0  0
  -28.1194   -3.1646  -14.1570 F   0  0  0  0  0  0  0  0  0  0  0  0
  -28.4062   -1.4927  -12.7706 F   0  0  0  0  0  0  0  0  0  0  0  0
 24 25  1  0  0  0
 25 18  1  0  0  0
 18 19  1  0  0  0
 18 23  2  0  0  0
 19 20  2  0  0  0
 20 26  1  0  0  0
 20 21  1  0  0  0
 26 27  1  0  0  0
 21 22  2  0  0  0
 22  1  1  0  0  0
 22 23  1  0  0  0
  1 28  1  0  0  0
  1  2  1  0  0  0
 28 29  1  0  0  0
 29 30  1  0  0  0
 29 32  1  0  0  0
 30 31  1  0  0  0
 32 33  1  0  0  0
 32 34  1  0  0  0
 32 35  1  0  0  0
  2  3  1  0  0  0
  2 11  2  0  0  0
  3  4  2  0  0  0
  4  5  1  0  0  0
  5  6  1  0  0  0
  5 10  2  0  0  0
  6  7  2  0  0  0
  7  8  1  0  0  0
  8 12  1  0  0  0
  8  9  2  0  0  0
 12 13  1  0  0  0
 12 17  2  0  0  0
 13 14  2  0  0  0
 14 15  1  0  0  0
 15 16  1  0  0  0
 15 17  1  0  0  0
  9 10  1  0  0  0
 10 11  1  0  0  0
M  END
> <minimizedAffinity>
-2.53944

$$$$
