CHEMBL1516890


 22 25  0  0  0  0  0  0  0  0999 V2000
  -28.9744   -5.7745   -7.1012 C   0  0  0  0  0  0  0  0  0  0  0  0
  -28.9828   -5.3710   -5.8124 C   0  0  0  0  0  0  0  0  0  0  0  0
  -29.2631   -6.0837   -4.4998 C   0  0  0  0  0  0  0  0  0  0  0  0
  -29.5528   -7.2501   -4.2760 O   0  0  0  0  0  0  0  0  0  0  0  0
  -29.1249   -5.1301   -3.5048 N   0  0  0  0  0  0  0  0  0  0  0  0
  -28.8006   -3.8981   -4.0430 C   0  0  0  0  0  0  0  0  0  0  0  0
  -28.5881   -2.7100   -3.3829 C   0  0  0  0  0  0  0  0  0  0  0  0
  -28.2761   -1.6115   -4.1806 C   0  0  0  0  0  0  0  0  0  0  0  0
  -28.1982   -1.7723   -5.5714 C   0  0  0  0  0  0  0  0  0  0  0  0
  -28.4053   -2.9420   -6.2303 N   0  0  0  0  0  0  0  0  0  0  0  0
  -28.7021   -3.9749   -5.4258 C   0  0  0  0  0  0  0  0  0  0  0  0
  -29.2559   -5.3418   -2.5265 H   0  0  0  0  0  0  0  0  0  0  0  0
  -28.2145   -9.9821   -9.5482 C   0  0  0  0  0  0  0  0  0  0  0  0
  -28.9113   -8.9631   -8.7982 N   0  0  0  0  0  0  0  0  0  0  0  0
  -28.3345   -7.7798   -8.4321 C   0  0  0  0  0  0  0  0  0  0  0  0
  -29.2277   -7.0636   -7.6744 C   0  0  0  0  0  0  0  0  0  0  0  0
  -30.4431   -7.8436   -7.6258 C   0  0  0  0  0  0  0  0  0  0  0  0
  -31.7197   -7.6804   -7.0362 C   0  0  0  0  0  0  0  0  0  0  0  0
  -32.6941   -8.6821   -7.1827 C   0  0  0  0  0  0  0  0  0  0  0  0
  -32.4249   -9.8393   -7.9076 C   0  0  0  0  0  0  0  0  0  0  0  0
  -31.1773  -10.0314   -8.4989 C   0  0  0  0  0  0  0  0  0  0  0  0
  -30.2072   -9.0277   -8.3422 C   0  0  0  0  0  0  0  0  0  0  0  0
 13 14  1  0  0  0
 14 15  1  0  0  0
 14 22  1  0  0  0
 15 16  2  0  0  0
 16  1  1  0  0  0
 16 17  1  0  0  0
  1  2  2  0  0  0
  2  3  1  0  0  0
  2 11  1  0  0  0
  3  4  2  0  0  0
  3  5  1  0  0  0
  5  6  1  0  0  0
  5 12  1  0  0  0
  6  7  1  0  0  0
  6 11  2  0  0  0
  7  8  2  0  0  0
  8  9  1  0  0  0
  9 10  2  0  0  0
 10 11  1  0  0  0
 17 18  1  0  0  0
 17 22  2  0  0  0
 18 19  2  0  0  0
 19 20  1  0  0  0
 20 21  2  0  0  0
 21 22  1  0  0  0
M  END
> <minimizedAffinity>
-8.27785

$$$$
