CHEMBL4241633


 20 22  0  0  0  0  0  0  0  0999 V2000
  -12.0602   -5.8392  -15.4477 O   0  0  0  0  0  0  0  0  0  0  0  0
  -12.9469   -6.5595  -14.9998 C   0  0  0  0  0  0  0  0  0  0  0  0
  -12.7197   -7.3990  -13.8098 C   0  0  0  0  0  0  0  0  0  0  0  0
  -11.4552   -7.4775  -13.2222 C   0  0  0  0  0  0  0  0  0  0  0  0
  -11.2583   -8.3133  -12.1221 C   0  0  0  0  0  0  0  0  0  0  0  0
  -12.3157   -9.0814  -11.6299 C   0  0  0  0  0  0  0  0  0  0  0  0
  -13.5776   -8.9994  -12.2205 C   0  0  0  0  0  0  0  0  0  0  0  0
  -13.7870   -8.1341  -13.2926 C   0  0  0  0  0  0  0  0  0  0  0  0
  -15.0678   -8.0578  -13.7777 O   0  0  0  0  0  0  0  0  0  0  0  0
  -15.3552   -6.8319  -14.5025 C   0  0  0  0  0  0  0  0  0  0  0  0
  -14.3241   -6.6770  -15.6362 C   0  0  0  0  0  0  0  0  0  0  0  0
  -14.3820   -7.7860  -16.5377 O   0  0  0  0  0  0  0  0  0  0  0  0
  -14.3119   -8.6034  -16.0104 H   0  0  0  0  0  0  0  0  0  0  0  0
  -15.5449   -5.6431  -13.5540 C   0  0  0  0  0  0  0  0  0  0  0  0
  -15.0600   -4.3586  -13.8549 C   0  0  0  0  0  0  0  0  0  0  0  0
  -15.2280   -3.2965  -12.9594 C   0  0  0  0  0  0  0  0  0  0  0  0
  -15.8967   -3.5002  -11.7570 C   0  0  0  0  0  0  0  0  0  0  0  0
  -16.0833   -2.1981  -10.6493 Cl  0  0  0  0  0  0  0  0  0  0  0  0
  -16.4156   -4.7527  -11.4504 C   0  0  0  0  0  0  0  0  0  0  0  0
  -16.2504   -5.8129  -12.3472 C   0  0  0  0  0  0  0  0  0  0  0  0
  1  2  2  0  0  0
  2  3  1  0  0  0
  2 11  1  0  0  0
  3  4  1  0  0  0
  3  8  2  0  0  0
  4  5  2  0  0  0
  5  6  1  0  0  0
  6  7  2  0  0  0
  7  8  1  0  0  0
  8  9  1  0  0  0
  9 10  1  0  0  0
 10 11  1  0  0  0
 10 14  1  0  0  0
 14 15  1  0  0  0
 14 20  2  0  0  0
 15 16  2  0  0  0
 16 17  1  0  0  0
 17 18  1  0  0  0
 17 19  2  0  0  0
 19 20  1  0  0  0
 11 12  1  0  0  0
 12 13  1  0  0  0
M  END
> <minimizedAffinity>
-7.06679

$$$$
