CHEMBL2206667


 26 29  0  0  0  0  0  0  0  0999 V2000
  -27.9520   -2.0907   -8.8077 C   0  0  0  0  0  0  0  0  0  0  0  0
  -27.5748   -1.3406   -7.6833 C   0  0  0  0  0  0  0  0  0  0  0  0
  -28.0154   -1.6996   -6.4120 C   0  0  0  0  0  0  0  0  0  0  0  0
  -28.8298   -2.8175   -6.2556 C   0  0  0  0  0  0  0  0  0  0  0  0
  -29.2311   -3.5485   -7.3780 C   0  0  0  0  0  0  0  0  0  0  0  0
  -28.7893   -3.2044   -8.6594 C   0  0  0  0  0  0  0  0  0  0  0  0
  -28.0883   -1.1723  -10.9374 O   0  0  0  0  0  0  0  0  0  0  0  0
  -27.3519   -1.7036  -10.1132 C   0  0  0  0  0  0  0  0  0  0  0  0
  -26.0225   -2.0398  -10.2944 N   0  0  0  0  0  0  0  0  0  0  0  0
  -25.5982   -2.6467   -9.6050 H   0  0  0  0  0  0  0  0  0  0  0  0
  -25.2534   -1.7724  -11.4511 C   0  0  0  0  0  0  0  0  0  0  0  0
  -23.8656   -1.6043  -11.4352 C   0  0  0  0  0  0  0  0  0  0  0  0
  -23.1659   -1.3224  -12.6112 C   0  0  0  0  0  0  0  0  0  0  0  0
  -23.8474   -1.2075  -13.8187 C   0  0  0  0  0  0  0  0  0  0  0  0
  -25.2288   -1.3866  -13.8515 C   0  0  0  0  0  0  0  0  0  0  0  0
  -25.9277   -1.6780  -12.6749 C   0  0  0  0  0  0  0  0  0  0  0  0
  -29.9782   -4.7415   -7.2430 O   0  0  0  0  0  0  0  0  0  0  0  0
  -29.6649   -5.6468   -6.2342 C   0  0  0  0  0  0  0  0  0  0  0  0
  -30.6409   -5.4793   -5.1331 C   0  0  0  0  0  0  0  0  0  0  0  0
  -30.5078   -6.3050   -4.0870 C   0  0  0  0  0  0  0  0  0  0  0  0
  -29.4597   -7.2561   -4.0850 C   0  0  0  0  0  0  0  0  0  0  0  0
  -29.1138   -8.1689   -3.2019 N   0  0  0  0  0  0  0  0  0  0  0  0
  -28.0285   -8.8072   -3.7518 C   0  0  0  0  0  0  0  0  0  0  0  0
  -27.7153   -8.2777   -4.9810 C   0  0  0  0  0  0  0  0  0  0  0  0
  -28.6228   -7.2773   -5.1896 N   0  0  0  0  0  0  0  0  0  0  0  0
  -28.6820   -6.4848   -6.2929 N   0  0  0  0  0  0  0  0  0  0  0  0
  7  8  2  0  0  0
  8  9  1  0  0  0
  8  1  1  0  0  0
  9 11  1  0  0  0
  9 10  1  0  0  0
 11 12  1  0  0  0
 11 16  2  0  0  0
 12 13  2  0  0  0
 13 14  1  0  0  0
 14 15  2  0  0  0
 15 16  1  0  0  0
  1  2  1  0  0  0
  1  6  2  0  0  0
  2  3  2  0  0  0
  3  4  1  0  0  0
  4  5  2  0  0  0
  5 17  1  0  0  0
  5  6  1  0  0  0
 17 18  1  0  0  0
 18 19  1  0  0  0
 18 26  2  0  0  0
 19 20  2  0  0  0
 20 21  1  0  0  0
 21 22  2  0  0  0
 21 25  1  0  0  0
 22 23  1  0  0  0
 23 24  2  0  0  0
 24 25  1  0  0  0
 25 26  1  0  0  0
M  END
> <minimizedAffinity>
-9.49007

$$$$
