CHEMBL1997892


 33 35  0  0  0  0  0  0  0  0999 V2000
  -25.6749   -2.3661  -11.4366 N   0  0  0  0  0  0  0  0  0  0  0  0
  -26.3258   -2.0359  -10.2637 C   0  0  0  0  0  0  0  0  0  0  0  0
  -26.1834   -0.9820   -9.6501 O   0  0  0  0  0  0  0  0  0  0  0  0
  -27.1535   -3.0443   -9.7950 N   0  0  0  0  0  0  0  0  0  0  0  0
  -25.9709   -3.2013  -11.9260 H   0  0  0  0  0  0  0  0  0  0  0  0
  -26.7634   -3.9740   -9.8987 H   0  0  0  0  0  0  0  0  0  0  0  0
  -22.7084   -0.0259  -13.4075 C   0  0  0  0  0  0  0  0  0  0  0  0
  -22.5922   -0.3431  -12.0622 C   0  0  0  0  0  0  0  0  0  0  0  0
  -23.5380   -1.1441  -11.4329 C   0  0  0  0  0  0  0  0  0  0  0  0
  -24.6980   -1.5605  -12.0868 C   0  0  0  0  0  0  0  0  0  0  0  0
  -24.8746   -1.1449  -13.4180 C   0  0  0  0  0  0  0  0  0  0  0  0
  -26.3183   -1.5446  -14.2849 Cl  0  0  0  0  0  0  0  0  0  0  0  0
  -23.8844   -0.3942  -14.0790 C   0  0  0  0  0  0  0  0  0  0  0  0
  -22.7809    3.1005  -13.5065 C   0  0  0  0  0  0  0  0  0  0  0  0
  -21.7483    2.2605  -14.1961 C   0  0  0  0  0  0  0  0  0  0  0  0
  -20.7823    2.8619  -14.9037 C   0  0  0  0  0  0  0  0  0  0  0  0
  -19.6801    2.1061  -15.5101 C   0  0  0  0  0  0  0  0  0  0  0  0
  -18.8162    2.6770  -16.1725 O   0  0  0  0  0  0  0  0  0  0  0  0
  -19.6792    0.7644  -15.2655 N   0  0  0  0  0  0  0  0  0  0  0  0
  -20.6454    0.0774  -14.5958 N   0  0  0  0  0  0  0  0  0  0  0  0
  -21.6388    0.7588  -14.1011 C   0  0  0  0  0  0  0  0  0  0  0  0
  -18.9311    0.2175  -15.6766 H   0  0  0  0  0  0  0  0  0  0  0  0
  -27.8306   -2.8181   -8.5641 C   0  0  0  0  0  0  0  0  0  0  0  0
  -27.8886   -1.5392   -7.9913 C   0  0  0  0  0  0  0  0  0  0  0  0
  -28.4073   -1.3527   -6.7002 C   0  0  0  0  0  0  0  0  0  0  0  0
  -28.8750   -2.4729   -5.9925 C   0  0  0  0  0  0  0  0  0  0  0  0
  -28.8527   -3.7433   -6.5763 C   0  0  0  0  0  0  0  0  0  0  0  0
  -28.3506   -3.9042   -7.8639 C   0  0  0  0  0  0  0  0  0  0  0  0
  -28.2829   -5.1336   -8.3965 F   0  0  0  0  0  0  0  0  0  0  0  0
  -28.4375    0.0178   -6.0658 C   0  0  0  0  0  0  0  0  0  0  0  0
  -28.4447    1.0421   -6.9632 F   0  0  0  0  0  0  0  0  0  0  0  0
  -29.5428    0.1984   -5.2896 F   0  0  0  0  0  0  0  0  0  0  0  0
  -27.3705    0.2409   -5.2499 F   0  0  0  0  0  0  0  0  0  0  0  0
 14 15  1  0  0  0
 15 16  2  0  0  0
 15 21  1  0  0  0
 16 17  1  0  0  0
 17 18  2  0  0  0
 17 19  1  0  0  0
 19 20  1  0  0  0
 19 22  1  0  0  0
 20 21  2  0  0  0
 21  7  1  0  0  0
  7  8  1  0  0  0
  7 13  2  0  0  0
  8  9  2  0  0  0
  9 10  1  0  0  0
 10  1  1  0  0  0
 10 11  2  0  0  0
  1  2  1  0  0  0
  1  5  1  0  0  0
  2  3  2  0  0  0
  2  4  1  0  0  0
  4 23  1  0  0  0
  4  6  1  0  0  0
 23 24  1  0  0  0
 23 28  2  0  0  0
 24 25  2  0  0  0
 25 30  1  0  0  0
 25 26  1  0  0  0
 30 31  1  0  0  0
 30 32  1  0  0  0
 30 33  1  0  0  0
 26 27  2  0  0  0
 27 28  1  0  0  0
 28 29  1  0  0  0
 11 12  1  0  0  0
 11 13  1  0  0  0
M  END
> <minimizedAffinity>
-10.93779

$$$$
