CHEMBL2322136


 20 23  0  0  0  0  0  0  0  0999 V2000
  -30.6583   -3.0925   -2.7495 C   0  0  0  0  0  0  0  0  0  0  0  0
  -30.2002   -3.4038   -4.0834 N   0  0  0  0  0  0  0  0  0  0  0  0
  -30.4847   -4.6170   -4.6198 N   0  0  0  0  0  0  0  0  0  0  0  0
  -29.9399   -4.5804   -5.8514 C   0  0  0  0  0  0  0  0  0  0  0  0
  -29.3364   -3.3389   -6.0478 C   0  0  0  0  0  0  0  0  0  0  0  0
  -28.6489   -2.7671   -7.1296 C   0  0  0  0  0  0  0  0  0  0  0  0
  -28.3115   -3.2381   -8.3975 C   0  0  0  0  0  0  0  0  0  0  0  0
  -27.6331   -2.1931   -8.9995 C   0  0  0  0  0  0  0  0  0  0  0  0
  -27.5774   -1.1391   -8.1096 N   0  0  0  0  0  0  0  0  0  0  0  0
  -28.2046   -1.4817   -6.9414 C   0  0  0  0  0  0  0  0  0  0  0  0
  -28.3457   -0.7068   -5.8534 N   0  0  0  0  0  0  0  0  0  0  0  0
  -29.0138   -1.2750   -4.8183 C   0  0  0  0  0  0  0  0  0  0  0  0
  -29.4996   -2.5713   -4.9189 C   0  0  0  0  0  0  0  0  0  0  0  0
  -27.1436   -0.2403   -8.2713 H   0  0  0  0  0  0  0  0  0  0  0  0
  -30.0511   -5.7423   -6.7914 C   0  0  0  0  0  0  0  0  0  0  0  0
  -31.0925   -6.7642   -6.3037 C   0  0  0  0  0  0  0  0  0  0  0  0
  -31.2539   -7.9030   -7.3070 C   0  0  0  0  0  0  0  0  0  0  0  0
  -29.9153   -8.5714   -7.6100 C   0  0  0  0  0  0  0  0  0  0  0  0
  -28.8812   -7.5598   -8.0960 C   0  0  0  0  0  0  0  0  0  0  0  0
  -28.7047   -6.4144   -7.1009 C   0  0  0  0  0  0  0  0  0  0  0  0
  1  2  1  0  0  0
  2  3  1  0  0  0
  2 13  1  0  0  0
  3  4  2  0  0  0
  4 15  1  0  0  0
  4  5  1  0  0  0
 15 16  1  0  0  0
 15 20  1  0  0  0
 16 17  1  0  0  0
 17 18  1  0  0  0
 18 19  1  0  0  0
 19 20  1  0  0  0
  5  6  1  0  0  0
  5 13  2  0  0  0
  6  7  1  0  0  0
  6 10  2  0  0  0
  7  8  2  0  0  0
  8  9  1  0  0  0
  9 10  1  0  0  0
  9 14  1  0  0  0
 10 11  1  0  0  0
 11 12  2  0  0  0
 12 13  1  0  0  0
M  END
> <minimizedAffinity>
-7.44363

$$$$
