CHEMBL522304


 30 33  0  0  0  0  0  0  0  0999 V2000
  -27.1061   -2.1263   -9.5188 N   0  0  0  0  0  0  0  0  0  0  0  0
  -27.7483   -3.3118   -9.2390 C   0  0  0  0  0  0  0  0  0  0  0  0
  -28.1695   -3.1692   -7.9311 C   0  0  0  0  0  0  0  0  0  0  0  0
  -27.7496   -1.9605   -7.4561 N   0  0  0  0  0  0  0  0  0  0  0  0
  -27.1646   -1.3083   -8.4425 N   0  0  0  0  0  0  0  0  0  0  0  0
  -24.9341   -1.0368  -12.9695 C   0  0  0  0  0  0  0  0  0  0  0  0
  -26.2477   -1.5169  -13.0912 C   0  0  0  0  0  0  0  0  0  0  0  0
  -26.9946   -1.8622  -11.9592 C   0  0  0  0  0  0  0  0  0  0  0  0
  -26.4256   -1.7249  -10.6887 C   0  0  0  0  0  0  0  0  0  0  0  0
  -25.1255   -1.2048  -10.5602 C   0  0  0  0  0  0  0  0  0  0  0  0
  -24.3866   -0.8670  -11.6900 C   0  0  0  0  0  0  0  0  0  0  0  0
  -24.7012   -1.0157  -15.3580 F   0  0  0  0  0  0  0  0  0  0  0  0
  -24.0904   -0.7215  -14.1777 C   0  0  0  0  0  0  0  0  0  0  0  0
  -22.9167   -1.4121  -14.1815 F   0  0  0  0  0  0  0  0  0  0  0  0
  -23.7514    0.5948  -14.2485 F   0  0  0  0  0  0  0  0  0  0  0  0
  -28.8880   -4.1396   -7.1208 C   0  0  0  0  0  0  0  0  0  0  0  0
  -29.7474   -5.0338   -7.7979 C   0  0  0  0  0  0  0  0  0  0  0  0
  -30.3114   -6.1280   -7.1494 C   0  0  0  0  0  0  0  0  0  0  0  0
  -30.0079   -6.3579   -5.8171 C   0  0  0  0  0  0  0  0  0  0  0  0
  -29.2001   -5.4547   -5.1216 C   0  0  0  0  0  0  0  0  0  0  0  0
  -28.6720   -4.2942   -5.7262 C   0  0  0  0  0  0  0  0  0  0  0  0
  -27.9297   -3.4517   -4.8876 N   0  0  0  0  0  0  0  0  0  0  0  0
  -27.0555   -3.8460   -4.5562 H   0  0  0  0  0  0  0  0  0  0  0  0
  -28.5512   -2.5600   -3.9144 C   0  0  0  0  0  0  0  0  0  0  0  0
  -28.7901   -1.1876   -4.4946 C   0  0  0  0  0  0  0  0  0  0  0  0
  -27.7636   -0.2420   -4.5625 C   0  0  0  0  0  0  0  0  0  0  0  0
  -28.0101    0.9596   -5.2089 C   0  0  0  0  0  0  0  0  0  0  0  0
  -29.1912    1.2767   -5.7798 N   0  0  0  0  0  0  0  0  0  0  0  0
  -30.1707    0.3507   -5.7004 C   0  0  0  0  0  0  0  0  0  0  0  0
  -30.0241   -0.8767   -5.0766 C   0  0  0  0  0  0  0  0  0  0  0  0
 12 13  1  0  0  0
 13 14  1  0  0  0
 13 15  1  0  0  0
 13  6  1  0  0  0
  6  7  1  0  0  0
  6 11  2  0  0  0
  7  8  2  0  0  0
  8  9  1  0  0  0
  9  1  1  0  0  0
  9 10  2  0  0  0
  1  2  1  0  0  0
  1  5  1  0  0  0
  2  3  2  0  0  0
  3 16  1  0  0  0
  3  4  1  0  0  0
 16 17  1  0  0  0
 16 21  2  0  0  0
 17 18  2  0  0  0
 18 19  1  0  0  0
 19 20  2  0  0  0
 20 21  1  0  0  0
 21 22  1  0  0  0
 22 24  1  0  0  0
 22 23  1  0  0  0
 24 25  1  0  0  0
 25 26  1  0  0  0
 25 30  2  0  0  0
 26 27  2  0  0  0
 27 28  1  0  0  0
 28 29  2  0  0  0
 29 30  1  0  0  0
  4  5  2  0  0  0
 10 11  1  0  0  0
M  END
> <minimizedAffinity>
-9.24851

$$$$
