CHEMBL1075628


 48 53  0  0  0  0  0  0  0  0999 V2000
  -24.4074  -12.4571   -6.3056 C   0  0  0  0  0  0  0  0  0  0  0  0
  -25.1800  -11.2423   -5.8684 C   0  0  0  0  0  0  0  0  0  0  0  0
  -24.5740  -10.4443   -4.8819 C   0  0  0  0  0  0  0  0  0  0  0  0
  -25.1938   -9.3007   -4.3906 C   0  0  0  0  0  0  0  0  0  0  0  0
  -26.4525   -8.9261   -4.8450 C   0  0  0  0  0  0  0  0  0  0  0  0
  -27.0921   -9.7616   -5.7748 C   0  0  0  0  0  0  0  0  0  0  0  0
  -26.4657  -10.9034   -6.3489 C   0  0  0  0  0  0  0  0  0  0  0  0
  -27.0898   -7.7319   -4.4221 N   0  0  0  0  0  0  0  0  0  0  0  0
  -27.9934   -6.9979   -5.1811 C   0  0  0  0  0  0  0  0  0  0  0  0
  -28.3671   -7.2874   -6.3138 O   0  0  0  0  0  0  0  0  0  0  0  0
  -26.9965   -7.4375   -3.4530 H   0  0  0  0  0  0  0  0  0  0  0  0
  -28.5693   -5.8157   -4.5168 C   0  0  0  0  0  0  0  0  0  0  0  0
  -27.8147   -4.6882   -4.1347 C   0  0  0  0  0  0  0  0  0  0  0  0
  -28.7118   -3.7163   -3.7443 C   0  0  0  0  0  0  0  0  0  0  0  0
  -29.9368   -4.3705   -3.7017 N   0  0  0  0  0  0  0  0  0  0  0  0
  -29.8689   -5.6272   -4.2394 N   0  0  0  0  0  0  0  0  0  0  0  0
  -31.2444   -3.8932   -3.1931 C   0  0  0  0  0  0  0  0  0  0  0  0
  -31.0562   -2.8932   -2.0377 C   0  0  0  0  0  0  0  0  0  0  0  0
  -32.0410   -3.1529   -4.3015 C   0  0  0  0  0  0  0  0  0  0  0  0
  -32.1345   -5.0668   -2.7348 C   0  0  0  0  0  0  0  0  0  0  0  0
  -28.4627   -2.2706   -3.4249 C   0  0  0  0  0  0  0  0  0  0  0  0
  -28.0964   -1.4378   -4.5844 N   0  0  0  0  0  0  0  0  0  0  0  0
  -28.9757   -1.6275   -5.7572 C   0  0  0  0  0  0  0  0  0  0  0  0
  -28.4910   -0.7570   -6.9378 C   0  0  0  0  0  0  0  0  0  0  0  0
  -28.4804    0.6925   -6.6568 N   0  0  0  0  0  0  0  0  0  0  0  0
  -29.8381    1.2294   -6.6179 C   0  0  0  0  0  0  0  0  0  0  0  0
  -27.7514    0.9290   -5.3937 C   0  0  0  0  0  0  0  0  0  0  0  0
  -28.1405   -0.0015   -4.2162 C   0  0  0  0  0  0  0  0  0  0  0  0
  -27.0892  -11.6924   -7.3661 N   0  0  0  0  0  0  0  0  0  0  0  0
  -26.4524  -12.0745   -8.0603 H   0  0  0  0  0  0  0  0  0  0  0  0
  -28.4048  -11.6349   -7.7122 C   0  0  0  0  0  0  0  0  0  0  0  0
  -29.3461  -12.4649   -7.3242 N   0  0  0  0  0  0  0  0  0  0  0  0
  -30.5047  -11.8153   -7.5585 C   0  0  0  0  0  0  0  0  0  0  0  0
  -31.7826  -12.2051   -7.1382 C   0  0  0  0  0  0  0  0  0  0  0  0
  -32.5099  -11.1184   -6.6791 C   0  0  0  0  0  0  0  0  0  0  0  0
  -32.3840   -9.8785   -7.3093 C   0  0  0  0  0  0  0  0  0  0  0  0
  -31.3403   -9.6323   -8.2157 C   0  0  0  0  0  0  0  0  0  0  0  0
  -30.2997  -10.5848   -8.1740 C   0  0  0  0  0  0  0  0  0  0  0  0
  -28.9627  -10.6649   -8.5726 N   0  0  0  0  0  0  0  0  0  0  0  0
  -28.2870   -9.9971   -9.6227 C   0  0  0  0  0  0  0  0  0  0  0  0
  -28.6342  -10.1485  -10.9556 C   0  0  0  0  0  0  0  0  0  0  0  0
  -27.7969   -9.6273  -11.9070 C   0  0  0  0  0  0  0  0  0  0  0  0
  -28.0899   -9.7129  -13.2602 N   0  0  0  0  0  0  0  0  0  0  0  0
  -26.6744   -8.9571  -11.5953 N   0  0  0  0  0  0  0  0  0  0  0  0
  -26.4102   -8.8389  -10.2945 C   0  0  0  0  0  0  0  0  0  0  0  0
  -27.1689   -9.2970   -9.2904 N   0  0  0  0  0  0  0  0  0  0  0  0
  -28.2539  -10.6736  -13.5552 H   0  0  0  0  0  0  0  0  0  0  0  0
  -27.3112   -9.2999  -13.7692 H   0  0  0  0  0  0  0  0  0  0  0  0
  1  2  1  0  0  0
  2  3  1  0  0  0
  2  7  2  0  0  0
  3  4  2  0  0  0
  4  5  1  0  0  0
  5  8  1  0  0  0
  5  6  2  0  0  0
  8  9  1  0  0  0
  8 11  1  0  0  0
  9 10  2  0  0  0
  9 12  1  0  0  0
 12 13  1  0  0  0
 12 16  2  0  0  0
 13 14  2  0  0  0
 14 21  1  0  0  0
 14 15  1  0  0  0
 21 22  1  0  0  0
 22 23  1  0  0  0
 22 28  1  0  0  0
 23 24  1  0  0  0
 24 25  1  0  0  0
 25 26  1  0  0  0
 25 27  1  0  0  0
 27 28  1  0  0  0
 15 17  1  0  0  0
 15 16  1  0  0  0
 17 18  1  0  0  0
 17 19  1  0  0  0
 17 20  1  0  0  0
  6  7  1  0  0  0
  7 29  1  0  0  0
 29 31  1  0  0  0
 29 30  1  0  0  0
 31 32  2  0  0  0
 31 39  1  0  0  0
 32 33  1  0  0  0
 33 34  1  0  0  0
 33 38  2  0  0  0
 34 35  2  0  0  0
 35 36  1  0  0  0
 36 37  2  0  0  0
 37 38  1  0  0  0
 38 39  1  0  0  0
 39 40  1  0  0  0
 40 41  1  0  0  0
 40 46  2  0  0  0
 41 42  2  0  0  0
 42 43  1  0  0  0
 42 44  1  0  0  0
 43 47  1  0  0  0
 43 48  1  0  0  0
 44 45  2  0  0  0
 45 46  1  0  0  0
M  END
> <minimizedAffinity>
-7.47199

$$$$
