CHEMBL246152


 38 41  0  0  0  0  0  0  0  0999 V2000
  -13.1977   -1.2620  -13.3529 C   0  0  0  0  0  0  0  0  0  0  0  0
  -14.5132   -0.8741  -13.6662 C   0  0  0  0  0  0  0  0  0  0  0  0
  -14.8615    0.4641  -13.8442 C   0  0  0  0  0  0  0  0  0  0  0  0
  -13.8488    1.4236  -13.7873 C   0  0  0  0  0  0  0  0  0  0  0  0
  -12.5129    1.0351  -13.6137 C   0  0  0  0  0  0  0  0  0  0  0  0
  -12.1688   -0.3127  -13.4042 C   0  0  0  0  0  0  0  0  0  0  0  0
  -10.7208   -0.6880  -13.2717 C   0  0  0  0  0  0  0  0  0  0  0  0
  -16.1959    0.8941  -14.0472 N   0  0  0  0  0  0  0  0  0  0  0  0
  -16.7722    1.1927  -15.2728 C   0  0  0  0  0  0  0  0  0  0  0  0
  -16.2268    1.1627  -16.3709 O   0  0  0  0  0  0  0  0  0  0  0  0
  -16.7297    1.0907  -13.2121 H   0  0  0  0  0  0  0  0  0  0  0  0
  -18.1723    1.6925  -15.2323 C   0  0  0  0  0  0  0  0  0  0  0  0
  -18.3689    3.0717  -15.3732 C   0  0  0  0  0  0  0  0  0  0  0  0
  -19.6484    3.6102  -15.2750 C   0  0  0  0  0  0  0  0  0  0  0  0
  -20.7443    2.7701  -15.0770 C   0  0  0  0  0  0  0  0  0  0  0  0
  -20.5725    1.3853  -15.0502 C   0  0  0  0  0  0  0  0  0  0  0  0
  -19.2779    0.8478  -15.0879 C   0  0  0  0  0  0  0  0  0  0  0  0
  -21.5730    0.4665  -14.9466 O   0  0  0  0  0  0  0  0  0  0  0  0
  -22.3395    0.3953  -13.7477 C   0  0  0  0  0  0  0  0  0  0  0  0
  -23.3252    1.3119  -13.6572 F   0  0  0  0  0  0  0  0  0  0  0  0
  -22.9119   -0.8278  -13.6784 F   0  0  0  0  0  0  0  0  0  0  0  0
  -21.5166    0.5355  -12.6863 F   0  0  0  0  0  0  0  0  0  0  0  0
  -12.9233   -2.5779  -12.9781 O   0  0  0  0  0  0  0  0  0  0  0  0
  -14.6463   -4.2909  -13.2013 C   0  0  0  0  0  0  0  0  0  0  0  0
  -15.8493   -4.7877  -12.6389 C   0  0  0  0  0  0  0  0  0  0  0  0
  -16.3487   -4.3228  -11.4276 C   0  0  0  0  0  0  0  0  0  0  0  0
  -15.5969   -3.3989  -10.7451 C   0  0  0  0  0  0  0  0  0  0  0  0
  -14.4294   -2.9180  -11.2065 N   0  0  0  0  0  0  0  0  0  0  0  0
  -14.0088   -3.2944  -12.4535 C   0  0  0  0  0  0  0  0  0  0  0  0
  -14.0053   -6.6812  -15.8106 C   0  0  0  0  0  0  0  0  0  0  0  0
  -13.6691   -5.9506  -16.8576 N   0  0  0  0  0  0  0  0  0  0  0  0
  -13.6215   -4.6426  -16.6362 C   0  0  0  0  0  0  0  0  0  0  0  0
  -13.8713   -4.0164  -15.4847 N   0  0  0  0  0  0  0  0  0  0  0  0
  -14.2057   -4.8356  -14.4953 C   0  0  0  0  0  0  0  0  0  0  0  0
  -14.2612   -6.1716  -14.6131 N   0  0  0  0  0  0  0  0  0  0  0  0
  -13.0792   -8.8608  -15.3697 C   0  0  0  0  0  0  0  0  0  0  0  0
  -14.1474   -8.0573  -15.9144 N   0  0  0  0  0  0  0  0  0  0  0  0
  -15.0866   -8.2986  -15.6262 H   0  0  0  0  0  0  0  0  0  0  0  0
 36 37  1  0  0  0
 37 30  1  0  0  0
 37 38  1  0  0  0
 30 31  1  0  0  0
 30 35  2  0  0  0
 31 32  2  0  0  0
 32 33  1  0  0  0
 33 34  2  0  0  0
 34 24  1  0  0  0
 34 35  1  0  0  0
 24 25  1  0  0  0
 24 29  2  0  0  0
 25 26  2  0  0  0
 26 27  1  0  0  0
 27 28  2  0  0  0
 28 29  1  0  0  0
 29 23  1  0  0  0
 23  1  1  0  0  0
  1  2  1  0  0  0
  1  6  2  0  0  0
  2  3  2  0  0  0
  3  8  1  0  0  0
  3  4  1  0  0  0
  8  9  1  0  0  0
  8 11  1  0  0  0
  9 10  2  0  0  0
  9 12  1  0  0  0
 12 13  1  0  0  0
 12 17  2  0  0  0
 13 14  2  0  0  0
 14 15  1  0  0  0
 15 16  2  0  0  0
 16 18  1  0  0  0
 16 17  1  0  0  0
 18 19  1  0  0  0
 19 20  1  0  0  0
 19 21  1  0  0  0
 19 22  1  0  0  0
  4  5  2  0  0  0
  5  6  1  0  0  0
  6  7  1  0  0  0
M  END
> <minimizedAffinity>
-9.67999

$$$$
