CHEMBL3746562


 35 40  0  0  0  0  0  0  0  0999 V2000
  -26.8094   -2.0176  -10.3974 N   0  0  0  0  0  0  0  0  0  0  0  0
  -27.5572   -1.6107  -11.4808 C   0  0  0  0  0  0  0  0  0  0  0  0
  -28.7602   -1.4828  -11.6206 O   0  0  0  0  0  0  0  0  0  0  0  0
  -26.7325   -1.4796  -12.6222 N   0  0  0  0  0  0  0  0  0  0  0  0
  -27.1145   -1.8613  -13.8973 C   0  0  0  0  0  0  0  0  0  0  0  0
  -26.0464   -1.7202  -14.7493 C   0  0  0  0  0  0  0  0  0  0  0  0
  -24.9731   -1.1696  -14.0032 C   0  0  0  0  0  0  0  0  0  0  0  0
  -23.6525   -0.7951  -14.3302 C   0  0  0  0  0  0  0  0  0  0  0  0
  -22.8200   -0.2395  -13.3489 C   0  0  0  0  0  0  0  0  0  0  0  0
  -23.3085   -0.0288  -12.0606 C   0  0  0  0  0  0  0  0  0  0  0  0
  -24.6207   -0.3651  -11.7217 C   0  0  0  0  0  0  0  0  0  0  0  0
  -25.4254   -0.9881  -12.6923 C   0  0  0  0  0  0  0  0  0  0  0  0
  -25.8623   -2.3445  -10.5471 H   0  0  0  0  0  0  0  0  0  0  0  0
  -28.0921   -1.7464   -7.1025 C   0  0  0  0  0  0  0  0  0  0  0  0
  -27.6737   -1.1365   -8.2633 C   0  0  0  0  0  0  0  0  0  0  0  0
  -27.3231   -2.1978   -9.1380 C   0  0  0  0  0  0  0  0  0  0  0  0
  -27.5619   -3.3785   -8.5769 N   0  0  0  0  0  0  0  0  0  0  0  0
  -28.0356   -3.0863   -7.3602 N   0  0  0  0  0  0  0  0  0  0  0  0
  -28.2569   -3.8560   -6.7409 H   0  0  0  0  0  0  0  0  0  0  0  0
  -29.5525   -1.8054   -4.9503 C   0  0  0  0  0  0  0  0  0  0  0  0
  -28.5004   -1.1008   -5.7717 C   0  0  0  0  0  0  0  0  0  0  0  0
  -27.3849   -0.3784   -5.0238 C   0  0  0  0  0  0  0  0  0  0  0  0
  -28.4621    0.4178   -5.6755 C   0  0  0  0  0  0  0  0  0  0  0  0
  -21.5196    0.0042  -13.7449 O   0  0  0  0  0  0  0  0  0  0  0  0
  -21.1801    1.2931  -14.1225 C   0  0  0  0  0  0  0  0  0  0  0  0
  -22.1171    2.2504  -13.9741 N   0  0  0  0  0  0  0  0  0  0  0  0
  -21.7519    3.4693  -14.3699 C   0  0  0  0  0  0  0  0  0  0  0  0
  -20.5684    3.7973  -14.9044 N   0  0  0  0  0  0  0  0  0  0  0  0
  -19.6672    2.7966  -15.0641 C   0  0  0  0  0  0  0  0  0  0  0  0
  -19.9299    1.5014  -14.6786 C   0  0  0  0  0  0  0  0  0  0  0  0
  -18.9534    0.3988  -14.9030 C   0  0  0  0  0  0  0  0  0  0  0  0
  -17.5464    0.8408  -15.3217 C   0  0  0  0  0  0  0  0  0  0  0  0
  -17.3355    2.1588  -15.8925 N   0  0  0  0  0  0  0  0  0  0  0  0
  -18.3742    3.1724  -15.7386 C   0  0  0  0  0  0  0  0  0  0  0  0
  -17.0226    2.1101  -16.8592 H   0  0  0  0  0  0  0  0  0  0  0  0
 20 21  1  0  0  0
 21 14  1  0  0  0
 21 22  1  0  0  0
 21 23  1  0  0  0
 14 15  2  0  0  0
 14 18  1  0  0  0
 15 16  1  0  0  0
 16  1  1  0  0  0
 16 17  2  0  0  0
  1  2  1  0  0  0
  1 13  1  0  0  0
  2  3  2  0  0  0
  2  4  1  0  0  0
  4  5  1  0  0  0
  4 12  1  0  0  0
  5  6  2  0  0  0
  6  7  1  0  0  0
  7  8  1  0  0  0
  7 12  2  0  0  0
  8  9  2  0  0  0
  9 24  1  0  0  0
  9 10  1  0  0  0
 24 25  1  0  0  0
 25 26  1  0  0  0
 25 30  2  0  0  0
 26 27  2  0  0  0
 27 28  1  0  0  0
 28 29  2  0  0  0
 29 30  1  0  0  0
 29 34  1  0  0  0
 30 31  1  0  0  0
 31 32  1  0  0  0
 32 33  1  0  0  0
 33 34  1  0  0  0
 33 35  1  0  0  0
 10 11  2  0  0  0
 11 12  1  0  0  0
 17 18  1  0  0  0
 18 19  1  0  0  0
 22 23  1  0  0  0
M  END
> <minimizedAffinity>
-11.55481

$$$$
