CHEMBL1965387


 41 45  0  0  0  0  0  0  0  0999 V2000
  -27.5728    0.6583   -7.2488 N   0  0  0  0  0  0  0  0  0  0  0  0
  -28.3041   -0.2603   -6.6045 C   0  0  0  0  0  0  0  0  0  0  0  0
  -28.7757    0.0335   -5.3984 N   0  0  0  0  0  0  0  0  0  0  0  0
  -29.4004   -1.0793   -5.0359 N   0  0  0  0  0  0  0  0  0  0  0  0
  -29.4524   -2.0654   -5.9744 C   0  0  0  0  0  0  0  0  0  0  0  0
  -30.0604   -3.3336   -5.9680 C   0  0  0  0  0  0  0  0  0  0  0  0
  -29.8614   -4.1410   -7.0788 C   0  0  0  0  0  0  0  0  0  0  0  0
  -29.1228   -3.6904   -8.1737 C   0  0  0  0  0  0  0  0  0  0  0  0
  -28.5187   -2.4163   -8.2028 C   0  0  0  0  0  0  0  0  0  0  0  0
  -28.6871   -1.5735   -7.0493 C   0  0  0  0  0  0  0  0  0  0  0  0
  -27.3508    1.5113   -6.7550 H   0  0  0  0  0  0  0  0  0  0  0  0
  -26.9333    0.4313   -7.9988 H   0  0  0  0  0  0  0  0  0  0  0  0
  -29.7988   -1.0927   -4.1046 H   0  0  0  0  0  0  0  0  0  0  0  0
  -27.7498   -1.9871   -9.3920 C   0  0  0  0  0  0  0  0  0  0  0  0
  -26.3607   -1.9353   -9.3571 C   0  0  0  0  0  0  0  0  0  0  0  0
  -25.6041   -1.6794  -10.4981 C   0  0  0  0  0  0  0  0  0  0  0  0
  -26.2011   -1.3009  -11.6978 C   0  0  0  0  0  0  0  0  0  0  0  0
  -27.5922   -1.2372  -11.7314 C   0  0  0  0  0  0  0  0  0  0  0  0
  -28.3583   -1.5931  -10.5986 C   0  0  0  0  0  0  0  0  0  0  0  0
  -25.4419   -0.9375  -12.8359 N   0  0  0  0  0  0  0  0  0  0  0  0
  -24.2943   -0.1578  -12.8128 C   0  0  0  0  0  0  0  0  0  0  0  0
  -23.7409    0.2637  -11.8038 O   0  0  0  0  0  0  0  0  0  0  0  0
  -23.8378    0.1653  -14.0853 N   0  0  0  0  0  0  0  0  0  0  0  0
  -25.7079   -1.3453  -13.7230 H   0  0  0  0  0  0  0  0  0  0  0  0
  -24.5732    0.3288  -14.7566 H   0  0  0  0  0  0  0  0  0  0  0  0
  -22.6820    0.9799  -14.2094 C   0  0  0  0  0  0  0  0  0  0  0  0
  -22.7873    2.3511  -13.9695 C   0  0  0  0  0  0  0  0  0  0  0  0
  -21.6494    3.1609  -14.0315 C   0  0  0  0  0  0  0  0  0  0  0  0
  -20.4131    2.6098  -14.3714 C   0  0  0  0  0  0  0  0  0  0  0  0
  -20.3128    1.2435  -14.6251 C   0  0  0  0  0  0  0  0  0  0  0  0
  -18.7900    0.5675  -15.0589 Cl  0  0  0  0  0  0  0  0  0  0  0  0
  -21.4375    0.4249  -14.5355 C   0  0  0  0  0  0  0  0  0  0  0  0
  -30.8002   -3.9116   -4.9507 O   0  0  0  0  0  0  0  0  0  0  0  0
  -30.0642   -4.6172   -3.9566 C   0  0  0  0  0  0  0  0  0  0  0  0
  -30.6655   -6.0062   -3.7870 C   0  0  0  0  0  0  0  0  0  0  0  0
  -29.6716   -7.0651   -4.2485 C   0  0  0  0  0  0  0  0  0  0  0  0
  -29.8280   -7.4009   -5.6508 N   0  0  0  0  0  0  0  0  0  0  0  0
  -28.7979   -7.6413   -6.5208 C   0  0  0  0  0  0  0  0  0  0  0  0
  -29.3432   -7.8955   -7.7598 C   0  0  0  0  0  0  0  0  0  0  0  0
  -30.7491   -7.7950   -7.6312 C   0  0  0  0  0  0  0  0  0  0  0  0
  -31.0213   -7.4825   -6.3170 C   0  0  0  0  0  0  0  0  0  0  0  0
  1  2  1  0  0  0
  1 11  1  0  0  0
  1 12  1  0  0  0
  2  3  2  0  0  0
  2 10  1  0  0  0
  3  4  1  0  0  0
  4  5  1  0  0  0
  4 13  1  0  0  0
  5  6  1  0  0  0
  5 10  2  0  0  0
  6 33  1  0  0  0
  6  7  2  0  0  0
 33 34  1  0  0  0
 34 35  1  0  0  0
 35 36  1  0  0  0
 36 37  1  0  0  0
 37 38  1  0  0  0
 37 41  1  0  0  0
 38 39  2  0  0  0
 39 40  1  0  0  0
 40 41  2  0  0  0
  7  8  1  0  0  0
  8  9  2  0  0  0
  9 14  1  0  0  0
  9 10  1  0  0  0
 14 15  1  0  0  0
 14 19  2  0  0  0
 15 16  2  0  0  0
 16 17  1  0  0  0
 17 20  1  0  0  0
 17 18  2  0  0  0
 20 21  1  0  0  0
 20 24  1  0  0  0
 21 22  2  0  0  0
 21 23  1  0  0  0
 23 26  1  0  0  0
 23 25  1  0  0  0
 26 27  1  0  0  0
 26 32  2  0  0  0
 27 28  2  0  0  0
 28 29  1  0  0  0
 29 30  2  0  0  0
 30 31  1  0  0  0
 30 32  1  0  0  0
 18 19  1  0  0  0
M  END
> <minimizedAffinity>
-9.38112

$$$$
