CHEMBL3671481


 38 41  0  0  0  0  0  0  0  0999 V2000
  -17.7954    0.9483  -14.9348 C   0  0  0  0  0  0  0  0  0  0  0  0
  -19.1346    0.5866  -14.7919 C   0  0  0  0  0  0  0  0  0  0  0  0
  -20.1671    1.5192  -14.6541 C   0  0  0  0  0  0  0  0  0  0  0  0
  -21.4770    1.1562  -14.3195 C   0  0  0  0  0  0  0  0  0  0  0  0
  -22.4530    2.0807  -14.2398 N   0  0  0  0  0  0  0  0  0  0  0  0
  -22.0944    3.3483  -14.4571 C   0  0  0  0  0  0  0  0  0  0  0  0
  -20.8607    3.7954  -14.7380 N   0  0  0  0  0  0  0  0  0  0  0  0
  -19.8934    2.8743  -14.8236 C   0  0  0  0  0  0  0  0  0  0  0  0
  -18.5729    3.2384  -15.0972 C   0  0  0  0  0  0  0  0  0  0  0  0
  -17.5063    2.3082  -15.1555 C   0  0  0  0  0  0  0  0  0  0  0  0
  -16.0181   -0.2331  -13.6780 C   0  0  0  0  0  0  0  0  0  0  0  0
  -16.0716    0.4137  -12.6387 O   0  0  0  0  0  0  0  0  0  0  0  0
  -16.8449   -0.1013  -14.7887 N   0  0  0  0  0  0  0  0  0  0  0  0
  -16.5581   -0.6266  -15.5856 H   0  0  0  0  0  0  0  0  0  0  0  0
  -15.1475   -2.4843  -13.6141 C   0  0  0  0  0  0  0  0  0  0  0  0
  -14.9160   -1.1952  -13.9035 C   0  0  0  0  0  0  0  0  0  0  0  0
  -21.7694   -0.2144  -14.0675 N   0  0  0  0  0  0  0  0  0  0  0  0
  -20.9111   -0.7347  -13.8758 H   0  0  0  0  0  0  0  0  0  0  0  0
  -22.8689   -0.7673  -13.3791 C   0  0  0  0  0  0  0  0  0  0  0  0
  -22.7961   -1.1155  -12.0241 C   0  0  0  0  0  0  0  0  0  0  0  0
  -23.8952   -1.6567  -11.3588 C   0  0  0  0  0  0  0  0  0  0  0  0
  -25.0993   -1.8137  -12.0359 C   0  0  0  0  0  0  0  0  0  0  0  0
  -26.1449   -2.3462  -11.3927 F   0  0  0  0  0  0  0  0  0  0  0  0
  -25.2187   -1.4128  -13.3596 C   0  0  0  0  0  0  0  0  0  0  0  0
  -26.3936   -1.5353  -13.9929 F   0  0  0  0  0  0  0  0  0  0  0  0
  -24.1153   -0.8850  -14.0208 C   0  0  0  0  0  0  0  0  0  0  0  0
  -24.2385   -0.4947  -15.2999 F   0  0  0  0  0  0  0  0  0  0  0  0
  -16.3010    2.9399  -15.3863 O   0  0  0  0  0  0  0  0  0  0  0  0
  -16.2386    3.8443  -16.4724 C   0  0  0  0  0  0  0  0  0  0  0  0
  -15.1391    3.5296  -17.4957 C   0  0  0  0  0  0  0  0  0  0  0  0
  -13.7647    3.5819  -16.7822 C   0  0  0  0  0  0  0  0  0  0  0  0
  -13.3467    5.0179  -16.4526 C   0  0  0  0  0  0  0  0  0  0  0  0
  -13.3629    5.8208  -17.6694 N   0  0  0  0  0  0  0  0  0  0  0  0
  -12.2584    6.3141  -18.3445 C   0  0  0  0  0  0  0  0  0  0  0  0
  -10.8714    6.0594  -17.8064 C   0  0  0  0  0  0  0  0  0  0  0  0
  -12.3687    6.9627  -19.3886 O   0  0  0  0  0  0  0  0  0  0  0  0
  -14.6712    5.8987  -18.3240 C   0  0  0  0  0  0  0  0  0  0  0  0
  -15.1554    4.4935  -18.6960 C   0  0  0  0  0  0  0  0  0  0  0  0
 15 16  2  0  0  0
 16 11  1  0  0  0
 11 12  2  0  0  0
 11 13  1  0  0  0
 13  1  1  0  0  0
 13 14  1  0  0  0
  1  2  1  0  0  0
  1 10  2  0  0  0
  2  3  2  0  0  0
  3  4  1  0  0  0
  3  8  1  0  0  0
  4 17  1  0  0  0
  4  5  2  0  0  0
 17 19  1  0  0  0
 17 18  1  0  0  0
 19 20  1  0  0  0
 19 26  2  0  0  0
 20 21  2  0  0  0
 21 22  1  0  0  0
 22 23  1  0  0  0
 22 24  2  0  0  0
 24 25  1  0  0  0
 24 26  1  0  0  0
 26 27  1  0  0  0
  5  6  1  0  0  0
  6  7  2  0  0  0
  7  8  1  0  0  0
  8  9  2  0  0  0
  9 10  1  0  0  0
 10 28  1  0  0  0
 28 29  1  0  0  0
 29 30  1  0  0  0
 30 31  1  0  0  0
 30 38  1  0  0  0
 31 32  1  0  0  0
 32 33  1  0  0  0
 33 34  1  0  0  0
 33 37  1  0  0  0
 34 35  1  0  0  0
 34 36  2  0  0  0
 37 38  1  0  0  0
M  END
> <minimizedAffinity>
-10.28423

$$$$
