CHEMBL3706840


 40 43  0  0  0  0  0  0  0  0999 V2000
  -18.8672    2.0881  -14.8315 C   0  0  0  0  0  0  0  0  0  0  0  0
  -19.7568    3.0090  -14.4464 C   0  0  0  0  0  0  0  0  0  0  0  0
  -21.1737    2.7122  -14.1886 C   0  0  0  0  0  0  0  0  0  0  0  0
  -21.9108    3.6176  -13.8143 O   0  0  0  0  0  0  0  0  0  0  0  0
  -21.6349    1.3021  -14.3892 C   0  0  0  0  0  0  0  0  0  0  0  0
  -20.7617    0.3873  -14.8226 C   0  0  0  0  0  0  0  0  0  0  0  0
  -19.3449    0.7056  -15.1101 C   0  0  0  0  0  0  0  0  0  0  0  0
  -18.5879   -0.1495  -15.5562 O   0  0  0  0  0  0  0  0  0  0  0  0
  -17.5070    2.3250  -15.0178 N   0  0  0  0  0  0  0  0  0  0  0  0
  -17.3060    2.5127  -16.0057 H   0  0  0  0  0  0  0  0  0  0  0  0
  -13.3720   -0.0466  -16.9156 C   0  0  0  0  0  0  0  0  0  0  0  0
  -13.5849   -0.4360  -15.5702 C   0  0  0  0  0  0  0  0  0  0  0  0
  -14.5986    0.0751  -14.7630 C   0  0  0  0  0  0  0  0  0  0  0  0
  -14.6800   -0.2975  -13.4783 N   0  0  0  0  0  0  0  0  0  0  0  0
  -15.6617    0.2475  -12.7507 C   0  0  0  0  0  0  0  0  0  0  0  0
  -16.5890    1.0994  -13.1943 N   0  0  0  0  0  0  0  0  0  0  0  0
  -16.5135    1.4521  -14.4918 C   0  0  0  0  0  0  0  0  0  0  0  0
  -15.4910    0.9788  -15.3335 C   0  0  0  0  0  0  0  0  0  0  0  0
  -15.2911    1.3864  -16.6721 C   0  0  0  0  0  0  0  0  0  0  0  0
  -14.2463    0.8922  -17.4763 C   0  0  0  0  0  0  0  0  0  0  0  0
  -14.2304    1.5671  -18.6610 O   0  0  0  0  0  0  0  0  0  0  0  0
  -13.8886    2.9365  -18.7553 C   0  0  0  0  0  0  0  0  0  0  0  0
  -12.2569   -0.6735  -17.4167 O   0  0  0  0  0  0  0  0  0  0  0  0
  -12.3847   -2.0148  -17.8382 C   0  0  0  0  0  0  0  0  0  0  0  0
  -13.3572   -2.2152  -18.9928 C   0  0  0  0  0  0  0  0  0  0  0  0
  -13.5399   -4.1266  -17.5862 C   0  0  0  0  0  0  0  0  0  0  0  0
  -13.8395   -3.5552  -18.8449 O   0  0  0  0  0  0  0  0  0  0  0  0
  -22.9308    0.8810  -14.1187 O   0  0  0  0  0  0  0  0  0  0  0  0
  -23.2550   -0.4794  -14.4134 C   0  0  0  0  0  0  0  0  0  0  0  0
  -24.4750   -0.8235  -13.6099 C   0  0  0  0  0  0  0  0  0  0  0  0
  -24.4618   -0.8028  -12.2134 C   0  0  0  0  0  0  0  0  0  0  0  0
  -23.3506   -0.4292  -11.5628 F   0  0  0  0  0  0  0  0  0  0  0  0
  -25.5931   -1.1641  -11.4848 C   0  0  0  0  0  0  0  0  0  0  0  0
  -25.5602   -1.1347  -10.1446 F   0  0  0  0  0  0  0  0  0  0  0  0
  -26.7481   -1.5548  -12.1439 C   0  0  0  0  0  0  0  0  0  0  0  0
  -27.8364   -1.9008  -11.4379 F   0  0  0  0  0  0  0  0  0  0  0  0
  -26.7786   -1.5903  -13.5284 C   0  0  0  0  0  0  0  0  0  0  0  0
  -27.8904   -1.9744  -14.1709 F   0  0  0  0  0  0  0  0  0  0  0  0
  -25.6470   -1.2311  -14.2532 C   0  0  0  0  0  0  0  0  0  0  0  0
  -25.6821   -1.2746  -15.5929 F   0  0  0  0  0  0  0  0  0  0  0  0
 26 27  1  0  0  0
 27 25  1  0  0  0
 25 24  1  0  0  0
 24 23  1  0  0  0
 23 11  1  0  0  0
 11 12  1  0  0  0
 11 20  2  0  0  0
 12 13  2  0  0  0
 13 14  1  0  0  0
 13 18  1  0  0  0
 14 15  2  0  0  0
 15 16  1  0  0  0
 16 17  2  0  0  0
 17  9  1  0  0  0
 17 18  1  0  0  0
  9  1  1  0  0  0
  9 10  1  0  0  0
  1  2  2  0  0  0
  1  7  1  0  0  0
  2  3  1  0  0  0
  3  4  2  0  0  0
  3  5  1  0  0  0
  5 28  1  0  0  0
  5  6  2  0  0  0
 28 29  1  0  0  0
 29 30  1  0  0  0
 30 31  1  0  0  0
 30 39  2  0  0  0
 31 32  1  0  0  0
 31 33  2  0  0  0
 33 34  1  0  0  0
 33 35  1  0  0  0
 35 36  1  0  0  0
 35 37  2  0  0  0
 37 38  1  0  0  0
 37 39  1  0  0  0
 39 40  1  0  0  0
  6  7  1  0  0  0
  7  8  2  0  0  0
 18 19  2  0  0  0
 19 20  1  0  0  0
 20 21  1  0  0  0
 21 22  1  0  0  0
M  END
> <minimizedAffinity>
-9.04979

$$$$
