CHEMBL3690433


 40 42  0  0  0  0  0  0  0  0999 V2000
  -30.8892   -7.5294   -6.8557 C   0  0  0  0  0  0  0  0  0  0  0  0
  -30.0984   -6.5648   -7.6265 C   0  0  0  0  0  0  0  0  0  0  0  0
  -29.7821   -5.3750   -7.0891 C   0  0  0  0  0  0  0  0  0  0  0  0
  -30.1849   -5.0667   -5.7867 N   0  0  0  0  0  0  0  0  0  0  0  0
  -29.9634   -3.9474   -4.9897 C   0  0  0  0  0  0  0  0  0  0  0  0
  -30.6982   -4.2141   -3.8399 C   0  0  0  0  0  0  0  0  0  0  0  0
  -31.3070   -5.4351   -3.8743 N   0  0  0  0  0  0  0  0  0  0  0  0
  -30.9754   -5.9405   -5.0398 C   0  0  0  0  0  0  0  0  0  0  0  0
  -31.3154   -7.1965   -5.6149 C   0  0  0  0  0  0  0  0  0  0  0  0
  -29.1704   -2.7458   -5.2973 C   0  0  0  0  0  0  0  0  0  0  0  0
  -28.6436   -2.0010   -4.2296 C   0  0  0  0  0  0  0  0  0  0  0  0
  -27.8564   -0.8788   -4.4576 C   0  0  0  0  0  0  0  0  0  0  0  0
  -27.5728   -0.4820   -5.7604 C   0  0  0  0  0  0  0  0  0  0  0  0
  -28.0469   -1.2152   -6.8500 C   0  0  0  0  0  0  0  0  0  0  0  0
  -28.8504   -2.3433   -6.6086 C   0  0  0  0  0  0  0  0  0  0  0  0
  -27.7393   -0.8747   -8.1894 N   0  0  0  0  0  0  0  0  0  0  0  0
  -27.3290   -1.7469   -9.1671 C   0  0  0  0  0  0  0  0  0  0  0  0
  -27.1966   -2.9568   -9.0752 O   0  0  0  0  0  0  0  0  0  0  0  0
  -27.0430   -1.1170  -10.3629 N   0  0  0  0  0  0  0  0  0  0  0  0
  -27.8256    0.0944   -8.4460 H   0  0  0  0  0  0  0  0  0  0  0  0
  -27.5410   -0.2682  -10.5794 H   0  0  0  0  0  0  0  0  0  0  0  0
  -26.6017   -1.9662  -11.4770 C   0  0  0  0  0  0  0  0  0  0  0  0
  -25.4753   -1.3974  -12.3643 C   0  0  0  0  0  0  0  0  0  0  0  0
  -25.2117   -0.0945  -12.1312 F   0  0  0  0  0  0  0  0  0  0  0  0
  -24.3256   -2.0956  -12.2271 F   0  0  0  0  0  0  0  0  0  0  0  0
  -25.8376   -1.4915  -13.6707 F   0  0  0  0  0  0  0  0  0  0  0  0
  -31.2455   -8.8647   -7.4748 C   0  0  0  0  0  0  0  0  0  0  0  0
  -32.7228   -9.1504   -7.2945 C   0  0  0  0  0  0  0  0  0  0  0  0
  -33.1806  -10.2214   -6.7298 N   0  0  0  0  0  0  0  0  0  0  0  0
  -32.4198  -10.8402   -6.4298 H   0  0  0  0  0  0  0  0  0  0  0  0
  -29.0344   -9.7970   -6.9330 N   0  0  0  0  0  0  0  0  0  0  0  0
  -30.3180   -9.9421   -6.9594 C   0  0  0  0  0  0  0  0  0  0  0  0
  -28.2236  -10.9556   -6.4271 C   0  0  0  0  0  0  0  0  0  0  0  0
  -28.0216  -11.9104   -7.6102 C   0  0  0  0  0  0  0  0  0  0  0  0
  -29.1265  -11.5970   -5.3626 C   0  0  0  0  0  0  0  0  0  0  0  0
  -25.5703   -9.0909   -4.2509 C   0  0  0  0  0  0  0  0  0  0  0  0
  -26.8797   -9.4414   -4.7904 N   0  0  0  0  0  0  0  0  0  0  0  0
  -28.0194   -8.7265   -4.2400 C   0  0  0  0  0  0  0  0  0  0  0  0
  -26.8893  -10.4296   -5.7736 C   0  0  0  0  0  0  0  0  0  0  0  0
  -25.8040  -10.9104   -6.1362 O   0  0  0  0  0  0  0  0  0  0  0  0
 36 37  1  0  0  0
 37 38  1  0  0  0
 37 39  1  0  0  0
 39 40  2  0  0  0
 39 33  1  0  0  0
 33 34  1  0  0  0
 33 35  1  0  0  0
 33 31  1  0  0  0
 31 32  2  0  0  0
 32 27  1  0  0  0
 27 28  1  0  0  0
 27  1  1  0  0  0
 28 29  2  0  0  0
 29 30  1  0  0  0
  1  2  1  0  0  0
  1  9  2  0  0  0
  2  3  2  0  0  0
  3  4  1  0  0  0
  4  5  1  0  0  0
  4  8  1  0  0  0
  5 10  1  0  0  0
  5  6  2  0  0  0
 10 11  1  0  0  0
 10 15  2  0  0  0
 11 12  2  0  0  0
 12 13  1  0  0  0
 13 14  2  0  0  0
 14 16  1  0  0  0
 14 15  1  0  0  0
 16 17  1  0  0  0
 16 20  1  0  0  0
 17 18  2  0  0  0
 17 19  1  0  0  0
 19 22  1  0  0  0
 19 21  1  0  0  0
 22 23  1  0  0  0
 23 24  1  0  0  0
 23 25  1  0  0  0
 23 26  1  0  0  0
  6  7  1  0  0  0
  7  8  2  0  0  0
  8  9  1  0  0  0
M  END
> <minimizedAffinity>
-9.17104

$$$$
