CHEMBL1929554


 34 38  0  0  0  0  0  0  0  0999 V2000
  -20.5746    2.1723  -15.4891 N   0  0  0  0  0  0  0  0  0  0  0  0
  -19.1975    2.0838  -15.3274 C   0  0  0  0  0  0  0  0  0  0  0  0
  -18.5165    3.1928  -15.6588 N   0  0  0  0  0  0  0  0  0  0  0  0
  -17.1696    3.2159  -15.5491 C   0  0  0  0  0  0  0  0  0  0  0  0
  -16.5474    2.0478  -15.1077 C   0  0  0  0  0  0  0  0  0  0  0  0
  -15.2079    1.6462  -14.8519 C   0  0  0  0  0  0  0  0  0  0  0  0
  -15.2324    0.3664  -14.3460 C   0  0  0  0  0  0  0  0  0  0  0  0
  -16.5474   -0.0687  -14.3809 N   0  0  0  0  0  0  0  0  0  0  0  0
  -17.3609    0.9684  -14.8273 C   0  0  0  0  0  0  0  0  0  0  0  0
  -18.6874    0.9205  -14.9115 N   0  0  0  0  0  0  0  0  0  0  0  0
  -20.7712    2.9140  -16.1470 H   0  0  0  0  0  0  0  0  0  0  0  0
  -20.9534    1.2614  -15.6968 H   0  0  0  0  0  0  0  0  0  0  0  0
  -16.8955   -0.9628  -14.0684 H   0  0  0  0  0  0  0  0  0  0  0  0
  -16.4019    4.3343  -15.8940 N   0  0  0  0  0  0  0  0  0  0  0  0
  -16.3375    5.0280  -15.1575 H   0  0  0  0  0  0  0  0  0  0  0  0
  -15.3727    4.4605  -16.8453 C   0  0  0  0  0  0  0  0  0  0  0  0
  -15.5666    4.3121  -18.2205 C   0  0  0  0  0  0  0  0  0  0  0  0
  -14.4860    4.3627  -19.1086 C   0  0  0  0  0  0  0  0  0  0  0  0
  -13.1972    4.5776  -18.6237 C   0  0  0  0  0  0  0  0  0  0  0  0
  -11.8706    4.6076  -19.7134 Cl  0  0  0  0  0  0  0  0  0  0  0  0
  -12.9738    4.7625  -17.2778 C   0  0  0  0  0  0  0  0  0  0  0  0
  -14.0615    4.7119  -16.4012 C   0  0  0  0  0  0  0  0  0  0  0  0
  -13.8341    4.8768  -15.0883 F   0  0  0  0  0  0  0  0  0  0  0  0
  -14.1357   -0.4214  -13.7364 C   0  0  0  0  0  0  0  0  0  0  0  0
  -14.1710   -1.9188  -13.8558 C   0  0  0  0  0  0  0  0  0  0  0  0
  -13.4625   -2.4929  -14.9148 C   0  0  0  0  0  0  0  0  0  0  0  0
  -13.7058   -3.8075  -15.3153 C   0  0  0  0  0  0  0  0  0  0  0  0
  -14.7697   -4.4938  -14.7453 C   0  0  0  0  0  0  0  0  0  0  0  0
  -15.4194   -3.9766  -13.6227 C   0  0  0  0  0  0  0  0  0  0  0  0
  -16.4545   -4.6909  -13.0159 C   0  0  0  0  0  0  0  0  0  0  0  0
  -16.6263   -4.6148  -11.6491 C   0  0  0  0  0  0  0  0  0  0  0  0
  -16.1098   -3.5099  -10.9980 C   0  0  0  0  0  0  0  0  0  0  0  0
  -15.4472   -2.5092  -11.7321 C   0  0  0  0  0  0  0  0  0  0  0  0
  -15.0058   -2.7553  -13.0628 C   0  0  0  0  0  0  0  0  0  0  0  0
  1  2  1  0  0  0
  1 11  1  0  0  0
  1 12  1  0  0  0
  2  3  1  0  0  0
  2 10  2  0  0  0
  3  4  2  0  0  0
  4 14  1  0  0  0
  4  5  1  0  0  0
 14 16  1  0  0  0
 14 15  1  0  0  0
 16 17  1  0  0  0
 16 22  2  0  0  0
 17 18  2  0  0  0
 18 19  1  0  0  0
 19 20  1  0  0  0
 19 21  2  0  0  0
 21 22  1  0  0  0
 22 23  1  0  0  0
  5  6  1  0  0  0
  5  9  2  0  0  0
  6  7  2  0  0  0
  7 24  1  0  0  0
  7  8  1  0  0  0
 24 25  1  0  0  0
 25 26  1  0  0  0
 25 34  2  0  0  0
 26 27  2  0  0  0
 27 28  1  0  0  0
 28 29  2  0  0  0
 29 30  1  0  0  0
 29 34  1  0  0  0
 30 31  2  0  0  0
 31 32  1  0  0  0
 32 33  2  0  0  0
 33 34  1  0  0  0
  8  9  1  0  0  0
  8 13  1  0  0  0
  9 10  1  0  0  0
M  END
> <minimizedAffinity>
-8.57391

$$$$
