CHEMBL3644032


 31 33  0  0  0  0  0  0  0  0999 V2000
  -16.7007    1.3930  -15.0950 C   0  0  0  0  0  0  0  0  0  0  0  0
  -17.8818    1.6883  -14.4971 N   0  0  0  0  0  0  0  0  0  0  0  0
  -18.4576    2.8514  -14.8526 C   0  0  0  0  0  0  0  0  0  0  0  0
  -17.8562    3.7473  -15.6520 N   0  0  0  0  0  0  0  0  0  0  0  0
  -16.7132    3.3955  -16.2493 C   0  0  0  0  0  0  0  0  0  0  0  0
  -16.1098    2.1831  -16.0508 C   0  0  0  0  0  0  0  0  0  0  0  0
  -14.9454    1.8103  -16.8914 C   0  0  0  0  0  0  0  0  0  0  0  0
  -14.6432    2.6573  -17.9098 F   0  0  0  0  0  0  0  0  0  0  0  0
  -13.8070    1.7266  -16.1410 F   0  0  0  0  0  0  0  0  0  0  0  0
  -15.0878    0.5795  -17.4583 F   0  0  0  0  0  0  0  0  0  0  0  0
  -19.7635    3.1357  -14.4301 N   0  0  0  0  0  0  0  0  0  0  0  0
  -19.7634    3.8474  -13.7125 H   0  0  0  0  0  0  0  0  0  0  0  0
  -20.8276    2.2071  -14.3633 C   0  0  0  0  0  0  0  0  0  0  0  0
  -22.0781    2.5478  -13.8412 C   0  0  0  0  0  0  0  0  0  0  0  0
  -23.0873    1.5934  -13.6505 C   0  0  0  0  0  0  0  0  0  0  0  0
  -22.8533    0.2615  -14.0063 C   0  0  0  0  0  0  0  0  0  0  0  0
  -21.6262   -0.0904  -14.5808 C   0  0  0  0  0  0  0  0  0  0  0  0
  -20.6277    0.8776  -14.7786 C   0  0  0  0  0  0  0  0  0  0  0  0
  -23.9802   -0.9846  -13.4343 S   0  0  0  0  0  0  0  0  0  0  0  0
  -24.8866   -1.2622  -14.5301 O   0  0  0  0  0  0  0  0  0  0  0  0
  -23.1961   -2.0591  -12.8608 O   0  0  0  0  0  0  0  0  0  0  0  0
  -25.0189   -0.3902  -12.0886 C   0  0  0  0  0  0  0  0  0  0  0  0
  -25.3649   -1.4197  -11.0451 C   0  0  0  0  0  0  0  0  0  0  0  0
  -26.4284   -0.8872  -11.9770 C   0  0  0  0  0  0  0  0  0  0  0  0
  -16.0399    0.2248  -14.7756 O   0  0  0  0  0  0  0  0  0  0  0  0
  -15.6125    0.0336  -13.4170 C   0  0  0  0  0  0  0  0  0  0  0  0
  -14.2905    0.7636  -13.1496 C   0  0  0  0  0  0  0  0  0  0  0  0
  -15.6878   -1.9777  -11.8027 C   0  0  0  0  0  0  0  0  0  0  0  0
  -15.3860   -1.4928  -13.2150 C   0  0  0  0  0  0  0  0  0  0  0  0
  -16.2077   -2.2480  -14.1153 O   0  0  0  0  0  0  0  0  0  0  0  0
  -17.1323   -1.9969  -13.9335 H   0  0  0  0  0  0  0  0  0  0  0  0
 28 29  1  0  0  0
 29 30  1  0  0  0
 29 26  1  0  0  0
 30 31  1  0  0  0
 26 27  1  0  0  0
 26 25  1  0  0  0
 25  1  1  0  0  0
  1  2  1  0  0  0
  1  6  2  0  0  0
  2  3  2  0  0  0
  3 11  1  0  0  0
  3  4  1  0  0  0
 11 13  1  0  0  0
 11 12  1  0  0  0
 13 14  1  0  0  0
 13 18  2  0  0  0
 14 15  2  0  0  0
 15 16  1  0  0  0
 16 19  1  0  0  0
 16 17  2  0  0  0
 19 20  2  0  0  0
 19 21  2  0  0  0
 19 22  1  0  0  0
 22 23  1  0  0  0
 22 24  1  0  0  0
 23 24  1  0  0  0
 17 18  1  0  0  0
  4  5  2  0  0  0
  5  6  1  0  0  0
  6  7  1  0  0  0
  7  8  1  0  0  0
  7  9  1  0  0  0
  7 10  1  0  0  0
M  END
> <minimizedAffinity>
-8.41286

$$$$
