CHEMBL1242666


 27 30  0  0  0  0  0  0  0  0999 V2000
  -14.8772    3.0372  -16.4852 N   0  0  0  0  0  0  0  0  0  0  0  0
  -16.2198    2.9214  -16.5527 N   0  0  0  0  0  0  0  0  0  0  0  0
  -16.5459    2.1438  -15.4995 C   0  0  0  0  0  0  0  0  0  0  0  0
  -15.3735    1.7200  -14.7910 C   0  0  0  0  0  0  0  0  0  0  0  0
  -15.0257    0.9088  -13.6994 C   0  0  0  0  0  0  0  0  0  0  0  0
  -15.9082    0.1452  -12.9458 N   0  0  0  0  0  0  0  0  0  0  0  0
  -13.7280    0.8236  -13.3379 N   0  0  0  0  0  0  0  0  0  0  0  0
  -12.8132    1.5033  -14.0522 C   0  0  0  0  0  0  0  0  0  0  0  0
  -13.0176    2.2756  -15.1280 N   0  0  0  0  0  0  0  0  0  0  0  0
  -14.3230    2.3441  -15.4451 C   0  0  0  0  0  0  0  0  0  0  0  0
  -16.6779   -0.2469  -13.4742 H   0  0  0  0  0  0  0  0  0  0  0  0
  -15.3941   -0.5174  -12.3748 H   0  0  0  0  0  0  0  0  0  0  0  0
  -17.9577    1.8477  -15.2225 C   0  0  0  0  0  0  0  0  0  0  0  0
  -18.4518    0.5439  -15.3356 C   0  0  0  0  0  0  0  0  0  0  0  0
  -19.7983    0.2428  -15.0949 C   0  0  0  0  0  0  0  0  0  0  0  0
  -20.6631    1.2581  -14.6474 C   0  0  0  0  0  0  0  0  0  0  0  0
  -22.0343    1.2920  -14.2486 C   0  0  0  0  0  0  0  0  0  0  0  0
  -22.3063    2.5879  -13.8533 C   0  0  0  0  0  0  0  0  0  0  0  0
  -21.1733    3.3366  -14.0213 N   0  0  0  0  0  0  0  0  0  0  0  0
  -20.1520    2.5477  -14.5000 C   0  0  0  0  0  0  0  0  0  0  0  0
  -18.8195    2.8740  -14.7956 C   0  0  0  0  0  0  0  0  0  0  0  0
  -21.0845    4.3190  -13.7984 H   0  0  0  0  0  0  0  0  0  0  0  0
  -22.9762    0.1893  -14.2200 C   0  0  0  0  0  0  0  0  0  0  0  0
  -22.8080   -0.8407  -13.5756 O   0  0  0  0  0  0  0  0  0  0  0  0
  -13.8249    2.9720  -18.7166 C   0  0  0  0  0  0  0  0  0  0  0  0
  -14.1528    3.8160  -17.4847 C   0  0  0  0  0  0  0  0  0  0  0  0
  -14.9049    5.0891  -17.8722 C   0  0  0  0  0  0  0  0  0  0  0  0
 25 26  1  0  0  0
 26 27  1  0  0  0
 26  1  1  0  0  0
  1  2  1  0  0  0
  1 10  1  0  0  0
  2  3  2  0  0  0
  3 13  1  0  0  0
  3  4  1  0  0  0
 13 14  1  0  0  0
 13 21  2  0  0  0
 14 15  2  0  0  0
 15 16  1  0  0  0
 16 17  1  0  0  0
 16 20  2  0  0  0
 17 23  1  0  0  0
 17 18  2  0  0  0
 23 24  2  0  0  0
 18 19  1  0  0  0
 19 20  1  0  0  0
 19 22  1  0  0  0
 20 21  1  0  0  0
  4  5  1  0  0  0
  4 10  2  0  0  0
  5  6  1  0  0  0
  5  7  2  0  0  0
  6 11  1  0  0  0
  6 12  1  0  0  0
  7  8  1  0  0  0
  8  9  2  0  0  0
  9 10  1  0  0  0
M  END
> <minimizedAffinity>
-7.81458

$$$$
