CHEMBL1983348


 31 34  0  0  0  0  0  0  0  0999 V2000
  -29.2280   -5.9774   -5.1889 C   0  0  0  0  0  0  0  0  0  0  0  0
  -29.8061   -7.0733   -5.8491 C   0  0  0  0  0  0  0  0  0  0  0  0
  -29.2417   -8.3492   -5.7697 C   0  0  0  0  0  0  0  0  0  0  0  0
  -28.0027   -8.4898   -5.1439 C   0  0  0  0  0  0  0  0  0  0  0  0
  -27.2419   -9.6099   -4.9901 N   0  0  0  0  0  0  0  0  0  0  0  0
  -26.1398   -9.2082   -4.3919 C   0  0  0  0  0  0  0  0  0  0  0  0
  -26.1868   -7.8629   -4.1229 N   0  0  0  0  0  0  0  0  0  0  0  0
  -27.3775   -7.3725   -4.5957 C   0  0  0  0  0  0  0  0  0  0  0  0
  -27.9631   -6.1012   -4.5832 C   0  0  0  0  0  0  0  0  0  0  0  0
  -25.4374   -7.3480   -3.6791 H   0  0  0  0  0  0  0  0  0  0  0  0
  -24.9847  -10.0857   -4.0571 C   0  0  0  0  0  0  0  0  0  0  0  0
  -24.8993  -10.7287   -2.8823 N   0  0  0  0  0  0  0  0  0  0  0  0
  -23.7346  -11.4002   -2.9850 N   0  0  0  0  0  0  0  0  0  0  0  0
  -23.0704  -11.2106   -4.1672 C   0  0  0  0  0  0  0  0  0  0  0  0
  -21.8589  -11.7190   -4.6487 C   0  0  0  0  0  0  0  0  0  0  0  0
  -21.4558  -11.3090   -5.9281 C   0  0  0  0  0  0  0  0  0  0  0  0
  -22.2323  -10.4327   -6.6852 C   0  0  0  0  0  0  0  0  0  0  0  0
  -23.4424   -9.9396   -6.1837 C   0  0  0  0  0  0  0  0  0  0  0  0
  -23.8683  -10.3402   -4.8991 C   0  0  0  0  0  0  0  0  0  0  0  0
  -23.4394  -11.9737   -2.2042 H   0  0  0  0  0  0  0  0  0  0  0  0
  -29.5379   -3.5732   -5.9166 N   0  0  0  0  0  0  0  0  0  0  0  0
  -29.9203   -4.6534   -5.0871 C   0  0  0  0  0  0  0  0  0  0  0  0
  -30.8644   -4.5708   -4.3020 O   0  0  0  0  0  0  0  0  0  0  0  0
  -30.2767   -2.2968   -5.7382 C   0  0  0  0  0  0  0  0  0  0  0  0
  -29.5047   -1.3019   -4.8530 C   0  0  0  0  0  0  0  0  0  0  0  0
  -30.4007    0.9703   -5.6675 C   0  0  0  0  0  0  0  0  0  0  0  0
  -29.1943    0.0649   -5.4790 C   0  0  0  0  0  0  0  0  0  0  0  0
  -28.4288   -3.6521   -6.8936 C   0  0  0  0  0  0  0  0  0  0  0  0
  -28.7259   -3.1597   -8.2764 C   0  0  0  0  0  0  0  0  0  0  0  0
  -27.5900   -2.3902   -8.9306 C   0  0  0  0  0  0  0  0  0  0  0  0
  -26.6476   -1.7519   -9.4733 N   0  0  0  0  0  0  0  0  0  0  0  0
 26 27  1  0  0  0
 27 25  1  0  0  0
 25 24  1  0  0  0
 24 21  1  0  0  0
 21 28  1  0  0  0
 21 22  1  0  0  0
 28 29  1  0  0  0
 29 30  1  0  0  0
 30 31  3  0  0  0
 22 23  2  0  0  0
 22  1  1  0  0  0
  1  2  1  0  0  0
  1  9  2  0  0  0
  2  3  2  0  0  0
  3  4  1  0  0  0
  4  5  1  0  0  0
  4  8  2  0  0  0
  5  6  2  0  0  0
  6 11  1  0  0  0
  6  7  1  0  0  0
 11 12  2  0  0  0
 11 19  1  0  0  0
 12 13  1  0  0  0
 13 14  1  0  0  0
 13 20  1  0  0  0
 14 15  1  0  0  0
 14 19  2  0  0  0
 15 16  2  0  0  0
 16 17  1  0  0  0
 17 18  2  0  0  0
 18 19  1  0  0  0
  7  8  1  0  0  0
  7 10  1  0  0  0
  8  9  1  0  0  0
M  END
> <minimizedAffinity>
-8.18472

$$$$
