CHEMBL195847


 36 39  0  0  0  0  0  0  0  0999 V2000
  -29.7854   -7.9068   -6.2699 C   0  0  0  0  0  0  0  0  0  0  0  0
  -30.5458   -7.7172   -7.3136 N   0  0  0  0  0  0  0  0  0  0  0  0
  -30.2831   -8.3598   -8.4871 C   0  0  0  0  0  0  0  0  0  0  0  0
  -29.3065   -9.1744   -8.7117 N   0  0  0  0  0  0  0  0  0  0  0  0
  -28.5011   -9.3661   -7.6594 N   0  0  0  0  0  0  0  0  0  0  0  0
  -27.3944  -10.1584   -7.6904 C   0  0  0  0  0  0  0  0  0  0  0  0
  -26.8104  -10.1263   -6.4472 C   0  0  0  0  0  0  0  0  0  0  0  0
  -27.5855   -9.2312   -5.6141 C   0  0  0  0  0  0  0  0  0  0  0  0
  -28.6535   -8.8003   -6.4177 C   0  0  0  0  0  0  0  0  0  0  0  0
  -25.5767  -10.9143   -6.1211 C   0  0  0  0  0  0  0  0  0  0  0  0
  -25.5647  -12.0094   -5.3896 N   0  0  0  0  0  0  0  0  0  0  0  0
  -24.2670  -12.4575   -5.3485 N   0  0  0  0  0  0  0  0  0  0  0  0
  -23.5456  -11.6016   -6.0406 C   0  0  0  0  0  0  0  0  0  0  0  0
  -24.3117  -10.5932   -6.5616 O   0  0  0  0  0  0  0  0  0  0  0  0
  -22.2242  -11.6385   -6.3379 N   0  0  0  0  0  0  0  0  0  0  0  0
  -21.3570  -12.4090   -5.4599 C   0  0  0  0  0  0  0  0  0  0  0  0
  -21.6002  -10.5445   -7.0588 C   0  0  0  0  0  0  0  0  0  0  0  0
  -27.2028   -8.8553   -4.1934 C   0  0  0  0  0  0  0  0  0  0  0  0
  -27.9054   -9.7012   -3.1325 C   0  0  0  0  0  0  0  0  0  0  0  0
  -25.6983   -8.7159   -3.9671 C   0  0  0  0  0  0  0  0  0  0  0  0
  -30.1281   -7.2733   -5.0975 N   0  0  0  0  0  0  0  0  0  0  0  0
  -30.2414   -7.8284   -4.2657 H   0  0  0  0  0  0  0  0  0  0  0  0
  -29.1339   -3.6661   -5.2217 C   0  0  0  0  0  0  0  0  0  0  0  0
  -29.1712   -5.0406   -5.5024 C   0  0  0  0  0  0  0  0  0  0  0  0
  -30.0578   -5.8906   -4.8321 C   0  0  0  0  0  0  0  0  0  0  0  0
  -30.9314   -5.3161   -3.8945 C   0  0  0  0  0  0  0  0  0  0  0  0
  -31.8002   -6.1003   -3.2379 F   0  0  0  0  0  0  0  0  0  0  0  0
  -30.9249   -3.9512   -3.6205 C   0  0  0  0  0  0  0  0  0  0  0  0
  -30.0208   -3.1333   -4.2873 C   0  0  0  0  0  0  0  0  0  0  0  0
  -30.0117   -1.8226   -4.0021 F   0  0  0  0  0  0  0  0  0  0  0  0
  -28.2223   -2.7903   -7.2950 N   0  0  0  0  0  0  0  0  0  0  0  0
  -28.1209   -2.8431   -5.9228 C   0  0  0  0  0  0  0  0  0  0  0  0
  -27.2455   -2.2907   -5.2609 O   0  0  0  0  0  0  0  0  0  0  0  0
  -29.1094   -2.9635   -7.7580 H   0  0  0  0  0  0  0  0  0  0  0  0
  -27.5493   -1.9542   -9.3310 C   0  0  0  0  0  0  0  0  0  0  0  0
  -27.3985   -1.8233   -7.9190 O   0  0  0  0  0  0  0  0  0  0  0  0
 35 36  1  0  0  0
 36 31  1  0  0  0
 31 32  1  0  0  0
 31 34  1  0  0  0
 32 33  2  0  0  0
 32 23  1  0  0  0
 23 24  1  0  0  0
 23 29  2  0  0  0
 24 25  2  0  0  0
 25 21  1  0  0  0
 25 26  1  0  0  0
 21  1  1  0  0  0
 21 22  1  0  0  0
  1  2  2  0  0  0
  1  9  1  0  0  0
  2  3  1  0  0  0
  3  4  2  0  0  0
  4  5  1  0  0  0
  5  6  1  0  0  0
  5  9  1  0  0  0
  6  7  2  0  0  0
  7 10  1  0  0  0
  7  8  1  0  0  0
 10 11  2  0  0  0
 10 14  1  0  0  0
 11 12  1  0  0  0
 12 13  2  0  0  0
 13 15  1  0  0  0
 13 14  1  0  0  0
 15 16  1  0  0  0
 15 17  1  0  0  0
  8 18  1  0  0  0
  8  9  2  0  0  0
 18 19  1  0  0  0
 18 20  1  0  0  0
 26 27  1  0  0  0
 26 28  2  0  0  0
 28 29  1  0  0  0
 29 30  1  0  0  0
M  END
> <minimizedAffinity>
-8.53204

$$$$
