CHEMBL3899721


 37 41  0  0  0  0  0  0  0  0999 V2000
  -28.2058   -2.8846   -8.3276 N   0  0  0  0  0  0  0  0  0  0  0  0
  -27.5793   -2.0856   -9.3773 C   0  0  0  0  0  0  0  0  0  0  0  0
  -28.4033   -1.8373  -10.4509 C   0  0  0  0  0  0  0  0  0  0  0  0
  -27.8105   -1.6664  -11.6909 C   0  0  0  0  0  0  0  0  0  0  0  0
  -26.4918   -1.5822  -11.8968 C   0  0  0  0  0  0  0  0  0  0  0  0
  -26.2186   -1.7498  -13.1853 N   0  0  0  0  0  0  0  0  0  0  0  0
  -25.0703   -1.2398  -13.6268 C   0  0  0  0  0  0  0  0  0  0  0  0
  -24.2415   -0.5425  -12.8022 C   0  0  0  0  0  0  0  0  0  0  0  0
  -24.4324   -0.5928  -11.3947 N   0  0  0  0  0  0  0  0  0  0  0  0
  -25.6294   -1.2231  -10.8737 C   0  0  0  0  0  0  0  0  0  0  0  0
  -26.2201   -1.6292   -9.5266 C   0  0  0  0  0  0  0  0  0  0  0  0
  -23.2148    0.2824  -13.4507 C   0  0  0  0  0  0  0  0  0  0  0  0
  -23.0747    1.6884  -13.6097 C   0  0  0  0  0  0  0  0  0  0  0  0
  -21.9849    2.0252  -14.3142 N   0  0  0  0  0  0  0  0  0  0  0  0
  -21.4426    0.8370  -14.6294 N   0  0  0  0  0  0  0  0  0  0  0  0
  -20.0400    0.7241  -14.9633 C   0  0  0  0  0  0  0  0  0  0  0  0
  -22.2784   -0.2117  -14.3507 C   0  0  0  0  0  0  0  0  0  0  0  0
  -29.7852   -2.8649   -4.8862 C   0  0  0  0  0  0  0  0  0  0  0  0
  -29.4907   -1.5737   -4.4640 C   0  0  0  0  0  0  0  0  0  0  0  0
  -28.9149   -0.6742   -5.3661 C   0  0  0  0  0  0  0  0  0  0  0  0
  -28.5119   -1.1074   -6.6380 C   0  0  0  0  0  0  0  0  0  0  0  0
  -28.7559   -2.4050   -7.1018 C   0  0  0  0  0  0  0  0  0  0  0  0
  -29.5142   -3.2378   -6.2264 C   0  0  0  0  0  0  0  0  0  0  0  0
  -30.4916   -5.1513   -4.5713 C   0  0  0  0  0  0  0  0  0  0  0  0
  -30.3158   -3.8255   -4.0474 O   0  0  0  0  0  0  0  0  0  0  0  0
  -28.7015    0.6527   -5.0964 O   0  0  0  0  0  0  0  0  0  0  0  0
  -28.7888    1.5482   -6.2031 C   0  0  0  0  0  0  0  0  0  0  0  0
  -27.5576   -4.3701   -8.3514 C   0  0  0  0  0  0  0  0  0  0  0  0
  -28.4600   -5.5718   -8.1231 C   0  0  0  0  0  0  0  0  0  0  0  0
  -29.2340   -6.6025   -7.9271 C   0  0  0  0  0  0  0  0  0  0  0  0
  -30.1222   -7.7195   -7.7911 C   0  0  0  0  0  0  0  0  0  0  0  0
  -31.3842   -7.5163   -7.2277 C   0  0  0  0  0  0  0  0  0  0  0  0
  -32.2763   -8.5815   -7.1235 C   0  0  0  0  0  0  0  0  0  0  0  0
  -31.8716   -9.8229   -7.5797 C   0  0  0  0  0  0  0  0  0  0  0  0
  -30.6621  -10.0600   -8.1296 N   0  0  0  0  0  0  0  0  0  0  0  0
  -29.8091   -9.0074   -8.2323 C   0  0  0  0  0  0  0  0  0  0  0  0
  -28.1322   -9.3828   -9.0594 Br  0  0  0  0  0  0  0  0  0  0  0  0
 24 25  1  0  0  0
 25 18  1  0  0  0
 18 19  1  0  0  0
 18 23  2  0  0  0
 19 20  2  0  0  0
 20 26  1  0  0  0
 20 21  1  0  0  0
 26 27  1  0  0  0
 21 22  2  0  0  0
 22  1  1  0  0  0
 22 23  1  0  0  0
  1 28  1  0  0  0
  1  2  1  0  0  0
 28 29  1  0  0  0
 29 30  3  0  0  0
 30 31  1  0  0  0
 31 32  1  0  0  0
 31 36  2  0  0  0
 32 33  2  0  0  0
 33 34  1  0  0  0
 34 35  2  0  0  0
 35 36  1  0  0  0
 36 37  1  0  0  0
  2  3  1  0  0  0
  2 11  2  0  0  0
  3  4  2  0  0  0
  4  5  1  0  0  0
  5  6  1  0  0  0
  5 10  2  0  0  0
  6  7  2  0  0  0
  7  8  1  0  0  0
  8 12  1  0  0  0
  8  9  2  0  0  0
 12 13  1  0  0  0
 12 17  2  0  0  0
 13 14  2  0  0  0
 14 15  1  0  0  0
 15 16  1  0  0  0
 15 17  1  0  0  0
  9 10  1  0  0  0
 10 11  1  0  0  0
M  END
> <minimizedAffinity>
-9.00329

$$$$
