CHEMBL1683650


 25 27  0  0  0  0  0  0  0  0999 V2000
  -25.6721  -10.0083   -3.5673 C   0  0  0  0  0  0  0  0  0  0  0  0
  -26.7238  -10.9108   -3.3769 C   0  0  0  0  0  0  0  0  0  0  0  0
  -27.9856  -10.6025   -3.8512 C   0  0  0  0  0  0  0  0  0  0  0  0
  -29.0325  -11.4346   -3.5703 O   0  0  0  0  0  0  0  0  0  0  0  0
  -28.2164   -9.4203   -4.5445 C   0  0  0  0  0  0  0  0  0  0  0  0
  -27.2429   -8.4213   -4.4655 C   0  0  0  0  0  0  0  0  0  0  0  0
  -25.9469   -8.7343   -4.0798 C   0  0  0  0  0  0  0  0  0  0  0  0
  -27.5236   -7.0898   -4.7131 O   0  0  0  0  0  0  0  0  0  0  0  0
  -28.9467   -6.8094   -4.8951 C   0  0  0  0  0  0  0  0  0  0  0  0
  -29.6933   -6.9226   -3.5429 C   0  0  0  0  0  0  0  0  0  0  0  0
  -29.0484   -5.3494   -5.3449 C   0  0  0  0  0  0  0  0  0  0  0  0
  -29.3927   -7.7896   -5.9993 C   0  0  0  0  0  0  0  0  0  0  0  0
  -30.6793   -7.5428   -6.7890 C   0  0  0  0  0  0  0  0  0  0  0  0
  -30.8021   -8.5983   -7.8680 C   0  0  0  0  0  0  0  0  0  0  0  0
  -30.1837   -9.7959   -7.8055 C   0  0  0  0  0  0  0  0  0  0  0  0
  -29.3869  -10.2222   -6.5926 C   0  0  0  0  0  0  0  0  0  0  0  0
  -29.4207   -9.2143   -5.4232 C   0  0  0  0  0  0  0  0  0  0  0  0
  -29.1758  -11.3406   -2.6120 H   0  0  0  0  0  0  0  0  0  0  0  0
  -30.1592  -10.7909   -8.9355 C   0  0  0  0  0  0  0  0  0  0  0  0
  -29.7453  -10.2255  -10.1025 F   0  0  0  0  0  0  0  0  0  0  0  0
  -24.2762  -10.3689   -3.1468 C   0  0  0  0  0  0  0  0  0  0  0  0
  -23.5970  -11.3802   -4.0737 C   0  0  0  0  0  0  0  0  0  0  0  0
  -23.0132  -10.6345   -5.2741 C   0  0  0  0  0  0  0  0  0  0  0  0
  -21.2549  -10.5591   -7.0548 C   0  0  0  0  0  0  0  0  0  0  0  0
  -21.7666  -11.3088   -5.8339 C   0  0  0  0  0  0  0  0  0  0  0  0
 24 25  1  0  0  0
 25 23  1  0  0  0
 23 22  1  0  0  0
 22 21  1  0  0  0
 21  1  1  0  0  0
  1  2  1  0  0  0
  1  7  2  0  0  0
  2  3  2  0  0  0
  3  4  1  0  0  0
  3  5  1  0  0  0
  4 18  1  0  0  0
  5  6  2  0  0  0
  5 17  1  0  0  0
  6  7  1  0  0  0
  6  8  1  0  0  0
  8  9  1  0  0  0
  9 10  1  0  0  0
  9 11  1  0  0  0
  9 12  1  0  0  0
 12 13  1  0  0  0
 12 17  1  0  0  0
 13 14  1  0  0  0
 14 15  2  0  0  0
 15 19  1  0  0  0
 15 16  1  0  0  0
 19 20  1  0  0  0
 16 17  1  0  0  0
M  END
> <minimizedAffinity>
-6.61071

$$$$
