CHEMBL510814


 40 45  0  0  0  0  0  0  0  0999 V2000
  -27.4687   -2.7764   -9.1142 C   0  0  0  0  0  0  0  0  0  0  0  0
  -27.4979   -4.2737   -9.1107 C   0  0  0  0  0  0  0  0  0  0  0  0
  -28.0502   -5.0500   -8.2277 N   0  0  0  0  0  0  0  0  0  0  0  0
  -28.6773   -4.4213   -7.1800 C   0  0  0  0  0  0  0  0  0  0  0  0
  -29.3642   -4.8957   -6.0759 C   0  0  0  0  0  0  0  0  0  0  0  0
  -29.7861   -3.7252   -5.4025 C   0  0  0  0  0  0  0  0  0  0  0  0
  -29.4133   -2.6023   -6.0015 N   0  0  0  0  0  0  0  0  0  0  0  0
  -28.6968   -3.0249   -7.0873 N   0  0  0  0  0  0  0  0  0  0  0  0
  -28.0734   -2.1907   -8.0540 C   0  0  0  0  0  0  0  0  0  0  0  0
  -28.1498   -0.8140   -7.8378 N   0  0  0  0  0  0  0  0  0  0  0  0
  -28.9119   -0.5854   -7.1922 H   0  0  0  0  0  0  0  0  0  0  0  0
  -28.1431   -0.2571   -8.6865 H   0  0  0  0  0  0  0  0  0  0  0  0
  -29.5749   -6.2867   -5.6844 C   0  0  0  0  0  0  0  0  0  0  0  0
  -30.3361   -7.1736   -6.4793 C   0  0  0  0  0  0  0  0  0  0  0  0
  -30.4238   -8.5375   -6.1666 C   0  0  0  0  0  0  0  0  0  0  0  0
  -29.7354   -8.9889   -5.0635 C   0  0  0  0  0  0  0  0  0  0  0  0
  -29.0142   -8.1338   -4.2679 C   0  0  0  0  0  0  0  0  0  0  0  0
  -28.9274   -6.7840   -4.5395 C   0  0  0  0  0  0  0  0  0  0  0  0
  -28.3937   -8.7754   -3.2411 O   0  0  0  0  0  0  0  0  0  0  0  0
  -28.7357  -10.1450   -3.5384 C   0  0  0  0  0  0  0  0  0  0  0  0
  -29.6567  -10.2786   -4.6408 O   0  0  0  0  0  0  0  0  0  0  0  0
  -25.5058   -0.7683  -12.3663 C   0  0  0  0  0  0  0  0  0  0  0  0
  -24.8508   -0.9578  -11.1427 C   0  0  0  0  0  0  0  0  0  0  0  0
  -25.5001   -1.5821  -10.0685 C   0  0  0  0  0  0  0  0  0  0  0  0
  -26.8126   -2.0447  -10.2087 C   0  0  0  0  0  0  0  0  0  0  0  0
  -27.4790   -1.8218  -11.4224 C   0  0  0  0  0  0  0  0  0  0  0  0
  -26.8368   -1.1705  -12.4906 C   0  0  0  0  0  0  0  0  0  0  0  0
  -22.9585    0.8251  -14.4309 N   0  0  0  0  0  0  0  0  0  0  0  0
  -23.5727    0.3697  -13.2716 C   0  0  0  0  0  0  0  0  0  0  0  0
  -23.0895    0.4448  -12.1417 O   0  0  0  0  0  0  0  0  0  0  0  0
  -24.8095   -0.2325  -13.4920 N   0  0  0  0  0  0  0  0  0  0  0  0
  -23.4922    0.7918  -15.2884 H   0  0  0  0  0  0  0  0  0  0  0  0
  -24.8568   -0.7738  -14.3424 H   0  0  0  0  0  0  0  0  0  0  0  0
  -18.0201    0.4547  -15.1695 C   0  0  0  0  0  0  0  0  0  0  0  0
  -19.2488    1.2620  -14.8603 C   0  0  0  0  0  0  0  0  0  0  0  0
  -19.1140    2.6402  -14.6608 C   0  0  0  0  0  0  0  0  0  0  0  0
  -20.2299    3.4118  -14.3826 C   0  0  0  0  0  0  0  0  0  0  0  0
  -21.4885    2.8188  -14.3026 C   0  0  0  0  0  0  0  0  0  0  0  0
  -21.6708    1.4436  -14.5006 C   0  0  0  0  0  0  0  0  0  0  0  0
  -20.5305    0.6681  -14.7785 C   0  0  0  0  0  0  0  0  0  0  0  0
 34 35  1  0  0  0
 35 36  1  0  0  0
 35 40  2  0  0  0
 36 37  2  0  0  0
 37 38  1  0  0  0
 38 39  2  0  0  0
 39 28  1  0  0  0
 39 40  1  0  0  0
 28 29  1  0  0  0
 28 32  1  0  0  0
 29 30  2  0  0  0
 29 31  1  0  0  0
 31 22  1  0  0  0
 31 33  1  0  0  0
 22 23  1  0  0  0
 22 27  2  0  0  0
 23 24  2  0  0  0
 24 25  1  0  0  0
 25  1  1  0  0  0
 25 26  2  0  0  0
  1  2  1  0  0  0
  1  9  2  0  0  0
  2  3  2  0  0  0
  3  4  1  0  0  0
  4  5  2  0  0  0
  4  8  1  0  0  0
  5 13  1  0  0  0
  5  6  1  0  0  0
 13 14  1  0  0  0
 13 18  2  0  0  0
 14 15  2  0  0  0
 15 16  1  0  0  0
 16 17  2  0  0  0
 16 21  1  0  0  0
 17 18  1  0  0  0
 17 19  1  0  0  0
 19 20  1  0  0  0
 20 21  1  0  0  0
  6  7  2  0  0  0
  7  8  1  0  0  0
  8  9  1  0  0  0
  9 10  1  0  0  0
 10 11  1  0  0  0
 10 12  1  0  0  0
 26 27  1  0  0  0
M  END
> <minimizedAffinity>
-8.86308

$$$$
