CHEMBL572881


 31 34  0  0  0  0  0  0  0  0999 V2000
  -15.3080   -0.9325  -14.2136 N   0  0  0  0  0  0  0  0  0  0  0  0
  -15.3422    0.3703  -13.7361 C   0  0  0  0  0  0  0  0  0  0  0  0
  -15.1302    0.7095  -12.5729 O   0  0  0  0  0  0  0  0  0  0  0  0
  -15.7738   -1.1041  -15.0953 H   0  0  0  0  0  0  0  0  0  0  0  0
  -14.0394   -4.9194   -9.4359 C   0  0  0  0  0  0  0  0  0  0  0  0
  -13.7008   -5.2576  -10.8930 C   0  0  0  0  0  0  0  0  0  0  0  0
  -14.1324   -6.6892  -11.2201 C   0  0  0  0  0  0  0  0  0  0  0  0
  -12.1804   -5.0584  -11.1803 C   0  0  0  0  0  0  0  0  0  0  0  0
  -12.0011   -3.7991  -11.9151 N   0  0  0  0  0  0  0  0  0  0  0  0
  -13.2889   -3.4750  -12.3889 C   0  0  0  0  0  0  0  0  0  0  0  0
  -13.5807   -2.4032  -13.2162 C   0  0  0  0  0  0  0  0  0  0  0  0
  -14.9169   -2.0749  -13.4719 C   0  0  0  0  0  0  0  0  0  0  0  0
  -15.9356   -2.8907  -12.9446 C   0  0  0  0  0  0  0  0  0  0  0  0
  -15.6325   -3.9788  -12.1152 C   0  0  0  0  0  0  0  0  0  0  0  0
  -14.3020   -4.2418  -11.8256 C   0  0  0  0  0  0  0  0  0  0  0  0
  -11.3161   -3.8108  -12.6671 H   0  0  0  0  0  0  0  0  0  0  0  0
  -15.7474    1.4367  -14.6940 C   0  0  0  0  0  0  0  0  0  0  0  0
  -14.6814    2.0689  -15.3741 C   0  0  0  0  0  0  0  0  0  0  0  0
  -14.9434    3.0136  -16.3322 C   0  0  0  0  0  0  0  0  0  0  0  0
  -16.2754    3.3076  -16.5977 C   0  0  0  0  0  0  0  0  0  0  0  0
  -17.3150    2.7171  -15.9751 N   0  0  0  0  0  0  0  0  0  0  0  0
  -17.0666    1.7663  -15.0291 C   0  0  0  0  0  0  0  0  0  0  0  0
  -18.1801    1.2552  -14.3770 N   0  0  0  0  0  0  0  0  0  0  0  0
  -18.0789    0.8821  -13.4458 H   0  0  0  0  0  0  0  0  0  0  0  0
  -19.2671    0.6757  -15.1541 C   0  0  0  0  0  0  0  0  0  0  0  0
  -20.5990    1.2394  -14.7177 C   0  0  0  0  0  0  0  0  0  0  0  0
  -20.8091    2.6204  -14.6410 C   0  0  0  0  0  0  0  0  0  0  0  0
  -22.0212    3.0844  -14.1509 C   0  0  0  0  0  0  0  0  0  0  0  0
  -23.0266    2.2803  -13.7471 N   0  0  0  0  0  0  0  0  0  0  0  0
  -22.8107    0.9506  -13.8391 C   0  0  0  0  0  0  0  0  0  0  0  0
  -21.6361    0.3905  -14.3180 C   0  0  0  0  0  0  0  0  0  0  0  0
  5  6  1  0  0  0
  6  7  1  0  0  0
  6  8  1  0  0  0
  6 15  1  0  0  0
  8  9  1  0  0  0
  9 10  1  0  0  0
  9 16  1  0  0  0
 10 11  1  0  0  0
 10 15  2  0  0  0
 11 12  2  0  0  0
 12  1  1  0  0  0
 12 13  1  0  0  0
  1  2  1  0  0  0
  1  4  1  0  0  0
  2  3  2  0  0  0
  2 17  1  0  0  0
 17 18  1  0  0  0
 17 22  2  0  0  0
 18 19  2  0  0  0
 19 20  1  0  0  0
 20 21  2  0  0  0
 21 22  1  0  0  0
 22 23  1  0  0  0
 23 25  1  0  0  0
 23 24  1  0  0  0
 25 26  1  0  0  0
 26 27  1  0  0  0
 26 31  2  0  0  0
 27 28  2  0  0  0
 28 29  1  0  0  0
 29 30  2  0  0  0
 30 31  1  0  0  0
 13 14  2  0  0  0
 14 15  1  0  0  0
M  END
> <minimizedAffinity>
-8.56276

$$$$
