CHEMBL3916567


 36 39  0  0  0  0  0  0  0  0999 V2000
  -28.9836   -7.0971   -5.6775 C   0  0  0  0  0  0  0  0  0  0  0  0
  -28.4584   -8.3861   -5.5421 C   0  0  0  0  0  0  0  0  0  0  0  0
  -28.0662   -9.1326   -6.6807 C   0  0  0  0  0  0  0  0  0  0  0  0
  -27.4884  -10.4067   -6.6637 C   0  0  0  0  0  0  0  0  0  0  0  0
  -27.0770  -11.0253   -7.7893 N   0  0  0  0  0  0  0  0  0  0  0  0
  -27.2542  -10.3787   -8.9408 C   0  0  0  0  0  0  0  0  0  0  0  0
  -27.8111   -9.1773   -9.0750 N   0  0  0  0  0  0  0  0  0  0  0  0
  -28.2053   -8.5775   -7.9520 C   0  0  0  0  0  0  0  0  0  0  0  0
  -28.7856   -7.3358   -8.0708 C   0  0  0  0  0  0  0  0  0  0  0  0
  -29.2437   -6.6052   -6.9641 C   0  0  0  0  0  0  0  0  0  0  0  0
  -30.5558   -6.5299   -3.9974 C   0  0  0  0  0  0  0  0  0  0  0  0
  -29.2699   -6.3079   -4.5937 O   0  0  0  0  0  0  0  0  0  0  0  0
  -27.3101  -11.0803   -5.4262 N   0  0  0  0  0  0  0  0  0  0  0  0
  -27.8139  -11.9615   -5.4517 H   0  0  0  0  0  0  0  0  0  0  0  0
  -26.0589  -11.1672   -4.7815 C   0  0  0  0  0  0  0  0  0  0  0  0
  -25.9961  -11.2648   -3.3822 C   0  0  0  0  0  0  0  0  0  0  0  0
  -24.7726  -11.2564   -2.7179 C   0  0  0  0  0  0  0  0  0  0  0  0
  -23.5894  -11.1577   -3.4488 C   0  0  0  0  0  0  0  0  0  0  0  0
  -22.1088  -11.0886   -2.5657 Cl  0  0  0  0  0  0  0  0  0  0  0  0
  -23.6373  -11.1044   -4.8468 C   0  0  0  0  0  0  0  0  0  0  0  0
  -22.2109  -10.9921   -5.8165 Cl  0  0  0  0  0  0  0  0  0  0  0  0
  -24.8707  -11.1179   -5.5085 C   0  0  0  0  0  0  0  0  0  0  0  0
  -29.9371   -5.4239   -7.1194 O   0  0  0  0  0  0  0  0  0  0  0  0
  -29.1917   -4.4194   -7.8290 C   0  0  0  0  0  0  0  0  0  0  0  0
  -28.6848   -3.3015   -6.9239 C   0  0  0  0  0  0  0  0  0  0  0  0
  -29.8304   -2.7726   -6.0472 C   0  0  0  0  0  0  0  0  0  0  0  0
  -29.4498   -1.6181   -5.1950 N   0  0  0  0  0  0  0  0  0  0  0  0
  -28.8633   -0.5875   -6.0945 C   0  0  0  0  0  0  0  0  0  0  0  0
  -27.7563   -1.1133   -7.0317 C   0  0  0  0  0  0  0  0  0  0  0  0
  -28.1870   -2.2535   -7.7816 O   0  0  0  0  0  0  0  0  0  0  0  0
  -28.4563   -1.9845   -4.1431 C   0  0  0  0  0  0  0  0  0  0  0  0
  -29.0143   -2.9672   -3.1111 C   0  0  0  0  0  0  0  0  0  0  0  0
  -28.3458   -4.1510   -2.9897 N   0  0  0  0  0  0  0  0  0  0  0  0
  -30.0288   -2.7429   -2.4580 O   0  0  0  0  0  0  0  0  0  0  0  0
  -27.3985   -4.2021   -3.3471 H   0  0  0  0  0  0  0  0  0  0  0  0
  -28.6098   -4.7469   -2.2172 H   0  0  0  0  0  0  0  0  0  0  0  0
 11 12  1  0  0  0
 12  1  1  0  0  0
  1  2  1  0  0  0
  1 10  2  0  0  0
  2  3  2  0  0  0
  3  4  1  0  0  0
  3  8  1  0  0  0
  4 13  1  0  0  0
  4  5  2  0  0  0
 13 15  1  0  0  0
 13 14  1  0  0  0
 15 16  1  0  0  0
 15 22  2  0  0  0
 16 17  2  0  0  0
 17 18  1  0  0  0
 18 19  1  0  0  0
 18 20  2  0  0  0
 20 21  1  0  0  0
 20 22  1  0  0  0
  5  6  1  0  0  0
  6  7  2  0  0  0
  7  8  1  0  0  0
  8  9  2  0  0  0
  9 10  1  0  0  0
 10 23  1  0  0  0
 23 24  1  0  0  0
 24 25  1  0  0  0
 25 26  1  0  0  0
 25 30  1  0  0  0
 26 27  1  0  0  0
 27 31  1  0  0  0
 27 28  1  0  0  0
 31 32  1  0  0  0
 32 33  1  0  0  0
 32 34  2  0  0  0
 33 35  1  0  0  0
 33 36  1  0  0  0
 28 29  1  0  0  0
 29 30  1  0  0  0
M  END
> <minimizedAffinity>
-7.67814

$$$$
