CHEMBL3909318


 38 42  0  0  0  0  0  0  0  0999 V2000
  -17.1480    2.1787  -15.5170 N   0  0  0  0  0  0  0  0  0  0  0  0
  -18.5962    1.9992  -15.5156 C   0  0  0  0  0  0  0  0  0  0  0  0
  -19.3357    3.1749  -15.6409 C   0  0  0  0  0  0  0  0  0  0  0  0
  -20.5996    3.2776  -15.0878 C   0  0  0  0  0  0  0  0  0  0  0  0
  -21.2309    2.1781  -14.5537 C   0  0  0  0  0  0  0  0  0  0  0  0
  -22.3511    2.4833  -13.8965 N   0  0  0  0  0  0  0  0  0  0  0  0
  -23.1181    1.4556  -13.5209 C   0  0  0  0  0  0  0  0  0  0  0  0
  -22.8322    0.1494  -13.8662 C   0  0  0  0  0  0  0  0  0  0  0  0
  -21.6100   -0.1741  -14.4295 N   0  0  0  0  0  0  0  0  0  0  0  0
  -20.7229    0.8729  -14.7292 C   0  0  0  0  0  0  0  0  0  0  0  0
  -19.3298    0.8251  -15.1641 C   0  0  0  0  0  0  0  0  0  0  0  0
  -23.9830   -0.7644  -13.7992 C   0  0  0  0  0  0  0  0  0  0  0  0
  -24.8944   -1.1165  -14.8266 C   0  0  0  0  0  0  0  0  0  0  0  0
  -26.0304   -1.6493  -14.3618 N   0  0  0  0  0  0  0  0  0  0  0  0
  -25.8852   -1.6001  -13.0293 N   0  0  0  0  0  0  0  0  0  0  0  0
  -24.7058   -1.0247  -12.6420 C   0  0  0  0  0  0  0  0  0  0  0  0
  -26.6581   -1.9165  -12.4485 H   0  0  0  0  0  0  0  0  0  0  0  0
  -14.1341   -0.0228  -15.3124 C   0  0  0  0  0  0  0  0  0  0  0  0
  -14.3292   -0.6437  -14.0826 C   0  0  0  0  0  0  0  0  0  0  0  0
  -15.4206   -0.2919  -13.2890 C   0  0  0  0  0  0  0  0  0  0  0  0
  -16.3295    0.6755  -13.7679 C   0  0  0  0  0  0  0  0  0  0  0  0
  -16.1652    1.3023  -15.0259 C   0  0  0  0  0  0  0  0  0  0  0  0
  -15.0415    0.9345  -15.7718 C   0  0  0  0  0  0  0  0  0  0  0  0
  -11.8204    0.0327  -15.6786 C   0  0  0  0  0  0  0  0  0  0  0  0
  -13.1079   -0.3358  -16.1648 O   0  0  0  0  0  0  0  0  0  0  0  0
  -15.6886   -0.8480  -12.0550 O   0  0  0  0  0  0  0  0  0  0  0  0
  -15.6182   -2.2866  -11.9896 C   0  0  0  0  0  0  0  0  0  0  0  0
  -15.7828   -2.7658  -10.5485 C   0  0  0  0  0  0  0  0  0  0  0  0
  -16.2372   -4.1176  -10.5148 O   0  0  0  0  0  0  0  0  0  0  0  0
  -17.0322   -4.1468  -11.0767 H   0  0  0  0  0  0  0  0  0  0  0  0
  -16.8951    3.6699  -15.5765 C   0  0  0  0  0  0  0  0  0  0  0  0
  -15.9392    4.3617  -16.5556 C   0  0  0  0  0  0  0  0  0  0  0  0
  -14.4369    4.4662  -16.2357 C   0  0  0  0  0  0  0  0  0  0  0  0
  -13.6542    4.3791  -17.4916 N   0  0  0  0  0  0  0  0  0  0  0  0
  -14.3791    3.8640  -18.6615 C   0  0  0  0  0  0  0  0  0  0  0  0
  -13.9142    2.4353  -18.8389 C   0  0  0  0  0  0  0  0  0  0  0  0
  -12.4528    2.5263  -18.4684 C   0  0  0  0  0  0  0  0  0  0  0  0
  -12.4145    3.5920  -17.3744 C   0  0  0  0  0  0  0  0  0  0  0  0
 24 25  1  0  0  0
 25 18  1  0  0  0
 18 19  1  0  0  0
 18 23  2  0  0  0
 19 20  2  0  0  0
 20 26  1  0  0  0
 20 21  1  0  0  0
 26 27  1  0  0  0
 27 28  1  0  0  0
 28 29  1  0  0  0
 29 30  1  0  0  0
 21 22  2  0  0  0
 22  1  1  0  0  0
 22 23  1  0  0  0
  1 31  1  0  0  0
  1  2  1  0  0  0
 31 32  1  0  0  0
 32 33  1  0  0  0
 33 34  1  0  0  0
 34 35  1  0  0  0
 34 38  1  0  0  0
 35 36  1  0  0  0
 36 37  1  0  0  0
 37 38  1  0  0  0
  2  3  1  0  0  0
  2 11  2  0  0  0
  3  4  2  0  0  0
  4  5  1  0  0  0
  5  6  1  0  0  0
  5 10  2  0  0  0
  6  7  2  0  0  0
  7  8  1  0  0  0
  8 12  1  0  0  0
  8  9  2  0  0  0
 12 13  1  0  0  0
 12 16  2  0  0  0
 13 14  2  0  0  0
 14 15  1  0  0  0
 15 16  1  0  0  0
 15 17  1  0  0  0
  9 10  1  0  0  0
 10 11  1  0  0  0
M  END
> <minimizedAffinity>
-8.47424

$$$$
