CHEMBL1929556


 34 37  0  0  0  0  0  0  0  0999 V2000
  -15.5389   -2.1023  -12.8439 C   0  0  0  0  0  0  0  0  0  0  0  0
  -16.1162   -1.4596  -13.9271 C   0  0  0  0  0  0  0  0  0  0  0  0
  -15.3498   -0.2810  -14.1895 C   0  0  0  0  0  0  0  0  0  0  0  0
  -15.4893    0.8702  -14.9827 C   0  0  0  0  0  0  0  0  0  0  0  0
  -14.5283    1.8253  -14.8682 N   0  0  0  0  0  0  0  0  0  0  0  0
  -13.5046    1.6563  -14.0237 C   0  0  0  0  0  0  0  0  0  0  0  0
  -12.6327    2.7279  -13.9140 N   0  0  0  0  0  0  0  0  0  0  0  0
  -13.3042    0.6130  -13.2144 N   0  0  0  0  0  0  0  0  0  0  0  0
  -14.2586   -0.3233  -13.3433 C   0  0  0  0  0  0  0  0  0  0  0  0
  -14.3421   -1.4653  -12.5939 N   0  0  0  0  0  0  0  0  0  0  0  0
  -13.1055    3.5577  -14.2318 H   0  0  0  0  0  0  0  0  0  0  0  0
  -12.2435    2.7472  -12.9845 H   0  0  0  0  0  0  0  0  0  0  0  0
  -13.6725   -1.7245  -11.8837 H   0  0  0  0  0  0  0  0  0  0  0  0
  -16.6088    1.0701  -15.7991 N   0  0  0  0  0  0  0  0  0  0  0  0
  -16.5883    0.5371  -16.6632 H   0  0  0  0  0  0  0  0  0  0  0  0
  -17.8987    1.5340  -15.4692 C   0  0  0  0  0  0  0  0  0  0  0  0
  -18.9452    0.6968  -15.0647 C   0  0  0  0  0  0  0  0  0  0  0  0
  -20.2042    1.2144  -14.7422 C   0  0  0  0  0  0  0  0  0  0  0  0
  -20.4285    2.5863  -14.8071 C   0  0  0  0  0  0  0  0  0  0  0  0
  -21.9799    3.2149  -14.4141 Cl  0  0  0  0  0  0  0  0  0  0  0  0
  -19.4067    3.4460  -15.1897 C   0  0  0  0  0  0  0  0  0  0  0  0
  -18.1591    2.9143  -15.5083 C   0  0  0  0  0  0  0  0  0  0  0  0
  -17.1827    3.7534  -15.8918 F   0  0  0  0  0  0  0  0  0  0  0  0
  -16.0538   -3.1902  -11.9480 C   0  0  0  0  0  0  0  0  0  0  0  0
  -15.0568   -6.3926  -13.7692 C   0  0  0  0  0  0  0  0  0  0  0  0
  -14.4629   -7.1242  -12.7462 C   0  0  0  0  0  0  0  0  0  0  0  0
  -14.4054   -6.6024  -11.4471 C   0  0  0  0  0  0  0  0  0  0  0  0
  -14.9310   -5.3385  -11.1570 C   0  0  0  0  0  0  0  0  0  0  0  0
  -15.4825   -4.5673  -12.1932 C   0  0  0  0  0  0  0  0  0  0  0  0
  -15.5536   -5.1176  -13.4884 C   0  0  0  0  0  0  0  0  0  0  0  0
  -14.0476   -6.8725  -15.8689 C   0  0  0  0  0  0  0  0  0  0  0  0
  -15.2185   -6.8020  -15.0639 O   0  0  0  0  0  0  0  0  0  0  0  0
  -15.0108   -4.8019   -9.8980 O   0  0  0  0  0  0  0  0  0  0  0  0
  -13.8282   -4.8311   -9.1092 C   0  0  0  0  0  0  0  0  0  0  0  0
 31 32  1  0  0  0
 32 25  1  0  0  0
 25 26  1  0  0  0
 25 30  2  0  0  0
 26 27  2  0  0  0
 27 28  1  0  0  0
 28 33  1  0  0  0
 28 29  2  0  0  0
 33 34  1  0  0  0
 29 24  1  0  0  0
 29 30  1  0  0  0
 24  1  1  0  0  0
  1  2  2  0  0  0
  1 10  1  0  0  0
  2  3  1  0  0  0
  3  4  1  0  0  0
  3  9  2  0  0  0
  4 14  1  0  0  0
  4  5  2  0  0  0
 14 16  1  0  0  0
 14 15  1  0  0  0
 16 17  1  0  0  0
 16 22  2  0  0  0
 17 18  2  0  0  0
 18 19  1  0  0  0
 19 20  1  0  0  0
 19 21  2  0  0  0
 21 22  1  0  0  0
 22 23  1  0  0  0
  5  6  1  0  0  0
  6  7  1  0  0  0
  6  8  2  0  0  0
  7 11  1  0  0  0
  7 12  1  0  0  0
  8  9  1  0  0  0
  9 10  1  0  0  0
 10 13  1  0  0  0
M  END
> <minimizedAffinity>
-8.80933

$$$$
