CHEMBL272198


 32 36  0  0  0  0  0  0  0  0999 V2000
  -27.5316   -1.9602  -10.7428 C   0  0  0  0  0  0  0  0  0  0  0  0
  -26.2966   -1.6067  -10.2144 C   0  0  0  0  0  0  0  0  0  0  0  0
  -25.2514   -1.2140  -11.0569 C   0  0  0  0  0  0  0  0  0  0  0  0
  -25.3832   -1.2193  -12.4694 C   0  0  0  0  0  0  0  0  0  0  0  0
  -24.3737   -0.8494  -13.4097 C   0  0  0  0  0  0  0  0  0  0  0  0
  -24.6385   -0.8859  -14.7921 C   0  0  0  0  0  0  0  0  0  0  0  0
  -25.8768   -1.2960  -15.2703 C   0  0  0  0  0  0  0  0  0  0  0  0
  -26.8758   -1.6440  -14.3703 C   0  0  0  0  0  0  0  0  0  0  0  0
  -26.6538   -1.5947  -12.9864 C   0  0  0  0  0  0  0  0  0  0  0  0
  -27.7162   -1.9105  -12.1230 C   0  0  0  0  0  0  0  0  0  0  0  0
  -23.0275   -0.3114  -13.0490 C   0  0  0  0  0  0  0  0  0  0  0  0
  -22.5459   -0.5910  -11.9538 O   0  0  0  0  0  0  0  0  0  0  0  0
  -22.4069    0.5295  -13.9525 N   0  0  0  0  0  0  0  0  0  0  0  0
  -22.9356    0.8818  -14.7405 H   0  0  0  0  0  0  0  0  0  0  0  0
  -21.1058    1.0716  -13.7043 C   0  0  0  0  0  0  0  0  0  0  0  0
  -20.6962    2.3876  -14.3058 C   0  0  0  0  0  0  0  0  0  0  0  0
  -20.0643    1.1167  -14.7910 C   0  0  0  0  0  0  0  0  0  0  0  0
  -28.4740   -2.3434   -9.8149 O   0  0  0  0  0  0  0  0  0  0  0  0
  -28.3311   -5.0454   -5.4092 C   0  0  0  0  0  0  0  0  0  0  0  0
  -28.0072   -3.7018   -5.1654 C   0  0  0  0  0  0  0  0  0  0  0  0
  -27.9858   -2.7530   -6.1718 C   0  0  0  0  0  0  0  0  0  0  0  0
  -27.6559   -1.4909   -5.8379 N   0  0  0  0  0  0  0  0  0  0  0  0
  -27.6035   -0.5631   -6.8132 C   0  0  0  0  0  0  0  0  0  0  0  0
  -27.8894   -0.8294   -8.1335 C   0  0  0  0  0  0  0  0  0  0  0  0
  -28.2594   -2.1284   -8.4708 C   0  0  0  0  0  0  0  0  0  0  0  0
  -28.2905   -3.1474   -7.4869 C   0  0  0  0  0  0  0  0  0  0  0  0
  -28.6267   -4.5006   -7.7243 C   0  0  0  0  0  0  0  0  0  0  0  0
  -28.7232   -5.4294   -6.6863 C   0  0  0  0  0  0  0  0  0  0  0  0
  -29.4780   -6.1546   -3.6971 C   0  0  0  0  0  0  0  0  0  0  0  0
  -28.2561   -5.9939   -4.4199 O   0  0  0  0  0  0  0  0  0  0  0  0
  -29.1562   -6.6678   -7.0743 O   0  0  0  0  0  0  0  0  0  0  0  0
  -30.5600   -6.7816   -7.3004 C   0  0  0  0  0  0  0  0  0  0  0  0
 29 30  1  0  0  0
 30 19  1  0  0  0
 19 20  1  0  0  0
 19 28  2  0  0  0
 20 21  2  0  0  0
 21 22  1  0  0  0
 21 26  1  0  0  0
 22 23  2  0  0  0
 23 24  1  0  0  0
 24 25  2  0  0  0
 25 18  1  0  0  0
 25 26  1  0  0  0
 18  1  1  0  0  0
  1  2  1  0  0  0
  1 10  2  0  0  0
  2  3  2  0  0  0
  3  4  1  0  0  0
  4  5  1  0  0  0
  4  9  2  0  0  0
  5 11  1  0  0  0
  5  6  2  0  0  0
 11 12  2  0  0  0
 11 13  1  0  0  0
 13 15  1  0  0  0
 13 14  1  0  0  0
 15 16  1  0  0  0
 15 17  1  0  0  0
 16 17  1  0  0  0
  6  7  1  0  0  0
  7  8  2  0  0  0
  8  9  1  0  0  0
  9 10  1  0  0  0
 26 27  2  0  0  0
 27 28  1  0  0  0
 28 31  1  0  0  0
 31 32  1  0  0  0
M  END
> <minimizedAffinity>
-9.80800

$$$$
