CHEMBL4453974


 47 53  0  0  0  0  0  0  0  0999 V2000
  -27.6517   -3.4095   -8.2545 N   0  0  0  0  0  0  0  0  0  0  0  0
  -27.0374   -3.7205   -9.5408 N   0  0  0  0  0  0  0  0  0  0  0  0
  -26.5146   -2.5729   -9.9252 C   0  0  0  0  0  0  0  0  0  0  0  0
  -26.4300   -1.5902   -8.7731 C   0  0  0  0  0  0  0  0  0  0  0  0
  -27.8204   -1.9512   -8.2941 C   0  0  0  0  0  0  0  0  0  0  0  0
  -26.2205   -2.0807  -11.3253 C   0  0  0  0  0  0  0  0  0  0  0  0
  -24.9833   -1.7614  -11.7505 C   0  0  0  0  0  0  0  0  0  0  0  0
  -23.8469   -1.8666  -10.9749 O   0  0  0  0  0  0  0  0  0  0  0  0
  -24.7673   -1.2753  -13.1280 C   0  0  0  0  0  0  0  0  0  0  0  0
  -23.5240   -0.8957  -13.6499 C   0  0  0  0  0  0  0  0  0  0  0  0
  -23.4056   -0.4519  -14.9784 C   0  0  0  0  0  0  0  0  0  0  0  0
  -24.5135   -0.3904  -15.8192 C   0  0  0  0  0  0  0  0  0  0  0  0
  -25.7579   -0.7626  -15.3213 C   0  0  0  0  0  0  0  0  0  0  0  0
  -25.8556   -1.1857  -13.9928 C   0  0  0  0  0  0  0  0  0  0  0  0
  -27.1344   -1.5257  -13.5687 O   0  0  0  0  0  0  0  0  0  0  0  0
  -27.3534   -2.0090  -12.3005 C   0  0  0  0  0  0  0  0  0  0  0  0
  -28.4829   -2.3972  -12.0221 O   0  0  0  0  0  0  0  0  0  0  0  0
  -24.0539   -2.3732  -10.1631 H   0  0  0  0  0  0  0  0  0  0  0  0
  -28.5886   -0.9088   -7.5333 C   0  0  0  0  0  0  0  0  0  0  0  0
  -28.9011    0.2371   -8.3019 C   0  0  0  0  0  0  0  0  0  0  0  0
  -29.7455    1.2489   -7.8706 C   0  0  0  0  0  0  0  0  0  0  0  0
  -30.3640    1.1892   -6.6304 C   0  0  0  0  0  0  0  0  0  0  0  0
  -29.9357    0.1330   -5.7986 C   0  0  0  0  0  0  0  0  0  0  0  0
  -29.0391   -0.8874   -6.2246 C   0  0  0  0  0  0  0  0  0  0  0  0
  -31.2883    2.1636   -6.2834 N   0  0  0  0  0  0  0  0  0  0  0  0
  -32.3210    2.5683   -7.2476 C   0  0  0  0  0  0  0  0  0  0  0  0
  -31.5886    2.4922   -4.9010 C   0  0  0  0  0  0  0  0  0  0  0  0
  -29.7173   -6.0737   -6.3619 C   0  0  0  0  0  0  0  0  0  0  0  0
  -28.6967   -5.9017   -7.7782 S   0  0  0  0  0  0  0  0  0  0  0  0
  -28.3653   -4.2413   -7.4204 C   0  0  0  0  0  0  0  0  0  0  0  0
  -28.8332   -3.8831   -6.2456 N   0  0  0  0  0  0  0  0  0  0  0  0
  -29.6149   -4.8834   -5.6438 C   0  0  0  0  0  0  0  0  0  0  0  0
  -30.3763   -4.5342   -4.4340 C   0  0  0  0  0  0  0  0  0  0  0  0
  -29.9978   -3.3667   -3.7545 C   0  0  0  0  0  0  0  0  0  0  0  0
  -30.6691   -2.8998   -2.6268 C   0  0  0  0  0  0  0  0  0  0  0  0
  -31.7691   -3.6002   -2.1575 C   0  0  0  0  0  0  0  0  0  0  0  0
  -32.1631   -4.7748   -2.8013 C   0  0  0  0  0  0  0  0  0  0  0  0
  -31.4636   -5.2523   -3.9254 C   0  0  0  0  0  0  0  0  0  0  0  0
  -30.0211   -8.2778   -6.4938 N   0  0  0  0  0  0  0  0  0  0  0  0
  -30.5207   -7.1774   -6.1731 N   0  0  0  0  0  0  0  0  0  0  0  0
  -33.9888  -12.4511   -6.8078 C   0  0  0  0  0  0  0  0  0  0  0  0
  -32.9084  -11.4083   -6.7126 C   0  0  0  0  0  0  0  0  0  0  0  0
  -31.6004  -11.7226   -6.3221 C   0  0  0  0  0  0  0  0  0  0  0  0
  -30.6099  -10.7190   -6.2396 C   0  0  0  0  0  0  0  0  0  0  0  0
  -30.9084   -9.3825   -6.5459 C   0  0  0  0  0  0  0  0  0  0  0  0
  -32.2226   -9.0910   -6.9411 C   0  0  0  0  0  0  0  0  0  0  0  0
  -33.2088  -10.0833   -7.0237 C   0  0  0  0  0  0  0  0  0  0  0  0
 41 42  1  0  0  0
 42 43  1  0  0  0
 42 47  2  0  0  0
 43 44  2  0  0  0
 44 45  1  0  0  0
 45 39  1  0  0  0
 45 46  2  0  0  0
 39 40  2  0  0  0
 40 28  1  0  0  0
 28 29  1  0  0  0
 28 32  2  0  0  0
 29 30  1  0  0  0
 30  1  1  0  0  0
 30 31  2  0  0  0
  1  2  1  0  0  0
  1  5  1  0  0  0
  2  3  2  0  0  0
  3  6  1  0  0  0
  3  4  1  0  0  0
  6  7  2  0  0  0
  6 16  1  0  0  0
  7  8  1  0  0  0
  7  9  1  0  0  0
  8 18  1  0  0  0
  9 10  1  0  0  0
  9 14  2  0  0  0
 10 11  2  0  0  0
 11 12  1  0  0  0
 12 13  2  0  0  0
 13 14  1  0  0  0
 14 15  1  0  0  0
 15 16  1  0  0  0
 16 17  2  0  0  0
  4  5  1  0  0  0
  5 19  1  0  0  0
 19 20  1  0  0  0
 19 24  2  0  0  0
 20 21  2  0  0  0
 21 22  1  0  0  0
 22 25  1  0  0  0
 22 23  2  0  0  0
 25 26  1  0  0  0
 25 27  1  0  0  0
 23 24  1  0  0  0
 31 32  1  0  0  0
 32 33  1  0  0  0
 33 34  1  0  0  0
 33 38  2  0  0  0
 34 35  2  0  0  0
 35 36  1  0  0  0
 36 37  2  0  0  0
 37 38  1  0  0  0
 46 47  1  0  0  0
M  END
> <minimizedAffinity>
-1.74187

$$$$
