CHEMBL1973395


 24 27  0  0  0  0  0  0  0  0999 V2000
  -29.0277   -2.8865   -4.9350 C   0  0  0  0  0  0  0  0  0  0  0  0
  -28.9298   -1.7251   -4.2289 N   0  0  0  0  0  0  0  0  0  0  0  0
  -28.4225   -0.6295   -4.8233 C   0  0  0  0  0  0  0  0  0  0  0  0
  -27.9724   -0.5157   -6.0739 N   0  0  0  0  0  0  0  0  0  0  0  0
  -28.1022   -1.6647   -6.7499 C   0  0  0  0  0  0  0  0  0  0  0  0
  -27.7513   -1.7972   -8.0615 N   0  0  0  0  0  0  0  0  0  0  0  0
  -28.0296   -3.0642   -8.4900 C   0  0  0  0  0  0  0  0  0  0  0  0
  -28.5547   -3.7816   -7.4240 C   0  0  0  0  0  0  0  0  0  0  0  0
  -28.6016   -2.8774   -6.2895 C   0  0  0  0  0  0  0  0  0  0  0  0
  -27.3791   -1.0426   -8.6179 H   0  0  0  0  0  0  0  0  0  0  0  0
  -31.3622   -6.5167   -2.0660 O   0  0  0  0  0  0  0  0  0  0  0  0
  -31.1550   -6.1483   -3.4315 C   0  0  0  0  0  0  0  0  0  0  0  0
  -31.7755   -4.7652   -3.6631 C   0  0  0  0  0  0  0  0  0  0  0  0
  -30.7614   -3.6558   -3.4346 C   0  0  0  0  0  0  0  0  0  0  0  0
  -29.6688   -3.9687   -4.3493 N   0  0  0  0  0  0  0  0  0  0  0  0
  -28.8243   -5.0417   -3.8345 C   0  0  0  0  0  0  0  0  0  0  0  0
  -29.6600   -6.3257   -3.7570 C   0  0  0  0  0  0  0  0  0  0  0  0
  -32.3186   -6.6594   -1.9552 H   0  0  0  0  0  0  0  0  0  0  0  0
  -28.9945   -5.1628   -7.6191 C   0  0  0  0  0  0  0  0  0  0  0  0
  -28.1240   -6.1189   -8.1649 C   0  0  0  0  0  0  0  0  0  0  0  0
  -28.5236   -7.4525   -8.3343 C   0  0  0  0  0  0  0  0  0  0  0  0
  -29.8004   -7.8472   -7.9459 C   0  0  0  0  0  0  0  0  0  0  0  0
  -30.6907   -6.9005   -7.4446 C   0  0  0  0  0  0  0  0  0  0  0  0
  -30.2952   -5.5642   -7.3029 C   0  0  0  0  0  0  0  0  0  0  0  0
 11 12  1  0  0  0
 11 18  1  0  0  0
 12 13  1  0  0  0
 12 17  1  0  0  0
 13 14  1  0  0  0
 14 15  1  0  0  0
 15  1  1  0  0  0
 15 16  1  0  0  0
  1  2  1  0  0  0
  1  9  2  0  0  0
  2  3  2  0  0  0
  3  4  1  0  0  0
  4  5  2  0  0  0
  5  6  1  0  0  0
  5  9  1  0  0  0
  6  7  1  0  0  0
  6 10  1  0  0  0
  7  8  2  0  0  0
  8 19  1  0  0  0
  8  9  1  0  0  0
 19 20  1  0  0  0
 19 24  2  0  0  0
 20 21  2  0  0  0
 21 22  1  0  0  0
 22 23  2  0  0  0
 23 24  1  0  0  0
 16 17  1  0  0  0
M  END
> <minimizedAffinity>
-8.58593

$$$$
