CHEMBL1971534


 14 15  0  0  0  0  0  0  0  0999 V2000
  -18.4056    1.9103  -15.3502 C   0  0  0  0  0  0  0  0  0  0  0  0
  -19.1862    0.7968  -15.1107 C   0  0  0  0  0  0  0  0  0  0  0  0
  -20.5102    1.1157  -14.6586 C   0  0  0  0  0  0  0  0  0  0  0  0
  -21.5920    0.2840  -14.3110 C   0  0  0  0  0  0  0  0  0  0  0  0
  -22.7717    0.8980  -13.9227 C   0  0  0  0  0  0  0  0  0  0  0  0
  -22.9486    2.2311  -13.8591 N   0  0  0  0  0  0  0  0  0  0  0  0
  -21.9169    3.0420  -14.1844 C   0  0  0  0  0  0  0  0  0  0  0  0
  -20.6945    2.4969  -14.5797 C   0  0  0  0  0  0  0  0  0  0  0  0
  -19.2681    3.3472  -15.0171 S   0  0  0  0  0  0  0  0  0  0  0  0
  -16.3489    0.7447  -15.7643 N   0  0  0  0  0  0  0  0  0  0  0  0
  -17.0341    1.9260  -15.8262 C   0  0  0  0  0  0  0  0  0  0  0  0
  -16.4738    2.9226  -16.2759 O   0  0  0  0  0  0  0  0  0  0  0  0
  -15.3983    0.7228  -16.1025 H   0  0  0  0  0  0  0  0  0  0  0  0
  -16.7869   -0.1086  -15.4467 H   0  0  0  0  0  0  0  0  0  0  0  0
 10 11  1  0  0  0
 10 13  1  0  0  0
 10 14  1  0  0  0
 11 12  2  0  0  0
 11  1  1  0  0  0
  1  2  2  0  0  0
  1  9  1  0  0  0
  2  3  1  0  0  0
  3  4  1  0  0  0
  3  8  2  0  0  0
  4  5  2  0  0  0
  5  6  1  0  0  0
  6  7  2  0  0  0
  7  8  1  0  0  0
  8  9  1  0  0  0
M  END
> <minimizedAffinity>
-5.88679

$$$$
