CHEMBL600632


 41 45  0  0  0  0  0  0  0  0999 V2000
  -27.2587   -1.7538   -8.8630 C   0  0  0  0  0  0  0  0  0  0  0  0
  -27.5484   -3.1039   -9.0580 C   0  0  0  0  0  0  0  0  0  0  0  0
  -28.1136   -3.8530   -8.0276 C   0  0  0  0  0  0  0  0  0  0  0  0
  -28.4653   -3.2549   -6.8139 C   0  0  0  0  0  0  0  0  0  0  0  0
  -28.2913   -1.8776   -6.6640 C   0  0  0  0  0  0  0  0  0  0  0  0
  -27.6817   -1.1417   -7.6832 C   0  0  0  0  0  0  0  0  0  0  0  0
  -27.4916    0.1738   -7.5006 F   0  0  0  0  0  0  0  0  0  0  0  0
  -29.0356   -3.9930   -5.7561 N   0  0  0  0  0  0  0  0  0  0  0  0
  -28.3463   -4.4113   -4.6322 C   0  0  0  0  0  0  0  0  0  0  0  0
  -27.2398   -4.0162   -4.2867 O   0  0  0  0  0  0  0  0  0  0  0  0
  -30.0413   -4.1185   -5.7677 H   0  0  0  0  0  0  0  0  0  0  0  0
  -29.0987   -5.4294   -3.8077 C   0  0  0  0  0  0  0  0  0  0  0  0
  -30.2345   -6.0333   -4.6485 C   0  0  0  0  0  0  0  0  0  0  0  0
  -31.6168   -5.7490   -3.9762 C   0  0  0  0  0  0  0  0  0  0  0  0
  -31.6860   -6.1674   -2.6926 F   0  0  0  0  0  0  0  0  0  0  0  0
  -31.9298   -4.4341   -4.0086 F   0  0  0  0  0  0  0  0  0  0  0  0
  -32.6083   -6.3966   -4.6475 F   0  0  0  0  0  0  0  0  0  0  0  0
  -29.9856   -7.5022   -4.8359 N   0  0  0  0  0  0  0  0  0  0  0  0
  -30.7143   -8.0485   -4.3634 H   0  0  0  0  0  0  0  0  0  0  0  0
  -29.7956   -7.9762   -6.1471 C   0  0  0  0  0  0  0  0  0  0  0  0
  -30.6480   -8.9040   -6.7576 C   0  0  0  0  0  0  0  0  0  0  0  0
  -30.4642   -9.3013   -8.0847 C   0  0  0  0  0  0  0  0  0  0  0  0
  -29.4267   -8.7632   -8.8353 C   0  0  0  0  0  0  0  0  0  0  0  0
  -28.5893   -7.8099   -8.2641 C   0  0  0  0  0  0  0  0  0  0  0  0
  -28.7893   -7.4026   -6.9397 C   0  0  0  0  0  0  0  0  0  0  0  0
  -26.5894   -0.9756   -9.7818 O   0  0  0  0  0  0  0  0  0  0  0  0
  -23.8275   -0.0150  -13.3674 C   0  0  0  0  0  0  0  0  0  0  0  0
  -24.7777   -0.6266  -14.1528 C   0  0  0  0  0  0  0  0  0  0  0  0
  -25.8496   -1.1635  -13.3831 C   0  0  0  0  0  0  0  0  0  0  0  0
  -26.9091   -1.8501  -13.8914 N   0  0  0  0  0  0  0  0  0  0  0  0
  -27.8051   -2.2936  -12.9925 C   0  0  0  0  0  0  0  0  0  0  0  0
  -27.7402   -2.0779  -11.6302 C   0  0  0  0  0  0  0  0  0  0  0  0
  -26.6953   -1.3063  -11.1193 C   0  0  0  0  0  0  0  0  0  0  0  0
  -25.7046   -0.8930  -12.0216 C   0  0  0  0  0  0  0  0  0  0  0  0
  -24.2443   -0.0428  -11.7167 S   0  0  0  0  0  0  0  0  0  0  0  0
  -20.2030    3.1881  -14.5253 C   0  0  0  0  0  0  0  0  0  0  0  0
  -21.0049    1.9953  -14.4258 N   0  0  0  0  0  0  0  0  0  0  0  0
  -20.6409    0.7369  -14.8040 C   0  0  0  0  0  0  0  0  0  0  0  0
  -21.5642   -0.1433  -14.4837 N   0  0  0  0  0  0  0  0  0  0  0  0
  -22.5778    0.5873  -13.9085 C   0  0  0  0  0  0  0  0  0  0  0  0
  -22.2560    1.9265  -13.8859 C   0  0  0  0  0  0  0  0  0  0  0  0
 36 37  1  0  0  0
 37 38  1  0  0  0
 37 41  1  0  0  0
 38 39  2  0  0  0
 39 40  1  0  0  0
 40 27  1  0  0  0
 40 41  2  0  0  0
 27 28  2  0  0  0
 27 35  1  0  0  0
 28 29  1  0  0  0
 29 30  1  0  0  0
 29 34  2  0  0  0
 30 31  2  0  0  0
 31 32  1  0  0  0
 32 33  2  0  0  0
 33 26  1  0  0  0
 33 34  1  0  0  0
 26  1  1  0  0  0
  1  2  1  0  0  0
  1  6  2  0  0  0
  2  3  2  0  0  0
  3  4  1  0  0  0
  4  8  1  0  0  0
  4  5  2  0  0  0
  8  9  1  0  0  0
  8 11  1  0  0  0
  9 10  2  0  0  0
  9 12  1  0  0  0
 12 13  1  0  0  0
 13 18  1  0  0  0
 13 14  1  0  0  0
 18 20  1  0  0  0
 18 19  1  0  0  0
 20 21  1  0  0  0
 20 25  2  0  0  0
 21 22  2  0  0  0
 22 23  1  0  0  0
 23 24  2  0  0  0
 24 25  1  0  0  0
 14 15  1  0  0  0
 14 16  1  0  0  0
 14 17  1  0  0  0
  5  6  1  0  0  0
  6  7  1  0  0  0
 34 35  1  0  0  0
M  END
> <minimizedAffinity>
-9.56790

$$$$
