CHEMBL2006439


 25 28  0  0  0  0  0  0  0  0999 V2000
  -32.4480   -5.0078   -2.6801 Cl  0  0  0  0  0  0  0  0  0  0  0  0
  -31.3531   -5.2155   -3.9874 C   0  0  0  0  0  0  0  0  0  0  0  0
  -30.8002   -4.1246   -4.5976 C   0  0  0  0  0  0  0  0  0  0  0  0
  -29.9704   -4.4257   -5.6425 C   0  0  0  0  0  0  0  0  0  0  0  0
  -29.7827   -5.6826   -6.0806 N   0  0  0  0  0  0  0  0  0  0  0  0
  -30.3470   -6.6796   -5.3929 C   0  0  0  0  0  0  0  0  0  0  0  0
  -31.1178   -6.4927   -4.3218 N   0  0  0  0  0  0  0  0  0  0  0  0
  -29.2219   -3.3895   -6.3424 C   0  0  0  0  0  0  0  0  0  0  0  0
  -28.5320   -3.6202   -7.5201 C   0  0  0  0  0  0  0  0  0  0  0  0
  -27.9634   -2.4392   -7.9222 N   0  0  0  0  0  0  0  0  0  0  0  0
  -28.2509   -1.4559   -7.0222 C   0  0  0  0  0  0  0  0  0  0  0  0
  -27.8327   -0.1791   -7.1313 N   0  0  0  0  0  0  0  0  0  0  0  0
  -28.2201    0.5942   -6.0938 C   0  0  0  0  0  0  0  0  0  0  0  0
  -28.9582    0.1687   -4.9987 C   0  0  0  0  0  0  0  0  0  0  0  0
  -29.3660   -1.1616   -4.9341 C   0  0  0  0  0  0  0  0  0  0  0  0
  -29.0157   -2.0118   -5.9938 C   0  0  0  0  0  0  0  0  0  0  0  0
  -27.3995   -2.2897   -8.7480 H   0  0  0  0  0  0  0  0  0  0  0  0
  -30.1091   -7.9708   -5.7715 N   0  0  0  0  0  0  0  0  0  0  0  0
  -29.7897   -8.5895   -5.0429 H   0  0  0  0  0  0  0  0  0  0  0  0
  -30.3976   -8.4361   -7.1147 C   0  0  0  0  0  0  0  0  0  0  0  0
  -31.2764   -9.6991   -7.0360 C   0  0  0  0  0  0  0  0  0  0  0  0
  -31.4769  -10.3553   -8.4012 C   0  0  0  0  0  0  0  0  0  0  0  0
  -30.1422  -10.6357   -9.0808 C   0  0  0  0  0  0  0  0  0  0  0  0
  -29.3329   -9.3548   -9.2337 C   0  0  0  0  0  0  0  0  0  0  0  0
  -29.0941   -8.6822   -7.8857 C   0  0  0  0  0  0  0  0  0  0  0  0
  1  2  1  0  0  0
  2  3  1  0  0  0
  2  7  2  0  0  0
  3  4  2  0  0  0
  4  8  1  0  0  0
  4  5  1  0  0  0
  8  9  2  0  0  0
  8 16  1  0  0  0
  9 10  1  0  0  0
 10 11  1  0  0  0
 10 17  1  0  0  0
 11 12  1  0  0  0
 11 16  2  0  0  0
 12 13  2  0  0  0
 13 14  1  0  0  0
 14 15  2  0  0  0
 15 16  1  0  0  0
  5  6  2  0  0  0
  6 18  1  0  0  0
  6  7  1  0  0  0
 18 20  1  0  0  0
 18 19  1  0  0  0
 20 21  1  0  0  0
 20 25  1  0  0  0
 21 22  1  0  0  0
 22 23  1  0  0  0
 23 24  1  0  0  0
 24 25  1  0  0  0
M  END
> <minimizedAffinity>
-8.18797

$$$$
