CHEMBL3977221


 31 34  0  0  0  0  0  0  0  0999 V2000
  -14.0240   -1.6253  -13.9197 C   0  0  0  0  0  0  0  0  0  0  0  0
  -13.8221   -3.0032  -14.0440 C   0  0  0  0  0  0  0  0  0  0  0  0
  -14.6483   -3.9333  -13.3699 C   0  0  0  0  0  0  0  0  0  0  0  0
  -14.4725   -5.3226  -13.3830 C   0  0  0  0  0  0  0  0  0  0  0  0
  -15.3000   -6.1540  -12.7160 N   0  0  0  0  0  0  0  0  0  0  0  0
  -16.2891   -5.5993  -12.0187 C   0  0  0  0  0  0  0  0  0  0  0  0
  -16.5250   -4.2927  -11.9155 N   0  0  0  0  0  0  0  0  0  0  0  0
  -15.7008   -3.4801  -12.5808 C   0  0  0  0  0  0  0  0  0  0  0  0
  -15.8681   -2.1216  -12.4270 C   0  0  0  0  0  0  0  0  0  0  0  0
  -15.0148   -1.1763  -13.0280 C   0  0  0  0  0  0  0  0  0  0  0  0
  -13.1759   -0.7680  -16.0170 C   0  0  0  0  0  0  0  0  0  0  0  0
  -13.2907   -0.6864  -14.5941 O   0  0  0  0  0  0  0  0  0  0  0  0
  -13.3567   -5.8837  -14.0605 N   0  0  0  0  0  0  0  0  0  0  0  0
  -12.5751   -5.2306  -14.0573 H   0  0  0  0  0  0  0  0  0  0  0  0
  -13.4711   -6.5786  -15.2909 C   0  0  0  0  0  0  0  0  0  0  0  0
  -13.7335   -5.8547  -16.4674 C   0  0  0  0  0  0  0  0  0  0  0  0
  -13.7331   -6.4716  -17.7088 C   0  0  0  0  0  0  0  0  0  0  0  0
  -13.4910   -7.8355  -17.7943 C   0  0  0  0  0  0  0  0  0  0  0  0
  -13.3022   -8.5928  -16.6318 C   0  0  0  0  0  0  0  0  0  0  0  0
  -13.0067  -10.4565  -16.8576 Br  0  0  0  0  0  0  0  0  0  0  0  0
  -13.3094   -7.9732  -15.3740 C   0  0  0  0  0  0  0  0  0  0  0  0
  -13.1002   -8.8771  -13.9058 Cl  0  0  0  0  0  0  0  0  0  0  0  0
  -15.1162    0.1775  -12.7414 O   0  0  0  0  0  0  0  0  0  0  0  0
  -16.3327    0.7754  -13.2346 C   0  0  0  0  0  0  0  0  0  0  0  0
  -16.5569    0.6136  -14.7449 C   0  0  0  0  0  0  0  0  0  0  0  0
  -16.0611    1.8097  -15.5759 C   0  0  0  0  0  0  0  0  0  0  0  0
  -16.8860    3.0144  -15.3450 N   0  0  0  0  0  0  0  0  0  0  0  0
  -16.3865    4.1356  -16.1344 C   0  0  0  0  0  0  0  0  0  0  0  0
  -18.2863    2.7005  -15.6840 C   0  0  0  0  0  0  0  0  0  0  0  0
  -18.7899    1.5040  -14.8621 C   0  0  0  0  0  0  0  0  0  0  0  0
  -17.9551    0.3447  -15.0302 O   0  0  0  0  0  0  0  0  0  0  0  0
 11 12  1  0  0  0
 12  1  1  0  0  0
  1  2  1  0  0  0
  1 10  2  0  0  0
  2  3  2  0  0  0
  3  4  1  0  0  0
  3  8  1  0  0  0
  4 13  1  0  0  0
  4  5  2  0  0  0
 13 15  1  0  0  0
 13 14  1  0  0  0
 15 16  1  0  0  0
 15 21  2  0  0  0
 16 17  2  0  0  0
 17 18  1  0  0  0
 18 19  2  0  0  0
 19 20  1  0  0  0
 19 21  1  0  0  0
 21 22  1  0  0  0
  5  6  1  0  0  0
  6  7  2  0  0  0
  7  8  1  0  0  0
  8  9  2  0  0  0
  9 10  1  0  0  0
 10 23  1  0  0  0
 23 24  1  0  0  0
 24 25  1  0  0  0
 25 26  1  0  0  0
 25 31  1  0  0  0
 26 27  1  0  0  0
 27 28  1  0  0  0
 27 29  1  0  0  0
 29 30  1  0  0  0
 30 31  1  0  0  0
M  END
> <minimizedAffinity>
-7.10164

$$$$
