CHEMBL400101


 26 28  0  0  0  0  0  0  0  0999 V2000
  -15.2060    0.9460  -15.4291 C   0  0  0  0  0  0  0  0  0  0  0  0
  -14.9309    1.7580  -16.5398 C   0  0  0  0  0  0  0  0  0  0  0  0
  -13.7293    1.6191  -17.2160 C   0  0  0  0  0  0  0  0  0  0  0  0
  -12.8439    0.6668  -16.7519 C   0  0  0  0  0  0  0  0  0  0  0  0
  -13.0795   -0.1362  -15.6841 N   0  0  0  0  0  0  0  0  0  0  0  0
  -14.2576   -0.0083  -15.0302 C   0  0  0  0  0  0  0  0  0  0  0  0
  -17.5804    1.5050  -15.4969 N   0  0  0  0  0  0  0  0  0  0  0  0
  -16.4804    1.2074  -14.7088 C   0  0  0  0  0  0  0  0  0  0  0  0
  -16.4716    1.0945  -13.4872 O   0  0  0  0  0  0  0  0  0  0  0  0
  -17.3955    1.6165  -16.4931 H   0  0  0  0  0  0  0  0  0  0  0  0
  -23.0246    2.0926  -13.8232 C   0  0  0  0  0  0  0  0  0  0  0  0
  -21.5957    1.9439  -14.2494 C   0  0  0  0  0  0  0  0  0  0  0  0
  -20.7346    3.0412  -14.2196 C   0  0  0  0  0  0  0  0  0  0  0  0
  -19.4072    2.9141  -14.6234 C   0  0  0  0  0  0  0  0  0  0  0  0
  -18.9095    1.6891  -15.0718 C   0  0  0  0  0  0  0  0  0  0  0  0
  -19.7682    0.5834  -15.0932 C   0  0  0  0  0  0  0  0  0  0  0  0
  -21.1021    0.7092  -14.6846 C   0  0  0  0  0  0  0  0  0  0  0  0
  -14.5409   -0.8799  -13.9583 N   0  0  0  0  0  0  0  0  0  0  0  0
  -15.0736   -0.3509  -13.2644 H   0  0  0  0  0  0  0  0  0  0  0  0
  -15.2182   -2.1215  -14.3105 C   0  0  0  0  0  0  0  0  0  0  0  0
  -15.6003   -2.8308  -13.0316 C   0  0  0  0  0  0  0  0  0  0  0  0
  -16.1125   -4.1318  -13.0627 C   0  0  0  0  0  0  0  0  0  0  0  0
  -16.4865   -4.7303  -11.8688 C   0  0  0  0  0  0  0  0  0  0  0  0
  -16.3952   -4.1266  -10.6650 N   0  0  0  0  0  0  0  0  0  0  0  0
  -15.9075   -2.8694  -10.6547 C   0  0  0  0  0  0  0  0  0  0  0  0
  -15.5023   -2.1884  -11.7931 C   0  0  0  0  0  0  0  0  0  0  0  0
 11 12  1  0  0  0
 12 13  1  0  0  0
 12 17  2  0  0  0
 13 14  2  0  0  0
 14 15  1  0  0  0
 15  7  1  0  0  0
 15 16  2  0  0  0
  7  8  1  0  0  0
  7 10  1  0  0  0
  8  9  2  0  0  0
  8  1  1  0  0  0
  1  2  1  0  0  0
  1  6  2  0  0  0
  2  3  2  0  0  0
  3  4  1  0  0  0
  4  5  2  0  0  0
  5  6  1  0  0  0
  6 18  1  0  0  0
 18 20  1  0  0  0
 18 19  1  0  0  0
 20 21  1  0  0  0
 21 22  1  0  0  0
 21 26  2  0  0  0
 22 23  2  0  0  0
 23 24  1  0  0  0
 24 25  2  0  0  0
 25 26  1  0  0  0
 16 17  1  0  0  0
M  END
> <minimizedAffinity>
-7.82379

$$$$
