CHEMBL494872


 41 45  0  0  0  0  0  0  0  0999 V2000
  -23.4514   -1.1321  -13.1701 N   0  0  0  0  0  0  0  0  0  0  0  0
  -23.5787   -0.6900  -11.7932 C   0  0  0  0  0  0  0  0  0  0  0  0
  -24.6017   -1.5035  -10.9986 C   0  0  0  0  0  0  0  0  0  0  0  0
  -25.9148   -1.6254  -11.7371 C   0  0  0  0  0  0  0  0  0  0  0  0
  -27.1666   -1.8418  -11.1059 C   0  0  0  0  0  0  0  0  0  0  0  0
  -28.3434   -1.8420  -11.8797 C   0  0  0  0  0  0  0  0  0  0  0  0
  -28.2888   -1.7202  -13.2667 C   0  0  0  0  0  0  0  0  0  0  0  0
  -27.0572   -1.6182  -13.9002 C   0  0  0  0  0  0  0  0  0  0  0  0
  -25.8752   -1.5756  -13.1466 C   0  0  0  0  0  0  0  0  0  0  0  0
  -24.5849   -1.4890  -13.8918 C   0  0  0  0  0  0  0  0  0  0  0  0
  -24.5680   -1.7277  -15.0961 O   0  0  0  0  0  0  0  0  0  0  0  0
  -27.3054   -2.0303   -9.6245 C   0  0  0  0  0  0  0  0  0  0  0  0
  -26.7350   -1.2541   -8.8711 O   0  0  0  0  0  0  0  0  0  0  0  0
  -28.0707   -3.1240   -9.2151 N   0  0  0  0  0  0  0  0  0  0  0  0
  -28.3474   -3.7947   -9.9215 H   0  0  0  0  0  0  0  0  0  0  0  0
  -28.3896   -3.4617   -7.8773 C   0  0  0  0  0  0  0  0  0  0  0  0
  -28.5813   -4.7808   -7.4515 C   0  0  0  0  0  0  0  0  0  0  0  0
  -28.9228   -5.0620   -6.1268 C   0  0  0  0  0  0  0  0  0  0  0  0
  -29.0739   -4.0254   -5.2224 C   0  0  0  0  0  0  0  0  0  0  0  0
  -29.4079   -4.3339   -3.9638 F   0  0  0  0  0  0  0  0  0  0  0  0
  -28.8772   -2.7077   -5.5944 C   0  0  0  0  0  0  0  0  0  0  0  0
  -28.5182   -2.4306   -6.9382 C   0  0  0  0  0  0  0  0  0  0  0  0
  -29.0572   -1.5883   -4.6066 C   0  0  0  0  0  0  0  0  0  0  0  0
  -29.7345   -1.9213   -3.4762 F   0  0  0  0  0  0  0  0  0  0  0  0
  -27.8642   -1.0795   -4.1894 F   0  0  0  0  0  0  0  0  0  0  0  0
  -29.7351   -0.5375   -5.1477 F   0  0  0  0  0  0  0  0  0  0  0  0
  -22.2611   -0.7142  -13.9088 C   0  0  0  0  0  0  0  0  0  0  0  0
  -18.4733    2.7800  -14.8890 C   0  0  0  0  0  0  0  0  0  0  0  0
  -19.6703    3.4730  -14.6360 C   0  0  0  0  0  0  0  0  0  0  0  0
  -20.8799    2.8287  -14.4105 C   0  0  0  0  0  0  0  0  0  0  0  0
  -21.9378    3.5812  -14.0723 N   0  0  0  0  0  0  0  0  0  0  0  0
  -23.0862    2.9528  -13.7514 C   0  0  0  0  0  0  0  0  0  0  0  0
  -23.2338    1.5812  -13.7480 C   0  0  0  0  0  0  0  0  0  0  0  0
  -22.1451    0.7817  -14.1167 C   0  0  0  0  0  0  0  0  0  0  0  0
  -20.9305    1.4224  -14.4867 C   0  0  0  0  0  0  0  0  0  0  0  0
  -19.7586    0.7477  -14.8923 C   0  0  0  0  0  0  0  0  0  0  0  0
  -18.5307    1.4002  -15.0807 C   0  0  0  0  0  0  0  0  0  0  0  0
  -16.7570    3.6567  -16.2708 C   0  0  0  0  0  0  0  0  0  0  0  0
  -17.2722    3.4370  -14.9518 O   0  0  0  0  0  0  0  0  0  0  0  0
  -17.5494    0.5035  -15.3902 O   0  0  0  0  0  0  0  0  0  0  0  0
  -16.5866    0.1053  -14.4327 C   0  0  0  0  0  0  0  0  0  0  0  0
 38 39  1  0  0  0
 39 28  1  0  0  0
 28 29  1  0  0  0
 28 37  2  0  0  0
 29 30  2  0  0  0
 30 31  1  0  0  0
 30 35  1  0  0  0
 31 32  2  0  0  0
 32 33  1  0  0  0
 33 34  2  0  0  0
 34 27  1  0  0  0
 34 35  1  0  0  0
 27  1  1  0  0  0
  1  2  1  0  0  0
  1 10  1  0  0  0
  2  3  1  0  0  0
  3  4  1  0  0  0
  4  5  1  0  0  0
  4  9  2  0  0  0
  5 12  1  0  0  0
  5  6  2  0  0  0
 12 13  2  0  0  0
 12 14  1  0  0  0
 14 16  1  0  0  0
 14 15  1  0  0  0
 16 17  1  0  0  0
 16 22  2  0  0  0
 17 18  2  0  0  0
 18 19  1  0  0  0
 19 20  1  0  0  0
 19 21  2  0  0  0
 21 23  1  0  0  0
 21 22  1  0  0  0
 23 24  1  0  0  0
 23 25  1  0  0  0
 23 26  1  0  0  0
  6  7  1  0  0  0
  7  8  2  0  0  0
  8  9  1  0  0  0
  9 10  1  0  0  0
 10 11  2  0  0  0
 35 36  2  0  0  0
 36 37  1  0  0  0
 37 40  1  0  0  0
 40 41  1  0  0  0
M  END
> <minimizedAffinity>
-11.80336

$$$$
