CHEMBL249096


 29 33  0  0  0  0  0  0  0  0999 V2000
  -29.1437   -4.4295   -6.8819 C   0  0  0  0  0  0  0  0  0  0  0  0
  -29.5466   -4.0078   -5.6697 N   0  0  0  0  0  0  0  0  0  0  0  0
  -29.1525   -2.7148   -5.6529 N   0  0  0  0  0  0  0  0  0  0  0  0
  -28.5449   -2.3010   -6.8027 C   0  0  0  0  0  0  0  0  0  0  0  0
  -28.0699   -1.0705   -7.0561 N   0  0  0  0  0  0  0  0  0  0  0  0
  -27.5331   -0.9731   -8.3037 C   0  0  0  0  0  0  0  0  0  0  0  0
  -27.4476   -1.9813   -9.2782 C   0  0  0  0  0  0  0  0  0  0  0  0
  -27.9664   -3.2379   -8.9152 C   0  0  0  0  0  0  0  0  0  0  0  0
  -28.5266   -3.4019   -7.6376 C   0  0  0  0  0  0  0  0  0  0  0  0
  -29.3263   -2.1513   -4.8296 H   0  0  0  0  0  0  0  0  0  0  0  0
  -31.0351   -8.8819   -7.8653 C   0  0  0  0  0  0  0  0  0  0  0  0
  -30.5157  -10.0075   -8.5397 C   0  0  0  0  0  0  0  0  0  0  0  0
  -29.2165  -10.0208   -9.0560 C   0  0  0  0  0  0  0  0  0  0  0  0
  -28.3805   -8.9065   -8.9436 C   0  0  0  0  0  0  0  0  0  0  0  0
  -28.9093   -7.7948   -8.2870 C   0  0  0  0  0  0  0  0  0  0  0  0
  -28.4015   -6.5485   -8.0251 N   0  0  0  0  0  0  0  0  0  0  0  0
  -29.3440   -5.8358   -7.3317 C   0  0  0  0  0  0  0  0  0  0  0  0
  -30.4347   -6.5493   -7.1417 N   0  0  0  0  0  0  0  0  0  0  0  0
  -30.1893   -7.7635   -7.7414 C   0  0  0  0  0  0  0  0  0  0  0  0
  -27.4970   -6.1860   -8.2896 H   0  0  0  0  0  0  0  0  0  0  0  0
  -32.4459   -8.8845   -7.3489 C   0  0  0  0  0  0  0  0  0  0  0  0
  -33.2398  -10.9355   -6.5169 C   0  0  0  0  0  0  0  0  0  0  0  0
  -33.0690  -10.1275   -7.6722 O   0  0  0  0  0  0  0  0  0  0  0  0
  -26.8557   -1.7457  -10.6141 C   0  0  0  0  0  0  0  0  0  0  0  0
  -25.5028   -1.4050  -10.7660 C   0  0  0  0  0  0  0  0  0  0  0  0
  -24.9818   -1.2093  -12.0344 C   0  0  0  0  0  0  0  0  0  0  0  0
  -25.7042   -1.3142  -13.1664 N   0  0  0  0  0  0  0  0  0  0  0  0
  -27.0035   -1.6376  -13.0187 C   0  0  0  0  0  0  0  0  0  0  0  0
  -27.6103   -1.8610  -11.7911 C   0  0  0  0  0  0  0  0  0  0  0  0
 22 23  1  0  0  0
 23 21  1  0  0  0
 21 11  1  0  0  0
 11 12  1  0  0  0
 11 19  2  0  0  0
 12 13  2  0  0  0
 13 14  1  0  0  0
 14 15  2  0  0  0
 15 16  1  0  0  0
 15 19  1  0  0  0
 16 17  1  0  0  0
 16 20  1  0  0  0
 17  1  1  0  0  0
 17 18  2  0  0  0
  1  2  2  0  0  0
  1  9  1  0  0  0
  2  3  1  0  0  0
  3  4  1  0  0  0
  3 10  1  0  0  0
  4  5  1  0  0  0
  4  9  2  0  0  0
  5  6  2  0  0  0
  6  7  1  0  0  0
  7 24  1  0  0  0
  7  8  2  0  0  0
 24 25  1  0  0  0
 24 29  2  0  0  0
 25 26  2  0  0  0
 26 27  1  0  0  0
 27 28  2  0  0  0
 28 29  1  0  0  0
  8  9  1  0  0  0
 18 19  1  0  0  0
M  END
> <minimizedAffinity>
-9.17422

$$$$
