CHEMBL2018880


 26 28  0  0  0  0  0  0  0  0999 V2000
  -12.7626    2.7959  -15.2233 C   0  0  0  0  0  0  0  0  0  0  0  0
  -13.1226    2.0880  -14.0692 C   0  0  0  0  0  0  0  0  0  0  0  0
  -14.3377    1.4406  -13.9436 C   0  0  0  0  0  0  0  0  0  0  0  0
  -14.5235    0.6818  -12.8615 N   0  0  0  0  0  0  0  0  0  0  0  0
  -15.6531   -0.0247  -12.8106 C   0  0  0  0  0  0  0  0  0  0  0  0
  -16.6185   -0.0103  -13.7264 N   0  0  0  0  0  0  0  0  0  0  0  0
  -16.4491    0.8341  -14.7665 C   0  0  0  0  0  0  0  0  0  0  0  0
  -15.2856    1.5819  -14.9608 C   0  0  0  0  0  0  0  0  0  0  0  0
  -14.9940    2.4185  -16.0619 C   0  0  0  0  0  0  0  0  0  0  0  0
  -13.7289    3.0079  -16.2157 C   0  0  0  0  0  0  0  0  0  0  0  0
  -11.1652    4.4224  -14.5692 C   0  0  0  0  0  0  0  0  0  0  0  0
  -11.4911    3.2867  -15.3776 O   0  0  0  0  0  0  0  0  0  0  0  0
  -13.6291    3.7114  -17.3835 O   0  0  0  0  0  0  0  0  0  0  0  0
  -14.5880    4.7158  -17.6761 C   0  0  0  0  0  0  0  0  0  0  0  0
  -17.4855    0.9353  -15.7086 O   0  0  0  0  0  0  0  0  0  0  0  0
  -18.6763    1.4905  -15.2650 C   0  0  0  0  0  0  0  0  0  0  0  0
  -18.7675    2.8440  -14.9290 C   0  0  0  0  0  0  0  0  0  0  0  0
  -19.9106    3.3314  -14.3161 C   0  0  0  0  0  0  0  0  0  0  0  0
  -21.0089    2.4960  -14.1311 C   0  0  0  0  0  0  0  0  0  0  0  0
  -20.9977    1.1800  -14.6031 C   0  0  0  0  0  0  0  0  0  0  0  0
  -19.8116    0.6673  -15.1618 C   0  0  0  0  0  0  0  0  0  0  0  0
  -22.1420    0.3504  -14.5590 N   0  0  0  0  0  0  0  0  0  0  0  0
  -22.7073   -0.2231  -13.4360 C   0  0  0  0  0  0  0  0  0  0  0  0
  -24.0029   -0.9495  -13.7083 C   0  0  0  0  0  0  0  0  0  0  0  0
  -22.2926   -0.1599  -12.2813 O   0  0  0  0  0  0  0  0  0  0  0  0
  -22.6133    0.1949  -15.4437 H   0  0  0  0  0  0  0  0  0  0  0  0
 11 12  1  0  0  0
 12  1  1  0  0  0
  1  2  1  0  0  0
  1 10  2  0  0  0
  2  3  2  0  0  0
  3  4  1  0  0  0
  3  8  1  0  0  0
  4  5  2  0  0  0
  5  6  1  0  0  0
  6  7  2  0  0  0
  7 15  1  0  0  0
  7  8  1  0  0  0
 15 16  1  0  0  0
 16 17  1  0  0  0
 16 21  2  0  0  0
 17 18  2  0  0  0
 18 19  1  0  0  0
 19 20  2  0  0  0
 20 22  1  0  0  0
 20 21  1  0  0  0
 22 23  1  0  0  0
 22 26  1  0  0  0
 23 24  1  0  0  0
 23 25  2  0  0  0
  8  9  2  0  0  0
  9 10  1  0  0  0
 10 13  1  0  0  0
 13 14  1  0  0  0
M  END
> <minimizedAffinity>
-7.54863

$$$$
