CHEMBL3612325


 32 35  0  0  0  0  0  0  0  0999 V2000
  -23.8061    1.0811  -12.0767 O   0  0  0  0  0  0  0  0  0  0  0  0
  -23.8247    0.2830  -13.0068 C   0  0  0  0  0  0  0  0  0  0  0  0
  -24.6658   -0.8191  -13.0672 N   0  0  0  0  0  0  0  0  0  0  0  0
  -22.9842    0.3514  -14.1064 N   0  0  0  0  0  0  0  0  0  0  0  0
  -24.4606   -1.5121  -13.7708 H   0  0  0  0  0  0  0  0  0  0  0  0
  -23.1657   -0.2910  -14.8615 H   0  0  0  0  0  0  0  0  0  0  0  0
  -25.5901   -1.1989  -12.0640 C   0  0  0  0  0  0  0  0  0  0  0  0
  -25.2171   -1.5140  -10.7547 C   0  0  0  0  0  0  0  0  0  0  0  0
  -26.1561   -1.9827   -9.8313 C   0  0  0  0  0  0  0  0  0  0  0  0
  -27.4968   -2.1110  -10.1942 C   0  0  0  0  0  0  0  0  0  0  0  0
  -27.8857   -1.7587  -11.4870 C   0  0  0  0  0  0  0  0  0  0  0  0
  -26.9408   -1.2961  -12.4145 C   0  0  0  0  0  0  0  0  0  0  0  0
  -28.6744   -2.7919   -9.0440 S   0  0  0  0  0  0  0  0  0  0  0  0
  -28.3012   -1.8849   -7.5618 C   0  0  0  0  0  0  0  0  0  0  0  0
  -27.9493   -0.5357   -7.6070 C   0  0  0  0  0  0  0  0  0  0  0  0
  -27.6204    0.1128   -6.4338 C   0  0  0  0  0  0  0  0  0  0  0  0
  -27.6040   -0.4524   -5.2156 N   0  0  0  0  0  0  0  0  0  0  0  0
  -27.9396   -1.7694   -5.1682 C   0  0  0  0  0  0  0  0  0  0  0  0
  -27.9769   -2.5440   -3.9721 C   0  0  0  0  0  0  0  0  0  0  0  0
  -28.3459   -3.8480   -4.2006 C   0  0  0  0  0  0  0  0  0  0  0  0
  -28.6410   -4.1460   -5.8549 S   0  0  0  0  0  0  0  0  0  0  0  0
  -28.2869   -2.5134   -6.3005 C   0  0  0  0  0  0  0  0  0  0  0  0
  -21.9252    1.2715  -14.2963 C   0  0  0  0  0  0  0  0  0  0  0  0
  -22.0757    2.6592  -14.2188 C   0  0  0  0  0  0  0  0  0  0  0  0
  -20.9881    3.5145  -14.4057 C   0  0  0  0  0  0  0  0  0  0  0  0
  -19.7255    2.9917  -14.6577 C   0  0  0  0  0  0  0  0  0  0  0  0
  -19.5399    1.6052  -14.7243 C   0  0  0  0  0  0  0  0  0  0  0  0
  -20.6500    0.7532  -14.5532 C   0  0  0  0  0  0  0  0  0  0  0  0
  -18.1698    1.0195  -14.9519 C   0  0  0  0  0  0  0  0  0  0  0  0
  -17.4803    1.6135  -15.9652 F   0  0  0  0  0  0  0  0  0  0  0  0
  -17.3764    1.1232  -13.8498 F   0  0  0  0  0  0  0  0  0  0  0  0
  -18.2139   -0.3072  -15.2554 F   0  0  0  0  0  0  0  0  0  0  0  0
  1  2  2  0  0  0
  2  3  1  0  0  0
  2  4  1  0  0  0
  3  7  1  0  0  0
  3  5  1  0  0  0
  7  8  1  0  0  0
  7 12  2  0  0  0
  8  9  2  0  0  0
  9 10  1  0  0  0
 10 13  1  0  0  0
 10 11  2  0  0  0
 13 14  1  0  0  0
 14 15  1  0  0  0
 14 22  2  0  0  0
 15 16  2  0  0  0
 16 17  1  0  0  0
 17 18  2  0  0  0
 18 19  1  0  0  0
 18 22  1  0  0  0
 19 20  2  0  0  0
 20 21  1  0  0  0
 21 22  1  0  0  0
 11 12  1  0  0  0
  4 23  1  0  0  0
  4  6  1  0  0  0
 23 24  1  0  0  0
 23 28  2  0  0  0
 24 25  2  0  0  0
 25 26  1  0  0  0
 26 27  2  0  0  0
 27 29  1  0  0  0
 27 28  1  0  0  0
 29 30  1  0  0  0
 29 31  1  0  0  0
 29 32  1  0  0  0
M  END
> <minimizedAffinity>
-8.89199

$$$$
