CHEMBL245549


 35 38  0  0  0  0  0  0  0  0999 V2000
  -12.1162   -2.9397  -13.2407 C   0  0  0  0  0  0  0  0  0  0  0  0
  -13.3096   -2.0286  -13.2318 C   0  0  0  0  0  0  0  0  0  0  0  0
  -13.1757   -0.7612  -13.8236 C   0  0  0  0  0  0  0  0  0  0  0  0
  -14.2739    0.0858  -13.9830 C   0  0  0  0  0  0  0  0  0  0  0  0
  -15.5404   -0.3365  -13.6052 C   0  0  0  0  0  0  0  0  0  0  0  0
  -15.6589   -1.5683  -12.9589 C   0  0  0  0  0  0  0  0  0  0  0  0
  -14.5498   -2.3899  -12.6740 C   0  0  0  0  0  0  0  0  0  0  0  0
  -16.7276    0.3963  -13.8320 N   0  0  0  0  0  0  0  0  0  0  0  0
  -17.1043    0.9877  -15.0216 C   0  0  0  0  0  0  0  0  0  0  0  0
  -16.4504    1.0261  -16.0614 O   0  0  0  0  0  0  0  0  0  0  0  0
  -17.3314    0.5069  -13.0275 H   0  0  0  0  0  0  0  0  0  0  0  0
  -18.4297    1.6717  -15.0343 C   0  0  0  0  0  0  0  0  0  0  0  0
  -18.6100    2.9919  -15.4597 C   0  0  0  0  0  0  0  0  0  0  0  0
  -19.8728    3.5870  -15.3635 C   0  0  0  0  0  0  0  0  0  0  0  0
  -20.9576    2.8662  -14.8564 C   0  0  0  0  0  0  0  0  0  0  0  0
  -20.7976    1.5383  -14.4379 C   0  0  0  0  0  0  0  0  0  0  0  0
  -19.5250    0.9556  -14.5255 C   0  0  0  0  0  0  0  0  0  0  0  0
  -21.9513    0.7298  -13.8989 C   0  0  0  0  0  0  0  0  0  0  0  0
  -23.1592    1.3412  -14.0497 F   0  0  0  0  0  0  0  0  0  0  0  0
  -22.0673   -0.4781  -14.5173 F   0  0  0  0  0  0  0  0  0  0  0  0
  -21.8318    0.4618  -12.5700 F   0  0  0  0  0  0  0  0  0  0  0  0
  -14.7201   -3.5648  -11.8998 N   0  0  0  0  0  0  0  0  0  0  0  0
  -15.3048   -3.4413  -11.0736 H   0  0  0  0  0  0  0  0  0  0  0  0
  -14.9212   -4.8889  -12.3959 C   0  0  0  0  0  0  0  0  0  0  0  0
  -15.6898   -5.0543  -13.5070 N   0  0  0  0  0  0  0  0  0  0  0  0
  -15.7692   -6.2607  -14.0920 C   0  0  0  0  0  0  0  0  0  0  0  0
  -15.1174   -7.3700  -13.6134 C   0  0  0  0  0  0  0  0  0  0  0  0
  -14.3697   -7.2279  -12.4483 C   0  0  0  0  0  0  0  0  0  0  0  0
  -14.2403   -5.9761  -11.8034 C   0  0  0  0  0  0  0  0  0  0  0  0
  -13.3930   -5.8294  -10.5974 C   0  0  0  0  0  0  0  0  0  0  0  0
  -12.0337   -6.1007  -10.6089 C   0  0  0  0  0  0  0  0  0  0  0  0
  -11.3395   -5.8463   -9.4482 C   0  0  0  0  0  0  0  0  0  0  0  0
  -11.9127   -5.3762   -8.3298 N   0  0  0  0  0  0  0  0  0  0  0  0
  -13.2327   -5.1678   -8.4021 C   0  0  0  0  0  0  0  0  0  0  0  0
  -14.0103   -5.3762   -9.4778 N   0  0  0  0  0  0  0  0  0  0  0  0
  1  2  1  0  0  0
  2  3  1  0  0  0
  2  7  2  0  0  0
  3  4  2  0  0  0
  4  5  1  0  0  0
  5  8  1  0  0  0
  5  6  2  0  0  0
  8  9  1  0  0  0
  8 11  1  0  0  0
  9 10  2  0  0  0
  9 12  1  0  0  0
 12 13  1  0  0  0
 12 17  2  0  0  0
 13 14  2  0  0  0
 14 15  1  0  0  0
 15 16  2  0  0  0
 16 18  1  0  0  0
 16 17  1  0  0  0
 18 19  1  0  0  0
 18 20  1  0  0  0
 18 21  1  0  0  0
  6  7  1  0  0  0
  7 22  1  0  0  0
 22 24  1  0  0  0
 22 23  1  0  0  0
 24 25  1  0  0  0
 24 29  2  0  0  0
 25 26  2  0  0  0
 26 27  1  0  0  0
 27 28  2  0  0  0
 28 29  1  0  0  0
 29 30  1  0  0  0
 30 31  1  0  0  0
 30 35  2  0  0  0
 31 32  2  0  0  0
 32 33  1  0  0  0
 33 34  2  0  0  0
 34 35  1  0  0  0
M  END
> <minimizedAffinity>
-10.04857

$$$$
