CHEMBL3962233


 45 49  0  0  0  0  0  0  0  0999 V2000
  -29.0148   12.4872  -13.2232 C   0  0  0  0  0  0  0  0  0  0  0  0
  -27.8103   12.3956  -13.9185 C   0  0  0  0  0  0  0  0  0  0  0  0
  -26.5679   12.4329  -13.2487 C   0  0  0  0  0  0  0  0  0  0  0  0
  -25.3257   12.4263  -13.9088 C   0  0  0  0  0  0  0  0  0  0  0  0
  -24.1627   12.3447  -13.2482 N   0  0  0  0  0  0  0  0  0  0  0  0
  -24.2421   12.3245  -11.9161 C   0  0  0  0  0  0  0  0  0  0  0  0
  -25.3631   12.4066  -11.1832 N   0  0  0  0  0  0  0  0  0  0  0  0
  -26.5239   12.4550  -11.8533 C   0  0  0  0  0  0  0  0  0  0  0  0
  -27.7299   12.5320  -11.1648 C   0  0  0  0  0  0  0  0  0  0  0  0
  -28.9748   12.5443  -11.8215 C   0  0  0  0  0  0  0  0  0  0  0  0
  -30.4895   11.7116  -14.9768 C   0  0  0  0  0  0  0  0  0  0  0  0
  -30.2231   12.5327  -13.8498 O   0  0  0  0  0  0  0  0  0  0  0  0
  -25.3191   12.5809  -15.3126 N   0  0  0  0  0  0  0  0  0  0  0  0
  -25.9419   13.3391  -15.5756 H   0  0  0  0  0  0  0  0  0  0  0  0
  -24.2866   12.3586  -16.2332 C   0  0  0  0  0  0  0  0  0  0  0  0
  -24.5148   12.6589  -17.5773 C   0  0  0  0  0  0  0  0  0  0  0  0
  -23.6077   12.2809  -18.5669 C   0  0  0  0  0  0  0  0  0  0  0  0
  -22.4548   11.5506  -18.2501 C   0  0  0  0  0  0  0  0  0  0  0  0
  -22.1979   11.2927  -16.8995 C   0  0  0  0  0  0  0  0  0  0  0  0
  -20.7935   10.4007  -16.4148 Cl  0  0  0  0  0  0  0  0  0  0  0  0
  -23.1073   11.6834  -15.9055 C   0  0  0  0  0  0  0  0  0  0  0  0
  -21.5941   11.0249  -19.2516 N   0  0  0  0  0  0  0  0  0  0  0  0
  -20.2440   11.2936  -19.3532 C   0  0  0  0  0  0  0  0  0  0  0  0
  -19.6018   11.9436  -18.5349 O   0  0  0  0  0  0  0  0  0  0  0  0
  -19.6832   10.8126  -20.5295 N   0  0  0  0  0  0  0  0  0  0  0  0
  -22.0489   10.5419  -20.0151 H   0  0  0  0  0  0  0  0  0  0  0  0
  -20.3078   10.8045  -21.3221 H   0  0  0  0  0  0  0  0  0  0  0  0
  -18.3240   11.1120  -20.8029 C   0  0  0  0  0  0  0  0  0  0  0  0
  -17.2907   10.3814  -20.2016 C   0  0  0  0  0  0  0  0  0  0  0  0
  -15.9641   10.7912  -20.3315 C   0  0  0  0  0  0  0  0  0  0  0  0
  -15.6721   11.9316  -21.0721 C   0  0  0  0  0  0  0  0  0  0  0  0
  -14.0472   12.4872  -21.1739 Cl  0  0  0  0  0  0  0  0  0  0  0  0
  -16.6903   12.6367  -21.7161 C   0  0  0  0  0  0  0  0  0  0  0  0
  -18.0197   12.2117  -21.6041 C   0  0  0  0  0  0  0  0  0  0  0  0
  -30.0620   12.6586  -10.9748 O   0  0  0  0  0  0  0  0  0  0  0  0
  -31.3314   12.4891  -11.6136 C   0  0  0  0  0  0  0  0  0  0  0  0
  -32.2095   11.4921  -10.8600 C   0  0  0  0  0  0  0  0  0  0  0  0
  -32.4369   10.2349  -11.7198 C   0  0  0  0  0  0  0  0  0  0  0  0
  -33.7966   10.1567  -12.2745 N   0  0  0  0  0  0  0  0  0  0  0  0
  -33.9998   11.0989  -13.3896 C   0  0  0  0  0  0  0  0  0  0  0  0
  -35.4236   11.0022  -13.9765 C   0  0  0  0  0  0  0  0  0  0  0  0
  -35.8018    9.6558  -14.4422 N   0  0  0  0  0  0  0  0  0  0  0  0
  -35.0896    9.2956  -15.6660 C   0  0  0  0  0  0  0  0  0  0  0  0
  -35.5443    8.6883  -13.3552 C   0  0  0  0  0  0  0  0  0  0  0  0
  -34.1424    8.7847  -12.6950 C   0  0  0  0  0  0  0  0  0  0  0  0
 11 12  1  0  0  0
 12  1  1  0  0  0
  1  2  1  0  0  0
  1 10  2  0  0  0
  2  3  2  0  0  0
  3  4  1  0  0  0
  3  8  1  0  0  0
  4 13  1  0  0  0
  4  5  2  0  0  0
 13 15  1  0  0  0
 13 14  1  0  0  0
 15 16  1  0  0  0
 15 21  2  0  0  0
 16 17  2  0  0  0
 17 18  1  0  0  0
 18 22  1  0  0  0
 18 19  2  0  0  0
 22 23  1  0  0  0
 22 26  1  0  0  0
 23 24  2  0  0  0
 23 25  1  0  0  0
 25 28  1  0  0  0
 25 27  1  0  0  0
 28 29  1  0  0  0
 28 34  2  0  0  0
 29 30  2  0  0  0
 30 31  1  0  0  0
 31 32  1  0  0  0
 31 33  2  0  0  0
 33 34  1  0  0  0
 19 20  1  0  0  0
 19 21  1  0  0  0
  5  6  1  0  0  0
  6  7  2  0  0  0
  7  8  1  0  0  0
  8  9  2  0  0  0
  9 10  1  0  0  0
 10 35  1  0  0  0
 35 36  1  0  0  0
 36 37  1  0  0  0
 37 38  1  0  0  0
 38 39  1  0  0  0
 39 40  1  0  0  0
 39 45  1  0  0  0
 40 41  1  0  0  0
 41 42  1  0  0  0
 42 43  1  0  0  0
 42 44  1  0  0  0
 44 45  1  0  0  0
M  END
> <minimizedAffinity>
-5.66000

$$$$
