CHEMBL1989708


 41 45  0  0  0  0  0  0  0  0999 V2000
  -21.6573    0.3418  -14.3765 C   0  0  0  0  0  0  0  0  0  0  0  0
  -20.8665   -0.7202  -14.7681 C   0  0  0  0  0  0  0  0  0  0  0  0
  -19.3200   -0.2625  -15.2575 S   0  0  0  0  0  0  0  0  0  0  0  0
  -19.6570    1.4238  -15.0788 C   0  0  0  0  0  0  0  0  0  0  0  0
  -18.7885    2.5056  -15.3595 C   0  0  0  0  0  0  0  0  0  0  0  0
  -19.3043    3.7616  -15.0928 C   0  0  0  0  0  0  0  0  0  0  0  0
  -20.5207    3.9987  -14.5771 N   0  0  0  0  0  0  0  0  0  0  0  0
  -21.3428    2.9712  -14.2873 C   0  0  0  0  0  0  0  0  0  0  0  0
  -22.5360    3.3710  -13.6970 N   0  0  0  0  0  0  0  0  0  0  0  0
  -20.9562    1.6255  -14.5561 C   0  0  0  0  0  0  0  0  0  0  0  0
  -22.4525    4.3515  -13.4456 H   0  0  0  0  0  0  0  0  0  0  0  0
  -22.8213    2.7655  -12.9373 H   0  0  0  0  0  0  0  0  0  0  0  0
  -25.4532   -0.7627  -12.6989 C   0  0  0  0  0  0  0  0  0  0  0  0
  -25.0819   -1.1930  -13.9732 C   0  0  0  0  0  0  0  0  0  0  0  0
  -23.8572   -0.8112  -14.5205 C   0  0  0  0  0  0  0  0  0  0  0  0
  -22.9930    0.0496  -13.8268 C   0  0  0  0  0  0  0  0  0  0  0  0
  -23.4414    0.5875  -12.6142 C   0  0  0  0  0  0  0  0  0  0  0  0
  -24.6570    0.1742  -12.0423 C   0  0  0  0  0  0  0  0  0  0  0  0
  -27.6899   -2.1504  -10.1973 N   0  0  0  0  0  0  0  0  0  0  0  0
  -26.5064   -1.6218  -10.6836 C   0  0  0  0  0  0  0  0  0  0  0  0
  -25.5068   -1.4024  -10.0089 O   0  0  0  0  0  0  0  0  0  0  0  0
  -26.5808   -1.3173  -12.0420 N   0  0  0  0  0  0  0  0  0  0  0  0
  -28.3483   -2.4932  -10.8814 H   0  0  0  0  0  0  0  0  0  0  0  0
  -27.4860   -0.9991  -12.3552 H   0  0  0  0  0  0  0  0  0  0  0  0
  -27.7505   -0.5309   -5.5198 C   0  0  0  0  0  0  0  0  0  0  0  0
  -27.9913   -1.6194   -6.5238 C   0  0  0  0  0  0  0  0  0  0  0  0
  -28.4736   -2.8617   -6.1000 C   0  0  0  0  0  0  0  0  0  0  0  0
  -28.6908   -3.8761   -7.0214 C   0  0  0  0  0  0  0  0  0  0  0  0
  -28.4295   -3.6587   -8.3694 C   0  0  0  0  0  0  0  0  0  0  0  0
  -27.9629   -2.4246   -8.8321 C   0  0  0  0  0  0  0  0  0  0  0  0
  -27.7429   -1.4048   -7.8930 C   0  0  0  0  0  0  0  0  0  0  0  0
  -17.4462    2.3273  -15.8812 C   0  0  0  0  0  0  0  0  0  0  0  0
  -16.5916    1.2026  -15.9362 C   0  0  0  0  0  0  0  0  0  0  0  0
  -15.4145    1.4703  -16.5060 N   0  0  0  0  0  0  0  0  0  0  0  0
  -15.5006    2.7751  -16.8128 N   0  0  0  0  0  0  0  0  0  0  0  0
  -16.7055    3.3276  -16.4887 C   0  0  0  0  0  0  0  0  0  0  0  0
  -14.3745    3.4392  -17.4319 C   0  0  0  0  0  0  0  0  0  0  0  0
  -13.2114    3.6915  -16.4688 C   0  0  0  0  0  0  0  0  0  0  0  0
  -13.4978    4.7619  -15.4206 C   0  0  0  0  0  0  0  0  0  0  0  0
  -12.8888    2.4671  -15.7955 O   0  0  0  0  0  0  0  0  0  0  0  0
  -13.5780    2.2999  -15.1277 H   0  0  0  0  0  0  0  0  0  0  0  0
 25 26  1  0  0  0
 26 27  1  0  0  0
 26 31  2  0  0  0
 27 28  2  0  0  0
 28 29  1  0  0  0
 29 30  2  0  0  0
 30 19  1  0  0  0
 30 31  1  0  0  0
 19 20  1  0  0  0
 19 23  1  0  0  0
 20 21  2  0  0  0
 20 22  1  0  0  0
 22 13  1  0  0  0
 22 24  1  0  0  0
 13 14  1  0  0  0
 13 18  2  0  0  0
 14 15  2  0  0  0
 15 16  1  0  0  0
 16  1  1  0  0  0
 16 17  2  0  0  0
  1  2  2  0  0  0
  1 10  1  0  0  0
  2  3  1  0  0  0
  3  4  1  0  0  0
  4  5  1  0  0  0
  4 10  2  0  0  0
  5 32  1  0  0  0
  5  6  2  0  0  0
 32 33  1  0  0  0
 32 36  2  0  0  0
 33 34  2  0  0  0
 34 35  1  0  0  0
 35 37  1  0  0  0
 35 36  1  0  0  0
 37 38  1  0  0  0
 38 39  1  0  0  0
 38 40  1  0  0  0
 40 41  1  0  0  0
  6  7  1  0  0  0
  7  8  2  0  0  0
  8  9  1  0  0  0
  8 10  1  0  0  0
  9 11  1  0  0  0
  9 12  1  0  0  0
 17 18  1  0  0  0
M  END
> <minimizedAffinity>
-10.17926

$$$$
