CHEMBL4513608


 29 32  0  0  0  0  0  0  0  0999 V2000
  -29.7561   -4.8817   -5.8449 C   0  0  0  0  0  0  0  0  0  0  0  0
  -29.0733   -4.0956   -4.9198 C   0  0  0  0  0  0  0  0  0  0  0  0
  -28.4566   -2.9200   -5.3142 C   0  0  0  0  0  0  0  0  0  0  0  0
  -28.3649   -2.5622   -6.6348 C   0  0  0  0  0  0  0  0  0  0  0  0
  -27.8728   -1.3284   -6.8490 N   0  0  0  0  0  0  0  0  0  0  0  0
  -27.6223   -1.0012   -8.1265 C   0  0  0  0  0  0  0  0  0  0  0  0
  -27.8006   -1.8970   -9.1639 C   0  0  0  0  0  0  0  0  0  0  0  0
  -28.4126   -3.1079   -8.9624 N   0  0  0  0  0  0  0  0  0  0  0  0
  -28.7830   -3.4381   -7.6630 C   0  0  0  0  0  0  0  0  0  0  0  0
  -29.5270   -4.5868   -7.2181 C   0  0  0  0  0  0  0  0  0  0  0  0
  -27.1517   -1.5569  -10.4317 C   0  0  0  0  0  0  0  0  0  0  0  0
  -27.6602   -1.5916  -11.7463 C   0  0  0  0  0  0  0  0  0  0  0  0
  -26.7105   -1.4269  -12.6727 N   0  0  0  0  0  0  0  0  0  0  0  0
  -25.5857   -1.2922  -11.9495 N   0  0  0  0  0  0  0  0  0  0  0  0
  -24.3671   -0.8281  -12.5697 C   0  0  0  0  0  0  0  0  0  0  0  0
  -25.7773   -1.5201  -10.6153 C   0  0  0  0  0  0  0  0  0  0  0  0
  -30.5343   -5.9433   -5.3052 N   0  0  0  0  0  0  0  0  0  0  0  0
  -31.2649   -6.1706   -5.9791 H   0  0  0  0  0  0  0  0  0  0  0  0
  -29.8188   -7.1892   -4.9785 C   0  0  0  0  0  0  0  0  0  0  0  0
  -28.9755   -9.9670   -8.3289 C   0  0  0  0  0  0  0  0  0  0  0  0
  -28.0918   -9.8647   -7.2584 C   0  0  0  0  0  0  0  0  0  0  0  0
  -28.3425   -8.9559   -6.1943 C   0  0  0  0  0  0  0  0  0  0  0  0
  -29.4999   -8.1396   -6.1525 C   0  0  0  0  0  0  0  0  0  0  0  0
  -30.3910   -8.2727   -7.2443 C   0  0  0  0  0  0  0  0  0  0  0  0
  -30.1120   -9.1727   -8.3023 C   0  0  0  0  0  0  0  0  0  0  0  0
  -29.0610  -10.2100  -10.7075 C   0  0  0  0  0  0  0  0  0  0  0  0
  -28.8591  -10.7753   -9.4214 O   0  0  0  0  0  0  0  0  0  0  0  0
  -31.6281   -7.7013   -7.3875 O   0  0  0  0  0  0  0  0  0  0  0  0
  -32.7697   -8.5126   -7.1697 C   0  0  0  0  0  0  0  0  0  0  0  0
 26 27  1  0  0  0
 27 20  1  0  0  0
 20 21  1  0  0  0
 20 25  2  0  0  0
 21 22  2  0  0  0
 22 23  1  0  0  0
 23 19  1  0  0  0
 23 24  2  0  0  0
 19 17  1  0  0  0
 17  1  1  0  0  0
 17 18  1  0  0  0
  1  2  1  0  0  0
  1 10  2  0  0  0
  2  3  2  0  0  0
  3  4  1  0  0  0
  4  5  1  0  0  0
  4  9  2  0  0  0
  5  6  2  0  0  0
  6  7  1  0  0  0
  7 11  1  0  0  0
  7  8  2  0  0  0
 11 12  1  0  0  0
 11 16  2  0  0  0
 12 13  2  0  0  0
 13 14  1  0  0  0
 14 15  1  0  0  0
 14 16  1  0  0  0
  8  9  1  0  0  0
  9 10  1  0  0  0
 24 28  1  0  0  0
 24 25  1  0  0  0
 28 29  1  0  0  0
M  END
> <minimizedAffinity>
-7.70771

$$$$
