CHEMBL458997


 36 39  0  0  0  0  0  0  0  0999 V2000
  -13.5043   -1.5643  -13.5842 C   0  0  0  0  0  0  0  0  0  0  0  0
  -14.1785   -0.4030  -13.7678 N   0  0  0  0  0  0  0  0  0  0  0  0
  -13.8337    0.4300  -14.7482 C   0  0  0  0  0  0  0  0  0  0  0  0
  -12.8201    0.1686  -15.5880 N   0  0  0  0  0  0  0  0  0  0  0  0
  -12.1483   -0.9781  -15.3959 C   0  0  0  0  0  0  0  0  0  0  0  0
  -12.4478   -1.8905  -14.4179 C   0  0  0  0  0  0  0  0  0  0  0  0
  -11.5831   -3.3699  -14.3136 Cl  0  0  0  0  0  0  0  0  0  0  0  0
  -13.8624   -2.4088  -12.4880 N   0  0  0  0  0  0  0  0  0  0  0  0
  -13.0217   -2.7903  -12.0464 H   0  0  0  0  0  0  0  0  0  0  0  0
  -15.1965   -4.1978  -11.3772 C   0  0  0  0  0  0  0  0  0  0  0  0
  -16.1242   -5.2508  -11.5033 C   0  0  0  0  0  0  0  0  0  0  0  0
  -16.8722   -5.4103  -12.6682 C   0  0  0  0  0  0  0  0  0  0  0  0
  -16.7351   -4.4939  -13.6930 C   0  0  0  0  0  0  0  0  0  0  0  0
  -15.7999   -3.4712  -13.5778 C   0  0  0  0  0  0  0  0  0  0  0  0
  -14.9342   -3.3528  -12.4773 C   0  0  0  0  0  0  0  0  0  0  0  0
  -13.1033   -5.0664   -8.3531 C   0  0  0  0  0  0  0  0  0  0  0  0
  -13.8573   -5.1378   -9.5783 N   0  0  0  0  0  0  0  0  0  0  0  0
  -14.5592   -4.0420  -10.0379 C   0  0  0  0  0  0  0  0  0  0  0  0
  -14.6204   -2.9792   -9.4305 O   0  0  0  0  0  0  0  0  0  0  0  0
  -13.6328   -5.8711  -10.2431 H   0  0  0  0  0  0  0  0  0  0  0  0
  -14.5562    1.6189  -14.8672 N   0  0  0  0  0  0  0  0  0  0  0  0
  -14.0161    2.2746  -15.4000 H   0  0  0  0  0  0  0  0  0  0  0  0
  -15.9512    1.7156  -15.0713 C   0  0  0  0  0  0  0  0  0  0  0  0
  -16.7560    0.5762  -14.8873 C   0  0  0  0  0  0  0  0  0  0  0  0
  -18.1486    0.6183  -14.9818 C   0  0  0  0  0  0  0  0  0  0  0  0
  -18.8116    1.7986  -15.2926 C   0  0  0  0  0  0  0  0  0  0  0  0
  -18.0095    2.9269  -15.5230 C   0  0  0  0  0  0  0  0  0  0  0  0
  -16.6007    2.9047  -15.4370 C   0  0  0  0  0  0  0  0  0  0  0  0
  -20.1875    1.8741  -15.3580 N   0  0  0  0  0  0  0  0  0  0  0  0
  -20.9175    3.1504  -15.3065 C   0  0  0  0  0  0  0  0  0  0  0  0
  -21.7825    3.2446  -14.0422 C   0  0  0  0  0  0  0  0  0  0  0  0
  -22.6348    2.0973  -13.8943 O   0  0  0  0  0  0  0  0  0  0  0  0
  -21.8405    0.9029  -13.8054 C   0  0  0  0  0  0  0  0  0  0  0  0
  -20.9989    0.6811  -15.0740 C   0  0  0  0  0  0  0  0  0  0  0  0
  -16.0515    4.1442  -15.6436 O   0  0  0  0  0  0  0  0  0  0  0  0
  -15.5461    4.4524  -16.9308 C   0  0  0  0  0  0  0  0  0  0  0  0
 16 17  1  0  0  0
 17 18  1  0  0  0
 17 20  1  0  0  0
 18 19  2  0  0  0
 18 10  1  0  0  0
 10 11  1  0  0  0
 10 15  2  0  0  0
 11 12  2  0  0  0
 12 13  1  0  0  0
 13 14  2  0  0  0
 14 15  1  0  0  0
 15  8  1  0  0  0
  8  1  1  0  0  0
  8  9  1  0  0  0
  1  2  1  0  0  0
  1  6  2  0  0  0
  2  3  2  0  0  0
  3 21  1  0  0  0
  3  4  1  0  0  0
 21 23  1  0  0  0
 21 22  1  0  0  0
 23 24  1  0  0  0
 23 28  2  0  0  0
 24 25  2  0  0  0
 25 26  1  0  0  0
 26 29  1  0  0  0
 26 27  2  0  0  0
 29 30  1  0  0  0
 29 34  1  0  0  0
 30 31  1  0  0  0
 31 32  1  0  0  0
 32 33  1  0  0  0
 33 34  1  0  0  0
 27 28  1  0  0  0
 28 35  1  0  0  0
 35 36  1  0  0  0
  4  5  2  0  0  0
  5  6  1  0  0  0
  6  7  1  0  0  0
M  END
> <minimizedAffinity>
-8.57694

$$$$
