CHEMBL3628803


 29 31  0  0  0  0  0  0  0  0999 V2000
  -15.8929   -1.1398  -12.2151 O   0  0  0  0  0  0  0  0  0  0  0  0
  -15.0198   -0.3810  -12.9890 C   0  0  0  0  0  0  0  0  0  0  0  0
  -13.7042   -0.6771  -12.9570 N   0  0  0  0  0  0  0  0  0  0  0  0
  -12.9401    0.0538  -13.7614 C   0  0  0  0  0  0  0  0  0  0  0  0
  -13.3578    1.0329  -14.5740 N   0  0  0  0  0  0  0  0  0  0  0  0
  -14.6667    1.3207  -14.5691 C   0  0  0  0  0  0  0  0  0  0  0  0
  -15.1859    2.2853  -15.4427 C   0  0  0  0  0  0  0  0  0  0  0  0
  -16.5639    2.6221  -15.5174 C   0  0  0  0  0  0  0  0  0  0  0  0
  -17.4487    2.0141  -14.6237 C   0  0  0  0  0  0  0  0  0  0  0  0
  -16.9302    1.0409  -13.7493 C   0  0  0  0  0  0  0  0  0  0  0  0
  -15.5690    0.6601  -13.7442 C   0  0  0  0  0  0  0  0  0  0  0  0
  -16.8886    3.3182  -16.6509 O   0  0  0  0  0  0  0  0  0  0  0  0
  -15.9080    4.1702  -17.2260 C   0  0  0  0  0  0  0  0  0  0  0  0
  -18.7903    2.1124  -14.4319 O   0  0  0  0  0  0  0  0  0  0  0  0
  -19.7240    1.2580  -15.0462 C   0  0  0  0  0  0  0  0  0  0  0  0
  -15.1256   -5.2885  -12.0809 C   0  0  0  0  0  0  0  0  0  0  0  0
  -15.7446   -4.6443  -13.1701 C   0  0  0  0  0  0  0  0  0  0  0  0
  -16.0011   -3.2679  -13.1793 C   0  0  0  0  0  0  0  0  0  0  0  0
  -15.6521   -2.4933  -12.0849 C   0  0  0  0  0  0  0  0  0  0  0  0
  -15.0199   -3.0958  -10.9966 C   0  0  0  0  0  0  0  0  0  0  0  0
  -14.7396   -4.4833  -10.9831 C   0  0  0  0  0  0  0  0  0  0  0  0
  -14.0339   -5.0522   -9.7805 C   0  0  0  0  0  0  0  0  0  0  0  0
  -14.0898   -7.3307  -12.9860 C   0  0  0  0  0  0  0  0  0  0  0  0
  -13.3497   -6.8321  -13.8183 O   0  0  0  0  0  0  0  0  0  0  0  0
  -14.8737   -6.6702  -12.0786 N   0  0  0  0  0  0  0  0  0  0  0  0
  -15.3150   -7.2481  -11.3902 H   0  0  0  0  0  0  0  0  0  0  0  0
  -14.2892   -8.6706  -12.8691 O   0  0  0  0  0  0  0  0  0  0  0  0
  -12.2781   -9.9186  -12.4484 C   0  0  0  0  0  0  0  0  0  0  0  0
  -13.5059   -9.2799  -11.8245 C   0  0  0  0  0  0  0  0  0  0  0  0
 28 29  1  0  0  0
 29 27  1  0  0  0
 27 23  1  0  0  0
 23 24  2  0  0  0
 23 25  1  0  0  0
 25 16  1  0  0  0
 25 26  1  0  0  0
 16 17  1  0  0  0
 16 21  2  0  0  0
 17 18  2  0  0  0
 18 19  1  0  0  0
 19  1  1  0  0  0
 19 20  2  0  0  0
  1  2  1  0  0  0
  2  3  1  0  0  0
  2 11  2  0  0  0
  3  4  2  0  0  0
  4  5  1  0  0  0
  5  6  2  0  0  0
  6  7  1  0  0  0
  6 11  1  0  0  0
  7  8  2  0  0  0
  8 12  1  0  0  0
  8  9  1  0  0  0
 12 13  1  0  0  0
  9 14  1  0  0  0
  9 10  2  0  0  0
 14 15  1  0  0  0
 10 11  1  0  0  0
 20 21  1  0  0  0
 21 22  1  0  0  0
M  END
> <minimizedAffinity>
-7.12278

$$$$
