CHEMBL3671529


 37 39  0  0  0  0  0  0  0  0999 V2000
  -17.9909    0.9508  -15.4674 C   0  0  0  0  0  0  0  0  0  0  0  0
  -19.2679    0.5109  -15.1150 C   0  0  0  0  0  0  0  0  0  0  0  0
  -20.2746    1.4394  -14.7769 C   0  0  0  0  0  0  0  0  0  0  0  0
  -21.5633    1.0863  -14.3380 C   0  0  0  0  0  0  0  0  0  0  0  0
  -22.4948    2.0077  -14.0432 N   0  0  0  0  0  0  0  0  0  0  0  0
  -22.1231    3.2864  -14.1527 C   0  0  0  0  0  0  0  0  0  0  0  0
  -20.9218    3.7367  -14.5490 N   0  0  0  0  0  0  0  0  0  0  0  0
  -20.0083    2.8120  -14.8646 C   0  0  0  0  0  0  0  0  0  0  0  0
  -18.7479    3.2273  -15.2947 C   0  0  0  0  0  0  0  0  0  0  0  0
  -17.7355    2.3178  -15.6219 C   0  0  0  0  0  0  0  0  0  0  0  0
  -16.2150   -0.2650  -14.3161 C   0  0  0  0  0  0  0  0  0  0  0  0
  -15.5509   -1.2929  -14.2317 O   0  0  0  0  0  0  0  0  0  0  0  0
  -16.9420    0.0124  -15.4507 N   0  0  0  0  0  0  0  0  0  0  0  0
  -17.0881   -0.8423  -15.9770 H   0  0  0  0  0  0  0  0  0  0  0  0
  -16.4590    0.2353  -11.9425 C   0  0  0  0  0  0  0  0  0  0  0  0
  -16.3225    0.6970  -13.1902 C   0  0  0  0  0  0  0  0  0  0  0  0
  -21.8717   -0.2782  -14.1424 N   0  0  0  0  0  0  0  0  0  0  0  0
  -21.0271   -0.8425  -14.0913 H   0  0  0  0  0  0  0  0  0  0  0  0
  -22.9413   -0.8378  -13.4137 C   0  0  0  0  0  0  0  0  0  0  0  0
  -22.8292   -1.1409  -12.0520 C   0  0  0  0  0  0  0  0  0  0  0  0
  -23.9597   -1.4706  -11.2978 C   0  0  0  0  0  0  0  0  0  0  0  0
  -25.2137   -1.5083  -11.9053 C   0  0  0  0  0  0  0  0  0  0  0  0
  -26.7523   -1.8235  -10.8538 Br  0  0  0  0  0  0  0  0  0  0  0  0
  -25.3447   -1.2699  -13.2688 C   0  0  0  0  0  0  0  0  0  0  0  0
  -24.2121   -0.9314  -14.0041 C   0  0  0  0  0  0  0  0  0  0  0  0
  -24.3486   -0.6583  -15.3121 F   0  0  0  0  0  0  0  0  0  0  0  0
  -16.5475    2.8848  -16.0214 O   0  0  0  0  0  0  0  0  0  0  0  0
  -16.5114    4.3191  -15.9802 C   0  0  0  0  0  0  0  0  0  0  0  0
  -15.3556    4.8608  -16.8293 C   0  0  0  0  0  0  0  0  0  0  0  0
  -14.2016    5.2081  -16.0145 N   0  0  0  0  0  0  0  0  0  0  0  0
  -13.2033    4.2972  -15.7425 C   0  0  0  0  0  0  0  0  0  0  0  0
  -13.1754    3.1666  -16.2203 O   0  0  0  0  0  0  0  0  0  0  0  0
  -14.1316    6.1181  -15.5664 H   0  0  0  0  0  0  0  0  0  0  0  0
  -12.1697    4.7793  -14.7206 C   0  0  0  0  0  0  0  0  0  0  0  0
  -12.1714    3.9241  -13.5222 N   0  0  0  0  0  0  0  0  0  0  0  0
  -13.1175    3.9231  -13.1347 H   0  0  0  0  0  0  0  0  0  0  0  0
  -11.5962    4.3796  -12.8111 H   0  0  0  0  0  0  0  0  0  0  0  0
 15 16  2  0  0  0
 16 11  1  0  0  0
 11 12  2  0  0  0
 11 13  1  0  0  0
 13  1  1  0  0  0
 13 14  1  0  0  0
  1  2  1  0  0  0
  1 10  2  0  0  0
  2  3  2  0  0  0
  3  4  1  0  0  0
  3  8  1  0  0  0
  4 17  1  0  0  0
  4  5  2  0  0  0
 17 19  1  0  0  0
 17 18  1  0  0  0
 19 20  1  0  0  0
 19 25  2  0  0  0
 20 21  2  0  0  0
 21 22  1  0  0  0
 22 23  1  0  0  0
 22 24  2  0  0  0
 24 25  1  0  0  0
 25 26  1  0  0  0
  5  6  1  0  0  0
  6  7  2  0  0  0
  7  8  1  0  0  0
  8  9  2  0  0  0
  9 10  1  0  0  0
 10 27  1  0  0  0
 27 28  1  0  0  0
 28 29  1  0  0  0
 29 30  1  0  0  0
 30 31  1  0  0  0
 30 33  1  0  0  0
 31 32  2  0  0  0
 31 34  1  0  0  0
 34 35  1  0  0  0
 35 36  1  0  0  0
 35 37  1  0  0  0
M  END
> <minimizedAffinity>
-8.56570

$$$$
