CHEMBL271960


 33 36  0  0  0  0  0  0  0  0999 V2000
  -30.0602   -5.8097   -5.8869 C   0  0  0  0  0  0  0  0  0  0  0  0
  -29.1986   -6.0751   -6.9451 C   0  0  0  0  0  0  0  0  0  0  0  0
  -28.4557   -5.0393   -7.5274 C   0  0  0  0  0  0  0  0  0  0  0  0
  -28.5799   -3.7130   -7.0845 C   0  0  0  0  0  0  0  0  0  0  0  0
  -29.4091   -3.4804   -5.9698 C   0  0  0  0  0  0  0  0  0  0  0  0
  -30.1074   -4.5235   -5.3533 C   0  0  0  0  0  0  0  0  0  0  0  0
  -29.6290   -2.2446   -5.4073 O   0  0  0  0  0  0  0  0  0  0  0  0
  -29.2897   -1.1731   -6.2856 C   0  0  0  0  0  0  0  0  0  0  0  0
  -27.9101   -1.3848   -6.8817 C   0  0  0  0  0  0  0  0  0  0  0  0
  -27.8992   -2.6001   -7.7122 N   0  0  0  0  0  0  0  0  0  0  0  0
  -27.4173   -2.6790   -9.0267 C   0  0  0  0  0  0  0  0  0  0  0  0
  -27.5626   -3.6763   -9.7292 O   0  0  0  0  0  0  0  0  0  0  0  0
  -26.7915   -1.5385   -9.5070 N   0  0  0  0  0  0  0  0  0  0  0  0
  -26.4224   -0.8960   -8.8277 H   0  0  0  0  0  0  0  0  0  0  0  0
  -26.3283   -1.3428  -10.8332 C   0  0  0  0  0  0  0  0  0  0  0  0
  -27.1043   -1.5846  -11.9729 C   0  0  0  0  0  0  0  0  0  0  0  0
  -26.5583   -1.4654  -13.2549 C   0  0  0  0  0  0  0  0  0  0  0  0
  -25.2346   -1.0720  -13.4047 C   0  0  0  0  0  0  0  0  0  0  0  0
  -24.5467   -0.9728  -14.9771 Cl  0  0  0  0  0  0  0  0  0  0  0  0
  -24.4645   -0.7680  -12.2854 C   0  0  0  0  0  0  0  0  0  0  0  0
  -25.0120   -0.8963  -11.0028 C   0  0  0  0  0  0  0  0  0  0  0  0
  -30.7867   -6.8767   -5.4068 O   0  0  0  0  0  0  0  0  0  0  0  0
  -31.1360   -9.5440   -7.9083 C   0  0  0  0  0  0  0  0  0  0  0  0
  -30.5042   -8.7226   -6.9879 C   0  0  0  0  0  0  0  0  0  0  0  0
  -31.2858   -7.8032   -6.2957 C   0  0  0  0  0  0  0  0  0  0  0  0
  -32.6673   -7.8155   -6.4588 C   0  0  0  0  0  0  0  0  0  0  0  0
  -33.2134   -8.7020   -7.3724 C   0  0  0  0  0  0  0  0  0  0  0  0
  -32.4828   -9.5557   -8.1223 N   0  0  0  0  0  0  0  0  0  0  0  0
  -28.9889  -10.5977  -10.8342 C   0  0  0  0  0  0  0  0  0  0  0  0
  -29.7945   -9.8603   -9.9017 N   0  0  0  0  0  0  0  0  0  0  0  0
  -30.3066  -10.4497   -8.7667 C   0  0  0  0  0  0  0  0  0  0  0  0
  -30.1009  -11.6177   -8.4559 O   0  0  0  0  0  0  0  0  0  0  0  0
  -30.0180   -8.8803  -10.0537 H   0  0  0  0  0  0  0  0  0  0  0  0
 29 30  1  0  0  0
 30 31  1  0  0  0
 30 33  1  0  0  0
 31 32  2  0  0  0
 31 23  1  0  0  0
 23 24  1  0  0  0
 23 28  2  0  0  0
 24 25  2  0  0  0
 25 22  1  0  0  0
 25 26  1  0  0  0
 22  1  1  0  0  0
  1  2  1  0  0  0
  1  6  2  0  0  0
  2  3  2  0  0  0
  3  4  1  0  0  0
  4  5  2  0  0  0
  4 10  1  0  0  0
  5  6  1  0  0  0
  5  7  1  0  0  0
  7  8  1  0  0  0
  8  9  1  0  0  0
  9 10  1  0  0  0
 10 11  1  0  0  0
 11 12  2  0  0  0
 11 13  1  0  0  0
 13 15  1  0  0  0
 13 14  1  0  0  0
 15 16  1  0  0  0
 15 21  2  0  0  0
 16 17  2  0  0  0
 17 18  1  0  0  0
 18 19  1  0  0  0
 18 20  2  0  0  0
 20 21  1  0  0  0
 26 27  2  0  0  0
 27 28  1  0  0  0
M  END
> <minimizedAffinity>
-8.74597

$$$$
