CHEMBL3969824


 33 36  0  0  0  0  0  0  0  0999 V2000
  -29.5955   -6.8899   -6.0482 N   0  0  0  0  0  0  0  0  0  0  0  0
  -29.1918   -5.5218   -6.2755 C   0  0  0  0  0  0  0  0  0  0  0  0
  -29.3685   -4.5307   -5.2778 C   0  0  0  0  0  0  0  0  0  0  0  0
  -29.0402   -3.1989   -5.5232 C   0  0  0  0  0  0  0  0  0  0  0  0
  -28.5258   -2.8244   -6.7595 C   0  0  0  0  0  0  0  0  0  0  0  0
  -28.2126   -1.5292   -7.0080 N   0  0  0  0  0  0  0  0  0  0  0  0
  -27.7008   -1.1464   -8.2051 C   0  0  0  0  0  0  0  0  0  0  0  0
  -27.4839   -2.1057   -9.2083 C   0  0  0  0  0  0  0  0  0  0  0  0
  -27.8094   -3.4065   -8.9605 N   0  0  0  0  0  0  0  0  0  0  0  0
  -28.3246   -3.7924   -7.7620 C   0  0  0  0  0  0  0  0  0  0  0  0
  -28.6629   -5.1256   -7.5227 C   0  0  0  0  0  0  0  0  0  0  0  0
  -26.8979   -1.7330  -10.5117 C   0  0  0  0  0  0  0  0  0  0  0  0
  -27.5561   -1.6432  -11.7238 C   0  0  0  0  0  0  0  0  0  0  0  0
  -26.6706   -1.2916  -12.6784 N   0  0  0  0  0  0  0  0  0  0  0  0
  -25.4858   -1.1593  -12.0986 N   0  0  0  0  0  0  0  0  0  0  0  0
  -24.2616   -0.8002  -12.8008 C   0  0  0  0  0  0  0  0  0  0  0  0
  -25.5814   -1.4159  -10.7846 C   0  0  0  0  0  0  0  0  0  0  0  0
  -28.4636   -9.1245   -8.9152 C   0  0  0  0  0  0  0  0  0  0  0  0
  -29.6770   -9.7104   -9.2996 C   0  0  0  0  0  0  0  0  0  0  0  0
  -30.8541   -9.3701   -8.6512 C   0  0  0  0  0  0  0  0  0  0  0  0
  -30.8582   -8.4526   -7.5965 C   0  0  0  0  0  0  0  0  0  0  0  0
  -32.4702   -8.0403   -7.0017 Cl  0  0  0  0  0  0  0  0  0  0  0  0
  -29.6321   -7.8639   -7.1358 C   0  0  0  0  0  0  0  0  0  0  0  0
  -28.4487   -8.2193   -7.8412 C   0  0  0  0  0  0  0  0  0  0  0  0
  -26.9991  -10.5509  -10.2496 C   0  0  0  0  0  0  0  0  0  0  0  0
  -27.2953   -9.3905   -9.5585 O   0  0  0  0  0  0  0  0  0  0  0  0
  -29.9614   -7.2807   -4.6712 C   0  0  0  0  0  0  0  0  0  0  0  0
  -28.9555   -8.2600   -3.9990 C   0  0  0  0  0  0  0  0  0  0  0  0
  -27.5500   -7.8229   -4.0471 N   0  0  0  0  0  0  0  0  0  0  0  0
  -27.2600   -7.6243   -3.0596 H   0  0  0  0  0  0  0  0  0  0  0  0
  -26.6686   -8.8953   -4.5834 C   0  0  0  0  0  0  0  0  0  0  0  0
  -25.3697   -9.0514   -3.7638 C   0  0  0  0  0  0  0  0  0  0  0  0
  -27.4025  -10.2444   -4.5806 C   0  0  0  0  0  0  0  0  0  0  0  0
 25 26  1  0  0  0
 26 18  1  0  0  0
 18 19  1  0  0  0
 18 24  2  0  0  0
 19 20  2  0  0  0
 20 21  1  0  0  0
 21 22  1  0  0  0
 21 23  2  0  0  0
 23  1  1  0  0  0
 23 24  1  0  0  0
  1 27  1  0  0  0
  1  2  1  0  0  0
 27 28  1  0  0  0
 28 29  1  0  0  0
 29 31  1  0  0  0
 29 30  1  0  0  0
 31 32  1  0  0  0
 31 33  1  0  0  0
  2  3  1  0  0  0
  2 11  2  0  0  0
  3  4  2  0  0  0
  4  5  1  0  0  0
  5  6  1  0  0  0
  5 10  2  0  0  0
  6  7  2  0  0  0
  7  8  1  0  0  0
  8 12  1  0  0  0
  8  9  2  0  0  0
 12 13  1  0  0  0
 12 17  2  0  0  0
 13 14  2  0  0  0
 14 15  1  0  0  0
 15 16  1  0  0  0
 15 17  1  0  0  0
  9 10  1  0  0  0
 10 11  1  0  0  0
M  END
> <minimizedAffinity>
-8.23465

$$$$
