CHEMBL178743


 28 30  0  0  0  0  0  0  0  0999 V2000
  -29.7801   -6.1955   -4.9864 C   0  0  0  0  0  0  0  0  0  0  0  0
  -31.1167   -6.2804   -4.6096 C   0  0  0  0  0  0  0  0  0  0  0  0
  -31.7498   -5.3195   -3.8894 N   0  0  0  0  0  0  0  0  0  0  0  0
  -30.9840   -4.2485   -3.5671 C   0  0  0  0  0  0  0  0  0  0  0  0
  -29.6476   -4.1175   -3.9424 C   0  0  0  0  0  0  0  0  0  0  0  0
  -29.0472   -5.0982   -4.6537 N   0  0  0  0  0  0  0  0  0  0  0  0
  -28.6730   -8.3268   -7.7453 C   0  0  0  0  0  0  0  0  0  0  0  0
  -27.9160   -9.2781   -7.0557 C   0  0  0  0  0  0  0  0  0  0  0  0
  -27.6722   -9.2269   -5.7257 N   0  0  0  0  0  0  0  0  0  0  0  0
  -28.2695   -8.1966   -5.0805 C   0  0  0  0  0  0  0  0  0  0  0  0
  -29.0813   -7.2610   -5.7193 C   0  0  0  0  0  0  0  0  0  0  0  0
  -29.2776   -7.3251   -7.0665 N   0  0  0  0  0  0  0  0  0  0  0  0
  -28.8691   -8.4619   -9.1365 N   0  0  0  0  0  0  0  0  0  0  0  0
  -29.5922   -7.8112   -9.4336 H   0  0  0  0  0  0  0  0  0  0  0  0
  -29.2280   -9.8313   -9.5189 C   0  0  0  0  0  0  0  0  0  0  0  0
  -28.6015  -10.1689  -10.8714 C   0  0  0  0  0  0  0  0  0  0  0  0
  -26.6879   -8.7822  -11.3254 O   0  0  0  0  0  0  0  0  0  0  0  0
  -27.0848  -10.0497  -10.8206 C   0  0  0  0  0  0  0  0  0  0  0  0
  -25.7161   -8.7466  -11.2863 H   0  0  0  0  0  0  0  0  0  0  0  0
  -28.9276   -2.9516   -3.6012 N   0  0  0  0  0  0  0  0  0  0  0  0
  -28.1370   -3.1750   -3.0081 H   0  0  0  0  0  0  0  0  0  0  0  0
  -28.7049   -1.8571   -4.4646 C   0  0  0  0  0  0  0  0  0  0  0  0
  -27.4784   -1.7022   -5.1301 C   0  0  0  0  0  0  0  0  0  0  0  0
  -27.2552   -0.6355   -6.0026 C   0  0  0  0  0  0  0  0  0  0  0  0
  -28.2632    0.3007   -6.2211 C   0  0  0  0  0  0  0  0  0  0  0  0
  -29.4863    0.1575   -5.5650 C   0  0  0  0  0  0  0  0  0  0  0  0
  -30.7268    1.3194   -5.8257 Cl  0  0  0  0  0  0  0  0  0  0  0  0
  -29.7139   -0.9169   -4.6986 C   0  0  0  0  0  0  0  0  0  0  0  0
 17 18  1  0  0  0
 17 19  1  0  0  0
 18 16  1  0  0  0
 16 15  1  0  0  0
 15 13  1  0  0  0
 13  7  1  0  0  0
 13 14  1  0  0  0
  7  8  1  0  0  0
  7 12  2  0  0  0
  8  9  2  0  0  0
  9 10  1  0  0  0
 10 11  2  0  0  0
 11  1  1  0  0  0
 11 12  1  0  0  0
  1  2  1  0  0  0
  1  6  2  0  0  0
  2  3  2  0  0  0
  3  4  1  0  0  0
  4  5  2  0  0  0
  5 20  1  0  0  0
  5  6  1  0  0  0
 20 22  1  0  0  0
 20 21  1  0  0  0
 22 23  1  0  0  0
 22 28  2  0  0  0
 23 24  2  0  0  0
 24 25  1  0  0  0
 25 26  2  0  0  0
 26 27  1  0  0  0
 26 28  1  0  0  0
M  END
> <minimizedAffinity>
-7.84954

$$$$
