CHEMBL473354


 29 33  0  0  0  0  0  0  0  0999 V2000
  -29.4769   -8.0669   -5.5518 C   0  0  0  0  0  0  0  0  0  0  0  0
  -28.5246   -8.0701   -4.5319 C   0  0  0  0  0  0  0  0  0  0  0  0
  -27.3405   -8.8172   -4.6414 C   0  0  0  0  0  0  0  0  0  0  0  0
  -27.0662   -9.6108   -5.7680 C   0  0  0  0  0  0  0  0  0  0  0  0
  -28.0897   -9.7381   -6.7138 C   0  0  0  0  0  0  0  0  0  0  0  0
  -29.2792   -8.9821   -6.6010 C   0  0  0  0  0  0  0  0  0  0  0  0
  -25.7280  -10.2202   -5.9786 C   0  0  0  0  0  0  0  0  0  0  0  0
  -25.2704  -10.7915   -7.0781 N   0  0  0  0  0  0  0  0  0  0  0  0
  -23.9490  -11.2229   -6.8902 C   0  0  0  0  0  0  0  0  0  0  0  0
  -23.1312  -11.9101   -7.8197 C   0  0  0  0  0  0  0  0  0  0  0  0
  -21.8244  -12.2870   -7.4666 C   0  0  0  0  0  0  0  0  0  0  0  0
  -21.3160  -11.9847   -6.2086 C   0  0  0  0  0  0  0  0  0  0  0  0
  -22.0950  -11.2942   -5.2796 C   0  0  0  0  0  0  0  0  0  0  0  0
  -23.4034  -10.9300   -5.6432 C   0  0  0  0  0  0  0  0  0  0  0  0
  -24.5618  -10.0928   -4.7062 S   0  0  0  0  0  0  0  0  0  0  0  0
  -30.6457   -7.2513   -5.5251 N   0  0  0  0  0  0  0  0  0  0  0  0
  -31.0235   -7.1628   -6.4621 H   0  0  0  0  0  0  0  0  0  0  0  0
  -27.9560   -3.4240   -8.1694 C   0  0  0  0  0  0  0  0  0  0  0  0
  -28.8571   -3.4861   -6.9692 C   0  0  0  0  0  0  0  0  0  0  0  0
  -29.4342   -4.7087   -6.5690 C   0  0  0  0  0  0  0  0  0  0  0  0
  -30.2313   -4.8145   -5.3898 C   0  0  0  0  0  0  0  0  0  0  0  0
  -30.8111   -5.9969   -4.8521 C   0  0  0  0  0  0  0  0  0  0  0  0
  -31.5224   -5.9635   -3.7098 N   0  0  0  0  0  0  0  0  0  0  0  0
  -31.6664   -4.7856   -3.1008 C   0  0  0  0  0  0  0  0  0  0  0  0
  -31.1712   -3.6209   -3.5188 N   0  0  0  0  0  0  0  0  0  0  0  0
  -30.4602   -3.6457   -4.6430 C   0  0  0  0  0  0  0  0  0  0  0  0
  -29.9184   -2.4404   -5.0616 C   0  0  0  0  0  0  0  0  0  0  0  0
  -29.1188   -2.3517   -6.1982 C   0  0  0  0  0  0  0  0  0  0  0  0
  -28.4678   -0.8031   -6.6083 Cl  0  0  0  0  0  0  0  0  0  0  0  0
 18 19  1  0  0  0
 19 20  1  0  0  0
 19 28  2  0  0  0
 20 21  2  0  0  0
 21 22  1  0  0  0
 21 26  1  0  0  0
 22 16  1  0  0  0
 22 23  2  0  0  0
 16  1  1  0  0  0
 16 17  1  0  0  0
  1  2  1  0  0  0
  1  6  2  0  0  0
  2  3  2  0  0  0
  3  4  1  0  0  0
  4  7  1  0  0  0
  4  5  2  0  0  0
  7  8  2  0  0  0
  7 15  1  0  0  0
  8  9  1  0  0  0
  9 10  1  0  0  0
  9 14  2  0  0  0
 10 11  2  0  0  0
 11 12  1  0  0  0
 12 13  2  0  0  0
 13 14  1  0  0  0
 14 15  1  0  0  0
  5  6  1  0  0  0
 23 24  1  0  0  0
 24 25  2  0  0  0
 25 26  1  0  0  0
 26 27  2  0  0  0
 27 28  1  0  0  0
 28 29  1  0  0  0
M  END
> <minimizedAffinity>
-9.03622

$$$$
