CHEMBL499345


 30 33  0  0  0  0  0  0  0  0999 V2000
  -13.9860    4.6213  -15.6419 N   0  0  0  0  0  0  0  0  0  0  0  0
  -14.4296    3.3760  -15.2423 C   0  0  0  0  0  0  0  0  0  0  0  0
  -15.6685    3.0439  -15.6253 N   0  0  0  0  0  0  0  0  0  0  0  0
  -16.1637    1.8105  -15.3437 C   0  0  0  0  0  0  0  0  0  0  0  0
  -15.3336    0.9269  -14.6390 C   0  0  0  0  0  0  0  0  0  0  0  0
  -15.4047   -0.4198  -14.1879 C   0  0  0  0  0  0  0  0  0  0  0  0
  -14.1754   -0.7475  -13.6446 C   0  0  0  0  0  0  0  0  0  0  0  0
  -13.4304    0.4117  -13.6014 N   0  0  0  0  0  0  0  0  0  0  0  0
  -14.0943    1.4112  -14.2598 C   0  0  0  0  0  0  0  0  0  0  0  0
  -13.5948    2.6275  -14.5142 N   0  0  0  0  0  0  0  0  0  0  0  0
  -14.7784    5.2010  -15.8824 H   0  0  0  0  0  0  0  0  0  0  0  0
  -13.3106    4.9865  -14.9882 H   0  0  0  0  0  0  0  0  0  0  0  0
  -12.4960    0.5098  -13.2282 H   0  0  0  0  0  0  0  0  0  0  0  0
  -17.4234    1.4219  -15.8152 N   0  0  0  0  0  0  0  0  0  0  0  0
  -17.4205    0.6367  -16.4457 H   0  0  0  0  0  0  0  0  0  0  0  0
  -18.6890    1.8417  -15.3809 C   0  0  0  0  0  0  0  0  0  0  0  0
  -18.9837    3.2123  -15.3390 C   0  0  0  0  0  0  0  0  0  0  0  0
  -20.2179    3.6642  -14.8607 C   0  0  0  0  0  0  0  0  0  0  0  0
  -21.1717    2.7484  -14.4221 C   0  0  0  0  0  0  0  0  0  0  0  0
  -20.8859    1.3885  -14.4532 C   0  0  0  0  0  0  0  0  0  0  0  0
  -22.1818    0.1376  -13.8739 Br  0  0  0  0  0  0  0  0  0  0  0  0
  -19.6532    0.9397  -14.9151 C   0  0  0  0  0  0  0  0  0  0  0  0
  -13.6210   -2.0704  -13.2289 C   0  0  0  0  0  0  0  0  0  0  0  0
  -14.6675   -3.0550  -12.7710 C   0  0  0  0  0  0  0  0  0  0  0  0
  -15.2943   -2.8484  -11.5277 C   0  0  0  0  0  0  0  0  0  0  0  0
  -16.2750   -3.7263  -11.0640 C   0  0  0  0  0  0  0  0  0  0  0  0
  -16.6429   -4.8265  -11.8323 C   0  0  0  0  0  0  0  0  0  0  0  0
  -16.0301   -5.0487  -13.0652 C   0  0  0  0  0  0  0  0  0  0  0  0
  -15.0458   -4.1717  -13.5320 C   0  0  0  0  0  0  0  0  0  0  0  0
  -14.3334   -4.5147  -15.0693 Cl  0  0  0  0  0  0  0  0  0  0  0  0
  1  2  1  0  0  0
  1 11  1  0  0  0
  1 12  1  0  0  0
  2  3  1  0  0  0
  2 10  2  0  0  0
  3  4  2  0  0  0
  4 14  1  0  0  0
  4  5  1  0  0  0
 14 16  1  0  0  0
 14 15  1  0  0  0
 16 17  1  0  0  0
 16 22  2  0  0  0
 17 18  2  0  0  0
 18 19  1  0  0  0
 19 20  2  0  0  0
 20 21  1  0  0  0
 20 22  1  0  0  0
  5  6  1  0  0  0
  5  9  2  0  0  0
  6  7  2  0  0  0
  7 23  1  0  0  0
  7  8  1  0  0  0
 23 24  1  0  0  0
 24 25  1  0  0  0
 24 29  2  0  0  0
 25 26  2  0  0  0
 26 27  1  0  0  0
 27 28  2  0  0  0
 28 29  1  0  0  0
 29 30  1  0  0  0
  8  9  1  0  0  0
  8 13  1  0  0  0
  9 10  1  0  0  0
M  END
> <minimizedAffinity>
-8.79861

$$$$
