CHEMBL1940862


 22 24  0  0  0  0  0  0  0  0999 V2000
  -15.0997   -0.8875  -13.5904 C   0  0  0  0  0  0  0  0  0  0  0  0
  -16.3880   -0.3489  -13.5978 C   0  0  0  0  0  0  0  0  0  0  0  0
  -16.7119    0.7264  -14.4427 C   0  0  0  0  0  0  0  0  0  0  0  0
  -18.0121    1.2595  -14.4676 C   0  0  0  0  0  0  0  0  0  0  0  0
  -18.3280    2.3162  -15.3157 C   0  0  0  0  0  0  0  0  0  0  0  0
  -17.3456    2.8514  -16.1400 C   0  0  0  0  0  0  0  0  0  0  0  0
  -16.0397    2.3296  -16.1212 C   0  0  0  0  0  0  0  0  0  0  0  0
  -14.9945    2.9368  -17.0207 C   0  0  0  0  0  0  0  0  0  0  0  0
  -15.7045    1.2590  -15.2781 C   0  0  0  0  0  0  0  0  0  0  0  0
  -14.4562    0.7518  -15.2741 N   0  0  0  0  0  0  0  0  0  0  0  0
  -14.1832   -0.2914  -14.4528 C   0  0  0  0  0  0  0  0  0  0  0  0
  -12.5581   -0.8427  -14.6007 Cl  0  0  0  0  0  0  0  0  0  0  0  0
  -15.5789   -2.3023  -11.6613 C   0  0  0  0  0  0  0  0  0  0  0  0
  -14.8215   -2.0577  -12.7418 C   0  0  0  0  0  0  0  0  0  0  0  0
  -15.3415   -3.4532  -10.7186 C   0  0  0  0  0  0  0  0  0  0  0  0
  -15.5620   -3.2979   -9.5151 O   0  0  0  0  0  0  0  0  0  0  0  0
  -17.0702   -5.4845  -12.5224 C   0  0  0  0  0  0  0  0  0  0  0  0
  -15.6499   -5.6364  -12.0792 C   0  0  0  0  0  0  0  0  0  0  0  0
  -14.8461   -6.7693  -12.4512 C   0  0  0  0  0  0  0  0  0  0  0  0
  -13.5755   -6.7173  -11.9336 C   0  0  0  0  0  0  0  0  0  0  0  0
  -13.3337   -5.3259  -10.9897 S   0  0  0  0  0  0  0  0  0  0  0  0
  -14.9217   -4.7326  -11.3034 C   0  0  0  0  0  0  0  0  0  0  0  0
 17 18  1  0  0  0
 18 19  1  0  0  0
 18 22  2  0  0  0
 19 20  2  0  0  0
 20 21  1  0  0  0
 21 22  1  0  0  0
 22 15  1  0  0  0
 15 16  2  0  0  0
 15 13  1  0  0  0
 13 14  2  0  0  0
 14  1  1  0  0  0
  1  2  1  0  0  0
  1 11  2  0  0  0
  2  3  2  0  0  0
  3  4  1  0  0  0
  3  9  1  0  0  0
  4  5  2  0  0  0
  5  6  1  0  0  0
  6  7  2  0  0  0
  7  8  1  0  0  0
  7  9  1  0  0  0
  9 10  2  0  0  0
 10 11  1  0  0  0
 11 12  1  0  0  0
M  END
> <minimizedAffinity>
-7.71950

$$$$
