CHEMBL3690554


 34 37  0  0  0  0  0  0  0  0999 V2000
  -14.7402   -3.5814  -13.0468 C   0  0  0  0  0  0  0  0  0  0  0  0
  -15.9323   -3.1577  -13.7959 C   0  0  0  0  0  0  0  0  0  0  0  0
  -16.0583   -1.8894  -14.2099 C   0  0  0  0  0  0  0  0  0  0  0  0
  -15.0665   -0.9633  -13.8964 N   0  0  0  0  0  0  0  0  0  0  0  0
  -14.9944    0.4017  -14.1285 C   0  0  0  0  0  0  0  0  0  0  0  0
  -13.7136    0.7411  -13.7172 C   0  0  0  0  0  0  0  0  0  0  0  0
  -13.0547   -0.3168  -13.1521 N   0  0  0  0  0  0  0  0  0  0  0  0
  -13.8991   -1.3208  -13.2297 C   0  0  0  0  0  0  0  0  0  0  0  0
  -13.7796   -2.6648  -12.7748 C   0  0  0  0  0  0  0  0  0  0  0  0
  -14.1838   -7.6712  -12.0551 C   0  0  0  0  0  0  0  0  0  0  0  0
  -13.7347   -6.7085  -11.1601 C   0  0  0  0  0  0  0  0  0  0  0  0
  -13.9391   -5.3577  -11.4397 C   0  0  0  0  0  0  0  0  0  0  0  0
  -14.5914   -4.9952  -12.6156 C   0  0  0  0  0  0  0  0  0  0  0  0
  -15.0351   -5.9222  -13.5005 N   0  0  0  0  0  0  0  0  0  0  0  0
  -14.8180   -7.2253  -13.2050 C   0  0  0  0  0  0  0  0  0  0  0  0
  -12.7289   -9.5097  -12.2716 C   0  0  0  0  0  0  0  0  0  0  0  0
  -14.0196   -9.0185  -11.9262 O   0  0  0  0  0  0  0  0  0  0  0  0
  -16.0572    1.2554  -14.6646 C   0  0  0  0  0  0  0  0  0  0  0  0
  -15.7858    2.0811  -15.7624 C   0  0  0  0  0  0  0  0  0  0  0  0
  -16.7518    2.9637  -16.2341 C   0  0  0  0  0  0  0  0  0  0  0  0
  -18.0169    2.9892  -15.6497 C   0  0  0  0  0  0  0  0  0  0  0  0
  -18.3392    2.1281  -14.5990 C   0  0  0  0  0  0  0  0  0  0  0  0
  -17.3345    1.3090  -14.0734 C   0  0  0  0  0  0  0  0  0  0  0  0
  -19.6382    2.0536  -14.0432 N   0  0  0  0  0  0  0  0  0  0  0  0
  -20.5852    1.1126  -14.3778 C   0  0  0  0  0  0  0  0  0  0  0  0
  -20.4406    0.1680  -15.1452 O   0  0  0  0  0  0  0  0  0  0  0  0
  -21.8055    1.3466  -13.7866 N   0  0  0  0  0  0  0  0  0  0  0  0
  -19.8269    2.6318  -13.2358 H   0  0  0  0  0  0  0  0  0  0  0  0
  -21.8133    1.8284  -12.8998 H   0  0  0  0  0  0  0  0  0  0  0  0
  -22.8981    0.4042  -14.0598 C   0  0  0  0  0  0  0  0  0  0  0  0
  -23.3144   -0.5063  -12.8943 C   0  0  0  0  0  0  0  0  0  0  0  0
  -23.3580   -1.8097  -13.2552 F   0  0  0  0  0  0  0  0  0  0  0  0
  -22.4048   -0.4105  -11.8911 F   0  0  0  0  0  0  0  0  0  0  0  0
  -24.5140   -0.1698  -12.3779 F   0  0  0  0  0  0  0  0  0  0  0  0
 16 17  1  0  0  0
 17 10  1  0  0  0
 10 11  1  0  0  0
 10 15  2  0  0  0
 11 12  2  0  0  0
 12 13  1  0  0  0
 13  1  1  0  0  0
 13 14  2  0  0  0
  1  2  1  0  0  0
  1  9  2  0  0  0
  2  3  2  0  0  0
  3  4  1  0  0  0
  4  5  1  0  0  0
  4  8  1  0  0  0
  5 18  1  0  0  0
  5  6  2  0  0  0
 18 19  1  0  0  0
 18 23  2  0  0  0
 19 20  2  0  0  0
 20 21  1  0  0  0
 21 22  2  0  0  0
 22 24  1  0  0  0
 22 23  1  0  0  0
 24 25  1  0  0  0
 24 28  1  0  0  0
 25 26  2  0  0  0
 25 27  1  0  0  0
 27 30  1  0  0  0
 27 29  1  0  0  0
 30 31  1  0  0  0
 31 32  1  0  0  0
 31 33  1  0  0  0
 31 34  1  0  0  0
  6  7  1  0  0  0
  7  8  2  0  0  0
  8  9  1  0  0  0
 14 15  1  0  0  0
M  END
> <minimizedAffinity>
-8.79791

$$$$
