CHEMBL3660297


 41 44  0  0  0  0  0  0  0  0999 V2000
  -27.9981   -3.8920   -4.2365 O   0  0  0  0  0  0  0  0  0  0  0  0
  -28.3503   -7.5628   -4.4550 C   0  0  0  0  0  0  0  0  0  0  0  0
  -27.8233   -6.2944   -4.6605 C   0  0  0  0  0  0  0  0  0  0  0  0
  -28.4728   -5.1864   -4.1215 C   0  0  0  0  0  0  0  0  0  0  0  0
  -29.6658   -5.3740   -3.4448 C   0  0  0  0  0  0  0  0  0  0  0  0
  -30.1296   -6.6731   -3.2910 C   0  0  0  0  0  0  0  0  0  0  0  0
  -29.4918   -7.7722   -3.7625 N   0  0  0  0  0  0  0  0  0  0  0  0
  -26.0124  -10.2528   -5.4520 C   0  0  0  0  0  0  0  0  0  0  0  0
  -26.3068   -9.1769   -4.6274 C   0  0  0  0  0  0  0  0  0  0  0  0
  -27.6272   -8.7364   -4.9281 C   0  0  0  0  0  0  0  0  0  0  0  0
  -28.1227   -9.6169   -5.8753 C   0  0  0  0  0  0  0  0  0  0  0  0
  -27.1491  -10.5228   -6.1723 N   0  0  0  0  0  0  0  0  0  0  0  0
  -27.2166  -11.2521   -6.8765 H   0  0  0  0  0  0  0  0  0  0  0  0
  -23.7891  -10.3000   -6.2668 N   0  0  0  0  0  0  0  0  0  0  0  0
  -24.7804  -11.0069   -5.6647 C   0  0  0  0  0  0  0  0  0  0  0  0
  -24.6852  -12.1815   -5.3483 O   0  0  0  0  0  0  0  0  0  0  0  0
  -23.8475   -9.3057   -6.4126 H   0  0  0  0  0  0  0  0  0  0  0  0
  -22.3552  -12.0715   -7.9856 C   0  0  0  0  0  0  0  0  0  0  0  0
  -22.3639  -10.9906   -6.6555 S   0  0  0  0  0  0  0  0  0  0  0  0
  -21.4789  -11.6581   -5.3203 C   0  0  0  0  0  0  0  0  0  0  0  0
  -21.4686   -9.9578   -7.1110 O   0  0  0  0  0  0  0  0  0  0  0  0
  -28.1365   -3.2454   -5.4487 C   0  0  0  0  0  0  0  0  0  0  0  0
  -28.7063   -3.9478   -6.4980 C   0  0  0  0  0  0  0  0  0  0  0  0
  -28.7597   -3.3559   -7.7745 C   0  0  0  0  0  0  0  0  0  0  0  0
  -28.2545   -2.0688   -8.0176 C   0  0  0  0  0  0  0  0  0  0  0  0
  -27.7767   -1.3401   -6.9231 C   0  0  0  0  0  0  0  0  0  0  0  0
  -27.7511   -1.9213   -5.6467 C   0  0  0  0  0  0  0  0  0  0  0  0
  -28.1909   -1.4855   -9.3098 N   0  0  0  0  0  0  0  0  0  0  0  0
  -27.1348   -1.6205  -10.1898 C   0  0  0  0  0  0  0  0  0  0  0  0
  -26.1153   -2.2760   -9.9700 O   0  0  0  0  0  0  0  0  0  0  0  0
  -27.3069   -0.9324  -11.3903 N   0  0  0  0  0  0  0  0  0  0  0  0
  -28.9781   -0.9203   -9.6018 H   0  0  0  0  0  0  0  0  0  0  0  0
  -27.7196   -0.0172  -11.2887 H   0  0  0  0  0  0  0  0  0  0  0  0
  -26.2495   -1.0151  -12.3449 C   0  0  0  0  0  0  0  0  0  0  0  0
  -24.9981   -0.4458  -12.0713 C   0  0  0  0  0  0  0  0  0  0  0  0
  -23.9685   -0.4640  -13.0259 C   0  0  0  0  0  0  0  0  0  0  0  0
  -22.6311    0.1396  -12.7103 C   0  0  0  0  0  0  0  0  0  0  0  0
  -24.2111   -1.0484  -14.2784 C   0  0  0  0  0  0  0  0  0  0  0  0
  -25.4532   -1.6207  -14.5560 C   0  0  0  0  0  0  0  0  0  0  0  0
  -26.4569   -1.6178  -13.5864 C   0  0  0  0  0  0  0  0  0  0  0  0
  -27.6566   -2.1403  -13.8846 F   0  0  0  0  0  0  0  0  0  0  0  0
 18 19  2  0  0  0
 19 20  1  0  0  0
 19 21  2  0  0  0
 19 14  1  0  0  0
 14 15  1  0  0  0
 14 17  1  0  0  0
 15 16  2  0  0  0
 15  8  1  0  0  0
  8  9  2  0  0  0
  8 12  1  0  0  0
  9 10  1  0  0  0
 10  2  1  0  0  0
 10 11  2  0  0  0
  2  3  1  0  0  0
  2  7  2  0  0  0
  3  4  2  0  0  0
  4  1  1  0  0  0
  4  5  1  0  0  0
  1 22  1  0  0  0
 22 23  1  0  0  0
 22 27  2  0  0  0
 23 24  2  0  0  0
 24 25  1  0  0  0
 25 28  1  0  0  0
 25 26  2  0  0  0
 28 29  1  0  0  0
 28 32  1  0  0  0
 29 30  2  0  0  0
 29 31  1  0  0  0
 31 34  1  0  0  0
 31 33  1  0  0  0
 34 35  1  0  0  0
 34 40  2  0  0  0
 35 36  2  0  0  0
 36 37  1  0  0  0
 36 38  1  0  0  0
 38 39  2  0  0  0
 39 40  1  0  0  0
 40 41  1  0  0  0
 26 27  1  0  0  0
  5  6  2  0  0  0
  6  7  1  0  0  0
 11 12  1  0  0  0
 12 13  1  0  0  0
M  END
> <minimizedAffinity>
-10.52073

$$$$
