CHEMBL406909


 31 36  0  0  0  0  0  0  0  0999 V2000
  -29.9415   -4.9792   -3.7709 N   0  0  0  0  0  0  0  0  0  0  0  0
  -29.5739   -3.6935   -4.2407 C   0  0  0  0  0  0  0  0  0  0  0  0
  -29.9464   -2.3955   -3.8315 C   0  0  0  0  0  0  0  0  0  0  0  0
  -29.5118   -1.2914   -4.5983 C   0  0  0  0  0  0  0  0  0  0  0  0
  -28.7136   -1.4690   -5.7287 C   0  0  0  0  0  0  0  0  0  0  0  0
  -28.3375   -2.7536   -6.1124 C   0  0  0  0  0  0  0  0  0  0  0  0
  -28.7886   -3.8650   -5.3887 C   0  0  0  0  0  0  0  0  0  0  0  0
  -28.8001   -5.2359   -5.5693 C   0  0  0  0  0  0  0  0  0  0  0  0
  -28.5584   -5.8097   -6.8209 C   0  0  0  0  0  0  0  0  0  0  0  0
  -29.1625   -7.0699   -7.0259 C   0  0  0  0  0  0  0  0  0  0  0  0
  -29.8388   -7.7966   -6.0196 C   0  0  0  0  0  0  0  0  0  0  0  0
  -29.4572   -7.3791   -4.6942 C   0  0  0  0  0  0  0  0  0  0  0  0
  -29.3437   -5.9752   -4.5569 C   0  0  0  0  0  0  0  0  0  0  0  0
  -28.3876   -8.3852   -4.0672 C   0  0  0  0  0  0  0  0  0  0  0  0
  -27.7974   -9.4470   -5.0901 C   0  0  0  0  0  0  0  0  0  0  0  0
  -28.9692  -10.0761   -5.7598 C   0  0  0  0  0  0  0  0  0  0  0  0
  -29.3459  -11.3516   -5.7125 N   0  0  0  0  0  0  0  0  0  0  0  0
  -30.6583  -11.2809   -6.0566 N   0  0  0  0  0  0  0  0  0  0  0  0
  -31.4777  -12.4652   -6.0016 C   0  0  0  0  0  0  0  0  0  0  0  0
  -31.1193   -9.9981   -6.2132 C   0  0  0  0  0  0  0  0  0  0  0  0
  -29.9867   -9.2281   -6.2028 C   0  0  0  0  0  0  0  0  0  0  0  0
  -28.8015   -7.4967   -8.3608 C   0  0  0  0  0  0  0  0  0  0  0  0
  -29.0394   -8.4987   -9.0170 O   0  0  0  0  0  0  0  0  0  0  0  0
  -27.9804   -6.4825   -8.8376 N   0  0  0  0  0  0  0  0  0  0  0  0
  -27.8384   -5.3214   -7.9896 C   0  0  0  0  0  0  0  0  0  0  0  0
  -27.5368   -6.5824   -9.7381 H   0  0  0  0  0  0  0  0  0  0  0  0
  -28.2690   -0.3679   -6.6294 C   0  0  0  0  0  0  0  0  0  0  0  0
  -28.6750    1.0472   -6.3409 C   0  0  0  0  0  0  0  0  0  0  0  0
  -27.5428   -0.6292   -7.5897 O   0  0  0  0  0  0  0  0  0  0  0  0
  -32.4409   -4.9743   -3.5439 C   0  0  0  0  0  0  0  0  0  0  0  0
  -31.0878   -5.1935   -2.8913 C   0  0  0  0  0  0  0  0  0  0  0  0
 30 31  1  0  0  0
 31  1  1  0  0  0
  1  2  1  0  0  0
  1 13  1  0  0  0
  2  3  1  0  0  0
  2  7  2  0  0  0
  3  4  2  0  0  0
  4  5  1  0  0  0
  5 27  1  0  0  0
  5  6  2  0  0  0
 27 28  1  0  0  0
 27 29  2  0  0  0
  6  7  1  0  0  0
  7  8  1  0  0  0
  8  9  1  0  0  0
  8 13  2  0  0  0
  9 10  2  0  0  0
  9 25  1  0  0  0
 10 11  1  0  0  0
 10 22  1  0  0  0
 11 12  2  0  0  0
 11 21  1  0  0  0
 12 13  1  0  0  0
 12 14  1  0  0  0
 14 15  1  0  0  0
 15 16  1  0  0  0
 16 17  2  0  0  0
 16 21  1  0  0  0
 17 18  1  0  0  0
 18 19  1  0  0  0
 18 20  1  0  0  0
 20 21  2  0  0  0
 22 23  2  0  0  0
 22 24  1  0  0  0
 24 25  1  0  0  0
 24 26  1  0  0  0
M  END
> <minimizedAffinity>
-8.57311

$$$$
