CHEMBL215289


 48 52  0  0  0  0  0  0  0  0999 V2000
  -18.2321    1.9508  -15.0475 C   0  0  0  0  0  0  0  0  0  0  0  0
  -18.7227    3.2356  -15.0907 C   0  0  0  0  0  0  0  0  0  0  0  0
  -20.0858    3.3539  -15.0389 C   0  0  0  0  0  0  0  0  0  0  0  0
  -20.9105    2.3134  -14.8757 N   0  0  0  0  0  0  0  0  0  0  0  0
  -20.3763    1.0872  -14.8653 C   0  0  0  0  0  0  0  0  0  0  0  0
  -19.0449    0.8664  -14.9843 N   0  0  0  0  0  0  0  0  0  0  0  0
  -16.8233    1.7744  -15.0962 N   0  0  0  0  0  0  0  0  0  0  0  0
  -16.2131    1.0717  -14.0512 C   0  0  0  0  0  0  0  0  0  0  0  0
  -16.7169    0.0968  -13.4853 O   0  0  0  0  0  0  0  0  0  0  0  0
  -14.5503    4.2051  -17.7784 C   0  0  0  0  0  0  0  0  0  0  0  0
  -15.4375    4.7920  -16.8830 C   0  0  0  0  0  0  0  0  0  0  0  0
  -16.2063    3.9856  -16.0212 C   0  0  0  0  0  0  0  0  0  0  0  0
  -16.0774    2.5834  -16.0216 C   0  0  0  0  0  0  0  0  0  0  0  0
  -15.1843    1.9952  -16.9417 C   0  0  0  0  0  0  0  0  0  0  0  0
  -14.4421    2.8149  -17.8080 C   0  0  0  0  0  0  0  0  0  0  0  0
  -12.9279    4.0442  -19.5273 C   0  0  0  0  0  0  0  0  0  0  0  0
  -13.7373    4.8385  -18.6757 O   0  0  0  0  0  0  0  0  0  0  0  0
  -15.1555    0.6223  -17.0035 O   0  0  0  0  0  0  0  0  0  0  0  0
  -13.9199    0.0366  -17.4099 C   0  0  0  0  0  0  0  0  0  0  0  0
  -15.0021    1.6410  -13.6508 O   0  0  0  0  0  0  0  0  0  0  0  0
  -13.7135    1.0686  -13.8901 C   0  0  0  0  0  0  0  0  0  0  0  0
  -13.4274   -0.2987  -13.7014 C   0  0  0  0  0  0  0  0  0  0  0  0
  -14.4168   -1.4127  -13.5191 C   0  0  0  0  0  0  0  0  0  0  0  0
  -12.0745   -0.6886  -13.6325 C   0  0  0  0  0  0  0  0  0  0  0  0
  -11.0409    0.2315  -13.7769 C   0  0  0  0  0  0  0  0  0  0  0  0
  -11.3375    1.5655  -14.0278 C   0  0  0  0  0  0  0  0  0  0  0  0
  -12.6705    2.0020  -14.0845 C   0  0  0  0  0  0  0  0  0  0  0  0
  -12.9475    3.4479  -14.3822 C   0  0  0  0  0  0  0  0  0  0  0  0
  -21.2145   -0.0208  -14.7639 N   0  0  0  0  0  0  0  0  0  0  0  0
  -20.8164   -0.8317  -15.2100 H   0  0  0  0  0  0  0  0  0  0  0  0
  -22.3788   -0.2044  -14.0002 C   0  0  0  0  0  0  0  0  0  0  0  0
  -22.4460    0.1036  -12.6331 C   0  0  0  0  0  0  0  0  0  0  0  0
  -23.6218   -0.0808  -11.8883 C   0  0  0  0  0  0  0  0  0  0  0  0
  -24.7762   -0.5577  -12.5056 C   0  0  0  0  0  0  0  0  0  0  0  0
  -24.7243   -0.8353  -13.8723 C   0  0  0  0  0  0  0  0  0  0  0  0
  -25.8231   -1.2710  -14.5089 F   0  0  0  0  0  0  0  0  0  0  0  0
  -23.5510   -0.6583  -14.6141 C   0  0  0  0  0  0  0  0  0  0  0  0
  -25.9530   -0.8343  -11.8632 O   0  0  0  0  0  0  0  0  0  0  0  0
  -25.8475   -1.5931  -10.6535 C   0  0  0  0  0  0  0  0  0  0  0  0
  -27.2572   -1.9417  -10.1740 C   0  0  0  0  0  0  0  0  0  0  0  0
  -27.5683   -1.3444   -8.7948 C   0  0  0  0  0  0  0  0  0  0  0  0
  -27.6759   -2.3601   -7.7437 N   0  0  0  0  0  0  0  0  0  0  0  0
  -27.9614   -1.7897   -6.4138 C   0  0  0  0  0  0  0  0  0  0  0  0
  -27.9878   -2.8918   -5.3315 C   0  0  0  0  0  0  0  0  0  0  0  0
  -28.9498   -3.9814   -5.5863 N   0  0  0  0  0  0  0  0  0  0  0  0
  -30.3225   -3.5427   -5.3516 C   0  0  0  0  0  0  0  0  0  0  0  0
  -28.7617   -4.4794   -6.9651 C   0  0  0  0  0  0  0  0  0  0  0  0
  -28.6862   -3.3867   -8.0630 C   0  0  0  0  0  0  0  0  0  0  0  0
 16 17  1  0  0  0
 17 10  1  0  0  0
 10 11  1  0  0  0
 10 15  2  0  0  0
 11 12  2  0  0  0
 12 13  1  0  0  0
 13  7  1  0  0  0
 13 14  2  0  0  0
  7  8  1  0  0  0
  7  1  1  0  0  0
  8  9  2  0  0  0
  8 20  1  0  0  0
 20 21  1  0  0  0
 21 22  1  0  0  0
 21 27  2  0  0  0
 22 23  1  0  0  0
 22 24  2  0  0  0
 24 25  1  0  0  0
 25 26  2  0  0  0
 26 27  1  0  0  0
 27 28  1  0  0  0
  1  2  1  0  0  0
  1  6  2  0  0  0
  2  3  2  0  0  0
  3  4  1  0  0  0
  4  5  2  0  0  0
  5 29  1  0  0  0
  5  6  1  0  0  0
 29 31  1  0  0  0
 29 30  1  0  0  0
 31 32  1  0  0  0
 31 37  2  0  0  0
 32 33  2  0  0  0
 33 34  1  0  0  0
 34 38  1  0  0  0
 34 35  2  0  0  0
 38 39  1  0  0  0
 39 40  1  0  0  0
 40 41  1  0  0  0
 41 42  1  0  0  0
 42 43  1  0  0  0
 42 48  1  0  0  0
 43 44  1  0  0  0
 44 45  1  0  0  0
 45 46  1  0  0  0
 45 47  1  0  0  0
 47 48  1  0  0  0
 35 36  1  0  0  0
 35 37  1  0  0  0
 14 18  1  0  0  0
 14 15  1  0  0  0
 18 19  1  0  0  0
M  END
> <minimizedAffinity>
-9.19529

$$$$
