CHEMBL3221561


 30 32  0  0  0  0  0  0  0  0999 V2000
  -30.1537   -5.9509   -7.2730 N   0  0  0  0  0  0  0  0  0  0  0  0
  -30.3656   -5.4276   -8.1318 H   0  0  0  0  0  0  0  0  0  0  0  0
  -30.0926   -5.2394   -6.0236 C   0  0  0  0  0  0  0  0  0  0  0  0
  -30.7703   -5.7187   -4.9447 N   0  0  0  0  0  0  0  0  0  0  0  0
  -30.7770   -5.0872   -3.7483 C   0  0  0  0  0  0  0  0  0  0  0  0
  -30.0932   -3.9399   -3.5841 N   0  0  0  0  0  0  0  0  0  0  0  0
  -29.4098   -3.3880   -4.6128 C   0  0  0  0  0  0  0  0  0  0  0  0
  -28.7387   -2.1917   -4.3970 C   0  0  0  0  0  0  0  0  0  0  0  0
  -28.0419   -1.5448   -5.4370 C   0  0  0  0  0  0  0  0  0  0  0  0
  -28.0382   -2.1539   -6.7284 C   0  0  0  0  0  0  0  0  0  0  0  0
  -28.6999   -3.3736   -6.9184 C   0  0  0  0  0  0  0  0  0  0  0  0
  -29.3958   -4.0082   -5.8777 C   0  0  0  0  0  0  0  0  0  0  0  0
  -27.3982   -0.3666   -5.1989 O   0  0  0  0  0  0  0  0  0  0  0  0
  -28.0371    0.8364   -4.9236 C   0  0  0  0  0  0  0  0  0  0  0  0
  -27.4439   -1.6521   -7.8426 O   0  0  0  0  0  0  0  0  0  0  0  0
  -27.6071   -1.9847   -9.1642 C   0  0  0  0  0  0  0  0  0  0  0  0
  -28.7461   -9.4575   -7.5562 C   0  0  0  0  0  0  0  0  0  0  0  0
  -28.8197   -8.0589   -7.4138 C   0  0  0  0  0  0  0  0  0  0  0  0
  -30.0535   -7.3750   -7.4188 C   0  0  0  0  0  0  0  0  0  0  0  0
  -31.2273   -8.1181   -7.6084 C   0  0  0  0  0  0  0  0  0  0  0  0
  -31.1773   -9.5041   -7.7484 C   0  0  0  0  0  0  0  0  0  0  0  0
  -29.9529  -10.1803   -7.7213 C   0  0  0  0  0  0  0  0  0  0  0  0
  -29.9780  -11.9297   -7.8913 Cl  0  0  0  0  0  0  0  0  0  0  0  0
  -26.6811  -10.3266   -8.6842 C   0  0  0  0  0  0  0  0  0  0  0  0
  -25.7019  -11.0465   -8.5749 O   0  0  0  0  0  0  0  0  0  0  0  0
  -27.4859  -10.1525   -7.6014 N   0  0  0  0  0  0  0  0  0  0  0  0
  -27.1659  -10.5856   -6.7212 H   0  0  0  0  0  0  0  0  0  0  0  0
  -26.9055   -9.6709   -9.8569 O   0  0  0  0  0  0  0  0  0  0  0  0
  -28.8274  -10.3372  -11.2164 C   0  0  0  0  0  0  0  0  0  0  0  0
  -27.3104  -10.2414  -11.0576 C   0  0  0  0  0  0  0  0  0  0  0  0
 29 30  1  0  0  0
 30 28  1  0  0  0
 28 24  1  0  0  0
 24 25  2  0  0  0
 24 26  1  0  0  0
 26 17  1  0  0  0
 26 27  1  0  0  0
 17 18  1  0  0  0
 17 22  2  0  0  0
 18 19  2  0  0  0
 19  1  1  0  0  0
 19 20  1  0  0  0
  1  3  1  0  0  0
  1  2  1  0  0  0
  3  4  1  0  0  0
  3 12  2  0  0  0
  4  5  2  0  0  0
  5  6  1  0  0  0
  6  7  2  0  0  0
  7  8  1  0  0  0
  7 12  1  0  0  0
  8  9  2  0  0  0
  9 13  1  0  0  0
  9 10  1  0  0  0
 13 14  1  0  0  0
 10 15  1  0  0  0
 10 11  2  0  0  0
 15 16  1  0  0  0
 11 12  1  0  0  0
 20 21  2  0  0  0
 21 22  1  0  0  0
 22 23  1  0  0  0
M  END
> <minimizedAffinity>
-7.61772

$$$$
