CHEMBL593221


 42 47  0  0  0  0  0  0  0  0999 V2000
  -29.5235   -4.0893   -5.2189 C   0  0  0  0  0  0  0  0  0  0  0  0
  -29.2211   -3.5917   -3.9973 N   0  0  0  0  0  0  0  0  0  0  0  0
  -28.9750   -4.4691   -3.0167 C   0  0  0  0  0  0  0  0  0  0  0  0
  -29.0132   -5.7929   -3.1204 N   0  0  0  0  0  0  0  0  0  0  0  0
  -29.2936   -6.2824   -4.3225 C   0  0  0  0  0  0  0  0  0  0  0  0
  -29.2767   -7.6636   -4.4070 C   0  0  0  0  0  0  0  0  0  0  0  0
  -29.4687   -8.3633   -5.6043 C   0  0  0  0  0  0  0  0  0  0  0  0
  -29.7620   -7.6247   -6.7569 C   0  0  0  0  0  0  0  0  0  0  0  0
  -29.8218   -6.2080   -6.6701 C   0  0  0  0  0  0  0  0  0  0  0  0
  -29.5631   -5.4992   -5.4538 C   0  0  0  0  0  0  0  0  0  0  0  0
  -29.7578   -3.1551   -6.2726 N   0  0  0  0  0  0  0  0  0  0  0  0
  -30.2197   -2.3194   -5.9197 H   0  0  0  0  0  0  0  0  0  0  0  0
  -28.2959   -1.5000   -7.4016 C   0  0  0  0  0  0  0  0  0  0  0  0
  -27.4816   -1.1115   -8.4977 C   0  0  0  0  0  0  0  0  0  0  0  0
  -27.2002   -1.9782   -9.5646 C   0  0  0  0  0  0  0  0  0  0  0  0
  -27.8154   -3.2386   -9.5176 C   0  0  0  0  0  0  0  0  0  0  0  0
  -28.6469   -3.6267   -8.4455 C   0  0  0  0  0  0  0  0  0  0  0  0
  -28.8798   -2.7888   -7.3485 C   0  0  0  0  0  0  0  0  0  0  0  0
  -26.2610   -1.5537  -10.6483 C   0  0  0  0  0  0  0  0  0  0  0  0
  -24.9976   -1.1902  -10.4754 N   0  0  0  0  0  0  0  0  0  0  0  0
  -24.3721   -0.9486  -11.7053 C   0  0  0  0  0  0  0  0  0  0  0  0
  -23.0241   -0.5761  -11.9281 C   0  0  0  0  0  0  0  0  0  0  0  0
  -22.5451   -0.3946  -13.2364 C   0  0  0  0  0  0  0  0  0  0  0  0
  -23.3867   -0.5765  -14.3277 C   0  0  0  0  0  0  0  0  0  0  0  0
  -24.7229   -0.9329  -14.1348 C   0  0  0  0  0  0  0  0  0  0  0  0
  -25.1931   -1.1115  -12.8199 C   0  0  0  0  0  0  0  0  0  0  0  0
  -26.7683   -1.5425  -12.2994 S   0  0  0  0  0  0  0  0  0  0  0  0
  -27.4685   -0.5605   -5.3811 C   0  0  0  0  0  0  0  0  0  0  0  0
  -28.5413   -0.6886   -6.3122 O   0  0  0  0  0  0  0  0  0  0  0  0
  -30.0055   -8.1017   -8.0210 O   0  0  0  0  0  0  0  0  0  0  0  0
  -28.9025   -8.4974   -8.8326 C   0  0  0  0  0  0  0  0  0  0  0  0
  -29.3646   -9.7337   -5.6677 O   0  0  0  0  0  0  0  0  0  0  0  0
  -28.1752  -10.3129   -5.1239 C   0  0  0  0  0  0  0  0  0  0  0  0
  -26.9760   -9.9895   -6.0027 C   0  0  0  0  0  0  0  0  0  0  0  0
  -25.7321   -9.8281   -5.1191 C   0  0  0  0  0  0  0  0  0  0  0  0
  -24.6636  -10.7813   -5.4293 N   0  0  0  0  0  0  0  0  0  0  0  0
  -24.4155  -10.9075   -6.8774 C   0  0  0  0  0  0  0  0  0  0  0  0
  -23.2624  -11.8894   -7.1774 C   0  0  0  0  0  0  0  0  0  0  0  0
  -21.9864  -11.5626   -6.5137 N   0  0  0  0  0  0  0  0  0  0  0  0
  -21.3462  -10.4038   -7.1310 C   0  0  0  0  0  0  0  0  0  0  0  0
  -22.2373  -11.3476   -5.0738 C   0  0  0  0  0  0  0  0  0  0  0  0
  -23.4095  -10.3903   -4.7485 C   0  0  0  0  0  0  0  0  0  0  0  0
 28 29  1  0  0  0
 29 13  1  0  0  0
 13 14  1  0  0  0
 13 18  2  0  0  0
 14 15  2  0  0  0
 15 19  1  0  0  0
 15 16  1  0  0  0
 19 20  2  0  0  0
 19 27  1  0  0  0
 20 21  1  0  0  0
 21 22  1  0  0  0
 21 26  2  0  0  0
 22 23  2  0  0  0
 23 24  1  0  0  0
 24 25  2  0  0  0
 25 26  1  0  0  0
 26 27  1  0  0  0
 16 17  2  0  0  0
 17 18  1  0  0  0
 18 11  1  0  0  0
 11  1  1  0  0  0
 11 12  1  0  0  0
  1  2  1  0  0  0
  1 10  2  0  0  0
  2  3  2  0  0  0
  3  4  1  0  0  0
  4  5  2  0  0  0
  5  6  1  0  0  0
  5 10  1  0  0  0
  6  7  2  0  0  0
  7 32  1  0  0  0
  7  8  1  0  0  0
 32 33  1  0  0  0
 33 34  1  0  0  0
 34 35  1  0  0  0
 35 36  1  0  0  0
 36 37  1  0  0  0
 36 42  1  0  0  0
 37 38  1  0  0  0
 38 39  1  0  0  0
 39 40  1  0  0  0
 39 41  1  0  0  0
 41 42  1  0  0  0
  8 30  1  0  0  0
  8  9  2  0  0  0
 30 31  1  0  0  0
  9 10  1  0  0  0
M  END
> <minimizedAffinity>
-8.77829

$$$$
