CHEMBL2322139


 23 26  0  0  0  0  0  0  0  0999 V2000
  -30.5202   -4.6198   -4.4067 C   0  0  0  0  0  0  0  0  0  0  0  0
  -30.5136   -3.3512   -4.0094 N   0  0  0  0  0  0  0  0  0  0  0  0
  -29.8175   -2.6555   -4.9466 C   0  0  0  0  0  0  0  0  0  0  0  0
  -29.5363   -1.2825   -5.0522 C   0  0  0  0  0  0  0  0  0  0  0  0
  -28.8258   -0.7518   -6.0865 N   0  0  0  0  0  0  0  0  0  0  0  0
  -28.4194   -1.6485   -7.0042 C   0  0  0  0  0  0  0  0  0  0  0  0
  -27.7012   -1.3802   -8.1340 N   0  0  0  0  0  0  0  0  0  0  0  0
  -27.4822   -2.5534   -8.8234 C   0  0  0  0  0  0  0  0  0  0  0  0
  -28.0763   -3.5942   -8.1278 C   0  0  0  0  0  0  0  0  0  0  0  0
  -28.6546   -3.0057   -6.9768 C   0  0  0  0  0  0  0  0  0  0  0  0
  -29.3646   -3.5213   -5.9253 C   0  0  0  0  0  0  0  0  0  0  0  0
  -29.7757   -4.7749   -5.5869 N   0  0  0  0  0  0  0  0  0  0  0  0
  -27.3956   -0.4559   -8.4032 H   0  0  0  0  0  0  0  0  0  0  0  0
  -29.5399   -6.0084   -6.3458 C   0  0  0  0  0  0  0  0  0  0  0  0
  -30.8446   -6.5667   -6.9418 C   0  0  0  0  0  0  0  0  0  0  0  0
  -30.6091   -7.8280   -7.7727 C   0  0  0  0  0  0  0  0  0  0  0  0
  -29.8440   -8.8841   -6.9836 C   0  0  0  0  0  0  0  0  0  0  0  0
  -28.5017   -8.3365   -6.5102 C   0  0  0  0  0  0  0  0  0  0  0  0
  -28.6983   -7.0913   -5.6461 C   0  0  0  0  0  0  0  0  0  0  0  0
  -32.1451   -6.3577   -4.4570 F   0  0  0  0  0  0  0  0  0  0  0  0
  -31.2537   -5.6999   -3.6666 C   0  0  0  0  0  0  0  0  0  0  0  0
  -31.9742   -5.2117   -2.6231 F   0  0  0  0  0  0  0  0  0  0  0  0
  -30.4171   -6.6483   -3.1705 F   0  0  0  0  0  0  0  0  0  0  0  0
 20 21  1  0  0  0
 21 22  1  0  0  0
 21 23  1  0  0  0
 21  1  1  0  0  0
  1  2  2  0  0  0
  1 12  1  0  0  0
  2  3  1  0  0  0
  3  4  1  0  0  0
  3 11  2  0  0  0
  4  5  2  0  0  0
  5  6  1  0  0  0
  6  7  1  0  0  0
  6 10  2  0  0  0
  7  8  1  0  0  0
  7 13  1  0  0  0
  8  9  2  0  0  0
  9 10  1  0  0  0
 10 11  1  0  0  0
 11 12  1  0  0  0
 12 14  1  0  0  0
 14 15  1  0  0  0
 14 19  1  0  0  0
 15 16  1  0  0  0
 16 17  1  0  0  0
 17 18  1  0  0  0
 18 19  1  0  0  0
M  END
> <minimizedAffinity>
-7.85383

$$$$
