CHEMBL3236669


 30 34  0  0  0  0  0  0  0  0999 V2000
  -30.1038   -3.9736   -3.5755 O   0  0  0  0  0  0  0  0  0  0  0  0
  -29.8578   -4.3227   -4.7229 C   0  0  0  0  0  0  0  0  0  0  0  0
  -30.4993   -5.6052   -5.3087 C   0  0  0  0  0  0  0  0  0  0  0  0
  -31.4986   -6.0494   -4.8215 O   0  0  0  0  0  0  0  0  0  0  0  0
  -29.8559   -6.1848   -6.4601 C   0  0  0  0  0  0  0  0  0  0  0  0
  -28.9097   -5.4629   -7.1693 C   0  0  0  0  0  0  0  0  0  0  0  0
  -28.2811   -6.2814   -8.0428 O   0  0  0  0  0  0  0  0  0  0  0  0
  -28.9688   -7.4537   -8.0101 C   0  0  0  0  0  0  0  0  0  0  0  0
  -28.6826   -8.5614   -8.7732 C   0  0  0  0  0  0  0  0  0  0  0  0
  -29.7644   -9.4004   -8.9638 C   0  0  0  0  0  0  0  0  0  0  0  0
  -29.9949   -9.8705  -10.2315 O   0  0  0  0  0  0  0  0  0  0  0  0
  -30.7832   -9.4809   -8.0251 C   0  0  0  0  0  0  0  0  0  0  0  0
  -31.7092  -10.4775   -8.1006 O   0  0  0  0  0  0  0  0  0  0  0  0
  -30.8892   -8.5243   -7.0183 C   0  0  0  0  0  0  0  0  0  0  0  0
  -30.0394   -7.4140   -7.1151 C   0  0  0  0  0  0  0  0  0  0  0  0
  -28.6426   -4.1013   -6.8697 C   0  0  0  0  0  0  0  0  0  0  0  0
  -28.1944   -3.1171   -7.6981 O   0  0  0  0  0  0  0  0  0  0  0  0
  -28.2510   -1.9549   -6.9728 C   0  0  0  0  0  0  0  0  0  0  0  0
  -28.0775   -0.6596   -7.4668 C   0  0  0  0  0  0  0  0  0  0  0  0
  -28.2001    0.3506   -6.5176 C   0  0  0  0  0  0  0  0  0  0  0  0
  -28.3315    1.6531   -6.9071 O   0  0  0  0  0  0  0  0  0  0  0  0
  -28.3111    0.0740   -5.1507 C   0  0  0  0  0  0  0  0  0  0  0  0
  -28.2477    1.0979   -4.2500 O   0  0  0  0  0  0  0  0  0  0  0  0
  -28.5320   -1.2133   -4.6907 C   0  0  0  0  0  0  0  0  0  0  0  0
  -28.5765   -2.2378   -5.6429 C   0  0  0  0  0  0  0  0  0  0  0  0
  -29.0453   -3.5536   -5.6589 C   0  0  0  0  0  0  0  0  0  0  0  0
  -29.8636   -9.0972  -10.8099 H   0  0  0  0  0  0  0  0  0  0  0  0
  -31.4062  -11.0625   -8.8227 H   0  0  0  0  0  0  0  0  0  0  0  0
  -29.1211    1.9690   -6.4175 H   0  0  0  0  0  0  0  0  0  0  0  0
  -27.6833    1.7851   -4.6575 H   0  0  0  0  0  0  0  0  0  0  0  0
  1  2  2  0  0  0
  2  3  1  0  0  0
  2 26  1  0  0  0
  3  4  2  0  0  0
  3  5  1  0  0  0
  5  6  2  0  0  0
  5 15  1  0  0  0
  6  7  1  0  0  0
  6 16  1  0  0  0
  7  8  1  0  0  0
  8  9  1  0  0  0
  8 15  2  0  0  0
  9 10  2  0  0  0
 10 11  1  0  0  0
 10 12  1  0  0  0
 11 27  1  0  0  0
 12 13  1  0  0  0
 12 14  2  0  0  0
 13 28  1  0  0  0
 14 15  1  0  0  0
 16 17  1  0  0  0
 16 26  2  0  0  0
 17 18  1  0  0  0
 18 19  1  0  0  0
 18 25  2  0  0  0
 19 20  2  0  0  0
 20 21  1  0  0  0
 20 22  1  0  0  0
 21 29  1  0  0  0
 22 23  1  0  0  0
 22 24  2  0  0  0
 23 30  1  0  0  0
 24 25  1  0  0  0
 25 26  1  0  0  0
M  END
> <minimizedAffinity>
-10.82367

$$$$
