CHEMBL352877


 34 38  0  0  0  0  0  0  0  0999 V2000
  -28.1463   -2.1658   -6.5977 C   0  0  0  0  0  0  0  0  0  0  0  0
  -28.1117   -3.0133   -5.4847 C   0  0  0  0  0  0  0  0  0  0  0  0
  -28.3512   -4.3785   -5.5795 C   0  0  0  0  0  0  0  0  0  0  0  0
  -28.3074   -5.1023   -4.4591 N   0  0  0  0  0  0  0  0  0  0  0  0
  -28.5270   -6.4146   -4.5823 C   0  0  0  0  0  0  0  0  0  0  0  0
  -28.7428   -7.0660   -5.7265 N   0  0  0  0  0  0  0  0  0  0  0  0
  -28.7979   -6.3296   -6.8539 C   0  0  0  0  0  0  0  0  0  0  0  0
  -28.6197   -4.9347   -6.8336 C   0  0  0  0  0  0  0  0  0  0  0  0
  -28.6673   -4.0907   -7.9663 C   0  0  0  0  0  0  0  0  0  0  0  0
  -28.3717   -2.7296   -7.8587 C   0  0  0  0  0  0  0  0  0  0  0  0
  -27.5819   -0.2382   -5.2825 C   0  0  0  0  0  0  0  0  0  0  0  0
  -27.9509   -0.8158   -6.5302 O   0  0  0  0  0  0  0  0  0  0  0  0
  -28.9877   -7.0033   -8.0950 N   0  0  0  0  0  0  0  0  0  0  0  0
  -28.1064   -6.9707   -8.6070 H   0  0  0  0  0  0  0  0  0  0  0  0
  -29.5366   -8.3092   -8.1794 C   0  0  0  0  0  0  0  0  0  0  0  0
  -28.8111   -9.4478   -8.5852 C   0  0  0  0  0  0  0  0  0  0  0  0
  -27.0903   -9.4155   -8.8034 Cl  0  0  0  0  0  0  0  0  0  0  0  0
  -29.4458  -10.6943   -8.7616 C   0  0  0  0  0  0  0  0  0  0  0  0
  -30.8066  -10.8451   -8.4932 C   0  0  0  0  0  0  0  0  0  0  0  0
  -31.4869   -9.7471   -8.0184 C   0  0  0  0  0  0  0  0  0  0  0  0
  -30.8763   -8.5216   -7.8576 C   0  0  0  0  0  0  0  0  0  0  0  0
  -31.7387   -7.5812   -7.3720 O   0  0  0  0  0  0  0  0  0  0  0  0
  -32.9309   -8.3761   -7.1802 C   0  0  0  0  0  0  0  0  0  0  0  0
  -32.7986   -9.7283   -7.6612 O   0  0  0  0  0  0  0  0  0  0  0  0
  -28.3353   -2.0713   -9.0602 O   0  0  0  0  0  0  0  0  0  0  0  0
  -27.0749   -2.0194   -9.7466 C   0  0  0  0  0  0  0  0  0  0  0  0
  -27.1237   -1.4068  -11.1563 C   0  0  0  0  0  0  0  0  0  0  0  0
  -25.7505   -0.8841  -11.5984 C   0  0  0  0  0  0  0  0  0  0  0  0
  -24.8829   -1.8965  -12.2347 N   0  0  0  0  0  0  0  0  0  0  0  0
  -23.5157   -1.8389  -11.6602 C   0  0  0  0  0  0  0  0  0  0  0  0
  -22.7023   -0.6059  -12.1074 C   0  0  0  0  0  0  0  0  0  0  0  0
  -22.6333   -0.5003  -13.5344 O   0  0  0  0  0  0  0  0  0  0  0  0
  -23.9413   -0.4999  -14.1169 C   0  0  0  0  0  0  0  0  0  0  0  0
  -24.7453   -1.7409  -13.7002 C   0  0  0  0  0  0  0  0  0  0  0  0
 11 12  1  0  0  0
 12  1  1  0  0  0
  1  2  1  0  0  0
  1 10  2  0  0  0
  2  3  2  0  0  0
  3  4  1  0  0  0
  3  8  1  0  0  0
  4  5  2  0  0  0
  5  6  1  0  0  0
  6  7  2  0  0  0
  7 13  1  0  0  0
  7  8  1  0  0  0
 13 15  1  0  0  0
 13 14  1  0  0  0
 15 16  1  0  0  0
 15 21  2  0  0  0
 16 17  1  0  0  0
 16 18  2  0  0  0
 18 19  1  0  0  0
 19 20  2  0  0  0
 20 21  1  0  0  0
 20 24  1  0  0  0
 21 22  1  0  0  0
 22 23  1  0  0  0
 23 24  1  0  0  0
  8  9  2  0  0  0
  9 10  1  0  0  0
 10 25  1  0  0  0
 25 26  1  0  0  0
 26 27  1  0  0  0
 27 28  1  0  0  0
 28 29  1  0  0  0
 29 30  1  0  0  0
 29 34  1  0  0  0
 30 31  1  0  0  0
 31 32  1  0  0  0
 32 33  1  0  0  0
 33 34  1  0  0  0
M  END
> <minimizedAffinity>
-9.18284

$$$$
