CHEMBL3690573


 37 40  0  0  0  0  0  0  0  0999 V2000
  -23.5939    0.0661  -13.1752 C   0  0  0  0  0  0  0  0  0  0  0  0
  -23.5792   -0.0871  -11.7136 C   0  0  0  0  0  0  0  0  0  0  0  0
  -24.5824   -0.7184  -11.0871 C   0  0  0  0  0  0  0  0  0  0  0  0
  -25.6588   -1.2033  -11.8280 N   0  0  0  0  0  0  0  0  0  0  0  0
  -26.8327   -1.8243  -11.4269 C   0  0  0  0  0  0  0  0  0  0  0  0
  -27.4383   -2.1914  -12.6201 C   0  0  0  0  0  0  0  0  0  0  0  0
  -26.7497   -1.7380  -13.7118 N   0  0  0  0  0  0  0  0  0  0  0  0
  -25.7038   -1.1164  -13.2153 C   0  0  0  0  0  0  0  0  0  0  0  0
  -24.6451   -0.4272  -13.8731 C   0  0  0  0  0  0  0  0  0  0  0  0
  -20.3100    2.0991  -14.9254 C   0  0  0  0  0  0  0  0  0  0  0  0
  -20.3557    0.7126  -15.0282 C   0  0  0  0  0  0  0  0  0  0  0  0
  -21.4445    0.0218  -14.4981 C   0  0  0  0  0  0  0  0  0  0  0  0
  -22.4678    0.7363  -13.8767 C   0  0  0  0  0  0  0  0  0  0  0  0
  -22.4367    2.0904  -13.7735 N   0  0  0  0  0  0  0  0  0  0  0  0
  -21.3620    2.7402  -14.2865 C   0  0  0  0  0  0  0  0  0  0  0  0
  -16.8599    2.8737  -16.2343 C   0  0  0  0  0  0  0  0  0  0  0  0
  -18.0380    2.1953  -15.7620 N   0  0  0  0  0  0  0  0  0  0  0  0
  -19.1679    2.9027  -15.4111 C   0  0  0  0  0  0  0  0  0  0  0  0
  -19.2629    4.1208  -15.4913 O   0  0  0  0  0  0  0  0  0  0  0  0
  -18.0709    1.1877  -15.8343 H   0  0  0  0  0  0  0  0  0  0  0  0
  -27.3028   -2.0185  -10.0527 C   0  0  0  0  0  0  0  0  0  0  0  0
  -27.5017   -0.9000   -9.2339 C   0  0  0  0  0  0  0  0  0  0  0  0
  -27.8523   -1.0564   -7.8969 C   0  0  0  0  0  0  0  0  0  0  0  0
  -28.0622   -2.3313   -7.3772 C   0  0  0  0  0  0  0  0  0  0  0  0
  -27.9455   -3.4660   -8.1842 C   0  0  0  0  0  0  0  0  0  0  0  0
  -27.5033   -3.3012   -9.5050 C   0  0  0  0  0  0  0  0  0  0  0  0
  -28.2440   -4.7656   -7.7193 N   0  0  0  0  0  0  0  0  0  0  0  0
  -29.5101   -5.2229   -7.4222 C   0  0  0  0  0  0  0  0  0  0  0  0
  -30.5626   -4.6180   -7.5716 O   0  0  0  0  0  0  0  0  0  0  0  0
  -29.5063   -6.4818   -6.8686 N   0  0  0  0  0  0  0  0  0  0  0  0
  -27.5037   -5.4497   -7.7557 H   0  0  0  0  0  0  0  0  0  0  0  0
  -28.7583   -7.1077   -7.1297 H   0  0  0  0  0  0  0  0  0  0  0  0
  -30.7984   -7.0835   -6.5115 C   0  0  0  0  0  0  0  0  0  0  0  0
  -31.2043   -8.3351   -7.3041 C   0  0  0  0  0  0  0  0  0  0  0  0
  -30.4892   -8.4694   -8.4449 F   0  0  0  0  0  0  0  0  0  0  0  0
  -30.9643   -9.4455   -6.5610 F   0  0  0  0  0  0  0  0  0  0  0  0
  -32.5148   -8.3437   -7.6225 F   0  0  0  0  0  0  0  0  0  0  0  0
 16 17  1  0  0  0
 17 18  1  0  0  0
 17 20  1  0  0  0
 18 19  2  0  0  0
 18 10  1  0  0  0
 10 11  1  0  0  0
 10 15  2  0  0  0
 11 12  2  0  0  0
 12 13  1  0  0  0
 13  1  1  0  0  0
 13 14  2  0  0  0
  1  2  1  0  0  0
  1  9  2  0  0  0
  2  3  2  0  0  0
  3  4  1  0  0  0
  4  5  1  0  0  0
  4  8  1  0  0  0
  5 21  1  0  0  0
  5  6  2  0  0  0
 21 22  1  0  0  0
 21 26  2  0  0  0
 22 23  2  0  0  0
 23 24  1  0  0  0
 24 25  2  0  0  0
 25 27  1  0  0  0
 25 26  1  0  0  0
 27 28  1  0  0  0
 27 31  1  0  0  0
 28 29  2  0  0  0
 28 30  1  0  0  0
 30 33  1  0  0  0
 30 32  1  0  0  0
 33 34  1  0  0  0
 34 35  1  0  0  0
 34 36  1  0  0  0
 34 37  1  0  0  0
  6  7  1  0  0  0
  7  8  2  0  0  0
  8  9  1  0  0  0
 14 15  1  0  0  0
M  END
> <minimizedAffinity>
-9.23878

$$$$
