CHEMBL233823


 28 30  0  0  0  0  0  0  0  0999 V2000
  -25.4201   -1.4660  -10.0780 O   0  0  0  0  0  0  0  0  0  0  0  0
  -26.4161   -1.6601  -10.7677 C   0  0  0  0  0  0  0  0  0  0  0  0
  -27.6728   -1.9403  -10.2424 N   0  0  0  0  0  0  0  0  0  0  0  0
  -28.4419   -1.9788  -10.8968 H   0  0  0  0  0  0  0  0  0  0  0  0
  -27.9944   -2.1660   -8.8812 C   0  0  0  0  0  0  0  0  0  0  0  0
  -28.5914   -3.3379   -8.4175 C   0  0  0  0  0  0  0  0  0  0  0  0
  -28.9308   -3.4892   -7.0703 C   0  0  0  0  0  0  0  0  0  0  0  0
  -28.6866   -2.4690   -6.1424 C   0  0  0  0  0  0  0  0  0  0  0  0
  -28.0675   -1.3015   -6.5996 C   0  0  0  0  0  0  0  0  0  0  0  0
  -27.7014    0.0075   -5.5334 Cl  0  0  0  0  0  0  0  0  0  0  0  0
  -27.7256   -1.1502   -7.9562 C   0  0  0  0  0  0  0  0  0  0  0  0
  -29.1034   -2.6561   -4.7072 C   0  0  0  0  0  0  0  0  0  0  0  0
  -29.7812   -3.8245   -4.5009 F   0  0  0  0  0  0  0  0  0  0  0  0
  -28.0524   -2.6945   -3.8444 F   0  0  0  0  0  0  0  0  0  0  0  0
  -29.9373   -1.6772   -4.2624 F   0  0  0  0  0  0  0  0  0  0  0  0
  -26.3531   -1.6104  -12.2167 C   0  0  0  0  0  0  0  0  0  0  0  0
  -27.2931   -2.0106  -13.1572 C   0  0  0  0  0  0  0  0  0  0  0  0
  -26.7021   -1.7906  -14.4084 C   0  0  0  0  0  0  0  0  0  0  0  0
  -25.4766   -1.2897  -14.2997 N   0  0  0  0  0  0  0  0  0  0  0  0
  -25.2609   -1.2032  -12.9658 N   0  0  0  0  0  0  0  0  0  0  0  0
  -23.9326   -0.7715  -12.5357 C   0  0  0  0  0  0  0  0  0  0  0  0
  -22.9209   -0.7280  -13.6877 C   0  0  0  0  0  0  0  0  0  0  0  0
  -22.2624    0.5991  -14.0081 C   0  0  0  0  0  0  0  0  0  0  0  0
  -21.0161    0.7430  -14.6218 C   0  0  0  0  0  0  0  0  0  0  0  0
  -20.5515    2.0245  -14.9026 C   0  0  0  0  0  0  0  0  0  0  0  0
  -21.2269    3.1571  -14.6141 N   0  0  0  0  0  0  0  0  0  0  0  0
  -22.4221    3.0036  -14.0120 C   0  0  0  0  0  0  0  0  0  0  0  0
  -22.9679    1.7694  -13.6914 C   0  0  0  0  0  0  0  0  0  0  0  0
  1  2  2  0  0  0
  2  3  1  0  0  0
  2 16  1  0  0  0
  3  5  1  0  0  0
  3  4  1  0  0  0
  5  6  1  0  0  0
  5 11  2  0  0  0
  6  7  2  0  0  0
  7  8  1  0  0  0
  8 12  1  0  0  0
  8  9  2  0  0  0
 12 13  1  0  0  0
 12 14  1  0  0  0
 12 15  1  0  0  0
  9 10  1  0  0  0
  9 11  1  0  0  0
 16 17  2  0  0  0
 16 20  1  0  0  0
 17 18  1  0  0  0
 18 19  2  0  0  0
 19 20  1  0  0  0
 20 21  1  0  0  0
 21 22  1  0  0  0
 22 23  1  0  0  0
 23 24  1  0  0  0
 23 28  2  0  0  0
 24 25  2  0  0  0
 25 26  1  0  0  0
 26 27  2  0  0  0
 27 28  1  0  0  0
M  END
> <minimizedAffinity>
-10.10618

$$$$
