CHEMBL194113


 22 24  0  0  0  0  0  0  0  0999 V2000
  -27.5771   -2.8596   -8.4075 N   0  0  0  0  0  0  0  0  0  0  0  0
  -26.8116   -3.4578   -8.1225 H   0  0  0  0  0  0  0  0  0  0  0  0
  -28.6573   -0.3957   -5.8071 C   0  0  0  0  0  0  0  0  0  0  0  0
  -29.5272   -1.1956   -5.0590 C   0  0  0  0  0  0  0  0  0  0  0  0
  -29.7387   -2.5296   -5.4066 C   0  0  0  0  0  0  0  0  0  0  0  0
  -29.0883   -3.0780   -6.5149 C   0  0  0  0  0  0  0  0  0  0  0  0
  -28.2436   -2.2885   -7.3028 C   0  0  0  0  0  0  0  0  0  0  0  0
  -28.0185   -0.9567   -6.9202 C   0  0  0  0  0  0  0  0  0  0  0  0
  -28.3924    1.8339   -6.6244 O   0  0  0  0  0  0  0  0  0  0  0  0
  -28.4385    1.0447   -5.4444 C   0  0  0  0  0  0  0  0  0  0  0  0
  -28.3165    2.7576   -6.3347 H   0  0  0  0  0  0  0  0  0  0  0  0
  -27.3865   -2.1828   -9.5576 C   0  0  0  0  0  0  0  0  0  0  0  0
  -28.2705   -1.6834  -10.3957 N   0  0  0  0  0  0  0  0  0  0  0  0
  -27.5149   -1.1517  -11.4008 C   0  0  0  0  0  0  0  0  0  0  0  0
  -26.1760   -1.3270  -11.1357 C   0  0  0  0  0  0  0  0  0  0  0  0
  -26.0857   -1.9860   -9.9342 O   0  0  0  0  0  0  0  0  0  0  0  0
  -24.9426   -1.0080  -11.8395 C   0  0  0  0  0  0  0  0  0  0  0  0
  -24.6046    0.3300  -12.0912 C   0  0  0  0  0  0  0  0  0  0  0  0
  -23.4452    0.6568  -12.7967 C   0  0  0  0  0  0  0  0  0  0  0  0
  -22.6075   -0.3558  -13.2608 C   0  0  0  0  0  0  0  0  0  0  0  0
  -22.9275   -1.6887  -13.0177 C   0  0  0  0  0  0  0  0  0  0  0  0
  -24.0859   -2.0155  -12.3053 C   0  0  0  0  0  0  0  0  0  0  0  0
  9 10  1  0  0  0
  9 11  1  0  0  0
 10  3  1  0  0  0
  3  4  1  0  0  0
  3  8  2  0  0  0
  4  5  2  0  0  0
  5  6  1  0  0  0
  6  7  2  0  0  0
  7  1  1  0  0  0
  7  8  1  0  0  0
  1 12  1  0  0  0
  1  2  1  0  0  0
 12 13  2  0  0  0
 12 16  1  0  0  0
 13 14  1  0  0  0
 14 15  2  0  0  0
 15 17  1  0  0  0
 15 16  1  0  0  0
 17 18  1  0  0  0
 17 22  2  0  0  0
 18 19  2  0  0  0
 19 20  1  0  0  0
 20 21  2  0  0  0
 21 22  1  0  0  0
M  END
> <minimizedAffinity>
-8.65090

$$$$
