CHEMBL220890


 29 31  0  0  0  0  0  0  0  0999 V2000
  -15.2278    2.0282  -15.6824 C   0  0  0  0  0  0  0  0  0  0  0  0
  -14.7577    3.1225  -16.3229 N   0  0  0  0  0  0  0  0  0  0  0  0
  -13.5977    3.6071  -15.8804 C   0  0  0  0  0  0  0  0  0  0  0  0
  -12.8830    3.1208  -14.8642 N   0  0  0  0  0  0  0  0  0  0  0  0
  -13.3972    2.0631  -14.2163 C   0  0  0  0  0  0  0  0  0  0  0  0
  -12.5675    1.5520  -13.2186 N   0  0  0  0  0  0  0  0  0  0  0  0
  -14.5978    1.4680  -14.5860 C   0  0  0  0  0  0  0  0  0  0  0  0
  -11.7992    2.1953  -13.0635 H   0  0  0  0  0  0  0  0  0  0  0  0
  -13.0964    1.3217  -12.3773 H   0  0  0  0  0  0  0  0  0  0  0  0
  -15.1678    0.3312  -13.8425 C   0  0  0  0  0  0  0  0  0  0  0  0
  -15.0918    0.2719  -12.5511 N   0  0  0  0  0  0  0  0  0  0  0  0
  -15.6917   -0.9037  -12.0778 O   0  0  0  0  0  0  0  0  0  0  0  0
  -15.1529   -2.0054  -12.8225 C   0  0  0  0  0  0  0  0  0  0  0  0
  -14.2619   -2.8435  -11.9144 C   0  0  0  0  0  0  0  0  0  0  0  0
  -12.8823   -2.5992  -12.1802 O   0  0  0  0  0  0  0  0  0  0  0  0
  -12.7538   -2.7647  -13.1323 H   0  0  0  0  0  0  0  0  0  0  0  0
  -16.4304    1.4805  -16.1239 O   0  0  0  0  0  0  0  0  0  0  0  0
  -23.4151    1.4885  -13.7550 C   0  0  0  0  0  0  0  0  0  0  0  0
  -21.9689    1.6569  -14.0389 C   0  0  0  0  0  0  0  0  0  0  0  0
  -20.9599    0.7280  -14.1961 C   0  0  0  0  0  0  0  0  0  0  0  0
  -19.8010    1.4127  -14.6612 C   0  0  0  0  0  0  0  0  0  0  0  0
  -18.5222    1.0124  -15.1024 C   0  0  0  0  0  0  0  0  0  0  0  0
  -18.1907   -0.2893  -15.0958 F   0  0  0  0  0  0  0  0  0  0  0  0
  -17.6158    1.9609  -15.5950 C   0  0  0  0  0  0  0  0  0  0  0  0
  -17.9871    3.3107  -15.6360 C   0  0  0  0  0  0  0  0  0  0  0  0
  -19.2281    3.7440  -15.1523 C   0  0  0  0  0  0  0  0  0  0  0  0
  -20.1202    2.7709  -14.6924 C   0  0  0  0  0  0  0  0  0  0  0  0
  -21.4128    2.8975  -14.2355 N   0  0  0  0  0  0  0  0  0  0  0  0
  -21.9064    3.7758  -14.1525 H   0  0  0  0  0  0  0  0  0  0  0  0
 18 19  1  0  0  0
 19 20  2  0  0  0
 19 28  1  0  0  0
 20 21  1  0  0  0
 21 22  1  0  0  0
 21 27  2  0  0  0
 22 23  1  0  0  0
 22 24  2  0  0  0
 24 17  1  0  0  0
 24 25  1  0  0  0
 17  1  1  0  0  0
  1  2  1  0  0  0
  1  7  2  0  0  0
  2  3  2  0  0  0
  3  4  1  0  0  0
  4  5  2  0  0  0
  5  6  1  0  0  0
  5  7  1  0  0  0
  6  8  1  0  0  0
  6  9  1  0  0  0
  7 10  1  0  0  0
 10 11  2  0  0  0
 11 12  1  0  0  0
 12 13  1  0  0  0
 13 14  1  0  0  0
 14 15  1  0  0  0
 15 16  1  0  0  0
 25 26  2  0  0  0
 26 27  1  0  0  0
 27 28  1  0  0  0
 28 29  1  0  0  0
M  END
> <minimizedAffinity>
-7.51590

$$$$
