CHEMBL3960088


 38 41  0  0  0  0  0  0  0  0999 V2000
  -24.9726   -0.9426  -15.5079 C   0  0  0  0  0  0  0  0  0  0  0  0
  -24.6957   -1.2281  -14.0614 C   0  0  0  0  0  0  0  0  0  0  0  0
  -25.7990   -1.6234  -13.2751 C   0  0  0  0  0  0  0  0  0  0  0  0
  -25.6745   -1.9496  -11.9200 C   0  0  0  0  0  0  0  0  0  0  0  0
  -24.4329   -1.7850  -11.3142 C   0  0  0  0  0  0  0  0  0  0  0  0
  -23.3307   -1.3540  -12.0666 C   0  0  0  0  0  0  0  0  0  0  0  0
  -23.4378   -1.1103  -13.4492 C   0  0  0  0  0  0  0  0  0  0  0  0
  -26.7751   -2.4137  -11.1632 N   0  0  0  0  0  0  0  0  0  0  0  0
  -27.0148   -2.0744   -9.8448 C   0  0  0  0  0  0  0  0  0  0  0  0
  -26.3886   -1.2286   -9.2112 O   0  0  0  0  0  0  0  0  0  0  0  0
  -28.0329   -2.8316   -9.2804 N   0  0  0  0  0  0  0  0  0  0  0  0
  -27.5723   -2.7708  -11.6807 H   0  0  0  0  0  0  0  0  0  0  0  0
  -28.0582   -3.7839   -9.6177 H   0  0  0  0  0  0  0  0  0  0  0  0
  -28.3989   -2.6307   -7.9280 C   0  0  0  0  0  0  0  0  0  0  0  0
  -28.7274   -3.7336   -7.1484 C   0  0  0  0  0  0  0  0  0  0  0  0
  -29.0215   -3.5593   -5.7945 C   0  0  0  0  0  0  0  0  0  0  0  0
  -29.0482   -2.2803   -5.2192 C   0  0  0  0  0  0  0  0  0  0  0  0
  -29.4411   -2.2066   -3.5417 Cl  0  0  0  0  0  0  0  0  0  0  0  0
  -28.7658   -1.1531   -5.9955 C   0  0  0  0  0  0  0  0  0  0  0  0
  -28.4193   -1.3511   -7.3527 C   0  0  0  0  0  0  0  0  0  0  0  0
  -28.8054    0.2675   -5.4885 C   0  0  0  0  0  0  0  0  0  0  0  0
  -28.0178    0.5490   -4.4176 F   0  0  0  0  0  0  0  0  0  0  0  0
  -28.4536    1.1704   -6.4473 F   0  0  0  0  0  0  0  0  0  0  0  0
  -30.0662    0.6237   -5.1008 F   0  0  0  0  0  0  0  0  0  0  0  0
  -22.3513   -0.6703  -14.1928 O   0  0  0  0  0  0  0  0  0  0  0  0
  -22.1300    0.7098  -14.2793 C   0  0  0  0  0  0  0  0  0  0  0  0
  -21.0074    1.1511  -14.9606 C   0  0  0  0  0  0  0  0  0  0  0  0
  -20.8068    2.5206  -14.9892 C   0  0  0  0  0  0  0  0  0  0  0  0
  -21.6703    3.3657  -14.4164 N   0  0  0  0  0  0  0  0  0  0  0  0
  -22.7145    2.8422  -13.7762 C   0  0  0  0  0  0  0  0  0  0  0  0
  -22.9829    1.5409  -13.6569 N   0  0  0  0  0  0  0  0  0  0  0  0
  -19.6306    3.0417  -15.5813 N   0  0  0  0  0  0  0  0  0  0  0  0
  -18.3522    2.7489  -15.1291 C   0  0  0  0  0  0  0  0  0  0  0  0
  -18.0546    2.2031  -14.0759 O   0  0  0  0  0  0  0  0  0  0  0  0
  -19.7297    3.6170  -16.3942 H   0  0  0  0  0  0  0  0  0  0  0  0
  -17.2123    3.1583  -16.0102 C   0  0  0  0  0  0  0  0  0  0  0  0
  -16.1884    2.1460  -16.4608 C   0  0  0  0  0  0  0  0  0  0  0  0
  -15.7702    3.3064  -15.6034 C   0  0  0  0  0  0  0  0  0  0  0  0
  1  2  1  0  0  0
  2  3  1  0  0  0
  2  7  2  0  0  0
  3  4  2  0  0  0
  4  8  1  0  0  0
  4  5  1  0  0  0
  8  9  1  0  0  0
  8 12  1  0  0  0
  9 10  2  0  0  0
  9 11  1  0  0  0
 11 14  1  0  0  0
 11 13  1  0  0  0
 14 15  1  0  0  0
 14 20  2  0  0  0
 15 16  2  0  0  0
 16 17  1  0  0  0
 17 18  1  0  0  0
 17 19  2  0  0  0
 19 21  1  0  0  0
 19 20  1  0  0  0
 21 22  1  0  0  0
 21 23  1  0  0  0
 21 24  1  0  0  0
  5  6  2  0  0  0
  6  7  1  0  0  0
  7 25  1  0  0  0
 25 26  1  0  0  0
 26 27  1  0  0  0
 26 31  2  0  0  0
 27 28  2  0  0  0
 28 32  1  0  0  0
 28 29  1  0  0  0
 32 33  1  0  0  0
 32 35  1  0  0  0
 33 34  2  0  0  0
 33 36  1  0  0  0
 36 37  1  0  0  0
 36 38  1  0  0  0
 37 38  1  0  0  0
 29 30  2  0  0  0
 30 31  1  0  0  0
M  END
> <minimizedAffinity>
-12.06458

$$$$
