CHEMBL2349005


 32 35  0  0  0  0  0  0  0  0999 V2000
  -29.5405   -3.7960   -7.0456 C   0  0  0  0  0  0  0  0  0  0  0  0
  -29.5180   -2.8528   -6.0239 C   0  0  0  0  0  0  0  0  0  0  0  0
  -28.7283   -1.7184   -6.1722 C   0  0  0  0  0  0  0  0  0  0  0  0
  -27.9409   -1.5609   -7.3173 C   0  0  0  0  0  0  0  0  0  0  0  0
  -27.9147   -2.5400   -8.3176 C   0  0  0  0  0  0  0  0  0  0  0  0
  -28.7446   -3.6542   -8.1893 C   0  0  0  0  0  0  0  0  0  0  0  0
  -27.0608   -2.4764   -9.4459 N   0  0  0  0  0  0  0  0  0  0  0  0
  -27.2771   -1.6779  -10.5553 C   0  0  0  0  0  0  0  0  0  0  0  0
  -28.2141   -0.8978  -10.7058 O   0  0  0  0  0  0  0  0  0  0  0  0
  -26.1531   -2.9138   -9.3483 H   0  0  0  0  0  0  0  0  0  0  0  0
  -26.2612   -1.7215  -11.6396 C   0  0  0  0  0  0  0  0  0  0  0  0
  -26.5906   -1.7040  -12.9988 C   0  0  0  0  0  0  0  0  0  0  0  0
  -25.5727   -1.6376  -13.9620 C   0  0  0  0  0  0  0  0  0  0  0  0
  -24.2352   -1.5891  -13.5667 C   0  0  0  0  0  0  0  0  0  0  0  0
  -23.9184   -1.6198  -12.2147 C   0  0  0  0  0  0  0  0  0  0  0  0
  -22.6351   -1.5651  -11.8352 F   0  0  0  0  0  0  0  0  0  0  0  0
  -24.9137   -1.6870  -11.2523 C   0  0  0  0  0  0  0  0  0  0  0  0
  -30.2795   -4.9724   -6.8161 O   0  0  0  0  0  0  0  0  0  0  0  0
  -27.8130   -9.2287   -3.9549 C   0  0  0  0  0  0  0  0  0  0  0  0
  -27.6455   -8.6017   -5.1697 C   0  0  0  0  0  0  0  0  0  0  0  0
  -28.5673   -7.5858   -5.1719 N   0  0  0  0  0  0  0  0  0  0  0  0
  -28.8319   -6.7590   -6.2202 N   0  0  0  0  0  0  0  0  0  0  0  0
  -29.7870   -5.9293   -5.9426 C   0  0  0  0  0  0  0  0  0  0  0  0
  -30.5365   -5.7997   -4.6736 C   0  0  0  0  0  0  0  0  0  0  0  0
  -30.1811   -6.6310   -3.6873 C   0  0  0  0  0  0  0  0  0  0  0  0
  -29.1782   -7.5952   -3.9303 C   0  0  0  0  0  0  0  0  0  0  0  0
  -28.7207   -8.5693   -3.1815 N   0  0  0  0  0  0  0  0  0  0  0  0
  -25.3735  -11.7977   -2.8460 C   0  0  0  0  0  0  0  0  0  0  0  0
  -25.8141  -10.4198   -3.2658 C   0  0  0  0  0  0  0  0  0  0  0  0
  -25.0100   -9.4966   -3.2985 O   0  0  0  0  0  0  0  0  0  0  0  0
  -27.1653  -10.3745   -3.5628 N   0  0  0  0  0  0  0  0  0  0  0  0
  -27.7396  -11.1809   -3.3669 H   0  0  0  0  0  0  0  0  0  0  0  0
 28 29  1  0  0  0
 29 30  2  0  0  0
 29 31  1  0  0  0
 31 19  1  0  0  0
 31 32  1  0  0  0
 19 20  2  0  0  0
 19 27  1  0  0  0
 20 21  1  0  0  0
 21 22  1  0  0  0
 21 26  1  0  0  0
 22 23  2  0  0  0
 23 18  1  0  0  0
 23 24  1  0  0  0
 18  1  1  0  0  0
  1  2  1  0  0  0
  1  6  2  0  0  0
  2  3  2  0  0  0
  3  4  1  0  0  0
  4  5  2  0  0  0
  5  7  1  0  0  0
  5  6  1  0  0  0
  7  8  1  0  0  0
  7 10  1  0  0  0
  8  9  2  0  0  0
  8 11  1  0  0  0
 11 12  1  0  0  0
 11 17  2  0  0  0
 12 13  2  0  0  0
 13 14  1  0  0  0
 14 15  2  0  0  0
 15 16  1  0  0  0
 15 17  1  0  0  0
 24 25  2  0  0  0
 25 26  1  0  0  0
 26 27  2  0  0  0
M  END
> <minimizedAffinity>
-10.36398

$$$$
