CHEMBL3702664


 33 36  0  0  0  0  0  0  0  0999 V2000
  -14.7051   -4.1030   -9.6571 C   0  0  0  0  0  0  0  0  0  0  0  0
  -14.8511   -3.6441  -11.0790 C   0  0  0  0  0  0  0  0  0  0  0  0
  -15.2943   -2.3486  -11.3812 C   0  0  0  0  0  0  0  0  0  0  0  0
  -15.3909   -1.9514  -12.7155 C   0  0  0  0  0  0  0  0  0  0  0  0
  -15.0256   -2.8458  -13.7372 C   0  0  0  0  0  0  0  0  0  0  0  0
  -14.5451   -4.1333  -13.4667 C   0  0  0  0  0  0  0  0  0  0  0  0
  -14.5034   -4.5237  -12.1239 C   0  0  0  0  0  0  0  0  0  0  0  0
  -14.0312   -4.9460  -14.4600 N   0  0  0  0  0  0  0  0  0  0  0  0
  -13.3956   -6.2189  -14.1068 C   0  0  0  0  0  0  0  0  0  0  0  0
  -13.9597   -7.2869  -15.0358 C   0  0  0  0  0  0  0  0  0  0  0  0
  -13.8324   -6.8678  -16.4740 C   0  0  0  0  0  0  0  0  0  0  0  0
  -13.8615   -7.8615  -17.3901 N   0  0  0  0  0  0  0  0  0  0  0  0
  -13.7504   -7.5092  -18.6709 C   0  0  0  0  0  0  0  0  0  0  0  0
  -13.8051   -8.5204  -19.6078 N   0  0  0  0  0  0  0  0  0  0  0  0
  -13.6435   -6.2524  -19.1084 N   0  0  0  0  0  0  0  0  0  0  0  0
  -13.6274   -5.2856  -18.1662 C   0  0  0  0  0  0  0  0  0  0  0  0
  -13.7365   -5.5277  -16.8141 C   0  0  0  0  0  0  0  0  0  0  0  0
  -13.7015   -4.4242  -15.7897 C   0  0  0  0  0  0  0  0  0  0  0  0
  -14.3011   -9.3070  -19.2140 H   0  0  0  0  0  0  0  0  0  0  0  0
  -14.1427   -8.1505  -20.4853 H   0  0  0  0  0  0  0  0  0  0  0  0
  -15.9150   -0.6233  -13.1346 C   0  0  0  0  0  0  0  0  0  0  0  0
  -15.8214    0.2861  -12.3142 O   0  0  0  0  0  0  0  0  0  0  0  0
  -16.5294   -0.5425  -14.3784 N   0  0  0  0  0  0  0  0  0  0  0  0
  -16.7175   -1.4079  -14.8671 H   0  0  0  0  0  0  0  0  0  0  0  0
  -17.1304    0.6314  -14.9115 C   0  0  0  0  0  0  0  0  0  0  0  0
  -16.3824    1.6756  -15.4612 C   0  0  0  0  0  0  0  0  0  0  0  0
  -16.9989    2.8404  -15.9160 C   0  0  0  0  0  0  0  0  0  0  0  0
  -18.3791    2.9791  -15.8282 C   0  0  0  0  0  0  0  0  0  0  0  0
  -19.1635    1.9456  -15.2966 C   0  0  0  0  0  0  0  0  0  0  0  0
  -18.5293    0.7626  -14.8661 C   0  0  0  0  0  0  0  0  0  0  0  0
  -20.6674    2.1297  -15.1376 C   0  0  0  0  0  0  0  0  0  0  0  0
  -21.2997    0.9161  -14.4423 C   0  0  0  0  0  0  0  0  0  0  0  0
  -21.0252    3.4133  -14.3820 C   0  0  0  0  0  0  0  0  0  0  0  0
  1  2  1  0  0  0
  2  3  1  0  0  0
  2  7  2  0  0  0
  3  4  2  0  0  0
  4 21  1  0  0  0
  4  5  1  0  0  0
 21 22  2  0  0  0
 21 23  1  0  0  0
 23 25  1  0  0  0
 23 24  1  0  0  0
 25 26  1  0  0  0
 25 30  2  0  0  0
 26 27  2  0  0  0
 27 28  1  0  0  0
 28 29  2  0  0  0
 29 31  1  0  0  0
 29 30  1  0  0  0
 31 32  1  0  0  0
 31 33  1  0  0  0
  5  6  2  0  0  0
  6  8  1  0  0  0
  6  7  1  0  0  0
  8  9  1  0  0  0
  8 18  1  0  0  0
  9 10  1  0  0  0
 10 11  1  0  0  0
 11 12  1  0  0  0
 11 17  2  0  0  0
 12 13  2  0  0  0
 13 14  1  0  0  0
 13 15  1  0  0  0
 14 19  1  0  0  0
 14 20  1  0  0  0
 15 16  2  0  0  0
 16 17  1  0  0  0
 17 18  1  0  0  0
M  END
> <minimizedAffinity>
-9.88434

$$$$
