CHEMBL3133755


 42 46  0  0  0  0  0  0  0  0999 V2000
  -22.5487   -0.2655  -14.3487 N   0  0  0  0  0  0  0  0  0  0  0  0
  -21.7877   -0.9313  -14.3933 H   0  0  0  0  0  0  0  0  0  0  0  0
  -22.0815    1.0605  -14.2109 C   0  0  0  0  0  0  0  0  0  0  0  0
  -22.9474    2.0210  -13.8396 N   0  0  0  0  0  0  0  0  0  0  0  0
  -22.4836    3.2730  -13.8190 C   0  0  0  0  0  0  0  0  0  0  0  0
  -21.2529    3.6629  -14.1631 N   0  0  0  0  0  0  0  0  0  0  0  0
  -20.4024    2.7053  -14.5489 C   0  0  0  0  0  0  0  0  0  0  0  0
  -19.1409    3.0737  -14.9947 C   0  0  0  0  0  0  0  0  0  0  0  0
  -18.2241    2.1315  -15.4758 C   0  0  0  0  0  0  0  0  0  0  0  0
  -18.5253    0.7789  -15.4113 C   0  0  0  0  0  0  0  0  0  0  0  0
  -19.7799    0.3859  -14.9584 C   0  0  0  0  0  0  0  0  0  0  0  0
  -20.7461    1.3472  -14.5556 C   0  0  0  0  0  0  0  0  0  0  0  0
  -17.0294    2.5988  -15.9386 O   0  0  0  0  0  0  0  0  0  0  0  0
  -16.0058    1.5982  -16.1292 C   0  0  0  0  0  0  0  0  0  0  0  0
  -14.9713    1.8572  -15.0406 C   0  0  0  0  0  0  0  0  0  0  0  0
  -14.9691    0.8827  -13.8517 C   0  0  0  0  0  0  0  0  0  0  0  0
  -15.0347   -0.5055  -14.3503 N   0  0  0  0  0  0  0  0  0  0  0  0
  -15.8976   -1.3973  -13.5456 C   0  0  0  0  0  0  0  0  0  0  0  0
  -15.2709   -1.7908  -12.2022 C   0  0  0  0  0  0  0  0  0  0  0  0
  -14.0381   -2.4861  -12.4126 O   0  0  0  0  0  0  0  0  0  0  0  0
  -13.1126   -1.6826  -13.1594 C   0  0  0  0  0  0  0  0  0  0  0  0
  -13.7131   -1.1550  -14.4780 C   0  0  0  0  0  0  0  0  0  0  0  0
  -25.4091   -1.6348  -12.3287 C   0  0  0  0  0  0  0  0  0  0  0  0
  -26.3866   -1.6700  -13.3253 C   0  0  0  0  0  0  0  0  0  0  0  0
  -26.0842   -1.3048  -14.6361 C   0  0  0  0  0  0  0  0  0  0  0  0
  -24.7965   -0.8895  -14.9643 C   0  0  0  0  0  0  0  0  0  0  0  0
  -23.7910   -0.8257  -13.9896 C   0  0  0  0  0  0  0  0  0  0  0  0
  -24.1277   -1.1738  -12.6706 C   0  0  0  0  0  0  0  0  0  0  0  0
  -27.9155   -1.6401  -10.8710 O   0  0  0  0  0  0  0  0  0  0  0  0
  -26.8737   -2.0082  -10.3429 C   0  0  0  0  0  0  0  0  0  0  0  0
  -25.6434   -2.0328  -10.9876 N   0  0  0  0  0  0  0  0  0  0  0  0
  -26.7871   -2.4735   -9.0394 N   0  0  0  0  0  0  0  0  0  0  0  0
  -24.8938   -2.5384  -10.5416 H   0  0  0  0  0  0  0  0  0  0  0  0
  -25.8635   -2.6727   -8.6857 H   0  0  0  0  0  0  0  0  0  0  0  0
  -27.8681   -2.6505   -8.1394 C   0  0  0  0  0  0  0  0  0  0  0  0
  -28.7647   -3.7259   -8.2009 C   0  0  0  0  0  0  0  0  0  0  0  0
  -29.8111   -3.8530   -7.2820 C   0  0  0  0  0  0  0  0  0  0  0  0
  -29.9648   -2.9025   -6.2862 C   0  0  0  0  0  0  0  0  0  0  0  0
  -30.9712   -3.0399   -5.4119 F   0  0  0  0  0  0  0  0  0  0  0  0
  -29.0836   -1.8283   -6.2016 C   0  0  0  0  0  0  0  0  0  0  0  0
  -29.2640   -0.6525   -4.9562 Cl  0  0  0  0  0  0  0  0  0  0  0  0
  -28.0389   -1.6983   -7.1256 C   0  0  0  0  0  0  0  0  0  0  0  0
 29 30  2  0  0  0
 30 31  1  0  0  0
 30 32  1  0  0  0
 31 23  1  0  0  0
 31 33  1  0  0  0
 23 24  1  0  0  0
 23 28  2  0  0  0
 24 25  2  0  0  0
 25 26  1  0  0  0
 26 27  2  0  0  0
 27  1  1  0  0  0
 27 28  1  0  0  0
  1  3  1  0  0  0
  1  2  1  0  0  0
  3  4  1  0  0  0
  3 12  2  0  0  0
  4  5  2  0  0  0
  5  6  1  0  0  0
  6  7  2  0  0  0
  7  8  1  0  0  0
  7 12  1  0  0  0
  8  9  2  0  0  0
  9 13  1  0  0  0
  9 10  1  0  0  0
 13 14  1  0  0  0
 14 15  1  0  0  0
 15 16  1  0  0  0
 16 17  1  0  0  0
 17 18  1  0  0  0
 17 22  1  0  0  0
 18 19  1  0  0  0
 19 20  1  0  0  0
 20 21  1  0  0  0
 21 22  1  0  0  0
 10 11  2  0  0  0
 11 12  1  0  0  0
 32 35  1  0  0  0
 32 34  1  0  0  0
 35 36  1  0  0  0
 35 42  2  0  0  0
 36 37  2  0  0  0
 37 38  1  0  0  0
 38 39  1  0  0  0
 38 40  2  0  0  0
 40 41  1  0  0  0
 40 42  1  0  0  0
M  END
> <minimizedAffinity>
-10.75683

$$$$
