CHEMBL212899


 18 21  0  0  0  0  0  0  0  0999 V2000
  -22.4026    1.1766  -13.9621 C   0  0  0  0  0  0  0  0  0  0  0  0
  -22.9012    2.4313  -13.8677 N   0  0  0  0  0  0  0  0  0  0  0  0
  -21.8745    3.2395  -14.2384 N   0  0  0  0  0  0  0  0  0  0  0  0
  -20.7782    2.5320  -14.5598 C   0  0  0  0  0  0  0  0  0  0  0  0
  -21.0739    1.2061  -14.4078 C   0  0  0  0  0  0  0  0  0  0  0  0
  -19.9478    0.3004  -14.7689 C   0  0  0  0  0  0  0  0  0  0  0  0
  -18.9407    1.3915  -15.1795 C   0  0  0  0  0  0  0  0  0  0  0  0
  -17.6547    1.1943  -15.6536 C   0  0  0  0  0  0  0  0  0  0  0  0
  -16.8922    2.3234  -15.9723 C   0  0  0  0  0  0  0  0  0  0  0  0
  -17.4126    3.6231  -15.8124 C   0  0  0  0  0  0  0  0  0  0  0  0
  -18.7109    3.8298  -15.3379 C   0  0  0  0  0  0  0  0  0  0  0  0
  -19.4526    2.7107  -15.0353 C   0  0  0  0  0  0  0  0  0  0  0  0
  -22.0213    4.2433  -14.2482 H   0  0  0  0  0  0  0  0  0  0  0  0
  -24.8347   -1.6987  -13.8598 C   0  0  0  0  0  0  0  0  0  0  0  0
  -24.3063   -2.0116  -12.6273 C   0  0  0  0  0  0  0  0  0  0  0  0
  -23.0469   -0.9443  -12.1836 S   0  0  0  0  0  0  0  0  0  0  0  0
  -23.2176   -0.0355  -13.6215 C   0  0  0  0  0  0  0  0  0  0  0  0
  -24.2074   -0.5530  -14.4332 C   0  0  0  0  0  0  0  0  0  0  0  0
 14 15  2  0  0  0
 14 18  1  0  0  0
 15 16  1  0  0  0
 16 17  1  0  0  0
 17  1  1  0  0  0
 17 18  2  0  0  0
  1  2  2  0  0  0
  1  5  1  0  0  0
  2  3  1  0  0  0
  3  4  1  0  0  0
  3 13  1  0  0  0
  4  5  2  0  0  0
  4 12  1  0  0  0
  5  6  1  0  0  0
  6  7  1  0  0  0
  7  8  1  0  0  0
  7 12  2  0  0  0
  8  9  2  0  0  0
  9 10  1  0  0  0
 10 11  2  0  0  0
 11 12  1  0  0  0
M  END
> <minimizedAffinity>
-8.32009

$$$$
