CHEMBL1940851


 22 24  0  0  0  0  0  0  0  0999 V2000
  -21.5387    0.2089  -14.9827 C   0  0  0  0  0  0  0  0  0  0  0  0
  -22.5518   -0.1088  -13.9211 C   0  0  0  0  0  0  0  0  0  0  0  0
  -22.2612    0.0527  -12.5663 C   0  0  0  0  0  0  0  0  0  0  0  0
  -23.2258   -0.2542  -11.6034 C   0  0  0  0  0  0  0  0  0  0  0  0
  -24.4906   -0.7362  -11.9856 C   0  0  0  0  0  0  0  0  0  0  0  0
  -25.4818   -1.0882  -11.0471 C   0  0  0  0  0  0  0  0  0  0  0  0
  -26.7191   -1.6026  -11.4605 C   0  0  0  0  0  0  0  0  0  0  0  0
  -26.8831   -1.7287  -12.8436 C   0  0  0  0  0  0  0  0  0  0  0  0
  -28.2639   -2.4414  -13.5939 Cl  0  0  0  0  0  0  0  0  0  0  0  0
  -25.9672   -1.3680  -13.7744 N   0  0  0  0  0  0  0  0  0  0  0  0
  -24.7912   -0.8950  -13.3515 C   0  0  0  0  0  0  0  0  0  0  0  0
  -23.8259   -0.5650  -14.2906 C   0  0  0  0  0  0  0  0  0  0  0  0
  -27.6752   -2.0232  -10.4118 C   0  0  0  0  0  0  0  0  0  0  0  0
  -27.3490   -2.2332   -9.1254 C   0  0  0  0  0  0  0  0  0  0  0  0
  -28.3408   -2.6654   -8.0824 C   0  0  0  0  0  0  0  0  0  0  0  0
  -29.2122   -3.4837   -8.3801 O   0  0  0  0  0  0  0  0  0  0  0  0
  -28.2427   -2.0296   -6.7666 C   0  0  0  0  0  0  0  0  0  0  0  0
  -27.9570   -0.3336   -6.6606 S   0  0  0  0  0  0  0  0  0  0  0  0
  -28.0386   -0.3452   -4.9644 C   0  0  0  0  0  0  0  0  0  0  0  0
  -28.2113   -1.6152   -4.4704 C   0  0  0  0  0  0  0  0  0  0  0  0
  -28.3023   -2.6107   -5.5032 C   0  0  0  0  0  0  0  0  0  0  0  0
  -28.4834   -4.0673   -5.2145 C   0  0  0  0  0  0  0  0  0  0  0  0
  1  2  1  0  0  0
  2  3  1  0  0  0
  2 12  2  0  0  0
  3  4  2  0  0  0
  4  5  1  0  0  0
  5  6  1  0  0  0
  5 11  2  0  0  0
  6  7  2  0  0  0
  7 13  1  0  0  0
  7  8  1  0  0  0
 13 14  2  0  0  0
 14 15  1  0  0  0
 15 16  2  0  0  0
 15 17  1  0  0  0
 17 18  1  0  0  0
 17 21  2  0  0  0
 18 19  1  0  0  0
 19 20  2  0  0  0
 20 21  1  0  0  0
 21 22  1  0  0  0
  8  9  1  0  0  0
  8 10  2  0  0  0
 10 11  1  0  0  0
 11 12  1  0  0  0
M  END
> <minimizedAffinity>
-9.34020

$$$$
