CHEMBL477197


 27 30  0  0  0  0  0  0  0  0999 V2000
  -28.9257   -8.7284   -9.1085 O   0  0  0  0  0  0  0  0  0  0  0  0
  -29.0520   -7.7029   -8.2182 C   0  0  0  0  0  0  0  0  0  0  0  0
  -29.8368   -7.8644   -7.0815 C   0  0  0  0  0  0  0  0  0  0  0  0
  -29.8587   -6.8049   -6.1975 C   0  0  0  0  0  0  0  0  0  0  0  0
  -29.4567   -5.5241   -6.5846 C   0  0  0  0  0  0  0  0  0  0  0  0
  -28.5537   -5.4019   -7.6233 C   0  0  0  0  0  0  0  0  0  0  0  0
  -28.3008   -6.5349   -8.3919 C   0  0  0  0  0  0  0  0  0  0  0  0
  -27.2360   -6.5251   -9.2470 O   0  0  0  0  0  0  0  0  0  0  0  0
  -29.8518   -4.5794   -5.4780 C   0  0  0  0  0  0  0  0  0  0  0  0
  -29.2804   -3.2219   -5.5337 C   0  0  0  0  0  0  0  0  0  0  0  0
  -30.0206   -2.2177   -6.2089 C   0  0  0  0  0  0  0  0  0  0  0  0
  -29.5322   -0.9284   -6.3111 C   0  0  0  0  0  0  0  0  0  0  0  0
  -28.2920   -0.6487   -5.7519 C   0  0  0  0  0  0  0  0  0  0  0  0
  -27.7559    0.6115   -5.8566 O   0  0  0  0  0  0  0  0  0  0  0  0
  -27.5585   -1.6352   -5.0692 C   0  0  0  0  0  0  0  0  0  0  0  0
  -26.3412   -1.2689   -4.5464 O   0  0  0  0  0  0  0  0  0  0  0  0
  -28.0576   -2.9347   -4.9360 C   0  0  0  0  0  0  0  0  0  0  0  0
  -27.3833   -3.8781   -4.1946 O   0  0  0  0  0  0  0  0  0  0  0  0
  -27.8312   -5.2683   -4.2504 C   0  0  0  0  0  0  0  0  0  0  0  0
  -29.3819   -5.4245   -4.2925 C   0  0  0  0  0  0  0  0  0  0  0  0
  -29.9599   -5.0197   -3.0502 O   0  0  0  0  0  0  0  0  0  0  0  0
  -30.0002   -6.8212   -4.6932 C   0  0  0  0  0  0  0  0  0  0  0  0
  -29.7926   -9.1633   -9.1681 H   0  0  0  0  0  0  0  0  0  0  0  0
  -26.4534   -6.3943   -8.6790 H   0  0  0  0  0  0  0  0  0  0  0  0
  -28.3904    1.1690   -6.3436 H   0  0  0  0  0  0  0  0  0  0  0  0
  -26.2330   -0.3305   -4.8147 H   0  0  0  0  0  0  0  0  0  0  0  0
  -29.2452   -4.6389   -2.5041 H   0  0  0  0  0  0  0  0  0  0  0  0
  1  2  1  0  0  0
  1 23  1  0  0  0
  2  3  1  0  0  0
  2  7  2  0  0  0
  3  4  2  0  0  0
  4  5  1  0  0  0
  4 22  1  0  0  0
  5  6  2  0  0  0
  5  9  1  0  0  0
  6  7  1  0  0  0
  7  8  1  0  0  0
  8 24  1  0  0  0
  9 10  1  0  0  0
  9 20  1  0  0  0
 10 11  1  0  0  0
 10 17  2  0  0  0
 11 12  2  0  0  0
 12 13  1  0  0  0
 13 15  2  0  0  0
 13 14  1  0  0  0
 14 25  1  0  0  0
 15 17  1  0  0  0
 15 16  1  0  0  0
 16 26  1  0  0  0
 17 18  1  0  0  0
 18 19  1  0  0  0
 19 20  1  0  0  0
 20 22  1  0  0  0
 20 21  1  0  0  0
 21 27  1  0  0  0
M  END
> <minimizedAffinity>
-8.84196

$$$$
