CHEMBL3975714


 31 34  0  0  0  0  0  0  0  0999 V2000
  -29.8313   -4.8439   -6.2940 C   0  0  0  0  0  0  0  0  0  0  0  0
  -29.7406   -3.8538   -5.3079 C   0  0  0  0  0  0  0  0  0  0  0  0
  -29.1651   -2.6129   -5.5848 C   0  0  0  0  0  0  0  0  0  0  0  0
  -28.6480   -2.3289   -6.8368 C   0  0  0  0  0  0  0  0  0  0  0  0
  -28.0409   -1.1486   -7.0466 N   0  0  0  0  0  0  0  0  0  0  0  0
  -27.5116   -0.9609   -8.2789 C   0  0  0  0  0  0  0  0  0  0  0  0
  -27.5858   -1.9089   -9.2885 C   0  0  0  0  0  0  0  0  0  0  0  0
  -28.2233   -3.0886   -9.0872 N   0  0  0  0  0  0  0  0  0  0  0  0
  -28.7473   -3.2991   -7.8602 C   0  0  0  0  0  0  0  0  0  0  0  0
  -29.3638   -4.5130   -7.5770 C   0  0  0  0  0  0  0  0  0  0  0  0
  -26.9582   -1.6963  -10.5797 C   0  0  0  0  0  0  0  0  0  0  0  0
  -27.5061   -1.6683  -11.8843 C   0  0  0  0  0  0  0  0  0  0  0  0
  -26.5939   -1.4163  -12.8257 N   0  0  0  0  0  0  0  0  0  0  0  0
  -25.4529   -1.2789  -12.1294 N   0  0  0  0  0  0  0  0  0  0  0  0
  -24.2210   -0.9782  -12.8179 C   0  0  0  0  0  0  0  0  0  0  0  0
  -25.6168   -1.4363  -10.7833 C   0  0  0  0  0  0  0  0  0  0  0  0
  -30.3100   -6.1351   -5.9583 N   0  0  0  0  0  0  0  0  0  0  0  0
  -31.8368   -9.0752   -7.7419 C   0  0  0  0  0  0  0  0  0  0  0  0
  -30.8028   -9.4587   -8.5834 C   0  0  0  0  0  0  0  0  0  0  0  0
  -29.6178   -8.7350   -8.5637 C   0  0  0  0  0  0  0  0  0  0  0  0
  -28.6163   -9.1075   -9.3727 F   0  0  0  0  0  0  0  0  0  0  0  0
  -29.4389   -7.6412   -7.7163 C   0  0  0  0  0  0  0  0  0  0  0  0
  -30.4667   -7.2183   -6.8641 C   0  0  0  0  0  0  0  0  0  0  0  0
  -31.6735   -7.9522   -6.9152 C   0  0  0  0  0  0  0  0  0  0  0  0
  -33.1421  -10.7857   -6.7530 C   0  0  0  0  0  0  0  0  0  0  0  0
  -33.0563   -9.6973   -7.6696 O   0  0  0  0  0  0  0  0  0  0  0  0
  -30.5692   -6.4004   -4.5146 C   0  0  0  0  0  0  0  0  0  0  0  0
  -29.4874   -7.2818   -3.8328 C   0  0  0  0  0  0  0  0  0  0  0  0
  -29.3619   -7.0735   -2.3869 N   0  0  0  0  0  0  0  0  0  0  0  0
  -29.0615   -6.1086   -2.2315 H   0  0  0  0  0  0  0  0  0  0  0  0
  -28.6050   -7.6604   -2.0344 H   0  0  0  0  0  0  0  0  0  0  0  0
 25 26  1  0  0  0
 26 18  1  0  0  0
 18 19  1  0  0  0
 18 24  2  0  0  0
 19 20  2  0  0  0
 20 21  1  0  0  0
 20 22  1  0  0  0
 22 23  2  0  0  0
 23 17  1  0  0  0
 23 24  1  0  0  0
 17 27  1  0  0  0
 17  1  1  0  0  0
 27 28  1  0  0  0
 28 29  1  0  0  0
 29 30  1  0  0  0
 29 31  1  0  0  0
  1  2  1  0  0  0
  1 10  2  0  0  0
  2  3  2  0  0  0
  3  4  1  0  0  0
  4  5  1  0  0  0
  4  9  2  0  0  0
  5  6  2  0  0  0
  6  7  1  0  0  0
  7 11  1  0  0  0
  7  8  2  0  0  0
 11 12  1  0  0  0
 11 16  2  0  0  0
 12 13  2  0  0  0
 13 14  1  0  0  0
 14 15  1  0  0  0
 14 16  1  0  0  0
  8  9  1  0  0  0
  9 10  1  0  0  0
M  END
> <minimizedAffinity>
-9.05490

$$$$
