CHEMBL3774563


 26 28  0  0  0  0  0  0  0  0999 V2000
  -16.3030    3.2753  -15.9131 C   0  0  0  0  0  0  0  0  0  0  0  0
  -16.0670    3.8586  -17.1017 N   0  0  0  0  0  0  0  0  0  0  0  0
  -14.9499    3.5219  -17.7462 C   0  0  0  0  0  0  0  0  0  0  0  0
  -14.0309    2.6597  -17.3195 N   0  0  0  0  0  0  0  0  0  0  0  0
  -14.2699    2.0654  -16.1514 C   0  0  0  0  0  0  0  0  0  0  0  0
  -13.3217    1.1590  -15.7048 C   0  0  0  0  0  0  0  0  0  0  0  0
  -13.4477    0.4530  -14.5005 C   0  0  0  0  0  0  0  0  0  0  0  0
  -14.5869    0.6730  -13.7163 C   0  0  0  0  0  0  0  0  0  0  0  0
  -15.5539    1.5920  -14.1621 C   0  0  0  0  0  0  0  0  0  0  0  0
  -15.4099    2.3125  -15.3786 C   0  0  0  0  0  0  0  0  0  0  0  0
  -17.5067    3.5772  -15.2201 N   0  0  0  0  0  0  0  0  0  0  0  0
  -17.6940    4.5724  -15.2428 H   0  0  0  0  0  0  0  0  0  0  0  0
  -21.1821    1.5038  -14.5902 C   0  0  0  0  0  0  0  0  0  0  0  0
  -20.0541    0.8005  -15.0041 C   0  0  0  0  0  0  0  0  0  0  0  0
  -18.8374    1.4669  -15.2276 C   0  0  0  0  0  0  0  0  0  0  0  0
  -18.7170    2.8522  -15.0808 C   0  0  0  0  0  0  0  0  0  0  0  0
  -19.8574    3.5514  -14.6490 C   0  0  0  0  0  0  0  0  0  0  0  0
  -21.0683    2.8865  -14.4149 C   0  0  0  0  0  0  0  0  0  0  0  0
  -22.1652    3.5956  -13.9974 O   0  0  0  0  0  0  0  0  0  0  0  0
  -21.9306    4.5321  -13.9177 H   0  0  0  0  0  0  0  0  0  0  0  0
  -22.5082    0.0991  -13.1934 C   0  0  0  0  0  0  0  0  0  0  0  0
  -22.4059    0.9496  -14.3268 O   0  0  0  0  0  0  0  0  0  0  0  0
  -12.5027   -0.4393  -14.0691 O   0  0  0  0  0  0  0  0  0  0  0  0
  -11.4224    0.0553  -13.2840 C   0  0  0  0  0  0  0  0  0  0  0  0
  -14.9235    0.1030  -12.5160 O   0  0  0  0  0  0  0  0  0  0  0  0
  -15.5976   -1.1485  -12.5152 C   0  0  0  0  0  0  0  0  0  0  0  0
 21 22  1  0  0  0
 22 13  1  0  0  0
 13 14  1  0  0  0
 13 18  2  0  0  0
 14 15  2  0  0  0
 15 16  1  0  0  0
 16 11  1  0  0  0
 16 17  2  0  0  0
 11  1  1  0  0  0
 11 12  1  0  0  0
  1  2  1  0  0  0
  1 10  2  0  0  0
  2  3  2  0  0  0
  3  4  1  0  0  0
  4  5  2  0  0  0
  5  6  1  0  0  0
  5 10  1  0  0  0
  6  7  2  0  0  0
  7 23  1  0  0  0
  7  8  1  0  0  0
 23 24  1  0  0  0
  8 25  1  0  0  0
  8  9  2  0  0  0
 25 26  1  0  0  0
  9 10  1  0  0  0
 17 18  1  0  0  0
 18 19  1  0  0  0
 19 20  1  0  0  0
M  END
> <minimizedAffinity>
-7.32674

$$$$
