CHEMBL1981720


 22 24  0  0  0  0  0  0  0  0999 V2000
  -31.6948   -5.6307   -4.1115 O   0  0  0  0  0  0  0  0  0  0  0  0
  -30.8848   -5.9819   -4.9662 C   0  0  0  0  0  0  0  0  0  0  0  0
  -30.9336   -7.2800   -5.4099 N   0  0  0  0  0  0  0  0  0  0  0  0
  -29.9696   -5.1775   -5.5892 N   0  0  0  0  0  0  0  0  0  0  0  0
  -31.7048   -7.8040   -5.0211 H   0  0  0  0  0  0  0  0  0  0  0  0
  -29.4316   -5.6581   -6.3030 H   0  0  0  0  0  0  0  0  0  0  0  0
  -29.6340   -3.8312   -5.3397 C   0  0  0  0  0  0  0  0  0  0  0  0
  -29.8660   -3.2596   -4.0937 C   0  0  0  0  0  0  0  0  0  0  0  0
  -29.4229   -1.9726   -3.8767 C   0  0  0  0  0  0  0  0  0  0  0  0
  -28.7865   -1.2280   -4.8012 N   0  0  0  0  0  0  0  0  0  0  0  0
  -28.5859   -1.7640   -6.0169 C   0  0  0  0  0  0  0  0  0  0  0  0
  -27.9486   -0.9780   -6.9686 C   0  0  0  0  0  0  0  0  0  0  0  0
  -27.7268   -1.4241   -8.2726 C   0  0  0  0  0  0  0  0  0  0  0  0
  -28.1558   -2.6892   -8.6425 C   0  0  0  0  0  0  0  0  0  0  0  0
  -28.7817   -3.5048   -7.6983 C   0  0  0  0  0  0  0  0  0  0  0  0
  -28.9992   -3.0679   -6.3614 C   0  0  0  0  0  0  0  0  0  0  0  0
  -30.0447   -7.9249   -6.2772 C   0  0  0  0  0  0  0  0  0  0  0  0
  -29.1690   -8.8863   -5.7846 C   0  0  0  0  0  0  0  0  0  0  0  0
  -28.2849   -9.5515   -6.5714 N   0  0  0  0  0  0  0  0  0  0  0  0
  -28.2887   -9.1980   -7.8759 C   0  0  0  0  0  0  0  0  0  0  0  0
  -29.1432   -8.2341   -8.3735 C   0  0  0  0  0  0  0  0  0  0  0  0
  -30.0490   -7.6024   -7.5937 N   0  0  0  0  0  0  0  0  0  0  0  0
  1  2  2  0  0  0
  2  3  1  0  0  0
  2  4  1  0  0  0
  3 17  1  0  0  0
  3  5  1  0  0  0
 17 18  1  0  0  0
 17 22  2  0  0  0
 18 19  2  0  0  0
 19 20  1  0  0  0
 20 21  2  0  0  0
 21 22  1  0  0  0
  4  7  1  0  0  0
  4  6  1  0  0  0
  7  8  1  0  0  0
  7 16  2  0  0  0
  8  9  2  0  0  0
  9 10  1  0  0  0
 10 11  2  0  0  0
 11 12  1  0  0  0
 11 16  1  0  0  0
 12 13  2  0  0  0
 13 14  1  0  0  0
 14 15  2  0  0  0
 15 16  1  0  0  0
M  END
> <minimizedAffinity>
-7.47573

$$$$
