CHEMBL3969879


 33 36  0  0  0  0  0  0  0  0999 V2000
  -29.6066   -5.5027   -4.8915 N   0  0  0  0  0  0  0  0  0  0  0  0
  -28.7114   -4.6237   -5.6184 C   0  0  0  0  0  0  0  0  0  0  0  0
  -28.2349   -3.5451   -4.8637 C   0  0  0  0  0  0  0  0  0  0  0  0
  -27.9609   -2.3473   -5.4856 C   0  0  0  0  0  0  0  0  0  0  0  0
  -27.9477   -2.2180   -6.8537 C   0  0  0  0  0  0  0  0  0  0  0  0
  -27.8296   -0.9567   -7.2851 N   0  0  0  0  0  0  0  0  0  0  0  0
  -27.6609   -0.7839   -8.5988 C   0  0  0  0  0  0  0  0  0  0  0  0
  -27.5102   -1.8483   -9.4669 C   0  0  0  0  0  0  0  0  0  0  0  0
  -27.7503   -3.1470   -9.0449 N   0  0  0  0  0  0  0  0  0  0  0  0
  -28.0505   -3.3548   -7.7035 C   0  0  0  0  0  0  0  0  0  0  0  0
  -28.5123   -4.5538   -7.0379 C   0  0  0  0  0  0  0  0  0  0  0  0
  -26.9125   -1.5245  -10.7577 C   0  0  0  0  0  0  0  0  0  0  0  0
  -27.4693   -1.6584  -12.0585 C   0  0  0  0  0  0  0  0  0  0  0  0
  -26.5611   -1.5351  -13.0350 N   0  0  0  0  0  0  0  0  0  0  0  0
  -25.4124   -1.3322  -12.3690 N   0  0  0  0  0  0  0  0  0  0  0  0
  -24.2235   -0.9106  -13.0743 C   0  0  0  0  0  0  0  0  0  0  0  0
  -25.5502   -1.4762  -11.0132 C   0  0  0  0  0  0  0  0  0  0  0  0
  -30.1093   -8.9153   -6.3288 C   0  0  0  0  0  0  0  0  0  0  0  0
  -29.4804   -9.7150   -5.3764 C   0  0  0  0  0  0  0  0  0  0  0  0
  -28.9860   -9.1371   -4.2094 C   0  0  0  0  0  0  0  0  0  0  0  0
  -29.0837   -7.7548   -4.0108 C   0  0  0  0  0  0  0  0  0  0  0  0
  -29.7196   -6.9167   -4.9373 C   0  0  0  0  0  0  0  0  0  0  0  0
  -30.2668   -7.5342   -6.0842 C   0  0  0  0  0  0  0  0  0  0  0  0
  -31.9586   -9.2383   -7.8122 C   0  0  0  0  0  0  0  0  0  0  0  0
  -30.5595   -9.3690   -7.5454 O   0  0  0  0  0  0  0  0  0  0  0  0
  -28.3144   -9.8191   -3.2299 O   0  0  0  0  0  0  0  0  0  0  0  0
  -26.9543  -10.1222   -3.5221 C   0  0  0  0  0  0  0  0  0  0  0  0
  -30.9168   -4.7516   -4.7655 C   0  0  0  0  0  0  0  0  0  0  0  0
  -31.3931   -4.3615   -3.3591 C   0  0  0  0  0  0  0  0  0  0  0  0
  -32.0197   -5.2876   -2.5805 N   0  0  0  0  0  0  0  0  0  0  0  0
  -31.1043   -3.2692   -2.8696 O   0  0  0  0  0  0  0  0  0  0  0  0
  -32.4794   -6.0859   -2.9983 H   0  0  0  0  0  0  0  0  0  0  0  0
  -32.3631   -4.9580   -1.6886 H   0  0  0  0  0  0  0  0  0  0  0  0
 24 25  1  0  0  0
 25 18  1  0  0  0
 18 19  1  0  0  0
 18 23  2  0  0  0
 19 20  2  0  0  0
 20 26  1  0  0  0
 20 21  1  0  0  0
 26 27  1  0  0  0
 21 22  2  0  0  0
 22  1  1  0  0  0
 22 23  1  0  0  0
  1 28  1  0  0  0
  1  2  1  0  0  0
 28 29  1  0  0  0
 29 30  1  0  0  0
 29 31  2  0  0  0
 30 32  1  0  0  0
 30 33  1  0  0  0
  2  3  1  0  0  0
  2 11  2  0  0  0
  3  4  2  0  0  0
  4  5  1  0  0  0
  5  6  1  0  0  0
  5 10  2  0  0  0
  6  7  2  0  0  0
  7  8  1  0  0  0
  8 12  1  0  0  0
  8  9  2  0  0  0
 12 13  1  0  0  0
 12 17  2  0  0  0
 13 14  2  0  0  0
 14 15  1  0  0  0
 15 16  1  0  0  0
 15 17  1  0  0  0
  9 10  1  0  0  0
 10 11  1  0  0  0
M  END
> <minimizedAffinity>
-8.06373

$$$$
