CHEMBL3958481


 34 38  0  0  0  0  0  0  0  0999 V2000
  -14.3329    0.5370  -13.6484 C   0  0  0  0  0  0  0  0  0  0  0  0
  -14.5074    1.4121  -14.7240 C   0  0  0  0  0  0  0  0  0  0  0  0
  -15.7772    1.8799  -15.1233 C   0  0  0  0  0  0  0  0  0  0  0  0
  -15.9777    2.7488  -16.2155 C   0  0  0  0  0  0  0  0  0  0  0  0
  -17.1831    3.2641  -16.4913 N   0  0  0  0  0  0  0  0  0  0  0  0
  -18.1892    2.8675  -15.7066 C   0  0  0  0  0  0  0  0  0  0  0  0
  -18.1169    1.9942  -14.6897 N   0  0  0  0  0  0  0  0  0  0  0  0
  -16.9063    1.4999  -14.4048 C   0  0  0  0  0  0  0  0  0  0  0  0
  -16.7295    0.5875  -13.3539 C   0  0  0  0  0  0  0  0  0  0  0  0
  -15.4688    0.0692  -12.9871 C   0  0  0  0  0  0  0  0  0  0  0  0
  -12.0667    1.1517  -13.2909 C   0  0  0  0  0  0  0  0  0  0  0  0
  -13.0921    0.1613  -13.2164 O   0  0  0  0  0  0  0  0  0  0  0  0
  -14.8496    3.0585  -17.0302 N   0  0  0  0  0  0  0  0  0  0  0  0
  -14.7017    2.2977  -17.6949 H   0  0  0  0  0  0  0  0  0  0  0  0
  -14.4462    4.2856  -17.6109 C   0  0  0  0  0  0  0  0  0  0  0  0
  -14.9874    4.7354  -18.8175 C   0  0  0  0  0  0  0  0  0  0  0  0
  -14.5927    5.9542  -19.3696 C   0  0  0  0  0  0  0  0  0  0  0  0
  -13.6716    6.7661  -18.7059 C   0  0  0  0  0  0  0  0  0  0  0  0
  -13.2055    8.2345  -19.4921 Cl  0  0  0  0  0  0  0  0  0  0  0  0
  -13.1677    6.3831  -17.4570 C   0  0  0  0  0  0  0  0  0  0  0  0
  -12.0627    7.4176  -16.6035 Cl  0  0  0  0  0  0  0  0  0  0  0  0
  -13.5713    5.1523  -16.9072 C   0  0  0  0  0  0  0  0  0  0  0  0
  -13.0049    4.6455  -15.3358 Cl  0  0  0  0  0  0  0  0  0  0  0  0
  -15.5028   -0.7568  -11.8955 O   0  0  0  0  0  0  0  0  0  0  0  0
  -15.5639   -2.1855  -12.0366 C   0  0  0  0  0  0  0  0  0  0  0  0
  -15.8848   -2.8828  -10.7221 C   0  0  0  0  0  0  0  0  0  0  0  0
  -15.0417   -4.1264  -10.7463 C   0  0  0  0  0  0  0  0  0  0  0  0
  -15.8287   -5.3131  -10.9344 O   0  0  0  0  0  0  0  0  0  0  0  0
  -14.9987   -6.1902  -11.7094 C   0  0  0  0  0  0  0  0  0  0  0  0
  -14.3451   -5.2858  -12.7425 C   0  0  0  0  0  0  0  0  0  0  0  0
  -14.1114   -4.0038  -11.9401 C   0  0  0  0  0  0  0  0  0  0  0  0
  -14.4577   -2.8262  -12.6845 O   0  0  0  0  0  0  0  0  0  0  0  0
  -13.1443   -5.8886  -13.2254 O   0  0  0  0  0  0  0  0  0  0  0  0
  -12.6274   -6.8636  -12.3273 C   0  0  0  0  0  0  0  0  0  0  0  0
 11 12  1  0  0  0
 12  1  1  0  0  0
  1  2  1  0  0  0
  1 10  2  0  0  0
  2  3  2  0  0  0
  3  4  1  0  0  0
  3  8  1  0  0  0
  4 13  1  0  0  0
  4  5  2  0  0  0
 13 15  1  0  0  0
 13 14  1  0  0  0
 15 16  1  0  0  0
 15 22  2  0  0  0
 16 17  2  0  0  0
 17 18  1  0  0  0
 18 19  1  0  0  0
 18 20  2  0  0  0
 20 21  1  0  0  0
 20 22  1  0  0  0
 22 23  1  0  0  0
  5  6  1  0  0  0
  6  7  2  0  0  0
  7  8  1  0  0  0
  8  9  2  0  0  0
  9 10  1  0  0  0
 10 24  1  0  0  0
 24 25  1  0  0  0
 25 26  1  0  0  0
 25 32  1  0  0  0
 26 27  1  0  0  0
 27 28  1  0  0  0
 27 31  1  0  0  0
 28 29  1  0  0  0
 29 30  1  0  0  0
 30 33  1  0  0  0
 30 31  1  0  0  0
 33 34  1  0  0  0
 31 32  1  0  0  0
M  END
> <minimizedAffinity>
-7.71414

$$$$
