CHEMBL3605102


 31 35  0  0  0  0  0  0  0  0999 V2000
  -14.6804    3.1891  -15.7277 C   0  0  0  0  0  0  0  0  0  0  0  0
  -16.0012    3.1290  -16.1348 C   0  0  0  0  0  0  0  0  0  0  0  0
  -16.8285    2.0987  -15.9050 N   0  0  0  0  0  0  0  0  0  0  0  0
  -16.3912    1.0258  -15.2218 C   0  0  0  0  0  0  0  0  0  0  0  0
  -17.3821    0.0761  -15.0157 N   0  0  0  0  0  0  0  0  0  0  0  0
  -15.0360    0.9443  -14.7711 C   0  0  0  0  0  0  0  0  0  0  0  0
  -14.2925   -0.1018  -14.0402 C   0  0  0  0  0  0  0  0  0  0  0  0
  -12.9753    0.2531  -13.8427 C   0  0  0  0  0  0  0  0  0  0  0  0
  -12.5929    1.7679  -14.4732 S   0  0  0  0  0  0  0  0  0  0  0  0
  -14.2008    2.0483  -15.0475 C   0  0  0  0  0  0  0  0  0  0  0  0
  -18.2781    0.4661  -15.2919 H   0  0  0  0  0  0  0  0  0  0  0  0
  -17.3633   -0.3483  -14.0990 H   0  0  0  0  0  0  0  0  0  0  0  0
  -12.4547    6.9428  -18.0776 C   0  0  0  0  0  0  0  0  0  0  0  0
  -12.8977    6.0162  -17.0654 N   0  0  0  0  0  0  0  0  0  0  0  0
  -13.7599    4.9707  -17.2262 C   0  0  0  0  0  0  0  0  0  0  0  0
  -13.8597    4.3545  -15.9948 C   0  0  0  0  0  0  0  0  0  0  0  0
  -13.0380    5.1448  -15.1559 C   0  0  0  0  0  0  0  0  0  0  0  0
  -12.4472    6.1490  -15.8082 N   0  0  0  0  0  0  0  0  0  0  0  0
  -14.7461   -1.4125  -13.5618 C   0  0  0  0  0  0  0  0  0  0  0  0
  -14.4404   -2.5696  -14.2786 C   0  0  0  0  0  0  0  0  0  0  0  0
  -14.9643   -3.8024  -13.9002 C   0  0  0  0  0  0  0  0  0  0  0  0
  -15.6237   -3.9425  -12.6804 C   0  0  0  0  0  0  0  0  0  0  0  0
  -15.9004   -2.8086  -11.9226 C   0  0  0  0  0  0  0  0  0  0  0  0
  -15.4862   -1.5482  -12.3739 C   0  0  0  0  0  0  0  0  0  0  0  0
  -16.0367   -5.1537  -12.1619 O   0  0  0  0  0  0  0  0  0  0  0  0
  -15.2097   -6.2479  -12.3079 C   0  0  0  0  0  0  0  0  0  0  0  0
  -15.3542   -7.1965  -13.3278 C   0  0  0  0  0  0  0  0  0  0  0  0
  -14.5718   -8.3478  -13.3321 C   0  0  0  0  0  0  0  0  0  0  0  0
  -13.5789   -8.5104  -12.3664 C   0  0  0  0  0  0  0  0  0  0  0  0
  -13.3619   -7.5177  -11.4074 C   0  0  0  0  0  0  0  0  0  0  0  0
  -14.1815   -6.3870  -11.3762 C   0  0  0  0  0  0  0  0  0  0  0  0
 13 14  1  0  0  0
 14 15  1  0  0  0
 14 18  1  0  0  0
 15 16  2  0  0  0
 16  1  1  0  0  0
 16 17  1  0  0  0
  1  2  1  0  0  0
  1 10  2  0  0  0
  2  3  2  0  0  0
  3  4  1  0  0  0
  4  5  1  0  0  0
  4  6  2  0  0  0
  5 11  1  0  0  0
  5 12  1  0  0  0
  6  7  1  0  0  0
  6 10  1  0  0  0
  7 19  1  0  0  0
  7  8  2  0  0  0
 19 20  1  0  0  0
 19 24  2  0  0  0
 20 21  2  0  0  0
 21 22  1  0  0  0
 22 25  1  0  0  0
 22 23  2  0  0  0
 25 26  1  0  0  0
 26 27  1  0  0  0
 26 31  2  0  0  0
 27 28  2  0  0  0
 28 29  1  0  0  0
 29 30  2  0  0  0
 30 31  1  0  0  0
 23 24  1  0  0  0
  8  9  1  0  0  0
  9 10  1  0  0  0
 17 18  2  0  0  0
M  END
> <minimizedAffinity>
-7.53173

$$$$
