CHEMBL3944578


 38 41  0  0  0  0  0  0  0  0999 V2000
  -25.4693   -1.7524  -12.4485 C   0  0  0  0  0  0  0  0  0  0  0  0
  -24.2260   -1.6599  -11.8223 C   0  0  0  0  0  0  0  0  0  0  0  0
  -23.1089   -1.2053  -12.5341 C   0  0  0  0  0  0  0  0  0  0  0  0
  -23.2269   -0.8241  -13.8738 C   0  0  0  0  0  0  0  0  0  0  0  0
  -24.4496   -1.0063  -14.5276 C   0  0  0  0  0  0  0  0  0  0  0  0
  -25.5578   -1.4554  -13.8109 C   0  0  0  0  0  0  0  0  0  0  0  0
  -26.7496   -1.5222  -14.4254 F   0  0  0  0  0  0  0  0  0  0  0  0
  -27.9114   -2.3562   -9.8156 N   0  0  0  0  0  0  0  0  0  0  0  0
  -26.6847   -1.9812  -10.3500 C   0  0  0  0  0  0  0  0  0  0  0  0
  -25.7361   -1.5227   -9.7290 O   0  0  0  0  0  0  0  0  0  0  0  0
  -26.6556   -2.1043  -11.7400 N   0  0  0  0  0  0  0  0  0  0  0  0
  -28.6292   -2.6067  -10.4664 H   0  0  0  0  0  0  0  0  0  0  0  0
  -27.5127   -1.8288  -12.1994 H   0  0  0  0  0  0  0  0  0  0  0  0
  -28.0694    0.4325   -5.7204 C   0  0  0  0  0  0  0  0  0  0  0  0
  -28.3201   -0.8789   -6.4159 C   0  0  0  0  0  0  0  0  0  0  0  0
  -28.8243   -1.9572   -5.6828 C   0  0  0  0  0  0  0  0  0  0  0  0
  -29.0975   -3.1592   -6.3225 C   0  0  0  0  0  0  0  0  0  0  0  0
  -28.8516   -3.2954   -7.6893 C   0  0  0  0  0  0  0  0  0  0  0  0
  -29.2787   -4.4440   -8.2334 F   0  0  0  0  0  0  0  0  0  0  0  0
  -28.2816   -2.2640   -8.4431 C   0  0  0  0  0  0  0  0  0  0  0  0
  -28.0506   -1.0332   -7.7902 C   0  0  0  0  0  0  0  0  0  0  0  0
  -22.0819   -0.3113  -14.4477 O   0  0  0  0  0  0  0  0  0  0  0  0
  -21.7749    1.0242  -14.2890 C   0  0  0  0  0  0  0  0  0  0  0  0
  -22.7086    1.9824  -13.9035 C   0  0  0  0  0  0  0  0  0  0  0  0
  -22.3222    3.3096  -13.8663 C   0  0  0  0  0  0  0  0  0  0  0  0
  -21.0883    3.7702  -14.1521 N   0  0  0  0  0  0  0  0  0  0  0  0
  -20.1563    2.8224  -14.4506 C   0  0  0  0  0  0  0  0  0  0  0  0
  -18.8026    3.0830  -14.8413 C   0  0  0  0  0  0  0  0  0  0  0  0
  -18.0948    1.9285  -15.1263 C   0  0  0  0  0  0  0  0  0  0  0  0
  -19.0432    0.5371  -14.8009 S   0  0  0  0  0  0  0  0  0  0  0  0
  -20.4537    1.4605  -14.4842 C   0  0  0  0  0  0  0  0  0  0  0  0
  -16.7399    1.7517  -15.6576 C   0  0  0  0  0  0  0  0  0  0  0  0
  -16.2369    2.5587  -16.4361 O   0  0  0  0  0  0  0  0  0  0  0  0
  -16.0467    0.5765  -15.3093 N   0  0  0  0  0  0  0  0  0  0  0  0
  -15.3721    0.4658  -13.9271 S   0  0  0  0  0  0  0  0  0  0  0  0
  -13.8410    1.3790  -13.9350 C   0  0  0  0  0  0  0  0  0  0  0  0
  -14.7831   -1.2061  -13.7981 C   0  0  0  0  0  0  0  0  0  0  0  0
  -16.0386    0.7578  -12.6737 O   0  0  0  0  0  0  0  0  0  0  0  0
 14 15  1  0  0  0
 15 16  1  0  0  0
 15 21  2  0  0  0
 16 17  2  0  0  0
 17 18  1  0  0  0
 18 19  1  0  0  0
 18 20  2  0  0  0
 20  8  1  0  0  0
 20 21  1  0  0  0
  8  9  1  0  0  0
  8 12  1  0  0  0
  9 10  2  0  0  0
  9 11  1  0  0  0
 11  1  1  0  0  0
 11 13  1  0  0  0
  1  2  1  0  0  0
  1  6  2  0  0  0
  2  3  2  0  0  0
  3  4  1  0  0  0
  4 22  1  0  0  0
  4  5  2  0  0  0
 22 23  1  0  0  0
 23 24  1  0  0  0
 23 31  2  0  0  0
 24 25  2  0  0  0
 25 26  1  0  0  0
 26 27  2  0  0  0
 27 28  1  0  0  0
 27 31  1  0  0  0
 28 29  2  0  0  0
 29 32  1  0  0  0
 29 30  1  0  0  0
 32 33  2  0  0  0
 32 34  1  0  0  0
 34 35  2  0  0  0
 35 36  1  0  0  0
 35 37  1  0  0  0
 35 38  2  0  0  0
 30 31  1  0  0  0
  5  6  1  0  0  0
  6  7  1  0  0  0
M  END
> <minimizedAffinity>
-11.55619

$$$$
