CHEMBL4082186


 22 25  0  0  0  0  0  0  0  0999 V2000
  -28.8467   -4.6374   -4.9454 C   0  0  0  0  0  0  0  0  0  0  0  0
  -29.1271   -5.4345   -3.8148 C   0  0  0  0  0  0  0  0  0  0  0  0
  -29.2447   -6.7310   -4.0984 N   0  0  0  0  0  0  0  0  0  0  0  0
  -29.0469   -6.7967   -5.4361 N   0  0  0  0  0  0  0  0  0  0  0  0
  -29.0924   -7.9357   -6.2283 C   0  0  0  0  0  0  0  0  0  0  0  0
  -28.8820   -7.8773   -7.5544 C   0  0  0  0  0  0  0  0  0  0  0  0
  -28.5931   -6.4857   -8.0468 C   0  0  0  0  0  0  0  0  0  0  0  0
  -28.5479   -5.3975   -7.3379 N   0  0  0  0  0  0  0  0  0  0  0  0
  -28.7830   -5.5413   -5.9936 C   0  0  0  0  0  0  0  0  0  0  0  0
  -28.4364   -0.4000   -5.3326 C   0  0  0  0  0  0  0  0  0  0  0  0
  -27.3117   -1.1927   -5.1128 C   0  0  0  0  0  0  0  0  0  0  0  0
  -27.4444   -2.5791   -4.9683 C   0  0  0  0  0  0  0  0  0  0  0  0
  -28.6987   -3.1949   -5.0519 C   0  0  0  0  0  0  0  0  0  0  0  0
  -29.8262   -2.3890   -5.2531 C   0  0  0  0  0  0  0  0  0  0  0  0
  -29.6923   -1.0044   -5.3954 C   0  0  0  0  0  0  0  0  0  0  0  0
  -29.1603    1.4526   -6.6266 C   0  0  0  0  0  0  0  0  0  0  0  0
  -28.4419    0.9567   -5.5036 O   0  0  0  0  0  0  0  0  0  0  0  0
  -28.9121   -9.0026   -8.4409 C   0  0  0  0  0  0  0  0  0  0  0  0
  -29.9470   -9.9934   -8.4720 C   0  0  0  0  0  0  0  0  0  0  0  0
  -29.7352  -10.9487   -9.4414 C   0  0  0  0  0  0  0  0  0  0  0  0
  -28.2932  -10.6682  -10.3129 S   0  0  0  0  0  0  0  0  0  0  0  0
  -27.9503   -9.2606   -9.3978 C   0  0  0  0  0  0  0  0  0  0  0  0
 16 17  1  0  0  0
 17 10  1  0  0  0
 10 11  1  0  0  0
 10 15  2  0  0  0
 11 12  2  0  0  0
 12 13  1  0  0  0
 13  1  1  0  0  0
 13 14  2  0  0  0
  1  2  1  0  0  0
  1  9  2  0  0  0
  2  3  2  0  0  0
  3  4  1  0  0  0
  4  5  1  0  0  0
  4  9  1  0  0  0
  5  6  2  0  0  0
  6 18  1  0  0  0
  6  7  1  0  0  0
 18 19  1  0  0  0
 18 22  2  0  0  0
 19 20  2  0  0  0
 20 21  1  0  0  0
 21 22  1  0  0  0
  7  8  2  0  0  0
  8  9  1  0  0  0
 14 15  1  0  0  0
M  END
> <minimizedAffinity>
-7.53675

$$$$
