CHEMBL1085296


 36 42  0  0  0  0  0  0  0  0999 V2000
  -29.4374  -12.4660   -6.0720 C   0  0  0  0  0  0  0  0  0  0  0  0
  -30.1132  -11.2607   -5.6336 N   0  0  0  0  0  0  0  0  0  0  0  0
  -31.3448  -10.9663   -6.1067 N   0  0  0  0  0  0  0  0  0  0  0  0
  -31.2083   -9.6795   -6.4809 C   0  0  0  0  0  0  0  0  0  0  0  0
  -29.8621   -9.2257   -6.3619 C   0  0  0  0  0  0  0  0  0  0  0  0
  -29.4426  -10.1086   -5.3663 C   0  0  0  0  0  0  0  0  0  0  0  0
  -28.5908   -9.8140   -4.1730 C   0  0  0  0  0  0  0  0  0  0  0  0
  -27.7643   -8.5875   -4.5129 C   0  0  0  0  0  0  0  0  0  0  0  0
  -28.7475   -7.5790   -5.0736 C   0  0  0  0  0  0  0  0  0  0  0  0
  -29.3028   -7.8945   -6.3185 C   0  0  0  0  0  0  0  0  0  0  0  0
  -28.7657   -7.0416   -7.2960 C   0  0  0  0  0  0  0  0  0  0  0  0
  -28.3781   -5.6893   -6.9705 C   0  0  0  0  0  0  0  0  0  0  0  0
  -28.7401   -5.2827   -5.6581 C   0  0  0  0  0  0  0  0  0  0  0  0
  -28.9642   -4.0306   -5.1168 C   0  0  0  0  0  0  0  0  0  0  0  0
  -28.6906   -2.6940   -5.3999 C   0  0  0  0  0  0  0  0  0  0  0  0
  -29.1623   -1.6709   -4.5393 C   0  0  0  0  0  0  0  0  0  0  0  0
  -30.0713   -1.9858   -3.5249 C   0  0  0  0  0  0  0  0  0  0  0  0
  -30.4042   -3.3164   -3.2452 C   0  0  0  0  0  0  0  0  0  0  0  0
  -29.7577   -4.3292   -3.9885 C   0  0  0  0  0  0  0  0  0  0  0  0
  -29.8072   -5.7005   -3.8481 N   0  0  0  0  0  0  0  0  0  0  0  0
  -28.9319   -6.2721   -4.7523 C   0  0  0  0  0  0  0  0  0  0  0  0
  -27.6555   -5.0394   -8.0574 C   0  0  0  0  0  0  0  0  0  0  0  0
  -27.6100   -6.1609   -8.9963 N   0  0  0  0  0  0  0  0  0  0  0  0
  -28.2726   -7.3310   -8.6178 C   0  0  0  0  0  0  0  0  0  0  0  0
  -28.2542   -8.3493   -9.2952 O   0  0  0  0  0  0  0  0  0  0  0  0
  -26.9906   -6.1870   -9.7996 H   0  0  0  0  0  0  0  0  0  0  0  0
  -28.5908   -0.2816   -4.7606 C   0  0  0  0  0  0  0  0  0  0  0  0
  -29.5049    0.9534   -4.9061 C   0  0  0  0  0  0  0  0  0  0  0  0
  -29.8168    1.4011   -6.3372 C   0  0  0  0  0  0  0  0  0  0  0  0
  -28.7148    1.0635   -7.3355 C   0  0  0  0  0  0  0  0  0  0  0  0
  -28.2153   -0.3430   -7.0939 C   0  0  0  0  0  0  0  0  0  0  0  0
  -27.6165   -0.3673   -5.8024 O   0  0  0  0  0  0  0  0  0  0  0  0
  -30.7678   -6.4826   -3.0778 C   0  0  0  0  0  0  0  0  0  0  0  0
  -32.0580   -5.7396   -2.8178 C   0  0  0  0  0  0  0  0  0  0  0  0
  -32.4064   -5.7499   -1.4382 O   0  0  0  0  0  0  0  0  0  0  0  0
  -32.6054   -6.6750   -1.2004 H   0  0  0  0  0  0  0  0  0  0  0  0
  1  2  1  0  0  0
  2  3  1  0  0  0
  2  6  1  0  0  0
  3  4  2  0  0  0
  4  5  1  0  0  0
  5  6  2  0  0  0
  5 10  1  0  0  0
  6  7  1  0  0  0
  7  8  1  0  0  0
  8  9  1  0  0  0
  9 10  1  0  0  0
  9 21  2  0  0  0
 10 11  2  0  0  0
 11 12  1  0  0  0
 11 24  1  0  0  0
 12 13  2  0  0  0
 12 22  1  0  0  0
 13 14  1  0  0  0
 13 21  1  0  0  0
 14 15  1  0  0  0
 14 19  2  0  0  0
 15 16  2  0  0  0
 16 27  1  0  0  0
 16 17  1  0  0  0
 27 28  1  0  0  0
 27 32  1  0  0  0
 28 29  1  0  0  0
 29 30  1  0  0  0
 30 31  1  0  0  0
 31 32  1  0  0  0
 17 18  2  0  0  0
 18 19  1  0  0  0
 19 20  1  0  0  0
 20 33  1  0  0  0
 20 21  1  0  0  0
 33 34  1  0  0  0
 34 35  1  0  0  0
 35 36  1  0  0  0
 22 23  1  0  0  0
 23 24  1  0  0  0
 23 26  1  0  0  0
 24 25  2  0  0  0
M  END
> <minimizedAffinity>
-8.82233

$$$$
