CHEMBL442485


 43 47  0  0  0  0  0  0  0  0999 V2000
  -13.3269   -4.9804  -15.1619 N   0  0  0  0  0  0  0  0  0  0  0  0
  -12.1993   -5.6387  -14.6363 C   0  0  0  0  0  0  0  0  0  0  0  0
  -11.1026   -5.7946  -15.1640 O   0  0  0  0  0  0  0  0  0  0  0  0
  -13.2610   -2.6355  -18.1284 C   0  0  0  0  0  0  0  0  0  0  0  0
  -13.5055   -3.4982  -19.1845 C   0  0  0  0  0  0  0  0  0  0  0  0
  -13.7557   -4.8485  -18.9297 C   0  0  0  0  0  0  0  0  0  0  0  0
  -13.7522   -5.3592  -17.6184 C   0  0  0  0  0  0  0  0  0  0  0  0
  -13.4567   -4.5162  -16.5278 C   0  0  0  0  0  0  0  0  0  0  0  0
  -13.2326   -3.1472  -16.8248 C   0  0  0  0  0  0  0  0  0  0  0  0
  -12.9639   -0.7303  -19.5262 C   0  0  0  0  0  0  0  0  0  0  0  0
  -13.0307   -1.2906  -18.2207 O   0  0  0  0  0  0  0  0  0  0  0  0
  -14.2054   -6.6284  -17.3650 O   0  0  0  0  0  0  0  0  0  0  0  0
  -13.8970   -7.6085  -18.3525 C   0  0  0  0  0  0  0  0  0  0  0  0
  -14.3944   -4.6437  -14.2788 C   0  0  0  0  0  0  0  0  0  0  0  0
  -15.4035   -5.5536  -14.0343 C   0  0  0  0  0  0  0  0  0  0  0  0
  -16.4795   -5.0965  -13.3237 C   0  0  0  0  0  0  0  0  0  0  0  0
  -16.5534   -3.8452  -12.8657 N   0  0  0  0  0  0  0  0  0  0  0  0
  -15.4961   -3.0457  -13.0739 C   0  0  0  0  0  0  0  0  0  0  0  0
  -14.3973   -3.4126  -13.7388 N   0  0  0  0  0  0  0  0  0  0  0  0
  -15.5144   -1.7447  -12.5928 N   0  0  0  0  0  0  0  0  0  0  0  0
  -15.3041   -1.7150  -11.6064 H   0  0  0  0  0  0  0  0  0  0  0  0
  -15.3198   -0.5593  -13.3063 C   0  0  0  0  0  0  0  0  0  0  0  0
  -16.3872   -0.0289  -14.0233 C   0  0  0  0  0  0  0  0  0  0  0  0
  -16.2017    1.0862  -14.8397 C   0  0  0  0  0  0  0  0  0  0  0  0
  -14.9555    1.7196  -14.9633 C   0  0  0  0  0  0  0  0  0  0  0  0
  -13.9020    1.2122  -14.2026 C   0  0  0  0  0  0  0  0  0  0  0  0
  -14.0779    0.0801  -13.3987 C   0  0  0  0  0  0  0  0  0  0  0  0
  -14.8416    2.8242  -15.7866 N   0  0  0  0  0  0  0  0  0  0  0  0
  -16.0163    3.4663  -16.3896 C   0  0  0  0  0  0  0  0  0  0  0  0
  -15.5692    4.1745  -17.6934 C   0  0  0  0  0  0  0  0  0  0  0  0
  -14.4738    5.1523  -17.4759 N   0  0  0  0  0  0  0  0  0  0  0  0
  -14.0365    5.7216  -18.7475 C   0  0  0  0  0  0  0  0  0  0  0  0
  -13.3388    4.4783  -16.8003 C   0  0  0  0  0  0  0  0  0  0  0  0
  -13.7601    3.7823  -15.4887 C   0  0  0  0  0  0  0  0  0  0  0  0
  -12.4179   -6.0836  -13.3155 O   0  0  0  0  0  0  0  0  0  0  0  0
  -12.1778   -7.3914  -12.7892 C   0  0  0  0  0  0  0  0  0  0  0  0
  -12.6263   -8.5898  -13.3764 C   0  0  0  0  0  0  0  0  0  0  0  0
  -13.5353   -8.7181  -14.5658 C   0  0  0  0  0  0  0  0  0  0  0  0
  -12.1989   -9.8013  -12.8040 C   0  0  0  0  0  0  0  0  0  0  0  0
  -11.3011   -9.8296  -11.7404 C   0  0  0  0  0  0  0  0  0  0  0  0
  -10.8244   -8.6398  -11.2034 C   0  0  0  0  0  0  0  0  0  0  0  0
  -11.2588   -7.4086  -11.7113 C   0  0  0  0  0  0  0  0  0  0  0  0
  -10.6987   -6.1411  -11.1226 C   0  0  0  0  0  0  0  0  0  0  0  0
 10 11  1  0  0  0
 11  4  1  0  0  0
  4  5  1  0  0  0
  4  9  2  0  0  0
  5  6  2  0  0  0
  6  7  1  0  0  0
  7 12  1  0  0  0
  7  8  2  0  0  0
 12 13  1  0  0  0
  8  1  1  0  0  0
  8  9  1  0  0  0
  1  2  1  0  0  0
  1 14  1  0  0  0
  2  3  2  0  0  0
  2 35  1  0  0  0
 35 36  1  0  0  0
 36 37  1  0  0  0
 36 42  2  0  0  0
 37 38  1  0  0  0
 37 39  2  0  0  0
 39 40  1  0  0  0
 40 41  2  0  0  0
 41 42  1  0  0  0
 42 43  1  0  0  0
 14 15  1  0  0  0
 14 19  2  0  0  0
 15 16  2  0  0  0
 16 17  1  0  0  0
 17 18  2  0  0  0
 18 20  1  0  0  0
 18 19  1  0  0  0
 20 22  1  0  0  0
 20 21  1  0  0  0
 22 23  1  0  0  0
 22 27  2  0  0  0
 23 24  2  0  0  0
 24 25  1  0  0  0
 25 28  1  0  0  0
 25 26  2  0  0  0
 28 29  1  0  0  0
 28 34  1  0  0  0
 29 30  1  0  0  0
 30 31  1  0  0  0
 31 32  1  0  0  0
 31 33  1  0  0  0
 33 34  1  0  0  0
 26 27  1  0  0  0
M  END
> <minimizedAffinity>
-7.20387

$$$$
