CHEMBL3354189


 30 34  0  0  0  0  0  0  0  0999 V2000
  -31.0903   -7.4444   -5.8130 N   0  0  0  0  0  0  0  0  0  0  0  0
  -31.9123   -7.3741   -6.3985 H   0  0  0  0  0  0  0  0  0  0  0  0
  -30.9155   -6.2196   -5.1528 C   0  0  0  0  0  0  0  0  0  0  0  0
  -30.0451   -5.2779   -5.6812 C   0  0  0  0  0  0  0  0  0  0  0  0
  -29.9383   -4.0518   -5.0282 C   0  0  0  0  0  0  0  0  0  0  0  0
  -30.6572   -3.8146   -3.8568 C   0  0  0  0  0  0  0  0  0  0  0  0
  -30.3637   -2.4830   -3.4593 C   0  0  0  0  0  0  0  0  0  0  0  0
  -29.4875   -1.9509   -4.3792 C   0  0  0  0  0  0  0  0  0  0  0  0
  -29.2178   -2.9132   -5.3242 N   0  0  0  0  0  0  0  0  0  0  0  0
  -31.4636   -4.8404   -3.3438 C   0  0  0  0  0  0  0  0  0  0  0  0
  -31.5777   -6.0329   -3.9894 N   0  0  0  0  0  0  0  0  0  0  0  0
  -28.3134   -2.7149   -6.4445 C   0  0  0  0  0  0  0  0  0  0  0  0
  -28.0099   -1.2552   -6.7915 C   0  0  0  0  0  0  0  0  0  0  0  0
  -27.5685   -1.2691   -8.2527 C   0  0  0  0  0  0  0  0  0  0  0  0
  -27.9400   -2.6371   -8.8208 C   0  0  0  0  0  0  0  0  0  0  0  0
  -28.7873   -3.3285   -7.7627 C   0  0  0  0  0  0  0  0  0  0  0  0
  -28.0911   -9.4205   -6.3406 C   0  0  0  0  0  0  0  0  0  0  0  0
  -28.0872   -9.5797   -7.6707 N   0  0  0  0  0  0  0  0  0  0  0  0
  -29.0897   -9.0317   -8.3762 C   0  0  0  0  0  0  0  0  0  0  0  0
  -30.0959   -8.2949   -7.8121 C   0  0  0  0  0  0  0  0  0  0  0  0
  -30.0525   -8.1722   -6.4434 C   0  0  0  0  0  0  0  0  0  0  0  0
  -29.0671   -8.7430   -5.7152 N   0  0  0  0  0  0  0  0  0  0  0  0
  -24.3072   -9.7924   -4.7968 C   0  0  0  0  0  0  0  0  0  0  0  0
  -25.4117   -9.0152   -4.0637 C   0  0  0  0  0  0  0  0  0  0  0  0
  -26.8143   -9.6102   -4.2197 C   0  0  0  0  0  0  0  0  0  0  0  0
  -27.0662   -9.9700   -5.6054 N   0  0  0  0  0  0  0  0  0  0  0  0
  -26.1064  -10.8750   -6.2164 C   0  0  0  0  0  0  0  0  0  0  0  0
  -24.7351  -10.2056   -6.2095 C   0  0  0  0  0  0  0  0  0  0  0  0
  -22.5122  -11.1602   -4.0151 C   0  0  0  0  0  0  0  0  0  0  0  0
  -23.9240  -10.9738   -4.0769 O   0  0  0  0  0  0  0  0  0  0  0  0
 29 30  1  0  0  0
 30 23  1  0  0  0
 23 24  1  0  0  0
 23 28  1  0  0  0
 24 25  1  0  0  0
 25 26  1  0  0  0
 26 17  1  0  0  0
 26 27  1  0  0  0
 17 18  1  0  0  0
 17 22  2  0  0  0
 18 19  2  0  0  0
 19 20  1  0  0  0
 20 21  2  0  0  0
 21  1  1  0  0  0
 21 22  1  0  0  0
  1  3  1  0  0  0
  1  2  1  0  0  0
  3  4  1  0  0  0
  3 11  2  0  0  0
  4  5  2  0  0  0
  5  6  1  0  0  0
  5  9  1  0  0  0
  6  7  1  0  0  0
  6 10  2  0  0  0
  7  8  2  0  0  0
  8  9  1  0  0  0
  9 12  1  0  0  0
 12 13  1  0  0  0
 12 16  1  0  0  0
 13 14  1  0  0  0
 14 15  1  0  0  0
 15 16  1  0  0  0
 10 11  1  0  0  0
 27 28  1  0  0  0
M  END
> <minimizedAffinity>
-8.61928

$$$$
