CHEMBL3742168


 41 45  0  0  0  0  0  0  0  0999 V2000
  -15.3142    0.3874  -14.9031 C   0  0  0  0  0  0  0  0  0  0  0  0
  -15.7428    0.5114  -13.5880 C   0  0  0  0  0  0  0  0  0  0  0  0
  -17.0676    0.9588  -13.3037 C   0  0  0  0  0  0  0  0  0  0  0  0
  -17.9712    1.4075  -14.3102 C   0  0  0  0  0  0  0  0  0  0  0  0
  -19.3143    1.9601  -14.1158 C   0  0  0  0  0  0  0  0  0  0  0  0
  -19.3736    3.3068  -14.4394 C   0  0  0  0  0  0  0  0  0  0  0  0
  -18.5450    3.7851  -15.4695 C   0  0  0  0  0  0  0  0  0  0  0  0
  -17.6299    2.9365  -16.1088 C   0  0  0  0  0  0  0  0  0  0  0  0
  -17.2442    1.7606  -15.4667 C   0  0  0  0  0  0  0  0  0  0  0  0
  -16.0513    1.0818  -15.8527 C   0  0  0  0  0  0  0  0  0  0  0  0
  -20.6957    1.0900  -14.4831 C   0  0  0  0  0  0  0  0  0  0  0  0
  -20.9451    0.9098  -15.6714 O   0  0  0  0  0  0  0  0  0  0  0  0
  -21.5428    0.6033  -13.3946 N   0  0  0  0  0  0  0  0  0  0  0  0
  -21.0794    0.6128  -12.4945 H   0  0  0  0  0  0  0  0  0  0  0  0
  -23.0257    0.2738  -13.2190 C   0  0  0  0  0  0  0  0  0  0  0  0
  -23.9190    0.5696  -12.1633 C   0  0  0  0  0  0  0  0  0  0  0  0
  -25.0536   -0.2647  -11.8452 C   0  0  0  0  0  0  0  0  0  0  0  0
  -25.4835   -1.2035  -12.7429 C   0  0  0  0  0  0  0  0  0  0  0  0
  -26.5703   -1.9697  -12.4753 F   0  0  0  0  0  0  0  0  0  0  0  0
  -24.8048   -1.3189  -13.9415 C   0  0  0  0  0  0  0  0  0  0  0  0
  -23.5585   -0.6366  -14.1414 C   0  0  0  0  0  0  0  0  0  0  0  0
  -14.0699   -0.1482  -15.1816 O   0  0  0  0  0  0  0  0  0  0  0  0
  -13.2463   -2.3637  -12.4643 C   0  0  0  0  0  0  0  0  0  0  0  0
  -11.9586   -2.0870  -12.2153 N   0  0  0  0  0  0  0  0  0  0  0  0
  -11.3963   -1.1106  -12.9497 C   0  0  0  0  0  0  0  0  0  0  0  0
  -12.0641   -0.4119  -13.9313 C   0  0  0  0  0  0  0  0  0  0  0  0
  -13.3746   -0.7785  -14.1380 C   0  0  0  0  0  0  0  0  0  0  0  0
  -13.9823   -1.7086  -13.3872 N   0  0  0  0  0  0  0  0  0  0  0  0
  -13.7765   -3.4698  -11.7744 N   0  0  0  0  0  0  0  0  0  0  0  0
  -13.0258   -3.8289  -11.1953 H   0  0  0  0  0  0  0  0  0  0  0  0
  -14.3996   -6.6872  -13.5294 C   0  0  0  0  0  0  0  0  0  0  0  0
  -15.8010   -6.6635  -13.5867 C   0  0  0  0  0  0  0  0  0  0  0  0
  -16.5328   -5.6161  -13.0382 C   0  0  0  0  0  0  0  0  0  0  0  0
  -15.8589   -4.5828  -12.3992 C   0  0  0  0  0  0  0  0  0  0  0  0
  -14.4637   -4.5344  -12.3876 C   0  0  0  0  0  0  0  0  0  0  0  0
  -13.7700   -5.5769  -12.9962 C   0  0  0  0  0  0  0  0  0  0  0  0
  -13.4430   -7.7286  -14.0869 C   0  0  0  0  0  0  0  0  0  0  0  0
  -11.6237   -8.2941  -11.8754 C   0  0  0  0  0  0  0  0  0  0  0  0
  -12.9621   -8.8680  -12.8876 S   0  0  0  0  0  0  0  0  0  0  0  0
  -12.3802   -9.8847  -13.7437 O   0  0  0  0  0  0  0  0  0  0  0  0
  -14.0673   -9.1942  -12.0177 O   0  0  0  0  0  0  0  0  0  0  0  0
 38 39  1  0  0  0
 39 40  2  0  0  0
 39 41  2  0  0  0
 39 37  1  0  0  0
 37 31  1  0  0  0
 31 32  1  0  0  0
 31 36  2  0  0  0
 32 33  2  0  0  0
 33 34  1  0  0  0
 34 35  2  0  0  0
 35 29  1  0  0  0
 35 36  1  0  0  0
 29 23  1  0  0  0
 29 30  1  0  0  0
 23 24  1  0  0  0
 23 28  2  0  0  0
 24 25  2  0  0  0
 25 26  1  0  0  0
 26 27  2  0  0  0
 27 22  1  0  0  0
 27 28  1  0  0  0
 22  1  1  0  0  0
  1  2  1  0  0  0
  1 10  2  0  0  0
  2  3  2  0  0  0
  3  4  1  0  0  0
  4  5  1  0  0  0
  4  9  2  0  0  0
  5 11  1  0  0  0
  5  6  2  0  0  0
 11 12  2  0  0  0
 11 13  1  0  0  0
 13 15  1  0  0  0
 13 14  1  0  0  0
 15 16  1  0  0  0
 15 21  2  0  0  0
 16 17  2  0  0  0
 17 18  1  0  0  0
 18 19  1  0  0  0
 18 20  2  0  0  0
 20 21  1  0  0  0
  6  7  1  0  0  0
  7  8  2  0  0  0
  8  9  1  0  0  0
  9 10  1  0  0  0
M  END
> <minimizedAffinity>
-10.80874

$$$$
