CHEMBL4159645


 41 45  0  0  0  0  0  0  0  0999 V2000
  -24.0322   -1.9760  -11.9867 O   0  0  0  0  0  0  0  0  0  0  0  0
  -24.9413   -1.2674  -12.4394 C   0  0  0  0  0  0  0  0  0  0  0  0
  -24.7458   -0.1298  -13.2216 N   0  0  0  0  0  0  0  0  0  0  0  0
  -25.5659    0.4007  -13.4990 H   0  0  0  0  0  0  0  0  0  0  0  0
  -23.4975    0.3774  -13.6521 C   0  0  0  0  0  0  0  0  0  0  0  0
  -23.1518    1.7250  -13.5692 C   0  0  0  0  0  0  0  0  0  0  0  0
  -21.8964    2.1816  -13.9905 C   0  0  0  0  0  0  0  0  0  0  0  0
  -20.9338    1.3090  -14.5154 C   0  0  0  0  0  0  0  0  0  0  0  0
  -21.2996   -0.0458  -14.6146 C   0  0  0  0  0  0  0  0  0  0  0  0
  -22.5523   -0.5100  -14.1714 C   0  0  0  0  0  0  0  0  0  0  0  0
  -19.5650    1.7930  -14.8217 C   0  0  0  0  0  0  0  0  0  0  0  0
  -19.3267    3.1754  -14.9786 C   0  0  0  0  0  0  0  0  0  0  0  0
  -18.1295    3.6539  -15.5083 C   0  0  0  0  0  0  0  0  0  0  0  0
  -17.1196    2.7489  -15.7985 C   0  0  0  0  0  0  0  0  0  0  0  0
  -15.8595    3.1474  -16.4729 C   0  0  0  0  0  0  0  0  0  0  0  0
  -15.8971    4.0385  -17.3205 O   0  0  0  0  0  0  0  0  0  0  0  0
  -14.7175    2.4647  -16.1213 N   0  0  0  0  0  0  0  0  0  0  0  0
  -14.9032    1.2482  -15.7212 C   0  0  0  0  0  0  0  0  0  0  0  0
  -16.1000    0.5872  -15.6052 N   0  0  0  0  0  0  0  0  0  0  0  0
  -17.2398    1.3948  -15.4688 C   0  0  0  0  0  0  0  0  0  0  0  0
  -18.4853    0.9091  -15.0571 C   0  0  0  0  0  0  0  0  0  0  0  0
  -16.1169   -0.3168  -15.1499 H   0  0  0  0  0  0  0  0  0  0  0  0
  -26.4130   -1.6366  -12.1188 C   0  0  0  0  0  0  0  0  0  0  0  0
  -27.0698   -2.8677  -12.8446 C   0  0  0  0  0  0  0  0  0  0  0  0
  -28.3242   -2.0163  -13.0902 C   0  0  0  0  0  0  0  0  0  0  0  0
  -27.4652   -0.7647  -12.8896 C   0  0  0  0  0  0  0  0  0  0  0  0
  -26.4952   -1.6649  -10.5601 C   0  0  0  0  0  0  0  0  0  0  0  0
  -25.5024   -1.3652   -9.8849 O   0  0  0  0  0  0  0  0  0  0  0  0
  -27.7191   -2.0584  -10.0098 N   0  0  0  0  0  0  0  0  0  0  0  0
  -28.4504   -2.3419  -10.6567 H   0  0  0  0  0  0  0  0  0  0  0  0
  -28.0122   -2.1361   -8.6237 C   0  0  0  0  0  0  0  0  0  0  0  0
  -28.2714   -3.3408   -7.9750 C   0  0  0  0  0  0  0  0  0  0  0  0
  -28.6540   -3.3703   -6.6339 C   0  0  0  0  0  0  0  0  0  0  0  0
  -28.7684   -2.1901   -5.9007 C   0  0  0  0  0  0  0  0  0  0  0  0
  -29.3169   -2.3601   -4.2745 Cl  0  0  0  0  0  0  0  0  0  0  0  0
  -28.4537   -0.9665   -6.4993 C   0  0  0  0  0  0  0  0  0  0  0  0
  -28.0606   -0.9576   -7.8658 C   0  0  0  0  0  0  0  0  0  0  0  0
  -28.5086    0.3549   -5.7704 C   0  0  0  0  0  0  0  0  0  0  0  0
  -27.6406    0.5260   -4.7385 F   0  0  0  0  0  0  0  0  0  0  0  0
  -28.2822    1.4034   -6.6117 F   0  0  0  0  0  0  0  0  0  0  0  0
  -29.7459    0.5833   -5.2378 F   0  0  0  0  0  0  0  0  0  0  0  0
  1  2  2  0  0  0
  2  3  1  0  0  0
  2 23  1  0  0  0
  3  5  1  0  0  0
  3  4  1  0  0  0
  5  6  1  0  0  0
  5 10  2  0  0  0
  6  7  2  0  0  0
  7  8  1  0  0  0
  8 11  1  0  0  0
  8  9  2  0  0  0
 11 12  1  0  0  0
 11 21  2  0  0  0
 12 13  2  0  0  0
 13 14  1  0  0  0
 14 15  1  0  0  0
 14 20  2  0  0  0
 15 16  2  0  0  0
 15 17  1  0  0  0
 17 18  2  0  0  0
 18 19  1  0  0  0
 19 20  1  0  0  0
 19 22  1  0  0  0
 20 21  1  0  0  0
  9 10  1  0  0  0
 23 27  1  0  0  0
 23 24  1  0  0  0
 23 26  1  0  0  0
 27 28  2  0  0  0
 27 29  1  0  0  0
 29 31  1  0  0  0
 29 30  1  0  0  0
 31 32  1  0  0  0
 31 37  2  0  0  0
 32 33  2  0  0  0
 33 34  1  0  0  0
 34 35  1  0  0  0
 34 36  2  0  0  0
 36 38  1  0  0  0
 36 37  1  0  0  0
 38 39  1  0  0  0
 38 40  1  0  0  0
 38 41  1  0  0  0
 24 25  1  0  0  0
 25 26  1  0  0  0
M  END
> <minimizedAffinity>
-11.20158

$$$$
