CHEMBL1980167


 38 41  0  0  0  0  0  0  0  0999 V2000
  -27.2958   -2.2180   -9.4097 C   0  0  0  0  0  0  0  0  0  0  0  0
  -27.7179   -3.5177   -9.1880 C   0  0  0  0  0  0  0  0  0  0  0  0
  -28.4149   -3.7769   -8.0233 C   0  0  0  0  0  0  0  0  0  0  0  0
  -28.6749   -2.8003   -7.1327 N   0  0  0  0  0  0  0  0  0  0  0  0
  -28.2145   -1.5868   -7.4332 C   0  0  0  0  0  0  0  0  0  0  0  0
  -27.5389   -1.2299   -8.5230 N   0  0  0  0  0  0  0  0  0  0  0  0
  -25.1740   -1.1123  -13.0547 C   0  0  0  0  0  0  0  0  0  0  0  0
  -24.6098   -0.9381  -11.7837 C   0  0  0  0  0  0  0  0  0  0  0  0
  -25.2872   -1.2941  -10.6086 C   0  0  0  0  0  0  0  0  0  0  0  0
  -26.5806   -1.8342  -10.6417 C   0  0  0  0  0  0  0  0  0  0  0  0
  -27.1622   -1.9972  -11.9029 C   0  0  0  0  0  0  0  0  0  0  0  0
  -26.4738   -1.6426  -13.0755 C   0  0  0  0  0  0  0  0  0  0  0  0
  -25.0934   -0.9606  -15.5278 C   0  0  0  0  0  0  0  0  0  0  0  0
  -24.4857   -0.7811  -14.2147 N   0  0  0  0  0  0  0  0  0  0  0  0
  -23.1833   -0.1319  -14.1532 C   0  0  0  0  0  0  0  0  0  0  0  0
  -28.9440   -5.1177   -7.6980 C   0  0  0  0  0  0  0  0  0  0  0  0
  -28.2951   -6.2938   -8.1247 C   0  0  0  0  0  0  0  0  0  0  0  0
  -28.8010   -7.5621   -7.8182 C   0  0  0  0  0  0  0  0  0  0  0  0
  -29.9762   -7.6729   -7.0698 C   0  0  0  0  0  0  0  0  0  0  0  0
  -30.6449   -6.5268   -6.6317 C   0  0  0  0  0  0  0  0  0  0  0  0
  -30.1268   -5.2640   -6.9462 C   0  0  0  0  0  0  0  0  0  0  0  0
  -30.5040   -9.0024   -6.7387 N   0  0  0  0  0  0  0  0  0  0  0  0
  -31.6620   -9.2664   -7.0937 O   0  0  0  0  0  0  0  0  0  0  0  0
  -29.7679   -9.7772   -6.1168 O   0  0  0  0  0  0  0  0  0  0  0  0
  -28.5760   -0.5485   -6.5868 N   0  0  0  0  0  0  0  0  0  0  0  0
  -28.4918    0.3640   -7.0248 H   0  0  0  0  0  0  0  0  0  0  0  0
  -27.9211   -0.5904   -5.0519 S   0  0  0  0  0  0  0  0  0  0  0  0
  -26.5075   -0.8581   -5.2340 O   0  0  0  0  0  0  0  0  0  0  0  0
  -28.3564    0.5574   -4.2901 O   0  0  0  0  0  0  0  0  0  0  0  0
  -28.6080   -2.0448   -4.2684 C   0  0  0  0  0  0  0  0  0  0  0  0
  -29.9883   -2.1223   -4.0539 C   0  0  0  0  0  0  0  0  0  0  0  0
  -30.5639   -3.3352   -3.6504 C   0  0  0  0  0  0  0  0  0  0  0  0
  -29.7746   -4.4665   -3.4287 C   0  0  0  0  0  0  0  0  0  0  0  0
  -30.3786   -5.7107   -3.2202 N   0  0  0  0  0  0  0  0  0  0  0  0
  -28.4013   -4.3836   -3.6828 C   0  0  0  0  0  0  0  0  0  0  0  0
  -27.8122   -3.1799   -4.0880 C   0  0  0  0  0  0  0  0  0  0  0  0
  -31.2950   -5.6719   -2.7859 H   0  0  0  0  0  0  0  0  0  0  0  0
  -29.7756   -6.4109   -2.8007 H   0  0  0  0  0  0  0  0  0  0  0  0
 13 14  1  0  0  0
 14 15  1  0  0  0
 14  7  1  0  0  0
  7  8  1  0  0  0
  7 12  2  0  0  0
  8  9  2  0  0  0
  9 10  1  0  0  0
 10  1  1  0  0  0
 10 11  2  0  0  0
  1  2  1  0  0  0
  1  6  2  0  0  0
  2  3  2  0  0  0
  3 16  1  0  0  0
  3  4  1  0  0  0
 16 17  1  0  0  0
 16 21  2  0  0  0
 17 18  2  0  0  0
 18 19  1  0  0  0
 19 22  1  0  0  0
 19 20  2  0  0  0
 22 23  2  0  0  0
 22 24  1  0  0  0
 20 21  1  0  0  0
  4  5  2  0  0  0
  5 25  1  0  0  0
  5  6  1  0  0  0
 25 27  1  0  0  0
 25 26  1  0  0  0
 27 28  2  0  0  0
 27 29  2  0  0  0
 27 30  1  0  0  0
 30 31  1  0  0  0
 30 36  2  0  0  0
 31 32  2  0  0  0
 32 33  1  0  0  0
 33 34  1  0  0  0
 33 35  2  0  0  0
 34 37  1  0  0  0
 34 38  1  0  0  0
 35 36  1  0  0  0
 11 12  1  0  0  0
M  CHG 1  22   1
M  CHG 1  24  -1
M  END
> <minimizedAffinity>
-9.20614

$$$$
