CHEMBL3612235


 28 31  0  0  0  0  0  0  0  0999 V2000
  -30.2291   -6.4659   -5.6910 C   0  0  0  0  0  0  0  0  0  0  0  0
  -31.1512   -6.8383   -6.6719 C   0  0  0  0  0  0  0  0  0  0  0  0
  -31.1089   -8.1114   -7.2523 C   0  0  0  0  0  0  0  0  0  0  0  0
  -30.1256   -9.0259   -6.8800 C   0  0  0  0  0  0  0  0  0  0  0  0
  -29.1958   -8.6616   -5.9041 C   0  0  0  0  0  0  0  0  0  0  0  0
  -29.2478   -7.3918   -5.3134 C   0  0  0  0  0  0  0  0  0  0  0  0
  -29.3970   -3.8695   -6.7595 O   0  0  0  0  0  0  0  0  0  0  0  0
  -29.7772   -4.0043   -5.6017 C   0  0  0  0  0  0  0  0  0  0  0  0
  -29.7862   -2.9863   -4.6580 N   0  0  0  0  0  0  0  0  0  0  0  0
  -30.2190   -5.2015   -5.0579 N   0  0  0  0  0  0  0  0  0  0  0  0
  -29.9488   -3.2554   -3.7007 H   0  0  0  0  0  0  0  0  0  0  0  0
  -30.6265   -5.1611   -4.1367 H   0  0  0  0  0  0  0  0  0  0  0  0
  -29.3442   -1.6579   -4.8625 C   0  0  0  0  0  0  0  0  0  0  0  0
  -30.1587   -0.6350   -5.3567 C   0  0  0  0  0  0  0  0  0  0  0  0
  -29.6404    0.6408   -5.5959 C   0  0  0  0  0  0  0  0  0  0  0  0
  -28.3015    0.9111   -5.3328 C   0  0  0  0  0  0  0  0  0  0  0  0
  -27.4858   -0.0895   -4.8104 C   0  0  0  0  0  0  0  0  0  0  0  0
  -28.0066   -1.3655   -4.5672 C   0  0  0  0  0  0  0  0  0  0  0  0
  -30.1101  -10.6608   -7.5833 S   0  0  0  0  0  0  0  0  0  0  0  0
  -28.6922  -10.5917   -8.6542 C   0  0  0  0  0  0  0  0  0  0  0  0
  -28.7797  -10.0855   -9.9515 C   0  0  0  0  0  0  0  0  0  0  0  0
  -27.6627  -10.1156  -10.7627 C   0  0  0  0  0  0  0  0  0  0  0  0
  -26.4637  -10.6080  -10.4110 N   0  0  0  0  0  0  0  0  0  0  0  0
  -26.3751  -11.1073   -9.1492 C   0  0  0  0  0  0  0  0  0  0  0  0
  -25.1938  -11.6822   -8.5955 C   0  0  0  0  0  0  0  0  0  0  0  0
  -25.3717  -12.1067   -7.3006 C   0  0  0  0  0  0  0  0  0  0  0  0
  -26.9619  -11.8244   -6.7503 S   0  0  0  0  0  0  0  0  0  0  0  0
  -27.4477  -11.1169   -8.2514 C   0  0  0  0  0  0  0  0  0  0  0  0
  7  8  2  0  0  0
  8  9  1  0  0  0
  8 10  1  0  0  0
  9 13  1  0  0  0
  9 11  1  0  0  0
 13 14  1  0  0  0
 13 18  2  0  0  0
 14 15  2  0  0  0
 15 16  1  0  0  0
 16 17  2  0  0  0
 17 18  1  0  0  0
 10  1  1  0  0  0
 10 12  1  0  0  0
  1  2  1  0  0  0
  1  6  2  0  0  0
  2  3  2  0  0  0
  3  4  1  0  0  0
  4 19  1  0  0  0
  4  5  2  0  0  0
 19 20  1  0  0  0
 20 21  1  0  0  0
 20 28  2  0  0  0
 21 22  2  0  0  0
 22 23  1  0  0  0
 23 24  2  0  0  0
 24 25  1  0  0  0
 24 28  1  0  0  0
 25 26  2  0  0  0
 26 27  1  0  0  0
 27 28  1  0  0  0
  5  6  1  0  0  0
M  END
> <minimizedAffinity>
-7.95658

$$$$
