CHEMBL26050


 30 33  0  0  0  0  0  0  0  0999 V2000
  -13.5854   -3.2785  -13.9865 C   0  0  0  0  0  0  0  0  0  0  0  0
  -14.0155   -2.0653  -14.5775 C   0  0  0  0  0  0  0  0  0  0  0  0
  -13.4363   -0.8165  -14.2647 C   0  0  0  0  0  0  0  0  0  0  0  0
  -13.8410    0.4552  -14.7743 C   0  0  0  0  0  0  0  0  0  0  0  0
  -13.2490    1.5976  -14.3810 N   0  0  0  0  0  0  0  0  0  0  0  0
  -12.2445    1.4763  -13.5085 C   0  0  0  0  0  0  0  0  0  0  0  0
  -11.7797    0.3409  -12.9758 N   0  0  0  0  0  0  0  0  0  0  0  0
  -12.3916   -0.7996  -13.3395 C   0  0  0  0  0  0  0  0  0  0  0  0
  -11.9533   -2.0100  -12.7834 C   0  0  0  0  0  0  0  0  0  0  0  0
  -12.5283   -3.2695  -13.0637 C   0  0  0  0  0  0  0  0  0  0  0  0
  -13.8687   -5.1793  -15.4706 C   0  0  0  0  0  0  0  0  0  0  0  0
  -14.3441   -4.3082  -14.4617 O   0  0  0  0  0  0  0  0  0  0  0  0
  -14.8591    0.5377  -15.7736 N   0  0  0  0  0  0  0  0  0  0  0  0
  -14.4124    0.7771  -16.6602 H   0  0  0  0  0  0  0  0  0  0  0  0
  -16.0990    1.2264  -15.6482 C   0  0  0  0  0  0  0  0  0  0  0  0
  -16.2827    2.5139  -16.1685 C   0  0  0  0  0  0  0  0  0  0  0  0
  -17.5042    3.1839  -16.0161 C   0  0  0  0  0  0  0  0  0  0  0  0
  -18.5605    2.5680  -15.3416 C   0  0  0  0  0  0  0  0  0  0  0  0
  -20.0718    3.3829  -15.1952 Cl  0  0  0  0  0  0  0  0  0  0  0  0
  -18.3938    1.3077  -14.7908 C   0  0  0  0  0  0  0  0  0  0  0  0
  -17.1714    0.6514  -14.9384 C   0  0  0  0  0  0  0  0  0  0  0  0
  -17.0209   -0.5660  -14.3978 F   0  0  0  0  0  0  0  0  0  0  0  0
  -12.0440   -4.4426  -12.5076 O   0  0  0  0  0  0  0  0  0  0  0  0
  -12.5803   -4.8543  -11.2158 C   0  0  0  0  0  0  0  0  0  0  0  0
  -13.1963   -6.2574  -11.2329 C   0  0  0  0  0  0  0  0  0  0  0  0
  -14.6398   -6.3378  -11.7204 C   0  0  0  0  0  0  0  0  0  0  0  0
  -15.5645   -5.3727  -11.1314 N   0  0  0  0  0  0  0  0  0  0  0  0
  -16.8247   -5.3823  -11.8994 C   0  0  0  0  0  0  0  0  0  0  0  0
  -15.0559   -4.0077  -11.0250 C   0  0  0  0  0  0  0  0  0  0  0  0
  -13.5775   -3.8221  -10.6673 C   0  0  0  0  0  0  0  0  0  0  0  0
 11 12  1  0  0  0
 12  1  1  0  0  0
  1  2  1  0  0  0
  1 10  2  0  0  0
  2  3  2  0  0  0
  3  4  1  0  0  0
  3  8  1  0  0  0
  4 13  1  0  0  0
  4  5  2  0  0  0
 13 15  1  0  0  0
 13 14  1  0  0  0
 15 16  1  0  0  0
 15 21  2  0  0  0
 16 17  2  0  0  0
 17 18  1  0  0  0
 18 19  1  0  0  0
 18 20  2  0  0  0
 20 21  1  0  0  0
 21 22  1  0  0  0
  5  6  1  0  0  0
  6  7  2  0  0  0
  7  8  1  0  0  0
  8  9  2  0  0  0
  9 10  1  0  0  0
 10 23  1  0  0  0
 23 24  1  0  0  0
 24 25  1  0  0  0
 24 30  1  0  0  0
 25 26  1  0  0  0
 26 27  1  0  0  0
 27 28  1  0  0  0
 27 29  1  0  0  0
 29 30  1  0  0  0
M  END
> <minimizedAffinity>
-7.53490

$$$$
