CHEMBL260138


 28 31  0  0  0  0  0  0  0  0999 V2000
  -29.5279   -9.5504   -8.7525 C   0  0  0  0  0  0  0  0  0  0  0  0
  -29.6361  -10.4212   -7.6678 C   0  0  0  0  0  0  0  0  0  0  0  0
  -29.6065   -9.9227   -6.3645 C   0  0  0  0  0  0  0  0  0  0  0  0
  -29.5078   -8.5449   -6.1181 C   0  0  0  0  0  0  0  0  0  0  0  0
  -29.3699   -7.6555   -7.2064 C   0  0  0  0  0  0  0  0  0  0  0  0
  -29.3891   -8.1753   -8.5107 C   0  0  0  0  0  0  0  0  0  0  0  0
  -29.2044   -6.2127   -7.0241 C   0  0  0  0  0  0  0  0  0  0  0  0
  -28.4140   -5.3909   -7.7944 N   0  0  0  0  0  0  0  0  0  0  0  0
  -28.5088   -4.0844   -7.3605 C   0  0  0  0  0  0  0  0  0  0  0  0
  -27.9007   -2.9199   -7.8475 C   0  0  0  0  0  0  0  0  0  0  0  0
  -28.1859   -1.7159   -7.1945 C   0  0  0  0  0  0  0  0  0  0  0  0
  -29.0470   -1.6933   -6.0907 C   0  0  0  0  0  0  0  0  0  0  0  0
  -29.6449   -2.8657   -5.6080 C   0  0  0  0  0  0  0  0  0  0  0  0
  -29.3658   -4.0818   -6.2593 C   0  0  0  0  0  0  0  0  0  0  0  0
  -29.7735   -5.4256   -6.0435 C   0  0  0  0  0  0  0  0  0  0  0  0
  -30.6532   -5.9634   -4.9807 C   0  0  0  0  0  0  0  0  0  0  0  0
  -29.9260   -7.0077   -4.1614 C   0  0  0  0  0  0  0  0  0  0  0  0
  -29.7913   -6.8865   -2.9410 O   0  0  0  0  0  0  0  0  0  0  0  0
  -29.5242   -8.1746   -4.7561 N   0  0  0  0  0  0  0  0  0  0  0  0
  -27.8332   -5.6983   -8.5658 H   0  0  0  0  0  0  0  0  0  0  0  0
  -29.2647   -8.8775   -4.0752 H   0  0  0  0  0  0  0  0  0  0  0  0
  -29.3452   -0.4190   -5.4211 N   0  0  0  0  0  0  0  0  0  0  0  0
  -28.5162    0.0122   -4.6051 O   0  0  0  0  0  0  0  0  0  0  0  0
  -30.4010    0.1578   -5.7189 O   0  0  0  0  0  0  0  0  0  0  0  0
  -29.5022  -10.0733  -10.1691 C   0  0  0  0  0  0  0  0  0  0  0  0
  -28.1691  -10.7307  -10.5347 C   0  0  0  0  0  0  0  0  0  0  0  0
  -26.4904   -8.9797  -11.5545 N   0  0  0  0  0  0  0  0  0  0  0  0
  -27.2209   -9.7661  -11.1118 C   0  0  0  0  0  0  0  0  0  0  0  0
 27 28  3  0  0  0
 28 26  1  0  0  0
 26 25  1  0  0  0
 25  1  1  0  0  0
  1  2  1  0  0  0
  1  6  2  0  0  0
  2  3  2  0  0  0
  3  4  1  0  0  0
  4  5  2  0  0  0
  4 19  1  0  0  0
  5  6  1  0  0  0
  5  7  1  0  0  0
  7  8  1  0  0  0
  7 15  2  0  0  0
  8  9  1  0  0  0
  8 20  1  0  0  0
  9 10  1  0  0  0
  9 14  2  0  0  0
 10 11  2  0  0  0
 11 12  1  0  0  0
 12 22  1  0  0  0
 12 13  2  0  0  0
 22 23  2  0  0  0
 22 24  1  0  0  0
 13 14  1  0  0  0
 14 15  1  0  0  0
 15 16  1  0  0  0
 16 17  1  0  0  0
 17 18  2  0  0  0
 17 19  1  0  0  0
 19 21  1  0  0  0
M  CHG 1  22   1
M  CHG 1  24  -1
M  END
> <minimizedAffinity>
-8.73940

$$$$
