CHEMBL3913600


 33 36  0  0  0  0  0  0  0  0999 V2000
  -17.4021    2.0670  -14.7799 C   0  0  0  0  0  0  0  0  0  0  0  0
  -18.1948    3.2355  -14.7324 C   0  0  0  0  0  0  0  0  0  0  0  0
  -19.5681    3.2020  -14.4553 C   0  0  0  0  0  0  0  0  0  0  0  0
  -20.1815    1.9404  -14.3581 C   0  0  0  0  0  0  0  0  0  0  0  0
  -21.5086    1.3914  -14.3950 C   0  0  0  0  0  0  0  0  0  0  0  0
  -21.5209    0.7958  -15.6170 N   0  0  0  0  0  0  0  0  0  0  0  0
  -20.3271    0.1493  -15.5596 N   0  0  0  0  0  0  0  0  0  0  0  0
  -19.4076    0.8689  -14.8203 C   0  0  0  0  0  0  0  0  0  0  0  0
  -18.0209    0.8148  -14.7772 C   0  0  0  0  0  0  0  0  0  0  0  0
  -20.1541   -0.6067  -16.2024 H   0  0  0  0  0  0  0  0  0  0  0  0
  -16.0086    2.1719  -14.9172 N   0  0  0  0  0  0  0  0  0  0  0  0
  -15.6689    3.1193  -15.0436 H   0  0  0  0  0  0  0  0  0  0  0  0
  -14.5365    0.2001  -14.8634 C   0  0  0  0  0  0  0  0  0  0  0  0
  -13.6103   -0.6365  -15.5250 C   0  0  0  0  0  0  0  0  0  0  0  0
  -13.3987   -0.5080  -16.9009 C   0  0  0  0  0  0  0  0  0  0  0  0
  -14.0905    0.4392  -17.6159 C   0  0  0  0  0  0  0  0  0  0  0  0
  -14.9451    1.3202  -16.9586 C   0  0  0  0  0  0  0  0  0  0  0  0
  -15.1658    1.2356  -15.5659 C   0  0  0  0  0  0  0  0  0  0  0  0
  -15.2916   -1.4029  -13.1621 N   0  0  0  0  0  0  0  0  0  0  0  0
  -14.8135   -0.1222  -13.4266 C   0  0  0  0  0  0  0  0  0  0  0  0
  -14.5856    0.6850  -12.5363 O   0  0  0  0  0  0  0  0  0  0  0  0
  -15.3931   -2.0584  -13.9328 H   0  0  0  0  0  0  0  0  0  0  0  0
  -15.5393   -1.8527  -11.8133 C   0  0  0  0  0  0  0  0  0  0  0  0
  -16.4996   -4.5079  -11.7691 C   0  0  0  0  0  0  0  0  0  0  0  0
  -16.0562   -3.2819  -11.7895 C   0  0  0  0  0  0  0  0  0  0  0  0
  -22.1549    0.5237  -13.4077 C   0  0  0  0  0  0  0  0  0  0  0  0
  -22.6486   -0.7077  -13.6536 C   0  0  0  0  0  0  0  0  0  0  0  0
  -23.9413   -1.1478  -13.0688 C   0  0  0  0  0  0  0  0  0  0  0  0
  -25.0080   -1.4852  -13.8961 C   0  0  0  0  0  0  0  0  0  0  0  0
  -26.2809   -1.6480  -13.3347 C   0  0  0  0  0  0  0  0  0  0  0  0
  -26.4509   -1.4813  -11.9687 C   0  0  0  0  0  0  0  0  0  0  0  0
  -25.3397   -1.1658  -11.2114 C   0  0  0  0  0  0  0  0  0  0  0  0
  -24.0992   -0.9995  -11.7307 N   0  0  0  0  0  0  0  0  0  0  0  0
 24 25  3  0  0  0
 25 23  1  0  0  0
 23 19  1  0  0  0
 19 20  1  0  0  0
 19 22  1  0  0  0
 20 21  2  0  0  0
 20 13  1  0  0  0
 13 14  1  0  0  0
 13 18  2  0  0  0
 14 15  2  0  0  0
 15 16  1  0  0  0
 16 17  2  0  0  0
 17 18  1  0  0  0
 18 11  1  0  0  0
 11  1  1  0  0  0
 11 12  1  0  0  0
  1  2  1  0  0  0
  1  9  2  0  0  0
  2  3  2  0  0  0
  3  4  1  0  0  0
  4  5  1  0  0  0
  4  8  2  0  0  0
  5 26  1  0  0  0
  5  6  2  0  0  0
 26 27  2  0  0  0
 27 28  1  0  0  0
 28 29  1  0  0  0
 28 33  2  0  0  0
 29 30  2  0  0  0
 30 31  1  0  0  0
 31 32  2  0  0  0
 32 33  1  0  0  0
  6  7  1  0  0  0
  7  8  1  0  0  0
  7 10  1  0  0  0
  8  9  1  0  0  0
M  END
> <minimizedAffinity>
-9.22209

$$$$
