CHEMBL3985362


 34 37  0  0  0  0  0  0  0  0999 V2000
  -22.0677    0.9189  -12.9625 O   0  0  0  0  0  0  0  0  0  0  0  0
  -22.3041    0.4210  -14.0550 C   0  0  0  0  0  0  0  0  0  0  0  0
  -23.3393   -0.4805  -14.2925 N   0  0  0  0  0  0  0  0  0  0  0  0
  -21.5587    0.6944  -15.2008 N   0  0  0  0  0  0  0  0  0  0  0  0
  -23.2934   -1.0000  -15.1554 H   0  0  0  0  0  0  0  0  0  0  0  0
  -22.0219    0.5447  -16.0842 H   0  0  0  0  0  0  0  0  0  0  0  0
  -20.3873    1.5019  -15.2134 C   0  0  0  0  0  0  0  0  0  0  0  0
  -20.4246    2.8815  -15.4200 C   0  0  0  0  0  0  0  0  0  0  0  0
  -19.2480    3.6283  -15.5063 C   0  0  0  0  0  0  0  0  0  0  0  0
  -18.0021    3.0111  -15.3965 C   0  0  0  0  0  0  0  0  0  0  0  0
  -16.6265    4.0350  -15.5847 Cl  0  0  0  0  0  0  0  0  0  0  0  0
  -17.9237    1.6352  -15.1579 C   0  0  0  0  0  0  0  0  0  0  0  0
  -19.1353    0.8985  -15.0292 C   0  0  0  0  0  0  0  0  0  0  0  0
  -16.6232    0.8747  -15.0764 C   0  0  0  0  0  0  0  0  0  0  0  0
  -15.6524    1.4052  -14.2887 F   0  0  0  0  0  0  0  0  0  0  0  0
  -16.8045   -0.3990  -14.6234 F   0  0  0  0  0  0  0  0  0  0  0  0
  -16.0480    0.7395  -16.3077 F   0  0  0  0  0  0  0  0  0  0  0  0
  -24.2200   -0.9877  -13.2923 C   0  0  0  0  0  0  0  0  0  0  0  0
  -25.5851   -1.2057  -13.5052 C   0  0  0  0  0  0  0  0  0  0  0  0
  -26.4415   -1.5653  -12.4518 C   0  0  0  0  0  0  0  0  0  0  0  0
  -25.9454   -1.7396  -11.1613 C   0  0  0  0  0  0  0  0  0  0  0  0
  -24.5691   -1.6065  -10.9529 C   0  0  0  0  0  0  0  0  0  0  0  0
  -23.7110   -1.2451  -12.0128 C   0  0  0  0  0  0  0  0  0  0  0  0
  -26.8522   -1.9938  -10.0713 C   0  0  0  0  0  0  0  0  0  0  0  0
  -27.5490   -2.2482   -9.1195 C   0  0  0  0  0  0  0  0  0  0  0  0
  -28.3325   -2.6487   -7.9654 C   0  0  0  0  0  0  0  0  0  0  0  0
  -29.2668   -3.7994   -8.0439 C   0  0  0  0  0  0  0  0  0  0  0  0
  -29.9578   -4.1039   -6.9347 C   0  0  0  0  0  0  0  0  0  0  0  0
  -29.7611   -3.3330   -5.7691 C   0  0  0  0  0  0  0  0  0  0  0  0
  -30.3098   -3.4194   -4.5732 N   0  0  0  0  0  0  0  0  0  0  0  0
  -29.7343   -2.4125   -3.8403 C   0  0  0  0  0  0  0  0  0  0  0  0
  -28.8250   -1.7109   -4.6002 C   0  0  0  0  0  0  0  0  0  0  0  0
  -28.8448   -2.2937   -5.8403 N   0  0  0  0  0  0  0  0  0  0  0  0
  -28.1003   -1.9085   -6.9284 N   0  0  0  0  0  0  0  0  0  0  0  0
  1  2  2  0  0  0
  2  3  1  0  0  0
  2  4  1  0  0  0
  3 18  1  0  0  0
  3  5  1  0  0  0
 18 19  1  0  0  0
 18 23  2  0  0  0
 19 20  2  0  0  0
 20 21  1  0  0  0
 21 24  1  0  0  0
 21 22  2  0  0  0
 24 25  3  0  0  0
 25 26  1  0  0  0
 26 27  1  0  0  0
 26 34  2  0  0  0
 27 28  2  0  0  0
 28 29  1  0  0  0
 29 30  2  0  0  0
 29 33  1  0  0  0
 30 31  1  0  0  0
 31 32  2  0  0  0
 32 33  1  0  0  0
 33 34  1  0  0  0
 22 23  1  0  0  0
  4  7  1  0  0  0
  4  6  1  0  0  0
  7  8  1  0  0  0
  7 13  2  0  0  0
  8  9  2  0  0  0
  9 10  1  0  0  0
 10 11  1  0  0  0
 10 12  2  0  0  0
 12 14  1  0  0  0
 12 13  1  0  0  0
 14 15  1  0  0  0
 14 16  1  0  0  0
 14 17  1  0  0  0
M  END
> <minimizedAffinity>
-11.26994

$$$$
