CHEMBL3962502


 45 49  0  0  0  0  0  0  0  0999 V2000
  -28.1390   -2.6490   -9.5204 N   0  0  0  0  0  0  0  0  0  0  0  0
  -27.0134   -2.0712  -10.0913 C   0  0  0  0  0  0  0  0  0  0  0  0
  -26.1792   -1.4303   -9.4590 O   0  0  0  0  0  0  0  0  0  0  0  0
  -26.9271   -2.2723  -11.4645 N   0  0  0  0  0  0  0  0  0  0  0  0
  -28.4664   -3.4888   -9.9746 H   0  0  0  0  0  0  0  0  0  0  0  0
  -27.8149   -2.2468  -11.9475 H   0  0  0  0  0  0  0  0  0  0  0  0
  -25.8005   -1.7514  -12.1556 C   0  0  0  0  0  0  0  0  0  0  0  0
  -25.8578   -1.5366  -13.5394 C   0  0  0  0  0  0  0  0  0  0  0  0
  -24.7127   -1.2026  -14.2618 C   0  0  0  0  0  0  0  0  0  0  0  0
  -23.5036   -0.9962  -13.5959 C   0  0  0  0  0  0  0  0  0  0  0  0
  -23.4592   -1.1877  -12.2106 C   0  0  0  0  0  0  0  0  0  0  0  0
  -22.2947   -1.0666  -11.5559 F   0  0  0  0  0  0  0  0  0  0  0  0
  -24.6003   -1.5395  -11.4808 C   0  0  0  0  0  0  0  0  0  0  0  0
  -22.3256   -0.6747  -14.2407 O   0  0  0  0  0  0  0  0  0  0  0  0
  -21.9323    0.6476  -14.3111 C   0  0  0  0  0  0  0  0  0  0  0  0
  -22.6915    1.6990  -13.8076 C   0  0  0  0  0  0  0  0  0  0  0  0
  -22.2148    2.9778  -13.9833 C   0  0  0  0  0  0  0  0  0  0  0  0
  -21.0301    3.2550  -14.5538 N   0  0  0  0  0  0  0  0  0  0  0  0
  -20.2594    2.2391  -14.9725 C   0  0  0  0  0  0  0  0  0  0  0  0
  -20.6838    0.9152  -14.8752 C   0  0  0  0  0  0  0  0  0  0  0  0
  -18.9914    2.5102  -15.5170 N   0  0  0  0  0  0  0  0  0  0  0  0
  -17.8006    2.1061  -14.9479 C   0  0  0  0  0  0  0  0  0  0  0  0
  -17.6363    1.5053  -13.8961 O   0  0  0  0  0  0  0  0  0  0  0  0
  -18.9607    3.0243  -16.3824 H   0  0  0  0  0  0  0  0  0  0  0  0
  -16.5942    2.4967  -15.7490 C   0  0  0  0  0  0  0  0  0  0  0  0
  -15.7560    1.4332  -16.4286 C   0  0  0  0  0  0  0  0  0  0  0  0
  -15.2174    2.1513  -15.2264 C   0  0  0  0  0  0  0  0  0  0  0  0
  -29.4917   -3.2539   -6.0798 C   0  0  0  0  0  0  0  0  0  0  0  0
  -29.0610   -3.4604   -7.3963 C   0  0  0  0  0  0  0  0  0  0  0  0
  -28.4978   -2.4389   -8.1685 C   0  0  0  0  0  0  0  0  0  0  0  0
  -28.2923   -1.1912   -7.5836 C   0  0  0  0  0  0  0  0  0  0  0  0
  -28.7188   -0.9460   -6.2631 C   0  0  0  0  0  0  0  0  0  0  0  0
  -29.3229   -1.9829   -5.5241 C   0  0  0  0  0  0  0  0  0  0  0  0
  -32.0330   -5.1574   -2.6719 N   0  0  0  0  0  0  0  0  0  0  0  0
  -31.2720   -5.1861   -3.7651 C   0  0  0  0  0  0  0  0  0  0  0  0
  -30.8480   -6.1925   -4.4928 N   0  0  0  0  0  0  0  0  0  0  0  0
  -30.0827   -5.6444   -5.5107 N   0  0  0  0  0  0  0  0  0  0  0  0
  -30.1050   -4.3401   -5.3241 C   0  0  0  0  0  0  0  0  0  0  0  0
  -30.8541   -3.9817   -4.2323 O   0  0  0  0  0  0  0  0  0  0  0  0
  -32.5240   -5.9931   -2.3837 H   0  0  0  0  0  0  0  0  0  0  0  0
  -32.3959   -4.2748   -2.3360 H   0  0  0  0  0  0  0  0  0  0  0  0
  -28.5643    0.4173   -5.6304 C   0  0  0  0  0  0  0  0  0  0  0  0
  -27.5449    0.4838   -4.7294 F   0  0  0  0  0  0  0  0  0  0  0  0
  -28.3149    1.3908   -6.5482 F   0  0  0  0  0  0  0  0  0  0  0  0
  -29.6818    0.8083   -4.9597 F   0  0  0  0  0  0  0  0  0  0  0  0
 34 35  1  0  0  0
 34 40  1  0  0  0
 34 41  1  0  0  0
 35 36  2  0  0  0
 35 39  1  0  0  0
 36 37  1  0  0  0
 37 38  2  0  0  0
 38 28  1  0  0  0
 38 39  1  0  0  0
 28 29  1  0  0  0
 28 33  2  0  0  0
 29 30  2  0  0  0
 30  1  1  0  0  0
 30 31  1  0  0  0
  1  2  1  0  0  0
  1  5  1  0  0  0
  2  3  2  0  0  0
  2  4  1  0  0  0
  4  7  1  0  0  0
  4  6  1  0  0  0
  7  8  1  0  0  0
  7 13  2  0  0  0
  8  9  2  0  0  0
  9 10  1  0  0  0
 10 14  1  0  0  0
 10 11  2  0  0  0
 14 15  1  0  0  0
 15 16  1  0  0  0
 15 20  2  0  0  0
 16 17  2  0  0  0
 17 18  1  0  0  0
 18 19  2  0  0  0
 19 21  1  0  0  0
 19 20  1  0  0  0
 21 22  1  0  0  0
 21 24  1  0  0  0
 22 23  2  0  0  0
 22 25  1  0  0  0
 25 26  1  0  0  0
 25 27  1  0  0  0
 26 27  1  0  0  0
 11 12  1  0  0  0
 11 13  1  0  0  0
 31 32  2  0  0  0
 32 42  1  0  0  0
 32 33  1  0  0  0
 42 43  1  0  0  0
 42 44  1  0  0  0
 42 45  1  0  0  0
M  END
> <minimizedAffinity>
-13.40726

$$$$
