CHEMBL1945170


 32 35  0  0  0  0  0  0  0  0999 V2000
  -15.4855   -1.5288  -12.9583 C   0  0  0  0  0  0  0  0  0  0  0  0
  -15.8352   -1.3157  -11.6769 N   0  0  0  0  0  0  0  0  0  0  0  0
  -15.7831   -2.3616  -10.8431 C   0  0  0  0  0  0  0  0  0  0  0  0
  -15.3688   -3.6014  -11.2528 C   0  0  0  0  0  0  0  0  0  0  0  0
  -15.2492   -3.7878  -12.6136 C   0  0  0  0  0  0  0  0  0  0  0  0
  -15.3050   -2.7553  -13.4817 N   0  0  0  0  0  0  0  0  0  0  0  0
  -14.7762   -5.0849  -13.1287 C   0  0  0  0  0  0  0  0  0  0  0  0
  -15.6248   -5.9382  -13.8521 C   0  0  0  0  0  0  0  0  0  0  0  0
  -15.1544   -7.1678  -14.3265 C   0  0  0  0  0  0  0  0  0  0  0  0
  -13.8105   -7.5037  -14.1695 C   0  0  0  0  0  0  0  0  0  0  0  0
  -13.2258   -9.0019  -14.7830 Cl  0  0  0  0  0  0  0  0  0  0  0  0
  -12.9519   -6.6739  -13.4538 C   0  0  0  0  0  0  0  0  0  0  0  0
  -13.4706   -5.5336  -12.8372 C   0  0  0  0  0  0  0  0  0  0  0  0
  -12.6877   -4.9413  -11.8202 N   0  0  0  0  0  0  0  0  0  0  0  0
  -13.1796   -4.4634  -10.6225 C   0  0  0  0  0  0  0  0  0  0  0  0
  -12.1248   -3.7889   -9.5116 S   0  0  0  0  0  0  0  0  0  0  0  0
  -14.6900   -4.5627  -10.3317 C   0  0  0  0  0  0  0  0  0  0  0  0
  -11.6776   -5.0317  -11.8728 H   0  0  0  0  0  0  0  0  0  0  0  0
  -15.1913   -0.3563  -13.6514 N   0  0  0  0  0  0  0  0  0  0  0  0
  -14.1995   -0.3517  -13.8470 H   0  0  0  0  0  0  0  0  0  0  0  0
  -18.1759    1.6070  -14.6817 C   0  0  0  0  0  0  0  0  0  0  0  0
  -17.6640    2.3133  -15.7801 C   0  0  0  0  0  0  0  0  0  0  0  0
  -16.3287    2.1897  -16.1319 C   0  0  0  0  0  0  0  0  0  0  0  0
  -15.4810    1.3465  -15.4126 C   0  0  0  0  0  0  0  0  0  0  0  0
  -15.9580    0.5971  -14.3296 C   0  0  0  0  0  0  0  0  0  0  0  0
  -17.3116    0.7526  -13.9656 C   0  0  0  0  0  0  0  0  0  0  0  0
  -19.6226    1.7511  -14.2938 C   0  0  0  0  0  0  0  0  0  0  0  0
  -20.4828    0.6050  -14.8322 C   0  0  0  0  0  0  0  0  0  0  0  0
  -21.9643    0.7476  -14.4488 C   0  0  0  0  0  0  0  0  0  0  0  0
  -22.4896   -0.2869  -12.3029 C   0  0  0  0  0  0  0  0  0  0  0  0
  -22.5323   -0.4244  -13.7596 N   0  0  0  0  0  0  0  0  0  0  0  0
  -23.9150   -0.6451  -14.1939 C   0  0  0  0  0  0  0  0  0  0  0  0
 30 31  1  0  0  0
 31 32  1  0  0  0
 31 29  1  0  0  0
 29 28  1  0  0  0
 28 27  1  0  0  0
 27 21  1  0  0  0
 21 22  1  0  0  0
 21 26  2  0  0  0
 22 23  2  0  0  0
 23 24  1  0  0  0
 24 25  2  0  0  0
 25 19  1  0  0  0
 25 26  1  0  0  0
 19  1  1  0  0  0
 19 20  1  0  0  0
  1  2  1  0  0  0
  1  6  2  0  0  0
  2  3  2  0  0  0
  3  4  1  0  0  0
  4  5  2  0  0  0
  4 17  1  0  0  0
  5  6  1  0  0  0
  5  7  1  0  0  0
  7  8  1  0  0  0
  7 13  2  0  0  0
  8  9  2  0  0  0
  9 10  1  0  0  0
 10 11  1  0  0  0
 10 12  2  0  0  0
 12 13  1  0  0  0
 13 14  1  0  0  0
 14 15  1  0  0  0
 14 18  1  0  0  0
 15 16  2  0  0  0
 15 17  1  0  0  0
M  END
> <minimizedAffinity>
-8.49992

$$$$
