CHEMBL1739550


 30 34  0  0  0  0  0  0  0  0999 V2000
  -17.2893   -5.3891  -12.8246 C   0  0  0  0  0  0  0  0  0  0  0  0
  -15.9901   -4.6755  -12.5903 C   0  0  0  0  0  0  0  0  0  0  0  0
  -14.8361   -5.3409  -12.4160 C   0  0  0  0  0  0  0  0  0  0  0  0
  -13.6882   -4.6152  -12.1633 N   0  0  0  0  0  0  0  0  0  0  0  0
  -12.3955   -4.9824  -11.8772 C   0  0  0  0  0  0  0  0  0  0  0  0
  -11.7590   -3.8022  -11.5386 C   0  0  0  0  0  0  0  0  0  0  0  0
  -12.5930   -2.7160  -11.6998 N   0  0  0  0  0  0  0  0  0  0  0  0
  -13.7425   -3.2477  -12.0623 C   0  0  0  0  0  0  0  0  0  0  0  0
  -15.0042   -2.5664  -12.2956 C   0  0  0  0  0  0  0  0  0  0  0  0
  -16.0719   -3.2988  -12.5496 N   0  0  0  0  0  0  0  0  0  0  0  0
  -11.8289   -6.3452  -11.8974 C   0  0  0  0  0  0  0  0  0  0  0  0
  -11.5942   -7.1937  -12.9977 C   0  0  0  0  0  0  0  0  0  0  0  0
  -11.1118   -8.3820  -12.6283 N   0  0  0  0  0  0  0  0  0  0  0  0
  -11.0277   -8.2855  -11.2907 N   0  0  0  0  0  0  0  0  0  0  0  0
  -11.4140   -7.0677  -10.8054 C   0  0  0  0  0  0  0  0  0  0  0  0
  -10.7074   -9.0963  -10.7717 H   0  0  0  0  0  0  0  0  0  0  0  0
  -15.0775   -1.1832  -12.2805 N   0  0  0  0  0  0  0  0  0  0  0  0
  -14.7727   -0.7668  -11.4054 H   0  0  0  0  0  0  0  0  0  0  0  0
  -15.3153   -0.3814  -13.3490 C   0  0  0  0  0  0  0  0  0  0  0  0
  -16.4411    0.3648  -13.6308 C   0  0  0  0  0  0  0  0  0  0  0  0
  -16.3529    0.9961  -14.9057 C   0  0  0  0  0  0  0  0  0  0  0  0
  -15.2051    0.8106  -15.5638 N   0  0  0  0  0  0  0  0  0  0  0  0
  -14.2048   -0.1317  -14.6299 S   0  0  0  0  0  0  0  0  0  0  0  0
  -17.4593    1.8011  -15.5264 C   0  0  0  0  0  0  0  0  0  0  0  0
  -18.6674    1.8437  -14.6611 N   0  0  0  0  0  0  0  0  0  0  0  0
  -19.2481    3.1990  -14.6705 C   0  0  0  0  0  0  0  0  0  0  0  0
  -20.6210    3.2843  -14.0018 C   0  0  0  0  0  0  0  0  0  0  0  0
  -21.5810    2.2647  -14.5931 C   0  0  0  0  0  0  0  0  0  0  0  0
  -20.9780    0.8764  -14.4513 C   0  0  0  0  0  0  0  0  0  0  0  0
  -19.6086    0.8114  -15.1266 C   0  0  0  0  0  0  0  0  0  0  0  0
  1  2  1  0  0  0
  2  3  2  0  0  0
  2 10  1  0  0  0
  3  4  1  0  0  0
  4  5  1  0  0  0
  4  8  1  0  0  0
  5 11  1  0  0  0
  5  6  2  0  0  0
 11 12  1  0  0  0
 11 15  2  0  0  0
 12 13  2  0  0  0
 13 14  1  0  0  0
 14 15  1  0  0  0
 14 16  1  0  0  0
  6  7  1  0  0  0
  7  8  2  0  0  0
  8  9  1  0  0  0
  9 17  1  0  0  0
  9 10  2  0  0  0
 17 19  1  0  0  0
 17 18  1  0  0  0
 19 20  2  0  0  0
 19 23  1  0  0  0
 20 21  1  0  0  0
 21 24  1  0  0  0
 21 22  2  0  0  0
 24 25  1  0  0  0
 25 26  1  0  0  0
 25 30  1  0  0  0
 26 27  1  0  0  0
 27 28  1  0  0  0
 28 29  1  0  0  0
 29 30  1  0  0  0
 22 23  1  0  0  0
M  END
> <minimizedAffinity>
-7.43890

$$$$
