CHEMBL2086733


 29 33  0  0  0  0  0  0  0  0999 V2000
  -16.1076    2.6335  -16.3929 O   0  0  0  0  0  0  0  0  0  0  0  0
  -15.1775    1.8993  -16.1227 C   0  0  0  0  0  0  0  0  0  0  0  0
  -13.8991    2.0359  -16.6299 N   0  0  0  0  0  0  0  0  0  0  0  0
  -13.0577    1.0321  -16.1730 C   0  0  0  0  0  0  0  0  0  0  0  0
  -11.7278    0.8759  -16.5188 C   0  0  0  0  0  0  0  0  0  0  0  0
  -11.0504   -0.2203  -15.9871 C   0  0  0  0  0  0  0  0  0  0  0  0
  -11.7322   -1.1378  -15.1761 C   0  0  0  0  0  0  0  0  0  0  0  0
  -10.8054   -2.6277  -14.4651 Br  0  0  0  0  0  0  0  0  0  0  0  0
  -13.0857   -0.9726  -14.8718 C   0  0  0  0  0  0  0  0  0  0  0  0
  -13.7475    0.1560  -15.3301 C   0  0  0  0  0  0  0  0  0  0  0  0
  -15.1288    0.6846  -15.1941 C   0  0  0  0  0  0  0  0  0  0  0  0
  -16.1818    0.2921  -14.4334 C   0  0  0  0  0  0  0  0  0  0  0  0
  -13.6521    2.7722  -17.2740 H   0  0  0  0  0  0  0  0  0  0  0  0
  -16.0794   -0.7926  -13.4921 C   0  0  0  0  0  0  0  0  0  0  0  0
  -15.8142   -0.8550  -12.1995 N   0  0  0  0  0  0  0  0  0  0  0  0
  -15.6573   -2.1895  -11.9006 C   0  0  0  0  0  0  0  0  0  0  0  0
  -15.2314   -2.8186  -10.7214 C   0  0  0  0  0  0  0  0  0  0  0  0
  -15.0817   -4.2139  -10.7231 C   0  0  0  0  0  0  0  0  0  0  0  0
  -15.3750   -4.9681  -11.8630 C   0  0  0  0  0  0  0  0  0  0  0  0
  -15.8352   -4.3608  -13.0340 C   0  0  0  0  0  0  0  0  0  0  0  0
  -15.9478   -2.9721  -13.0098 C   0  0  0  0  0  0  0  0  0  0  0  0
  -16.3185   -2.0679  -13.9643 N   0  0  0  0  0  0  0  0  0  0  0  0
  -16.6257   -2.3005  -14.8961 H   0  0  0  0  0  0  0  0  0  0  0  0
  -17.4970    0.9645  -14.6102 C   0  0  0  0  0  0  0  0  0  0  0  0
  -18.5315    0.2973  -15.2861 C   0  0  0  0  0  0  0  0  0  0  0  0
  -19.7973    0.8754  -15.3744 C   0  0  0  0  0  0  0  0  0  0  0  0
  -20.0327    2.1219  -14.8004 C   0  0  0  0  0  0  0  0  0  0  0  0
  -19.0070    2.7929  -14.1309 C   0  0  0  0  0  0  0  0  0  0  0  0
  -17.7420    2.2128  -14.0283 C   0  0  0  0  0  0  0  0  0  0  0  0
  1  2  2  0  0  0
  2  3  1  0  0  0
  2 11  1  0  0  0
  3  4  1  0  0  0
  3 13  1  0  0  0
  4  5  1  0  0  0
  4 10  2  0  0  0
  5  6  2  0  0  0
  6  7  1  0  0  0
  7  8  1  0  0  0
  7  9  2  0  0  0
  9 10  1  0  0  0
 10 11  1  0  0  0
 11 12  2  0  0  0
 12 24  1  0  0  0
 12 14  1  0  0  0
 24 25  1  0  0  0
 24 29  2  0  0  0
 25 26  2  0  0  0
 26 27  1  0  0  0
 27 28  2  0  0  0
 28 29  1  0  0  0
 14 15  2  0  0  0
 14 22  1  0  0  0
 15 16  1  0  0  0
 16 17  1  0  0  0
 16 21  2  0  0  0
 17 18  2  0  0  0
 18 19  1  0  0  0
 19 20  2  0  0  0
 20 21  1  0  0  0
 21 22  1  0  0  0
 22 23  1  0  0  0
M  END
> <minimizedAffinity>
-7.90790

$$$$
