CHEMBL233456


 32 35  0  0  0  0  0  0  0  0999 V2000
  -29.6651   -3.6600   -5.3756 N   0  0  0  0  0  0  0  0  0  0  0  0
  -30.2952   -3.1897   -4.7475 H   0  0  0  0  0  0  0  0  0  0  0  0
  -29.2927   -7.6383   -4.3663 C   0  0  0  0  0  0  0  0  0  0  0  0
  -29.0028   -6.6039   -3.4992 C   0  0  0  0  0  0  0  0  0  0  0  0
  -29.1070   -5.2945   -3.8091 N   0  0  0  0  0  0  0  0  0  0  0  0
  -29.5153   -5.0068   -5.0494 C   0  0  0  0  0  0  0  0  0  0  0  0
  -29.8157   -5.9589   -5.9484 N   0  0  0  0  0  0  0  0  0  0  0  0
  -29.7025   -7.2663   -5.6327 C   0  0  0  0  0  0  0  0  0  0  0  0
  -30.0582   -8.1849   -6.7479 C   0  0  0  0  0  0  0  0  0  0  0  0
  -29.0990   -8.7326   -7.6160 C   0  0  0  0  0  0  0  0  0  0  0  0
  -29.4442   -9.6323   -8.6285 C   0  0  0  0  0  0  0  0  0  0  0  0
  -30.7742   -9.9751   -8.8330 C   0  0  0  0  0  0  0  0  0  0  0  0
  -31.7584   -9.4147   -8.0263 C   0  0  0  0  0  0  0  0  0  0  0  0
  -31.4051   -8.5315   -6.9978 C   0  0  0  0  0  0  0  0  0  0  0  0
  -29.0630  -10.0847   -3.5713 N   0  0  0  0  0  0  0  0  0  0  0  0
  -29.1724   -8.9803   -3.9105 C   0  0  0  0  0  0  0  0  0  0  0  0
  -29.1711   -2.9603   -6.4866 C   0  0  0  0  0  0  0  0  0  0  0  0
  -29.2044   -3.5520   -7.7537 C   0  0  0  0  0  0  0  0  0  0  0  0
  -28.5754   -2.9402   -8.8493 C   0  0  0  0  0  0  0  0  0  0  0  0
  -27.9085   -1.7190   -8.6999 C   0  0  0  0  0  0  0  0  0  0  0  0
  -27.8993   -1.1126   -7.4431 C   0  0  0  0  0  0  0  0  0  0  0  0
  -28.5263   -1.7274   -6.3592 C   0  0  0  0  0  0  0  0  0  0  0  0
  -27.1472   -1.0739   -9.8335 C   0  0  0  0  0  0  0  0  0  0  0  0
  -26.1993   -2.0382  -10.5380 C   0  0  0  0  0  0  0  0  0  0  0  0
  -26.1719   -1.8133  -12.0385 C   0  0  0  0  0  0  0  0  0  0  0  0
  -27.2055   -1.6441  -12.6842 O   0  0  0  0  0  0  0  0  0  0  0  0
  -24.9202   -1.7794  -12.6288 N   0  0  0  0  0  0  0  0  0  0  0  0
  -23.6373   -2.0277  -11.9625 C   0  0  0  0  0  0  0  0  0  0  0  0
  -22.6832   -0.8491  -12.1875 C   0  0  0  0  0  0  0  0  0  0  0  0
  -22.5392   -0.5542  -13.5859 O   0  0  0  0  0  0  0  0  0  0  0  0
  -23.8125   -0.2422  -14.1796 C   0  0  0  0  0  0  0  0  0  0  0  0
  -24.7846   -1.4190  -14.0415 C   0  0  0  0  0  0  0  0  0  0  0  0
 15 16  3  0  0  0
 16  3  1  0  0  0
  3  4  1  0  0  0
  3  8  2  0  0  0
  4  5  2  0  0  0
  5  6  1  0  0  0
  6  1  1  0  0  0
  6  7  2  0  0  0
  1 17  1  0  0  0
  1  2  1  0  0  0
 17 18  1  0  0  0
 17 22  2  0  0  0
 18 19  2  0  0  0
 19 20  1  0  0  0
 20 23  1  0  0  0
 20 21  2  0  0  0
 23 24  1  0  0  0
 24 25  1  0  0  0
 25 26  2  0  0  0
 25 27  1  0  0  0
 27 28  1  0  0  0
 27 32  1  0  0  0
 28 29  1  0  0  0
 29 30  1  0  0  0
 30 31  1  0  0  0
 31 32  1  0  0  0
 21 22  1  0  0  0
  7  8  1  0  0  0
  8  9  1  0  0  0
  9 10  1  0  0  0
  9 14  2  0  0  0
 10 11  2  0  0  0
 11 12  1  0  0  0
 12 13  2  0  0  0
 13 14  1  0  0  0
M  END
> <minimizedAffinity>
-8.52735

$$$$
