CHEMBL3939894


 29 32  0  0  0  0  0  0  0  0999 V2000
  -22.9615   -0.3109  -13.3756 C   0  0  0  0  0  0  0  0  0  0  0  0
  -21.8279   -0.6973  -14.1152 C   0  0  0  0  0  0  0  0  0  0  0  0
  -20.9639    0.2324  -14.7204 C   0  0  0  0  0  0  0  0  0  0  0  0
  -21.2428    1.6039  -14.5941 C   0  0  0  0  0  0  0  0  0  0  0  0
  -20.6390    2.8302  -15.0089 C   0  0  0  0  0  0  0  0  0  0  0  0
  -21.3645    3.8864  -14.6097 N   0  0  0  0  0  0  0  0  0  0  0  0
  -22.4000    3.3454  -13.9523 N   0  0  0  0  0  0  0  0  0  0  0  0
  -22.3803    1.9803  -13.8968 C   0  0  0  0  0  0  0  0  0  0  0  0
  -23.2511    1.0655  -13.2888 C   0  0  0  0  0  0  0  0  0  0  0  0
  -23.0936    3.9679  -13.5558 H   0  0  0  0  0  0  0  0  0  0  0  0
  -23.1811   -1.8566  -11.5008 C   0  0  0  0  0  0  0  0  0  0  0  0
  -23.7807   -1.2648  -12.7044 N   0  0  0  0  0  0  0  0  0  0  0  0
  -25.1663   -1.4738  -12.9108 C   0  0  0  0  0  0  0  0  0  0  0  0
  -25.7335   -1.6161  -14.1856 C   0  0  0  0  0  0  0  0  0  0  0  0
  -27.1096   -1.8016  -14.3502 C   0  0  0  0  0  0  0  0  0  0  0  0
  -27.9428   -1.8779  -13.2359 C   0  0  0  0  0  0  0  0  0  0  0  0
  -27.4081   -1.8105  -11.9509 C   0  0  0  0  0  0  0  0  0  0  0  0
  -28.2592   -1.7725  -10.8357 N   0  0  0  0  0  0  0  0  0  0  0  0
  -26.0394   -1.5507  -11.8063 C   0  0  0  0  0  0  0  0  0  0  0  0
  -29.1324   -2.2696  -10.9722 H   0  0  0  0  0  0  0  0  0  0  0  0
  -27.7997   -2.0252   -9.9676 H   0  0  0  0  0  0  0  0  0  0  0  0
  -19.4181    2.9347  -15.7575 C   0  0  0  0  0  0  0  0  0  0  0  0
  -18.1974    2.6959  -15.2460 C   0  0  0  0  0  0  0  0  0  0  0  0
  -16.9203    2.8219  -15.9628 C   0  0  0  0  0  0  0  0  0  0  0  0
  -16.3965    4.0558  -16.3694 C   0  0  0  0  0  0  0  0  0  0  0  0
  -15.1403    4.1304  -16.9784 C   0  0  0  0  0  0  0  0  0  0  0  0
  -14.3902    2.9738  -17.1791 C   0  0  0  0  0  0  0  0  0  0  0  0
  -14.8966    1.7410  -16.7758 C   0  0  0  0  0  0  0  0  0  0  0  0
  -16.1528    1.6667  -16.1690 C   0  0  0  0  0  0  0  0  0  0  0  0
 11 12  1  0  0  0
 12 13  1  0  0  0
 12  1  1  0  0  0
 13 14  1  0  0  0
 13 19  2  0  0  0
 14 15  2  0  0  0
 15 16  1  0  0  0
 16 17  2  0  0  0
 17 18  1  0  0  0
 17 19  1  0  0  0
 18 20  1  0  0  0
 18 21  1  0  0  0
  1  2  1  0  0  0
  1  9  2  0  0  0
  2  3  2  0  0  0
  3  4  1  0  0  0
  4  5  1  0  0  0
  4  8  2  0  0  0
  5 22  1  0  0  0
  5  6  2  0  0  0
 22 23  2  0  0  0
 23 24  1  0  0  0
 24 25  1  0  0  0
 24 29  2  0  0  0
 25 26  2  0  0  0
 26 27  1  0  0  0
 27 28  2  0  0  0
 28 29  1  0  0  0
  6  7  1  0  0  0
  7  8  1  0  0  0
  7 10  1  0  0  0
  8  9  1  0  0  0
M  END
> <minimizedAffinity>
-10.16044

$$$$
