CHEMBL379370


 30 33  0  0  0  0  0  0  0  0999 V2000
  -26.8212   -2.3852  -10.6978 N   0  0  0  0  0  0  0  0  0  0  0  0
  -26.1353   -2.7516  -10.0418 H   0  0  0  0  0  0  0  0  0  0  0  0
  -24.2545   -0.9214  -12.9216 C   0  0  0  0  0  0  0  0  0  0  0  0
  -24.8565   -1.0239  -14.1806 C   0  0  0  0  0  0  0  0  0  0  0  0
  -26.1237   -1.5819  -14.3001 C   0  0  0  0  0  0  0  0  0  0  0  0
  -26.7932   -2.0265  -13.1631 C   0  0  0  0  0  0  0  0  0  0  0  0
  -28.0139   -2.5558  -13.3377 F   0  0  0  0  0  0  0  0  0  0  0  0
  -26.2368   -1.9005  -11.8768 C   0  0  0  0  0  0  0  0  0  0  0  0
  -24.9458   -1.3523  -11.7787 C   0  0  0  0  0  0  0  0  0  0  0  0
  -22.2839   -0.3438  -11.7845 O   0  0  0  0  0  0  0  0  0  0  0  0
  -22.8911   -0.3312  -12.8496 C   0  0  0  0  0  0  0  0  0  0  0  0
  -22.4062    0.2489  -14.0070 N   0  0  0  0  0  0  0  0  0  0  0  0
  -23.0278    0.3704  -14.7985 H   0  0  0  0  0  0  0  0  0  0  0  0
  -21.1480    0.9284  -14.0347 C   0  0  0  0  0  0  0  0  0  0  0  0
  -20.8875    2.0242  -15.0326 C   0  0  0  0  0  0  0  0  0  0  0  0
  -20.1821    0.7072  -15.1673 C   0  0  0  0  0  0  0  0  0  0  0  0
  -27.8734   -1.6176  -10.0395 C   0  0  0  0  0  0  0  0  0  0  0  0
  -27.9694   -1.9198   -8.5854 C   0  0  0  0  0  0  0  0  0  0  0  0
  -27.7595   -1.0630   -7.5321 C   0  0  0  0  0  0  0  0  0  0  0  0
  -27.8952   -1.6210   -6.2881 N   0  0  0  0  0  0  0  0  0  0  0  0
  -28.1866   -2.9016   -6.3666 C   0  0  0  0  0  0  0  0  0  0  0  0
  -28.3897   -3.4701   -7.9885 S   0  0  0  0  0  0  0  0  0  0  0  0
  -28.3044   -3.7550   -5.3252 N   0  0  0  0  0  0  0  0  0  0  0  0
  -27.6550   -3.6763   -4.5528 H   0  0  0  0  0  0  0  0  0  0  0  0
  -29.5053   -4.2978   -4.8578 C   0  0  0  0  0  0  0  0  0  0  0  0
  -30.3804   -3.6148   -4.0144 C   0  0  0  0  0  0  0  0  0  0  0  0
  -31.4979   -4.2611   -3.4971 C   0  0  0  0  0  0  0  0  0  0  0  0
  -31.7467   -5.5709   -3.8661 C   0  0  0  0  0  0  0  0  0  0  0  0
  -30.8698   -6.1673   -4.7552 C   0  0  0  0  0  0  0  0  0  0  0  0
  -29.7654   -5.5632   -5.2552 N   0  0  0  0  0  0  0  0  0  0  0  0
 10 11  2  0  0  0
 11 12  1  0  0  0
 11  3  1  0  0  0
 12 14  1  0  0  0
 12 13  1  0  0  0
 14 15  1  0  0  0
 14 16  1  0  0  0
 15 16  1  0  0  0
  3  4  1  0  0  0
  3  9  2  0  0  0
  4  5  2  0  0  0
  5  6  1  0  0  0
  6  7  1  0  0  0
  6  8  2  0  0  0
  8  1  1  0  0  0
  8  9  1  0  0  0
  1 17  1  0  0  0
  1  2  1  0  0  0
 17 18  1  0  0  0
 18 19  2  0  0  0
 18 22  1  0  0  0
 19 20  1  0  0  0
 20 21  2  0  0  0
 21 23  1  0  0  0
 21 22  1  0  0  0
 23 25  1  0  0  0
 23 24  1  0  0  0
 25 26  1  0  0  0
 25 30  2  0  0  0
 26 27  2  0  0  0
 27 28  1  0  0  0
 28 29  2  0  0  0
 29 30  1  0  0  0
M  END
> <minimizedAffinity>
-9.67113

$$$$
