CHEMBL4287439


 44 48  0  0  0  0  0  0  0  0999 V2000
  -29.7280   -4.9411   -4.8070 C   0  0  0  0  0  0  0  0  0  0  0  0
  -28.3760   -5.2710   -4.9282 C   0  0  0  0  0  0  0  0  0  0  0  0
  -27.9655   -6.5857   -4.7578 C   0  0  0  0  0  0  0  0  0  0  0  0
  -28.8829   -7.5688   -4.3891 C   0  0  0  0  0  0  0  0  0  0  0  0
  -30.2381   -7.2407   -4.2688 C   0  0  0  0  0  0  0  0  0  0  0  0
  -30.6507   -5.9220   -4.4622 C   0  0  0  0  0  0  0  0  0  0  0  0
  -31.9420   -5.6091   -4.2850 F   0  0  0  0  0  0  0  0  0  0  0  0
  -28.4821   -8.8828   -4.1042 N   0  0  0  0  0  0  0  0  0  0  0  0
  -28.3823   -9.9042   -5.0302 C   0  0  0  0  0  0  0  0  0  0  0  0
  -28.6088   -9.8561   -6.2297 O   0  0  0  0  0  0  0  0  0  0  0  0
  -28.1663   -9.0787   -3.1618 H   0  0  0  0  0  0  0  0  0  0  0  0
  -27.9353  -11.2050   -4.4505 C   0  0  0  0  0  0  0  0  0  0  0  0
  -28.9336  -12.3600   -4.3478 C   0  0  0  0  0  0  0  0  0  0  0  0
  -28.5395  -11.6107   -3.1150 C   0  0  0  0  0  0  0  0  0  0  0  0
  -26.5536  -11.5660   -4.8663 C   0  0  0  0  0  0  0  0  0  0  0  0
  -26.4366  -12.3903   -5.7622 O   0  0  0  0  0  0  0  0  0  0  0  0
  -25.5157  -10.9117   -4.2257 N   0  0  0  0  0  0  0  0  0  0  0  0
  -25.6721  -10.5650   -3.2887 H   0  0  0  0  0  0  0  0  0  0  0  0
  -24.1986  -10.9969   -4.7144 C   0  0  0  0  0  0  0  0  0  0  0  0
  -23.7933  -10.2109   -5.8036 C   0  0  0  0  0  0  0  0  0  0  0  0
  -22.5414  -10.3957   -6.3834 C   0  0  0  0  0  0  0  0  0  0  0  0
  -21.6995  -11.3699   -5.8692 C   0  0  0  0  0  0  0  0  0  0  0  0
  -20.5271  -11.6084   -6.4707 F   0  0  0  0  0  0  0  0  0  0  0  0
  -22.0602  -12.1096   -4.7454 C   0  0  0  0  0  0  0  0  0  0  0  0
  -23.3035  -11.8998   -4.1394 C   0  0  0  0  0  0  0  0  0  0  0  0
  -30.1656   -3.6161   -4.9664 O   0  0  0  0  0  0  0  0  0  0  0  0
  -29.8127   -4.1063   -7.9694 C   0  0  0  0  0  0  0  0  0  0  0  0
  -28.9380   -2.9466   -7.6381 C   0  0  0  0  0  0  0  0  0  0  0  0
  -28.1696   -2.1371   -8.5367 C   0  0  0  0  0  0  0  0  0  0  0  0
  -27.5261   -1.1803   -7.7800 C   0  0  0  0  0  0  0  0  0  0  0  0
  -27.8322   -1.3892   -6.4746 N   0  0  0  0  0  0  0  0  0  0  0  0
  -27.3517   -0.6636   -5.4529 N   0  0  0  0  0  0  0  0  0  0  0  0
  -27.7787   -1.0373   -4.2882 C   0  0  0  0  0  0  0  0  0  0  0  0
  -28.6621   -2.0488   -4.0313 N   0  0  0  0  0  0  0  0  0  0  0  0
  -29.1376   -2.6937   -5.0457 C   0  0  0  0  0  0  0  0  0  0  0  0
  -28.7004   -2.4280   -6.3684 C   0  0  0  0  0  0  0  0  0  0  0  0
  -28.0832   -2.2664   -9.8922 O   0  0  0  0  0  0  0  0  0  0  0  0
  -26.8156   -1.8292  -10.3978 C   0  0  0  0  0  0  0  0  0  0  0  0
  -26.9311   -1.0066  -11.6729 C   0  0  0  0  0  0  0  0  0  0  0  0
  -25.9563   -1.5711  -12.7051 C   0  0  0  0  0  0  0  0  0  0  0  0
  -24.3721   -0.7726  -12.6600 S   0  0  0  0  0  0  0  0  0  0  0  0
  -23.3698   -1.9430  -11.7638 C   0  0  0  0  0  0  0  0  0  0  0  0
  -23.8572   -0.7097  -14.0148 O   0  0  0  0  0  0  0  0  0  0  0  0
  -24.4891    0.4156  -11.8415 O   0  0  0  0  0  0  0  0  0  0  0  0
 27 28  1  0  0  0
 28 29  1  0  0  0
 28 36  2  0  0  0
 29 37  1  0  0  0
 29 30  2  0  0  0
 37 38  1  0  0  0
 38 39  1  0  0  0
 39 40  1  0  0  0
 40 41  1  0  0  0
 41 42  1  0  0  0
 41 43  2  0  0  0
 41 44  2  0  0  0
 30 31  1  0  0  0
 31 32  1  0  0  0
 31 36  1  0  0  0
 32 33  2  0  0  0
 33 34  1  0  0  0
 34 35  2  0  0  0
 35 26  1  0  0  0
 35 36  1  0  0  0
 26  1  1  0  0  0
  1  2  1  0  0  0
  1  6  2  0  0  0
  2  3  2  0  0  0
  3  4  1  0  0  0
  4  8  1  0  0  0
  4  5  2  0  0  0
  8  9  1  0  0  0
  8 11  1  0  0  0
  9 10  2  0  0  0
  9 12  1  0  0  0
 12 15  1  0  0  0
 12 13  1  0  0  0
 12 14  1  0  0  0
 15 16  2  0  0  0
 15 17  1  0  0  0
 17 19  1  0  0  0
 17 18  1  0  0  0
 19 20  1  0  0  0
 19 25  2  0  0  0
 20 21  2  0  0  0
 21 22  1  0  0  0
 22 23  1  0  0  0
 22 24  2  0  0  0
 24 25  1  0  0  0
 13 14  1  0  0  0
  5  6  1  0  0  0
  6  7  1  0  0  0
M  END
> <minimizedAffinity>
-9.06456

$$$$
