CHEMBL4789638


 43 47  0  0  0  0  0  0  0  0999 V2000
  -28.9046   -8.9528   -4.0607 C   0  0  0  0  0  0  0  0  0  0  0  0
  -27.8494   -9.4134   -3.3814 N   0  0  0  0  0  0  0  0  0  0  0  0
  -27.4307  -10.6563   -3.6722 C   0  0  0  0  0  0  0  0  0  0  0  0
  -28.0476  -11.4586   -4.6172 C   0  0  0  0  0  0  0  0  0  0  0  0
  -29.0954  -10.8905   -5.2780 C   0  0  0  0  0  0  0  0  0  0  0  0
  -29.4855   -9.6402   -5.0509 N   0  0  0  0  0  0  0  0  0  0  0  0
  -29.8517   -5.4588   -3.6797 N   0  0  0  0  0  0  0  0  0  0  0  0
  -29.0672   -6.5481   -4.0465 C   0  0  0  0  0  0  0  0  0  0  0  0
  -28.0515   -6.4078   -4.7464 O   0  0  0  0  0  0  0  0  0  0  0  0
  -29.5020   -7.7558   -3.6043 N   0  0  0  0  0  0  0  0  0  0  0  0
  -30.5274   -5.6013   -2.9244 H   0  0  0  0  0  0  0  0  0  0  0  0
  -30.3906   -7.9007   -3.1530 H   0  0  0  0  0  0  0  0  0  0  0  0
  -29.3939   -1.4792   -5.1207 C   0  0  0  0  0  0  0  0  0  0  0  0
  -30.0927   -2.4190   -5.8543 C   0  0  0  0  0  0  0  0  0  0  0  0
  -30.2359   -3.7161   -5.3918 C   0  0  0  0  0  0  0  0  0  0  0  0
  -29.6818   -4.1548   -4.1741 C   0  0  0  0  0  0  0  0  0  0  0  0
  -28.9707   -3.1890   -3.4309 C   0  0  0  0  0  0  0  0  0  0  0  0
  -28.8305   -1.8829   -3.9135 C   0  0  0  0  0  0  0  0  0  0  0  0
  -28.0613    0.4790   -4.9588 C   0  0  0  0  0  0  0  0  0  0  0  0
  -29.2058   -0.1822   -5.5067 O   0  0  0  0  0  0  0  0  0  0  0  0
  -26.3689  -11.2562   -2.9500 N   0  0  0  0  0  0  0  0  0  0  0  0
  -26.5061  -11.0806   -1.9597 H   0  0  0  0  0  0  0  0  0  0  0  0
  -25.0092  -11.2777   -3.3228 C   0  0  0  0  0  0  0  0  0  0  0  0
  -24.6235  -10.6766   -4.5324 C   0  0  0  0  0  0  0  0  0  0  0  0
  -23.2847  -10.6481   -4.9131 C   0  0  0  0  0  0  0  0  0  0  0  0
  -22.3129  -11.1838   -4.0627 C   0  0  0  0  0  0  0  0  0  0  0  0
  -22.6773  -11.7415   -2.8387 C   0  0  0  0  0  0  0  0  0  0  0  0
  -24.0231  -11.8015   -2.4868 C   0  0  0  0  0  0  0  0  0  0  0  0
  -22.8007  -10.1247   -6.0823 O   0  0  0  0  0  0  0  0  0  0  0  0
  -21.6643  -10.7655   -6.6503 C   0  0  0  0  0  0  0  0  0  0  0  0
  -21.8094  -12.2765   -1.9230 O   0  0  0  0  0  0  0  0  0  0  0  0
  -22.3394  -12.4659   -0.6155 C   0  0  0  0  0  0  0  0  0  0  0  0
  -30.1617  -11.9020   -6.3071 S   0  0  0  0  0  0  0  0  0  0  0  0
  -30.1229  -10.8682   -7.7223 C   0  0  0  0  0  0  0  0  0  0  0  0
  -31.2223  -10.4781   -8.4540 C   0  0  0  0  0  0  0  0  0  0  0  0
  -30.7294   -9.7126   -9.4523 N   0  0  0  0  0  0  0  0  0  0  0  0
  -29.4586  -10.1458   -9.7418 C   0  0  0  0  0  0  0  0  0  0  0  0
  -28.7232  -10.2066  -10.9262 C   0  0  0  0  0  0  0  0  0  0  0  0
  -27.4117  -10.6747  -10.8211 C   0  0  0  0  0  0  0  0  0  0  0  0
  -26.8303  -10.9125   -9.5730 C   0  0  0  0  0  0  0  0  0  0  0  0
  -27.5877  -10.8500   -8.3977 C   0  0  0  0  0  0  0  0  0  0  0  0
  -28.9662  -10.5945   -8.5132 C   0  0  0  0  0  0  0  0  0  0  0  0
  -31.0359   -8.7545   -9.6415 H   0  0  0  0  0  0  0  0  0  0  0  0
 19 20  1  0  0  0
 20 13  1  0  0  0
 13 14  1  0  0  0
 13 18  2  0  0  0
 14 15  2  0  0  0
 15 16  1  0  0  0
 16  7  1  0  0  0
 16 17  2  0  0  0
  7  8  1  0  0  0
  7 11  1  0  0  0
  8  9  2  0  0  0
  8 10  1  0  0  0
 10  1  1  0  0  0
 10 12  1  0  0  0
  1  2  1  0  0  0
  1  6  2  0  0  0
  2  3  2  0  0  0
  3 21  1  0  0  0
  3  4  1  0  0  0
 21 23  1  0  0  0
 21 22  1  0  0  0
 23 24  1  0  0  0
 23 28  2  0  0  0
 24 25  2  0  0  0
 25 29  1  0  0  0
 25 26  1  0  0  0
 29 30  1  0  0  0
 26 27  2  0  0  0
 27 31  1  0  0  0
 27 28  1  0  0  0
 31 32  1  0  0  0
  4  5  2  0  0  0
  5 33  1  0  0  0
  5  6  1  0  0  0
 33 34  1  0  0  0
 34 35  2  0  0  0
 34 42  1  0  0  0
 35 36  1  0  0  0
 36 37  1  0  0  0
 36 43  1  0  0  0
 37 38  1  0  0  0
 37 42  2  0  0  0
 38 39  2  0  0  0
 39 40  1  0  0  0
 40 41  2  0  0  0
 41 42  1  0  0  0
 17 18  1  0  0  0
M  END
> <minimizedAffinity>
-9.02374

$$$$
