CHEMBL365336


 32 34  0  0  0  0  0  0  0  0999 V2000
  -28.9540   -1.9086   -5.7524 C   0  0  0  0  0  0  0  0  0  0  0  0
  -29.2440   -1.7303   -4.4192 C   0  0  0  0  0  0  0  0  0  0  0  0
  -30.0193   -2.7536   -3.9896 N   0  0  0  0  0  0  0  0  0  0  0  0
  -30.5074   -2.8102   -2.7446 N   0  0  0  0  0  0  0  0  0  0  0  0
  -31.1833   -3.8782   -2.4955 C   0  0  0  0  0  0  0  0  0  0  0  0
  -31.4068   -4.9133   -3.3643 N   0  0  0  0  0  0  0  0  0  0  0  0
  -30.9381   -4.8754   -4.5785 C   0  0  0  0  0  0  0  0  0  0  0  0
  -30.1993   -3.6842   -4.9866 C   0  0  0  0  0  0  0  0  0  0  0  0
  -29.5516   -3.1913   -6.1419 C   0  0  0  0  0  0  0  0  0  0  0  0
  -29.3383   -3.7475   -7.5541 C   0  0  0  0  0  0  0  0  0  0  0  0
  -28.2363   -4.8086   -7.5984 C   0  0  0  0  0  0  0  0  0  0  0  0
  -30.5469   -4.2895   -8.2972 C   0  0  0  0  0  0  0  0  0  0  0  0
  -28.1374   -0.9657   -6.5224 C   0  0  0  0  0  0  0  0  0  0  0  0
  -27.4162   -1.2876   -7.4577 O   0  0  0  0  0  0  0  0  0  0  0  0
  -28.1759    0.3005   -6.0000 O   0  0  0  0  0  0  0  0  0  0  0  0
  -30.3166    1.3628   -5.9643 C   0  0  0  0  0  0  0  0  0  0  0  0
  -29.0047    1.2229   -6.7160 C   0  0  0  0  0  0  0  0  0  0  0  0
  -31.1899   -5.9561   -5.4124 N   0  0  0  0  0  0  0  0  0  0  0  0
  -32.0530   -6.4213   -5.1670 H   0  0  0  0  0  0  0  0  0  0  0  0
  -30.2179   -6.9260   -5.7741 C   0  0  0  0  0  0  0  0  0  0  0  0
  -29.1694   -7.2221   -4.9025 C   0  0  0  0  0  0  0  0  0  0  0  0
  -28.2591   -8.2330   -5.2191 C   0  0  0  0  0  0  0  0  0  0  0  0
  -28.3681   -8.9779   -6.4147 C   0  0  0  0  0  0  0  0  0  0  0  0
  -27.2602   -9.9613   -6.6661 C   0  0  0  0  0  0  0  0  0  0  0  0
  -29.4697   -8.7365   -7.2709 C   0  0  0  0  0  0  0  0  0  0  0  0
  -30.3734   -7.7173   -6.9144 C   0  0  0  0  0  0  0  0  0  0  0  0
  -29.8291   -9.4968   -8.5280 C   0  0  0  0  0  0  0  0  0  0  0  0
  -30.7874  -10.2789   -8.5086 O   0  0  0  0  0  0  0  0  0  0  0  0
  -29.0881   -9.2370   -9.6434 N   0  0  0  0  0  0  0  0  0  0  0  0
  -28.4635   -8.4542   -9.7385 H   0  0  0  0  0  0  0  0  0  0  0  0
  -29.4313   -9.8861  -10.8490 O   0  0  0  0  0  0  0  0  0  0  0  0
  -28.4717  -10.9210  -11.0564 C   0  0  0  0  0  0  0  0  0  0  0  0
 16 17  1  0  0  0
 17 15  1  0  0  0
 15 13  1  0  0  0
 13 14  2  0  0  0
 13  1  1  0  0  0
  1  2  2  0  0  0
  1  9  1  0  0  0
  2  3  1  0  0  0
  3  4  1  0  0  0
  3  8  1  0  0  0
  4  5  2  0  0  0
  5  6  1  0  0  0
  6  7  2  0  0  0
  7 18  1  0  0  0
  7  8  1  0  0  0
 18 20  1  0  0  0
 18 19  1  0  0  0
 20 21  1  0  0  0
 20 26  2  0  0  0
 21 22  2  0  0  0
 22 23  1  0  0  0
 23 24  1  0  0  0
 23 25  2  0  0  0
 25 27  1  0  0  0
 25 26  1  0  0  0
 27 28  2  0  0  0
 27 29  1  0  0  0
 29 31  1  0  0  0
 29 30  1  0  0  0
 31 32  1  0  0  0
  8  9  2  0  0  0
  9 10  1  0  0  0
 10 11  1  0  0  0
 10 12  1  0  0  0
M  END
> <minimizedAffinity>
-7.36893

$$$$
