CHEMBL270277


 37 41  0  0  0  0  0  0  0  0999 V2000
  -14.9400   -5.2294  -12.8020 C   0  0  0  0  0  0  0  0  0  0  0  0
  -16.0914   -4.4507  -12.7029 C   0  0  0  0  0  0  0  0  0  0  0  0
  -16.0441   -3.0643  -12.8904 C   0  0  0  0  0  0  0  0  0  0  0  0
  -14.8282   -2.3817  -13.1417 C   0  0  0  0  0  0  0  0  0  0  0  0
  -14.6919   -0.9829  -13.3940 C   0  0  0  0  0  0  0  0  0  0  0  0
  -13.4325   -0.4387  -13.7095 C   0  0  0  0  0  0  0  0  0  0  0  0
  -12.3005   -1.2412  -13.7598 C   0  0  0  0  0  0  0  0  0  0  0  0
  -12.4133   -2.6006  -13.4954 C   0  0  0  0  0  0  0  0  0  0  0  0
  -13.6546   -3.1829  -13.1974 C   0  0  0  0  0  0  0  0  0  0  0  0
  -13.7249   -4.5763  -13.0091 C   0  0  0  0  0  0  0  0  0  0  0  0
  -15.8172    0.0030  -13.4492 C   0  0  0  0  0  0  0  0  0  0  0  0
  -16.1235    0.5693  -12.4052 O   0  0  0  0  0  0  0  0  0  0  0  0
  -16.4525    0.1620  -14.6693 N   0  0  0  0  0  0  0  0  0  0  0  0
  -16.1262   -0.4078  -15.4393 H   0  0  0  0  0  0  0  0  0  0  0  0
  -17.5545    1.0042  -14.9484 C   0  0  0  0  0  0  0  0  0  0  0  0
  -17.4510    2.3784  -15.1860 C   0  0  0  0  0  0  0  0  0  0  0  0
  -18.5982    3.1602  -15.3748 C   0  0  0  0  0  0  0  0  0  0  0  0
  -19.8549    2.5658  -15.3505 C   0  0  0  0  0  0  0  0  0  0  0  0
  -21.2661    3.5299  -15.5405 Cl  0  0  0  0  0  0  0  0  0  0  0  0
  -19.9735    1.1922  -15.1592 C   0  0  0  0  0  0  0  0  0  0  0  0
  -18.8266    0.4157  -14.9553 C   0  0  0  0  0  0  0  0  0  0  0  0
  -15.0563   -6.6244  -12.6853 N   0  0  0  0  0  0  0  0  0  0  0  0
  -16.0101   -6.9264  -12.5232 H   0  0  0  0  0  0  0  0  0  0  0  0
  -13.0927   -8.7014  -16.9829 C   0  0  0  0  0  0  0  0  0  0  0  0
  -12.5851   -9.3797  -15.8609 C   0  0  0  0  0  0  0  0  0  0  0  0
  -12.9233   -9.0409  -14.5583 C   0  0  0  0  0  0  0  0  0  0  0  0
  -12.4525   -9.8153  -13.5687 N   0  0  0  0  0  0  0  0  0  0  0  0
  -12.8276   -9.5300  -12.3073 C   0  0  0  0  0  0  0  0  0  0  0  0
  -13.6573   -8.4809  -11.9736 C   0  0  0  0  0  0  0  0  0  0  0  0
  -14.1585   -7.6702  -12.9931 C   0  0  0  0  0  0  0  0  0  0  0  0
  -13.7646   -7.9354  -14.3352 C   0  0  0  0  0  0  0  0  0  0  0  0
  -14.1708   -7.1777  -15.4589 C   0  0  0  0  0  0  0  0  0  0  0  0
  -13.8715   -7.5611  -16.7748 C   0  0  0  0  0  0  0  0  0  0  0  0
  -13.6027  -10.2380  -18.7219 C   0  0  0  0  0  0  0  0  0  0  0  0
  -12.8311   -9.1273  -18.2567 O   0  0  0  0  0  0  0  0  0  0  0  0
  -14.4316   -6.7147  -17.6910 O   0  0  0  0  0  0  0  0  0  0  0  0
  -13.7505   -5.5223  -18.0460 C   0  0  0  0  0  0  0  0  0  0  0  0
 34 35  1  0  0  0
 35 24  1  0  0  0
 24 25  1  0  0  0
 24 33  2  0  0  0
 25 26  2  0  0  0
 26 27  1  0  0  0
 26 31  1  0  0  0
 27 28  2  0  0  0
 28 29  1  0  0  0
 29 30  2  0  0  0
 30 22  1  0  0  0
 30 31  1  0  0  0
 22  1  1  0  0  0
 22 23  1  0  0  0
  1  2  1  0  0  0
  1 10  2  0  0  0
  2  3  2  0  0  0
  3  4  1  0  0  0
  4  5  1  0  0  0
  4  9  2  0  0  0
  5 11  1  0  0  0
  5  6  2  0  0  0
 11 12  2  0  0  0
 11 13  1  0  0  0
 13 15  1  0  0  0
 13 14  1  0  0  0
 15 16  1  0  0  0
 15 21  2  0  0  0
 16 17  2  0  0  0
 17 18  1  0  0  0
 18 19  1  0  0  0
 18 20  2  0  0  0
 20 21  1  0  0  0
  6  7  1  0  0  0
  7  8  2  0  0  0
  8  9  1  0  0  0
  9 10  1  0  0  0
 31 32  2  0  0  0
 32 33  1  0  0  0
 33 36  1  0  0  0
 36 37  1  0  0  0
M  END
> <minimizedAffinity>
-9.07337

$$$$
