CHEMBL1241587


 24 27  0  0  0  0  0  0  0  0999 V2000
  -29.1383   -9.6567   -9.1959 N   0  0  0  0  0  0  0  0  0  0  0  0
  -28.7166   -8.4325   -8.8240 N   0  0  0  0  0  0  0  0  0  0  0  0
  -29.6533   -7.9938   -7.9604 C   0  0  0  0  0  0  0  0  0  0  0  0
  -30.7243   -8.9399   -7.8437 C   0  0  0  0  0  0  0  0  0  0  0  0
  -31.9665   -9.0714   -7.2010 C   0  0  0  0  0  0  0  0  0  0  0  0
  -32.5905   -8.0890   -6.4445 N   0  0  0  0  0  0  0  0  0  0  0  0
  -32.6498  -10.2281   -7.3330 N   0  0  0  0  0  0  0  0  0  0  0  0
  -32.1268  -11.2046   -8.0957 C   0  0  0  0  0  0  0  0  0  0  0  0
  -30.9830  -11.1783   -8.7936 N   0  0  0  0  0  0  0  0  0  0  0  0
  -30.3276  -10.0168   -8.6238 C   0  0  0  0  0  0  0  0  0  0  0  0
  -32.4243   -7.1419   -6.7621 H   0  0  0  0  0  0  0  0  0  0  0  0
  -33.5635   -8.3305   -6.2909 H   0  0  0  0  0  0  0  0  0  0  0  0
  -29.4664   -6.7016   -7.2839 C   0  0  0  0  0  0  0  0  0  0  0  0
  -30.1371   -5.5422   -7.7276 C   0  0  0  0  0  0  0  0  0  0  0  0
  -29.9744   -4.3134   -7.0806 C   0  0  0  0  0  0  0  0  0  0  0  0
  -29.1851   -4.2760   -5.9529 C   0  0  0  0  0  0  0  0  0  0  0  0
  -28.5508   -5.4049   -5.4724 C   0  0  0  0  0  0  0  0  0  0  0  0
  -28.6647   -6.6212   -6.1300 C   0  0  0  0  0  0  0  0  0  0  0  0
  -27.8656   -5.0891   -4.2026 C   0  0  0  0  0  0  0  0  0  0  0  0
  -28.1344   -3.5838   -4.1133 C   0  0  0  0  0  0  0  0  0  0  0  0
  -28.9965   -3.1570   -5.1926 O   0  0  0  0  0  0  0  0  0  0  0  0
  -28.8836  -10.3035  -11.5659 C   0  0  0  0  0  0  0  0  0  0  0  0
  -28.3586  -10.4519  -10.1385 C   0  0  0  0  0  0  0  0  0  0  0  0
  -26.8690  -10.1189  -10.0588 C   0  0  0  0  0  0  0  0  0  0  0  0
 22 23  1  0  0  0
 23 24  1  0  0  0
 23  1  1  0  0  0
  1  2  1  0  0  0
  1 10  1  0  0  0
  2  3  2  0  0  0
  3 13  1  0  0  0
  3  4  1  0  0  0
 13 14  1  0  0  0
 13 18  2  0  0  0
 14 15  2  0  0  0
 15 16  1  0  0  0
 16 17  2  0  0  0
 16 21  1  0  0  0
 17 18  1  0  0  0
 17 19  1  0  0  0
 19 20  1  0  0  0
 20 21  1  0  0  0
  4  5  1  0  0  0
  4 10  2  0  0  0
  5  6  1  0  0  0
  5  7  2  0  0  0
  6 11  1  0  0  0
  6 12  1  0  0  0
  7  8  1  0  0  0
  8  9  2  0  0  0
  9 10  1  0  0  0
M  END
> <minimizedAffinity>
-7.87688

$$$$
