CHEMBL231255


 30 33  0  0  0  0  0  0  0  0999 V2000
  -29.4923   -8.2235   -6.4728 C   0  0  0  0  0  0  0  0  0  0  0  0
  -28.4201   -7.6767   -5.7573 C   0  0  0  0  0  0  0  0  0  0  0  0
  -28.5535   -6.4692   -5.0720 C   0  0  0  0  0  0  0  0  0  0  0  0
  -29.7422   -5.7394   -5.1292 C   0  0  0  0  0  0  0  0  0  0  0  0
  -30.8338   -6.2966   -5.7953 C   0  0  0  0  0  0  0  0  0  0  0  0
  -30.7138   -7.5399   -6.4430 C   0  0  0  0  0  0  0  0  0  0  0  0
  -27.4250   -7.6181   -9.0619 N   0  0  0  0  0  0  0  0  0  0  0  0
  -27.6910   -8.9701   -9.2469 C   0  0  0  0  0  0  0  0  0  0  0  0
  -27.0638   -9.5085  -10.3167 N   0  0  0  0  0  0  0  0  0  0  0  0
  -27.1793  -10.8190  -10.5810 C   0  0  0  0  0  0  0  0  0  0  0  0
  -27.9178  -11.6930   -9.8211 C   0  0  0  0  0  0  0  0  0  0  0  0
  -28.5869  -11.1389   -8.7238 C   0  0  0  0  0  0  0  0  0  0  0  0
  -29.5675  -12.0188   -7.6221 S   0  0  0  0  0  0  0  0  0  0  0  0
  -29.9230  -10.6263   -6.7265 C   0  0  0  0  0  0  0  0  0  0  0  0
  -29.3051   -9.4841   -7.2076 C   0  0  0  0  0  0  0  0  0  0  0  0
  -28.5078   -9.7739   -8.4033 C   0  0  0  0  0  0  0  0  0  0  0  0
  -26.6516   -7.3629   -9.6680 H   0  0  0  0  0  0  0  0  0  0  0  0
  -27.2974   -7.3742   -8.0881 H   0  0  0  0  0  0  0  0  0  0  0  0
  -29.8688   -4.4646   -4.5266 N   0  0  0  0  0  0  0  0  0  0  0  0
  -29.7347   -3.2789   -5.2285 C   0  0  0  0  0  0  0  0  0  0  0  0
  -29.6683   -3.2074   -6.4517 O   0  0  0  0  0  0  0  0  0  0  0  0
  -29.6342   -2.1779   -4.3847 N   0  0  0  0  0  0  0  0  0  0  0  0
  -30.3764   -4.4060   -3.6556 H   0  0  0  0  0  0  0  0  0  0  0  0
  -29.1630   -2.3810   -3.5143 H   0  0  0  0  0  0  0  0  0  0  0  0
  -29.3609   -0.9128   -4.9619 C   0  0  0  0  0  0  0  0  0  0  0  0
  -30.3947   -0.0197   -5.2578 C   0  0  0  0  0  0  0  0  0  0  0  0
  -30.1420    1.1221   -6.0187 C   0  0  0  0  0  0  0  0  0  0  0  0
  -28.8507    1.3821   -6.4658 C   0  0  0  0  0  0  0  0  0  0  0  0
  -27.8071    0.5262   -6.1167 C   0  0  0  0  0  0  0  0  0  0  0  0
  -28.0515   -0.6083   -5.3372 C   0  0  0  0  0  0  0  0  0  0  0  0
  7  8  1  0  0  0
  7 17  1  0  0  0
  7 18  1  0  0  0
  8  9  1  0  0  0
  8 16  2  0  0  0
  9 10  2  0  0  0
 10 11  1  0  0  0
 11 12  2  0  0  0
 12 13  1  0  0  0
 12 16  1  0  0  0
 13 14  1  0  0  0
 14 15  2  0  0  0
 15  1  1  0  0  0
 15 16  1  0  0  0
  1  2  1  0  0  0
  1  6  2  0  0  0
  2  3  2  0  0  0
  3  4  1  0  0  0
  4 19  1  0  0  0
  4  5  2  0  0  0
 19 20  1  0  0  0
 19 23  1  0  0  0
 20 21  2  0  0  0
 20 22  1  0  0  0
 22 25  1  0  0  0
 22 24  1  0  0  0
 25 26  1  0  0  0
 25 30  2  0  0  0
 26 27  2  0  0  0
 27 28  1  0  0  0
 28 29  2  0  0  0
 29 30  1  0  0  0
  5  6  1  0  0  0
M  END
> <minimizedAffinity>
-8.68621

$$$$
