CHEMBL409349


 32 35  0  0  0  0  0  0  0  0999 V2000
  -25.0067   -1.5293  -12.6366 C   0  0  0  0  0  0  0  0  0  0  0  0
  -23.7986   -1.4981  -11.9393 C   0  0  0  0  0  0  0  0  0  0  0  0
  -22.6616   -0.9131  -12.5086 C   0  0  0  0  0  0  0  0  0  0  0  0
  -22.6929   -0.3598  -13.7986 C   0  0  0  0  0  0  0  0  0  0  0  0
  -23.8918   -0.5103  -14.5215 C   0  0  0  0  0  0  0  0  0  0  0  0
  -25.0404   -1.0767  -13.9510 C   0  0  0  0  0  0  0  0  0  0  0  0
  -21.5116    0.3205  -14.3742 C   0  0  0  0  0  0  0  0  0  0  0  0
  -20.4006   -0.4166  -14.8640 C   0  0  0  0  0  0  0  0  0  0  0  0
  -19.3030    0.1919  -15.4816 C   0  0  0  0  0  0  0  0  0  0  0  0
  -19.2672    1.5694  -15.6711 C   0  0  0  0  0  0  0  0  0  0  0  0
  -20.3394    2.2881  -15.1522 C   0  0  0  0  0  0  0  0  0  0  0  0
  -20.4686    3.6372  -15.2196 O   0  0  0  0  0  0  0  0  0  0  0  0
  -21.6040    4.0261  -14.5422 N   0  0  0  0  0  0  0  0  0  0  0  0
  -22.1431    2.9037  -14.0618 C   0  0  0  0  0  0  0  0  0  0  0  0
  -23.2124    2.9095  -13.2402 N   0  0  0  0  0  0  0  0  0  0  0  0
  -21.4255    1.7387  -14.4827 C   0  0  0  0  0  0  0  0  0  0  0  0
  -23.4647    3.8106  -12.8467 H   0  0  0  0  0  0  0  0  0  0  0  0
  -23.3156    2.1519  -12.5701 H   0  0  0  0  0  0  0  0  0  0  0  0
  -27.5759   -2.4074  -10.2354 N   0  0  0  0  0  0  0  0  0  0  0  0
  -26.3399   -1.9372  -10.6424 C   0  0  0  0  0  0  0  0  0  0  0  0
  -25.4646   -1.5183   -9.8847 O   0  0  0  0  0  0  0  0  0  0  0  0
  -26.2049   -1.9681  -12.0237 N   0  0  0  0  0  0  0  0  0  0  0  0
  -28.0052   -3.0884  -10.8448 H   0  0  0  0  0  0  0  0  0  0  0  0
  -27.0623   -1.7750  -12.5221 H   0  0  0  0  0  0  0  0  0  0  0  0
  -29.9990   -4.5709   -6.5187 C   0  0  0  0  0  0  0  0  0  0  0  0
  -29.2538   -3.3910   -7.0703 C   0  0  0  0  0  0  0  0  0  0  0  0
  -28.9862   -2.2808   -6.2587 C   0  0  0  0  0  0  0  0  0  0  0  0
  -28.2805   -1.1863   -6.7635 C   0  0  0  0  0  0  0  0  0  0  0  0
  -27.9834    0.0133   -5.9128 C   0  0  0  0  0  0  0  0  0  0  0  0
  -27.8275   -1.2198   -8.0888 C   0  0  0  0  0  0  0  0  0  0  0  0
  -28.0578   -2.3309   -8.9082 C   0  0  0  0  0  0  0  0  0  0  0  0
  -28.7997   -3.4010   -8.4002 C   0  0  0  0  0  0  0  0  0  0  0  0
 25 26  1  0  0  0
 26 27  1  0  0  0
 26 32  2  0  0  0
 27 28  2  0  0  0
 28 29  1  0  0  0
 28 30  1  0  0  0
 30 31  2  0  0  0
 31 19  1  0  0  0
 31 32  1  0  0  0
 19 20  1  0  0  0
 19 23  1  0  0  0
 20 21  2  0  0  0
 20 22  1  0  0  0
 22  1  1  0  0  0
 22 24  1  0  0  0
  1  2  1  0  0  0
  1  6  2  0  0  0
  2  3  2  0  0  0
  3  4  1  0  0  0
  4  7  1  0  0  0
  4  5  2  0  0  0
  7  8  1  0  0  0
  7 16  2  0  0  0
  8  9  2  0  0  0
  9 10  1  0  0  0
 10 11  2  0  0  0
 11 12  1  0  0  0
 11 16  1  0  0  0
 12 13  1  0  0  0
 13 14  2  0  0  0
 14 15  1  0  0  0
 14 16  1  0  0  0
 15 17  1  0  0  0
 15 18  1  0  0  0
  5  6  1  0  0  0
M  END
> <minimizedAffinity>
-10.59423

$$$$
