CHEMBL3931223


 48 53  0  0  0  0  0  0  0  0999 V2000
  -28.1322   -2.3287  -10.0148 O   0  0  0  0  0  0  0  0  0  0  0  0
  -29.0544   -5.4550   -7.2221 C   0  0  0  0  0  0  0  0  0  0  0  0
  -28.7089   -4.4632   -8.1538 C   0  0  0  0  0  0  0  0  0  0  0  0
  -28.3989   -3.1376   -7.7557 C   0  0  0  0  0  0  0  0  0  0  0  0
  -28.0861   -2.0837   -8.6534 C   0  0  0  0  0  0  0  0  0  0  0  0
  -27.6791   -0.8493   -8.1589 C   0  0  0  0  0  0  0  0  0  0  0  0
  -27.7181   -0.6609   -6.7963 C   0  0  0  0  0  0  0  0  0  0  0  0
  -28.0848   -1.6116   -5.9129 N   0  0  0  0  0  0  0  0  0  0  0  0
  -28.3987   -2.8301   -6.3819 C   0  0  0  0  0  0  0  0  0  0  0  0
  -28.7099   -3.8294   -5.4653 C   0  0  0  0  0  0  0  0  0  0  0  0
  -28.9934   -5.1452   -5.8529 C   0  0  0  0  0  0  0  0  0  0  0  0
  -28.5866   -7.5464   -8.3342 C   0  0  0  0  0  0  0  0  0  0  0  0
  -29.4549   -6.7139   -7.5759 O   0  0  0  0  0  0  0  0  0  0  0  0
  -29.1930   -6.0008   -4.7844 O   0  0  0  0  0  0  0  0  0  0  0  0
  -28.1316   -6.9255   -4.5298 C   0  0  0  0  0  0  0  0  0  0  0  0
  -28.6395   -8.3730   -4.4168 C   0  0  0  0  0  0  0  0  0  0  0  0
  -27.6328   -9.1574   -3.5549 C   0  0  0  0  0  0  0  0  0  0  0  0
  -26.5155   -9.7866   -4.2684 N   0  0  0  0  0  0  0  0  0  0  0  0
  -25.2232   -9.1109   -4.0591 C   0  0  0  0  0  0  0  0  0  0  0  0
  -24.0856   -9.8270   -4.8330 C   0  0  0  0  0  0  0  0  0  0  0  0
  -23.9221  -11.2658   -4.5388 N   0  0  0  0  0  0  0  0  0  0  0  0
  -23.2587  -11.4890   -3.2587 C   0  0  0  0  0  0  0  0  0  0  0  0
  -25.2395  -11.9304   -4.5984 C   0  0  0  0  0  0  0  0  0  0  0  0
  -26.3785  -11.2009   -3.8482 C   0  0  0  0  0  0  0  0  0  0  0  0
  -27.1311   -1.8398  -10.8331 C   0  0  0  0  0  0  0  0  0  0  0  0
  -25.9103   -1.5726  -10.2149 C   0  0  0  0  0  0  0  0  0  0  0  0
  -24.8050   -1.1464  -10.9684 C   0  0  0  0  0  0  0  0  0  0  0  0
  -24.8873   -0.9971  -12.3580 C   0  0  0  0  0  0  0  0  0  0  0  0
  -26.1166   -1.2513  -12.9757 C   0  0  0  0  0  0  0  0  0  0  0  0
  -27.2188   -1.6770  -12.2187 C   0  0  0  0  0  0  0  0  0  0  0  0
  -28.3625   -1.9377  -12.8692 F   0  0  0  0  0  0  0  0  0  0  0  0
  -23.7718   -0.6687  -13.1661 N   0  0  0  0  0  0  0  0  0  0  0  0
  -23.1862    0.5791  -13.3053 C   0  0  0  0  0  0  0  0  0  0  0  0
  -23.6564    1.6356  -12.8963 O   0  0  0  0  0  0  0  0  0  0  0  0
  -23.3071   -1.4144  -13.6797 H   0  0  0  0  0  0  0  0  0  0  0  0
  -21.9080    0.5474  -14.0282 C   0  0  0  0  0  0  0  0  0  0  0  0
  -20.8944    1.4846  -13.9104 C   0  0  0  0  0  0  0  0  0  0  0  0
  -19.9024    1.1266  -14.7974 N   0  0  0  0  0  0  0  0  0  0  0  0
  -20.3351   -0.0751  -15.3353 C   0  0  0  0  0  0  0  0  0  0  0  0
  -21.5396   -0.4254  -14.9270 N   0  0  0  0  0  0  0  0  0  0  0  0
  -18.7283    1.8577  -15.1700 C   0  0  0  0  0  0  0  0  0  0  0  0
  -18.8971    3.1812  -15.6267 C   0  0  0  0  0  0  0  0  0  0  0  0
  -17.7961    3.9975  -15.8937 C   0  0  0  0  0  0  0  0  0  0  0  0
  -16.5109    3.4969  -15.7487 C   0  0  0  0  0  0  0  0  0  0  0  0
  -16.3245    2.1765  -15.3418 C   0  0  0  0  0  0  0  0  0  0  0  0
  -17.4182    1.3501  -15.0256 C   0  0  0  0  0  0  0  0  0  0  0  0
  -17.2420    0.0424  -14.6557 O   0  0  0  0  0  0  0  0  0  0  0  0
  -16.0831   -0.2563  -13.8791 C   0  0  0  0  0  0  0  0  0  0  0  0
 12 13  1  0  0  0
 13  2  1  0  0  0
  2  3  1  0  0  0
  2 11  2  0  0  0
  3  4  2  0  0  0
  4  5  1  0  0  0
  4  9  1  0  0  0
  5  1  1  0  0  0
  5  6  2  0  0  0
  1 25  1  0  0  0
 25 26  1  0  0  0
 25 30  2  0  0  0
 26 27  2  0  0  0
 27 28  1  0  0  0
 28 32  1  0  0  0
 28 29  2  0  0  0
 32 33  1  0  0  0
 32 35  1  0  0  0
 33 34  2  0  0  0
 33 36  1  0  0  0
 36 37  2  0  0  0
 36 40  1  0  0  0
 37 38  1  0  0  0
 38 41  1  0  0  0
 38 39  1  0  0  0
 41 42  1  0  0  0
 41 46  2  0  0  0
 42 43  2  0  0  0
 43 44  1  0  0  0
 44 45  2  0  0  0
 45 46  1  0  0  0
 46 47  1  0  0  0
 47 48  1  0  0  0
 39 40  2  0  0  0
 29 30  1  0  0  0
 30 31  1  0  0  0
  6  7  1  0  0  0
  7  8  2  0  0  0
  8  9  1  0  0  0
  9 10  2  0  0  0
 10 11  1  0  0  0
 11 14  1  0  0  0
 14 15  1  0  0  0
 15 16  1  0  0  0
 16 17  1  0  0  0
 17 18  1  0  0  0
 18 19  1  0  0  0
 18 24  1  0  0  0
 19 20  1  0  0  0
 20 21  1  0  0  0
 21 22  1  0  0  0
 21 23  1  0  0  0
 23 24  1  0  0  0
M  END
> <minimizedAffinity>
-9.37582

$$$$
