CHEMBL3808653


 33 37  0  0  0  0  0  0  0  0999 V2000
  -20.5512    2.1068  -14.3759 N   0  0  0  0  0  0  0  0  0  0  0  0
  -19.6091    1.3641  -15.0543 C   0  0  0  0  0  0  0  0  0  0  0  0
  -19.6263    0.1866  -15.3824 O   0  0  0  0  0  0  0  0  0  0  0  0
  -18.4584    2.1210  -15.3444 N   0  0  0  0  0  0  0  0  0  0  0  0
  -18.3948    3.4562  -15.7522 C   0  0  0  0  0  0  0  0  0  0  0  0
  -17.0800    3.7751  -16.0062 C   0  0  0  0  0  0  0  0  0  0  0  0
  -16.2920    2.6423  -15.7011 C   0  0  0  0  0  0  0  0  0  0  0  0
  -14.9448    2.4939  -15.7459 N   0  0  0  0  0  0  0  0  0  0  0  0
  -14.4936    1.2693  -15.3765 C   0  0  0  0  0  0  0  0  0  0  0  0
  -15.2965    0.2340  -14.9127 C   0  0  0  0  0  0  0  0  0  0  0  0
  -16.6720    0.3878  -14.8855 C   0  0  0  0  0  0  0  0  0  0  0  0
  -17.1597    1.6278  -15.3015 C   0  0  0  0  0  0  0  0  0  0  0  0
  -20.3479    3.0483  -14.0704 H   0  0  0  0  0  0  0  0  0  0  0  0
  -23.3020    0.0988  -13.3356 C   0  0  0  0  0  0  0  0  0  0  0  0
  -22.0101    0.1759  -13.8127 C   0  0  0  0  0  0  0  0  0  0  0  0
  -21.7575    1.5619  -13.9650 C   0  0  0  0  0  0  0  0  0  0  0  0
  -22.8460    2.2647  -13.6438 N   0  0  0  0  0  0  0  0  0  0  0  0
  -23.8069    1.3600  -13.2647 O   0  0  0  0  0  0  0  0  0  0  0  0
  -25.0009   -1.5437  -14.1366 C   0  0  0  0  0  0  0  0  0  0  0  0
  -24.2197   -1.0190  -12.9184 C   0  0  0  0  0  0  0  0  0  0  0  0
  -25.2091   -0.4961  -11.8647 C   0  0  0  0  0  0  0  0  0  0  0  0
  -23.4254   -2.1980  -12.3180 C   0  0  0  0  0  0  0  0  0  0  0  0
  -13.1203    1.1425  -15.3604 O   0  0  0  0  0  0  0  0  0  0  0  0
  -12.3645    2.2747  -15.0889 C   0  0  0  0  0  0  0  0  0  0  0  0
  -12.1599    3.2284  -16.0243 N   0  0  0  0  0  0  0  0  0  0  0  0
  -11.5816    4.3733  -15.6072 C   0  0  0  0  0  0  0  0  0  0  0  0
  -11.2513    4.6814  -14.3438 N   0  0  0  0  0  0  0  0  0  0  0  0
  -11.4976    3.6977  -13.4714 C   0  0  0  0  0  0  0  0  0  0  0  0
  -11.9921    2.4564  -13.7959 C   0  0  0  0  0  0  0  0  0  0  0  0
  -12.2303    1.6741  -12.5649 C   0  0  0  0  0  0  0  0  0  0  0  0
  -12.5366    2.7298  -11.5672 N   0  0  0  0  0  0  0  0  0  0  0  0
  -11.6256    3.8504  -11.9747 C   0  0  0  0  0  0  0  0  0  0  0  0
  -13.4860    3.0471  -11.7955 H   0  0  0  0  0  0  0  0  0  0  0  0
 19 20  1  0  0  0
 20 21  1  0  0  0
 20 22  1  0  0  0
 20 14  1  0  0  0
 14 15  2  0  0  0
 14 18  1  0  0  0
 15 16  1  0  0  0
 16  1  1  0  0  0
 16 17  2  0  0  0
  1  2  1  0  0  0
  1 13  1  0  0  0
  2  3  2  0  0  0
  2  4  1  0  0  0
  4  5  1  0  0  0
  4 12  1  0  0  0
  5  6  2  0  0  0
  6  7  1  0  0  0
  7  8  1  0  0  0
  7 12  2  0  0  0
  8  9  2  0  0  0
  9 23  1  0  0  0
  9 10  1  0  0  0
 23 24  1  0  0  0
 24 25  1  0  0  0
 24 29  2  0  0  0
 25 26  2  0  0  0
 26 27  1  0  0  0
 27 28  2  0  0  0
 28 29  1  0  0  0
 28 32  1  0  0  0
 29 30  1  0  0  0
 30 31  1  0  0  0
 31 32  1  0  0  0
 31 33  1  0  0  0
 10 11  2  0  0  0
 11 12  1  0  0  0
 17 18  1  0  0  0
M  END
> <minimizedAffinity>
-9.63719

$$$$
