CHEMBL118440


 22 25  0  0  0  0  0  0  0  0999 V2000
  -28.1191   -2.1664  -12.3497 O   0  0  0  0  0  0  0  0  0  0  0  0
  -26.9666   -1.7506  -12.2234 C   0  0  0  0  0  0  0  0  0  0  0  0
  -26.2315   -1.3898  -13.3211 N   0  0  0  0  0  0  0  0  0  0  0  0
  -24.9040   -0.9537  -13.2533 C   0  0  0  0  0  0  0  0  0  0  0  0
  -24.2180   -0.6299  -14.4226 C   0  0  0  0  0  0  0  0  0  0  0  0
  -22.8864   -0.2197  -14.3456 C   0  0  0  0  0  0  0  0  0  0  0  0
  -22.2496   -0.1345  -13.1064 C   0  0  0  0  0  0  0  0  0  0  0  0
  -22.9437   -0.4507  -11.9360 C   0  0  0  0  0  0  0  0  0  0  0  0
  -24.2778   -0.8605  -12.0054 C   0  0  0  0  0  0  0  0  0  0  0  0
  -25.0378   -1.1931  -10.8011 C   0  0  0  0  0  0  0  0  0  0  0  0
  -26.3137   -1.6154  -10.8755 C   0  0  0  0  0  0  0  0  0  0  0  0
  -26.6923   -1.4788  -14.2163 H   0  0  0  0  0  0  0  0  0  0  0  0
  -27.0052   -1.9180   -9.6671 C   0  0  0  0  0  0  0  0  0  0  0  0
  -27.2571   -1.1617   -8.6117 N   0  0  0  0  0  0  0  0  0  0  0  0
  -27.9542   -1.9553   -7.7334 C   0  0  0  0  0  0  0  0  0  0  0  0
  -28.4736   -1.6515   -6.4675 C   0  0  0  0  0  0  0  0  0  0  0  0
  -29.1470   -2.6565   -5.7606 C   0  0  0  0  0  0  0  0  0  0  0  0
  -29.2964   -3.9359   -6.3022 C   0  0  0  0  0  0  0  0  0  0  0  0
  -28.7890   -4.2546   -7.5672 C   0  0  0  0  0  0  0  0  0  0  0  0
  -28.1276   -3.2324   -8.2496 C   0  0  0  0  0  0  0  0  0  0  0  0
  -27.5292   -3.1792   -9.4800 N   0  0  0  0  0  0  0  0  0  0  0  0
  -27.4752   -3.9319  -10.1570 H   0  0  0  0  0  0  0  0  0  0  0  0
  1  2  2  0  0  0
  2  3  1  0  0  0
  2 11  1  0  0  0
  3  4  1  0  0  0
  3 12  1  0  0  0
  4  5  1  0  0  0
  4  9  2  0  0  0
  5  6  2  0  0  0
  6  7  1  0  0  0
  7  8  2  0  0  0
  8  9  1  0  0  0
  9 10  1  0  0  0
 10 11  2  0  0  0
 11 13  1  0  0  0
 13 14  2  0  0  0
 13 21  1  0  0  0
 14 15  1  0  0  0
 15 16  1  0  0  0
 15 20  2  0  0  0
 16 17  2  0  0  0
 17 18  1  0  0  0
 18 19  2  0  0  0
 19 20  1  0  0  0
 20 21  1  0  0  0
 21 22  1  0  0  0
M  END
> <minimizedAffinity>
-9.37204

$$$$
