CHEMBL2409790


 34 38  0  0  0  0  0  0  0  0999 V2000
  -27.9274   -2.9991   -7.0140 C   0  0  0  0  0  0  0  0  0  0  0  0
  -27.6703   -1.7411   -6.4507 C   0  0  0  0  0  0  0  0  0  0  0  0
  -27.7602   -0.5715   -7.2009 C   0  0  0  0  0  0  0  0  0  0  0  0
  -28.0533   -0.6394   -8.5556 C   0  0  0  0  0  0  0  0  0  0  0  0
  -28.1392   -1.8831   -9.1787 C   0  0  0  0  0  0  0  0  0  0  0  0
  -28.1126   -3.0652   -8.4051 C   0  0  0  0  0  0  0  0  0  0  0  0
  -29.2034   -4.8647   -5.9558 C   0  0  0  0  0  0  0  0  0  0  0  0
  -30.2634   -4.5465   -6.4888 O   0  0  0  0  0  0  0  0  0  0  0  0
  -28.0110   -4.1769   -6.2049 N   0  0  0  0  0  0  0  0  0  0  0  0
  -27.1426   -4.6154   -5.9298 H   0  0  0  0  0  0  0  0  0  0  0  0
  -28.2255   -9.2129   -3.4503 C   0  0  0  0  0  0  0  0  0  0  0  0
  -28.7515   -7.9212   -3.9546 C   0  0  0  0  0  0  0  0  0  0  0  0
  -28.2834   -7.1011   -5.0099 C   0  0  0  0  0  0  0  0  0  0  0  0
  -29.1532   -6.0208   -5.0745 C   0  0  0  0  0  0  0  0  0  0  0  0
  -30.0546   -6.2510   -4.0466 N   0  0  0  0  0  0  0  0  0  0  0  0
  -31.1803   -5.4691   -3.5845 C   0  0  0  0  0  0  0  0  0  0  0  0
  -29.8282   -7.3964   -3.3747 N   0  0  0  0  0  0  0  0  0  0  0  0
  -28.3308   -2.0054  -10.5442 O   0  0  0  0  0  0  0  0  0  0  0  0
  -27.2921   -1.7168  -11.4217 C   0  0  0  0  0  0  0  0  0  0  0  0
  -27.5714   -1.8685  -12.7809 C   0  0  0  0  0  0  0  0  0  0  0  0
  -26.5721   -1.6756  -13.7516 C   0  0  0  0  0  0  0  0  0  0  0  0
  -25.2718   -1.2914  -13.3609 C   0  0  0  0  0  0  0  0  0  0  0  0
  -24.1839   -1.0707  -14.2009 N   0  0  0  0  0  0  0  0  0  0  0  0
  -23.1818   -0.5880  -13.5040 C   0  0  0  0  0  0  0  0  0  0  0  0
  -23.4021   -0.5582  -11.8111 S   0  0  0  0  0  0  0  0  0  0  0  0
  -25.0205   -1.1119  -12.0003 C   0  0  0  0  0  0  0  0  0  0  0  0
  -25.9972   -1.3618  -11.0144 C   0  0  0  0  0  0  0  0  0  0  0  0
  -21.9894   -0.2101  -14.0852 N   0  0  0  0  0  0  0  0  0  0  0  0
  -21.6399    1.0976  -14.3332 C   0  0  0  0  0  0  0  0  0  0  0  0
  -22.3102    2.0917  -14.0695 O   0  0  0  0  0  0  0  0  0  0  0  0
  -21.5168   -0.9482  -14.5846 H   0  0  0  0  0  0  0  0  0  0  0  0
  -20.3551    1.3368  -15.0599 C   0  0  0  0  0  0  0  0  0  0  0  0
  -19.0753    1.6393  -14.3108 C   0  0  0  0  0  0  0  0  0  0  0  0
  -19.6656    2.6652  -15.2364 C   0  0  0  0  0  0  0  0  0  0  0  0
 11 12  1  0  0  0
 12 13  1  0  0  0
 12 17  2  0  0  0
 13 14  2  0  0  0
 14  7  1  0  0  0
 14 15  1  0  0  0
  7  8  2  0  0  0
  7  9  1  0  0  0
  9  1  1  0  0  0
  9 10  1  0  0  0
  1  2  1  0  0  0
  1  6  2  0  0  0
  2  3  2  0  0  0
  3  4  1  0  0  0
  4  5  2  0  0  0
  5 18  1  0  0  0
  5  6  1  0  0  0
 18 19  1  0  0  0
 19 20  1  0  0  0
 19 27  2  0  0  0
 20 21  2  0  0  0
 21 22  1  0  0  0
 22 23  1  0  0  0
 22 26  2  0  0  0
 23 24  2  0  0  0
 24 28  1  0  0  0
 24 25  1  0  0  0
 28 29  1  0  0  0
 28 31  1  0  0  0
 29 30  2  0  0  0
 29 32  1  0  0  0
 32 33  1  0  0  0
 32 34  1  0  0  0
 33 34  1  0  0  0
 25 26  1  0  0  0
 26 27  1  0  0  0
 15 16  1  0  0  0
 15 17  1  0  0  0
M  END
> <minimizedAffinity>
-9.58976

$$$$
