CHEMBL1807475


 40 44  0  0  0  0  0  0  0  0999 V2000
  -23.8913   11.1693  -17.6264 C   0  0  0  0  0  0  0  0  0  0  0  0
  -24.3224   12.0163  -16.6360 C   0  0  0  0  0  0  0  0  0  0  0  0
  -25.1807   11.2487  -15.8043 C   0  0  0  0  0  0  0  0  0  0  0  0
  -25.3077   10.0019  -16.2868 N   0  0  0  0  0  0  0  0  0  0  0  0
  -24.5254    9.9823  -17.3769 N   0  0  0  0  0  0  0  0  0  0  0  0
  -24.4506    9.1088  -17.8848 H   0  0  0  0  0  0  0  0  0  0  0  0
  -25.8728   11.6979  -14.5964 C   0  0  0  0  0  0  0  0  0  0  0  0
  -25.1447   12.1432  -13.4807 C   0  0  0  0  0  0  0  0  0  0  0  0
  -25.8033   12.6179  -12.3456 C   0  0  0  0  0  0  0  0  0  0  0  0
  -27.1956   12.6548  -12.3181 C   0  0  0  0  0  0  0  0  0  0  0  0
  -27.9266   12.1871  -13.4090 C   0  0  0  0  0  0  0  0  0  0  0  0
  -27.2732   11.7082  -14.5438 C   0  0  0  0  0  0  0  0  0  0  0  0
  -29.3454   12.2442  -13.3672 N   0  0  0  0  0  0  0  0  0  0  0  0
  -29.7685   12.8082  -12.6318 H   0  0  0  0  0  0  0  0  0  0  0  0
  -30.2275   10.8352  -13.6773 S   0  0  0  0  0  0  0  0  0  0  0  0
  -30.8442   11.0240  -14.9745 O   0  0  0  0  0  0  0  0  0  0  0  0
  -29.4066    9.6771  -13.3972 O   0  0  0  0  0  0  0  0  0  0  0  0
  -31.5351   10.8916  -12.4680 C   0  0  0  0  0  0  0  0  0  0  0  0
  -31.5636   11.9386  -11.5373 C   0  0  0  0  0  0  0  0  0  0  0  0
  -32.6155   12.0237  -10.6286 C   0  0  0  0  0  0  0  0  0  0  0  0
  -33.6395   11.0764  -10.6532 C   0  0  0  0  0  0  0  0  0  0  0  0
  -33.6161   10.0412  -11.5901 C   0  0  0  0  0  0  0  0  0  0  0  0
  -32.5673    9.9484  -12.5060 C   0  0  0  0  0  0  0  0  0  0  0  0
  -21.5790   11.3146  -18.5118 C   0  0  0  0  0  0  0  0  0  0  0  0
  -21.0718   10.9513  -17.4640 O   0  0  0  0  0  0  0  0  0  0  0  0
  -23.0068   11.4263  -18.6661 N   0  0  0  0  0  0  0  0  0  0  0  0
  -23.3846   11.5992  -19.5882 H   0  0  0  0  0  0  0  0  0  0  0  0
  -18.7531   11.0249  -20.9855 C   0  0  0  0  0  0  0  0  0  0  0  0
  -19.2022   11.9313  -21.9598 C   0  0  0  0  0  0  0  0  0  0  0  0
  -20.3946   12.6507  -21.8236 C   0  0  0  0  0  0  0  0  0  0  0  0
  -21.1899   12.4679  -20.6993 C   0  0  0  0  0  0  0  0  0  0  0  0
  -20.7721   11.5643  -19.7214 C   0  0  0  0  0  0  0  0  0  0  0  0
  -19.5603   10.8668  -19.8559 C   0  0  0  0  0  0  0  0  0  0  0  0
  -14.3262    7.6456  -20.6837 C   0  0  0  0  0  0  0  0  0  0  0  0
  -15.1031    8.7969  -21.1388 N   0  0  0  0  0  0  0  0  0  0  0  0
  -16.3271    8.3541  -21.8454 C   0  0  0  0  0  0  0  0  0  0  0  0
  -17.2214    9.5365  -22.2998 C   0  0  0  0  0  0  0  0  0  0  0  0
  -17.5445   10.3791  -21.1341 N   0  0  0  0  0  0  0  0  0  0  0  0
  -16.3446   10.8584  -20.4197 C   0  0  0  0  0  0  0  0  0  0  0  0
  -15.4817    9.6511  -19.9907 C   0  0  0  0  0  0  0  0  0  0  0  0
 34 35  1  0  0  0
 35 36  1  0  0  0
 35 40  1  0  0  0
 36 37  1  0  0  0
 37 38  1  0  0  0
 38 28  1  0  0  0
 38 39  1  0  0  0
 28 29  1  0  0  0
 28 33  2  0  0  0
 29 30  2  0  0  0
 30 31  1  0  0  0
 31 32  2  0  0  0
 32 24  1  0  0  0
 32 33  1  0  0  0
 24 25  2  0  0  0
 24 26  1  0  0  0
 26  1  1  0  0  0
 26 27  1  0  0  0
  1  2  2  0  0  0
  1  5  1  0  0  0
  2  3  1  0  0  0
  3  7  1  0  0  0
  3  4  2  0  0  0
  7  8  1  0  0  0
  7 12  2  0  0  0
  8  9  2  0  0  0
  9 10  1  0  0  0
 10 11  2  0  0  0
 11 13  1  0  0  0
 11 12  1  0  0  0
 13 15  1  0  0  0
 13 14  1  0  0  0
 15 16  2  0  0  0
 15 17  2  0  0  0
 15 18  1  0  0  0
 18 19  1  0  0  0
 18 23  2  0  0  0
 19 20  2  0  0  0
 20 21  1  0  0  0
 21 22  2  0  0  0
 22 23  1  0  0  0
  4  5  1  0  0  0
  5  6  1  0  0  0
 39 40  1  0  0  0
M  END
> <minimizedAffinity>
-7.13466

$$$$
