CHEMBL213507


 40 45  0  0  0  0  0  0  0  0999 V2000
  -13.8115   -4.6116  -12.0097 C   0  0  0  0  0  0  0  0  0  0  0  0
  -12.5019   -4.8966  -11.8837 N   0  0  0  0  0  0  0  0  0  0  0  0
  -12.4485   -6.2705  -11.9671 N   0  0  0  0  0  0  0  0  0  0  0  0
  -13.6800   -6.8778  -11.9664 C   0  0  0  0  0  0  0  0  0  0  0  0
  -14.5660   -5.7968  -11.8465 C   0  0  0  0  0  0  0  0  0  0  0  0
  -15.9032   -6.1869  -12.3452 C   0  0  0  0  0  0  0  0  0  0  0  0
  -15.2762   -6.9495  -13.5216 C   0  0  0  0  0  0  0  0  0  0  0  0
  -14.8801   -6.4001  -14.7619 C   0  0  0  0  0  0  0  0  0  0  0  0
  -13.9151   -7.0819  -15.5267 C   0  0  0  0  0  0  0  0  0  0  0  0
  -13.5856   -8.3836  -15.1421 C   0  0  0  0  0  0  0  0  0  0  0  0
  -13.7141   -8.7297  -13.8021 C   0  0  0  0  0  0  0  0  0  0  0  0
  -14.3241   -7.8306  -12.9561 C   0  0  0  0  0  0  0  0  0  0  0  0
  -11.5444   -6.7064  -12.1133 H   0  0  0  0  0  0  0  0  0  0  0  0
  -15.0250   -1.1609  -13.6077 C   0  0  0  0  0  0  0  0  0  0  0  0
  -15.5932   -1.3008  -12.3728 C   0  0  0  0  0  0  0  0  0  0  0  0
  -15.3354   -2.5669  -11.8172 C   0  0  0  0  0  0  0  0  0  0  0  0
  -14.4164   -3.3106  -12.5146 C   0  0  0  0  0  0  0  0  0  0  0  0
  -14.1769   -2.5849  -14.0700 S   0  0  0  0  0  0  0  0  0  0  0  0
  -15.1115    0.0669  -14.4556 C   0  0  0  0  0  0  0  0  0  0  0  0
  -18.5969    0.8324  -15.1779 N   0  0  0  0  0  0  0  0  0  0  0  0
  -17.4316    0.8779  -14.4402 C   0  0  0  0  0  0  0  0  0  0  0  0
  -17.2555    1.4621  -13.3778 O   0  0  0  0  0  0  0  0  0  0  0  0
  -16.4387    0.1219  -15.0366 N   0  0  0  0  0  0  0  0  0  0  0  0
  -18.5948    0.2071  -15.9674 H   0  0  0  0  0  0  0  0  0  0  0  0
  -16.4636    0.0686  -16.0429 H   0  0  0  0  0  0  0  0  0  0  0  0
  -23.2324    0.3270  -13.5405 C   0  0  0  0  0  0  0  0  0  0  0  0
  -22.1268    1.2023  -14.0570 C   0  0  0  0  0  0  0  0  0  0  0  0
  -22.3270    2.5751  -14.2045 C   0  0  0  0  0  0  0  0  0  0  0  0
  -21.2962    3.3776  -14.6846 C   0  0  0  0  0  0  0  0  0  0  0  0
  -20.0597    2.8227  -15.0174 C   0  0  0  0  0  0  0  0  0  0  0  0
  -19.8283    1.4502  -14.8740 C   0  0  0  0  0  0  0  0  0  0  0  0
  -20.8771    0.6444  -14.3965 C   0  0  0  0  0  0  0  0  0  0  0  0
  -12.9898   -6.3799  -16.5128 C   0  0  0  0  0  0  0  0  0  0  0  0
  -13.6856   -5.5035  -17.4601 N   0  0  0  0  0  0  0  0  0  0  0  0
  -12.8511   -4.3358  -17.7794 C   0  0  0  0  0  0  0  0  0  0  0  0
  -13.5461   -3.4118  -18.8029 C   0  0  0  0  0  0  0  0  0  0  0  0
  -13.9305   -4.0662  -20.0694 N   0  0  0  0  0  0  0  0  0  0  0  0
  -12.7655   -4.3478  -20.9044 C   0  0  0  0  0  0  0  0  0  0  0  0
  -14.6912   -5.2952  -19.7638 C   0  0  0  0  0  0  0  0  0  0  0  0
  -14.0455   -6.2234  -18.7022 C   0  0  0  0  0  0  0  0  0  0  0  0
 26 27  1  0  0  0
 27 28  1  0  0  0
 27 32  2  0  0  0
 28 29  2  0  0  0
 29 30  1  0  0  0
 30 31  2  0  0  0
 31 20  1  0  0  0
 31 32  1  0  0  0
 20 21  1  0  0  0
 20 24  1  0  0  0
 21 22  2  0  0  0
 21 23  1  0  0  0
 23 19  1  0  0  0
 23 25  1  0  0  0
 19 14  1  0  0  0
 14 15  2  0  0  0
 14 18  1  0  0  0
 15 16  1  0  0  0
 16 17  2  0  0  0
 17  1  1  0  0  0
 17 18  1  0  0  0
  1  2  2  0  0  0
  1  5  1  0  0  0
  2  3  1  0  0  0
  3  4  1  0  0  0
  3 13  1  0  0  0
  4  5  2  0  0  0
  4 12  1  0  0  0
  5  6  1  0  0  0
  6  7  1  0  0  0
  7  8  1  0  0  0
  7 12  2  0  0  0
  8  9  2  0  0  0
  9 33  1  0  0  0
  9 10  1  0  0  0
 33 34  1  0  0  0
 34 35  1  0  0  0
 34 40  1  0  0  0
 35 36  1  0  0  0
 36 37  1  0  0  0
 37 38  1  0  0  0
 37 39  1  0  0  0
 39 40  1  0  0  0
 10 11  2  0  0  0
 11 12  1  0  0  0
M  END
> <minimizedAffinity>
-10.13680

$$$$
