CHEMBL1087636


 45 49  0  0  0  0  0  0  0  0999 V2000
  -29.3283   -6.6587   -6.7244 N   0  0  0  0  0  0  0  0  0  0  0  0
  -30.3393   -6.7371   -6.6556 H   0  0  0  0  0  0  0  0  0  0  0  0
  -28.8431   -7.8285   -7.2297 C   0  0  0  0  0  0  0  0  0  0  0  0
  -29.3780   -8.2639   -8.3591 N   0  0  0  0  0  0  0  0  0  0  0  0
  -30.1143   -9.3380   -7.9375 C   0  0  0  0  0  0  0  0  0  0  0  0
  -31.2094   -9.9578   -8.5519 C   0  0  0  0  0  0  0  0  0  0  0  0
  -31.8774  -10.9658   -7.8506 C   0  0  0  0  0  0  0  0  0  0  0  0
  -31.4194  -11.3963   -6.6009 C   0  0  0  0  0  0  0  0  0  0  0  0
  -30.2846  -10.8328   -6.0037 C   0  0  0  0  0  0  0  0  0  0  0  0
  -29.6809   -9.7711   -6.6814 C   0  0  0  0  0  0  0  0  0  0  0  0
  -28.5735   -8.9545   -6.4497 N   0  0  0  0  0  0  0  0  0  0  0  0
  -27.3848   -9.3325   -5.7600 C   0  0  0  0  0  0  0  0  0  0  0  0
  -26.2878   -9.8175   -6.4580 C   0  0  0  0  0  0  0  0  0  0  0  0
  -25.2096  -10.2674   -5.7101 C   0  0  0  0  0  0  0  0  0  0  0  0
  -25.2019  -10.1763   -4.3717 N   0  0  0  0  0  0  0  0  0  0  0  0
  -26.3013   -9.6946   -3.7851 C   0  0  0  0  0  0  0  0  0  0  0  0
  -27.4056   -9.2822   -4.4114 N   0  0  0  0  0  0  0  0  0  0  0  0
  -24.0660  -10.7459   -6.3657 N   0  0  0  0  0  0  0  0  0  0  0  0
  -23.8372  -11.6990   -6.1060 H   0  0  0  0  0  0  0  0  0  0  0  0
  -22.8612   -9.8993   -6.2355 C   0  0  0  0  0  0  0  0  0  0  0  0
  -21.6301  -10.4943   -6.9616 C   0  0  0  0  0  0  0  0  0  0  0  0
  -20.5938   -9.4904   -7.2480 N   0  0  0  0  0  0  0  0  0  0  0  0
  -20.9640   -8.8236   -7.9221 H   0  0  0  0  0  0  0  0  0  0  0  0
  -19.8212   -9.9534   -7.7291 H   0  0  0  0  0  0  0  0  0  0  0  0
  -29.7882   -4.8430   -4.4973 C   0  0  0  0  0  0  0  0  0  0  0  0
  -29.2410   -4.4010   -5.8335 C   0  0  0  0  0  0  0  0  0  0  0  0
  -28.9967   -3.0363   -6.0237 C   0  0  0  0  0  0  0  0  0  0  0  0
  -28.4142   -2.5732   -7.2016 C   0  0  0  0  0  0  0  0  0  0  0  0
  -28.0036   -3.4693   -8.1822 C   0  0  0  0  0  0  0  0  0  0  0  0
  -28.2409   -4.8350   -7.9832 C   0  0  0  0  0  0  0  0  0  0  0  0
  -28.9461   -5.3137   -6.8755 C   0  0  0  0  0  0  0  0  0  0  0  0
  -27.3705   -3.0866   -9.3886 N   0  0  0  0  0  0  0  0  0  0  0  0
  -27.5778   -1.9053  -10.0766 C   0  0  0  0  0  0  0  0  0  0  0  0
  -28.3376   -0.9950   -9.7541 O   0  0  0  0  0  0  0  0  0  0  0  0
  -26.7845   -3.7873   -9.8260 H   0  0  0  0  0  0  0  0  0  0  0  0
  -26.8365   -1.7440  -11.3562 C   0  0  0  0  0  0  0  0  0  0  0  0
  -27.4388   -1.8850  -12.6096 C   0  0  0  0  0  0  0  0  0  0  0  0
  -26.6648   -1.7833  -13.7664 C   0  0  0  0  0  0  0  0  0  0  0  0
  -25.2885   -1.5412  -13.6793 C   0  0  0  0  0  0  0  0  0  0  0  0
  -24.6708   -1.3885  -12.4306 C   0  0  0  0  0  0  0  0  0  0  0  0
  -25.4556   -1.5014  -11.2740 C   0  0  0  0  0  0  0  0  0  0  0  0
  -23.1945   -1.1045  -12.3052 C   0  0  0  0  0  0  0  0  0  0  0  0
  -22.9191    0.1728  -11.9190 F   0  0  0  0  0  0  0  0  0  0  0  0
  -22.5902   -1.9078  -11.3862 F   0  0  0  0  0  0  0  0  0  0  0  0
  -22.5197   -1.2948  -13.4716 F   0  0  0  0  0  0  0  0  0  0  0  0
 25 26  1  0  0  0
 26 27  1  0  0  0
 26 31  2  0  0  0
 27 28  2  0  0  0
 28 29  1  0  0  0
 29 32  1  0  0  0
 29 30  2  0  0  0
 32 33  1  0  0  0
 32 35  1  0  0  0
 33 34  2  0  0  0
 33 36  1  0  0  0
 36 37  1  0  0  0
 36 41  2  0  0  0
 37 38  2  0  0  0
 38 39  1  0  0  0
 39 40  2  0  0  0
 40 42  1  0  0  0
 40 41  1  0  0  0
 42 43  1  0  0  0
 42 44  1  0  0  0
 42 45  1  0  0  0
 30 31  1  0  0  0
 31  1  1  0  0  0
  1  3  1  0  0  0
  1  2  1  0  0  0
  3  4  2  0  0  0
  3 11  1  0  0  0
  4  5  1  0  0  0
  5  6  1  0  0  0
  5 10  2  0  0  0
  6  7  2  0  0  0
  7  8  1  0  0  0
  8  9  2  0  0  0
  9 10  1  0  0  0
 10 11  1  0  0  0
 11 12  1  0  0  0
 12 13  1  0  0  0
 12 17  2  0  0  0
 13 14  2  0  0  0
 14 18  1  0  0  0
 14 15  1  0  0  0
 18 20  1  0  0  0
 18 19  1  0  0  0
 20 21  1  0  0  0
 21 22  1  0  0  0
 22 23  1  0  0  0
 22 24  1  0  0  0
 15 16  2  0  0  0
 16 17  1  0  0  0
M  END
> <minimizedAffinity>
-11.16860

$$$$
