CHEMBL290352


 45 52  0  0  0  0  0  0  0  0999 V2000
  -30.3243   -7.6238   -7.9772 C   0  0  0  0  0  0  0  0  0  0  0  0
  -28.9567   -7.3293   -8.0364 C   0  0  0  0  0  0  0  0  0  0  0  0
  -27.9649   -8.3306   -8.2678 C   0  0  0  0  0  0  0  0  0  0  0  0
  -28.3644   -9.6833   -8.1677 C   0  0  0  0  0  0  0  0  0  0  0  0
  -29.7785   -9.9201   -7.9831 C   0  0  0  0  0  0  0  0  0  0  0  0
  -30.7258   -8.9207   -8.2677 C   0  0  0  0  0  0  0  0  0  0  0  0
  -29.8809  -10.9818   -7.0417 C   0  0  0  0  0  0  0  0  0  0  0  0
  -30.9012  -10.7570   -6.0754 C   0  0  0  0  0  0  0  0  0  0  0  0
  -30.4126  -11.1271   -4.8141 C   0  0  0  0  0  0  0  0  0  0  0  0
  -28.9891  -10.9463   -4.6090 C   0  0  0  0  0  0  0  0  0  0  0  0
  -28.2200   -9.6765   -4.3617 C   0  0  0  0  0  0  0  0  0  0  0  0
  -28.3886   -8.2430   -4.3640 C   0  0  0  0  0  0  0  0  0  0  0  0
  -27.2937   -7.3840   -4.0751 C   0  0  0  0  0  0  0  0  0  0  0  0
  -26.0808   -7.9590   -3.6061 C   0  0  0  0  0  0  0  0  0  0  0  0
  -25.8237   -9.3084   -3.7756 C   0  0  0  0  0  0  0  0  0  0  0  0
  -26.8249  -10.0712   -4.3958 C   0  0  0  0  0  0  0  0  0  0  0  0
  -26.6987  -11.0762   -5.3515 N   0  0  0  0  0  0  0  0  0  0  0  0
  -28.0248  -11.3840   -5.5522 C   0  0  0  0  0  0  0  0  0  0  0  0
  -28.5362  -11.3177   -6.8840 C   0  0  0  0  0  0  0  0  0  0  0  0
  -27.6774  -10.8579   -7.8178 N   0  0  0  0  0  0  0  0  0  0  0  0
  -26.5080  -11.6174   -8.1888 C   0  0  0  0  0  0  0  0  0  0  0  0
  -25.2840  -10.8189   -8.4742 C   0  0  0  0  0  0  0  0  0  0  0  0
  -24.7613  -10.5204   -7.0621 C   0  0  0  0  0  0  0  0  0  0  0  0
  -25.0312   -9.1440   -6.7817 O   0  0  0  0  0  0  0  0  0  0  0  0
  -25.5183  -11.5321   -6.1019 C   0  0  0  0  0  0  0  0  0  0  0  0
  -24.6032  -12.2563   -5.0926 C   0  0  0  0  0  0  0  0  0  0  0  0
  -26.0698  -12.4656   -7.0732 O   0  0  0  0  0  0  0  0  0  0  0  0
  -31.1285  -12.4419   -4.5576 C   0  0  0  0  0  0  0  0  0  0  0  0
  -32.3183  -12.2785   -5.3936 N   0  0  0  0  0  0  0  0  0  0  0  0
  -32.2333  -11.2413   -6.3025 C   0  0  0  0  0  0  0  0  0  0  0  0
  -33.0946  -10.9889   -7.1325 O   0  0  0  0  0  0  0  0  0  0  0  0
  -24.5579   -8.6036   -7.4433 H   0  0  0  0  0  0  0  0  0  0  0  0
  -32.9548  -13.0270   -5.6383 H   0  0  0  0  0  0  0  0  0  0  0  0
  -23.2347  -10.7303   -7.1243 C   0  0  0  0  0  0  0  0  0  0  0  0
  -22.4208   -9.9635   -6.6349 O   0  0  0  0  0  0  0  0  0  0  0  0
  -22.9025  -11.8137   -7.8907 O   0  0  0  0  0  0  0  0  0  0  0  0
  -21.5324  -12.2184   -7.8075 C   0  0  0  0  0  0  0  0  0  0  0  0
  -31.3700   -6.7199   -7.3459 C   0  0  0  0  0  0  0  0  0  0  0  0
  -30.7929   -5.5289   -6.1244 S   0  0  0  0  0  0  0  0  0  0  0  0
  -31.7968   -5.2280   -3.5081 C   0  0  0  0  0  0  0  0  0  0  0  0
  -31.5125   -6.2327   -4.6121 C   0  0  0  0  0  0  0  0  0  0  0  0
  -27.1066   -5.9065   -4.4313 C   0  0  0  0  0  0  0  0  0  0  0  0
  -28.1164   -4.6407   -3.6530 S   0  0  0  0  0  0  0  0  0  0  0  0
  -28.0968   -3.3579   -4.9284 C   0  0  0  0  0  0  0  0  0  0  0  0
  -27.9314   -1.9450   -4.3970 C   0  0  0  0  0  0  0  0  0  0  0  0
 40 41  1  0  0  0
 41 39  1  0  0  0
 39 38  1  0  0  0
 38  1  1  0  0  0
  1  2  1  0  0  0
  1  6  2  0  0  0
  2  3  2  0  0  0
  3  4  1  0  0  0
  4  5  2  0  0  0
  4 20  1  0  0  0
  5  6  1  0  0  0
  5  7  1  0  0  0
  7  8  1  0  0  0
  7 19  2  0  0  0
  8  9  2  0  0  0
  8 30  1  0  0  0
  9 10  1  0  0  0
  9 28  1  0  0  0
 10 11  1  0  0  0
 10 18  2  0  0  0
 11 12  1  0  0  0
 11 16  2  0  0  0
 12 13  2  0  0  0
 13 14  1  0  0  0
 13 42  1  0  0  0
 42 43  1  0  0  0
 43 44  1  0  0  0
 44 45  1  0  0  0
 14 15  2  0  0  0
 15 16  1  0  0  0
 16 17  1  0  0  0
 17 18  1  0  0  0
 17 25  1  0  0  0
 18 19  1  0  0  0
 19 20  1  0  0  0
 20 21  1  0  0  0
 21 22  1  0  0  0
 21 27  1  0  0  0
 22 23  1  0  0  0
 23 25  1  0  0  0
 23 34  1  0  0  0
 23 24  1  0  0  0
 24 32  1  0  0  0
 34 35  2  0  0  0
 34 36  1  0  0  0
 36 37  1  0  0  0
 25 27  1  0  0  0
 25 26  1  0  0  0
 28 29  1  0  0  0
 29 30  1  0  0  0
 29 33  1  0  0  0
 30 31  2  0  0  0
M  END
> <minimizedAffinity>
-4.96688

$$$$
