CHEMBL3898627


 36 40  0  0  0  0  0  0  0  0999 V2000
  -12.7993    1.2129  -14.9359 C   0  0  0  0  0  0  0  0  0  0  0  0
  -12.7404    1.8173  -16.1969 C   0  0  0  0  0  0  0  0  0  0  0  0
  -13.7569    2.6204  -16.6982 C   0  0  0  0  0  0  0  0  0  0  0  0
  -13.6566    3.0942  -17.9424 N   0  0  0  0  0  0  0  0  0  0  0  0
  -14.6866    3.8100  -18.4029 C   0  0  0  0  0  0  0  0  0  0  0  0
  -15.7917    4.1145  -17.7208 N   0  0  0  0  0  0  0  0  0  0  0  0
  -15.8725    3.6564  -16.4571 C   0  0  0  0  0  0  0  0  0  0  0  0
  -14.8651    2.8627  -15.8813 C   0  0  0  0  0  0  0  0  0  0  0  0
  -14.9211    2.2900  -14.5851 C   0  0  0  0  0  0  0  0  0  0  0  0
  -13.8876    1.4843  -14.1028 C   0  0  0  0  0  0  0  0  0  0  0  0
  -17.0120    3.9975  -15.6752 N   0  0  0  0  0  0  0  0  0  0  0  0
  -17.3562    4.9006  -15.9842 H   0  0  0  0  0  0  0  0  0  0  0  0
  -18.0571    3.1043  -15.3583 C   0  0  0  0  0  0  0  0  0  0  0  0
  -17.8853    1.7211  -15.4992 C   0  0  0  0  0  0  0  0  0  0  0  0
  -18.9365    0.8394  -15.2452 C   0  0  0  0  0  0  0  0  0  0  0  0
  -20.1756    1.3350  -14.8391 C   0  0  0  0  0  0  0  0  0  0  0  0
  -21.4516    0.1979  -14.5960 Cl  0  0  0  0  0  0  0  0  0  0  0  0
  -20.3503    2.7120  -14.6606 C   0  0  0  0  0  0  0  0  0  0  0  0
  -21.8587    3.3958  -14.1623 Cl  0  0  0  0  0  0  0  0  0  0  0  0
  -19.2895    3.5905  -14.9080 C   0  0  0  0  0  0  0  0  0  0  0  0
  -14.1258    0.8878  -12.8951 O   0  0  0  0  0  0  0  0  0  0  0  0
  -15.3845    0.2189  -12.7983 C   0  0  0  0  0  0  0  0  0  0  0  0
  -11.7464    0.3670  -14.7075 O   0  0  0  0  0  0  0  0  0  0  0  0
  -11.9770   -1.0115  -14.9623 C   0  0  0  0  0  0  0  0  0  0  0  0
  -12.9916   -2.9310  -12.1768 C   0  0  0  0  0  0  0  0  0  0  0  0
  -11.9438   -2.3144  -11.6090 N   0  0  0  0  0  0  0  0  0  0  0  0
  -11.4869   -1.4684  -12.6272 O   0  0  0  0  0  0  0  0  0  0  0  0
  -12.3051   -1.6833  -13.6956 C   0  0  0  0  0  0  0  0  0  0  0  0
  -13.2214   -2.5948  -13.4864 N   0  0  0  0  0  0  0  0  0  0  0  0
  -14.4704   -3.1906  -10.2971 N   0  0  0  0  0  0  0  0  0  0  0  0
  -15.8565   -2.8880  -10.6607 C   0  0  0  0  0  0  0  0  0  0  0  0
  -16.2949   -4.0262  -11.5563 C   0  0  0  0  0  0  0  0  0  0  0  0
  -15.0413   -4.3781  -12.3342 C   0  0  0  0  0  0  0  0  0  0  0  0
  -13.8743   -3.9027  -11.4571 C   0  0  0  0  0  0  0  0  0  0  0  0
  -13.3590   -5.1175   -9.2217 C   0  0  0  0  0  0  0  0  0  0  0  0
  -14.2886   -3.9211   -9.0474 C   0  0  0  0  0  0  0  0  0  0  0  0
 35 36  1  0  0  0
 36 30  1  0  0  0
 30 31  1  0  0  0
 30 34  1  0  0  0
 31 32  1  0  0  0
 32 33  1  0  0  0
 33 34  1  0  0  0
 34 25  1  0  0  0
 25 26  2  0  0  0
 25 29  1  0  0  0
 26 27  1  0  0  0
 27 28  1  0  0  0
 28 24  1  0  0  0
 28 29  2  0  0  0
 24 23  1  0  0  0
 23  1  1  0  0  0
  1  2  1  0  0  0
  1 10  2  0  0  0
  2  3  2  0  0  0
  3  4  1  0  0  0
  3  8  1  0  0  0
  4  5  2  0  0  0
  5  6  1  0  0  0
  6  7  2  0  0  0
  7 11  1  0  0  0
  7  8  1  0  0  0
 11 13  1  0  0  0
 11 12  1  0  0  0
 13 14  1  0  0  0
 13 20  2  0  0  0
 14 15  2  0  0  0
 15 16  1  0  0  0
 16 17  1  0  0  0
 16 18  2  0  0  0
 18 19  1  0  0  0
 18 20  1  0  0  0
  8  9  2  0  0  0
  9 10  1  0  0  0
 10 21  1  0  0  0
 21 22  1  0  0  0
M  END
> <minimizedAffinity>
-8.53836

$$$$
