CHEMBL258015


 35 40  0  0  0  0  0  0  0  0999 V2000
  -29.9060   -4.3579   -3.7772 C   0  0  0  0  0  0  0  0  0  0  0  0
  -30.9696   -4.4618   -4.6765 C   0  0  0  0  0  0  0  0  0  0  0  0
  -31.0496   -5.5686   -5.4693 C   0  0  0  0  0  0  0  0  0  0  0  0
  -30.0728   -6.5299   -5.4052 C   0  0  0  0  0  0  0  0  0  0  0  0
  -28.9471   -6.5035   -4.5377 C   0  0  0  0  0  0  0  0  0  0  0  0
  -28.8719   -5.3494   -3.6966 C   0  0  0  0  0  0  0  0  0  0  0  0
  -28.2255   -7.6893   -4.8788 C   0  0  0  0  0  0  0  0  0  0  0  0
  -26.8972   -8.1449   -4.5540 C   0  0  0  0  0  0  0  0  0  0  0  0
  -26.2808   -9.3157   -5.3265 C   0  0  0  0  0  0  0  0  0  0  0  0
  -26.9191  -10.0037   -6.4702 C   0  0  0  0  0  0  0  0  0  0  0  0
  -28.1597   -9.3471   -6.6482 C   0  0  0  0  0  0  0  0  0  0  0  0
  -28.8261   -8.3733   -5.8651 C   0  0  0  0  0  0  0  0  0  0  0  0
  -29.9413   -7.6099   -6.2311 N   0  0  0  0  0  0  0  0  0  0  0  0
  -28.5893   -9.1804   -8.0628 C   0  0  0  0  0  0  0  0  0  0  0  0
  -28.0674   -9.3562   -9.4168 C   0  0  0  0  0  0  0  0  0  0  0  0
  -26.7863  -10.0905   -9.2492 C   0  0  0  0  0  0  0  0  0  0  0  0
  -26.5522  -10.8921  -10.2922 N   0  0  0  0  0  0  0  0  0  0  0  0
  -27.2099  -11.9710   -9.8345 N   0  0  0  0  0  0  0  0  0  0  0  0
  -28.2925  -12.4642  -10.7039 C   0  0  0  0  0  0  0  0  0  0  0  0
  -26.9901  -12.0272   -8.4068 C   0  0  0  0  0  0  0  0  0  0  0  0
  -26.4716  -10.7511   -7.9210 C   0  0  0  0  0  0  0  0  0  0  0  0
  -25.0059   -9.5113   -4.6296 C   0  0  0  0  0  0  0  0  0  0  0  0
  -24.1249  -10.3608   -4.6833 O   0  0  0  0  0  0  0  0  0  0  0  0
  -24.9151   -8.4946   -3.6484 N   0  0  0  0  0  0  0  0  0  0  0  0
  -26.0360   -7.5993   -3.5135 C   0  0  0  0  0  0  0  0  0  0  0  0
  -24.1555   -8.4881   -2.9717 H   0  0  0  0  0  0  0  0  0  0  0  0
  -30.6486   -3.2070   -1.8008 N   0  0  0  0  0  0  0  0  0  0  0  0
  -29.9535   -3.1431   -2.8946 C   0  0  0  0  0  0  0  0  0  0  0  0
  -29.2073   -1.8883   -3.3706 C   0  0  0  0  0  0  0  0  0  0  0  0
  -29.7207   -2.0783   -0.0396 C   0  0  0  0  0  0  0  0  0  0  0  0
  -30.6070   -1.9751   -1.1322 O   0  0  0  0  0  0  0  0  0  0  0  0
  -30.5334   -7.7707   -7.5538 C   0  0  0  0  0  0  0  0  0  0  0  0
  -31.8162   -8.3723   -8.0959 C   0  0  0  0  0  0  0  0  0  0  0  0
  -31.6595   -9.8829   -8.3633 C   0  0  0  0  0  0  0  0  0  0  0  0
  -32.8586   -8.2365   -6.9465 C   0  0  0  0  0  0  0  0  0  0  0  0
 30 31  1  0  0  0
 31 27  1  0  0  0
 27 28  2  0  0  0
 28 29  1  0  0  0
 28  1  1  0  0  0
  1  2  1  0  0  0
  1  6  2  0  0  0
  2  3  2  0  0  0
  3  4  1  0  0  0
  4  5  2  0  0  0
  4 13  1  0  0  0
  5  6  1  0  0  0
  5  7  1  0  0  0
  7  8  1  0  0  0
  7 12  2  0  0  0
  8  9  2  0  0  0
  8 25  1  0  0  0
  9 10  1  0  0  0
  9 22  1  0  0  0
 10 11  2  0  0  0
 10 21  1  0  0  0
 11 12  1  0  0  0
 11 14  1  0  0  0
 12 13  1  0  0  0
 13 32  1  0  0  0
 32 33  1  0  0  0
 33 34  1  0  0  0
 33 35  1  0  0  0
 14 15  1  0  0  0
 15 16  1  0  0  0
 16 17  2  0  0  0
 16 21  1  0  0  0
 17 18  1  0  0  0
 18 19  1  0  0  0
 18 20  1  0  0  0
 20 21  2  0  0  0
 22 23  2  0  0  0
 22 24  1  0  0  0
 24 25  1  0  0  0
 24 26  1  0  0  0
M  END
> <minimizedAffinity>
-2.55757

$$$$
