CHEMBL3590221


 35 39  0  0  0  0  0  0  0  0999 V2000
  -14.9548   -0.9881  -14.0202 C   0  0  0  0  0  0  0  0  0  0  0  0
  -13.7461   -0.9498  -14.6964 C   0  0  0  0  0  0  0  0  0  0  0  0
  -13.4452    0.0442  -15.5851 N   0  0  0  0  0  0  0  0  0  0  0  0
  -14.3961    0.9794  -15.8216 C   0  0  0  0  0  0  0  0  0  0  0  0
  -14.0362    1.8591  -16.8293 N   0  0  0  0  0  0  0  0  0  0  0  0
  -15.6107    0.9545  -15.1254 C   0  0  0  0  0  0  0  0  0  0  0  0
  -15.8816   -0.0298  -14.1969 N   0  0  0  0  0  0  0  0  0  0  0  0
  -13.1128    1.5512  -17.1542 H   0  0  0  0  0  0  0  0  0  0  0  0
  -14.6945    1.8446  -17.6029 H   0  0  0  0  0  0  0  0  0  0  0  0
  -16.7026    1.7792  -15.4778 N   0  0  0  0  0  0  0  0  0  0  0  0
  -16.4206    3.0082  -16.0041 N   0  0  0  0  0  0  0  0  0  0  0  0
  -17.4019    3.8176  -15.6718 N   0  0  0  0  0  0  0  0  0  0  0  0
  -18.4426    3.0337  -15.2799 C   0  0  0  0  0  0  0  0  0  0  0  0
  -19.7349    3.3715  -14.8760 C   0  0  0  0  0  0  0  0  0  0  0  0
  -20.7300    2.4337  -15.1119 C   0  0  0  0  0  0  0  0  0  0  0  0
  -20.3752    1.0915  -15.1458 C   0  0  0  0  0  0  0  0  0  0  0  0
  -19.0283    0.6862  -15.0698 C   0  0  0  0  0  0  0  0  0  0  0  0
  -18.0838    1.6902  -15.2799 C   0  0  0  0  0  0  0  0  0  0  0  0
  -15.6005   -4.0028  -12.3078 N   0  0  0  0  0  0  0  0  0  0  0  0
  -15.9522   -3.2187  -11.2568 N   0  0  0  0  0  0  0  0  0  0  0  0
  -15.7402   -1.9970  -11.7513 C   0  0  0  0  0  0  0  0  0  0  0  0
  -15.2711   -2.0876  -13.0857 C   0  0  0  0  0  0  0  0  0  0  0  0
  -15.1601   -3.3839  -13.4281 N   0  0  0  0  0  0  0  0  0  0  0  0
  -13.0566   -7.8457  -14.4887 C   0  0  0  0  0  0  0  0  0  0  0  0
  -12.1032   -8.3662  -13.8948 O   0  0  0  0  0  0  0  0  0  0  0  0
  -13.8877   -6.9172  -13.8767 N   0  0  0  0  0  0  0  0  0  0  0  0
  -13.4414   -6.2848  -12.6306 C   0  0  0  0  0  0  0  0  0  0  0  0
  -14.6000   -6.1446  -11.6480 C   0  0  0  0  0  0  0  0  0  0  0  0
  -15.8045   -5.4497  -12.2644 C   0  0  0  0  0  0  0  0  0  0  0  0
  -16.1767   -6.0614  -13.6375 C   0  0  0  0  0  0  0  0  0  0  0  0
  -14.9789   -6.2417  -14.5722 C   0  0  0  0  0  0  0  0  0  0  0  0
  -13.3603   -8.2540  -15.9424 C   0  0  0  0  0  0  0  0  0  0  0  0
  -12.9506  -10.5434  -16.6672 C   0  0  0  0  0  0  0  0  0  0  0  0
  -12.3575   -9.2182  -16.4544 N   0  0  0  0  0  0  0  0  0  0  0  0
  -11.7720   -8.7227  -17.6986 C   0  0  0  0  0  0  0  0  0  0  0  0
 33 34  1  0  0  0
 34 35  1  0  0  0
 34 32  1  0  0  0
 32 24  1  0  0  0
 24 25  2  0  0  0
 24 26  1  0  0  0
 26 27  1  0  0  0
 26 31  1  0  0  0
 27 28  1  0  0  0
 28 29  1  0  0  0
 29 19  1  0  0  0
 29 30  1  0  0  0
 19 20  1  0  0  0
 19 23  1  0  0  0
 20 21  2  0  0  0
 21 22  1  0  0  0
 22  1  1  0  0  0
 22 23  2  0  0  0
  1  2  1  0  0  0
  1  7  2  0  0  0
  2  3  2  0  0  0
  3  4  1  0  0  0
  4  5  1  0  0  0
  4  6  2  0  0  0
  5  8  1  0  0  0
  5  9  1  0  0  0
  6 10  1  0  0  0
  6  7  1  0  0  0
 10 11  1  0  0  0
 10 18  1  0  0  0
 11 12  2  0  0  0
 12 13  1  0  0  0
 13 14  1  0  0  0
 13 18  2  0  0  0
 14 15  2  0  0  0
 15 16  1  0  0  0
 16 17  2  0  0  0
 17 18  1  0  0  0
 30 31  1  0  0  0
M  END
> <minimizedAffinity>
-8.97506

$$$$
