CHEMBL4303275


 30 31  0  0  0  0  0  0  0  0999 V2000
  -30.2128   -4.9407   -4.4923 N   0  0  0  0  0  0  0  0  0  0  0  0
  -29.7757   -3.6251   -4.1803 C   0  0  0  0  0  0  0  0  0  0  0  0
  -30.1081   -3.1048   -2.9355 N   0  0  0  0  0  0  0  0  0  0  0  0
  -29.0672   -2.8719   -5.0751 C   0  0  0  0  0  0  0  0  0  0  0  0
  -28.7750   -3.4763   -6.4003 C   0  0  0  0  0  0  0  0  0  0  0  0
  -28.2456   -2.8333   -7.3112 O   0  0  0  0  0  0  0  0  0  0  0  0
  -29.1125   -4.8807   -6.6426 C   0  0  0  0  0  0  0  0  0  0  0  0
  -28.6818   -5.5064   -7.8127 C   0  0  0  0  0  0  0  0  0  0  0  0
  -29.0120   -6.8366   -8.0397 C   0  0  0  0  0  0  0  0  0  0  0  0
  -29.7903   -7.4776   -7.0964 C   0  0  0  0  0  0  0  0  0  0  0  0
  -30.2090   -6.8896   -5.9473 N   0  0  0  0  0  0  0  0  0  0  0  0
  -29.8521   -5.5875   -5.7037 C   0  0  0  0  0  0  0  0  0  0  0  0
  -30.3574   -3.7739   -2.2280 H   0  0  0  0  0  0  0  0  0  0  0  0
  -29.4304   -2.4052   -2.5926 H   0  0  0  0  0  0  0  0  0  0  0  0
  -28.5725   -1.4677   -4.7550 C   0  0  0  0  0  0  0  0  0  0  0  0
  -27.6483   -1.2718   -3.9682 O   0  0  0  0  0  0  0  0  0  0  0  0
  -29.2017   -0.4348   -5.4247 N   0  0  0  0  0  0  0  0  0  0  0  0
  -28.8654    0.9656   -5.2574 C   0  0  0  0  0  0  0  0  0  0  0  0
  -29.8863   -0.6728   -6.1384 H   0  0  0  0  0  0  0  0  0  0  0  0
  -32.3041   -5.3846   -3.2536 C   0  0  0  0  0  0  0  0  0  0  0  0
  -30.8732   -5.8426   -3.5300 C   0  0  0  0  0  0  0  0  0  0  0  0
  -30.2286   -8.8279   -7.3267 C   0  0  0  0  0  0  0  0  0  0  0  0
  -30.5892  -10.0553   -7.5795 C   0  0  0  0  0  0  0  0  0  0  0  0
  -31.0095  -11.4859   -7.8742 C   0  0  0  0  0  0  0  0  0  0  0  0
  -31.4637  -12.1683   -6.5832 C   0  0  0  0  0  0  0  0  0  0  0  0
  -32.1100  -11.4336   -8.7849 O   0  0  0  0  0  0  0  0  0  0  0  0
  -32.8357  -10.9732   -8.3334 H   0  0  0  0  0  0  0  0  0  0  0  0
  -29.8301  -12.2402   -8.5287 C   0  0  0  0  0  0  0  0  0  0  0  0
  -29.3095  -11.5110   -9.6489 O   0  0  0  0  0  0  0  0  0  0  0  0
  -27.9327  -11.7884   -9.8604 C   0  0  0  0  0  0  0  0  0  0  0  0
 20 21  1  0  0  0
 21  1  1  0  0  0
  1  2  1  0  0  0
  1 12  1  0  0  0
  2  3  1  0  0  0
  2  4  2  0  0  0
  3 13  1  0  0  0
  3 14  1  0  0  0
  4 15  1  0  0  0
  4  5  1  0  0  0
 15 16  2  0  0  0
 15 17  1  0  0  0
 17 18  1  0  0  0
 17 19  1  0  0  0
  5  6  2  0  0  0
  5  7  1  0  0  0
  7  8  1  0  0  0
  7 12  2  0  0  0
  8  9  2  0  0  0
  9 10  1  0  0  0
 10 22  1  0  0  0
 10 11  2  0  0  0
 22 23  3  0  0  0
 24 23  1  0  0  0
 24 25  1  0  0  0
 24 26  1  0  0  0
 24 28  1  0  0  0
 26 27  1  0  0  0
 28 29  1  0  0  0
 29 30  1  0  0  0
 11 12  1  0  0  0
M  END
> <minimizedAffinity>
-7.34273

$$$$
