CHEMBL254494


 37 42  0  0  0  0  0  0  0  0999 V2000
  -28.1070   -2.0851   -7.3130 C   0  0  0  0  0  0  0  0  0  0  0  0
  -28.2489   -0.7946   -6.7756 C   0  0  0  0  0  0  0  0  0  0  0  0
  -29.0818   -0.5314   -5.6634 C   0  0  0  0  0  0  0  0  0  0  0  0
  -29.8066   -1.5494   -5.0453 C   0  0  0  0  0  0  0  0  0  0  0  0
  -29.6836   -2.8097   -5.5821 C   0  0  0  0  0  0  0  0  0  0  0  0
  -28.8601   -3.0754   -6.7097 C   0  0  0  0  0  0  0  0  0  0  0  0
  -28.9504   -4.5369   -7.0447 C   0  0  0  0  0  0  0  0  0  0  0  0
  -28.3809   -5.1041   -7.9578 O   0  0  0  0  0  0  0  0  0  0  0  0
  -29.8493   -5.0674   -6.0478 C   0  0  0  0  0  0  0  0  0  0  0  0
  -30.2758   -4.0479   -5.1926 C   0  0  0  0  0  0  0  0  0  0  0  0
  -31.1138   -4.4543   -4.2522 N   0  0  0  0  0  0  0  0  0  0  0  0
  -31.2166   -5.7818   -4.5297 N   0  0  0  0  0  0  0  0  0  0  0  0
  -30.4861   -6.2096   -5.6344 C   0  0  0  0  0  0  0  0  0  0  0  0
  -31.8072   -6.3476   -3.9299 H   0  0  0  0  0  0  0  0  0  0  0  0
  -30.5118   -7.5770   -6.1372 C   0  0  0  0  0  0  0  0  0  0  0  0
  -29.5082   -8.4995   -5.7662 C   0  0  0  0  0  0  0  0  0  0  0  0
  -29.4976   -9.8041   -6.2761 C   0  0  0  0  0  0  0  0  0  0  0  0
  -30.4958  -10.1559   -7.1556 C   0  0  0  0  0  0  0  0  0  0  0  0
  -31.4800   -9.2702   -7.5178 C   0  0  0  0  0  0  0  0  0  0  0  0
  -31.5204   -7.9830   -7.0271 C   0  0  0  0  0  0  0  0  0  0  0  0
  -32.3630   -9.8042   -8.4040 O   0  0  0  0  0  0  0  0  0  0  0  0
  -31.7979  -11.1195   -8.5861 C   0  0  0  0  0  0  0  0  0  0  0  0
  -30.6345  -11.3616   -7.7679 O   0  0  0  0  0  0  0  0  0  0  0  0
  -28.0054   -0.7691   -9.8638 O   0  0  0  0  0  0  0  0  0  0  0  0
  -27.3074   -1.7483   -9.6352 C   0  0  0  0  0  0  0  0  0  0  0  0
  -26.4890   -2.3669  -10.5669 N   0  0  0  0  0  0  0  0  0  0  0  0
  -27.2669   -2.3917   -8.4092 N   0  0  0  0  0  0  0  0  0  0  0  0
  -26.1644   -3.2915  -10.3269 H   0  0  0  0  0  0  0  0  0  0  0  0
  -26.4328   -2.9355   -8.2037 H   0  0  0  0  0  0  0  0  0  0  0  0
  -26.3624   -1.9854  -11.9238 C   0  0  0  0  0  0  0  0  0  0  0  0
  -27.4178   -2.0377  -12.8415 C   0  0  0  0  0  0  0  0  0  0  0  0
  -27.2085   -1.7561  -14.1941 C   0  0  0  0  0  0  0  0  0  0  0  0
  -25.9385   -1.4030  -14.6274 C   0  0  0  0  0  0  0  0  0  0  0  0
  -25.6823   -1.1573  -15.9427 O   0  0  0  0  0  0  0  0  0  0  0  0
  -24.8881   -1.2948  -13.7249 C   0  0  0  0  0  0  0  0  0  0  0  0
  -25.1022   -1.5706  -12.3705 C   0  0  0  0  0  0  0  0  0  0  0  0
  -26.4993   -1.3068  -16.4471 H   0  0  0  0  0  0  0  0  0  0  0  0
 24 25  2  0  0  0
 25 26  1  0  0  0
 25 27  1  0  0  0
 26 30  1  0  0  0
 26 28  1  0  0  0
 30 31  1  0  0  0
 30 36  2  0  0  0
 31 32  2  0  0  0
 32 33  1  0  0  0
 33 34  1  0  0  0
 33 35  2  0  0  0
 34 37  1  0  0  0
 35 36  1  0  0  0
 27  1  1  0  0  0
 27 29  1  0  0  0
  1  2  1  0  0  0
  1  6  2  0  0  0
  2  3  2  0  0  0
  3  4  1  0  0  0
  4  5  2  0  0  0
  5  6  1  0  0  0
  5 10  1  0  0  0
  6  7  1  0  0  0
  7  8  2  0  0  0
  7  9  1  0  0  0
  9 10  1  0  0  0
  9 13  2  0  0  0
 10 11  2  0  0  0
 11 12  1  0  0  0
 12 13  1  0  0  0
 12 14  1  0  0  0
 13 15  1  0  0  0
 15 16  1  0  0  0
 15 20  2  0  0  0
 16 17  2  0  0  0
 17 18  1  0  0  0
 18 19  2  0  0  0
 18 23  1  0  0  0
 19 20  1  0  0  0
 19 21  1  0  0  0
 21 22  1  0  0  0
 22 23  1  0  0  0
M  END
> <minimizedAffinity>
-12.11291

$$$$
