CHEMBL178484


 28 30  0  0  0  0  0  0  0  0999 V2000
  -15.8136   -2.0355  -13.2021 C   0  0  0  0  0  0  0  0  0  0  0  0
  -15.4667   -1.2490  -12.1068 C   0  0  0  0  0  0  0  0  0  0  0  0
  -15.5605    0.1041  -12.0980 N   0  0  0  0  0  0  0  0  0  0  0  0
  -16.0756    0.6470  -13.2260 C   0  0  0  0  0  0  0  0  0  0  0  0
  -16.4382   -0.0959  -14.3490 C   0  0  0  0  0  0  0  0  0  0  0  0
  -16.2971   -1.4421  -14.3315 N   0  0  0  0  0  0  0  0  0  0  0  0
  -15.1069   -4.3105  -14.1841 C   0  0  0  0  0  0  0  0  0  0  0  0
  -15.0903   -5.6961  -13.9405 C   0  0  0  0  0  0  0  0  0  0  0  0
  -15.7492   -6.3435  -12.9499 N   0  0  0  0  0  0  0  0  0  0  0  0
  -16.4551   -5.5738  -12.1115 C   0  0  0  0  0  0  0  0  0  0  0  0
  -16.4915   -4.1952  -12.1994 C   0  0  0  0  0  0  0  0  0  0  0  0
  -15.7852   -3.5196  -13.2215 C   0  0  0  0  0  0  0  0  0  0  0  0
  -14.3901   -3.7258  -15.2565 N   0  0  0  0  0  0  0  0  0  0  0  0
  -14.9039   -3.8630  -16.1269 H   0  0  0  0  0  0  0  0  0  0  0  0
  -12.9973   -4.1481  -15.4561 C   0  0  0  0  0  0  0  0  0  0  0  0
  -12.1276   -2.9226  -15.7390 C   0  0  0  0  0  0  0  0  0  0  0  0
  -13.7005   -1.1641  -16.1844 O   0  0  0  0  0  0  0  0  0  0  0  0
  -12.7830   -1.6531  -15.2158 C   0  0  0  0  0  0  0  0  0  0  0  0
  -14.1151   -0.3665  -15.8136 H   0  0  0  0  0  0  0  0  0  0  0  0
  -17.0712    0.5391  -15.4458 N   0  0  0  0  0  0  0  0  0  0  0  0
  -17.1546   -0.1026  -16.2290 H   0  0  0  0  0  0  0  0  0  0  0  0
  -18.2694    1.2937  -15.3657 C   0  0  0  0  0  0  0  0  0  0  0  0
  -18.2776    2.6900  -15.5019 C   0  0  0  0  0  0  0  0  0  0  0  0
  -19.4505    3.4214  -15.3026 C   0  0  0  0  0  0  0  0  0  0  0  0
  -20.6289    2.7668  -14.9561 C   0  0  0  0  0  0  0  0  0  0  0  0
  -20.6256    1.3834  -14.8047 C   0  0  0  0  0  0  0  0  0  0  0  0
  -22.0800    0.5720  -14.3664 Cl  0  0  0  0  0  0  0  0  0  0  0  0
  -19.4514    0.6468  -14.9887 C   0  0  0  0  0  0  0  0  0  0  0  0
 17 18  1  0  0  0
 17 19  1  0  0  0
 18 16  1  0  0  0
 16 15  1  0  0  0
 15 13  1  0  0  0
 13  7  1  0  0  0
 13 14  1  0  0  0
  7  8  1  0  0  0
  7 12  2  0  0  0
  8  9  2  0  0  0
  9 10  1  0  0  0
 10 11  2  0  0  0
 11 12  1  0  0  0
 12  1  1  0  0  0
  1  2  1  0  0  0
  1  6  2  0  0  0
  2  3  2  0  0  0
  3  4  1  0  0  0
  4  5  2  0  0  0
  5 20  1  0  0  0
  5  6  1  0  0  0
 20 22  1  0  0  0
 20 21  1  0  0  0
 22 23  1  0  0  0
 22 28  2  0  0  0
 23 24  2  0  0  0
 24 25  1  0  0  0
 25 26  2  0  0  0
 26 27  1  0  0  0
 26 28  1  0  0  0
M  END
> <minimizedAffinity>
-7.14516

$$$$
