CHEMBL3919150


 37 41  0  0  0  0  0  0  0  0999 V2000
  -28.1000   -1.9063  -10.1232 N   0  0  0  0  0  0  0  0  0  0  0  0
  -28.9669   -2.1564  -10.5890 H   0  0  0  0  0  0  0  0  0  0  0  0
  -27.0183   -1.7405  -11.0066 C   0  0  0  0  0  0  0  0  0  0  0  0
  -25.7482   -1.3740  -10.5427 C   0  0  0  0  0  0  0  0  0  0  0  0
  -24.7031   -1.0765  -11.4237 C   0  0  0  0  0  0  0  0  0  0  0  0
  -24.9452   -1.1478  -12.8071 C   0  0  0  0  0  0  0  0  0  0  0  0
  -24.2121   -0.8678  -13.9992 C   0  0  0  0  0  0  0  0  0  0  0  0
  -24.9451   -1.1268  -15.0927 N   0  0  0  0  0  0  0  0  0  0  0  0
  -26.1179   -1.5559  -14.6085 N   0  0  0  0  0  0  0  0  0  0  0  0
  -26.1928   -1.5767  -13.2446 C   0  0  0  0  0  0  0  0  0  0  0  0
  -27.2411   -1.9052  -12.3794 C   0  0  0  0  0  0  0  0  0  0  0  0
  -26.8458   -1.8056  -15.2682 H   0  0  0  0  0  0  0  0  0  0  0  0
  -22.8683   -0.3646  -14.0325 C   0  0  0  0  0  0  0  0  0  0  0  0
  -22.5332    0.8688  -14.4492 C   0  0  0  0  0  0  0  0  0  0  0  0
  -21.1679    1.4068  -14.5321 C   0  0  0  0  0  0  0  0  0  0  0  0
  -20.0894    0.6647  -15.0317 C   0  0  0  0  0  0  0  0  0  0  0  0
  -18.8244    1.2451  -15.1613 C   0  0  0  0  0  0  0  0  0  0  0  0
  -18.6256    2.5762  -14.8022 C   0  0  0  0  0  0  0  0  0  0  0  0
  -19.6898    3.3275  -14.3103 C   0  0  0  0  0  0  0  0  0  0  0  0
  -20.9535    2.7464  -14.1788 C   0  0  0  0  0  0  0  0  0  0  0  0
  -28.1399   -3.8499   -6.9594 C   0  0  0  0  0  0  0  0  0  0  0  0
  -28.2119   -3.5130   -8.3139 C   0  0  0  0  0  0  0  0  0  0  0  0
  -28.0513   -2.1926   -8.7454 C   0  0  0  0  0  0  0  0  0  0  0  0
  -27.8467   -1.1923   -7.7839 C   0  0  0  0  0  0  0  0  0  0  0  0
  -27.7840   -1.5066   -6.4267 C   0  0  0  0  0  0  0  0  0  0  0  0
  -27.9346   -2.8291   -6.0258 C   0  0  0  0  0  0  0  0  0  0  0  0
  -27.8610   -3.1239   -4.7180 F   0  0  0  0  0  0  0  0  0  0  0  0
  -30.4695   -5.1342   -5.7217 O   0  0  0  0  0  0  0  0  0  0  0  0
  -29.3963   -5.7061   -5.8858 C   0  0  0  0  0  0  0  0  0  0  0  0
  -28.2682   -5.1792   -6.4884 N   0  0  0  0  0  0  0  0  0  0  0  0
  -27.5153   -5.8108   -6.7435 H   0  0  0  0  0  0  0  0  0  0  0  0
  -29.3077   -7.1173   -5.4572 C   0  0  0  0  0  0  0  0  0  0  0  0
  -28.6939   -7.3808   -4.2269 C   0  0  0  0  0  0  0  0  0  0  0  0
  -28.5200   -8.6944   -3.8002 C   0  0  0  0  0  0  0  0  0  0  0  0
  -28.9500   -9.7467   -4.6074 C   0  0  0  0  0  0  0  0  0  0  0  0
  -29.5515   -9.4875   -5.8411 C   0  0  0  0  0  0  0  0  0  0  0  0
  -29.7353   -8.1702   -6.2720 C   0  0  0  0  0  0  0  0  0  0  0  0
 28 29  2  0  0  0
 29 30  1  0  0  0
 29 32  1  0  0  0
 30 21  1  0  0  0
 30 31  1  0  0  0
 21 22  1  0  0  0
 21 26  2  0  0  0
 22 23  2  0  0  0
 23  1  1  0  0  0
 23 24  1  0  0  0
  1  3  1  0  0  0
  1  2  1  0  0  0
  3  4  1  0  0  0
  3 11  2  0  0  0
  4  5  2  0  0  0
  5  6  1  0  0  0
  6  7  1  0  0  0
  6 10  2  0  0  0
  7 13  1  0  0  0
  7  8  2  0  0  0
 13 14  2  0  0  0
 14 15  1  0  0  0
 15 16  1  0  0  0
 15 20  2  0  0  0
 16 17  2  0  0  0
 17 18  1  0  0  0
 18 19  2  0  0  0
 19 20  1  0  0  0
  8  9  1  0  0  0
  9 10  1  0  0  0
  9 12  1  0  0  0
 10 11  1  0  0  0
 24 25  2  0  0  0
 25 26  1  0  0  0
 26 27  1  0  0  0
 32 33  1  0  0  0
 32 37  2  0  0  0
 33 34  2  0  0  0
 34 35  1  0  0  0
 35 36  2  0  0  0
 36 37  1  0  0  0
M  END
> <minimizedAffinity>
-11.65060

$$$$
