CHEMBL498013


 33 37  0  0  0  0  0  0  0  0999 V2000
  -22.2800    1.0281  -13.8256 C   0  0  0  0  0  0  0  0  0  0  0  0
  -22.5096    2.4156  -13.9102 C   0  0  0  0  0  0  0  0  0  0  0  0
  -21.5247    3.3358  -14.2870 C   0  0  0  0  0  0  0  0  0  0  0  0
  -20.2799    2.8029  -14.5918 C   0  0  0  0  0  0  0  0  0  0  0  0
  -19.1001    3.3816  -14.9704 N   0  0  0  0  0  0  0  0  0  0  0  0
  -18.1755    2.3890  -15.2003 C   0  0  0  0  0  0  0  0  0  0  0  0
  -18.7081    1.2010  -14.9529 N   0  0  0  0  0  0  0  0  0  0  0  0
  -20.0016    1.4449  -14.5571 C   0  0  0  0  0  0  0  0  0  0  0  0
  -21.0054    0.5459  -14.1633 C   0  0  0  0  0  0  0  0  0  0  0  0
  -18.9166    4.3743  -15.0482 H   0  0  0  0  0  0  0  0  0  0  0  0
  -16.8753    2.7377  -15.6768 C   0  0  0  0  0  0  0  0  0  0  0  0
  -15.9484    1.7660  -15.8718 C   0  0  0  0  0  0  0  0  0  0  0  0
  -16.1782    0.4006  -15.6788 N   0  0  0  0  0  0  0  0  0  0  0  0
  -14.5877    2.1519  -16.3363 C   0  0  0  0  0  0  0  0  0  0  0  0
  -13.5910    1.2068  -16.6368 C   0  0  0  0  0  0  0  0  0  0  0  0
  -12.3236    1.6138  -17.0629 C   0  0  0  0  0  0  0  0  0  0  0  0
  -12.0448    2.9679  -17.1944 C   0  0  0  0  0  0  0  0  0  0  0  0
  -10.8321    3.3554  -17.6093 F   0  0  0  0  0  0  0  0  0  0  0  0
  -13.0088    3.9262  -16.9164 C   0  0  0  0  0  0  0  0  0  0  0  0
  -14.2742    3.5118  -16.4984 C   0  0  0  0  0  0  0  0  0  0  0  0
  -15.2562    4.4782  -16.2757 N   0  0  0  0  0  0  0  0  0  0  0  0
  -16.5430    4.1774  -15.9362 C   0  0  0  0  0  0  0  0  0  0  0  0
  -17.3872    5.0704  -15.8613 O   0  0  0  0  0  0  0  0  0  0  0  0
  -17.0791    0.2538  -15.2003 H   0  0  0  0  0  0  0  0  0  0  0  0
  -15.4446   -0.0416  -15.1322 H   0  0  0  0  0  0  0  0  0  0  0  0
  -15.0573    5.4575  -16.4278 H   0  0  0  0  0  0  0  0  0  0  0  0
  -27.0047   -1.6607  -12.5340 C   0  0  0  0  0  0  0  0  0  0  0  0
  -25.5610   -1.4900  -12.6825 N   0  0  0  0  0  0  0  0  0  0  0  0
  -25.2162   -1.2427  -14.1044 C   0  0  0  0  0  0  0  0  0  0  0  0
  -23.7111   -0.9501  -14.3213 C   0  0  0  0  0  0  0  0  0  0  0  0
  -23.3348    0.1958  -13.4820 N   0  0  0  0  0  0  0  0  0  0  0  0
  -23.5901   -0.0419  -12.0493 C   0  0  0  0  0  0  0  0  0  0  0  0
  -25.0913   -0.3543  -11.8521 C   0  0  0  0  0  0  0  0  0  0  0  0
 27 28  1  0  0  0
 28 29  1  0  0  0
 28 33  1  0  0  0
 29 30  1  0  0  0
 30 31  1  0  0  0
 31  1  1  0  0  0
 31 32  1  0  0  0
  1  2  1  0  0  0
  1  9  2  0  0  0
  2  3  2  0  0  0
  3  4  1  0  0  0
  4  5  1  0  0  0
  4  8  2  0  0  0
  5  6  1  0  0  0
  5 10  1  0  0  0
  6 11  1  0  0  0
  6  7  2  0  0  0
 11 12  2  0  0  0
 11 22  1  0  0  0
 12 13  1  0  0  0
 12 14  1  0  0  0
 13 24  1  0  0  0
 13 25  1  0  0  0
 14 15  1  0  0  0
 14 20  2  0  0  0
 15 16  2  0  0  0
 16 17  1  0  0  0
 17 18  1  0  0  0
 17 19  2  0  0  0
 19 20  1  0  0  0
 20 21  1  0  0  0
 21 22  1  0  0  0
 21 26  1  0  0  0
 22 23  2  0  0  0
  7  8  1  0  0  0
  8  9  1  0  0  0
 32 33  1  0  0  0
M  END
> <minimizedAffinity>
-9.00823

$$$$
