CHEMBL271600


 31 34  0  0  0  0  0  0  0  0999 V2000
  -23.3159    0.2177  -13.3607 C   0  0  0  0  0  0  0  0  0  0  0  0
  -23.2554    1.6171  -13.3388 C   0  0  0  0  0  0  0  0  0  0  0  0
  -22.2376    2.3197  -13.9888 C   0  0  0  0  0  0  0  0  0  0  0  0
  -21.2113    1.6571  -14.6621 C   0  0  0  0  0  0  0  0  0  0  0  0
  -21.2203    0.2646  -14.6530 C   0  0  0  0  0  0  0  0  0  0  0  0
  -22.2860   -0.4352  -14.0577 C   0  0  0  0  0  0  0  0  0  0  0  0
  -25.2854   -0.8831  -15.9181 N   0  0  0  0  0  0  0  0  0  0  0  0
  -25.9674   -1.2368  -14.8094 C   0  0  0  0  0  0  0  0  0  0  0  0
  -27.1610   -1.8291  -14.8802 N   0  0  0  0  0  0  0  0  0  0  0  0
  -27.5262   -2.1007  -13.5820 O   0  0  0  0  0  0  0  0  0  0  0  0
  -26.5652   -1.6539  -12.7359 C   0  0  0  0  0  0  0  0  0  0  0  0
  -26.6176   -1.7895  -11.3507 C   0  0  0  0  0  0  0  0  0  0  0  0
  -25.5455   -1.2694  -10.6390 C   0  0  0  0  0  0  0  0  0  0  0  0
  -24.5017   -0.6280  -11.3068 C   0  0  0  0  0  0  0  0  0  0  0  0
  -24.4515   -0.4870  -12.7252 C   0  0  0  0  0  0  0  0  0  0  0  0
  -25.5368   -1.0525  -13.4544 C   0  0  0  0  0  0  0  0  0  0  0  0
  -25.6714   -1.2036  -16.8003 H   0  0  0  0  0  0  0  0  0  0  0  0
  -24.2712   -0.9025  -15.9022 H   0  0  0  0  0  0  0  0  0  0  0  0
  -20.1829    2.3303  -15.3675 N   0  0  0  0  0  0  0  0  0  0  0  0
  -18.8311    2.1137  -15.1680 C   0  0  0  0  0  0  0  0  0  0  0  0
  -18.3776    1.3413  -14.3273 O   0  0  0  0  0  0  0  0  0  0  0  0
  -18.0208    2.8788  -15.9922 N   0  0  0  0  0  0  0  0  0  0  0  0
  -20.4567    3.0916  -15.9695 H   0  0  0  0  0  0  0  0  0  0  0  0
  -18.3994    3.7613  -16.3122 H   0  0  0  0  0  0  0  0  0  0  0  0
  -16.6059    2.7288  -16.0298 C   0  0  0  0  0  0  0  0  0  0  0  0
  -15.9972    1.4839  -16.2514 C   0  0  0  0  0  0  0  0  0  0  0  0
  -14.6145    1.3370  -16.1813 C   0  0  0  0  0  0  0  0  0  0  0  0
  -13.8178    2.4445  -15.9209 C   0  0  0  0  0  0  0  0  0  0  0  0
  -14.4137    3.6948  -15.7543 C   0  0  0  0  0  0  0  0  0  0  0  0
  -13.4188    5.0660  -15.4470 Cl  0  0  0  0  0  0  0  0  0  0  0  0
  -15.8000    3.8490  -15.8160 C   0  0  0  0  0  0  0  0  0  0  0  0
  7  8  1  0  0  0
  7 17  1  0  0  0
  7 18  1  0  0  0
  8  9  2  0  0  0
  8 16  1  0  0  0
  9 10  1  0  0  0
 10 11  1  0  0  0
 11 12  1  0  0  0
 11 16  2  0  0  0
 12 13  2  0  0  0
 13 14  1  0  0  0
 14 15  2  0  0  0
 15  1  1  0  0  0
 15 16  1  0  0  0
  1  2  1  0  0  0
  1  6  2  0  0  0
  2  3  2  0  0  0
  3  4  1  0  0  0
  4 19  1  0  0  0
  4  5  2  0  0  0
 19 20  1  0  0  0
 19 23  1  0  0  0
 20 21  2  0  0  0
 20 22  1  0  0  0
 22 25  1  0  0  0
 22 24  1  0  0  0
 25 26  1  0  0  0
 25 31  2  0  0  0
 26 27  2  0  0  0
 27 28  1  0  0  0
 28 29  2  0  0  0
 29 30  1  0  0  0
 29 31  1  0  0  0
  5  6  1  0  0  0
M  END
> <minimizedAffinity>
-9.76460

$$$$
