CHEMBL373798


 32 35  0  0  0  0  0  0  0  0999 V2000
  -29.3628   -3.7443   -6.3979 C   0  0  0  0  0  0  0  0  0  0  0  0
  -29.6155   -4.0186   -7.7432 C   0  0  0  0  0  0  0  0  0  0  0  0
  -29.1310   -3.1946   -8.7622 C   0  0  0  0  0  0  0  0  0  0  0  0
  -28.3031   -2.1098   -8.4807 C   0  0  0  0  0  0  0  0  0  0  0  0
  -27.9474   -1.8813   -7.1519 C   0  0  0  0  0  0  0  0  0  0  0  0
  -28.4842   -2.6767   -6.1246 C   0  0  0  0  0  0  0  0  0  0  0  0
  -28.1490   -6.8711   -6.9145 N   0  0  0  0  0  0  0  0  0  0  0  0
  -28.9142   -6.9918   -5.8206 C   0  0  0  0  0  0  0  0  0  0  0  0
  -29.0074   -8.1698   -5.2091 N   0  0  0  0  0  0  0  0  0  0  0  0
  -29.8344   -7.9328   -4.1905 N   0  0  0  0  0  0  0  0  0  0  0  0
  -30.2840   -6.6444   -4.1087 C   0  0  0  0  0  0  0  0  0  0  0  0
  -31.1510   -6.0537   -3.1871 C   0  0  0  0  0  0  0  0  0  0  0  0
  -31.4188   -4.7003   -3.3408 C   0  0  0  0  0  0  0  0  0  0  0  0
  -30.8380   -3.9729   -4.3791 C   0  0  0  0  0  0  0  0  0  0  0  0
  -29.9639   -4.5652   -5.3270 C   0  0  0  0  0  0  0  0  0  0  0  0
  -29.6858   -5.9617   -5.1769 C   0  0  0  0  0  0  0  0  0  0  0  0
  -27.7659   -7.7275   -7.2982 H   0  0  0  0  0  0  0  0  0  0  0  0
  -28.3244   -6.1543   -7.6077 H   0  0  0  0  0  0  0  0  0  0  0  0
  -30.0604   -8.7026   -3.5695 H   0  0  0  0  0  0  0  0  0  0  0  0
  -27.7817   -1.2683   -9.4906 N   0  0  0  0  0  0  0  0  0  0  0  0
  -26.8024   -1.6320  -10.3971 C   0  0  0  0  0  0  0  0  0  0  0  0
  -26.3794   -2.7699  -10.5612 O   0  0  0  0  0  0  0  0  0  0  0  0
  -26.3028   -0.5292  -11.0839 N   0  0  0  0  0  0  0  0  0  0  0  0
  -28.2848   -0.4154   -9.6903 H   0  0  0  0  0  0  0  0  0  0  0  0
  -26.2908    0.3219  -10.5406 H   0  0  0  0  0  0  0  0  0  0  0  0
  -25.2672   -0.6876  -12.0357 C   0  0  0  0  0  0  0  0  0  0  0  0
  -25.5597   -1.3170  -13.2497 C   0  0  0  0  0  0  0  0  0  0  0  0
  -24.5840   -1.3898  -14.2508 C   0  0  0  0  0  0  0  0  0  0  0  0
  -23.3063   -0.8865  -14.0237 C   0  0  0  0  0  0  0  0  0  0  0  0
  -23.0083   -0.3050  -12.7936 C   0  0  0  0  0  0  0  0  0  0  0  0
  -21.7778    0.1718  -12.5719 F   0  0  0  0  0  0  0  0  0  0  0  0
  -23.9764   -0.1982  -11.8017 C   0  0  0  0  0  0  0  0  0  0  0  0
  7  8  1  0  0  0
  7 17  1  0  0  0
  7 18  1  0  0  0
  8  9  2  0  0  0
  8 16  1  0  0  0
  9 10  1  0  0  0
 10 11  1  0  0  0
 10 19  1  0  0  0
 11 12  1  0  0  0
 11 16  2  0  0  0
 12 13  2  0  0  0
 13 14  1  0  0  0
 14 15  2  0  0  0
 15  1  1  0  0  0
 15 16  1  0  0  0
  1  2  1  0  0  0
  1  6  2  0  0  0
  2  3  2  0  0  0
  3  4  1  0  0  0
  4 20  1  0  0  0
  4  5  2  0  0  0
 20 21  1  0  0  0
 20 24  1  0  0  0
 21 22  2  0  0  0
 21 23  1  0  0  0
 23 26  1  0  0  0
 23 25  1  0  0  0
 26 27  1  0  0  0
 26 32  2  0  0  0
 27 28  2  0  0  0
 28 29  1  0  0  0
 29 30  2  0  0  0
 30 31  1  0  0  0
 30 32  1  0  0  0
  5  6  1  0  0  0
M  END
> <minimizedAffinity>
-9.63561

$$$$
