CHEMBL318835


 26 29  0  0  0  0  0  0  0  0999 V2000
  -27.7885   -2.0121   -8.0876 N   0  0  0  0  0  0  0  0  0  0  0  0
  -28.2709   -3.2687   -7.8314 C   0  0  0  0  0  0  0  0  0  0  0  0
  -29.0137   -3.2226   -6.6679 C   0  0  0  0  0  0  0  0  0  0  0  0
  -28.9659   -1.8692   -6.1955 C   0  0  0  0  0  0  0  0  0  0  0  0
  -29.5305   -1.1867   -5.0931 C   0  0  0  0  0  0  0  0  0  0  0  0
  -29.2887    0.1776   -4.9106 C   0  0  0  0  0  0  0  0  0  0  0  0
  -28.5047    0.8785   -5.8195 C   0  0  0  0  0  0  0  0  0  0  0  0
  -27.9468    0.2384   -6.9293 C   0  0  0  0  0  0  0  0  0  0  0  0
  -28.1894   -1.1357   -7.0984 C   0  0  0  0  0  0  0  0  0  0  0  0
  -29.7130   -4.3780   -6.1248 C   0  0  0  0  0  0  0  0  0  0  0  0
  -30.2525   -4.3681   -4.8425 C   0  0  0  0  0  0  0  0  0  0  0  0
  -30.9754   -5.3810   -4.3074 N   0  0  0  0  0  0  0  0  0  0  0  0
  -31.1553   -6.4709   -5.0907 C   0  0  0  0  0  0  0  0  0  0  0  0
  -30.6319   -6.6163   -6.3735 C   0  0  0  0  0  0  0  0  0  0  0  0
  -29.9018   -5.5377   -6.8860 C   0  0  0  0  0  0  0  0  0  0  0  0
  -30.8401   -7.8225   -7.1724 C   0  0  0  0  0  0  0  0  0  0  0  0
  -32.0614   -8.5635   -7.3214 C   0  0  0  0  0  0  0  0  0  0  0  0
  -31.9287   -9.6482   -8.1594 C   0  0  0  0  0  0  0  0  0  0  0  0
  -30.3459   -9.7863   -8.7812 S   0  0  0  0  0  0  0  0  0  0  0  0
  -29.8344   -8.3898   -7.9334 C   0  0  0  0  0  0  0  0  0  0  0  0
  -26.9959   -1.6677   -9.2596 C   0  0  0  0  0  0  0  0  0  0  0  0
  -27.8607   -1.5562  -10.5127 C   0  0  0  0  0  0  0  0  0  0  0  0
  -27.0708   -1.0387  -11.7198 C   0  0  0  0  0  0  0  0  0  0  0  0
  -28.1318   -2.2154  -13.5726 C   0  0  0  0  0  0  0  0  0  0  0  0
  -26.9037   -2.0298  -12.7955 N   0  0  0  0  0  0  0  0  0  0  0  0
  -25.8150   -1.6233  -13.6898 C   0  0  0  0  0  0  0  0  0  0  0  0
 24 25  1  0  0  0
 25 26  1  0  0  0
 25 23  1  0  0  0
 23 22  1  0  0  0
 22 21  1  0  0  0
 21  1  1  0  0  0
  1  2  1  0  0  0
  1  9  1  0  0  0
  2  3  2  0  0  0
  3 10  1  0  0  0
  3  4  1  0  0  0
 10 11  1  0  0  0
 10 15  2  0  0  0
 11 12  2  0  0  0
 12 13  1  0  0  0
 13 14  2  0  0  0
 14 16  1  0  0  0
 14 15  1  0  0  0
 16 17  1  0  0  0
 16 20  2  0  0  0
 17 18  2  0  0  0
 18 19  1  0  0  0
 19 20  1  0  0  0
  4  5  1  0  0  0
  4  9  2  0  0  0
  5  6  2  0  0  0
  6  7  1  0  0  0
  7  8  2  0  0  0
  8  9  1  0  0  0
M  END
> <minimizedAffinity>
-8.64696

$$$$
