CHEMBL4454772


 41 44  0  0  0  0  0  0  0  0999 V2000
  -24.6103   11.6105  -15.8125 C   0  0  0  0  0  0  0  0  0  0  0  0
  -23.7329   12.6589  -16.0784 C   0  0  0  0  0  0  0  0  0  0  0  0
  -22.9199   12.6267  -17.2150 C   0  0  0  0  0  0  0  0  0  0  0  0
  -22.9394   11.5479  -18.1037 C   0  0  0  0  0  0  0  0  0  0  0  0
  -23.7968   10.4771  -17.8182 C   0  0  0  0  0  0  0  0  0  0  0  0
  -24.6235   10.5062  -16.6769 C   0  0  0  0  0  0  0  0  0  0  0  0
  -22.1431   11.5065  -19.2799 N   0  0  0  0  0  0  0  0  0  0  0  0
  -20.7721   11.2954  -19.3153 C   0  0  0  0  0  0  0  0  0  0  0  0
  -20.0720   11.0184  -18.3476 O   0  0  0  0  0  0  0  0  0  0  0  0
  -20.2354   11.4859  -20.5839 N   0  0  0  0  0  0  0  0  0  0  0  0
  -22.6280   11.5294  -20.1654 H   0  0  0  0  0  0  0  0  0  0  0  0
  -20.6979   12.1998  -21.1286 H   0  0  0  0  0  0  0  0  0  0  0  0
  -18.8389   11.3440  -20.7892 C   0  0  0  0  0  0  0  0  0  0  0  0
  -18.0277   12.4706  -20.7086 C   0  0  0  0  0  0  0  0  0  0  0  0
  -16.6419   12.3360  -20.8289 C   0  0  0  0  0  0  0  0  0  0  0  0
  -16.0545   11.0852  -21.0708 C   0  0  0  0  0  0  0  0  0  0  0  0
  -14.3367   11.0674  -21.2309 Cl  0  0  0  0  0  0  0  0  0  0  0  0
  -16.8491    9.9406  -21.1742 C   0  0  0  0  0  0  0  0  0  0  0  0
  -18.2497   10.0938  -21.0310 C   0  0  0  0  0  0  0  0  0  0  0  0
  -16.3240    8.5481  -21.4100 C   0  0  0  0  0  0  0  0  0  0  0  0
  -15.5948    8.3604  -22.5415 F   0  0  0  0  0  0  0  0  0  0  0  0
  -15.5211    8.1228  -20.3926 F   0  0  0  0  0  0  0  0  0  0  0  0
  -17.3342    7.6322  -21.4807 F   0  0  0  0  0  0  0  0  0  0  0  0
  -26.8592   11.7596  -14.8675 N   0  0  0  0  0  0  0  0  0  0  0  0
  -25.4977   11.6294  -14.6109 C   0  0  0  0  0  0  0  0  0  0  0  0
  -24.9951   11.5183  -13.4964 O   0  0  0  0  0  0  0  0  0  0  0  0
  -27.2258   11.7539  -15.8196 H   0  0  0  0  0  0  0  0  0  0  0  0
  -31.2985   11.9261  -11.1228 C   0  0  0  0  0  0  0  0  0  0  0  0
  -32.4863   11.6178  -11.8268 C   0  0  0  0  0  0  0  0  0  0  0  0
  -32.4765   11.3244  -13.1981 C   0  0  0  0  0  0  0  0  0  0  0  0
  -31.2577   11.3494  -13.8351 C   0  0  0  0  0  0  0  0  0  0  0  0
  -30.0895   11.6591  -13.1422 C   0  0  0  0  0  0  0  0  0  0  0  0
  -30.0748   11.9522  -11.7918 C   0  0  0  0  0  0  0  0  0  0  0  0
  -28.9938   11.6048  -14.0998 C   0  0  0  0  0  0  0  0  0  0  0  0
  -27.7496   11.8462  -13.8319 N   0  0  0  0  0  0  0  0  0  0  0  0
  -29.6373   11.2231  -15.4362 C   0  0  0  0  0  0  0  0  0  0  0  0
  -29.0306   11.0773  -16.4766 O   0  0  0  0  0  0  0  0  0  0  0  0
  -30.9873   11.0939  -15.1779 N   0  0  0  0  0  0  0  0  0  0  0  0
  -31.6693   10.8455  -15.8795 H   0  0  0  0  0  0  0  0  0  0  0  0
  -32.7724   11.9151   -9.2598 C   0  0  0  0  0  0  0  0  0  0  0  0
  -31.4770   12.1800   -9.7889 O   0  0  0  0  0  0  0  0  0  0  0  0
 40 41  1  0  0  0
 41 28  1  0  0  0
 28 29  1  0  0  0
 28 33  2  0  0  0
 29 30  2  0  0  0
 30 31  1  0  0  0
 31 32  2  0  0  0
 31 38  1  0  0  0
 32 33  1  0  0  0
 32 34  1  0  0  0
 34 35  2  0  0  0
 34 36  1  0  0  0
 35 24  1  0  0  0
 24 25  1  0  0  0
 24 27  1  0  0  0
 25 26  2  0  0  0
 25  1  1  0  0  0
  1  2  1  0  0  0
  1  6  2  0  0  0
  2  3  2  0  0  0
  3  4  1  0  0  0
  4  7  1  0  0  0
  4  5  2  0  0  0
  7  8  1  0  0  0
  7 11  1  0  0  0
  8  9  2  0  0  0
  8 10  1  0  0  0
 10 13  1  0  0  0
 10 12  1  0  0  0
 13 14  1  0  0  0
 13 19  2  0  0  0
 14 15  2  0  0  0
 15 16  1  0  0  0
 16 17  1  0  0  0
 16 18  2  0  0  0
 18 20  1  0  0  0
 18 19  1  0  0  0
 20 21  1  0  0  0
 20 22  1  0  0  0
 20 23  1  0  0  0
  5  6  1  0  0  0
 36 37  2  0  0  0
 36 38  1  0  0  0
 38 39  1  0  0  0
M  END
> <minimizedAffinity>
-7.11755

$$$$
