CHEMBL225318


 37 42  0  0  0  0  0  0  0  0999 V2000
  -29.2193   -6.4702   -5.1242 C   0  0  0  0  0  0  0  0  0  0  0  0
  -29.1993   -5.3655   -4.2333 C   0  0  0  0  0  0  0  0  0  0  0  0
  -28.9262   -4.0678   -4.6667 C   0  0  0  0  0  0  0  0  0  0  0  0
  -28.6350   -3.9097   -5.9977 C   0  0  0  0  0  0  0  0  0  0  0  0
  -28.6040   -4.9947   -6.9143 C   0  0  0  0  0  0  0  0  0  0  0  0
  -28.9180   -6.2764   -6.4844 C   0  0  0  0  0  0  0  0  0  0  0  0
  -28.1894   -4.5667   -8.3377 C   0  0  0  0  0  0  0  0  0  0  0  0
  -28.0445   -3.1074   -8.0652 C   0  0  0  0  0  0  0  0  0  0  0  0
  -27.6957   -1.8984   -8.6763 C   0  0  0  0  0  0  0  0  0  0  0  0
  -27.7310   -0.8734   -7.7999 N   0  0  0  0  0  0  0  0  0  0  0  0
  -28.1332   -1.4409   -6.6349 N   0  0  0  0  0  0  0  0  0  0  0  0
  -28.2950   -2.7690   -6.7656 C   0  0  0  0  0  0  0  0  0  0  0  0
  -28.2620   -0.8497   -5.8210 H   0  0  0  0  0  0  0  0  0  0  0  0
  -27.3117   -1.7296  -10.0760 C   0  0  0  0  0  0  0  0  0  0  0  0
  -28.1755   -1.8282  -11.1464 C   0  0  0  0  0  0  0  0  0  0  0  0
  -27.3791   -1.5690  -12.6379 S   0  0  0  0  0  0  0  0  0  0  0  0
  -25.8728   -1.3607  -11.8617 C   0  0  0  0  0  0  0  0  0  0  0  0
  -25.9748   -1.4638  -10.4937 C   0  0  0  0  0  0  0  0  0  0  0  0
  -24.6599   -1.1170  -12.5615 C   0  0  0  0  0  0  0  0  0  0  0  0
  -23.5270   -0.8653  -13.1559 C   0  0  0  0  0  0  0  0  0  0  0  0
  -22.2063   -0.5719  -13.8486 C   0  0  0  0  0  0  0  0  0  0  0  0
  -22.2314    0.7406  -14.3975 O   0  0  0  0  0  0  0  0  0  0  0  0
  -21.0028    1.2999  -14.6504 C   0  0  0  0  0  0  0  0  0  0  0  0
  -19.8981    0.5720  -15.1115 C   0  0  0  0  0  0  0  0  0  0  0  0
  -18.6838    1.2124  -15.3748 C   0  0  0  0  0  0  0  0  0  0  0  0
  -18.5620    2.5870  -15.1904 C   0  0  0  0  0  0  0  0  0  0  0  0
  -19.6586    3.3263  -14.7490 C   0  0  0  0  0  0  0  0  0  0  0  0
  -20.8746    2.6875  -14.4855 C   0  0  0  0  0  0  0  0  0  0  0  0
  -22.1968    3.6560  -13.9356 Cl  0  0  0  0  0  0  0  0  0  0  0  0
  -29.5701   -7.8531   -4.5996 C   0  0  0  0  0  0  0  0  0  0  0  0
  -27.7635  -11.7709   -6.6889 C   0  0  0  0  0  0  0  0  0  0  0  0
  -27.6563  -10.9222   -5.5058 N   0  0  0  0  0  0  0  0  0  0  0  0
  -27.2808   -9.5479   -5.8757 C   0  0  0  0  0  0  0  0  0  0  0  0
  -27.2168   -8.6260   -4.6370 C   0  0  0  0  0  0  0  0  0  0  0  0
  -28.4829   -8.5383   -3.8762 N   0  0  0  0  0  0  0  0  0  0  0  0
  -28.8820   -9.9272   -3.5339 C   0  0  0  0  0  0  0  0  0  0  0  0
  -28.9099  -10.9209   -4.7285 C   0  0  0  0  0  0  0  0  0  0  0  0
 31 32  1  0  0  0
 32 33  1  0  0  0
 32 37  1  0  0  0
 33 34  1  0  0  0
 34 35  1  0  0  0
 35 30  1  0  0  0
 35 36  1  0  0  0
 30  1  1  0  0  0
  1  2  1  0  0  0
  1  6  2  0  0  0
  2  3  2  0  0  0
  3  4  1  0  0  0
  4  5  2  0  0  0
  4 12  1  0  0  0
  5  6  1  0  0  0
  5  7  1  0  0  0
  7  8  1  0  0  0
  8  9  1  0  0  0
  8 12  2  0  0  0
  9 14  1  0  0  0
  9 10  2  0  0  0
 14 15  2  0  0  0
 14 18  1  0  0  0
 15 16  1  0  0  0
 16 17  1  0  0  0
 17 19  1  0  0  0
 17 18  2  0  0  0
 19 20  3  0  0  0
 20 21  1  0  0  0
 21 22  1  0  0  0
 22 23  1  0  0  0
 23 24  1  0  0  0
 23 28  2  0  0  0
 24 25  2  0  0  0
 25 26  1  0  0  0
 26 27  2  0  0  0
 27 28  1  0  0  0
 28 29  1  0  0  0
 10 11  1  0  0  0
 11 12  1  0  0  0
 11 13  1  0  0  0
 36 37  1  0  0  0
M  END
> <minimizedAffinity>
-9.76581

$$$$
