CHEMBL3962203


 34 37  0  0  0  0  0  0  0  0999 V2000
  -17.7569    0.8577  -15.0008 C   0  0  0  0  0  0  0  0  0  0  0  0
  -19.0932    0.5148  -14.8292 C   0  0  0  0  0  0  0  0  0  0  0  0
  -20.0885    1.4973  -14.6625 C   0  0  0  0  0  0  0  0  0  0  0  0
  -21.4214    1.2044  -14.3575 C   0  0  0  0  0  0  0  0  0  0  0  0
  -22.3379    2.1774  -14.1976 N   0  0  0  0  0  0  0  0  0  0  0  0
  -21.9106    3.4356  -14.3463 C   0  0  0  0  0  0  0  0  0  0  0  0
  -20.6652    3.8224  -14.6345 N   0  0  0  0  0  0  0  0  0  0  0  0
  -19.7571    2.8509  -14.7914 C   0  0  0  0  0  0  0  0  0  0  0  0
  -18.4439    3.1790  -15.0902 C   0  0  0  0  0  0  0  0  0  0  0  0
  -17.4318    2.2094  -15.2129 C   0  0  0  0  0  0  0  0  0  0  0  0
  -15.9631   -0.2766  -13.8283 C   0  0  0  0  0  0  0  0  0  0  0  0
  -16.7765   -0.0885  -14.9775 O   0  0  0  0  0  0  0  0  0  0  0  0
  -21.7968   -0.1597  -14.1877 N   0  0  0  0  0  0  0  0  0  0  0  0
  -20.9598   -0.7199  -14.0488 H   0  0  0  0  0  0  0  0  0  0  0  0
  -22.8959   -0.6764  -13.4739 C   0  0  0  0  0  0  0  0  0  0  0  0
  -22.8559   -0.8753  -12.0905 C   0  0  0  0  0  0  0  0  0  0  0  0
  -23.9572   -1.3808  -11.4031 C   0  0  0  0  0  0  0  0  0  0  0  0
  -25.1443   -1.6475  -12.0825 C   0  0  0  0  0  0  0  0  0  0  0  0
  -26.4591   -2.3041  -11.1778 Cl  0  0  0  0  0  0  0  0  0  0  0  0
  -25.2303   -1.3752  -13.4500 C   0  0  0  0  0  0  0  0  0  0  0  0
  -26.6825   -1.6257  -14.3540 Cl  0  0  0  0  0  0  0  0  0  0  0  0
  -24.1139   -0.8801  -14.1366 C   0  0  0  0  0  0  0  0  0  0  0  0
  -16.2151    2.7594  -15.5647 O   0  0  0  0  0  0  0  0  0  0  0  0
  -16.1646    3.4448  -16.8093 C   0  0  0  0  0  0  0  0  0  0  0  0
  -15.4141    4.7670  -16.7287 C   0  0  0  0  0  0  0  0  0  0  0  0
  -14.1237    4.6405  -17.5677 C   0  0  0  0  0  0  0  0  0  0  0  0
  -13.0200    5.6220  -17.1555 C   0  0  0  0  0  0  0  0  0  0  0  0
  -13.3604    7.0150  -17.4750 N   0  0  0  0  0  0  0  0  0  0  0  0
  -13.7607    7.1740  -18.8946 C   0  0  0  0  0  0  0  0  0  0  0  0
  -14.4156    8.5583  -19.0138 C   0  0  0  0  0  0  0  0  0  0  0  0
  -12.5284    7.1175  -19.8159 C   0  0  0  0  0  0  0  0  0  0  0  0
  -14.7836    6.0986  -19.3409 C   0  0  0  0  0  0  0  0  0  0  0  0
  -14.3630    4.7718  -18.9867 O   0  0  0  0  0  0  0  0  0  0  0  0
  -12.5599    7.6124  -17.2728 H   0  0  0  0  0  0  0  0  0  0  0  0
 11 12  1  0  0  0
 12  1  1  0  0  0
  1  2  1  0  0  0
  1 10  2  0  0  0
  2  3  2  0  0  0
  3  4  1  0  0  0
  3  8  1  0  0  0
  4 13  1  0  0  0
  4  5  2  0  0  0
 13 15  1  0  0  0
 13 14  1  0  0  0
 15 16  1  0  0  0
 15 22  2  0  0  0
 16 17  2  0  0  0
 17 18  1  0  0  0
 18 19  1  0  0  0
 18 20  2  0  0  0
 20 21  1  0  0  0
 20 22  1  0  0  0
  5  6  1  0  0  0
  6  7  2  0  0  0
  7  8  1  0  0  0
  8  9  2  0  0  0
  9 10  1  0  0  0
 10 23  1  0  0  0
 23 24  1  0  0  0
 24 25  1  0  0  0
 25 26  1  0  0  0
 26 27  1  0  0  0
 26 33  1  0  0  0
 27 28  1  0  0  0
 28 29  1  0  0  0
 28 34  1  0  0  0
 29 30  1  0  0  0
 29 31  1  0  0  0
 29 32  1  0  0  0
 32 33  1  0  0  0
M  END
> <minimizedAffinity>
-8.95181

$$$$
