CHEMBL4172854


 29 32  0  0  0  0  0  0  0  0999 V2000
  -16.9642    3.3806  -15.8619 C   0  0  0  0  0  0  0  0  0  0  0  0
  -18.0648    4.0539  -15.5999 N   0  0  0  0  0  0  0  0  0  0  0  0
  -19.0128    3.1181  -15.3037 C   0  0  0  0  0  0  0  0  0  0  0  0
  -20.3566    3.3242  -14.9548 C   0  0  0  0  0  0  0  0  0  0  0  0
  -21.1662    2.2160  -14.6952 C   0  0  0  0  0  0  0  0  0  0  0  0
  -20.6499    0.9293  -14.8021 C   0  0  0  0  0  0  0  0  0  0  0  0
  -19.3107    0.7044  -15.1549 C   0  0  0  0  0  0  0  0  0  0  0  0
  -18.4943    1.8239  -15.3838 C   0  0  0  0  0  0  0  0  0  0  0  0
  -17.1633    2.0151  -15.7066 N   0  0  0  0  0  0  0  0  0  0  0  0
  -12.5506    5.3953  -15.3157 C   0  0  0  0  0  0  0  0  0  0  0  0
  -13.7396    4.9662  -16.0778 C   0  0  0  0  0  0  0  0  0  0  0  0
  -14.0920    5.0501  -17.4043 C   0  0  0  0  0  0  0  0  0  0  0  0
  -15.3705    4.4551  -17.5058 C   0  0  0  0  0  0  0  0  0  0  0  0
  -15.7410    4.0362  -16.2369 C   0  0  0  0  0  0  0  0  0  0  0  0
  -14.7292    4.3589  -15.3664 O   0  0  0  0  0  0  0  0  0  0  0  0
  -16.0835    1.0409  -15.8200 C   0  0  0  0  0  0  0  0  0  0  0  0
  -15.6083    0.3806  -14.5563 C   0  0  0  0  0  0  0  0  0  0  0  0
  -14.7476    0.9133  -13.8521 O   0  0  0  0  0  0  0  0  0  0  0  0
  -16.2258   -0.8318  -14.2465 N   0  0  0  0  0  0  0  0  0  0  0  0
  -16.8288   -1.3162  -14.9042 H   0  0  0  0  0  0  0  0  0  0  0  0
  -15.7776   -1.4812  -13.1407 N   0  0  0  0  0  0  0  0  0  0  0  0
  -15.8411   -2.7731  -13.0892 C   0  0  0  0  0  0  0  0  0  0  0  0
  -15.2758   -3.4711  -11.9032 C   0  0  0  0  0  0  0  0  0  0  0  0
  -15.4308   -2.8627  -10.6435 C   0  0  0  0  0  0  0  0  0  0  0  0
  -14.8668   -3.4285   -9.5021 C   0  0  0  0  0  0  0  0  0  0  0  0
  -14.1453   -4.6135   -9.6020 C   0  0  0  0  0  0  0  0  0  0  0  0
  -13.9993   -5.2359  -10.8457 C   0  0  0  0  0  0  0  0  0  0  0  0
  -14.5629   -4.6709  -11.9968 C   0  0  0  0  0  0  0  0  0  0  0  0
  -14.3241   -5.5028  -13.4902 Cl  0  0  0  0  0  0  0  0  0  0  0  0
 10 11  1  0  0  0
 11 12  2  0  0  0
 11 15  1  0  0  0
 12 13  1  0  0  0
 13 14  2  0  0  0
 14  1  1  0  0  0
 14 15  1  0  0  0
  1  2  2  0  0  0
  1  9  1  0  0  0
  2  3  1  0  0  0
  3  4  1  0  0  0
  3  8  2  0  0  0
  4  5  2  0  0  0
  5  6  1  0  0  0
  6  7  2  0  0  0
  7  8  1  0  0  0
  8  9  1  0  0  0
  9 16  1  0  0  0
 16 17  1  0  0  0
 17 18  2  0  0  0
 17 19  1  0  0  0
 19 21  1  0  0  0
 19 20  1  0  0  0
 21 22  2  0  0  0
 22 23  1  0  0  0
 23 24  1  0  0  0
 23 28  2  0  0  0
 24 25  2  0  0  0
 25 26  1  0  0  0
 26 27  2  0  0  0
 27 28  1  0  0  0
 28 29  1  0  0  0
M  END
> <minimizedAffinity>
-8.92546

$$$$
