CHEMBL2409781


 34 38  0  0  0  0  0  0  0  0999 V2000
  -27.9163   -2.6151   -8.3090 C   0  0  0  0  0  0  0  0  0  0  0  0
  -28.0393   -1.6493   -7.3023 C   0  0  0  0  0  0  0  0  0  0  0  0
  -28.7654   -1.8952   -6.1412 C   0  0  0  0  0  0  0  0  0  0  0  0
  -29.4274   -3.1024   -5.9891 C   0  0  0  0  0  0  0  0  0  0  0  0
  -29.4419   -4.0294   -7.0349 C   0  0  0  0  0  0  0  0  0  0  0  0
  -28.6654   -3.7972   -8.1878 C   0  0  0  0  0  0  0  0  0  0  0  0
  -27.3386   -1.5788  -10.5002 C   0  0  0  0  0  0  0  0  0  0  0  0
  -28.3362   -0.8675  -10.5206 O   0  0  0  0  0  0  0  0  0  0  0  0
  -27.0528   -2.4244   -9.4267 N   0  0  0  0  0  0  0  0  0  0  0  0
  -26.1189   -2.8070   -9.3618 H   0  0  0  0  0  0  0  0  0  0  0  0
  -23.2863   -1.1124  -13.5745 C   0  0  0  0  0  0  0  0  0  0  0  0
  -24.6203   -1.3342  -12.9670 C   0  0  0  0  0  0  0  0  0  0  0  0
  -25.0255   -1.2196  -11.6146 C   0  0  0  0  0  0  0  0  0  0  0  0
  -26.3764   -1.5292  -11.5892 C   0  0  0  0  0  0  0  0  0  0  0  0
  -26.6832   -1.8203  -12.9075 N   0  0  0  0  0  0  0  0  0  0  0  0
  -27.9292   -2.2358  -13.5175 C   0  0  0  0  0  0  0  0  0  0  0  0
  -25.6340   -1.7004  -13.7440 N   0  0  0  0  0  0  0  0  0  0  0  0
  -30.1311   -5.2262   -6.9549 O   0  0  0  0  0  0  0  0  0  0  0  0
  -29.7283   -6.1627   -5.9936 C   0  0  0  0  0  0  0  0  0  0  0  0
  -30.2807   -6.0045   -4.7255 C   0  0  0  0  0  0  0  0  0  0  0  0
  -29.9179   -6.8940   -3.7095 C   0  0  0  0  0  0  0  0  0  0  0  0
  -29.0123   -7.9199   -4.0241 C   0  0  0  0  0  0  0  0  0  0  0  0
  -28.5119   -8.8955   -3.1889 N   0  0  0  0  0  0  0  0  0  0  0  0
  -27.7071   -9.6727   -3.8694 C   0  0  0  0  0  0  0  0  0  0  0  0
  -27.5356   -9.3353   -5.5364 S   0  0  0  0  0  0  0  0  0  0  0  0
  -28.5444   -7.9730   -5.3330 C   0  0  0  0  0  0  0  0  0  0  0  0
  -28.8329   -7.1204   -6.3358 N   0  0  0  0  0  0  0  0  0  0  0  0
  -26.9598  -10.7313   -3.4272 N   0  0  0  0  0  0  0  0  0  0  0  0
  -25.6256  -10.5901   -3.1373 C   0  0  0  0  0  0  0  0  0  0  0  0
  -24.9447   -9.5790   -3.2351 O   0  0  0  0  0  0  0  0  0  0  0  0
  -27.3881  -11.6444   -3.4487 H   0  0  0  0  0  0  0  0  0  0  0  0
  -24.9761  -11.8788   -2.7401 C   0  0  0  0  0  0  0  0  0  0  0  0
  -24.6748  -12.1762   -1.2876 C   0  0  0  0  0  0  0  0  0  0  0  0
  -23.5525  -11.8539   -2.2290 C   0  0  0  0  0  0  0  0  0  0  0  0
 11 12  1  0  0  0
 12 13  1  0  0  0
 12 17  2  0  0  0
 13 14  2  0  0  0
 14  7  1  0  0  0
 14 15  1  0  0  0
  7  8  2  0  0  0
  7  9  1  0  0  0
  9  1  1  0  0  0
  9 10  1  0  0  0
  1  2  1  0  0  0
  1  6  2  0  0  0
  2  3  2  0  0  0
  3  4  1  0  0  0
  4  5  2  0  0  0
  5 18  1  0  0  0
  5  6  1  0  0  0
 18 19  1  0  0  0
 19 20  1  0  0  0
 19 27  2  0  0  0
 20 21  2  0  0  0
 21 22  1  0  0  0
 22 23  1  0  0  0
 22 26  2  0  0  0
 23 24  2  0  0  0
 24 28  1  0  0  0
 24 25  1  0  0  0
 28 29  1  0  0  0
 28 31  1  0  0  0
 29 30  2  0  0  0
 29 32  1  0  0  0
 32 33  1  0  0  0
 32 34  1  0  0  0
 33 34  1  0  0  0
 25 26  1  0  0  0
 26 27  1  0  0  0
 15 16  1  0  0  0
 15 17  1  0  0  0
M  END
> <minimizedAffinity>
-9.86610

$$$$
