CHEMBL248820


 32 35  0  0  0  0  0  0  0  0999 V2000
  -30.6438   -8.3357   -7.5307 O   0  0  0  0  0  0  0  0  0  0  0  0
  -29.4978   -8.3958   -7.9710 C   0  0  0  0  0  0  0  0  0  0  0  0
  -28.5333   -7.4177   -7.7747 N   0  0  0  0  0  0  0  0  0  0  0  0
  -27.5812   -7.7664   -7.7198 H   0  0  0  0  0  0  0  0  0  0  0  0
  -28.8369   -6.2717   -7.0166 C   0  0  0  0  0  0  0  0  0  0  0  0
  -29.4053   -5.1513   -7.6217 C   0  0  0  0  0  0  0  0  0  0  0  0
  -29.7546   -4.0429   -6.8406 C   0  0  0  0  0  0  0  0  0  0  0  0
  -29.5894   -4.0806   -5.4538 C   0  0  0  0  0  0  0  0  0  0  0  0
  -28.9852   -5.1919   -4.8580 C   0  0  0  0  0  0  0  0  0  0  0  0
  -28.6112   -6.2882   -5.6390 C   0  0  0  0  0  0  0  0  0  0  0  0
  -29.9977   -2.9695   -4.7461 O   0  0  0  0  0  0  0  0  0  0  0  0
  -29.3195   -1.7837   -4.9366 C   0  0  0  0  0  0  0  0  0  0  0  0
  -30.0816   -0.6749   -5.3096 C   0  0  0  0  0  0  0  0  0  0  0  0
  -29.4620    0.5578   -5.5298 C   0  0  0  0  0  0  0  0  0  0  0  0
  -28.0819    0.6839   -5.3705 C   0  0  0  0  0  0  0  0  0  0  0  0
  -27.3239   -0.4134   -4.9641 C   0  0  0  0  0  0  0  0  0  0  0  0
  -27.9442   -1.6409   -4.7253 C   0  0  0  0  0  0  0  0  0  0  0  0
  -29.0910   -9.6139   -8.7236 C   0  0  0  0  0  0  0  0  0  0  0  0
  -29.0947   -9.5321  -10.1271 C   0  0  0  0  0  0  0  0  0  0  0  0
  -28.6426  -10.6015  -10.8933 C   0  0  0  0  0  0  0  0  0  0  0  0
  -28.1906  -11.7187  -10.2296 C   0  0  0  0  0  0  0  0  0  0  0  0
  -28.2019  -11.8357   -8.8872 N   0  0  0  0  0  0  0  0  0  0  0  0
  -28.6532  -10.8031   -8.1284 C   0  0  0  0  0  0  0  0  0  0  0  0
  -28.6743  -10.9851   -6.7234 N   0  0  0  0  0  0  0  0  0  0  0  0
  -29.6329  -10.9577   -6.3824 H   0  0  0  0  0  0  0  0  0  0  0  0
  -27.7454  -10.4283   -5.8113 C   0  0  0  0  0  0  0  0  0  0  0  0
  -26.3845  -10.3623   -6.1338 C   0  0  0  0  0  0  0  0  0  0  0  0
  -25.4658   -9.8134   -5.2332 C   0  0  0  0  0  0  0  0  0  0  0  0
  -25.9109   -9.3099   -4.0127 C   0  0  0  0  0  0  0  0  0  0  0  0
  -25.0298   -8.7894   -3.1514 F   0  0  0  0  0  0  0  0  0  0  0  0
  -27.2573   -9.3217   -3.6892 C   0  0  0  0  0  0  0  0  0  0  0  0
  -28.1732   -9.8635   -4.5934 C   0  0  0  0  0  0  0  0  0  0  0  0
  1  2  2  0  0  0
  2  3  1  0  0  0
  2 18  1  0  0  0
  3  5  1  0  0  0
  3  4  1  0  0  0
  5  6  1  0  0  0
  5 10  2  0  0  0
  6  7  2  0  0  0
  7  8  1  0  0  0
  8 11  1  0  0  0
  8  9  2  0  0  0
 11 12  1  0  0  0
 12 13  1  0  0  0
 12 17  2  0  0  0
 13 14  2  0  0  0
 14 15  1  0  0  0
 15 16  2  0  0  0
 16 17  1  0  0  0
  9 10  1  0  0  0
 18 19  1  0  0  0
 18 23  2  0  0  0
 19 20  2  0  0  0
 20 21  1  0  0  0
 21 22  2  0  0  0
 22 23  1  0  0  0
 23 24  1  0  0  0
 24 26  1  0  0  0
 24 25  1  0  0  0
 26 27  1  0  0  0
 26 32  2  0  0  0
 27 28  2  0  0  0
 28 29  1  0  0  0
 29 30  1  0  0  0
 29 31  2  0  0  0
 31 32  1  0  0  0
M  END
> <minimizedAffinity>
-8.61613

$$$$
