CHEMBL4579615


 39 43  0  0  0  0  0  0  0  0999 V2000
  -28.7234   -8.6128   -6.2415 C   0  0  0  0  0  0  0  0  0  0  0  0
  -28.5761   -9.4388   -5.1223 C   0  0  0  0  0  0  0  0  0  0  0  0
  -27.8252  -10.6206   -5.1882 C   0  0  0  0  0  0  0  0  0  0  0  0
  -27.2350  -11.0194   -6.3860 C   0  0  0  0  0  0  0  0  0  0  0  0
  -27.3829  -10.1834   -7.5018 C   0  0  0  0  0  0  0  0  0  0  0  0
  -28.1350   -9.0068   -7.4410 C   0  0  0  0  0  0  0  0  0  0  0  0
  -27.8792   -6.0887   -5.0873 O   0  0  0  0  0  0  0  0  0  0  0  0
  -28.9473   -6.1984   -5.6744 C   0  0  0  0  0  0  0  0  0  0  0  0
  -29.4128   -7.3785   -6.2298 N   0  0  0  0  0  0  0  0  0  0  0  0
  -29.8261   -5.1476   -5.8993 N   0  0  0  0  0  0  0  0  0  0  0  0
  -30.2226   -7.3197   -6.8271 H   0  0  0  0  0  0  0  0  0  0  0  0
  -30.7315   -5.3833   -6.2763 H   0  0  0  0  0  0  0  0  0  0  0  0
  -29.6013   -3.7896   -5.5783 C   0  0  0  0  0  0  0  0  0  0  0  0
  -29.9049   -3.2267   -4.3404 C   0  0  0  0  0  0  0  0  0  0  0  0
  -29.6684   -1.8742   -4.0928 C   0  0  0  0  0  0  0  0  0  0  0  0
  -29.1013   -1.0580   -5.0717 C   0  0  0  0  0  0  0  0  0  0  0  0
  -28.8804    0.5986   -4.6514 Cl  0  0  0  0  0  0  0  0  0  0  0  0
  -28.7500   -1.5981   -6.3120 C   0  0  0  0  0  0  0  0  0  0  0  0
  -29.0209   -2.9696   -6.5531 C   0  0  0  0  0  0  0  0  0  0  0  0
  -28.0743   -0.8252   -7.4130 C   0  0  0  0  0  0  0  0  0  0  0  0
  -26.8709   -0.2694   -7.1230 F   0  0  0  0  0  0  0  0  0  0  0  0
  -27.8565   -1.6103   -8.5089 F   0  0  0  0  0  0  0  0  0  0  0  0
  -28.8536    0.2025   -7.8595 F   0  0  0  0  0  0  0  0  0  0  0  0
  -26.4371  -12.1836   -6.4412 N   0  0  0  0  0  0  0  0  0  0  0  0
  -26.9456  -13.0054   -6.7433 H   0  0  0  0  0  0  0  0  0  0  0  0
  -25.1149  -12.2308   -6.9278 C   0  0  0  0  0  0  0  0  0  0  0  0
  -24.9126  -12.4426   -8.2529 N   0  0  0  0  0  0  0  0  0  0  0  0
  -23.6683  -12.4654   -8.7358 C   0  0  0  0  0  0  0  0  0  0  0  0
  -22.5401  -12.2916   -8.0561 N   0  0  0  0  0  0  0  0  0  0  0  0
  -22.7567  -12.0900   -6.7463 C   0  0  0  0  0  0  0  0  0  0  0  0
  -21.4373  -11.8202   -5.7036 S   0  0  0  0  0  0  0  0  0  0  0  0
  -22.4603  -11.6628   -4.3604 C   0  0  0  0  0  0  0  0  0  0  0  0
  -23.7968  -11.8261   -4.6831 C   0  0  0  0  0  0  0  0  0  0  0  0
  -23.9858  -12.0652   -6.0957 C   0  0  0  0  0  0  0  0  0  0  0  0
  -24.8363  -11.7007   -3.6049 C   0  0  0  0  0  0  0  0  0  0  0  0
  -24.1936  -11.8119   -2.2010 C   0  0  0  0  0  0  0  0  0  0  0  0
  -22.9913  -10.9726   -2.0676 N   0  0  0  0  0  0  0  0  0  0  0  0
  -21.9243  -11.4132   -2.9839 C   0  0  0  0  0  0  0  0  0  0  0  0
  -22.6387  -11.0247   -1.1132 H   0  0  0  0  0  0  0  0  0  0  0  0
  7  8  2  0  0  0
  8  9  1  0  0  0
  8 10  1  0  0  0
  9  1  1  0  0  0
  9 11  1  0  0  0
  1  2  1  0  0  0
  1  6  2  0  0  0
  2  3  2  0  0  0
  3  4  1  0  0  0
  4 24  1  0  0  0
  4  5  2  0  0  0
 24 26  1  0  0  0
 24 25  1  0  0  0
 26 27  1  0  0  0
 26 34  2  0  0  0
 27 28  2  0  0  0
 28 29  1  0  0  0
 29 30  2  0  0  0
 30 31  1  0  0  0
 30 34  1  0  0  0
 31 32  1  0  0  0
 32 33  2  0  0  0
 32 38  1  0  0  0
 33 34  1  0  0  0
 33 35  1  0  0  0
 35 36  1  0  0  0
 36 37  1  0  0  0
 37 38  1  0  0  0
 37 39  1  0  0  0
  5  6  1  0  0  0
 10 13  1  0  0  0
 10 12  1  0  0  0
 13 14  1  0  0  0
 13 19  2  0  0  0
 14 15  2  0  0  0
 15 16  1  0  0  0
 16 17  1  0  0  0
 16 18  2  0  0  0
 18 20  1  0  0  0
 18 19  1  0  0  0
 20 21  1  0  0  0
 20 22  1  0  0  0
 20 23  1  0  0  0
M  END
> <minimizedAffinity>
-8.59541

$$$$
