CHEMBL3690432


 40 42  0  0  0  0  0  0  0  0999 V2000
  -14.2605   -1.2173  -13.7065 C   0  0  0  0  0  0  0  0  0  0  0  0
  -15.6215   -1.1912  -13.1680 C   0  0  0  0  0  0  0  0  0  0  0  0
  -16.5296   -0.3561  -13.6942 C   0  0  0  0  0  0  0  0  0  0  0  0
  -16.1654    0.5246  -14.7174 N   0  0  0  0  0  0  0  0  0  0  0  0
  -16.8900    1.5051  -15.3930 C   0  0  0  0  0  0  0  0  0  0  0  0
  -15.9813    2.0074  -16.3162 C   0  0  0  0  0  0  0  0  0  0  0  0
  -14.7540    1.4110  -16.2195 N   0  0  0  0  0  0  0  0  0  0  0  0
  -14.8784    0.5299  -15.2561 C   0  0  0  0  0  0  0  0  0  0  0  0
  -13.9268   -0.3835  -14.7188 C   0  0  0  0  0  0  0  0  0  0  0  0
  -18.3048    1.8681  -15.1993 C   0  0  0  0  0  0  0  0  0  0  0  0
  -18.6674    3.2238  -15.2385 C   0  0  0  0  0  0  0  0  0  0  0  0
  -19.9907    3.6105  -15.0511 C   0  0  0  0  0  0  0  0  0  0  0  0
  -20.9776    2.6490  -14.8605 C   0  0  0  0  0  0  0  0  0  0  0  0
  -20.6632    1.2868  -14.8377 C   0  0  0  0  0  0  0  0  0  0  0  0
  -19.3140    0.9176  -14.9530 C   0  0  0  0  0  0  0  0  0  0  0  0
  -21.6461    0.2613  -14.7319 N   0  0  0  0  0  0  0  0  0  0  0  0
  -22.2663   -0.1205  -13.5763 C   0  0  0  0  0  0  0  0  0  0  0  0
  -22.0632    0.3194  -12.4526 O   0  0  0  0  0  0  0  0  0  0  0  0
  -23.2011   -1.1229  -13.7518 N   0  0  0  0  0  0  0  0  0  0  0  0
  -21.9178   -0.1989  -15.5824 H   0  0  0  0  0  0  0  0  0  0  0  0
  -23.6430   -1.2309  -14.6547 H   0  0  0  0  0  0  0  0  0  0  0  0
  -23.9586   -1.5315  -12.5577 C   0  0  0  0  0  0  0  0  0  0  0  0
  -25.4615   -1.2717  -12.5635 C   0  0  0  0  0  0  0  0  0  0  0  0
  -25.9717   -1.3476  -13.8151 F   0  0  0  0  0  0  0  0  0  0  0  0
  -26.1213   -2.1639  -11.7934 F   0  0  0  0  0  0  0  0  0  0  0  0
  -25.7397   -0.0355  -12.0897 F   0  0  0  0  0  0  0  0  0  0  0  0
  -13.2669   -2.2066  -13.1280 C   0  0  0  0  0  0  0  0  0  0  0  0
  -12.4584   -2.8400  -14.2427 C   0  0  0  0  0  0  0  0  0  0  0  0
  -12.9033   -3.7880  -15.0056 N   0  0  0  0  0  0  0  0  0  0  0  0
  -13.8635   -4.0508  -14.7599 H   0  0  0  0  0  0  0  0  0  0  0  0
  -13.7057   -4.4602  -12.2661 N   0  0  0  0  0  0  0  0  0  0  0  0
  -13.9899   -3.2017  -12.2411 C   0  0  0  0  0  0  0  0  0  0  0  0
  -14.4753   -5.3455  -11.3512 C   0  0  0  0  0  0  0  0  0  0  0  0
  -14.1635   -6.8219  -11.6279 C   0  0  0  0  0  0  0  0  0  0  0  0
  -15.9618   -5.0932  -11.6479 C   0  0  0  0  0  0  0  0  0  0  0  0
  -12.5409   -5.2094   -8.0517 C   0  0  0  0  0  0  0  0  0  0  0  0
  -12.9513   -5.4425   -9.4104 N   0  0  0  0  0  0  0  0  0  0  0  0
  -14.1596   -4.9696   -9.8800 C   0  0  0  0  0  0  0  0  0  0  0  0
  -14.9371   -4.3388   -9.1728 O   0  0  0  0  0  0  0  0  0  0  0  0
  -12.4048   -6.0417  -10.0109 H   0  0  0  0  0  0  0  0  0  0  0  0
 36 37  1  0  0  0
 37 38  1  0  0  0
 37 40  1  0  0  0
 38 39  2  0  0  0
 38 33  1  0  0  0
 33 34  1  0  0  0
 33 35  1  0  0  0
 33 31  1  0  0  0
 31 32  2  0  0  0
 32 27  1  0  0  0
 27 28  1  0  0  0
 27  1  1  0  0  0
 28 29  2  0  0  0
 29 30  1  0  0  0
  1  2  1  0  0  0
  1  9  2  0  0  0
  2  3  2  0  0  0
  3  4  1  0  0  0
  4  5  1  0  0  0
  4  8  1  0  0  0
  5 10  1  0  0  0
  5  6  2  0  0  0
 10 11  1  0  0  0
 10 15  2  0  0  0
 11 12  2  0  0  0
 12 13  1  0  0  0
 13 14  2  0  0  0
 14 16  1  0  0  0
 14 15  1  0  0  0
 16 17  1  0  0  0
 16 20  1  0  0  0
 17 18  2  0  0  0
 17 19  1  0  0  0
 19 22  1  0  0  0
 19 21  1  0  0  0
 22 23  1  0  0  0
 23 24  1  0  0  0
 23 25  1  0  0  0
 23 26  1  0  0  0
  6  7  1  0  0  0
  7  8  2  0  0  0
  8  9  1  0  0  0
M  END
> <minimizedAffinity>
-9.39731

$$$$
