CHEMBL454403


 31 34  0  0  0  0  0  0  0  0999 V2000
  -15.2828   -1.0664  -13.2853 N   0  0  0  0  0  0  0  0  0  0  0  0
  -15.2705   -0.4534  -14.5148 C   0  0  0  0  0  0  0  0  0  0  0  0
  -15.5480    0.8680  -14.2591 C   0  0  0  0  0  0  0  0  0  0  0  0
  -15.7807    1.0168  -12.9169 N   0  0  0  0  0  0  0  0  0  0  0  0
  -15.6204   -0.1627  -12.3335 N   0  0  0  0  0  0  0  0  0  0  0  0
  -16.9336   -5.5643  -12.0381 C   0  0  0  0  0  0  0  0  0  0  0  0
  -15.7684   -4.6575  -12.3346 C   0  0  0  0  0  0  0  0  0  0  0  0
  -16.0364   -3.3186  -12.6682 C   0  0  0  0  0  0  0  0  0  0  0  0
  -15.0035   -2.4196  -12.9662 C   0  0  0  0  0  0  0  0  0  0  0  0
  -13.6821   -2.8707  -12.9528 C   0  0  0  0  0  0  0  0  0  0  0  0
  -13.4030   -4.1949  -12.6131 C   0  0  0  0  0  0  0  0  0  0  0  0
  -14.4315   -5.1027  -12.2854 C   0  0  0  0  0  0  0  0  0  0  0  0
  -14.0128   -6.5065  -11.8962 C   0  0  0  0  0  0  0  0  0  0  0  0
  -14.6209   -7.5082  -12.5868 F   0  0  0  0  0  0  0  0  0  0  0  0
  -12.6745   -6.7071  -12.0584 F   0  0  0  0  0  0  0  0  0  0  0  0
  -14.2668   -6.7666  -10.5812 F   0  0  0  0  0  0  0  0  0  0  0  0
  -15.6287    1.9670  -15.2103 C   0  0  0  0  0  0  0  0  0  0  0  0
  -14.4423    2.2870  -15.9028 C   0  0  0  0  0  0  0  0  0  0  0  0
  -14.4162    3.2855  -16.8729 C   0  0  0  0  0  0  0  0  0  0  0  0
  -15.5848    3.9605  -17.1880 C   0  0  0  0  0  0  0  0  0  0  0  0
  -16.7662    3.6658  -16.5043 C   0  0  0  0  0  0  0  0  0  0  0  0
  -16.8123    2.7035  -15.4765 C   0  0  0  0  0  0  0  0  0  0  0  0
  -18.0090    2.4435  -14.7745 N   0  0  0  0  0  0  0  0  0  0  0  0
  -18.1997    1.4421  -14.7754 H   0  0  0  0  0  0  0  0  0  0  0  0
  -19.1976    3.2282  -15.0946 C   0  0  0  0  0  0  0  0  0  0  0  0
  -20.4480    2.4603  -14.7448 C   0  0  0  0  0  0  0  0  0  0  0  0
  -20.4520    1.0606  -14.7679 C   0  0  0  0  0  0  0  0  0  0  0  0
  -21.5908    0.3881  -14.3553 C   0  0  0  0  0  0  0  0  0  0  0  0
  -22.7107    1.0057  -13.9257 N   0  0  0  0  0  0  0  0  0  0  0  0
  -22.6875    2.3552  -13.9024 C   0  0  0  0  0  0  0  0  0  0  0  0
  -21.5973    3.1170  -14.2963 C   0  0  0  0  0  0  0  0  0  0  0  0
  6  7  1  0  0  0
  7  8  1  0  0  0
  7 12  2  0  0  0
  8  9  2  0  0  0
  9  1  1  0  0  0
  9 10  1  0  0  0
  1  2  1  0  0  0
  1  5  1  0  0  0
  2  3  2  0  0  0
  3 17  1  0  0  0
  3  4  1  0  0  0
 17 18  1  0  0  0
 17 22  2  0  0  0
 18 19  2  0  0  0
 19 20  1  0  0  0
 20 21  2  0  0  0
 21 22  1  0  0  0
 22 23  1  0  0  0
 23 25  1  0  0  0
 23 24  1  0  0  0
 25 26  1  0  0  0
 26 27  1  0  0  0
 26 31  2  0  0  0
 27 28  2  0  0  0
 28 29  1  0  0  0
 29 30  2  0  0  0
 30 31  1  0  0  0
  4  5  2  0  0  0
 10 11  2  0  0  0
 11 12  1  0  0  0
 12 13  1  0  0  0
 13 14  1  0  0  0
 13 15  1  0  0  0
 13 16  1  0  0  0
M  END
> <minimizedAffinity>
-8.96587

$$$$
