CHEMBL606185


 27 30  0  0  0  0  0  0  0  0999 V2000
  -32.8476   -9.8784   -7.9135 O   0  0  0  0  0  0  0  0  0  0  0  0
  -31.6319   -9.6685   -8.0087 C   0  0  0  0  0  0  0  0  0  0  0  0
  -30.7885   -9.3345   -6.7959 C   0  0  0  0  0  0  0  0  0  0  0  0
  -30.1866   -7.9839   -6.9371 C   0  0  0  0  0  0  0  0  0  0  0  0
  -30.5569   -6.9137   -6.1576 C   0  0  0  0  0  0  0  0  0  0  0  0
  -30.0661   -5.6733   -6.3105 N   0  0  0  0  0  0  0  0  0  0  0  0
  -29.1526   -5.4990   -7.2749 C   0  0  0  0  0  0  0  0  0  0  0  0
  -28.7484   -6.4856   -8.0857 N   0  0  0  0  0  0  0  0  0  0  0  0
  -29.2543   -7.7233   -7.9199 C   0  0  0  0  0  0  0  0  0  0  0  0
  -28.7729   -8.7737   -8.8459 C   0  0  0  0  0  0  0  0  0  0  0  0
  -27.4256   -8.7939   -9.0642 N   0  0  0  0  0  0  0  0  0  0  0  0
  -26.9344   -9.7038   -9.9320 C   0  0  0  0  0  0  0  0  0  0  0  0
  -27.7221  -10.5913  -10.6410 C   0  0  0  0  0  0  0  0  0  0  0  0
  -29.0956  -10.5617  -10.4327 C   0  0  0  0  0  0  0  0  0  0  0  0
  -29.6330   -9.6878   -9.4836 C   0  0  0  0  0  0  0  0  0  0  0  0
  -31.0085   -9.8268   -9.2198 N   0  0  0  0  0  0  0  0  0  0  0  0
  -31.6004  -10.2595   -9.9178 H   0  0  0  0  0  0  0  0  0  0  0  0
  -28.6324   -4.2126   -7.4080 N   0  0  0  0  0  0  0  0  0  0  0  0
  -28.4503   -4.0098   -8.3791 H   0  0  0  0  0  0  0  0  0  0  0  0
  -28.7267   -3.1089   -6.5458 C   0  0  0  0  0  0  0  0  0  0  0  0
  -29.2861   -3.2006   -5.2624 C   0  0  0  0  0  0  0  0  0  0  0  0
  -29.3131   -2.1044   -4.3979 C   0  0  0  0  0  0  0  0  0  0  0  0
  -28.7745   -0.8912   -4.7989 C   0  0  0  0  0  0  0  0  0  0  0  0
  -28.2082   -0.7871   -6.0668 C   0  0  0  0  0  0  0  0  0  0  0  0
  -27.6750    0.3893   -6.5016 O   0  0  0  0  0  0  0  0  0  0  0  0
  -28.1706   -1.8828   -6.9304 C   0  0  0  0  0  0  0  0  0  0  0  0
  -27.8366    1.0649   -5.8231 H   0  0  0  0  0  0  0  0  0  0  0  0
  1  2  2  0  0  0
  2  3  1  0  0  0
  2 16  1  0  0  0
  3  4  1  0  0  0
  4  5  1  0  0  0
  4  9  2  0  0  0
  5  6  2  0  0  0
  6  7  1  0  0  0
  7 18  1  0  0  0
  7  8  2  0  0  0
 18 20  1  0  0  0
 18 19  1  0  0  0
 20 21  1  0  0  0
 20 26  2  0  0  0
 21 22  2  0  0  0
 22 23  1  0  0  0
 23 24  2  0  0  0
 24 25  1  0  0  0
 24 26  1  0  0  0
 25 27  1  0  0  0
  8  9  1  0  0  0
  9 10  1  0  0  0
 10 11  1  0  0  0
 10 15  2  0  0  0
 11 12  2  0  0  0
 12 13  1  0  0  0
 13 14  2  0  0  0
 14 15  1  0  0  0
 15 16  1  0  0  0
 16 17  1  0  0  0
M  END
> <minimizedAffinity>
-9.09026

$$$$
