CHEMBL2011305


 28 31  0  0  0  0  0  0  0  0999 V2000
  -28.6604   -6.9085   -7.2222 C   0  0  0  0  0  0  0  0  0  0  0  0
  -28.8569   -5.5714   -7.4901 C   0  0  0  0  0  0  0  0  0  0  0  0
  -28.6303   -4.8795   -6.3223 N   0  0  0  0  0  0  0  0  0  0  0  0
  -28.2598   -5.7118   -5.3200 N   0  0  0  0  0  0  0  0  0  0  0  0
  -28.3460   -6.9529   -5.8264 C   0  0  0  0  0  0  0  0  0  0  0  0
  -29.0836  -11.2111  -10.7576 F   0  0  0  0  0  0  0  0  0  0  0  0
  -29.0051  -10.1389   -9.9609 C   0  0  0  0  0  0  0  0  0  0  0  0
  -27.8202   -9.4192   -9.8991 C   0  0  0  0  0  0  0  0  0  0  0  0
  -27.7317   -8.3133   -9.0485 C   0  0  0  0  0  0  0  0  0  0  0  0
  -28.8106   -7.9603   -8.2207 C   0  0  0  0  0  0  0  0  0  0  0  0
  -30.0095   -8.6818   -8.3253 C   0  0  0  0  0  0  0  0  0  0  0  0
  -30.1060   -9.7683   -9.1985 C   0  0  0  0  0  0  0  0  0  0  0  0
  -28.7551   -3.4765   -6.1035 C   0  0  0  0  0  0  0  0  0  0  0  0
  -29.5003   -2.9750   -5.0272 C   0  0  0  0  0  0  0  0  0  0  0  0
  -29.6034   -1.5941   -4.8244 C   0  0  0  0  0  0  0  0  0  0  0  0
  -28.9749   -0.6905   -5.6931 C   0  0  0  0  0  0  0  0  0  0  0  0
  -28.2283   -1.1979   -6.7668 C   0  0  0  0  0  0  0  0  0  0  0  0
  -28.1140   -2.5777   -6.9691 C   0  0  0  0  0  0  0  0  0  0  0  0
  -29.0934    0.8001   -5.4886 C   0  0  0  0  0  0  0  0  0  0  0  0
  -28.6970    1.5299   -6.5704 F   0  0  0  0  0  0  0  0  0  0  0  0
  -30.3694    1.1935   -5.2227 F   0  0  0  0  0  0  0  0  0  0  0  0
  -28.3385    1.2445   -4.4451 F   0  0  0  0  0  0  0  0  0  0  0  0
  -28.1345   -8.1216   -4.9634 C   0  0  0  0  0  0  0  0  0  0  0  0
  -29.1899   -8.9782   -4.6373 C   0  0  0  0  0  0  0  0  0  0  0  0
  -28.9268  -10.1024   -3.8745 C   0  0  0  0  0  0  0  0  0  0  0  0
  -27.7069  -10.4057   -3.3859 N   0  0  0  0  0  0  0  0  0  0  0  0
  -26.7106   -9.5405   -3.6680 C   0  0  0  0  0  0  0  0  0  0  0  0
  -26.8692   -8.4039   -4.4450 C   0  0  0  0  0  0  0  0  0  0  0  0
  6  7  1  0  0  0
  7  8  1  0  0  0
  7 12  2  0  0  0
  8  9  2  0  0  0
  9 10  1  0  0  0
 10  1  1  0  0  0
 10 11  2  0  0  0
  1  2  2  0  0  0
  1  5  1  0  0  0
  2  3  1  0  0  0
  3 13  1  0  0  0
  3  4  1  0  0  0
 13 14  1  0  0  0
 13 18  2  0  0  0
 14 15  2  0  0  0
 15 16  1  0  0  0
 16 19  1  0  0  0
 16 17  2  0  0  0
 19 20  1  0  0  0
 19 21  1  0  0  0
 19 22  1  0  0  0
 17 18  1  0  0  0
  4  5  2  0  0  0
  5 23  1  0  0  0
 23 24  1  0  0  0
 23 28  2  0  0  0
 24 25  2  0  0  0
 25 26  1  0  0  0
 26 27  2  0  0  0
 27 28  1  0  0  0
 11 12  1  0  0  0
M  END
> <minimizedAffinity>
-9.50627

$$$$
