CHEMBL3648101


 26 27  0  0  0  0  0  0  0  0999 V2000
  -28.7982   -2.2402   -5.5391 C   0  0  0  0  0  0  0  0  0  0  0  0
  -28.8015   -3.3857   -6.2652 N   0  0  0  0  0  0  0  0  0  0  0  0
  -28.2206   -3.3539   -7.4715 C   0  0  0  0  0  0  0  0  0  0  0  0
  -27.6759   -2.2438   -7.9931 N   0  0  0  0  0  0  0  0  0  0  0  0
  -27.7383   -1.1112   -7.2729 C   0  0  0  0  0  0  0  0  0  0  0  0
  -28.2913   -1.0446   -6.0207 C   0  0  0  0  0  0  0  0  0  0  0  0
  -28.2949    0.6062   -5.1055 Br  0  0  0  0  0  0  0  0  0  0  0  0
  -28.2124   -4.5268   -8.2229 N   0  0  0  0  0  0  0  0  0  0  0  0
  -27.7569   -4.4257   -9.1156 H   0  0  0  0  0  0  0  0  0  0  0  0
  -28.8693   -5.7283   -7.9330 C   0  0  0  0  0  0  0  0  0  0  0  0
  -28.2827   -6.9640   -8.2553 C   0  0  0  0  0  0  0  0  0  0  0  0
  -28.9813   -8.1609   -8.1148 C   0  0  0  0  0  0  0  0  0  0  0  0
  -30.2969   -8.1353   -7.6601 C   0  0  0  0  0  0  0  0  0  0  0  0
  -30.8960   -6.9223   -7.2988 C   0  0  0  0  0  0  0  0  0  0  0  0
  -30.1757   -5.7251   -7.4307 C   0  0  0  0  0  0  0  0  0  0  0  0
  -31.2218   -9.6630   -7.6357 S   0  0  0  0  0  0  0  0  0  0  0  0
  -30.3741  -10.6923   -8.8017 C   0  0  0  0  0  0  0  0  0  0  0  0
  -31.0249  -10.2528   -6.2250 N   0  0  0  0  0  0  0  0  0  0  0  0
  -32.5155   -9.3828   -8.2300 O   0  0  0  0  0  0  0  0  0  0  0  0
  -30.0642  -10.5184   -6.0170 H   0  0  0  0  0  0  0  0  0  0  0  0
  -29.5351   -2.3547   -3.9104 S   0  0  0  0  0  0  0  0  0  0  0  0
  -29.2733   -4.1337   -3.5488 C   0  0  0  0  0  0  0  0  0  0  0  0
  -30.3531   -6.4660   -3.7080 C   0  0  0  0  0  0  0  0  0  0  0  0
  -30.5563   -4.9556   -3.7532 C   0  0  0  0  0  0  0  0  0  0  0  0
  -31.5419   -4.5912   -2.7846 O   0  0  0  0  0  0  0  0  0  0  0  0
  -31.1250   -4.6956   -1.9085 H   0  0  0  0  0  0  0  0  0  0  0  0
 23 24  1  0  0  0
 24 25  1  0  0  0
 24 22  1  0  0  0
 25 26  1  0  0  0
 22 21  1  0  0  0
 21  1  1  0  0  0
  1  2  1  0  0  0
  1  6  2  0  0  0
  2  3  2  0  0  0
  3  8  1  0  0  0
  3  4  1  0  0  0
  8 10  1  0  0  0
  8  9  1  0  0  0
 10 11  1  0  0  0
 10 15  2  0  0  0
 11 12  2  0  0  0
 12 13  1  0  0  0
 13 16  1  0  0  0
 13 14  2  0  0  0
 16 17  1  0  0  0
 16 18  2  0  0  0
 16 19  2  0  0  0
 18 20  1  0  0  0
 14 15  1  0  0  0
  4  5  2  0  0  0
  5  6  1  0  0  0
  6  7  1  0  0  0
M  END
> <minimizedAffinity>
-7.54383

$$$$
