CHEMBL3916488


 36 39  0  0  0  0  0  0  0  0999 V2000
  -20.8864    3.3400  -14.0057 C   0  0  0  0  0  0  0  0  0  0  0  0
  -19.9522    2.2998  -14.5618 C   0  0  0  0  0  0  0  0  0  0  0  0
  -18.5844    2.6516  -14.6221 C   0  0  0  0  0  0  0  0  0  0  0  0
  -17.6029    1.7424  -15.0212 C   0  0  0  0  0  0  0  0  0  0  0  0
  -17.9938    0.4726  -15.4134 C   0  0  0  0  0  0  0  0  0  0  0  0
  -19.3498    0.1203  -15.3961 C   0  0  0  0  0  0  0  0  0  0  0  0
  -20.3536    1.0191  -14.9966 C   0  0  0  0  0  0  0  0  0  0  0  0
  -21.7355    0.6651  -15.0509 N   0  0  0  0  0  0  0  0  0  0  0  0
  -22.5002    0.2315  -13.9715 C   0  0  0  0  0  0  0  0  0  0  0  0
  -22.1087    0.1384  -12.8127 O   0  0  0  0  0  0  0  0  0  0  0  0
  -23.7793   -0.1778  -14.3455 N   0  0  0  0  0  0  0  0  0  0  0  0
  -22.1755    0.6745  -15.9582 H   0  0  0  0  0  0  0  0  0  0  0  0
  -23.8257   -0.6141  -15.2548 H   0  0  0  0  0  0  0  0  0  0  0  0
  -24.6780   -0.6778  -13.3698 C   0  0  0  0  0  0  0  0  0  0  0  0
  -24.3287   -0.6157  -12.0185 C   0  0  0  0  0  0  0  0  0  0  0  0
  -25.2357   -1.0244  -11.0315 C   0  0  0  0  0  0  0  0  0  0  0  0
  -26.4856   -1.5549  -11.3831 C   0  0  0  0  0  0  0  0  0  0  0  0
  -26.8200   -1.6628  -12.7343 C   0  0  0  0  0  0  0  0  0  0  0  0
  -28.3260   -2.3416  -13.2508 Cl  0  0  0  0  0  0  0  0  0  0  0  0
  -25.9266   -1.2173  -13.7198 C   0  0  0  0  0  0  0  0  0  0  0  0
  -27.3801   -1.9659  -10.3410 C   0  0  0  0  0  0  0  0  0  0  0  0
  -28.0633   -2.3078   -9.4673 N   0  0  0  0  0  0  0  0  0  0  0  0
  -16.2628    2.0558  -15.1128 O   0  0  0  0  0  0  0  0  0  0  0  0
  -15.3505    1.2151  -14.4797 C   0  0  0  0  0  0  0  0  0  0  0  0
  -15.8640    0.2289  -13.6600 C   0  0  0  0  0  0  0  0  0  0  0  0
  -14.9326   -0.5802  -13.0404 C   0  0  0  0  0  0  0  0  0  0  0  0
  -13.6193   -0.4317  -13.2512 N   0  0  0  0  0  0  0  0  0  0  0  0
  -13.2277    0.5613  -14.0489 C   0  0  0  0  0  0  0  0  0  0  0  0
  -14.0350    1.4197  -14.6671 N   0  0  0  0  0  0  0  0  0  0  0  0
  -15.3767   -1.5892  -12.1663 N   0  0  0  0  0  0  0  0  0  0  0  0
  -15.8549   -2.8138  -12.5884 C   0  0  0  0  0  0  0  0  0  0  0  0
  -15.9483   -3.2249  -13.7364 O   0  0  0  0  0  0  0  0  0  0  0  0
  -15.3264   -1.4143  -11.1752 H   0  0  0  0  0  0  0  0  0  0  0  0
  -16.3176   -3.6968  -11.4730 C   0  0  0  0  0  0  0  0  0  0  0  0
  -15.4527   -4.8493  -11.0017 C   0  0  0  0  0  0  0  0  0  0  0  0
  -16.6962   -5.1264  -11.7932 C   0  0  0  0  0  0  0  0  0  0  0  0
  1  2  1  0  0  0
  2  3  1  0  0  0
  2  7  2  0  0  0
  3  4  2  0  0  0
  4 23  1  0  0  0
  4  5  1  0  0  0
 23 24  1  0  0  0
 24 25  1  0  0  0
 24 29  2  0  0  0
 25 26  2  0  0  0
 26 30  1  0  0  0
 26 27  1  0  0  0
 30 31  1  0  0  0
 30 33  1  0  0  0
 31 32  2  0  0  0
 31 34  1  0  0  0
 34 35  1  0  0  0
 34 36  1  0  0  0
 35 36  1  0  0  0
 27 28  2  0  0  0
 28 29  1  0  0  0
  5  6  2  0  0  0
  6  7  1  0  0  0
  7  8  1  0  0  0
  8  9  1  0  0  0
  8 12  1  0  0  0
  9 10  2  0  0  0
  9 11  1  0  0  0
 11 14  1  0  0  0
 11 13  1  0  0  0
 14 15  1  0  0  0
 14 20  2  0  0  0
 15 16  2  0  0  0
 16 17  1  0  0  0
 17 21  1  0  0  0
 17 18  2  0  0  0
 21 22  3  0  0  0
 18 19  1  0  0  0
 18 20  1  0  0  0
M  END
> <minimizedAffinity>
-10.13625

$$$$
