CHEMBL88462


 30 34  0  0  0  0  0  0  0  0999 V2000
  -14.5396    4.4837  -17.7122 C   0  0  0  0  0  0  0  0  0  0  0  0
  -15.5614    4.4128  -16.7246 C   0  0  0  0  0  0  0  0  0  0  0  0
  -15.7839    3.2769  -15.9524 C   0  0  0  0  0  0  0  0  0  0  0  0
  -14.9507    2.1961  -16.1444 C   0  0  0  0  0  0  0  0  0  0  0  0
  -13.9375    2.2375  -17.0997 C   0  0  0  0  0  0  0  0  0  0  0  0
  -13.7156    3.3532  -17.8938 C   0  0  0  0  0  0  0  0  0  0  0  0
  -13.2346    1.0320  -17.0970 N   0  0  0  0  0  0  0  0  0  0  0  0
  -13.7335    0.1506  -16.1404 C   0  0  0  0  0  0  0  0  0  0  0  0
  -13.3275   -0.9687  -15.8942 O   0  0  0  0  0  0  0  0  0  0  0  0
  -14.8683    0.8897  -15.4802 C   0  0  0  0  0  0  0  0  0  0  0  0
  -15.6965    0.5802  -14.4732 C   0  0  0  0  0  0  0  0  0  0  0  0
  -12.4511    0.8122  -17.6929 H   0  0  0  0  0  0  0  0  0  0  0  0
  -15.7647   -0.5813  -13.6732 C   0  0  0  0  0  0  0  0  0  0  0  0
  -15.6354   -0.7001  -12.2983 C   0  0  0  0  0  0  0  0  0  0  0  0
  -15.7603   -2.0627  -11.9662 C   0  0  0  0  0  0  0  0  0  0  0  0
  -15.9482   -2.7425  -13.1504 C   0  0  0  0  0  0  0  0  0  0  0  0
  -15.9651   -1.8423  -14.1812 N   0  0  0  0  0  0  0  0  0  0  0  0
  -16.1099   -4.2120  -13.2906 C   0  0  0  0  0  0  0  0  0  0  0  0
  -16.5594   -4.7901  -11.9360 C   0  0  0  0  0  0  0  0  0  0  0  0
  -15.6983   -4.2613  -10.7708 C   0  0  0  0  0  0  0  0  0  0  0  0
  -15.7513   -2.7276  -10.6349 C   0  0  0  0  0  0  0  0  0  0  0  0
  -16.1109   -2.0692  -15.1622 H   0  0  0  0  0  0  0  0  0  0  0  0
  -13.5507    6.8204  -18.1038 C   0  0  0  0  0  0  0  0  0  0  0  0
  -13.6254    8.0432  -18.7932 C   0  0  0  0  0  0  0  0  0  0  0  0
  -14.5068    8.2173  -19.8621 C   0  0  0  0  0  0  0  0  0  0  0  0
  -15.2981    7.1616  -20.2834 C   0  0  0  0  0  0  0  0  0  0  0  0
  -15.2277    5.9438  -19.6115 C   0  0  0  0  0  0  0  0  0  0  0  0
  -14.3961    5.7512  -18.4811 C   0  0  0  0  0  0  0  0  0  0  0  0
  -11.3134    6.7133  -17.2631 C   0  0  0  0  0  0  0  0  0  0  0  0
  -12.7139    6.6125  -17.0349 O   0  0  0  0  0  0  0  0  0  0  0  0
 29 30  1  0  0  0
 30 23  1  0  0  0
 23 24  1  0  0  0
 23 28  2  0  0  0
 24 25  2  0  0  0
 25 26  1  0  0  0
 26 27  2  0  0  0
 27 28  1  0  0  0
 28  1  1  0  0  0
  1  2  1  0  0  0
  1  6  2  0  0  0
  2  3  2  0  0  0
  3  4  1  0  0  0
  4  5  2  0  0  0
  4 10  1  0  0  0
  5  6  1  0  0  0
  5  7  1  0  0  0
  7  8  1  0  0  0
  7 12  1  0  0  0
  8  9  2  0  0  0
  8 10  1  0  0  0
 10 11  2  0  0  0
 11 13  1  0  0  0
 13 14  2  0  0  0
 13 17  1  0  0  0
 14 15  1  0  0  0
 15 16  2  0  0  0
 15 21  1  0  0  0
 16 17  1  0  0  0
 16 18  1  0  0  0
 17 22  1  0  0  0
 18 19  1  0  0  0
 19 20  1  0  0  0
 20 21  1  0  0  0
M  END
> <minimizedAffinity>
-7.83521

$$$$
