CHEMBL1098121


 38 41  0  0  0  0  0  0  0  0999 V2000
  -23.7960   -0.7775  -14.2901 N   0  0  0  0  0  0  0  0  0  0  0  0
  -24.8416   -1.0347  -15.1148 C   0  0  0  0  0  0  0  0  0  0  0  0
  -25.9517   -1.4115  -14.3721 C   0  0  0  0  0  0  0  0  0  0  0  0
  -25.5377   -1.4343  -13.0599 C   0  0  0  0  0  0  0  0  0  0  0  0
  -26.2523   -1.6813  -11.8924 C   0  0  0  0  0  0  0  0  0  0  0  0
  -25.5776   -1.5807  -10.6685 C   0  0  0  0  0  0  0  0  0  0  0  0
  -24.1835   -1.2784  -10.6549 C   0  0  0  0  0  0  0  0  0  0  0  0
  -23.4967   -1.0133  -11.8464 C   0  0  0  0  0  0  0  0  0  0  0  0
  -24.2125   -1.0804  -13.0403 C   0  0  0  0  0  0  0  0  0  0  0  0
  -22.5603   -0.0861  -14.6833 C   0  0  0  0  0  0  0  0  0  0  0  0
  -22.5578    1.2787  -13.9602 C   0  0  0  0  0  0  0  0  0  0  0  0
  -21.4108    2.2178  -14.3300 C   0  0  0  0  0  0  0  0  0  0  0  0
  -20.4668    1.5914  -15.3880 C   0  0  0  0  0  0  0  0  0  0  0  0
  -19.1389    1.0842  -14.7864 C   0  0  0  0  0  0  0  0  0  0  0  0
  -15.5970    3.1708  -16.1627 C   0  0  0  0  0  0  0  0  0  0  0  0
  -16.7950    3.8789  -15.9247 C   0  0  0  0  0  0  0  0  0  0  0  0
  -17.9448    3.2014  -15.5045 C   0  0  0  0  0  0  0  0  0  0  0  0
  -17.9251    1.8102  -15.3150 C   0  0  0  0  0  0  0  0  0  0  0  0
  -16.7402    1.1048  -15.5712 C   0  0  0  0  0  0  0  0  0  0  0  0
  -15.5917    1.7802  -15.9916 C   0  0  0  0  0  0  0  0  0  0  0  0
  -13.7306    4.7710  -15.8645 C   0  0  0  0  0  0  0  0  0  0  0  0
  -14.4238    3.7651  -16.5130 O   0  0  0  0  0  0  0  0  0  0  0  0
  -27.3601   -1.5649  -14.8684 C   0  0  0  0  0  0  0  0  0  0  0  0
  -28.3244   -1.8377  -13.7041 C   0  0  0  0  0  0  0  0  0  0  0  0
  -28.7359   -3.2331  -13.7009 N   0  0  0  0  0  0  0  0  0  0  0  0
  -29.2274   -3.4505  -14.5957 H   0  0  0  0  0  0  0  0  0  0  0  0
  -29.4087   -3.3767  -12.9114 H   0  0  0  0  0  0  0  0  0  0  0  0
  -26.2980   -1.7344   -9.5305 O   0  0  0  0  0  0  0  0  0  0  0  0
  -27.6263   -2.0912   -9.5158 C   0  0  0  0  0  0  0  0  0  0  0  0
  -28.0016   -2.7512   -8.1921 C   0  0  0  0  0  0  0  0  0  0  0  0
  -28.0406   -1.6874   -7.1221 C   0  0  0  0  0  0  0  0  0  0  0  0
  -28.4534   -0.3793   -7.4321 C   0  0  0  0  0  0  0  0  0  0  0  0
  -28.4402    0.6117   -6.4498 C   0  0  0  0  0  0  0  0  0  0  0  0
  -28.0247    0.3070   -5.1467 C   0  0  0  0  0  0  0  0  0  0  0  0
  -27.9985    1.2572   -4.1924 O   0  0  0  0  0  0  0  0  0  0  0  0
  -27.6278   -0.9994   -4.8327 C   0  0  0  0  0  0  0  0  0  0  0  0
  -27.6369   -1.9941   -5.8171 C   0  0  0  0  0  0  0  0  0  0  0  0
  -28.2542    2.1736   -4.3739 H   0  0  0  0  0  0  0  0  0  0  0  0
 21 22  1  0  0  0
 22 15  1  0  0  0
 15 16  1  0  0  0
 15 20  2  0  0  0
 16 17  2  0  0  0
 17 18  1  0  0  0
 18 14  1  0  0  0
 18 19  2  0  0  0
 14 13  1  0  0  0
 13 12  1  0  0  0
 12 11  1  0  0  0
 11 10  1  0  0  0
 10  1  1  0  0  0
  1  2  1  0  0  0
  1  9  1  0  0  0
  2  3  2  0  0  0
  3 23  1  0  0  0
  3  4  1  0  0  0
 23 24  1  0  0  0
 24 25  1  0  0  0
 25 26  1  0  0  0
 25 27  1  0  0  0
  4  5  1  0  0  0
  4  9  2  0  0  0
  5  6  2  0  0  0
  6 28  1  0  0  0
  6  7  1  0  0  0
 28 29  1  0  0  0
 29 30  1  0  0  0
 30 31  1  0  0  0
 31 32  1  0  0  0
 31 37  2  0  0  0
 32 33  2  0  0  0
 33 34  1  0  0  0
 34 35  1  0  0  0
 34 36  2  0  0  0
 35 38  1  0  0  0
 36 37  1  0  0  0
  7  8  2  0  0  0
  8  9  1  0  0  0
 19 20  1  0  0  0
M  END
> <minimizedAffinity>
-8.71272

$$$$
