CHEMBL3348846


 37 40  0  0  0  0  0  0  0  0999 V2000
  -18.6306    2.4705  -15.5959 N   0  0  0  0  0  0  0  0  0  0  0  0
  -17.3764    2.2093  -15.0770 C   0  0  0  0  0  0  0  0  0  0  0  0
  -17.1286    1.5457  -14.0729 O   0  0  0  0  0  0  0  0  0  0  0  0
  -18.7269    2.9884  -16.4530 H   0  0  0  0  0  0  0  0  0  0  0  0
  -21.4891    0.6913  -14.4317 C   0  0  0  0  0  0  0  0  0  0  0  0
  -20.2989    0.7010  -15.1303 C   0  0  0  0  0  0  0  0  0  0  0  0
  -19.7952    2.0174  -15.0080 C   0  0  0  0  0  0  0  0  0  0  0  0
  -20.6088    2.7584  -14.2572 N   0  0  0  0  0  0  0  0  0  0  0  0
  -21.6153    1.9536  -13.9239 N   0  0  0  0  0  0  0  0  0  0  0  0
  -22.3608    2.3395  -13.3540 H   0  0  0  0  0  0  0  0  0  0  0  0
  -22.5345   -0.3445  -14.2068 C   0  0  0  0  0  0  0  0  0  0  0  0
  -22.6952   -0.7005  -12.7277 C   0  0  0  0  0  0  0  0  0  0  0  0
  -25.8624   -1.4387  -10.7433 C   0  0  0  0  0  0  0  0  0  0  0  0
  -24.5408   -1.1151  -11.0518 C   0  0  0  0  0  0  0  0  0  0  0  0
  -24.1273   -1.0225  -12.3906 C   0  0  0  0  0  0  0  0  0  0  0  0
  -25.0473   -1.2698  -13.4179 C   0  0  0  0  0  0  0  0  0  0  0  0
  -26.3636   -1.6103  -13.1147 C   0  0  0  0  0  0  0  0  0  0  0  0
  -26.7694   -1.6670  -11.7808 C   0  0  0  0  0  0  0  0  0  0  0  0
  -27.5507   -2.3766   -9.3508 C   0  0  0  0  0  0  0  0  0  0  0  0
  -26.3849   -1.5750   -9.4867 O   0  0  0  0  0  0  0  0  0  0  0  0
  -27.3314   -1.8796  -14.0430 O   0  0  0  0  0  0  0  0  0  0  0  0
  -28.5300   -2.4422  -13.5170 C   0  0  0  0  0  0  0  0  0  0  0  0
  -16.2118    2.7648  -15.8059 C   0  0  0  0  0  0  0  0  0  0  0  0
  -15.0794    2.0347  -16.1699 C   0  0  0  0  0  0  0  0  0  0  0  0
  -14.0662    2.6495  -16.9321 C   0  0  0  0  0  0  0  0  0  0  0  0
  -14.1526    3.9919  -17.3317 C   0  0  0  0  0  0  0  0  0  0  0  0
  -15.3132    4.6870  -16.9692 C   0  0  0  0  0  0  0  0  0  0  0  0
  -16.3200    4.0950  -16.2149 C   0  0  0  0  0  0  0  0  0  0  0  0
  -13.1565    4.6364  -18.0349 N   0  0  0  0  0  0  0  0  0  0  0  0
  -11.8767    5.0654  -17.4603 C   0  0  0  0  0  0  0  0  0  0  0  0
  -11.6069    6.5838  -17.6692 C   0  0  0  0  0  0  0  0  0  0  0  0
  -12.1731    7.4351  -16.5317 C   0  0  0  0  0  0  0  0  0  0  0  0
  -11.9817    7.1324  -18.9967 N   0  0  0  0  0  0  0  0  0  0  0  0
  -13.2927    6.6389  -19.4819 C   0  0  0  0  0  0  0  0  0  0  0  0
  -14.4820    7.3324  -18.8084 C   0  0  0  0  0  0  0  0  0  0  0  0
  -13.4197    5.0993  -19.4056 C   0  0  0  0  0  0  0  0  0  0  0  0
  -11.2854    6.7872  -19.6600 H   0  0  0  0  0  0  0  0  0  0  0  0
 19 20  1  0  0  0
 20 13  1  0  0  0
 13 14  1  0  0  0
 13 18  2  0  0  0
 14 15  2  0  0  0
 15 12  1  0  0  0
 15 16  1  0  0  0
 12 11  1  0  0  0
 11  5  1  0  0  0
  5  6  2  0  0  0
  5  9  1  0  0  0
  6  7  1  0  0  0
  7  1  1  0  0  0
  7  8  2  0  0  0
  1  2  1  0  0  0
  1  4  1  0  0  0
  2  3  2  0  0  0
  2 23  1  0  0  0
 23 24  1  0  0  0
 23 28  2  0  0  0
 24 25  2  0  0  0
 25 26  1  0  0  0
 26 29  1  0  0  0
 26 27  2  0  0  0
 29 30  1  0  0  0
 29 36  1  0  0  0
 30 31  1  0  0  0
 31 33  1  0  0  0
 31 32  1  0  0  0
 33 34  1  0  0  0
 33 37  1  0  0  0
 34 36  1  0  0  0
 34 35  1  0  0  0
 27 28  1  0  0  0
  8  9  1  0  0  0
  9 10  1  0  0  0
 16 17  2  0  0  0
 17 21  1  0  0  0
 17 18  1  0  0  0
 21 22  1  0  0  0
M  END
> <minimizedAffinity>
-9.26205

$$$$
