CHEMBL148869


 30 32  0  0  0  0  0  0  0  0999 V2000
  -17.7607    2.4247  -15.0811 C   0  0  0  0  0  0  0  0  0  0  0  0
  -18.8596    3.2878  -14.9044 C   0  0  0  0  0  0  0  0  0  0  0  0
  -20.1482    2.8325  -14.6596 C   0  0  0  0  0  0  0  0  0  0  0  0
  -21.1247    3.7231  -14.4613 N   0  0  0  0  0  0  0  0  0  0  0  0
  -22.3371    3.2301  -14.1795 C   0  0  0  0  0  0  0  0  0  0  0  0
  -22.6544    1.9404  -14.0808 N   0  0  0  0  0  0  0  0  0  0  0  0
  -21.6669    1.0488  -14.2984 C   0  0  0  0  0  0  0  0  0  0  0  0
  -20.3631    1.4534  -14.6128 C   0  0  0  0  0  0  0  0  0  0  0  0
  -19.2750    0.5724  -14.7954 C   0  0  0  0  0  0  0  0  0  0  0  0
  -17.9684    1.0476  -14.9484 C   0  0  0  0  0  0  0  0  0  0  0  0
  -21.9518   -0.3315  -14.1331 N   0  0  0  0  0  0  0  0  0  0  0  0
  -21.7905   -0.8395  -14.9990 H   0  0  0  0  0  0  0  0  0  0  0  0
  -23.0538   -0.8341  -13.4076 C   0  0  0  0  0  0  0  0  0  0  0  0
  -22.9164   -1.2179  -12.0661 C   0  0  0  0  0  0  0  0  0  0  0  0
  -24.0207   -1.6418  -11.3283 C   0  0  0  0  0  0  0  0  0  0  0  0
  -25.2733   -1.7018  -11.9352 C   0  0  0  0  0  0  0  0  0  0  0  0
  -26.6438   -2.1630  -11.0046 Cl  0  0  0  0  0  0  0  0  0  0  0  0
  -25.4238   -1.3807  -13.2815 C   0  0  0  0  0  0  0  0  0  0  0  0
  -24.3129   -0.9604  -14.0065 C   0  0  0  0  0  0  0  0  0  0  0  0
  -24.4622   -0.6397  -15.3015 F   0  0  0  0  0  0  0  0  0  0  0  0
  -16.6103    3.1231  -15.3427 O   0  0  0  0  0  0  0  0  0  0  0  0
  -16.4280    3.6709  -16.6419 C   0  0  0  0  0  0  0  0  0  0  0  0
  -15.0003    3.5141  -17.1347 C   0  0  0  0  0  0  0  0  0  0  0  0
  -13.3601    1.8106  -17.1280 C   0  0  0  0  0  0  0  0  0  0  0  0
  -14.7425    2.1093  -17.1777 O   0  0  0  0  0  0  0  0  0  0  0  0
  -17.0556    0.0253  -14.9270 O   0  0  0  0  0  0  0  0  0  0  0  0
  -16.1318    0.0377  -13.8466 C   0  0  0  0  0  0  0  0  0  0  0  0
  -15.5721   -1.3234  -13.4711 C   0  0  0  0  0  0  0  0  0  0  0  0
  -15.4237   -1.2695  -12.0488 O   0  0  0  0  0  0  0  0  0  0  0  0
  -15.7617   -2.4727  -11.3927 C   0  0  0  0  0  0  0  0  0  0  0  0
 24 25  1  0  0  0
 25 23  1  0  0  0
 23 22  1  0  0  0
 22 21  1  0  0  0
 21  1  1  0  0  0
  1  2  1  0  0  0
  1 10  2  0  0  0
  2  3  2  0  0  0
  3  4  1  0  0  0
  3  8  1  0  0  0
  4  5  2  0  0  0
  5  6  1  0  0  0
  6  7  2  0  0  0
  7 11  1  0  0  0
  7  8  1  0  0  0
 11 13  1  0  0  0
 11 12  1  0  0  0
 13 14  1  0  0  0
 13 19  2  0  0  0
 14 15  2  0  0  0
 15 16  1  0  0  0
 16 17  1  0  0  0
 16 18  2  0  0  0
 18 19  1  0  0  0
 19 20  1  0  0  0
  8  9  2  0  0  0
  9 10  1  0  0  0
 10 26  1  0  0  0
 26 27  1  0  0  0
 27 28  1  0  0  0
 28 29  1  0  0  0
 29 30  1  0  0  0
M  END
> <minimizedAffinity>
-8.09053

$$$$
