CHEMBL2002105


 14 15  0  0  0  0  0  0  0  0999 V2000
  -30.8555   -4.2930   -3.3084 N   0  0  0  0  0  0  0  0  0  0  0  0
  -29.6102   -4.0516   -3.7277 C   0  0  0  0  0  0  0  0  0  0  0  0
  -28.6193   -4.9334   -3.6088 N   0  0  0  0  0  0  0  0  0  0  0  0
  -27.5612   -4.2955   -4.1482 N   0  0  0  0  0  0  0  0  0  0  0  0
  -27.8458   -3.0420   -4.6050 C   0  0  0  0  0  0  0  0  0  0  0  0
  -26.9839   -2.1850   -5.1875 N   0  0  0  0  0  0  0  0  0  0  0  0
  -27.5765   -1.0125   -5.5314 C   0  0  0  0  0  0  0  0  0  0  0  0
  -28.9149   -0.6892   -5.3254 C   0  0  0  0  0  0  0  0  0  0  0  0
  -29.5873    0.9913   -5.8615 Br  0  0  0  0  0  0  0  0  0  0  0  0
  -29.7619   -1.6157   -4.7179 C   0  0  0  0  0  0  0  0  0  0  0  0
  -29.1936   -2.8445   -4.3441 C   0  0  0  0  0  0  0  0  0  0  0  0
  -31.0709   -5.1861   -2.8808 H   0  0  0  0  0  0  0  0  0  0  0  0
  -31.6214   -3.6399   -3.3945 H   0  0  0  0  0  0  0  0  0  0  0  0
  -26.6646   -4.7637   -4.1807 H   0  0  0  0  0  0  0  0  0  0  0  0
  1  2  1  0  0  0
  1 12  1  0  0  0
  1 13  1  0  0  0
  2  3  2  0  0  0
  2 11  1  0  0  0
  3  4  1  0  0  0
  4  5  1  0  0  0
  4 14  1  0  0  0
  5  6  1  0  0  0
  5 11  2  0  0  0
  6  7  2  0  0  0
  7  8  1  0  0  0
  8  9  1  0  0  0
  8 10  2  0  0  0
 10 11  1  0  0  0
M  END
> <minimizedAffinity>
-5.59695

$$$$
