CHEMBL4450127


 37 40  0  0  0  0  0  0  0  0999 V2000
  -24.8588   10.7903  -16.0718 C   0  0  0  0  0  0  0  0  0  0  0  0
  -25.5810    9.7269  -16.6143 C   0  0  0  0  0  0  0  0  0  0  0  0
  -26.9645    9.6915  -16.5131 C   0  0  0  0  0  0  0  0  0  0  0  0
  -27.6367   10.7516  -15.8713 C   0  0  0  0  0  0  0  0  0  0  0  0
  -26.9059   11.7792  -15.2666 C   0  0  0  0  0  0  0  0  0  0  0  0
  -25.5098   11.7871  -15.3447 C   0  0  0  0  0  0  0  0  0  0  0  0
  -21.6552   11.2450  -17.6836 N   0  0  0  0  0  0  0  0  0  0  0  0
  -23.0257   11.0921  -17.6181 C   0  0  0  0  0  0  0  0  0  0  0  0
  -23.7938   11.1358  -18.5778 O   0  0  0  0  0  0  0  0  0  0  0  0
  -23.4696   10.9306  -16.3097 N   0  0  0  0  0  0  0  0  0  0  0  0
  -21.1300   10.9769  -16.8656 H   0  0  0  0  0  0  0  0  0  0  0  0
  -22.9494   11.4666  -15.6310 H   0  0  0  0  0  0  0  0  0  0  0  0
  -19.3874   12.2704  -21.1110 C   0  0  0  0  0  0  0  0  0  0  0  0
  -20.7162   12.6590  -21.0259 C   0  0  0  0  0  0  0  0  0  0  0  0
  -21.4744   12.3255  -19.8991 C   0  0  0  0  0  0  0  0  0  0  0  0
  -20.9263   11.5907  -18.8422 C   0  0  0  0  0  0  0  0  0  0  0  0
  -19.5861   11.1995  -18.9346 C   0  0  0  0  0  0  0  0  0  0  0  0
  -18.8319   11.5288  -20.0655 C   0  0  0  0  0  0  0  0  0  0  0  0
  -17.1715   12.2643  -21.9507 C   0  0  0  0  0  0  0  0  0  0  0  0
  -18.5537   12.5432  -22.1589 O   0  0  0  0  0  0  0  0  0  0  0  0
  -29.1156   10.7369  -15.8582 C   0  0  0  0  0  0  0  0  0  0  0  0
  -29.7115   10.3322  -16.8583 O   0  0  0  0  0  0  0  0  0  0  0  0
  -29.7344   11.2599  -14.7089 N   0  0  0  0  0  0  0  0  0  0  0  0
  -29.1967   11.9567  -14.1997 H   0  0  0  0  0  0  0  0  0  0  0  0
  -31.0793   11.5521  -14.7628 N   0  0  0  0  0  0  0  0  0  0  0  0
  -31.6727   11.6292  -13.6090 C   0  0  0  0  0  0  0  0  0  0  0  0
  -31.0859   11.9428  -12.2230 C   0  0  0  0  0  0  0  0  0  0  0  0
  -30.1350   12.6587  -11.9932 O   0  0  0  0  0  0  0  0  0  0  0  0
  -31.8770   11.2426  -11.3347 N   0  0  0  0  0  0  0  0  0  0  0  0
  -32.8201   10.4915  -12.0354 C   0  0  0  0  0  0  0  0  0  0  0  0
  -33.4242    9.3251  -11.6229 C   0  0  0  0  0  0  0  0  0  0  0  0
  -34.1622    8.6139  -12.5824 C   0  0  0  0  0  0  0  0  0  0  0  0
  -34.3466    9.1209  -13.8870 C   0  0  0  0  0  0  0  0  0  0  0  0
  -35.2629    8.2172  -15.0299 Cl  0  0  0  0  0  0  0  0  0  0  0  0
  -33.7179   10.2888  -14.2989 C   0  0  0  0  0  0  0  0  0  0  0  0
  -32.9201   10.9125  -13.3615 C   0  0  0  0  0  0  0  0  0  0  0  0
  -31.6707   11.1827  -10.3498 H   0  0  0  0  0  0  0  0  0  0  0  0
 19 20  1  0  0  0
 20 13  1  0  0  0
 13 14  1  0  0  0
 13 18  2  0  0  0
 14 15  2  0  0  0
 15 16  1  0  0  0
 16  7  1  0  0  0
 16 17  2  0  0  0
  7  8  1  0  0  0
  7 11  1  0  0  0
  8  9  2  0  0  0
  8 10  1  0  0  0
 10  1  1  0  0  0
 10 12  1  0  0  0
  1  2  1  0  0  0
  1  6  2  0  0  0
  2  3  2  0  0  0
  3  4  1  0  0  0
  4 21  1  0  0  0
  4  5  2  0  0  0
 21 22  2  0  0  0
 21 23  1  0  0  0
 23 25  1  0  0  0
 23 24  1  0  0  0
 25 26  2  0  0  0
 26 27  1  0  0  0
 26 36  1  0  0  0
 27 28  2  0  0  0
 27 29  1  0  0  0
 29 30  1  0  0  0
 29 37  1  0  0  0
 30 31  1  0  0  0
 30 36  2  0  0  0
 31 32  2  0  0  0
 32 33  1  0  0  0
 33 34  1  0  0  0
 33 35  2  0  0  0
 35 36  1  0  0  0
  5  6  1  0  0  0
 17 18  1  0  0  0
M  END
> <minimizedAffinity>
-1.88014

$$$$
