CHEMBL2016913


 33 37  0  0  0  0  0  0  0  0999 V2000
  -13.7657   -5.7542  -11.0510 C   0  0  0  0  0  0  0  0  0  0  0  0
  -14.4106   -5.7139  -10.0027 O   0  0  0  0  0  0  0  0  0  0  0  0
  -13.7874   -4.6918  -11.9595 N   0  0  0  0  0  0  0  0  0  0  0  0
  -12.9117   -4.6812  -13.1519 C   0  0  0  0  0  0  0  0  0  0  0  0
  -12.9662   -3.5492  -14.1793 C   0  0  0  0  0  0  0  0  0  0  0  0
  -13.9691   -2.5511  -13.8313 C   0  0  0  0  0  0  0  0  0  0  0  0
  -14.2721   -1.4759  -14.6055 N   0  0  0  0  0  0  0  0  0  0  0  0
  -15.2264   -0.8344  -13.9528 C   0  0  0  0  0  0  0  0  0  0  0  0
  -15.5185   -1.4780  -12.7669 N   0  0  0  0  0  0  0  0  0  0  0  0
  -14.7389   -2.5958  -12.7058 C   0  0  0  0  0  0  0  0  0  0  0  0
  -14.7568   -3.6277  -11.6657 C   0  0  0  0  0  0  0  0  0  0  0  0
  -16.2027   -1.1574  -12.0881 H   0  0  0  0  0  0  0  0  0  0  0  0
  -15.9118    0.3535  -14.3071 C   0  0  0  0  0  0  0  0  0  0  0  0
  -17.2551    0.3294  -14.3167 C   0  0  0  0  0  0  0  0  0  0  0  0
  -18.0257    1.4812  -14.7682 C   0  0  0  0  0  0  0  0  0  0  0  0
  -19.4182    1.4597  -14.8283 C   0  0  0  0  0  0  0  0  0  0  0  0
  -20.1000    0.3816  -14.4115 F   0  0  0  0  0  0  0  0  0  0  0  0
  -20.1248    2.5445  -15.3355 C   0  0  0  0  0  0  0  0  0  0  0  0
  -19.4347    3.6756  -15.7794 C   0  0  0  0  0  0  0  0  0  0  0  0
  -18.0429    3.7222  -15.7008 C   0  0  0  0  0  0  0  0  0  0  0  0
  -17.3457    2.6248  -15.1990 C   0  0  0  0  0  0  0  0  0  0  0  0
  -15.9484    2.6594  -15.1319 N   0  0  0  0  0  0  0  0  0  0  0  0
  -15.1839    1.6058  -14.7009 C   0  0  0  0  0  0  0  0  0  0  0  0
  -13.9593    1.6975  -14.6480 O   0  0  0  0  0  0  0  0  0  0  0  0
  -15.4427    3.4869  -15.4172 H   0  0  0  0  0  0  0  0  0  0  0  0
  -12.8934   -6.9849  -11.4005 C   0  0  0  0  0  0  0  0  0  0  0  0
  -12.9144   -8.6928  -15.8724 C   0  0  0  0  0  0  0  0  0  0  0  0
  -13.4286   -8.8842  -14.5229 N   0  0  0  0  0  0  0  0  0  0  0  0
  -12.3357   -9.1147  -13.5607 C   0  0  0  0  0  0  0  0  0  0  0  0
  -12.8972   -9.3300  -12.1367 C   0  0  0  0  0  0  0  0  0  0  0  0
  -13.7121   -8.1982  -11.6303 N   0  0  0  0  0  0  0  0  0  0  0  0
  -14.7697   -7.9247  -12.6352 C   0  0  0  0  0  0  0  0  0  0  0  0
  -14.2587   -7.7476  -14.0882 C   0  0  0  0  0  0  0  0  0  0  0  0
 27 28  1  0  0  0
 28 29  1  0  0  0
 28 33  1  0  0  0
 29 30  1  0  0  0
 30 31  1  0  0  0
 31 26  1  0  0  0
 31 32  1  0  0  0
 26  1  1  0  0  0
  1  2  2  0  0  0
  1  3  1  0  0  0
  3  4  1  0  0  0
  3 11  1  0  0  0
  4  5  1  0  0  0
  5  6  1  0  0  0
  6  7  1  0  0  0
  6 10  2  0  0  0
  7  8  2  0  0  0
  8 13  1  0  0  0
  8  9  1  0  0  0
 13 14  2  0  0  0
 13 23  1  0  0  0
 14 15  1  0  0  0
 15 16  1  0  0  0
 15 21  2  0  0  0
 16 17  1  0  0  0
 16 18  2  0  0  0
 18 19  1  0  0  0
 19 20  2  0  0  0
 20 21  1  0  0  0
 21 22  1  0  0  0
 22 23  1  0  0  0
 22 25  1  0  0  0
 23 24  2  0  0  0
  9 10  1  0  0  0
  9 12  1  0  0  0
 10 11  1  0  0  0
 32 33  1  0  0  0
M  END
> <minimizedAffinity>
-7.76590

$$$$
