CHEMBL3221259


 32 34  0  0  0  0  0  0  0  0999 V2000
  -31.0197   -9.1522   -8.3471 C   0  0  0  0  0  0  0  0  0  0  0  0
  -31.4845   -8.2540   -7.3622 C   0  0  0  0  0  0  0  0  0  0  0  0
  -30.6593   -7.2236   -6.8999 C   0  0  0  0  0  0  0  0  0  0  0  0
  -29.3563   -7.1085   -7.3785 C   0  0  0  0  0  0  0  0  0  0  0  0
  -28.9055   -7.9890   -8.3823 C   0  0  0  0  0  0  0  0  0  0  0  0
  -29.7434   -8.9908   -8.8804 C   0  0  0  0  0  0  0  0  0  0  0  0
  -29.1089  -10.0769  -10.1120 Cl  0  0  0  0  0  0  0  0  0  0  0  0
  -31.7345  -11.4567   -8.2147 C   0  0  0  0  0  0  0  0  0  0  0  0
  -32.4376  -12.3712   -8.6202 O   0  0  0  0  0  0  0  0  0  0  0  0
  -31.8308  -10.2322   -8.7901 N   0  0  0  0  0  0  0  0  0  0  0  0
  -32.4316  -10.1088   -9.6177 H   0  0  0  0  0  0  0  0  0  0  0  0
  -30.7882  -11.6817   -7.2615 O   0  0  0  0  0  0  0  0  0  0  0  0
  -31.0108  -11.7344   -5.9015 C   0  0  0  0  0  0  0  0  0  0  0  0
  -29.7050  -11.6370   -5.1078 C   0  0  0  0  0  0  0  0  0  0  0  0
  -28.9416   -9.3505   -4.3894 C   0  0  0  0  0  0  0  0  0  0  0  0
  -28.8764  -10.4056   -5.4901 C   0  0  0  0  0  0  0  0  0  0  0  0
  -28.4820   -6.0933   -6.8687 N   0  0  0  0  0  0  0  0  0  0  0  0
  -27.5112   -6.0685   -7.2072 H   0  0  0  0  0  0  0  0  0  0  0  0
  -28.9607   -5.1103   -5.9655 C   0  0  0  0  0  0  0  0  0  0  0  0
  -29.6133   -5.5116   -4.8352 N   0  0  0  0  0  0  0  0  0  0  0  0
  -30.0813   -4.6341   -3.9225 C   0  0  0  0  0  0  0  0  0  0  0  0
  -29.8991   -3.2995   -4.1026 N   0  0  0  0  0  0  0  0  0  0  0  0
  -29.2461   -2.8354   -5.2021 C   0  0  0  0  0  0  0  0  0  0  0  0
  -29.0258   -1.4640   -5.3406 C   0  0  0  0  0  0  0  0  0  0  0  0
  -28.3366   -0.9350   -6.4632 C   0  0  0  0  0  0  0  0  0  0  0  0
  -27.8862   -1.8499   -7.4702 C   0  0  0  0  0  0  0  0  0  0  0  0
  -28.1170   -3.2208   -7.3044 C   0  0  0  0  0  0  0  0  0  0  0  0
  -28.7854   -3.7217   -6.1866 C   0  0  0  0  0  0  0  0  0  0  0  0
  -28.1099    0.4079   -6.5547 O   0  0  0  0  0  0  0  0  0  0  0  0
  -29.1110    1.3728   -6.5666 C   0  0  0  0  0  0  0  0  0  0  0  0
  -27.2208   -1.5577   -8.6206 O   0  0  0  0  0  0  0  0  0  0  0  0
  -27.4831   -1.8191   -9.9454 C   0  0  0  0  0  0  0  0  0  0  0  0
 15 16  1  0  0  0
 16 14  1  0  0  0
 14 13  1  0  0  0
 13 12  1  0  0  0
 12  8  1  0  0  0
  8  9  2  0  0  0
  8 10  1  0  0  0
 10  1  1  0  0  0
 10 11  1  0  0  0
  1  2  1  0  0  0
  1  6  2  0  0  0
  2  3  2  0  0  0
  3  4  1  0  0  0
  4 17  1  0  0  0
  4  5  2  0  0  0
 17 19  1  0  0  0
 17 18  1  0  0  0
 19 20  1  0  0  0
 19 28  2  0  0  0
 20 21  2  0  0  0
 21 22  1  0  0  0
 22 23  2  0  0  0
 23 24  1  0  0  0
 23 28  1  0  0  0
 24 25  2  0  0  0
 25 29  1  0  0  0
 25 26  1  0  0  0
 29 30  1  0  0  0
 26 31  1  0  0  0
 26 27  2  0  0  0
 31 32  1  0  0  0
 27 28  1  0  0  0
  5  6  1  0  0  0
  6  7  1  0  0  0
M  END
> <minimizedAffinity>
-7.88381

$$$$
