CHEMBL4541917


 30 33  0  0  0  0  0  0  0  0999 V2000
  -28.5482   -9.3537   -4.4833 C   0  0  0  0  0  0  0  0  0  0  0  0
  -28.8047   -9.2195   -5.6767 O   0  0  0  0  0  0  0  0  0  0  0  0
  -28.6310   -8.3393   -3.5391 N   0  0  0  0  0  0  0  0  0  0  0  0
  -27.9986   -8.4601   -2.7553 H   0  0  0  0  0  0  0  0  0  0  0  0
  -28.9836   -6.9994   -3.8384 C   0  0  0  0  0  0  0  0  0  0  0  0
  -30.2982   -6.6358   -3.5245 C   0  0  0  0  0  0  0  0  0  0  0  0
  -30.7858   -5.3532   -3.7692 C   0  0  0  0  0  0  0  0  0  0  0  0
  -29.9017   -4.4878   -4.4024 C   0  0  0  0  0  0  0  0  0  0  0  0
  -30.1806   -3.2092   -4.7437 O   0  0  0  0  0  0  0  0  0  0  0  0
  -29.0224   -2.7471   -5.3210 C   0  0  0  0  0  0  0  0  0  0  0  0
  -28.0601   -3.6603   -5.3981 N   0  0  0  0  0  0  0  0  0  0  0  0
  -28.6037   -4.7876   -4.7690 C   0  0  0  0  0  0  0  0  0  0  0  0
  -28.1063   -6.0733   -4.4625 C   0  0  0  0  0  0  0  0  0  0  0  0
  -29.0863   -1.3213   -5.6793 C   0  0  0  0  0  0  0  0  0  0  0  0
  -28.0773   -0.7646   -6.4954 C   0  0  0  0  0  0  0  0  0  0  0  0
  -28.1056    0.5736   -6.8957 C   0  0  0  0  0  0  0  0  0  0  0  0
  -29.1457    1.3907   -6.4762 C   0  0  0  0  0  0  0  0  0  0  0  0
  -30.1451    0.8722   -5.6511 C   0  0  0  0  0  0  0  0  0  0  0  0
  -30.1188   -0.4776   -5.2557 C   0  0  0  0  0  0  0  0  0  0  0  0
  -28.0542  -10.6853   -3.9048 C   0  0  0  0  0  0  0  0  0  0  0  0
  -23.7321  -10.9612   -3.3553 C   0  0  0  0  0  0  0  0  0  0  0  0
  -24.6183  -11.5790   -2.4622 C   0  0  0  0  0  0  0  0  0  0  0  0
  -26.0073  -11.5099   -2.6465 C   0  0  0  0  0  0  0  0  0  0  0  0
  -26.5530  -10.8157   -3.7291 C   0  0  0  0  0  0  0  0  0  0  0  0
  -25.6634  -10.1405   -4.5837 C   0  0  0  0  0  0  0  0  0  0  0  0
  -24.2655  -10.2173   -4.4202 C   0  0  0  0  0  0  0  0  0  0  0  0
  -21.7580  -12.2737   -3.1938 C   0  0  0  0  0  0  0  0  0  0  0  0
  -22.3727  -10.9880   -3.1798 O   0  0  0  0  0  0  0  0  0  0  0  0
  -23.5695   -9.4704   -5.3384 O   0  0  0  0  0  0  0  0  0  0  0  0
  -22.8701  -10.1795   -6.3549 C   0  0  0  0  0  0  0  0  0  0  0  0
 27 28  1  0  0  0
 28 21  1  0  0  0
 21 22  1  0  0  0
 21 26  2  0  0  0
 22 23  2  0  0  0
 23 24  1  0  0  0
 24 20  1  0  0  0
 24 25  2  0  0  0
 20  1  1  0  0  0
  1  2  2  0  0  0
  1  3  1  0  0  0
  3  5  1  0  0  0
  3  4  1  0  0  0
  5  6  1  0  0  0
  5 13  2  0  0  0
  6  7  2  0  0  0
  7  8  1  0  0  0
  8  9  1  0  0  0
  8 12  2  0  0  0
  9 10  1  0  0  0
 10 14  1  0  0  0
 10 11  2  0  0  0
 14 15  1  0  0  0
 14 19  2  0  0  0
 15 16  2  0  0  0
 16 17  1  0  0  0
 17 18  2  0  0  0
 18 19  1  0  0  0
 11 12  1  0  0  0
 12 13  1  0  0  0
 25 26  1  0  0  0
 26 29  1  0  0  0
 29 30  1  0  0  0
M  END
> <minimizedAffinity>
-8.30174

$$$$
