CHEMBL2005800


 24 26  0  0  0  0  0  0  0  0999 V2000
  -29.9234   -5.8163   -5.3166 C   0  0  0  0  0  0  0  0  0  0  0  0
  -30.5028   -5.0364   -4.3032 C   0  0  0  0  0  0  0  0  0  0  0  0
  -30.3418   -3.6465   -4.2910 C   0  0  0  0  0  0  0  0  0  0  0  0
  -29.6100   -3.0562   -5.3105 C   0  0  0  0  0  0  0  0  0  0  0  0
  -29.0524   -3.8449   -6.3384 C   0  0  0  0  0  0  0  0  0  0  0  0
  -29.2062   -5.2235   -6.3618 C   0  0  0  0  0  0  0  0  0  0  0  0
  -28.3395   -2.9120   -7.2573 C   0  0  0  0  0  0  0  0  0  0  0  0
  -27.6602   -3.1135   -8.3419 N   0  0  0  0  0  0  0  0  0  0  0  0
  -27.5970   -4.4574   -8.7011 O   0  0  0  0  0  0  0  0  0  0  0  0
  -28.5206   -1.5507   -6.6997 C   0  0  0  0  0  0  0  0  0  0  0  0
  -28.0498   -0.3380   -7.1735 C   0  0  0  0  0  0  0  0  0  0  0  0
  -28.3649    0.8050   -6.4377 C   0  0  0  0  0  0  0  0  0  0  0  0
  -29.1313    0.7106   -5.2622 C   0  0  0  0  0  0  0  0  0  0  0  0
  -29.5969   -0.5281   -4.8018 C   0  0  0  0  0  0  0  0  0  0  0  0
  -29.2849   -1.6643   -5.5317 C   0  0  0  0  0  0  0  0  0  0  0  0
  -27.0990   -4.4216   -9.5392 H   0  0  0  0  0  0  0  0  0  0  0  0
  -30.1143   -7.2355   -5.2859 N   0  0  0  0  0  0  0  0  0  0  0  0
  -30.9296   -7.5186   -4.7354 H   0  0  0  0  0  0  0  0  0  0  0  0
  -28.7995   -8.1730   -4.7576 S   0  0  0  0  0  0  0  0  0  0  0  0
  -29.3016   -8.9057   -3.6141 O   0  0  0  0  0  0  0  0  0  0  0  0
  -27.6053   -7.3630   -4.6820 O   0  0  0  0  0  0  0  0  0  0  0  0
  -28.6217   -9.3285   -6.1226 C   0  0  0  0  0  0  0  0  0  0  0  0
  -28.5224   -8.2182   -8.3974 C   0  0  0  0  0  0  0  0  0  0  0  0
  -29.4121   -8.8506   -7.3392 C   0  0  0  0  0  0  0  0  0  0  0  0
 23 24  1  0  0  0
 24 22  1  0  0  0
 22 19  1  0  0  0
 19 20  2  0  0  0
 19 21  2  0  0  0
 19 17  1  0  0  0
 17  1  1  0  0  0
 17 18  1  0  0  0
  1  2  1  0  0  0
  1  6  2  0  0  0
  2  3  2  0  0  0
  3  4  1  0  0  0
  4  5  2  0  0  0
  4 15  1  0  0  0
  5  6  1  0  0  0
  5  7  1  0  0  0
  7  8  2  0  0  0
  7 10  1  0  0  0
  8  9  1  0  0  0
  9 16  1  0  0  0
 10 11  1  0  0  0
 10 15  2  0  0  0
 11 12  2  0  0  0
 12 13  1  0  0  0
 13 14  2  0  0  0
 14 15  1  0  0  0
M  END
> <minimizedAffinity>
-8.14169

$$$$
