CHEMBL192101


 37 40  0  0  0  0  0  0  0  0999 V2000
  -29.2813   -4.3374   -4.6680 C   0  0  0  0  0  0  0  0  0  0  0  0
  -29.0848   -3.9346   -3.4433 N   0  0  0  0  0  0  0  0  0  0  0  0
  -28.4189   -2.7723   -3.1947 C   0  0  0  0  0  0  0  0  0  0  0  0
  -27.9136   -1.9724   -4.0769 N   0  0  0  0  0  0  0  0  0  0  0  0
  -28.0927   -2.3770   -5.3400 N   0  0  0  0  0  0  0  0  0  0  0  0
  -27.6104   -1.7022   -6.4196 C   0  0  0  0  0  0  0  0  0  0  0  0
  -27.9682   -2.3942   -7.5517 C   0  0  0  0  0  0  0  0  0  0  0  0
  -28.6813   -3.5855   -7.1392 C   0  0  0  0  0  0  0  0  0  0  0  0
  -28.7525   -3.5142   -5.7379 C   0  0  0  0  0  0  0  0  0  0  0  0
  -27.6015   -1.9246   -8.9280 C   0  0  0  0  0  0  0  0  0  0  0  0
  -28.4519   -1.8335   -9.9309 N   0  0  0  0  0  0  0  0  0  0  0  0
  -27.7510   -1.4170  -11.0349 N   0  0  0  0  0  0  0  0  0  0  0  0
  -26.5043   -1.2745  -10.6414 C   0  0  0  0  0  0  0  0  0  0  0  0
  -26.3290   -1.5476   -9.3126 O   0  0  0  0  0  0  0  0  0  0  0  0
  -25.3260   -0.8967  -11.4575 C   0  0  0  0  0  0  0  0  0  0  0  0
  -24.9080   -1.9703  -12.4771 C   0  0  0  0  0  0  0  0  0  0  0  0
  -25.2632   -1.5859  -13.9166 C   0  0  0  0  0  0  0  0  0  0  0  0
  -23.3998   -2.2173  -12.3751 C   0  0  0  0  0  0  0  0  0  0  0  0
  -29.1554   -4.6602   -8.1008 C   0  0  0  0  0  0  0  0  0  0  0  0
  -28.3096   -5.9328   -8.0593 C   0  0  0  0  0  0  0  0  0  0  0  0
  -30.6591   -4.9262   -8.0527 C   0  0  0  0  0  0  0  0  0  0  0  0
  -30.0056   -5.4922   -4.8626 N   0  0  0  0  0  0  0  0  0  0  0  0
  -30.9756   -5.4129   -5.1171 H   0  0  0  0  0  0  0  0  0  0  0  0
  -27.7351   -8.4704   -4.8964 C   0  0  0  0  0  0  0  0  0  0  0  0
  -28.2228   -7.1792   -4.6408 C   0  0  0  0  0  0  0  0  0  0  0  0
  -29.4868   -6.7835   -5.0926 C   0  0  0  0  0  0  0  0  0  0  0  0
  -30.2652   -7.7341   -5.7733 C   0  0  0  0  0  0  0  0  0  0  0  0
  -31.4815   -7.3890   -6.2231 F   0  0  0  0  0  0  0  0  0  0  0  0
  -29.8107   -9.0295   -6.0045 C   0  0  0  0  0  0  0  0  0  0  0  0
  -28.5425   -9.3887   -5.5648 C   0  0  0  0  0  0  0  0  0  0  0  0
  -28.1057  -10.6323   -5.8143 F   0  0  0  0  0  0  0  0  0  0  0  0
  -25.5499   -9.3953   -5.4225 N   0  0  0  0  0  0  0  0  0  0  0  0
  -26.3480   -8.7823   -4.4818 C   0  0  0  0  0  0  0  0  0  0  0  0
  -26.0005   -8.5086   -3.3363 O   0  0  0  0  0  0  0  0  0  0  0  0
  -25.7457   -9.2972   -6.4142 H   0  0  0  0  0  0  0  0  0  0  0  0
  -23.4605   -9.9441   -6.2201 C   0  0  0  0  0  0  0  0  0  0  0  0
  -24.1763   -9.4600   -5.0857 O   0  0  0  0  0  0  0  0  0  0  0  0
 36 37  1  0  0  0
 37 32  1  0  0  0
 32 33  1  0  0  0
 32 35  1  0  0  0
 33 34  2  0  0  0
 33 24  1  0  0  0
 24 25  1  0  0  0
 24 30  2  0  0  0
 25 26  2  0  0  0
 26 22  1  0  0  0
 26 27  1  0  0  0
 22  1  1  0  0  0
 22 23  1  0  0  0
  1  2  2  0  0  0
  1  9  1  0  0  0
  2  3  1  0  0  0
  3  4  2  0  0  0
  4  5  1  0  0  0
  5  6  1  0  0  0
  5  9  1  0  0  0
  6  7  2  0  0  0
  7 10  1  0  0  0
  7  8  1  0  0  0
 10 11  2  0  0  0
 10 14  1  0  0  0
 11 12  1  0  0  0
 12 13  2  0  0  0
 13 15  1  0  0  0
 13 14  1  0  0  0
 15 16  1  0  0  0
 16 17  1  0  0  0
 16 18  1  0  0  0
  8 19  1  0  0  0
  8  9  2  0  0  0
 19 20  1  0  0  0
 19 21  1  0  0  0
 27 28  1  0  0  0
 27 29  2  0  0  0
 29 30  1  0  0  0
 30 31  1  0  0  0
M  END
> <minimizedAffinity>
-8.45073

$$$$
