CHEMBL210003


 32 35  0  0  0  0  0  0  0  0999 V2000
  -25.3279   -1.7118  -12.5452 C   0  0  0  0  0  0  0  0  0  0  0  0
  -24.0707   -1.7851  -11.9354 C   0  0  0  0  0  0  0  0  0  0  0  0
  -22.9326   -1.2704  -12.5567 C   0  0  0  0  0  0  0  0  0  0  0  0
  -23.0153   -0.7174  -13.8348 C   0  0  0  0  0  0  0  0  0  0  0  0
  -24.2391   -0.8059  -14.5131 C   0  0  0  0  0  0  0  0  0  0  0  0
  -25.3947   -1.2730  -13.8664 C   0  0  0  0  0  0  0  0  0  0  0  0
  -21.8569   -0.0210  -14.3968 C   0  0  0  0  0  0  0  0  0  0  0  0
  -20.8219   -0.7194  -14.9000 N   0  0  0  0  0  0  0  0  0  0  0  0
  -19.8806    0.2100  -15.2947 O   0  0  0  0  0  0  0  0  0  0  0  0
  -20.3320    1.4637  -15.0291 C   0  0  0  0  0  0  0  0  0  0  0  0
  -19.6320    2.5735  -15.3042 N   0  0  0  0  0  0  0  0  0  0  0  0
  -20.2995    3.6710  -14.9354 C   0  0  0  0  0  0  0  0  0  0  0  0
  -21.5027    3.7384  -14.3376 N   0  0  0  0  0  0  0  0  0  0  0  0
  -22.1598    2.5938  -14.0623 C   0  0  0  0  0  0  0  0  0  0  0  0
  -23.3704    2.7377  -13.3971 N   0  0  0  0  0  0  0  0  0  0  0  0
  -21.5797    1.3785  -14.4401 C   0  0  0  0  0  0  0  0  0  0  0  0
  -23.4688    3.6914  -13.0636 H   0  0  0  0  0  0  0  0  0  0  0  0
  -23.5468    2.0278  -12.6952 H   0  0  0  0  0  0  0  0  0  0  0  0
  -27.8782   -2.3924  -10.0131 N   0  0  0  0  0  0  0  0  0  0  0  0
  -26.6632   -1.9209  -10.4874 C   0  0  0  0  0  0  0  0  0  0  0  0
  -25.7886   -1.4519   -9.7681 O   0  0  0  0  0  0  0  0  0  0  0  0
  -26.5286   -2.0417  -11.8605 N   0  0  0  0  0  0  0  0  0  0  0  0
  -28.3983   -3.0065  -10.6244 H   0  0  0  0  0  0  0  0  0  0  0  0
  -27.3796   -2.0539  -12.4022 H   0  0  0  0  0  0  0  0  0  0  0  0
  -28.4067   -1.2190   -6.5221 C   0  0  0  0  0  0  0  0  0  0  0  0
  -29.0910   -2.3076   -5.9651 C   0  0  0  0  0  0  0  0  0  0  0  0
  -29.2930   -3.4575   -6.7149 C   0  0  0  0  0  0  0  0  0  0  0  0
  -28.8449   -3.5141   -8.0294 C   0  0  0  0  0  0  0  0  0  0  0  0
  -28.2127   -2.4212   -8.6314 C   0  0  0  0  0  0  0  0  0  0  0  0
  -27.9503   -1.2876   -7.8505 C   0  0  0  0  0  0  0  0  0  0  0  0
  -29.5810    0.8107   -5.6836 C   0  0  0  0  0  0  0  0  0  0  0  0
  -28.2655    0.0464   -5.7153 C   0  0  0  0  0  0  0  0  0  0  0  0
 31 32  1  0  0  0
 32 25  1  0  0  0
 25 26  1  0  0  0
 25 30  2  0  0  0
 26 27  2  0  0  0
 27 28  1  0  0  0
 28 29  2  0  0  0
 29 19  1  0  0  0
 29 30  1  0  0  0
 19 20  1  0  0  0
 19 23  1  0  0  0
 20 21  2  0  0  0
 20 22  1  0  0  0
 22  1  1  0  0  0
 22 24  1  0  0  0
  1  2  1  0  0  0
  1  6  2  0  0  0
  2  3  2  0  0  0
  3  4  1  0  0  0
  4  7  1  0  0  0
  4  5  2  0  0  0
  7  8  2  0  0  0
  7 16  1  0  0  0
  8  9  1  0  0  0
  9 10  1  0  0  0
 10 11  1  0  0  0
 10 16  2  0  0  0
 11 12  2  0  0  0
 12 13  1  0  0  0
 13 14  2  0  0  0
 14 15  1  0  0  0
 14 16  1  0  0  0
 15 17  1  0  0  0
 15 18  1  0  0  0
  5  6  1  0  0  0
M  END
> <minimizedAffinity>
-10.77333

$$$$
