CHEMBL4795436


 33 36  0  0  0  0  0  0  0  0999 V2000
  -19.6677    2.4337  -14.7347 C   0  0  0  0  0  0  0  0  0  0  0  0
  -20.7235    3.2025  -14.2497 C   0  0  0  0  0  0  0  0  0  0  0  0
  -21.9703    2.6161  -14.0025 C   0  0  0  0  0  0  0  0  0  0  0  0
  -22.1848    1.2601  -14.2608 C   0  0  0  0  0  0  0  0  0  0  0  0
  -21.1669    0.5202  -14.8597 C   0  0  0  0  0  0  0  0  0  0  0  0
  -19.9241    1.1075  -15.1026 C   0  0  0  0  0  0  0  0  0  0  0  0
  -23.3756    0.5770  -13.9346 N   0  0  0  0  0  0  0  0  0  0  0  0
  -23.5513   -0.3333  -12.9130 C   0  0  0  0  0  0  0  0  0  0  0  0
  -22.6817   -0.6995  -12.1260 O   0  0  0  0  0  0  0  0  0  0  0  0
  -24.1664    0.7494  -14.5463 H   0  0  0  0  0  0  0  0  0  0  0  0
  -24.8962   -0.9643  -12.7673 C   0  0  0  0  0  0  0  0  0  0  0  0
  -25.3524   -1.1192  -11.4413 C   0  0  0  0  0  0  0  0  0  0  0  0
  -26.6356   -1.5927  -11.1677 C   0  0  0  0  0  0  0  0  0  0  0  0
  -27.4845   -1.9188  -12.2165 C   0  0  0  0  0  0  0  0  0  0  0  0
  -27.0388   -1.8016  -13.5353 C   0  0  0  0  0  0  0  0  0  0  0  0
  -25.7467   -1.3316  -13.8174 C   0  0  0  0  0  0  0  0  0  0  0  0
  -25.3230   -1.2174  -15.4894 Cl  0  0  0  0  0  0  0  0  0  0  0  0
  -18.3876    3.0032  -14.8758 N   0  0  0  0  0  0  0  0  0  0  0  0
  -18.3101    3.9252  -14.4610 H   0  0  0  0  0  0  0  0  0  0  0  0
  -14.0975    2.7832  -17.5883 C   0  0  0  0  0  0  0  0  0  0  0  0
  -13.9925    1.9016  -16.4974 C   0  0  0  0  0  0  0  0  0  0  0  0
  -14.9951    1.7678  -15.5486 C   0  0  0  0  0  0  0  0  0  0  0  0
  -14.8667    0.8224  -14.6121 N   0  0  0  0  0  0  0  0  0  0  0  0
  -15.9051    0.6571  -13.7883 C   0  0  0  0  0  0  0  0  0  0  0  0
  -17.0483    1.3415  -13.8205 N   0  0  0  0  0  0  0  0  0  0  0  0
  -17.1586    2.3050  -14.7551 C   0  0  0  0  0  0  0  0  0  0  0  0
  -16.1187    2.5859  -15.6533 C   0  0  0  0  0  0  0  0  0  0  0  0
  -16.1670    3.5735  -16.6611 C   0  0  0  0  0  0  0  0  0  0  0  0
  -15.1712    3.6768  -17.6368 C   0  0  0  0  0  0  0  0  0  0  0  0
  -13.3484    1.7585  -19.5859 C   0  0  0  0  0  0  0  0  0  0  0  0
  -13.1628    2.7718  -18.5913 O   0  0  0  0  0  0  0  0  0  0  0  0
  -15.4618    4.6593  -18.5380 O   0  0  0  0  0  0  0  0  0  0  0  0
  -14.7646    5.8904  -18.4946 C   0  0  0  0  0  0  0  0  0  0  0  0
 30 31  1  0  0  0
 31 20  1  0  0  0
 20 21  1  0  0  0
 20 29  2  0  0  0
 21 22  2  0  0  0
 22 23  1  0  0  0
 22 27  1  0  0  0
 23 24  2  0  0  0
 24 25  1  0  0  0
 25 26  2  0  0  0
 26 18  1  0  0  0
 26 27  1  0  0  0
 18  1  1  0  0  0
 18 19  1  0  0  0
  1  2  1  0  0  0
  1  6  2  0  0  0
  2  3  2  0  0  0
  3  4  1  0  0  0
  4  7  1  0  0  0
  4  5  2  0  0  0
  7  8  1  0  0  0
  7 10  1  0  0  0
  8  9  2  0  0  0
  8 11  1  0  0  0
 11 12  1  0  0  0
 11 16  2  0  0  0
 12 13  2  0  0  0
 13 14  1  0  0  0
 14 15  2  0  0  0
 15 16  1  0  0  0
 16 17  1  0  0  0
  5  6  1  0  0  0
 27 28  2  0  0  0
 28 29  1  0  0  0
 29 32  1  0  0  0
 32 33  1  0  0  0
M  END
> <minimizedAffinity>
-9.67994

$$$$
