CHEMBL4093021


 43 49  0  0  0  0  0  0  0  0999 V2000
  -17.9074    2.8763  -16.1441 N   0  0  0  0  0  0  0  0  0  0  0  0
  -18.0847    3.6017  -16.8262 H   0  0  0  0  0  0  0  0  0  0  0  0
  -14.7962    1.5999  -15.5723 N   0  0  0  0  0  0  0  0  0  0  0  0
  -16.0942    1.3783  -15.8071 N   0  0  0  0  0  0  0  0  0  0  0  0
  -16.6179    2.5936  -15.8818 C   0  0  0  0  0  0  0  0  0  0  0  0
  -15.7160    3.6042  -15.7266 N   0  0  0  0  0  0  0  0  0  0  0  0
  -14.5870    2.9767  -15.5002 C   0  0  0  0  0  0  0  0  0  0  0  0
  -13.3911    3.5602  -15.2859 N   0  0  0  0  0  0  0  0  0  0  0  0
  -13.2849    4.5379  -15.5269 H   0  0  0  0  0  0  0  0  0  0  0  0
  -12.5406    3.0011  -15.3373 H   0  0  0  0  0  0  0  0  0  0  0  0
  -14.5355   -2.3178  -12.8472 C   0  0  0  0  0  0  0  0  0  0  0  0
  -13.3745   -2.5505  -13.5597 C   0  0  0  0  0  0  0  0  0  0  0  0
  -13.0739   -1.5319  -14.5182 C   0  0  0  0  0  0  0  0  0  0  0  0
  -12.0247   -1.5749  -15.3736 N   0  0  0  0  0  0  0  0  0  0  0  0
  -11.9758   -0.5672  -16.2439 C   0  0  0  0  0  0  0  0  0  0  0  0
  -12.8392    0.4511  -16.3606 N   0  0  0  0  0  0  0  0  0  0  0  0
  -13.8706    0.5275  -15.4694 C   0  0  0  0  0  0  0  0  0  0  0  0
  -14.0034   -0.4961  -14.5105 C   0  0  0  0  0  0  0  0  0  0  0  0
  -15.1656   -0.7820  -13.2677 S   0  0  0  0  0  0  0  0  0  0  0  0
  -14.2647   -4.1559  -11.1244 C   0  0  0  0  0  0  0  0  0  0  0  0
  -15.2592   -3.2060  -11.8244 C   0  0  0  0  0  0  0  0  0  0  0  0
  -16.3207   -4.0818  -12.5262 C   0  0  0  0  0  0  0  0  0  0  0  0
  -15.9463   -2.3579  -10.7371 C   0  0  0  0  0  0  0  0  0  0  0  0
  -19.0553    2.3063  -15.5564 C   0  0  0  0  0  0  0  0  0  0  0  0
  -19.1278    0.9321  -15.3619 C   0  0  0  0  0  0  0  0  0  0  0  0
  -20.2302    0.3522  -14.7092 C   0  0  0  0  0  0  0  0  0  0  0  0
  -21.3105    1.1058  -14.2019 C   0  0  0  0  0  0  0  0  0  0  0  0
  -21.1868    2.5046  -14.3519 C   0  0  0  0  0  0  0  0  0  0  0  0
  -22.2788    3.6579  -13.6403 Cl  0  0  0  0  0  0  0  0  0  0  0  0
  -20.0980    3.0760  -15.0300 C   0  0  0  0  0  0  0  0  0  0  0  0
  -22.4073    0.4461  -13.6626 N   0  0  0  0  0  0  0  0  0  0  0  0
  -22.4140   -0.0910  -12.2910 C   0  0  0  0  0  0  0  0  0  0  0  0
  -23.0717   -1.4959  -12.2618 C   0  0  0  0  0  0  0  0  0  0  0  0
  -24.4312   -1.5743  -12.8642 N   0  0  0  0  0  0  0  0  0  0  0  0
  -24.3118   -1.0530  -14.2468 C   0  0  0  0  0  0  0  0  0  0  0  0
  -23.6919    0.3581  -14.3788 C   0  0  0  0  0  0  0  0  0  0  0  0
  -25.4296   -0.8405  -12.0724 C   0  0  0  0  0  0  0  0  0  0  0  0
  -25.5972   -1.3733  -10.6246 C   0  0  0  0  0  0  0  0  0  0  0  0
  -27.1256   -1.4760  -10.4579 C   0  0  0  0  0  0  0  0  0  0  0  0
  -27.6112   -2.7159  -11.2258 C   0  0  0  0  0  0  0  0  0  0  0  0
  -27.4606   -2.2877  -12.6915 C   0  0  0  0  0  0  0  0  0  0  0  0
  -26.8991   -0.8588  -12.5832 C   0  0  0  0  0  0  0  0  0  0  0  0
  -27.6338   -0.3411  -11.3438 C   0  0  0  0  0  0  0  0  0  0  0  0
 20 21  1  0  0  0
 21 22  1  0  0  0
 21 23  1  0  0  0
 21 11  1  0  0  0
 11 12  2  0  0  0
 11 19  1  0  0  0
 12 13  1  0  0  0
 13 14  1  0  0  0
 13 18  2  0  0  0
 14 15  2  0  0  0
 15 16  1  0  0  0
 16 17  2  0  0  0
 17  3  1  0  0  0
 17 18  1  0  0  0
  3  4  1  0  0  0
  3  7  1  0  0  0
  4  5  2  0  0  0
  5  1  1  0  0  0
  5  6  1  0  0  0
  1 24  1  0  0  0
  1  2  1  0  0  0
 24 25  1  0  0  0
 24 30  2  0  0  0
 25 26  2  0  0  0
 26 27  1  0  0  0
 27 31  1  0  0  0
 27 28  2  0  0  0
 31 32  1  0  0  0
 31 36  1  0  0  0
 32 33  1  0  0  0
 33 34  1  0  0  0
 34 37  1  0  0  0
 34 35  1  0  0  0
 37 38  1  0  0  0
 37 42  1  0  0  0
 38 39  1  0  0  0
 39 40  1  0  0  0
 39 43  1  0  0  0
 40 41  1  0  0  0
 41 42  1  0  0  0
 42 43  1  0  0  0
 35 36  1  0  0  0
 28 29  1  0  0  0
 28 30  1  0  0  0
  6  7  2  0  0  0
  7  8  1  0  0  0
  8  9  1  0  0  0
  8 10  1  0  0  0
 18 19  1  0  0  0
M  END
> <minimizedAffinity>
-8.69893

$$$$
