CHEMBL3912831


 37 40  0  0  0  0  0  0  0  0999 V2000
  -27.7846   -2.3480   -8.2792 N   0  0  0  0  0  0  0  0  0  0  0  0
  -27.3796   -1.7078   -9.5121 C   0  0  0  0  0  0  0  0  0  0  0  0
  -28.3090   -1.8172  -10.5573 C   0  0  0  0  0  0  0  0  0  0  0  0
  -27.8647   -1.8208  -11.8575 C   0  0  0  0  0  0  0  0  0  0  0  0
  -26.5579   -1.5462  -12.1881 C   0  0  0  0  0  0  0  0  0  0  0  0
  -26.2602   -1.7593  -13.4731 N   0  0  0  0  0  0  0  0  0  0  0  0
  -25.0641   -1.3390  -13.8950 C   0  0  0  0  0  0  0  0  0  0  0  0
  -24.2115   -0.6342  -13.0725 C   0  0  0  0  0  0  0  0  0  0  0  0
  -24.4603   -0.5195  -11.7202 N   0  0  0  0  0  0  0  0  0  0  0  0
  -25.6511   -1.0489  -11.2211 C   0  0  0  0  0  0  0  0  0  0  0  0
  -26.0877   -1.2125   -9.8466 C   0  0  0  0  0  0  0  0  0  0  0  0
  -23.1515    0.1104  -13.7447 C   0  0  0  0  0  0  0  0  0  0  0  0
  -21.9258   -0.3577  -14.2877 C   0  0  0  0  0  0  0  0  0  0  0  0
  -21.0878    0.6338  -14.6159 N   0  0  0  0  0  0  0  0  0  0  0  0
  -21.7736    1.7409  -14.2855 N   0  0  0  0  0  0  0  0  0  0  0  0
  -21.3530    3.0355  -14.7683 C   0  0  0  0  0  0  0  0  0  0  0  0
  -22.9255    1.4699  -13.5984 C   0  0  0  0  0  0  0  0  0  0  0  0
  -28.1001   -6.0895   -8.3391 C   0  0  0  0  0  0  0  0  0  0  0  0
  -29.0992   -6.3001   -7.3889 C   0  0  0  0  0  0  0  0  0  0  0  0
  -29.7069   -5.2106   -6.7705 C   0  0  0  0  0  0  0  0  0  0  0  0
  -29.3115   -3.9082   -7.1074 C   0  0  0  0  0  0  0  0  0  0  0  0
  -28.3206   -3.6490   -8.0695 C   0  0  0  0  0  0  0  0  0  0  0  0
  -27.7368   -4.7709   -8.6918 C   0  0  0  0  0  0  0  0  0  0  0  0
  -27.9677   -8.4044   -8.9340 C   0  0  0  0  0  0  0  0  0  0  0  0
  -27.3939   -7.0952   -8.9555 O   0  0  0  0  0  0  0  0  0  0  0  0
  -30.6709   -5.2794   -5.8007 O   0  0  0  0  0  0  0  0  0  0  0  0
  -30.6800   -6.4346   -4.9715 C   0  0  0  0  0  0  0  0  0  0  0  0
  -28.2998   -1.2781   -7.3389 C   0  0  0  0  0  0  0  0  0  0  0  0
  -27.3963   -0.9609   -6.1136 C   0  0  0  0  0  0  0  0  0  0  0  0
  -27.5782   -1.8941   -4.9904 N   0  0  0  0  0  0  0  0  0  0  0  0
  -28.7574   -1.9351   -4.2577 C   0  0  0  0  0  0  0  0  0  0  0  0
  -29.6456   -1.1022   -4.4372 O   0  0  0  0  0  0  0  0  0  0  0  0
  -26.9497   -2.6966   -4.9227 H   0  0  0  0  0  0  0  0  0  0  0  0
  -28.8756   -3.0768   -3.2104 C   0  0  0  0  0  0  0  0  0  0  0  0
  -30.1173   -3.6431   -3.2024 F   0  0  0  0  0  0  0  0  0  0  0  0
  -27.9959   -4.0894   -3.4446 F   0  0  0  0  0  0  0  0  0  0  0  0
  -28.6497   -2.6433   -1.9379 F   0  0  0  0  0  0  0  0  0  0  0  0
 24 25  1  0  0  0
 25 18  1  0  0  0
 18 19  1  0  0  0
 18 23  2  0  0  0
 19 20  2  0  0  0
 20 26  1  0  0  0
 20 21  1  0  0  0
 26 27  1  0  0  0
 21 22  2  0  0  0
 22  1  1  0  0  0
 22 23  1  0  0  0
  1 28  1  0  0  0
  1  2  1  0  0  0
 28 29  1  0  0  0
 29 30  1  0  0  0
 30 31  1  0  0  0
 30 33  1  0  0  0
 31 32  2  0  0  0
 31 34  1  0  0  0
 34 35  1  0  0  0
 34 36  1  0  0  0
 34 37  1  0  0  0
  2  3  1  0  0  0
  2 11  2  0  0  0
  3  4  2  0  0  0
  4  5  1  0  0  0
  5  6  1  0  0  0
  5 10  2  0  0  0
  6  7  2  0  0  0
  7  8  1  0  0  0
  8 12  1  0  0  0
  8  9  2  0  0  0
 12 13  1  0  0  0
 12 17  2  0  0  0
 13 14  2  0  0  0
 14 15  1  0  0  0
 15 16  1  0  0  0
 15 17  1  0  0  0
  9 10  1  0  0  0
 10 11  1  0  0  0
M  END
> <minimizedAffinity>
-8.18321

$$$$
