CHEMBL4566054


 31 33  0  0  0  0  0  0  0  0999 V2000
  -27.1129   11.1297  -15.0018 C   0  0  0  0  0  0  0  0  0  0  0  0
  -27.5338   10.0563  -15.7600 C   0  0  0  0  0  0  0  0  0  0  0  0
  -26.6796    9.6373  -16.7523 C   0  0  0  0  0  0  0  0  0  0  0  0
  -25.4763   10.1883  -16.9749 N   0  0  0  0  0  0  0  0  0  0  0  0
  -25.1220   11.1805  -16.1460 C   0  0  0  0  0  0  0  0  0  0  0  0
  -25.9036   11.6862  -15.1825 N   0  0  0  0  0  0  0  0  0  0  0  0
  -27.9333   11.5876  -13.9410 N   0  0  0  0  0  0  0  0  0  0  0  0
  -27.5319   11.3097  -13.0492 H   0  0  0  0  0  0  0  0  0  0  0  0
  -32.1164   11.1130  -13.5867 C   0  0  0  0  0  0  0  0  0  0  0  0
  -31.2655   10.2438  -12.9035 C   0  0  0  0  0  0  0  0  0  0  0  0
  -29.8806   10.3748  -13.0379 C   0  0  0  0  0  0  0  0  0  0  0  0
  -29.3302   11.3570  -13.8727 C   0  0  0  0  0  0  0  0  0  0  0  0
  -30.1875   12.2455  -14.5265 C   0  0  0  0  0  0  0  0  0  0  0  0
  -31.5721   12.1181  -14.3994 C   0  0  0  0  0  0  0  0  0  0  0  0
  -33.5824   10.8864  -13.4906 C   0  0  0  0  0  0  0  0  0  0  0  0
  -34.3483   11.6277  -12.8977 O   0  0  0  0  0  0  0  0  0  0  0  0
  -33.8870    9.6831  -14.0346 O   0  0  0  0  0  0  0  0  0  0  0  0
  -35.1246    8.2828  -15.5085 C   0  0  0  0  0  0  0  0  0  0  0  0
  -35.0244    9.6736  -14.9065 C   0  0  0  0  0  0  0  0  0  0  0  0
  -23.5162   11.9026  -16.3722 S   0  0  0  0  0  0  0  0  0  0  0  0
  -22.8393   10.7264  -17.5919 C   0  0  0  0  0  0  0  0  0  0  0  0
  -22.7813   11.3215  -18.9911 C   0  0  0  0  0  0  0  0  0  0  0  0
  -23.7945   11.5847  -19.6413 O   0  0  0  0  0  0  0  0  0  0  0  0
  -21.4513   11.6676  -19.5894 C   0  0  0  0  0  0  0  0  0  0  0  0
  -21.3030   12.3580  -20.7982 C   0  0  0  0  0  0  0  0  0  0  0  0
  -20.0243   12.6589  -21.2950 C   0  0  0  0  0  0  0  0  0  0  0  0
  -18.8831   12.2633  -20.5971 C   0  0  0  0  0  0  0  0  0  0  0  0
  -19.0290   11.5601  -19.4016 C   0  0  0  0  0  0  0  0  0  0  0  0
  -20.2993   11.2644  -18.9004 C   0  0  0  0  0  0  0  0  0  0  0  0
  -17.5879   12.4906  -20.9687 O   0  0  0  0  0  0  0  0  0  0  0  0
  -16.5759   11.7994  -20.2489 C   0  0  0  0  0  0  0  0  0  0  0  0
 18 19  1  0  0  0
 19 17  1  0  0  0
 17 15  1  0  0  0
 15 16  2  0  0  0
 15  9  1  0  0  0
  9 10  1  0  0  0
  9 14  2  0  0  0
 10 11  2  0  0  0
 11 12  1  0  0  0
 12  7  1  0  0  0
 12 13  2  0  0  0
  7  1  1  0  0  0
  7  8  1  0  0  0
  1  2  1  0  0  0
  1  6  2  0  0  0
  2  3  2  0  0  0
  3  4  1  0  0  0
  4  5  2  0  0  0
  5 20  1  0  0  0
  5  6  1  0  0  0
 20 21  1  0  0  0
 21 22  1  0  0  0
 22 23  2  0  0  0
 22 24  1  0  0  0
 24 25  1  0  0  0
 24 29  2  0  0  0
 25 26  2  0  0  0
 26 27  1  0  0  0
 27 30  1  0  0  0
 27 28  2  0  0  0
 30 31  1  0  0  0
 28 29  1  0  0  0
 13 14  1  0  0  0
M  END
> <minimizedAffinity>
-5.85610

$$$$
