CHEMBL1085540


 37 43  0  0  0  0  0  0  0  0999 V2000
  -30.2998  -11.7897   -6.8235 C   0  0  0  0  0  0  0  0  0  0  0  0
  -30.1205  -10.5939   -6.0255 N   0  0  0  0  0  0  0  0  0  0  0  0
  -30.8068   -9.3845   -6.0273 C   0  0  0  0  0  0  0  0  0  0  0  0
  -30.1554   -8.5166   -5.1397 C   0  0  0  0  0  0  0  0  0  0  0  0
  -28.8763   -9.2216   -5.0890 C   0  0  0  0  0  0  0  0  0  0  0  0
  -28.9466  -10.5133   -5.3905 N   0  0  0  0  0  0  0  0  0  0  0  0
  -27.5520   -8.5350   -5.2092 C   0  0  0  0  0  0  0  0  0  0  0  0
  -27.7405   -7.1017   -4.8022 C   0  0  0  0  0  0  0  0  0  0  0  0
  -28.8900   -6.5936   -5.6766 C   0  0  0  0  0  0  0  0  0  0  0  0
  -30.1552   -7.0168   -5.2193 C   0  0  0  0  0  0  0  0  0  0  0  0
  -30.6601   -5.9481   -4.4195 C   0  0  0  0  0  0  0  0  0  0  0  0
  -30.3072   -4.5496   -4.6722 C   0  0  0  0  0  0  0  0  0  0  0  0
  -29.5229   -4.2975   -5.8291 C   0  0  0  0  0  0  0  0  0  0  0  0
  -29.0503   -3.1304   -6.4052 C   0  0  0  0  0  0  0  0  0  0  0  0
  -29.0325   -1.7311   -6.1789 C   0  0  0  0  0  0  0  0  0  0  0  0
  -28.3314   -0.8723   -7.0642 C   0  0  0  0  0  0  0  0  0  0  0  0
  -27.8620   -1.3951   -8.2763 C   0  0  0  0  0  0  0  0  0  0  0  0
  -27.8523   -2.7602   -8.5319 C   0  0  0  0  0  0  0  0  0  0  0  0
  -28.3599   -3.6115   -7.5462 C   0  0  0  0  0  0  0  0  0  0  0  0
  -28.2913   -4.9844   -7.4599 N   0  0  0  0  0  0  0  0  0  0  0  0
  -28.8834   -5.3962   -6.3145 C   0  0  0  0  0  0  0  0  0  0  0  0
  -30.6514   -3.6514   -3.5735 C   0  0  0  0  0  0  0  0  0  0  0  0
  -31.2133   -4.6330   -2.6652 N   0  0  0  0  0  0  0  0  0  0  0  0
  -31.2717   -5.9661   -3.1109 C   0  0  0  0  0  0  0  0  0  0  0  0
  -31.6462   -6.8710   -2.3783 O   0  0  0  0  0  0  0  0  0  0  0  0
  -31.3472   -4.4441   -1.6845 H   0  0  0  0  0  0  0  0  0  0  0  0
  -28.0795    0.5948   -6.7117 C   0  0  0  0  0  0  0  0  0  0  0  0
  -28.0777    0.9529   -5.2072 C   0  0  0  0  0  0  0  0  0  0  0  0
  -29.4757    0.8676   -4.5980 C   0  0  0  0  0  0  0  0  0  0  0  0
  -30.4461    1.7193   -5.4003 C   0  0  0  0  0  0  0  0  0  0  0  0
  -30.3437    1.4182   -6.8894 C   0  0  0  0  0  0  0  0  0  0  0  0
  -29.0010    1.4775   -7.3797 O   0  0  0  0  0  0  0  0  0  0  0  0
  -27.7294   -5.9291   -8.4103 C   0  0  0  0  0  0  0  0  0  0  0  0
  -28.5102   -7.2491   -8.5270 C   0  0  0  0  0  0  0  0  0  0  0  0
  -27.6596   -8.4194   -8.9979 C   0  0  0  0  0  0  0  0  0  0  0  0
  -26.8789   -8.0176  -10.1186 O   0  0  0  0  0  0  0  0  0  0  0  0
  -27.4863   -7.6993  -10.8067 H   0  0  0  0  0  0  0  0  0  0  0  0
  1  2  1  0  0  0
  2  3  1  0  0  0
  2  6  1  0  0  0
  3  4  2  0  0  0
  4  5  1  0  0  0
  4 10  1  0  0  0
  5  6  2  0  0  0
  5  7  1  0  0  0
  7  8  1  0  0  0
  8  9  1  0  0  0
  9 10  1  0  0  0
  9 21  2  0  0  0
 10 11  2  0  0  0
 11 12  1  0  0  0
 11 24  1  0  0  0
 12 13  2  0  0  0
 12 22  1  0  0  0
 13 14  1  0  0  0
 13 21  1  0  0  0
 14 15  1  0  0  0
 14 19  2  0  0  0
 15 16  2  0  0  0
 16 27  1  0  0  0
 16 17  1  0  0  0
 27 28  1  0  0  0
 27 32  1  0  0  0
 28 29  1  0  0  0
 29 30  1  0  0  0
 30 31  1  0  0  0
 31 32  1  0  0  0
 17 18  2  0  0  0
 18 19  1  0  0  0
 19 20  1  0  0  0
 20 33  1  0  0  0
 20 21  1  0  0  0
 33 34  1  0  0  0
 34 35  1  0  0  0
 35 36  1  0  0  0
 36 37  1  0  0  0
 22 23  1  0  0  0
 23 24  1  0  0  0
 23 26  1  0  0  0
 24 25  2  0  0  0
M  END
> <minimizedAffinity>
-7.44604

$$$$
