CHEMBL357490


 26 31  0  0  0  0  0  0  0  0999 V2000
  -31.3359   -6.6468   -3.9891 O   0  0  0  0  0  0  0  0  0  0  0  0
  -30.9151   -5.5135   -4.1593 C   0  0  0  0  0  0  0  0  0  0  0  0
  -30.8198   -4.5869   -3.1307 N   0  0  0  0  0  0  0  0  0  0  0  0
  -30.2700   -3.2910   -3.4782 C   0  0  0  0  0  0  0  0  0  0  0  0
  -29.9423   -3.5489   -4.8755 C   0  0  0  0  0  0  0  0  0  0  0  0
  -30.3456   -4.8317   -5.2913 C   0  0  0  0  0  0  0  0  0  0  0  0
  -30.0219   -5.3244   -6.5377 C   0  0  0  0  0  0  0  0  0  0  0  0
  -28.9824   -4.7088   -7.2410 C   0  0  0  0  0  0  0  0  0  0  0  0
  -28.7518   -3.3899   -6.9673 C   0  0  0  0  0  0  0  0  0  0  0  0
  -28.1379   -2.3524   -7.6441 N   0  0  0  0  0  0  0  0  0  0  0  0
  -28.3349   -1.1425   -6.9353 C   0  0  0  0  0  0  0  0  0  0  0  0
  -28.0425    0.1859   -7.2865 C   0  0  0  0  0  0  0  0  0  0  0  0
  -28.3365    1.1973   -6.3568 C   0  0  0  0  0  0  0  0  0  0  0  0
  -28.8889    0.9027   -5.1132 C   0  0  0  0  0  0  0  0  0  0  0  0
  -29.2041   -0.4135   -4.7783 C   0  0  0  0  0  0  0  0  0  0  0  0
  -28.9539   -1.4404   -5.7076 C   0  0  0  0  0  0  0  0  0  0  0  0
  -29.2213   -2.7889   -5.8295 C   0  0  0  0  0  0  0  0  0  0  0  0
  -28.2308   -5.7551   -8.0376 C   0  0  0  0  0  0  0  0  0  0  0  0
  -29.1520   -6.9638   -7.8926 C   0  0  0  0  0  0  0  0  0  0  0  0
  -29.0635   -8.2457   -8.4048 C   0  0  0  0  0  0  0  0  0  0  0  0
  -30.1703   -9.0992   -8.2530 C   0  0  0  0  0  0  0  0  0  0  0  0
  -31.3454   -8.6616   -7.6225 C   0  0  0  0  0  0  0  0  0  0  0  0
  -31.3876   -7.4089   -7.0254 C   0  0  0  0  0  0  0  0  0  0  0  0
  -30.2578   -6.6122   -7.0987 C   0  0  0  0  0  0  0  0  0  0  0  0
  -31.0092   -4.8925   -2.1886 H   0  0  0  0  0  0  0  0  0  0  0  0
  -27.7518   -2.3973   -8.5726 H   0  0  0  0  0  0  0  0  0  0  0  0
  1  2  2  0  0  0
  2  3  1  0  0  0
  2  6  1  0  0  0
  3  4  1  0  0  0
  3 25  1  0  0  0
  4  5  1  0  0  0
  5  6  1  0  0  0
  5 17  2  0  0  0
  6  7  2  0  0  0
  7  8  1  0  0  0
  7 24  1  0  0  0
  8  9  2  0  0  0
  8 18  1  0  0  0
  9 10  1  0  0  0
  9 17  1  0  0  0
 10 11  1  0  0  0
 10 26  1  0  0  0
 11 12  1  0  0  0
 11 16  2  0  0  0
 12 13  2  0  0  0
 13 14  1  0  0  0
 14 15  2  0  0  0
 15 16  1  0  0  0
 16 17  1  0  0  0
 18 19  1  0  0  0
 19 20  1  0  0  0
 19 24  2  0  0  0
 20 21  2  0  0  0
 21 22  1  0  0  0
 22 23  2  0  0  0
 23 24  1  0  0  0
M  END
> <minimizedAffinity>
-10.57066

$$$$
