CHEMBL1253914


 29 32  0  0  0  0  0  0  0  0999 V2000
  -29.3457   -5.6825   -5.8914 C   0  0  0  0  0  0  0  0  0  0  0  0
  -28.3971   -5.8493   -4.8846 C   0  0  0  0  0  0  0  0  0  0  0  0
  -27.8416   -7.1019   -4.6490 C   0  0  0  0  0  0  0  0  0  0  0  0
  -28.2739   -8.2171   -5.3682 C   0  0  0  0  0  0  0  0  0  0  0  0
  -29.2613   -8.0626   -6.3456 C   0  0  0  0  0  0  0  0  0  0  0  0
  -29.8093   -6.7973   -6.5938 C   0  0  0  0  0  0  0  0  0  0  0  0
  -27.6810   -9.4805   -5.1749 N   0  0  0  0  0  0  0  0  0  0  0  0
  -27.7552   -9.8839   -4.2481 H   0  0  0  0  0  0  0  0  0  0  0  0
  -26.6929  -10.0709   -5.9611 C   0  0  0  0  0  0  0  0  0  0  0  0
  -26.9425  -11.3327   -7.0510 S   0  0  0  0  0  0  0  0  0  0  0  0
  -25.4617   -9.4548   -5.7062 N   0  0  0  0  0  0  0  0  0  0  0  0
  -25.5377   -8.4449   -5.6405 H   0  0  0  0  0  0  0  0  0  0  0  0
  -24.4063  -10.0528   -4.9829 C   0  0  0  0  0  0  0  0  0  0  0  0
  -23.2428  -10.4649   -5.6362 C   0  0  0  0  0  0  0  0  0  0  0  0
  -22.2535  -11.1592   -4.9472 C   0  0  0  0  0  0  0  0  0  0  0  0
  -22.4079  -11.4115   -3.5884 C   0  0  0  0  0  0  0  0  0  0  0  0
  -23.5287  -10.9261   -2.9105 C   0  0  0  0  0  0  0  0  0  0  0  0
  -24.5236  -10.2276   -3.6018 C   0  0  0  0  0  0  0  0  0  0  0  0
  -29.8993   -4.4631   -6.2044 O   0  0  0  0  0  0  0  0  0  0  0  0
  -29.7790   -2.4859   -3.8836 C   0  0  0  0  0  0  0  0  0  0  0  0
  -29.0062   -1.8286   -4.9132 N   0  0  0  0  0  0  0  0  0  0  0  0
  -28.4139   -0.5964   -4.7769 C   0  0  0  0  0  0  0  0  0  0  0  0
  -27.7164   -0.3321   -5.9365 C   0  0  0  0  0  0  0  0  0  0  0  0
  -27.9092   -1.4302   -6.8032 C   0  0  0  0  0  0  0  0  0  0  0  0
  -27.4141   -1.6260   -8.0435 N   0  0  0  0  0  0  0  0  0  0  0  0
  -27.8164   -2.7739   -8.6004 C   0  0  0  0  0  0  0  0  0  0  0  0
  -28.6305   -3.7040   -8.0742 N   0  0  0  0  0  0  0  0  0  0  0  0
  -29.0811   -3.5170   -6.8110 C   0  0  0  0  0  0  0  0  0  0  0  0
  -28.7327   -2.3458   -6.1579 C   0  0  0  0  0  0  0  0  0  0  0  0
 20 21  1  0  0  0
 21 22  1  0  0  0
 21 29  1  0  0  0
 22 23  2  0  0  0
 23 24  1  0  0  0
 24 25  1  0  0  0
 24 29  2  0  0  0
 25 26  2  0  0  0
 26 27  1  0  0  0
 27 28  2  0  0  0
 28 19  1  0  0  0
 28 29  1  0  0  0
 19  1  1  0  0  0
  1  2  1  0  0  0
  1  6  2  0  0  0
  2  3  2  0  0  0
  3  4  1  0  0  0
  4  7  1  0  0  0
  4  5  2  0  0  0
  7  9  1  0  0  0
  7  8  1  0  0  0
  9 10  2  0  0  0
  9 11  1  0  0  0
 11 13  1  0  0  0
 11 12  1  0  0  0
 13 14  1  0  0  0
 13 18  2  0  0  0
 14 15  2  0  0  0
 15 16  1  0  0  0
 16 17  2  0  0  0
 17 18  1  0  0  0
  5  6  1  0  0  0
M  END
> <minimizedAffinity>
-7.86780

$$$$
