CHEMBL3817989


 30 33  0  0  0  0  0  0  0  0999 V2000
  -15.4324   -0.7585  -13.0030 C   0  0  0  0  0  0  0  0  0  0  0  0
  -14.3183   -0.0480  -12.7822 N   0  0  0  0  0  0  0  0  0  0  0  0
  -14.1244    1.0201  -13.5773 C   0  0  0  0  0  0  0  0  0  0  0  0
  -14.9923    1.3973  -14.5747 C   0  0  0  0  0  0  0  0  0  0  0  0
  -16.1256    0.6308  -14.7158 C   0  0  0  0  0  0  0  0  0  0  0  0
  -16.3318   -0.4422  -13.9427 N   0  0  0  0  0  0  0  0  0  0  0  0
  -15.6448   -1.8741  -12.1914 N   0  0  0  0  0  0  0  0  0  0  0  0
  -15.1039   -1.7414  -11.3449 H   0  0  0  0  0  0  0  0  0  0  0  0
  -15.8464   -5.8675  -13.5996 C   0  0  0  0  0  0  0  0  0  0  0  0
  -16.5035   -5.5080  -12.4206 C   0  0  0  0  0  0  0  0  0  0  0  0
  -16.4415   -4.1934  -11.9436 C   0  0  0  0  0  0  0  0  0  0  0  0
  -15.6895   -3.2184  -12.6096 C   0  0  0  0  0  0  0  0  0  0  0  0
  -15.0140   -3.5865  -13.7757 C   0  0  0  0  0  0  0  0  0  0  0  0
  -15.0717   -4.9013  -14.2498 C   0  0  0  0  0  0  0  0  0  0  0  0
  -15.8782   -7.2078  -14.0523 N   0  0  0  0  0  0  0  0  0  0  0  0
  -15.6196   -7.2667  -15.0370 H   0  0  0  0  0  0  0  0  0  0  0  0
  -13.9229   -8.3586  -13.8949 C   0  0  0  0  0  0  0  0  0  0  0  0
  -15.1980   -8.1665  -13.2896 O   0  0  0  0  0  0  0  0  0  0  0  0
  -17.0885    0.9951  -15.6899 N   0  0  0  0  0  0  0  0  0  0  0  0
  -17.1573    0.2718  -16.3968 H   0  0  0  0  0  0  0  0  0  0  0  0
  -18.3414    1.5862  -15.3868 C   0  0  0  0  0  0  0  0  0  0  0  0
  -18.5268    2.9721  -15.5194 C   0  0  0  0  0  0  0  0  0  0  0  0
  -19.7233    3.6064  -15.1716 C   0  0  0  0  0  0  0  0  0  0  0  0
  -20.7514    2.7884  -14.7089 C   0  0  0  0  0  0  0  0  0  0  0  0
  -22.0022    3.0826  -14.2369 N   0  0  0  0  0  0  0  0  0  0  0  0
  -22.7452    2.0009  -13.9406 N   0  0  0  0  0  0  0  0  0  0  0  0
  -21.9146    0.9825  -14.1837 C   0  0  0  0  0  0  0  0  0  0  0  0
  -20.6435    1.4053  -14.6345 C   0  0  0  0  0  0  0  0  0  0  0  0
  -19.4257    0.7867  -14.9831 C   0  0  0  0  0  0  0  0  0  0  0  0
  -22.4025    4.0013  -14.0863 H   0  0  0  0  0  0  0  0  0  0  0  0
 17 18  1  0  0  0
 18 15  1  0  0  0
 15  9  1  0  0  0
 15 16  1  0  0  0
  9 10  1  0  0  0
  9 14  2  0  0  0
 10 11  2  0  0  0
 11 12  1  0  0  0
 12  7  1  0  0  0
 12 13  2  0  0  0
  7  1  1  0  0  0
  7  8  1  0  0  0
  1  2  1  0  0  0
  1  6  2  0  0  0
  2  3  2  0  0  0
  3  4  1  0  0  0
  4  5  2  0  0  0
  5 19  1  0  0  0
  5  6  1  0  0  0
 19 21  1  0  0  0
 19 20  1  0  0  0
 21 22  1  0  0  0
 21 29  2  0  0  0
 22 23  2  0  0  0
 23 24  1  0  0  0
 24 25  1  0  0  0
 24 28  2  0  0  0
 25 26  1  0  0  0
 25 30  1  0  0  0
 26 27  2  0  0  0
 27 28  1  0  0  0
 28 29  1  0  0  0
 13 14  1  0  0  0
M  END
> <minimizedAffinity>
-9.31699

$$$$
