CHEMBL218201


 43 49  0  0  0  0  0  0  0  0999 V2000
  -28.8118   -5.0837   -4.7820 N   0  0  0  0  0  0  0  0  0  0  0  0
  -28.7175   -4.2069   -5.8848 C   0  0  0  0  0  0  0  0  0  0  0  0
  -29.0476   -2.8491   -6.0303 C   0  0  0  0  0  0  0  0  0  0  0  0
  -28.9466   -2.2641   -7.3095 C   0  0  0  0  0  0  0  0  0  0  0  0
  -28.4994   -2.9717   -8.4143 C   0  0  0  0  0  0  0  0  0  0  0  0
  -28.1952   -4.3251   -8.2634 C   0  0  0  0  0  0  0  0  0  0  0  0
  -28.3247   -4.9513   -7.0046 C   0  0  0  0  0  0  0  0  0  0  0  0
  -28.2691   -6.2319   -6.4898 C   0  0  0  0  0  0  0  0  0  0  0  0
  -28.3737   -7.3669   -7.3061 C   0  0  0  0  0  0  0  0  0  0  0  0
  -28.8556   -8.5288   -6.6779 C   0  0  0  0  0  0  0  0  0  0  0  0
  -29.1213   -8.6217   -5.2986 C   0  0  0  0  0  0  0  0  0  0  0  0
  -28.3945   -7.6503   -4.5344 C   0  0  0  0  0  0  0  0  0  0  0  0
  -28.3825   -6.3660   -5.1365 C   0  0  0  0  0  0  0  0  0  0  0  0
  -27.1191   -8.3033   -3.8368 C   0  0  0  0  0  0  0  0  0  0  0  0
  -26.7989   -9.7876   -4.3054 C   0  0  0  0  0  0  0  0  0  0  0  0
  -28.0747  -10.5454   -4.1981 C   0  0  0  0  0  0  0  0  0  0  0  0
  -28.3395  -11.5850   -3.4083 N   0  0  0  0  0  0  0  0  0  0  0  0
  -29.6950  -11.5658   -3.3440 N   0  0  0  0  0  0  0  0  0  0  0  0
  -30.3794  -12.4656   -2.4470 C   0  0  0  0  0  0  0  0  0  0  0  0
  -30.2607  -10.4960   -3.9968 C   0  0  0  0  0  0  0  0  0  0  0  0
  -29.2308   -9.9300   -4.7035 C   0  0  0  0  0  0  0  0  0  0  0  0
  -28.8528   -9.5814   -7.6671 C   0  0  0  0  0  0  0  0  0  0  0  0
  -29.1113  -10.7761   -7.6302 O   0  0  0  0  0  0  0  0  0  0  0  0
  -28.3884   -8.9686   -8.8230 N   0  0  0  0  0  0  0  0  0  0  0  0
  -28.1096   -7.5556   -8.7270 C   0  0  0  0  0  0  0  0  0  0  0  0
  -28.1950   -9.5344   -9.6350 H   0  0  0  0  0  0  0  0  0  0  0  0
  -28.3234   -2.4073   -9.7181 N   0  0  0  0  0  0  0  0  0  0  0  0
  -27.1546   -1.8714  -10.2033 C   0  0  0  0  0  0  0  0  0  0  0  0
  -26.1135   -1.7767   -9.5611 O   0  0  0  0  0  0  0  0  0  0  0  0
  -27.2568   -1.4769  -11.5362 N   0  0  0  0  0  0  0  0  0  0  0  0
  -29.0537   -2.5932  -10.3957 H   0  0  0  0  0  0  0  0  0  0  0  0
  -28.1596   -1.1682  -11.8463 H   0  0  0  0  0  0  0  0  0  0  0  0
  -26.1396   -1.0677  -12.3134 C   0  0  0  0  0  0  0  0  0  0  0  0
  -25.8937   -1.5970  -13.5835 C   0  0  0  0  0  0  0  0  0  0  0  0
  -24.7215   -1.2914  -14.2756 C   0  0  0  0  0  0  0  0  0  0  0  0
  -23.7928   -0.4070  -13.7414 C   0  0  0  0  0  0  0  0  0  0  0  0
  -24.0685    0.2082  -12.5209 C   0  0  0  0  0  0  0  0  0  0  0  0
  -25.2411   -0.1174  -11.8090 C   0  0  0  0  0  0  0  0  0  0  0  0
  -22.6405   -0.3070  -14.4660 O   0  0  0  0  0  0  0  0  0  0  0  0
  -21.7599    0.7584  -14.1496 C   0  0  0  0  0  0  0  0  0  0  0  0
  -29.4965   -4.7363   -3.5408 C   0  0  0  0  0  0  0  0  0  0  0  0
  -31.6885   -5.8952   -4.2034 C   0  0  0  0  0  0  0  0  0  0  0  0
  -31.0297   -4.6384   -3.6550 C   0  0  0  0  0  0  0  0  0  0  0  0
 42 43  1  0  0  0
 43 41  1  0  0  0
 41  1  1  0  0  0
  1  2  1  0  0  0
  1 13  1  0  0  0
  2  3  1  0  0  0
  2  7  2  0  0  0
  3  4  2  0  0  0
  4  5  1  0  0  0
  5 27  1  0  0  0
  5  6  2  0  0  0
 27 28  1  0  0  0
 27 31  1  0  0  0
 28 29  2  0  0  0
 28 30  1  0  0  0
 30 33  1  0  0  0
 30 32  1  0  0  0
 33 34  1  0  0  0
 33 38  2  0  0  0
 34 35  2  0  0  0
 35 36  1  0  0  0
 36 39  1  0  0  0
 36 37  2  0  0  0
 39 40  1  0  0  0
 37 38  1  0  0  0
  6  7  1  0  0  0
  7  8  1  0  0  0
  8  9  1  0  0  0
  8 13  2  0  0  0
  9 10  2  0  0  0
  9 25  1  0  0  0
 10 11  1  0  0  0
 10 22  1  0  0  0
 11 12  2  0  0  0
 11 21  1  0  0  0
 12 13  1  0  0  0
 12 14  1  0  0  0
 14 15  1  0  0  0
 15 16  1  0  0  0
 16 17  2  0  0  0
 16 21  1  0  0  0
 17 18  1  0  0  0
 18 19  1  0  0  0
 18 20  1  0  0  0
 20 21  2  0  0  0
 22 23  2  0  0  0
 22 24  1  0  0  0
 24 25  1  0  0  0
 24 26  1  0  0  0
M  END
> <minimizedAffinity>
-9.83142

$$$$
