CHEMBL3964131


 47 51  0  0  0  0  0  0  0  0999 V2000
  -28.1313   -1.7559   -8.3038 C   0  0  0  0  0  0  0  0  0  0  0  0
  -27.7115   -0.4941   -7.8899 C   0  0  0  0  0  0  0  0  0  0  0  0
  -27.5447   -0.2434   -6.5417 C   0  0  0  0  0  0  0  0  0  0  0  0
  -27.7073   -1.1492   -5.5645 N   0  0  0  0  0  0  0  0  0  0  0  0
  -28.0592   -2.3982   -5.9657 C   0  0  0  0  0  0  0  0  0  0  0  0
  -28.2400   -3.5048   -5.0892 C   0  0  0  0  0  0  0  0  0  0  0  0
  -28.5995   -4.6637   -5.7482 C   0  0  0  0  0  0  0  0  0  0  0  0
  -28.7265   -4.3934   -7.4360 S   0  0  0  0  0  0  0  0  0  0  0  0
  -28.2793   -2.7373   -7.3020 C   0  0  0  0  0  0  0  0  0  0  0  0
  -28.8523   -5.9662   -5.1418 C   0  0  0  0  0  0  0  0  0  0  0  0
  -29.9242   -6.2586   -4.6159 O   0  0  0  0  0  0  0  0  0  0  0  0
  -27.8065   -6.8647   -5.1998 N   0  0  0  0  0  0  0  0  0  0  0  0
  -26.9909   -6.5997   -5.7371 H   0  0  0  0  0  0  0  0  0  0  0  0
  -27.9102   -8.2271   -4.7184 C   0  0  0  0  0  0  0  0  0  0  0  0
  -28.0669   -9.2097   -5.8825 C   0  0  0  0  0  0  0  0  0  0  0  0
  -29.5401   -9.4639   -6.2120 C   0  0  0  0  0  0  0  0  0  0  0  0
  -29.9986   -8.9007   -7.4892 N   0  0  0  0  0  0  0  0  0  0  0  0
  -31.0355   -7.8530   -7.4156 C   0  0  0  0  0  0  0  0  0  0  0  0
  -32.4750   -8.3607   -7.2181 C   0  0  0  0  0  0  0  0  0  0  0  0
  -32.8484   -9.3712   -8.1628 O   0  0  0  0  0  0  0  0  0  0  0  0
  -31.9060  -10.4620   -8.2229 C   0  0  0  0  0  0  0  0  0  0  0  0
  -30.4667   -9.9332   -8.4420 C   0  0  0  0  0  0  0  0  0  0  0  0
  -32.0684  -11.3954   -7.0136 C   0  0  0  0  0  0  0  0  0  0  0  0
  -33.3602  -12.0017   -7.0101 O   0  0  0  0  0  0  0  0  0  0  0  0
  -33.9971  -11.2634   -6.9654 H   0  0  0  0  0  0  0  0  0  0  0  0
  -28.3371   -2.0921   -9.6314 O   0  0  0  0  0  0  0  0  0  0  0  0
  -25.3641   -1.4548  -12.5100 C   0  0  0  0  0  0  0  0  0  0  0  0
  -26.7223   -1.3282  -12.8259 C   0  0  0  0  0  0  0  0  0  0  0  0
  -27.6969   -1.5527  -11.8457 C   0  0  0  0  0  0  0  0  0  0  0  0
  -27.3226   -1.8892  -10.5426 C   0  0  0  0  0  0  0  0  0  0  0  0
  -25.9638   -1.9535  -10.2111 C   0  0  0  0  0  0  0  0  0  0  0  0
  -25.0035   -1.7731  -11.2001 C   0  0  0  0  0  0  0  0  0  0  0  0
  -23.7058   -1.8527  -10.8678 F   0  0  0  0  0  0  0  0  0  0  0  0
  -22.5910    0.0077  -14.3419 N   0  0  0  0  0  0  0  0  0  0  0  0
  -23.5688   -0.0806  -13.3712 C   0  0  0  0  0  0  0  0  0  0  0  0
  -23.7363    0.7159  -12.4454 O   0  0  0  0  0  0  0  0  0  0  0  0
  -24.3398   -1.2324  -13.4752 N   0  0  0  0  0  0  0  0  0  0  0  0
  -22.4939   -0.7790  -14.9694 H   0  0  0  0  0  0  0  0  0  0  0  0
  -23.7983   -2.0571  -13.6998 H   0  0  0  0  0  0  0  0  0  0  0  0
  -17.8527    1.2318  -15.1948 C   0  0  0  0  0  0  0  0  0  0  0  0
  -19.2593    1.6278  -14.8440 C   0  0  0  0  0  0  0  0  0  0  0  0
  -19.5489    2.9716  -14.5907 C   0  0  0  0  0  0  0  0  0  0  0  0
  -20.8499    3.3552  -14.2962 C   0  0  0  0  0  0  0  0  0  0  0  0
  -21.8666    2.4047  -14.2429 C   0  0  0  0  0  0  0  0  0  0  0  0
  -23.1024    2.8913  -14.0831 F   0  0  0  0  0  0  0  0  0  0  0  0
  -21.6116    1.0402  -14.4420 C   0  0  0  0  0  0  0  0  0  0  0  0
  -20.2921    0.6671  -14.7666 C   0  0  0  0  0  0  0  0  0  0  0  0
 40 41  1  0  0  0
 41 42  1  0  0  0
 41 47  2  0  0  0
 42 43  2  0  0  0
 43 44  1  0  0  0
 44 45  1  0  0  0
 44 46  2  0  0  0
 46 34  1  0  0  0
 46 47  1  0  0  0
 34 35  1  0  0  0
 34 38  1  0  0  0
 35 36  2  0  0  0
 35 37  1  0  0  0
 37 27  1  0  0  0
 37 39  1  0  0  0
 27 28  1  0  0  0
 27 32  2  0  0  0
 28 29  2  0  0  0
 29 30  1  0  0  0
 30 26  1  0  0  0
 30 31  2  0  0  0
 26  1  1  0  0  0
  1  2  1  0  0  0
  1  9  2  0  0  0
  2  3  2  0  0  0
  3  4  1  0  0  0
  4  5  2  0  0  0
  5  6  1  0  0  0
  5  9  1  0  0  0
  6  7  2  0  0  0
  7 10  1  0  0  0
  7  8  1  0  0  0
 10 11  2  0  0  0
 10 12  1  0  0  0
 12 14  1  0  0  0
 12 13  1  0  0  0
 14 15  1  0  0  0
 15 16  1  0  0  0
 16 17  1  0  0  0
 17 18  1  0  0  0
 17 22  1  0  0  0
 18 19  1  0  0  0
 19 20  1  0  0  0
 20 21  1  0  0  0
 21 23  1  0  0  0
 21 22  1  0  0  0
 23 24  1  0  0  0
 24 25  1  0  0  0
  8  9  1  0  0  0
 31 32  1  0  0  0
 32 33  1  0  0  0
M  END
> <minimizedAffinity>
-11.04646

$$$$
