CHEMBL206279


 32 36  0  0  0  0  0  0  0  0999 V2000
  -30.6843   -8.1197   -7.6211 O   0  0  0  0  0  0  0  0  0  0  0  0
  -29.5079   -8.3671   -7.8547 C   0  0  0  0  0  0  0  0  0  0  0  0
  -28.4354   -7.5830   -7.4316 N   0  0  0  0  0  0  0  0  0  0  0  0
  -27.5011   -7.9395   -7.5750 H   0  0  0  0  0  0  0  0  0  0  0  0
  -28.5065   -6.3414   -6.7503 C   0  0  0  0  0  0  0  0  0  0  0  0
  -28.3855   -6.2008   -5.3702 C   0  0  0  0  0  0  0  0  0  0  0  0
  -28.3923   -4.9321   -4.7688 C   0  0  0  0  0  0  0  0  0  0  0  0
  -28.5522   -3.7642   -5.5164 C   0  0  0  0  0  0  0  0  0  0  0  0
  -28.7422   -3.9218   -6.8963 C   0  0  0  0  0  0  0  0  0  0  0  0
  -28.7086   -5.1857   -7.5098 C   0  0  0  0  0  0  0  0  0  0  0  0
  -28.4919   -2.5047   -4.9540 N   0  0  0  0  0  0  0  0  0  0  0  0
  -29.6989   -1.7541   -4.5693 C   0  0  0  0  0  0  0  0  0  0  0  0
  -29.8883   -0.4980   -5.4338 C   0  0  0  0  0  0  0  0  0  0  0  0
  -28.6953    0.3006   -5.4975 O   0  0  0  0  0  0  0  0  0  0  0  0
  -27.6128   -0.4753   -6.0379 C   0  0  0  0  0  0  0  0  0  0  0  0
  -27.2881   -1.6800   -5.1393 C   0  0  0  0  0  0  0  0  0  0  0  0
  -29.1740   -9.5882   -8.6771 C   0  0  0  0  0  0  0  0  0  0  0  0
  -29.1641   -9.4610  -10.0852 C   0  0  0  0  0  0  0  0  0  0  0  0
  -28.9061  -10.5525  -10.9169 C   0  0  0  0  0  0  0  0  0  0  0  0
  -28.6492  -11.7957  -10.3621 C   0  0  0  0  0  0  0  0  0  0  0  0
  -28.6797  -11.9521   -8.9779 C   0  0  0  0  0  0  0  0  0  0  0  0
  -28.9689  -10.8727   -8.1077 C   0  0  0  0  0  0  0  0  0  0  0  0
  -29.1083  -11.2214   -6.6291 C   0  0  0  0  0  0  0  0  0  0  0  0
  -28.0651  -10.6108   -5.7803 N   0  0  0  0  0  0  0  0  0  0  0  0
  -28.4046   -9.9822   -4.5756 C   0  0  0  0  0  0  0  0  0  0  0  0
  -27.5282   -9.4987   -3.6796 C   0  0  0  0  0  0  0  0  0  0  0  0
  -26.1086   -9.6619   -4.0181 C   0  0  0  0  0  0  0  0  0  0  0  0
  -25.0319   -9.3109   -3.3899 N   0  0  0  0  0  0  0  0  0  0  0  0
  -24.0193   -9.7676   -4.2279 C   0  0  0  0  0  0  0  0  0  0  0  0
  -24.3750  -10.3798   -5.3241 N   0  0  0  0  0  0  0  0  0  0  0  0
  -25.7365  -10.3418   -5.2594 C   0  0  0  0  0  0  0  0  0  0  0  0
  -26.7033  -10.7857   -6.0622 C   0  0  0  0  0  0  0  0  0  0  0  0
  1  2  2  0  0  0
  2  3  1  0  0  0
  2 17  1  0  0  0
  3  5  1  0  0  0
  3  4  1  0  0  0
  5  6  1  0  0  0
  5 10  2  0  0  0
  6  7  2  0  0  0
  7  8  1  0  0  0
  8 11  1  0  0  0
  8  9  2  0  0  0
 11 12  1  0  0  0
 11 16  1  0  0  0
 12 13  1  0  0  0
 13 14  1  0  0  0
 14 15  1  0  0  0
 15 16  1  0  0  0
  9 10  1  0  0  0
 17 18  1  0  0  0
 17 22  2  0  0  0
 18 19  2  0  0  0
 19 20  1  0  0  0
 20 21  2  0  0  0
 21 22  1  0  0  0
 22 23  1  0  0  0
 23 24  1  0  0  0
 24 25  1  0  0  0
 24 32  1  0  0  0
 25 26  2  0  0  0
 26 27  1  0  0  0
 27 28  2  0  0  0
 27 31  1  0  0  0
 28 29  1  0  0  0
 29 30  2  0  0  0
 30 31  1  0  0  0
 31 32  2  0  0  0
M  END
> <minimizedAffinity>
-8.00553

$$$$
