CHEMBL3753157


 30 32  0  0  0  0  0  0  0  0999 V2000
  -27.4354   -1.8986   -9.1171 C   0  0  0  0  0  0  0  0  0  0  0  0
  -27.6860   -0.7827   -8.2930 C   0  0  0  0  0  0  0  0  0  0  0  0
  -28.2599   -0.9140   -7.0320 C   0  0  0  0  0  0  0  0  0  0  0  0
  -28.5951   -2.1746   -6.5579 C   0  0  0  0  0  0  0  0  0  0  0  0
  -28.4385   -3.2952   -7.3870 C   0  0  0  0  0  0  0  0  0  0  0  0
  -27.8263   -3.1642   -8.6402 C   0  0  0  0  0  0  0  0  0  0  0  0
  -25.6662   -1.5168  -12.9439 C   0  0  0  0  0  0  0  0  0  0  0  0
  -27.0396   -1.6781  -12.8743 C   0  0  0  0  0  0  0  0  0  0  0  0
  -27.6274   -1.7592  -11.6146 C   0  0  0  0  0  0  0  0  0  0  0  0
  -26.8434   -1.6968  -10.4552 C   0  0  0  0  0  0  0  0  0  0  0  0
  -25.4755   -1.5024  -10.6551 C   0  0  0  0  0  0  0  0  0  0  0  0
  -24.8703   -1.4066  -11.8629 N   0  0  0  0  0  0  0  0  0  0  0  0
  -24.0253   -0.5901  -14.3265 C   0  0  0  0  0  0  0  0  0  0  0  0
  -25.1134   -1.4967  -14.2144 O   0  0  0  0  0  0  0  0  0  0  0  0
  -29.0174   -4.5026   -6.9711 N   0  0  0  0  0  0  0  0  0  0  0  0
  -30.2189   -5.0321   -7.3566 C   0  0  0  0  0  0  0  0  0  0  0  0
  -30.9237   -4.5802   -8.2569 O   0  0  0  0  0  0  0  0  0  0  0  0
  -30.5729   -6.2095   -6.7488 N   0  0  0  0  0  0  0  0  0  0  0  0
  -28.4048   -5.1337   -6.4636 H   0  0  0  0  0  0  0  0  0  0  0  0
  -31.3308   -6.7271   -7.1669 H   0  0  0  0  0  0  0  0  0  0  0  0
  -30.0158   -6.6763   -5.5922 C   0  0  0  0  0  0  0  0  0  0  0  0
  -29.9784   -6.0716   -4.4298 N   0  0  0  0  0  0  0  0  0  0  0  0
  -29.3205   -6.8716   -3.5205 C   0  0  0  0  0  0  0  0  0  0  0  0
  -28.7895   -8.0346   -4.0369 C   0  0  0  0  0  0  0  0  0  0  0  0
  -29.2512   -8.1946   -5.6866 S   0  0  0  0  0  0  0  0  0  0  0  0
  -29.1201   -2.3563   -5.3078 O   0  0  0  0  0  0  0  0  0  0  0  0
  -28.1697   -2.3444   -4.2400 C   0  0  0  0  0  0  0  0  0  0  0  0
  -27.5728   -1.1504   -4.0279 F   0  0  0  0  0  0  0  0  0  0  0  0
  -28.8035   -2.7005   -3.1001 F   0  0  0  0  0  0  0  0  0  0  0  0
  -27.2037   -3.2565   -4.4855 F   0  0  0  0  0  0  0  0  0  0  0  0
 13 14  1  0  0  0
 14  7  1  0  0  0
  7  8  1  0  0  0
  7 12  2  0  0  0
  8  9  2  0  0  0
  9 10  1  0  0  0
 10  1  1  0  0  0
 10 11  2  0  0  0
  1  2  1  0  0  0
  1  6  2  0  0  0
  2  3  2  0  0  0
  3  4  1  0  0  0
  4 26  1  0  0  0
  4  5  2  0  0  0
 26 27  1  0  0  0
 27 28  1  0  0  0
 27 29  1  0  0  0
 27 30  1  0  0  0
  5 15  1  0  0  0
  5  6  1  0  0  0
 15 16  1  0  0  0
 15 19  1  0  0  0
 16 17  2  0  0  0
 16 18  1  0  0  0
 18 21  1  0  0  0
 18 20  1  0  0  0
 21 22  2  0  0  0
 21 25  1  0  0  0
 22 23  1  0  0  0
 23 24  2  0  0  0
 24 25  1  0  0  0
 11 12  1  0  0  0
M  END
> <minimizedAffinity>
-7.98988

$$$$
