CHEMBL426211


 37 40  0  0  0  0  0  0  0  0999 V2000
  -29.7052   -4.2307   -6.7920 C   0  0  0  0  0  0  0  0  0  0  0  0
  -29.0006   -3.7401   -7.9079 C   0  0  0  0  0  0  0  0  0  0  0  0
  -28.4910   -2.4414   -7.9094 C   0  0  0  0  0  0  0  0  0  0  0  0
  -28.8044   -1.5841   -6.8497 C   0  0  0  0  0  0  0  0  0  0  0  0
  -29.5713   -2.0372   -5.7748 C   0  0  0  0  0  0  0  0  0  0  0  0
  -30.0137   -3.3700   -5.7237 C   0  0  0  0  0  0  0  0  0  0  0  0
  -30.7834   -3.8308   -4.5162 C   0  0  0  0  0  0  0  0  0  0  0  0
  -27.6032   -1.9136   -8.9831 C   0  0  0  0  0  0  0  0  0  0  0  0
  -26.6633   -1.2021   -8.6365 O   0  0  0  0  0  0  0  0  0  0  0  0
  -27.8998   -2.2905  -10.2877 N   0  0  0  0  0  0  0  0  0  0  0  0
  -28.7534   -2.8096  -10.4493 H   0  0  0  0  0  0  0  0  0  0  0  0
  -27.1070   -2.0052  -11.4273 C   0  0  0  0  0  0  0  0  0  0  0  0
  -27.6093   -2.0154  -12.7320 C   0  0  0  0  0  0  0  0  0  0  0  0
  -26.7903   -1.7104  -13.8229 C   0  0  0  0  0  0  0  0  0  0  0  0
  -25.4413   -1.4353  -13.6271 C   0  0  0  0  0  0  0  0  0  0  0  0
  -24.9017   -1.4559  -12.3342 C   0  0  0  0  0  0  0  0  0  0  0  0
  -25.7549   -1.6935  -11.2353 C   0  0  0  0  0  0  0  0  0  0  0  0
  -23.4176   -1.2927  -12.1206 C   0  0  0  0  0  0  0  0  0  0  0  0
  -22.6651   -1.6518  -13.1988 F   0  0  0  0  0  0  0  0  0  0  0  0
  -23.0631   -0.0123  -11.8256 F   0  0  0  0  0  0  0  0  0  0  0  0
  -22.9628   -2.0531  -11.0847 F   0  0  0  0  0  0  0  0  0  0  0  0
  -30.1293   -5.5525   -6.7280 O   0  0  0  0  0  0  0  0  0  0  0  0
  -29.6307   -7.8159   -6.0227 C   0  0  0  0  0  0  0  0  0  0  0  0
  -28.7358   -8.6331   -5.2915 C   0  0  0  0  0  0  0  0  0  0  0  0
  -27.6485   -8.1068   -4.6017 C   0  0  0  0  0  0  0  0  0  0  0  0
  -27.4772   -6.7449   -4.6269 C   0  0  0  0  0  0  0  0  0  0  0  0
  -28.2965   -5.9148   -5.2939 N   0  0  0  0  0  0  0  0  0  0  0  0
  -29.3368   -6.4488   -6.0070 C   0  0  0  0  0  0  0  0  0  0  0  0
  -31.4094   -9.9814   -8.2754 C   0  0  0  0  0  0  0  0  0  0  0  0
  -32.6659   -9.5663   -8.2197 N   0  0  0  0  0  0  0  0  0  0  0  0
  -32.8865   -8.5620   -7.3730 C   0  0  0  0  0  0  0  0  0  0  0  0
  -31.9822   -7.9605   -6.6007 N   0  0  0  0  0  0  0  0  0  0  0  0
  -30.7540   -8.4540   -6.7249 C   0  0  0  0  0  0  0  0  0  0  0  0
  -30.4307   -9.4658   -7.5447 N   0  0  0  0  0  0  0  0  0  0  0  0
  -29.6094  -11.1004   -9.3978 C   0  0  0  0  0  0  0  0  0  0  0  0
  -31.0271  -10.9976   -9.1401 N   0  0  0  0  0  0  0  0  0  0  0  0
  -31.6175  -10.9278   -9.9607 H   0  0  0  0  0  0  0  0  0  0  0  0
 35 36  1  0  0  0
 36 29  1  0  0  0
 36 37  1  0  0  0
 29 30  1  0  0  0
 29 34  2  0  0  0
 30 31  2  0  0  0
 31 32  1  0  0  0
 32 33  2  0  0  0
 33 23  1  0  0  0
 33 34  1  0  0  0
 23 24  1  0  0  0
 23 28  2  0  0  0
 24 25  2  0  0  0
 25 26  1  0  0  0
 26 27  2  0  0  0
 27 28  1  0  0  0
 28 22  1  0  0  0
 22  1  1  0  0  0
  1  2  1  0  0  0
  1  6  2  0  0  0
  2  3  2  0  0  0
  3  8  1  0  0  0
  3  4  1  0  0  0
  8  9  2  0  0  0
  8 10  1  0  0  0
 10 12  1  0  0  0
 10 11  1  0  0  0
 12 13  1  0  0  0
 12 17  2  0  0  0
 13 14  2  0  0  0
 14 15  1  0  0  0
 15 16  2  0  0  0
 16 18  1  0  0  0
 16 17  1  0  0  0
 18 19  1  0  0  0
 18 20  1  0  0  0
 18 21  1  0  0  0
  4  5  2  0  0  0
  5  6  1  0  0  0
  6  7  1  0  0  0
M  END
> <minimizedAffinity>
-11.15157

$$$$
