CHEMBL1241947


 23 25  0  0  0  0  0  0  0  0999 V2000
  -29.5241   -5.0121   -6.4166 C   0  0  0  0  0  0  0  0  0  0  0  0
  -28.7623   -4.0661   -6.9953 N   0  0  0  0  0  0  0  0  0  0  0  0
  -28.9496   -2.9781   -6.2145 N   0  0  0  0  0  0  0  0  0  0  0  0
  -29.6824   -3.2433   -5.0878 C   0  0  0  0  0  0  0  0  0  0  0  0
  -29.9555   -2.3880   -4.0867 N   0  0  0  0  0  0  0  0  0  0  0  0
  -30.6751   -2.9765   -3.1201 C   0  0  0  0  0  0  0  0  0  0  0  0
  -31.1134   -4.2469   -3.0745 N   0  0  0  0  0  0  0  0  0  0  0  0
  -30.8289   -5.0669   -4.1072 C   0  0  0  0  0  0  0  0  0  0  0  0
  -31.2652   -6.3743   -3.9709 N   0  0  0  0  0  0  0  0  0  0  0  0
  -30.0864   -4.5677   -5.1862 C   0  0  0  0  0  0  0  0  0  0  0  0
  -31.5083   -6.5907   -3.0122 H   0  0  0  0  0  0  0  0  0  0  0  0
  -30.7392   -7.0744   -4.4784 H   0  0  0  0  0  0  0  0  0  0  0  0
  -28.2420   -9.1345   -9.1699 C   0  0  0  0  0  0  0  0  0  0  0  0
  -29.1224   -8.2367   -8.3630 C   0  0  0  0  0  0  0  0  0  0  0  0
  -28.7091   -6.9659   -7.8314 C   0  0  0  0  0  0  0  0  0  0  0  0
  -29.6888   -6.3528   -7.0781 C   0  0  0  0  0  0  0  0  0  0  0  0
  -31.1152   -7.2812   -7.0516 S   0  0  0  0  0  0  0  0  0  0  0  0
  -30.4456   -8.4959   -8.0431 C   0  0  0  0  0  0  0  0  0  0  0  0
  -31.2842   -9.6145   -8.4252 C   0  0  0  0  0  0  0  0  0  0  0  0
  -32.5133   -9.6128   -8.4165 O   0  0  0  0  0  0  0  0  0  0  0  0
  -28.4008   -1.6817   -6.6009 C   0  0  0  0  0  0  0  0  0  0  0  0
  -27.3678   -1.1800   -5.5939 C   0  0  0  0  0  0  0  0  0  0  0  0
  -27.8190   -1.7106   -8.0157 C   0  0  0  0  0  0  0  0  0  0  0  0
 13 14  1  0  0  0
 14 15  1  0  0  0
 14 18  2  0  0  0
 15 16  2  0  0  0
 16  1  1  0  0  0
 16 17  1  0  0  0
  1  2  2  0  0  0
  1 10  1  0  0  0
  2  3  1  0  0  0
  3 21  1  0  0  0
  3  4  1  0  0  0
 21 22  1  0  0  0
 21 23  1  0  0  0
  4  5  1  0  0  0
  4 10  2  0  0  0
  5  6  2  0  0  0
  6  7  1  0  0  0
  7  8  2  0  0  0
  8  9  1  0  0  0
  8 10  1  0  0  0
  9 11  1  0  0  0
  9 12  1  0  0  0
 17 18  1  0  0  0
 18 19  1  0  0  0
 19 20  2  0  0  0
M  END
> <minimizedAffinity>
-7.57614

$$$$
