CHEMBL2088103


 25 27  0  0  0  0  0  0  0  0999 V2000
  -28.9326   -3.4360   -7.0102 C   0  0  0  0  0  0  0  0  0  0  0  0
  -28.4864   -3.4439   -8.2825 N   0  0  0  0  0  0  0  0  0  0  0  0
  -27.7093   -2.4499   -8.7094 C   0  0  0  0  0  0  0  0  0  0  0  0
  -27.4358   -1.3624   -7.9805 N   0  0  0  0  0  0  0  0  0  0  0  0
  -27.9671   -1.3181   -6.7413 C   0  0  0  0  0  0  0  0  0  0  0  0
  -28.7065   -2.3435   -6.1897 C   0  0  0  0  0  0  0  0  0  0  0  0
  -29.2769   -2.2360   -4.3964 Br  0  0  0  0  0  0  0  0  0  0  0  0
  -29.5566   -4.5889   -6.4886 N   0  0  0  0  0  0  0  0  0  0  0  0
  -30.2773   -4.3881   -5.8056 H   0  0  0  0  0  0  0  0  0  0  0  0
  -28.7060   -9.3123   -7.7714 C   0  0  0  0  0  0  0  0  0  0  0  0
  -28.7705   -7.9779   -7.1428 C   0  0  0  0  0  0  0  0  0  0  0  0
  -29.4465   -6.8368   -7.5055 C   0  0  0  0  0  0  0  0  0  0  0  0
  -29.1382   -5.8735   -6.5193 C   0  0  0  0  0  0  0  0  0  0  0  0
  -28.3294   -6.3877   -5.5863 N   0  0  0  0  0  0  0  0  0  0  0  0
  -28.1001   -7.6450   -6.0018 N   0  0  0  0  0  0  0  0  0  0  0  0
  -27.4742   -8.2238   -5.4523 H   0  0  0  0  0  0  0  0  0  0  0  0
  -27.1576   -2.6260   -9.9698 N   0  0  0  0  0  0  0  0  0  0  0  0
  -27.5748   -3.4549  -10.3770 H   0  0  0  0  0  0  0  0  0  0  0  0
  -27.0818   -1.4430  -10.8110 C   0  0  0  0  0  0  0  0  0  0  0  0
  -26.6840   -1.8286  -12.2375 C   0  0  0  0  0  0  0  0  0  0  0  0
  -25.2256   -1.6521  -12.4547 C   0  0  0  0  0  0  0  0  0  0  0  0
  -24.4613   -1.3379  -13.5588 C   0  0  0  0  0  0  0  0  0  0  0  0
  -23.1152   -1.3307  -13.1209 C   0  0  0  0  0  0  0  0  0  0  0  0
  -23.1463   -1.6388  -11.7813 C   0  0  0  0  0  0  0  0  0  0  0  0
  -24.4244   -1.8370  -11.3682 O   0  0  0  0  0  0  0  0  0  0  0  0
 10 11  1  0  0  0
 11 12  2  0  0  0
 11 15  1  0  0  0
 12 13  1  0  0  0
 13  8  1  0  0  0
 13 14  2  0  0  0
  8  1  1  0  0  0
  8  9  1  0  0  0
  1  2  1  0  0  0
  1  6  2  0  0  0
  2  3  2  0  0  0
  3 17  1  0  0  0
  3  4  1  0  0  0
 17 19  1  0  0  0
 17 18  1  0  0  0
 19 20  1  0  0  0
 20 21  1  0  0  0
 21 22  2  0  0  0
 21 25  1  0  0  0
 22 23  1  0  0  0
 23 24  2  0  0  0
 24 25  1  0  0  0
  4  5  2  0  0  0
  5  6  1  0  0  0
  6  7  1  0  0  0
 14 15  1  0  0  0
 15 16  1  0  0  0
M  END
> <minimizedAffinity>
-7.93161

$$$$
