CHEMBL3917694


 38 42  0  0  0  0  0  0  0  0999 V2000
  -16.7076    1.4448  -14.4129 C   0  0  0  0  0  0  0  0  0  0  0  0
  -17.9356    1.7863  -13.9376 N   0  0  0  0  0  0  0  0  0  0  0  0
  -18.6564    2.6628  -14.6534 C   0  0  0  0  0  0  0  0  0  0  0  0
  -18.2084    3.2343  -15.7868 N   0  0  0  0  0  0  0  0  0  0  0  0
  -17.0188    2.8466  -16.2633 C   0  0  0  0  0  0  0  0  0  0  0  0
  -16.2126    1.9474  -15.6125 C   0  0  0  0  0  0  0  0  0  0  0  0
  -14.6869    1.5458  -16.2876 Cl  0  0  0  0  0  0  0  0  0  0  0  0
  -19.9531    2.9583  -14.2073 N   0  0  0  0  0  0  0  0  0  0  0  0
  -19.8795    3.4284  -13.3143 H   0  0  0  0  0  0  0  0  0  0  0  0
  -20.9973    2.0180  -14.2719 C   0  0  0  0  0  0  0  0  0  0  0  0
  -22.2681    2.3325  -13.7916 C   0  0  0  0  0  0  0  0  0  0  0  0
  -23.2294    1.3478  -13.6380 C   0  0  0  0  0  0  0  0  0  0  0  0
  -22.9851    0.0329  -14.0346 C   0  0  0  0  0  0  0  0  0  0  0  0
  -21.7620   -0.2443  -14.6673 C   0  0  0  0  0  0  0  0  0  0  0  0
  -20.7789    0.7457  -14.7968 C   0  0  0  0  0  0  0  0  0  0  0  0
  -23.9706   -1.0890  -13.7486 C   0  0  0  0  0  0  0  0  0  0  0  0
  -25.2759   -0.6142  -13.0970 C   0  0  0  0  0  0  0  0  0  0  0  0
  -25.1795   -0.4051  -11.5856 C   0  0  0  0  0  0  0  0  0  0  0  0
  -24.5820   -1.5365  -10.8783 N   0  0  0  0  0  0  0  0  0  0  0  0
  -23.2929   -1.9533  -11.4299 C   0  0  0  0  0  0  0  0  0  0  0  0
  -23.3491   -2.2345  -12.9313 C   0  0  0  0  0  0  0  0  0  0  0  0
  -25.2279   -2.3292  -10.9283 H   0  0  0  0  0  0  0  0  0  0  0  0
  -15.8278    0.6311  -13.4882 C   0  0  0  0  0  0  0  0  0  0  0  0
  -15.9548   -0.8976  -13.6099 C   0  0  0  0  0  0  0  0  0  0  0  0
  -14.2004   -2.5279  -12.6039 C   0  0  0  0  0  0  0  0  0  0  0  0
  -12.8220   -2.8314  -12.5069 C   0  0  0  0  0  0  0  0  0  0  0  0
  -11.8801   -2.3170  -13.3981 C   0  0  0  0  0  0  0  0  0  0  0  0
  -12.2931   -1.4757  -14.4189 C   0  0  0  0  0  0  0  0  0  0  0  0
  -13.6236   -1.0727  -14.4800 C   0  0  0  0  0  0  0  0  0  0  0  0
  -14.5801   -1.5489  -13.5579 C   0  0  0  0  0  0  0  0  0  0  0  0
  -15.1749   -3.3331  -11.7269 C   0  0  0  0  0  0  0  0  0  0  0  0
  -14.9117   -3.4227  -10.2238 C   0  0  0  0  0  0  0  0  0  0  0  0
  -15.9837   -2.5141  -10.7025 C   0  0  0  0  0  0  0  0  0  0  0  0
  -15.7839   -5.6775  -11.8367 N   0  0  0  0  0  0  0  0  0  0  0  0
  -15.9357   -4.4402  -12.4036 C   0  0  0  0  0  0  0  0  0  0  0  0
  -16.6448   -4.2461  -13.3751 O   0  0  0  0  0  0  0  0  0  0  0  0
  -16.3017   -6.4454  -12.2364 H   0  0  0  0  0  0  0  0  0  0  0  0
  -15.2096   -5.8296  -11.0225 H   0  0  0  0  0  0  0  0  0  0  0  0
 34 35  1  0  0  0
 34 37  1  0  0  0
 34 38  1  0  0  0
 35 36  2  0  0  0
 35 31  1  0  0  0
 31 25  1  0  0  0
 31 32  1  0  0  0
 31 33  1  0  0  0
 25 26  1  0  0  0
 25 30  2  0  0  0
 26 27  2  0  0  0
 27 28  1  0  0  0
 28 29  2  0  0  0
 29 30  1  0  0  0
 30 24  1  0  0  0
 24 23  1  0  0  0
 23  1  1  0  0  0
  1  2  1  0  0  0
  1  6  2  0  0  0
  2  3  2  0  0  0
  3  8  1  0  0  0
  3  4  1  0  0  0
  8 10  1  0  0  0
  8  9  1  0  0  0
 10 11  1  0  0  0
 10 15  2  0  0  0
 11 12  2  0  0  0
 12 13  1  0  0  0
 13 16  1  0  0  0
 13 14  2  0  0  0
 16 17  1  0  0  0
 16 21  1  0  0  0
 17 18  1  0  0  0
 18 19  1  0  0  0
 19 20  1  0  0  0
 19 22  1  0  0  0
 20 21  1  0  0  0
 14 15  1  0  0  0
  4  5  2  0  0  0
  5  6  1  0  0  0
  6  7  1  0  0  0
 32 33  1  0  0  0
M  END
> <minimizedAffinity>
-9.47519

$$$$
