CHEMBL396144


 26 28  0  0  0  0  0  0  0  0999 V2000
  -29.6300   -3.0399   -4.8992 C   0  0  0  0  0  0  0  0  0  0  0  0
  -28.7967   -2.6416   -6.0089 N   0  0  0  0  0  0  0  0  0  0  0  0
  -27.9658   -1.5577   -6.0169 C   0  0  0  0  0  0  0  0  0  0  0  0
  -27.4037   -1.3887   -7.1946 N   0  0  0  0  0  0  0  0  0  0  0  0
  -27.8494   -2.4310   -7.9451 C   0  0  0  0  0  0  0  0  0  0  0  0
  -28.7531   -3.2225   -7.2601 C   0  0  0  0  0  0  0  0  0  0  0  0
  -29.5307   -4.3669   -7.6878 C   0  0  0  0  0  0  0  0  0  0  0  0
  -30.6545   -4.2409   -8.1624 O   0  0  0  0  0  0  0  0  0  0  0  0
  -28.8787   -5.5745   -7.5045 N   0  0  0  0  0  0  0  0  0  0  0  0
  -27.9556   -5.4993   -7.0833 H   0  0  0  0  0  0  0  0  0  0  0  0
  -29.3700   -6.8677   -7.7512 C   0  0  0  0  0  0  0  0  0  0  0  0
  -28.6396   -7.8613   -8.4066 C   0  0  0  0  0  0  0  0  0  0  0  0
  -29.2079   -9.1088   -8.6735 C   0  0  0  0  0  0  0  0  0  0  0  0
  -30.5194   -9.3736   -8.2873 C   0  0  0  0  0  0  0  0  0  0  0  0
  -31.2478   -8.3974   -7.6104 C   0  0  0  0  0  0  0  0  0  0  0  0
  -32.8702   -8.7189   -7.1406 Cl  0  0  0  0  0  0  0  0  0  0  0  0
  -30.6754   -7.1545   -7.3267 C   0  0  0  0  0  0  0  0  0  0  0  0
  -27.4431   -2.6389   -9.2188 N   0  0  0  0  0  0  0  0  0  0  0  0
  -26.4829   -2.9684   -9.3058 H   0  0  0  0  0  0  0  0  0  0  0  0
  -27.7491   -1.6504  -10.2464 C   0  0  0  0  0  0  0  0  0  0  0  0
  -26.7371   -1.6232  -11.3622 C   0  0  0  0  0  0  0  0  0  0  0  0
  -27.1161   -1.8124  -12.6951 C   0  0  0  0  0  0  0  0  0  0  0  0
  -26.1485   -1.7032  -13.6840 C   0  0  0  0  0  0  0  0  0  0  0  0
  -24.8495   -1.4312  -13.4383 N   0  0  0  0  0  0  0  0  0  0  0  0
  -24.4989   -1.2767  -12.1436 C   0  0  0  0  0  0  0  0  0  0  0  0
  -25.3912   -1.3671  -11.0876 C   0  0  0  0  0  0  0  0  0  0  0  0
  1  2  1  0  0  0
  2  3  1  0  0  0
  2  6  1  0  0  0
  3  4  2  0  0  0
  4  5  1  0  0  0
  5 18  1  0  0  0
  5  6  2  0  0  0
 18 20  1  0  0  0
 18 19  1  0  0  0
 20 21  1  0  0  0
 21 22  1  0  0  0
 21 26  2  0  0  0
 22 23  2  0  0  0
 23 24  1  0  0  0
 24 25  2  0  0  0
 25 26  1  0  0  0
  6  7  1  0  0  0
  7  8  2  0  0  0
  7  9  1  0  0  0
  9 11  1  0  0  0
  9 10  1  0  0  0
 11 12  1  0  0  0
 11 17  2  0  0  0
 12 13  2  0  0  0
 13 14  1  0  0  0
 14 15  2  0  0  0
 15 16  1  0  0  0
 15 17  1  0  0  0
M  END
> <minimizedAffinity>
-8.46484

$$$$
