CHEMBL1980521


 35 38  0  0  0  0  0  0  0  0999 V2000
  -28.4433   -3.8100   -7.6508 C   0  0  0  0  0  0  0  0  0  0  0  0
  -27.8743   -3.5097   -8.8996 C   0  0  0  0  0  0  0  0  0  0  0  0
  -27.3802   -2.2456   -9.1613 C   0  0  0  0  0  0  0  0  0  0  0  0
  -27.4185   -1.2913   -8.2127 N   0  0  0  0  0  0  0  0  0  0  0  0
  -27.9220   -1.5283   -7.0051 C   0  0  0  0  0  0  0  0  0  0  0  0
  -27.8508   -0.4964   -6.1864 N   0  0  0  0  0  0  0  0  0  0  0  0
  -28.2685   -0.6456   -4.9332 C   0  0  0  0  0  0  0  0  0  0  0  0
  -28.7677   -1.7642   -4.4210 N   0  0  0  0  0  0  0  0  0  0  0  0
  -28.9244   -2.7743   -5.2895 C   0  0  0  0  0  0  0  0  0  0  0  0
  -28.4677   -2.7699   -6.6396 C   0  0  0  0  0  0  0  0  0  0  0  0
  -30.2440   -7.7038   -7.7889 C   0  0  0  0  0  0  0  0  0  0  0  0
  -31.0084   -6.6167   -7.3705 C   0  0  0  0  0  0  0  0  0  0  0  0
  -30.4181   -5.3540   -7.2079 C   0  0  0  0  0  0  0  0  0  0  0  0
  -29.0732   -5.1480   -7.5290 C   0  0  0  0  0  0  0  0  0  0  0  0
  -28.2922   -6.2989   -7.7454 C   0  0  0  0  0  0  0  0  0  0  0  0
  -28.8660   -7.5634   -7.8566 C   0  0  0  0  0  0  0  0  0  0  0  0
  -32.2233   -8.9548   -7.5386 C   0  0  0  0  0  0  0  0  0  0  0  0
  -30.9268   -8.8390   -8.1303 O   0  0  0  0  0  0  0  0  0  0  0  0
  -26.8389   -1.8534  -10.4832 C   0  0  0  0  0  0  0  0  0  0  0  0
  -27.6173   -2.0005  -11.6476 C   0  0  0  0  0  0  0  0  0  0  0  0
  -27.1196   -1.6620  -12.9110 C   0  0  0  0  0  0  0  0  0  0  0  0
  -25.8275   -1.1651  -13.0403 C   0  0  0  0  0  0  0  0  0  0  0  0
  -25.0364   -1.0002  -11.9095 C   0  0  0  0  0  0  0  0  0  0  0  0
  -25.5376   -1.3378  -10.6468 C   0  0  0  0  0  0  0  0  0  0  0  0
  -29.3850   -3.9489   -4.6679 N   0  0  0  0  0  0  0  0  0  0  0  0
  -28.4947   -4.8485   -4.1070 C   0  0  0  0  0  0  0  0  0  0  0  0
  -27.2752   -4.6904   -4.0193 O   0  0  0  0  0  0  0  0  0  0  0  0
  -30.0819   -4.4147   -5.2358 H   0  0  0  0  0  0  0  0  0  0  0  0
  -29.2200   -6.0737   -3.4851 C   0  0  0  0  0  0  0  0  0  0  0  0
  -29.3999   -7.2663   -4.2389 O   0  0  0  0  0  0  0  0  0  0  0  0
  -28.5820   -8.3195   -3.6984 C   0  0  0  0  0  0  0  0  0  0  0  0
  -27.3311   -8.5339   -4.5426 C   0  0  0  0  0  0  0  0  0  0  0  0
  -27.1996   -9.3916   -5.3996 O   0  0  0  0  0  0  0  0  0  0  0  0
  -26.3681   -7.6193   -4.2552 O   0  0  0  0  0  0  0  0  0  0  0  0
  -26.6842   -7.0041   -3.5579 H   0  0  0  0  0  0  0  0  0  0  0  0
 17 18  1  0  0  0
 18 11  1  0  0  0
 11 12  1  0  0  0
 11 16  2  0  0  0
 12 13  2  0  0  0
 13 14  1  0  0  0
 14  1  1  0  0  0
 14 15  2  0  0  0
  1  2  1  0  0  0
  1 10  2  0  0  0
  2  3  2  0  0  0
  3 19  1  0  0  0
  3  4  1  0  0  0
 19 20  1  0  0  0
 19 24  2  0  0  0
 20 21  2  0  0  0
 21 22  1  0  0  0
 22 23  2  0  0  0
 23 24  1  0  0  0
  4  5  2  0  0  0
  5  6  1  0  0  0
  5 10  1  0  0  0
  6  7  2  0  0  0
  7  8  1  0  0  0
  8  9  2  0  0  0
  9 25  1  0  0  0
  9 10  1  0  0  0
 25 26  1  0  0  0
 25 28  1  0  0  0
 26 27  2  0  0  0
 26 29  1  0  0  0
 29 30  1  0  0  0
 30 31  1  0  0  0
 31 32  1  0  0  0
 32 33  2  0  0  0
 32 34  1  0  0  0
 34 35  1  0  0  0
 15 16  1  0  0  0
M  END
> <minimizedAffinity>
-9.29056

$$$$
