CHEMBL217091


 31 35  0  0  0  0  0  0  0  0999 V2000
  -14.3146    4.1451  -16.8017 C   0  0  0  0  0  0  0  0  0  0  0  0
  -15.1877    3.0799  -16.9037 C   0  0  0  0  0  0  0  0  0  0  0  0
  -15.2637    2.1388  -15.8643 C   0  0  0  0  0  0  0  0  0  0  0  0
  -14.3282    2.1497  -14.7882 C   0  0  0  0  0  0  0  0  0  0  0  0
  -14.2137    1.2268  -13.7176 C   0  0  0  0  0  0  0  0  0  0  0  0
  -13.2884    1.3687  -12.7481 N   0  0  0  0  0  0  0  0  0  0  0  0
  -12.4944    2.4336  -12.8087 C   0  0  0  0  0  0  0  0  0  0  0  0
  -12.5071    3.3604  -13.7680 N   0  0  0  0  0  0  0  0  0  0  0  0
  -13.4060    3.2115  -14.7429 C   0  0  0  0  0  0  0  0  0  0  0  0
  -13.4245    4.1882  -15.7333 C   0  0  0  0  0  0  0  0  0  0  0  0
  -14.8326    4.8922  -18.9704 C   0  0  0  0  0  0  0  0  0  0  0  0
  -14.2603    5.1800  -17.6940 O   0  0  0  0  0  0  0  0  0  0  0  0
  -15.0880    0.1093  -13.6304 N   0  0  0  0  0  0  0  0  0  0  0  0
  -15.8567    0.2273  -14.2855 H   0  0  0  0  0  0  0  0  0  0  0  0
  -14.6700   -1.2442  -13.5624 C   0  0  0  0  0  0  0  0  0  0  0  0
  -13.9001   -1.8856  -14.5593 C   0  0  0  0  0  0  0  0  0  0  0  0
  -13.2485   -1.0302  -15.9205 Cl  0  0  0  0  0  0  0  0  0  0  0  0
  -13.5455   -3.2487  -14.4518 C   0  0  0  0  0  0  0  0  0  0  0  0
  -13.9336   -4.0032  -13.3459 C   0  0  0  0  0  0  0  0  0  0  0  0
  -14.6660   -3.3650  -12.3709 C   0  0  0  0  0  0  0  0  0  0  0  0
  -15.0229   -2.0351  -12.4701 C   0  0  0  0  0  0  0  0  0  0  0  0
  -15.7480   -1.6269  -11.3846 O   0  0  0  0  0  0  0  0  0  0  0  0
  -15.7979   -2.8449  -10.6079 C   0  0  0  0  0  0  0  0  0  0  0  0
  -15.1113   -3.9483  -11.2266 O   0  0  0  0  0  0  0  0  0  0  0  0
  -16.2795    1.1976  -15.8918 O   0  0  0  0  0  0  0  0  0  0  0  0
  -17.5522    1.6368  -15.5625 C   0  0  0  0  0  0  0  0  0  0  0  0
  -18.4743    0.6664  -15.1892 C   0  0  0  0  0  0  0  0  0  0  0  0
  -19.7661    1.0744  -14.8977 C   0  0  0  0  0  0  0  0  0  0  0  0
  -20.1834    2.3579  -14.9580 N   0  0  0  0  0  0  0  0  0  0  0  0
  -19.2597    3.2820  -15.2924 C   0  0  0  0  0  0  0  0  0  0  0  0
  -17.9413    2.9784  -15.5808 C   0  0  0  0  0  0  0  0  0  0  0  0
 11 12  1  0  0  0
 12  1  1  0  0  0
  1  2  1  0  0  0
  1 10  2  0  0  0
  2  3  2  0  0  0
  3 25  1  0  0  0
  3  4  1  0  0  0
 25 26  1  0  0  0
 26 27  1  0  0  0
 26 31  2  0  0  0
 27 28  2  0  0  0
 28 29  1  0  0  0
 29 30  2  0  0  0
 30 31  1  0  0  0
  4  5  1  0  0  0
  4  9  2  0  0  0
  5 13  1  0  0  0
  5  6  2  0  0  0
 13 15  1  0  0  0
 13 14  1  0  0  0
 15 16  1  0  0  0
 15 21  2  0  0  0
 16 17  1  0  0  0
 16 18  2  0  0  0
 18 19  1  0  0  0
 19 20  2  0  0  0
 20 21  1  0  0  0
 20 24  1  0  0  0
 21 22  1  0  0  0
 22 23  1  0  0  0
 23 24  1  0  0  0
  6  7  1  0  0  0
  7  8  2  0  0  0
  8  9  1  0  0  0
  9 10  1  0  0  0
M  END
> <minimizedAffinity>
-7.82368

$$$$
