CHEMBL203346


 31 35  0  0  0  0  0  0  0  0999 V2000
  -30.0532   -6.6433   -5.1761 C   0  0  0  0  0  0  0  0  0  0  0  0
  -28.7900   -6.9155   -4.7808 N   0  0  0  0  0  0  0  0  0  0  0  0
  -28.0655   -7.9911   -5.2647 N   0  0  0  0  0  0  0  0  0  0  0  0
  -28.5970   -8.8412   -6.1733 C   0  0  0  0  0  0  0  0  0  0  0  0
  -29.9894   -8.6750   -6.5305 C   0  0  0  0  0  0  0  0  0  0  0  0
  -30.6794   -9.5503   -7.4551 C   0  0  0  0  0  0  0  0  0  0  0  0
  -32.0066   -9.3828   -7.7897 C   0  0  0  0  0  0  0  0  0  0  0  0
  -32.7289   -8.3362   -7.2503 C   0  0  0  0  0  0  0  0  0  0  0  0
  -32.0945   -7.4488   -6.3901 C   0  0  0  0  0  0  0  0  0  0  0  0
  -30.7169   -7.5831   -6.0267 C   0  0  0  0  0  0  0  0  0  0  0  0
  -27.6528   -9.8056   -6.8092 C   0  0  0  0  0  0  0  0  0  0  0  0
  -27.1189  -10.8693   -6.0307 C   0  0  0  0  0  0  0  0  0  0  0  0
  -26.3938  -11.9209   -6.5640 C   0  0  0  0  0  0  0  0  0  0  0  0
  -26.3127  -12.0228   -7.9428 C   0  0  0  0  0  0  0  0  0  0  0  0
  -26.8469  -11.0155   -8.7479 C   0  0  0  0  0  0  0  0  0  0  0  0
  -26.9443  -11.2142  -10.1067 C   0  0  0  0  0  0  0  0  0  0  0  0
  -26.8147  -10.2336  -11.0180 N   0  0  0  0  0  0  0  0  0  0  0  0
  -26.9216   -8.9908  -10.5144 C   0  0  0  0  0  0  0  0  0  0  0  0
  -27.3411   -8.7525   -9.1939 C   0  0  0  0  0  0  0  0  0  0  0  0
  -27.3100   -9.8010   -8.2277 C   0  0  0  0  0  0  0  0  0  0  0  0
  -30.7268   -5.4562   -4.7787 N   0  0  0  0  0  0  0  0  0  0  0  0
  -31.7317   -5.5386   -4.8335 H   0  0  0  0  0  0  0  0  0  0  0  0
  -29.4078   -1.4146   -5.1173 C   0  0  0  0  0  0  0  0  0  0  0  0
  -29.6915   -1.9791   -3.8723 C   0  0  0  0  0  0  0  0  0  0  0  0
  -30.0908   -3.3094   -3.7500 C   0  0  0  0  0  0  0  0  0  0  0  0
  -30.2510   -4.1216   -4.8872 C   0  0  0  0  0  0  0  0  0  0  0  0
  -29.9073   -3.5764   -6.1204 C   0  0  0  0  0  0  0  0  0  0  0  0
  -29.4753   -2.2484   -6.2473 C   0  0  0  0  0  0  0  0  0  0  0  0
  -27.9937    0.3005   -6.2853 C   0  0  0  0  0  0  0  0  0  0  0  0
  -29.0815    0.0643   -5.2408 C   0  0  0  0  0  0  0  0  0  0  0  0
  -30.3299    0.8930   -5.5674 C   0  0  0  0  0  0  0  0  0  0  0  0
 29 30  1  0  0  0
 30 31  1  0  0  0
 30 23  1  0  0  0
 23 24  1  0  0  0
 23 28  2  0  0  0
 24 25  2  0  0  0
 25 26  1  0  0  0
 26 21  1  0  0  0
 26 27  2  0  0  0
 21  1  1  0  0  0
 21 22  1  0  0  0
  1  2  1  0  0  0
  1 10  2  0  0  0
  2  3  2  0  0  0
  3  4  1  0  0  0
  4 11  1  0  0  0
  4  5  2  0  0  0
 11 12  1  0  0  0
 11 20  2  0  0  0
 12 13  2  0  0  0
 13 14  1  0  0  0
 14 15  2  0  0  0
 15 16  1  0  0  0
 15 20  1  0  0  0
 16 17  2  0  0  0
 17 18  1  0  0  0
 18 19  2  0  0  0
 19 20  1  0  0  0
  5  6  1  0  0  0
  5 10  1  0  0  0
  6  7  2  0  0  0
  7  8  1  0  0  0
  8  9  2  0  0  0
  9 10  1  0  0  0
 27 28  1  0  0  0
M  END
> <minimizedAffinity>
-9.31495

$$$$
