CHEMBL3907488


 34 38  0  0  0  0  0  0  0  0999 V2000
  -29.4537   -4.2195   -6.7499 N   0  0  0  0  0  0  0  0  0  0  0  0
  -28.4972   -3.4847   -7.5370 C   0  0  0  0  0  0  0  0  0  0  0  0
  -28.3985   -2.1210   -7.2459 C   0  0  0  0  0  0  0  0  0  0  0  0
  -28.2190   -1.2316   -8.2575 C   0  0  0  0  0  0  0  0  0  0  0  0
  -27.8531   -1.6193   -9.5094 C   0  0  0  0  0  0  0  0  0  0  0  0
  -28.0840   -0.6655  -10.3859 N   0  0  0  0  0  0  0  0  0  0  0  0
  -27.3628   -0.6949  -11.4828 C   0  0  0  0  0  0  0  0  0  0  0  0
  -26.2878   -1.5413  -11.6260 C   0  0  0  0  0  0  0  0  0  0  0  0
  -26.2416   -2.6983  -10.8393 N   0  0  0  0  0  0  0  0  0  0  0  0
  -27.2059   -2.8349   -9.7226 C   0  0  0  0  0  0  0  0  0  0  0  0
  -27.7395   -3.8480   -8.7072 C   0  0  0  0  0  0  0  0  0  0  0  0
  -25.1833   -0.8065  -12.3229 C   0  0  0  0  0  0  0  0  0  0  0  0
  -24.6340   -1.2204  -13.6012 C   0  0  0  0  0  0  0  0  0  0  0  0
  -23.5146   -0.5962  -13.9515 N   0  0  0  0  0  0  0  0  0  0  0  0
  -23.3206    0.2530  -12.9406 N   0  0  0  0  0  0  0  0  0  0  0  0
  -24.2875    0.1746  -11.9459 C   0  0  0  0  0  0  0  0  0  0  0  0
  -22.4827    0.8284  -12.9845 H   0  0  0  0  0  0  0  0  0  0  0  0
  -31.0985   -7.6104   -6.9351 C   0  0  0  0  0  0  0  0  0  0  0  0
  -30.0627   -8.4477   -6.4924 C   0  0  0  0  0  0  0  0  0  0  0  0
  -28.8460   -7.8900   -6.1183 C   0  0  0  0  0  0  0  0  0  0  0  0
  -28.6753   -6.4997   -6.1897 C   0  0  0  0  0  0  0  0  0  0  0  0
  -29.6946   -5.6201   -6.6317 C   0  0  0  0  0  0  0  0  0  0  0  0
  -30.9100   -6.2103   -7.0008 C   0  0  0  0  0  0  0  0  0  0  0  0
  -32.5540   -9.4753   -7.2585 C   0  0  0  0  0  0  0  0  0  0  0  0
  -32.3071   -8.0725   -7.3896 O   0  0  0  0  0  0  0  0  0  0  0  0
  -27.7522   -8.6031   -5.6894 O   0  0  0  0  0  0  0  0  0  0  0  0
  -27.3546   -8.4165   -4.3210 C   0  0  0  0  0  0  0  0  0  0  0  0
  -25.9143   -8.8954   -4.1569 C   0  0  0  0  0  0  0  0  0  0  0  0
  -25.1450   -7.9302   -3.4446 O   0  0  0  0  0  0  0  0  0  0  0  0
  -25.2691   -7.0856   -3.9172 H   0  0  0  0  0  0  0  0  0  0  0  0
  -30.1234   -3.3943   -5.6285 C   0  0  0  0  0  0  0  0  0  0  0  0
  -29.7667   -3.7939   -4.1870 C   0  0  0  0  0  0  0  0  0  0  0  0
  -29.5978   -2.8039   -3.0307 C   0  0  0  0  0  0  0  0  0  0  0  0
  -28.3901   -3.4216   -3.6488 C   0  0  0  0  0  0  0  0  0  0  0  0
 24 25  1  0  0  0
 25 18  1  0  0  0
 18 19  1  0  0  0
 18 23  2  0  0  0
 19 20  2  0  0  0
 20 26  1  0  0  0
 20 21  1  0  0  0
 26 27  1  0  0  0
 27 28  1  0  0  0
 28 29  1  0  0  0
 29 30  1  0  0  0
 21 22  2  0  0  0
 22  1  1  0  0  0
 22 23  1  0  0  0
  1 31  1  0  0  0
  1  2  1  0  0  0
 31 32  1  0  0  0
 32 33  1  0  0  0
 32 34  1  0  0  0
 33 34  1  0  0  0
  2  3  1  0  0  0
  2 11  2  0  0  0
  3  4  2  0  0  0
  4  5  1  0  0  0
  5  6  1  0  0  0
  5 10  2  0  0  0
  6  7  2  0  0  0
  7  8  1  0  0  0
  8 12  1  0  0  0
  8  9  2  0  0  0
 12 13  1  0  0  0
 12 16  2  0  0  0
 13 14  2  0  0  0
 14 15  1  0  0  0
 15 16  1  0  0  0
 15 17  1  0  0  0
  9 10  1  0  0  0
 10 11  1  0  0  0
M  END
> <minimizedAffinity>
-7.25205

$$$$
