CHEMBL443906


 27 31  0  0  0  0  0  0  0  0999 V2000
  -22.2737    3.1729  -13.9480 C   0  0  0  0  0  0  0  0  0  0  0  0
  -22.9018    1.9376  -13.7950 C   0  0  0  0  0  0  0  0  0  0  0  0
  -22.2327    0.7400  -14.0672 C   0  0  0  0  0  0  0  0  0  0  0  0
  -20.9147    0.8243  -14.5550 C   0  0  0  0  0  0  0  0  0  0  0  0
  -20.2560    2.0621  -14.7101 C   0  0  0  0  0  0  0  0  0  0  0  0
  -20.9586    3.2357  -14.3977 C   0  0  0  0  0  0  0  0  0  0  0  0
  -18.8609    2.0996  -15.1850 C   0  0  0  0  0  0  0  0  0  0  0  0
  -18.2886    3.1295  -15.7766 N   0  0  0  0  0  0  0  0  0  0  0  0
  -16.9798    2.8195  -16.1193 C   0  0  0  0  0  0  0  0  0  0  0  0
  -16.0562    3.6803  -16.7493 C   0  0  0  0  0  0  0  0  0  0  0  0
  -14.7761    3.2139  -17.0742 C   0  0  0  0  0  0  0  0  0  0  0  0
  -14.4027    1.9084  -16.7719 C   0  0  0  0  0  0  0  0  0  0  0  0
  -15.2900    1.0441  -16.1257 C   0  0  0  0  0  0  0  0  0  0  0  0
  -16.5727    1.5219  -15.8095 C   0  0  0  0  0  0  0  0  0  0  0  0
  -17.8635    0.7013  -15.0318 S   0  0  0  0  0  0  0  0  0  0  0  0
  -22.8177   -0.5267  -13.8876 N   0  0  0  0  0  0  0  0  0  0  0  0
  -22.2529   -1.1944  -13.3700 H   0  0  0  0  0  0  0  0  0  0  0  0
  -24.1622   -0.9401  -13.9342 C   0  0  0  0  0  0  0  0  0  0  0  0
  -24.8653   -1.0556  -15.0981 N   0  0  0  0  0  0  0  0  0  0  0  0
  -26.1663   -1.4138  -15.0582 C   0  0  0  0  0  0  0  0  0  0  0  0
  -26.9216   -1.6841  -13.9767 N   0  0  0  0  0  0  0  0  0  0  0  0
  -26.1939   -1.5692  -12.8583 C   0  0  0  0  0  0  0  0  0  0  0  0
  -26.6299   -1.7477  -11.5789 N   0  0  0  0  0  0  0  0  0  0  0  0
  -25.5653   -1.5313  -10.7463 C   0  0  0  0  0  0  0  0  0  0  0  0
  -24.4752   -1.2124  -11.4135 N   0  0  0  0  0  0  0  0  0  0  0  0
  -24.8579   -1.2290  -12.7424 C   0  0  0  0  0  0  0  0  0  0  0  0
  -27.5737   -1.9855  -11.3137 H   0  0  0  0  0  0  0  0  0  0  0  0
  1  2  1  0  0  0
  1  6  2  0  0  0
  2  3  2  0  0  0
  3 16  1  0  0  0
  3  4  1  0  0  0
 16 18  1  0  0  0
 16 17  1  0  0  0
 18 19  1  0  0  0
 18 26  2  0  0  0
 19 20  2  0  0  0
 20 21  1  0  0  0
 21 22  2  0  0  0
 22 23  1  0  0  0
 22 26  1  0  0  0
 23 24  1  0  0  0
 23 27  1  0  0  0
 24 25  2  0  0  0
 25 26  1  0  0  0
  4  5  2  0  0  0
  5  7  1  0  0  0
  5  6  1  0  0  0
  7  8  2  0  0  0
  7 15  1  0  0  0
  8  9  1  0  0  0
  9 10  1  0  0  0
  9 14  2  0  0  0
 10 11  2  0  0  0
 11 12  1  0  0  0
 12 13  2  0  0  0
 13 14  1  0  0  0
 14 15  1  0  0  0
M  END
> <minimizedAffinity>
-9.50756

$$$$
