CHEMBL4536372


 31 33  0  0  0  0  0  0  0  0999 V2000
  -19.4846    1.5934  -15.3589 C   0  0  0  0  0  0  0  0  0  0  0  0
  -19.0824    2.9258  -15.5138 C   0  0  0  0  0  0  0  0  0  0  0  0
  -17.7423    3.2848  -15.4991 C   0  0  0  0  0  0  0  0  0  0  0  0
  -16.7758    2.3176  -15.2832 C   0  0  0  0  0  0  0  0  0  0  0  0
  -17.1308    0.9862  -15.0554 C   0  0  0  0  0  0  0  0  0  0  0  0
  -18.4896    0.6187  -15.1402 C   0  0  0  0  0  0  0  0  0  0  0  0
  -21.1388    0.7113  -13.1466 O   0  0  0  0  0  0  0  0  0  0  0  0
  -21.5837    0.7650  -14.2857 C   0  0  0  0  0  0  0  0  0  0  0  0
  -22.8701    0.3543  -14.6083 N   0  0  0  0  0  0  0  0  0  0  0  0
  -20.8559    1.2026  -15.3870 N   0  0  0  0  0  0  0  0  0  0  0  0
  -23.0834    0.2299  -15.5854 H   0  0  0  0  0  0  0  0  0  0  0  0
  -21.3349    1.2818  -16.2697 H   0  0  0  0  0  0  0  0  0  0  0  0
  -23.7885   -0.1999  -13.6731 C   0  0  0  0  0  0  0  0  0  0  0  0
  -24.6577   -1.2571  -13.9828 C   0  0  0  0  0  0  0  0  0  0  0  0
  -25.6324   -1.6926  -13.0797 C   0  0  0  0  0  0  0  0  0  0  0  0
  -25.7249   -1.0849  -11.8315 C   0  0  0  0  0  0  0  0  0  0  0  0
  -24.8233   -0.0713  -11.4734 C   0  0  0  0  0  0  0  0  0  0  0  0
  -23.8545    0.3610  -12.3922 C   0  0  0  0  0  0  0  0  0  0  0  0
  -26.7799   -1.5025  -10.9023 N   0  0  0  0  0  0  0  0  0  0  0  0
  -27.9368   -1.5927  -11.3396 O   0  0  0  0  0  0  0  0  0  0  0  0
  -26.4525   -1.7364   -9.7303 O   0  0  0  0  0  0  0  0  0  0  0  0
  -16.1585    0.0160  -14.7110 N   0  0  0  0  0  0  0  0  0  0  0  0
  -15.6861   -0.2185  -13.4223 C   0  0  0  0  0  0  0  0  0  0  0  0
  -16.0142    0.3807  -12.4027 O   0  0  0  0  0  0  0  0  0  0  0  0
  -15.8583   -0.6573  -15.4098 H   0  0  0  0  0  0  0  0  0  0  0  0
  -14.7234   -1.3507  -13.2831 C   0  0  0  0  0  0  0  0  0  0  0  0
  -15.2193   -2.6538  -13.3198 C   0  0  0  0  0  0  0  0  0  0  0  0
  -14.3221   -3.7086  -13.2247 C   0  0  0  0  0  0  0  0  0  0  0  0
  -12.9681   -3.4281  -13.0923 C   0  0  0  0  0  0  0  0  0  0  0  0
  -12.5639   -2.0983  -13.0582 C   0  0  0  0  0  0  0  0  0  0  0  0
  -13.4048   -1.0416  -13.1542 N   0  0  0  0  0  0  0  0  0  0  0  0
  7  8  2  0  0  0
  8  9  1  0  0  0
  8 10  1  0  0  0
  9 13  1  0  0  0
  9 11  1  0  0  0
 13 14  1  0  0  0
 13 18  2  0  0  0
 14 15  2  0  0  0
 15 16  1  0  0  0
 16 19  1  0  0  0
 16 17  2  0  0  0
 19 20  2  0  0  0
 19 21  1  0  0  0
 17 18  1  0  0  0
 10  1  1  0  0  0
 10 12  1  0  0  0
  1  2  1  0  0  0
  1  6  2  0  0  0
  2  3  2  0  0  0
  3  4  1  0  0  0
  4  5  2  0  0  0
  5 22  1  0  0  0
  5  6  1  0  0  0
 22 23  1  0  0  0
 22 25  1  0  0  0
 23 24  2  0  0  0
 23 26  1  0  0  0
 26 27  1  0  0  0
 26 31  2  0  0  0
 27 28  2  0  0  0
 28 29  1  0  0  0
 29 30  2  0  0  0
 30 31  1  0  0  0
M  CHG 1  19   1
M  CHG 1  21  -1
M  END
> <minimizedAffinity>
-9.38971

$$$$
