CHEMBL178568


 36 39  0  0  0  0  0  0  0  0999 V2000
  -27.7495  -11.5294   -4.1243 C   0  0  0  0  0  0  0  0  0  0  0  0
  -28.3931  -11.5688   -5.3566 C   0  0  0  0  0  0  0  0  0  0  0  0
  -29.0854  -10.4409   -5.8163 C   0  0  0  0  0  0  0  0  0  0  0  0
  -29.2244   -9.2965   -5.0193 C   0  0  0  0  0  0  0  0  0  0  0  0
  -28.7236   -9.3362   -3.7182 C   0  0  0  0  0  0  0  0  0  0  0  0
  -27.9885  -10.4484   -3.2704 C   0  0  0  0  0  0  0  0  0  0  0  0
  -29.7949   -8.0842   -5.4869 N   0  0  0  0  0  0  0  0  0  0  0  0
  -29.2696   -6.8175   -5.2920 C   0  0  0  0  0  0  0  0  0  0  0  0
  -28.1717   -6.5793   -4.8083 O   0  0  0  0  0  0  0  0  0  0  0  0
  -30.1622   -5.8093   -5.6564 N   0  0  0  0  0  0  0  0  0  0  0  0
  -30.6519   -8.1553   -6.0156 H   0  0  0  0  0  0  0  0  0  0  0  0
  -31.1338   -6.0186   -5.4738 H   0  0  0  0  0  0  0  0  0  0  0  0
  -29.7693   -4.4541   -5.5084 C   0  0  0  0  0  0  0  0  0  0  0  0
  -30.0353   -3.7535   -4.3226 C   0  0  0  0  0  0  0  0  0  0  0  0
  -29.7719   -2.3862   -4.2235 C   0  0  0  0  0  0  0  0  0  0  0  0
  -29.2343   -1.7143   -5.3242 C   0  0  0  0  0  0  0  0  0  0  0  0
  -28.9221   -2.4124   -6.5010 C   0  0  0  0  0  0  0  0  0  0  0  0
  -29.1677   -3.7904   -6.5812 C   0  0  0  0  0  0  0  0  0  0  0  0
  -29.0143   -0.2646   -5.2513 N   0  0  0  0  0  0  0  0  0  0  0  0
  -27.8664    0.1352   -5.0107 O   0  0  0  0  0  0  0  0  0  0  0  0
  -29.9911    0.4760   -5.4361 O   0  0  0  0  0  0  0  0  0  0  0  0
  -26.8392  -12.4660   -3.6922 O   0  0  0  0  0  0  0  0  0  0  0  0
  -22.3022  -11.3378   -6.0230 C   0  0  0  0  0  0  0  0  0  0  0  0
  -22.1673  -11.2772   -4.6250 C   0  0  0  0  0  0  0  0  0  0  0  0
  -23.2317  -11.4948   -3.7619 C   0  0  0  0  0  0  0  0  0  0  0  0
  -22.9732  -11.5383   -2.4415 N   0  0  0  0  0  0  0  0  0  0  0  0
  -23.9808  -11.8459   -1.6003 C   0  0  0  0  0  0  0  0  0  0  0  0
  -25.2585  -12.1512   -2.0208 C   0  0  0  0  0  0  0  0  0  0  0  0
  -25.5336  -12.1038   -3.3888 C   0  0  0  0  0  0  0  0  0  0  0  0
  -24.5166  -11.6992   -4.2921 C   0  0  0  0  0  0  0  0  0  0  0  0
  -24.6710  -11.5109   -5.6878 C   0  0  0  0  0  0  0  0  0  0  0  0
  -23.5839  -11.4185   -6.5634 C   0  0  0  0  0  0  0  0  0  0  0  0
  -20.8426   -9.9980   -7.3301 C   0  0  0  0  0  0  0  0  0  0  0  0
  -21.2150  -11.2937   -6.8538 O   0  0  0  0  0  0  0  0  0  0  0  0
  -23.9971  -11.4632   -7.8639 O   0  0  0  0  0  0  0  0  0  0  0  0
  -25.3769  -11.5483   -8.1684 C   0  0  0  0  0  0  0  0  0  0  0  0
 33 34  1  0  0  0
 34 23  1  0  0  0
 23 24  1  0  0  0
 23 32  2  0  0  0
 24 25  2  0  0  0
 25 26  1  0  0  0
 25 30  1  0  0  0
 26 27  2  0  0  0
 27 28  1  0  0  0
 28 29  2  0  0  0
 29 22  1  0  0  0
 29 30  1  0  0  0
 22  1  1  0  0  0
  1  2  1  0  0  0
  1  6  2  0  0  0
  2  3  2  0  0  0
  3  4  1  0  0  0
  4  7  1  0  0  0
  4  5  2  0  0  0
  7  8  1  0  0  0
  7 11  1  0  0  0
  8  9  2  0  0  0
  8 10  1  0  0  0
 10 13  1  0  0  0
 10 12  1  0  0  0
 13 14  1  0  0  0
 13 18  2  0  0  0
 14 15  2  0  0  0
 15 16  1  0  0  0
 16 19  1  0  0  0
 16 17  2  0  0  0
 19 20  2  0  0  0
 19 21  1  0  0  0
 17 18  1  0  0  0
  5  6  1  0  0  0
 30 31  2  0  0  0
 31 32  1  0  0  0
 32 35  1  0  0  0
 35 36  1  0  0  0
M  CHG 1  19   1
M  CHG 1  21  -1
M  END
> <minimizedAffinity>
-7.99124

$$$$
