CHEMBL3910102


 38 42  0  0  0  0  0  0  0  0999 V2000
  -14.2902   -0.9220  -14.2314 C   0  0  0  0  0  0  0  0  0  0  0  0
  -13.7050   -2.0306  -13.5900 C   0  0  0  0  0  0  0  0  0  0  0  0
  -14.1921   -2.5175  -12.3488 C   0  0  0  0  0  0  0  0  0  0  0  0
  -13.7048   -3.6124  -11.6162 C   0  0  0  0  0  0  0  0  0  0  0  0
  -14.2944   -4.0382  -10.4779 N   0  0  0  0  0  0  0  0  0  0  0  0
  -15.3562   -3.3657  -10.0438 C   0  0  0  0  0  0  0  0  0  0  0  0
  -15.8724   -2.2939  -10.6309 N   0  0  0  0  0  0  0  0  0  0  0  0
  -15.2909   -1.9014  -11.7640 C   0  0  0  0  0  0  0  0  0  0  0  0
  -15.8354   -0.8121  -12.3930 C   0  0  0  0  0  0  0  0  0  0  0  0
  -15.3866   -0.3004  -13.6266 C   0  0  0  0  0  0  0  0  0  0  0  0
  -12.6298    0.2031  -15.5163 C   0  0  0  0  0  0  0  0  0  0  0  0
  -13.7541   -0.6649  -15.4598 O   0  0  0  0  0  0  0  0  0  0  0  0
  -12.5518   -4.2921  -12.0789 N   0  0  0  0  0  0  0  0  0  0  0  0
  -11.7255   -3.8262  -11.7148 H   0  0  0  0  0  0  0  0  0  0  0  0
  -12.4431   -5.6978  -12.0835 C   0  0  0  0  0  0  0  0  0  0  0  0
  -11.5919   -6.3394  -11.1719 C   0  0  0  0  0  0  0  0  0  0  0  0
  -11.4074   -7.7195  -11.2165 C   0  0  0  0  0  0  0  0  0  0  0  0
  -12.0796   -8.4787  -12.1709 C   0  0  0  0  0  0  0  0  0  0  0  0
  -11.7731  -10.1771  -12.2028 Cl  0  0  0  0  0  0  0  0  0  0  0  0
  -12.9553   -7.8531  -13.0678 C   0  0  0  0  0  0  0  0  0  0  0  0
  -13.8205   -8.7320  -14.2779 Cl  0  0  0  0  0  0  0  0  0  0  0  0
  -13.1405   -6.4667  -13.0172 C   0  0  0  0  0  0  0  0  0  0  0  0
  -16.0438    0.7488  -14.2491 O   0  0  0  0  0  0  0  0  0  0  0  0
  -17.2400    0.3171  -14.9166 C   0  0  0  0  0  0  0  0  0  0  0  0
  -18.5023    1.0839  -14.5923 C   0  0  0  0  0  0  0  0  0  0  0  0
  -19.7370    0.5558  -15.3383 C   0  0  0  0  0  0  0  0  0  0  0  0
  -20.9495    1.3479  -15.0034 N   0  0  0  0  0  0  0  0  0  0  0  0
  -20.6564    2.7621  -15.3433 C   0  0  0  0  0  0  0  0  0  0  0  0
  -19.3596    3.3082  -14.7241 C   0  0  0  0  0  0  0  0  0  0  0  0
  -18.2416    2.4534  -14.9740 O   0  0  0  0  0  0  0  0  0  0  0  0
  -21.2878    1.1522  -13.5792 C   0  0  0  0  0  0  0  0  0  0  0  0
  -22.4359    0.2067  -13.3344 C   0  0  0  0  0  0  0  0  0  0  0  0
  -23.3613   -0.0689  -14.3485 C   0  0  0  0  0  0  0  0  0  0  0  0
  -24.4297   -0.9303  -14.0987 C   0  0  0  0  0  0  0  0  0  0  0  0
  -24.5644   -1.5156  -12.8432 C   0  0  0  0  0  0  0  0  0  0  0  0
  -25.5998   -2.3298  -12.6042 F   0  0  0  0  0  0  0  0  0  0  0  0
  -23.6461   -1.2662  -11.8325 C   0  0  0  0  0  0  0  0  0  0  0  0
  -22.5789   -0.4065  -12.0773 C   0  0  0  0  0  0  0  0  0  0  0  0
 11 12  1  0  0  0
 12  1  1  0  0  0
  1  2  1  0  0  0
  1 10  2  0  0  0
  2  3  2  0  0  0
  3  4  1  0  0  0
  3  8  1  0  0  0
  4 13  1  0  0  0
  4  5  2  0  0  0
 13 15  1  0  0  0
 13 14  1  0  0  0
 15 16  1  0  0  0
 15 22  2  0  0  0
 16 17  2  0  0  0
 17 18  1  0  0  0
 18 19  1  0  0  0
 18 20  2  0  0  0
 20 21  1  0  0  0
 20 22  1  0  0  0
  5  6  1  0  0  0
  6  7  2  0  0  0
  7  8  1  0  0  0
  8  9  2  0  0  0
  9 10  1  0  0  0
 10 23  1  0  0  0
 23 24  1  0  0  0
 24 25  1  0  0  0
 25 26  1  0  0  0
 25 30  1  0  0  0
 26 27  1  0  0  0
 27 31  1  0  0  0
 27 28  1  0  0  0
 31 32  1  0  0  0
 32 33  1  0  0  0
 32 38  2  0  0  0
 33 34  2  0  0  0
 34 35  1  0  0  0
 35 36  1  0  0  0
 35 37  2  0  0  0
 37 38  1  0  0  0
 28 29  1  0  0  0
 29 30  1  0  0  0
M  END
> <minimizedAffinity>
-9.36858

$$$$
