CHEMBL4238771


 22 24  0  0  0  0  0  0  0  0999 V2000
  -27.1314   -1.9442   -9.9033 C   0  0  0  0  0  0  0  0  0  0  0  0
  -27.9646   -1.4510  -10.8305 N   0  0  0  0  0  0  0  0  0  0  0  0
  -27.1051   -1.0401  -11.7729 N   0  0  0  0  0  0  0  0  0  0  0  0
  -25.8008   -1.1889  -11.3821 C   0  0  0  0  0  0  0  0  0  0  0  0
  -25.7955   -1.7960  -10.2092 N   0  0  0  0  0  0  0  0  0  0  0  0
  -27.4655   -0.6689  -12.6432 H   0  0  0  0  0  0  0  0  0  0  0  0
  -24.6536   -0.7471  -12.1740 C   0  0  0  0  0  0  0  0  0  0  0  0
  -23.8699   -1.6604  -12.8984 C   0  0  0  0  0  0  0  0  0  0  0  0
  -22.7742   -1.2248  -13.6508 C   0  0  0  0  0  0  0  0  0  0  0  0
  -22.4534    0.1301  -13.6842 C   0  0  0  0  0  0  0  0  0  0  0  0
  -21.1021    0.6614  -14.6077 Cl  0  0  0  0  0  0  0  0  0  0  0  0
  -23.2220    1.0514  -12.9810 C   0  0  0  0  0  0  0  0  0  0  0  0
  -24.3228    0.6147  -12.2331 C   0  0  0  0  0  0  0  0  0  0  0  0
  -27.6045   -2.5326   -8.6119 C   0  0  0  0  0  0  0  0  0  0  0  0
  -27.8220   -1.2450   -7.3291 S   0  0  0  0  0  0  0  0  0  0  0  0
  -31.4715   -4.3132   -3.1879 Cl  0  0  0  0  0  0  0  0  0  0  0  0
  -30.4806   -3.4408   -4.2905 C   0  0  0  0  0  0  0  0  0  0  0  0
  -29.7401   -2.3479   -3.8468 C   0  0  0  0  0  0  0  0  0  0  0  0
  -28.9235   -1.6406   -4.7415 C   0  0  0  0  0  0  0  0  0  0  0  0
  -28.8412   -2.0243   -6.0838 C   0  0  0  0  0  0  0  0  0  0  0  0
  -29.6036   -3.1231   -6.5123 C   0  0  0  0  0  0  0  0  0  0  0  0
  -30.4187   -3.8306   -5.6232 C   0  0  0  0  0  0  0  0  0  0  0  0
 16 17  1  0  0  0
 17 18  1  0  0  0
 17 22  2  0  0  0
 18 19  2  0  0  0
 19 20  1  0  0  0
 20 15  1  0  0  0
 20 21  2  0  0  0
 15 14  1  0  0  0
 14  1  1  0  0  0
  1  2  2  0  0  0
  1  5  1  0  0  0
  2  3  1  0  0  0
  3  4  1  0  0  0
  3  6  1  0  0  0
  4  7  1  0  0  0
  4  5  2  0  0  0
  7  8  1  0  0  0
  7 13  2  0  0  0
  8  9  2  0  0  0
  9 10  1  0  0  0
 10 11  1  0  0  0
 10 12  2  0  0  0
 12 13  1  0  0  0
 21 22  1  0  0  0
M  END
> <minimizedAffinity>
-8.65483

$$$$
