CHEMBL150657


 25 27  0  0  0  0  0  0  0  0999 V2000
  -17.7877    2.1460  -15.4217 C   0  0  0  0  0  0  0  0  0  0  0  0
  -18.1346    0.8046  -15.5251 C   0  0  0  0  0  0  0  0  0  0  0  0
  -19.4286    0.3951  -15.2104 C   0  0  0  0  0  0  0  0  0  0  0  0
  -20.3985    1.3323  -14.7970 C   0  0  0  0  0  0  0  0  0  0  0  0
  -21.6973    1.0048  -14.3804 C   0  0  0  0  0  0  0  0  0  0  0  0
  -22.5876    1.9474  -14.0219 N   0  0  0  0  0  0  0  0  0  0  0  0
  -22.1770    3.2158  -14.0588 C   0  0  0  0  0  0  0  0  0  0  0  0
  -20.9506    3.6348  -14.3859 N   0  0  0  0  0  0  0  0  0  0  0  0
  -20.0669    2.6944  -14.7404 C   0  0  0  0  0  0  0  0  0  0  0  0
  -18.7625    3.0744  -15.0417 C   0  0  0  0  0  0  0  0  0  0  0  0
  -22.0755   -0.3576  -14.2723 N   0  0  0  0  0  0  0  0  0  0  0  0
  -22.0396   -0.8181  -15.1793 H   0  0  0  0  0  0  0  0  0  0  0  0
  -23.1436   -0.8264  -13.4745 C   0  0  0  0  0  0  0  0  0  0  0  0
  -22.9536   -1.1292  -12.1190 C   0  0  0  0  0  0  0  0  0  0  0  0
  -24.0245   -1.5269  -11.3175 C   0  0  0  0  0  0  0  0  0  0  0  0
  -25.2953   -1.6448  -11.8768 C   0  0  0  0  0  0  0  0  0  0  0  0
  -26.6242   -2.0799  -10.8754 Cl  0  0  0  0  0  0  0  0  0  0  0  0
  -25.4982   -1.4040  -13.2332 C   0  0  0  0  0  0  0  0  0  0  0  0
  -24.4201   -1.0092  -14.0197 C   0  0  0  0  0  0  0  0  0  0  0  0
  -24.6192   -0.7685  -15.3255 F   0  0  0  0  0  0  0  0  0  0  0  0
  -16.5364    2.6614  -15.6552 O   0  0  0  0  0  0  0  0  0  0  0  0
  -16.4985    4.0585  -15.9478 C   0  0  0  0  0  0  0  0  0  0  0  0
  -15.1406    4.4617  -16.5002 C   0  0  0  0  0  0  0  0  0  0  0  0
  -13.2816    3.8842  -15.1595 C   0  0  0  0  0  0  0  0  0  0  0  0
  -14.3152    4.8274  -15.3916 O   0  0  0  0  0  0  0  0  0  0  0  0
 24 25  1  0  0  0
 25 23  1  0  0  0
 23 22  1  0  0  0
 22 21  1  0  0  0
 21  1  1  0  0  0
  1  2  1  0  0  0
  1 10  2  0  0  0
  2  3  2  0  0  0
  3  4  1  0  0  0
  4  5  1  0  0  0
  4  9  2  0  0  0
  5 11  1  0  0  0
  5  6  2  0  0  0
 11 13  1  0  0  0
 11 12  1  0  0  0
 13 14  1  0  0  0
 13 19  2  0  0  0
 14 15  2  0  0  0
 15 16  1  0  0  0
 16 17  1  0  0  0
 16 18  2  0  0  0
 18 19  1  0  0  0
 19 20  1  0  0  0
  6  7  1  0  0  0
  7  8  2  0  0  0
  8  9  1  0  0  0
  9 10  1  0  0  0
M  END
> <minimizedAffinity>
-8.91073

$$$$
