CHEMBL4516406


 32 35  0  0  0  0  0  0  0  0999 V2000
  -27.0922   -2.0609   -9.7713 C   0  0  0  0  0  0  0  0  0  0  0  0
  -26.4434   -1.2079   -9.1725 O   0  0  0  0  0  0  0  0  0  0  0  0
  -26.8771   -2.4191  -11.0971 N   0  0  0  0  0  0  0  0  0  0  0  0
  -27.6755   -2.8333  -11.5638 H   0  0  0  0  0  0  0  0  0  0  0  0
  -25.9240   -1.8074  -11.9516 C   0  0  0  0  0  0  0  0  0  0  0  0
  -26.1969   -1.9086  -13.3257 C   0  0  0  0  0  0  0  0  0  0  0  0
  -25.3592   -1.3461  -14.2853 C   0  0  0  0  0  0  0  0  0  0  0  0
  -24.2176   -0.7323  -13.7958 C   0  0  0  0  0  0  0  0  0  0  0  0
  -23.2725   -0.1289  -14.5517 O   0  0  0  0  0  0  0  0  0  0  0  0
  -22.3584    0.3549  -13.6490 C   0  0  0  0  0  0  0  0  0  0  0  0
  -22.6422    0.0513  -12.3895 N   0  0  0  0  0  0  0  0  0  0  0  0
  -23.8604   -0.6184  -12.4679 C   0  0  0  0  0  0  0  0  0  0  0  0
  -24.7494   -1.1557  -11.4988 C   0  0  0  0  0  0  0  0  0  0  0  0
  -21.2982    1.1577  -14.2767 C   0  0  0  0  0  0  0  0  0  0  0  0
  -21.4258    2.5634  -14.3148 C   0  0  0  0  0  0  0  0  0  0  0  0
  -20.4337    3.3825  -14.8581 C   0  0  0  0  0  0  0  0  0  0  0  0
  -19.2883    2.8065  -15.3921 C   0  0  0  0  0  0  0  0  0  0  0  0
  -19.1423    1.4190  -15.3827 C   0  0  0  0  0  0  0  0  0  0  0  0
  -20.1418    0.5936  -14.8248 C   0  0  0  0  0  0  0  0  0  0  0  0
  -28.2865   -2.7860   -9.1231 C   0  0  0  0  0  0  0  0  0  0  0  0
  -28.0568   -1.8638   -5.3760 C   0  0  0  0  0  0  0  0  0  0  0  0
  -27.9928   -1.7861   -6.7798 C   0  0  0  0  0  0  0  0  0  0  0  0
  -28.3128   -2.8682   -7.6025 C   0  0  0  0  0  0  0  0  0  0  0  0
  -28.7042   -4.0728   -6.9781 C   0  0  0  0  0  0  0  0  0  0  0  0
  -28.7511   -4.1808   -5.5747 C   0  0  0  0  0  0  0  0  0  0  0  0
  -28.4527   -3.0666   -4.7656 C   0  0  0  0  0  0  0  0  0  0  0  0
  -28.0870    0.4802   -4.9666 C   0  0  0  0  0  0  0  0  0  0  0  0
  -27.6767   -0.8218   -4.5685 O   0  0  0  0  0  0  0  0  0  0  0  0
  -29.1463   -5.3285   -4.9267 O   0  0  0  0  0  0  0  0  0  0  0  0
  -30.4751   -5.7684   -5.1806 C   0  0  0  0  0  0  0  0  0  0  0  0
  -28.5130   -3.2954   -3.4069 O   0  0  0  0  0  0  0  0  0  0  0  0
  -29.6663   -2.8233   -2.7220 C   0  0  0  0  0  0  0  0  0  0  0  0
 27 28  1  0  0  0
 28 21  1  0  0  0
 21 22  1  0  0  0
 21 26  2  0  0  0
 22 23  2  0  0  0
 23 20  1  0  0  0
 23 24  1  0  0  0
 20  1  1  0  0  0
  1  2  2  0  0  0
  1  3  1  0  0  0
  3  5  1  0  0  0
  3  4  1  0  0  0
  5  6  1  0  0  0
  5 13  2  0  0  0
  6  7  2  0  0  0
  7  8  1  0  0  0
  8  9  1  0  0  0
  8 12  2  0  0  0
  9 10  1  0  0  0
 10 14  1  0  0  0
 10 11  2  0  0  0
 14 15  1  0  0  0
 14 19  2  0  0  0
 15 16  2  0  0  0
 16 17  1  0  0  0
 17 18  2  0  0  0
 18 19  1  0  0  0
 11 12  1  0  0  0
 12 13  1  0  0  0
 24 25  2  0  0  0
 25 29  1  0  0  0
 25 26  1  0  0  0
 29 30  1  0  0  0
 26 31  1  0  0  0
 31 32  1  0  0  0
M  END
> <minimizedAffinity>
-10.93344

$$$$
