CHEMBL272250


 35 39  0  0  0  0  0  0  0  0999 V2000
  -30.2968   -8.8184   -7.5203 O   0  0  0  0  0  0  0  0  0  0  0  0
  -25.5043  -10.2082   -6.1632 C   0  0  0  0  0  0  0  0  0  0  0  0
  -25.7320  -10.4653   -7.5159 C   0  0  0  0  0  0  0  0  0  0  0  0
  -26.9028  -10.1114   -8.1557 C   0  0  0  0  0  0  0  0  0  0  0  0
  -26.9134  -10.2884   -9.4796 N   0  0  0  0  0  0  0  0  0  0  0  0
  -27.9712   -9.8426  -10.1693 C   0  0  0  0  0  0  0  0  0  0  0  0
  -29.0719   -9.2745   -9.5739 C   0  0  0  0  0  0  0  0  0  0  0  0
  -29.1359   -9.2262   -8.1777 C   0  0  0  0  0  0  0  0  0  0  0  0
  -27.9783   -9.5688   -7.4201 C   0  0  0  0  0  0  0  0  0  0  0  0
  -27.7866   -9.3746   -6.0262 C   0  0  0  0  0  0  0  0  0  0  0  0
  -26.5420   -9.6448   -5.4010 C   0  0  0  0  0  0  0  0  0  0  0  0
  -26.3874   -9.2049   -3.9765 C   0  0  0  0  0  0  0  0  0  0  0  0
  -25.3585   -8.3627   -3.6596 N   0  0  0  0  0  0  0  0  0  0  0  0
  -27.1826   -9.5485   -3.1095 O   0  0  0  0  0  0  0  0  0  0  0  0
  -24.6897   -8.0538   -4.3550 H   0  0  0  0  0  0  0  0  0  0  0  0
  -25.2970   -8.0057   -2.7174 H   0  0  0  0  0  0  0  0  0  0  0  0
  -23.1459   -9.8796   -6.1045 C   0  0  0  0  0  0  0  0  0  0  0  0
  -24.3049  -10.5215   -5.5656 O   0  0  0  0  0  0  0  0  0  0  0  0
  -30.3294   -7.5194   -7.0299 C   0  0  0  0  0  0  0  0  0  0  0  0
  -29.6068   -6.4816   -7.6147 C   0  0  0  0  0  0  0  0  0  0  0  0
  -29.4597   -5.2635   -6.9408 C   0  0  0  0  0  0  0  0  0  0  0  0
  -30.0994   -4.9991   -5.7058 C   0  0  0  0  0  0  0  0  0  0  0  0
  -29.9201   -3.8074   -4.9238 C   0  0  0  0  0  0  0  0  0  0  0  0
  -30.6585   -3.6189   -3.7471 C   0  0  0  0  0  0  0  0  0  0  0  0
  -31.5660   -4.5850   -3.3238 C   0  0  0  0  0  0  0  0  0  0  0  0
  -31.7091   -5.7711   -4.0439 C   0  0  0  0  0  0  0  0  0  0  0  0
  -30.9723   -6.0105   -5.2171 C   0  0  0  0  0  0  0  0  0  0  0  0
  -31.0695   -7.2567   -5.8769 C   0  0  0  0  0  0  0  0  0  0  0  0
  -28.8447   -2.8123   -5.2506 C   0  0  0  0  0  0  0  0  0  0  0  0
  -27.6636   -3.1023   -5.0694 O   0  0  0  0  0  0  0  0  0  0  0  0
  -29.2337   -1.5609   -5.7176 N   0  0  0  0  0  0  0  0  0  0  0  0
  -30.2014   -1.3551   -5.9116 H   0  0  0  0  0  0  0  0  0  0  0  0
  -28.2469   -0.5462   -5.9723 C   0  0  0  0  0  0  0  0  0  0  0  0
  -28.1364    0.6186   -5.0246 C   0  0  0  0  0  0  0  0  0  0  0  0
  -28.5726    0.8443   -6.4412 C   0  0  0  0  0  0  0  0  0  0  0  0
 17 18  1  0  0  0
 18  2  1  0  0  0
  2  3  1  0  0  0
  2 11  2  0  0  0
  3  4  2  0  0  0
  4  5  1  0  0  0
  4  9  1  0  0  0
  5  6  2  0  0  0
  6  7  1  0  0  0
  7  8  2  0  0  0
  8  1  1  0  0  0
  8  9  1  0  0  0
  1 19  1  0  0  0
 19 20  1  0  0  0
 19 28  2  0  0  0
 20 21  2  0  0  0
 21 22  1  0  0  0
 22 23  1  0  0  0
 22 27  2  0  0  0
 23 29  1  0  0  0
 23 24  2  0  0  0
 29 30  2  0  0  0
 29 31  1  0  0  0
 31 33  1  0  0  0
 31 32  1  0  0  0
 33 34  1  0  0  0
 33 35  1  0  0  0
 34 35  1  0  0  0
 24 25  1  0  0  0
 25 26  2  0  0  0
 26 27  1  0  0  0
 27 28  1  0  0  0
  9 10  2  0  0  0
 10 11  1  0  0  0
 11 12  1  0  0  0
 12 13  1  0  0  0
 12 14  2  0  0  0
 13 15  1  0  0  0
 13 16  1  0  0  0
M  END
> <minimizedAffinity>
-9.30597

$$$$
