CHEMBL177298


 32 35  0  0  0  0  0  0  0  0999 V2000
  -29.7125   -4.4262   -6.1059 C   0  0  0  0  0  0  0  0  0  0  0  0
  -29.0378   -3.7443   -7.0134 N   0  0  0  0  0  0  0  0  0  0  0  0
  -28.4245   -4.4601   -7.9478 C   0  0  0  0  0  0  0  0  0  0  0  0
  -28.4461   -5.7823   -8.0172 N   0  0  0  0  0  0  0  0  0  0  0  0
  -29.1339   -6.3822   -7.0557 C   0  0  0  0  0  0  0  0  0  0  0  0
  -29.8199   -5.7372   -6.1192 N   0  0  0  0  0  0  0  0  0  0  0  0
  -27.6894   -3.7462   -8.9019 N   0  0  0  0  0  0  0  0  0  0  0  0
  -28.2967   -2.6619   -9.5509 O   0  0  0  0  0  0  0  0  0  0  0  0
  -27.2030   -4.3916   -9.5155 H   0  0  0  0  0  0  0  0  0  0  0  0
  -28.8999   -2.3067   -8.8635 H   0  0  0  0  0  0  0  0  0  0  0  0
  -30.2907   -3.7693   -5.0476 N   0  0  0  0  0  0  0  0  0  0  0  0
  -31.1924   -3.3914   -5.3091 H   0  0  0  0  0  0  0  0  0  0  0  0
  -30.4316   -2.7264   -2.7826 C   0  0  0  0  0  0  0  0  0  0  0  0
  -29.5540   -3.0396   -4.0148 C   0  0  0  0  0  0  0  0  0  0  0  0
  -28.3318   -3.8810   -3.6036 C   0  0  0  0  0  0  0  0  0  0  0  0
  -29.1625   -1.6623   -4.6018 C   0  0  0  0  0  0  0  0  0  0  0  0
  -27.8490   -1.1648   -4.5192 C   0  0  0  0  0  0  0  0  0  0  0  0
  -27.5339    0.1250   -4.9598 C   0  0  0  0  0  0  0  0  0  0  0  0
  -28.5235    0.9466   -5.4906 C   0  0  0  0  0  0  0  0  0  0  0  0
  -29.8307    0.4812   -5.5817 C   0  0  0  0  0  0  0  0  0  0  0  0
  -30.1476   -0.8046   -5.1365 C   0  0  0  0  0  0  0  0  0  0  0  0
  -29.1297   -7.7793   -7.0584 N   0  0  0  0  0  0  0  0  0  0  0  0
  -28.2882   -8.1439   -6.6370 H   0  0  0  0  0  0  0  0  0  0  0  0
  -30.2305   -8.6555   -7.0760 C   0  0  0  0  0  0  0  0  0  0  0  0
  -31.4841   -8.1557   -7.4398 C   0  0  0  0  0  0  0  0  0  0  0  0
  -32.6337   -8.9575   -7.3825 C   0  0  0  0  0  0  0  0  0  0  0  0
  -32.5342  -10.2992   -6.9657 C   0  0  0  0  0  0  0  0  0  0  0  0
  -33.5833  -11.1956   -6.8368 N   0  0  0  0  0  0  0  0  0  0  0  0
  -33.1220  -12.3496   -6.4128 C   0  0  0  0  0  0  0  0  0  0  0  0
  -31.4304  -12.4550   -6.1730 S   0  0  0  0  0  0  0  0  0  0  0  0
  -31.2756  -10.8008   -6.6333 C   0  0  0  0  0  0  0  0  0  0  0  0
  -30.1209  -10.0003   -6.6840 C   0  0  0  0  0  0  0  0  0  0  0  0
 13 14  1  0  0  0
 14 15  1  0  0  0
 14 11  1  0  0  0
 14 16  1  0  0  0
 11  1  1  0  0  0
 11 12  1  0  0  0
  1  2  1  0  0  0
  1  6  2  0  0  0
  2  3  2  0  0  0
  3  7  1  0  0  0
  3  4  1  0  0  0
  7  8  1  0  0  0
  7  9  1  0  0  0
  8 10  1  0  0  0
  4  5  2  0  0  0
  5 22  1  0  0  0
  5  6  1  0  0  0
 22 24  1  0  0  0
 22 23  1  0  0  0
 24 25  1  0  0  0
 24 32  2  0  0  0
 25 26  2  0  0  0
 26 27  1  0  0  0
 27 28  1  0  0  0
 27 31  2  0  0  0
 28 29  2  0  0  0
 29 30  1  0  0  0
 30 31  1  0  0  0
 31 32  1  0  0  0
 16 17  1  0  0  0
 16 21  2  0  0  0
 17 18  2  0  0  0
 18 19  1  0  0  0
 19 20  2  0  0  0
 20 21  1  0  0  0
M  END
> <minimizedAffinity>
-9.22273

$$$$
