CHEMBL3907063


 38 42  0  0  0  0  0  0  0  0999 V2000
  -28.2252   -2.9411   -8.3353 N   0  0  0  0  0  0  0  0  0  0  0  0
  -27.6784   -2.1823   -9.4547 C   0  0  0  0  0  0  0  0  0  0  0  0
  -28.5508   -2.0232  -10.5314 C   0  0  0  0  0  0  0  0  0  0  0  0
  -28.0441   -1.8639  -11.7999 C   0  0  0  0  0  0  0  0  0  0  0  0
  -26.7087   -1.6494  -12.0337 C   0  0  0  0  0  0  0  0  0  0  0  0
  -26.3714   -1.6893  -13.3247 N   0  0  0  0  0  0  0  0  0  0  0  0
  -25.1400   -1.2731  -13.6356 C   0  0  0  0  0  0  0  0  0  0  0  0
  -24.2862   -0.7521  -12.6903 C   0  0  0  0  0  0  0  0  0  0  0  0
  -24.5767   -0.8405  -11.3398 N   0  0  0  0  0  0  0  0  0  0  0  0
  -25.8159   -1.3786  -10.9722 C   0  0  0  0  0  0  0  0  0  0  0  0
  -26.3305   -1.7381   -9.6550 C   0  0  0  0  0  0  0  0  0  0  0  0
  -23.1895    0.0586  -13.2214 C   0  0  0  0  0  0  0  0  0  0  0  0
  -23.0965    1.4710  -13.3571 C   0  0  0  0  0  0  0  0  0  0  0  0
  -22.0664    1.8587  -14.1212 N   0  0  0  0  0  0  0  0  0  0  0  0
  -21.4969    0.6981  -14.4861 N   0  0  0  0  0  0  0  0  0  0  0  0
  -20.1778    0.6813  -15.0749 C   0  0  0  0  0  0  0  0  0  0  0  0
  -22.2365   -0.3953  -14.1223 C   0  0  0  0  0  0  0  0  0  0  0  0
  -29.7594   -2.5980   -4.9140 C   0  0  0  0  0  0  0  0  0  0  0  0
  -29.4406   -1.2718   -4.6073 C   0  0  0  0  0  0  0  0  0  0  0  0
  -28.7295   -0.5033   -5.5257 C   0  0  0  0  0  0  0  0  0  0  0  0
  -28.3138   -1.0826   -6.7407 C   0  0  0  0  0  0  0  0  0  0  0  0
  -28.6019   -2.4220   -7.0731 C   0  0  0  0  0  0  0  0  0  0  0  0
  -29.3466   -3.1567   -6.1396 C   0  0  0  0  0  0  0  0  0  0  0  0
  -31.6564   -5.5720   -3.5068 C   0  0  0  0  0  0  0  0  0  0  0  0
  -30.8833   -4.7199   -4.3753 N   0  0  0  0  0  0  0  0  0  0  0  0
  -30.4569   -3.4823   -3.9331 C   0  0  0  0  0  0  0  0  0  0  0  0
  -30.6385   -3.0918   -2.7858 O   0  0  0  0  0  0  0  0  0  0  0  0
  -30.5557   -5.0951   -5.2522 H   0  0  0  0  0  0  0  0  0  0  0  0
  -28.3866    0.8125   -5.3454 O   0  0  0  0  0  0  0  0  0  0  0  0
  -28.7782    1.7350   -6.3613 C   0  0  0  0  0  0  0  0  0  0  0  0
  -27.6141   -4.3115   -8.3914 C   0  0  0  0  0  0  0  0  0  0  0  0
  -28.5026   -5.5469   -8.1409 C   0  0  0  0  0  0  0  0  0  0  0  0
  -28.3993   -6.2503   -6.7704 C   0  0  0  0  0  0  0  0  0  0  0  0
  -29.7062   -6.7854   -6.2966 N   0  0  0  0  0  0  0  0  0  0  0  0
  -29.5899   -8.1138   -5.6643 C   0  0  0  0  0  0  0  0  0  0  0  0
  -29.7349   -9.0942   -6.8126 C   0  0  0  0  0  0  0  0  0  0  0  0
  -30.8212   -8.4550   -7.6533 C   0  0  0  0  0  0  0  0  0  0  0  0
  -30.7216   -6.9641   -7.3482 C   0  0  0  0  0  0  0  0  0  0  0  0
 24 25  1  0  0  0
 25 26  1  0  0  0
 25 28  1  0  0  0
 26 27  2  0  0  0
 26 18  1  0  0  0
 18 19  1  0  0  0
 18 23  2  0  0  0
 19 20  2  0  0  0
 20 29  1  0  0  0
 20 21  1  0  0  0
 29 30  1  0  0  0
 21 22  2  0  0  0
 22  1  1  0  0  0
 22 23  1  0  0  0
  1 31  1  0  0  0
  1  2  1  0  0  0
 31 32  1  0  0  0
 32 33  1  0  0  0
 33 34  1  0  0  0
 34 35  1  0  0  0
 34 38  1  0  0  0
 35 36  1  0  0  0
 36 37  1  0  0  0
 37 38  1  0  0  0
  2  3  1  0  0  0
  2 11  2  0  0  0
  3  4  2  0  0  0
  4  5  1  0  0  0
  5  6  1  0  0  0
  5 10  2  0  0  0
  6  7  2  0  0  0
  7  8  1  0  0  0
  8 12  1  0  0  0
  8  9  2  0  0  0
 12 13  1  0  0  0
 12 17  2  0  0  0
 13 14  2  0  0  0
 14 15  1  0  0  0
 15 16  1  0  0  0
 15 17  1  0  0  0
  9 10  1  0  0  0
 10 11  1  0  0  0
M  END
> <minimizedAffinity>
-8.37191

$$$$
