CHEMBL4075886


 34 37  0  0  0  0  0  0  0  0999 V2000
  -29.5302   -3.5771   -5.9864 C   0  0  0  0  0  0  0  0  0  0  0  0
  -28.8388   -4.3777   -6.8990 C   0  0  0  0  0  0  0  0  0  0  0  0
  -28.9174   -5.7677   -6.8229 C   0  0  0  0  0  0  0  0  0  0  0  0
  -29.6420   -6.3745   -5.7927 C   0  0  0  0  0  0  0  0  0  0  0  0
  -30.3539   -5.5807   -4.8514 C   0  0  0  0  0  0  0  0  0  0  0  0
  -31.1391   -6.1502   -3.8210 C   0  0  0  0  0  0  0  0  0  0  0  0
  -31.8437   -5.3545   -2.9130 C   0  0  0  0  0  0  0  0  0  0  0  0
  -31.7859   -3.9745   -3.0126 C   0  0  0  0  0  0  0  0  0  0  0  0
  -31.0220   -3.3825   -4.0230 C   0  0  0  0  0  0  0  0  0  0  0  0
  -30.2916   -4.1612   -4.9513 C   0  0  0  0  0  0  0  0  0  0  0  0
  -29.3900   -2.1455   -6.1386 N   0  0  0  0  0  0  0  0  0  0  0  0
  -29.9000   -1.7946   -6.9466 H   0  0  0  0  0  0  0  0  0  0  0  0
  -27.7856   -1.5638   -6.0606 S   0  0  0  0  0  0  0  0  0  0  0  0
  -27.2976   -1.3660   -7.4037 O   0  0  0  0  0  0  0  0  0  0  0  0
  -27.0794   -2.3805   -5.0968 O   0  0  0  0  0  0  0  0  0  0  0  0
  -28.0220    0.0730   -5.3374 C   0  0  0  0  0  0  0  0  0  0  0  0
  -29.4927    0.4786   -5.4591 C   0  0  0  0  0  0  0  0  0  0  0  0
  -31.2296    1.8745   -6.6221 C   0  0  0  0  0  0  0  0  0  0  0  0
  -29.7542    1.4957   -6.5707 C   0  0  0  0  0  0  0  0  0  0  0  0
  -29.7661   -7.7563   -5.7266 O   0  0  0  0  0  0  0  0  0  0  0  0
  -30.5873   -8.4070   -6.6508 C   0  0  0  0  0  0  0  0  0  0  0  0
  -31.9175   -8.2123   -6.5778 N   0  0  0  0  0  0  0  0  0  0  0  0
  -32.6426   -8.8515   -7.4959 C   0  0  0  0  0  0  0  0  0  0  0  0
  -32.1659   -9.6193   -8.4865 N   0  0  0  0  0  0  0  0  0  0  0  0
  -30.8338   -9.7595   -8.5698 C   0  0  0  0  0  0  0  0  0  0  0  0
  -30.2693  -10.4694   -9.6307 C   0  0  0  0  0  0  0  0  0  0  0  0
  -28.8746  -10.6375   -9.8155 C   0  0  0  0  0  0  0  0  0  0  0  0
  -28.0104  -10.1113   -8.8534 C   0  0  0  0  0  0  0  0  0  0  0  0
  -28.5803   -9.3957   -7.7766 C   0  0  0  0  0  0  0  0  0  0  0  0
  -29.9694   -9.1794   -7.6452 C   0  0  0  0  0  0  0  0  0  0  0  0
  -28.5760  -11.1115  -11.0638 O   0  0  0  0  0  0  0  0  0  0  0  0
  -28.8326  -10.3068  -12.2035 C   0  0  0  0  0  0  0  0  0  0  0  0
  -26.6609  -10.0866   -8.7130 O   0  0  0  0  0  0  0  0  0  0  0  0
  -25.8666  -11.2336   -8.5390 C   0  0  0  0  0  0  0  0  0  0  0  0
 18 19  1  0  0  0
 19 17  1  0  0  0
 17 16  1  0  0  0
 16 13  1  0  0  0
 13 14  2  0  0  0
 13 15  2  0  0  0
 13 11  1  0  0  0
 11  1  1  0  0  0
 11 12  1  0  0  0
  1  2  1  0  0  0
  1 10  2  0  0  0
  2  3  2  0  0  0
  3  4  1  0  0  0
  4 20  1  0  0  0
  4  5  2  0  0  0
 20 21  1  0  0  0
 21 22  1  0  0  0
 21 30  2  0  0  0
 22 23  2  0  0  0
 23 24  1  0  0  0
 24 25  2  0  0  0
 25 26  1  0  0  0
 25 30  1  0  0  0
 26 27  2  0  0  0
 27 31  1  0  0  0
 27 28  1  0  0  0
 31 32  1  0  0  0
 28 33  1  0  0  0
 28 29  2  0  0  0
 33 34  1  0  0  0
 29 30  1  0  0  0
  5  6  1  0  0  0
  5 10  1  0  0  0
  6  7  2  0  0  0
  7  8  1  0  0  0
  8  9  2  0  0  0
  9 10  1  0  0  0
M  END
> <minimizedAffinity>
-8.75078

$$$$
