CHEMBL206403


 28 31  0  0  0  0  0  0  0  0999 V2000
  -28.1975   -2.1103   -7.2463 C   0  0  0  0  0  0  0  0  0  0  0  0
  -27.6692   -0.9667   -6.6137 C   0  0  0  0  0  0  0  0  0  0  0  0
  -28.2534   -0.4549   -5.4576 C   0  0  0  0  0  0  0  0  0  0  0  0
  -29.3684   -1.0810   -4.9176 C   0  0  0  0  0  0  0  0  0  0  0  0
  -29.8551   -2.2563   -5.4930 C   0  0  0  0  0  0  0  0  0  0  0  0
  -29.2582   -2.8188   -6.6416 C   0  0  0  0  0  0  0  0  0  0  0  0
  -27.1257   -1.4644   -9.3228 N   0  0  0  0  0  0  0  0  0  0  0  0
  -27.6019   -2.5171   -8.5561 C   0  0  0  0  0  0  0  0  0  0  0  0
  -27.5620   -3.7040   -8.8562 O   0  0  0  0  0  0  0  0  0  0  0  0
  -27.1415   -0.5307   -8.9270 H   0  0  0  0  0  0  0  0  0  0  0  0
  -25.0517   -1.5114  -14.6645 C   0  0  0  0  0  0  0  0  0  0  0  0
  -25.5802   -1.5649  -13.2610 C   0  0  0  0  0  0  0  0  0  0  0  0
  -24.7033   -1.5401  -12.1707 C   0  0  0  0  0  0  0  0  0  0  0  0
  -25.1841   -1.5167  -10.8580 C   0  0  0  0  0  0  0  0  0  0  0  0
  -26.5600   -1.5285  -10.6155 C   0  0  0  0  0  0  0  0  0  0  0  0
  -27.4317   -1.6125  -11.7089 C   0  0  0  0  0  0  0  0  0  0  0  0
  -28.7567   -1.6556  -11.4964 F   0  0  0  0  0  0  0  0  0  0  0  0
  -26.9565   -1.6300  -13.0183 C   0  0  0  0  0  0  0  0  0  0  0  0
  -29.7850   -4.1582   -7.1280 C   0  0  0  0  0  0  0  0  0  0  0  0
  -29.7027   -5.2105   -6.1017 N   0  0  0  0  0  0  0  0  0  0  0  0
  -30.6512   -5.2891   -5.0735 C   0  0  0  0  0  0  0  0  0  0  0  0
  -30.6322   -6.1764   -4.0673 C   0  0  0  0  0  0  0  0  0  0  0  0
  -29.5214   -7.1303   -4.0836 C   0  0  0  0  0  0  0  0  0  0  0  0
  -29.1956   -8.0777   -3.2604 N   0  0  0  0  0  0  0  0  0  0  0  0
  -28.0566   -8.6193   -3.8439 C   0  0  0  0  0  0  0  0  0  0  0  0
  -27.6476   -8.0976   -4.9686 N   0  0  0  0  0  0  0  0  0  0  0  0
  -28.5534   -7.1037   -5.1829 C   0  0  0  0  0  0  0  0  0  0  0  0
  -28.6855   -6.1715   -6.1280 C   0  0  0  0  0  0  0  0  0  0  0  0
 11 12  1  0  0  0
 12 13  1  0  0  0
 12 18  2  0  0  0
 13 14  2  0  0  0
 14 15  1  0  0  0
 15  7  1  0  0  0
 15 16  2  0  0  0
  7  8  1  0  0  0
  7 10  1  0  0  0
  8  9  2  0  0  0
  8  1  1  0  0  0
  1  2  1  0  0  0
  1  6  2  0  0  0
  2  3  2  0  0  0
  3  4  1  0  0  0
  4  5  2  0  0  0
  5  6  1  0  0  0
  6 19  1  0  0  0
 19 20  1  0  0  0
 20 21  1  0  0  0
 20 28  1  0  0  0
 21 22  2  0  0  0
 22 23  1  0  0  0
 23 24  2  0  0  0
 23 27  1  0  0  0
 24 25  1  0  0  0
 25 26  2  0  0  0
 26 27  1  0  0  0
 27 28  2  0  0  0
 16 17  1  0  0  0
 16 18  1  0  0  0
M  END
> <minimizedAffinity>
-9.57031

$$$$
