CHEMBL3582427


 26 29  0  0  0  0  0  0  0  0999 V2000
  -29.6099   -4.8930   -6.5913 C   0  0  0  0  0  0  0  0  0  0  0  0
  -30.0516   -4.4310   -5.3598 C   0  0  0  0  0  0  0  0  0  0  0  0
  -29.6954   -3.1325   -5.1325 N   0  0  0  0  0  0  0  0  0  0  0  0
  -29.0410   -2.7739   -6.2123 C   0  0  0  0  0  0  0  0  0  0  0  0
  -28.4314   -1.5503   -6.5385 C   0  0  0  0  0  0  0  0  0  0  0  0
  -27.8026   -1.4244   -7.7072 C   0  0  0  0  0  0  0  0  0  0  0  0
  -27.7874   -2.5846   -8.6502 C   0  0  0  0  0  0  0  0  0  0  0  0
  -28.3609   -3.7292   -8.3820 N   0  0  0  0  0  0  0  0  0  0  0  0
  -28.9675   -3.7933   -7.1491 N   0  0  0  0  0  0  0  0  0  0  0  0
  -29.9840   -8.8329   -8.2489 C   0  0  0  0  0  0  0  0  0  0  0  0
  -28.7996   -8.1131   -8.4208 C   0  0  0  0  0  0  0  0  0  0  0  0
  -28.6779   -6.8199   -7.8976 C   0  0  0  0  0  0  0  0  0  0  0  0
  -29.7271   -6.2300   -7.1829 C   0  0  0  0  0  0  0  0  0  0  0  0
  -30.9236   -6.9540   -7.0417 C   0  0  0  0  0  0  0  0  0  0  0  0
  -31.0522   -8.2446   -7.5684 C   0  0  0  0  0  0  0  0  0  0  0  0
  -30.1863  -11.2479   -9.1805 N   0  0  0  0  0  0  0  0  0  0  0  0
  -30.0999  -10.1641   -8.7636 C   0  0  0  0  0  0  0  0  0  0  0  0
  -27.1799   -2.4775   -9.8747 N   0  0  0  0  0  0  0  0  0  0  0  0
  -26.2628   -2.9026   -9.9411 H   0  0  0  0  0  0  0  0  0  0  0  0
  -27.4992   -1.4976  -10.8922 C   0  0  0  0  0  0  0  0  0  0  0  0
  -26.3826   -1.3477  -11.8988 C   0  0  0  0  0  0  0  0  0  0  0  0
  -25.1375   -0.8455  -11.4894 C   0  0  0  0  0  0  0  0  0  0  0  0
  -24.0999   -0.6846  -12.4095 C   0  0  0  0  0  0  0  0  0  0  0  0
  -24.2892   -1.0369  -13.7442 C   0  0  0  0  0  0  0  0  0  0  0  0
  -25.5122   -1.5567  -14.1601 C   0  0  0  0  0  0  0  0  0  0  0  0
  -26.5491   -1.7189  -13.2423 C   0  0  0  0  0  0  0  0  0  0  0  0
 16 17  3  0  0  0
 17 10  1  0  0  0
 10 11  1  0  0  0
 10 15  2  0  0  0
 11 12  2  0  0  0
 12 13  1  0  0  0
 13  1  1  0  0  0
 13 14  2  0  0  0
  1  2  2  0  0  0
  1  9  1  0  0  0
  2  3  1  0  0  0
  3  4  2  0  0  0
  4  5  1  0  0  0
  4  9  1  0  0  0
  5  6  2  0  0  0
  6  7  1  0  0  0
  7 18  1  0  0  0
  7  8  2  0  0  0
 18 20  1  0  0  0
 18 19  1  0  0  0
 20 21  1  0  0  0
 21 22  1  0  0  0
 21 26  2  0  0  0
 22 23  2  0  0  0
 23 24  1  0  0  0
 24 25  2  0  0  0
 25 26  1  0  0  0
  8  9  1  0  0  0
 14 15  1  0  0  0
M  END
> <minimizedAffinity>
-9.41600

$$$$
