CHEMBL3644552


 29 32  0  0  0  0  0  0  0  0999 V2000
  -15.3597   -0.5886  -13.9546 C   0  0  0  0  0  0  0  0  0  0  0  0
  -14.0823   -0.2044  -14.3521 C   0  0  0  0  0  0  0  0  0  0  0  0
  -13.0464   -1.1371  -14.2850 C   0  0  0  0  0  0  0  0  0  0  0  0
  -13.2810   -2.4345  -13.7990 C   0  0  0  0  0  0  0  0  0  0  0  0
  -14.5510   -2.8469  -13.3765 C   0  0  0  0  0  0  0  0  0  0  0  0
  -15.5773   -1.9017  -13.5027 C   0  0  0  0  0  0  0  0  0  0  0  0
  -14.8055   -4.1024  -12.8609 N   0  0  0  0  0  0  0  0  0  0  0  0
  -16.0570   -4.8138  -13.1542 C   0  0  0  0  0  0  0  0  0  0  0  0
  -15.7214   -6.1475  -13.8225 C   0  0  0  0  0  0  0  0  0  0  0  0
  -14.6987   -6.9121  -13.0184 C   0  0  0  0  0  0  0  0  0  0  0  0
  -14.5307   -8.2849  -13.2150 C   0  0  0  0  0  0  0  0  0  0  0  0
  -13.5667   -8.9433  -12.4704 C   0  0  0  0  0  0  0  0  0  0  0  0
  -12.7740   -8.3382  -11.5608 N   0  0  0  0  0  0  0  0  0  0  0  0
  -12.9402   -7.0052  -11.4020 C   0  0  0  0  0  0  0  0  0  0  0  0
  -13.8659   -6.2409  -12.1053 C   0  0  0  0  0  0  0  0  0  0  0  0
  -13.9549   -4.7495  -11.8593 C   0  0  0  0  0  0  0  0  0  0  0  0
  -17.3627    0.4196  -14.9622 N   0  0  0  0  0  0  0  0  0  0  0  0
  -16.5180    0.3429  -13.8661 C   0  0  0  0  0  0  0  0  0  0  0  0
  -16.6635    0.9494  -12.8079 O   0  0  0  0  0  0  0  0  0  0  0  0
  -17.2728   -0.2883  -15.6772 H   0  0  0  0  0  0  0  0  0  0  0  0
  -20.9117    1.5448  -14.8031 C   0  0  0  0  0  0  0  0  0  0  0  0
  -20.7714    2.9138  -15.0686 C   0  0  0  0  0  0  0  0  0  0  0  0
  -19.5214    3.4526  -15.3512 C   0  0  0  0  0  0  0  0  0  0  0  0
  -18.3919    2.6375  -15.3429 C   0  0  0  0  0  0  0  0  0  0  0  0
  -18.4905    1.2747  -15.0470 C   0  0  0  0  0  0  0  0  0  0  0  0
  -19.7608    0.7290  -14.8131 C   0  0  0  0  0  0  0  0  0  0  0  0
  -22.2158   -0.3853  -13.8328 C   0  0  0  0  0  0  0  0  0  0  0  0
  -22.2911    0.9964  -14.4828 C   0  0  0  0  0  0  0  0  0  0  0  0
  -23.0950    1.9729  -13.6221 C   0  0  0  0  0  0  0  0  0  0  0  0
 27 28  1  0  0  0
 28 29  1  0  0  0
 28 21  1  0  0  0
 21 22  1  0  0  0
 21 26  2  0  0  0
 22 23  2  0  0  0
 23 24  1  0  0  0
 24 25  2  0  0  0
 25 17  1  0  0  0
 25 26  1  0  0  0
 17 18  1  0  0  0
 17 20  1  0  0  0
 18 19  2  0  0  0
 18  1  1  0  0  0
  1  2  1  0  0  0
  1  6  2  0  0  0
  2  3  2  0  0  0
  3  4  1  0  0  0
  4  5  2  0  0  0
  5  7  1  0  0  0
  5  6  1  0  0  0
  7  8  1  0  0  0
  7 16  1  0  0  0
  8  9  1  0  0  0
  9 10  1  0  0  0
 10 11  1  0  0  0
 10 15  2  0  0  0
 11 12  2  0  0  0
 12 13  1  0  0  0
 13 14  2  0  0  0
 14 15  1  0  0  0
 15 16  1  0  0  0
M  END
> <minimizedAffinity>
-9.62745

$$$$
