CHEMBL3896104


 36 39  0  0  0  0  0  0  0  0999 V2000
  -27.9678   -2.1783   -8.5426 N   0  0  0  0  0  0  0  0  0  0  0  0
  -27.4340   -1.5204   -9.7309 C   0  0  0  0  0  0  0  0  0  0  0  0
  -28.2908   -1.5811  -10.8280 C   0  0  0  0  0  0  0  0  0  0  0  0
  -27.7622   -1.6587  -12.1016 C   0  0  0  0  0  0  0  0  0  0  0  0
  -26.4299   -1.4562  -12.3423 C   0  0  0  0  0  0  0  0  0  0  0  0
  -26.0621   -1.7682  -13.5899 N   0  0  0  0  0  0  0  0  0  0  0  0
  -24.8471   -1.3725  -13.9710 C   0  0  0  0  0  0  0  0  0  0  0  0
  -24.0441   -0.5997  -13.1608 C   0  0  0  0  0  0  0  0  0  0  0  0
  -24.3497   -0.4233  -11.8202 N   0  0  0  0  0  0  0  0  0  0  0  0
  -25.5687   -0.9396  -11.3499 C   0  0  0  0  0  0  0  0  0  0  0  0
  -26.1015   -1.0759   -9.9889 C   0  0  0  0  0  0  0  0  0  0  0  0
  -23.0105    0.1627  -13.8698 C   0  0  0  0  0  0  0  0  0  0  0  0
  -21.7761   -0.2868  -14.4176 C   0  0  0  0  0  0  0  0  0  0  0  0
  -20.9398    0.7127  -14.7290 N   0  0  0  0  0  0  0  0  0  0  0  0
  -21.6191    1.8134  -14.3672 N   0  0  0  0  0  0  0  0  0  0  0  0
  -21.1516    3.1258  -14.7536 C   0  0  0  0  0  0  0  0  0  0  0  0
  -22.7854    1.5247  -13.7091 C   0  0  0  0  0  0  0  0  0  0  0  0
  -28.6932   -0.0750   -5.5145 C   0  0  0  0  0  0  0  0  0  0  0  0
  -28.3661   -0.9541   -4.4852 C   0  0  0  0  0  0  0  0  0  0  0  0
  -27.8545   -2.2124   -4.7804 C   0  0  0  0  0  0  0  0  0  0  0  0
  -27.6596   -2.5860   -6.1181 C   0  0  0  0  0  0  0  0  0  0  0  0
  -27.9706   -1.7353   -7.1922 C   0  0  0  0  0  0  0  0  0  0  0  0
  -28.4755   -0.4602   -6.8573 C   0  0  0  0  0  0  0  0  0  0  0  0
  -30.5742    1.3683   -5.8381 C   0  0  0  0  0  0  0  0  0  0  0  0
  -29.2570    1.1647   -5.3173 O   0  0  0  0  0  0  0  0  0  0  0  0
  -27.5337   -3.1766   -3.8609 O   0  0  0  0  0  0  0  0  0  0  0  0
  -28.5540   -4.1113   -3.5241 C   0  0  0  0  0  0  0  0  0  0  0  0
  -27.7928   -3.6703   -8.7542 C   0  0  0  0  0  0  0  0  0  0  0  0
  -28.7250   -4.6439   -8.0090 C   0  0  0  0  0  0  0  0  0  0  0  0
  -28.3784   -6.1342   -8.0054 C   0  0  0  0  0  0  0  0  0  0  0  0
  -28.4324   -6.7212   -6.6484 N   0  0  0  0  0  0  0  0  0  0  0  0
  -28.2889   -6.0527   -5.8858 H   0  0  0  0  0  0  0  0  0  0  0  0
  -29.8277   -7.6287   -6.2643 S   0  0  0  0  0  0  0  0  0  0  0  0
  -30.8030   -6.4685   -5.3410 C   0  0  0  0  0  0  0  0  0  0  0  0
  -30.4593   -7.8979   -7.5355 O   0  0  0  0  0  0  0  0  0  0  0  0
  -29.3974   -8.7009   -5.4040 O   0  0  0  0  0  0  0  0  0  0  0  0
 24 25  1  0  0  0
 25 18  1  0  0  0
 18 19  1  0  0  0
 18 23  2  0  0  0
 19 20  2  0  0  0
 20 26  1  0  0  0
 20 21  1  0  0  0
 26 27  1  0  0  0
 21 22  2  0  0  0
 22  1  1  0  0  0
 22 23  1  0  0  0
  1 28  1  0  0  0
  1  2  1  0  0  0
 28 29  1  0  0  0
 29 30  1  0  0  0
 30 31  1  0  0  0
 31 33  1  0  0  0
 31 32  1  0  0  0
 33 34  1  0  0  0
 33 35  2  0  0  0
 33 36  2  0  0  0
  2  3  1  0  0  0
  2 11  2  0  0  0
  3  4  2  0  0  0
  4  5  1  0  0  0
  5  6  1  0  0  0
  5 10  2  0  0  0
  6  7  2  0  0  0
  7  8  1  0  0  0
  8 12  1  0  0  0
  8  9  2  0  0  0
 12 13  1  0  0  0
 12 17  2  0  0  0
 13 14  2  0  0  0
 14 15  1  0  0  0
 15 16  1  0  0  0
 15 17  1  0  0  0
  9 10  1  0  0  0
 10 11  1  0  0  0
M  END
> <minimizedAffinity>
-8.38279

$$$$
