CHEMBL1964382


 23 24  0  0  0  0  0  0  0  0999 V2000
  -15.5178   -3.0832   -9.9760 C   0  0  0  0  0  0  0  0  0  0  0  0
  -15.2126   -3.7960  -11.3212 C   0  0  0  0  0  0  0  0  0  0  0  0
  -16.5271   -4.5114  -11.7507 C   0  0  0  0  0  0  0  0  0  0  0  0
  -14.8926   -2.7429  -12.4201 C   0  0  0  0  0  0  0  0  0  0  0  0
  -15.6696   -1.5664  -12.5175 C   0  0  0  0  0  0  0  0  0  0  0  0
  -15.5028   -0.6610  -13.5716 C   0  0  0  0  0  0  0  0  0  0  0  0
  -16.6682    0.8315  -13.6841 Br  0  0  0  0  0  0  0  0  0  0  0  0
  -14.5180   -0.8678  -14.5322 C   0  0  0  0  0  0  0  0  0  0  0  0
  -14.3720   -0.0100  -15.5889 O   0  0  0  0  0  0  0  0  0  0  0  0
  -13.6864   -1.9825  -14.4194 C   0  0  0  0  0  0  0  0  0  0  0  0
  -12.1205   -2.3320  -15.7676 I   0  0  0  0  0  0  0  0  0  0  0  0
  -13.8878   -2.9181  -13.3900 C   0  0  0  0  0  0  0  0  0  0  0  0
  -15.1080    0.6273  -15.5590 H   0  0  0  0  0  0  0  0  0  0  0  0
  -14.0770   -4.8259  -11.0483 C   0  0  0  0  0  0  0  0  0  0  0  0
  -13.0710   -4.5481  -10.0968 C   0  0  0  0  0  0  0  0  0  0  0  0
  -12.0504   -5.4672   -9.8243 C   0  0  0  0  0  0  0  0  0  0  0  0
  -10.6967   -4.9864   -8.5864 Br  0  0  0  0  0  0  0  0  0  0  0  0
  -12.0234   -6.7068  -10.4628 C   0  0  0  0  0  0  0  0  0  0  0  0
  -11.0419   -7.6219  -10.1860 O   0  0  0  0  0  0  0  0  0  0  0  0
  -13.0136   -7.0155  -11.3925 C   0  0  0  0  0  0  0  0  0  0  0  0
  -13.0852   -8.8685  -12.3630 I   0  0  0  0  0  0  0  0  0  0  0  0
  -14.0157   -6.0742  -11.6935 C   0  0  0  0  0  0  0  0  0  0  0  0
  -10.4449   -7.2302   -9.5230 H   0  0  0  0  0  0  0  0  0  0  0  0
  1  2  1  0  0  0
  2  3  1  0  0  0
  2  4  1  0  0  0
  2 14  1  0  0  0
  4  5  1  0  0  0
  4 12  2  0  0  0
  5  6  2  0  0  0
  6  7  1  0  0  0
  6  8  1  0  0  0
  8  9  1  0  0  0
  8 10  2  0  0  0
  9 13  1  0  0  0
 10 11  1  0  0  0
 10 12  1  0  0  0
 14 15  1  0  0  0
 14 22  2  0  0  0
 15 16  2  0  0  0
 16 17  1  0  0  0
 16 18  1  0  0  0
 18 19  1  0  0  0
 18 20  2  0  0  0
 19 23  1  0  0  0
 20 21  1  0  0  0
 20 22  1  0  0  0
M  END
> <minimizedAffinity>
-6.52903

$$$$
