CHEMBL1254193


 34 37  0  0  0  0  0  0  0  0999 V2000
  -13.7101   -1.9469  -12.7817 C   0  0  0  0  0  0  0  0  0  0  0  0
  -14.9980   -2.3988  -13.0795 C   0  0  0  0  0  0  0  0  0  0  0  0
  -15.9446   -1.5378  -13.6364 C   0  0  0  0  0  0  0  0  0  0  0  0
  -15.6041   -0.2261  -13.9595 C   0  0  0  0  0  0  0  0  0  0  0  0
  -14.2928    0.2142  -13.6914 C   0  0  0  0  0  0  0  0  0  0  0  0
  -13.8072    1.8417  -14.0401 Cl  0  0  0  0  0  0  0  0  0  0  0  0
  -13.3511   -0.6394  -13.1043 C   0  0  0  0  0  0  0  0  0  0  0  0
  -16.5259    0.6703  -14.5345 N   0  0  0  0  0  0  0  0  0  0  0  0
  -16.5188    1.2130  -15.7940 C   0  0  0  0  0  0  0  0  0  0  0  0
  -15.6363    1.0867  -16.6394 O   0  0  0  0  0  0  0  0  0  0  0  0
  -17.6905    1.8047  -16.1812 N   0  0  0  0  0  0  0  0  0  0  0  0
  -17.3277    0.9170  -13.9589 H   0  0  0  0  0  0  0  0  0  0  0  0
  -17.7863    1.8753  -17.1832 H   0  0  0  0  0  0  0  0  0  0  0  0
  -18.7687    2.1282  -15.3678 C   0  0  0  0  0  0  0  0  0  0  0  0
  -19.7764    1.1932  -15.2222 C   0  0  0  0  0  0  0  0  0  0  0  0
  -20.8253    1.4759  -14.3440 C   0  0  0  0  0  0  0  0  0  0  0  0
  -20.8813    2.7367  -13.7389 C   0  0  0  0  0  0  0  0  0  0  0  0
  -19.8449    3.6203  -13.9710 C   0  0  0  0  0  0  0  0  0  0  0  0
  -18.7698    3.3167  -14.7256 N   0  0  0  0  0  0  0  0  0  0  0  0
  -21.8555    0.4299  -14.0161 C   0  0  0  0  0  0  0  0  0  0  0  0
  -21.6013   -0.7764  -14.5922 F   0  0  0  0  0  0  0  0  0  0  0  0
  -21.9478    0.1937  -12.6797 F   0  0  0  0  0  0  0  0  0  0  0  0
  -23.1071    0.7862  -14.4242 F   0  0  0  0  0  0  0  0  0  0  0  0
  -12.7322   -2.7477  -12.2333 O   0  0  0  0  0  0  0  0  0  0  0  0
  -12.4348   -5.1681  -14.0900 C   0  0  0  0  0  0  0  0  0  0  0  0
  -12.9721   -5.7435  -12.8768 N   0  0  0  0  0  0  0  0  0  0  0  0
  -13.2755   -7.0733  -12.7127 C   0  0  0  0  0  0  0  0  0  0  0  0
  -13.7485   -7.2444  -11.4292 C   0  0  0  0  0  0  0  0  0  0  0  0
  -13.7227   -5.9803  -10.7974 C   0  0  0  0  0  0  0  0  0  0  0  0
  -14.0925   -5.6536   -9.5423 N   0  0  0  0  0  0  0  0  0  0  0  0
  -13.9231   -4.3564   -9.2594 C   0  0  0  0  0  0  0  0  0  0  0  0
  -13.4587   -3.3916  -10.0685 N   0  0  0  0  0  0  0  0  0  0  0  0
  -13.1437   -3.7274  -11.3396 C   0  0  0  0  0  0  0  0  0  0  0  0
  -13.2397   -5.0563  -11.7166 C   0  0  0  0  0  0  0  0  0  0  0  0
 25 26  1  0  0  0
 26 27  1  0  0  0
 26 34  1  0  0  0
 27 28  2  0  0  0
 28 29  1  0  0  0
 29 30  1  0  0  0
 29 34  2  0  0  0
 30 31  2  0  0  0
 31 32  1  0  0  0
 32 33  2  0  0  0
 33 24  1  0  0  0
 33 34  1  0  0  0
 24  1  1  0  0  0
  1  2  1  0  0  0
  1  7  2  0  0  0
  2  3  2  0  0  0
  3  4  1  0  0  0
  4  8  1  0  0  0
  4  5  2  0  0  0
  8  9  1  0  0  0
  8 12  1  0  0  0
  9 10  2  0  0  0
  9 11  1  0  0  0
 11 14  1  0  0  0
 11 13  1  0  0  0
 14 15  1  0  0  0
 14 19  2  0  0  0
 15 16  2  0  0  0
 16 20  1  0  0  0
 16 17  1  0  0  0
 20 21  1  0  0  0
 20 22  1  0  0  0
 20 23  1  0  0  0
 17 18  2  0  0  0
 18 19  1  0  0  0
  5  6  1  0  0  0
  5  7  1  0  0  0
M  END
> <minimizedAffinity>
-8.44109

$$$$
