CHEMBL3948032


 37 40  0  0  0  0  0  0  0  0999 V2000
  -23.0823   -0.5635  -13.2089 C   0  0  0  0  0  0  0  0  0  0  0  0
  -24.3377   -0.6138  -13.8089 C   0  0  0  0  0  0  0  0  0  0  0  0
  -25.4115   -1.2482  -13.1638 C   0  0  0  0  0  0  0  0  0  0  0  0
  -25.2575   -1.8531  -11.9097 C   0  0  0  0  0  0  0  0  0  0  0  0
  -23.9916   -1.8112  -11.3149 C   0  0  0  0  0  0  0  0  0  0  0  0
  -22.9108   -1.1792  -11.9643 C   0  0  0  0  0  0  0  0  0  0  0  0
  -26.3341   -2.4676  -11.2109 N   0  0  0  0  0  0  0  0  0  0  0  0
  -26.7807   -2.0729   -9.9619 C   0  0  0  0  0  0  0  0  0  0  0  0
  -26.4045   -1.0594   -9.3819 O   0  0  0  0  0  0  0  0  0  0  0  0
  -27.7073   -2.9573   -9.4087 N   0  0  0  0  0  0  0  0  0  0  0  0
  -26.9549   -3.0640  -11.7393 H   0  0  0  0  0  0  0  0  0  0  0  0
  -27.4835   -3.9337   -9.5649 H   0  0  0  0  0  0  0  0  0  0  0  0
  -28.2147   -2.6623   -8.1097 C   0  0  0  0  0  0  0  0  0  0  0  0
  -28.2747   -1.3411   -7.6479 C   0  0  0  0  0  0  0  0  0  0  0  0
  -28.5566   -1.0585   -6.3015 C   0  0  0  0  0  0  0  0  0  0  0  0
  -28.8201   -2.1253   -5.4267 C   0  0  0  0  0  0  0  0  0  0  0  0
  -28.8315   -3.4414   -5.8988 C   0  0  0  0  0  0  0  0  0  0  0  0
  -28.5474   -3.7006   -7.2388 C   0  0  0  0  0  0  0  0  0  0  0  0
  -28.5018   -4.9722   -7.6641 F   0  0  0  0  0  0  0  0  0  0  0  0
  -28.5171    0.3612   -5.7874 C   0  0  0  0  0  0  0  0  0  0  0  0
  -28.3432    1.2958   -6.7624 F   0  0  0  0  0  0  0  0  0  0  0  0
  -29.6656    0.7090   -5.1423 F   0  0  0  0  0  0  0  0  0  0  0  0
  -27.5121    0.5620   -4.8908 F   0  0  0  0  0  0  0  0  0  0  0  0
  -21.1078    0.7789  -14.3522 C   0  0  0  0  0  0  0  0  0  0  0  0
  -22.0006    0.1486  -13.8448 C   0  0  0  0  0  0  0  0  0  0  0  0
  -14.6908    2.3729  -16.6541 N   0  0  0  0  0  0  0  0  0  0  0  0
  -15.9536    2.3006  -16.2439 C   0  0  0  0  0  0  0  0  0  0  0  0
  -16.6126    1.1966  -15.7738 C   0  0  0  0  0  0  0  0  0  0  0  0
  -17.8815    1.6360  -15.4974 N   0  0  0  0  0  0  0  0  0  0  0  0
  -18.9163    0.8759  -15.0075 N   0  0  0  0  0  0  0  0  0  0  0  0
  -20.0013    1.5687  -14.8587 C   0  0  0  0  0  0  0  0  0  0  0  0
  -20.1858    3.0099  -15.1587 C   0  0  0  0  0  0  0  0  0  0  0  0
  -19.1251    3.6765  -15.6289 C   0  0  0  0  0  0  0  0  0  0  0  0
  -17.9077    2.9886  -15.8207 C   0  0  0  0  0  0  0  0  0  0  0  0
  -16.7431    3.4038  -16.2714 N   0  0  0  0  0  0  0  0  0  0  0  0
  -14.0268    1.6154  -16.5630 H   0  0  0  0  0  0  0  0  0  0  0  0
  -14.2981    3.2770  -16.8930 H   0  0  0  0  0  0  0  0  0  0  0  0
 26 27  1  0  0  0
 26 36  1  0  0  0
 26 37  1  0  0  0
 27 28  2  0  0  0
 27 35  1  0  0  0
 28 29  1  0  0  0
 29 30  1  0  0  0
 29 34  1  0  0  0
 30 31  2  0  0  0
 31 24  1  0  0  0
 31 32  1  0  0  0
 24 25  3  0  0  0
 25  1  1  0  0  0
  1  2  1  0  0  0
  1  6  2  0  0  0
  2  3  2  0  0  0
  3  4  1  0  0  0
  4  7  1  0  0  0
  4  5  2  0  0  0
  7  8  1  0  0  0
  7 11  1  0  0  0
  8  9  2  0  0  0
  8 10  1  0  0  0
 10 13  1  0  0  0
 10 12  1  0  0  0
 13 14  1  0  0  0
 13 18  2  0  0  0
 14 15  2  0  0  0
 15 20  1  0  0  0
 15 16  1  0  0  0
 20 21  1  0  0  0
 20 22  1  0  0  0
 20 23  1  0  0  0
 16 17  2  0  0  0
 17 18  1  0  0  0
 18 19  1  0  0  0
  5  6  1  0  0  0
 32 33  2  0  0  0
 33 34  1  0  0  0
 34 35  2  0  0  0
M  END
> <minimizedAffinity>
-12.73652

$$$$
