CHEMBL4294625


 46 50  0  0  0  0  0  0  0  0999 V2000
  -27.2411   -1.2468   -9.4122 C   0  0  0  0  0  0  0  0  0  0  0  0
  -28.1184   -2.1566  -10.0105 C   0  0  0  0  0  0  0  0  0  0  0  0
  -27.9502   -2.4361  -11.3485 C   0  0  0  0  0  0  0  0  0  0  0  0
  -27.0478   -1.8157  -12.1243 N   0  0  0  0  0  0  0  0  0  0  0  0
  -26.2657   -0.8597  -11.5937 C   0  0  0  0  0  0  0  0  0  0  0  0
  -26.3322   -0.5406  -10.2293 C   0  0  0  0  0  0  0  0  0  0  0  0
  -25.3112   -0.2383  -12.4478 N   0  0  0  0  0  0  0  0  0  0  0  0
  -23.9448   -0.5463  -12.4191 C   0  0  0  0  0  0  0  0  0  0  0  0
  -23.4448   -1.4802  -11.7920 O   0  0  0  0  0  0  0  0  0  0  0  0
  -25.6550    0.4524  -13.0905 H   0  0  0  0  0  0  0  0  0  0  0  0
  -22.9807    0.2687  -13.2361 C   0  0  0  0  0  0  0  0  0  0  0  0
  -21.9293   -0.2775  -13.9835 C   0  0  0  0  0  0  0  0  0  0  0  0
  -21.0084    0.5890  -14.6366 C   0  0  0  0  0  0  0  0  0  0  0  0
  -21.1216    1.9816  -14.5710 C   0  0  0  0  0  0  0  0  0  0  0  0
  -22.2370    2.5038  -13.9011 C   0  0  0  0  0  0  0  0  0  0  0  0
  -23.1327    1.6607  -13.2366 C   0  0  0  0  0  0  0  0  0  0  0  0
  -20.0442    2.9525  -15.0594 C   0  0  0  0  0  0  0  0  0  0  0  0
  -19.2400    2.4530  -16.2637 C   0  0  0  0  0  0  0  0  0  0  0  0
  -18.1063    1.5137  -15.8656 C   0  0  0  0  0  0  0  0  0  0  0  0
  -17.1868    2.1086  -14.8808 N   0  0  0  0  0  0  0  0  0  0  0  0
  -17.9062    2.5749  -13.6842 C   0  0  0  0  0  0  0  0  0  0  0  0
  -19.0733    3.5115  -14.0070 C   0  0  0  0  0  0  0  0  0  0  0  0
  -16.1558    1.1207  -14.4654 C   0  0  0  0  0  0  0  0  0  0  0  0
  -16.3194    0.6180  -13.0226 C   0  0  0  0  0  0  0  0  0  0  0  0
  -15.0542    0.3223  -12.4409 O   0  0  0  0  0  0  0  0  0  0  0  0
  -14.6018   -0.2568  -13.0841 H   0  0  0  0  0  0  0  0  0  0  0  0
  -27.1976   -1.1242   -8.0080 O   0  0  0  0  0  0  0  0  0  0  0  0
  -32.4282   -5.3194   -3.0163 C   0  0  0  0  0  0  0  0  0  0  0  0
  -31.5612   -4.9513   -4.1087 N   0  0  0  0  0  0  0  0  0  0  0  0
  -30.4895   -5.7659   -4.3859 C   0  0  0  0  0  0  0  0  0  0  0  0
  -30.1537   -6.7817   -3.7965 O   0  0  0  0  0  0  0  0  0  0  0  0
  -29.8673   -5.4312   -5.5991 N   0  0  0  0  0  0  0  0  0  0  0  0
  -29.6701   -6.3524   -6.6137 C   0  0  0  0  0  0  0  0  0  0  0  0
  -29.0024   -5.7506   -7.6453 C   0  0  0  0  0  0  0  0  0  0  0  0
  -28.7023   -4.4353   -7.2253 C   0  0  0  0  0  0  0  0  0  0  0  0
  -27.9445   -3.4108   -7.8080 C   0  0  0  0  0  0  0  0  0  0  0  0
  -27.8672   -2.1095   -7.2621 C   0  0  0  0  0  0  0  0  0  0  0  0
  -28.4212   -1.9097   -5.9802 C   0  0  0  0  0  0  0  0  0  0  0  0
  -29.1138   -2.9765   -5.3278 C   0  0  0  0  0  0  0  0  0  0  0  0
  -29.2882   -4.2154   -5.9827 C   0  0  0  0  0  0  0  0  0  0  0  0
  -31.9403   -4.3800   -4.8558 H   0  0  0  0  0  0  0  0  0  0  0  0
  -28.2959   -0.8273   -5.1346 O   0  0  0  0  0  0  0  0  0  0  0  0
  -29.3882    0.0868   -5.0239 C   0  0  0  0  0  0  0  0  0  0  0  0
  -29.3109    1.1187   -6.1717 C   0  0  0  0  0  0  0  0  0  0  0  0
  -27.9627    1.4342   -6.5234 O   0  0  0  0  0  0  0  0  0  0  0  0
  -27.5237    0.5967   -6.7534 H   0  0  0  0  0  0  0  0  0  0  0  0
 28 29  1  0  0  0
 29 30  1  0  0  0
 29 41  1  0  0  0
 30 31  2  0  0  0
 30 32  1  0  0  0
 32 33  1  0  0  0
 32 40  1  0  0  0
 33 34  2  0  0  0
 34 35  1  0  0  0
 35 36  1  0  0  0
 35 40  2  0  0  0
 36 37  2  0  0  0
 37 27  1  0  0  0
 37 38  1  0  0  0
 27  1  1  0  0  0
  1  2  1  0  0  0
  1  6  2  0  0  0
  2  3  2  0  0  0
  3  4  1  0  0  0
  4  5  2  0  0  0
  5  7  1  0  0  0
  5  6  1  0  0  0
  7  8  1  0  0  0
  7 10  1  0  0  0
  8  9  2  0  0  0
  8 11  1  0  0  0
 11 12  1  0  0  0
 11 16  2  0  0  0
 12 13  2  0  0  0
 13 14  1  0  0  0
 14 17  1  0  0  0
 14 15  2  0  0  0
 17 18  1  0  0  0
 17 22  1  0  0  0
 18 19  1  0  0  0
 19 20  1  0  0  0
 20 23  1  0  0  0
 20 21  1  0  0  0
 23 24  1  0  0  0
 24 25  1  0  0  0
 25 26  1  0  0  0
 21 22  1  0  0  0
 15 16  1  0  0  0
 38 42  1  0  0  0
 38 39  2  0  0  0
 42 43  1  0  0  0
 43 44  1  0  0  0
 44 45  1  0  0  0
 45 46  1  0  0  0
 39 40  1  0  0  0
M  END
> <minimizedAffinity>
-8.73612

$$$$
