CHEMBL2386803


 46 50  0  0  0  0  0  0  0  0999 V2000
  -23.1517   11.3775  -16.7057 C   0  0  0  0  0  0  0  0  0  0  0  0
  -22.5944   11.6565  -17.9252 C   0  0  0  0  0  0  0  0  0  0  0  0
  -21.2278   11.2778  -17.8261 C   0  0  0  0  0  0  0  0  0  0  0  0
  -20.9657   10.7684  -16.6155 N   0  0  0  0  0  0  0  0  0  0  0  0
  -22.1282   10.8687  -15.9532 N   0  0  0  0  0  0  0  0  0  0  0  0
  -22.1398   10.5725  -14.9841 H   0  0  0  0  0  0  0  0  0  0  0  0
  -20.2153   11.4252  -18.8655 C   0  0  0  0  0  0  0  0  0  0  0  0
  -20.4324   10.8759  -20.1376 C   0  0  0  0  0  0  0  0  0  0  0  0
  -19.4726   11.0027  -21.1433 C   0  0  0  0  0  0  0  0  0  0  0  0
  -18.2688   11.6712  -20.8862 C   0  0  0  0  0  0  0  0  0  0  0  0
  -18.0552   12.2267  -19.6177 C   0  0  0  0  0  0  0  0  0  0  0  0
  -19.0200   12.1049  -18.6135 C   0  0  0  0  0  0  0  0  0  0  0  0
  -17.1966   11.7473  -21.9367 C   0  0  0  0  0  0  0  0  0  0  0  0
  -15.9071   11.2794  -21.4784 N   0  0  0  0  0  0  0  0  0  0  0  0
  -15.8118    9.9168  -21.2461 C   0  0  0  0  0  0  0  0  0  0  0  0
  -16.7756    9.1842  -21.4000 O   0  0  0  0  0  0  0  0  0  0  0  0
  -14.5703    9.5466  -20.7878 N   0  0  0  0  0  0  0  0  0  0  0  0
  -15.0924   11.7095  -21.8906 H   0  0  0  0  0  0  0  0  0  0  0  0
  -13.9856   10.2591  -20.3864 H   0  0  0  0  0  0  0  0  0  0  0  0
  -14.2406    8.2256  -20.5256 C   0  0  0  0  0  0  0  0  0  0  0  0
  -14.4756    7.5747  -19.2904 C   0  0  0  0  0  0  0  0  0  0  0  0
  -13.9906    6.2964  -19.4610 C   0  0  0  0  0  0  0  0  0  0  0  0
  -13.4882    6.1923  -20.7206 O   0  0  0  0  0  0  0  0  0  0  0  0
  -13.6421    7.3907  -21.3804 N   0  0  0  0  0  0  0  0  0  0  0  0
  -13.8820    5.0765  -18.5900 C   0  0  0  0  0  0  0  0  0  0  0  0
  -13.0184    5.3851  -17.3537 C   0  0  0  0  0  0  0  0  0  0  0  0
  -15.2760    4.6215  -18.1210 C   0  0  0  0  0  0  0  0  0  0  0  0
  -13.2205    3.9341  -19.3814 C   0  0  0  0  0  0  0  0  0  0  0  0
  -25.4450   10.5103  -16.2866 C   0  0  0  0  0  0  0  0  0  0  0  0
  -25.1779    9.3713  -16.6342 O   0  0  0  0  0  0  0  0  0  0  0  0
  -24.4659   11.5653  -16.2916 N   0  0  0  0  0  0  0  0  0  0  0  0
  -24.7191   12.4720  -15.9226 H   0  0  0  0  0  0  0  0  0  0  0  0
  -29.3152   11.6714  -14.8708 C   0  0  0  0  0  0  0  0  0  0  0  0
  -28.1458   12.2020  -14.3033 C   0  0  0  0  0  0  0  0  0  0  0  0
  -26.8891   11.8191  -14.7691 C   0  0  0  0  0  0  0  0  0  0  0  0
  -26.7889   10.8646  -15.7835 C   0  0  0  0  0  0  0  0  0  0  0  0
  -27.9404   10.2624  -16.3000 C   0  0  0  0  0  0  0  0  0  0  0  0
  -29.1980   10.6813  -15.8577 C   0  0  0  0  0  0  0  0  0  0  0  0
  -30.6788   12.1566  -14.4092 C   0  0  0  0  0  0  0  0  0  0  0  0
  -33.8810   12.6577  -10.8707 C   0  0  0  0  0  0  0  0  0  0  0  0
  -33.4749   11.8010  -11.9806 N   0  0  0  0  0  0  0  0  0  0  0  0
  -33.5446   12.5206  -13.2600 C   0  0  0  0  0  0  0  0  0  0  0  0
  -33.1040   11.6062  -14.4244 C   0  0  0  0  0  0  0  0  0  0  0  0
  -31.7135   11.1089  -14.3118 N   0  0  0  0  0  0  0  0  0  0  0  0
  -31.6184   10.4197  -12.9947 C   0  0  0  0  0  0  0  0  0  0  0  0
  -32.1231   11.2467  -11.7763 C   0  0  0  0  0  0  0  0  0  0  0  0
 40 41  1  0  0  0
 41 42  1  0  0  0
 41 46  1  0  0  0
 42 43  1  0  0  0
 43 44  1  0  0  0
 44 39  1  0  0  0
 44 45  1  0  0  0
 39 33  1  0  0  0
 33 34  1  0  0  0
 33 38  2  0  0  0
 34 35  2  0  0  0
 35 36  1  0  0  0
 36 29  1  0  0  0
 36 37  2  0  0  0
 29 30  2  0  0  0
 29 31  1  0  0  0
 31  1  1  0  0  0
 31 32  1  0  0  0
  1  2  2  0  0  0
  1  5  1  0  0  0
  2  3  1  0  0  0
  3  7  1  0  0  0
  3  4  2  0  0  0
  7  8  1  0  0  0
  7 12  2  0  0  0
  8  9  2  0  0  0
  9 10  1  0  0  0
 10 13  1  0  0  0
 10 11  2  0  0  0
 13 14  1  0  0  0
 14 15  1  0  0  0
 14 18  1  0  0  0
 15 16  2  0  0  0
 15 17  1  0  0  0
 17 20  1  0  0  0
 17 19  1  0  0  0
 20 21  1  0  0  0
 20 24  2  0  0  0
 21 22  2  0  0  0
 22 25  1  0  0  0
 22 23  1  0  0  0
 25 26  1  0  0  0
 25 27  1  0  0  0
 25 28  1  0  0  0
 23 24  1  0  0  0
 11 12  1  0  0  0
  4  5  1  0  0  0
  5  6  1  0  0  0
 37 38  1  0  0  0
 45 46  1  0  0  0
M  END
> <minimizedAffinity>
-7.18097

$$$$
