CHEMBL3125892


 41 45  0  0  0  0  0  0  0  0999 V2000
  -15.2326   -2.0989  -12.2141 C   0  0  0  0  0  0  0  0  0  0  0  0
  -15.8426   -2.5025  -11.0224 C   0  0  0  0  0  0  0  0  0  0  0  0
  -15.1735   -3.3176  -10.1156 C   0  0  0  0  0  0  0  0  0  0  0  0
  -13.8928   -3.7666  -10.4064 C   0  0  0  0  0  0  0  0  0  0  0  0
  -13.3278   -3.5171  -11.6645 C   0  0  0  0  0  0  0  0  0  0  0  0
  -13.9835   -2.6505  -12.5543 C   0  0  0  0  0  0  0  0  0  0  0  0
  -15.4479    0.1983  -13.1530 C   0  0  0  0  0  0  0  0  0  0  0  0
  -14.5800    0.7527  -12.4857 O   0  0  0  0  0  0  0  0  0  0  0  0
  -15.8312   -1.1373  -13.0730 N   0  0  0  0  0  0  0  0  0  0  0  0
  -16.4290   -1.4959  -13.8066 H   0  0  0  0  0  0  0  0  0  0  0  0
  -15.7299    2.5682  -16.0917 C   0  0  0  0  0  0  0  0  0  0  0  0
  -17.1277    2.5871  -16.2690 C   0  0  0  0  0  0  0  0  0  0  0  0
  -17.9808    1.8465  -15.4395 C   0  0  0  0  0  0  0  0  0  0  0  0
  -17.4619    1.0503  -14.4185 C   0  0  0  0  0  0  0  0  0  0  0  0
  -16.0832    1.0100  -14.2237 C   0  0  0  0  0  0  0  0  0  0  0  0
  -15.2332    1.7829  -15.0379 C   0  0  0  0  0  0  0  0  0  0  0  0
  -15.5399    4.4229  -17.8882 C   0  0  0  0  0  0  0  0  0  0  0  0
  -14.8060    3.3568  -17.0416 C   0  0  0  0  0  0  0  0  0  0  0  0
  -13.7442    4.1010  -16.2013 C   0  0  0  0  0  0  0  0  0  0  0  0
  -14.1126    2.4399  -17.9861 C   0  0  0  0  0  0  0  0  0  0  0  0
  -13.5926    1.7115  -18.7265 N   0  0  0  0  0  0  0  0  0  0  0  0
  -12.1337   -4.1085  -12.0747 O   0  0  0  0  0  0  0  0  0  0  0  0
  -12.2028   -5.0537  -13.0992 C   0  0  0  0  0  0  0  0  0  0  0  0
  -11.9886   -4.6660  -14.4201 C   0  0  0  0  0  0  0  0  0  0  0  0
  -12.3140   -5.5119  -15.4728 C   0  0  0  0  0  0  0  0  0  0  0  0
  -12.7254   -6.8268  -15.2152 C   0  0  0  0  0  0  0  0  0  0  0  0
  -13.0530   -7.7264  -16.2005 N   0  0  0  0  0  0  0  0  0  0  0  0
  -13.3147   -8.8934  -15.6702 C   0  0  0  0  0  0  0  0  0  0  0  0
  -13.2121   -8.9788  -13.9763 S   0  0  0  0  0  0  0  0  0  0  0  0
  -12.7928   -7.2894  -13.8942 C   0  0  0  0  0  0  0  0  0  0  0  0
  -12.5252   -6.4031  -12.8225 C   0  0  0  0  0  0  0  0  0  0  0  0
  -13.6074   -9.9365  -16.5150 N   0  0  0  0  0  0  0  0  0  0  0  0
  -12.7452  -10.6794  -17.2673 C   0  0  0  0  0  0  0  0  0  0  0  0
  -11.5278  -10.5758  -17.2904 O   0  0  0  0  0  0  0  0  0  0  0  0
  -14.5932  -10.1446  -16.5470 H   0  0  0  0  0  0  0  0  0  0  0  0
  -13.3844  -11.7227  -18.1337 C   0  0  0  0  0  0  0  0  0  0  0  0
  -13.9751  -11.4692  -19.5049 C   0  0  0  0  0  0  0  0  0  0  0  0
  -14.8826  -11.7697  -18.3473 C   0  0  0  0  0  0  0  0  0  0  0  0
  -12.5439   -6.8320  -11.4407 N   0  0  0  0  0  0  0  0  0  0  0  0
  -11.4482   -6.9773  -10.8764 O   0  0  0  0  0  0  0  0  0  0  0  0
  -13.6505   -7.0439  -10.9290 O   0  0  0  0  0  0  0  0  0  0  0  0
 17 18  1  0  0  0
 18 19  1  0  0  0
 18 20  1  0  0  0
 18 11  1  0  0  0
 20 21  3  0  0  0
 11 12  1  0  0  0
 11 16  2  0  0  0
 12 13  2  0  0  0
 13 14  1  0  0  0
 14 15  2  0  0  0
 15  7  1  0  0  0
 15 16  1  0  0  0
  7  8  2  0  0  0
  7  9  1  0  0  0
  9  1  1  0  0  0
  9 10  1  0  0  0
  1  2  1  0  0  0
  1  6  2  0  0  0
  2  3  2  0  0  0
  3  4  1  0  0  0
  4  5  2  0  0  0
  5 22  1  0  0  0
  5  6  1  0  0  0
 22 23  1  0  0  0
 23 24  1  0  0  0
 23 31  2  0  0  0
 24 25  2  0  0  0
 25 26  1  0  0  0
 26 27  1  0  0  0
 26 30  2  0  0  0
 27 28  2  0  0  0
 28 32  1  0  0  0
 28 29  1  0  0  0
 32 33  1  0  0  0
 32 35  1  0  0  0
 33 34  2  0  0  0
 33 36  1  0  0  0
 36 37  1  0  0  0
 36 38  1  0  0  0
 37 38  1  0  0  0
 29 30  1  0  0  0
 30 31  1  0  0  0
 31 39  1  0  0  0
 39 40  2  0  0  0
 39 41  1  0  0  0
M  CHG 1  39   1
M  CHG 1  41  -1
M  END
> <minimizedAffinity>
-8.37628

$$$$
