CHEMBL3109337


 33 37  0  0  0  0  0  0  0  0999 V2000
  -27.5621   -8.3101   -4.9695 C   0  0  0  0  0  0  0  0  0  0  0  0
  -26.6712   -8.2772   -3.9065 C   0  0  0  0  0  0  0  0  0  0  0  0
  -25.5833   -9.1252   -3.9364 C   0  0  0  0  0  0  0  0  0  0  0  0
  -25.4133   -9.9861   -5.0223 C   0  0  0  0  0  0  0  0  0  0  0  0
  -24.3081  -10.8445   -5.0440 C   0  0  0  0  0  0  0  0  0  0  0  0
  -24.1267  -11.7118   -6.1077 C   0  0  0  0  0  0  0  0  0  0  0  0
  -25.0398  -11.7234   -7.1610 C   0  0  0  0  0  0  0  0  0  0  0  0
  -26.1464  -10.8585   -7.1649 C   0  0  0  0  0  0  0  0  0  0  0  0
  -26.3597   -9.9756   -6.0791 C   0  0  0  0  0  0  0  0  0  0  0  0
  -27.4208   -9.1322   -6.0332 N   0  0  0  0  0  0  0  0  0  0  0  0
  -29.2856   -3.3843   -4.3284 C   0  0  0  0  0  0  0  0  0  0  0  0
  -27.9466   -3.8911   -4.0587 C   0  0  0  0  0  0  0  0  0  0  0  0
  -27.6773   -5.1942   -4.2514 C   0  0  0  0  0  0  0  0  0  0  0  0
  -28.6914   -6.0523   -4.6933 N   0  0  0  0  0  0  0  0  0  0  0  0
  -28.6953   -7.4045   -4.9971 C   0  0  0  0  0  0  0  0  0  0  0  0
  -30.0041   -7.6707   -5.3717 C   0  0  0  0  0  0  0  0  0  0  0  0
  -30.7854   -6.5573   -5.3530 N   0  0  0  0  0  0  0  0  0  0  0  0
  -29.9840   -5.5986   -4.9501 C   0  0  0  0  0  0  0  0  0  0  0  0
  -30.2529   -4.2217   -4.7639 C   0  0  0  0  0  0  0  0  0  0  0  0
  -29.4221   -2.0342   -4.0969 O   0  0  0  0  0  0  0  0  0  0  0  0
  -28.3822   -1.2237   -4.6494 C   0  0  0  0  0  0  0  0  0  0  0  0
  -28.6449   -0.9595   -6.1202 C   0  0  0  0  0  0  0  0  0  0  0  0
  -28.0160   -2.5952   -7.6919 C   0  0  0  0  0  0  0  0  0  0  0  0
  -27.5715   -1.5271   -6.8710 O   0  0  0  0  0  0  0  0  0  0  0  0
  -27.0911  -10.8313   -8.1784 O   0  0  0  0  0  0  0  0  0  0  0  0
  -26.9466   -9.8949   -9.2618 C   0  0  0  0  0  0  0  0  0  0  0  0
  -27.9249   -8.7230   -9.1327 C   0  0  0  0  0  0  0  0  0  0  0  0
  -29.3771   -9.1552   -9.3445 C   0  0  0  0  0  0  0  0  0  0  0  0
  -29.6070   -9.8410  -10.6172 N   0  0  0  0  0  0  0  0  0  0  0  0
  -28.6691  -10.9554  -10.8203 C   0  0  0  0  0  0  0  0  0  0  0  0
  -27.1973  -10.5906  -10.6061 C   0  0  0  0  0  0  0  0  0  0  0  0
  -26.8214   -9.7301  -11.6050 F   0  0  0  0  0  0  0  0  0  0  0  0
  -29.5049   -9.1781  -11.3864 H   0  0  0  0  0  0  0  0  0  0  0  0
 23 24  1  0  0  0
 24 22  1  0  0  0
 22 21  1  0  0  0
 21 20  1  0  0  0
 20 11  1  0  0  0
 11 12  1  0  0  0
 11 19  2  0  0  0
 12 13  2  0  0  0
 13 14  1  0  0  0
 14 15  1  0  0  0
 14 18  1  0  0  0
 15  1  1  0  0  0
 15 16  2  0  0  0
  1  2  1  0  0  0
  1 10  2  0  0  0
  2  3  2  0  0  0
  3  4  1  0  0  0
  4  5  1  0  0  0
  4  9  2  0  0  0
  5  6  2  0  0  0
  6  7  1  0  0  0
  7  8  2  0  0  0
  8 25  1  0  0  0
  8  9  1  0  0  0
 25 26  1  0  0  0
 26 27  1  0  0  0
 26 31  1  0  0  0
 27 28  1  0  0  0
 28 29  1  0  0  0
 29 30  1  0  0  0
 29 33  1  0  0  0
 30 31  1  0  0  0
 31 32  1  0  0  0
  9 10  1  0  0  0
 16 17  1  0  0  0
 17 18  2  0  0  0
 18 19  1  0  0  0
M  END
> <minimizedAffinity>
-7.93407

$$$$
