CHEMBL1994159


 18 20  0  0  0  0  0  0  0  0999 V2000
  -24.9650   -1.2762  -13.5149 C   0  0  0  0  0  0  0  0  0  0  0  0
  -24.6592   -1.9677  -12.3371 C   0  0  0  0  0  0  0  0  0  0  0  0
  -23.4714   -1.6923  -11.6544 C   0  0  0  0  0  0  0  0  0  0  0  0
  -22.5875   -0.7277  -12.1426 C   0  0  0  0  0  0  0  0  0  0  0  0
  -22.8921   -0.0216  -13.3119 C   0  0  0  0  0  0  0  0  0  0  0  0
  -24.0788   -0.3037  -13.9977 C   0  0  0  0  0  0  0  0  0  0  0  0
  -21.9109    0.9666  -13.8472 C   0  0  0  0  0  0  0  0  0  0  0  0
  -22.3725    2.3890  -13.9305 C   0  0  0  0  0  0  0  0  0  0  0  0
  -21.5379    3.2853  -14.4711 C   0  0  0  0  0  0  0  0  0  0  0  0
  -20.2649    2.8670  -14.9087 C   0  0  0  0  0  0  0  0  0  0  0  0
  -19.2744    3.5319  -15.4658 N   0  0  0  0  0  0  0  0  0  0  0  0
  -18.2878    2.5989  -15.6658 C   0  0  0  0  0  0  0  0  0  0  0  0
  -18.6824    1.3586  -15.2230 C   0  0  0  0  0  0  0  0  0  0  0  0
  -19.9482    1.5305  -14.7349 N   0  0  0  0  0  0  0  0  0  0  0  0
  -20.7311    0.5497  -14.2064 N   0  0  0  0  0  0  0  0  0  0  0  0
  -27.4224   -2.0684  -13.5956 C   0  0  0  0  0  0  0  0  0  0  0  0
  -26.2054   -1.5383  -14.3040 C   0  0  0  0  0  0  0  0  0  0  0  0
  -26.2142   -1.3171  -15.5122 O   0  0  0  0  0  0  0  0  0  0  0  0
 16 17  1  0  0  0
 17 18  2  0  0  0
 17  1  1  0  0  0
  1  2  1  0  0  0
  1  6  2  0  0  0
  2  3  2  0  0  0
  3  4  1  0  0  0
  4  5  2  0  0  0
  5  7  1  0  0  0
  5  6  1  0  0  0
  7  8  1  0  0  0
  7 15  2  0  0  0
  8  9  2  0  0  0
  9 10  1  0  0  0
 10 11  2  0  0  0
 10 14  1  0  0  0
 11 12  1  0  0  0
 12 13  2  0  0  0
 13 14  1  0  0  0
 14 15  1  0  0  0
M  END
> <minimizedAffinity>
-8.65258

$$$$
