CHEMBL3671531


 40 42  0  0  0  0  0  0  0  0999 V2000
  -29.5598   -5.0705   -7.0757 C   0  0  0  0  0  0  0  0  0  0  0  0
  -28.8341   -4.2937   -7.9784 C   0  0  0  0  0  0  0  0  0  0  0  0
  -28.4709   -2.9707   -7.6582 C   0  0  0  0  0  0  0  0  0  0  0  0
  -27.9577   -2.0426   -8.5784 C   0  0  0  0  0  0  0  0  0  0  0  0
  -27.6008   -0.7945   -8.2002 N   0  0  0  0  0  0  0  0  0  0  0  0
  -27.7838   -0.4736   -6.9197 C   0  0  0  0  0  0  0  0  0  0  0  0
  -28.3197   -1.2526   -5.9793 N   0  0  0  0  0  0  0  0  0  0  0  0
  -28.6823   -2.4814   -6.3501 C   0  0  0  0  0  0  0  0  0  0  0  0
  -29.3029   -3.3135   -5.4345 C   0  0  0  0  0  0  0  0  0  0  0  0
  -29.7371   -4.6062   -5.7659 C   0  0  0  0  0  0  0  0  0  0  0  0
  -29.4266   -7.4854   -7.3720 C   0  0  0  0  0  0  0  0  0  0  0  0
  -28.4062   -7.6526   -6.7171 O   0  0  0  0  0  0  0  0  0  0  0  0
  -30.0780   -6.2820   -7.5708 N   0  0  0  0  0  0  0  0  0  0  0  0
  -31.0820   -6.3478   -7.6986 H   0  0  0  0  0  0  0  0  0  0  0  0
  -31.3874   -8.9481   -7.6553 C   0  0  0  0  0  0  0  0  0  0  0  0
  -30.1407   -8.6202   -8.0192 C   0  0  0  0  0  0  0  0  0  0  0  0
  -27.9490   -2.3606   -9.9657 N   0  0  0  0  0  0  0  0  0  0  0  0
  -28.2205   -3.3177  -10.1548 H   0  0  0  0  0  0  0  0  0  0  0  0
  -27.0250   -1.8383  -10.8986 C   0  0  0  0  0  0  0  0  0  0  0  0
  -25.7375   -1.4708  -10.4831 C   0  0  0  0  0  0  0  0  0  0  0  0
  -24.7558   -1.1164  -11.4074 C   0  0  0  0  0  0  0  0  0  0  0  0
  -25.0610   -1.1121  -12.7654 C   0  0  0  0  0  0  0  0  0  0  0  0
  -23.6893   -0.7730  -14.0206 Br  0  0  0  0  0  0  0  0  0  0  0  0
  -26.3529   -1.3970  -13.2011 C   0  0  0  0  0  0  0  0  0  0  0  0
  -27.3247   -1.7499  -12.2643 C   0  0  0  0  0  0  0  0  0  0  0  0
  -28.5591   -2.0557  -12.6960 F   0  0  0  0  0  0  0  0  0  0  0  0
  -30.2393   -5.3011   -4.6970 O   0  0  0  0  0  0  0  0  0  0  0  0
  -29.2975   -5.8968   -3.8013 C   0  0  0  0  0  0  0  0  0  0  0  0
  -29.5505   -7.3778   -3.5028 C   0  0  0  0  0  0  0  0  0  0  0  0
  -28.3374   -8.1488   -3.5885 N   0  0  0  0  0  0  0  0  0  0  0  0
  -28.2837   -9.5159   -3.4935 C   0  0  0  0  0  0  0  0  0  0  0  0
  -29.2759  -10.2297   -3.3606 O   0  0  0  0  0  0  0  0  0  0  0  0
  -27.4497   -7.6414   -3.5853 H   0  0  0  0  0  0  0  0  0  0  0  0
  -26.8776  -10.0900   -3.4753 C   0  0  0  0  0  0  0  0  0  0  0  0
  -25.8248   -9.1975   -4.1487 C   0  0  0  0  0  0  0  0  0  0  0  0
  -24.4371   -9.7413   -4.1747 N   0  0  0  0  0  0  0  0  0  0  0  0
  -24.1182  -10.6175   -3.0325 C   0  0  0  0  0  0  0  0  0  0  0  0
  -22.6802  -11.1084   -2.9533 C   0  0  0  0  0  0  0  0  0  0  0  0
  -24.1857  -10.3562   -5.4913 C   0  0  0  0  0  0  0  0  0  0  0  0
  -23.0858   -9.6929   -6.3131 C   0  0  0  0  0  0  0  0  0  0  0  0
 15 16  2  0  0  0
 16 11  1  0  0  0
 11 12  2  0  0  0
 11 13  1  0  0  0
 13  1  1  0  0  0
 13 14  1  0  0  0
  1  2  1  0  0  0
  1 10  2  0  0  0
  2  3  2  0  0  0
  3  4  1  0  0  0
  3  8  1  0  0  0
  4 17  1  0  0  0
  4  5  2  0  0  0
 17 19  1  0  0  0
 17 18  1  0  0  0
 19 20  1  0  0  0
 19 25  2  0  0  0
 20 21  2  0  0  0
 21 22  1  0  0  0
 22 23  1  0  0  0
 22 24  2  0  0  0
 24 25  1  0  0  0
 25 26  1  0  0  0
  5  6  1  0  0  0
  6  7  2  0  0  0
  7  8  1  0  0  0
  8  9  2  0  0  0
  9 10  1  0  0  0
 10 27  1  0  0  0
 27 28  1  0  0  0
 28 29  1  0  0  0
 29 30  1  0  0  0
 30 31  1  0  0  0
 30 33  1  0  0  0
 31 32  2  0  0  0
 31 34  1  0  0  0
 34 35  1  0  0  0
 35 36  1  0  0  0
 36 37  1  0  0  0
 36 39  1  0  0  0
 37 38  1  0  0  0
 39 40  1  0  0  0
M  END
> <minimizedAffinity>
-8.71010

$$$$
