CHEMBL1290030


 34 38  0  0  0  0  0  0  0  0999 V2000
  -21.0773    1.3292  -14.7301 C   0  0  0  0  0  0  0  0  0  0  0  0
  -20.4952    2.5970  -14.6560 C   0  0  0  0  0  0  0  0  0  0  0  0
  -19.1328    2.7767  -15.0125 C   0  0  0  0  0  0  0  0  0  0  0  0
  -18.3420    1.6958  -15.4470 C   0  0  0  0  0  0  0  0  0  0  0  0
  -18.9291    0.4245  -15.4759 C   0  0  0  0  0  0  0  0  0  0  0  0
  -20.2723    0.2474  -15.1179 C   0  0  0  0  0  0  0  0  0  0  0  0
  -22.9412   -0.2881  -14.4588 N   0  0  0  0  0  0  0  0  0  0  0  0
  -22.4751    1.0151  -14.3004 C   0  0  0  0  0  0  0  0  0  0  0  0
  -23.0853    1.9268  -13.7584 O   0  0  0  0  0  0  0  0  0  0  0  0
  -22.3017   -1.0185  -14.7426 H   0  0  0  0  0  0  0  0  0  0  0  0
  -24.5959   -0.9110  -12.7427 C   0  0  0  0  0  0  0  0  0  0  0  0
  -25.8913   -1.3484  -12.3995 C   0  0  0  0  0  0  0  0  0  0  0  0
  -26.8378   -1.6401  -13.3797 C   0  0  0  0  0  0  0  0  0  0  0  0
  -26.4912   -1.5119  -14.7188 C   0  0  0  0  0  0  0  0  0  0  0  0
  -25.2177   -1.0692  -15.0767 C   0  0  0  0  0  0  0  0  0  0  0  0
  -24.2517   -0.7555  -14.1084 C   0  0  0  0  0  0  0  0  0  0  0  0
  -22.9160   -1.7088  -11.2571 C   0  0  0  0  0  0  0  0  0  0  0  0
  -23.6315   -0.6018  -11.8089 O   0  0  0  0  0  0  0  0  0  0  0  0
  -16.9096    1.8520  -15.9421 C   0  0  0  0  0  0  0  0  0  0  0  0
  -15.7304    2.2762  -14.6341 S   0  0  0  0  0  0  0  0  0  0  0  0
  -15.6098    0.7369  -13.7261 C   0  0  0  0  0  0  0  0  0  0  0  0
  -16.0543    0.6317  -12.4424 N   0  0  0  0  0  0  0  0  0  0  0  0
  -16.0127   -0.5484  -11.7558 N   0  0  0  0  0  0  0  0  0  0  0  0
  -15.6084   -1.6296  -12.4786 C   0  0  0  0  0  0  0  0  0  0  0  0
  -15.1616   -1.4301  -13.7775 C   0  0  0  0  0  0  0  0  0  0  0  0
  -15.0757   -0.2715  -14.4402 N   0  0  0  0  0  0  0  0  0  0  0  0
  -14.9513   -2.6574  -14.3284 N   0  0  0  0  0  0  0  0  0  0  0  0
  -15.6436   -3.5744  -13.5721 C   0  0  0  0  0  0  0  0  0  0  0  0
  -16.2535   -4.7746  -13.9333 C   0  0  0  0  0  0  0  0  0  0  0  0
  -16.8101   -5.5309  -12.9034 C   0  0  0  0  0  0  0  0  0  0  0  0
  -16.6353   -5.1602  -11.5694 C   0  0  0  0  0  0  0  0  0  0  0  0
  -16.0948   -3.9077  -11.2327 C   0  0  0  0  0  0  0  0  0  0  0  0
  -15.7196   -3.0402  -12.2807 C   0  0  0  0  0  0  0  0  0  0  0  0
  -14.6125   -2.8012  -15.2671 H   0  0  0  0  0  0  0  0  0  0  0  0
 17 18  1  0  0  0
 18 11  1  0  0  0
 11 12  1  0  0  0
 11 16  2  0  0  0
 12 13  2  0  0  0
 13 14  1  0  0  0
 14 15  2  0  0  0
 15 16  1  0  0  0
 16  7  1  0  0  0
  7  8  1  0  0  0
  7 10  1  0  0  0
  8  9  2  0  0  0
  8  1  1  0  0  0
  1  2  1  0  0  0
  1  6  2  0  0  0
  2  3  2  0  0  0
  3  4  1  0  0  0
  4 19  1  0  0  0
  4  5  2  0  0  0
 19 20  1  0  0  0
 20 21  1  0  0  0
 21 22  1  0  0  0
 21 26  2  0  0  0
 22 23  2  0  0  0
 23 24  1  0  0  0
 24 25  2  0  0  0
 24 33  1  0  0  0
 25 26  1  0  0  0
 25 27  1  0  0  0
 27 28  1  0  0  0
 27 34  1  0  0  0
 28 29  1  0  0  0
 28 33  2  0  0  0
 29 30  2  0  0  0
 30 31  1  0  0  0
 31 32  2  0  0  0
 32 33  1  0  0  0
  5  6  1  0  0  0
M  END
> <minimizedAffinity>
-10.64182

$$$$
