CHEMBL222728


 32 35  0  0  0  0  0  0  0  0999 V2000
  -13.5235   -3.5602  -10.9279 C   0  0  0  0  0  0  0  0  0  0  0  0
  -14.9134   -3.4879  -10.8207 C   0  0  0  0  0  0  0  0  0  0  0  0
  -15.6910   -2.8400  -11.7802 C   0  0  0  0  0  0  0  0  0  0  0  0
  -15.1301   -2.3460  -12.9556 C   0  0  0  0  0  0  0  0  0  0  0  0
  -13.7537   -2.5057  -13.1408 C   0  0  0  0  0  0  0  0  0  0  0  0
  -12.9628   -3.0883  -12.1302 C   0  0  0  0  0  0  0  0  0  0  0  0
  -12.3257   -6.5068  -12.1641 N   0  0  0  0  0  0  0  0  0  0  0  0
  -11.8180   -6.4245  -10.9278 C   0  0  0  0  0  0  0  0  0  0  0  0
  -11.0169   -7.3969  -10.4875 N   0  0  0  0  0  0  0  0  0  0  0  0
  -10.6965   -7.0076   -9.2586 N   0  0  0  0  0  0  0  0  0  0  0  0
  -11.2575   -5.8236   -8.8700 C   0  0  0  0  0  0  0  0  0  0  0  0
  -11.1352   -5.1302   -7.6562 C   0  0  0  0  0  0  0  0  0  0  0  0
  -11.8026   -3.9195   -7.5541 C   0  0  0  0  0  0  0  0  0  0  0  0
  -12.5601   -3.4293   -8.6091 C   0  0  0  0  0  0  0  0  0  0  0  0
  -12.7054   -4.1265   -9.8358 C   0  0  0  0  0  0  0  0  0  0  0  0
  -12.0138   -5.3796   -9.9566 C   0  0  0  0  0  0  0  0  0  0  0  0
  -12.1523   -7.3574  -12.6839 H   0  0  0  0  0  0  0  0  0  0  0  0
  -13.1681   -6.0166  -12.4389 H   0  0  0  0  0  0  0  0  0  0  0  0
  -10.0828   -7.6020   -8.7117 H   0  0  0  0  0  0  0  0  0  0  0  0
  -15.9032   -1.7365  -13.9738 N   0  0  0  0  0  0  0  0  0  0  0  0
  -16.3720   -0.4335  -13.9476 C   0  0  0  0  0  0  0  0  0  0  0  0
  -16.0706    0.4113  -13.1072 O   0  0  0  0  0  0  0  0  0  0  0  0
  -17.2768   -0.1807  -14.9683 N   0  0  0  0  0  0  0  0  0  0  0  0
  -16.0152   -2.2448  -14.8397 H   0  0  0  0  0  0  0  0  0  0  0  0
  -17.8608   -0.9704  -15.2045 H   0  0  0  0  0  0  0  0  0  0  0  0
  -17.8791    1.0978  -15.0720 C   0  0  0  0  0  0  0  0  0  0  0  0
  -17.1393    2.1518  -15.6107 C   0  0  0  0  0  0  0  0  0  0  0  0
  -17.7372    3.4015  -15.7970 C   0  0  0  0  0  0  0  0  0  0  0  0
  -19.0601    3.6130  -15.4051 C   0  0  0  0  0  0  0  0  0  0  0  0
  -19.7857    2.5684  -14.8385 C   0  0  0  0  0  0  0  0  0  0  0  0
  -21.5718    2.8589  -14.2879 Br  0  0  0  0  0  0  0  0  0  0  0  0
  -19.2067    1.3107  -14.6778 C   0  0  0  0  0  0  0  0  0  0  0  0
  7  8  1  0  0  0
  7 17  1  0  0  0
  7 18  1  0  0  0
  8  9  2  0  0  0
  8 16  1  0  0  0
  9 10  1  0  0  0
 10 11  1  0  0  0
 10 19  1  0  0  0
 11 12  1  0  0  0
 11 16  2  0  0  0
 12 13  2  0  0  0
 13 14  1  0  0  0
 14 15  2  0  0  0
 15  1  1  0  0  0
 15 16  1  0  0  0
  1  2  1  0  0  0
  1  6  2  0  0  0
  2  3  2  0  0  0
  3  4  1  0  0  0
  4 20  1  0  0  0
  4  5  2  0  0  0
 20 21  1  0  0  0
 20 24  1  0  0  0
 21 22  2  0  0  0
 21 23  1  0  0  0
 23 26  1  0  0  0
 23 25  1  0  0  0
 26 27  1  0  0  0
 26 32  2  0  0  0
 27 28  2  0  0  0
 28 29  1  0  0  0
 29 30  2  0  0  0
 30 31  1  0  0  0
 30 32  1  0  0  0
  5  6  1  0  0  0
M  END
> <minimizedAffinity>
-9.02556

$$$$
