CHEMBL2430247


 35 38  0  0  0  0  0  0  0  0999 V2000
  -28.6208  -10.0620   -6.4273 C   0  0  0  0  0  0  0  0  0  0  0  0
  -29.1874   -9.9865   -5.1603 C   0  0  0  0  0  0  0  0  0  0  0  0
  -29.5063  -11.0398   -4.1543 C   0  0  0  0  0  0  0  0  0  0  0  0
  -29.3924   -8.6396   -4.8674 N   0  0  0  0  0  0  0  0  0  0  0  0
  -28.9869   -7.8578   -5.9186 C   0  0  0  0  0  0  0  0  0  0  0  0
  -28.5307   -8.7175   -6.8972 C   0  0  0  0  0  0  0  0  0  0  0  0
  -28.0269   -8.3132   -8.2322 C   0  0  0  0  0  0  0  0  0  0  0  0
  -28.0078   -6.8216   -8.4872 C   0  0  0  0  0  0  0  0  0  0  0  0
  -28.5344   -5.8912   -7.3965 C   0  0  0  0  0  0  0  0  0  0  0  0
  -29.0071   -6.4285   -6.0477 C   0  0  0  0  0  0  0  0  0  0  0  0
  -29.3692   -5.5166   -5.1044 C   0  0  0  0  0  0  0  0  0  0  0  0
  -29.8244   -5.7431   -3.6733 C   0  0  0  0  0  0  0  0  0  0  0  0
  -30.0148   -6.7958   -3.0934 O   0  0  0  0  0  0  0  0  0  0  0  0
  -29.9961   -4.4790   -3.1240 N   0  0  0  0  0  0  0  0  0  0  0  0
  -29.7246   -3.4751   -4.0422 C   0  0  0  0  0  0  0  0  0  0  0  0
  -29.8042   -2.1042   -3.8132 C   0  0  0  0  0  0  0  0  0  0  0  0
  -29.5003   -1.2445   -4.8713 C   0  0  0  0  0  0  0  0  0  0  0  0
  -29.1448   -1.7701   -6.1076 C   0  0  0  0  0  0  0  0  0  0  0  0
  -28.8552   -0.9453   -7.1234 F   0  0  0  0  0  0  0  0  0  0  0  0
  -29.0793   -3.1465   -6.3186 C   0  0  0  0  0  0  0  0  0  0  0  0
  -29.3591   -4.0209   -5.2742 C   0  0  0  0  0  0  0  0  0  0  0  0
  -29.7615   -8.2893   -3.9884 H   0  0  0  0  0  0  0  0  0  0  0  0
  -30.2899   -4.3361   -2.1720 H   0  0  0  0  0  0  0  0  0  0  0  0
  -26.7704  -11.3430   -7.3032 N   0  0  0  0  0  0  0  0  0  0  0  0
  -28.1311  -11.2025   -7.2022 C   0  0  0  0  0  0  0  0  0  0  0  0
  -28.8990  -12.0318   -7.6872 O   0  0  0  0  0  0  0  0  0  0  0  0
  -26.1595  -10.6867   -6.8399 H   0  0  0  0  0  0  0  0  0  0  0  0
  -26.2096  -12.4647   -8.0251 C   0  0  0  0  0  0  0  0  0  0  0  0
  -24.7065  -12.3092   -8.2503 C   0  0  0  0  0  0  0  0  0  0  0  0
  -24.0651  -11.2655   -7.3268 C   0  0  0  0  0  0  0  0  0  0  0  0
  -23.2632  -11.8367   -6.2272 N   0  0  0  0  0  0  0  0  0  0  0  0
  -21.3126  -10.5975   -7.2421 C   0  0  0  0  0  0  0  0  0  0  0  0
  -21.8285  -11.8570   -6.5562 C   0  0  0  0  0  0  0  0  0  0  0  0
  -23.5819  -11.1938   -4.9420 C   0  0  0  0  0  0  0  0  0  0  0  0
  -24.4844   -9.9650   -5.0082 C   0  0  0  0  0  0  0  0  0  0  0  0
 32 33  1  0  0  0
 33 31  1  0  0  0
 31 34  1  0  0  0
 31 30  1  0  0  0
 34 35  1  0  0  0
 30 29  1  0  0  0
 29 28  1  0  0  0
 28 24  1  0  0  0
 24 25  1  0  0  0
 24 27  1  0  0  0
 25 26  2  0  0  0
 25  1  1  0  0  0
  1  2  2  0  0  0
  1  6  1  0  0  0
  2  3  1  0  0  0
  2  4  1  0  0  0
  4  5  1  0  0  0
  4 22  1  0  0  0
  5  6  2  0  0  0
  5 10  1  0  0  0
  6  7  1  0  0  0
  7  8  1  0  0  0
  8  9  1  0  0  0
  9 10  1  0  0  0
 10 11  2  0  0  0
 11 12  1  0  0  0
 11 21  1  0  0  0
 12 13  2  0  0  0
 12 14  1  0  0  0
 14 15  1  0  0  0
 14 23  1  0  0  0
 15 16  1  0  0  0
 15 21  2  0  0  0
 16 17  2  0  0  0
 17 18  1  0  0  0
 18 19  1  0  0  0
 18 20  2  0  0  0
 20 21  1  0  0  0
M  END
> <minimizedAffinity>
-7.43489

$$$$
