CHEMBL1289705


 36 40  0  0  0  0  0  0  0  0999 V2000
  -16.6646    1.7806  -15.9284 C   0  0  0  0  0  0  0  0  0  0  0  0
  -15.9353    2.9517  -15.9985 C   0  0  0  0  0  0  0  0  0  0  0  0
  -14.6487    2.6459  -16.5017 C   0  0  0  0  0  0  0  0  0  0  0  0
  -13.4644    3.3666  -16.7611 C   0  0  0  0  0  0  0  0  0  0  0  0
  -12.3830    2.6486  -17.2085 N   0  0  0  0  0  0  0  0  0  0  0  0
  -12.5098    1.3163  -17.3847 C   0  0  0  0  0  0  0  0  0  0  0  0
  -13.5939    0.5497  -17.1803 N   0  0  0  0  0  0  0  0  0  0  0  0
  -14.6282    1.2802  -16.7333 C   0  0  0  0  0  0  0  0  0  0  0  0
  -15.8546    0.7750  -16.4101 N   0  0  0  0  0  0  0  0  0  0  0  0
  -16.0895   -0.2035  -16.4595 H   0  0  0  0  0  0  0  0  0  0  0  0
  -20.6201    1.0809  -14.4857 C   0  0  0  0  0  0  0  0  0  0  0  0
  -20.0112    2.3356  -14.3150 C   0  0  0  0  0  0  0  0  0  0  0  0
  -18.7192    2.5751  -14.7793 C   0  0  0  0  0  0  0  0  0  0  0  0
  -17.9943    1.5473  -15.3845 C   0  0  0  0  0  0  0  0  0  0  0  0
  -18.5725    0.2749  -15.4913 C   0  0  0  0  0  0  0  0  0  0  0  0
  -19.8781    0.0464  -15.0642 C   0  0  0  0  0  0  0  0  0  0  0  0
  -22.0627    0.8537  -14.0836 C   0  0  0  0  0  0  0  0  0  0  0  0
  -25.2709   -0.4552  -12.7436 N   0  0  0  0  0  0  0  0  0  0  0  0
  -24.6520   -0.8200  -14.0387 C   0  0  0  0  0  0  0  0  0  0  0  0
  -23.1977   -1.3330  -13.9108 C   0  0  0  0  0  0  0  0  0  0  0  0
  -22.2804   -0.3643  -13.2752 N   0  0  0  0  0  0  0  0  0  0  0  0
  -22.8602   -0.0060  -11.9583 C   0  0  0  0  0  0  0  0  0  0  0  0
  -24.3506    0.4306  -11.9975 C   0  0  0  0  0  0  0  0  0  0  0  0
  -27.1618   -1.8126  -11.7658 C   0  0  0  0  0  0  0  0  0  0  0  0
  -25.6695   -1.6770  -12.0343 C   0  0  0  0  0  0  0  0  0  0  0  0
  -13.3289    4.8860  -16.5324 C   0  0  0  0  0  0  0  0  0  0  0  0
  -11.8697    5.2646  -16.1783 C   0  0  0  0  0  0  0  0  0  0  0  0
  -14.1333    5.2711  -15.3405 N   0  0  0  0  0  0  0  0  0  0  0  0
  -13.8785    6.2203  -15.0750 H   0  0  0  0  0  0  0  0  0  0  0  0
  -13.8429    4.6790  -14.5630 H   0  0  0  0  0  0  0  0  0  0  0  0
  -13.7504    5.6760  -17.7904 C   0  0  0  0  0  0  0  0  0  0  0  0
  -14.8130    5.2713  -18.6208 C   0  0  0  0  0  0  0  0  0  0  0  0
  -15.1662    6.0061  -19.7590 C   0  0  0  0  0  0  0  0  0  0  0  0
  -14.4590    7.1551  -20.0956 C   0  0  0  0  0  0  0  0  0  0  0  0
  -13.4009    7.5753  -19.2964 C   0  0  0  0  0  0  0  0  0  0  0  0
  -13.0497    6.8441  -18.1575 C   0  0  0  0  0  0  0  0  0  0  0  0
 24 25  1  0  0  0
 25 18  1  0  0  0
 18 19  1  0  0  0
 18 23  1  0  0  0
 19 20  1  0  0  0
 20 21  1  0  0  0
 21 17  1  0  0  0
 21 22  1  0  0  0
 17 11  1  0  0  0
 11 12  1  0  0  0
 11 16  2  0  0  0
 12 13  2  0  0  0
 13 14  1  0  0  0
 14  1  1  0  0  0
 14 15  2  0  0  0
  1  2  2  0  0  0
  1  9  1  0  0  0
  2  3  1  0  0  0
  3  4  1  0  0  0
  3  8  2  0  0  0
  4  5  2  0  0  0
 26 28  1  0  0  0
 26 31  1  0  0  0
 26 27  1  0  0  0
 26  4  1  0  0  0
 28 29  1  0  0  0
 28 30  1  0  0  0
 31 32  1  0  0  0
 31 36  2  0  0  0
 32 33  2  0  0  0
 33 34  1  0  0  0
 34 35  2  0  0  0
 35 36  1  0  0  0
  5  6  1  0  0  0
  6  7  2  0  0  0
  7  8  1  0  0  0
  8  9  1  0  0  0
  9 10  1  0  0  0
 15 16  1  0  0  0
 22 23  1  0  0  0
M  END
> <minimizedAffinity>
-8.14567

$$$$
