CHEMBL3964589


 37 40  0  0  0  0  0  0  0  0999 V2000
  -15.7001    2.4555  -16.5948 N   0  0  0  0  0  0  0  0  0  0  0  0
  -16.9135    2.2216  -15.8137 C   0  0  0  0  0  0  0  0  0  0  0  0
  -17.0055    0.9342  -15.3332 C   0  0  0  0  0  0  0  0  0  0  0  0
  -18.2259    0.4428  -15.0335 C   0  0  0  0  0  0  0  0  0  0  0  0
  -19.3800    1.1889  -15.1509 C   0  0  0  0  0  0  0  0  0  0  0  0
  -20.2555    0.2811  -15.4848 N   0  0  0  0  0  0  0  0  0  0  0  0
  -21.2592    0.2004  -14.6612 C   0  0  0  0  0  0  0  0  0  0  0  0
  -21.7619    1.2019  -13.8916 C   0  0  0  0  0  0  0  0  0  0  0  0
  -21.0242    2.4343  -14.0556 N   0  0  0  0  0  0  0  0  0  0  0  0
  -19.5503    2.4516  -14.8053 C   0  0  0  0  0  0  0  0  0  0  0  0
  -18.1316    3.0321  -15.4749 C   0  0  0  0  0  0  0  0  0  0  0  0
  -22.8722    0.5231  -12.9663 C   0  0  0  0  0  0  0  0  0  0  0  0
  -22.6043   -0.7290  -12.2277 C   0  0  0  0  0  0  0  0  0  0  0  0
  -23.6433   -1.3410  -11.6796 N   0  0  0  0  0  0  0  0  0  0  0  0
  -24.6606   -0.5350  -11.9712 N   0  0  0  0  0  0  0  0  0  0  0  0
  -25.9441   -0.9093  -11.3933 C   0  0  0  0  0  0  0  0  0  0  0  0
  -24.2681    0.5538  -12.7848 C   0  0  0  0  0  0  0  0  0  0  0  0
  -13.4293    5.4396  -16.2215 C   0  0  0  0  0  0  0  0  0  0  0  0
  -13.4580    5.9731  -17.5097 C   0  0  0  0  0  0  0  0  0  0  0  0
  -14.2149    5.3632  -18.4981 C   0  0  0  0  0  0  0  0  0  0  0  0
  -14.9747    4.2318  -18.1736 C   0  0  0  0  0  0  0  0  0  0  0  0
  -14.9902    3.6633  -16.8743 C   0  0  0  0  0  0  0  0  0  0  0  0
  -14.2085    4.3070  -15.9069 C   0  0  0  0  0  0  0  0  0  0  0  0
  -11.4240    5.2574  -14.9388 C   0  0  0  0  0  0  0  0  0  0  0  0
  -12.6509    5.9398  -15.2063 O   0  0  0  0  0  0  0  0  0  0  0  0
  -14.2716    5.7735  -19.8064 O   0  0  0  0  0  0  0  0  0  0  0  0
  -15.0313    6.9549  -20.0598 C   0  0  0  0  0  0  0  0  0  0  0  0
  -14.8260    1.1733  -16.9068 C   0  0  0  0  0  0  0  0  0  0  0  0
  -13.5941    0.7621  -15.9917 C   0  0  0  0  0  0  0  0  0  0  0  0
  -12.2768    1.1938  -16.7162 C   0  0  0  0  0  0  0  0  0  0  0  0
  -11.4193    0.1571  -16.8815 F   0  0  0  0  0  0  0  0  0  0  0  0
  -12.5027    1.6961  -17.9560 F   0  0  0  0  0  0  0  0  0  0  0  0
  -11.6020    2.1398  -16.0222 F   0  0  0  0  0  0  0  0  0  0  0  0
  -13.6155    1.3304  -14.6419 O   0  0  0  0  0  0  0  0  0  0  0  0
  -13.9944    0.4585  -13.6595 C   0  0  0  0  0  0  0  0  0  0  0  0
  -13.8108   -0.9883  -14.0284 C   0  0  0  0  0  0  0  0  0  0  0  0
  -14.4319    0.8098  -12.5707 O   0  0  0  0  0  0  0  0  0  0  0  0
 24 25  1  0  0  0
 25 18  1  0  0  0
 18 19  1  0  0  0
 18 23  2  0  0  0
 19 20  2  0  0  0
 20 26  1  0  0  0
 20 21  1  0  0  0
 26 27  1  0  0  0
 21 22  2  0  0  0
 22  1  1  0  0  0
 22 23  1  0  0  0
  1 28  1  0  0  0
  1  2  1  0  0  0
 29 30  1  0  0  0
 29 34  1  0  0  0
 29 28  1  0  0  0
 34 35  1  0  0  0
 35 36  1  0  0  0
 35 37  2  0  0  0
 30 31  1  0  0  0
 30 32  1  0  0  0
 30 33  1  0  0  0
  2  3  1  0  0  0
  2 11  2  0  0  0
  3  4  2  0  0  0
  4  5  1  0  0  0
  5  6  1  0  0  0
  5 10  2  0  0  0
  6  7  2  0  0  0
  7  8  1  0  0  0
  8 12  1  0  0  0
  8  9  2  0  0  0
 12 13  1  0  0  0
 12 17  2  0  0  0
 13 14  2  0  0  0
 14 15  1  0  0  0
 15 16  1  0  0  0
 15 17  1  0  0  0
  9 10  1  0  0  0
 10 11  1  0  0  0
M  END
> <minimizedAffinity>
-7.46509

$$$$
