CHEMBL3753226


 39 44  0  0  0  0  0  0  0  0999 V2000
  -26.3834   -0.7254  -12.3921 N   0  0  0  0  0  0  0  0  0  0  0  0
  -26.1569   -0.1286  -11.0470 C   0  0  0  0  0  0  0  0  0  0  0  0
  -26.0045   -1.1383   -9.8914 C   0  0  0  0  0  0  0  0  0  0  0  0
  -27.0617   -2.1418   -9.8768 N   0  0  0  0  0  0  0  0  0  0  0  0
  -27.4083   -2.7544  -11.1608 C   0  0  0  0  0  0  0  0  0  0  0  0
  -27.5370   -1.6604  -12.2468 C   0  0  0  0  0  0  0  0  0  0  0  0
  -27.6632   -2.6034   -8.7165 C   0  0  0  0  0  0  0  0  0  0  0  0
  -27.8751   -3.9414   -8.6434 N   0  0  0  0  0  0  0  0  0  0  0  0
  -28.5927   -4.4975   -7.6143 N   0  0  0  0  0  0  0  0  0  0  0  0
  -29.0655   -3.7336   -6.6069 C   0  0  0  0  0  0  0  0  0  0  0  0
  -28.7675   -2.3561   -6.5530 C   0  0  0  0  0  0  0  0  0  0  0  0
  -29.1088   -1.4994   -5.4579 C   0  0  0  0  0  0  0  0  0  0  0  0
  -28.9324   -0.1169   -5.4812 C   0  0  0  0  0  0  0  0  0  0  0  0
  -28.2938    0.4537   -6.5532 C   0  0  0  0  0  0  0  0  0  0  0  0
  -27.8178   -0.3724   -7.5615 C   0  0  0  0  0  0  0  0  0  0  0  0
  -28.0747   -1.7728   -7.6289 C   0  0  0  0  0  0  0  0  0  0  0  0
  -29.9487   -4.4663   -5.6575 C   0  0  0  0  0  0  0  0  0  0  0  0
  -30.5516   -3.8148   -4.5644 C   0  0  0  0  0  0  0  0  0  0  0  0
  -31.3771   -4.5046   -3.6662 C   0  0  0  0  0  0  0  0  0  0  0  0
  -31.6413   -5.8586   -3.8533 C   0  0  0  0  0  0  0  0  0  0  0  0
  -31.0510   -6.5316   -4.9123 C   0  0  0  0  0  0  0  0  0  0  0  0
  -30.1816   -5.8518   -5.7660 C   0  0  0  0  0  0  0  0  0  0  0  0
  -25.1282   -1.3914  -12.8119 C   0  0  0  0  0  0  0  0  0  0  0  0
  -24.2238   -0.6735  -14.8710 O   0  0  0  0  0  0  0  0  0  0  0  0
  -24.1822   -0.5454  -13.6467 C   0  0  0  0  0  0  0  0  0  0  0  0
  -23.2758    0.2185  -12.9475 N   0  0  0  0  0  0  0  0  0  0  0  0
  -23.1418    0.0766  -11.9581 H   0  0  0  0  0  0  0  0  0  0  0  0
  -22.4157    1.0267  -13.6389 C   0  0  0  0  0  0  0  0  0  0  0  0
  -21.2215    0.7268  -14.0751 N   0  0  0  0  0  0  0  0  0  0  0  0
  -20.5815    1.8606  -14.5219 C   0  0  0  0  0  0  0  0  0  0  0  0
  -21.3639    3.0014  -14.5088 C   0  0  0  0  0  0  0  0  0  0  0  0
  -22.9452    2.6171  -13.9360 S   0  0  0  0  0  0  0  0  0  0  0  0
  -19.2041    1.7936  -14.9893 C   0  0  0  0  0  0  0  0  0  0  0  0
  -18.6227    2.9308  -15.5730 C   0  0  0  0  0  0  0  0  0  0  0  0
  -17.2856    2.9209  -15.9784 C   0  0  0  0  0  0  0  0  0  0  0  0
  -16.5286    1.7634  -15.8215 C   0  0  0  0  0  0  0  0  0  0  0  0
  -14.8706    1.7564  -16.2800 Cl  0  0  0  0  0  0  0  0  0  0  0  0
  -17.1042    0.6109  -15.2892 C   0  0  0  0  0  0  0  0  0  0  0  0
  -18.4409    0.6241  -14.8777 C   0  0  0  0  0  0  0  0  0  0  0  0
 24 25  2  0  0  0
 25 23  1  0  0  0
 25 26  1  0  0  0
 23  1  1  0  0  0
  1  2  1  0  0  0
  1  6  1  0  0  0
  2  3  1  0  0  0
  3  4  1  0  0  0
  4  7  1  0  0  0
  4  5  1  0  0  0
  7  8  1  0  0  0
  7 16  2  0  0  0
  8  9  2  0  0  0
  9 10  1  0  0  0
 10 17  1  0  0  0
 10 11  2  0  0  0
 17 18  1  0  0  0
 17 22  2  0  0  0
 18 19  2  0  0  0
 19 20  1  0  0  0
 20 21  2  0  0  0
 21 22  1  0  0  0
 11 12  1  0  0  0
 11 16  1  0  0  0
 12 13  2  0  0  0
 13 14  1  0  0  0
 14 15  2  0  0  0
 15 16  1  0  0  0
  5  6  1  0  0  0
 26 28  1  0  0  0
 26 27  1  0  0  0
 28 29  2  0  0  0
 28 32  1  0  0  0
 29 30  1  0  0  0
 30 33  1  0  0  0
 30 31  2  0  0  0
 33 34  1  0  0  0
 33 39  2  0  0  0
 34 35  2  0  0  0
 35 36  1  0  0  0
 36 37  1  0  0  0
 36 38  2  0  0  0
 38 39  1  0  0  0
 31 32  1  0  0  0
M  END
> <minimizedAffinity>
-9.75352

$$$$
