CHEMBL1079422


 38 42  0  0  0  0  0  0  0  0999 V2000
  -28.5546   -9.6379   -5.2801 N   0  0  0  0  0  0  0  0  0  0  0  0
  -29.1227  -10.4618   -5.0858 H   0  0  0  0  0  0  0  0  0  0  0  0
  -27.2077   -9.8524   -5.3736 C   0  0  0  0  0  0  0  0  0  0  0  0
  -26.3066   -9.7043   -4.4256 N   0  0  0  0  0  0  0  0  0  0  0  0
  -25.1199  -10.1224   -4.9384 C   0  0  0  0  0  0  0  0  0  0  0  0
  -23.8707  -10.1751   -4.3021 C   0  0  0  0  0  0  0  0  0  0  0  0
  -22.7649  -10.6415   -5.0150 C   0  0  0  0  0  0  0  0  0  0  0  0
  -22.8936  -11.0047   -6.3523 C   0  0  0  0  0  0  0  0  0  0  0  0
  -24.1288  -10.9288   -7.0101 C   0  0  0  0  0  0  0  0  0  0  0  0
  -25.2527  -10.5271   -6.2623 C   0  0  0  0  0  0  0  0  0  0  0  0
  -26.6128  -10.3646   -6.5380 N   0  0  0  0  0  0  0  0  0  0  0  0
  -27.2930  -10.6732   -7.7561 C   0  0  0  0  0  0  0  0  0  0  0  0
  -27.1682   -9.8246   -8.8388 C   0  0  0  0  0  0  0  0  0  0  0  0
  -27.8156  -10.1923   -9.9966 C   0  0  0  0  0  0  0  0  0  0  0  0
  -27.6139   -9.4660  -11.1668 N   0  0  0  0  0  0  0  0  0  0  0  0
  -28.5687  -11.2912  -10.0842 N   0  0  0  0  0  0  0  0  0  0  0  0
  -28.6300  -12.0566   -8.9863 C   0  0  0  0  0  0  0  0  0  0  0  0
  -27.9956  -11.8290   -7.8252 N   0  0  0  0  0  0  0  0  0  0  0  0
  -27.7518   -8.4690  -11.0575 H   0  0  0  0  0  0  0  0  0  0  0  0
  -28.1946   -9.8632  -11.9007 H   0  0  0  0  0  0  0  0  0  0  0  0
  -31.0278  -10.2747   -6.7823 C   0  0  0  0  0  0  0  0  0  0  0  0
  -30.3791   -8.9180   -6.7588 C   0  0  0  0  0  0  0  0  0  0  0  0
  -30.9203   -7.9236   -7.5870 C   0  0  0  0  0  0  0  0  0  0  0  0
  -30.4946   -6.6007   -7.4954 C   0  0  0  0  0  0  0  0  0  0  0  0
  -29.5631   -6.2293   -6.5336 C   0  0  0  0  0  0  0  0  0  0  0  0
  -28.9583   -7.2388   -5.7724 C   0  0  0  0  0  0  0  0  0  0  0  0
  -29.2815   -8.6036   -5.9297 C   0  0  0  0  0  0  0  0  0  0  0  0
  -29.1931   -4.8868   -6.2790 N   0  0  0  0  0  0  0  0  0  0  0  0
  -29.7792   -4.0380   -5.3560 C   0  0  0  0  0  0  0  0  0  0  0  0
  -30.7447   -4.2866   -4.6409 O   0  0  0  0  0  0  0  0  0  0  0  0
  -28.4296   -4.5343   -6.8428 H   0  0  0  0  0  0  0  0  0  0  0  0
  -29.1871   -2.6765   -5.2392 C   0  0  0  0  0  0  0  0  0  0  0  0
  -27.8013   -2.5919   -5.0351 C   0  0  0  0  0  0  0  0  0  0  0  0
  -27.1699   -1.3540   -4.9571 C   0  0  0  0  0  0  0  0  0  0  0  0
  -27.9144   -0.1823   -5.1012 C   0  0  0  0  0  0  0  0  0  0  0  0
  -29.2895   -0.2669   -5.3246 C   0  0  0  0  0  0  0  0  0  0  0  0
  -30.1999    1.1800   -5.5331 Cl  0  0  0  0  0  0  0  0  0  0  0  0
  -29.9371   -1.5059   -5.3965 C   0  0  0  0  0  0  0  0  0  0  0  0
 21 22  1  0  0  0
 22 23  1  0  0  0
 22 27  2  0  0  0
 23 24  2  0  0  0
 24 25  1  0  0  0
 25 28  1  0  0  0
 25 26  2  0  0  0
 28 29  1  0  0  0
 28 31  1  0  0  0
 29 30  2  0  0  0
 29 32  1  0  0  0
 32 33  1  0  0  0
 32 38  2  0  0  0
 33 34  2  0  0  0
 34 35  1  0  0  0
 35 36  2  0  0  0
 36 37  1  0  0  0
 36 38  1  0  0  0
 26 27  1  0  0  0
 27  1  1  0  0  0
  1  3  1  0  0  0
  1  2  1  0  0  0
  3  4  2  0  0  0
  3 11  1  0  0  0
  4  5  1  0  0  0
  5  6  1  0  0  0
  5 10  2  0  0  0
  6  7  2  0  0  0
  7  8  1  0  0  0
  8  9  2  0  0  0
  9 10  1  0  0  0
 10 11  1  0  0  0
 11 12  1  0  0  0
 12 13  1  0  0  0
 12 18  2  0  0  0
 13 14  2  0  0  0
 14 15  1  0  0  0
 14 16  1  0  0  0
 15 19  1  0  0  0
 15 20  1  0  0  0
 16 17  2  0  0  0
 17 18  1  0  0  0
M  END
> <minimizedAffinity>
-9.45707

$$$$
