CHEMBL3969381


 37 41  0  0  0  0  0  0  0  0999 V2000
  -29.2825   -9.4604   -5.4818 N   0  0  0  0  0  0  0  0  0  0  0  0
  -29.0752   -7.9974   -5.4602 C   0  0  0  0  0  0  0  0  0  0  0  0
  -27.8285   -7.7166   -4.9616 C   0  0  0  0  0  0  0  0  0  0  0  0
  -27.5144   -6.5569   -4.4145 C   0  0  0  0  0  0  0  0  0  0  0  0
  -28.3785   -5.5448   -4.3841 C   0  0  0  0  0  0  0  0  0  0  0  0
  -28.0797   -4.6170   -3.4917 N   0  0  0  0  0  0  0  0  0  0  0  0
  -28.7574   -3.5031   -3.3610 C   0  0  0  0  0  0  0  0  0  0  0  0
  -29.5593   -3.1232   -4.4141 C   0  0  0  0  0  0  0  0  0  0  0  0
  -30.0841   -4.1650   -5.2444 N   0  0  0  0  0  0  0  0  0  0  0  0
  -29.5480   -5.4844   -5.1453 C   0  0  0  0  0  0  0  0  0  0  0  0
  -29.9745   -6.8213   -5.6996 C   0  0  0  0  0  0  0  0  0  0  0  0
  -29.1970   -1.6333   -4.7347 C   0  0  0  0  0  0  0  0  0  0  0  0
  -27.8542   -1.1334   -4.6191 C   0  0  0  0  0  0  0  0  0  0  0  0
  -27.7231    0.0270   -5.2418 N   0  0  0  0  0  0  0  0  0  0  0  0
  -28.8970    0.3423   -5.7370 N   0  0  0  0  0  0  0  0  0  0  0  0
  -29.0274    1.4423   -6.6819 C   0  0  0  0  0  0  0  0  0  0  0  0
  -29.8388   -0.5916   -5.4031 C   0  0  0  0  0  0  0  0  0  0  0  0
  -31.6245  -11.5364   -7.6205 C   0  0  0  0  0  0  0  0  0  0  0  0
  -30.8476  -11.7028   -8.7708 C   0  0  0  0  0  0  0  0  0  0  0  0
  -29.5841  -11.1142   -8.8884 C   0  0  0  0  0  0  0  0  0  0  0  0
  -29.0813  -10.3704   -7.8073 C   0  0  0  0  0  0  0  0  0  0  0  0
  -29.8018  -10.2462   -6.5871 C   0  0  0  0  0  0  0  0  0  0  0  0
  -31.0853  -10.8292   -6.5167 C   0  0  0  0  0  0  0  0  0  0  0  0
  -33.6942  -12.2564   -6.5299 C   0  0  0  0  0  0  0  0  0  0  0  0
  -32.8842  -12.0553   -7.6308 O   0  0  0  0  0  0  0  0  0  0  0  0
  -28.8310  -11.2425  -10.0220 O   0  0  0  0  0  0  0  0  0  0  0  0
  -28.9505  -10.4681  -11.1658 C   0  0  0  0  0  0  0  0  0  0  0  0
  -29.1570  -10.1087   -4.1143 C   0  0  0  0  0  0  0  0  0  0  0  0
  -28.4827  -11.5349   -3.9117 C   0  0  0  0  0  0  0  0  0  0  0  0
  -27.1085  -11.7963   -3.1864 C   0  0  0  0  0  0  0  0  0  0  0  0
  -25.8795  -11.4520   -3.9559 N   0  0  0  0  0  0  0  0  0  0  0  0
  -25.9121  -11.5111   -5.4391 C   0  0  0  0  0  0  0  0  0  0  0  0
  -25.2993  -10.1902   -5.9437 C   0  0  0  0  0  0  0  0  0  0  0  0
  -24.4129   -9.7620   -4.7992 C   0  0  0  0  0  0  0  0  0  0  0  0
  -25.3433  -10.1155   -3.6349 C   0  0  0  0  0  0  0  0  0  0  0  0
  -23.1982  -10.5965   -4.7857 C   0  0  0  0  0  0  0  0  0  0  0  0
  -22.2196  -11.2230   -4.7723 N   0  0  0  0  0  0  0  0  0  0  0  0
 24 25  1  0  0  0
 25 18  1  0  0  0
 18 19  1  0  0  0
 18 23  2  0  0  0
 19 20  2  0  0  0
 20 26  1  0  0  0
 20 21  1  0  0  0
 26 27  1  0  0  0
 21 22  2  0  0  0
 22  1  1  0  0  0
 22 23  1  0  0  0
  1 28  1  0  0  0
  1  2  1  0  0  0
 28 29  1  0  0  0
 29 30  1  0  0  0
 30 31  1  0  0  0
 31 32  1  0  0  0
 31 35  1  0  0  0
 32 33  1  0  0  0
 33 34  1  0  0  0
 34 36  1  0  0  0
 34 35  1  0  0  0
 36 37  3  0  0  0
  2  3  1  0  0  0
  2 11  2  0  0  0
  3  4  2  0  0  0
  4  5  1  0  0  0
  5  6  1  0  0  0
  5 10  2  0  0  0
  6  7  2  0  0  0
  7  8  1  0  0  0
  8 12  1  0  0  0
  8  9  2  0  0  0
 12 13  1  0  0  0
 12 17  2  0  0  0
 13 14  2  0  0  0
 14 15  1  0  0  0
 15 16  1  0  0  0
 15 17  1  0  0  0
  9 10  1  0  0  0
 10 11  1  0  0  0
M  END
> <minimizedAffinity>
-7.70917

$$$$
