CHEMBL3690407


 36 39  0  0  0  0  0  0  0  0999 V2000
  -23.6409    0.1056  -13.2787 C   0  0  0  0  0  0  0  0  0  0  0  0
  -22.3839   -0.5894  -13.5583 C   0  0  0  0  0  0  0  0  0  0  0  0
  -21.3003    0.1093  -13.9350 C   0  0  0  0  0  0  0  0  0  0  0  0
  -21.3848    1.4959  -14.1125 N   0  0  0  0  0  0  0  0  0  0  0  0
  -20.4404    2.4395  -14.5318 C   0  0  0  0  0  0  0  0  0  0  0  0
  -21.1223    3.6440  -14.4443 C   0  0  0  0  0  0  0  0  0  0  0  0
  -22.4160    3.4877  -14.0304 N   0  0  0  0  0  0  0  0  0  0  0  0
  -22.5675    2.1934  -13.8620 C   0  0  0  0  0  0  0  0  0  0  0  0
  -23.7069    1.4474  -13.4395 C   0  0  0  0  0  0  0  0  0  0  0  0
  -19.0759    2.1857  -15.0291 C   0  0  0  0  0  0  0  0  0  0  0  0
  -18.3701    3.1955  -15.6921 C   0  0  0  0  0  0  0  0  0  0  0  0
  -17.0788    2.9861  -16.1533 C   0  0  0  0  0  0  0  0  0  0  0  0
  -16.4359    1.7854  -15.8833 C   0  0  0  0  0  0  0  0  0  0  0  0
  -17.0561    0.7776  -15.1472 C   0  0  0  0  0  0  0  0  0  0  0  0
  -18.4035    0.9676  -14.7625 C   0  0  0  0  0  0  0  0  0  0  0  0
  -16.3710   -0.4061  -14.7528 N   0  0  0  0  0  0  0  0  0  0  0  0
  -15.9202   -0.6775  -13.4772 C   0  0  0  0  0  0  0  0  0  0  0  0
  -16.0217    0.0375  -12.4887 O   0  0  0  0  0  0  0  0  0  0  0  0
  -15.2322   -1.8683  -13.3805 N   0  0  0  0  0  0  0  0  0  0  0  0
  -16.2765   -1.1304  -15.4488 H   0  0  0  0  0  0  0  0  0  0  0  0
  -15.4672   -2.6076  -14.0264 H   0  0  0  0  0  0  0  0  0  0  0  0
  -14.7032   -2.2420  -12.0599 C   0  0  0  0  0  0  0  0  0  0  0  0
  -15.6276   -3.0694  -11.1512 C   0  0  0  0  0  0  0  0  0  0  0  0
  -14.9623   -4.0326  -10.4753 F   0  0  0  0  0  0  0  0  0  0  0  0
  -16.1949   -2.2597  -10.2200 F   0  0  0  0  0  0  0  0  0  0  0  0
  -16.6354   -3.6523  -11.8345 F   0  0  0  0  0  0  0  0  0  0  0  0
  -25.7866   -1.1784  -13.5040 C   0  0  0  0  0  0  0  0  0  0  0  0
  -26.9398   -1.9496  -12.4784 S   0  0  0  0  0  0  0  0  0  0  0  0
  -26.0383   -1.6177  -11.0710 C   0  0  0  0  0  0  0  0  0  0  0  0
  -24.8898   -0.9172  -11.3518 C   0  0  0  0  0  0  0  0  0  0  0  0
  -24.7515   -0.6401  -12.7503 C   0  0  0  0  0  0  0  0  0  0  0  0
  -27.2723   -1.1396  -15.3964 N   0  0  0  0  0  0  0  0  0  0  0  0
  -25.9740   -1.1614  -14.9496 C   0  0  0  0  0  0  0  0  0  0  0  0
  -25.0695   -1.1761  -15.7775 O   0  0  0  0  0  0  0  0  0  0  0  0
  -27.4292   -1.1435  -16.3932 H   0  0  0  0  0  0  0  0  0  0  0  0
  -28.0526   -1.1385  -14.7588 H   0  0  0  0  0  0  0  0  0  0  0  0
 32 33  1  0  0  0
 32 35  1  0  0  0
 32 36  1  0  0  0
 33 34  2  0  0  0
 33 27  1  0  0  0
 27 28  1  0  0  0
 27 31  2  0  0  0
 28 29  1  0  0  0
 29 30  2  0  0  0
 30 31  1  0  0  0
 31  1  1  0  0  0
  1  2  1  0  0  0
  1  9  2  0  0  0
  2  3  2  0  0  0
  3  4  1  0  0  0
  4  5  1  0  0  0
  4  8  1  0  0  0
  5 10  1  0  0  0
  5  6  2  0  0  0
 10 11  1  0  0  0
 10 15  2  0  0  0
 11 12  2  0  0  0
 12 13  1  0  0  0
 13 14  2  0  0  0
 14 16  1  0  0  0
 14 15  1  0  0  0
 16 17  1  0  0  0
 16 20  1  0  0  0
 17 18  2  0  0  0
 17 19  1  0  0  0
 19 22  1  0  0  0
 19 21  1  0  0  0
 22 23  1  0  0  0
 23 24  1  0  0  0
 23 25  1  0  0  0
 23 26  1  0  0  0
  6  7  1  0  0  0
  7  8  2  0  0  0
  8  9  1  0  0  0
M  END
> <minimizedAffinity>
-9.84174

$$$$
