CHEMBL1994693


 32 36  0  0  0  0  0  0  0  0999 V2000
  -15.5262    5.2074  -16.9798 N   0  0  0  0  0  0  0  0  0  0  0  0
  -14.4188    4.3733  -16.9292 C   0  0  0  0  0  0  0  0  0  0  0  0
  -13.3190    4.8827  -17.5224 N   0  0  0  0  0  0  0  0  0  0  0  0
  -12.1906    4.1618  -17.5269 C   0  0  0  0  0  0  0  0  0  0  0  0
  -12.0010    2.9686  -16.9798 N   0  0  0  0  0  0  0  0  0  0  0  0
  -13.1107    2.4878  -16.3955 C   0  0  0  0  0  0  0  0  0  0  0  0
  -13.0373    0.9691  -15.6375 S   0  0  0  0  0  0  0  0  0  0  0  0
  -14.6574    1.0698  -15.1683 C   0  0  0  0  0  0  0  0  0  0  0  0
  -15.3013    2.2126  -15.6241 C   0  0  0  0  0  0  0  0  0  0  0  0
  -14.3648    3.0954  -16.3221 C   0  0  0  0  0  0  0  0  0  0  0  0
  -16.7414    2.2971  -15.3066 C   0  0  0  0  0  0  0  0  0  0  0  0
  -17.6300    3.0490  -16.0660 C   0  0  0  0  0  0  0  0  0  0  0  0
  -18.9939    3.0873  -15.7481 C   0  0  0  0  0  0  0  0  0  0  0  0
  -19.5311    2.3284  -14.7033 C   0  0  0  0  0  0  0  0  0  0  0  0
  -18.6584    1.5409  -13.9534 C   0  0  0  0  0  0  0  0  0  0  0  0
  -17.2757    1.5086  -14.2505 C   0  0  0  0  0  0  0  0  0  0  0  0
  -16.3647    0.6030  -13.4529 C   0  0  0  0  0  0  0  0  0  0  0  0
  -15.2954   -0.0151  -14.3585 C   0  0  0  0  0  0  0  0  0  0  0  0
  -15.2654    6.1250  -17.3257 H   0  0  0  0  0  0  0  0  0  0  0  0
  -16.1132    5.2019  -16.1568 H   0  0  0  0  0  0  0  0  0  0  0  0
  -20.9151    2.2998  -14.3814 N   0  0  0  0  0  0  0  0  0  0  0  0
  -21.6115    1.1821  -13.9687 C   0  0  0  0  0  0  0  0  0  0  0  0
  -21.1070    0.0844  -13.7625 O   0  0  0  0  0  0  0  0  0  0  0  0
  -22.9784    1.4199  -13.8479 N   0  0  0  0  0  0  0  0  0  0  0  0
  -21.3893    3.1882  -14.3048 H   0  0  0  0  0  0  0  0  0  0  0  0
  -23.3471    2.0655  -14.5302 H   0  0  0  0  0  0  0  0  0  0  0  0
  -23.8212    0.3297  -13.5085 C   0  0  0  0  0  0  0  0  0  0  0  0
  -24.2833   -0.5574  -14.4892 C   0  0  0  0  0  0  0  0  0  0  0  0
  -25.2770   -1.4879  -14.1895 C   0  0  0  0  0  0  0  0  0  0  0  0
  -25.8030   -1.5443  -12.9021 C   0  0  0  0  0  0  0  0  0  0  0  0
  -25.2957   -0.7100  -11.9044 C   0  0  0  0  0  0  0  0  0  0  0  0
  -24.2847    0.2106  -12.1976 C   0  0  0  0  0  0  0  0  0  0  0  0
  1  2  1  0  0  0
  1 19  1  0  0  0
  1 20  1  0  0  0
  2  3  1  0  0  0
  2 10  2  0  0  0
  3  4  2  0  0  0
  4  5  1  0  0  0
  5  6  2  0  0  0
  6  7  1  0  0  0
  6 10  1  0  0  0
  7  8  1  0  0  0
  8  9  2  0  0  0
  8 18  1  0  0  0
  9 10  1  0  0  0
  9 11  1  0  0  0
 11 12  1  0  0  0
 11 16  2  0  0  0
 12 13  2  0  0  0
 13 14  1  0  0  0
 14 21  1  0  0  0
 14 15  2  0  0  0
 21 22  1  0  0  0
 21 25  1  0  0  0
 22 23  2  0  0  0
 22 24  1  0  0  0
 24 27  1  0  0  0
 24 26  1  0  0  0
 27 28  1  0  0  0
 27 32  2  0  0  0
 28 29  2  0  0  0
 29 30  1  0  0  0
 30 31  2  0  0  0
 31 32  1  0  0  0
 15 16  1  0  0  0
 16 17  1  0  0  0
 17 18  1  0  0  0
M  END
> <minimizedAffinity>
-9.43111

$$$$
