CHEMBL4789492


 51 57  0  0  0  0  0  0  0  0999 V2000
  -30.1232   -3.5556   -3.9679 C   0  0  0  0  0  0  0  0  0  0  0  0
  -31.1333   -4.3996   -4.4308 C   0  0  0  0  0  0  0  0  0  0  0  0
  -30.9245   -5.7765   -4.5162 C   0  0  0  0  0  0  0  0  0  0  0  0
  -29.6803   -6.3372   -4.2018 C   0  0  0  0  0  0  0  0  0  0  0  0
  -28.6722   -5.4866   -3.7311 C   0  0  0  0  0  0  0  0  0  0  0  0
  -28.8920   -4.1136   -3.6216 C   0  0  0  0  0  0  0  0  0  0  0  0
  -27.8902   -3.3274   -3.1898 F   0  0  0  0  0  0  0  0  0  0  0  0
  -29.4868   -7.7184   -4.4175 N   0  0  0  0  0  0  0  0  0  0  0  0
  -29.8393   -8.3064   -3.6591 H   0  0  0  0  0  0  0  0  0  0  0  0
  -29.5238   -8.4130   -5.6477 C   0  0  0  0  0  0  0  0  0  0  0  0
  -30.6256   -8.2956   -6.4307 N   0  0  0  0  0  0  0  0  0  0  0  0
  -30.6506   -8.9041   -7.6318 C   0  0  0  0  0  0  0  0  0  0  0  0
  -29.6056   -9.6525   -8.1295 C   0  0  0  0  0  0  0  0  0  0  0  0
  -28.4739   -9.8032   -7.3357 C   0  0  0  0  0  0  0  0  0  0  0  0
  -27.3663  -10.5188   -7.8129 N   0  0  0  0  0  0  0  0  0  0  0  0
  -26.2633  -10.7085   -7.0259 C   0  0  0  0  0  0  0  0  0  0  0  0
  -26.1020  -10.2079   -5.7925 C   0  0  0  0  0  0  0  0  0  0  0  0
  -27.2297   -9.4018   -5.2223 C   0  0  0  0  0  0  0  0  0  0  0  0
  -27.1987   -8.9928   -4.0640 O   0  0  0  0  0  0  0  0  0  0  0  0
  -28.4260   -9.1697   -6.0805 C   0  0  0  0  0  0  0  0  0  0  0  0
  -27.4781  -11.1065   -8.6323 H   0  0  0  0  0  0  0  0  0  0  0  0
  -24.9018  -10.5335   -5.0135 C   0  0  0  0  0  0  0  0  0  0  0  0
  -24.9685  -10.7056   -3.6236 C   0  0  0  0  0  0  0  0  0  0  0  0
  -23.8087  -10.9893   -2.8963 C   0  0  0  0  0  0  0  0  0  0  0  0
  -22.5903  -11.0934   -3.5588 C   0  0  0  0  0  0  0  0  0  0  0  0
  -21.4799  -11.3619   -2.8602 F   0  0  0  0  0  0  0  0  0  0  0  0
  -22.5068  -10.9211   -4.9351 C   0  0  0  0  0  0  0  0  0  0  0  0
  -23.6634  -10.6406   -5.6641 C   0  0  0  0  0  0  0  0  0  0  0  0
  -30.2474   -2.1852   -3.9057 O   0  0  0  0  0  0  0  0  0  0  0  0
  -28.9466   -3.5441   -7.7437 C   0  0  0  0  0  0  0  0  0  0  0  0
  -29.4423   -3.1093   -6.5097 C   0  0  0  0  0  0  0  0  0  0  0  0
  -28.9815   -1.9084   -5.9171 C   0  0  0  0  0  0  0  0  0  0  0  0
  -29.3583   -1.4266   -4.6584 C   0  0  0  0  0  0  0  0  0  0  0  0
  -28.8876   -0.2855   -4.1128 N   0  0  0  0  0  0  0  0  0  0  0  0
  -28.0550    0.4128   -4.8768 C   0  0  0  0  0  0  0  0  0  0  0  0
  -27.6210    0.0617   -6.0951 N   0  0  0  0  0  0  0  0  0  0  0  0
  -28.0705   -1.0961   -6.5941 C   0  0  0  0  0  0  0  0  0  0  0  0
  -27.6340   -1.5064   -7.8459 C   0  0  0  0  0  0  0  0  0  0  0  0
  -28.0710   -2.6982   -8.4406 C   0  0  0  0  0  0  0  0  0  0  0  0
  -28.4866   -5.8958   -7.9677 C   0  0  0  0  0  0  0  0  0  0  0  0
  -29.2584   -4.7481   -8.3054 O   0  0  0  0  0  0  0  0  0  0  0  0
  -27.5185   -2.9161   -9.6822 O   0  0  0  0  0  0  0  0  0  0  0  0
  -26.8507   -1.8065  -10.2889 C   0  0  0  0  0  0  0  0  0  0  0  0
  -26.8810   -1.9502  -11.8139 C   0  0  0  0  0  0  0  0  0  0  0  0
  -25.9098   -1.0010  -12.5290 C   0  0  0  0  0  0  0  0  0  0  0  0
  -24.8323   -1.7058  -13.2529 N   0  0  0  0  0  0  0  0  0  0  0  0
  -23.7119   -2.0446  -12.3413 C   0  0  0  0  0  0  0  0  0  0  0  0
  -22.8182   -0.8459  -11.9713 C   0  0  0  0  0  0  0  0  0  0  0  0
  -22.3067   -0.1919  -13.1394 O   0  0  0  0  0  0  0  0  0  0  0  0
  -23.3793    0.2328  -13.9896 C   0  0  0  0  0  0  0  0  0  0  0  0
  -24.2685   -0.9532  -14.3957 C   0  0  0  0  0  0  0  0  0  0  0  0
 40 41  1  0  0  0
 41 30  1  0  0  0
 30 31  1  0  0  0
 30 39  2  0  0  0
 31 32  2  0  0  0
 32 33  1  0  0  0
 32 37  1  0  0  0
 33 29  1  0  0  0
 33 34  2  0  0  0
 29  1  1  0  0  0
  1  2  1  0  0  0
  1  6  2  0  0  0
  2  3  2  0  0  0
  3  4  1  0  0  0
  4  8  1  0  0  0
  4  5  2  0  0  0
  8 10  1  0  0  0
  8  9  1  0  0  0
 10 11  1  0  0  0
 10 20  2  0  0  0
 11 12  2  0  0  0
 12 13  1  0  0  0
 13 14  2  0  0  0
 14 15  1  0  0  0
 14 20  1  0  0  0
 15 16  1  0  0  0
 15 21  1  0  0  0
 16 17  2  0  0  0
 17 22  1  0  0  0
 17 18  1  0  0  0
 22 23  1  0  0  0
 22 28  2  0  0  0
 23 24  2  0  0  0
 24 25  1  0  0  0
 25 26  1  0  0  0
 25 27  2  0  0  0
 27 28  1  0  0  0
 18 19  2  0  0  0
 18 20  1  0  0  0
  5  6  1  0  0  0
  6  7  1  0  0  0
 34 35  1  0  0  0
 35 36  2  0  0  0
 36 37  1  0  0  0
 37 38  2  0  0  0
 38 39  1  0  0  0
 39 42  1  0  0  0
 42 43  1  0  0  0
 43 44  1  0  0  0
 44 45  1  0  0  0
 45 46  1  0  0  0
 46 47  1  0  0  0
 46 51  1  0  0  0
 47 48  1  0  0  0
 48 49  1  0  0  0
 49 50  1  0  0  0
 50 51  1  0  0  0
M  END
> <minimizedAffinity>
-10.75761

$$$$
