CHEMBL410903


 34 38  0  0  0  0  0  0  0  0999 V2000
  -27.2380   -1.7618  -10.5652 C   0  0  0  0  0  0  0  0  0  0  0  0
  -25.9253   -1.5769  -10.1530 C   0  0  0  0  0  0  0  0  0  0  0  0
  -24.9611   -1.2047  -11.0981 C   0  0  0  0  0  0  0  0  0  0  0  0
  -25.2218   -1.2025  -12.4976 C   0  0  0  0  0  0  0  0  0  0  0  0
  -24.3052   -0.7972  -13.5203 C   0  0  0  0  0  0  0  0  0  0  0  0
  -24.6955   -0.8488  -14.8709 C   0  0  0  0  0  0  0  0  0  0  0  0
  -25.9606   -1.2965  -15.2401 C   0  0  0  0  0  0  0  0  0  0  0  0
  -26.8679   -1.6572  -14.2497 C   0  0  0  0  0  0  0  0  0  0  0  0
  -26.5281   -1.5982  -12.8952 C   0  0  0  0  0  0  0  0  0  0  0  0
  -27.5168   -1.8642  -11.9280 C   0  0  0  0  0  0  0  0  0  0  0  0
  -22.9497   -0.1987  -13.2916 C   0  0  0  0  0  0  0  0  0  0  0  0
  -22.3697   -0.4033  -12.2285 O   0  0  0  0  0  0  0  0  0  0  0  0
  -22.4205    0.6100  -14.2766 N   0  0  0  0  0  0  0  0  0  0  0  0
  -23.0528    0.9785  -14.9739 H   0  0  0  0  0  0  0  0  0  0  0  0
  -21.1491    1.2763  -14.0924 C   0  0  0  0  0  0  0  0  0  0  0  0
  -21.2499    2.7735  -14.3590 C   0  0  0  0  0  0  0  0  0  0  0  0
  -19.8207    3.2114  -14.6600 C   0  0  0  0  0  0  0  0  0  0  0  0
  -19.0568    1.9467  -15.0544 C   0  0  0  0  0  0  0  0  0  0  0  0
  -20.0903    0.8278  -15.0929 C   0  0  0  0  0  0  0  0  0  0  0  0
  -28.3224   -1.7698   -9.7199 O   0  0  0  0  0  0  0  0  0  0  0  0
  -29.0703   -5.1764   -5.8365 C   0  0  0  0  0  0  0  0  0  0  0  0
  -28.5724   -3.9568   -5.3365 C   0  0  0  0  0  0  0  0  0  0  0  0
  -28.2413   -2.8896   -6.1543 C   0  0  0  0  0  0  0  0  0  0  0  0
  -27.9450   -1.7100   -5.5739 N   0  0  0  0  0  0  0  0  0  0  0  0
  -27.7518   -0.6409   -6.3599 C   0  0  0  0  0  0  0  0  0  0  0  0
  -27.8620   -0.6683   -7.7335 C   0  0  0  0  0  0  0  0  0  0  0  0
  -28.1596   -1.8859   -8.3459 C   0  0  0  0  0  0  0  0  0  0  0  0
  -28.2856   -3.0575   -7.5464 C   0  0  0  0  0  0  0  0  0  0  0  0
  -28.5090   -4.3699   -8.0213 C   0  0  0  0  0  0  0  0  0  0  0  0
  -29.0132   -5.3939   -7.2087 C   0  0  0  0  0  0  0  0  0  0  0  0
  -30.8884   -5.8753   -4.4885 C   0  0  0  0  0  0  0  0  0  0  0  0
  -29.5858   -6.1426   -5.0148 O   0  0  0  0  0  0  0  0  0  0  0  0
  -29.4301   -6.4532   -7.9614 O   0  0  0  0  0  0  0  0  0  0  0  0
  -28.6466   -7.6264   -8.0631 C   0  0  0  0  0  0  0  0  0  0  0  0
 31 32  1  0  0  0
 32 21  1  0  0  0
 21 22  1  0  0  0
 21 30  2  0  0  0
 22 23  2  0  0  0
 23 24  1  0  0  0
 23 28  1  0  0  0
 24 25  2  0  0  0
 25 26  1  0  0  0
 26 27  2  0  0  0
 27 20  1  0  0  0
 27 28  1  0  0  0
 20  1  1  0  0  0
  1  2  1  0  0  0
  1 10  2  0  0  0
  2  3  2  0  0  0
  3  4  1  0  0  0
  4  5  1  0  0  0
  4  9  2  0  0  0
  5 11  1  0  0  0
  5  6  2  0  0  0
 11 12  2  0  0  0
 11 13  1  0  0  0
 13 15  1  0  0  0
 13 14  1  0  0  0
 15 16  1  0  0  0
 15 19  1  0  0  0
 16 17  1  0  0  0
 17 18  1  0  0  0
 18 19  1  0  0  0
  6  7  1  0  0  0
  7  8  2  0  0  0
  8  9  1  0  0  0
  9 10  1  0  0  0
 28 29  2  0  0  0
 29 30  1  0  0  0
 30 33  1  0  0  0
 33 34  1  0  0  0
M  END
> <minimizedAffinity>
-11.32500

$$$$
