CHEMBL29197


 23 25  0  0  0  0  0  0  0  0999 V2000
  -27.7679   -1.6518   -5.4510 C   0  0  0  0  0  0  0  0  0  0  0  0
  -28.0594   -2.5369   -4.3962 C   0  0  0  0  0  0  0  0  0  0  0  0
  -28.4794   -3.8428   -4.6105 C   0  0  0  0  0  0  0  0  0  0  0  0
  -28.6459   -4.6499   -3.5594 N   0  0  0  0  0  0  0  0  0  0  0  0
  -28.9952   -5.9128   -3.8243 C   0  0  0  0  0  0  0  0  0  0  0  0
  -29.1852   -6.4364   -5.0363 N   0  0  0  0  0  0  0  0  0  0  0  0
  -29.0131   -5.6151   -6.0877 C   0  0  0  0  0  0  0  0  0  0  0  0
  -28.6750   -4.2645   -5.9250 C   0  0  0  0  0  0  0  0  0  0  0  0
  -28.5165   -3.3424   -6.9825 C   0  0  0  0  0  0  0  0  0  0  0  0
  -28.0533   -2.0434   -6.7618 C   0  0  0  0  0  0  0  0  0  0  0  0
  -28.1682    0.6283   -4.9520 C   0  0  0  0  0  0  0  0  0  0  0  0
  -27.2259   -0.4169   -5.2097 O   0  0  0  0  0  0  0  0  0  0  0  0
  -29.1259   -6.1460   -7.4049 N   0  0  0  0  0  0  0  0  0  0  0  0
  -28.2102   -6.1287   -7.8433 H   0  0  0  0  0  0  0  0  0  0  0  0
  -29.8531   -7.3092   -7.7336 C   0  0  0  0  0  0  0  0  0  0  0  0
  -31.1743   -7.4716   -7.2943 C   0  0  0  0  0  0  0  0  0  0  0  0
  -31.8845   -8.6403   -7.5677 C   0  0  0  0  0  0  0  0  0  0  0  0
  -31.2759   -9.6603   -8.2967 C   0  0  0  0  0  0  0  0  0  0  0  0
  -29.9776   -9.4959   -8.7615 C   0  0  0  0  0  0  0  0  0  0  0  0
  -29.1524  -10.8867   -9.7458 Br  0  0  0  0  0  0  0  0  0  0  0  0
  -29.2667   -8.3238   -8.5000 C   0  0  0  0  0  0  0  0  0  0  0  0
  -27.9300   -1.3557   -7.9339 O   0  0  0  0  0  0  0  0  0  0  0  0
  -27.6719   -2.0539   -9.1385 C   0  0  0  0  0  0  0  0  0  0  0  0
 11 12  1  0  0  0
 12  1  1  0  0  0
  1  2  1  0  0  0
  1 10  2  0  0  0
  2  3  2  0  0  0
  3  4  1  0  0  0
  3  8  1  0  0  0
  4  5  2  0  0  0
  5  6  1  0  0  0
  6  7  2  0  0  0
  7 13  1  0  0  0
  7  8  1  0  0  0
 13 15  1  0  0  0
 13 14  1  0  0  0
 15 16  1  0  0  0
 15 21  2  0  0  0
 16 17  2  0  0  0
 17 18  1  0  0  0
 18 19  2  0  0  0
 19 20  1  0  0  0
 19 21  1  0  0  0
  8  9  2  0  0  0
  9 10  1  0  0  0
 10 22  1  0  0  0
 22 23  1  0  0  0
M  END
> <minimizedAffinity>
-7.63177

$$$$
