CHEMBL194270


 32 35  0  0  0  0  0  0  0  0999 V2000
  -13.4767   -4.0346  -11.7947 C   0  0  0  0  0  0  0  0  0  0  0  0
  -14.8546   -4.1068  -11.6077 C   0  0  0  0  0  0  0  0  0  0  0  0
  -15.7397   -3.4412  -12.4588 C   0  0  0  0  0  0  0  0  0  0  0  0
  -15.2800   -2.5748  -13.4501 C   0  0  0  0  0  0  0  0  0  0  0  0
  -13.9017   -2.4160  -13.5880 C   0  0  0  0  0  0  0  0  0  0  0  0
  -13.0138   -3.1703  -12.7970 C   0  0  0  0  0  0  0  0  0  0  0  0
  -12.5510   -3.2392   -8.8735 C   0  0  0  0  0  0  0  0  0  0  0  0
  -12.2174   -4.4668   -9.6627 C   0  0  0  0  0  0  0  0  0  0  0  0
  -11.2314   -5.6308   -8.8847 S   0  0  0  0  0  0  0  0  0  0  0  0
  -11.3091   -6.6918  -10.1984 C   0  0  0  0  0  0  0  0  0  0  0  0
  -10.6988   -7.8847  -10.1043 N   0  0  0  0  0  0  0  0  0  0  0  0
  -10.8377   -8.6172  -11.2032 C   0  0  0  0  0  0  0  0  0  0  0  0
  -11.4718   -8.2722  -12.3279 N   0  0  0  0  0  0  0  0  0  0  0  0
  -12.0588   -7.0609  -12.3982 C   0  0  0  0  0  0  0  0  0  0  0  0
  -12.6520   -6.7988  -13.6250 N   0  0  0  0  0  0  0  0  0  0  0  0
  -12.0262   -6.1906  -11.2777 C   0  0  0  0  0  0  0  0  0  0  0  0
  -12.5797   -4.8597  -10.9521 C   0  0  0  0  0  0  0  0  0  0  0  0
  -12.3778   -7.4942  -14.3103 H   0  0  0  0  0  0  0  0  0  0  0  0
  -12.6120   -5.8365  -13.9321 H   0  0  0  0  0  0  0  0  0  0  0  0
  -16.1393   -1.8653  -14.3212 N   0  0  0  0  0  0  0  0  0  0  0  0
  -16.5584   -0.5628  -14.1378 C   0  0  0  0  0  0  0  0  0  0  0  0
  -16.1968    0.1704  -13.2243 O   0  0  0  0  0  0  0  0  0  0  0  0
  -17.4919   -0.1631  -15.0850 N   0  0  0  0  0  0  0  0  0  0  0  0
  -16.4162   -2.3202  -15.1785 H   0  0  0  0  0  0  0  0  0  0  0  0
  -18.1622   -0.8787  -15.3328 H   0  0  0  0  0  0  0  0  0  0  0  0
  -18.0432    1.1407  -14.9626 C   0  0  0  0  0  0  0  0  0  0  0  0
  -19.2920    1.3496  -14.3637 C   0  0  0  0  0  0  0  0  0  0  0  0
  -19.9006    2.6034  -14.4250 C   0  0  0  0  0  0  0  0  0  0  0  0
  -19.2602    3.6541  -15.0815 C   0  0  0  0  0  0  0  0  0  0  0  0
  -17.9927    3.4648  -15.6357 C   0  0  0  0  0  0  0  0  0  0  0  0
  -17.3823    2.2160  -15.5545 C   0  0  0  0  0  0  0  0  0  0  0  0
  -16.1891    2.0256  -16.1358 F   0  0  0  0  0  0  0  0  0  0  0  0
  7  8  1  0  0  0
  8  9  1  0  0  0
  8 17  2  0  0  0
  9 10  1  0  0  0
 10 11  1  0  0  0
 10 16  2  0  0  0
 11 12  2  0  0  0
 12 13  1  0  0  0
 13 14  2  0  0  0
 14 15  1  0  0  0
 14 16  1  0  0  0
 15 18  1  0  0  0
 15 19  1  0  0  0
 16 17  1  0  0  0
 17  1  1  0  0  0
  1  2  1  0  0  0
  1  6  2  0  0  0
  2  3  2  0  0  0
  3  4  1  0  0  0
  4 20  1  0  0  0
  4  5  2  0  0  0
 20 21  1  0  0  0
 20 24  1  0  0  0
 21 22  2  0  0  0
 21 23  1  0  0  0
 23 26  1  0  0  0
 23 25  1  0  0  0
 26 27  1  0  0  0
 26 31  2  0  0  0
 27 28  2  0  0  0
 28 29  1  0  0  0
 29 30  2  0  0  0
 30 31  1  0  0  0
 31 32  1  0  0  0
  5  6  1  0  0  0
M  END
> <minimizedAffinity>
-7.66393

$$$$
