CHEMBL3968631


 43 47  0  0  0  0  0  0  0  0999 V2000
  -26.0007   -1.5576   -9.3662 O   0  0  0  0  0  0  0  0  0  0  0  0
  -26.8527   -1.9857  -10.1358 C   0  0  0  0  0  0  0  0  0  0  0  0
  -26.7451   -2.0299  -11.5242 N   0  0  0  0  0  0  0  0  0  0  0  0
  -28.0895   -2.4529   -9.6985 N   0  0  0  0  0  0  0  0  0  0  0  0
  -27.5893   -2.1958  -12.0488 H   0  0  0  0  0  0  0  0  0  0  0  0
  -28.8347   -2.3888  -10.3746 H   0  0  0  0  0  0  0  0  0  0  0  0
  -25.6145   -1.6080  -12.2679 C   0  0  0  0  0  0  0  0  0  0  0  0
  -25.6774   -1.3743  -13.6391 C   0  0  0  0  0  0  0  0  0  0  0  0
  -24.5256   -1.0948  -14.3719 C   0  0  0  0  0  0  0  0  0  0  0  0
  -23.2970   -0.9307  -13.7327 C   0  0  0  0  0  0  0  0  0  0  0  0
  -23.2264   -1.1199  -12.3511 C   0  0  0  0  0  0  0  0  0  0  0  0
  -24.3823   -1.4510  -11.6188 C   0  0  0  0  0  0  0  0  0  0  0  0
  -22.1246   -0.6235  -14.4004 O   0  0  0  0  0  0  0  0  0  0  0  0
  -21.6951    0.6885  -14.4361 C   0  0  0  0  0  0  0  0  0  0  0  0
  -22.4435    1.7483  -13.9385 C   0  0  0  0  0  0  0  0  0  0  0  0
  -21.9631    3.0199  -14.1061 C   0  0  0  0  0  0  0  0  0  0  0  0
  -20.7679    3.2886  -14.6548 N   0  0  0  0  0  0  0  0  0  0  0  0
  -19.9959    2.2640  -15.0630 C   0  0  0  0  0  0  0  0  0  0  0  0
  -20.4271    0.9491  -14.9750 C   0  0  0  0  0  0  0  0  0  0  0  0
  -18.7258    2.5492  -15.5917 N   0  0  0  0  0  0  0  0  0  0  0  0
  -17.5407    2.1665  -14.9907 C   0  0  0  0  0  0  0  0  0  0  0  0
  -17.3888    1.5529  -13.9456 O   0  0  0  0  0  0  0  0  0  0  0  0
  -18.6882    3.0785  -16.4444 H   0  0  0  0  0  0  0  0  0  0  0  0
  -16.2842    2.5569  -15.6979 C   0  0  0  0  0  0  0  0  0  0  0  0
  -15.5234    1.5157  -16.4873 C   0  0  0  0  0  0  0  0  0  0  0  0
  -14.8771    2.1842  -15.3091 C   0  0  0  0  0  0  0  0  0  0  0  0
  -28.4652   -2.3132   -8.3435 C   0  0  0  0  0  0  0  0  0  0  0  0
  -28.7392   -3.4577   -7.5871 C   0  0  0  0  0  0  0  0  0  0  0  0
  -29.0959   -3.3472   -6.2401 C   0  0  0  0  0  0  0  0  0  0  0  0
  -29.1180   -2.0841   -5.6392 C   0  0  0  0  0  0  0  0  0  0  0  0
  -28.7953   -0.9307   -6.3739 C   0  0  0  0  0  0  0  0  0  0  0  0
  -28.5101   -1.0542   -7.7432 C   0  0  0  0  0  0  0  0  0  0  0  0
  -28.6889    0.4164   -5.7064 C   0  0  0  0  0  0  0  0  0  0  0  0
  -29.8593    0.8492   -5.1583 F   0  0  0  0  0  0  0  0  0  0  0  0
  -27.7870    0.4081   -4.6832 F   0  0  0  0  0  0  0  0  0  0  0  0
  -28.2844    1.4021   -6.5523 F   0  0  0  0  0  0  0  0  0  0  0  0
  -29.4305   -4.3878   -5.4114 O   0  0  0  0  0  0  0  0  0  0  0  0
  -30.1185   -5.4863   -6.0173 C   0  0  0  0  0  0  0  0  0  0  0  0
  -30.7109   -6.3604   -4.9274 C   0  0  0  0  0  0  0  0  0  0  0  0
  -31.3733   -5.6584   -3.7269 C   0  0  0  0  0  0  0  0  0  0  0  0
  -30.7180   -6.6414   -2.8327 N   0  0  0  0  0  0  0  0  0  0  0  0
  -29.7057   -6.8874   -3.8817 C   0  0  0  0  0  0  0  0  0  0  0  0
  -31.3027   -7.4559   -2.6395 H   0  0  0  0  0  0  0  0  0  0  0  0
  1  2  2  0  0  0
  2  3  1  0  0  0
  2  4  1  0  0  0
  3  7  1  0  0  0
  3  5  1  0  0  0
  7  8  1  0  0  0
  7 12  2  0  0  0
  8  9  2  0  0  0
  9 10  1  0  0  0
 10 13  1  0  0  0
 10 11  2  0  0  0
 13 14  1  0  0  0
 14 15  1  0  0  0
 14 19  2  0  0  0
 15 16  2  0  0  0
 16 17  1  0  0  0
 17 18  2  0  0  0
 18 20  1  0  0  0
 18 19  1  0  0  0
 20 21  1  0  0  0
 20 23  1  0  0  0
 21 22  2  0  0  0
 21 24  1  0  0  0
 24 25  1  0  0  0
 24 26  1  0  0  0
 25 26  1  0  0  0
 11 12  1  0  0  0
  4 27  1  0  0  0
  4  6  1  0  0  0
 27 28  1  0  0  0
 27 32  2  0  0  0
 28 29  2  0  0  0
 29 37  1  0  0  0
 29 30  1  0  0  0
 37 38  1  0  0  0
 38 39  1  0  0  0
 39 40  1  0  0  0
 39 42  1  0  0  0
 40 41  1  0  0  0
 41 42  1  0  0  0
 41 43  1  0  0  0
 30 31  2  0  0  0
 31 33  1  0  0  0
 31 32  1  0  0  0
 33 34  1  0  0  0
 33 35  1  0  0  0
 33 36  1  0  0  0
M  END
> <minimizedAffinity>
-11.68647

$$$$
