CHEMBL3694678


 35 38  0  0  0  0  0  0  0  0999 V2000
  -28.6832   -7.8301   -4.0572 C   0  0  0  0  0  0  0  0  0  0  0  0
  -27.7123   -6.9156   -4.6688 C   0  0  0  0  0  0  0  0  0  0  0  0
  -28.0390   -5.6340   -4.9031 C   0  0  0  0  0  0  0  0  0  0  0  0
  -29.3224   -5.1712   -4.6135 N   0  0  0  0  0  0  0  0  0  0  0  0
  -29.9297   -3.9284   -4.8228 C   0  0  0  0  0  0  0  0  0  0  0  0
  -31.1950   -4.0884   -4.2775 C   0  0  0  0  0  0  0  0  0  0  0  0
  -31.3990   -5.3529   -3.7918 N   0  0  0  0  0  0  0  0  0  0  0  0
  -30.2759   -5.9960   -4.0158 C   0  0  0  0  0  0  0  0  0  0  0  0
  -29.9164   -7.3516   -3.7419 C   0  0  0  0  0  0  0  0  0  0  0  0
  -29.3524   -2.7630   -5.5233 C   0  0  0  0  0  0  0  0  0  0  0  0
  -29.5548   -1.4724   -5.0202 C   0  0  0  0  0  0  0  0  0  0  0  0
  -29.0509   -0.3592   -5.6786 C   0  0  0  0  0  0  0  0  0  0  0  0
  -28.2587   -0.5196   -6.8027 C   0  0  0  0  0  0  0  0  0  0  0  0
  -27.9452   -1.7900   -7.2930 C   0  0  0  0  0  0  0  0  0  0  0  0
  -28.5306   -2.9116   -6.6633 C   0  0  0  0  0  0  0  0  0  0  0  0
  -27.0550   -1.9803   -8.3826 N   0  0  0  0  0  0  0  0  0  0  0  0
  -27.3446   -1.7344   -9.7139 C   0  0  0  0  0  0  0  0  0  0  0  0
  -28.4037   -1.3181  -10.1743 O   0  0  0  0  0  0  0  0  0  0  0  0
  -26.3130   -2.0595  -10.5628 N   0  0  0  0  0  0  0  0  0  0  0  0
  -26.1253   -2.3001   -8.1649 H   0  0  0  0  0  0  0  0  0  0  0  0
  -25.3724   -1.9640  -10.2113 H   0  0  0  0  0  0  0  0  0  0  0  0
  -26.5214   -1.8391  -12.0070 C   0  0  0  0  0  0  0  0  0  0  0  0
  -25.2937   -1.3996  -12.8213 C   0  0  0  0  0  0  0  0  0  0  0  0
  -24.2629   -2.2669  -12.7045 F   0  0  0  0  0  0  0  0  0  0  0  0
  -25.6131   -1.3475  -14.1401 F   0  0  0  0  0  0  0  0  0  0  0  0
  -24.8545   -0.1723  -12.4711 F   0  0  0  0  0  0  0  0  0  0  0  0
  -27.4250  -11.3783   -3.3669 C   0  0  0  0  0  0  0  0  0  0  0  0
  -28.7329  -11.3857   -3.2405 N   0  0  0  0  0  0  0  0  0  0  0  0
  -29.3017  -10.1504   -3.4639 N   0  0  0  0  0  0  0  0  0  0  0  0
  -28.4129   -9.2089   -3.7410 C   0  0  0  0  0  0  0  0  0  0  0  0
  -26.7883   -9.8214   -3.7093 S   0  0  0  0  0  0  0  0  0  0  0  0
  -26.6005  -12.4537   -3.2853 N   0  0  0  0  0  0  0  0  0  0  0  0
  -27.0360  -13.3098   -2.9580 H   0  0  0  0  0  0  0  0  0  0  0  0
  -25.2434  -12.4653   -1.2613 C   0  0  0  0  0  0  0  0  0  0  0  0
  -25.2637  -12.2192   -2.7603 C   0  0  0  0  0  0  0  0  0  0  0  0
 34 35  1  0  0  0
 35 32  1  0  0  0
 32 27  1  0  0  0
 32 33  1  0  0  0
 27 28  2  0  0  0
 27 31  1  0  0  0
 28 29  1  0  0  0
 29 30  2  0  0  0
 30  1  1  0  0  0
 30 31  1  0  0  0
  1  2  1  0  0  0
  1  9  2  0  0  0
  2  3  2  0  0  0
  3  4  1  0  0  0
  4  5  1  0  0  0
  4  8  1  0  0  0
  5 10  1  0  0  0
  5  6  2  0  0  0
 10 11  1  0  0  0
 10 15  2  0  0  0
 11 12  2  0  0  0
 12 13  1  0  0  0
 13 14  2  0  0  0
 14 16  1  0  0  0
 14 15  1  0  0  0
 16 17  1  0  0  0
 16 20  1  0  0  0
 17 18  2  0  0  0
 17 19  1  0  0  0
 19 22  1  0  0  0
 19 21  1  0  0  0
 22 23  1  0  0  0
 23 24  1  0  0  0
 23 25  1  0  0  0
 23 26  1  0  0  0
  6  7  1  0  0  0
  7  8  2  0  0  0
  8  9  1  0  0  0
M  END
> <minimizedAffinity>
-8.80025

$$$$
