CHEMBL3920908


 32 35  0  0  0  0  0  0  0  0999 V2000
  -29.4008   -8.9532   -6.9034 N   0  0  0  0  0  0  0  0  0  0  0  0
  -29.3949   -7.6434   -6.3196 C   0  0  0  0  0  0  0  0  0  0  0  0
  -29.1732   -6.6328   -7.2034 C   0  0  0  0  0  0  0  0  0  0  0  0
  -29.2661   -5.3811   -6.7530 C   0  0  0  0  0  0  0  0  0  0  0  0
  -29.4389   -5.0399   -5.4613 C   0  0  0  0  0  0  0  0  0  0  0  0
  -28.5921   -4.1158   -5.3283 N   0  0  0  0  0  0  0  0  0  0  0  0
  -29.1389   -2.9394   -5.3894 C   0  0  0  0  0  0  0  0  0  0  0  0
  -29.5588   -2.3889   -4.2536 C   0  0  0  0  0  0  0  0  0  0  0  0
  -29.9516   -3.8742   -3.7046 N   0  0  0  0  0  0  0  0  0  0  0  0
  -29.8099   -5.5044   -4.3189 C   0  0  0  0  0  0  0  0  0  0  0  0
  -29.6837   -7.1677   -4.8940 C   0  0  0  0  0  0  0  0  0  0  0  0
  -29.1096   -0.8024   -5.0402 C   0  0  0  0  0  0  0  0  0  0  0  0
  -29.9129    0.3819   -5.6832 C   0  0  0  0  0  0  0  0  0  0  0  0
  -29.2449    1.4565   -6.1539 N   0  0  0  0  0  0  0  0  0  0  0  0
  -27.9735    1.1638   -5.9181 N   0  0  0  0  0  0  0  0  0  0  0  0
  -27.8517   -0.1194   -5.2651 C   0  0  0  0  0  0  0  0  0  0  0  0
  -27.2635    1.8690   -6.2099 H   0  0  0  0  0  0  0  0  0  0  0  0
  -28.2380   -9.6751   -7.2645 C   0  0  0  0  0  0  0  0  0  0  0  0
  -27.9028   -9.8612   -8.6085 C   0  0  0  0  0  0  0  0  0  0  0  0
  -26.7191  -10.4300   -9.0328 C   0  0  0  0  0  0  0  0  0  0  0  0
  -25.7946  -10.7855   -8.0716 C   0  0  0  0  0  0  0  0  0  0  0  0
  -26.0400  -10.5322   -6.7210 C   0  0  0  0  0  0  0  0  0  0  0  0
  -27.3088  -10.1076   -6.3169 C   0  0  0  0  0  0  0  0  0  0  0  0
  -26.3804  -10.5908  -10.3480 O   0  0  0  0  0  0  0  0  0  0  0  0
  -27.1404   -9.8261  -11.2911 C   0  0  0  0  0  0  0  0  0  0  0  0
  -25.0742  -10.6115   -5.7505 O   0  0  0  0  0  0  0  0  0  0  0  0
  -23.8369   -9.9679   -6.0678 C   0  0  0  0  0  0  0  0  0  0  0  0
  -30.6839   -9.8026   -6.7811 C   0  0  0  0  0  0  0  0  0  0  0  0
  -31.4804   -9.9006   -8.0988 C   0  0  0  0  0  0  0  0  0  0  0  0
  -32.9224   -8.3303   -7.0810 C   0  0  0  0  0  0  0  0  0  0  0  0
  -32.8706   -9.4553   -8.0144 N   0  0  0  0  0  0  0  0  0  0  0  0
  -33.1794   -9.1606   -8.9350 H   0  0  0  0  0  0  0  0  0  0  0  0
 30 31  1  0  0  0
 31 29  1  0  0  0
 31 32  1  0  0  0
 29 28  1  0  0  0
 28  1  1  0  0  0
  1 18  1  0  0  0
  1  2  1  0  0  0
 18 19  1  0  0  0
 18 23  2  0  0  0
 19 20  2  0  0  0
 20 24  1  0  0  0
 20 21  1  0  0  0
 24 25  1  0  0  0
 21 22  2  0  0  0
 22 26  1  0  0  0
 22 23  1  0  0  0
 26 27  1  0  0  0
  2  3  1  0  0  0
  2 11  2  0  0  0
  3  4  2  0  0  0
  4  5  1  0  0  0
  5  6  1  0  0  0
  5 10  2  0  0  0
  6  7  2  0  0  0
  7  8  1  0  0  0
  8 12  1  0  0  0
  8  9  2  0  0  0
 12 13  1  0  0  0
 12 16  2  0  0  0
 13 14  2  0  0  0
 14 15  1  0  0  0
 15 16  1  0  0  0
 15 17  1  0  0  0
  9 10  1  0  0  0
 10 11  1  0  0  0
M  END
> <minimizedAffinity>
-8.30863

$$$$
