CHEMBL3676391


 41 43  0  0  0  0  0  0  0  0999 V2000
  -28.8292   -5.7606   -5.6238 C   0  0  0  0  0  0  0  0  0  0  0  0
  -28.3703   -7.0025   -5.1769 C   0  0  0  0  0  0  0  0  0  0  0  0
  -28.3181   -8.1119   -6.0372 C   0  0  0  0  0  0  0  0  0  0  0  0
  -28.0446   -9.4232   -5.6227 C   0  0  0  0  0  0  0  0  0  0  0  0
  -27.9903  -10.4440   -6.5012 N   0  0  0  0  0  0  0  0  0  0  0  0
  -28.2298  -10.1506   -7.7783 C   0  0  0  0  0  0  0  0  0  0  0  0
  -28.5658   -8.9522   -8.2691 N   0  0  0  0  0  0  0  0  0  0  0  0
  -28.6336   -7.9477   -7.3961 C   0  0  0  0  0  0  0  0  0  0  0  0
  -29.0687   -6.6938   -7.8332 C   0  0  0  0  0  0  0  0  0  0  0  0
  -29.1951   -5.5997   -6.9665 C   0  0  0  0  0  0  0  0  0  0  0  0
  -30.2639   -4.4594   -4.1473 C   0  0  0  0  0  0  0  0  0  0  0  0
  -31.2830   -5.1081   -4.3534 O   0  0  0  0  0  0  0  0  0  0  0  0
  -29.0163   -4.7574   -4.6553 N   0  0  0  0  0  0  0  0  0  0  0  0
  -28.1922   -4.4005   -4.1904 H   0  0  0  0  0  0  0  0  0  0  0  0
  -29.0883   -2.7640   -2.8454 C   0  0  0  0  0  0  0  0  0  0  0  0
  -30.2560   -3.2645   -3.2683 C   0  0  0  0  0  0  0  0  0  0  0  0
  -27.9165   -9.7194   -4.2382 N   0  0  0  0  0  0  0  0  0  0  0  0
  -28.3078   -8.9777   -3.6631 H   0  0  0  0  0  0  0  0  0  0  0  0
  -26.7790  -10.3220   -3.6510 C   0  0  0  0  0  0  0  0  0  0  0  0
  -26.8466  -11.6117   -3.1034 C   0  0  0  0  0  0  0  0  0  0  0  0
  -25.7036  -12.2430   -2.6090 C   0  0  0  0  0  0  0  0  0  0  0  0
  -24.4806  -11.5775   -2.6430 C   0  0  0  0  0  0  0  0  0  0  0  0
  -22.9219  -12.4640   -2.0460 Br  0  0  0  0  0  0  0  0  0  0  0  0
  -24.3975  -10.2750   -3.1277 C   0  0  0  0  0  0  0  0  0  0  0  0
  -25.5474   -9.6569   -3.6153 C   0  0  0  0  0  0  0  0  0  0  0  0
  -25.4590   -8.4056   -4.0931 F   0  0  0  0  0  0  0  0  0  0  0  0
  -29.6440   -4.4247   -7.5410 O   0  0  0  0  0  0  0  0  0  0  0  0
  -28.5976   -3.7240   -8.2150 C   0  0  0  0  0  0  0  0  0  0  0  0
  -28.0524   -2.5134   -7.4634 C   0  0  0  0  0  0  0  0  0  0  0  0
  -27.3885   -1.6251   -8.3815 O   0  0  0  0  0  0  0  0  0  0  0  0
  -27.5117   -2.0369   -9.7516 C   0  0  0  0  0  0  0  0  0  0  0  0
  -26.3946   -1.4273  -10.5947 C   0  0  0  0  0  0  0  0  0  0  0  0
  -26.7752   -1.3192  -11.9729 O   0  0  0  0  0  0  0  0  0  0  0  0
  -25.7421   -1.3158  -12.8536 C   0  0  0  0  0  0  0  0  0  0  0  0
  -25.7081   -1.9258  -13.9150 O   0  0  0  0  0  0  0  0  0  0  0  0
  -24.6463   -0.4361  -12.3575 C   0  0  0  0  0  0  0  0  0  0  0  0
  -23.3259   -1.1208  -12.3986 C   0  0  0  0  0  0  0  0  0  0  0  0
  -22.8811   -1.8747  -11.5428 O   0  0  0  0  0  0  0  0  0  0  0  0
  -22.6465   -0.7080  -13.5061 O   0  0  0  0  0  0  0  0  0  0  0  0
  -22.6795    0.7044  -13.7472 C   0  0  0  0  0  0  0  0  0  0  0  0
  -21.2650    1.1577  -14.0617 C   0  0  0  0  0  0  0  0  0  0  0  0
 15 16  2  0  0  0
 16 11  1  0  0  0
 11 12  2  0  0  0
 11 13  1  0  0  0
 13  1  1  0  0  0
 13 14  1  0  0  0
  1  2  1  0  0  0
  1 10  2  0  0  0
  2  3  2  0  0  0
  3  4  1  0  0  0
  3  8  1  0  0  0
  4 17  1  0  0  0
  4  5  2  0  0  0
 17 19  1  0  0  0
 17 18  1  0  0  0
 19 20  1  0  0  0
 19 25  2  0  0  0
 20 21  2  0  0  0
 21 22  1  0  0  0
 22 23  1  0  0  0
 22 24  2  0  0  0
 24 25  1  0  0  0
 25 26  1  0  0  0
  5  6  1  0  0  0
  6  7  2  0  0  0
  7  8  1  0  0  0
  8  9  2  0  0  0
  9 10  1  0  0  0
 10 27  1  0  0  0
 27 28  1  0  0  0
 28 29  1  0  0  0
 29 30  1  0  0  0
 30 31  1  0  0  0
 31 32  1  0  0  0
 32 33  1  0  0  0
 33 34  1  0  0  0
 34 35  2  0  0  0
 34 36  1  0  0  0
 36 37  1  0  0  0
 37 38  2  0  0  0
 37 39  1  0  0  0
 39 40  1  0  0  0
 40 41  1  0  0  0
M  END
> <minimizedAffinity>
-8.09767

$$$$
