CHEMBL3947363


 38 41  0  0  0  0  0  0  0  0999 V2000
  -20.3276    0.8654  -15.1175 C   0  0  0  0  0  0  0  0  0  0  0  0
  -19.0259    0.3528  -15.0722 C   0  0  0  0  0  0  0  0  0  0  0  0
  -17.9132    1.2054  -15.0570 C   0  0  0  0  0  0  0  0  0  0  0  0
  -18.0876    2.5858  -15.1073 C   0  0  0  0  0  0  0  0  0  0  0  0
  -19.3807    3.0868  -15.2753 C   0  0  0  0  0  0  0  0  0  0  0  0
  -19.5990    4.4018  -15.4237 F   0  0  0  0  0  0  0  0  0  0  0  0
  -20.4934    2.2440  -15.2570 C   0  0  0  0  0  0  0  0  0  0  0  0
  -22.0011    0.4292  -12.7884 O   0  0  0  0  0  0  0  0  0  0  0  0
  -22.2679   -0.0831  -13.8681 C   0  0  0  0  0  0  0  0  0  0  0  0
  -21.4948    0.0724  -15.0102 N   0  0  0  0  0  0  0  0  0  0  0  0
  -23.3939   -0.8583  -14.1091 N   0  0  0  0  0  0  0  0  0  0  0  0
  -21.9001   -0.2494  -15.8769 H   0  0  0  0  0  0  0  0  0  0  0  0
  -23.4263   -1.3585  -14.9841 H   0  0  0  0  0  0  0  0  0  0  0  0
  -24.4480   -1.1049  -13.1962 C   0  0  0  0  0  0  0  0  0  0  0  0
  -24.3179   -0.9909  -11.8139 C   0  0  0  0  0  0  0  0  0  0  0  0
  -25.3938   -1.2653  -10.9661 C   0  0  0  0  0  0  0  0  0  0  0  0
  -26.6321   -1.6480  -11.4832 C   0  0  0  0  0  0  0  0  0  0  0  0
  -27.8752   -1.9707  -10.3352 Cl  0  0  0  0  0  0  0  0  0  0  0  0
  -26.8054   -1.7512  -12.8667 C   0  0  0  0  0  0  0  0  0  0  0  0
  -25.6978   -1.4719  -13.7113 C   0  0  0  0  0  0  0  0  0  0  0  0
  -28.1066   -2.1184  -13.5309 C   0  0  0  0  0  0  0  0  0  0  0  0
  -28.4115   -3.4392  -13.5972 F   0  0  0  0  0  0  0  0  0  0  0  0
  -29.1708   -1.5286  -12.9111 F   0  0  0  0  0  0  0  0  0  0  0  0
  -28.1535   -1.6718  -14.8204 F   0  0  0  0  0  0  0  0  0  0  0  0
  -16.9415    3.3468  -15.0275 O   0  0  0  0  0  0  0  0  0  0  0  0
  -16.0263    3.3116  -16.0597 C   0  0  0  0  0  0  0  0  0  0  0  0
  -15.4400    2.1480  -16.5444 C   0  0  0  0  0  0  0  0  0  0  0  0
  -14.4641    2.2765  -17.5079 C   0  0  0  0  0  0  0  0  0  0  0  0
  -14.1042    3.4546  -18.0473 N   0  0  0  0  0  0  0  0  0  0  0  0
  -14.7282    4.5683  -17.6362 C   0  0  0  0  0  0  0  0  0  0  0  0
  -15.7102    4.5374  -16.6511 C   0  0  0  0  0  0  0  0  0  0  0  0
  -14.3926    5.8070  -18.2076 N   0  0  0  0  0  0  0  0  0  0  0  0
  -14.8627    6.2507  -19.4255 C   0  0  0  0  0  0  0  0  0  0  0  0
  -15.5879    5.6590  -20.2122 O   0  0  0  0  0  0  0  0  0  0  0  0
  -13.7645    6.4004  -17.6914 H   0  0  0  0  0  0  0  0  0  0  0  0
  -14.4030    7.6315  -19.7722 C   0  0  0  0  0  0  0  0  0  0  0  0
  -14.0674    8.5845  -18.6467 C   0  0  0  0  0  0  0  0  0  0  0  0
  -15.2848    8.8290  -19.4881 C   0  0  0  0  0  0  0  0  0  0  0  0
  8  9  2  0  0  0
  9 10  1  0  0  0
  9 11  1  0  0  0
 10  1  1  0  0  0
 10 12  1  0  0  0
  1  2  1  0  0  0
  1  7  2  0  0  0
  2  3  2  0  0  0
  3  4  1  0  0  0
  4 25  1  0  0  0
  4  5  2  0  0  0
 25 26  1  0  0  0
 26 27  1  0  0  0
 26 31  2  0  0  0
 27 28  2  0  0  0
 28 29  1  0  0  0
 29 30  2  0  0  0
 30 32  1  0  0  0
 30 31  1  0  0  0
 32 33  1  0  0  0
 32 35  1  0  0  0
 33 34  2  0  0  0
 33 36  1  0  0  0
 36 37  1  0  0  0
 36 38  1  0  0  0
 37 38  1  0  0  0
  5  6  1  0  0  0
  5  7  1  0  0  0
 11 14  1  0  0  0
 11 13  1  0  0  0
 14 15  1  0  0  0
 14 20  2  0  0  0
 15 16  2  0  0  0
 16 17  1  0  0  0
 17 18  1  0  0  0
 17 19  2  0  0  0
 19 21  1  0  0  0
 19 20  1  0  0  0
 21 22  1  0  0  0
 21 23  1  0  0  0
 21 24  1  0  0  0
M  END
> <minimizedAffinity>
-9.78706

$$$$
