CHEMBL148880


 33 38  0  0  0  0  0  0  0  0999 V2000
  -27.5787    0.8652   -7.3397 O   0  0  0  0  0  0  0  0  0  0  0  0
  -28.1591   -0.0535   -6.7776 C   0  0  0  0  0  0  0  0  0  0  0  0
  -28.9038    0.1425   -5.6233 N   0  0  0  0  0  0  0  0  0  0  0  0
  -29.5662   -1.0263   -5.0894 C   0  0  0  0  0  0  0  0  0  0  0  0
  -29.2033   -1.9953   -6.1196 C   0  0  0  0  0  0  0  0  0  0  0  0
  -28.3520   -1.4424   -7.0869 C   0  0  0  0  0  0  0  0  0  0  0  0
  -27.9786   -2.1496   -8.2086 C   0  0  0  0  0  0  0  0  0  0  0  0
  -28.7445   -3.2650   -8.5751 C   0  0  0  0  0  0  0  0  0  0  0  0
  -29.3618   -3.9458   -7.5468 C   0  0  0  0  0  0  0  0  0  0  0  0
  -29.5896   -3.3354   -6.3464 C   0  0  0  0  0  0  0  0  0  0  0  0
  -30.2411   -4.0845   -5.3943 C   0  0  0  0  0  0  0  0  0  0  0  0
  -30.7159   -3.8779   -4.0916 C   0  0  0  0  0  0  0  0  0  0  0  0
  -31.2713   -4.9220   -3.3558 C   0  0  0  0  0  0  0  0  0  0  0  0
  -31.3432   -6.1851   -3.9466 C   0  0  0  0  0  0  0  0  0  0  0  0
  -30.8885   -6.4206   -5.2638 C   0  0  0  0  0  0  0  0  0  0  0  0
  -30.3359   -5.3483   -6.0026 C   0  0  0  0  0  0  0  0  0  0  0  0
  -29.7949   -5.2572   -7.3171 N   0  0  0  0  0  0  0  0  0  0  0  0
  -28.9096   -3.2467  -10.0854 C   0  0  0  0  0  0  0  0  0  0  0  0
  -27.8720   -2.1978  -10.4988 C   0  0  0  0  0  0  0  0  0  0  0  0
  -27.4797   -1.7195  -11.7369 C   0  0  0  0  0  0  0  0  0  0  0  0
  -26.3776   -0.8457  -11.7951 C   0  0  0  0  0  0  0  0  0  0  0  0
  -25.6745   -0.4781  -10.6376 C   0  0  0  0  0  0  0  0  0  0  0  0
  -26.1336   -0.8848   -9.3938 C   0  0  0  0  0  0  0  0  0  0  0  0
  -27.2711   -1.6738   -9.3464 C   0  0  0  0  0  0  0  0  0  0  0  0
  -29.0385    1.0819   -5.2847 H   0  0  0  0  0  0  0  0  0  0  0  0
  -31.7972   -4.6116   -1.9783 C   0  0  0  0  0  0  0  0  0  0  0  0
  -32.3787   -5.7713   -1.3903 O   0  0  0  0  0  0  0  0  0  0  0  0
  -33.0575   -6.0913   -2.0088 H   0  0  0  0  0  0  0  0  0  0  0  0
  -29.5730   -6.4193   -8.1707 C   0  0  0  0  0  0  0  0  0  0  0  0
  -28.5088   -7.4238   -7.7068 C   0  0  0  0  0  0  0  0  0  0  0  0
  -27.9403   -8.3166   -8.8018 C   0  0  0  0  0  0  0  0  0  0  0  0
  -26.9896   -7.6018   -9.5784 O   0  0  0  0  0  0  0  0  0  0  0  0
  -27.4762   -7.1535  -10.2917 H   0  0  0  0  0  0  0  0  0  0  0  0
  1  2  2  0  0  0
  2  3  1  0  0  0
  2  6  1  0  0  0
  3  4  1  0  0  0
  3 25  1  0  0  0
  4  5  1  0  0  0
  5  6  1  0  0  0
  5 10  2  0  0  0
  6  7  2  0  0  0
  7  8  1  0  0  0
  7 24  1  0  0  0
  8  9  2  0  0  0
  8 18  1  0  0  0
  9 10  1  0  0  0
  9 17  1  0  0  0
 10 11  1  0  0  0
 11 12  1  0  0  0
 11 16  2  0  0  0
 12 13  2  0  0  0
 13 26  1  0  0  0
 13 14  1  0  0  0
 26 27  1  0  0  0
 27 28  1  0  0  0
 14 15  2  0  0  0
 15 16  1  0  0  0
 16 17  1  0  0  0
 17 29  1  0  0  0
 29 30  1  0  0  0
 30 31  1  0  0  0
 31 32  1  0  0  0
 32 33  1  0  0  0
 18 19  1  0  0  0
 19 20  1  0  0  0
 19 24  2  0  0  0
 20 21  2  0  0  0
 21 22  1  0  0  0
 22 23  2  0  0  0
 23 24  1  0  0  0
M  END
> <minimizedAffinity>
-3.51959

$$$$
