CHEMBL3633293


 32 35  0  0  0  0  0  0  0  0999 V2000
  -29.0901   -2.9506   -5.7796 C   0  0  0  0  0  0  0  0  0  0  0  0
  -28.2259   -2.1983   -4.9569 C   0  0  0  0  0  0  0  0  0  0  0  0
  -27.4333   -1.1753   -5.4677 C   0  0  0  0  0  0  0  0  0  0  0  0
  -27.4950   -0.8707   -6.8203 C   0  0  0  0  0  0  0  0  0  0  0  0
  -28.3025   -1.6203   -7.6799 C   0  0  0  0  0  0  0  0  0  0  0  0
  -29.0915   -2.6532   -7.1559 C   0  0  0  0  0  0  0  0  0  0  0  0
  -28.2691   -5.7662   -7.4922 N   0  0  0  0  0  0  0  0  0  0  0  0
  -29.2061   -6.1794   -6.6227 C   0  0  0  0  0  0  0  0  0  0  0  0
  -29.5957   -7.4502   -6.6195 N   0  0  0  0  0  0  0  0  0  0  0  0
  -30.5326   -7.4936   -5.6712 N   0  0  0  0  0  0  0  0  0  0  0  0
  -30.7598   -6.2993   -5.0434 C   0  0  0  0  0  0  0  0  0  0  0  0
  -31.6633   -5.9828   -4.0256 C   0  0  0  0  0  0  0  0  0  0  0  0
  -31.6621   -4.6714   -3.5656 C   0  0  0  0  0  0  0  0  0  0  0  0
  -30.8016   -3.7275   -4.1219 C   0  0  0  0  0  0  0  0  0  0  0  0
  -29.9036   -4.0326   -5.1811 C   0  0  0  0  0  0  0  0  0  0  0  0
  -29.8883   -5.3817   -5.6442 C   0  0  0  0  0  0  0  0  0  0  0  0
  -28.0513   -6.4388   -8.2207 H   0  0  0  0  0  0  0  0  0  0  0  0
  -28.3216   -4.8179   -7.8460 H   0  0  0  0  0  0  0  0  0  0  0  0
  -30.9941   -8.3769   -5.4913 H   0  0  0  0  0  0  0  0  0  0  0  0
  -28.3500   -1.3583   -9.0670 N   0  0  0  0  0  0  0  0  0  0  0  0
  -27.2404   -1.4790   -9.8923 C   0  0  0  0  0  0  0  0  0  0  0  0
  -26.1588   -1.9294   -9.5385 O   0  0  0  0  0  0  0  0  0  0  0  0
  -27.4872   -1.0089  -11.1748 N   0  0  0  0  0  0  0  0  0  0  0  0
  -29.2473   -1.4248   -9.5301 H   0  0  0  0  0  0  0  0  0  0  0  0
  -28.0476   -0.1649  -11.2104 H   0  0  0  0  0  0  0  0  0  0  0  0
  -26.4580   -1.0916  -12.1541 C   0  0  0  0  0  0  0  0  0  0  0  0
  -25.2106   -0.4924  -11.9246 C   0  0  0  0  0  0  0  0  0  0  0  0
  -24.2311   -0.4805  -12.9180 C   0  0  0  0  0  0  0  0  0  0  0  0
  -24.4867   -1.0739  -14.1512 C   0  0  0  0  0  0  0  0  0  0  0  0
  -25.7116   -1.7042  -14.3817 C   0  0  0  0  0  0  0  0  0  0  0  0
  -26.6868   -1.7321  -13.3794 C   0  0  0  0  0  0  0  0  0  0  0  0
  -28.2065   -2.4796  -13.7235 Cl  0  0  0  0  0  0  0  0  0  0  0  0
  7  8  1  0  0  0
  7 17  1  0  0  0
  7 18  1  0  0  0
  8  9  2  0  0  0
  8 16  1  0  0  0
  9 10  1  0  0  0
 10 11  1  0  0  0
 10 19  1  0  0  0
 11 12  1  0  0  0
 11 16  2  0  0  0
 12 13  2  0  0  0
 13 14  1  0  0  0
 14 15  2  0  0  0
 15  1  1  0  0  0
 15 16  1  0  0  0
  1  2  1  0  0  0
  1  6  2  0  0  0
  2  3  2  0  0  0
  3  4  1  0  0  0
  4  5  2  0  0  0
  5 20  1  0  0  0
  5  6  1  0  0  0
 20 21  1  0  0  0
 20 24  1  0  0  0
 21 22  2  0  0  0
 21 23  1  0  0  0
 23 26  1  0  0  0
 23 25  1  0  0  0
 26 27  1  0  0  0
 26 31  2  0  0  0
 27 28  2  0  0  0
 28 29  1  0  0  0
 29 30  2  0  0  0
 30 31  1  0  0  0
 31 32  1  0  0  0
M  END
> <minimizedAffinity>
-10.69318

$$$$
