CHEMBL487864


 36 38  0  0  0  0  0  0  0  0999 V2000
  -15.7028    3.1027  -16.1637 C   0  0  0  0  0  0  0  0  0  0  0  0
  -15.7668    4.1397  -17.1117 C   0  0  0  0  0  0  0  0  0  0  0  0
  -14.6044    4.8371  -17.4888 C   0  0  0  0  0  0  0  0  0  0  0  0
  -13.3814    4.5342  -16.8879 C   0  0  0  0  0  0  0  0  0  0  0  0
  -13.3097    3.5108  -15.9441 C   0  0  0  0  0  0  0  0  0  0  0  0
  -14.4557    2.7798  -15.5778 C   0  0  0  0  0  0  0  0  0  0  0  0
  -14.2911    1.6733  -14.5676 C   0  0  0  0  0  0  0  0  0  0  0  0
  -18.0323    2.9967  -15.3847 N   0  0  0  0  0  0  0  0  0  0  0  0
  -16.9314    2.2945  -15.8506 C   0  0  0  0  0  0  0  0  0  0  0  0
  -16.8840    1.0789  -16.0022 O   0  0  0  0  0  0  0  0  0  0  0  0
  -17.9177    3.9852  -15.1957 H   0  0  0  0  0  0  0  0  0  0  0  0
  -21.7914    1.5470  -14.1868 C   0  0  0  0  0  0  0  0  0  0  0  0
  -20.8934    0.6434  -14.7494 C   0  0  0  0  0  0  0  0  0  0  0  0
  -19.6377    1.0979  -15.1768 C   0  0  0  0  0  0  0  0  0  0  0  0
  -19.2827    2.4369  -15.0202 C   0  0  0  0  0  0  0  0  0  0  0  0
  -20.2537    3.2577  -14.4525 C   0  0  0  0  0  0  0  0  0  0  0  0
  -21.4770    2.8429  -14.0409 N   0  0  0  0  0  0  0  0  0  0  0  0
  -24.6397   -0.2852  -12.5719 C   0  0  0  0  0  0  0  0  0  0  0  0
  -23.2004    0.1408  -12.7281 C   0  0  0  0  0  0  0  0  0  0  0  0
  -22.3390   -0.3266  -11.9916 O   0  0  0  0  0  0  0  0  0  0  0  0
  -23.0325    1.0588  -13.7487 N   0  0  0  0  0  0  0  0  0  0  0  0
  -23.8563    1.4254  -14.2007 H   0  0  0  0  0  0  0  0  0  0  0  0
  -14.7067    5.9103  -18.5212 C   0  0  0  0  0  0  0  0  0  0  0  0
  -14.8706    5.5575  -19.6835 O   0  0  0  0  0  0  0  0  0  0  0  0
  -14.5389    7.2051  -18.0531 N   0  0  0  0  0  0  0  0  0  0  0  0
  -14.2180    7.3151  -17.0999 H   0  0  0  0  0  0  0  0  0  0  0  0
  -14.5698    8.3840  -18.8335 C   0  0  0  0  0  0  0  0  0  0  0  0
  -13.4399    9.1625  -19.0853 C   0  0  0  0  0  0  0  0  0  0  0  0
  -13.5392   10.3495  -19.8142 C   0  0  0  0  0  0  0  0  0  0  0  0
  -14.7741   10.7755  -20.2966 C   0  0  0  0  0  0  0  0  0  0  0  0
  -15.9220   10.0039  -20.0750 C   0  0  0  0  0  0  0  0  0  0  0  0
  -15.8030    8.7925  -19.3638 C   0  0  0  0  0  0  0  0  0  0  0  0
  -17.2714   10.4735  -20.5606 C   0  0  0  0  0  0  0  0  0  0  0  0
  -18.0566   10.9974  -19.5778 F   0  0  0  0  0  0  0  0  0  0  0  0
  -17.1716   11.4426  -21.5130 F   0  0  0  0  0  0  0  0  0  0  0  0
  -17.9982    9.4709  -21.1261 F   0  0  0  0  0  0  0  0  0  0  0  0
 18 19  1  0  0  0
 19 20  2  0  0  0
 19 21  1  0  0  0
 21 12  1  0  0  0
 21 22  1  0  0  0
 12 13  1  0  0  0
 12 17  2  0  0  0
 13 14  2  0  0  0
 14 15  1  0  0  0
 15  8  1  0  0  0
 15 16  2  0  0  0
  8  9  1  0  0  0
  8 11  1  0  0  0
  9 10  2  0  0  0
  9  1  1  0  0  0
  1  2  1  0  0  0
  1  6  2  0  0  0
  2  3  2  0  0  0
  3 23  1  0  0  0
  3  4  1  0  0  0
 23 24  2  0  0  0
 23 25  1  0  0  0
 25 27  1  0  0  0
 25 26  1  0  0  0
 27 28  1  0  0  0
 27 32  2  0  0  0
 28 29  2  0  0  0
 29 30  1  0  0  0
 30 31  2  0  0  0
 31 33  1  0  0  0
 31 32  1  0  0  0
 33 34  1  0  0  0
 33 35  1  0  0  0
 33 36  1  0  0  0
  4  5  2  0  0  0
  5  6  1  0  0  0
  6  7  1  0  0  0
 16 17  1  0  0  0
M  END
> <minimizedAffinity>
-9.03831

$$$$
