CHEMBL411284


 32 36  0  0  0  0  0  0  0  0999 V2000
  -30.1103   -7.4672   -7.1620 C   0  0  0  0  0  0  0  0  0  0  0  0
  -29.3137   -6.4483   -7.6696 C   0  0  0  0  0  0  0  0  0  0  0  0
  -29.1583   -5.2587   -6.9587 C   0  0  0  0  0  0  0  0  0  0  0  0
  -29.8935   -4.9866   -5.7835 C   0  0  0  0  0  0  0  0  0  0  0  0
  -29.7776   -3.8025   -4.9980 C   0  0  0  0  0  0  0  0  0  0  0  0
  -30.5535   -3.6410   -3.8345 C   0  0  0  0  0  0  0  0  0  0  0  0
  -31.4490   -4.6295   -3.4370 C   0  0  0  0  0  0  0  0  0  0  0  0
  -31.5640   -5.7972   -4.1844 C   0  0  0  0  0  0  0  0  0  0  0  0
  -30.7972   -6.0003   -5.3413 C   0  0  0  0  0  0  0  0  0  0  0  0
  -30.8871   -7.2280   -6.0314 C   0  0  0  0  0  0  0  0  0  0  0  0
  -28.8006   -2.6941   -5.2536 C   0  0  0  0  0  0  0  0  0  0  0  0
  -27.6215   -2.8501   -4.9452 O   0  0  0  0  0  0  0  0  0  0  0  0
  -29.2876   -1.5105   -5.7779 N   0  0  0  0  0  0  0  0  0  0  0  0
  -30.2883   -1.3680   -5.8279 H   0  0  0  0  0  0  0  0  0  0  0  0
  -28.4277   -0.4039   -6.0681 C   0  0  0  0  0  0  0  0  0  0  0  0
  -28.2094    0.6876   -5.0562 C   0  0  0  0  0  0  0  0  0  0  0  0
  -28.9844    0.9745   -6.3078 C   0  0  0  0  0  0  0  0  0  0  0  0
  -30.1379   -8.7243   -7.7339 O   0  0  0  0  0  0  0  0  0  0  0  0
  -25.6695  -10.2350   -5.8262 C   0  0  0  0  0  0  0  0  0  0  0  0
  -25.6933  -10.4388   -7.2141 C   0  0  0  0  0  0  0  0  0  0  0  0
  -26.7731  -10.0787   -7.9980 C   0  0  0  0  0  0  0  0  0  0  0  0
  -26.6415  -10.1907   -9.3232 N   0  0  0  0  0  0  0  0  0  0  0  0
  -27.6502   -9.7377  -10.0686 C   0  0  0  0  0  0  0  0  0  0  0  0
  -28.7822   -9.2182   -9.6037 N   0  0  0  0  0  0  0  0  0  0  0  0
  -28.9266   -9.1933   -8.2606 C   0  0  0  0  0  0  0  0  0  0  0  0
  -27.9214   -9.5869   -7.3747 C   0  0  0  0  0  0  0  0  0  0  0  0
  -27.9673   -9.5117   -5.9633 C   0  0  0  0  0  0  0  0  0  0  0  0
  -26.8384   -9.8068   -5.1845 C   0  0  0  0  0  0  0  0  0  0  0  0
  -23.3182   -9.9708   -5.6890 C   0  0  0  0  0  0  0  0  0  0  0  0
  -24.5277  -10.4639   -5.1025 O   0  0  0  0  0  0  0  0  0  0  0  0
  -27.0614   -9.6057   -3.8505 O   0  0  0  0  0  0  0  0  0  0  0  0
  -28.2867   -9.0178   -3.4400 C   0  0  0  0  0  0  0  0  0  0  0  0
 29 30  1  0  0  0
 30 19  1  0  0  0
 19 20  1  0  0  0
 19 28  2  0  0  0
 20 21  2  0  0  0
 21 22  1  0  0  0
 21 26  1  0  0  0
 22 23  2  0  0  0
 23 24  1  0  0  0
 24 25  2  0  0  0
 25 18  1  0  0  0
 25 26  1  0  0  0
 18  1  1  0  0  0
  1  2  1  0  0  0
  1 10  2  0  0  0
  2  3  2  0  0  0
  3  4  1  0  0  0
  4  5  1  0  0  0
  4  9  2  0  0  0
  5 11  1  0  0  0
  5  6  2  0  0  0
 11 12  2  0  0  0
 11 13  1  0  0  0
 13 15  1  0  0  0
 13 14  1  0  0  0
 15 16  1  0  0  0
 15 17  1  0  0  0
 16 17  1  0  0  0
  6  7  1  0  0  0
  7  8  2  0  0  0
  8  9  1  0  0  0
  9 10  1  0  0  0
 26 27  2  0  0  0
 27 28  1  0  0  0
 28 31  1  0  0  0
 31 32  1  0  0  0
M  END
> <minimizedAffinity>
-8.82263

$$$$
