CHEMBL3702612


 32 35  0  0  0  0  0  0  0  0999 V2000
  -18.9570    1.5311  -15.2145 C   0  0  0  0  0  0  0  0  0  0  0  0
  -19.0641    2.8614  -15.6127 C   0  0  0  0  0  0  0  0  0  0  0  0
  -17.9081    3.6270  -15.7425 C   0  0  0  0  0  0  0  0  0  0  0  0
  -16.6541    3.0683  -15.4663 C   0  0  0  0  0  0  0  0  0  0  0  0
  -16.5107    1.7353  -15.0547 C   0  0  0  0  0  0  0  0  0  0  0  0
  -17.6869    0.9846  -14.9479 C   0  0  0  0  0  0  0  0  0  0  0  0
  -15.2749    1.2044  -14.7405 N   0  0  0  0  0  0  0  0  0  0  0  0
  -14.9704    0.6626  -13.4121 C   0  0  0  0  0  0  0  0  0  0  0  0
  -14.7847   -0.8499  -13.4940 C   0  0  0  0  0  0  0  0  0  0  0  0
  -13.8883   -1.2423  -14.6401 C   0  0  0  0  0  0  0  0  0  0  0  0
  -13.3298   -2.4746  -14.5839 N   0  0  0  0  0  0  0  0  0  0  0  0
  -12.5399   -2.8336  -15.6008 C   0  0  0  0  0  0  0  0  0  0  0  0
  -11.9376   -4.0726  -15.5450 N   0  0  0  0  0  0  0  0  0  0  0  0
  -12.3059   -2.0903  -16.6843 N   0  0  0  0  0  0  0  0  0  0  0  0
  -12.8832   -0.8749  -16.7110 C   0  0  0  0  0  0  0  0  0  0  0  0
  -13.6918   -0.3845  -15.7083 C   0  0  0  0  0  0  0  0  0  0  0  0
  -14.2486    1.0067  -15.7635 C   0  0  0  0  0  0  0  0  0  0  0  0
  -12.4780   -4.6944  -14.9619 H   0  0  0  0  0  0  0  0  0  0  0  0
  -11.7134   -4.3820  -16.4800 H   0  0  0  0  0  0  0  0  0  0  0  0
  -21.0991    1.1587  -14.0663 N   0  0  0  0  0  0  0  0  0  0  0  0
  -20.1404    0.6685  -14.9424 C   0  0  0  0  0  0  0  0  0  0  0  0
  -20.1643   -0.4125  -15.5195 O   0  0  0  0  0  0  0  0  0  0  0  0
  -20.9870    2.0892  -13.6940 H   0  0  0  0  0  0  0  0  0  0  0  0
  -24.4824   -1.0716  -12.7192 C   0  0  0  0  0  0  0  0  0  0  0  0
  -24.4109   -0.6029  -14.0308 C   0  0  0  0  0  0  0  0  0  0  0  0
  -23.3156    0.1442  -14.4814 C   0  0  0  0  0  0  0  0  0  0  0  0
  -22.2537    0.4491  -13.6345 C   0  0  0  0  0  0  0  0  0  0  0  0
  -22.3290    0.0173  -12.3056 C   0  0  0  0  0  0  0  0  0  0  0  0
  -23.4269   -0.7437  -11.8549 C   0  0  0  0  0  0  0  0  0  0  0  0
  -26.1697   -1.6002  -10.9136 C   0  0  0  0  0  0  0  0  0  0  0  0
  -25.6804   -1.9259  -12.3293 C   0  0  0  0  0  0  0  0  0  0  0  0
  -26.8583   -1.8656  -13.3023 C   0  0  0  0  0  0  0  0  0  0  0  0
 30 31  1  0  0  0
 31 32  1  0  0  0
 31 24  1  0  0  0
 24 25  1  0  0  0
 24 29  2  0  0  0
 25 26  2  0  0  0
 26 27  1  0  0  0
 27 20  1  0  0  0
 27 28  2  0  0  0
 20 21  1  0  0  0
 20 23  1  0  0  0
 21 22  2  0  0  0
 21  1  1  0  0  0
  1  2  1  0  0  0
  1  6  2  0  0  0
  2  3  2  0  0  0
  3  4  1  0  0  0
  4  5  2  0  0  0
  5  7  1  0  0  0
  5  6  1  0  0  0
  7  8  1  0  0  0
  7 17  1  0  0  0
  8  9  1  0  0  0
  9 10  1  0  0  0
 10 11  1  0  0  0
 10 16  2  0  0  0
 11 12  2  0  0  0
 12 13  1  0  0  0
 12 14  1  0  0  0
 13 18  1  0  0  0
 13 19  1  0  0  0
 14 15  2  0  0  0
 15 16  1  0  0  0
 16 17  1  0  0  0
 28 29  1  0  0  0
M  END
> <minimizedAffinity>
-9.06547

$$$$
