CHEMBL187930


 38 40  0  0  0  0  0  0  0  0999 V2000
  -28.9063   -3.1260   -4.6953 N   0  0  0  0  0  0  0  0  0  0  0  0
  -28.7308   -2.1488   -3.6246 C   0  0  0  0  0  0  0  0  0  0  0  0
  -28.0567   -2.1560   -8.7606 C   0  0  0  0  0  0  0  0  0  0  0  0
  -28.5156   -3.4173   -8.3848 C   0  0  0  0  0  0  0  0  0  0  0  0
  -28.7554   -3.7285   -7.0455 C   0  0  0  0  0  0  0  0  0  0  0  0
  -28.5459   -2.7989   -6.0161 C   0  0  0  0  0  0  0  0  0  0  0  0
  -28.0100   -1.5582   -6.3940 C   0  0  0  0  0  0  0  0  0  0  0  0
  -27.7629   -1.2407   -7.7470 C   0  0  0  0  0  0  0  0  0  0  0  0
  -26.7881   -1.2653  -12.0696 N   0  0  0  0  0  0  0  0  0  0  0  0
  -26.6779   -1.6630  -10.7526 C   0  0  0  0  0  0  0  0  0  0  0  0
  -25.5809   -1.9275  -10.2608 O   0  0  0  0  0  0  0  0  0  0  0  0
  -27.8966   -1.7777  -10.1175 N   0  0  0  0  0  0  0  0  0  0  0  0
  -27.4904   -0.5639  -12.2685 H   0  0  0  0  0  0  0  0  0  0  0  0
  -28.6961   -1.8714  -10.7270 H   0  0  0  0  0  0  0  0  0  0  0  0
  -25.5379   -1.1165  -12.8015 C   0  0  0  0  0  0  0  0  0  0  0  0
  -24.6838    0.0811  -12.3638 C   0  0  0  0  0  0  0  0  0  0  0  0
  -22.9883   -1.6614  -12.1793 C   0  0  0  0  0  0  0  0  0  0  0  0
  -23.2424   -0.2160  -12.2078 N   0  0  0  0  0  0  0  0  0  0  0  0
  -22.5052    0.3737  -13.3336 C   0  0  0  0  0  0  0  0  0  0  0  0
  -29.5545   -4.3164   -4.2515 C   0  0  0  0  0  0  0  0  0  0  0  0
  -30.9031   -4.2714   -3.9373 C   0  0  0  0  0  0  0  0  0  0  0  0
  -31.4825   -5.4318   -3.5052 C   0  0  0  0  0  0  0  0  0  0  0  0
  -30.8118   -6.5815   -3.3977 N   0  0  0  0  0  0  0  0  0  0  0  0
  -29.5076   -6.5701   -3.7142 C   0  0  0  0  0  0  0  0  0  0  0  0
  -28.8495   -5.4647   -4.1050 N   0  0  0  0  0  0  0  0  0  0  0  0
  -28.7762   -7.7546   -3.5935 N   0  0  0  0  0  0  0  0  0  0  0  0
  -28.2120   -7.7658   -2.7592 H   0  0  0  0  0  0  0  0  0  0  0  0
  -28.4548   -8.6713   -4.6058 C   0  0  0  0  0  0  0  0  0  0  0  0
  -27.1352   -9.0709   -4.8449 C   0  0  0  0  0  0  0  0  0  0  0  0
  -26.8004   -9.8685   -5.9425 C   0  0  0  0  0  0  0  0  0  0  0  0
  -27.7830  -10.2914   -6.8425 C   0  0  0  0  0  0  0  0  0  0  0  0
  -29.1159   -9.9353   -6.5803 C   0  0  0  0  0  0  0  0  0  0  0  0
  -29.4478   -9.1470   -5.4668 C   0  0  0  0  0  0  0  0  0  0  0  0
  -27.4145  -10.9588   -8.1426 C   0  0  0  0  0  0  0  0  0  0  0  0
  -27.4782   -9.8726   -9.5598 S   0  0  0  0  0  0  0  0  0  0  0  0
  -29.0964  -10.1123  -10.2507 C   0  0  0  0  0  0  0  0  0  0  0  0
  -27.4446   -8.5134   -9.0463 O   0  0  0  0  0  0  0  0  0  0  0  0
  -26.5010  -10.2878  -10.5485 O   0  0  0  0  0  0  0  0  0  0  0  0
 17 18  1  0  0  0
 18 19  1  0  0  0
 18 16  1  0  0  0
 16 15  1  0  0  0
 15  9  1  0  0  0
  9 10  1  0  0  0
  9 13  1  0  0  0
 10 11  2  0  0  0
 10 12  1  0  0  0
 12  3  1  0  0  0
 12 14  1  0  0  0
  3  4  1  0  0  0
  3  8  2  0  0  0
  4  5  2  0  0  0
  5  6  1  0  0  0
  6  1  1  0  0  0
  6  7  2  0  0  0
  1  2  1  0  0  0
  1 20  1  0  0  0
 20 21  1  0  0  0
 20 25  2  0  0  0
 21 22  2  0  0  0
 22 23  1  0  0  0
 23 24  2  0  0  0
 24 26  1  0  0  0
 24 25  1  0  0  0
 26 28  1  0  0  0
 26 27  1  0  0  0
 28 29  1  0  0  0
 28 33  2  0  0  0
 29 30  2  0  0  0
 30 31  1  0  0  0
 31 34  1  0  0  0
 31 32  2  0  0  0
 34 35  1  0  0  0
 35 36  1  0  0  0
 35 37  2  0  0  0
 35 38  2  0  0  0
 32 33  1  0  0  0
  7  8  1  0  0  0
M  END
> <minimizedAffinity>
-8.73734

$$$$
