CHEMBL188522


 21 23  0  0  0  0  0  0  0  0999 V2000
  -22.2955   -0.3055  -14.2420 N   0  0  0  0  0  0  0  0  0  0  0  0
  -21.6474   -0.9612  -14.6549 H   0  0  0  0  0  0  0  0  0  0  0  0
  -21.8987    1.0196  -14.2243 C   0  0  0  0  0  0  0  0  0  0  0  0
  -22.7054    1.9479  -13.7977 N   0  0  0  0  0  0  0  0  0  0  0  0
  -22.3329    3.2615  -13.7893 C   0  0  0  0  0  0  0  0  0  0  0  0
  -21.2036    3.7429  -14.1907 N   0  0  0  0  0  0  0  0  0  0  0  0
  -20.3573    2.8083  -14.6446 N   0  0  0  0  0  0  0  0  0  0  0  0
  -19.1068    3.0636  -15.1287 C   0  0  0  0  0  0  0  0  0  0  0  0
  -18.5337    1.8672  -15.4839 C   0  0  0  0  0  0  0  0  0  0  0  0
  -19.4767    0.8323  -15.2052 C   0  0  0  0  0  0  0  0  0  0  0  0
  -19.2312   -0.6152  -15.4334 C   0  0  0  0  0  0  0  0  0  0  0  0
  -20.6097    1.4619  -14.6966 C   0  0  0  0  0  0  0  0  0  0  0  0
  -27.6826   -2.0991  -13.3293 C   0  0  0  0  0  0  0  0  0  0  0  0
  -26.2704   -1.6644  -13.5827 C   0  0  0  0  0  0  0  0  0  0  0  0
  -25.3170   -1.7646  -12.5710 C   0  0  0  0  0  0  0  0  0  0  0  0
  -24.0003   -1.3576  -12.7975 C   0  0  0  0  0  0  0  0  0  0  0  0
  -23.5963   -0.8109  -14.0229 C   0  0  0  0  0  0  0  0  0  0  0  0
  -24.5508   -0.7413  -15.0474 C   0  0  0  0  0  0  0  0  0  0  0  0
  -25.8676   -1.1637  -14.8227 C   0  0  0  0  0  0  0  0  0  0  0  0
  -26.7991   -1.0853  -15.8217 O   0  0  0  0  0  0  0  0  0  0  0  0
  -26.3792   -0.7277  -16.6198 H   0  0  0  0  0  0  0  0  0  0  0  0
 13 14  1  0  0  0
 14 15  1  0  0  0
 14 19  2  0  0  0
 15 16  2  0  0  0
 16 17  1  0  0  0
 17  1  1  0  0  0
 17 18  2  0  0  0
  1  3  1  0  0  0
  1  2  1  0  0  0
  3  4  2  0  0  0
  3 12  1  0  0  0
  4  5  1  0  0  0
  5  6  2  0  0  0
  6  7  1  0  0  0
  7  8  1  0  0  0
  7 12  1  0  0  0
  8  9  2  0  0  0
  9 10  1  0  0  0
 10 11  1  0  0  0
 10 12  2  0  0  0
 18 19  1  0  0  0
 19 20  1  0  0  0
 20 21  1  0  0  0
M  END
> <minimizedAffinity>
-8.15616

$$$$
