CHEMBL3690472


 40 44  0  0  0  0  0  0  0  0999 V2000
  -15.5049    0.6504  -15.1158 C   0  0  0  0  0  0  0  0  0  0  0  0
  -14.3241    0.8157  -15.8246 C   0  0  0  0  0  0  0  0  0  0  0  0
  -13.3168    0.0131  -15.3517 N   0  0  0  0  0  0  0  0  0  0  0  0
  -13.8544   -0.6764  -14.3695 C   0  0  0  0  0  0  0  0  0  0  0  0
  -13.2962   -1.6911  -13.5313 C   0  0  0  0  0  0  0  0  0  0  0  0
  -14.0479   -2.3107  -12.5826 C   0  0  0  0  0  0  0  0  0  0  0  0
  -15.4509   -1.9070  -12.4247 C   0  0  0  0  0  0  0  0  0  0  0  0
  -15.9869   -0.9874  -13.2337 C   0  0  0  0  0  0  0  0  0  0  0  0
  -15.1977   -0.3491  -14.1920 N   0  0  0  0  0  0  0  0  0  0  0  0
  -19.2705    1.2054  -15.1906 C   0  0  0  0  0  0  0  0  0  0  0  0
  -19.3096    2.5936  -15.3226 C   0  0  0  0  0  0  0  0  0  0  0  0
  -18.1412    3.3207  -15.5111 C   0  0  0  0  0  0  0  0  0  0  0  0
  -16.9159    2.6662  -15.5400 C   0  0  0  0  0  0  0  0  0  0  0  0
  -16.8218    1.2923  -15.2812 C   0  0  0  0  0  0  0  0  0  0  0  0
  -18.0176    0.5616  -15.1586 C   0  0  0  0  0  0  0  0  0  0  0  0
  -21.5833    1.4575  -13.3375 O   0  0  0  0  0  0  0  0  0  0  0  0
  -21.4791    0.5932  -14.1974 C   0  0  0  0  0  0  0  0  0  0  0  0
  -22.4778   -0.3394  -14.3854 N   0  0  0  0  0  0  0  0  0  0  0  0
  -20.4385    0.4144  -15.0852 N   0  0  0  0  0  0  0  0  0  0  0  0
  -22.1828   -1.2327  -14.7527 H   0  0  0  0  0  0  0  0  0  0  0  0
  -20.5533   -0.3135  -15.7732 H   0  0  0  0  0  0  0  0  0  0  0  0
  -23.5982   -0.3681  -13.4358 C   0  0  0  0  0  0  0  0  0  0  0  0
  -23.4937   -1.4358  -12.3366 C   0  0  0  0  0  0  0  0  0  0  0  0
  -22.4520   -1.2052  -11.5042 F   0  0  0  0  0  0  0  0  0  0  0  0
  -24.6154   -1.5228  -11.5935 F   0  0  0  0  0  0  0  0  0  0  0  0
  -23.2818   -2.6543  -12.8956 F   0  0  0  0  0  0  0  0  0  0  0  0
  -13.4861   -3.4241  -11.7790 C   0  0  0  0  0  0  0  0  0  0  0  0
  -13.3279   -3.1988  -10.4612 N   0  0  0  0  0  0  0  0  0  0  0  0
  -12.9286   -4.2435   -9.7316 C   0  0  0  0  0  0  0  0  0  0  0  0
  -12.6972   -5.4869  -10.2652 C   0  0  0  0  0  0  0  0  0  0  0  0
  -12.8582   -5.6439  -11.6297 C   0  0  0  0  0  0  0  0  0  0  0  0
  -13.2428   -4.6010  -12.3848 N   0  0  0  0  0  0  0  0  0  0  0  0
  -12.6254   -6.8510  -12.2546 N   0  0  0  0  0  0  0  0  0  0  0  0
  -11.2858   -7.3649  -12.5049 C   0  0  0  0  0  0  0  0  0  0  0  0
  -11.1105   -8.7164  -11.8179 C   0  0  0  0  0  0  0  0  0  0  0  0
  -12.2347   -9.6878  -12.1624 C   0  0  0  0  0  0  0  0  0  0  0  0
  -12.1061  -10.1372  -13.5113 O   0  0  0  0  0  0  0  0  0  0  0  0
  -13.6122   -9.0748  -11.9197 C   0  0  0  0  0  0  0  0  0  0  0  0
  -13.7586   -7.7116  -12.5868 C   0  0  0  0  0  0  0  0  0  0  0  0
  -12.2275   -9.3835  -14.1119 H   0  0  0  0  0  0  0  0  0  0  0  0
 16 17  2  0  0  0
 17 18  1  0  0  0
 17 19  1  0  0  0
 18 22  1  0  0  0
 18 20  1  0  0  0
 22 23  1  0  0  0
 23 24  1  0  0  0
 23 25  1  0  0  0
 23 26  1  0  0  0
 19 10  1  0  0  0
 19 21  1  0  0  0
 10 11  1  0  0  0
 10 15  2  0  0  0
 11 12  2  0  0  0
 12 13  1  0  0  0
 13 14  2  0  0  0
 14  1  1  0  0  0
 14 15  1  0  0  0
  1  2  2  0  0  0
  1  9  1  0  0  0
  2  3  1  0  0  0
  3  4  2  0  0  0
  4  5  1  0  0  0
  4  9  1  0  0  0
  5  6  2  0  0  0
  6 27  1  0  0  0
  6  7  1  0  0  0
 27 28  1  0  0  0
 27 32  2  0  0  0
 28 29  2  0  0  0
 29 30  1  0  0  0
 30 31  2  0  0  0
 31 33  1  0  0  0
 31 32  1  0  0  0
 33 34  1  0  0  0
 33 39  1  0  0  0
 34 35  1  0  0  0
 35 36  1  0  0  0
 36 37  1  0  0  0
 36 38  1  0  0  0
 37 40  1  0  0  0
 38 39  1  0  0  0
  7  8  2  0  0  0
  8  9  1  0  0  0
M  END
> <minimizedAffinity>
-10.53113

$$$$
