CHEMBL496494


 31 34  0  0  0  0  0  0  0  0999 V2000
  -25.8299   -1.1374  -15.0727 C   0  0  0  0  0  0  0  0  0  0  0  0
  -26.1297   -1.3587  -13.6135 C   0  0  0  0  0  0  0  0  0  0  0  0
  -27.3013   -2.1469  -13.2891 C   0  0  0  0  0  0  0  0  0  0  0  0
  -27.6206   -2.3885  -12.0112 C   0  0  0  0  0  0  0  0  0  0  0  0
  -26.8476   -1.9278  -10.9546 N   0  0  0  0  0  0  0  0  0  0  0  0
  -25.6928   -1.1587  -11.1787 C   0  0  0  0  0  0  0  0  0  0  0  0
  -24.9772   -0.6784  -10.2979 O   0  0  0  0  0  0  0  0  0  0  0  0
  -25.3557   -0.8738  -12.6182 C   0  0  0  0  0  0  0  0  0  0  0  0
  -24.1217   -0.1387  -12.8987 C   0  0  0  0  0  0  0  0  0  0  0  0
  -24.1235    1.2416  -12.6801 C   0  0  0  0  0  0  0  0  0  0  0  0
  -23.0441    2.0103  -13.0914 C   0  0  0  0  0  0  0  0  0  0  0  0
  -21.9955    1.4398  -13.7812 C   0  0  0  0  0  0  0  0  0  0  0  0
  -21.1123    2.2638  -14.3279 N   0  0  0  0  0  0  0  0  0  0  0  0
  -20.2244    1.7253  -15.1594 C   0  0  0  0  0  0  0  0  0  0  0  0
  -19.6855    2.6471  -16.0504 N   0  0  0  0  0  0  0  0  0  0  0  0
  -20.0402    0.4183  -15.3571 N   0  0  0  0  0  0  0  0  0  0  0  0
  -20.9032   -0.4034  -14.7312 C   0  0  0  0  0  0  0  0  0  0  0  0
  -21.9684    0.0539  -13.9723 C   0  0  0  0  0  0  0  0  0  0  0  0
  -23.0180   -0.7531  -13.4980 C   0  0  0  0  0  0  0  0  0  0  0  0
  -20.5303    3.0198  -16.4872 H   0  0  0  0  0  0  0  0  0  0  0  0
  -19.3859    3.4227  -15.4687 H   0  0  0  0  0  0  0  0  0  0  0  0
  -27.2566   -2.1275   -9.5992 C   0  0  0  0  0  0  0  0  0  0  0  0
  -27.5844   -3.4110   -9.1629 C   0  0  0  0  0  0  0  0  0  0  0  0
  -28.1742   -3.6014   -7.9109 C   0  0  0  0  0  0  0  0  0  0  0  0
  -28.4212   -2.5237   -7.0440 C   0  0  0  0  0  0  0  0  0  0  0  0
  -27.9900   -1.2507   -7.4574 C   0  0  0  0  0  0  0  0  0  0  0  0
  -27.4314   -1.0522   -8.7233 C   0  0  0  0  0  0  0  0  0  0  0  0
  -29.1743   -2.6943   -5.7151 C   0  0  0  0  0  0  0  0  0  0  0  0
  -29.5053   -1.3488   -5.0312 C   0  0  0  0  0  0  0  0  0  0  0  0
  -30.4995   -3.4417   -5.9573 C   0  0  0  0  0  0  0  0  0  0  0  0
  -28.3117   -3.5035   -4.7192 C   0  0  0  0  0  0  0  0  0  0  0  0
  1  2  1  0  0  0
  2  3  1  0  0  0
  2  8  2  0  0  0
  3  4  2  0  0  0
  4  5  1  0  0  0
  5 22  1  0  0  0
  5  6  1  0  0  0
 22 23  1  0  0  0
 22 27  2  0  0  0
 23 24  2  0  0  0
 24 25  1  0  0  0
 25 28  1  0  0  0
 25 26  2  0  0  0
 28 29  1  0  0  0
 28 30  1  0  0  0
 28 31  1  0  0  0
 26 27  1  0  0  0
  6  7  2  0  0  0
  6  8  1  0  0  0
  8  9  1  0  0  0
  9 10  1  0  0  0
  9 19  2  0  0  0
 10 11  2  0  0  0
 11 12  1  0  0  0
 12 13  1  0  0  0
 12 18  2  0  0  0
 13 14  2  0  0  0
 14 15  1  0  0  0
 14 16  1  0  0  0
 15 20  1  0  0  0
 15 21  1  0  0  0
 16 17  2  0  0  0
 17 18  1  0  0  0
 18 19  1  0  0  0
M  END
> <minimizedAffinity>
-8.24302

$$$$
