CHEMBL211307


 40 45  0  0  0  0  0  0  0  0999 V2000
  -27.6833    8.7836  -16.0699 C   0  0  0  0  0  0  0  0  0  0  0  0
  -28.6014    8.1803  -16.8412 N   0  0  0  0  0  0  0  0  0  0  0  0
  -29.6943    8.0314  -16.0271 N   0  0  0  0  0  0  0  0  0  0  0  0
  -29.5218    8.5648  -14.7693 C   0  0  0  0  0  0  0  0  0  0  0  0
  -28.1423    8.8477  -14.7284 C   0  0  0  0  0  0  0  0  0  0  0  0
  -27.8397    9.8905  -13.7199 C   0  0  0  0  0  0  0  0  0  0  0  0
  -29.1165   10.6211  -14.0744 C   0  0  0  0  0  0  0  0  0  0  0  0
  -29.1721   11.6888  -14.9634 C   0  0  0  0  0  0  0  0  0  0  0  0
  -30.4021   12.1151  -15.4303 C   0  0  0  0  0  0  0  0  0  0  0  0
  -31.5409   11.5902  -14.8138 C   0  0  0  0  0  0  0  0  0  0  0  0
  -31.4808   10.2733  -14.3095 C   0  0  0  0  0  0  0  0  0  0  0  0
  -30.2168    9.7275  -14.1221 C   0  0  0  0  0  0  0  0  0  0  0  0
  -30.5413    7.6665  -16.4409 H   0  0  0  0  0  0  0  0  0  0  0  0
  -24.8560   11.2651  -16.5234 C   0  0  0  0  0  0  0  0  0  0  0  0
  -25.7318   10.4850  -15.7773 C   0  0  0  0  0  0  0  0  0  0  0  0
  -26.6541    9.7360  -16.5921 C   0  0  0  0  0  0  0  0  0  0  0  0
  -26.5463   10.1136  -17.9168 C   0  0  0  0  0  0  0  0  0  0  0  0
  -25.3354   11.2987  -18.1727 S   0  0  0  0  0  0  0  0  0  0  0  0
  -23.5280   11.8601  -16.1188 C   0  0  0  0  0  0  0  0  0  0  0  0
  -20.9886   12.4210  -18.6603 N   0  0  0  0  0  0  0  0  0  0  0  0
  -21.6329   11.8418  -17.5889 C   0  0  0  0  0  0  0  0  0  0  0  0
  -21.2733   10.8332  -17.0050 O   0  0  0  0  0  0  0  0  0  0  0  0
  -22.7792   12.5219  -17.1809 N   0  0  0  0  0  0  0  0  0  0  0  0
  -21.3783   13.2811  -19.0080 H   0  0  0  0  0  0  0  0  0  0  0  0
  -23.3120   13.0119  -17.8909 H   0  0  0  0  0  0  0  0  0  0  0  0
  -18.9901    9.4571  -22.0916 C   0  0  0  0  0  0  0  0  0  0  0  0
  -18.8325   10.4782  -21.0038 C   0  0  0  0  0  0  0  0  0  0  0  0
  -17.5619   10.9532  -20.6763 C   0  0  0  0  0  0  0  0  0  0  0  0
  -17.4109   11.9058  -19.6708 C   0  0  0  0  0  0  0  0  0  0  0  0
  -18.5257   12.3960  -18.9870 C   0  0  0  0  0  0  0  0  0  0  0  0
  -19.8110   11.9489  -19.3009 C   0  0  0  0  0  0  0  0  0  0  0  0
  -19.9511   10.9773  -20.3102 C   0  0  0  0  0  0  0  0  0  0  0  0
  -32.5887   12.6250  -14.4155 C   0  0  0  0  0  0  0  0  0  0  0  0
  -33.6607   12.0387  -13.5730 N   0  0  0  0  0  0  0  0  0  0  0  0
  -34.6117   11.1677  -14.2995 C   0  0  0  0  0  0  0  0  0  0  0  0
  -35.7721   10.7277  -13.3850 C   0  0  0  0  0  0  0  0  0  0  0  0
  -35.3500    9.9734  -12.1950 N   0  0  0  0  0  0  0  0  0  0  0  0
  -34.9816    8.6038  -12.5367 C   0  0  0  0  0  0  0  0  0  0  0  0
  -34.2503   10.7036  -11.5272 C   0  0  0  0  0  0  0  0  0  0  0  0
  -33.1192   11.2435  -12.4521 C   0  0  0  0  0  0  0  0  0  0  0  0
 26 27  1  0  0  0
 27 28  1  0  0  0
 27 32  2  0  0  0
 28 29  2  0  0  0
 29 30  1  0  0  0
 30 31  2  0  0  0
 31 20  1  0  0  0
 31 32  1  0  0  0
 20 21  1  0  0  0
 20 24  1  0  0  0
 21 22  2  0  0  0
 21 23  1  0  0  0
 23 19  1  0  0  0
 23 25  1  0  0  0
 19 14  1  0  0  0
 14 15  2  0  0  0
 14 18  1  0  0  0
 15 16  1  0  0  0
 16  1  1  0  0  0
 16 17  2  0  0  0
  1  2  2  0  0  0
  1  5  1  0  0  0
  2  3  1  0  0  0
  3  4  1  0  0  0
  3 13  1  0  0  0
  4  5  2  0  0  0
  4 12  1  0  0  0
  5  6  1  0  0  0
  6  7  1  0  0  0
  7  8  1  0  0  0
  7 12  2  0  0  0
  8  9  2  0  0  0
  9 10  1  0  0  0
 10 33  1  0  0  0
 10 11  2  0  0  0
 33 34  1  0  0  0
 34 35  1  0  0  0
 34 40  1  0  0  0
 35 36  1  0  0  0
 36 37  1  0  0  0
 37 38  1  0  0  0
 37 39  1  0  0  0
 39 40  1  0  0  0
 11 12  1  0  0  0
 17 18  1  0  0  0
M  END
> <minimizedAffinity>
18.57587

$$$$
