CHEMBL3973469


 38 41  0  0  0  0  0  0  0  0999 V2000
  -28.1174   -2.0806  -14.0781 C   0  0  0  0  0  0  0  0  0  0  0  0
  -27.0393   -1.8615  -13.0580 C   0  0  0  0  0  0  0  0  0  0  0  0
  -27.3841   -1.7226  -11.7087 C   0  0  0  0  0  0  0  0  0  0  0  0
  -26.4216   -1.5033  -10.7196 C   0  0  0  0  0  0  0  0  0  0  0  0
  -25.0788   -1.3993  -11.1080 C   0  0  0  0  0  0  0  0  0  0  0  0
  -24.7114   -1.5558  -12.4556 C   0  0  0  0  0  0  0  0  0  0  0  0
  -25.6942   -1.7839  -13.4254 C   0  0  0  0  0  0  0  0  0  0  0  0
  -26.7550   -1.3489   -9.3488 N   0  0  0  0  0  0  0  0  0  0  0  0
  -27.5060   -2.2348   -8.5906 C   0  0  0  0  0  0  0  0  0  0  0  0
  -27.9203   -3.3264   -8.9637 O   0  0  0  0  0  0  0  0  0  0  0  0
  -27.8048   -1.7197   -7.3341 N   0  0  0  0  0  0  0  0  0  0  0  0
  -26.2975   -0.5976   -8.8524 H   0  0  0  0  0  0  0  0  0  0  0  0
  -27.9469   -0.7198   -7.3292 H   0  0  0  0  0  0  0  0  0  0  0  0
  -28.5965   -2.4705   -6.4319 C   0  0  0  0  0  0  0  0  0  0  0  0
  -29.2104   -1.8138   -5.3714 C   0  0  0  0  0  0  0  0  0  0  0  0
  -30.0545   -2.5235   -4.5149 C   0  0  0  0  0  0  0  0  0  0  0  0
  -30.2481   -3.9037   -4.6719 C   0  0  0  0  0  0  0  0  0  0  0  0
  -31.3049   -4.6595   -3.5368 Cl  0  0  0  0  0  0  0  0  0  0  0  0
  -29.6035   -4.5935   -5.7031 C   0  0  0  0  0  0  0  0  0  0  0  0
  -28.7930   -3.8492   -6.5922 C   0  0  0  0  0  0  0  0  0  0  0  0
  -29.7063   -6.0797   -5.9346 C   0  0  0  0  0  0  0  0  0  0  0  0
  -30.9410   -6.5594   -6.2408 F   0  0  0  0  0  0  0  0  0  0  0  0
  -28.8911   -6.5062   -6.9404 F   0  0  0  0  0  0  0  0  0  0  0  0
  -29.3196   -6.7858   -4.8306 F   0  0  0  0  0  0  0  0  0  0  0  0
  -23.4274   -1.3749  -12.9360 O   0  0  0  0  0  0  0  0  0  0  0  0
  -23.0213   -0.1098  -13.3438 C   0  0  0  0  0  0  0  0  0  0  0  0
  -21.8534   -0.0447  -14.0860 C   0  0  0  0  0  0  0  0  0  0  0  0
  -21.4531    1.2177  -14.4630 C   0  0  0  0  0  0  0  0  0  0  0  0
  -22.1599    2.3044  -14.1427 N   0  0  0  0  0  0  0  0  0  0  0  0
  -23.2638    2.1354  -13.4114 C   0  0  0  0  0  0  0  0  0  0  0  0
  -23.7331    0.9659  -12.9794 N   0  0  0  0  0  0  0  0  0  0  0  0
  -20.2653    1.3684  -15.2027 N   0  0  0  0  0  0  0  0  0  0  0  0
  -19.3770    2.4097  -15.0108 C   0  0  0  0  0  0  0  0  0  0  0  0
  -19.4904    3.3523  -14.2392 O   0  0  0  0  0  0  0  0  0  0  0  0
  -20.0493    0.6716  -15.8993 H   0  0  0  0  0  0  0  0  0  0  0  0
  -18.1571    2.3469  -15.8783 C   0  0  0  0  0  0  0  0  0  0  0  0
  -16.8189    2.0087  -15.2493 C   0  0  0  0  0  0  0  0  0  0  0  0
  -17.0898    3.4075  -15.7188 C   0  0  0  0  0  0  0  0  0  0  0  0
  1  2  1  0  0  0
  2  3  1  0  0  0
  2  7  2  0  0  0
  3  4  2  0  0  0
  4  8  1  0  0  0
  4  5  1  0  0  0
  8  9  1  0  0  0
  8 12  1  0  0  0
  9 10  2  0  0  0
  9 11  1  0  0  0
 11 14  1  0  0  0
 11 13  1  0  0  0
 14 15  1  0  0  0
 14 20  2  0  0  0
 15 16  2  0  0  0
 16 17  1  0  0  0
 17 18  1  0  0  0
 17 19  2  0  0  0
 19 21  1  0  0  0
 19 20  1  0  0  0
 21 22  1  0  0  0
 21 23  1  0  0  0
 21 24  1  0  0  0
  5  6  2  0  0  0
  6 25  1  0  0  0
  6  7  1  0  0  0
 25 26  1  0  0  0
 26 27  1  0  0  0
 26 31  2  0  0  0
 27 28  2  0  0  0
 28 32  1  0  0  0
 28 29  1  0  0  0
 32 33  1  0  0  0
 32 35  1  0  0  0
 33 34  2  0  0  0
 33 36  1  0  0  0
 36 37  1  0  0  0
 36 38  1  0  0  0
 37 38  1  0  0  0
 29 30  2  0  0  0
 30 31  1  0  0  0
M  END
> <minimizedAffinity>
-10.93184

$$$$
