CHEMBL3288502


 33 37  0  0  0  0  0  0  0  0999 V2000
  -22.8483   -0.2795  -13.5886 C   0  0  0  0  0  0  0  0  0  0  0  0
  -22.9676   -0.2977  -12.1911 C   0  0  0  0  0  0  0  0  0  0  0  0
  -24.1151   -0.7954  -11.5520 C   0  0  0  0  0  0  0  0  0  0  0  0
  -25.2572   -1.1958  -12.2825 C   0  0  0  0  0  0  0  0  0  0  0  0
  -26.5057   -1.6145  -11.7332 C   0  0  0  0  0  0  0  0  0  0  0  0
  -27.5715   -1.9822  -12.5793 C   0  0  0  0  0  0  0  0  0  0  0  0
  -27.4259   -1.9527  -13.9584 C   0  0  0  0  0  0  0  0  0  0  0  0
  -26.2085   -1.5723  -14.5083 C   0  0  0  0  0  0  0  0  0  0  0  0
  -25.1310   -1.1980  -13.6921 C   0  0  0  0  0  0  0  0  0  0  0  0
  -23.9225   -0.8250  -14.3026 C   0  0  0  0  0  0  0  0  0  0  0  0
  -23.0194    3.1318  -13.3214 N   0  0  0  0  0  0  0  0  0  0  0  0
  -21.9228    2.9098  -14.0632 C   0  0  0  0  0  0  0  0  0  0  0  0
  -21.2341    3.9425  -14.5393 N   0  0  0  0  0  0  0  0  0  0  0  0
  -20.2085    3.3737  -15.1718 N   0  0  0  0  0  0  0  0  0  0  0  0
  -20.2007    2.0064  -15.1253 C   0  0  0  0  0  0  0  0  0  0  0  0
  -19.2726    1.1034  -15.6466 C   0  0  0  0  0  0  0  0  0  0  0  0
  -19.5311   -0.2469  -15.4692 C   0  0  0  0  0  0  0  0  0  0  0  0
  -20.6831   -0.6662  -14.8068 C   0  0  0  0  0  0  0  0  0  0  0  0
  -21.6337    0.2398  -14.2648 C   0  0  0  0  0  0  0  0  0  0  0  0
  -21.3545    1.6367  -14.4236 C   0  0  0  0  0  0  0  0  0  0  0  0
  -23.1754    4.1003  -13.0636 H   0  0  0  0  0  0  0  0  0  0  0  0
  -23.2576    2.4828  -12.5805 H   0  0  0  0  0  0  0  0  0  0  0  0
  -19.5302    3.9773  -15.6229 H   0  0  0  0  0  0  0  0  0  0  0  0
  -26.7930   -1.7577  -10.2771 C   0  0  0  0  0  0  0  0  0  0  0  0
  -25.9411   -1.3373   -9.4983 O   0  0  0  0  0  0  0  0  0  0  0  0
  -27.9534   -2.4276   -9.9261 N   0  0  0  0  0  0  0  0  0  0  0  0
  -28.4791   -2.8639  -10.6722 H   0  0  0  0  0  0  0  0  0  0  0  0
  -28.4042   -2.6883   -8.6108 C   0  0  0  0  0  0  0  0  0  0  0  0
  -29.1707   -3.8046   -8.2623 C   0  0  0  0  0  0  0  0  0  0  0  0
  -29.6493   -3.9644   -6.9604 C   0  0  0  0  0  0  0  0  0  0  0  0
  -29.3522   -3.0179   -5.9840 C   0  0  0  0  0  0  0  0  0  0  0  0
  -28.5542   -1.9227   -6.3071 C   0  0  0  0  0  0  0  0  0  0  0  0
  -28.0720   -1.7657   -7.6120 C   0  0  0  0  0  0  0  0  0  0  0  0
 11 12  1  0  0  0
 11 21  1  0  0  0
 11 22  1  0  0  0
 12 13  2  0  0  0
 12 20  1  0  0  0
 13 14  1  0  0  0
 14 15  1  0  0  0
 14 23  1  0  0  0
 15 16  1  0  0  0
 15 20  2  0  0  0
 16 17  2  0  0  0
 17 18  1  0  0  0
 18 19  2  0  0  0
 19  1  1  0  0  0
 19 20  1  0  0  0
  1  2  1  0  0  0
  1 10  2  0  0  0
  2  3  2  0  0  0
  3  4  1  0  0  0
  4  5  1  0  0  0
  4  9  2  0  0  0
  5 24  1  0  0  0
  5  6  2  0  0  0
 24 25  2  0  0  0
 24 26  1  0  0  0
 26 28  1  0  0  0
 26 27  1  0  0  0
 28 29  1  0  0  0
 28 33  2  0  0  0
 29 30  2  0  0  0
 30 31  1  0  0  0
 31 32  2  0  0  0
 32 33  1  0  0  0
  6  7  1  0  0  0
  7  8  2  0  0  0
  8  9  1  0  0  0
  9 10  1  0  0  0
M  END
> <minimizedAffinity>
-10.94988

$$$$
