CHEMBL4466088


 36 39  0  0  0  0  0  0  0  0999 V2000
  -23.0454   10.3042  -18.1196 O   0  0  0  0  0  0  0  0  0  0  0  0
  -22.7189   11.3494  -17.5628 C   0  0  0  0  0  0  0  0  0  0  0  0
  -21.7600   12.2568  -18.0356 N   0  0  0  0  0  0  0  0  0  0  0  0
  -21.6150   13.1067  -17.5042 H   0  0  0  0  0  0  0  0  0  0  0  0
  -20.9554   12.1124  -19.2031 C   0  0  0  0  0  0  0  0  0  0  0  0
  -21.3230   12.6588  -20.4333 C   0  0  0  0  0  0  0  0  0  0  0  0
  -20.5335   12.4723  -21.5626 C   0  0  0  0  0  0  0  0  0  0  0  0
  -19.3391   11.7712  -21.4680 C   0  0  0  0  0  0  0  0  0  0  0  0
  -18.8964   11.2654  -20.2451 C   0  0  0  0  0  0  0  0  0  0  0  0
  -19.7361   11.4006  -19.1187 C   0  0  0  0  0  0  0  0  0  0  0  0
  -17.6291   10.6420  -20.1145 N   0  0  0  0  0  0  0  0  0  0  0  0
  -17.2541    9.4446  -20.7156 C   0  0  0  0  0  0  0  0  0  0  0  0
  -17.9531    8.7335  -21.4340 O   0  0  0  0  0  0  0  0  0  0  0  0
  -16.8779   11.1393  -19.6450 H   0  0  0  0  0  0  0  0  0  0  0  0
  -15.8343    9.0226  -20.4905 C   0  0  0  0  0  0  0  0  0  0  0  0
  -15.4232    8.6980  -19.1974 C   0  0  0  0  0  0  0  0  0  0  0  0
  -14.1096    8.2919  -18.9967 C   0  0  0  0  0  0  0  0  0  0  0  0
  -13.2527    8.2252  -20.0882 C   0  0  0  0  0  0  0  0  0  0  0  0
  -13.7462    8.5696  -21.3406 C   0  0  0  0  0  0  0  0  0  0  0  0
  -15.0198    8.9647  -21.5803 N   0  0  0  0  0  0  0  0  0  0  0  0
  -23.4131   11.8165  -16.2794 C   0  0  0  0  0  0  0  0  0  0  0  0
  -25.2045   11.4332  -16.2970 S   0  0  0  0  0  0  0  0  0  0  0  0
  -25.7374   11.9092  -14.6766 C   0  0  0  0  0  0  0  0  0  0  0  0
  -24.6233   12.2884  -13.4676 S   0  0  0  0  0  0  0  0  0  0  0  0
  -27.1238   11.9235  -14.4788 N   0  0  0  0  0  0  0  0  0  0  0  0
  -27.8400   12.6589  -13.4076 C   0  0  0  0  0  0  0  0  0  0  0  0
  -28.7737   11.7397  -12.5985 C   0  0  0  0  0  0  0  0  0  0  0  0
  -29.6448   10.9455  -13.4851 N   0  0  0  0  0  0  0  0  0  0  0  0
  -28.9605   10.2444  -14.5862 C   0  0  0  0  0  0  0  0  0  0  0  0
  -28.0670   11.2238  -15.3778 C   0  0  0  0  0  0  0  0  0  0  0  0
  -31.0249   11.0226  -13.4730 C   0  0  0  0  0  0  0  0  0  0  0  0
  -31.7618   11.5638  -14.5345 C   0  0  0  0  0  0  0  0  0  0  0  0
  -33.1629   11.6006  -14.5140 C   0  0  0  0  0  0  0  0  0  0  0  0
  -33.8621   11.1060  -13.4184 C   0  0  0  0  0  0  0  0  0  0  0  0
  -33.1591   10.5823  -12.3410 C   0  0  0  0  0  0  0  0  0  0  0  0
  -31.7607   10.5463  -12.3738 C   0  0  0  0  0  0  0  0  0  0  0  0
  1  2  2  0  0  0
  2 21  1  0  0  0
  2  3  1  0  0  0
 21 22  1  0  0  0
 22 23  1  0  0  0
 23 24  2  0  0  0
 23 25  1  0  0  0
 25 26  1  0  0  0
 25 30  1  0  0  0
 26 27  1  0  0  0
 27 28  1  0  0  0
 28 31  1  0  0  0
 28 29  1  0  0  0
 31 32  1  0  0  0
 31 36  2  0  0  0
 32 33  2  0  0  0
 33 34  1  0  0  0
 34 35  2  0  0  0
 35 36  1  0  0  0
 29 30  1  0  0  0
  3  5  1  0  0  0
  3  4  1  0  0  0
  5  6  1  0  0  0
  5 10  2  0  0  0
  6  7  2  0  0  0
  7  8  1  0  0  0
  8  9  2  0  0  0
  9 11  1  0  0  0
  9 10  1  0  0  0
 11 12  1  0  0  0
 11 14  1  0  0  0
 12 13  2  0  0  0
 12 15  1  0  0  0
 15 16  1  0  0  0
 15 20  2  0  0  0
 16 17  2  0  0  0
 17 18  1  0  0  0
 18 19  2  0  0  0
 19 20  1  0  0  0
M  END
> <minimizedAffinity>
-6.22578

$$$$
