CHEMBL382478


 32 36  0  0  0  0  0  0  0  0999 V2000
  -27.9619   -8.0041   -6.0777 O   0  0  0  0  0  0  0  0  0  0  0  0
  -28.1147   -8.1311   -4.8697 C   0  0  0  0  0  0  0  0  0  0  0  0
  -28.4202   -7.0919   -3.9948 N   0  0  0  0  0  0  0  0  0  0  0  0
  -28.6405   -7.3227   -3.0395 H   0  0  0  0  0  0  0  0  0  0  0  0
  -28.5314   -5.7168   -4.3179 C   0  0  0  0  0  0  0  0  0  0  0  0
  -27.6026   -4.7529   -3.9399 C   0  0  0  0  0  0  0  0  0  0  0  0
  -27.7412   -3.4190   -4.3494 C   0  0  0  0  0  0  0  0  0  0  0  0
  -28.8104   -2.9988   -5.1546 C   0  0  0  0  0  0  0  0  0  0  0  0
  -29.7744   -3.9687   -5.4765 C   0  0  0  0  0  0  0  0  0  0  0  0
  -29.6401   -5.3058   -5.0651 C   0  0  0  0  0  0  0  0  0  0  0  0
  -28.8845   -1.6110   -5.6760 C   0  0  0  0  0  0  0  0  0  0  0  0
  -29.7648   -0.6672   -5.1094 C   0  0  0  0  0  0  0  0  0  0  0  0
  -29.8126    0.6582   -5.5567 C   0  0  0  0  0  0  0  0  0  0  0  0
  -28.9723    1.0755   -6.5809 C   0  0  0  0  0  0  0  0  0  0  0  0
  -28.0994    0.1635   -7.1679 C   0  0  0  0  0  0  0  0  0  0  0  0
  -28.0624   -1.1634   -6.7260 C   0  0  0  0  0  0  0  0  0  0  0  0
  -27.9402   -9.4971   -4.2609 C   0  0  0  0  0  0  0  0  0  0  0  0
  -29.0969  -10.2781   -4.0436 C   0  0  0  0  0  0  0  0  0  0  0  0
  -29.0260  -11.5366   -3.4460 C   0  0  0  0  0  0  0  0  0  0  0  0
  -27.7974  -12.0445   -3.0558 C   0  0  0  0  0  0  0  0  0  0  0  0
  -26.6450  -11.2809   -3.2356 C   0  0  0  0  0  0  0  0  0  0  0  0
  -26.6875   -9.9870   -3.8075 C   0  0  0  0  0  0  0  0  0  0  0  0
  -25.3795   -9.2070   -3.8056 C   0  0  0  0  0  0  0  0  0  0  0  0
  -24.2328   -9.9686   -4.3440 N   0  0  0  0  0  0  0  0  0  0  0  0
  -23.3042  -10.5687   -3.4829 C   0  0  0  0  0  0  0  0  0  0  0  0
  -22.2906  -11.3632   -3.8673 C   0  0  0  0  0  0  0  0  0  0  0  0
  -22.1774  -11.6032   -5.3108 C   0  0  0  0  0  0  0  0  0  0  0  0
  -21.3251  -12.2949   -6.0000 N   0  0  0  0  0  0  0  0  0  0  0  0
  -21.7772  -12.1344   -7.3061 C   0  0  0  0  0  0  0  0  0  0  0  0
  -22.8444  -11.4059   -7.4887 N   0  0  0  0  0  0  0  0  0  0  0  0
  -23.1590  -11.0131   -6.2220 C   0  0  0  0  0  0  0  0  0  0  0  0
  -24.1264  -10.2487   -5.7133 C   0  0  0  0  0  0  0  0  0  0  0  0
  1  2  2  0  0  0
  2  3  1  0  0  0
  2 17  1  0  0  0
  3  5  1  0  0  0
  3  4  1  0  0  0
  5  6  1  0  0  0
  5 10  2  0  0  0
  6  7  2  0  0  0
  7  8  1  0  0  0
  8 11  1  0  0  0
  8  9  2  0  0  0
 11 12  1  0  0  0
 11 16  2  0  0  0
 12 13  2  0  0  0
 13 14  1  0  0  0
 14 15  2  0  0  0
 15 16  1  0  0  0
  9 10  1  0  0  0
 17 18  1  0  0  0
 17 22  2  0  0  0
 18 19  2  0  0  0
 19 20  1  0  0  0
 20 21  2  0  0  0
 21 22  1  0  0  0
 22 23  1  0  0  0
 23 24  1  0  0  0
 24 25  1  0  0  0
 24 32  1  0  0  0
 25 26  2  0  0  0
 26 27  1  0  0  0
 27 28  2  0  0  0
 27 31  1  0  0  0
 28 29  1  0  0  0
 29 30  2  0  0  0
 30 31  1  0  0  0
 31 32  2  0  0  0
M  END
> <minimizedAffinity>
-9.49961

$$$$
