CHEMBL3690547


 39 43  0  0  0  0  0  0  0  0999 V2000
  -14.0474   -1.6642  -13.3846 C   0  0  0  0  0  0  0  0  0  0  0  0
  -15.4744   -1.5577  -13.0488 C   0  0  0  0  0  0  0  0  0  0  0  0
  -16.2616   -0.6801  -13.6908 C   0  0  0  0  0  0  0  0  0  0  0  0
  -15.7153    0.1800  -14.6471 N   0  0  0  0  0  0  0  0  0  0  0  0
  -16.2872    1.2140  -15.3962 C   0  0  0  0  0  0  0  0  0  0  0  0
  -15.2515    1.6264  -16.2221 C   0  0  0  0  0  0  0  0  0  0  0  0
  -14.0844    0.9558  -15.9738 N   0  0  0  0  0  0  0  0  0  0  0  0
  -14.3700    0.1124  -15.0067 C   0  0  0  0  0  0  0  0  0  0  0  0
  -13.5425   -0.8357  -14.3325 C   0  0  0  0  0  0  0  0  0  0  0  0
  -12.8261   -4.9034  -12.1825 C   0  0  0  0  0  0  0  0  0  0  0  0
  -11.7138   -4.5431  -11.4437 C   0  0  0  0  0  0  0  0  0  0  0  0
  -11.3856   -3.2079  -11.4389 C   0  0  0  0  0  0  0  0  0  0  0  0
  -12.0907   -2.2679  -12.0878 N   0  0  0  0  0  0  0  0  0  0  0  0
  -13.1714   -2.6995  -12.7642 C   0  0  0  0  0  0  0  0  0  0  0  0
  -13.5525   -3.9851  -12.8436 N   0  0  0  0  0  0  0  0  0  0  0  0
  -13.5882   -9.3853  -12.0645 N   0  0  0  0  0  0  0  0  0  0  0  0
  -12.8208   -8.1915  -11.6933 C   0  0  0  0  0  0  0  0  0  0  0  0
  -13.7520   -7.0790  -11.1902 C   0  0  0  0  0  0  0  0  0  0  0  0
  -13.2445   -6.2406  -12.2343 N   0  0  0  0  0  0  0  0  0  0  0  0
  -12.5703   -7.3055  -12.9200 C   0  0  0  0  0  0  0  0  0  0  0  0
  -13.8968   -9.9373  -11.2656 H   0  0  0  0  0  0  0  0  0  0  0  0
  -13.0729  -10.0287  -12.6650 H   0  0  0  0  0  0  0  0  0  0  0  0
  -17.6471    1.7674  -15.2578 C   0  0  0  0  0  0  0  0  0  0  0  0
  -17.8533    3.1490  -15.3497 C   0  0  0  0  0  0  0  0  0  0  0  0
  -19.1224    3.6970  -15.2230 C   0  0  0  0  0  0  0  0  0  0  0  0
  -20.2254    2.8623  -15.0865 C   0  0  0  0  0  0  0  0  0  0  0  0
  -20.0883    1.4763  -15.0759 C   0  0  0  0  0  0  0  0  0  0  0  0
  -18.7838    0.9344  -15.1254 C   0  0  0  0  0  0  0  0  0  0  0  0
  -21.2100    0.6044  -15.0353 N   0  0  0  0  0  0  0  0  0  0  0  0
  -22.0518    0.4255  -13.9569 C   0  0  0  0  0  0  0  0  0  0  0  0
  -21.9872    0.9751  -12.8638 O   0  0  0  0  0  0  0  0  0  0  0  0
  -23.0270   -0.5183  -14.1944 N   0  0  0  0  0  0  0  0  0  0  0  0
  -21.4276    0.1034  -15.8846 H   0  0  0  0  0  0  0  0  0  0  0  0
  -23.3674   -0.5893  -15.1407 H   0  0  0  0  0  0  0  0  0  0  0  0
  -23.9924   -0.7908  -13.1110 C   0  0  0  0  0  0  0  0  0  0  0  0
  -23.6558   -1.9556  -12.1654 C   0  0  0  0  0  0  0  0  0  0  0  0
  -24.7257   -2.3502  -11.4380 F   0  0  0  0  0  0  0  0  0  0  0  0
  -23.2600   -3.0329  -12.8912 F   0  0  0  0  0  0  0  0  0  0  0  0
  -22.6513   -1.6598  -11.3151 F   0  0  0  0  0  0  0  0  0  0  0  0
 16 17  1  0  0  0
 16 21  1  0  0  0
 16 22  1  0  0  0
 17 18  1  0  0  0
 17 20  1  0  0  0
 18 19  1  0  0  0
 19 10  1  0  0  0
 19 20  1  0  0  0
 10 11  1  0  0  0
 10 15  2  0  0  0
 11 12  2  0  0  0
 12 13  1  0  0  0
 13 14  2  0  0  0
 14  1  1  0  0  0
 14 15  1  0  0  0
  1  2  1  0  0  0
  1  9  2  0  0  0
  2  3  2  0  0  0
  3  4  1  0  0  0
  4  5  1  0  0  0
  4  8  1  0  0  0
  5 23  1  0  0  0
  5  6  2  0  0  0
 23 24  1  0  0  0
 23 28  2  0  0  0
 24 25  2  0  0  0
 25 26  1  0  0  0
 26 27  2  0  0  0
 27 29  1  0  0  0
 27 28  1  0  0  0
 29 30  1  0  0  0
 29 33  1  0  0  0
 30 31  2  0  0  0
 30 32  1  0  0  0
 32 35  1  0  0  0
 32 34  1  0  0  0
 35 36  1  0  0  0
 36 37  1  0  0  0
 36 38  1  0  0  0
 36 39  1  0  0  0
  6  7  1  0  0  0
  7  8  2  0  0  0
  8  9  1  0  0  0
M  END
> <minimizedAffinity>
-10.02692

$$$$
