CHEMBL4475243


 33 37  0  0  0  0  0  0  0  0999 V2000
  -12.6583   -2.4646  -13.6074 N   0  0  0  0  0  0  0  0  0  0  0  0
  -13.6355   -1.5406  -13.3589 C   0  0  0  0  0  0  0  0  0  0  0  0
  -14.0244   -0.9938  -14.5635 C   0  0  0  0  0  0  0  0  0  0  0  0
  -13.1962   -1.5464  -15.5853 C   0  0  0  0  0  0  0  0  0  0  0  0
  -12.9920   -1.3741  -16.9667 C   0  0  0  0  0  0  0  0  0  0  0  0
  -13.6874   -0.4756  -17.7695 N   0  0  0  0  0  0  0  0  0  0  0  0
  -12.0145   -2.0720  -17.5769 N   0  0  0  0  0  0  0  0  0  0  0  0
  -11.2606   -2.9011  -16.8347 C   0  0  0  0  0  0  0  0  0  0  0  0
  -11.3590   -3.1541  -15.5214 N   0  0  0  0  0  0  0  0  0  0  0  0
  -12.3397   -2.4401  -14.9446 C   0  0  0  0  0  0  0  0  0  0  0  0
  -13.9308    0.3824  -17.2893 H   0  0  0  0  0  0  0  0  0  0  0  0
  -13.1842   -0.3432  -18.6404 H   0  0  0  0  0  0  0  0  0  0  0  0
  -15.0896    0.0411  -14.6694 C   0  0  0  0  0  0  0  0  0  0  0  0
  -16.4347   -0.1726  -14.4864 C   0  0  0  0  0  0  0  0  0  0  0  0
  -17.2275    0.9845  -14.7937 C   0  0  0  0  0  0  0  0  0  0  0  0
  -18.6293    1.1638  -14.7738 C   0  0  0  0  0  0  0  0  0  0  0  0
  -19.1937    2.3854  -15.1638 C   0  0  0  0  0  0  0  0  0  0  0  0
  -20.6804    2.5871  -15.1188 C   0  0  0  0  0  0  0  0  0  0  0  0
  -18.3634    3.4268  -15.5913 C   0  0  0  0  0  0  0  0  0  0  0  0
  -16.9693    3.2924  -15.6109 C   0  0  0  0  0  0  0  0  0  0  0  0
  -16.4278    2.0603  -15.1833 C   0  0  0  0  0  0  0  0  0  0  0  0
  -14.7555    1.6637  -15.0444 S   0  0  0  0  0  0  0  0  0  0  0  0
  -16.0844    4.2563  -16.0105 O   0  0  0  0  0  0  0  0  0  0  0  0
  -15.6671    4.2548  -17.3656 C   0  0  0  0  0  0  0  0  0  0  0  0
  -12.8440   -3.5876   -8.9968 C   0  0  0  0  0  0  0  0  0  0  0  0
  -14.0316   -3.8668   -8.8481 O   0  0  0  0  0  0  0  0  0  0  0  0
  -12.2424   -3.5564  -10.2306 N   0  0  0  0  0  0  0  0  0  0  0  0
  -10.8338   -3.4619  -10.5689 C   0  0  0  0  0  0  0  0  0  0  0  0
  -10.8408   -2.7775  -11.9210 C   0  0  0  0  0  0  0  0  0  0  0  0
  -12.1022   -3.3379  -12.5924 C   0  0  0  0  0  0  0  0  0  0  0  0
  -13.0477   -3.6879  -11.4375 C   0  0  0  0  0  0  0  0  0  0  0  0
  -11.5991   -4.1473   -6.9565 C   0  0  0  0  0  0  0  0  0  0  0  0
  -11.9981   -3.2163   -7.8314 C   0  0  0  0  0  0  0  0  0  0  0  0
 32 33  2  0  0  0
 33 25  1  0  0  0
 25 26  2  0  0  0
 25 27  1  0  0  0
 27 28  1  0  0  0
 27 31  1  0  0  0
 28 29  1  0  0  0
 29 30  1  0  0  0
 30 31  1  0  0  0
 30  1  1  0  0  0
  1  2  1  0  0  0
  1 10  1  0  0  0
  2  3  2  0  0  0
  3 13  1  0  0  0
  3  4  1  0  0  0
 13 14  2  0  0  0
 13 22  1  0  0  0
 14 15  1  0  0  0
 15 16  1  0  0  0
 15 21  2  0  0  0
 16 17  2  0  0  0
 17 18  1  0  0  0
 17 19  1  0  0  0
 19 20  2  0  0  0
 20 23  1  0  0  0
 20 21  1  0  0  0
 23 24  1  0  0  0
 21 22  1  0  0  0
  4  5  1  0  0  0
  4 10  2  0  0  0
  5  6  1  0  0  0
  5  7  2  0  0  0
  6 11  1  0  0  0
  6 12  1  0  0  0
  7  8  1  0  0  0
  8  9  2  0  0  0
  9 10  1  0  0  0
M  END
> <minimizedAffinity>
-7.42079

$$$$
