CHEMBL3905048


 36 40  0  0  0  0  0  0  0  0999 V2000
  -28.6447   -9.8000   -5.4359 N   0  0  0  0  0  0  0  0  0  0  0  0
  -28.5955   -8.4019   -5.0662 C   0  0  0  0  0  0  0  0  0  0  0  0
  -29.0608   -8.1343   -3.7758 C   0  0  0  0  0  0  0  0  0  0  0  0
  -29.6075   -6.9050   -3.4693 C   0  0  0  0  0  0  0  0  0  0  0  0
  -29.5873   -5.8571   -4.3540 C   0  0  0  0  0  0  0  0  0  0  0  0
  -30.3324   -4.8130   -3.9744 N   0  0  0  0  0  0  0  0  0  0  0  0
  -30.2301   -3.6982   -4.7053 C   0  0  0  0  0  0  0  0  0  0  0  0
  -29.3319   -3.5834   -5.7446 C   0  0  0  0  0  0  0  0  0  0  0  0
  -28.6507   -4.6923   -6.2176 N   0  0  0  0  0  0  0  0  0  0  0  0
  -28.8261   -5.9144   -5.5481 C   0  0  0  0  0  0  0  0  0  0  0  0
  -28.3852   -7.2587   -5.9120 C   0  0  0  0  0  0  0  0  0  0  0  0
  -29.0457   -2.2121   -6.1805 C   0  0  0  0  0  0  0  0  0  0  0  0
  -27.9386   -1.7201   -6.9256 C   0  0  0  0  0  0  0  0  0  0  0  0
  -27.8485   -0.3834   -6.9187 N   0  0  0  0  0  0  0  0  0  0  0  0
  -28.8887   -0.0045   -6.1588 N   0  0  0  0  0  0  0  0  0  0  0  0
  -29.2999    1.3807   -6.1210 C   0  0  0  0  0  0  0  0  0  0  0  0
  -29.5235   -1.0637   -5.5627 C   0  0  0  0  0  0  0  0  0  0  0  0
  -31.2362  -11.2190   -7.7722 C   0  0  0  0  0  0  0  0  0  0  0  0
  -30.4977  -11.3599   -8.9470 C   0  0  0  0  0  0  0  0  0  0  0  0
  -29.1382  -11.0595   -8.9346 C   0  0  0  0  0  0  0  0  0  0  0  0
  -28.5292  -10.6011   -7.7651 C   0  0  0  0  0  0  0  0  0  0  0  0
  -29.2292  -10.4334   -6.5617 C   0  0  0  0  0  0  0  0  0  0  0  0
  -30.5983  -10.8047   -6.5817 C   0  0  0  0  0  0  0  0  0  0  0  0
  -33.2126  -11.3528   -6.3841 C   0  0  0  0  0  0  0  0  0  0  0  0
  -32.5942  -11.4020   -7.6708 O   0  0  0  0  0  0  0  0  0  0  0  0
  -28.3158  -11.0873  -10.0295 O   0  0  0  0  0  0  0  0  0  0  0  0
  -28.8780  -10.5916  -11.2367 C   0  0  0  0  0  0  0  0  0  0  0  0
  -28.6326  -10.6119   -4.1411 C   0  0  0  0  0  0  0  0  0  0  0  0
  -27.9321  -12.0220   -4.1585 C   0  0  0  0  0  0  0  0  0  0  0  0
  -26.4444  -11.9623   -3.9579 N   0  0  0  0  0  0  0  0  0  0  0  0
  -25.6816  -12.1938   -5.2011 C   0  0  0  0  0  0  0  0  0  0  0  0
  -24.1446  -12.1422   -4.9918 C   0  0  0  0  0  0  0  0  0  0  0  0
  -23.6260  -10.9163   -4.3634 N   0  0  0  0  0  0  0  0  0  0  0  0
  -23.5341   -9.8075   -5.3045 C   0  0  0  0  0  0  0  0  0  0  0  0
  -24.4454  -10.5912   -3.1787 C   0  0  0  0  0  0  0  0  0  0  0  0
  -25.9924  -10.6730   -3.3753 C   0  0  0  0  0  0  0  0  0  0  0  0
 24 25  1  0  0  0
 25 18  1  0  0  0
 18 19  1  0  0  0
 18 23  2  0  0  0
 19 20  2  0  0  0
 20 26  1  0  0  0
 20 21  1  0  0  0
 26 27  1  0  0  0
 21 22  2  0  0  0
 22  1  1  0  0  0
 22 23  1  0  0  0
  1 28  1  0  0  0
  1  2  1  0  0  0
 28 29  1  0  0  0
 29 30  1  0  0  0
 30 31  1  0  0  0
 30 36  1  0  0  0
 31 32  1  0  0  0
 32 33  1  0  0  0
 33 34  1  0  0  0
 33 35  1  0  0  0
 35 36  1  0  0  0
  2  3  1  0  0  0
  2 11  2  0  0  0
  3  4  2  0  0  0
  4  5  1  0  0  0
  5  6  1  0  0  0
  5 10  2  0  0  0
  6  7  2  0  0  0
  7  8  1  0  0  0
  8 12  1  0  0  0
  8  9  2  0  0  0
 12 13  1  0  0  0
 12 17  2  0  0  0
 13 14  2  0  0  0
 14 15  1  0  0  0
 15 16  1  0  0  0
 15 17  1  0  0  0
  9 10  1  0  0  0
 10 11  1  0  0  0
M  END
> <minimizedAffinity>
-7.88748

$$$$
