CHEMBL2322142


 19 22  0  0  0  0  0  0  0  0999 V2000
  -31.6694   -4.9443   -3.1641 C   0  0  0  0  0  0  0  0  0  0  0  0
  -30.8124   -4.0624   -3.7972 C   0  0  0  0  0  0  0  0  0  0  0  0
  -30.4051   -4.7040   -4.9760 C   0  0  0  0  0  0  0  0  0  0  0  0
  -30.9935   -5.9512   -5.0455 C   0  0  0  0  0  0  0  0  0  0  0  0
  -30.8726   -6.9085   -6.0074 N   0  0  0  0  0  0  0  0  0  0  0  0
  -30.0662   -6.5709   -6.9876 C   0  0  0  0  0  0  0  0  0  0  0  0
  -29.3756   -5.2961   -7.0412 C   0  0  0  0  0  0  0  0  0  0  0  0
  -28.5432   -4.8758   -7.9682 N   0  0  0  0  0  0  0  0  0  0  0  0
  -28.1987   -3.6069   -7.5632 C   0  0  0  0  0  0  0  0  0  0  0  0
  -28.8359   -3.2427   -6.3863 C   0  0  0  0  0  0  0  0  0  0  0  0
  -29.5606   -4.3618   -6.0460 N   0  0  0  0  0  0  0  0  0  0  0  0
  -31.7728   -6.0842   -3.9288 N   0  0  0  0  0  0  0  0  0  0  0  0
  -32.3286   -6.9015   -3.7184 H   0  0  0  0  0  0  0  0  0  0  0  0
  -28.8548   -1.9618   -5.6136 C   0  0  0  0  0  0  0  0  0  0  0  0
  -29.8671   -0.9526   -6.1759 C   0  0  0  0  0  0  0  0  0  0  0  0
  -29.9254    0.2921   -5.2937 C   0  0  0  0  0  0  0  0  0  0  0  0
  -28.5486    0.9348   -5.1397 C   0  0  0  0  0  0  0  0  0  0  0  0
  -27.5004   -0.0648   -4.6549 C   0  0  0  0  0  0  0  0  0  0  0  0
  -27.4626   -1.3202   -5.5275 C   0  0  0  0  0  0  0  0  0  0  0  0
  1  2  2  0  0  0
  1 12  1  0  0  0
  2  3  1  0  0  0
  3  4  2  0  0  0
  3 11  1  0  0  0
  4  5  1  0  0  0
  4 12  1  0  0  0
  5  6  2  0  0  0
  6  7  1  0  0  0
  7  8  2  0  0  0
  7 11  1  0  0  0
  8  9  1  0  0  0
  9 10  2  0  0  0
 10 14  1  0  0  0
 10 11  1  0  0  0
 14 15  1  0  0  0
 14 19  1  0  0  0
 15 16  1  0  0  0
 16 17  1  0  0  0
 17 18  1  0  0  0
 18 19  1  0  0  0
 12 13  1  0  0  0
M  END
> <minimizedAffinity>
-7.15231

$$$$
