CHEMBL3133756


 49 53  0  0  0  0  0  0  0  0999 V2000
  -26.5097   -1.9647   -9.1394 N   0  0  0  0  0  0  0  0  0  0  0  0
  -25.9492   -2.7698   -8.8870 H   0  0  0  0  0  0  0  0  0  0  0  0
  -27.4685   -1.7176   -8.1218 C   0  0  0  0  0  0  0  0  0  0  0  0
  -27.6074   -0.4653   -7.6406 N   0  0  0  0  0  0  0  0  0  0  0  0
  -28.4884   -0.2715   -6.6603 C   0  0  0  0  0  0  0  0  0  0  0  0
  -29.2705   -1.2036   -6.1282 N   0  0  0  0  0  0  0  0  0  0  0  0
  -29.1088   -2.4379   -6.5949 C   0  0  0  0  0  0  0  0  0  0  0  0
  -29.8528   -3.4142   -5.9824 C   0  0  0  0  0  0  0  0  0  0  0  0
  -29.6882   -4.7637   -6.2870 C   0  0  0  0  0  0  0  0  0  0  0  0
  -28.8416   -5.1371   -7.3232 C   0  0  0  0  0  0  0  0  0  0  0  0
  -28.1100   -4.1579   -7.9944 C   0  0  0  0  0  0  0  0  0  0  0  0
  -28.2137   -2.7931   -7.6083 C   0  0  0  0  0  0  0  0  0  0  0  0
  -30.2922   -5.7739   -5.5944 O   0  0  0  0  0  0  0  0  0  0  0  0
  -29.6224   -6.1396   -4.3812 C   0  0  0  0  0  0  0  0  0  0  0  0
  -29.4552   -7.6395   -4.3862 C   0  0  0  0  0  0  0  0  0  0  0  0
  -28.3801   -8.0794   -5.3785 C   0  0  0  0  0  0  0  0  0  0  0  0
  -28.7210   -9.3753   -5.9820 N   0  0  0  0  0  0  0  0  0  0  0  0
  -27.7858   -9.7798   -7.0533 C   0  0  0  0  0  0  0  0  0  0  0  0
  -27.9415   -8.9942   -8.3781 C   0  0  0  0  0  0  0  0  0  0  0  0
  -29.3168   -9.0109   -8.9351 N   0  0  0  0  0  0  0  0  0  0  0  0
  -30.2570   -8.6101   -7.8635 C   0  0  0  0  0  0  0  0  0  0  0  0
  -30.0950   -9.3705   -6.5247 C   0  0  0  0  0  0  0  0  0  0  0  0
  -29.6031  -10.3526   -9.4971 C   0  0  0  0  0  0  0  0  0  0  0  0
  -29.0046  -10.5871  -10.8914 C   0  0  0  0  0  0  0  0  0  0  0  0
  -29.4483   -9.5867  -11.8018 O   0  0  0  0  0  0  0  0  0  0  0  0
  -30.3870   -9.4324  -11.5766 H   0  0  0  0  0  0  0  0  0  0  0  0
  -25.6970   -1.5168  -12.7522 C   0  0  0  0  0  0  0  0  0  0  0  0
  -26.9801   -1.5365  -13.3059 C   0  0  0  0  0  0  0  0  0  0  0  0
  -28.1069   -1.6394  -12.4968 C   0  0  0  0  0  0  0  0  0  0  0  0
  -27.9597   -1.7647  -11.1212 C   0  0  0  0  0  0  0  0  0  0  0  0
  -26.6907   -1.8548  -10.5375 C   0  0  0  0  0  0  0  0  0  0  0  0
  -25.5636   -1.6954  -11.3674 C   0  0  0  0  0  0  0  0  0  0  0  0
  -24.1358    0.9005  -12.9435 O   0  0  0  0  0  0  0  0  0  0  0  0
  -23.8062   -0.1102  -13.5518 C   0  0  0  0  0  0  0  0  0  0  0  0
  -24.5208   -1.2990  -13.5186 N   0  0  0  0  0  0  0  0  0  0  0  0
  -22.6577   -0.1999  -14.3241 N   0  0  0  0  0  0  0  0  0  0  0  0
  -24.0821   -2.1166  -13.9126 H   0  0  0  0  0  0  0  0  0  0  0  0
  -22.5379   -1.0340  -14.8789 H   0  0  0  0  0  0  0  0  0  0  0  0
  -21.6775    0.8174  -14.4652 C   0  0  0  0  0  0  0  0  0  0  0  0
  -21.9584    2.1798  -14.3747 C   0  0  0  0  0  0  0  0  0  0  0  0
  -20.9566    3.1386  -14.5411 C   0  0  0  0  0  0  0  0  0  0  0  0
  -19.6335    2.7518  -14.7776 C   0  0  0  0  0  0  0  0  0  0  0  0
  -18.5026    4.0321  -14.9888 Cl  0  0  0  0  0  0  0  0  0  0  0  0
  -19.3102    1.3977  -14.8381 C   0  0  0  0  0  0  0  0  0  0  0  0
  -20.3488    0.4385  -14.6925 C   0  0  0  0  0  0  0  0  0  0  0  0
  -17.9068    0.8812  -15.0171 C   0  0  0  0  0  0  0  0  0  0  0  0
  -17.7570   -0.4634  -15.1242 F   0  0  0  0  0  0  0  0  0  0  0  0
  -17.3284    1.3994  -16.1404 F   0  0  0  0  0  0  0  0  0  0  0  0
  -17.0933    1.2587  -13.9889 F   0  0  0  0  0  0  0  0  0  0  0  0
 33 34  2  0  0  0
 34 35  1  0  0  0
 34 36  1  0  0  0
 35 27  1  0  0  0
 35 37  1  0  0  0
 27 28  1  0  0  0
 27 32  2  0  0  0
 28 29  2  0  0  0
 29 30  1  0  0  0
 30 31  2  0  0  0
 31  1  1  0  0  0
 31 32  1  0  0  0
  1  3  1  0  0  0
  1  2  1  0  0  0
  3  4  1  0  0  0
  3 12  2  0  0  0
  4  5  2  0  0  0
  5  6  1  0  0  0
  6  7  2  0  0  0
  7  8  1  0  0  0
  7 12  1  0  0  0
  8  9  2  0  0  0
  9 13  1  0  0  0
  9 10  1  0  0  0
 13 14  1  0  0  0
 14 15  1  0  0  0
 15 16  1  0  0  0
 16 17  1  0  0  0
 17 18  1  0  0  0
 17 22  1  0  0  0
 18 19  1  0  0  0
 19 20  1  0  0  0
 20 23  1  0  0  0
 20 21  1  0  0  0
 23 24  1  0  0  0
 24 25  1  0  0  0
 25 26  1  0  0  0
 21 22  1  0  0  0
 10 11  2  0  0  0
 11 12  1  0  0  0
 36 39  1  0  0  0
 36 38  1  0  0  0
 39 40  1  0  0  0
 39 45  2  0  0  0
 40 41  2  0  0  0
 41 42  1  0  0  0
 42 43  1  0  0  0
 42 44  2  0  0  0
 44 46  1  0  0  0
 44 45  1  0  0  0
 46 47  1  0  0  0
 46 48  1  0  0  0
 46 49  1  0  0  0
M  END
> <minimizedAffinity>
-10.19428

$$$$
