CHEMBL3323598


 30 34  0  0  0  0  0  0  0  0999 V2000
  -23.1544   -0.0535  -13.6895 C   0  0  0  0  0  0  0  0  0  0  0  0
  -24.2395   -0.5442  -14.3761 N   0  0  0  0  0  0  0  0  0  0  0  0
  -25.1231   -1.1364  -13.3976 C   0  0  0  0  0  0  0  0  0  0  0  0
  -26.4090   -1.7794  -13.4204 C   0  0  0  0  0  0  0  0  0  0  0  0
  -27.1866   -2.0445  -12.2287 C   0  0  0  0  0  0  0  0  0  0  0  0
  -26.7410   -1.7403  -10.9662 C   0  0  0  0  0  0  0  0  0  0  0  0
  -25.3311   -1.2997  -10.9117 C   0  0  0  0  0  0  0  0  0  0  0  0
  -24.5765   -0.9913  -12.1335 C   0  0  0  0  0  0  0  0  0  0  0  0
  -23.2805   -0.5455  -12.4196 N   0  0  0  0  0  0  0  0  0  0  0  0
  -22.5093   -0.5114  -11.7805 H   0  0  0  0  0  0  0  0  0  0  0  0
  -19.5988    2.4844  -14.9525 C   0  0  0  0  0  0  0  0  0  0  0  0
  -20.7609    3.0184  -14.4169 C   0  0  0  0  0  0  0  0  0  0  0  0
  -21.8737    2.1904  -14.0542 C   0  0  0  0  0  0  0  0  0  0  0  0
  -21.9428    0.8245  -14.1845 C   0  0  0  0  0  0  0  0  0  0  0  0
  -20.7763    0.2733  -14.8584 C   0  0  0  0  0  0  0  0  0  0  0  0
  -19.6267    1.0981  -15.1856 C   0  0  0  0  0  0  0  0  0  0  0  0
  -17.2468    2.6745  -15.9666 C   0  0  0  0  0  0  0  0  0  0  0  0
  -18.4221    3.3920  -15.3108 C   0  0  0  0  0  0  0  0  0  0  0  0
  -27.6178   -1.9429   -9.8135 N   0  0  0  0  0  0  0  0  0  0  0  0
  -28.5235   -1.5869  -10.1826 H   0  0  0  0  0  0  0  0  0  0  0  0
  -28.0631   -2.6582   -8.5376 C   0  0  0  0  0  0  0  0  0  0  0  0
  -28.4685   -4.2222   -8.0769 C   0  0  0  0  0  0  0  0  0  0  0  0
  -29.0958   -4.6216   -6.8910 C   0  0  0  0  0  0  0  0  0  0  0  0
  -28.4721   -3.5077   -6.4943 N   0  0  0  0  0  0  0  0  0  0  0  0
  -28.6225   -2.1778   -6.2664 C   0  0  0  0  0  0  0  0  0  0  0  0
  -28.8544   -1.6818   -5.0681 C   0  0  0  0  0  0  0  0  0  0  0  0
  -28.7489   -0.3340   -4.9684 C   0  0  0  0  0  0  0  0  0  0  0  0
  -28.2161    0.3928   -6.0520 C   0  0  0  0  0  0  0  0  0  0  0  0
  -27.8560   -0.2488   -7.2545 C   0  0  0  0  0  0  0  0  0  0  0  0
  -28.0690   -1.6434   -7.4184 C   0  0  0  0  0  0  0  0  0  0  0  0
 17 18  1  0  0  0
 18 11  1  0  0  0
 11 12  1  0  0  0
 11 16  2  0  0  0
 12 13  2  0  0  0
 13 14  1  0  0  0
 14  1  1  0  0  0
 14 15  2  0  0  0
  1  2  2  0  0  0
  1  9  1  0  0  0
  2  3  1  0  0  0
  3  4  1  0  0  0
  3  8  2  0  0  0
  4  5  2  0  0  0
  5  6  1  0  0  0
  6 19  1  0  0  0
  6  7  2  0  0  0
 19 21  1  0  0  0
 19 20  1  0  0  0
 21 22  1  0  0  0
 21 30  2  0  0  0
 22 23  2  0  0  0
 23 24  1  0  0  0
 24 25  2  0  0  0
 25 26  1  0  0  0
 25 30  1  0  0  0
 26 27  2  0  0  0
 27 28  1  0  0  0
 28 29  2  0  0  0
 29 30  1  0  0  0
  7  8  1  0  0  0
  8  9  1  0  0  0
  9 10  1  0  0  0
 15 16  1  0  0  0
M  END
> <minimizedAffinity>
-11.96606

$$$$
