CHEMBL1968565


 22 24  0  0  0  0  0  0  0  0999 V2000
  -29.0612   -4.8829   -6.1275 C   0  0  0  0  0  0  0  0  0  0  0  0
  -29.1211   -4.8230   -4.7796 C   0  0  0  0  0  0  0  0  0  0  0  0
  -28.7001   -3.5460   -4.1076 C   0  0  0  0  0  0  0  0  0  0  0  0
  -28.6781   -3.4204   -2.7442 N   0  0  0  0  0  0  0  0  0  0  0  0
  -28.3214   -2.4836   -4.7786 N   0  0  0  0  0  0  0  0  0  0  0  0
  -28.2854   -2.5798   -6.1401 C   0  0  0  0  0  0  0  0  0  0  0  0
  -27.9183   -1.6670   -7.1009 C   0  0  0  0  0  0  0  0  0  0  0  0
  -28.0533   -2.3384   -8.3301 C   0  0  0  0  0  0  0  0  0  0  0  0
  -27.7679   -1.8200   -9.6897 C   0  0  0  0  0  0  0  0  0  0  0  0
  -28.4914   -3.5892   -8.1696 N   0  0  0  0  0  0  0  0  0  0  0  0
  -28.6342   -3.7488   -6.8263 N   0  0  0  0  0  0  0  0  0  0  0  0
  -29.2460   -4.0212   -2.1568 H   0  0  0  0  0  0  0  0  0  0  0  0
  -28.5901   -2.4634   -2.4158 H   0  0  0  0  0  0  0  0  0  0  0  0
  -30.4567   -9.8919   -8.6952 C   0  0  0  0  0  0  0  0  0  0  0  0
  -30.1116   -8.5749   -8.0625 C   0  0  0  0  0  0  0  0  0  0  0  0
  -31.0998   -7.7693   -7.4881 C   0  0  0  0  0  0  0  0  0  0  0  0
  -30.7639   -6.5538   -6.8828 C   0  0  0  0  0  0  0  0  0  0  0  0
  -29.4309   -6.1232   -6.8444 C   0  0  0  0  0  0  0  0  0  0  0  0
  -28.4430   -6.9222   -7.4332 C   0  0  0  0  0  0  0  0  0  0  0  0
  -28.7811   -8.1388   -8.0379 C   0  0  0  0  0  0  0  0  0  0  0  0
  -29.5677   -6.0174   -3.9524 C   0  0  0  0  0  0  0  0  0  0  0  0
  -29.9382   -7.0082   -3.2661 N   0  0  0  0  0  0  0  0  0  0  0  0
 14 15  1  0  0  0
 15 16  1  0  0  0
 15 20  2  0  0  0
 16 17  2  0  0  0
 17 18  1  0  0  0
 18  1  1  0  0  0
 18 19  2  0  0  0
  1  2  2  0  0  0
  1 11  1  0  0  0
  2 21  1  0  0  0
  2  3  1  0  0  0
 21 22  3  0  0  0
  3  4  1  0  0  0
  3  5  2  0  0  0
  4 12  1  0  0  0
  4 13  1  0  0  0
  5  6  1  0  0  0
  6  7  2  0  0  0
  6 11  1  0  0  0
  7  8  1  0  0  0
  8  9  1  0  0  0
  8 10  2  0  0  0
 10 11  1  0  0  0
 19 20  1  0  0  0
M  END
> <minimizedAffinity>
-7.54055

$$$$
