CHEMBL212267


 29 31  0  0  0  0  0  0  0  0999 V2000
  -26.8764   -2.3233  -10.5927 N   0  0  0  0  0  0  0  0  0  0  0  0
  -26.1522   -2.6388   -9.9513 H   0  0  0  0  0  0  0  0  0  0  0  0
  -24.4689   -0.9265  -13.0235 C   0  0  0  0  0  0  0  0  0  0  0  0
  -25.0949   -1.2991  -11.8227 C   0  0  0  0  0  0  0  0  0  0  0  0
  -26.3848   -1.8560  -11.8128 C   0  0  0  0  0  0  0  0  0  0  0  0
  -27.0187   -2.0379  -13.0561 C   0  0  0  0  0  0  0  0  0  0  0  0
  -28.2415   -2.5829  -13.1363 F   0  0  0  0  0  0  0  0  0  0  0  0
  -26.4169   -1.6608  -14.2528 C   0  0  0  0  0  0  0  0  0  0  0  0
  -25.1462   -1.1104  -14.2291 C   0  0  0  0  0  0  0  0  0  0  0  0
  -24.5812   -0.7730  -15.3983 F   0  0  0  0  0  0  0  0  0  0  0  0
  -21.3897    1.0032  -14.0841 C   0  0  0  0  0  0  0  0  0  0  0  0
  -22.6821    0.3709  -14.0541 N   0  0  0  0  0  0  0  0  0  0  0  0
  -23.0985   -0.3594  -12.9636 C   0  0  0  0  0  0  0  0  0  0  0  0
  -22.3934   -0.5709  -11.9829 O   0  0  0  0  0  0  0  0  0  0  0  0
  -23.3336    0.5689  -14.8047 H   0  0  0  0  0  0  0  0  0  0  0  0
  -27.9828   -1.6470   -9.9309 C   0  0  0  0  0  0  0  0  0  0  0  0
  -28.0227   -1.9262   -8.4692 C   0  0  0  0  0  0  0  0  0  0  0  0
  -27.6882   -1.0759   -7.4438 C   0  0  0  0  0  0  0  0  0  0  0  0
  -27.7972   -1.6094   -6.1862 N   0  0  0  0  0  0  0  0  0  0  0  0
  -28.1839   -2.8640   -6.2316 C   0  0  0  0  0  0  0  0  0  0  0  0
  -28.5359   -3.4290   -7.8283 S   0  0  0  0  0  0  0  0  0  0  0  0
  -28.2869   -3.7003   -5.1709 N   0  0  0  0  0  0  0  0  0  0  0  0
  -27.7371   -3.5005   -4.3443 H   0  0  0  0  0  0  0  0  0  0  0  0
  -29.4693   -4.3394   -4.7819 C   0  0  0  0  0  0  0  0  0  0  0  0
  -30.5225   -3.6819   -4.1477 C   0  0  0  0  0  0  0  0  0  0  0  0
  -31.6102   -4.4041   -3.6696 C   0  0  0  0  0  0  0  0  0  0  0  0
  -31.6506   -5.7707   -3.8792 C   0  0  0  0  0  0  0  0  0  0  0  0
  -30.6036   -6.3473   -4.5760 C   0  0  0  0  0  0  0  0  0  0  0  0
  -29.5229   -5.6673   -5.0279 N   0  0  0  0  0  0  0  0  0  0  0  0
 11 12  1  0  0  0
 12 13  1  0  0  0
 12 15  1  0  0  0
 13 14  2  0  0  0
 13  3  1  0  0  0
  3  4  1  0  0  0
  3  9  2  0  0  0
  4  5  2  0  0  0
  5  1  1  0  0  0
  5  6  1  0  0  0
  1 16  1  0  0  0
  1  2  1  0  0  0
 16 17  1  0  0  0
 17 18  2  0  0  0
 17 21  1  0  0  0
 18 19  1  0  0  0
 19 20  2  0  0  0
 20 22  1  0  0  0
 20 21  1  0  0  0
 22 24  1  0  0  0
 22 23  1  0  0  0
 24 25  1  0  0  0
 24 29  2  0  0  0
 25 26  2  0  0  0
 26 27  1  0  0  0
 27 28  2  0  0  0
 28 29  1  0  0  0
  6  7  1  0  0  0
  6  8  2  0  0  0
  8  9  1  0  0  0
  9 10  1  0  0  0
M  END
> <minimizedAffinity>
-9.28798

$$$$
