CHEMBL3288506


 35 39  0  0  0  0  0  0  0  0999 V2000
  -25.1058   11.5108  -15.5245 C   0  0  0  0  0  0  0  0  0  0  0  0
  -24.1963   11.9820  -14.5465 C   0  0  0  0  0  0  0  0  0  0  0  0
  -24.6253   12.3044  -13.2589 C   0  0  0  0  0  0  0  0  0  0  0  0
  -25.9742   12.4483  -13.0506 C   0  0  0  0  0  0  0  0  0  0  0  0
  -26.8283   12.2032  -14.1187 C   0  0  0  0  0  0  0  0  0  0  0  0
  -28.1192   12.6446  -14.1083 C   0  0  0  0  0  0  0  0  0  0  0  0
  -28.9807   11.6308  -13.8325 C   0  0  0  0  0  0  0  0  0  0  0  0
  -28.7963   10.5591  -14.7276 C   0  0  0  0  0  0  0  0  0  0  0  0
  -27.5994   10.5376  -15.5459 C   0  0  0  0  0  0  0  0  0  0  0  0
  -26.4878   11.3949  -15.1812 C   0  0  0  0  0  0  0  0  0  0  0  0
  -29.6510   11.7330  -12.5158 C   0  0  0  0  0  0  0  0  0  0  0  0
  -28.9173   12.0874  -11.3594 C   0  0  0  0  0  0  0  0  0  0  0  0
  -29.5413   12.4729  -10.1706 C   0  0  0  0  0  0  0  0  0  0  0  0
  -30.9261   12.5667  -10.0814 C   0  0  0  0  0  0  0  0  0  0  0  0
  -31.6648   12.2524  -11.2217 C   0  0  0  0  0  0  0  0  0  0  0  0
  -33.0104   12.3540  -11.4347 N   0  0  0  0  0  0  0  0  0  0  0  0
  -33.4094   11.9466  -12.6357 N   0  0  0  0  0  0  0  0  0  0  0  0
  -32.2855   11.5658  -13.2330 C   0  0  0  0  0  0  0  0  0  0  0  0
  -32.3926   11.0314  -14.4596 N   0  0  0  0  0  0  0  0  0  0  0  0
  -31.1053   11.7959  -12.4180 C   0  0  0  0  0  0  0  0  0  0  0  0
  -33.7149   12.7106  -10.8009 H   0  0  0  0  0  0  0  0  0  0  0  0
  -33.2969   11.1616  -14.8996 H   0  0  0  0  0  0  0  0  0  0  0  0
  -31.6428   11.0482  -15.1259 H   0  0  0  0  0  0  0  0  0  0  0  0
  -23.9693   12.3969  -17.5130 N   0  0  0  0  0  0  0  0  0  0  0  0
  -24.5199   11.2921  -16.8811 C   0  0  0  0  0  0  0  0  0  0  0  0
  -24.4681   10.1375  -17.2888 O   0  0  0  0  0  0  0  0  0  0  0  0
  -24.1106   13.2965  -17.0810 H   0  0  0  0  0  0  0  0  0  0  0  0
  -20.8853   11.9776  -19.5342 C   0  0  0  0  0  0  0  0  0  0  0  0
  -21.3458   12.2605  -20.8315 C   0  0  0  0  0  0  0  0  0  0  0  0
  -22.6734   12.5876  -21.0195 C   0  0  0  0  0  0  0  0  0  0  0  0
  -23.5596   12.6489  -19.9495 C   0  0  0  0  0  0  0  0  0  0  0  0
  -23.1259   12.3786  -18.6510 C   0  0  0  0  0  0  0  0  0  0  0  0
  -21.7769   12.0294  -18.4636 C   0  0  0  0  0  0  0  0  0  0  0  0
  -18.9302   10.6707  -20.4167 C   0  0  0  0  0  0  0  0  0  0  0  0
  -19.4439   11.5933  -19.3199 C   0  0  0  0  0  0  0  0  0  0  0  0
 34 35  1  0  0  0
 35 28  1  0  0  0
 28 29  1  0  0  0
 28 33  2  0  0  0
 29 30  2  0  0  0
 30 31  1  0  0  0
 31 32  2  0  0  0
 32 24  1  0  0  0
 32 33  1  0  0  0
 24 25  1  0  0  0
 24 27  1  0  0  0
 25 26  2  0  0  0
 25  1  1  0  0  0
  1  2  1  0  0  0
  1 10  2  0  0  0
  2  3  2  0  0  0
  3  4  1  0  0  0
  4  5  2  0  0  0
  5  6  1  0  0  0
  5 10  1  0  0  0
  6  7  2  0  0  0
  7 11  1  0  0  0
  7  8  1  0  0  0
 11 12  1  0  0  0
 11 20  2  0  0  0
 12 13  2  0  0  0
 13 14  1  0  0  0
 14 15  2  0  0  0
 15 16  1  0  0  0
 15 20  1  0  0  0
 16 17  1  0  0  0
 16 21  1  0  0  0
 17 18  2  0  0  0
 18 19  1  0  0  0
 18 20  1  0  0  0
 19 22  1  0  0  0
 19 23  1  0  0  0
  8  9  2  0  0  0
  9 10  1  0  0  0
M  END
> <minimizedAffinity>
-6.81855

$$$$
