CHEMBL574738


 41 44  0  0  0  0  0  0  0  0999 V2000
  -29.7795   -8.4290   -5.3125 N   0  0  0  0  0  0  0  0  0  0  0  0
  -29.4818   -7.0740   -5.2367 C   0  0  0  0  0  0  0  0  0  0  0  0
  -28.3579   -6.6067   -5.4001 O   0  0  0  0  0  0  0  0  0  0  0  0
  -30.5672   -6.2909   -4.8831 N   0  0  0  0  0  0  0  0  0  0  0  0
  -30.7036   -8.7215   -5.0380 H   0  0  0  0  0  0  0  0  0  0  0  0
  -31.2008   -6.7123   -4.2189 H   0  0  0  0  0  0  0  0  0  0  0  0
  -26.7154  -11.2825   -6.1058 C   0  0  0  0  0  0  0  0  0  0  0  0
  -27.5633  -10.8161   -7.1216 C   0  0  0  0  0  0  0  0  0  0  0  0
  -28.5743   -9.8976   -6.8706 C   0  0  0  0  0  0  0  0  0  0  0  0
  -28.8143   -9.4315   -5.5868 C   0  0  0  0  0  0  0  0  0  0  0  0
  -28.0487   -9.9579   -4.5414 C   0  0  0  0  0  0  0  0  0  0  0  0
  -26.9719  -10.8622   -4.7835 C   0  0  0  0  0  0  0  0  0  0  0  0
  -26.1735  -11.3068   -3.5761 C   0  0  0  0  0  0  0  0  0  0  0  0
  -25.4574  -10.3480   -2.9350 F   0  0  0  0  0  0  0  0  0  0  0  0
  -26.9612  -11.8808   -2.6216 F   0  0  0  0  0  0  0  0  0  0  0  0
  -25.2626  -12.2686   -3.9134 F   0  0  0  0  0  0  0  0  0  0  0  0
  -25.5591  -12.1678   -6.5449 C   0  0  0  0  0  0  0  0  0  0  0  0
  -22.0108  -11.1882   -5.8995 N   0  0  0  0  0  0  0  0  0  0  0  0
  -22.4588  -12.4645   -6.4964 C   0  0  0  0  0  0  0  0  0  0  0  0
  -23.3856  -12.2973   -7.7279 C   0  0  0  0  0  0  0  0  0  0  0  0
  -24.6106  -11.5061   -7.4664 N   0  0  0  0  0  0  0  0  0  0  0  0
  -24.1679  -10.2033   -6.9073 C   0  0  0  0  0  0  0  0  0  0  0  0
  -23.1759  -10.2980   -5.7136 C   0  0  0  0  0  0  0  0  0  0  0  0
  -21.1702   -9.2161   -7.2175 C   0  0  0  0  0  0  0  0  0  0  0  0
  -20.9164  -10.6253   -6.7009 C   0  0  0  0  0  0  0  0  0  0  0  0
  -30.3766   -4.8890   -4.7578 C   0  0  0  0  0  0  0  0  0  0  0  0
  -30.0759   -4.1043   -5.8795 C   0  0  0  0  0  0  0  0  0  0  0  0
  -29.7114   -2.7650   -5.7361 C   0  0  0  0  0  0  0  0  0  0  0  0
  -29.6839   -2.1858   -4.4677 C   0  0  0  0  0  0  0  0  0  0  0  0
  -30.0177   -2.9581   -3.3488 C   0  0  0  0  0  0  0  0  0  0  0  0
  -30.3924   -4.3001   -3.4931 C   0  0  0  0  0  0  0  0  0  0  0  0
  -29.2344   -0.9075   -4.2213 O   0  0  0  0  0  0  0  0  0  0  0  0
  -29.3121    0.0337   -5.2432 C   0  0  0  0  0  0  0  0  0  0  0  0
  -30.5498    0.5993   -5.4616 C   0  0  0  0  0  0  0  0  0  0  0  0
  -30.6350    1.5138   -6.4920 C   0  0  0  0  0  0  0  0  0  0  0  0
  -29.5626    1.8448   -7.2263 N   0  0  0  0  0  0  0  0  0  0  0  0
  -28.4080    1.2279   -6.9334 C   0  0  0  0  0  0  0  0  0  0  0  0
  -28.2276    0.3089   -5.9817 N   0  0  0  0  0  0  0  0  0  0  0  0
  -31.7811    2.2325   -6.7780 N   0  0  0  0  0  0  0  0  0  0  0  0
  -32.1052    2.6095   -8.1372 C   0  0  0  0  0  0  0  0  0  0  0  0
  -31.8137    3.0085   -6.1189 H   0  0  0  0  0  0  0  0  0  0  0  0
 24 25  1  0  0  0
 25 18  1  0  0  0
 18 19  1  0  0  0
 18 23  1  0  0  0
 19 20  1  0  0  0
 20 21  1  0  0  0
 21 17  1  0  0  0
 21 22  1  0  0  0
 17  7  1  0  0  0
  7  8  1  0  0  0
  7 12  2  0  0  0
  8  9  2  0  0  0
  9 10  1  0  0  0
 10  1  1  0  0  0
 10 11  2  0  0  0
  1  2  1  0  0  0
  1  5  1  0  0  0
  2  3  2  0  0  0
  2  4  1  0  0  0
  4 26  1  0  0  0
  4  6  1  0  0  0
 26 27  1  0  0  0
 26 31  2  0  0  0
 27 28  2  0  0  0
 28 29  1  0  0  0
 29 32  1  0  0  0
 29 30  2  0  0  0
 32 33  1  0  0  0
 33 34  1  0  0  0
 33 38  2  0  0  0
 34 35  2  0  0  0
 35 39  1  0  0  0
 35 36  1  0  0  0
 39 40  1  0  0  0
 39 41  1  0  0  0
 36 37  2  0  0  0
 37 38  1  0  0  0
 30 31  1  0  0  0
 11 12  1  0  0  0
 12 13  1  0  0  0
 13 14  1  0  0  0
 13 15  1  0  0  0
 13 16  1  0  0  0
 22 23  1  0  0  0
M  END
> <minimizedAffinity>
-7.51823

$$$$
