CHEMBL3323611


 30 34  0  0  0  0  0  0  0  0999 V2000
  -25.7067   -9.9493   -4.5269 C   0  0  0  0  0  0  0  0  0  0  0  0
  -26.6852  -10.4291   -5.2717 N   0  0  0  0  0  0  0  0  0  0  0  0
  -27.5870   -9.4155   -5.4383 C   0  0  0  0  0  0  0  0  0  0  0  0
  -28.7785   -9.3987   -6.1667 C   0  0  0  0  0  0  0  0  0  0  0  0
  -29.5485   -8.2309   -6.1509 C   0  0  0  0  0  0  0  0  0  0  0  0
  -29.1583   -7.0930   -5.4267 C   0  0  0  0  0  0  0  0  0  0  0  0
  -27.9480   -7.1039   -4.7087 C   0  0  0  0  0  0  0  0  0  0  0  0
  -27.1902   -8.2810   -4.7481 C   0  0  0  0  0  0  0  0  0  0  0  0
  -25.9923   -8.6415   -4.1864 N   0  0  0  0  0  0  0  0  0  0  0  0
  -25.4181   -8.0598   -3.5942 H   0  0  0  0  0  0  0  0  0  0  0  0
  -25.8493  -11.8976   -2.0372 Cl  0  0  0  0  0  0  0  0  0  0  0  0
  -24.4642  -11.5715   -3.0321 C   0  0  0  0  0  0  0  0  0  0  0  0
  -23.2987  -12.2736   -2.6868 C   0  0  0  0  0  0  0  0  0  0  0  0
  -22.1338  -12.1153   -3.4245 C   0  0  0  0  0  0  0  0  0  0  0  0
  -22.1280  -11.2465   -4.5095 C   0  0  0  0  0  0  0  0  0  0  0  0
  -23.2856  -10.5327   -4.8579 C   0  0  0  0  0  0  0  0  0  0  0  0
  -23.0985   -9.4392   -6.1939 Cl  0  0  0  0  0  0  0  0  0  0  0  0
  -24.4892  -10.6808   -4.1284 C   0  0  0  0  0  0  0  0  0  0  0  0
  -30.0072   -5.9704   -5.3401 N   0  0  0  0  0  0  0  0  0  0  0  0
  -30.9380   -6.1157   -5.7091 H   0  0  0  0  0  0  0  0  0  0  0  0
  -29.6875   -4.6210   -5.0416 C   0  0  0  0  0  0  0  0  0  0  0  0
  -29.9939   -4.0844   -3.7861 C   0  0  0  0  0  0  0  0  0  0  0  0
  -29.7394   -2.7510   -3.5414 C   0  0  0  0  0  0  0  0  0  0  0  0
  -29.2016   -1.9172   -4.4490 N   0  0  0  0  0  0  0  0  0  0  0  0
  -28.8959   -2.4135   -5.6563 C   0  0  0  0  0  0  0  0  0  0  0  0
  -28.3340   -1.5461   -6.5806 C   0  0  0  0  0  0  0  0  0  0  0  0
  -27.9757   -1.9623   -7.8614 C   0  0  0  0  0  0  0  0  0  0  0  0
  -28.1978   -3.2783   -8.2421 C   0  0  0  0  0  0  0  0  0  0  0  0
  -28.7714   -4.1700   -7.3359 C   0  0  0  0  0  0  0  0  0  0  0  0
  -29.1171   -3.7646   -6.0215 C   0  0  0  0  0  0  0  0  0  0  0  0
 11 12  1  0  0  0
 12 13  1  0  0  0
 12 18  2  0  0  0
 13 14  2  0  0  0
 14 15  1  0  0  0
 15 16  2  0  0  0
 16 17  1  0  0  0
 16 18  1  0  0  0
 18  1  1  0  0  0
  1  2  2  0  0  0
  1  9  1  0  0  0
  2  3  1  0  0  0
  3  4  1  0  0  0
  3  8  2  0  0  0
  4  5  2  0  0  0
  5  6  1  0  0  0
  6 19  1  0  0  0
  6  7  2  0  0  0
 19 21  1  0  0  0
 19 20  1  0  0  0
 21 22  1  0  0  0
 21 30  2  0  0  0
 22 23  2  0  0  0
 23 24  1  0  0  0
 24 25  2  0  0  0
 25 26  1  0  0  0
 25 30  1  0  0  0
 26 27  2  0  0  0
 27 28  1  0  0  0
 28 29  2  0  0  0
 29 30  1  0  0  0
  7  8  1  0  0  0
  8  9  1  0  0  0
  9 10  1  0  0  0
M  END
> <minimizedAffinity>
-9.07139

$$$$
