CHEMBL170984


 33 37  0  0  0  0  0  0  0  0999 V2000
  -14.0518   -0.9037  -13.9370 C   0  0  0  0  0  0  0  0  0  0  0  0
  -13.6629   -2.2339  -13.7373 C   0  0  0  0  0  0  0  0  0  0  0  0
  -14.3805   -3.1032  -12.8835 C   0  0  0  0  0  0  0  0  0  0  0  0
  -14.0545   -4.4454  -12.6590 C   0  0  0  0  0  0  0  0  0  0  0  0
  -14.7790   -5.2347  -11.8346 N   0  0  0  0  0  0  0  0  0  0  0  0
  -15.8543   -4.6778  -11.2763 C   0  0  0  0  0  0  0  0  0  0  0  0
  -16.2660   -3.4171  -11.4383 N   0  0  0  0  0  0  0  0  0  0  0  0
  -15.5242   -2.6493  -12.2390 C   0  0  0  0  0  0  0  0  0  0  0  0
  -15.9008   -1.3326  -12.4307 C   0  0  0  0  0  0  0  0  0  0  0  0
  -15.1551   -0.4263  -13.2065 C   0  0  0  0  0  0  0  0  0  0  0  0
  -13.5880   -0.2216  -16.2117 C   0  0  0  0  0  0  0  0  0  0  0  0
  -13.4136   -0.0548  -14.8013 O   0  0  0  0  0  0  0  0  0  0  0  0
  -12.9254   -5.0005  -13.3203 N   0  0  0  0  0  0  0  0  0  0  0  0
  -12.1283   -4.9981  -12.6891 H   0  0  0  0  0  0  0  0  0  0  0  0
  -12.9829   -6.1909  -14.0736 C   0  0  0  0  0  0  0  0  0  0  0  0
  -13.4216   -6.2463  -15.4196 C   0  0  0  0  0  0  0  0  0  0  0  0
  -13.7069   -4.8172  -16.3553 Cl  0  0  0  0  0  0  0  0  0  0  0  0
  -13.5730   -7.4787  -16.0759 C   0  0  0  0  0  0  0  0  0  0  0  0
  -13.2470   -8.6771  -15.4371 C   0  0  0  0  0  0  0  0  0  0  0  0
  -12.7419   -8.5989  -14.1568 C   0  0  0  0  0  0  0  0  0  0  0  0
  -12.6068   -7.3990  -13.4984 C   0  0  0  0  0  0  0  0  0  0  0  0
  -12.0803   -7.5567  -12.2475 O   0  0  0  0  0  0  0  0  0  0  0  0
  -11.8344   -8.9806  -12.2348 C   0  0  0  0  0  0  0  0  0  0  0  0
  -12.3250   -9.6554  -13.4090 O   0  0  0  0  0  0  0  0  0  0  0  0
  -15.4700    0.9330  -13.2404 O   0  0  0  0  0  0  0  0  0  0  0  0
  -16.8359    1.1887  -13.6242 C   0  0  0  0  0  0  0  0  0  0  0  0
  -17.1401    1.0845  -15.1321 C   0  0  0  0  0  0  0  0  0  0  0  0
  -17.2775    2.4399  -15.8141 C   0  0  0  0  0  0  0  0  0  0  0  0
  -18.4511    3.2356  -15.2387 C   0  0  0  0  0  0  0  0  0  0  0  0
  -19.7324    2.5144  -15.2577 N   0  0  0  0  0  0  0  0  0  0  0  0
  -20.7147    3.2558  -14.4559 C   0  0  0  0  0  0  0  0  0  0  0  0
  -19.6736    1.1190  -14.8016 C   0  0  0  0  0  0  0  0  0  0  0  0
  -18.4715    0.3337  -15.3505 C   0  0  0  0  0  0  0  0  0  0  0  0
 11 12  1  0  0  0
 12  1  1  0  0  0
  1  2  1  0  0  0
  1 10  2  0  0  0
  2  3  2  0  0  0
  3  4  1  0  0  0
  3  8  1  0  0  0
  4 13  1  0  0  0
  4  5  2  0  0  0
 13 15  1  0  0  0
 13 14  1  0  0  0
 15 16  1  0  0  0
 15 21  2  0  0  0
 16 17  1  0  0  0
 16 18  2  0  0  0
 18 19  1  0  0  0
 19 20  2  0  0  0
 20 21  1  0  0  0
 20 24  1  0  0  0
 21 22  1  0  0  0
 22 23  1  0  0  0
 23 24  1  0  0  0
  5  6  1  0  0  0
  6  7  2  0  0  0
  7  8  1  0  0  0
  8  9  2  0  0  0
  9 10  1  0  0  0
 10 25  1  0  0  0
 25 26  1  0  0  0
 26 27  1  0  0  0
 27 28  1  0  0  0
 27 33  1  0  0  0
 28 29  1  0  0  0
 29 30  1  0  0  0
 30 31  1  0  0  0
 30 32  1  0  0  0
 32 33  1  0  0  0
M  END
> <minimizedAffinity>
-7.61891

$$$$
