CHEMBL2071196


 29 32  0  0  0  0  0  0  0  0999 V2000
  -31.2877   -6.0335   -4.6351 C   0  0  0  0  0  0  0  0  0  0  0  0
  -30.3783   -6.3884   -5.7664 C   0  0  0  0  0  0  0  0  0  0  0  0
  -30.7461   -7.3599   -6.6670 C   0  0  0  0  0  0  0  0  0  0  0  0
  -30.0022   -7.7114   -7.7214 N   0  0  0  0  0  0  0  0  0  0  0  0
  -28.8094   -7.1130   -7.8590 C   0  0  0  0  0  0  0  0  0  0  0  0
  -28.3451   -6.1794   -7.0099 N   0  0  0  0  0  0  0  0  0  0  0  0
  -29.1365   -5.8007   -5.9834 C   0  0  0  0  0  0  0  0  0  0  0  0
  -28.0042   -7.4936   -8.9348 N   0  0  0  0  0  0  0  0  0  0  0  0
  -27.8679   -6.7173   -9.5665 H   0  0  0  0  0  0  0  0  0  0  0  0
  -27.4681   -8.7116   -9.1560 C   0  0  0  0  0  0  0  0  0  0  0  0
  -27.0791   -9.2878  -10.3893 C   0  0  0  0  0  0  0  0  0  0  0  0
  -26.5314  -10.4963  -10.2335 N   0  0  0  0  0  0  0  0  0  0  0  0
  -26.5894  -10.6965   -8.9039 N   0  0  0  0  0  0  0  0  0  0  0  0
  -26.0746  -11.9211   -8.3430 C   0  0  0  0  0  0  0  0  0  0  0  0
  -27.1322   -9.6469   -8.2121 C   0  0  0  0  0  0  0  0  0  0  0  0
  -28.7727   -4.6798   -5.2134 N   0  0  0  0  0  0  0  0  0  0  0  0
  -27.7806   -4.7046   -4.9983 H   0  0  0  0  0  0  0  0  0  0  0  0
  -29.1740   -3.3589   -5.7151 C   0  0  0  0  0  0  0  0  0  0  0  0
  -29.6248   -2.3400   -4.6120 C   0  0  0  0  0  0  0  0  0  0  0  0
  -28.5982   -1.1858   -4.7784 C   0  0  0  0  0  0  0  0  0  0  0  0
  -28.8095   -0.5426   -6.1356 C   0  0  0  0  0  0  0  0  0  0  0  0
  -28.3904   -1.4128   -7.0610 C   0  0  0  0  0  0  0  0  0  0  0  0
  -27.9168   -2.6443   -6.3216 C   0  0  0  0  0  0  0  0  0  0  0  0
  -27.3157   -1.9606   -5.0903 C   0  0  0  0  0  0  0  0  0  0  0  0
  -29.6504   -2.8278   -3.1721 C   0  0  0  0  0  0  0  0  0  0  0  0
  -30.8873   -3.0673   -2.6538 N   0  0  0  0  0  0  0  0  0  0  0  0
  -28.6559   -2.9225   -2.4597 O   0  0  0  0  0  0  0  0  0  0  0  0
  -31.6213   -3.3754   -3.2850 H   0  0  0  0  0  0  0  0  0  0  0  0
  -30.8957   -3.4685   -1.7239 H   0  0  0  0  0  0  0  0  0  0  0  0
  1  2  1  0  0  0
  2  3  1  0  0  0
  2  7  2  0  0  0
  3  4  2  0  0  0
  4  5  1  0  0  0
  5  8  1  0  0  0
  5  6  2  0  0  0
  8 10  1  0  0  0
  8  9  1  0  0  0
 10 11  1  0  0  0
 10 15  2  0  0  0
 11 12  2  0  0  0
 12 13  1  0  0  0
 13 14  1  0  0  0
 13 15  1  0  0  0
  6  7  1  0  0  0
  7 16  1  0  0  0
 16 17  1  0  0  0
 18 19  1  0  0  0
 18 23  1  0  0  0
 18 16  1  0  0  0
 19 25  1  0  0  0
 19 20  1  0  0  0
 25 26  1  0  0  0
 25 27  2  0  0  0
 26 28  1  0  0  0
 26 29  1  0  0  0
 20 21  1  0  0  0
 20 24  1  0  0  0
 21 22  2  0  0  0
 22 23  1  0  0  0
 23 24  1  0  0  0
M  END
> <minimizedAffinity>
-7.99444

$$$$
