CHEMBL2448065


 31 34  0  0  0  0  0  0  0  0999 V2000
  -28.9227   -5.4216   -7.2754 C   0  0  0  0  0  0  0  0  0  0  0  0
  -28.7083   -4.3532   -8.1678 C   0  0  0  0  0  0  0  0  0  0  0  0
  -28.3312   -3.0876   -7.7050 C   0  0  0  0  0  0  0  0  0  0  0  0
  -28.1318   -1.9896   -8.5778 C   0  0  0  0  0  0  0  0  0  0  0  0
  -27.7940   -0.7830   -8.0489 N   0  0  0  0  0  0  0  0  0  0  0  0
  -27.6264   -0.6094   -6.7128 C   0  0  0  0  0  0  0  0  0  0  0  0
  -27.8108   -1.6522   -5.8600 N   0  0  0  0  0  0  0  0  0  0  0  0
  -28.1677   -2.8812   -6.3247 C   0  0  0  0  0  0  0  0  0  0  0  0
  -28.3699   -3.9384   -5.4219 C   0  0  0  0  0  0  0  0  0  0  0  0
  -28.7521   -5.2136   -5.8741 C   0  0  0  0  0  0  0  0  0  0  0  0
  -30.5155   -7.2380   -7.7062 C   0  0  0  0  0  0  0  0  0  0  0  0
  -29.2709   -6.6484   -7.7446 O   0  0  0  0  0  0  0  0  0  0  0  0
  -28.2069   -2.1353   -9.9979 N   0  0  0  0  0  0  0  0  0  0  0  0
  -29.0600   -2.5452  -10.4030 H   0  0  0  0  0  0  0  0  0  0  0  0
  -27.1619   -1.7978  -10.9081 C   0  0  0  0  0  0  0  0  0  0  0  0
  -25.8678   -1.5698  -10.4030 C   0  0  0  0  0  0  0  0  0  0  0  0
  -24.8026   -1.3012  -11.2670 C   0  0  0  0  0  0  0  0  0  0  0  0
  -25.0097   -1.2810  -12.6480 C   0  0  0  0  0  0  0  0  0  0  0  0
  -23.6632   -0.9918  -13.7344 Cl  0  0  0  0  0  0  0  0  0  0  0  0
  -26.2877   -1.5108  -13.1639 C   0  0  0  0  0  0  0  0  0  0  0  0
  -27.3634   -1.7591  -12.3049 C   0  0  0  0  0  0  0  0  0  0  0  0
  -28.5746   -2.0273  -12.8531 F   0  0  0  0  0  0  0  0  0  0  0  0
  -28.9306   -6.1992   -4.9361 O   0  0  0  0  0  0  0  0  0  0  0  0
  -27.9365   -7.0435   -4.4626 C   0  0  0  0  0  0  0  0  0  0  0  0
  -28.4386   -8.4649   -4.1337 C   0  0  0  0  0  0  0  0  0  0  0  0
  -27.3711   -9.3481   -3.4580 C   0  0  0  0  0  0  0  0  0  0  0  0
  -26.2164   -9.6780   -4.4221 C   0  0  0  0  0  0  0  0  0  0  0  0
  -26.7273  -10.3522   -5.6361 N   0  0  0  0  0  0  0  0  0  0  0  0
  -25.6125  -10.6942   -6.5342 C   0  0  0  0  0  0  0  0  0  0  0  0
  -27.7187   -9.5163   -6.3478 C   0  0  0  0  0  0  0  0  0  0  0  0
  -28.9053   -9.1844   -5.4217 C   0  0  0  0  0  0  0  0  0  0  0  0
 11 12  1  0  0  0
 12  1  1  0  0  0
  1  2  1  0  0  0
  1 10  2  0  0  0
  2  3  2  0  0  0
  3  4  1  0  0  0
  3  8  1  0  0  0
  4 13  1  0  0  0
  4  5  2  0  0  0
 13 15  1  0  0  0
 13 14  1  0  0  0
 15 16  1  0  0  0
 15 21  2  0  0  0
 16 17  2  0  0  0
 17 18  1  0  0  0
 18 19  1  0  0  0
 18 20  2  0  0  0
 20 21  1  0  0  0
 21 22  1  0  0  0
  5  6  1  0  0  0
  6  7  2  0  0  0
  7  8  1  0  0  0
  8  9  2  0  0  0
  9 10  1  0  0  0
 10 23  1  0  0  0
 23 24  1  0  0  0
 24 25  1  0  0  0
 25 26  1  0  0  0
 25 31  1  0  0  0
 26 27  1  0  0  0
 27 28  1  0  0  0
 28 29  1  0  0  0
 28 30  1  0  0  0
 30 31  1  0  0  0
M  END
> <minimizedAffinity>
-8.48630

$$$$
