CHEMBL2086730


 30 34  0  0  0  0  0  0  0  0999 V2000
  -15.4068    0.4470  -14.5419 C   0  0  0  0  0  0  0  0  0  0  0  0
  -14.1529    0.6830  -15.0002 C   0  0  0  0  0  0  0  0  0  0  0  0
  -13.4882    1.8375  -14.2462 C   0  0  0  0  0  0  0  0  0  0  0  0
  -13.4466    2.0085  -13.0416 O   0  0  0  0  0  0  0  0  0  0  0  0
  -12.9866    2.7027  -15.2059 N   0  0  0  0  0  0  0  0  0  0  0  0
  -13.2636    2.2483  -16.4835 C   0  0  0  0  0  0  0  0  0  0  0  0
  -12.9848    2.8761  -17.6794 C   0  0  0  0  0  0  0  0  0  0  0  0
  -13.3514    2.2116  -18.8531 C   0  0  0  0  0  0  0  0  0  0  0  0
  -13.9397    0.9335  -18.8045 C   0  0  0  0  0  0  0  0  0  0  0  0
  -14.2188    0.3220  -17.5785 C   0  0  0  0  0  0  0  0  0  0  0  0
  -13.9145    1.0195  -16.4216 C   0  0  0  0  0  0  0  0  0  0  0  0
  -12.5157    3.5612  -14.9670 H   0  0  0  0  0  0  0  0  0  0  0  0
  -15.5596   -0.6668  -13.6502 C   0  0  0  0  0  0  0  0  0  0  0  0
  -15.3698   -0.7973  -12.3511 N   0  0  0  0  0  0  0  0  0  0  0  0
  -15.6700   -2.1087  -12.0534 C   0  0  0  0  0  0  0  0  0  0  0  0
  -15.6640   -2.7790  -10.8220 C   0  0  0  0  0  0  0  0  0  0  0  0
  -15.9837   -4.1459  -10.8028 C   0  0  0  0  0  0  0  0  0  0  0  0
  -16.3071   -4.8267  -11.9760 C   0  0  0  0  0  0  0  0  0  0  0  0
  -16.3377   -4.1691  -13.2121 C   0  0  0  0  0  0  0  0  0  0  0  0
  -16.0122   -2.8117  -13.2000 C   0  0  0  0  0  0  0  0  0  0  0  0
  -15.9429   -1.8762  -14.1946 N   0  0  0  0  0  0  0  0  0  0  0  0
  -16.1481   -2.0423  -15.1684 H   0  0  0  0  0  0  0  0  0  0  0  0
  -18.8031    3.0022  -15.1941 C   0  0  0  0  0  0  0  0  0  0  0  0
  -17.7285    3.0534  -16.0827 C   0  0  0  0  0  0  0  0  0  0  0  0
  -16.5802    2.2811  -15.8503 C   0  0  0  0  0  0  0  0  0  0  0  0
  -16.4938    1.4590  -14.7212 C   0  0  0  0  0  0  0  0  0  0  0  0
  -17.5496    1.4697  -13.7976 C   0  0  0  0  0  0  0  0  0  0  0  0
  -18.6957    2.2263  -14.0402 C   0  0  0  0  0  0  0  0  0  0  0  0
  -21.1354    3.0502  -14.7183 C   0  0  0  0  0  0  0  0  0  0  0  0
  -19.9998    3.6471  -15.3295 O   0  0  0  0  0  0  0  0  0  0  0  0
 29 30  1  0  0  0
 30 23  1  0  0  0
 23 24  1  0  0  0
 23 28  2  0  0  0
 24 25  2  0  0  0
 25 26  1  0  0  0
 26  1  1  0  0  0
 26 27  2  0  0  0
  1  2  2  0  0  0
  1 13  1  0  0  0
  2  3  1  0  0  0
  2 11  1  0  0  0
  3  4  2  0  0  0
  3  5  1  0  0  0
  5  6  1  0  0  0
  5 12  1  0  0  0
  6  7  1  0  0  0
  6 11  2  0  0  0
  7  8  2  0  0  0
  8  9  1  0  0  0
  9 10  2  0  0  0
 10 11  1  0  0  0
 13 14  2  0  0  0
 13 21  1  0  0  0
 14 15  1  0  0  0
 15 16  1  0  0  0
 15 20  2  0  0  0
 16 17  2  0  0  0
 17 18  1  0  0  0
 18 19  2  0  0  0
 19 20  1  0  0  0
 20 21  1  0  0  0
 21 22  1  0  0  0
 27 28  1  0  0  0
M  END
> <minimizedAffinity>
-9.34458

$$$$
