CHEMBL3780231


 39 43  0  0  0  0  0  0  0  0999 V2000
  -16.7027    2.3412  -14.9102 N   0  0  0  0  0  0  0  0  0  0  0  0
  -16.6131    3.1479  -14.3019 H   0  0  0  0  0  0  0  0  0  0  0  0
  -13.9410   -0.6195  -13.8336 C   0  0  0  0  0  0  0  0  0  0  0  0
  -14.6729    0.0327  -12.9074 N   0  0  0  0  0  0  0  0  0  0  0  0
  -15.5324    1.0302  -13.2808 N   0  0  0  0  0  0  0  0  0  0  0  0
  -15.6787    1.3950  -14.5745 C   0  0  0  0  0  0  0  0  0  0  0  0
  -14.9004    0.7668  -15.5796 C   0  0  0  0  0  0  0  0  0  0  0  0
  -14.9847    1.0845  -16.9613 C   0  0  0  0  0  0  0  0  0  0  0  0
  -14.1663    0.4731  -17.9130 C   0  0  0  0  0  0  0  0  0  0  0  0
  -13.2435   -0.4809  -17.5168 C   0  0  0  0  0  0  0  0  0  0  0  0
  -13.1555   -0.8399  -16.1729 C   0  0  0  0  0  0  0  0  0  0  0  0
  -13.9770   -0.2415  -15.1873 C   0  0  0  0  0  0  0  0  0  0  0  0
  -13.2293   -1.8550  -13.3222 C   0  0  0  0  0  0  0  0  0  0  0  0
  -15.2867   -5.6757  -13.4131 C   0  0  0  0  0  0  0  0  0  0  0  0
  -16.0109   -4.4930  -13.5678 C   0  0  0  0  0  0  0  0  0  0  0  0
  -15.3614   -3.2504  -13.5174 C   0  0  0  0  0  0  0  0  0  0  0  0
  -13.9816   -3.1679  -13.2980 C   0  0  0  0  0  0  0  0  0  0  0  0
  -13.2576   -4.3655  -13.1774 C   0  0  0  0  0  0  0  0  0  0  0  0
  -13.9071   -5.6029  -13.2307 C   0  0  0  0  0  0  0  0  0  0  0  0
  -14.8445   -8.0016  -13.4611 C   0  0  0  0  0  0  0  0  0  0  0  0
  -15.7936   -6.9447  -13.4467 O   0  0  0  0  0  0  0  0  0  0  0  0
  -18.0891    2.0174  -14.9252 C   0  0  0  0  0  0  0  0  0  0  0  0
  -18.5243    0.7275  -15.2278 C   0  0  0  0  0  0  0  0  0  0  0  0
  -19.8740    0.3852  -15.1567 C   0  0  0  0  0  0  0  0  0  0  0  0
  -20.8389    1.3119  -14.7482 C   0  0  0  0  0  0  0  0  0  0  0  0
  -20.4031    2.5912  -14.3864 C   0  0  0  0  0  0  0  0  0  0  0  0
  -19.0384    2.9345  -14.4566 C   0  0  0  0  0  0  0  0  0  0  0  0
  -22.2231    1.0143  -14.7182 N   0  0  0  0  0  0  0  0  0  0  0  0
  -22.8782    0.3286  -13.7062 C   0  0  0  0  0  0  0  0  0  0  0  0
  -22.3766    0.0121  -12.6340 O   0  0  0  0  0  0  0  0  0  0  0  0
  -24.1793   -0.0124  -14.0598 N   0  0  0  0  0  0  0  0  0  0  0  0
  -22.7958    1.4157  -15.4426 H   0  0  0  0  0  0  0  0  0  0  0  0
  -24.3051   -0.2181  -15.0398 H   0  0  0  0  0  0  0  0  0  0  0  0
  -24.9851   -0.7544  -13.1583 C   0  0  0  0  0  0  0  0  0  0  0  0
  -26.0509   -1.5434  -13.6087 C   0  0  0  0  0  0  0  0  0  0  0  0
  -26.8897   -2.1895  -12.6996 C   0  0  0  0  0  0  0  0  0  0  0  0
  -26.6703   -2.0458  -11.3322 C   0  0  0  0  0  0  0  0  0  0  0  0
  -25.5960   -1.2804  -10.8771 C   0  0  0  0  0  0  0  0  0  0  0  0
  -24.7384   -0.6545  -11.7877 C   0  0  0  0  0  0  0  0  0  0  0  0
 20 21  1  0  0  0
 21 14  1  0  0  0
 14 15  1  0  0  0
 14 19  2  0  0  0
 15 16  2  0  0  0
 16 17  1  0  0  0
 17 13  1  0  0  0
 17 18  2  0  0  0
 13  3  1  0  0  0
  3  4  1  0  0  0
  3 12  2  0  0  0
  4  5  2  0  0  0
  5  6  1  0  0  0
  6  1  1  0  0  0
  6  7  2  0  0  0
  1 22  1  0  0  0
  1  2  1  0  0  0
 22 23  1  0  0  0
 22 27  2  0  0  0
 23 24  2  0  0  0
 24 25  1  0  0  0
 25 28  1  0  0  0
 25 26  2  0  0  0
 28 29  1  0  0  0
 28 32  1  0  0  0
 29 30  2  0  0  0
 29 31  1  0  0  0
 31 34  1  0  0  0
 31 33  1  0  0  0
 34 35  1  0  0  0
 34 39  2  0  0  0
 35 36  2  0  0  0
 36 37  1  0  0  0
 37 38  2  0  0  0
 38 39  1  0  0  0
 26 27  1  0  0  0
  7  8  1  0  0  0
  7 12  1  0  0  0
  8  9  2  0  0  0
  9 10  1  0  0  0
 10 11  2  0  0  0
 11 12  1  0  0  0
 18 19  1  0  0  0
M  END
> <minimizedAffinity>
-9.59251

$$$$
