CHEMBL3925114


 40 43  0  0  0  0  0  0  0  0999 V2000
  -21.8462    1.1403  -13.7566 C   0  0  0  0  0  0  0  0  0  0  0  0
  -22.2454    2.4063  -14.1588 C   0  0  0  0  0  0  0  0  0  0  0  0
  -21.3929    3.2991  -14.7209 N   0  0  0  0  0  0  0  0  0  0  0  0
  -20.1198    2.8901  -14.8885 C   0  0  0  0  0  0  0  0  0  0  0  0
  -19.1951    3.7296  -15.4870 C   0  0  0  0  0  0  0  0  0  0  0  0
  -17.8834    3.3087  -15.7295 C   0  0  0  0  0  0  0  0  0  0  0  0
  -17.4357    2.0316  -15.3434 C   0  0  0  0  0  0  0  0  0  0  0  0
  -18.3664    1.2314  -14.6684 C   0  0  0  0  0  0  0  0  0  0  0  0
  -19.6943    1.6099  -14.4708 C   0  0  0  0  0  0  0  0  0  0  0  0
  -20.5565    0.7415  -13.8998 N   0  0  0  0  0  0  0  0  0  0  0  0
  -24.5642   -1.0750  -12.9138 N   0  0  0  0  0  0  0  0  0  0  0  0
  -24.0099   -0.1207  -13.7175 C   0  0  0  0  0  0  0  0  0  0  0  0
  -22.7696    0.1753  -13.1860 C   0  0  0  0  0  0  0  0  0  0  0  0
  -22.6907   -0.6509  -12.0404 C   0  0  0  0  0  0  0  0  0  0  0  0
  -23.7842   -1.3991  -11.8610 N   0  0  0  0  0  0  0  0  0  0  0  0
  -25.8261   -1.7566  -13.1197 C   0  0  0  0  0  0  0  0  0  0  0  0
  -27.1685   -2.2202   -9.6045 C   0  0  0  0  0  0  0  0  0  0  0  0
  -26.4153   -2.3416  -10.8263 N   0  0  0  0  0  0  0  0  0  0  0  0
  -26.7462   -1.5893  -11.9349 C   0  0  0  0  0  0  0  0  0  0  0  0
  -27.7429   -0.8712  -11.9820 O   0  0  0  0  0  0  0  0  0  0  0  0
  -25.4922   -2.7697  -10.7963 H   0  0  0  0  0  0  0  0  0  0  0  0
  -16.1174    1.6357  -15.6778 N   0  0  0  0  0  0  0  0  0  0  0  0
  -15.1413    2.5522  -16.2156 C   0  0  0  0  0  0  0  0  0  0  0  0
  -14.5699    3.5664  -15.4205 C   0  0  0  0  0  0  0  0  0  0  0  0
  -13.6387    4.4681  -15.9483 C   0  0  0  0  0  0  0  0  0  0  0  0
  -13.2410    4.3538  -17.2821 C   0  0  0  0  0  0  0  0  0  0  0  0
  -13.7653    3.3489  -18.0869 C   0  0  0  0  0  0  0  0  0  0  0  0
  -14.7250    2.4779  -17.5572 C   0  0  0  0  0  0  0  0  0  0  0  0
  -13.0350    5.4947  -15.2713 O   0  0  0  0  0  0  0  0  0  0  0  0
  -11.7167    5.8458  -15.6696 C   0  0  0  0  0  0  0  0  0  0  0  0
  -13.4277    3.1028  -19.3902 O   0  0  0  0  0  0  0  0  0  0  0  0
  -12.3678    3.8756  -19.9414 C   0  0  0  0  0  0  0  0  0  0  0  0
  -15.4645    0.4723  -15.0148 C   0  0  0  0  0  0  0  0  0  0  0  0
  -15.0424    0.5983  -13.5484 C   0  0  0  0  0  0  0  0  0  0  0  0
  -15.6201   -0.4390  -12.5875 C   0  0  0  0  0  0  0  0  0  0  0  0
  -14.5955   -1.4800  -12.4377 N   0  0  0  0  0  0  0  0  0  0  0  0
  -13.9437   -1.1929  -11.7049 H   0  0  0  0  0  0  0  0  0  0  0  0
  -15.1110   -2.8101  -12.1061 C   0  0  0  0  0  0  0  0  0  0  0  0
  -15.9010   -2.8186  -10.7985 C   0  0  0  0  0  0  0  0  0  0  0  0
  -16.0243   -3.2446  -13.2584 C   0  0  0  0  0  0  0  0  0  0  0  0
 17 18  1  0  0  0
 18 19  1  0  0  0
 18 21  1  0  0  0
 19 20  2  0  0  0
 19 16  1  0  0  0
 16 11  1  0  0  0
 11 12  1  0  0  0
 11 15  1  0  0  0
 12 13  2  0  0  0
 13  1  1  0  0  0
 13 14  1  0  0  0
  1  2  1  0  0  0
  1 10  2  0  0  0
  2  3  2  0  0  0
  3  4  1  0  0  0
  4  5  1  0  0  0
  4  9  2  0  0  0
  5  6  2  0  0  0
  6  7  1  0  0  0
  7 22  1  0  0  0
  7  8  2  0  0  0
 22 33  1  0  0  0
 22 23  1  0  0  0
 33 34  1  0  0  0
 34 35  1  0  0  0
 35 36  1  0  0  0
 36 38  1  0  0  0
 36 37  1  0  0  0
 38 39  1  0  0  0
 38 40  1  0  0  0
 23 24  1  0  0  0
 23 28  2  0  0  0
 24 25  2  0  0  0
 25 29  1  0  0  0
 25 26  1  0  0  0
 29 30  1  0  0  0
 26 27  2  0  0  0
 27 31  1  0  0  0
 27 28  1  0  0  0
 31 32  1  0  0  0
  8  9  1  0  0  0
  9 10  1  0  0  0
 14 15  2  0  0  0
M  END
> <minimizedAffinity>
-8.43036

$$$$
