CHEMBL219999


 35 38  0  0  0  0  0  0  0  0999 V2000
  -18.4166    2.0720  -14.9624 C   0  0  0  0  0  0  0  0  0  0  0  0
  -17.4350    1.0905  -14.8317 C   0  0  0  0  0  0  0  0  0  0  0  0
  -16.2094    1.2125  -15.4953 C   0  0  0  0  0  0  0  0  0  0  0  0
  -15.9308    2.2925  -16.3511 C   0  0  0  0  0  0  0  0  0  0  0  0
  -16.9658    3.2369  -16.5197 C   0  0  0  0  0  0  0  0  0  0  0  0
  -18.1999    3.1225  -15.8485 C   0  0  0  0  0  0  0  0  0  0  0  0
  -14.6696    2.3343  -17.1398 C   0  0  0  0  0  0  0  0  0  0  0  0
  -14.2248    1.1678  -17.8190 C   0  0  0  0  0  0  0  0  0  0  0  0
  -13.1231    1.1591  -18.6695 C   0  0  0  0  0  0  0  0  0  0  0  0
  -12.4614    2.3400  -18.9699 C   0  0  0  0  0  0  0  0  0  0  0  0
  -12.8852    3.5046  -18.3220 C   0  0  0  0  0  0  0  0  0  0  0  0
  -13.8981    3.5164  -17.3505 C   0  0  0  0  0  0  0  0  0  0  0  0
  -13.7225    4.8035  -16.7538 C   0  0  0  0  0  0  0  0  0  0  0  0
  -14.0727    5.1500  -15.4981 N   0  0  0  0  0  0  0  0  0  0  0  0
  -12.9426    5.6107  -17.4658 N   0  0  0  0  0  0  0  0  0  0  0  0
  -12.4406    4.8030  -18.4170 N   0  0  0  0  0  0  0  0  0  0  0  0
  -13.2293    5.5198  -15.0400 H   0  0  0  0  0  0  0  0  0  0  0  0
  -14.6743    5.9617  -15.4609 H   0  0  0  0  0  0  0  0  0  0  0  0
  -11.3566    5.2943  -19.2538 C   0  0  0  0  0  0  0  0  0  0  0  0
  -11.8131    5.8746  -20.5917 C   0  0  0  0  0  0  0  0  0  0  0  0
  -13.1786    6.2817  -20.5695 O   0  0  0  0  0  0  0  0  0  0  0  0
  -13.6810    5.5118  -20.2179 H   0  0  0  0  0  0  0  0  0  0  0  0
  -21.5615    1.1003  -13.4334 N   0  0  0  0  0  0  0  0  0  0  0  0
  -20.5115    1.0354  -14.3304 C   0  0  0  0  0  0  0  0  0  0  0  0
  -20.3803    0.1630  -15.1839 O   0  0  0  0  0  0  0  0  0  0  0  0
  -19.5795    2.0531  -14.1459 N   0  0  0  0  0  0  0  0  0  0  0  0
  -21.7102    1.9842  -12.9702 H   0  0  0  0  0  0  0  0  0  0  0  0
  -19.4647    2.3578  -13.1906 H   0  0  0  0  0  0  0  0  0  0  0  0
  -25.5273   -1.2165  -15.3179 C   0  0  0  0  0  0  0  0  0  0  0  0
  -24.5294   -1.0267  -14.2133 C   0  0  0  0  0  0  0  0  0  0  0  0
  -24.6070   -1.8218  -13.0636 C   0  0  0  0  0  0  0  0  0  0  0  0
  -23.7013   -1.6554  -12.0349 C   0  0  0  0  0  0  0  0  0  0  0  0
  -22.6951   -0.6923  -12.1451 C   0  0  0  0  0  0  0  0  0  0  0  0
  -22.5766    0.1089  -13.2903 C   0  0  0  0  0  0  0  0  0  0  0  0
  -23.5108   -0.0638  -14.3263 C   0  0  0  0  0  0  0  0  0  0  0  0
 29 30  1  0  0  0
 30 31  1  0  0  0
 30 35  2  0  0  0
 31 32  2  0  0  0
 32 33  1  0  0  0
 33 34  2  0  0  0
 34 23  1  0  0  0
 34 35  1  0  0  0
 23 24  1  0  0  0
 23 27  1  0  0  0
 24 25  2  0  0  0
 24 26  1  0  0  0
 26  1  1  0  0  0
 26 28  1  0  0  0
  1  2  1  0  0  0
  1  6  2  0  0  0
  2  3  2  0  0  0
  3  4  1  0  0  0
  4  7  1  0  0  0
  4  5  2  0  0  0
  7  8  1  0  0  0
  7 12  2  0  0  0
  8  9  2  0  0  0
  9 10  1  0  0  0
 10 11  2  0  0  0
 11 12  1  0  0  0
 11 16  1  0  0  0
 12 13  1  0  0  0
 13 14  1  0  0  0
 13 15  2  0  0  0
 14 17  1  0  0  0
 14 18  1  0  0  0
 15 16  1  0  0  0
 16 19  1  0  0  0
 19 20  1  0  0  0
 20 21  1  0  0  0
 21 22  1  0  0  0
  5  6  1  0  0  0
M  END
> <minimizedAffinity>
-8.92353

$$$$
