CHEMBL3954419


 43 47  0  0  0  0  0  0  0  0999 V2000
  -26.0629   -1.2350   -9.2499 O   0  0  0  0  0  0  0  0  0  0  0  0
  -26.8260   -1.9543   -9.8914 C   0  0  0  0  0  0  0  0  0  0  0  0
  -27.9787   -2.5024   -9.3515 N   0  0  0  0  0  0  0  0  0  0  0  0
  -26.6057   -2.3118  -11.2084 N   0  0  0  0  0  0  0  0  0  0  0  0
  -28.4101   -3.2663   -9.8485 H   0  0  0  0  0  0  0  0  0  0  0  0
  -27.3322   -2.8337  -11.6788 H   0  0  0  0  0  0  0  0  0  0  0  0
  -25.4816   -1.9223  -11.9858 C   0  0  0  0  0  0  0  0  0  0  0  0
  -24.1752   -1.8816  -11.4854 C   0  0  0  0  0  0  0  0  0  0  0  0
  -23.0992   -1.4774  -12.2788 C   0  0  0  0  0  0  0  0  0  0  0  0
  -23.3166   -1.0506  -13.5858 C   0  0  0  0  0  0  0  0  0  0  0  0
  -24.6065   -1.1366  -14.1072 C   0  0  0  0  0  0  0  0  0  0  0  0
  -24.8436   -0.7925  -15.3799 F   0  0  0  0  0  0  0  0  0  0  0  0
  -25.6866   -1.5651  -13.3194 C   0  0  0  0  0  0  0  0  0  0  0  0
  -22.3079   -0.5813  -14.4021 O   0  0  0  0  0  0  0  0  0  0  0  0
  -22.0141    0.7701  -14.3864 C   0  0  0  0  0  0  0  0  0  0  0  0
  -22.7930    1.7115  -13.7188 C   0  0  0  0  0  0  0  0  0  0  0  0
  -22.3649    3.0180  -13.7229 C   0  0  0  0  0  0  0  0  0  0  0  0
  -21.2676    3.4307  -14.3788 N   0  0  0  0  0  0  0  0  0  0  0  0
  -20.5444    2.5378  -15.0756 C   0  0  0  0  0  0  0  0  0  0  0  0
  -20.8912    1.1906  -15.1094 C   0  0  0  0  0  0  0  0  0  0  0  0
  -19.4017    2.9723  -15.7695 N   0  0  0  0  0  0  0  0  0  0  0  0
  -18.1055    2.6618  -15.3796 C   0  0  0  0  0  0  0  0  0  0  0  0
  -17.7661    2.0018  -14.4098 O   0  0  0  0  0  0  0  0  0  0  0  0
  -19.5349    3.5184  -16.6027 H   0  0  0  0  0  0  0  0  0  0  0  0
  -17.0007    3.1753  -16.2441 C   0  0  0  0  0  0  0  0  0  0  0  0
  -15.5395    3.1076  -15.8836 C   0  0  0  0  0  0  0  0  0  0  0  0
  -16.2370    4.4389  -15.9384 C   0  0  0  0  0  0  0  0  0  0  0  0
  -28.4471   -2.2306   -8.0361 C   0  0  0  0  0  0  0  0  0  0  0  0
  -28.9363   -3.2380   -7.1872 C   0  0  0  0  0  0  0  0  0  0  0  0
  -29.3697   -2.9704   -5.8901 C   0  0  0  0  0  0  0  0  0  0  0  0
  -29.3938   -1.6478   -5.4578 C   0  0  0  0  0  0  0  0  0  0  0  0
  -28.9024   -0.6131   -6.2760 C   0  0  0  0  0  0  0  0  0  0  0  0
  -28.4025   -0.9197   -7.5582 C   0  0  0  0  0  0  0  0  0  0  0  0
  -28.8947    0.8133   -5.7827 C   0  0  0  0  0  0  0  0  0  0  0  0
  -27.9702    1.0555   -4.8125 F   0  0  0  0  0  0  0  0  0  0  0  0
  -28.6312    1.7029   -6.7799 F   0  0  0  0  0  0  0  0  0  0  0  0
  -30.0939    1.1901   -5.2575 F   0  0  0  0  0  0  0  0  0  0  0  0
  -29.7592   -3.9172   -4.9726 O   0  0  0  0  0  0  0  0  0  0  0  0
  -29.9627   -5.2604   -5.4555 C   0  0  0  0  0  0  0  0  0  0  0  0
  -31.0231   -5.9487   -4.6172 C   0  0  0  0  0  0  0  0  0  0  0  0
  -30.2337   -6.6052   -3.5077 C   0  0  0  0  0  0  0  0  0  0  0  0
  -28.9579   -6.9454   -4.0515 O   0  0  0  0  0  0  0  0  0  0  0  0
  -28.7418   -6.1557   -5.2334 C   0  0  0  0  0  0  0  0  0  0  0  0
  1  2  2  0  0  0
  2  3  1  0  0  0
  2  4  1  0  0  0
  3 28  1  0  0  0
  3  5  1  0  0  0
 28 29  1  0  0  0
 28 33  2  0  0  0
 29 30  2  0  0  0
 30 38  1  0  0  0
 30 31  1  0  0  0
 38 39  1  0  0  0
 39 40  1  0  0  0
 39 43  1  0  0  0
 40 41  1  0  0  0
 41 42  1  0  0  0
 42 43  1  0  0  0
 31 32  2  0  0  0
 32 34  1  0  0  0
 32 33  1  0  0  0
 34 35  1  0  0  0
 34 36  1  0  0  0
 34 37  1  0  0  0
  4  7  1  0  0  0
  4  6  1  0  0  0
  7  8  1  0  0  0
  7 13  2  0  0  0
  8  9  2  0  0  0
  9 10  1  0  0  0
 10 14  1  0  0  0
 10 11  2  0  0  0
 14 15  1  0  0  0
 15 16  1  0  0  0
 15 20  2  0  0  0
 16 17  2  0  0  0
 17 18  1  0  0  0
 18 19  2  0  0  0
 19 21  1  0  0  0
 19 20  1  0  0  0
 21 22  1  0  0  0
 21 24  1  0  0  0
 22 23  2  0  0  0
 22 25  1  0  0  0
 25 26  1  0  0  0
 25 27  1  0  0  0
 26 27  1  0  0  0
 11 12  1  0  0  0
 11 13  1  0  0  0
M  END
> <minimizedAffinity>
-12.29168

$$$$
