CHEMBL3690383


 32 34  0  0  0  0  0  0  0  0999 V2000
  -18.8549    2.1936  -15.0180 C   0  0  0  0  0  0  0  0  0  0  0  0
  -18.1326    3.0487  -15.8564 C   0  0  0  0  0  0  0  0  0  0  0  0
  -16.8159    2.7627  -16.2029 C   0  0  0  0  0  0  0  0  0  0  0  0
  -16.2175    1.5889  -15.7579 C   0  0  0  0  0  0  0  0  0  0  0  0
  -16.9189    0.6891  -14.9549 C   0  0  0  0  0  0  0  0  0  0  0  0
  -18.2329    1.0052  -14.5831 C   0  0  0  0  0  0  0  0  0  0  0  0
  -23.4277    0.3522  -13.1252 C   0  0  0  0  0  0  0  0  0  0  0  0
  -22.2261   -0.4165  -13.3859 C   0  0  0  0  0  0  0  0  0  0  0  0
  -21.1579    0.2122  -13.9110 C   0  0  0  0  0  0  0  0  0  0  0  0
  -21.2027    1.5950  -14.1555 N   0  0  0  0  0  0  0  0  0  0  0  0
  -20.2501    2.4828  -14.6589 C   0  0  0  0  0  0  0  0  0  0  0  0
  -20.9220    3.6960  -14.7155 C   0  0  0  0  0  0  0  0  0  0  0  0
  -22.2033    3.6068  -14.2541 N   0  0  0  0  0  0  0  0  0  0  0  0
  -22.3511    2.3496  -13.9065 C   0  0  0  0  0  0  0  0  0  0  0  0
  -23.4855    1.6745  -13.3812 C   0  0  0  0  0  0  0  0  0  0  0  0
  -25.8405   -0.9413  -12.4327 C   0  0  0  0  0  0  0  0  0  0  0  0
  -24.7265   -0.3441  -12.7524 C   0  0  0  0  0  0  0  0  0  0  0  0
  -27.8363   -2.1629  -13.3048 C   0  0  0  0  0  0  0  0  0  0  0  0
  -27.1392   -1.6376  -12.0599 C   0  0  0  0  0  0  0  0  0  0  0  0
  -26.8523   -2.7209  -11.1853 O   0  0  0  0  0  0  0  0  0  0  0  0
  -26.2131   -3.2927  -11.6430 H   0  0  0  0  0  0  0  0  0  0  0  0
  -16.3697   -0.5512  -14.5515 N   0  0  0  0  0  0  0  0  0  0  0  0
  -15.8334   -0.8229  -13.3118 C   0  0  0  0  0  0  0  0  0  0  0  0
  -15.9085   -0.1193  -12.3126 O   0  0  0  0  0  0  0  0  0  0  0  0
  -15.1166   -1.9978  -13.2848 N   0  0  0  0  0  0  0  0  0  0  0  0
  -16.4492   -1.3214  -15.1989 H   0  0  0  0  0  0  0  0  0  0  0  0
  -15.3219   -2.7033  -13.9754 H   0  0  0  0  0  0  0  0  0  0  0  0
  -14.5398   -2.4303  -12.0063 C   0  0  0  0  0  0  0  0  0  0  0  0
  -15.4822   -3.2085  -11.0752 C   0  0  0  0  0  0  0  0  0  0  0  0
  -14.8550   -4.2346  -10.4548 F   0  0  0  0  0  0  0  0  0  0  0  0
  -15.9440   -2.3872  -10.0981 F   0  0  0  0  0  0  0  0  0  0  0  0
  -16.5574   -3.7003  -11.7243 F   0  0  0  0  0  0  0  0  0  0  0  0
 18 19  1  0  0  0
 19 20  1  0  0  0
 19 16  1  0  0  0
 20 21  1  0  0  0
 16 17  3  0  0  0
 17  7  1  0  0  0
  7  8  1  0  0  0
  7 15  2  0  0  0
  8  9  2  0  0  0
  9 10  1  0  0  0
 10 11  1  0  0  0
 10 14  1  0  0  0
 11  1  1  0  0  0
 11 12  2  0  0  0
  1  2  1  0  0  0
  1  6  2  0  0  0
  2  3  2  0  0  0
  3  4  1  0  0  0
  4  5  2  0  0  0
  5 22  1  0  0  0
  5  6  1  0  0  0
 22 23  1  0  0  0
 22 26  1  0  0  0
 23 24  2  0  0  0
 23 25  1  0  0  0
 25 28  1  0  0  0
 25 27  1  0  0  0
 28 29  1  0  0  0
 29 30  1  0  0  0
 29 31  1  0  0  0
 29 32  1  0  0  0
 12 13  1  0  0  0
 13 14  2  0  0  0
 14 15  1  0  0  0
M  END
> <minimizedAffinity>
-9.82524

$$$$
