CHEMBL67003


 45 51  0  0  0  0  0  0  0  0999 V2000
  -14.1135    0.8217  -15.5691 C   0  0  0  0  0  0  0  0  0  0  0  0
  -13.7763    1.3893  -16.7430 C   0  0  0  0  0  0  0  0  0  0  0  0
  -12.7521    0.9884  -17.7758 C   0  0  0  0  0  0  0  0  0  0  0  0
  -11.9567    0.0708  -17.7174 O   0  0  0  0  0  0  0  0  0  0  0  0
  -12.9090    1.8778  -18.8222 N   0  0  0  0  0  0  0  0  0  0  0  0
  -13.8946    2.8131  -18.5556 C   0  0  0  0  0  0  0  0  0  0  0  0
  -14.2344    3.7837  -19.4040 N   0  0  0  0  0  0  0  0  0  0  0  0
  -15.2068    4.5745  -18.9365 C   0  0  0  0  0  0  0  0  0  0  0  0
  -15.8127    4.4548  -17.7422 N   0  0  0  0  0  0  0  0  0  0  0  0
  -15.4162    3.4553  -16.9233 C   0  0  0  0  0  0  0  0  0  0  0  0
  -14.4363    2.5813  -17.3082 C   0  0  0  0  0  0  0  0  0  0  0  0
  -12.3784    1.8705  -19.6788 H   0  0  0  0  0  0  0  0  0  0  0  0
  -11.7261    0.6857  -13.3536 C   0  0  0  0  0  0  0  0  0  0  0  0
  -12.5595   -0.4006  -13.9382 C   0  0  0  0  0  0  0  0  0  0  0  0
  -12.4549   -1.7665  -13.5708 C   0  0  0  0  0  0  0  0  0  0  0  0
  -13.4399   -2.4759  -14.2300 C   0  0  0  0  0  0  0  0  0  0  0  0
  -14.0001   -1.5939  -15.1285 N   0  0  0  0  0  0  0  0  0  0  0  0
  -13.5731   -0.3083  -14.8898 C   0  0  0  0  0  0  0  0  0  0  0  0
  -14.7027   -1.8535  -15.8129 H   0  0  0  0  0  0  0  0  0  0  0  0
  -13.7413   -3.8821  -14.0571 C   0  0  0  0  0  0  0  0  0  0  0  0
  -12.9422   -4.7398  -14.4380 O   0  0  0  0  0  0  0  0  0  0  0  0
  -14.9017   -4.2473  -13.3840 N   0  0  0  0  0  0  0  0  0  0  0  0
  -15.8980   -3.3593  -12.7812 C   0  0  0  0  0  0  0  0  0  0  0  0
  -16.2913   -3.8115  -11.3739 C   0  0  0  0  0  0  0  0  0  0  0  0
  -16.6799   -5.1892  -11.3486 O   0  0  0  0  0  0  0  0  0  0  0  0
  -15.6018   -6.0184  -11.8090 C   0  0  0  0  0  0  0  0  0  0  0  0
  -15.2259   -5.6741  -13.2528 C   0  0  0  0  0  0  0  0  0  0  0  0
  -16.0014    3.3351  -15.6545 N   0  0  0  0  0  0  0  0  0  0  0  0
  -15.8149    4.1628  -15.0985 H   0  0  0  0  0  0  0  0  0  0  0  0
  -17.2392    2.7332  -15.3730 C   0  0  0  0  0  0  0  0  0  0  0  0
  -17.3488    1.3420  -15.4692 C   0  0  0  0  0  0  0  0  0  0  0  0
  -18.5637    0.6925  -15.2529 C   0  0  0  0  0  0  0  0  0  0  0  0
  -19.6723    1.4919  -14.9626 C   0  0  0  0  0  0  0  0  0  0  0  0
  -19.6115    2.8770  -14.8948 C   0  0  0  0  0  0  0  0  0  0  0  0
  -20.9307    3.2889  -14.6064 C   0  0  0  0  0  0  0  0  0  0  0  0
  -21.7784    2.2630  -14.5025 N   0  0  0  0  0  0  0  0  0  0  0  0
  -20.9876    1.1827  -14.7061 N   0  0  0  0  0  0  0  0  0  0  0  0
  -18.3826    3.5118  -15.1154 C   0  0  0  0  0  0  0  0  0  0  0  0
  -21.5653   -0.1540  -14.7348 C   0  0  0  0  0  0  0  0  0  0  0  0
  -22.7674   -0.2988  -13.8320 C   0  0  0  0  0  0  0  0  0  0  0  0
  -24.0123   -0.7261  -14.3198 C   0  0  0  0  0  0  0  0  0  0  0  0
  -25.0911   -0.9085  -13.4529 C   0  0  0  0  0  0  0  0  0  0  0  0
  -24.9368   -0.6792  -12.0877 C   0  0  0  0  0  0  0  0  0  0  0  0
  -23.7061   -0.2604  -11.5880 C   0  0  0  0  0  0  0  0  0  0  0  0
  -22.6274   -0.0731  -12.4534 C   0  0  0  0  0  0  0  0  0  0  0  0
 13 14  1  0  0  0
 14 15  1  0  0  0
 14 18  2  0  0  0
 15 16  2  0  0  0
 16 20  1  0  0  0
 16 17  1  0  0  0
 20 21  2  0  0  0
 20 22  1  0  0  0
 22 23  1  0  0  0
 22 27  1  0  0  0
 23 24  1  0  0  0
 24 25  1  0  0  0
 25 26  1  0  0  0
 26 27  1  0  0  0
 17 18  1  0  0  0
 17 19  1  0  0  0
 18  1  1  0  0  0
  1  2  2  0  0  0
  2  3  1  0  0  0
  2 11  1  0  0  0
  3  4  2  0  0  0
  3  5  1  0  0  0
  5  6  1  0  0  0
  5 12  1  0  0  0
  6  7  1  0  0  0
  6 11  2  0  0  0
  7  8  2  0  0  0
  8  9  1  0  0  0
  9 10  2  0  0  0
 10 28  1  0  0  0
 10 11  1  0  0  0
 28 30  1  0  0  0
 28 29  1  0  0  0
 30 31  1  0  0  0
 30 38  2  0  0  0
 31 32  2  0  0  0
 32 33  1  0  0  0
 33 34  2  0  0  0
 33 37  1  0  0  0
 34 35  1  0  0  0
 34 38  1  0  0  0
 35 36  2  0  0  0
 36 37  1  0  0  0
 37 39  1  0  0  0
 39 40  1  0  0  0
 40 41  1  0  0  0
 40 45  2  0  0  0
 41 42  2  0  0  0
 42 43  1  0  0  0
 43 44  2  0  0  0
 44 45  1  0  0  0
M  END
> <minimizedAffinity>
-10.99703

$$$$
