CHEMBL259996


 29 32  0  0  0  0  0  0  0  0999 V2000
  -29.3127   -7.4527   -4.4964 C   0  0  0  0  0  0  0  0  0  0  0  0
  -29.1005   -8.1513   -3.4211 N   0  0  0  0  0  0  0  0  0  0  0  0
  -28.4814   -9.3687   -3.4870 C   0  0  0  0  0  0  0  0  0  0  0  0
  -28.0450   -9.9546   -4.5522 N   0  0  0  0  0  0  0  0  0  0  0  0
  -28.2574   -9.2525   -5.6707 N   0  0  0  0  0  0  0  0  0  0  0  0
  -27.8952   -9.6659   -6.9153 C   0  0  0  0  0  0  0  0  0  0  0  0
  -28.3323   -8.7278   -7.8171 C   0  0  0  0  0  0  0  0  0  0  0  0
  -28.9024   -7.6440   -7.0824 C   0  0  0  0  0  0  0  0  0  0  0  0
  -29.4323   -6.3812   -7.6616 C   0  0  0  0  0  0  0  0  0  0  0  0
  -28.8730   -8.0346   -5.7435 C   0  0  0  0  0  0  0  0  0  0  0  0
  -29.9269   -6.2153   -4.4433 N   0  0  0  0  0  0  0  0  0  0  0  0
  -30.8629   -6.1707   -4.8153 H   0  0  0  0  0  0  0  0  0  0  0  0
  -28.4808    0.9301   -5.6187 C   0  0  0  0  0  0  0  0  0  0  0  0
  -28.6804   -0.4691   -5.1744 C   0  0  0  0  0  0  0  0  0  0  0  0
  -29.8247   -1.2425   -5.0926 C   0  0  0  0  0  0  0  0  0  0  0  0
  -29.4292   -2.5656   -4.7605 C   0  0  0  0  0  0  0  0  0  0  0  0
  -30.0729   -3.8088   -4.6403 C   0  0  0  0  0  0  0  0  0  0  0  0
  -29.2928   -4.9538   -4.4052 C   0  0  0  0  0  0  0  0  0  0  0  0
  -27.9221   -4.7492   -4.2016 C   0  0  0  0  0  0  0  0  0  0  0  0
  -27.2525   -3.5664   -4.2601 N   0  0  0  0  0  0  0  0  0  0  0  0
  -28.0556   -2.5374   -4.5704 C   0  0  0  0  0  0  0  0  0  0  0  0
  -27.6250   -1.2589   -4.7827 N   0  0  0  0  0  0  0  0  0  0  0  0
  -26.6552   -0.9848   -4.7249 H   0  0  0  0  0  0  0  0  0  0  0  0
  -28.2303   -8.8055   -9.1677 O   0  0  0  0  0  0  0  0  0  0  0  0
  -27.0698   -9.5353   -9.6096 C   0  0  0  0  0  0  0  0  0  0  0  0
  -27.1960   -9.9014  -11.0928 C   0  0  0  0  0  0  0  0  0  0  0  0
  -28.6333  -10.1975  -11.4934 C   0  0  0  0  0  0  0  0  0  0  0  0
  -26.6969   -8.8458  -11.9129 O   0  0  0  0  0  0  0  0  0  0  0  0
  -27.1641   -8.0341  -11.6421 H   0  0  0  0  0  0  0  0  0  0  0  0
 13 14  1  0  0  0
 14 15  2  0  0  0
 14 22  1  0  0  0
 15 16  1  0  0  0
 16 17  1  0  0  0
 16 21  2  0  0  0
 17 18  2  0  0  0
 18 11  1  0  0  0
 18 19  1  0  0  0
 11  1  1  0  0  0
 11 12  1  0  0  0
  1  2  2  0  0  0
  1 10  1  0  0  0
  2  3  1  0  0  0
  3  4  2  0  0  0
  4  5  1  0  0  0
  5  6  1  0  0  0
  5 10  1  0  0  0
  6  7  2  0  0  0
  7 24  1  0  0  0
  7  8  1  0  0  0
 24 25  1  0  0  0
 25 26  1  0  0  0
 26 27  1  0  0  0
 26 28  1  0  0  0
 28 29  1  0  0  0
  8  9  1  0  0  0
  8 10  2  0  0  0
 19 20  2  0  0  0
 20 21  1  0  0  0
 21 22  1  0  0  0
 22 23  1  0  0  0
M  END
> <minimizedAffinity>
-8.47329

$$$$
