CHEMBL271140


 47 51  0  0  0  0  0  0  0  0999 V2000
  -14.1513   -2.5652  -13.2455 C   0  0  0  0  0  0  0  0  0  0  0  0
  -13.2726   -2.3268  -12.4236 O   0  0  0  0  0  0  0  0  0  0  0  0
  -14.6240   -1.6685  -14.1870 N   0  0  0  0  0  0  0  0  0  0  0  0
  -15.4093   -1.9486  -14.7540 H   0  0  0  0  0  0  0  0  0  0  0  0
  -16.1660   -3.4863  -11.0230 C   0  0  0  0  0  0  0  0  0  0  0  0
  -15.7042   -4.3296  -12.1784 C   0  0  0  0  0  0  0  0  0  0  0  0
  -16.2289   -5.6283  -12.2670 C   0  0  0  0  0  0  0  0  0  0  0  0
  -15.9390   -6.4668  -13.3484 C   0  0  0  0  0  0  0  0  0  0  0  0
  -15.1123   -6.0422  -14.3846 C   0  0  0  0  0  0  0  0  0  0  0  0
  -14.5455   -4.7651  -14.2857 C   0  0  0  0  0  0  0  0  0  0  0  0
  -14.8178   -3.9075  -13.1893 C   0  0  0  0  0  0  0  0  0  0  0  0
  -14.8115   -6.8311  -15.5280 N   0  0  0  0  0  0  0  0  0  0  0  0
  -13.5418   -7.1012  -16.0304 C   0  0  0  0  0  0  0  0  0  0  0  0
  -12.4924   -6.7127  -15.5293 O   0  0  0  0  0  0  0  0  0  0  0  0
  -15.6073   -7.2304  -16.0074 H   0  0  0  0  0  0  0  0  0  0  0  0
  -13.4601   -7.9490  -17.2743 C   0  0  0  0  0  0  0  0  0  0  0  0
  -13.6138   -7.3405  -18.5311 C   0  0  0  0  0  0  0  0  0  0  0  0
  -13.6204   -8.1076  -19.6965 C   0  0  0  0  0  0  0  0  0  0  0  0
  -13.4654   -9.4885  -19.6251 C   0  0  0  0  0  0  0  0  0  0  0  0
  -13.2892  -10.1359  -18.3891 C   0  0  0  0  0  0  0  0  0  0  0  0
  -13.3015   -9.3642  -17.1939 C   0  0  0  0  0  0  0  0  0  0  0  0
  -13.1430  -10.0431  -15.8509 C   0  0  0  0  0  0  0  0  0  0  0  0
  -13.0663  -11.6379  -18.3888 C   0  0  0  0  0  0  0  0  0  0  0  0
  -11.9966  -12.0291  -17.6374 F   0  0  0  0  0  0  0  0  0  0  0  0
  -14.1309  -12.3199  -17.8800 F   0  0  0  0  0  0  0  0  0  0  0  0
  -12.8435  -12.1470  -19.6315 F   0  0  0  0  0  0  0  0  0  0  0  0
  -14.1782   -0.3364  -14.3643 C   0  0  0  0  0  0  0  0  0  0  0  0
  -14.5442    0.7460  -13.5994 C   0  0  0  0  0  0  0  0  0  0  0  0
  -14.1125    2.0002  -13.8295 N   0  0  0  0  0  0  0  0  0  0  0  0
  -13.2845    2.2126  -14.8705 C   0  0  0  0  0  0  0  0  0  0  0  0
  -12.8676    1.2309  -15.6804 N   0  0  0  0  0  0  0  0  0  0  0  0
  -13.3110   -0.0190  -15.3941 C   0  0  0  0  0  0  0  0  0  0  0  0
  -12.8599    3.5065  -15.1447 N   0  0  0  0  0  0  0  0  0  0  0  0
  -12.5145    3.9773  -14.3266 H   0  0  0  0  0  0  0  0  0  0  0  0
  -13.3085    4.3257  -16.1938 C   0  0  0  0  0  0  0  0  0  0  0  0
  -12.5448    5.3976  -16.6566 C   0  0  0  0  0  0  0  0  0  0  0  0
  -13.0467    6.2718  -17.6143 C   0  0  0  0  0  0  0  0  0  0  0  0
  -14.3367    6.1263  -18.1353 C   0  0  0  0  0  0  0  0  0  0  0  0
  -15.0739    5.0159  -17.7142 C   0  0  0  0  0  0  0  0  0  0  0  0
  -14.5673    4.1202  -16.7599 C   0  0  0  0  0  0  0  0  0  0  0  0
  -14.7918    7.0491  -19.0556 N   0  0  0  0  0  0  0  0  0  0  0  0
  -14.4676    8.4740  -18.9605 C   0  0  0  0  0  0  0  0  0  0  0  0
  -15.6334    9.2817  -19.5834 C   0  0  0  0  0  0  0  0  0  0  0  0
  -15.9196    8.8894  -20.9854 N   0  0  0  0  0  0  0  0  0  0  0  0
  -17.0567    9.6407  -21.5074 C   0  0  0  0  0  0  0  0  0  0  0  0
  -16.1951    7.4333  -21.0383 C   0  0  0  0  0  0  0  0  0  0  0  0
  -15.0463    6.5952  -20.4368 C   0  0  0  0  0  0  0  0  0  0  0  0
  5  6  1  0  0  0
  6  7  1  0  0  0
  6 11  2  0  0  0
  7  8  2  0  0  0
  8  9  1  0  0  0
  9 12  1  0  0  0
  9 10  2  0  0  0
 12 13  1  0  0  0
 12 15  1  0  0  0
 13 14  2  0  0  0
 13 16  1  0  0  0
 16 17  1  0  0  0
 16 21  2  0  0  0
 17 18  2  0  0  0
 18 19  1  0  0  0
 19 20  2  0  0  0
 20 23  1  0  0  0
 20 21  1  0  0  0
 23 24  1  0  0  0
 23 25  1  0  0  0
 23 26  1  0  0  0
 21 22  1  0  0  0
 10 11  1  0  0  0
 11  1  1  0  0  0
  1  2  2  0  0  0
  1  3  1  0  0  0
  3 27  1  0  0  0
  3  4  1  0  0  0
 27 28  1  0  0  0
 27 32  2  0  0  0
 28 29  2  0  0  0
 29 30  1  0  0  0
 30 33  1  0  0  0
 30 31  2  0  0  0
 33 35  1  0  0  0
 33 34  1  0  0  0
 35 36  1  0  0  0
 35 40  2  0  0  0
 36 37  2  0  0  0
 37 38  1  0  0  0
 38 41  1  0  0  0
 38 39  2  0  0  0
 41 42  1  0  0  0
 41 47  1  0  0  0
 42 43  1  0  0  0
 43 44  1  0  0  0
 44 45  1  0  0  0
 44 46  1  0  0  0
 46 47  1  0  0  0
 39 40  1  0  0  0
 31 32  1  0  0  0
M  END
> <minimizedAffinity>
-7.81348

$$$$
