CHEMBL1254670


 30 33  0  0  0  0  0  0  0  0999 V2000
  -27.5050   -1.8119  -10.0903 C   0  0  0  0  0  0  0  0  0  0  0  0
  -26.1312   -1.8245   -9.8656 C   0  0  0  0  0  0  0  0  0  0  0  0
  -25.2445   -1.4928  -10.8895 C   0  0  0  0  0  0  0  0  0  0  0  0
  -25.6937   -1.2015  -12.1768 C   0  0  0  0  0  0  0  0  0  0  0  0
  -27.0719   -1.2461  -12.4209 C   0  0  0  0  0  0  0  0  0  0  0  0
  -27.9715   -1.5518  -11.3836 C   0  0  0  0  0  0  0  0  0  0  0  0
  -24.8191   -0.8420  -13.2314 N   0  0  0  0  0  0  0  0  0  0  0  0
  -23.6999   -0.0360  -13.1110 C   0  0  0  0  0  0  0  0  0  0  0  0
  -23.2361    0.3831  -12.0553 O   0  0  0  0  0  0  0  0  0  0  0  0
  -23.1638    0.2986  -14.3470 N   0  0  0  0  0  0  0  0  0  0  0  0
  -24.9481   -1.3084  -14.1181 H   0  0  0  0  0  0  0  0  0  0  0  0
  -23.8520    0.4294  -15.0736 H   0  0  0  0  0  0  0  0  0  0  0  0
  -21.9998    1.1034  -14.4269 C   0  0  0  0  0  0  0  0  0  0  0  0
  -22.1182    2.4794  -14.2162 C   0  0  0  0  0  0  0  0  0  0  0  0
  -20.9770    3.2890  -14.2147 C   0  0  0  0  0  0  0  0  0  0  0  0
  -19.7233    2.7341  -14.4733 C   0  0  0  0  0  0  0  0  0  0  0  0
  -19.6128    1.3666  -14.7201 C   0  0  0  0  0  0  0  0  0  0  0  0
  -18.0699    0.6849  -15.0610 Cl  0  0  0  0  0  0  0  0  0  0  0  0
  -20.7433    0.5507  -14.6861 C   0  0  0  0  0  0  0  0  0  0  0  0
  -28.4374   -2.1120   -9.1232 O   0  0  0  0  0  0  0  0  0  0  0  0
  -28.7743   -4.8783   -7.8419 C   0  0  0  0  0  0  0  0  0  0  0  0
  -28.4719   -4.0268   -6.7126 N   0  0  0  0  0  0  0  0  0  0  0  0
  -28.3989   -4.4588   -5.4106 C   0  0  0  0  0  0  0  0  0  0  0  0
  -28.0487   -3.3808   -4.6258 C   0  0  0  0  0  0  0  0  0  0  0  0
  -27.9202   -2.2632   -5.4801 C   0  0  0  0  0  0  0  0  0  0  0  0
  -27.5840   -0.9951   -5.1672 N   0  0  0  0  0  0  0  0  0  0  0  0
  -27.5837   -0.1703   -6.2207 C   0  0  0  0  0  0  0  0  0  0  0  0
  -27.8737   -0.4663   -7.4983 N   0  0  0  0  0  0  0  0  0  0  0  0
  -28.1556   -1.7524   -7.8079 C   0  0  0  0  0  0  0  0  0  0  0  0
  -28.2053   -2.6805   -6.7774 C   0  0  0  0  0  0  0  0  0  0  0  0
 21 22  1  0  0  0
 22 23  1  0  0  0
 22 30  1  0  0  0
 23 24  2  0  0  0
 24 25  1  0  0  0
 25 26  1  0  0  0
 25 30  2  0  0  0
 26 27  2  0  0  0
 27 28  1  0  0  0
 28 29  2  0  0  0
 29 20  1  0  0  0
 29 30  1  0  0  0
 20  1  1  0  0  0
  1  2  1  0  0  0
  1  6  2  0  0  0
  2  3  2  0  0  0
  3  4  1  0  0  0
  4  7  1  0  0  0
  4  5  2  0  0  0
  7  8  1  0  0  0
  7 11  1  0  0  0
  8  9  2  0  0  0
  8 10  1  0  0  0
 10 13  1  0  0  0
 10 12  1  0  0  0
 13 14  1  0  0  0
 13 19  2  0  0  0
 14 15  2  0  0  0
 15 16  1  0  0  0
 16 17  2  0  0  0
 17 18  1  0  0  0
 17 19  1  0  0  0
  5  6  1  0  0  0
M  END
> <minimizedAffinity>
-9.34055

$$$$
