CHEMBL3963292


 45 49  0  0  0  0  0  0  0  0999 V2000
  -27.9844   -7.4220   -4.6288 C   0  0  0  0  0  0  0  0  0  0  0  0
  -27.2202   -6.3997   -4.0710 C   0  0  0  0  0  0  0  0  0  0  0  0
  -27.4860   -5.0716   -4.3600 C   0  0  0  0  0  0  0  0  0  0  0  0
  -28.3754   -4.6917   -5.3709 C   0  0  0  0  0  0  0  0  0  0  0  0
  -29.1376   -5.7407   -6.0058 C   0  0  0  0  0  0  0  0  0  0  0  0
  -30.1233   -5.4999   -7.0043 C   0  0  0  0  0  0  0  0  0  0  0  0
  -31.0077   -6.4805   -7.4576 C   0  0  0  0  0  0  0  0  0  0  0  0
  -30.8812   -7.7767   -7.0033 C   0  0  0  0  0  0  0  0  0  0  0  0
  -29.8523   -8.0899   -6.1157 C   0  0  0  0  0  0  0  0  0  0  0  0
  -28.9719   -7.1092   -5.5957 C   0  0  0  0  0  0  0  0  0  0  0  0
  -28.5250   -3.2280   -5.6523 C   0  0  0  0  0  0  0  0  0  0  0  0
  -28.8930   -2.3262   -4.6220 C   0  0  0  0  0  0  0  0  0  0  0  0
  -29.1405   -0.9749   -4.8502 C   0  0  0  0  0  0  0  0  0  0  0  0
  -28.9425   -0.4165   -6.1071 C   0  0  0  0  0  0  0  0  0  0  0  0
  -28.4133   -1.2542   -7.0977 C   0  0  0  0  0  0  0  0  0  0  0  0
  -27.9419   -0.9750   -8.3495 N   0  0  0  0  0  0  0  0  0  0  0  0
  -27.5578   -2.0317   -9.0575 N   0  0  0  0  0  0  0  0  0  0  0  0
  -27.7315   -3.0479   -8.2220 C   0  0  0  0  0  0  0  0  0  0  0  0
  -27.4122   -4.2827   -8.6285 N   0  0  0  0  0  0  0  0  0  0  0  0
  -28.2268   -2.6421   -6.9307 C   0  0  0  0  0  0  0  0  0  0  0  0
  -27.8462   -0.0688   -8.7878 H   0  0  0  0  0  0  0  0  0  0  0  0
  -27.1229   -4.3840   -9.5944 H   0  0  0  0  0  0  0  0  0  0  0  0
  -27.8574   -5.1028   -8.2379 H   0  0  0  0  0  0  0  0  0  0  0  0
  -29.1995    0.9373   -6.1986 O   0  0  0  0  0  0  0  0  0  0  0  0
  -30.5093    1.3651   -5.8274 C   0  0  0  0  0  0  0  0  0  0  0  0
  -31.5098    1.0675   -6.9491 C   0  0  0  0  0  0  0  0  0  0  0  0
  -32.0389    2.2871   -7.7446 C   0  0  0  0  0  0  0  0  0  0  0  0
  -31.3607    3.5920   -7.3048 C   0  0  0  0  0  0  0  0  0  0  0  0
  -31.7709    2.0635   -9.2418 C   0  0  0  0  0  0  0  0  0  0  0  0
  -33.4889    2.4407   -7.5802 N   0  0  0  0  0  0  0  0  0  0  0  0
  -33.7015    2.5201   -6.5805 H   0  0  0  0  0  0  0  0  0  0  0  0
  -33.9568    1.5804   -7.8666 H   0  0  0  0  0  0  0  0  0  0  0  0
  -26.4544  -10.4643   -3.3410 N   0  0  0  0  0  0  0  0  0  0  0  0
  -26.5107   -9.2046   -3.9072 C   0  0  0  0  0  0  0  0  0  0  0  0
  -25.5216   -8.5278   -4.1878 O   0  0  0  0  0  0  0  0  0  0  0  0
  -27.8070   -8.7431   -4.1090 N   0  0  0  0  0  0  0  0  0  0  0  0
  -27.2923  -11.0250   -3.3581 H   0  0  0  0  0  0  0  0  0  0  0  0
  -28.4858   -9.0799   -3.4451 H   0  0  0  0  0  0  0  0  0  0  0  0
  -21.7548  -11.7497   -4.3039 C   0  0  0  0  0  0  0  0  0  0  0  0
  -22.9437  -11.7333   -3.3875 C   0  0  0  0  0  0  0  0  0  0  0  0
  -22.8569  -12.3546   -2.1385 C   0  0  0  0  0  0  0  0  0  0  0  0
  -23.9485  -12.3559   -1.2842 C   0  0  0  0  0  0  0  0  0  0  0  0
  -25.1364  -11.7381   -1.6741 C   0  0  0  0  0  0  0  0  0  0  0  0
  -25.2565  -11.0994   -2.9123 C   0  0  0  0  0  0  0  0  0  0  0  0
  -24.1463  -11.1037   -3.7702 C   0  0  0  0  0  0  0  0  0  0  0  0
 39 40  1  0  0  0
 40 41  1  0  0  0
 40 45  2  0  0  0
 41 42  2  0  0  0
 42 43  1  0  0  0
 43 44  2  0  0  0
 44 33  1  0  0  0
 44 45  1  0  0  0
 33 34  1  0  0  0
 33 37  1  0  0  0
 34 35  2  0  0  0
 34 36  1  0  0  0
 36  1  1  0  0  0
 36 38  1  0  0  0
  1  2  1  0  0  0
  1 10  2  0  0  0
  2  3  2  0  0  0
  3  4  1  0  0  0
  4 11  1  0  0  0
  4  5  2  0  0  0
 11 12  1  0  0  0
 11 20  2  0  0  0
 12 13  2  0  0  0
 13 14  1  0  0  0
 14 24  1  0  0  0
 14 15  2  0  0  0
 24 25  1  0  0  0
 25 26  1  0  0  0
 26 27  1  0  0  0
 27 28  1  0  0  0
 27 29  1  0  0  0
 27 30  1  0  0  0
 30 31  1  0  0  0
 30 32  1  0  0  0
 15 16  1  0  0  0
 15 20  1  0  0  0
 16 17  1  0  0  0
 16 21  1  0  0  0
 17 18  2  0  0  0
 18 19  1  0  0  0
 18 20  1  0  0  0
 19 22  1  0  0  0
 19 23  1  0  0  0
  5  6  1  0  0  0
  5 10  1  0  0  0
  6  7  2  0  0  0
  7  8  1  0  0  0
  8  9  2  0  0  0
  9 10  1  0  0  0
M  END
> <minimizedAffinity>
-7.86694

$$$$
