CHEMBL468173


 27 30  0  0  0  0  0  0  0  0999 V2000
  -16.0599    0.7499  -15.0287 C   0  0  0  0  0  0  0  0  0  0  0  0
  -15.8663    1.4194  -16.2519 C   0  0  0  0  0  0  0  0  0  0  0  0
  -14.6734    1.2719  -16.9529 C   0  0  0  0  0  0  0  0  0  0  0  0
  -13.6714    0.4518  -16.4505 C   0  0  0  0  0  0  0  0  0  0  0  0
  -13.8945   -0.3018  -15.2924 C   0  0  0  0  0  0  0  0  0  0  0  0
  -15.0992   -0.2161  -14.5822 C   0  0  0  0  0  0  0  0  0  0  0  0
  -17.0528    1.0338  -12.8868 O   0  0  0  0  0  0  0  0  0  0  0  0
  -17.1291    1.2233  -14.0986 C   0  0  0  0  0  0  0  0  0  0  0  0
  -18.1966    2.0675  -14.6092 C   0  0  0  0  0  0  0  0  0  0  0  0
  -18.0785    3.4366  -14.7682 C   0  0  0  0  0  0  0  0  0  0  0  0
  -19.3094    3.9105  -15.1260 N   0  0  0  0  0  0  0  0  0  0  0  0
  -20.2465    2.9663  -14.7736 C   0  0  0  0  0  0  0  0  0  0  0  0
  -21.5920    3.0862  -14.4241 C   0  0  0  0  0  0  0  0  0  0  0  0
  -22.2829    1.9004  -14.1643 C   0  0  0  0  0  0  0  0  0  0  0  0
  -21.6842    0.6582  -14.3761 C   0  0  0  0  0  0  0  0  0  0  0  0
  -20.3275    0.5649  -14.6935 C   0  0  0  0  0  0  0  0  0  0  0  0
  -19.5788    1.7428  -14.7617 C   0  0  0  0  0  0  0  0  0  0  0  0
  -19.5142    4.8509  -15.4321 H   0  0  0  0  0  0  0  0  0  0  0  0
  -15.3754   -1.0293  -13.4916 N   0  0  0  0  0  0  0  0  0  0  0  0
  -15.6959   -0.5104  -12.6771 H   0  0  0  0  0  0  0  0  0  0  0  0
  -15.9997   -2.3344  -13.6277 C   0  0  0  0  0  0  0  0  0  0  0  0
  -15.7669   -3.1912  -12.3921 C   0  0  0  0  0  0  0  0  0  0  0  0
  -15.7610   -4.5861  -12.5053 C   0  0  0  0  0  0  0  0  0  0  0  0
  -15.4733   -5.3474  -11.3760 C   0  0  0  0  0  0  0  0  0  0  0  0
  -15.1967   -4.8263  -10.1673 N   0  0  0  0  0  0  0  0  0  0  0  0
  -15.1930   -3.4790  -10.0795 C   0  0  0  0  0  0  0  0  0  0  0  0
  -15.4607   -2.6376  -11.1467 C   0  0  0  0  0  0  0  0  0  0  0  0
  7  8  2  0  0  0
  8  1  1  0  0  0
  8  9  1  0  0  0
  1  2  1  0  0  0
  1  6  2  0  0  0
  2  3  2  0  0  0
  3  4  1  0  0  0
  4  5  2  0  0  0
  5  6  1  0  0  0
  6 19  1  0  0  0
 19 21  1  0  0  0
 19 20  1  0  0  0
 21 22  1  0  0  0
 22 23  1  0  0  0
 22 27  2  0  0  0
 23 24  2  0  0  0
 24 25  1  0  0  0
 25 26  2  0  0  0
 26 27  1  0  0  0
  9 10  2  0  0  0
  9 17  1  0  0  0
 10 11  1  0  0  0
 11 12  1  0  0  0
 11 18  1  0  0  0
 12 13  1  0  0  0
 12 17  2  0  0  0
 13 14  2  0  0  0
 14 15  1  0  0  0
 15 16  2  0  0  0
 16 17  1  0  0  0
M  END
> <minimizedAffinity>
-8.64319

$$$$
