CHEMBL4217649


 39 44  0  0  0  0  0  0  0  0999 V2000
  -28.5839   -3.1204   -7.9417 C   0  0  0  0  0  0  0  0  0  0  0  0
  -29.3682   -4.1849   -8.2031 N   0  0  0  0  0  0  0  0  0  0  0  0
  -29.8883   -4.5214   -6.9944 N   0  0  0  0  0  0  0  0  0  0  0  0
  -29.4799   -3.6950   -5.9851 C   0  0  0  0  0  0  0  0  0  0  0  0
  -29.8328   -3.7575   -4.6942 N   0  0  0  0  0  0  0  0  0  0  0  0
  -29.2032   -2.8603   -3.9256 C   0  0  0  0  0  0  0  0  0  0  0  0
  -28.2801   -1.9810   -4.3568 N   0  0  0  0  0  0  0  0  0  0  0  0
  -27.9742   -1.9301   -5.6746 C   0  0  0  0  0  0  0  0  0  0  0  0
  -28.5923   -2.8073   -6.5541 C   0  0  0  0  0  0  0  0  0  0  0  0
  -26.2054   -1.3891  -11.0013 C   0  0  0  0  0  0  0  0  0  0  0  0
  -27.3570   -2.0979  -11.3317 C   0  0  0  0  0  0  0  0  0  0  0  0
  -28.1636   -2.6493  -10.3346 C   0  0  0  0  0  0  0  0  0  0  0  0
  -27.8091   -2.4862   -9.0002 C   0  0  0  0  0  0  0  0  0  0  0  0
  -26.6686   -1.7390   -8.7505 C   0  0  0  0  0  0  0  0  0  0  0  0
  -25.8631   -1.2126   -9.7081 N   0  0  0  0  0  0  0  0  0  0  0  0
  -23.2873   -0.6617  -14.0171 N   0  0  0  0  0  0  0  0  0  0  0  0
  -24.5758   -1.3653  -14.2378 C   0  0  0  0  0  0  0  0  0  0  0  0
  -25.7435   -0.8403  -13.3794 C   0  0  0  0  0  0  0  0  0  0  0  0
  -25.3596   -0.9237  -11.9741 N   0  0  0  0  0  0  0  0  0  0  0  0
  -24.1283   -0.2139  -11.6180 C   0  0  0  0  0  0  0  0  0  0  0  0
  -22.9850   -0.6968  -12.5564 C   0  0  0  0  0  0  0  0  0  0  0  0
  -22.0317    1.5006  -14.1418 C   0  0  0  0  0  0  0  0  0  0  0  0
  -23.2942    0.7257  -14.5049 C   0  0  0  0  0  0  0  0  0  0  0  0
  -29.5164   -2.7495   -2.5886 N   0  0  0  0  0  0  0  0  0  0  0  0
  -30.9012   -2.7387   -2.1888 C   0  0  0  0  0  0  0  0  0  0  0  0
  -28.8801   -3.3285   -2.0552 H   0  0  0  0  0  0  0  0  0  0  0  0
  -30.7534   -5.6841   -6.8626 C   0  0  0  0  0  0  0  0  0  0  0  0
  -30.0011   -6.9624   -6.9686 C   0  0  0  0  0  0  0  0  0  0  0  0
  -30.1204   -8.0200   -7.8487 C   0  0  0  0  0  0  0  0  0  0  0  0
  -29.1174   -8.8704   -7.4863 N   0  0  0  0  0  0  0  0  0  0  0  0
  -28.4723   -8.4230   -6.3940 N   0  0  0  0  0  0  0  0  0  0  0  0
  -28.9959   -7.2470   -6.0757 N   0  0  0  0  0  0  0  0  0  0  0  0
  -28.7505  -10.1311   -8.1040 C   0  0  0  0  0  0  0  0  0  0  0  0
  -28.3907   -9.9412   -9.5563 C   0  0  0  0  0  0  0  0  0  0  0  0
  -29.2374  -10.4269  -10.5641 C   0  0  0  0  0  0  0  0  0  0  0  0
  -28.8815  -10.3062  -11.9079 C   0  0  0  0  0  0  0  0  0  0  0  0
  -27.6761   -9.7022  -12.2592 C   0  0  0  0  0  0  0  0  0  0  0  0
  -26.8298   -9.2090  -11.2681 C   0  0  0  0  0  0  0  0  0  0  0  0
  -27.1841   -9.3260   -9.9230 C   0  0  0  0  0  0  0  0  0  0  0  0
 22 23  1  0  0  0
 23 16  1  0  0  0
 16 17  1  0  0  0
 16 21  1  0  0  0
 17 18  1  0  0  0
 18 19  1  0  0  0
 19 10  1  0  0  0
 19 20  1  0  0  0
 10 11  1  0  0  0
 10 15  2  0  0  0
 11 12  2  0  0  0
 12 13  1  0  0  0
 13  1  1  0  0  0
 13 14  2  0  0  0
  1  2  2  0  0  0
  1  9  1  0  0  0
  2  3  1  0  0  0
  3 27  1  0  0  0
  3  4  1  0  0  0
 27 28  1  0  0  0
 28 29  2  0  0  0
 28 32  1  0  0  0
 29 30  1  0  0  0
 30 33  1  0  0  0
 30 31  1  0  0  0
 33 34  1  0  0  0
 34 35  1  0  0  0
 34 39  2  0  0  0
 35 36  2  0  0  0
 36 37  1  0  0  0
 37 38  2  0  0  0
 38 39  1  0  0  0
 31 32  2  0  0  0
  4  5  1  0  0  0
  4  9  2  0  0  0
  5  6  2  0  0  0
  6 24  1  0  0  0
  6  7  1  0  0  0
 24 25  1  0  0  0
 24 26  1  0  0  0
  7  8  2  0  0  0
  8  9  1  0  0  0
 14 15  1  0  0  0
 20 21  1  0  0  0
M  END
> <minimizedAffinity>
-7.24725

$$$$
