CHEMBL1255093


 27 30  0  0  0  0  0  0  0  0999 V2000
  -29.5967   -7.9645   -7.0750 C   0  0  0  0  0  0  0  0  0  0  0  0
  -28.8304   -7.1402   -7.8887 C   0  0  0  0  0  0  0  0  0  0  0  0
  -28.7520   -5.7754   -7.6370 C   0  0  0  0  0  0  0  0  0  0  0  0
  -29.4728   -5.1825   -6.6003 C   0  0  0  0  0  0  0  0  0  0  0  0
  -30.2883   -6.0027   -5.8090 C   0  0  0  0  0  0  0  0  0  0  0  0
  -30.3513   -7.3882   -6.0494 C   0  0  0  0  0  0  0  0  0  0  0  0
  -29.4084   -3.7931   -6.3302 N   0  0  0  0  0  0  0  0  0  0  0  0
  -28.6372   -3.2133   -5.3319 C   0  0  0  0  0  0  0  0  0  0  0  0
  -27.8994   -3.8043   -4.5464 O   0  0  0  0  0  0  0  0  0  0  0  0
  -29.9426   -3.1909   -6.9385 H   0  0  0  0  0  0  0  0  0  0  0  0
  -28.6754   -1.7395   -5.1827 C   0  0  0  0  0  0  0  0  0  0  0  0
  -27.5593   -0.9709   -4.8440 C   0  0  0  0  0  0  0  0  0  0  0  0
  -27.6664    0.4228   -4.8260 C   0  0  0  0  0  0  0  0  0  0  0  0
  -28.8763    1.0456   -5.1449 C   0  0  0  0  0  0  0  0  0  0  0  0
  -29.9891    0.2826   -5.4856 C   0  0  0  0  0  0  0  0  0  0  0  0
  -29.8867   -1.1029   -5.5050 C   0  0  0  0  0  0  0  0  0  0  0  0
  -29.7087   -9.3231   -7.2715 O   0  0  0  0  0  0  0  0  0  0  0  0
  -27.1021  -10.1536   -5.8866 C   0  0  0  0  0  0  0  0  0  0  0  0
  -26.8851  -10.5401   -7.2629 N   0  0  0  0  0  0  0  0  0  0  0  0
  -25.7283  -11.1077   -7.7369 C   0  0  0  0  0  0  0  0  0  0  0  0
  -25.8925  -11.3500   -9.0825 C   0  0  0  0  0  0  0  0  0  0  0  0
  -27.1909  -10.9148   -9.4324 C   0  0  0  0  0  0  0  0  0  0  0  0
  -27.7986  -10.9561  -10.6361 N   0  0  0  0  0  0  0  0  0  0  0  0
  -29.0270  -10.4274  -10.6284 C   0  0  0  0  0  0  0  0  0  0  0  0
  -29.6784   -9.8797   -9.5899 N   0  0  0  0  0  0  0  0  0  0  0  0
  -29.0754   -9.8845   -8.3775 C   0  0  0  0  0  0  0  0  0  0  0  0
  -27.7904  -10.3987   -8.2888 C   0  0  0  0  0  0  0  0  0  0  0  0
 18 19  1  0  0  0
 19 20  1  0  0  0
 19 27  1  0  0  0
 20 21  2  0  0  0
 21 22  1  0  0  0
 22 23  1  0  0  0
 22 27  2  0  0  0
 23 24  2  0  0  0
 24 25  1  0  0  0
 25 26  2  0  0  0
 26 17  1  0  0  0
 26 27  1  0  0  0
 17  1  1  0  0  0
  1  2  1  0  0  0
  1  6  2  0  0  0
  2  3  2  0  0  0
  3  4  1  0  0  0
  4  7  1  0  0  0
  4  5  2  0  0  0
  7  8  1  0  0  0
  7 10  1  0  0  0
  8  9  2  0  0  0
  8 11  1  0  0  0
 11 12  1  0  0  0
 11 16  2  0  0  0
 12 13  2  0  0  0
 13 14  1  0  0  0
 14 15  2  0  0  0
 15 16  1  0  0  0
  5  6  1  0  0  0
M  END
> <minimizedAffinity>
-8.25706

$$$$
