CHEMBL1085293


 36 42  0  0  0  0  0  0  0  0999 V2000
  -30.9734    2.0913   -4.7577 C   0  0  0  0  0  0  0  0  0  0  0  0
  -30.1001    1.1042   -5.3611 N   0  0  0  0  0  0  0  0  0  0  0  0
  -30.3931   -0.0248   -6.1232 C   0  0  0  0  0  0  0  0  0  0  0  0
  -29.1847   -0.7183   -6.3378 C   0  0  0  0  0  0  0  0  0  0  0  0
  -28.4422   -0.1284   -5.2296 C   0  0  0  0  0  0  0  0  0  0  0  0
  -28.8611    1.0783   -4.8682 N   0  0  0  0  0  0  0  0  0  0  0  0
  -27.6686   -0.9464   -4.2450 C   0  0  0  0  0  0  0  0  0  0  0  0
  -27.2770   -2.2306   -4.9158 C   0  0  0  0  0  0  0  0  0  0  0  0
  -28.6123   -2.8123   -5.4200 C   0  0  0  0  0  0  0  0  0  0  0  0
  -29.0610   -2.1815   -6.6011 C   0  0  0  0  0  0  0  0  0  0  0  0
  -28.5655   -2.9847   -7.6793 C   0  0  0  0  0  0  0  0  0  0  0  0
  -28.3527   -4.4358   -7.5458 C   0  0  0  0  0  0  0  0  0  0  0  0
  -28.7482   -5.0163   -6.3277 C   0  0  0  0  0  0  0  0  0  0  0  0
  -28.7476   -6.3400   -5.8583 C   0  0  0  0  0  0  0  0  0  0  0  0
  -28.3826   -7.6380   -6.2768 C   0  0  0  0  0  0  0  0  0  0  0  0
  -28.5445   -8.7389   -5.3906 C   0  0  0  0  0  0  0  0  0  0  0  0
  -29.2783   -8.5580   -4.2118 C   0  0  0  0  0  0  0  0  0  0  0  0
  -29.6534   -7.2998   -3.7705 C   0  0  0  0  0  0  0  0  0  0  0  0
  -29.2879   -6.2077   -4.5555 C   0  0  0  0  0  0  0  0  0  0  0  0
  -29.3447   -4.8719   -4.2496 N   0  0  0  0  0  0  0  0  0  0  0  0
  -28.9174   -4.1426   -5.3123 C   0  0  0  0  0  0  0  0  0  0  0  0
  -27.5693   -4.9987   -8.6474 C   0  0  0  0  0  0  0  0  0  0  0  0
  -27.3391   -3.7749   -9.3961 N   0  0  0  0  0  0  0  0  0  0  0  0
  -27.9000   -2.5901   -8.8976 C   0  0  0  0  0  0  0  0  0  0  0  0
  -27.7082   -1.5087   -9.4319 O   0  0  0  0  0  0  0  0  0  0  0  0
  -26.6308   -3.7085  -10.1184 H   0  0  0  0  0  0  0  0  0  0  0  0
  -27.9270  -10.1038   -5.6984 C   0  0  0  0  0  0  0  0  0  0  0  0
  -28.0979  -11.1926   -4.6139 C   0  0  0  0  0  0  0  0  0  0  0  0
  -27.2723  -10.8875   -3.3659 C   0  0  0  0  0  0  0  0  0  0  0  0
  -25.8175  -10.6494   -3.7399 C   0  0  0  0  0  0  0  0  0  0  0  0
  -25.6872   -9.6748   -4.9038 C   0  0  0  0  0  0  0  0  0  0  0  0
  -26.5263  -10.0058   -6.0140 O   0  0  0  0  0  0  0  0  0  0  0  0
  -29.9197   -4.2419   -3.0646 C   0  0  0  0  0  0  0  0  0  0  0  0
  -31.4334   -4.0927   -3.1911 C   0  0  0  0  0  0  0  0  0  0  0  0
  -32.1106   -5.1539   -2.5206 O   0  0  0  0  0  0  0  0  0  0  0  0
  -31.9102   -5.9761   -3.0067 H   0  0  0  0  0  0  0  0  0  0  0  0
  1  2  1  0  0  0
  2  3  1  0  0  0
  2  6  1  0  0  0
  3  4  2  0  0  0
  4  5  1  0  0  0
  4 10  1  0  0  0
  5  6  2  0  0  0
  5  7  1  0  0  0
  7  8  1  0  0  0
  8  9  1  0  0  0
  9 10  1  0  0  0
  9 21  2  0  0  0
 10 11  2  0  0  0
 11 12  1  0  0  0
 11 24  1  0  0  0
 12 13  2  0  0  0
 12 22  1  0  0  0
 13 14  1  0  0  0
 13 21  1  0  0  0
 14 15  1  0  0  0
 14 19  2  0  0  0
 15 16  2  0  0  0
 16 27  1  0  0  0
 16 17  1  0  0  0
 27 28  1  0  0  0
 27 32  1  0  0  0
 28 29  1  0  0  0
 29 30  1  0  0  0
 30 31  1  0  0  0
 31 32  1  0  0  0
 17 18  2  0  0  0
 18 19  1  0  0  0
 19 20  1  0  0  0
 20 33  1  0  0  0
 20 21  1  0  0  0
 33 34  1  0  0  0
 34 35  1  0  0  0
 35 36  1  0  0  0
 22 23  1  0  0  0
 23 24  1  0  0  0
 23 26  1  0  0  0
 24 25  2  0  0  0
M  END
> <minimizedAffinity>
-6.59089

$$$$
