CHEMBL4471464


 35 38  0  0  0  0  0  0  0  0999 V2000
  -17.2475    2.3978  -15.6682 C   0  0  0  0  0  0  0  0  0  0  0  0
  -16.5029    3.4025  -16.3040 C   0  0  0  0  0  0  0  0  0  0  0  0
  -15.1394    3.2098  -16.5528 C   0  0  0  0  0  0  0  0  0  0  0  0
  -14.5079    2.0322  -16.1508 C   0  0  0  0  0  0  0  0  0  0  0  0
  -15.2431    1.0358  -15.5119 C   0  0  0  0  0  0  0  0  0  0  0  0
  -16.6071    1.2084  -15.2825 C   0  0  0  0  0  0  0  0  0  0  0  0
  -19.3371    1.4599  -14.7999 N   0  0  0  0  0  0  0  0  0  0  0  0
  -18.6870    2.5727  -15.3076 C   0  0  0  0  0  0  0  0  0  0  0  0
  -19.1870    3.6802  -15.4795 O   0  0  0  0  0  0  0  0  0  0  0  0
  -18.8162    0.6115  -14.6278 H   0  0  0  0  0  0  0  0  0  0  0  0
  -22.7119    0.8207  -13.7928 N   0  0  0  0  0  0  0  0  0  0  0  0
  -21.4322    0.3648  -14.0232 C   0  0  0  0  0  0  0  0  0  0  0  0
  -20.6688    1.4385  -14.4106 C   0  0  0  0  0  0  0  0  0  0  0  0
  -21.5551    2.5284  -14.3279 C   0  0  0  0  0  0  0  0  0  0  0  0
  -22.7859    2.1702  -13.9608 N   0  0  0  0  0  0  0  0  0  0  0  0
  -26.1139   -1.4916  -12.7662 C   0  0  0  0  0  0  0  0  0  0  0  0
  -25.5369   -0.6431  -11.8215 C   0  0  0  0  0  0  0  0  0  0  0  0
  -24.4107    0.1247  -12.1507 C   0  0  0  0  0  0  0  0  0  0  0  0
  -23.8620    0.0600  -13.4387 C   0  0  0  0  0  0  0  0  0  0  0  0
  -24.4537   -0.7809  -14.3905 C   0  0  0  0  0  0  0  0  0  0  0  0
  -25.5694   -1.5512  -14.0502 C   0  0  0  0  0  0  0  0  0  0  0  0
  -28.2036   -2.2944  -13.5657 C   0  0  0  0  0  0  0  0  0  0  0  0
  -27.1940   -2.3053  -12.5646 O   0  0  0  0  0  0  0  0  0  0  0  0
  -14.6030   -0.1518  -15.0747 N   0  0  0  0  0  0  0  0  0  0  0  0
  -14.8170   -1.0267  -15.5492 H   0  0  0  0  0  0  0  0  0  0  0  0
  -14.1741   -0.3398  -13.4581 S   0  0  0  0  0  0  0  0  0  0  0  0
  -12.7465   -0.5652  -13.4360 O   0  0  0  0  0  0  0  0  0  0  0  0
  -14.7885    0.7091  -12.6712 O   0  0  0  0  0  0  0  0  0  0  0  0
  -14.9510   -1.8804  -13.0035 C   0  0  0  0  0  0  0  0  0  0  0  0
  -15.4942   -2.0382  -11.7197 C   0  0  0  0  0  0  0  0  0  0  0  0
  -16.1673   -3.2196  -11.3969 C   0  0  0  0  0  0  0  0  0  0  0  0
  -16.3039   -4.2251  -12.3552 C   0  0  0  0  0  0  0  0  0  0  0  0
  -17.1500   -5.6703  -11.9645 Cl  0  0  0  0  0  0  0  0  0  0  0  0
  -15.7723   -4.0620  -13.6356 C   0  0  0  0  0  0  0  0  0  0  0  0
  -15.0990   -2.8845  -13.9644 C   0  0  0  0  0  0  0  0  0  0  0  0
 22 23  1  0  0  0
 23 16  1  0  0  0
 16 17  1  0  0  0
 16 21  2  0  0  0
 17 18  2  0  0  0
 18 19  1  0  0  0
 19 11  1  0  0  0
 19 20  2  0  0  0
 11 12  1  0  0  0
 11 15  1  0  0  0
 12 13  2  0  0  0
 13  7  1  0  0  0
 13 14  1  0  0  0
  7  8  1  0  0  0
  7 10  1  0  0  0
  8  9  2  0  0  0
  8  1  1  0  0  0
  1  2  1  0  0  0
  1  6  2  0  0  0
  2  3  2  0  0  0
  3  4  1  0  0  0
  4  5  2  0  0  0
  5 24  1  0  0  0
  5  6  1  0  0  0
 24 26  1  0  0  0
 24 25  1  0  0  0
 26 27  2  0  0  0
 26 28  2  0  0  0
 26 29  1  0  0  0
 29 30  1  0  0  0
 29 35  2  0  0  0
 30 31  2  0  0  0
 31 32  1  0  0  0
 32 33  1  0  0  0
 32 34  2  0  0  0
 34 35  1  0  0  0
 14 15  2  0  0  0
 20 21  1  0  0  0
M  END
> <minimizedAffinity>
-10.71858

$$$$
