CHEMBL3922607


 33 36  0  0  0  0  0  0  0  0999 V2000
  -29.2770   -3.7488   -4.9989 N   0  0  0  0  0  0  0  0  0  0  0  0
  -29.0121   -4.9878   -5.6966 C   0  0  0  0  0  0  0  0  0  0  0  0
  -28.8640   -4.8498   -7.0455 C   0  0  0  0  0  0  0  0  0  0  0  0
  -28.5895   -5.8988   -7.8185 C   0  0  0  0  0  0  0  0  0  0  0  0
  -28.6634   -7.1696   -7.3505 C   0  0  0  0  0  0  0  0  0  0  0  0
  -29.3639   -7.7832   -8.1880 N   0  0  0  0  0  0  0  0  0  0  0  0
  -28.5407   -8.4566   -8.9433 C   0  0  0  0  0  0  0  0  0  0  0  0
  -28.0177   -9.6412   -8.6168 C   0  0  0  0  0  0  0  0  0  0  0  0
  -28.0763   -9.2504   -7.1091 N   0  0  0  0  0  0  0  0  0  0  0  0
  -28.4426   -7.7846   -6.2501 C   0  0  0  0  0  0  0  0  0  0  0  0
  -28.8572   -6.4319   -5.2415 C   0  0  0  0  0  0  0  0  0  0  0  0
  -28.0815   -9.9080  -10.3711 C   0  0  0  0  0  0  0  0  0  0  0  0
  -29.1648  -10.4869  -11.2961 C   0  0  0  0  0  0  0  0  0  0  0  0
  -28.9820  -10.3566  -12.6224 N   0  0  0  0  0  0  0  0  0  0  0  0
  -27.7934   -9.7521  -12.7388 N   0  0  0  0  0  0  0  0  0  0  0  0
  -27.3185   -9.3737  -14.0890 C   0  0  0  0  0  0  0  0  0  0  0  0
  -27.2183   -9.5231  -11.4412 C   0  0  0  0  0  0  0  0  0  0  0  0
  -27.8950   -1.0758   -7.1148 C   0  0  0  0  0  0  0  0  0  0  0  0
  -28.7002   -0.0028   -6.7606 C   0  0  0  0  0  0  0  0  0  0  0  0
  -29.5815   -0.0817   -5.7049 C   0  0  0  0  0  0  0  0  0  0  0  0
  -29.6778   -1.2831   -5.0258 C   0  0  0  0  0  0  0  0  0  0  0  0
  -28.9742   -2.4375   -5.4498 C   0  0  0  0  0  0  0  0  0  0  0  0
  -27.9727   -2.2608   -6.4026 C   0  0  0  0  0  0  0  0  0  0  0  0
  -27.4431   -1.9497   -9.2325 C   0  0  0  0  0  0  0  0  0  0  0  0
  -27.0576   -1.0422   -8.1959 O   0  0  0  0  0  0  0  0  0  0  0  0
  -30.4335    0.9204   -5.3280 O   0  0  0  0  0  0  0  0  0  0  0  0
  -30.9329    1.7121   -6.4062 C   0  0  0  0  0  0  0  0  0  0  0  0
  -29.7464   -3.8333   -3.5197 C   0  0  0  0  0  0  0  0  0  0  0  0
  -29.1157   -2.7494   -2.6340 C   0  0  0  0  0  0  0  0  0  0  0  0
  -31.2834   -3.8487   -3.3550 C   0  0  0  0  0  0  0  0  0  0  0  0
  -31.8210   -5.0761   -2.7718 N   0  0  0  0  0  0  0  0  0  0  0  0
  -31.5833   -5.8498   -3.3962 H   0  0  0  0  0  0  0  0  0  0  0  0
  -32.8373   -5.0107   -2.7534 H   0  0  0  0  0  0  0  0  0  0  0  0
 24 25  1  0  0  0
 25 18  1  0  0  0
 18 19  1  0  0  0
 18 23  2  0  0  0
 19 20  2  0  0  0
 20 26  1  0  0  0
 20 21  1  0  0  0
 26 27  1  0  0  0
 21 22  2  0  0  0
 22  1  1  0  0  0
 22 23  1  0  0  0
  1  2  1  0  0  0
  1 28  1  0  0  0
  2  3  1  0  0  0
  2 11  2  0  0  0
  3  4  2  0  0  0
  4  5  1  0  0  0
  5  6  1  0  0  0
  5 10  2  0  0  0
  6  7  2  0  0  0
  7  8  1  0  0  0
  8 12  1  0  0  0
  8  9  2  0  0  0
 12 13  1  0  0  0
 12 17  2  0  0  0
 13 14  2  0  0  0
 14 15  1  0  0  0
 15 16  1  0  0  0
 15 17  1  0  0  0
  9 10  1  0  0  0
 10 11  1  0  0  0
 28 29  1  0  0  0
 28 30  1  0  0  0
 30 31  1  0  0  0
 31 32  1  0  0  0
 31 33  1  0  0  0
M  END
> <minimizedAffinity>
-8.96429

$$$$
