CHEMBL3220328


 44 47  0  0  0  0  0  0  0  0999 V2000
  -29.0562   -4.6546   -6.9981 C   0  0  0  0  0  0  0  0  0  0  0  0
  -28.8927   -3.8196   -8.1173 C   0  0  0  0  0  0  0  0  0  0  0  0
  -28.4794   -2.4905   -8.1003 C   0  0  0  0  0  0  0  0  0  0  0  0
  -28.1899   -1.9367   -6.8642 C   0  0  0  0  0  0  0  0  0  0  0  0
  -28.3366   -2.7066   -5.6959 C   0  0  0  0  0  0  0  0  0  0  0  0
  -28.7647   -4.0636   -5.7471 C   0  0  0  0  0  0  0  0  0  0  0  0
  -29.2211   -8.2510   -8.3675 C   0  0  0  0  0  0  0  0  0  0  0  0
  -28.7681   -6.9747   -8.0069 C   0  0  0  0  0  0  0  0  0  0  0  0
  -29.5479   -6.0519   -7.2559 C   0  0  0  0  0  0  0  0  0  0  0  0
  -30.8221   -6.4859   -6.8846 C   0  0  0  0  0  0  0  0  0  0  0  0
  -31.2598   -7.7895   -7.1642 C   0  0  0  0  0  0  0  0  0  0  0  0
  -30.4481   -8.6911   -7.8686 C   0  0  0  0  0  0  0  0  0  0  0  0
  -30.9082  -10.1084   -7.9970 C   0  0  0  0  0  0  0  0  0  0  0  0
  -30.1962  -11.1917   -7.1904 C   0  0  0  0  0  0  0  0  0  0  0  0
  -31.9369  -10.3769   -8.7483 N   0  0  0  0  0  0  0  0  0  0  0  0
  -32.2512  -11.7440   -8.7084 O   0  0  0  0  0  0  0  0  0  0  0  0
  -33.0190  -11.7963   -9.3075 H   0  0  0  0  0  0  0  0  0  0  0  0
  -27.2561   -9.4750   -8.9719 C   0  0  0  0  0  0  0  0  0  0  0  0
  -28.5782   -9.0500   -9.2782 O   0  0  0  0  0  0  0  0  0  0  0  0
  -28.3450   -1.7222   -9.2989 N   0  0  0  0  0  0  0  0  0  0  0  0
  -27.2322   -1.7993  -10.1186 C   0  0  0  0  0  0  0  0  0  0  0  0
  -26.2900   -2.5400   -9.8983 O   0  0  0  0  0  0  0  0  0  0  0  0
  -27.2763   -0.9682  -11.2280 N   0  0  0  0  0  0  0  0  0  0  0  0
  -29.1657   -1.2463   -9.6406 H   0  0  0  0  0  0  0  0  0  0  0  0
  -27.8424   -0.1403  -11.1624 H   0  0  0  0  0  0  0  0  0  0  0  0
  -26.2626   -1.0141  -12.2398 C   0  0  0  0  0  0  0  0  0  0  0  0
  -24.9948   -0.4451  -12.0175 C   0  0  0  0  0  0  0  0  0  0  0  0
  -24.0020   -0.3879  -12.9941 C   0  0  0  0  0  0  0  0  0  0  0  0
  -24.2724   -0.9338  -14.2377 C   0  0  0  0  0  0  0  0  0  0  0  0
  -25.4998   -1.5703  -14.4700 C   0  0  0  0  0  0  0  0  0  0  0  0
  -26.5078   -1.6163  -13.4824 C   0  0  0  0  0  0  0  0  0  0  0  0
  -27.8227   -2.2599  -13.8216 C   0  0  0  0  0  0  0  0  0  0  0  0
  -22.7602    0.1732  -12.8137 O   0  0  0  0  0  0  0  0  0  0  0  0
  -21.9766    0.3015  -14.0144 C   0  0  0  0  0  0  0  0  0  0  0  0
  -21.4075    1.7237  -14.1398 C   0  0  0  0  0  0  0  0  0  0  0  0
  -20.4300    1.8579  -15.2387 N   0  0  0  0  0  0  0  0  0  0  0  0
  -19.3063    0.9130  -15.1699 C   0  0  0  0  0  0  0  0  0  0  0  0
  -18.2417    1.6122  -14.3513 C   0  0  0  0  0  0  0  0  0  0  0  0
  -18.3877    3.0648  -14.7567 C   0  0  0  0  0  0  0  0  0  0  0  0
  -19.8201    3.1982  -15.2634 C   0  0  0  0  0  0  0  0  0  0  0  0
  -27.9445   -2.1761   -4.4884 O   0  0  0  0  0  0  0  0  0  0  0  0
  -27.5946   -0.7967   -4.5190 C   0  0  0  0  0  0  0  0  0  0  0  0
  -28.8619   -4.8880   -4.6483 O   0  0  0  0  0  0  0  0  0  0  0  0
  -27.6983   -5.6112   -4.2635 C   0  0  0  0  0  0  0  0  0  0  0  0
 18 19  1  0  0  0
 19  7  1  0  0  0
  7  8  1  0  0  0
  7 12  2  0  0  0
  8  9  2  0  0  0
  9  1  1  0  0  0
  9 10  1  0  0  0
  1  2  1  0  0  0
  1  6  2  0  0  0
  2  3  2  0  0  0
  3 20  1  0  0  0
  3  4  1  0  0  0
 20 21  1  0  0  0
 20 24  1  0  0  0
 21 22  2  0  0  0
 21 23  1  0  0  0
 23 26  1  0  0  0
 23 25  1  0  0  0
 26 27  1  0  0  0
 26 31  2  0  0  0
 27 28  2  0  0  0
 28 33  1  0  0  0
 28 29  1  0  0  0
 33 34  1  0  0  0
 34 35  1  0  0  0
 35 36  1  0  0  0
 36 37  1  0  0  0
 36 40  1  0  0  0
 37 38  1  0  0  0
 38 39  1  0  0  0
 39 40  1  0  0  0
 29 30  2  0  0  0
 30 31  1  0  0  0
 31 32  1  0  0  0
  4  5  2  0  0  0
  5 41  1  0  0  0
  5  6  1  0  0  0
 41 42  1  0  0  0
  6 43  1  0  0  0
 43 44  1  0  0  0
 10 11  2  0  0  0
 11 12  1  0  0  0
 12 13  1  0  0  0
 13 14  1  0  0  0
 13 15  2  0  0  0
 15 16  1  0  0  0
 16 17  1  0  0  0
M  END
> <minimizedAffinity>
-10.83060

$$$$
