CHEMBL3671488


 38 40  0  0  0  0  0  0  0  0999 V2000
  -13.6941   -2.8868  -13.6582 C   0  0  0  0  0  0  0  0  0  0  0  0
  -14.1014   -1.8249  -14.4617 C   0  0  0  0  0  0  0  0  0  0  0  0
  -13.3846   -0.6113  -14.4483 C   0  0  0  0  0  0  0  0  0  0  0  0
  -13.7693    0.5397  -15.1550 C   0  0  0  0  0  0  0  0  0  0  0  0
  -13.0417    1.6687  -15.1286 N   0  0  0  0  0  0  0  0  0  0  0  0
  -11.9504    1.6576  -14.3572 C   0  0  0  0  0  0  0  0  0  0  0  0
  -11.5048    0.6275  -13.6278 N   0  0  0  0  0  0  0  0  0  0  0  0
  -12.2167   -0.5021  -13.6839 C   0  0  0  0  0  0  0  0  0  0  0  0
  -11.7849   -1.6027  -12.9511 C   0  0  0  0  0  0  0  0  0  0  0  0
  -12.4921   -2.8116  -12.9405 C   0  0  0  0  0  0  0  0  0  0  0  0
  -15.7092   -3.7889  -12.6201 C   0  0  0  0  0  0  0  0  0  0  0  0
  -16.6423   -4.5856  -12.6821 O   0  0  0  0  0  0  0  0  0  0  0  0
  -14.6110   -3.9338  -13.4405 N   0  0  0  0  0  0  0  0  0  0  0  0
  -14.8821   -4.4802  -14.2498 H   0  0  0  0  0  0  0  0  0  0  0  0
  -15.7028   -2.7790  -10.4037 C   0  0  0  0  0  0  0  0  0  0  0  0
  -15.7413   -2.5987  -11.7325 C   0  0  0  0  0  0  0  0  0  0  0  0
  -14.9881    0.5379  -15.8699 N   0  0  0  0  0  0  0  0  0  0  0  0
  -15.1702   -0.3743  -16.2800 H   0  0  0  0  0  0  0  0  0  0  0  0
  -16.1742    1.2381  -15.5653 C   0  0  0  0  0  0  0  0  0  0  0  0
  -16.4565    2.4897  -16.1244 C   0  0  0  0  0  0  0  0  0  0  0  0
  -17.7296    3.0553  -16.0047 C   0  0  0  0  0  0  0  0  0  0  0  0
  -18.7302    2.3736  -15.3140 C   0  0  0  0  0  0  0  0  0  0  0  0
  -20.4832    3.0786  -15.2731 Br  0  0  0  0  0  0  0  0  0  0  0  0
  -18.4589    1.1572  -14.6972 C   0  0  0  0  0  0  0  0  0  0  0  0
  -17.1901    0.6013  -14.8350 C   0  0  0  0  0  0  0  0  0  0  0  0
  -16.9444   -0.5955  -14.2766 F   0  0  0  0  0  0  0  0  0  0  0  0
  -11.9210   -3.8090  -12.1860 O   0  0  0  0  0  0  0  0  0  0  0  0
  -11.8771   -3.5489  -10.7818 C   0  0  0  0  0  0  0  0  0  0  0  0
  -10.9825   -4.5466  -10.0507 C   0  0  0  0  0  0  0  0  0  0  0  0
  -11.8379   -5.7486   -9.6528 C   0  0  0  0  0  0  0  0  0  0  0  0
  -12.3065   -6.5222  -10.7778 N   0  0  0  0  0  0  0  0  0  0  0  0
  -13.6629   -6.6762  -11.0562 C   0  0  0  0  0  0  0  0  0  0  0  0
  -14.5287   -6.0913  -10.4032 O   0  0  0  0  0  0  0  0  0  0  0  0
  -11.6412   -7.0790  -11.3076 H   0  0  0  0  0  0  0  0  0  0  0  0
  -13.9738   -7.6438  -12.2205 C   0  0  0  0  0  0  0  0  0  0  0  0
  -13.0574   -7.5281  -13.2290 F   0  0  0  0  0  0  0  0  0  0  0  0
  -13.9465   -8.9489  -11.8351 F   0  0  0  0  0  0  0  0  0  0  0  0
  -15.1911   -7.4206  -12.7824 F   0  0  0  0  0  0  0  0  0  0  0  0
 15 16  2  0  0  0
 16 11  1  0  0  0
 11 12  2  0  0  0
 11 13  1  0  0  0
 13  1  1  0  0  0
 13 14  1  0  0  0
  1  2  1  0  0  0
  1 10  2  0  0  0
  2  3  2  0  0  0
  3  4  1  0  0  0
  3  8  1  0  0  0
  4 17  1  0  0  0
  4  5  2  0  0  0
 17 19  1  0  0  0
 17 18  1  0  0  0
 19 20  1  0  0  0
 19 25  2  0  0  0
 20 21  2  0  0  0
 21 22  1  0  0  0
 22 23  1  0  0  0
 22 24  2  0  0  0
 24 25  1  0  0  0
 25 26  1  0  0  0
  5  6  1  0  0  0
  6  7  2  0  0  0
  7  8  1  0  0  0
  8  9  2  0  0  0
  9 10  1  0  0  0
 10 27  1  0  0  0
 27 28  1  0  0  0
 28 29  1  0  0  0
 29 30  1  0  0  0
 30 31  1  0  0  0
 31 32  1  0  0  0
 31 34  1  0  0  0
 32 33  2  0  0  0
 32 35  1  0  0  0
 35 36  1  0  0  0
 35 37  1  0  0  0
 35 38  1  0  0  0
M  END
> <minimizedAffinity>
-7.79999

$$$$
