CHEMBL598727


 22 24  0  0  0  0  0  0  0  0999 V2000
  -27.6700   -4.9316   -4.1690 C   0  0  0  0  0  0  0  0  0  0  0  0
  -28.5285   -4.6837   -5.4164 C   0  0  0  0  0  0  0  0  0  0  0  0
  -28.6665   -3.1643   -5.5895 C   0  0  0  0  0  0  0  0  0  0  0  0
  -28.9963   -2.2820   -4.5338 C   0  0  0  0  0  0  0  0  0  0  0  0
  -29.3328   -2.7926   -2.9140 Cl  0  0  0  0  0  0  0  0  0  0  0  0
  -29.0143   -0.8903   -4.7261 C   0  0  0  0  0  0  0  0  0  0  0  0
  -28.6703   -0.3384   -5.9536 C   0  0  0  0  0  0  0  0  0  0  0  0
  -28.3249   -1.1814   -6.9969 C   0  0  0  0  0  0  0  0  0  0  0  0
  -27.9579   -0.6292   -8.1633 F   0  0  0  0  0  0  0  0  0  0  0  0
  -28.3304   -2.5733   -6.8344 C   0  0  0  0  0  0  0  0  0  0  0  0
  -27.8574   -3.5222   -8.2091 Cl  0  0  0  0  0  0  0  0  0  0  0  0
  -29.8196   -5.3059   -5.3266 O   0  0  0  0  0  0  0  0  0  0  0  0
  -30.1102   -6.3728   -6.1286 C   0  0  0  0  0  0  0  0  0  0  0  0
  -31.3254   -7.0414   -6.1635 C   0  0  0  0  0  0  0  0  0  0  0  0
  -31.4871   -8.1429   -7.0186 C   0  0  0  0  0  0  0  0  0  0  0  0
  -30.4747   -8.5802   -7.8575 C   0  0  0  0  0  0  0  0  0  0  0  0
  -30.7046   -9.6258   -8.6764 N   0  0  0  0  0  0  0  0  0  0  0  0
  -29.7134  -10.0018   -9.5137 C   0  0  0  0  0  0  0  0  0  0  0  0
  -28.4786   -9.3863   -9.5742 C   0  0  0  0  0  0  0  0  0  0  0  0
  -28.2380   -8.3242   -8.7082 C   0  0  0  0  0  0  0  0  0  0  0  0
  -29.2436   -7.9018   -7.8234 C   0  0  0  0  0  0  0  0  0  0  0  0
  -29.0620   -6.8200   -6.9375 C   0  0  0  0  0  0  0  0  0  0  0  0
  1  2  1  0  0  0
  2 12  1  0  0  0
  2  3  1  0  0  0
 12 13  1  0  0  0
 13 14  1  0  0  0
 13 22  2  0  0  0
 14 15  2  0  0  0
 15 16  1  0  0  0
 16 17  1  0  0  0
 16 21  2  0  0  0
 17 18  2  0  0  0
 18 19  1  0  0  0
 19 20  2  0  0  0
 20 21  1  0  0  0
 21 22  1  0  0  0
  3  4  1  0  0  0
  3 10  2  0  0  0
  4  5  1  0  0  0
  4  6  2  0  0  0
  6  7  1  0  0  0
  7  8  2  0  0  0
  8  9  1  0  0  0
  8 10  1  0  0  0
 10 11  1  0  0  0
M  END
> <minimizedAffinity>
-7.79841

$$$$
