CHEMBL4641667


 44 48  0  0  0  0  0  0  0  0999 V2000
  -15.5847   -2.2142  -11.8652 N   0  0  0  0  0  0  0  0  0  0  0  0
  -16.4301   -2.7638  -11.9195 H   0  0  0  0  0  0  0  0  0  0  0  0
  -12.9659   -4.4868  -11.2171 C   0  0  0  0  0  0  0  0  0  0  0  0
  -12.9395   -4.5786   -9.8920 N   0  0  0  0  0  0  0  0  0  0  0  0
  -13.8400   -3.8176   -9.2823 C   0  0  0  0  0  0  0  0  0  0  0  0
  -14.7070   -3.0000   -9.8723 N   0  0  0  0  0  0  0  0  0  0  0  0
  -14.6103   -2.9562  -11.1978 C   0  0  0  0  0  0  0  0  0  0  0  0
  -13.7167   -3.6390  -11.8986 N   0  0  0  0  0  0  0  0  0  0  0  0
  -12.2307   -5.3587  -12.0144 N   0  0  0  0  0  0  0  0  0  0  0  0
  -11.7554   -4.8001  -12.7129 H   0  0  0  0  0  0  0  0  0  0  0  0
  -13.2920   -7.1189  -13.4736 C   0  0  0  0  0  0  0  0  0  0  0  0
  -13.5979   -8.4920  -13.5995 C   0  0  0  0  0  0  0  0  0  0  0  0
  -13.0349   -9.4370  -12.7459 C   0  0  0  0  0  0  0  0  0  0  0  0
  -12.1554   -9.0222  -11.7586 C   0  0  0  0  0  0  0  0  0  0  0  0
  -11.9050   -7.6605  -11.5867 C   0  0  0  0  0  0  0  0  0  0  0  0
  -12.5126   -6.6745  -12.3955 C   0  0  0  0  0  0  0  0  0  0  0  0
  -13.8829   -6.1054  -14.8197 S   0  0  0  0  0  0  0  0  0  0  0  0
  -14.5970   -6.8601  -15.8221 O   0  0  0  0  0  0  0  0  0  0  0  0
  -12.8123   -5.1868  -15.1590 O   0  0  0  0  0  0  0  0  0  0  0  0
  -15.0852   -5.1633  -14.0364 N   0  0  0  0  0  0  0  0  0  0  0  0
  -14.6935   -4.6638  -13.2401 H   0  0  0  0  0  0  0  0  0  0  0  0
  -16.6792   -5.6373  -12.2500 C   0  0  0  0  0  0  0  0  0  0  0  0
  -16.3270   -5.8941  -13.7031 C   0  0  0  0  0  0  0  0  0  0  0  0
  -15.4225   -1.1834  -12.8015 C   0  0  0  0  0  0  0  0  0  0  0  0
  -14.2800   -1.0409  -13.5840 C   0  0  0  0  0  0  0  0  0  0  0  0
  -14.1418    0.0346  -14.4702 C   0  0  0  0  0  0  0  0  0  0  0  0
  -15.1318    1.0241  -14.6050 C   0  0  0  0  0  0  0  0  0  0  0  0
  -16.3356    0.8261  -13.8811 C   0  0  0  0  0  0  0  0  0  0  0  0
  -16.4592   -0.2684  -12.9991 C   0  0  0  0  0  0  0  0  0  0  0  0
  -14.8621    2.2184  -15.2968 N   0  0  0  0  0  0  0  0  0  0  0  0
  -13.5256    2.7940  -15.1257 C   0  0  0  0  0  0  0  0  0  0  0  0
  -13.6489    4.3030  -15.2917 C   0  0  0  0  0  0  0  0  0  0  0  0
  -14.1455    4.7144  -16.7018 C   0  0  0  0  0  0  0  0  0  0  0  0
  -15.4221    3.8664  -17.0163 C   0  0  0  0  0  0  0  0  0  0  0  0
  -15.3512    2.3647  -16.6711 C   0  0  0  0  0  0  0  0  0  0  0  0
  -13.0456    4.6972  -17.7164 N   0  0  0  0  0  0  0  0  0  0  0  0
  -12.0267    5.7664  -17.4834 C   0  0  0  0  0  0  0  0  0  0  0  0
  -12.5169    7.2159  -17.7355 C   0  0  0  0  0  0  0  0  0  0  0  0
  -13.0445    7.4197  -19.0932 N   0  0  0  0  0  0  0  0  0  0  0  0
  -13.6867    8.7302  -19.2077 C   0  0  0  0  0  0  0  0  0  0  0  0
  -13.9760    6.3420  -19.4785 C   0  0  0  0  0  0  0  0  0  0  0  0
  -13.4943    4.9082  -19.1186 C   0  0  0  0  0  0  0  0  0  0  0  0
  -17.3472    1.7493  -14.0470 O   0  0  0  0  0  0  0  0  0  0  0  0
  -18.4618    1.3236  -14.8290 C   0  0  0  0  0  0  0  0  0  0  0  0
 22 23  1  0  0  0
 23 20  1  0  0  0
 20 17  1  0  0  0
 20 21  1  0  0  0
 17 18  2  0  0  0
 17 19  2  0  0  0
 17 11  1  0  0  0
 11 12  1  0  0  0
 11 16  2  0  0  0
 12 13  2  0  0  0
 13 14  1  0  0  0
 14 15  2  0  0  0
 15 16  1  0  0  0
 16  9  1  0  0  0
  9  3  1  0  0  0
  9 10  1  0  0  0
  3  4  1  0  0  0
  3  8  2  0  0  0
  4  5  2  0  0  0
  5  6  1  0  0  0
  6  7  2  0  0  0
  7  1  1  0  0  0
  7  8  1  0  0  0
  1 24  1  0  0  0
  1  2  1  0  0  0
 24 25  1  0  0  0
 24 29  2  0  0  0
 25 26  2  0  0  0
 26 27  1  0  0  0
 27 30  1  0  0  0
 27 28  2  0  0  0
 30 31  1  0  0  0
 30 35  1  0  0  0
 31 32  1  0  0  0
 32 33  1  0  0  0
 33 36  1  0  0  0
 33 34  1  0  0  0
 36 37  1  0  0  0
 36 42  1  0  0  0
 37 38  1  0  0  0
 38 39  1  0  0  0
 39 40  1  0  0  0
 39 41  1  0  0  0
 41 42  1  0  0  0
 34 35  1  0  0  0
 28 43  1  0  0  0
 28 29  1  0  0  0
 43 44  1  0  0  0
M  END
> <minimizedAffinity>
-7.48794

$$$$
