CHEMBL597492


 31 34  0  0  0  0  0  0  0  0999 V2000
  -31.0461   -8.3550   -7.4068 C   0  0  0  0  0  0  0  0  0  0  0  0
  -30.2693   -9.2788   -8.0071 C   0  0  0  0  0  0  0  0  0  0  0  0
  -31.1529  -10.4200   -8.3525 C   0  0  0  0  0  0  0  0  0  0  0  0
  -30.8060  -11.5006   -8.8022 O   0  0  0  0  0  0  0  0  0  0  0  0
  -32.4094  -10.0620   -8.0427 N   0  0  0  0  0  0  0  0  0  0  0  0
  -32.4395   -8.8230   -7.5063 C   0  0  0  0  0  0  0  0  0  0  0  0
  -33.4253   -8.2005   -7.1898 O   0  0  0  0  0  0  0  0  0  0  0  0
  -33.2266  -10.6206   -8.2229 H   0  0  0  0  0  0  0  0  0  0  0  0
  -28.8933   -9.2224   -8.3519 C   0  0  0  0  0  0  0  0  0  0  0  0
  -28.3976   -9.4122   -9.6279 C   0  0  0  0  0  0  0  0  0  0  0  0
  -27.0292   -9.3070   -9.5204 N   0  0  0  0  0  0  0  0  0  0  0  0
  -26.7638   -9.8940   -8.3010 C   0  0  0  0  0  0  0  0  0  0  0  0
  -25.8112  -10.8336   -7.9238 C   0  0  0  0  0  0  0  0  0  0  0  0
  -25.7986  -11.1822   -6.5756 C   0  0  0  0  0  0  0  0  0  0  0  0
  -26.6104  -10.5086   -5.6571 C   0  0  0  0  0  0  0  0  0  0  0  0
  -26.3890  -10.9373   -3.6302 I   0  0  0  0  0  0  0  0  0  0  0  0
  -27.6100   -9.6137   -6.0712 C   0  0  0  0  0  0  0  0  0  0  0  0
  -27.7780   -9.4389   -7.4590 C   0  0  0  0  0  0  0  0  0  0  0  0
  -26.5896   -8.4165   -9.7279 H   0  0  0  0  0  0  0  0  0  0  0  0
  -30.4668   -5.6031   -4.8397 C   0  0  0  0  0  0  0  0  0  0  0  0
  -30.8342   -6.8252   -5.4308 C   0  0  0  0  0  0  0  0  0  0  0  0
  -30.7064   -7.0475   -6.8078 C   0  0  0  0  0  0  0  0  0  0  0  0
  -30.2207   -6.0035   -7.6038 C   0  0  0  0  0  0  0  0  0  0  0  0
  -29.8634   -4.7780   -7.0515 C   0  0  0  0  0  0  0  0  0  0  0  0
  -29.9368   -4.5749   -5.6543 C   0  0  0  0  0  0  0  0  0  0  0  0
  -32.0119   -5.0286   -3.1116 C   0  0  0  0  0  0  0  0  0  0  0  0
  -30.6813   -5.3130   -3.5156 O   0  0  0  0  0  0  0  0  0  0  0  0
  -29.3694   -3.7358   -7.7947 O   0  0  0  0  0  0  0  0  0  0  0  0
  -28.0441   -3.8960   -8.2903 C   0  0  0  0  0  0  0  0  0  0  0  0
  -29.5593   -3.3245   -5.2293 O   0  0  0  0  0  0  0  0  0  0  0  0
  -28.2759   -3.1883   -4.6185 C   0  0  0  0  0  0  0  0  0  0  0  0
 26 27  1  0  0  0
 27 20  1  0  0  0
 20 21  1  0  0  0
 20 25  2  0  0  0
 21 22  2  0  0  0
 22  1  1  0  0  0
 22 23  1  0  0  0
  1  2  2  0  0  0
  1  6  1  0  0  0
  2  9  1  0  0  0
  2  3  1  0  0  0
  9 10  2  0  0  0
  9 18  1  0  0  0
 10 11  1  0  0  0
 11 12  1  0  0  0
 11 19  1  0  0  0
 12 13  1  0  0  0
 12 18  2  0  0  0
 13 14  2  0  0  0
 14 15  1  0  0  0
 15 16  1  0  0  0
 15 17  2  0  0  0
 17 18  1  0  0  0
  3  4  2  0  0  0
  3  5  1  0  0  0
  5  6  1  0  0  0
  5  8  1  0  0  0
  6  7  2  0  0  0
 23 24  2  0  0  0
 24 28  1  0  0  0
 24 25  1  0  0  0
 28 29  1  0  0  0
 25 30  1  0  0  0
 30 31  1  0  0  0
M  END
> <minimizedAffinity>
-7.73108

$$$$
