CHEMBL2086397


 36 40  0  0  0  0  0  0  0  0999 V2000
  -11.6908   -3.6036  -14.3395 C   0  0  0  0  0  0  0  0  0  0  0  0
  -10.6965   -2.8652  -15.0091 C   0  0  0  0  0  0  0  0  0  0  0  0
  -10.9724   -1.5998  -15.5171 C   0  0  0  0  0  0  0  0  0  0  0  0
  -12.2467   -1.1006  -15.3185 C   0  0  0  0  0  0  0  0  0  0  0  0
  -13.2504   -1.7827  -14.6165 C   0  0  0  0  0  0  0  0  0  0  0  0
  -12.9744   -3.0536  -14.1300 C   0  0  0  0  0  0  0  0  0  0  0  0
  -14.4352   -0.8801  -14.5982 C   0  0  0  0  0  0  0  0  0  0  0  0
  -15.6253   -0.9885  -13.9552 C   0  0  0  0  0  0  0  0  0  0  0  0
  -14.0205    0.3492  -15.3908 C   0  0  0  0  0  0  0  0  0  0  0  0
  -14.6386    1.3738  -15.5978 O   0  0  0  0  0  0  0  0  0  0  0  0
  -12.7100    0.1247  -15.7684 N   0  0  0  0  0  0  0  0  0  0  0  0
  -12.1779    0.8058  -16.2889 H   0  0  0  0  0  0  0  0  0  0  0  0
  -16.6231    0.0397  -14.0520 C   0  0  0  0  0  0  0  0  0  0  0  0
  -16.7361    1.2393  -13.5061 N   0  0  0  0  0  0  0  0  0  0  0  0
  -17.8953    1.7851  -14.0318 C   0  0  0  0  0  0  0  0  0  0  0  0
  -18.5353    3.0123  -13.7832 C   0  0  0  0  0  0  0  0  0  0  0  0
  -19.7523    3.2884  -14.4324 C   0  0  0  0  0  0  0  0  0  0  0  0
  -20.3079    2.3777  -15.3341 C   0  0  0  0  0  0  0  0  0  0  0  0
  -19.6625    1.1756  -15.6318 C   0  0  0  0  0  0  0  0  0  0  0  0
  -18.4706    0.9182  -14.9519 C   0  0  0  0  0  0  0  0  0  0  0  0
  -17.6203   -0.1509  -14.9818 N   0  0  0  0  0  0  0  0  0  0  0  0
  -17.7153   -0.9561  -15.5776 H   0  0  0  0  0  0  0  0  0  0  0  0
  -15.8580   -2.0919  -12.9970 C   0  0  0  0  0  0  0  0  0  0  0  0
  -16.2554   -3.3484  -13.4849 C   0  0  0  0  0  0  0  0  0  0  0  0
  -16.3682   -4.4362  -12.6215 C   0  0  0  0  0  0  0  0  0  0  0  0
  -16.0969   -4.2737  -11.2652 C   0  0  0  0  0  0  0  0  0  0  0  0
  -15.7242   -3.0230  -10.7689 C   0  0  0  0  0  0  0  0  0  0  0  0
  -15.5996   -1.9324  -11.6320 C   0  0  0  0  0  0  0  0  0  0  0  0
  -11.0851   -5.0672  -12.4948 N   0  0  0  0  0  0  0  0  0  0  0  0
  -11.3321   -4.9648  -13.8448 C   0  0  0  0  0  0  0  0  0  0  0  0
  -11.2936   -5.9106  -14.6178 O   0  0  0  0  0  0  0  0  0  0  0  0
  -11.3794   -4.3223  -11.8757 H   0  0  0  0  0  0  0  0  0  0  0  0
  -10.8380   -6.3457  -11.8486 C   0  0  0  0  0  0  0  0  0  0  0  0
  -11.7511   -6.5258  -10.6370 C   0  0  0  0  0  0  0  0  0  0  0  0
  -13.7211   -7.2960  -11.6771 C   0  0  0  0  0  0  0  0  0  0  0  0
  -13.0995   -6.2066  -11.0052 O   0  0  0  0  0  0  0  0  0  0  0  0
 35 36  1  0  0  0
 36 34  1  0  0  0
 34 33  1  0  0  0
 33 29  1  0  0  0
 29 30  1  0  0  0
 29 32  1  0  0  0
 30 31  2  0  0  0
 30  1  1  0  0  0
  1  2  1  0  0  0
  1  6  2  0  0  0
  2  3  2  0  0  0
  3  4  1  0  0  0
  4  5  2  0  0  0
  4 11  1  0  0  0
  5  6  1  0  0  0
  5  7  1  0  0  0
  7  8  2  0  0  0
  7  9  1  0  0  0
  8 23  1  0  0  0
  8 13  1  0  0  0
 23 24  1  0  0  0
 23 28  2  0  0  0
 24 25  2  0  0  0
 25 26  1  0  0  0
 26 27  2  0  0  0
 27 28  1  0  0  0
 13 14  2  0  0  0
 13 21  1  0  0  0
 14 15  1  0  0  0
 15 16  1  0  0  0
 15 20  2  0  0  0
 16 17  2  0  0  0
 17 18  1  0  0  0
 18 19  2  0  0  0
 19 20  1  0  0  0
 20 21  1  0  0  0
 21 22  1  0  0  0
  9 10  2  0  0  0
  9 11  1  0  0  0
 11 12  1  0  0  0
M  END
> <minimizedAffinity>
-7.36816

$$$$
