CHEMBL364115


 46 50  0  0  0  0  0  0  0  0999 V2000
  -28.6025   -2.3964   -7.1588 C   0  0  0  0  0  0  0  0  0  0  0  0
  -28.2490   -3.3016   -8.1693 C   0  0  0  0  0  0  0  0  0  0  0  0
  -27.3949   -2.9315   -9.2088 C   0  0  0  0  0  0  0  0  0  0  0  0
  -26.8782   -1.6440   -9.2526 C   0  0  0  0  0  0  0  0  0  0  0  0
  -27.2238   -0.7174   -8.2652 C   0  0  0  0  0  0  0  0  0  0  0  0
  -28.0758   -1.0943   -7.2325 C   0  0  0  0  0  0  0  0  0  0  0  0
  -25.9970   -1.2020  -10.2405 N   0  0  0  0  0  0  0  0  0  0  0  0
  -25.7719   -1.7549  -11.4798 C   0  0  0  0  0  0  0  0  0  0  0  0
  -26.3867   -2.7156  -11.9299 O   0  0  0  0  0  0  0  0  0  0  0  0
  -24.7851   -1.1244  -12.2154 N   0  0  0  0  0  0  0  0  0  0  0  0
  -23.9584    0.0120  -11.7974 C   0  0  0  0  0  0  0  0  0  0  0  0
  -23.9343    1.0878  -12.8947 C   0  0  0  0  0  0  0  0  0  0  0  0
  -23.4677    0.5788  -14.2022 N   0  0  0  0  0  0  0  0  0  0  0  0
  -24.3330   -0.5636  -14.5893 C   0  0  0  0  0  0  0  0  0  0  0  0
  -24.4348   -1.6752  -13.5288 C   0  0  0  0  0  0  0  0  0  0  0  0
  -25.5726   -0.3199  -10.0419 H   0  0  0  0  0  0  0  0  0  0  0  0
  -22.0502    0.1915  -14.1316 C   0  0  0  0  0  0  0  0  0  0  0  0
  -21.1384    1.2919  -14.6579 C   0  0  0  0  0  0  0  0  0  0  0  0
  -19.7430    0.7429  -14.9165 C   0  0  0  0  0  0  0  0  0  0  0  0
  -18.7320    1.4595  -14.1269 N   0  0  0  0  0  0  0  0  0  0  0  0
  -18.7059    2.8915  -14.4991 C   0  0  0  0  0  0  0  0  0  0  0  0
  -18.1484    3.1267  -15.9130 C   0  0  0  0  0  0  0  0  0  0  0  0
  -16.8244    2.5912  -16.0475 O   0  0  0  0  0  0  0  0  0  0  0  0
  -16.7957    1.1923  -15.7250 C   0  0  0  0  0  0  0  0  0  0  0  0
  -17.3617    0.9270  -14.3219 C   0  0  0  0  0  0  0  0  0  0  0  0
  -30.1880   -1.6622   -5.4467 C   0  0  0  0  0  0  0  0  0  0  0  0
  -29.4652   -2.7441   -6.1156 N   0  0  0  0  0  0  0  0  0  0  0  0
  -29.4267   -3.9559   -5.3812 C   0  0  0  0  0  0  0  0  0  0  0  0
  -28.6381   -4.0354   -4.2411 C   0  0  0  0  0  0  0  0  0  0  0  0
  -28.6566   -5.2050   -3.5414 C   0  0  0  0  0  0  0  0  0  0  0  0
  -29.3773   -6.2581   -3.9242 N   0  0  0  0  0  0  0  0  0  0  0  0
  -30.1145   -6.1329   -5.0415 C   0  0  0  0  0  0  0  0  0  0  0  0
  -30.1699   -5.0132   -5.7788 N   0  0  0  0  0  0  0  0  0  0  0  0
  -30.8473   -7.2386   -5.4810 N   0  0  0  0  0  0  0  0  0  0  0  0
  -31.4862   -7.5445   -4.7629 H   0  0  0  0  0  0  0  0  0  0  0  0
  -30.3944   -8.2278   -6.3696 C   0  0  0  0  0  0  0  0  0  0  0  0
  -29.4272   -9.1680   -5.9956 C   0  0  0  0  0  0  0  0  0  0  0  0
  -28.8983  -10.0817   -6.9158 C   0  0  0  0  0  0  0  0  0  0  0  0
  -29.3228  -10.0686   -8.2491 C   0  0  0  0  0  0  0  0  0  0  0  0
  -30.3419   -9.1691   -8.6071 C   0  0  0  0  0  0  0  0  0  0  0  0
  -30.8888   -8.2785   -7.6733 C   0  0  0  0  0  0  0  0  0  0  0  0
  -28.6248  -10.8582   -9.3302 C   0  0  0  0  0  0  0  0  0  0  0  0
  -27.1692  -10.0687   -9.9952 S   0  0  0  0  0  0  0  0  0  0  0  0
  -27.4764   -9.8669  -11.7305 C   0  0  0  0  0  0  0  0  0  0  0  0
  -27.1260   -8.7255   -9.4235 O   0  0  0  0  0  0  0  0  0  0  0  0
  -26.0228  -10.9437   -9.8401 O   0  0  0  0  0  0  0  0  0  0  0  0
 26 27  1  0  0  0
 27  1  1  0  0  0
 27 28  1  0  0  0
  1  2  1  0  0  0
  1  6  2  0  0  0
  2  3  2  0  0  0
  3  4  1  0  0  0
  4  7  1  0  0  0
  4  5  2  0  0  0
  7  8  1  0  0  0
  7 16  1  0  0  0
  8  9  2  0  0  0
  8 10  1  0  0  0
 10 11  1  0  0  0
 10 15  1  0  0  0
 11 12  1  0  0  0
 12 13  1  0  0  0
 13 17  1  0  0  0
 13 14  1  0  0  0
 17 18  1  0  0  0
 18 19  1  0  0  0
 19 20  1  0  0  0
 20 21  1  0  0  0
 20 25  1  0  0  0
 21 22  1  0  0  0
 22 23  1  0  0  0
 23 24  1  0  0  0
 24 25  1  0  0  0
 14 15  1  0  0  0
  5  6  1  0  0  0
 28 29  1  0  0  0
 28 33  2  0  0  0
 29 30  2  0  0  0
 30 31  1  0  0  0
 31 32  2  0  0  0
 32 34  1  0  0  0
 32 33  1  0  0  0
 34 36  1  0  0  0
 34 35  1  0  0  0
 36 37  1  0  0  0
 36 41  2  0  0  0
 37 38  2  0  0  0
 38 39  1  0  0  0
 39 42  1  0  0  0
 39 40  2  0  0  0
 42 43  1  0  0  0
 43 44  1  0  0  0
 43 45  2  0  0  0
 43 46  2  0  0  0
 40 41  1  0  0  0
M  END
> <minimizedAffinity>
-8.89673

$$$$
