CHEMBL3890607


 36 40  0  0  0  0  0  0  0  0999 V2000
  -27.7046   -2.4306   -8.5201 N   0  0  0  0  0  0  0  0  0  0  0  0
  -27.1548   -1.7216   -9.6914 C   0  0  0  0  0  0  0  0  0  0  0  0
  -27.9652   -1.8453  -10.8260 C   0  0  0  0  0  0  0  0  0  0  0  0
  -27.4708   -1.7433  -12.0740 C   0  0  0  0  0  0  0  0  0  0  0  0
  -26.1792   -1.4101  -12.2899 C   0  0  0  0  0  0  0  0  0  0  0  0
  -25.7741   -1.5432  -13.5396 N   0  0  0  0  0  0  0  0  0  0  0  0
  -24.5769   -1.1780  -13.9478 C   0  0  0  0  0  0  0  0  0  0  0  0
  -23.7272   -0.4883  -13.0738 C   0  0  0  0  0  0  0  0  0  0  0  0
  -24.0637   -0.4699  -11.7009 N   0  0  0  0  0  0  0  0  0  0  0  0
  -25.3023   -0.9932  -11.2669 C   0  0  0  0  0  0  0  0  0  0  0  0
  -25.7913   -1.1935   -9.8872 C   0  0  0  0  0  0  0  0  0  0  0  0
  -22.6873    0.3501  -13.8669 C   0  0  0  0  0  0  0  0  0  0  0  0
  -22.7445    1.7646  -13.9052 C   0  0  0  0  0  0  0  0  0  0  0  0
  -21.6494    2.2693  -14.4565 N   0  0  0  0  0  0  0  0  0  0  0  0
  -20.8782    1.2677  -14.8079 N   0  0  0  0  0  0  0  0  0  0  0  0
  -19.5465    1.5421  -15.3296 C   0  0  0  0  0  0  0  0  0  0  0  0
  -21.4753    0.0724  -14.5127 C   0  0  0  0  0  0  0  0  0  0  0  0
  -28.3459   -1.8205   -4.8094 C   0  0  0  0  0  0  0  0  0  0  0  0
  -28.9438   -0.5439   -4.8449 C   0  0  0  0  0  0  0  0  0  0  0  0
  -29.1234    0.1166   -6.0523 C   0  0  0  0  0  0  0  0  0  0  0  0
  -28.7557   -0.5279   -7.2417 C   0  0  0  0  0  0  0  0  0  0  0  0
  -28.1704   -1.8323   -7.2692 C   0  0  0  0  0  0  0  0  0  0  0  0
  -27.9662   -2.4559   -6.0196 C   0  0  0  0  0  0  0  0  0  0  0  0
  -29.0284   -3.0592   -2.8112 C   0  0  0  0  0  0  0  0  0  0  0  0
  -28.0910   -2.4553   -3.6321 O   0  0  0  0  0  0  0  0  0  0  0  0
  -29.6439    1.3761   -6.0331 O   0  0  0  0  0  0  0  0  0  0  0  0
  -30.9034    1.7585   -6.4744 C   0  0  0  0  0  0  0  0  0  0  0  0
  -27.9144   -3.9042   -8.7767 C   0  0  0  0  0  0  0  0  0  0  0  0
  -28.8757   -4.4776   -7.7166 C   0  0  0  0  0  0  0  0  0  0  0  0
  -28.4979   -5.7520   -7.0505 N   0  0  0  0  0  0  0  0  0  0  0  0
  -29.2203   -6.8648   -7.7153 C   0  0  0  0  0  0  0  0  0  0  0  0
  -30.7325   -6.8757   -7.3617 C   0  0  0  0  0  0  0  0  0  0  0  0
  -30.9223   -6.9796   -5.9116 N   0  0  0  0  0  0  0  0  0  0  0  0
  -30.2227   -5.8929   -5.2109 C   0  0  0  0  0  0  0  0  0  0  0  0
  -28.7264   -5.8514   -5.5845 C   0  0  0  0  0  0  0  0  0  0  0  0
  -30.5549   -7.9032   -5.5849 H   0  0  0  0  0  0  0  0  0  0  0  0
 24 25  1  0  0  0
 25 18  1  0  0  0
 18 19  1  0  0  0
 18 23  2  0  0  0
 19 20  2  0  0  0
 20 26  1  0  0  0
 20 21  1  0  0  0
 26 27  1  0  0  0
 21 22  2  0  0  0
 22  1  1  0  0  0
 22 23  1  0  0  0
  1 28  1  0  0  0
  1  2  1  0  0  0
 28 29  1  0  0  0
 29 30  1  0  0  0
 30 31  1  0  0  0
 30 35  1  0  0  0
 31 32  1  0  0  0
 32 33  1  0  0  0
 33 34  1  0  0  0
 33 36  1  0  0  0
 34 35  1  0  0  0
  2  3  1  0  0  0
  2 11  2  0  0  0
  3  4  2  0  0  0
  4  5  1  0  0  0
  5  6  1  0  0  0
  5 10  2  0  0  0
  6  7  2  0  0  0
  7  8  1  0  0  0
  8 12  1  0  0  0
  8  9  2  0  0  0
 12 13  1  0  0  0
 12 17  2  0  0  0
 13 14  2  0  0  0
 14 15  1  0  0  0
 15 16  1  0  0  0
 15 17  1  0  0  0
  9 10  1  0  0  0
 10 11  1  0  0  0
M  END
> <minimizedAffinity>
-8.59297

$$$$
