CHEMBL193136


 35 38  0  0  0  0  0  0  0  0999 V2000
  -13.7915   -0.8690  -15.0350 C   0  0  0  0  0  0  0  0  0  0  0  0
  -12.9544   -0.3150  -15.8710 N   0  0  0  0  0  0  0  0  0  0  0  0
  -12.1790   -1.0852  -16.6863 C   0  0  0  0  0  0  0  0  0  0  0  0
  -12.1728   -2.3741  -16.7434 N   0  0  0  0  0  0  0  0  0  0  0  0
  -13.0072   -2.9604  -15.8736 N   0  0  0  0  0  0  0  0  0  0  0  0
  -13.1198   -4.3042  -15.7351 C   0  0  0  0  0  0  0  0  0  0  0  0
  -13.9790   -4.5613  -14.6932 C   0  0  0  0  0  0  0  0  0  0  0  0
  -14.4662   -3.2911  -14.1952 C   0  0  0  0  0  0  0  0  0  0  0  0
  -13.8321   -2.3162  -14.9842 C   0  0  0  0  0  0  0  0  0  0  0  0
  -14.2817   -5.9131  -14.2072 C   0  0  0  0  0  0  0  0  0  0  0  0
  -15.1461   -6.7412  -14.8099 N   0  0  0  0  0  0  0  0  0  0  0  0
  -15.0427   -7.8418  -14.0531 N   0  0  0  0  0  0  0  0  0  0  0  0
  -14.1345   -7.6736  -13.0490 C   0  0  0  0  0  0  0  0  0  0  0  0
  -13.8093   -8.7196  -12.0588 C   0  0  0  0  0  0  0  0  0  0  0  0
  -13.6320   -6.4614  -13.1317 N   0  0  0  0  0  0  0  0  0  0  0  0
  -15.6063   -8.6534  -14.2787 H   0  0  0  0  0  0  0  0  0  0  0  0
  -15.4255   -3.1512  -13.0249 C   0  0  0  0  0  0  0  0  0  0  0  0
  -16.5987   -4.1278  -13.0880 C   0  0  0  0  0  0  0  0  0  0  0  0
  -14.7519   -3.1019  -11.6541 C   0  0  0  0  0  0  0  0  0  0  0  0
  -14.5994   -0.0469  -14.2852 N   0  0  0  0  0  0  0  0  0  0  0  0
  -14.4545   -0.0098  -13.2913 H   0  0  0  0  0  0  0  0  0  0  0  0
  -18.0030    1.2421  -15.1249 C   0  0  0  0  0  0  0  0  0  0  0  0
  -16.9816    0.4043  -14.6550 C   0  0  0  0  0  0  0  0  0  0  0  0
  -15.6373    0.7790  -14.7522 C   0  0  0  0  0  0  0  0  0  0  0  0
  -15.3467    2.0386  -15.2979 C   0  0  0  0  0  0  0  0  0  0  0  0
  -14.0679    2.4336  -15.3992 F   0  0  0  0  0  0  0  0  0  0  0  0
  -16.3496    2.8974  -15.7419 C   0  0  0  0  0  0  0  0  0  0  0  0
  -17.6757    2.4891  -15.6539 C   0  0  0  0  0  0  0  0  0  0  0  0
  -18.6316    3.3159  -16.1034 F   0  0  0  0  0  0  0  0  0  0  0  0
  -20.2840    1.4378  -14.3043 N   0  0  0  0  0  0  0  0  0  0  0  0
  -19.3911    0.7288  -15.0781 C   0  0  0  0  0  0  0  0  0  0  0  0
  -19.6615   -0.2959  -15.6986 O   0  0  0  0  0  0  0  0  0  0  0  0
  -20.1226    2.4181  -14.0945 H   0  0  0  0  0  0  0  0  0  0  0  0
  -22.0924    0.3882  -13.3336 C   0  0  0  0  0  0  0  0  0  0  0  0
  -21.6416    1.0817  -14.4955 O   0  0  0  0  0  0  0  0  0  0  0  0
 34 35  1  0  0  0
 35 30  1  0  0  0
 30 31  1  0  0  0
 30 33  1  0  0  0
 31 32  2  0  0  0
 31 22  1  0  0  0
 22 23  1  0  0  0
 22 28  2  0  0  0
 23 24  2  0  0  0
 24 20  1  0  0  0
 24 25  1  0  0  0
 20  1  1  0  0  0
 20 21  1  0  0  0
  1  2  2  0  0  0
  1  9  1  0  0  0
  2  3  1  0  0  0
  3  4  2  0  0  0
  4  5  1  0  0  0
  5  6  1  0  0  0
  5  9  1  0  0  0
  6  7  2  0  0  0
  7 10  1  0  0  0
  7  8  1  0  0  0
 10 11  2  0  0  0
 10 15  1  0  0  0
 11 12  1  0  0  0
 12 13  1  0  0  0
 12 16  1  0  0  0
 13 14  1  0  0  0
 13 15  2  0  0  0
  8 17  1  0  0  0
  8  9  2  0  0  0
 17 18  1  0  0  0
 17 19  1  0  0  0
 25 26  1  0  0  0
 25 27  2  0  0  0
 27 28  1  0  0  0
 28 29  1  0  0  0
M  END
> <minimizedAffinity>
-7.72678

$$$$
