CHEMBL3676393


 38 40  0  0  0  0  0  0  0  0999 V2000
  -13.8925   -3.5397  -12.7301 C   0  0  0  0  0  0  0  0  0  0  0  0
  -14.1075   -2.2915  -13.3135 C   0  0  0  0  0  0  0  0  0  0  0  0
  -13.6836   -2.0403  -14.6332 C   0  0  0  0  0  0  0  0  0  0  0  0
  -13.6769   -0.7729  -15.2373 C   0  0  0  0  0  0  0  0  0  0  0  0
  -13.2527   -0.5949  -16.4918 N   0  0  0  0  0  0  0  0  0  0  0  0
  -12.8037   -1.6686  -17.1452 C   0  0  0  0  0  0  0  0  0  0  0  0
  -12.7085   -2.9023  -16.6471 N   0  0  0  0  0  0  0  0  0  0  0  0
  -13.1352   -3.0867  -15.3927 C   0  0  0  0  0  0  0  0  0  0  0  0
  -12.9842   -4.3394  -14.8055 C   0  0  0  0  0  0  0  0  0  0  0  0
  -13.3642   -4.5938  -13.4824 C   0  0  0  0  0  0  0  0  0  0  0  0
  -15.1659   -4.0472  -10.7054 C   0  0  0  0  0  0  0  0  0  0  0  0
  -15.1368   -4.3692   -9.5202 O   0  0  0  0  0  0  0  0  0  0  0  0
  -14.0176   -3.6296  -11.3360 N   0  0  0  0  0  0  0  0  0  0  0  0
  -13.2118   -3.9755  -10.8270 H   0  0  0  0  0  0  0  0  0  0  0  0
  -16.8218   -5.3751  -11.8992 C   0  0  0  0  0  0  0  0  0  0  0  0
  -16.4009   -4.1601  -11.5249 C   0  0  0  0  0  0  0  0  0  0  0  0
  -14.0295    0.3729  -14.4718 N   0  0  0  0  0  0  0  0  0  0  0  0
  -13.7520    0.2711  -13.4987 H   0  0  0  0  0  0  0  0  0  0  0  0
  -15.2657    1.0524  -14.5997 C   0  0  0  0  0  0  0  0  0  0  0  0
  -15.5109    1.8978  -15.6911 C   0  0  0  0  0  0  0  0  0  0  0  0
  -16.7739    2.4559  -15.8946 C   0  0  0  0  0  0  0  0  0  0  0  0
  -17.7975    2.1893  -14.9887 C   0  0  0  0  0  0  0  0  0  0  0  0
  -19.5329    2.8576  -15.3253 Br  0  0  0  0  0  0  0  0  0  0  0  0
  -17.5581    1.4144  -13.8560 C   0  0  0  0  0  0  0  0  0  0  0  0
  -16.2930    0.8628  -13.6676 C   0  0  0  0  0  0  0  0  0  0  0  0
  -16.0707    0.0957  -12.5885 F   0  0  0  0  0  0  0  0  0  0  0  0
  -13.0854   -5.8590  -13.0174 O   0  0  0  0  0  0  0  0  0  0  0  0
  -12.4795   -6.7367  -13.9807 C   0  0  0  0  0  0  0  0  0  0  0  0
  -13.3073   -8.0260  -14.1859 C   0  0  0  0  0  0  0  0  0  0  0  0
  -14.5517   -8.0198  -13.2996 C   0  0  0  0  0  0  0  0  0  0  0  0
  -13.7165   -8.1662  -15.5858 N   0  0  0  0  0  0  0  0  0  0  0  0
  -13.2020   -9.1446  -16.4115 C   0  0  0  0  0  0  0  0  0  0  0  0
  -12.5275  -10.0849  -16.0030 O   0  0  0  0  0  0  0  0  0  0  0  0
  -14.0907   -7.3586  -16.0806 H   0  0  0  0  0  0  0  0  0  0  0  0
  -13.5743   -8.9809  -17.8941 C   0  0  0  0  0  0  0  0  0  0  0  0
  -13.0456   -7.7109  -18.4646 N   0  0  0  0  0  0  0  0  0  0  0  0
  -11.5776   -7.7358  -18.5418 C   0  0  0  0  0  0  0  0  0  0  0  0
  -13.5807   -7.5346  -19.8220 C   0  0  0  0  0  0  0  0  0  0  0  0
 15 16  2  0  0  0
 16 11  1  0  0  0
 11 12  2  0  0  0
 11 13  1  0  0  0
 13  1  1  0  0  0
 13 14  1  0  0  0
  1  2  1  0  0  0
  1 10  2  0  0  0
  2  3  2  0  0  0
  3  4  1  0  0  0
  3  8  1  0  0  0
  4 17  1  0  0  0
  4  5  2  0  0  0
 17 19  1  0  0  0
 17 18  1  0  0  0
 19 20  1  0  0  0
 19 25  2  0  0  0
 20 21  2  0  0  0
 21 22  1  0  0  0
 22 23  1  0  0  0
 22 24  2  0  0  0
 24 25  1  0  0  0
 25 26  1  0  0  0
  5  6  1  0  0  0
  6  7  2  0  0  0
  7  8  1  0  0  0
  8  9  2  0  0  0
  9 10  1  0  0  0
 10 27  1  0  0  0
 27 28  1  0  0  0
 28 29  1  0  0  0
 29 30  1  0  0  0
 29 31  1  0  0  0
 31 32  1  0  0  0
 31 34  1  0  0  0
 32 33  2  0  0  0
 32 35  1  0  0  0
 35 36  1  0  0  0
 36 37  1  0  0  0
 36 38  1  0  0  0
M  END
> <minimizedAffinity>
-7.41155

$$$$
