CHEMBL2216905


 42 45  0  0  0  0  0  0  0  0999 V2000
  -29.2151   -9.4082   -7.8137 C   0  0  0  0  0  0  0  0  0  0  0  0
  -29.4257   -8.1722   -8.4247 C   0  0  0  0  0  0  0  0  0  0  0  0
  -29.2938   -7.0096   -7.6719 C   0  0  0  0  0  0  0  0  0  0  0  0
  -28.9994   -7.0942   -6.3078 C   0  0  0  0  0  0  0  0  0  0  0  0
  -28.7637   -8.3370   -5.6729 C   0  0  0  0  0  0  0  0  0  0  0  0
  -28.8630   -9.4856   -6.4632 C   0  0  0  0  0  0  0  0  0  0  0  0
  -28.4288   -8.3991   -4.3268 N   0  0  0  0  0  0  0  0  0  0  0  0
  -28.6888   -9.5482   -3.4751 C   0  0  0  0  0  0  0  0  0  0  0  0
  -28.1541   -7.1100   -3.6957 C   0  0  0  0  0  0  0  0  0  0  0  0
  -29.1343   -6.0302   -4.1994 C   0  0  0  0  0  0  0  0  0  0  0  0
  -30.6015   -6.3569   -3.8495 C   0  0  0  0  0  0  0  0  0  0  0  0
  -28.9956   -5.8884   -5.6336 O   0  0  0  0  0  0  0  0  0  0  0  0
  -30.4525  -11.4103   -8.4835 C   0  0  0  0  0  0  0  0  0  0  0  0
  -30.5885  -12.4657   -9.1061 O   0  0  0  0  0  0  0  0  0  0  0  0
  -29.3098  -10.6015   -8.5592 N   0  0  0  0  0  0  0  0  0  0  0  0
  -31.5581  -11.0163   -7.4528 C   0  0  0  0  0  0  0  0  0  0  0  0
  -31.5796  -11.4059   -6.3016 O   0  0  0  0  0  0  0  0  0  0  0  0
  -32.3680  -10.0986   -8.0424 O   0  0  0  0  0  0  0  0  0  0  0  0
  -32.6968   -7.9475   -6.8777 C   0  0  0  0  0  0  0  0  0  0  0  0
  -33.2411   -9.3311   -7.1932 C   0  0  0  0  0  0  0  0  0  0  0  0
  -28.1120  -11.0519   -9.2814 C   0  0  0  0  0  0  0  0  0  0  0  0
  -27.9648  -10.4670  -10.6750 C   0  0  0  0  0  0  0  0  0  0  0  0
  -28.9499  -10.6943  -11.6519 C   0  0  0  0  0  0  0  0  0  0  0  0
  -28.8406  -10.1432  -12.9350 C   0  0  0  0  0  0  0  0  0  0  0  0
  -27.7376   -9.3619  -13.2654 C   0  0  0  0  0  0  0  0  0  0  0  0
  -26.7413   -9.1634  -12.3175 C   0  0  0  0  0  0  0  0  0  0  0  0
  -25.6640   -8.4346  -12.6424 F   0  0  0  0  0  0  0  0  0  0  0  0
  -26.8402   -9.7077  -11.0347 C   0  0  0  0  0  0  0  0  0  0  0  0
  -28.7394   -4.6815   -3.5392 C   0  0  0  0  0  0  0  0  0  0  0  0
  -27.7403   -4.0196   -4.3219 O   0  0  0  0  0  0  0  0  0  0  0  0
  -28.0336   -2.7881   -4.8427 C   0  0  0  0  0  0  0  0  0  0  0  0
  -27.1189   -1.8578   -5.3395 C   0  0  0  0  0  0  0  0  0  0  0  0
  -27.5664   -0.6086   -5.8009 C   0  0  0  0  0  0  0  0  0  0  0  0
  -28.9301   -0.2859   -5.7709 C   0  0  0  0  0  0  0  0  0  0  0  0
  -29.8428   -1.2281   -5.2918 C   0  0  0  0  0  0  0  0  0  0  0  0
  -29.3906   -2.4698   -4.8271 C   0  0  0  0  0  0  0  0  0  0  0  0
  -29.4261    1.0562   -6.2044 C   0  0  0  0  0  0  0  0  0  0  0  0
  -28.6819    1.9340   -6.7996 N   0  0  0  0  0  0  0  0  0  0  0  0
  -30.7190    1.4257   -5.9748 N   0  0  0  0  0  0  0  0  0  0  0  0
  -27.7437    1.5755   -6.9835 H   0  0  0  0  0  0  0  0  0  0  0  0
  -31.1597    1.0663   -5.1375 H   0  0  0  0  0  0  0  0  0  0  0  0
  -30.8424    2.4272   -6.0909 H   0  0  0  0  0  0  0  0  0  0  0  0
 19 20  1  0  0  0
 20 18  1  0  0  0
 18 16  1  0  0  0
 16 17  2  0  0  0
 16 13  1  0  0  0
 13 14  2  0  0  0
 13 15  1  0  0  0
 15 21  1  0  0  0
 15  1  1  0  0  0
 21 22  1  0  0  0
 22 23  1  0  0  0
 22 28  2  0  0  0
 23 24  2  0  0  0
 24 25  1  0  0  0
 25 26  2  0  0  0
 26 27  1  0  0  0
 26 28  1  0  0  0
  1  2  1  0  0  0
  1  6  2  0  0  0
  2  3  2  0  0  0
  3  4  1  0  0  0
  4  5  2  0  0  0
  4 12  1  0  0  0
  5  6  1  0  0  0
  5  7  1  0  0  0
  7  8  1  0  0  0
  7  9  1  0  0  0
  9 10  1  0  0  0
 10 11  1  0  0  0
 10 29  1  0  0  0
 10 12  1  0  0  0
 29 30  1  0  0  0
 30 31  1  0  0  0
 31 32  1  0  0  0
 31 36  2  0  0  0
 32 33  2  0  0  0
 33 34  1  0  0  0
 34 37  1  0  0  0
 34 35  2  0  0  0
 37 38  2  0  0  0
 37 39  1  0  0  0
 38 40  1  0  0  0
 39 41  1  0  0  0
 39 42  1  0  0  0
 35 36  1  0  0  0
M  END
> <minimizedAffinity>
-8.91370

$$$$
