CHEMBL605324


 26 29  0  0  0  0  0  0  0  0999 V2000
  -28.0799   -2.1173   -9.1153 C   0  0  0  0  0  0  0  0  0  0  0  0
  -27.6323   -1.1853   -8.2593 N   0  0  0  0  0  0  0  0  0  0  0  0
  -27.6652   -1.4773   -6.9548 C   0  0  0  0  0  0  0  0  0  0  0  0
  -28.1297   -2.6713   -6.4616 C   0  0  0  0  0  0  0  0  0  0  0  0
  -28.6106   -3.5698   -7.3964 C   0  0  0  0  0  0  0  0  0  0  0  0
  -28.5706   -3.3048   -8.7259 N   0  0  0  0  0  0  0  0  0  0  0  0
  -29.1650   -4.8759   -6.9835 C   0  0  0  0  0  0  0  0  0  0  0  0
  -28.8149   -6.0360   -7.7056 C   0  0  0  0  0  0  0  0  0  0  0  0
  -29.2935   -7.2972   -7.3430 C   0  0  0  0  0  0  0  0  0  0  0  0
  -30.1824   -7.4279   -6.2802 C   0  0  0  0  0  0  0  0  0  0  0  0
  -30.5797   -6.2934   -5.5749 C   0  0  0  0  0  0  0  0  0  0  0  0
  -30.0393   -5.0394   -5.8780 C   0  0  0  0  0  0  0  0  0  0  0  0
  -30.3889   -4.0089   -4.9827 N   0  0  0  0  0  0  0  0  0  0  0  0
  -29.5599   -3.0433   -4.4836 C   0  0  0  0  0  0  0  0  0  0  0  0
  -29.9444   -2.3190   -3.5656 O   0  0  0  0  0  0  0  0  0  0  0  0
  -28.1451   -2.9740   -5.0041 C   0  0  0  0  0  0  0  0  0  0  0  0
  -31.2286   -4.1198   -4.4275 H   0  0  0  0  0  0  0  0  0  0  0  0
  -27.9864   -1.8723  -10.4889 N   0  0  0  0  0  0  0  0  0  0  0  0
  -28.6933   -1.1895  -10.7317 H   0  0  0  0  0  0  0  0  0  0  0  0
  -23.2516   -1.0328  -13.6114 C   0  0  0  0  0  0  0  0  0  0  0  0
  -24.4834   -1.2902  -12.7952 C   0  0  0  0  0  0  0  0  0  0  0  0
  -25.7168   -1.5370  -13.4058 C   0  0  0  0  0  0  0  0  0  0  0  0
  -26.8643   -1.7380  -12.6300 C   0  0  0  0  0  0  0  0  0  0  0  0
  -26.7975   -1.7349  -11.2325 C   0  0  0  0  0  0  0  0  0  0  0  0
  -25.5605   -1.4844  -10.6276 C   0  0  0  0  0  0  0  0  0  0  0  0
  -24.4135   -1.2700  -11.3988 C   0  0  0  0  0  0  0  0  0  0  0  0
 20 21  1  0  0  0
 21 22  1  0  0  0
 21 26  2  0  0  0
 22 23  2  0  0  0
 23 24  1  0  0  0
 24 18  1  0  0  0
 24 25  2  0  0  0
 18  1  1  0  0  0
 18 19  1  0  0  0
  1  2  1  0  0  0
  1  6  2  0  0  0
  2  3  2  0  0  0
  3  4  1  0  0  0
  4  5  2  0  0  0
  4 16  1  0  0  0
  5  6  1  0  0  0
  5  7  1  0  0  0
  7  8  1  0  0  0
  7 12  2  0  0  0
  8  9  2  0  0  0
  9 10  1  0  0  0
 10 11  2  0  0  0
 11 12  1  0  0  0
 12 13  1  0  0  0
 13 14  1  0  0  0
 13 17  1  0  0  0
 14 15  2  0  0  0
 14 16  1  0  0  0
 25 26  1  0  0  0
M  END
> <minimizedAffinity>
-9.91269

$$$$
