CHEMBL401838


 40 44  0  0  0  0  0  0  0  0999 V2000
  -28.4608   -3.4372   -6.5702 C   0  0  0  0  0  0  0  0  0  0  0  0
  -29.3321   -3.9776   -7.5224 C   0  0  0  0  0  0  0  0  0  0  0  0
  -30.2048   -5.0185   -7.1759 C   0  0  0  0  0  0  0  0  0  0  0  0
  -30.1945   -5.5435   -5.8788 C   0  0  0  0  0  0  0  0  0  0  0  0
  -29.3751   -4.9494   -4.9229 C   0  0  0  0  0  0  0  0  0  0  0  0
  -29.4142   -5.3651   -3.6483 F   0  0  0  0  0  0  0  0  0  0  0  0
  -28.5125   -3.9105   -5.2588 C   0  0  0  0  0  0  0  0  0  0  0  0
  -27.6433   -2.3503   -6.9430 N   0  0  0  0  0  0  0  0  0  0  0  0
  -26.6387   -2.5179   -6.9269 H   0  0  0  0  0  0  0  0  0  0  0  0
  -28.0270   -1.1083   -7.3829 C   0  0  0  0  0  0  0  0  0  0  0  0
  -28.5193    0.1865   -6.4401 S   0  0  0  0  0  0  0  0  0  0  0  0
  -26.8079   -2.7542   -9.5054 O   0  0  0  0  0  0  0  0  0  0  0  0
  -27.4321   -1.7195   -9.7343 C   0  0  0  0  0  0  0  0  0  0  0  0
  -27.9618   -0.8984   -8.7426 N   0  0  0  0  0  0  0  0  0  0  0  0
  -28.4745   -0.0795   -9.0437 H   0  0  0  0  0  0  0  0  0  0  0  0
  -27.6207   -1.1729  -11.1398 C   0  0  0  0  0  0  0  0  0  0  0  0
  -26.3875   -1.1247  -12.0130 C   0  0  0  0  0  0  0  0  0  0  0  0
  -26.4486   -1.6853  -13.3016 C   0  0  0  0  0  0  0  0  0  0  0  0
  -25.3677   -1.5905  -14.1808 C   0  0  0  0  0  0  0  0  0  0  0  0
  -24.2087   -0.9271  -13.7899 C   0  0  0  0  0  0  0  0  0  0  0  0
  -24.1369   -0.3539  -12.5208 C   0  0  0  0  0  0  0  0  0  0  0  0
  -25.2207   -0.4448  -11.6354 C   0  0  0  0  0  0  0  0  0  0  0  0
  -30.9836   -6.5866   -5.4469 O   0  0  0  0  0  0  0  0  0  0  0  0
  -31.1902   -7.6689   -6.2760 C   0  0  0  0  0  0  0  0  0  0  0  0
  -32.4068   -7.9308   -6.9063 C   0  0  0  0  0  0  0  0  0  0  0  0
  -32.5415   -9.0877   -7.6469 C   0  0  0  0  0  0  0  0  0  0  0  0
  -31.5713   -9.9956   -7.8436 N   0  0  0  0  0  0  0  0  0  0  0  0
  -30.3566   -9.6791   -7.3269 C   0  0  0  0  0  0  0  0  0  0  0  0
  -29.1928  -10.4794   -7.4661 C   0  0  0  0  0  0  0  0  0  0  0  0
  -28.0491   -9.8570   -7.0136 C   0  0  0  0  0  0  0  0  0  0  0  0
  -28.4539   -8.4246   -6.1517 S   0  0  0  0  0  0  0  0  0  0  0  0
  -30.1192   -8.5302   -6.5740 C   0  0  0  0  0  0  0  0  0  0  0  0
  -26.6512  -10.2720   -7.0830 C   0  0  0  0  0  0  0  0  0  0  0  0
  -26.0492  -10.3154   -8.1568 O   0  0  0  0  0  0  0  0  0  0  0  0
  -25.9785  -10.6099   -5.9030 N   0  0  0  0  0  0  0  0  0  0  0  0
  -26.5264  -10.7712   -4.5512 C   0  0  0  0  0  0  0  0  0  0  0  0
  -25.8077   -9.8070   -3.5994 C   0  0  0  0  0  0  0  0  0  0  0  0
  -24.3903  -10.0529   -3.6091 O   0  0  0  0  0  0  0  0  0  0  0  0
  -23.8429   -9.8965   -4.9317 C   0  0  0  0  0  0  0  0  0  0  0  0
  -24.5297  -10.8301   -5.9379 C   0  0  0  0  0  0  0  0  0  0  0  0
 12 13  2  0  0  0
 13 16  1  0  0  0
 13 14  1  0  0  0
 16 17  1  0  0  0
 17 18  1  0  0  0
 17 22  2  0  0  0
 18 19  2  0  0  0
 19 20  1  0  0  0
 20 21  2  0  0  0
 21 22  1  0  0  0
 14 10  1  0  0  0
 14 15  1  0  0  0
 10 11  2  0  0  0
 10  8  1  0  0  0
  8  1  1  0  0  0
  8  9  1  0  0  0
  1  2  1  0  0  0
  1  7  2  0  0  0
  2  3  2  0  0  0
  3  4  1  0  0  0
  4 23  1  0  0  0
  4  5  2  0  0  0
 23 24  1  0  0  0
 24 25  1  0  0  0
 24 32  2  0  0  0
 25 26  2  0  0  0
 26 27  1  0  0  0
 27 28  2  0  0  0
 28 29  1  0  0  0
 28 32  1  0  0  0
 29 30  2  0  0  0
 30 33  1  0  0  0
 30 31  1  0  0  0
 33 34  2  0  0  0
 33 35  1  0  0  0
 35 36  1  0  0  0
 35 40  1  0  0  0
 36 37  1  0  0  0
 37 38  1  0  0  0
 38 39  1  0  0  0
 39 40  1  0  0  0
 31 32  1  0  0  0
  5  6  1  0  0  0
  5  7  1  0  0  0
M  END
> <minimizedAffinity>
-9.96611

$$$$
