CHEMBL2018770


 35 37  0  0  0  0  0  0  0  0999 V2000
  -13.2709    0.3922  -14.9195 C   0  0  0  0  0  0  0  0  0  0  0  0
  -13.1899    1.1664  -16.0909 C   0  0  0  0  0  0  0  0  0  0  0  0
  -14.1387    2.1236  -16.4362 C   0  0  0  0  0  0  0  0  0  0  0  0
  -14.0188    2.7785  -17.5947 N   0  0  0  0  0  0  0  0  0  0  0  0
  -14.9923    3.6428  -17.9003 C   0  0  0  0  0  0  0  0  0  0  0  0
  -16.0585    3.9271  -17.1510 N   0  0  0  0  0  0  0  0  0  0  0  0
  -16.1607    3.2795  -15.9780 C   0  0  0  0  0  0  0  0  0  0  0  0
  -15.2071    2.3348  -15.5572 C   0  0  0  0  0  0  0  0  0  0  0  0
  -15.2803    1.5739  -14.3627 C   0  0  0  0  0  0  0  0  0  0  0  0
  -14.3004    0.6387  -14.0105 C   0  0  0  0  0  0  0  0  0  0  0  0
  -17.2542    3.5650  -15.1318 N   0  0  0  0  0  0  0  0  0  0  0  0
  -17.3883    4.5634  -15.0301 H   0  0  0  0  0  0  0  0  0  0  0  0
  -18.4008    2.8019  -14.8618 C   0  0  0  0  0  0  0  0  0  0  0  0
  -18.4176    1.4586  -15.2280 C   0  0  0  0  0  0  0  0  0  0  0  0
  -19.5915    0.7068  -15.1504 C   0  0  0  0  0  0  0  0  0  0  0  0
  -20.8066    1.2761  -14.7453 C   0  0  0  0  0  0  0  0  0  0  0  0
  -20.8117    2.6349  -14.3791 C   0  0  0  0  0  0  0  0  0  0  0  0
  -22.0313    3.3995  -13.9393 C   0  0  0  0  0  0  0  0  0  0  0  0
  -19.6009    3.3632  -14.4181 C   0  0  0  0  0  0  0  0  0  0  0  0
  -22.0047    0.5274  -14.7509 N   0  0  0  0  0  0  0  0  0  0  0  0
  -22.5946   -0.1121  -13.6860 C   0  0  0  0  0  0  0  0  0  0  0  0
  -22.2484   -0.0912  -12.5123 O   0  0  0  0  0  0  0  0  0  0  0  0
  -22.4858    0.3888  -15.6262 H   0  0  0  0  0  0  0  0  0  0  0  0
  -23.6588   -0.8348  -14.1247 O   0  0  0  0  0  0  0  0  0  0  0  0
  -24.5367   -1.2390  -13.0652 C   0  0  0  0  0  0  0  0  0  0  0  0
  -14.5511    0.0137  -12.8202 O   0  0  0  0  0  0  0  0  0  0  0  0
  -15.9111   -0.2714  -12.5028 C   0  0  0  0  0  0  0  0  0  0  0  0
  -12.2852   -0.5557  -14.8469 O   0  0  0  0  0  0  0  0  0  0  0  0
  -12.6461   -1.8838  -15.2205 C   0  0  0  0  0  0  0  0  0  0  0  0
  -12.4179   -2.8778  -14.0850 C   0  0  0  0  0  0  0  0  0  0  0  0
  -13.6161   -3.0663  -13.2363 N   0  0  0  0  0  0  0  0  0  0  0  0
  -16.0050   -3.7218  -13.7221 C   0  0  0  0  0  0  0  0  0  0  0  0
  -14.5200   -4.0221  -13.8866 C   0  0  0  0  0  0  0  0  0  0  0  0
  -13.3257   -3.3526  -11.8217 C   0  0  0  0  0  0  0  0  0  0  0  0
  -11.9649   -3.9793  -11.5325 C   0  0  0  0  0  0  0  0  0  0  0  0
 32 33  1  0  0  0
 33 31  1  0  0  0
 31 34  1  0  0  0
 31 30  1  0  0  0
 34 35  1  0  0  0
 30 29  1  0  0  0
 29 28  1  0  0  0
 28  1  1  0  0  0
  1  2  1  0  0  0
  1 10  2  0  0  0
  2  3  2  0  0  0
  3  4  1  0  0  0
  3  8  1  0  0  0
  4  5  2  0  0  0
  5  6  1  0  0  0
  6  7  2  0  0  0
  7 11  1  0  0  0
  7  8  1  0  0  0
 11 13  1  0  0  0
 11 12  1  0  0  0
 13 14  1  0  0  0
 13 19  2  0  0  0
 14 15  2  0  0  0
 15 16  1  0  0  0
 16 20  1  0  0  0
 16 17  2  0  0  0
 20 21  1  0  0  0
 20 23  1  0  0  0
 21 22  2  0  0  0
 21 24  1  0  0  0
 24 25  1  0  0  0
 17 18  1  0  0  0
 17 19  1  0  0  0
  8  9  2  0  0  0
  9 10  1  0  0  0
 10 26  1  0  0  0
 26 27  1  0  0  0
M  END
> <minimizedAffinity>
-6.85731

$$$$
