CHEMBL3960877


 38 41  0  0  0  0  0  0  0  0999 V2000
  -28.1674   -2.0361   -8.6381 N   0  0  0  0  0  0  0  0  0  0  0  0
  -28.7703   -3.2772   -8.1636 C   0  0  0  0  0  0  0  0  0  0  0  0
  -29.8777   -3.0879   -7.3403 C   0  0  0  0  0  0  0  0  0  0  0  0
  -30.2530   -4.0610   -6.4345 C   0  0  0  0  0  0  0  0  0  0  0  0
  -29.6503   -5.2941   -6.4106 C   0  0  0  0  0  0  0  0  0  0  0  0
  -30.0236   -6.0313   -5.3568 N   0  0  0  0  0  0  0  0  0  0  0  0
  -29.5992   -7.2984   -5.3306 C   0  0  0  0  0  0  0  0  0  0  0  0
  -28.8790   -7.8515   -6.3663 C   0  0  0  0  0  0  0  0  0  0  0  0
  -28.4030   -7.0688   -7.4038 N   0  0  0  0  0  0  0  0  0  0  0  0
  -28.7461   -5.7039   -7.4109 C   0  0  0  0  0  0  0  0  0  0  0  0
  -28.2749   -4.6141   -8.2747 C   0  0  0  0  0  0  0  0  0  0  0  0
  -28.7507   -9.3062   -6.3317 C   0  0  0  0  0  0  0  0  0  0  0  0
  -29.5311  -10.2811   -5.6535 C   0  0  0  0  0  0  0  0  0  0  0  0
  -28.9800  -11.5025   -5.6817 N   0  0  0  0  0  0  0  0  0  0  0  0
  -27.8410  -11.3110   -6.3680 N   0  0  0  0  0  0  0  0  0  0  0  0
  -27.1294  -12.4275   -6.9453 C   0  0  0  0  0  0  0  0  0  0  0  0
  -27.5716   -9.9885   -6.5900 C   0  0  0  0  0  0  0  0  0  0  0  0
  -25.3924   -1.5968  -11.1281 C   0  0  0  0  0  0  0  0  0  0  0  0
  -26.0831   -1.7207  -12.3333 C   0  0  0  0  0  0  0  0  0  0  0  0
  -27.4663   -1.8842  -12.3288 C   0  0  0  0  0  0  0  0  0  0  0  0
  -28.1603   -1.9286  -11.1122 C   0  0  0  0  0  0  0  0  0  0  0  0
  -27.5088   -1.8157   -9.8759 C   0  0  0  0  0  0  0  0  0  0  0  0
  -26.1087   -1.6262   -9.9115 C   0  0  0  0  0  0  0  0  0  0  0  0
  -23.2558   -1.9007  -12.1627 C   0  0  0  0  0  0  0  0  0  0  0  0
  -24.0262   -1.4693  -11.0348 O   0  0  0  0  0  0  0  0  0  0  0  0
  -28.2470   -2.0422  -13.4433 O   0  0  0  0  0  0  0  0  0  0  0  0
  -27.6688   -1.6713  -14.6905 C   0  0  0  0  0  0  0  0  0  0  0  0
  -27.5515   -1.3726   -7.4206 C   0  0  0  0  0  0  0  0  0  0  0  0
  -28.2274   -0.1373   -6.7862 C   0  0  0  0  0  0  0  0  0  0  0  0
  -28.1322    0.0561   -5.2613 C   0  0  0  0  0  0  0  0  0  0  0  0
  -29.0270   -0.9385   -4.6186 N   0  0  0  0  0  0  0  0  0  0  0  0
  -29.6261   -1.3444   -5.3412 H   0  0  0  0  0  0  0  0  0  0  0  0
  -28.2702   -2.0550   -3.9967 C   0  0  0  0  0  0  0  0  0  0  0  0
  -29.1960   -3.0014   -3.2032 C   0  0  0  0  0  0  0  0  0  0  0  0
  -28.7787   -4.2944   -3.0771 N   0  0  0  0  0  0  0  0  0  0  0  0
  -30.2515   -2.6336   -2.7028 O   0  0  0  0  0  0  0  0  0  0  0  0
  -28.0786   -4.6322   -3.7236 H   0  0  0  0  0  0  0  0  0  0  0  0
  -29.4322   -4.9508   -2.6672 H   0  0  0  0  0  0  0  0  0  0  0  0
 24 25  1  0  0  0
 25 18  1  0  0  0
 18 19  1  0  0  0
 18 23  2  0  0  0
 19 20  2  0  0  0
 20 26  1  0  0  0
 20 21  1  0  0  0
 26 27  1  0  0  0
 21 22  2  0  0  0
 22  1  1  0  0  0
 22 23  1  0  0  0
  1 28  1  0  0  0
  1  2  1  0  0  0
 28 29  1  0  0  0
 29 30  1  0  0  0
 30 31  1  0  0  0
 31 33  1  0  0  0
 31 32  1  0  0  0
 33 34  1  0  0  0
 34 35  1  0  0  0
 34 36  2  0  0  0
 35 37  1  0  0  0
 35 38  1  0  0  0
  2  3  1  0  0  0
  2 11  2  0  0  0
  3  4  2  0  0  0
  4  5  1  0  0  0
  5  6  1  0  0  0
  5 10  2  0  0  0
  6  7  2  0  0  0
  7  8  1  0  0  0
  8 12  1  0  0  0
  8  9  2  0  0  0
 12 13  1  0  0  0
 12 17  2  0  0  0
 13 14  2  0  0  0
 14 15  1  0  0  0
 15 16  1  0  0  0
 15 17  1  0  0  0
  9 10  1  0  0  0
 10 11  1  0  0  0
M  END
> <minimizedAffinity>
-6.86807

$$$$
