CHEMBL2000832


 40 44  0  0  0  0  0  0  0  0999 V2000
  -29.8171   -3.5630   -6.3924 C   0  0  0  0  0  0  0  0  0  0  0  0
  -30.3595   -4.0229   -7.5975 C   0  0  0  0  0  0  0  0  0  0  0  0
  -30.7924   -5.3397   -7.7355 C   0  0  0  0  0  0  0  0  0  0  0  0
  -30.6567   -6.2497   -6.6774 C   0  0  0  0  0  0  0  0  0  0  0  0
  -30.1393   -5.8349   -5.4545 C   0  0  0  0  0  0  0  0  0  0  0  0
  -29.7417   -4.4863   -5.3262 C   0  0  0  0  0  0  0  0  0  0  0  0
  -29.9074   -6.7116   -4.3755 N   0  0  0  0  0  0  0  0  0  0  0  0
  -29.2140   -7.9363   -4.4877 C   0  0  0  0  0  0  0  0  0  0  0  0
  -28.3656   -8.3064   -3.4271 C   0  0  0  0  0  0  0  0  0  0  0  0
  -27.5819   -9.4615   -3.4911 C   0  0  0  0  0  0  0  0  0  0  0  0
  -27.6412  -10.2859   -4.6146 C   0  0  0  0  0  0  0  0  0  0  0  0
  -28.5185   -9.9606   -5.6530 C   0  0  0  0  0  0  0  0  0  0  0  0
  -29.3201   -8.8071   -5.5860 C   0  0  0  0  0  0  0  0  0  0  0  0
  -30.2732   -8.6800   -6.6076 N   0  0  0  0  0  0  0  0  0  0  0  0
  -31.0735   -7.6311   -6.9617 C   0  0  0  0  0  0  0  0  0  0  0  0
  -32.0492   -7.8334   -7.6853 O   0  0  0  0  0  0  0  0  0  0  0  0
  -29.6929   -6.2193   -3.5142 H   0  0  0  0  0  0  0  0  0  0  0  0
  -30.4935   -9.5084   -7.1454 H   0  0  0  0  0  0  0  0  0  0  0  0
  -29.7514    0.2052   -5.7885 C   0  0  0  0  0  0  0  0  0  0  0  0
  -30.1985   -1.1179   -5.9020 C   0  0  0  0  0  0  0  0  0  0  0  0
  -29.3270   -2.1705   -6.2536 C   0  0  0  0  0  0  0  0  0  0  0  0
  -27.9725   -1.8502   -6.4560 C   0  0  0  0  0  0  0  0  0  0  0  0
  -27.5059   -0.5401   -6.3272 C   0  0  0  0  0  0  0  0  0  0  0  0
  -28.3969    0.4788   -6.0051 C   0  0  0  0  0  0  0  0  0  0  0  0
  -27.9461    1.7671   -5.9008 O   0  0  0  0  0  0  0  0  0  0  0  0
  -26.9984    1.7892   -6.1039 H   0  0  0  0  0  0  0  0  0  0  0  0
  -31.2919    1.8718   -6.5249 C   0  0  0  0  0  0  0  0  0  0  0  0
  -30.5454    1.2769   -5.4734 O   0  0  0  0  0  0  0  0  0  0  0  0
  -26.7329  -11.4629   -4.6816 C   0  0  0  0  0  0  0  0  0  0  0  0
  -26.9783  -12.4622   -4.0158 O   0  0  0  0  0  0  0  0  0  0  0  0
  -25.6414  -11.3576   -5.5183 N   0  0  0  0  0  0  0  0  0  0  0  0
  -25.6178  -10.6352   -6.2238 H   0  0  0  0  0  0  0  0  0  0  0  0
  -24.7261  -12.4659   -5.6795 C   0  0  0  0  0  0  0  0  0  0  0  0
  -23.5012  -12.2960   -4.8182 C   0  0  0  0  0  0  0  0  0  0  0  0
  -22.2440  -12.0547   -5.3917 C   0  0  0  0  0  0  0  0  0  0  0  0
  -21.1027  -11.9463   -4.5884 C   0  0  0  0  0  0  0  0  0  0  0  0
  -21.2092  -12.0777   -3.2049 C   0  0  0  0  0  0  0  0  0  0  0  0
  -22.4535  -12.3147   -2.6355 C   0  0  0  0  0  0  0  0  0  0  0  0
  -22.5572  -12.4434   -1.3063 F   0  0  0  0  0  0  0  0  0  0  0  0
  -23.5937  -12.4275   -3.4242 C   0  0  0  0  0  0  0  0  0  0  0  0
 27 28  1  0  0  0
 28 19  1  0  0  0
 19 20  1  0  0  0
 19 24  2  0  0  0
 20 21  2  0  0  0
 21  1  1  0  0  0
 21 22  1  0  0  0
  1  2  1  0  0  0
  1  6  2  0  0  0
  2  3  2  0  0  0
  3  4  1  0  0  0
  4  5  2  0  0  0
  4 15  1  0  0  0
  5  6  1  0  0  0
  5  7  1  0  0  0
  7  8  1  0  0  0
  7 17  1  0  0  0
  8  9  1  0  0  0
  8 13  2  0  0  0
  9 10  2  0  0  0
 10 11  1  0  0  0
 11 29  1  0  0  0
 11 12  2  0  0  0
 29 30  2  0  0  0
 29 31  1  0  0  0
 31 33  1  0  0  0
 31 32  1  0  0  0
 33 34  1  0  0  0
 34 35  1  0  0  0
 34 40  2  0  0  0
 35 36  2  0  0  0
 36 37  1  0  0  0
 37 38  2  0  0  0
 38 39  1  0  0  0
 38 40  1  0  0  0
 12 13  1  0  0  0
 13 14  1  0  0  0
 14 15  1  0  0  0
 14 18  1  0  0  0
 15 16  2  0  0  0
 22 23  2  0  0  0
 23 24  1  0  0  0
 24 25  1  0  0  0
 25 26  1  0  0  0
M  END
> <minimizedAffinity>
-8.61351

$$$$
