CHEMBL3977041


 38 41  0  0  0  0  0  0  0  0999 V2000
  -27.4050   -1.9506   -5.1870 C   0  0  0  0  0  0  0  0  0  0  0  0
  -28.0634   -3.2471   -5.5729 C   0  0  0  0  0  0  0  0  0  0  0  0
  -28.1386   -4.2391   -4.5697 C   0  0  0  0  0  0  0  0  0  0  0  0
  -28.8668   -5.4176   -4.7506 C   0  0  0  0  0  0  0  0  0  0  0  0
  -29.4381   -5.6624   -5.9890 C   0  0  0  0  0  0  0  0  0  0  0  0
  -29.3164   -4.7203   -7.0136 C   0  0  0  0  0  0  0  0  0  0  0  0
  -28.6348   -3.5024   -6.8355 C   0  0  0  0  0  0  0  0  0  0  0  0
  -28.5101   -2.5510   -7.8989 N   0  0  0  0  0  0  0  0  0  0  0  0
  -27.7718   -2.7401   -9.0639 C   0  0  0  0  0  0  0  0  0  0  0  0
  -27.1609   -3.7593   -9.3656 O   0  0  0  0  0  0  0  0  0  0  0  0
  -27.7224   -1.5954   -9.8583 N   0  0  0  0  0  0  0  0  0  0  0  0
  -28.9531   -1.6600   -7.7684 H   0  0  0  0  0  0  0  0  0  0  0  0
  -27.7322   -0.7289   -9.3396 H   0  0  0  0  0  0  0  0  0  0  0  0
  -26.9550   -1.5933  -11.0561 C   0  0  0  0  0  0  0  0  0  0  0  0
  -27.6150   -1.7376  -12.2746 C   0  0  0  0  0  0  0  0  0  0  0  0
  -26.8938   -1.6410  -13.4614 C   0  0  0  0  0  0  0  0  0  0  0  0
  -27.5443   -1.7058  -14.6305 F   0  0  0  0  0  0  0  0  0  0  0  0
  -25.5150   -1.4626  -13.4625 C   0  0  0  0  0  0  0  0  0  0  0  0
  -24.8239   -1.3716  -12.2483 C   0  0  0  0  0  0  0  0  0  0  0  0
  -25.5597   -1.4210  -11.0468 C   0  0  0  0  0  0  0  0  0  0  0  0
  -23.3206   -1.2330  -12.2271 C   0  0  0  0  0  0  0  0  0  0  0  0
  -22.7248   -1.9766  -11.2510 F   0  0  0  0  0  0  0  0  0  0  0  0
  -22.7315   -1.6121  -13.3926 F   0  0  0  0  0  0  0  0  0  0  0  0
  -22.9227    0.0502  -12.0017 F   0  0  0  0  0  0  0  0  0  0  0  0
  -29.0427   -6.3786   -3.7750 O   0  0  0  0  0  0  0  0  0  0  0  0
  -28.6573   -7.6792   -4.0419 C   0  0  0  0  0  0  0  0  0  0  0  0
  -29.4771   -8.7788   -3.8078 C   0  0  0  0  0  0  0  0  0  0  0  0
  -28.9422  -10.0290   -4.0066 C   0  0  0  0  0  0  0  0  0  0  0  0
  -27.7027  -10.2317   -4.4855 N   0  0  0  0  0  0  0  0  0  0  0  0
  -26.9404   -9.1721   -4.8027 C   0  0  0  0  0  0  0  0  0  0  0  0
  -27.3852   -7.8692   -4.5924 C   0  0  0  0  0  0  0  0  0  0  0  0
  -25.6601   -9.3855   -5.3447 N   0  0  0  0  0  0  0  0  0  0  0  0
  -24.5833   -9.8434   -4.6078 C   0  0  0  0  0  0  0  0  0  0  0  0
  -24.5588  -10.1045   -3.4133 O   0  0  0  0  0  0  0  0  0  0  0  0
  -25.5262   -9.1756   -6.3189 H   0  0  0  0  0  0  0  0  0  0  0  0
  -23.2941  -10.0165   -5.3416 C   0  0  0  0  0  0  0  0  0  0  0  0
  -23.1476  -11.1690   -6.3087 C   0  0  0  0  0  0  0  0  0  0  0  0
  -22.2425  -11.0688   -5.1144 C   0  0  0  0  0  0  0  0  0  0  0  0
  1  2  1  0  0  0
  2  3  1  0  0  0
  2  7  2  0  0  0
  3  4  2  0  0  0
  4 25  1  0  0  0
  4  5  1  0  0  0
 25 26  1  0  0  0
 26 27  1  0  0  0
 26 31  2  0  0  0
 27 28  2  0  0  0
 28 29  1  0  0  0
 29 30  2  0  0  0
 30 32  1  0  0  0
 30 31  1  0  0  0
 32 33  1  0  0  0
 32 35  1  0  0  0
 33 34  2  0  0  0
 33 36  1  0  0  0
 36 37  1  0  0  0
 36 38  1  0  0  0
 37 38  1  0  0  0
  5  6  2  0  0  0
  6  7  1  0  0  0
  7  8  1  0  0  0
  8  9  1  0  0  0
  8 12  1  0  0  0
  9 10  2  0  0  0
  9 11  1  0  0  0
 11 14  1  0  0  0
 11 13  1  0  0  0
 14 15  1  0  0  0
 14 20  2  0  0  0
 15 16  2  0  0  0
 16 17  1  0  0  0
 16 18  1  0  0  0
 18 19  2  0  0  0
 19 21  1  0  0  0
 19 20  1  0  0  0
 21 22  1  0  0  0
 21 23  1  0  0  0
 21 24  1  0  0  0
M  END
> <minimizedAffinity>
-9.84083

$$$$
