CHEMBL428534


 31 34  0  0  0  0  0  0  0  0999 V2000
  -29.9213   -5.2559   -4.8548 C   0  0  0  0  0  0  0  0  0  0  0  0
  -29.4511   -6.5644   -4.8058 C   0  0  0  0  0  0  0  0  0  0  0  0
  -29.0831   -7.2625   -5.9676 C   0  0  0  0  0  0  0  0  0  0  0  0
  -28.5715   -8.5628   -5.9240 C   0  0  0  0  0  0  0  0  0  0  0  0
  -28.1359   -9.1768   -7.0362 N   0  0  0  0  0  0  0  0  0  0  0  0
  -28.2448   -8.4974   -8.1783 C   0  0  0  0  0  0  0  0  0  0  0  0
  -28.7589   -7.2682   -8.3309 N   0  0  0  0  0  0  0  0  0  0  0  0
  -29.1646   -6.6492   -7.2132 C   0  0  0  0  0  0  0  0  0  0  0  0
  -29.6811   -5.3532   -7.2693 C   0  0  0  0  0  0  0  0  0  0  0  0
  -30.0631   -4.6434   -6.1173 C   0  0  0  0  0  0  0  0  0  0  0  0
  -31.5645   -4.3451   -3.3145 C   0  0  0  0  0  0  0  0  0  0  0  0
  -30.2176   -4.5617   -3.7174 O   0  0  0  0  0  0  0  0  0  0  0  0
  -28.5272   -9.2555   -4.6754 N   0  0  0  0  0  0  0  0  0  0  0  0
  -29.1880  -10.0341   -4.7126 H   0  0  0  0  0  0  0  0  0  0  0  0
  -27.3226   -9.6492   -4.0551 C   0  0  0  0  0  0  0  0  0  0  0  0
  -26.2065   -8.8105   -4.0986 C   0  0  0  0  0  0  0  0  0  0  0  0
  -24.9613   -9.2634   -3.6679 C   0  0  0  0  0  0  0  0  0  0  0  0
  -24.8172  -10.5605   -3.1665 C   0  0  0  0  0  0  0  0  0  0  0  0
  -23.4520  -11.1184   -2.8973 C   0  0  0  0  0  0  0  0  0  0  0  0
  -25.9580  -11.3537   -2.9866 C   0  0  0  0  0  0  0  0  0  0  0  0
  -27.1979  -10.8909   -3.4231 C   0  0  0  0  0  0  0  0  0  0  0  0
  -28.2750  -11.6828   -3.2931 F   0  0  0  0  0  0  0  0  0  0  0  0
  -30.5250   -3.3673   -6.4007 O   0  0  0  0  0  0  0  0  0  0  0  0
  -29.5543   -2.3237   -6.3549 C   0  0  0  0  0  0  0  0  0  0  0  0
  -29.6920   -1.3872   -5.1394 C   0  0  0  0  0  0  0  0  0  0  0  0
  -29.9986    0.0713   -5.5127 C   0  0  0  0  0  0  0  0  0  0  0  0
  -28.8045    0.7614   -6.1734 C   0  0  0  0  0  0  0  0  0  0  0  0
  -27.6106    0.7042   -5.3251 N   0  0  0  0  0  0  0  0  0  0  0  0
  -27.2393   -0.6774   -5.0207 C   0  0  0  0  0  0  0  0  0  0  0  0
  -28.3783   -1.4367   -4.3302 C   0  0  0  0  0  0  0  0  0  0  0  0
  -27.8044    1.1943   -4.4513 H   0  0  0  0  0  0  0  0  0  0  0  0
 11 12  1  0  0  0
 12  1  1  0  0  0
  1  2  1  0  0  0
  1 10  2  0  0  0
  2  3  2  0  0  0
  3  4  1  0  0  0
  3  8  1  0  0  0
  4 13  1  0  0  0
  4  5  2  0  0  0
 13 15  1  0  0  0
 13 14  1  0  0  0
 15 16  1  0  0  0
 15 21  2  0  0  0
 16 17  2  0  0  0
 17 18  1  0  0  0
 18 19  1  0  0  0
 18 20  2  0  0  0
 20 21  1  0  0  0
 21 22  1  0  0  0
  5  6  1  0  0  0
  6  7  2  0  0  0
  7  8  1  0  0  0
  8  9  2  0  0  0
  9 10  1  0  0  0
 10 23  1  0  0  0
 23 24  1  0  0  0
 24 25  1  0  0  0
 25 26  1  0  0  0
 25 30  1  0  0  0
 26 27  1  0  0  0
 27 28  1  0  0  0
 28 29  1  0  0  0
 28 31  1  0  0  0
 29 30  1  0  0  0
M  END
> <minimizedAffinity>
-8.31613

$$$$
