CHEMBL2032013


 42 47  0  0  0  0  0  0  0  0999 V2000
  -13.5095   -4.6396  -15.7637 N   0  0  0  0  0  0  0  0  0  0  0  0
  -12.4318   -5.4472  -15.4547 C   0  0  0  0  0  0  0  0  0  0  0  0
  -11.5210   -5.1600  -14.6822 O   0  0  0  0  0  0  0  0  0  0  0  0
  -14.2396   -5.0109  -16.3601 H   0  0  0  0  0  0  0  0  0  0  0  0
  -12.3937   -6.7853  -16.0975 C   0  0  0  0  0  0  0  0  0  0  0  0
  -12.9186   -7.9500  -15.6389 C   0  0  0  0  0  0  0  0  0  0  0  0
  -13.0024   -8.9074  -16.6686 N   0  0  0  0  0  0  0  0  0  0  0  0
  -13.0323  -10.3609  -16.5257 C   0  0  0  0  0  0  0  0  0  0  0  0
  -12.2729   -8.3874  -17.7550 N   0  0  0  0  0  0  0  0  0  0  0  0
  -11.8797   -7.0807  -17.4591 C   0  0  0  0  0  0  0  0  0  0  0  0
  -11.2429   -6.2824  -18.1299 O   0  0  0  0  0  0  0  0  0  0  0  0
  -13.3888   -8.2700  -14.2187 C   0  0  0  0  0  0  0  0  0  0  0  0
  -14.5316   -7.3507  -13.7784 C   0  0  0  0  0  0  0  0  0  0  0  0
  -14.8802   -7.5658  -12.3147 C   0  0  0  0  0  0  0  0  0  0  0  0
  -13.7289   -7.4087  -11.4949 O   0  0  0  0  0  0  0  0  0  0  0  0
  -12.7567   -8.4168  -11.7378 C   0  0  0  0  0  0  0  0  0  0  0  0
  -12.2564   -8.4005  -13.1763 C   0  0  0  0  0  0  0  0  0  0  0  0
  -12.2604   -8.9760  -19.0340 C   0  0  0  0  0  0  0  0  0  0  0  0
  -13.3681   -8.8261  -19.8669 C   0  0  0  0  0  0  0  0  0  0  0  0
  -13.3480   -9.3323  -21.1678 C   0  0  0  0  0  0  0  0  0  0  0  0
  -12.2385  -10.0406  -21.6276 C   0  0  0  0  0  0  0  0  0  0  0  0
  -11.1343  -10.2207  -20.7918 C   0  0  0  0  0  0  0  0  0  0  0  0
  -11.1355   -9.6729  -19.5046 C   0  0  0  0  0  0  0  0  0  0  0  0
  -14.0943   -0.7558  -14.2633 C   0  0  0  0  0  0  0  0  0  0  0  0
  -14.7229   -1.8415  -13.6538 C   0  0  0  0  0  0  0  0  0  0  0  0
  -14.5154   -3.1452  -14.1425 C   0  0  0  0  0  0  0  0  0  0  0  0
  -13.6811   -3.3372  -15.2400 C   0  0  0  0  0  0  0  0  0  0  0  0
  -13.0464   -2.2952  -15.8057 N   0  0  0  0  0  0  0  0  0  0  0  0
  -13.2299   -1.0488  -15.3038 C   0  0  0  0  0  0  0  0  0  0  0  0
  -14.4114    0.5036  -13.7992 O   0  0  0  0  0  0  0  0  0  0  0  0
  -18.9794    2.4342  -15.2871 C   0  0  0  0  0  0  0  0  0  0  0  0
  -18.6535    1.4829  -14.3354 C   0  0  0  0  0  0  0  0  0  0  0  0
  -17.3207    1.2167  -14.0511 C   0  0  0  0  0  0  0  0  0  0  0  0
  -16.2785    1.8071  -14.8006 C   0  0  0  0  0  0  0  0  0  0  0  0
  -14.9115    1.4667  -14.6611 C   0  0  0  0  0  0  0  0  0  0  0  0
  -13.9485    2.1790  -15.3708 C   0  0  0  0  0  0  0  0  0  0  0  0
  -14.3775    3.1565  -16.2476 C   0  0  0  0  0  0  0  0  0  0  0  0
  -15.6765    3.4521  -16.4653 N   0  0  0  0  0  0  0  0  0  0  0  0
  -16.6143    2.7893  -15.7633 C   0  0  0  0  0  0  0  0  0  0  0  0
  -17.9547    3.0782  -15.9884 C   0  0  0  0  0  0  0  0  0  0  0  0
  -21.1152    2.9833  -14.4796 C   0  0  0  0  0  0  0  0  0  0  0  0
  -20.2611    2.7921  -15.6065 O   0  0  0  0  0  0  0  0  0  0  0  0
 41 42  1  0  0  0
 42 31  1  0  0  0
 31 32  1  0  0  0
 31 40  2  0  0  0
 32 33  2  0  0  0
 33 34  1  0  0  0
 34 35  1  0  0  0
 34 39  2  0  0  0
 35 30  1  0  0  0
 35 36  2  0  0  0
 30 24  1  0  0  0
 24 25  1  0  0  0
 24 29  2  0  0  0
 25 26  2  0  0  0
 26 27  1  0  0  0
 27  1  1  0  0  0
 27 28  2  0  0  0
  1  2  1  0  0  0
  1  4  1  0  0  0
  2  3  2  0  0  0
  2  5  1  0  0  0
  5  6  2  0  0  0
  5 10  1  0  0  0
  6 12  1  0  0  0
  6  7  1  0  0  0
 12 13  1  0  0  0
 12 17  1  0  0  0
 13 14  1  0  0  0
 14 15  1  0  0  0
 15 16  1  0  0  0
 16 17  1  0  0  0
  7  8  1  0  0  0
  7  9  1  0  0  0
  9 18  1  0  0  0
  9 10  1  0  0  0
 18 19  1  0  0  0
 18 23  2  0  0  0
 19 20  2  0  0  0
 20 21  1  0  0  0
 21 22  2  0  0  0
 22 23  1  0  0  0
 10 11  2  0  0  0
 28 29  1  0  0  0
 36 37  1  0  0  0
 37 38  2  0  0  0
 38 39  1  0  0  0
 39 40  1  0  0  0
M  END
> <minimizedAffinity>
-7.42435

$$$$
