CHEMBL3927422


 38 40  0  0  0  0  0  0  0  0999 V2000
  -16.6115    1.5923  -14.8959 C   0  0  0  0  0  0  0  0  0  0  0  0
  -16.5524    1.1371  -13.5837 C   0  0  0  0  0  0  0  0  0  0  0  0
  -15.6126    0.1701  -13.2130 C   0  0  0  0  0  0  0  0  0  0  0  0
  -14.7193   -0.3722  -14.1438 C   0  0  0  0  0  0  0  0  0  0  0  0
  -14.7955    0.0685  -15.4710 C   0  0  0  0  0  0  0  0  0  0  0  0
  -15.7253    1.0489  -15.8401 C   0  0  0  0  0  0  0  0  0  0  0  0
  -13.7296   -1.3261  -13.7965 N   0  0  0  0  0  0  0  0  0  0  0  0
  -13.9722   -2.6095  -13.3543 C   0  0  0  0  0  0  0  0  0  0  0  0
  -15.0814   -3.1366  -13.2765 O   0  0  0  0  0  0  0  0  0  0  0  0
  -12.8217   -3.2783  -12.9643 N   0  0  0  0  0  0  0  0  0  0  0  0
  -12.7665   -1.0636  -13.9329 H   0  0  0  0  0  0  0  0  0  0  0  0
  -12.1710   -2.6953  -12.4563 H   0  0  0  0  0  0  0  0  0  0  0  0
  -12.9567   -4.5999  -12.4580 C   0  0  0  0  0  0  0  0  0  0  0  0
  -12.8852   -5.7133  -13.3079 C   0  0  0  0  0  0  0  0  0  0  0  0
  -13.1317   -7.0067  -12.8213 C   0  0  0  0  0  0  0  0  0  0  0  0
  -13.4605   -7.1687  -11.4648 C   0  0  0  0  0  0  0  0  0  0  0  0
  -13.5123   -6.0632  -10.6102 C   0  0  0  0  0  0  0  0  0  0  0  0
  -13.2379   -4.7921  -11.1064 C   0  0  0  0  0  0  0  0  0  0  0  0
  -13.3266   -3.7328  -10.2873 F   0  0  0  0  0  0  0  0  0  0  0  0
  -13.0567   -8.2049  -13.7398 C   0  0  0  0  0  0  0  0  0  0  0  0
  -12.4118   -9.2743  -13.2002 F   0  0  0  0  0  0  0  0  0  0  0  0
  -14.2948   -8.6573  -14.0886 F   0  0  0  0  0  0  0  0  0  0  0  0
  -12.4194   -7.9298  -14.9107 F   0  0  0  0  0  0  0  0  0  0  0  0
  -17.6511    2.5910  -15.2561 C   0  0  0  0  0  0  0  0  0  0  0  0
  -17.2729    3.7575  -15.8288 C   0  0  0  0  0  0  0  0  0  0  0  0
  -21.7941    1.7520  -14.2555 C   0  0  0  0  0  0  0  0  0  0  0  0
  -20.9419    0.7528  -14.7095 C   0  0  0  0  0  0  0  0  0  0  0  0
  -19.6159    1.0516  -15.0402 C   0  0  0  0  0  0  0  0  0  0  0  0
  -19.0975    2.3521  -14.9304 C   0  0  0  0  0  0  0  0  0  0  0  0
  -19.9660    3.3496  -14.4568 C   0  0  0  0  0  0  0  0  0  0  0  0
  -21.2981    3.0512  -14.1300 C   0  0  0  0  0  0  0  0  0  0  0  0
  -23.4056    0.4043  -13.1554 C   0  0  0  0  0  0  0  0  0  0  0  0
  -23.1031    1.5819  -13.9000 O   0  0  0  0  0  0  0  0  0  0  0  0
  -15.8945    4.1385  -16.2228 C   0  0  0  0  0  0  0  0  0  0  0  0
  -15.6643    4.0726  -17.5627 N   0  0  0  0  0  0  0  0  0  0  0  0
  -15.0062    4.4587  -15.4485 O   0  0  0  0  0  0  0  0  0  0  0  0
  -16.3696    3.8612  -18.2509 H   0  0  0  0  0  0  0  0  0  0  0  0
  -14.7440    4.3480  -17.8807 H   0  0  0  0  0  0  0  0  0  0  0  0
 32 33  1  0  0  0
 33 26  1  0  0  0
 26 27  1  0  0  0
 26 31  2  0  0  0
 27 28  2  0  0  0
 28 29  1  0  0  0
 29 24  1  0  0  0
 29 30  2  0  0  0
 24 25  2  0  0  0
 24  1  1  0  0  0
 25 34  1  0  0  0
 34 35  1  0  0  0
 34 36  2  0  0  0
 35 37  1  0  0  0
 35 38  1  0  0  0
  1  2  1  0  0  0
  1  6  2  0  0  0
  2  3  2  0  0  0
  3  4  1  0  0  0
  4  7  1  0  0  0
  4  5  2  0  0  0
  7  8  1  0  0  0
  7 11  1  0  0  0
  8  9  2  0  0  0
  8 10  1  0  0  0
 10 13  1  0  0  0
 10 12  1  0  0  0
 13 14  1  0  0  0
 13 18  2  0  0  0
 14 15  2  0  0  0
 15 20  1  0  0  0
 15 16  1  0  0  0
 20 21  1  0  0  0
 20 22  1  0  0  0
 20 23  1  0  0  0
 16 17  2  0  0  0
 17 18  1  0  0  0
 18 19  1  0  0  0
  5  6  1  0  0  0
 30 31  1  0  0  0
M  END
> <minimizedAffinity>
-9.32712

$$$$
