CHEMBL3914671


 31 34  0  0  0  0  0  0  0  0999 V2000
  -17.8983    1.1553  -15.2348 C   0  0  0  0  0  0  0  0  0  0  0  0
  -19.1723    0.6472  -14.9370 C   0  0  0  0  0  0  0  0  0  0  0  0
  -20.2662    1.5096  -14.6723 C   0  0  0  0  0  0  0  0  0  0  0  0
  -21.5693    1.1119  -14.3081 C   0  0  0  0  0  0  0  0  0  0  0  0
  -22.5693    2.0009  -14.1472 N   0  0  0  0  0  0  0  0  0  0  0  0
  -22.2650    3.2879  -14.3143 C   0  0  0  0  0  0  0  0  0  0  0  0
  -21.0571    3.7764  -14.6105 N   0  0  0  0  0  0  0  0  0  0  0  0
  -20.0729    2.8896  -14.7802 C   0  0  0  0  0  0  0  0  0  0  0  0
  -18.7970    3.3736  -15.0405 C   0  0  0  0  0  0  0  0  0  0  0  0
  -17.6805    2.5382  -15.2033 C   0  0  0  0  0  0  0  0  0  0  0  0
  -16.2482   -0.2169  -14.2375 C   0  0  0  0  0  0  0  0  0  0  0  0
  -16.9311    0.2061  -15.4168 O   0  0  0  0  0  0  0  0  0  0  0  0
  -21.8445   -0.2622  -14.0454 N   0  0  0  0  0  0  0  0  0  0  0  0
  -20.9878   -0.7038  -13.7224 H   0  0  0  0  0  0  0  0  0  0  0  0
  -22.9851   -0.7182  -13.3412 C   0  0  0  0  0  0  0  0  0  0  0  0
  -22.9125   -0.9774  -11.9643 C   0  0  0  0  0  0  0  0  0  0  0  0
  -24.0149   -1.4624  -11.2584 C   0  0  0  0  0  0  0  0  0  0  0  0
  -25.2176   -1.6948  -11.9239 C   0  0  0  0  0  0  0  0  0  0  0  0
  -26.5339   -2.3274  -11.0010 Cl  0  0  0  0  0  0  0  0  0  0  0  0
  -25.3151   -1.4198  -13.2925 C   0  0  0  0  0  0  0  0  0  0  0  0
  -26.7762   -1.6856  -14.1794 Cl  0  0  0  0  0  0  0  0  0  0  0  0
  -24.2063   -0.9229  -13.9947 C   0  0  0  0  0  0  0  0  0  0  0  0
  -16.3895    3.0155  -15.2975 O   0  0  0  0  0  0  0  0  0  0  0  0
  -16.2061    4.1196  -16.1937 C   0  0  0  0  0  0  0  0  0  0  0  0
  -14.7258    4.5135  -16.3561 C   0  0  0  0  0  0  0  0  0  0  0  0
  -14.1434    4.3052  -17.7737 C   0  0  0  0  0  0  0  0  0  0  0  0
  -15.1371    4.6604  -18.8892 C   0  0  0  0  0  0  0  0  0  0  0  0
  -14.7516    6.0594  -19.3808 C   0  0  0  0  0  0  0  0  0  0  0  0
  -13.5348    6.4550  -18.5667 C   0  0  0  0  0  0  0  0  0  0  0  0
  -13.0059    5.1624  -18.1544 N   0  0  0  0  0  0  0  0  0  0  0  0
  -11.8882    5.2511  -17.2390 C   0  0  0  0  0  0  0  0  0  0  0  0
 11 12  1  0  0  0
 12  1  1  0  0  0
  1  2  1  0  0  0
  1 10  2  0  0  0
  2  3  2  0  0  0
  3  4  1  0  0  0
  3  8  1  0  0  0
  4 13  1  0  0  0
  4  5  2  0  0  0
 13 15  1  0  0  0
 13 14  1  0  0  0
 15 16  1  0  0  0
 15 22  2  0  0  0
 16 17  2  0  0  0
 17 18  1  0  0  0
 18 19  1  0  0  0
 18 20  2  0  0  0
 20 21  1  0  0  0
 20 22  1  0  0  0
  5  6  1  0  0  0
  6  7  2  0  0  0
  7  8  1  0  0  0
  8  9  2  0  0  0
  9 10  1  0  0  0
 10 23  1  0  0  0
 23 24  1  0  0  0
 24 25  1  0  0  0
 25 26  1  0  0  0
 26 27  1  0  0  0
 26 30  1  0  0  0
 27 28  1  0  0  0
 28 29  1  0  0  0
 29 30  1  0  0  0
 30 31  1  0  0  0
M  END
> <minimizedAffinity>
-8.59931

$$$$
