CHEMBL3818768


 32 35  0  0  0  0  0  0  0  0999 V2000
  -29.2013   -6.5200   -5.5668 C   0  0  0  0  0  0  0  0  0  0  0  0
  -30.4515   -6.9811   -5.4382 N   0  0  0  0  0  0  0  0  0  0  0  0
  -31.2765   -6.2684   -4.6497 C   0  0  0  0  0  0  0  0  0  0  0  0
  -30.9029   -5.1226   -3.9876 C   0  0  0  0  0  0  0  0  0  0  0  0
  -29.6195   -4.6869   -4.2187 C   0  0  0  0  0  0  0  0  0  0  0  0
  -28.7897   -5.3806   -5.0041 N   0  0  0  0  0  0  0  0  0  0  0  0
  -28.3023   -7.3298   -6.2601 N   0  0  0  0  0  0  0  0  0  0  0  0
  -27.6056   -6.7402   -6.6942 H   0  0  0  0  0  0  0  0  0  0  0  0
  -28.8918   -9.8348   -8.9517 C   0  0  0  0  0  0  0  0  0  0  0  0
  -28.6517   -8.6327   -8.2651 C   0  0  0  0  0  0  0  0  0  0  0  0
  -28.5198   -8.5781   -6.8712 C   0  0  0  0  0  0  0  0  0  0  0  0
  -28.6008   -9.7809   -6.1701 C   0  0  0  0  0  0  0  0  0  0  0  0
  -28.8600  -10.9851   -6.8238 C   0  0  0  0  0  0  0  0  0  0  0  0
  -29.0042  -11.0314   -8.2165 C   0  0  0  0  0  0  0  0  0  0  0  0
  -29.2437  -12.3739   -8.8487 C   0  0  0  0  0  0  0  0  0  0  0  0
  -28.5409   -9.9056  -12.7107 C   0  0  0  0  0  0  0  0  0  0  0  0
  -28.0398  -10.0205  -11.2962 C   0  0  0  0  0  0  0  0  0  0  0  0
  -26.8568  -10.2605  -11.0755 O   0  0  0  0  0  0  0  0  0  0  0  0
  -29.0483   -9.8599  -10.3592 N   0  0  0  0  0  0  0  0  0  0  0  0
  -29.9959   -9.8393  -10.7095 H   0  0  0  0  0  0  0  0  0  0  0  0
  -29.1540   -3.5032   -3.5971 N   0  0  0  0  0  0  0  0  0  0  0  0
  -28.4414   -3.7418   -2.9162 H   0  0  0  0  0  0  0  0  0  0  0  0
  -28.8569   -2.3040   -4.2977 C   0  0  0  0  0  0  0  0  0  0  0  0
  -27.5333   -2.0005   -4.6599 C   0  0  0  0  0  0  0  0  0  0  0  0
  -27.1935   -0.8370   -5.3600 C   0  0  0  0  0  0  0  0  0  0  0  0
  -28.2383    0.0194   -5.6979 C   0  0  0  0  0  0  0  0  0  0  0  0
  -28.2541    1.2200   -6.3598 N   0  0  0  0  0  0  0  0  0  0  0  0
  -29.4814    1.7591   -6.4914 N   0  0  0  0  0  0  0  0  0  0  0  0
  -30.2733    0.8654   -5.8916 C   0  0  0  0  0  0  0  0  0  0  0  0
  -29.5639   -0.2430   -5.3743 C   0  0  0  0  0  0  0  0  0  0  0  0
  -29.8868   -1.4255   -4.6782 C   0  0  0  0  0  0  0  0  0  0  0  0
  -27.4612    1.7189   -6.7469 H   0  0  0  0  0  0  0  0  0  0  0  0
 16 17  1  0  0  0
 17 18  2  0  0  0
 17 19  1  0  0  0
 19  9  1  0  0  0
 19 20  1  0  0  0
  9 10  1  0  0  0
  9 14  2  0  0  0
 10 11  2  0  0  0
 11  7  1  0  0  0
 11 12  1  0  0  0
  7  1  1  0  0  0
  7  8  1  0  0  0
  1  2  1  0  0  0
  1  6  2  0  0  0
  2  3  2  0  0  0
  3  4  1  0  0  0
  4  5  2  0  0  0
  5 21  1  0  0  0
  5  6  1  0  0  0
 21 23  1  0  0  0
 21 22  1  0  0  0
 23 24  1  0  0  0
 23 31  2  0  0  0
 24 25  2  0  0  0
 25 26  1  0  0  0
 26 27  1  0  0  0
 26 30  2  0  0  0
 27 28  1  0  0  0
 27 32  1  0  0  0
 28 29  2  0  0  0
 29 30  1  0  0  0
 30 31  1  0  0  0
 12 13  2  0  0  0
 13 14  1  0  0  0
 14 15  1  0  0  0
M  END
> <minimizedAffinity>
-8.89909

$$$$
