CHEMBL3981584


 31 34  0  0  0  0  0  0  0  0999 V2000
  -29.8249   -6.0956   -7.1858 C   0  0  0  0  0  0  0  0  0  0  0  0
  -29.0939   -7.2337   -7.5058 C   0  0  0  0  0  0  0  0  0  0  0  0
  -29.9876   -8.3375   -7.6186 C   0  0  0  0  0  0  0  0  0  0  0  0
  -29.8800   -9.7137   -7.8802 C   0  0  0  0  0  0  0  0  0  0  0  0
  -31.0287  -10.4444   -7.8657 N   0  0  0  0  0  0  0  0  0  0  0  0
  -32.1969   -9.8198   -7.6217 C   0  0  0  0  0  0  0  0  0  0  0  0
  -32.4072   -8.5192   -7.3664 N   0  0  0  0  0  0  0  0  0  0  0  0
  -31.2525   -7.8365   -7.3757 C   0  0  0  0  0  0  0  0  0  0  0  0
  -31.1469   -6.4958   -7.1490 N   0  0  0  0  0  0  0  0  0  0  0  0
  -31.9438   -5.9001   -6.9869 H   0  0  0  0  0  0  0  0  0  0  0  0
  -28.5146   -2.0830   -6.4608 C   0  0  0  0  0  0  0  0  0  0  0  0
  -29.2666   -2.7641   -5.5007 C   0  0  0  0  0  0  0  0  0  0  0  0
  -29.7111   -4.0667   -5.7523 C   0  0  0  0  0  0  0  0  0  0  0  0
  -29.3975   -4.7146   -6.9555 C   0  0  0  0  0  0  0  0  0  0  0  0
  -28.6542   -4.0144   -7.9176 C   0  0  0  0  0  0  0  0  0  0  0  0
  -28.2119   -2.7090   -7.6742 C   0  0  0  0  0  0  0  0  0  0  0  0
  -27.1761   -0.5513   -5.2506 O   0  0  0  0  0  0  0  0  0  0  0  0
  -27.9991   -0.7310   -6.1437 C   0  0  0  0  0  0  0  0  0  0  0  0
  -28.5134    0.3107   -6.8836 N   0  0  0  0  0  0  0  0  0  0  0  0
  -28.0857    1.6015   -6.4869 O   0  0  0  0  0  0  0  0  0  0  0  0
  -29.4199    0.2580   -7.3364 H   0  0  0  0  0  0  0  0  0  0  0  0
  -27.4130    1.3930   -5.8007 H   0  0  0  0  0  0  0  0  0  0  0  0
  -28.6700  -10.3197   -8.1822 N   0  0  0  0  0  0  0  0  0  0  0  0
  -28.1109  -10.5947   -7.3862 H   0  0  0  0  0  0  0  0  0  0  0  0
  -28.6142  -11.2149   -9.3242 C   0  0  0  0  0  0  0  0  0  0  0  0
  -28.2313  -10.4685  -10.5869 C   0  0  0  0  0  0  0  0  0  0  0  0
  -27.0457   -9.7184  -10.6516 C   0  0  0  0  0  0  0  0  0  0  0  0
  -26.6573   -9.1009  -11.8425 C   0  0  0  0  0  0  0  0  0  0  0  0
  -27.4455   -9.2262  -12.9857 C   0  0  0  0  0  0  0  0  0  0  0  0
  -28.6291   -9.9596  -12.9339 C   0  0  0  0  0  0  0  0  0  0  0  0
  -29.0203  -10.5754  -11.7431 C   0  0  0  0  0  0  0  0  0  0  0  0
 17 18  2  0  0  0
 18 19  1  0  0  0
 18 11  1  0  0  0
 19 20  1  0  0  0
 19 21  1  0  0  0
 20 22  1  0  0  0
 11 12  1  0  0  0
 11 16  2  0  0  0
 12 13  2  0  0  0
 13 14  1  0  0  0
 14  1  1  0  0  0
 14 15  2  0  0  0
  1  2  2  0  0  0
  1  9  1  0  0  0
  2  3  1  0  0  0
  3  4  1  0  0  0
  3  8  2  0  0  0
  4 23  1  0  0  0
  4  5  2  0  0  0
 23 25  1  0  0  0
 23 24  1  0  0  0
 25 26  1  0  0  0
 26 27  1  0  0  0
 26 31  2  0  0  0
 27 28  2  0  0  0
 28 29  1  0  0  0
 29 30  2  0  0  0
 30 31  1  0  0  0
  5  6  1  0  0  0
  6  7  2  0  0  0
  7  8  1  0  0  0
  8  9  1  0  0  0
  9 10  1  0  0  0
 15 16  1  0  0  0
M  END
> <minimizedAffinity>
-8.84897

$$$$
