CHEMBL3746897


 36 40  0  0  0  0  0  0  0  0999 V2000
  -14.1296   -1.6573  -13.6225 C   0  0  0  0  0  0  0  0  0  0  0  0
  -15.5242   -1.6833  -13.6010 C   0  0  0  0  0  0  0  0  0  0  0  0
  -16.2772   -0.5794  -14.0040 C   0  0  0  0  0  0  0  0  0  0  0  0
  -15.5942    0.5454  -14.4899 C   0  0  0  0  0  0  0  0  0  0  0  0
  -14.1966    0.5546  -14.6081 C   0  0  0  0  0  0  0  0  0  0  0  0
  -13.8345    1.7646  -15.2491 C   0  0  0  0  0  0  0  0  0  0  0  0
  -14.9953    2.4349  -15.5459 C   0  0  0  0  0  0  0  0  0  0  0  0
  -16.0776    1.7337  -15.0381 N   0  0  0  0  0  0  0  0  0  0  0  0
  -17.4266    2.0943  -15.2515 C   0  0  0  0  0  0  0  0  0  0  0  0
  -17.7268    2.5731  -16.3354 O   0  0  0  0  0  0  0  0  0  0  0  0
  -18.2216    1.9337  -14.1243 N   0  0  0  0  0  0  0  0  0  0  0  0
  -13.4547   -0.5576  -14.1588 C   0  0  0  0  0  0  0  0  0  0  0  0
  -17.7571    1.9062  -13.2234 H   0  0  0  0  0  0  0  0  0  0  0  0
  -19.6335    2.0944  -14.1394 C   0  0  0  0  0  0  0  0  0  0  0  0
  -20.2165    3.3570  -14.2935 C   0  0  0  0  0  0  0  0  0  0  0  0
  -21.6024    3.5143  -14.3278 C   0  0  0  0  0  0  0  0  0  0  0  0
  -22.4332    2.4080  -14.1943 C   0  0  0  0  0  0  0  0  0  0  0  0
  -21.8840    1.1272  -14.0374 C   0  0  0  0  0  0  0  0  0  0  0  0
  -20.4760    0.9761  -14.0342 C   0  0  0  0  0  0  0  0  0  0  0  0
  -22.8030   -0.0595  -13.8530 C   0  0  0  0  0  0  0  0  0  0  0  0
  -22.1724   -1.2637  -13.9863 F   0  0  0  0  0  0  0  0  0  0  0  0
  -23.3876   -0.0848  -12.6245 F   0  0  0  0  0  0  0  0  0  0  0  0
  -23.8215   -0.0771  -14.7555 F   0  0  0  0  0  0  0  0  0  0  0  0
  -13.3452   -2.7129  -13.2104 O   0  0  0  0  0  0  0  0  0  0  0  0
  -13.1889   -7.2555  -14.8531 C   0  0  0  0  0  0  0  0  0  0  0  0
  -14.4241   -6.4028  -15.1783 C   0  0  0  0  0  0  0  0  0  0  0  0
  -14.2516   -4.9470  -14.7056 C   0  0  0  0  0  0  0  0  0  0  0  0
  -14.4202   -4.8187  -13.2208 C   0  0  0  0  0  0  0  0  0  0  0  0
  -15.1046   -5.7752  -12.4842 C   0  0  0  0  0  0  0  0  0  0  0  0
  -15.2723   -5.6826  -11.1466 N   0  0  0  0  0  0  0  0  0  0  0  0
  -14.7308   -4.6122  -10.5516 C   0  0  0  0  0  0  0  0  0  0  0  0
  -14.0650   -3.6254  -11.1613 N   0  0  0  0  0  0  0  0  0  0  0  0
  -13.9625   -3.7361  -12.5013 C   0  0  0  0  0  0  0  0  0  0  0  0
  -15.6326   -7.0274  -13.1562 C   0  0  0  0  0  0  0  0  0  0  0  0
  -15.6673   -6.9739  -14.6302 N   0  0  0  0  0  0  0  0  0  0  0  0
  -16.4480   -6.3732  -14.8985 H   0  0  0  0  0  0  0  0  0  0  0  0
 26 27  1  0  0  0
 26 35  1  0  0  0
 26 25  1  0  0  0
 27 28  1  0  0  0
 28 29  1  0  0  0
 28 33  2  0  0  0
 29 30  2  0  0  0
 29 34  1  0  0  0
 30 31  1  0  0  0
 31 32  2  0  0  0
 32 33  1  0  0  0
 33 24  1  0  0  0
 24  1  1  0  0  0
  1  2  1  0  0  0
  1 12  2  0  0  0
  2  3  2  0  0  0
  3  4  1  0  0  0
  4  5  2  0  0  0
  4  8  1  0  0  0
  5  6  1  0  0  0
  5 12  1  0  0  0
  6  7  2  0  0  0
  7  8  1  0  0  0
  8  9  1  0  0  0
  9 10  2  0  0  0
  9 11  1  0  0  0
 11 14  1  0  0  0
 11 13  1  0  0  0
 14 15  1  0  0  0
 14 19  2  0  0  0
 15 16  2  0  0  0
 16 17  1  0  0  0
 17 18  2  0  0  0
 18 20  1  0  0  0
 18 19  1  0  0  0
 20 21  1  0  0  0
 20 22  1  0  0  0
 20 23  1  0  0  0
 34 35  1  0  0  0
 35 36  1  0  0  0
M  END
> <minimizedAffinity>
-10.54715

$$$$
