CHEMBL3948744


 38 42  0  0  0  0  0  0  0  0999 V2000
  -29.2411   -6.3202   -5.0512 N   0  0  0  0  0  0  0  0  0  0  0  0
  -29.4210   -6.8143   -6.4149 C   0  0  0  0  0  0  0  0  0  0  0  0
  -30.6782   -7.3634   -6.6271 C   0  0  0  0  0  0  0  0  0  0  0  0
  -30.8499   -8.3636   -7.5240 C   0  0  0  0  0  0  0  0  0  0  0  0
  -29.8338   -8.7253   -8.3547 C   0  0  0  0  0  0  0  0  0  0  0  0
  -29.9965   -9.8836   -8.9906 N   0  0  0  0  0  0  0  0  0  0  0  0
  -29.1449  -10.2979   -9.9125 C   0  0  0  0  0  0  0  0  0  0  0  0
  -28.1856   -9.4129  -10.4046 C   0  0  0  0  0  0  0  0  0  0  0  0
  -27.8619   -8.2924   -9.6227 N   0  0  0  0  0  0  0  0  0  0  0  0
  -28.6589   -7.9769   -8.5030 C   0  0  0  0  0  0  0  0  0  0  0  0
  -28.3997   -6.9971   -7.4526 C   0  0  0  0  0  0  0  0  0  0  0  0
  -27.8923   -9.6766  -11.8879 C   0  0  0  0  0  0  0  0  0  0  0  0
  -28.8254  -10.3232  -12.7250 C   0  0  0  0  0  0  0  0  0  0  0  0
  -28.4519  -10.2473  -13.9935 N   0  0  0  0  0  0  0  0  0  0  0  0
  -27.3249   -9.5857  -14.0425 N   0  0  0  0  0  0  0  0  0  0  0  0
  -26.7354   -9.2351  -15.3318 C   0  0  0  0  0  0  0  0  0  0  0  0
  -26.9138   -9.2299  -12.7889 C   0  0  0  0  0  0  0  0  0  0  0  0
  -29.1029   -3.0302   -3.1637 C   0  0  0  0  0  0  0  0  0  0  0  0
  -28.4241   -2.2192   -4.0969 C   0  0  0  0  0  0  0  0  0  0  0  0
  -27.9989   -2.7381   -5.3173 C   0  0  0  0  0  0  0  0  0  0  0  0
  -28.2657   -4.0882   -5.6188 C   0  0  0  0  0  0  0  0  0  0  0  0
  -28.9638   -4.9337   -4.7146 C   0  0  0  0  0  0  0  0  0  0  0  0
  -29.3530   -4.3805   -3.4782 C   0  0  0  0  0  0  0  0  0  0  0  0
  -30.8813   -2.3776   -1.5633 C   0  0  0  0  0  0  0  0  0  0  0  0
  -29.5707   -2.5661   -1.9716 O   0  0  0  0  0  0  0  0  0  0  0  0
  -27.3537   -1.9081   -6.1827 O   0  0  0  0  0  0  0  0  0  0  0  0
  -27.9389   -0.9554   -6.9954 C   0  0  0  0  0  0  0  0  0  0  0  0
  -29.4618   -7.3227   -3.9286 C   0  0  0  0  0  0  0  0  0  0  0  0
  -28.5504   -8.6044   -4.0165 C   0  0  0  0  0  0  0  0  0  0  0  0
  -27.0260   -8.6792   -4.2350 C   0  0  0  0  0  0  0  0  0  0  0  0
  -26.8053   -9.5242   -5.4504 N   0  0  0  0  0  0  0  0  0  0  0  0
  -27.8094  -10.5575   -5.8096 C   0  0  0  0  0  0  0  0  0  0  0  0
  -27.2956  -11.8424   -5.2227 C   0  0  0  0  0  0  0  0  0  0  0  0
  -25.8355  -11.7713   -5.5631 C   0  0  0  0  0  0  0  0  0  0  0  0
  -25.5350  -10.2484   -5.6206 C   0  0  0  0  0  0  0  0  0  0  0  0
  -24.2894   -9.8329   -4.8155 C   0  0  0  0  0  0  0  0  0  0  0  0
  -23.1939  -10.0428   -5.8480 C   0  0  0  0  0  0  0  0  0  0  0  0
  -22.2851  -10.2168   -6.7045 N   0  0  0  0  0  0  0  0  0  0  0  0
 24 25  1  0  0  0
 25 18  1  0  0  0
 18 19  1  0  0  0
 18 23  2  0  0  0
 19 20  2  0  0  0
 20 26  1  0  0  0
 20 21  1  0  0  0
 26 27  1  0  0  0
 21 22  2  0  0  0
 22  1  1  0  0  0
 22 23  1  0  0  0
  1 28  1  0  0  0
  1  2  1  0  0  0
 28 29  1  0  0  0
 29 30  1  0  0  0
 30 31  1  0  0  0
 31 32  1  0  0  0
 31 35  1  0  0  0
 32 33  1  0  0  0
 33 34  1  0  0  0
 34 35  1  0  0  0
 35 36  1  0  0  0
 36 37  1  0  0  0
 37 38  3  0  0  0
  2  3  1  0  0  0
  2 11  2  0  0  0
  3  4  2  0  0  0
  4  5  1  0  0  0
  5  6  1  0  0  0
  5 10  2  0  0  0
  6  7  2  0  0  0
  7  8  1  0  0  0
  8 12  1  0  0  0
  8  9  2  0  0  0
 12 13  1  0  0  0
 12 17  2  0  0  0
 13 14  2  0  0  0
 14 15  1  0  0  0
 15 16  1  0  0  0
 15 17  1  0  0  0
  9 10  1  0  0  0
 10 11  1  0  0  0
M  END
> <minimizedAffinity>
-6.23944

$$$$
