CHEMBL231308


 32 35  0  0  0  0  0  0  0  0999 V2000
  -25.6166   -0.8507  -12.5801 C   0  0  0  0  0  0  0  0  0  0  0  0
  -25.3097   -1.2416  -13.8861 C   0  0  0  0  0  0  0  0  0  0  0  0
  -24.1000   -0.8646  -14.4744 C   0  0  0  0  0  0  0  0  0  0  0  0
  -23.1868   -0.0543  -13.7856 C   0  0  0  0  0  0  0  0  0  0  0  0
  -23.5728    0.4483  -12.5358 C   0  0  0  0  0  0  0  0  0  0  0  0
  -24.7729    0.0437  -11.9281 C   0  0  0  0  0  0  0  0  0  0  0  0
  -21.8612    0.2284  -14.3641 C   0  0  0  0  0  0  0  0  0  0  0  0
  -21.0711   -0.8317  -14.7733 C   0  0  0  0  0  0  0  0  0  0  0  0
  -19.5586   -0.3585  -15.3742 S   0  0  0  0  0  0  0  0  0  0  0  0
  -19.9044    1.3047  -15.1254 C   0  0  0  0  0  0  0  0  0  0  0  0
  -19.0379    2.3619  -15.4333 C   0  0  0  0  0  0  0  0  0  0  0  0
  -19.5020    3.6222  -15.1599 C   0  0  0  0  0  0  0  0  0  0  0  0
  -20.6970    3.8792  -14.6063 N   0  0  0  0  0  0  0  0  0  0  0  0
  -21.5313    2.8631  -14.2855 C   0  0  0  0  0  0  0  0  0  0  0  0
  -22.7008    3.2804  -13.6595 N   0  0  0  0  0  0  0  0  0  0  0  0
  -21.1728    1.5125  -14.5610 C   0  0  0  0  0  0  0  0  0  0  0  0
  -22.5929    4.2582  -13.4103 H   0  0  0  0  0  0  0  0  0  0  0  0
  -22.9686    2.6767  -12.8927 H   0  0  0  0  0  0  0  0  0  0  0  0
  -27.8149   -2.1851  -10.0149 N   0  0  0  0  0  0  0  0  0  0  0  0
  -26.6386   -1.6853  -10.5315 C   0  0  0  0  0  0  0  0  0  0  0  0
  -25.6162   -1.4752   -9.8824 O   0  0  0  0  0  0  0  0  0  0  0  0
  -26.7309   -1.3969  -11.8928 N   0  0  0  0  0  0  0  0  0  0  0  0
  -28.4909   -2.5390  -10.6726 H   0  0  0  0  0  0  0  0  0  0  0  0
  -27.6444   -1.0785  -12.1911 H   0  0  0  0  0  0  0  0  0  0  0  0
  -28.8293   -3.0951   -4.4165 C   0  0  0  0  0  0  0  0  0  0  0  0
  -28.5397   -2.8353   -5.8694 C   0  0  0  0  0  0  0  0  0  0  0  0
  -28.8444   -3.8286   -6.8020 C   0  0  0  0  0  0  0  0  0  0  0  0
  -28.6006   -3.6311   -8.1606 C   0  0  0  0  0  0  0  0  0  0  0  0
  -28.0629   -2.4346   -8.6363 C   0  0  0  0  0  0  0  0  0  0  0  0
  -27.7410   -1.4397   -7.7017 C   0  0  0  0  0  0  0  0  0  0  0  0
  -27.9705   -1.6292   -6.3201 C   0  0  0  0  0  0  0  0  0  0  0  0
  -27.6036   -0.5449   -5.3438 C   0  0  0  0  0  0  0  0  0  0  0  0
 25 26  1  0  0  0
 26 27  1  0  0  0
 26 31  2  0  0  0
 27 28  2  0  0  0
 28 29  1  0  0  0
 29 19  1  0  0  0
 29 30  2  0  0  0
 19 20  1  0  0  0
 19 23  1  0  0  0
 20 21  2  0  0  0
 20 22  1  0  0  0
 22  1  1  0  0  0
 22 24  1  0  0  0
  1  2  1  0  0  0
  1  6  2  0  0  0
  2  3  2  0  0  0
  3  4  1  0  0  0
  4  7  1  0  0  0
  4  5  2  0  0  0
  7  8  2  0  0  0
  7 16  1  0  0  0
  8  9  1  0  0  0
  9 10  1  0  0  0
 10 11  1  0  0  0
 10 16  2  0  0  0
 11 12  2  0  0  0
 12 13  1  0  0  0
 13 14  2  0  0  0
 14 15  1  0  0  0
 14 16  1  0  0  0
 15 17  1  0  0  0
 15 18  1  0  0  0
  5  6  1  0  0  0
 30 31  1  0  0  0
 31 32  1  0  0  0
M  END
> <minimizedAffinity>
-10.09602

$$$$
