CHEMBL3950152


 35 38  0  0  0  0  0  0  0  0999 V2000
  -16.2832   -3.4646  -13.5051 C   0  0  0  0  0  0  0  0  0  0  0  0
  -15.0784   -2.5889  -13.5744 C   0  0  0  0  0  0  0  0  0  0  0  0
  -15.1795   -1.5069  -14.3983 N   0  0  0  0  0  0  0  0  0  0  0  0
  -14.0320   -0.7812  -14.4612 C   0  0  0  0  0  0  0  0  0  0  0  0
  -13.1401   -1.3966  -13.5901 C   0  0  0  0  0  0  0  0  0  0  0  0
  -11.7440   -0.9553  -13.2860 C   0  0  0  0  0  0  0  0  0  0  0  0
  -13.8084   -2.5530  -12.9930 C   0  0  0  0  0  0  0  0  0  0  0  0
  -16.0290   -1.3040  -14.9217 H   0  0  0  0  0  0  0  0  0  0  0  0
  -13.1603   -3.4632  -12.0130 C   0  0  0  0  0  0  0  0  0  0  0  0
  -13.4763   -3.4078  -10.8247 O   0  0  0  0  0  0  0  0  0  0  0  0
  -12.2784   -4.4692  -12.4493 N   0  0  0  0  0  0  0  0  0  0  0  0
  -11.6510   -5.3276  -11.4289 C   0  0  0  0  0  0  0  0  0  0  0  0
  -12.5856   -6.4167  -10.8745 C   0  0  0  0  0  0  0  0  0  0  0  0
  -12.1385   -7.6731  -11.3906 O   0  0  0  0  0  0  0  0  0  0  0  0
  -13.1749   -8.6085  -11.6943 C   0  0  0  0  0  0  0  0  0  0  0  0
  -12.8227   -9.2489  -13.0409 C   0  0  0  0  0  0  0  0  0  0  0  0
  -13.7738   -8.8010  -14.0084 O   0  0  0  0  0  0  0  0  0  0  0  0
  -13.2070   -8.3570  -15.2417 C   0  0  0  0  0  0  0  0  0  0  0  0
  -13.8449   -7.0159  -15.5953 C   0  0  0  0  0  0  0  0  0  0  0  0
  -12.8147   -6.0296  -15.6381 O   0  0  0  0  0  0  0  0  0  0  0  0
  -13.0724   -4.9017  -14.8065 C   0  0  0  0  0  0  0  0  0  0  0  0
  -11.9008   -4.7240  -13.8357 C   0  0  0  0  0  0  0  0  0  0  0  0
  -13.9246    0.3495  -15.3189 C   0  0  0  0  0  0  0  0  0  0  0  0
  -14.8179    1.3330  -15.5369 C   0  0  0  0  0  0  0  0  0  0  0  0
  -16.1958    1.5877  -14.9504 C   0  0  0  0  0  0  0  0  0  0  0  0
  -16.8149    0.9440  -14.1196 O   0  0  0  0  0  0  0  0  0  0  0  0
  -16.6526    2.7412  -15.5591 N   0  0  0  0  0  0  0  0  0  0  0  0
  -15.7203    3.2383  -16.4560 C   0  0  0  0  0  0  0  0  0  0  0  0
  -15.8550    4.3706  -17.2407 C   0  0  0  0  0  0  0  0  0  0  0  0
  -14.7844    4.6935  -18.0761 C   0  0  0  0  0  0  0  0  0  0  0  0
  -13.6361    3.8915  -18.1072 C   0  0  0  0  0  0  0  0  0  0  0  0
  -12.6302    4.2154  -18.9264 F   0  0  0  0  0  0  0  0  0  0  0  0
  -13.5166    2.7462  -17.3161 C   0  0  0  0  0  0  0  0  0  0  0  0
  -14.5763    2.4312  -16.4828 C   0  0  0  0  0  0  0  0  0  0  0  0
  -17.5568    3.1345  -15.3577 H   0  0  0  0  0  0  0  0  0  0  0  0
  1  2  1  0  0  0
  2  3  1  0  0  0
  2  7  2  0  0  0
  3  4  1  0  0  0
  3  8  1  0  0  0
  4 23  1  0  0  0
  4  5  2  0  0  0
 23 24  2  0  0  0
 24 25  1  0  0  0
 24 34  1  0  0  0
 25 26  2  0  0  0
 25 27  1  0  0  0
 27 28  1  0  0  0
 27 35  1  0  0  0
 28 29  1  0  0  0
 28 34  2  0  0  0
 29 30  2  0  0  0
 30 31  1  0  0  0
 31 32  1  0  0  0
 31 33  2  0  0  0
 33 34  1  0  0  0
  5  6  1  0  0  0
  5  7  1  0  0  0
  7  9  1  0  0  0
  9 10  2  0  0  0
  9 11  1  0  0  0
 11 12  1  0  0  0
 11 22  1  0  0  0
 12 13  1  0  0  0
 13 14  1  0  0  0
 14 15  1  0  0  0
 15 16  1  0  0  0
 16 17  1  0  0  0
 17 18  1  0  0  0
 18 19  1  0  0  0
 19 20  1  0  0  0
 20 21  1  0  0  0
 21 22  1  0  0  0
M  END
> <minimizedAffinity>
-7.78894

$$$$
