CHEMBL198036


 32 35  0  0  0  0  0  0  0  0999 V2000
  -29.9745   -6.1903   -5.1917 C   0  0  0  0  0  0  0  0  0  0  0  0
  -28.9668   -7.1155   -4.9442 C   0  0  0  0  0  0  0  0  0  0  0  0
  -28.7948   -8.2390   -5.7538 C   0  0  0  0  0  0  0  0  0  0  0  0
  -29.7191   -8.5616   -6.7459 C   0  0  0  0  0  0  0  0  0  0  0  0
  -30.8196   -7.7080   -6.9024 C   0  0  0  0  0  0  0  0  0  0  0  0
  -30.9208   -6.5068   -6.1719 C   0  0  0  0  0  0  0  0  0  0  0  0
  -29.4953   -9.7389   -7.6080 C   0  0  0  0  0  0  0  0  0  0  0  0
  -30.1536  -10.9518   -7.3781 C   0  0  0  0  0  0  0  0  0  0  0  0
  -31.1867  -11.3752   -6.3728 C   0  0  0  0  0  0  0  0  0  0  0  0
  -29.6446  -12.1738   -8.4668 S   0  0  0  0  0  0  0  0  0  0  0  0
  -28.5909  -11.1252   -9.2709 C   0  0  0  0  0  0  0  0  0  0  0  0
  -27.8819  -11.5935  -10.3108 N   0  0  0  0  0  0  0  0  0  0  0  0
  -27.0912  -10.6691  -10.8449 C   0  0  0  0  0  0  0  0  0  0  0  0
  -26.9415   -9.4034  -10.4409 N   0  0  0  0  0  0  0  0  0  0  0  0
  -27.6524   -8.9714   -9.3817 C   0  0  0  0  0  0  0  0  0  0  0  0
  -27.3830   -7.6573   -9.0154 N   0  0  0  0  0  0  0  0  0  0  0  0
  -28.5615   -9.8444   -8.7372 C   0  0  0  0  0  0  0  0  0  0  0  0
  -26.5600   -7.3359   -9.5152 H   0  0  0  0  0  0  0  0  0  0  0  0
  -27.3527   -7.5172   -8.0129 H   0  0  0  0  0  0  0  0  0  0  0  0
  -29.7530   -2.5987   -4.2110 N   0  0  0  0  0  0  0  0  0  0  0  0
  -30.2315   -2.7348   -2.8390 C   0  0  0  0  0  0  0  0  0  0  0  0
  -29.5654   -3.7355   -5.0258 C   0  0  0  0  0  0  0  0  0  0  0  0
  -28.9793   -3.6754   -6.1058 O   0  0  0  0  0  0  0  0  0  0  0  0
  -30.0549   -4.9387   -4.5233 N   0  0  0  0  0  0  0  0  0  0  0  0
  -30.6584   -4.9135   -3.7200 H   0  0  0  0  0  0  0  0  0  0  0  0
  -30.8751    1.7470   -6.4732 C   0  0  0  0  0  0  0  0  0  0  0  0
  -29.8747    0.8602   -5.7925 C   0  0  0  0  0  0  0  0  0  0  0  0
  -28.5666    1.3001   -5.5914 C   0  0  0  0  0  0  0  0  0  0  0  0
  -27.6506    0.4659   -4.9680 C   0  0  0  0  0  0  0  0  0  0  0  0
  -28.0399   -0.8104   -4.5515 C   0  0  0  0  0  0  0  0  0  0  0  0
  -29.3581   -1.2840   -4.6994 C   0  0  0  0  0  0  0  0  0  0  0  0
  -30.2613   -0.4178   -5.3367 C   0  0  0  0  0  0  0  0  0  0  0  0
 26 27  1  0  0  0
 27 28  1  0  0  0
 27 32  2  0  0  0
 28 29  2  0  0  0
 29 30  1  0  0  0
 30 31  2  0  0  0
 31 20  1  0  0  0
 31 32  1  0  0  0
 20 21  1  0  0  0
 20 22  1  0  0  0
 22 23  2  0  0  0
 22 24  1  0  0  0
 24  1  1  0  0  0
 24 25  1  0  0  0
  1  2  1  0  0  0
  1  6  2  0  0  0
  2  3  2  0  0  0
  3  4  1  0  0  0
  4  7  1  0  0  0
  4  5  2  0  0  0
  7  8  2  0  0  0
  7 17  1  0  0  0
  8  9  1  0  0  0
  8 10  1  0  0  0
 10 11  1  0  0  0
 11 12  1  0  0  0
 11 17  2  0  0  0
 12 13  2  0  0  0
 13 14  1  0  0  0
 14 15  2  0  0  0
 15 16  1  0  0  0
 15 17  1  0  0  0
 16 18  1  0  0  0
 16 19  1  0  0  0
  5  6  1  0  0  0
M  END
> <minimizedAffinity>
-9.51060

$$$$
