CHEMBL3694649


 34 37  0  0  0  0  0  0  0  0999 V2000
  -29.5333   -7.9659   -6.5091 C   0  0  0  0  0  0  0  0  0  0  0  0
  -28.5079   -7.9886   -5.4358 C   0  0  0  0  0  0  0  0  0  0  0  0
  -28.1170   -6.8304   -4.8547 C   0  0  0  0  0  0  0  0  0  0  0  0
  -28.8537   -5.6611   -5.1363 N   0  0  0  0  0  0  0  0  0  0  0  0
  -28.9720   -4.4595   -4.4201 C   0  0  0  0  0  0  0  0  0  0  0  0
  -30.2168   -4.7853   -3.8538 C   0  0  0  0  0  0  0  0  0  0  0  0
  -30.9926   -5.3742   -4.8342 N   0  0  0  0  0  0  0  0  0  0  0  0
  -30.1101   -5.8116   -5.7174 C   0  0  0  0  0  0  0  0  0  0  0  0
  -30.2495   -6.8319   -6.6864 C   0  0  0  0  0  0  0  0  0  0  0  0
  -29.7013  -10.2683   -9.3116 C   0  0  0  0  0  0  0  0  0  0  0  0
  -30.3816  -11.3627   -8.8154 C   0  0  0  0  0  0  0  0  0  0  0  0
  -30.7834  -11.2484   -7.5151 C   0  0  0  0  0  0  0  0  0  0  0  0
  -30.5538  -10.1607   -6.7671 N   0  0  0  0  0  0  0  0  0  0  0  0
  -29.8803   -9.1400   -7.3445 C   0  0  0  0  0  0  0  0  0  0  0  0
  -29.4476   -9.1467   -8.6098 N   0  0  0  0  0  0  0  0  0  0  0  0
  -28.8811  -10.2929  -11.7779 N   0  0  0  0  0  0  0  0  0  0  0  0
  -29.2334  -10.2731  -10.6685 C   0  0  0  0  0  0  0  0  0  0  0  0
  -28.7493   -3.0699   -4.9467 C   0  0  0  0  0  0  0  0  0  0  0  0
  -29.4500   -2.0337   -4.2943 C   0  0  0  0  0  0  0  0  0  0  0  0
  -29.5483   -0.7599   -4.8331 C   0  0  0  0  0  0  0  0  0  0  0  0
  -28.8929   -0.4697   -6.0178 C   0  0  0  0  0  0  0  0  0  0  0  0
  -28.1177   -1.4366   -6.6676 C   0  0  0  0  0  0  0  0  0  0  0  0
  -28.0666   -2.7509   -6.1403 C   0  0  0  0  0  0  0  0  0  0  0  0
  -27.4400   -1.1212   -7.8764 N   0  0  0  0  0  0  0  0  0  0  0  0
  -27.6213   -1.7854   -9.0754 C   0  0  0  0  0  0  0  0  0  0  0  0
  -28.4649   -2.6407   -9.3224 O   0  0  0  0  0  0  0  0  0  0  0  0
  -26.7083   -1.4243  -10.0399 N   0  0  0  0  0  0  0  0  0  0  0  0
  -26.8864   -0.2792   -7.8879 H   0  0  0  0  0  0  0  0  0  0  0  0
  -26.2982   -0.5056   -9.9753 H   0  0  0  0  0  0  0  0  0  0  0  0
  -26.8634   -2.0036  -11.3842 C   0  0  0  0  0  0  0  0  0  0  0  0
  -25.9574   -1.4069  -12.4741 C   0  0  0  0  0  0  0  0  0  0  0  0
  -26.5925   -1.3226  -13.6666 F   0  0  0  0  0  0  0  0  0  0  0  0
  -25.6011   -0.1421  -12.1341 F   0  0  0  0  0  0  0  0  0  0  0  0
  -24.8199   -2.1091  -12.6481 F   0  0  0  0  0  0  0  0  0  0  0  0
 16 17  3  0  0  0
 17 10  1  0  0  0
 10 11  1  0  0  0
 10 15  2  0  0  0
 11 12  2  0  0  0
 12 13  1  0  0  0
 13 14  2  0  0  0
 14  1  1  0  0  0
 14 15  1  0  0  0
  1  2  1  0  0  0
  1  9  2  0  0  0
  2  3  2  0  0  0
  3  4  1  0  0  0
  4  5  1  0  0  0
  4  8  1  0  0  0
  5 18  1  0  0  0
  5  6  2  0  0  0
 18 19  1  0  0  0
 18 23  2  0  0  0
 19 20  2  0  0  0
 20 21  1  0  0  0
 21 22  2  0  0  0
 22 24  1  0  0  0
 22 23  1  0  0  0
 24 25  1  0  0  0
 24 28  1  0  0  0
 25 26  2  0  0  0
 25 27  1  0  0  0
 27 30  1  0  0  0
 27 29  1  0  0  0
 30 31  1  0  0  0
 31 32  1  0  0  0
 31 33  1  0  0  0
 31 34  1  0  0  0
  6  7  1  0  0  0
  7  8  2  0  0  0
  8  9  1  0  0  0
M  END
> <minimizedAffinity>
-9.31084

$$$$
