CHEMBL3648074


 31 33  0  0  0  0  0  0  0  0999 V2000
  -15.6728    1.5783  -16.0749 C   0  0  0  0  0  0  0  0  0  0  0  0
  -16.8281    1.9978  -15.5115 N   0  0  0  0  0  0  0  0  0  0  0  0
  -17.2344    3.2528  -15.7668 C   0  0  0  0  0  0  0  0  0  0  0  0
  -16.5110    4.1334  -16.4765 N   0  0  0  0  0  0  0  0  0  0  0  0
  -15.3786    3.6932  -17.0393 C   0  0  0  0  0  0  0  0  0  0  0  0
  -14.9338    2.4026  -16.9152 C   0  0  0  0  0  0  0  0  0  0  0  0
  -13.3820    1.8549  -17.8395 Br  0  0  0  0  0  0  0  0  0  0  0  0
  -15.2369    0.2522  -15.8644 N   0  0  0  0  0  0  0  0  0  0  0  0
  -16.0672   -0.3314  -15.9682 H   0  0  0  0  0  0  0  0  0  0  0  0
  -13.3041   -0.9076  -14.8524 C   0  0  0  0  0  0  0  0  0  0  0  0
  -14.5502   -0.0498  -14.5900 C   0  0  0  0  0  0  0  0  0  0  0  0
  -15.5673   -0.7623  -13.6231 C   0  0  0  0  0  0  0  0  0  0  0  0
  -15.0481   -2.0849  -13.0375 C   0  0  0  0  0  0  0  0  0  0  0  0
  -15.9844    0.1632  -12.4728 C   0  0  0  0  0  0  0  0  0  0  0  0
  -16.7719   -1.0476  -14.3640 O   0  0  0  0  0  0  0  0  0  0  0  0
  -16.6437   -1.9021  -14.8105 H   0  0  0  0  0  0  0  0  0  0  0  0
  -18.4807    3.6493  -15.2788 N   0  0  0  0  0  0  0  0  0  0  0  0
  -18.4506    4.5828  -14.8912 H   0  0  0  0  0  0  0  0  0  0  0  0
  -19.5264    2.8179  -14.8404 C   0  0  0  0  0  0  0  0  0  0  0  0
  -19.5365    1.4355  -15.0910 C   0  0  0  0  0  0  0  0  0  0  0  0
  -20.6353    0.6390  -14.7552 C   0  0  0  0  0  0  0  0  0  0  0  0
  -21.7555    1.2275  -14.1687 C   0  0  0  0  0  0  0  0  0  0  0  0
  -21.7426    2.5926  -13.8577 C   0  0  0  0  0  0  0  0  0  0  0  0
  -20.6289    3.3780  -14.1875 C   0  0  0  0  0  0  0  0  0  0  0  0
  -23.1520    0.2345  -13.6806 S   0  0  0  0  0  0  0  0  0  0  0  0
  -23.9358    1.0279  -12.6187 N   0  0  0  0  0  0  0  0  0  0  0  0
  -23.7591   -0.2409  -14.9030 O   0  0  0  0  0  0  0  0  0  0  0  0
  -24.4751    1.7671  -13.0708 H   0  0  0  0  0  0  0  0  0  0  0  0
  -22.5960   -1.2739  -12.8405 C   0  0  0  0  0  0  0  0  0  0  0  0
  -23.5825   -2.4115  -12.8157 C   0  0  0  0  0  0  0  0  0  0  0  0
  -23.2439   -1.6763  -11.5476 C   0  0  0  0  0  0  0  0  0  0  0  0
 10 11  1  0  0  0
 11  8  1  0  0  0
 11 12  1  0  0  0
  8  1  1  0  0  0
  8  9  1  0  0  0
  1  2  1  0  0  0
  1  6  2  0  0  0
  2  3  2  0  0  0
  3 17  1  0  0  0
  3  4  1  0  0  0
 17 19  1  0  0  0
 17 18  1  0  0  0
 19 20  1  0  0  0
 19 24  2  0  0  0
 20 21  2  0  0  0
 21 22  1  0  0  0
 22 25  1  0  0  0
 22 23  2  0  0  0
 25 26  2  0  0  0
 25 27  2  0  0  0
 25 29  1  0  0  0
 26 28  1  0  0  0
 29 30  1  0  0  0
 29 31  1  0  0  0
 30 31  1  0  0  0
 23 24  1  0  0  0
  4  5  2  0  0  0
  5  6  1  0  0  0
  6  7  1  0  0  0
 12 13  1  0  0  0
 12 14  1  0  0  0
 12 15  1  0  0  0
 15 16  1  0  0  0
M  END
> <minimizedAffinity>
-7.99994

$$$$
