CHEMBL3895848


 36 40  0  0  0  0  0  0  0  0999 V2000
  -28.4285   -3.1631   -8.0065 C   0  0  0  0  0  0  0  0  0  0  0  0
  -28.9750   -2.8406   -6.7589 C   0  0  0  0  0  0  0  0  0  0  0  0
  -28.7691   -1.5699   -6.1719 C   0  0  0  0  0  0  0  0  0  0  0  0
  -29.2579   -1.1570   -4.9200 C   0  0  0  0  0  0  0  0  0  0  0  0
  -29.0451    0.0853   -4.4442 N   0  0  0  0  0  0  0  0  0  0  0  0
  -28.3332    0.9128   -5.2097 C   0  0  0  0  0  0  0  0  0  0  0  0
  -27.8233    0.6250   -6.4096 N   0  0  0  0  0  0  0  0  0  0  0  0
  -28.0472   -0.6052   -6.8771 C   0  0  0  0  0  0  0  0  0  0  0  0
  -27.5400   -0.9293   -8.1271 C   0  0  0  0  0  0  0  0  0  0  0  0
  -27.6931   -2.2002   -8.7051 C   0  0  0  0  0  0  0  0  0  0  0  0
  -28.4738   -5.4893   -7.5404 C   0  0  0  0  0  0  0  0  0  0  0  0
  -28.7551   -4.4201   -8.4365 O   0  0  0  0  0  0  0  0  0  0  0  0
  -29.9913   -2.0729   -4.1169 N   0  0  0  0  0  0  0  0  0  0  0  0
  -30.9757   -1.8282   -4.1494 H   0  0  0  0  0  0  0  0  0  0  0  0
  -29.7648   -3.4655   -4.0816 C   0  0  0  0  0  0  0  0  0  0  0  0
  -28.5559   -3.9829   -3.5946 C   0  0  0  0  0  0  0  0  0  0  0  0
  -28.3141   -5.3582   -3.5804 C   0  0  0  0  0  0  0  0  0  0  0  0
  -29.2855   -6.2394   -4.0516 C   0  0  0  0  0  0  0  0  0  0  0  0
  -28.9138   -7.9260   -4.0385 Cl  0  0  0  0  0  0  0  0  0  0  0  0
  -30.5072   -5.7398   -4.5158 C   0  0  0  0  0  0  0  0  0  0  0  0
  -31.7600   -6.7727   -5.1109 Cl  0  0  0  0  0  0  0  0  0  0  0  0
  -30.7480   -4.3595   -4.5186 C   0  0  0  0  0  0  0  0  0  0  0  0
  -27.1861   -2.5224   -9.9416 O   0  0  0  0  0  0  0  0  0  0  0  0
  -26.1879   -1.6293  -10.4544 C   0  0  0  0  0  0  0  0  0  0  0  0
  -26.2334   -1.6807  -11.9438 C   0  0  0  0  0  0  0  0  0  0  0  0
  -27.3449   -1.8524  -12.6452 N   0  0  0  0  0  0  0  0  0  0  0  0
  -26.9741   -1.8196  -13.9580 C   0  0  0  0  0  0  0  0  0  0  0  0
  -25.6159   -1.6471  -14.0725 C   0  0  0  0  0  0  0  0  0  0  0  0
  -25.1440   -1.5981  -12.7833 N   0  0  0  0  0  0  0  0  0  0  0  0
  -23.7550   -1.3391  -12.4221 C   0  0  0  0  0  0  0  0  0  0  0  0
  -23.0728   -0.2028  -13.1536 C   0  0  0  0  0  0  0  0  0  0  0  0
  -21.9714   -0.3496  -14.0115 C   0  0  0  0  0  0  0  0  0  0  0  0
  -21.3850    0.7688  -14.6191 C   0  0  0  0  0  0  0  0  0  0  0  0
  -21.8823    2.0478  -14.3791 C   0  0  0  0  0  0  0  0  0  0  0  0
  -22.9755    2.2141  -13.5362 C   0  0  0  0  0  0  0  0  0  0  0  0
  -23.5631    1.1002  -12.9308 C   0  0  0  0  0  0  0  0  0  0  0  0
 11 12  1  0  0  0
 12  1  1  0  0  0
  1  2  1  0  0  0
  1 10  2  0  0  0
  2  3  2  0  0  0
  3  4  1  0  0  0
  3  8  1  0  0  0
  4 13  1  0  0  0
  4  5  2  0  0  0
 13 15  1  0  0  0
 13 14  1  0  0  0
 15 16  1  0  0  0
 15 22  2  0  0  0
 16 17  2  0  0  0
 17 18  1  0  0  0
 18 19  1  0  0  0
 18 20  2  0  0  0
 20 21  1  0  0  0
 20 22  1  0  0  0
  5  6  1  0  0  0
  6  7  2  0  0  0
  7  8  1  0  0  0
  8  9  2  0  0  0
  9 10  1  0  0  0
 10 23  1  0  0  0
 23 24  1  0  0  0
 24 25  1  0  0  0
 25 26  2  0  0  0
 25 29  1  0  0  0
 26 27  1  0  0  0
 27 28  2  0  0  0
 28 29  1  0  0  0
 29 30  1  0  0  0
 30 31  1  0  0  0
 31 32  1  0  0  0
 31 36  2  0  0  0
 32 33  2  0  0  0
 33 34  1  0  0  0
 34 35  2  0  0  0
 35 36  1  0  0  0
M  END
> <minimizedAffinity>
-9.61504

$$$$
