CHEMBL1271533


 33 37  0  0  0  0  0  0  0  0999 V2000
  -14.3674    3.3837  -16.6481 C   0  0  0  0  0  0  0  0  0  0  0  0
  -14.0427    2.0433  -16.9434 C   0  0  0  0  0  0  0  0  0  0  0  0
  -15.0371    1.1930  -16.6961 N   0  0  0  0  0  0  0  0  0  0  0  0
  -16.0361    1.9755  -16.2310 N   0  0  0  0  0  0  0  0  0  0  0  0
  -17.2971    1.5651  -15.8132 C   0  0  0  0  0  0  0  0  0  0  0  0
  -18.1941    2.4634  -15.3844 C   0  0  0  0  0  0  0  0  0  0  0  0
  -17.7299    3.8840  -15.4126 C   0  0  0  0  0  0  0  0  0  0  0  0
  -16.5576    4.3008  -15.7897 N   0  0  0  0  0  0  0  0  0  0  0  0
  -15.6754    3.3288  -16.1945 C   0  0  0  0  0  0  0  0  0  0  0  0
  -11.7823    7.0655  -14.7492 N   0  0  0  0  0  0  0  0  0  0  0  0
  -12.2690    6.3689  -15.8514 C   0  0  0  0  0  0  0  0  0  0  0  0
  -13.0674    5.2485  -15.6766 C   0  0  0  0  0  0  0  0  0  0  0  0
  -13.5725    4.5908  -16.7996 C   0  0  0  0  0  0  0  0  0  0  0  0
  -13.2963    5.1219  -18.0591 C   0  0  0  0  0  0  0  0  0  0  0  0
  -12.4998    6.2493  -18.1346 C   0  0  0  0  0  0  0  0  0  0  0  0
  -11.9780    6.8762  -17.0596 N   0  0  0  0  0  0  0  0  0  0  0  0
  -11.3427    6.4597  -14.0678 H   0  0  0  0  0  0  0  0  0  0  0  0
  -11.1487    7.7766  -15.1057 H   0  0  0  0  0  0  0  0  0  0  0  0
  -19.5278    2.0882  -14.9369 C   0  0  0  0  0  0  0  0  0  0  0  0
  -19.9667    0.7678  -15.0532 C   0  0  0  0  0  0  0  0  0  0  0  0
  -21.2495    0.4124  -14.6249 C   0  0  0  0  0  0  0  0  0  0  0  0
  -22.0948    1.3758  -14.0661 C   0  0  0  0  0  0  0  0  0  0  0  0
  -21.6629    2.6997  -13.9750 C   0  0  0  0  0  0  0  0  0  0  0  0
  -20.3851    3.0573  -14.4059 C   0  0  0  0  0  0  0  0  0  0  0  0
  -23.3575    1.1351  -13.5927 O   0  0  0  0  0  0  0  0  0  0  0  0
  -23.4018    0.4799  -12.3191 C   0  0  0  0  0  0  0  0  0  0  0  0
  -24.8371    0.0016  -12.0434 C   0  0  0  0  0  0  0  0  0  0  0  0
  -24.9921   -1.4692  -12.0176 N   0  0  0  0  0  0  0  0  0  0  0  0
  -25.1597   -2.0062  -13.3909 C   0  0  0  0  0  0  0  0  0  0  0  0
  -26.5380   -1.7073  -14.0159 C   0  0  0  0  0  0  0  0  0  0  0  0
  -27.6159   -2.1377  -13.1729 O   0  0  0  0  0  0  0  0  0  0  0  0
  -27.5044   -1.5672  -11.8636 C   0  0  0  0  0  0  0  0  0  0  0  0
  -26.1556   -1.9367  -11.2284 C   0  0  0  0  0  0  0  0  0  0  0  0
 10 11  1  0  0  0
 10 17  1  0  0  0
 10 18  1  0  0  0
 11 12  1  0  0  0
 11 16  2  0  0  0
 12 13  2  0  0  0
 13  1  1  0  0  0
 13 14  1  0  0  0
  1  2  1  0  0  0
  1  9  2  0  0  0
  2  3  2  0  0  0
  3  4  1  0  0  0
  4  5  1  0  0  0
  4  9  1  0  0  0
  5  6  2  0  0  0
  6 19  1  0  0  0
  6  7  1  0  0  0
 19 20  1  0  0  0
 19 24  2  0  0  0
 20 21  2  0  0  0
 21 22  1  0  0  0
 22 25  1  0  0  0
 22 23  2  0  0  0
 25 26  1  0  0  0
 26 27  1  0  0  0
 27 28  1  0  0  0
 28 29  1  0  0  0
 28 33  1  0  0  0
 29 30  1  0  0  0
 30 31  1  0  0  0
 31 32  1  0  0  0
 32 33  1  0  0  0
 23 24  1  0  0  0
  7  8  2  0  0  0
  8  9  1  0  0  0
 14 15  2  0  0  0
 15 16  1  0  0  0
M  END
> <minimizedAffinity>
-8.85221

$$$$
