CHEMBL3739627


 35 39  0  0  0  0  0  0  0  0999 V2000
  -15.0488   -1.5479  -13.1905 C   0  0  0  0  0  0  0  0  0  0  0  0
  -13.7044   -1.2405  -13.5259 C   0  0  0  0  0  0  0  0  0  0  0  0
  -12.6740   -2.1080  -13.2100 C   0  0  0  0  0  0  0  0  0  0  0  0
  -12.9350   -3.0699  -12.2692 C   0  0  0  0  0  0  0  0  0  0  0  0
  -14.1959   -3.1021  -11.6796 C   0  0  0  0  0  0  0  0  0  0  0  0
  -14.4270   -3.7993  -10.5219 C   0  0  0  0  0  0  0  0  0  0  0  0
  -14.8542   -5.0455  -10.8488 C   0  0  0  0  0  0  0  0  0  0  0  0
  -15.9420   -5.0611  -11.7335 C   0  0  0  0  0  0  0  0  0  0  0  0
  -16.2850   -3.8278  -12.4066 C   0  0  0  0  0  0  0  0  0  0  0  0
  -15.3034   -2.7480  -12.4378 C   0  0  0  0  0  0  0  0  0  0  0  0
  -15.9996    0.4460  -12.5515 O   0  0  0  0  0  0  0  0  0  0  0  0
  -15.9589   -0.3980  -13.4529 C   0  0  0  0  0  0  0  0  0  0  0  0
  -16.6819   -0.3090  -14.6216 N   0  0  0  0  0  0  0  0  0  0  0  0
  -16.8006   -1.1368  -15.1865 H   0  0  0  0  0  0  0  0  0  0  0  0
  -17.4022    0.8735  -15.0049 C   0  0  0  0  0  0  0  0  0  0  0  0
  -16.7657    2.0005  -15.5509 C   0  0  0  0  0  0  0  0  0  0  0  0
  -17.4809    3.1633  -15.8620 C   0  0  0  0  0  0  0  0  0  0  0  0
  -18.8557    3.1967  -15.6520 C   0  0  0  0  0  0  0  0  0  0  0  0
  -19.5015    2.0670  -15.1470 C   0  0  0  0  0  0  0  0  0  0  0  0
  -18.7773    0.9039  -14.8367 C   0  0  0  0  0  0  0  0  0  0  0  0
  -13.7780   -5.9144  -10.8843 O   0  0  0  0  0  0  0  0  0  0  0  0
  -13.5836   -6.7386  -11.9556 C   0  0  0  0  0  0  0  0  0  0  0  0
  -13.8826   -8.0606  -11.7637 C   0  0  0  0  0  0  0  0  0  0  0  0
  -13.4788   -8.8812  -12.7792 C   0  0  0  0  0  0  0  0  0  0  0  0
  -12.8935   -8.4284  -13.9078 N   0  0  0  0  0  0  0  0  0  0  0  0
  -12.7411   -7.0969  -14.0274 C   0  0  0  0  0  0  0  0  0  0  0  0
  -13.0648   -6.2374  -13.0685 N   0  0  0  0  0  0  0  0  0  0  0  0
  -12.1620   -6.6090  -15.1896 N   0  0  0  0  0  0  0  0  0  0  0  0
  -11.6882   -7.3451  -15.6865 H   0  0  0  0  0  0  0  0  0  0  0  0
  -12.1443   -5.3178  -15.7382 C   0  0  0  0  0  0  0  0  0  0  0  0
  -13.2854   -4.6482  -16.2083 C   0  0  0  0  0  0  0  0  0  0  0  0
  -13.2177   -3.3464  -16.7151 C   0  0  0  0  0  0  0  0  0  0  0  0
  -11.9995   -2.6860  -16.7671 C   0  0  0  0  0  0  0  0  0  0  0  0
  -10.8557   -3.3201  -16.2886 C   0  0  0  0  0  0  0  0  0  0  0  0
  -10.9299   -4.6216  -15.7823 C   0  0  0  0  0  0  0  0  0  0  0  0
 11 12  2  0  0  0
 12 13  1  0  0  0
 12  1  1  0  0  0
 13 15  1  0  0  0
 13 14  1  0  0  0
 15 16  1  0  0  0
 15 20  2  0  0  0
 16 17  2  0  0  0
 17 18  1  0  0  0
 18 19  2  0  0  0
 19 20  1  0  0  0
  1  2  1  0  0  0
  1 10  2  0  0  0
  2  3  2  0  0  0
  3  4  1  0  0  0
  4  5  2  0  0  0
  5  6  1  0  0  0
  5 10  1  0  0  0
  6  7  2  0  0  0
  7 21  1  0  0  0
  7  8  1  0  0  0
 21 22  1  0  0  0
 22 23  1  0  0  0
 22 27  2  0  0  0
 23 24  2  0  0  0
 24 25  1  0  0  0
 25 26  2  0  0  0
 26 28  1  0  0  0
 26 27  1  0  0  0
 28 30  1  0  0  0
 28 29  1  0  0  0
 30 31  1  0  0  0
 30 35  2  0  0  0
 31 32  2  0  0  0
 32 33  1  0  0  0
 33 34  2  0  0  0
 34 35  1  0  0  0
  8  9  2  0  0  0
  9 10  1  0  0  0
M  END
> <minimizedAffinity>
-8.54364

$$$$
