CHEMBL3904168


 39 43  0  0  0  0  0  0  0  0999 V2000
  -22.1704   -0.3446  -14.1114 C   0  0  0  0  0  0  0  0  0  0  0  0
  -21.5829   -1.3309  -14.5668 O   0  0  0  0  0  0  0  0  0  0  0  0
  -23.4233   -0.6054  -13.3168 C   0  0  0  0  0  0  0  0  0  0  0  0
  -23.5712   -0.2262  -11.9812 C   0  0  0  0  0  0  0  0  0  0  0  0
  -24.7954   -0.4214  -11.2941 C   0  0  0  0  0  0  0  0  0  0  0  0
  -25.8940   -1.0400  -11.9357 C   0  0  0  0  0  0  0  0  0  0  0  0
  -27.2191   -1.4968  -11.5992 C   0  0  0  0  0  0  0  0  0  0  0  0
  -27.8478   -1.9706  -12.6872 N   0  0  0  0  0  0  0  0  0  0  0  0
  -26.9497   -1.8560  -13.6752 N   0  0  0  0  0  0  0  0  0  0  0  0
  -25.7384   -1.3536  -13.2836 C   0  0  0  0  0  0  0  0  0  0  0  0
  -24.5397   -1.1423  -13.9957 C   0  0  0  0  0  0  0  0  0  0  0  0
  -27.2233   -2.1620  -14.6024 H   0  0  0  0  0  0  0  0  0  0  0  0
  -27.8782   -1.5630  -10.3202 C   0  0  0  0  0  0  0  0  0  0  0  0
  -27.4974   -2.2400   -9.2253 C   0  0  0  0  0  0  0  0  0  0  0  0
  -28.2379   -2.3320   -7.9603 C   0  0  0  0  0  0  0  0  0  0  0  0
  -29.0472   -3.4123   -7.6177 C   0  0  0  0  0  0  0  0  0  0  0  0
  -29.6454   -3.4323   -6.3577 C   0  0  0  0  0  0  0  0  0  0  0  0
  -29.4148   -2.3843   -5.4755 C   0  0  0  0  0  0  0  0  0  0  0  0
  -28.5833   -1.3590   -5.8895 C   0  0  0  0  0  0  0  0  0  0  0  0
  -27.9856   -1.3165   -7.1012 N   0  0  0  0  0  0  0  0  0  0  0  0
  -19.5406    2.2735  -15.1409 C   0  0  0  0  0  0  0  0  0  0  0  0
  -20.2212    3.4551  -14.8519 C   0  0  0  0  0  0  0  0  0  0  0  0
  -21.5255    3.4120  -14.3134 C   0  0  0  0  0  0  0  0  0  0  0  0
  -22.1887    2.1957  -14.0789 C   0  0  0  0  0  0  0  0  0  0  0  0
  -21.5510    0.9984  -14.3903 C   0  0  0  0  0  0  0  0  0  0  0  0
  -20.2191    1.0543  -14.8946 C   0  0  0  0  0  0  0  0  0  0  0  0
  -16.9954    1.8176  -15.0811 C   0  0  0  0  0  0  0  0  0  0  0  0
  -16.8861    1.3517  -13.9527 O   0  0  0  0  0  0  0  0  0  0  0  0
  -18.2179    2.2240  -15.6701 N   0  0  0  0  0  0  0  0  0  0  0  0
  -18.1533    2.5042  -16.6406 H   0  0  0  0  0  0  0  0  0  0  0  0
  -15.1973    3.1259  -16.4220 N   0  0  0  0  0  0  0  0  0  0  0  0
  -13.9418    2.8624  -16.8651 N   0  0  0  0  0  0  0  0  0  0  0  0
  -13.9996    1.5794  -17.2060 C   0  0  0  0  0  0  0  0  0  0  0  0
  -12.9371    0.9980  -18.0508 C   0  0  0  0  0  0  0  0  0  0  0  0
  -15.1458    0.9726  -16.6577 C   0  0  0  0  0  0  0  0  0  0  0  0
  -15.8391    1.9742  -15.9765 C   0  0  0  0  0  0  0  0  0  0  0  0
  -15.6669    4.4846  -16.7048 C   0  0  0  0  0  0  0  0  0  0  0  0
  -15.2192    4.9644  -19.1791 C   0  0  0  0  0  0  0  0  0  0  0  0
  -14.9166    5.1029  -17.8796 C   0  0  0  0  0  0  0  0  0  0  0  0
 38 39  2  0  0  0
 39 37  1  0  0  0
 37 31  1  0  0  0
 31 32  1  0  0  0
 31 36  1  0  0  0
 32 33  2  0  0  0
 33 34  1  0  0  0
 33 35  1  0  0  0
 35 36  2  0  0  0
 36 27  1  0  0  0
 27 28  2  0  0  0
 27 29  1  0  0  0
 29 21  1  0  0  0
 29 30  1  0  0  0
 21 22  1  0  0  0
 21 26  2  0  0  0
 22 23  2  0  0  0
 23 24  1  0  0  0
 24 25  2  0  0  0
 25  1  1  0  0  0
 25 26  1  0  0  0
  1  2  2  0  0  0
  1  3  1  0  0  0
  3  4  1  0  0  0
  3 11  2  0  0  0
  4  5  2  0  0  0
  5  6  1  0  0  0
  6  7  1  0  0  0
  6 10  2  0  0  0
  7 13  1  0  0  0
  7  8  2  0  0  0
 13 14  2  0  0  0
 14 15  1  0  0  0
 15 16  1  0  0  0
 15 20  2  0  0  0
 16 17  2  0  0  0
 17 18  1  0  0  0
 18 19  2  0  0  0
 19 20  1  0  0  0
  8  9  1  0  0  0
  9 10  1  0  0  0
  9 12  1  0  0  0
 10 11  1  0  0  0
M  END
> <minimizedAffinity>
-10.54724

$$$$
