CHEMBL3702619


 28 31  0  0  0  0  0  0  0  0999 V2000
  -28.9444   -3.3118   -7.1900 C   0  0  0  0  0  0  0  0  0  0  0  0
  -28.7701   -2.3116   -6.2201 C   0  0  0  0  0  0  0  0  0  0  0  0
  -28.0946   -1.1188   -6.5010 C   0  0  0  0  0  0  0  0  0  0  0  0
  -27.5546   -0.8986   -7.7702 C   0  0  0  0  0  0  0  0  0  0  0  0
  -27.7041   -1.8729   -8.7586 C   0  0  0  0  0  0  0  0  0  0  0  0
  -28.4152   -3.0517   -8.4648 C   0  0  0  0  0  0  0  0  0  0  0  0
  -28.4808   -9.7014   -3.5232 N   0  0  0  0  0  0  0  0  0  0  0  0
  -28.8497   -8.4684   -4.0203 C   0  0  0  0  0  0  0  0  0  0  0  0
  -29.3920   -7.6019   -3.1644 N   0  0  0  0  0  0  0  0  0  0  0  0
  -29.7632   -6.4114   -3.6756 C   0  0  0  0  0  0  0  0  0  0  0  0
  -29.5993   -6.0551   -4.9985 C   0  0  0  0  0  0  0  0  0  0  0  0
  -29.0084   -7.0192   -5.7926 C   0  0  0  0  0  0  0  0  0  0  0  0
  -28.6165   -8.2226   -5.3118 N   0  0  0  0  0  0  0  0  0  0  0  0
  -28.7282   -6.7466   -7.2471 C   0  0  0  0  0  0  0  0  0  0  0  0
  -29.6244   -5.6391   -7.7917 C   0  0  0  0  0  0  0  0  0  0  0  0
  -29.6196   -4.4835   -6.8895 N   0  0  0  0  0  0  0  0  0  0  0  0
  -30.0920   -4.7367   -5.5238 C   0  0  0  0  0  0  0  0  0  0  0  0
  -28.3297   -9.6367   -2.5285 H   0  0  0  0  0  0  0  0  0  0  0  0
  -27.7394  -10.0897   -4.0878 H   0  0  0  0  0  0  0  0  0  0  0  0
  -27.1739   -1.7029  -10.1466 C   0  0  0  0  0  0  0  0  0  0  0  0
  -27.9573   -1.6554  -11.0928 O   0  0  0  0  0  0  0  0  0  0  0  0
  -25.8015   -1.6256  -10.3010 N   0  0  0  0  0  0  0  0  0  0  0  0
  -25.2087   -1.8691   -9.5183 H   0  0  0  0  0  0  0  0  0  0  0  0
  -25.1884   -1.4670  -11.6110 C   0  0  0  0  0  0  0  0  0  0  0  0
  -23.8625   -2.2110  -11.7807 C   0  0  0  0  0  0  0  0  0  0  0  0
  -23.1129   -1.4554  -12.8831 C   0  0  0  0  0  0  0  0  0  0  0  0
  -23.8252   -0.1158  -13.0551 C   0  0  0  0  0  0  0  0  0  0  0  0
  -24.8112   -0.0182  -11.9009 C   0  0  0  0  0  0  0  0  0  0  0  0
  7  8  1  0  0  0
  7 18  1  0  0  0
  7 19  1  0  0  0
  8  9  1  0  0  0
  8 13  2  0  0  0
  9 10  2  0  0  0
 10 11  1  0  0  0
 11 12  2  0  0  0
 11 17  1  0  0  0
 12 13  1  0  0  0
 12 14  1  0  0  0
 14 15  1  0  0  0
 15 16  1  0  0  0
 16  1  1  0  0  0
 16 17  1  0  0  0
  1  2  1  0  0  0
  1  6  2  0  0  0
  2  3  2  0  0  0
  3  4  1  0  0  0
  4  5  2  0  0  0
  5 20  1  0  0  0
  5  6  1  0  0  0
 20 21  2  0  0  0
 20 22  1  0  0  0
 22 24  1  0  0  0
 22 23  1  0  0  0
 24 25  1  0  0  0
 24 28  1  0  0  0
 25 26  1  0  0  0
 26 27  1  0  0  0
 27 28  1  0  0  0
M  END
> <minimizedAffinity>
-9.56482

$$$$
