CHEMBL1082959


 39 43  0  0  0  0  0  0  0  0999 V2000
  -18.2214    2.2812  -15.2954 C   0  0  0  0  0  0  0  0  0  0  0  0
  -17.8493    3.6984  -15.5978 C   0  0  0  0  0  0  0  0  0  0  0  0
  -16.6845    4.1380  -15.9590 N   0  0  0  0  0  0  0  0  0  0  0  0
  -15.6963    3.1962  -16.0682 C   0  0  0  0  0  0  0  0  0  0  0  0
  -14.3753    3.2752  -16.4727 C   0  0  0  0  0  0  0  0  0  0  0  0
  -13.9023    1.9446  -16.3755 C   0  0  0  0  0  0  0  0  0  0  0  0
  -14.8201    1.0846  -15.9494 N   0  0  0  0  0  0  0  0  0  0  0  0
  -15.9303    1.8506  -15.7504 N   0  0  0  0  0  0  0  0  0  0  0  0
  -17.2134    1.3870  -15.3438 C   0  0  0  0  0  0  0  0  0  0  0  0
  -17.3303    0.0272  -15.0556 N   0  0  0  0  0  0  0  0  0  0  0  0
  -16.5570   -0.5088  -15.4594 H   0  0  0  0  0  0  0  0  0  0  0  0
  -18.2506   -0.3639  -15.2288 H   0  0  0  0  0  0  0  0  0  0  0  0
  -22.1512    1.2655  -13.9953 C   0  0  0  0  0  0  0  0  0  0  0  0
  -21.3578    0.3275  -14.6627 C   0  0  0  0  0  0  0  0  0  0  0  0
  -20.0918    0.6712  -15.1362 C   0  0  0  0  0  0  0  0  0  0  0  0
  -19.6036    1.9630  -14.9474 C   0  0  0  0  0  0  0  0  0  0  0  0
  -20.4262    2.9306  -14.3567 C   0  0  0  0  0  0  0  0  0  0  0  0
  -21.7005    2.5845  -13.8934 C   0  0  0  0  0  0  0  0  0  0  0  0
  -23.6263    0.0148  -12.4416 C   0  0  0  0  0  0  0  0  0  0  0  0
  -22.8035   -0.6075  -11.7875 O   0  0  0  0  0  0  0  0  0  0  0  0
  -23.3924    0.9425  -13.4219 N   0  0  0  0  0  0  0  0  0  0  0  0
  -24.2220    1.4069  -13.7628 H   0  0  0  0  0  0  0  0  0  0  0  0
  -24.9673   -0.1895  -12.3490 O   0  0  0  0  0  0  0  0  0  0  0  0
  -25.4024   -1.3725  -13.0308 C   0  0  0  0  0  0  0  0  0  0  0  0
  -27.2643   -1.1606  -11.3237 C   0  0  0  0  0  0  0  0  0  0  0  0
  -26.6882   -1.9869  -12.4716 C   0  0  0  0  0  0  0  0  0  0  0  0
  -27.7074   -2.0929  -13.6099 C   0  0  0  0  0  0  0  0  0  0  0  0
  -13.6719    4.4698  -16.9200 C   0  0  0  0  0  0  0  0  0  0  0  0
  -12.5618    4.9316  -16.2034 C   0  0  0  0  0  0  0  0  0  0  0  0
  -11.8363    6.0258  -16.6643 C   0  0  0  0  0  0  0  0  0  0  0  0
  -12.2131    6.6610  -17.8487 C   0  0  0  0  0  0  0  0  0  0  0  0
  -13.3243    6.2392  -18.5948 C   0  0  0  0  0  0  0  0  0  0  0  0
  -14.0459    5.1436  -18.0980 C   0  0  0  0  0  0  0  0  0  0  0  0
  -13.6751    6.9104  -19.7535 N   0  0  0  0  0  0  0  0  0  0  0  0
  -12.7740    7.8608  -20.4245 C   0  0  0  0  0  0  0  0  0  0  0  0
  -13.2794    9.3023  -20.2774 C   0  0  0  0  0  0  0  0  0  0  0  0
  -14.6405    9.4313  -20.7241 O   0  0  0  0  0  0  0  0  0  0  0  0
  -15.4958    8.5782  -19.9459 C   0  0  0  0  0  0  0  0  0  0  0  0
  -15.1013    7.0964  -20.0755 C   0  0  0  0  0  0  0  0  0  0  0  0
 25 26  1  0  0  0
 26 27  1  0  0  0
 26 24  1  0  0  0
 24 23  1  0  0  0
 23 19  1  0  0  0
 19 20  2  0  0  0
 19 21  1  0  0  0
 21 13  1  0  0  0
 21 22  1  0  0  0
 13 14  1  0  0  0
 13 18  2  0  0  0
 14 15  2  0  0  0
 15 16  1  0  0  0
 16  1  1  0  0  0
 16 17  2  0  0  0
  1  2  1  0  0  0
  1  9  2  0  0  0
  2  3  2  0  0  0
  3  4  1  0  0  0
  4  5  2  0  0  0
  4  8  1  0  0  0
  5 28  1  0  0  0
  5  6  1  0  0  0
 28 29  1  0  0  0
 28 33  2  0  0  0
 29 30  2  0  0  0
 30 31  1  0  0  0
 31 32  2  0  0  0
 32 34  1  0  0  0
 32 33  1  0  0  0
 34 35  1  0  0  0
 34 39  1  0  0  0
 35 36  1  0  0  0
 36 37  1  0  0  0
 37 38  1  0  0  0
 38 39  1  0  0  0
  6  7  2  0  0  0
  7  8  1  0  0  0
  8  9  1  0  0  0
  9 10  1  0  0  0
 10 11  1  0  0  0
 10 12  1  0  0  0
 17 18  1  0  0  0
M  END
> <minimizedAffinity>
-9.68367

$$$$
