CHEMBL391069


 27 30  0  0  0  0  0  0  0  0999 V2000
  -25.0514   -1.5792  -10.3466 O   0  0  0  0  0  0  0  0  0  0  0  0
  -26.0577   -1.6285  -11.0457 C   0  0  0  0  0  0  0  0  0  0  0  0
  -27.3383   -1.7959  -10.5326 N   0  0  0  0  0  0  0  0  0  0  0  0
  -28.1086   -1.7352  -11.1797 H   0  0  0  0  0  0  0  0  0  0  0  0
  -27.6705   -2.0632   -9.1781 C   0  0  0  0  0  0  0  0  0  0  0  0
  -28.0679   -3.3024   -8.6905 C   0  0  0  0  0  0  0  0  0  0  0  0
  -28.4507   -3.5441   -7.4109 N   0  0  0  0  0  0  0  0  0  0  0  0
  -28.4596   -2.5201   -6.5501 C   0  0  0  0  0  0  0  0  0  0  0  0
  -28.9035   -2.7413   -5.2543 C   0  0  0  0  0  0  0  0  0  0  0  0
  -28.9603   -1.7114   -4.3140 C   0  0  0  0  0  0  0  0  0  0  0  0
  -28.5444   -0.4335   -4.6679 C   0  0  0  0  0  0  0  0  0  0  0  0
  -28.0839   -0.1883   -5.9634 C   0  0  0  0  0  0  0  0  0  0  0  0
  -28.0508   -1.2224   -6.9199 C   0  0  0  0  0  0  0  0  0  0  0  0
  -27.6451   -1.0135   -8.2562 C   0  0  0  0  0  0  0  0  0  0  0  0
  -25.9818   -1.5152  -12.4921 C   0  0  0  0  0  0  0  0  0  0  0  0
  -26.9067   -1.8908  -13.4575 C   0  0  0  0  0  0  0  0  0  0  0  0
  -26.2993   -1.6310  -14.6938 C   0  0  0  0  0  0  0  0  0  0  0  0
  -25.0826   -1.1163  -14.5538 N   0  0  0  0  0  0  0  0  0  0  0  0
  -24.8884   -1.0634  -13.2148 N   0  0  0  0  0  0  0  0  0  0  0  0
  -23.5817   -0.6050  -12.7535 C   0  0  0  0  0  0  0  0  0  0  0  0
  -22.5172   -0.6344  -13.8565 C   0  0  0  0  0  0  0  0  0  0  0  0
  -21.9402    0.7302  -14.1623 C   0  0  0  0  0  0  0  0  0  0  0  0
  -22.6525    1.8942  -13.8588 C   0  0  0  0  0  0  0  0  0  0  0  0
  -22.0769    3.1255  -14.1421 C   0  0  0  0  0  0  0  0  0  0  0  0
  -20.8572    3.2726  -14.7037 N   0  0  0  0  0  0  0  0  0  0  0  0
  -20.1869    2.1381  -14.9930 C   0  0  0  0  0  0  0  0  0  0  0  0
  -20.6785    0.8625  -14.7470 C   0  0  0  0  0  0  0  0  0  0  0  0
  1  2  2  0  0  0
  2  3  1  0  0  0
  2 15  1  0  0  0
  3  5  1  0  0  0
  3  4  1  0  0  0
  5  6  1  0  0  0
  5 14  2  0  0  0
  6  7  2  0  0  0
  7  8  1  0  0  0
  8  9  1  0  0  0
  8 13  2  0  0  0
  9 10  2  0  0  0
 10 11  1  0  0  0
 11 12  2  0  0  0
 12 13  1  0  0  0
 13 14  1  0  0  0
 15 16  2  0  0  0
 15 19  1  0  0  0
 16 17  1  0  0  0
 17 18  2  0  0  0
 18 19  1  0  0  0
 19 20  1  0  0  0
 20 21  1  0  0  0
 21 22  1  0  0  0
 22 23  1  0  0  0
 22 27  2  0  0  0
 23 24  2  0  0  0
 24 25  1  0  0  0
 25 26  2  0  0  0
 26 27  1  0  0  0
M  END
> <minimizedAffinity>
-9.99658

$$$$
