CHEMBL3671525


 37 39  0  0  0  0  0  0  0  0999 V2000
  -29.7159   -4.9957   -6.9702 C   0  0  0  0  0  0  0  0  0  0  0  0
  -29.0422   -4.2478   -7.9385 C   0  0  0  0  0  0  0  0  0  0  0  0
  -28.5229   -2.9728   -7.6247 C   0  0  0  0  0  0  0  0  0  0  0  0
  -27.9541   -2.0901   -8.5558 C   0  0  0  0  0  0  0  0  0  0  0  0
  -27.4776   -0.8838   -8.1922 N   0  0  0  0  0  0  0  0  0  0  0  0
  -27.5926   -0.5469   -6.9093 C   0  0  0  0  0  0  0  0  0  0  0  0
  -28.1505   -1.2877   -5.9516 N   0  0  0  0  0  0  0  0  0  0  0  0
  -28.6258   -2.4859   -6.3129 C   0  0  0  0  0  0  0  0  0  0  0  0
  -29.2607   -3.2674   -5.3563 C   0  0  0  0  0  0  0  0  0  0  0  0
  -29.7966   -4.5260   -5.6527 C   0  0  0  0  0  0  0  0  0  0  0  0
  -29.6544   -7.3722   -7.3109 C   0  0  0  0  0  0  0  0  0  0  0  0
  -28.4974   -7.5080   -6.9381 O   0  0  0  0  0  0  0  0  0  0  0  0
  -30.3571   -6.1800   -7.3908 N   0  0  0  0  0  0  0  0  0  0  0  0
  -31.3194   -6.2814   -7.0896 H   0  0  0  0  0  0  0  0  0  0  0  0
  -31.8328   -8.4958   -7.5354 C   0  0  0  0  0  0  0  0  0  0  0  0
  -30.5046   -8.5308   -7.6958 C   0  0  0  0  0  0  0  0  0  0  0  0
  -27.9326   -2.4272   -9.9366 N   0  0  0  0  0  0  0  0  0  0  0  0
  -28.0936   -3.4213  -10.0707 H   0  0  0  0  0  0  0  0  0  0  0  0
  -26.9820   -1.9128  -10.8507 C   0  0  0  0  0  0  0  0  0  0  0  0
  -25.6942   -1.5571  -10.4235 C   0  0  0  0  0  0  0  0  0  0  0  0
  -24.7213   -1.1592  -11.3384 C   0  0  0  0  0  0  0  0  0  0  0  0
  -25.0375   -1.0893  -12.6936 C   0  0  0  0  0  0  0  0  0  0  0  0
  -23.6911   -0.6404  -13.9422 Br  0  0  0  0  0  0  0  0  0  0  0  0
  -26.3292   -1.3683  -13.1342 C   0  0  0  0  0  0  0  0  0  0  0  0
  -27.2904   -1.7673  -12.2080 C   0  0  0  0  0  0  0  0  0  0  0  0
  -28.5291   -2.0560  -12.6381 F   0  0  0  0  0  0  0  0  0  0  0  0
  -30.3512   -5.1735   -4.5696 O   0  0  0  0  0  0  0  0  0  0  0  0
  -29.4126   -5.6845   -3.6195 C   0  0  0  0  0  0  0  0  0  0  0  0
  -29.5739   -7.1964   -3.4420 C   0  0  0  0  0  0  0  0  0  0  0  0
  -28.4054   -7.9172   -3.9334 N   0  0  0  0  0  0  0  0  0  0  0  0
  -28.2811   -9.2725   -3.7258 C   0  0  0  0  0  0  0  0  0  0  0  0
  -29.1564   -9.9536   -3.2074 O   0  0  0  0  0  0  0  0  0  0  0  0
  -27.6302   -7.3858   -4.3101 H   0  0  0  0  0  0  0  0  0  0  0  0
  -26.9681   -9.8343   -4.1342 C   0  0  0  0  0  0  0  0  0  0  0  0
  -25.8721   -9.0633   -4.0429 C   0  0  0  0  0  0  0  0  0  0  0  0
  -24.4908   -9.4654   -4.4672 C   0  0  0  0  0  0  0  0  0  0  0  0
  -24.5045  -10.1876   -5.8065 C   0  0  0  0  0  0  0  0  0  0  0  0
 15 16  2  0  0  0
 16 11  1  0  0  0
 11 12  2  0  0  0
 11 13  1  0  0  0
 13  1  1  0  0  0
 13 14  1  0  0  0
  1  2  1  0  0  0
  1 10  2  0  0  0
  2  3  2  0  0  0
  3  4  1  0  0  0
  3  8  1  0  0  0
  4 17  1  0  0  0
  4  5  2  0  0  0
 17 19  1  0  0  0
 17 18  1  0  0  0
 19 20  1  0  0  0
 19 25  2  0  0  0
 20 21  2  0  0  0
 21 22  1  0  0  0
 22 23  1  0  0  0
 22 24  2  0  0  0
 24 25  1  0  0  0
 25 26  1  0  0  0
  5  6  1  0  0  0
  6  7  2  0  0  0
  7  8  1  0  0  0
  8  9  2  0  0  0
  9 10  1  0  0  0
 10 27  1  0  0  0
 27 28  1  0  0  0
 28 29  1  0  0  0
 29 30  1  0  0  0
 30 31  1  0  0  0
 30 33  1  0  0  0
 31 32  2  0  0  0
 31 34  1  0  0  0
 34 35  2  0  0  0
 35 36  1  0  0  0
 36 37  1  0  0  0
M  END
> <minimizedAffinity>
-8.96441

$$$$
