CHEMBL3754335


 34 38  0  0  0  0  0  0  0  0999 V2000
  -30.0573   -9.6267   -8.4898 N   0  0  0  0  0  0  0  0  0  0  0  0
  -28.8257   -8.7814   -8.4730 C   0  0  0  0  0  0  0  0  0  0  0  0
  -28.5813   -7.9989   -7.1595 C   0  0  0  0  0  0  0  0  0  0  0  0
  -29.7564   -7.1534   -6.9498 N   0  0  0  0  0  0  0  0  0  0  0  0
  -30.9815   -7.9337   -6.7428 C   0  0  0  0  0  0  0  0  0  0  0  0
  -31.2142   -8.7909   -8.0241 C   0  0  0  0  0  0  0  0  0  0  0  0
  -29.6938   -5.8324   -6.5421 C   0  0  0  0  0  0  0  0  0  0  0  0
  -28.9964   -4.9686   -7.3083 N   0  0  0  0  0  0  0  0  0  0  0  0
  -28.8636   -3.6403   -6.9684 N   0  0  0  0  0  0  0  0  0  0  0  0
  -29.4881   -3.1361   -5.8780 C   0  0  0  0  0  0  0  0  0  0  0  0
  -30.3013   -3.9708   -5.0765 C   0  0  0  0  0  0  0  0  0  0  0  0
  -31.1127   -3.5143   -3.9992 C   0  0  0  0  0  0  0  0  0  0  0  0
  -31.7607   -4.3796   -3.1158 C   0  0  0  0  0  0  0  0  0  0  0  0
  -31.6093   -5.7385   -3.2795 C   0  0  0  0  0  0  0  0  0  0  0  0
  -30.8834   -6.2098   -4.3681 C   0  0  0  0  0  0  0  0  0  0  0  0
  -30.3015   -5.3591   -5.3452 C   0  0  0  0  0  0  0  0  0  0  0  0
  -29.1682   -1.7091   -5.6018 C   0  0  0  0  0  0  0  0  0  0  0  0
  -27.8900   -1.3195   -5.1612 C   0  0  0  0  0  0  0  0  0  0  0  0
  -27.5739    0.0237   -4.9173 C   0  0  0  0  0  0  0  0  0  0  0  0
  -28.5260    1.0165   -5.1227 C   0  0  0  0  0  0  0  0  0  0  0  0
  -29.8106    0.6620   -5.5145 C   0  0  0  0  0  0  0  0  0  0  0  0
  -30.1329   -0.6845   -5.7076 C   0  0  0  0  0  0  0  0  0  0  0  0
  -29.9236  -10.8096   -7.6055 C   0  0  0  0  0  0  0  0  0  0  0  0
  -27.8243  -11.7233   -8.3106 O   0  0  0  0  0  0  0  0  0  0  0  0
  -28.4655  -11.2252   -7.3855 C   0  0  0  0  0  0  0  0  0  0  0  0
  -27.9946  -10.9725   -6.1084 N   0  0  0  0  0  0  0  0  0  0  0  0
  -28.7187  -10.7084   -5.4430 H   0  0  0  0  0  0  0  0  0  0  0  0
  -26.6978  -11.2387   -5.6235 C   0  0  0  0  0  0  0  0  0  0  0  0
  -26.4224  -12.2468   -4.6988 C   0  0  0  0  0  0  0  0  0  0  0  0
  -25.1225  -12.4610   -4.2326 C   0  0  0  0  0  0  0  0  0  0  0  0
  -24.0798  -11.6594   -4.6922 C   0  0  0  0  0  0  0  0  0  0  0  0
  -24.3446  -10.6607   -5.6241 C   0  0  0  0  0  0  0  0  0  0  0  0
  -23.0564   -9.6635   -6.1840 Cl  0  0  0  0  0  0  0  0  0  0  0  0
  -25.6415  -10.4514   -6.1018 C   0  0  0  0  0  0  0  0  0  0  0  0
 24 25  2  0  0  0
 25 23  1  0  0  0
 25 26  1  0  0  0
 23  1  1  0  0  0
  1  2  1  0  0  0
  1  6  1  0  0  0
  2  3  1  0  0  0
  3  4  1  0  0  0
  4  7  1  0  0  0
  4  5  1  0  0  0
  7  8  1  0  0  0
  7 16  2  0  0  0
  8  9  2  0  0  0
  9 10  1  0  0  0
 10 17  1  0  0  0
 10 11  2  0  0  0
 17 18  1  0  0  0
 17 22  2  0  0  0
 18 19  2  0  0  0
 19 20  1  0  0  0
 20 21  2  0  0  0
 21 22  1  0  0  0
 11 12  1  0  0  0
 11 16  1  0  0  0
 12 13  2  0  0  0
 13 14  1  0  0  0
 14 15  2  0  0  0
 15 16  1  0  0  0
  5  6  1  0  0  0
 26 28  1  0  0  0
 26 27  1  0  0  0
 28 29  1  0  0  0
 28 34  2  0  0  0
 29 30  2  0  0  0
 30 31  1  0  0  0
 31 32  2  0  0  0
 32 33  1  0  0  0
 32 34  1  0  0  0
M  END
> <minimizedAffinity>
-9.30276

$$$$
