CHEMBL3403517


 23 26  0  0  0  0  0  0  0  0999 V2000
  -27.9686   -2.3731   -7.8297 C   0  0  0  0  0  0  0  0  0  0  0  0
  -28.4795   -3.5037   -8.4521 C   0  0  0  0  0  0  0  0  0  0  0  0
  -29.2713   -4.4026   -7.7334 C   0  0  0  0  0  0  0  0  0  0  0  0
  -29.5697   -4.2122   -6.3773 C   0  0  0  0  0  0  0  0  0  0  0  0
  -29.0386   -3.0613   -5.7506 C   0  0  0  0  0  0  0  0  0  0  0  0
  -28.2418   -2.1596   -6.4797 C   0  0  0  0  0  0  0  0  0  0  0  0
  -29.3121   -2.7561   -4.2989 C   0  0  0  0  0  0  0  0  0  0  0  0
  -29.8817   -3.9561   -3.5579 C   0  0  0  0  0  0  0  0  0  0  0  0
  -30.9422   -4.6186   -4.4256 C   0  0  0  0  0  0  0  0  0  0  0  0
  -30.3249   -5.1607   -5.6375 N   0  0  0  0  0  0  0  0  0  0  0  0
  -30.2560   -6.5602   -5.8030 C   0  0  0  0  0  0  0  0  0  0  0  0
  -31.2449   -7.1991   -6.4950 N   0  0  0  0  0  0  0  0  0  0  0  0
  -31.1784   -8.5168   -6.7706 C   0  0  0  0  0  0  0  0  0  0  0  0
  -32.2873   -9.0835   -7.6057 C   0  0  0  0  0  0  0  0  0  0  0  0
  -30.1970   -9.3482   -6.4089 N   0  0  0  0  0  0  0  0  0  0  0  0
  -29.2362   -8.7156   -5.7239 C   0  0  0  0  0  0  0  0  0  0  0  0
  -28.1134   -9.3585   -5.2824 O   0  0  0  0  0  0  0  0  0  0  0  0
  -27.3340   -8.4306   -4.6675 C   0  0  0  0  0  0  0  0  0  0  0  0
  -26.0353   -8.8701   -4.1238 C   0  0  0  0  0  0  0  0  0  0  0  0
  -27.9475   -7.2028   -4.7023 C   0  0  0  0  0  0  0  0  0  0  0  0
  -29.1849   -7.3711   -5.3788 C   0  0  0  0  0  0  0  0  0  0  0  0
  -26.8992   -1.6711   -9.8072 C   0  0  0  0  0  0  0  0  0  0  0  0
  -27.1756   -1.4363   -8.4298 O   0  0  0  0  0  0  0  0  0  0  0  0
 22 23  1  0  0  0
 23  1  1  0  0  0
  1  2  1  0  0  0
  1  6  2  0  0  0
  2  3  2  0  0  0
  3  4  1  0  0  0
  4  5  2  0  0  0
  4 10  1  0  0  0
  5  6  1  0  0  0
  5  7  1  0  0  0
  7  8  1  0  0  0
  8  9  1  0  0  0
  9 10  1  0  0  0
 10 11  1  0  0  0
 11 12  1  0  0  0
 11 21  2  0  0  0
 12 13  2  0  0  0
 13 14  1  0  0  0
 13 15  1  0  0  0
 15 16  2  0  0  0
 16 17  1  0  0  0
 16 21  1  0  0  0
 17 18  1  0  0  0
 18 19  1  0  0  0
 18 20  2  0  0  0
 20 21  1  0  0  0
M  END
> <minimizedAffinity>
-8.14585

$$$$
