CHEMBL3114020


 28 31  0  0  0  0  0  0  0  0999 V2000
  -28.2108   -2.9986   -6.8013 C   0  0  0  0  0  0  0  0  0  0  0  0
  -27.8901   -1.7797   -6.2437 C   0  0  0  0  0  0  0  0  0  0  0  0
  -27.6521   -0.7392   -7.1112 C   0  0  0  0  0  0  0  0  0  0  0  0
  -27.7496   -0.8430   -8.4454 N   0  0  0  0  0  0  0  0  0  0  0  0
  -28.0711   -2.0514   -8.9199 C   0  0  0  0  0  0  0  0  0  0  0  0
  -28.2898   -3.1128   -8.1348 N   0  0  0  0  0  0  0  0  0  0  0  0
  -28.4182   -4.1585   -6.0122 N   0  0  0  0  0  0  0  0  0  0  0  0
  -28.2878   -3.9518   -4.5695 C   0  0  0  0  0  0  0  0  0  0  0  0
  -32.0342   -9.5420   -7.9372 C   0  0  0  0  0  0  0  0  0  0  0  0
  -30.7675   -8.7696   -8.0036 C   0  0  0  0  0  0  0  0  0  0  0  0
  -30.3283   -7.6302   -7.3741 C   0  0  0  0  0  0  0  0  0  0  0  0
  -31.0358   -6.8872   -6.4399 C   0  0  0  0  0  0  0  0  0  0  0  0
  -30.2951   -5.7566   -6.0259 C   0  0  0  0  0  0  0  0  0  0  0  0
  -28.9735   -5.3824   -6.4879 C   0  0  0  0  0  0  0  0  0  0  0  0
  -28.2944   -6.2092   -7.4268 C   0  0  0  0  0  0  0  0  0  0  0  0
  -29.0087   -7.3443   -7.8693 C   0  0  0  0  0  0  0  0  0  0  0  0
  -28.6593   -8.2853   -8.7624 N   0  0  0  0  0  0  0  0  0  0  0  0
  -29.7158   -9.1246   -8.8149 N   0  0  0  0  0  0  0  0  0  0  0  0
  -29.6628  -10.2644   -9.7031 C   0  0  0  0  0  0  0  0  0  0  0  0
  -28.0981   -2.1823  -10.3058 N   0  0  0  0  0  0  0  0  0  0  0  0
  -29.0520   -2.2200  -10.6306 H   0  0  0  0  0  0  0  0  0  0  0  0
  -27.0810   -2.0074  -11.2531 C   0  0  0  0  0  0  0  0  0  0  0  0
  -27.4283   -1.8362  -12.5994 C   0  0  0  0  0  0  0  0  0  0  0  0
  -26.4501   -1.6160  -13.5782 C   0  0  0  0  0  0  0  0  0  0  0  0
  -25.1079   -1.5730  -13.2160 C   0  0  0  0  0  0  0  0  0  0  0  0
  -24.7445   -1.7317  -11.8853 C   0  0  0  0  0  0  0  0  0  0  0  0
  -23.0858   -1.6751  -11.4304 Cl  0  0  0  0  0  0  0  0  0  0  0  0
  -25.7215   -1.9447  -10.9142 C   0  0  0  0  0  0  0  0  0  0  0  0
  9 10  1  0  0  0
 10 11  2  0  0  0
 10 18  1  0  0  0
 11 12  1  0  0  0
 11 16  1  0  0  0
 12 13  2  0  0  0
 13 14  1  0  0  0
 14  7  1  0  0  0
 14 15  2  0  0  0
  7  8  1  0  0  0
  7  1  1  0  0  0
  1  2  1  0  0  0
  1  6  2  0  0  0
  2  3  2  0  0  0
  3  4  1  0  0  0
  4  5  2  0  0  0
  5 20  1  0  0  0
  5  6  1  0  0  0
 20 22  1  0  0  0
 20 21  1  0  0  0
 22 23  1  0  0  0
 22 28  2  0  0  0
 23 24  2  0  0  0
 24 25  1  0  0  0
 25 26  2  0  0  0
 26 27  1  0  0  0
 26 28  1  0  0  0
 15 16  1  0  0  0
 16 17  2  0  0  0
 17 18  1  0  0  0
 18 19  1  0  0  0
M  END
> <minimizedAffinity>
-9.17303

$$$$
