CHEMBL3983466


 36 40  0  0  0  0  0  0  0  0999 V2000
  -28.9425  -10.7731   -4.4176 C   0  0  0  0  0  0  0  0  0  0  0  0
  -29.7528   -9.7938   -4.9679 C   0  0  0  0  0  0  0  0  0  0  0  0
  -29.4916   -9.2105   -6.2078 C   0  0  0  0  0  0  0  0  0  0  0  0
  -30.1680   -8.0762   -6.6456 C   0  0  0  0  0  0  0  0  0  0  0  0
  -29.9907   -7.6039   -7.8877 N   0  0  0  0  0  0  0  0  0  0  0  0
  -29.0773   -8.2398   -8.6265 C   0  0  0  0  0  0  0  0  0  0  0  0
  -28.3233   -9.2991   -8.2588 N   0  0  0  0  0  0  0  0  0  0  0  0
  -28.5298   -9.7945   -7.0367 C   0  0  0  0  0  0  0  0  0  0  0  0
  -27.8123  -10.8944   -6.5377 C   0  0  0  0  0  0  0  0  0  0  0  0
  -27.9777  -11.3873   -5.2369 C   0  0  0  0  0  0  0  0  0  0  0  0
  -29.9979  -12.0995   -2.7536 C   0  0  0  0  0  0  0  0  0  0  0  0
  -29.0500  -11.0897   -3.0883 O   0  0  0  0  0  0  0  0  0  0  0  0
  -31.0029   -7.3608   -5.7516 N   0  0  0  0  0  0  0  0  0  0  0  0
  -31.5838   -7.9809   -5.1947 H   0  0  0  0  0  0  0  0  0  0  0  0
  -30.7719   -6.1055   -5.1506 C   0  0  0  0  0  0  0  0  0  0  0  0
  -31.7869   -5.4707   -4.4264 C   0  0  0  0  0  0  0  0  0  0  0  0
  -31.4971   -4.4044   -3.5770 C   0  0  0  0  0  0  0  0  0  0  0  0
  -30.1929   -3.9181   -3.4746 C   0  0  0  0  0  0  0  0  0  0  0  0
  -29.8871   -2.7161   -2.2716 Cl  0  0  0  0  0  0  0  0  0  0  0  0
  -29.1840   -4.4535   -4.2800 C   0  0  0  0  0  0  0  0  0  0  0  0
  -27.5710   -3.8302   -4.2566 Cl  0  0  0  0  0  0  0  0  0  0  0  0
  -29.4798   -5.5548   -5.0939 C   0  0  0  0  0  0  0  0  0  0  0  0
  -28.5004   -6.1360   -5.8120 F   0  0  0  0  0  0  0  0  0  0  0  0
  -27.1875  -12.4650   -4.9066 O   0  0  0  0  0  0  0  0  0  0  0  0
  -26.2647  -12.2843   -3.8195 C   0  0  0  0  0  0  0  0  0  0  0  0
  -24.9770  -11.5701   -4.2629 C   0  0  0  0  0  0  0  0  0  0  0  0
  -24.7814  -11.8502   -5.7824 C   0  0  0  0  0  0  0  0  0  0  0  0
  -23.4237  -11.5959   -6.2420 N   0  0  0  0  0  0  0  0  0  0  0  0
  -23.1258  -12.2035   -7.5374 C   0  0  0  0  0  0  0  0  0  0  0  0
  -21.6111  -12.0397   -7.5837 C   0  0  0  0  0  0  0  0  0  0  0  0
  -21.1583  -12.0937   -6.1195 C   0  0  0  0  0  0  0  0  0  0  0  0
  -22.4533  -12.2563   -5.3508 C   0  0  0  0  0  0  0  0  0  0  0  0
  -22.5159  -11.6901   -3.9420 C   0  0  0  0  0  0  0  0  0  0  0  0
  -21.5287  -11.3387   -3.3035 O   0  0  0  0  0  0  0  0  0  0  0  0
  -23.7983  -11.8465   -3.3989 N   0  0  0  0  0  0  0  0  0  0  0  0
  -23.9409  -11.8320   -1.9549 C   0  0  0  0  0  0  0  0  0  0  0  0
 11 12  1  0  0  0
 12  1  1  0  0  0
  1  2  1  0  0  0
  1 10  2  0  0  0
  2  3  2  0  0  0
  3  4  1  0  0  0
  3  8  1  0  0  0
  4 13  1  0  0  0
  4  5  2  0  0  0
 13 15  1  0  0  0
 13 14  1  0  0  0
 15 16  1  0  0  0
 15 22  2  0  0  0
 16 17  2  0  0  0
 17 18  1  0  0  0
 18 19  1  0  0  0
 18 20  2  0  0  0
 20 21  1  0  0  0
 20 22  1  0  0  0
 22 23  1  0  0  0
  5  6  1  0  0  0
  6  7  2  0  0  0
  7  8  1  0  0  0
  8  9  2  0  0  0
  9 10  1  0  0  0
 10 24  1  0  0  0
 24 25  1  0  0  0
 26 27  1  0  0  0
 26 35  1  0  0  0
 26 25  1  0  0  0
 27 28  1  0  0  0
 28 29  1  0  0  0
 28 32  1  0  0  0
 29 30  1  0  0  0
 30 31  1  0  0  0
 31 32  1  0  0  0
 32 33  1  0  0  0
 33 34  2  0  0  0
 33 35  1  0  0  0
 35 36  1  0  0  0
M  END
> <minimizedAffinity>
-7.44135

$$$$
