CHEMBL3958722


 40 43  0  0  0  0  0  0  0  0999 V2000
  -16.0933    2.6000  -15.9749 N   0  0  0  0  0  0  0  0  0  0  0  0
  -17.2009    2.2580  -15.2148 C   0  0  0  0  0  0  0  0  0  0  0  0
  -17.1617    1.8060  -14.0741 O   0  0  0  0  0  0  0  0  0  0  0  0
  -18.3980    2.4219  -15.8988 N   0  0  0  0  0  0  0  0  0  0  0  0
  -16.2546    2.9267  -16.9168 H   0  0  0  0  0  0  0  0  0  0  0  0
  -18.3634    2.1776  -16.8775 H   0  0  0  0  0  0  0  0  0  0  0  0
  -12.8142    1.2276  -14.8172 C   0  0  0  0  0  0  0  0  0  0  0  0
  -14.1470    1.2921  -15.2216 C   0  0  0  0  0  0  0  0  0  0  0  0
  -14.7477    2.5110  -15.5358 C   0  0  0  0  0  0  0  0  0  0  0  0
  -13.9940    3.6858  -15.3864 C   0  0  0  0  0  0  0  0  0  0  0  0
  -12.6448    3.6350  -14.9660 C   0  0  0  0  0  0  0  0  0  0  0  0
  -12.0512    2.3882  -14.7038 C   0  0  0  0  0  0  0  0  0  0  0  0
  -13.1918   -1.5538  -15.1313 C   0  0  0  0  0  0  0  0  0  0  0  0
  -12.1644   -0.3525  -14.3317 S   0  0  0  0  0  0  0  0  0  0  0  0
  -12.3627   -0.4515  -12.8988 O   0  0  0  0  0  0  0  0  0  0  0  0
  -10.8335   -0.4627  -14.9105 O   0  0  0  0  0  0  0  0  0  0  0  0
  -11.8354    4.8948  -14.7527 C   0  0  0  0  0  0  0  0  0  0  0  0
  -11.2384    4.9540  -13.5299 F   0  0  0  0  0  0  0  0  0  0  0  0
  -10.8323    5.0248  -15.6636 F   0  0  0  0  0  0  0  0  0  0  0  0
  -12.5879    6.0238  -14.8569 F   0  0  0  0  0  0  0  0  0  0  0  0
  -19.6184    2.1633  -15.2221 C   0  0  0  0  0  0  0  0  0  0  0  0
  -20.3376    3.2053  -14.6430 C   0  0  0  0  0  0  0  0  0  0  0  0
  -21.5830    2.9383  -14.0583 C   0  0  0  0  0  0  0  0  0  0  0  0
  -22.0450    1.6270  -14.0347 C   0  0  0  0  0  0  0  0  0  0  0  0
  -21.3330    0.5887  -14.5240 N   0  0  0  0  0  0  0  0  0  0  0  0
  -20.1605    0.8815  -15.1351 C   0  0  0  0  0  0  0  0  0  0  0  0
  -23.2932    1.3864  -13.4595 O   0  0  0  0  0  0  0  0  0  0  0  0
  -23.5325    0.1233  -12.9458 C   0  0  0  0  0  0  0  0  0  0  0  0
  -22.8810   -1.0123  -13.4137 C   0  0  0  0  0  0  0  0  0  0  0  0
  -23.1939   -2.2212  -12.8353 C   0  0  0  0  0  0  0  0  0  0  0  0
  -24.1315   -2.3646  -11.8822 N   0  0  0  0  0  0  0  0  0  0  0  0
  -24.8052   -1.2792  -11.4571 C   0  0  0  0  0  0  0  0  0  0  0  0
  -24.5328   -0.0117  -11.9685 C   0  0  0  0  0  0  0  0  0  0  0  0
  -25.7969   -1.4373  -10.4696 N   0  0  0  0  0  0  0  0  0  0  0  0
  -27.1372   -1.6403  -10.7537 C   0  0  0  0  0  0  0  0  0  0  0  0
  -27.6672   -1.6738  -11.8549 O   0  0  0  0  0  0  0  0  0  0  0  0
  -25.5089   -1.3792   -9.5127 H   0  0  0  0  0  0  0  0  0  0  0  0
  -28.0568   -1.8231   -9.5871 C   0  0  0  0  0  0  0  0  0  0  0  0
  -27.6132   -1.3838   -8.2107 C   0  0  0  0  0  0  0  0  0  0  0  0
  -27.9322   -2.8281   -8.4743 C   0  0  0  0  0  0  0  0  0  0  0  0
 13 14  1  0  0  0
 14 15  2  0  0  0
 14 16  2  0  0  0
 14  7  1  0  0  0
  7  8  1  0  0  0
  7 12  2  0  0  0
  8  9  2  0  0  0
  9  1  1  0  0  0
  9 10  1  0  0  0
  1  2  1  0  0  0
  1  5  1  0  0  0
  2  3  2  0  0  0
  2  4  1  0  0  0
  4 21  1  0  0  0
  4  6  1  0  0  0
 21 22  1  0  0  0
 21 26  2  0  0  0
 22 23  2  0  0  0
 23 24  1  0  0  0
 24 27  1  0  0  0
 24 25  2  0  0  0
 27 28  1  0  0  0
 28 29  1  0  0  0
 28 33  2  0  0  0
 29 30  2  0  0  0
 30 31  1  0  0  0
 31 32  2  0  0  0
 32 34  1  0  0  0
 32 33  1  0  0  0
 34 35  1  0  0  0
 34 37  1  0  0  0
 35 36  2  0  0  0
 35 38  1  0  0  0
 38 39  1  0  0  0
 38 40  1  0  0  0
 39 40  1  0  0  0
 25 26  1  0  0  0
 10 11  2  0  0  0
 11 17  1  0  0  0
 11 12  1  0  0  0
 17 18  1  0  0  0
 17 19  1  0  0  0
 17 20  1  0  0  0
M  END
> <minimizedAffinity>
-9.72615

$$$$
