CHEMBL3947700


 39 43  0  0  0  0  0  0  0  0999 V2000
  -13.5902   -1.9655  -13.6119 C   0  0  0  0  0  0  0  0  0  0  0  0
  -13.4622   -3.2683  -14.1043 C   0  0  0  0  0  0  0  0  0  0  0  0
  -14.4449   -4.2594  -13.8165 C   0  0  0  0  0  0  0  0  0  0  0  0
  -14.4110   -5.6155  -14.1827 C   0  0  0  0  0  0  0  0  0  0  0  0
  -15.3881   -6.4746  -13.8275 N   0  0  0  0  0  0  0  0  0  0  0  0
  -16.4168   -5.9927  -13.1349 C   0  0  0  0  0  0  0  0  0  0  0  0
  -16.5646   -4.7291  -12.7568 N   0  0  0  0  0  0  0  0  0  0  0  0
  -15.5836   -3.8951  -13.0949 C   0  0  0  0  0  0  0  0  0  0  0  0
  -15.7314   -2.5902  -12.6933 C   0  0  0  0  0  0  0  0  0  0  0  0
  -14.7498   -1.6208  -12.9160 C   0  0  0  0  0  0  0  0  0  0  0  0
  -11.2650   -1.6501  -13.8278 C   0  0  0  0  0  0  0  0  0  0  0  0
  -12.5794   -1.0994  -13.9371 O   0  0  0  0  0  0  0  0  0  0  0  0
  -13.3293   -6.1036  -14.9652 N   0  0  0  0  0  0  0  0  0  0  0  0
  -12.6075   -6.4692  -14.3529 H   0  0  0  0  0  0  0  0  0  0  0  0
  -13.4218   -6.8341  -16.1716 C   0  0  0  0  0  0  0  0  0  0  0  0
  -13.2657   -8.2259  -16.2251 C   0  0  0  0  0  0  0  0  0  0  0  0
  -13.3403   -8.9215  -17.4326 C   0  0  0  0  0  0  0  0  0  0  0  0
  -13.6282   -8.2384  -18.6109 C   0  0  0  0  0  0  0  0  0  0  0  0
  -13.6835   -9.1501  -20.0751 Cl  0  0  0  0  0  0  0  0  0  0  0  0
  -13.8631   -6.8613  -18.5684 C   0  0  0  0  0  0  0  0  0  0  0  0
  -14.2687   -5.9497  -19.9797 Cl  0  0  0  0  0  0  0  0  0  0  0  0
  -13.7695   -6.1684  -17.3539 C   0  0  0  0  0  0  0  0  0  0  0  0
  -14.9520   -0.3223  -12.5357 O   0  0  0  0  0  0  0  0  0  0  0  0
  -16.1935    0.2268  -12.9986 C   0  0  0  0  0  0  0  0  0  0  0  0
  -15.9884    0.9110  -14.3365 C   0  0  0  0  0  0  0  0  0  0  0  0
  -14.6846    1.7288  -14.3688 C   0  0  0  0  0  0  0  0  0  0  0  0
  -14.5610    2.3992  -15.6727 N   0  0  0  0  0  0  0  0  0  0  0  0
  -13.3883    2.2617  -16.4203 C   0  0  0  0  0  0  0  0  0  0  0  0
  -12.4809    1.5261  -16.0328 O   0  0  0  0  0  0  0  0  0  0  0  0
  -15.7606    3.1308  -16.0545 C   0  0  0  0  0  0  0  0  0  0  0  0
  -17.0426    2.3255  -15.8828 C   0  0  0  0  0  0  0  0  0  0  0  0
  -17.1309    1.7544  -14.5831 O   0  0  0  0  0  0  0  0  0  0  0  0
  -13.2883    2.9361  -17.7015 C   0  0  0  0  0  0  0  0  0  0  0  0
  -13.0316    4.3277  -17.9078 C   0  0  0  0  0  0  0  0  0  0  0  0
  -12.8303    5.4227  -16.9261 C   0  0  0  0  0  0  0  0  0  0  0  0
  -12.9534    4.6204  -19.2108 N   0  0  0  0  0  0  0  0  0  0  0  0
  -13.2292    3.4528  -19.8780 O   0  0  0  0  0  0  0  0  0  0  0  0
  -13.4763    2.4555  -18.9885 C   0  0  0  0  0  0  0  0  0  0  0  0
  -13.8693    1.1733  -19.6179 C   0  0  0  0  0  0  0  0  0  0  0  0
 11 12  1  0  0  0
 12  1  1  0  0  0
  1  2  1  0  0  0
  1 10  2  0  0  0
  2  3  2  0  0  0
  3  4  1  0  0  0
  3  8  1  0  0  0
  4 13  1  0  0  0
  4  5  2  0  0  0
 13 15  1  0  0  0
 13 14  1  0  0  0
 15 16  1  0  0  0
 15 22  2  0  0  0
 16 17  2  0  0  0
 17 18  1  0  0  0
 18 19  1  0  0  0
 18 20  2  0  0  0
 20 21  1  0  0  0
 20 22  1  0  0  0
  5  6  1  0  0  0
  6  7  2  0  0  0
  7  8  1  0  0  0
  8  9  2  0  0  0
  9 10  1  0  0  0
 10 23  1  0  0  0
 23 24  1  0  0  0
 24 25  1  0  0  0
 25 26  1  0  0  0
 25 32  1  0  0  0
 26 27  1  0  0  0
 27 28  1  0  0  0
 27 30  1  0  0  0
 28 29  2  0  0  0
 28 33  1  0  0  0
 33 34  1  0  0  0
 33 38  2  0  0  0
 34 35  1  0  0  0
 34 36  2  0  0  0
 36 37  1  0  0  0
 37 38  1  0  0  0
 38 39  1  0  0  0
 30 31  1  0  0  0
 31 32  1  0  0  0
M  END
> <minimizedAffinity>
-6.93754

$$$$
