CHEMBL240432


 40 45  0  0  0  0  0  0  0  0999 V2000
  -28.5833   -9.5152   -7.1380 C   0  0  0  0  0  0  0  0  0  0  0  0
  -29.4243   -8.4488   -7.4728 C   0  0  0  0  0  0  0  0  0  0  0  0
  -29.7802   -8.5229   -8.7826 O   0  0  0  0  0  0  0  0  0  0  0  0
  -29.1420   -9.5959   -9.3256 C   0  0  0  0  0  0  0  0  0  0  0  0
  -29.2385   -9.8955  -10.6336 N   0  0  0  0  0  0  0  0  0  0  0  0
  -28.5289  -10.9854  -10.9789 C   0  0  0  0  0  0  0  0  0  0  0  0
  -27.7840  -11.7720  -10.1135 C   0  0  0  0  0  0  0  0  0  0  0  0
  -27.7304  -11.4608   -8.7465 C   0  0  0  0  0  0  0  0  0  0  0  0
  -28.4153  -10.2807   -8.3479 C   0  0  0  0  0  0  0  0  0  0  0  0
  -26.8554   -9.8749   -3.2364 C   0  0  0  0  0  0  0  0  0  0  0  0
  -27.8967  -10.7171   -3.6139 C   0  0  0  0  0  0  0  0  0  0  0  0
  -28.4158  -10.6500   -4.9101 C   0  0  0  0  0  0  0  0  0  0  0  0
  -27.9652   -9.6791   -5.8184 C   0  0  0  0  0  0  0  0  0  0  0  0
  -26.9466   -8.8107   -5.4027 C   0  0  0  0  0  0  0  0  0  0  0  0
  -26.3640   -8.9360   -4.1386 C   0  0  0  0  0  0  0  0  0  0  0  0
  -29.9533   -7.3104   -6.7310 C   0  0  0  0  0  0  0  0  0  0  0  0
  -29.9400   -6.0436   -7.3238 C   0  0  0  0  0  0  0  0  0  0  0  0
  -30.1775   -4.8917   -6.5775 C   0  0  0  0  0  0  0  0  0  0  0  0
  -30.5166   -4.9870   -5.2295 C   0  0  0  0  0  0  0  0  0  0  0  0
  -30.6284   -6.2513   -4.6461 C   0  0  0  0  0  0  0  0  0  0  0  0
  -30.3541   -7.4122   -5.3938 C   0  0  0  0  0  0  0  0  0  0  0  0
  -30.7152   -3.9130   -4.3976 O   0  0  0  0  0  0  0  0  0  0  0  0
  -29.6654   -3.6809   -3.4526 C   0  0  0  0  0  0  0  0  0  0  0  0
  -29.3437   -2.1947   -3.3952 C   0  0  0  0  0  0  0  0  0  0  0  0
  -28.7647   -1.7363   -4.6403 N   0  0  0  0  0  0  0  0  0  0  0  0
  -29.3727   -0.9351   -5.5652 C   0  0  0  0  0  0  0  0  0  0  0  0
  -28.4586   -0.8179   -6.5862 C   0  0  0  0  0  0  0  0  0  0  0  0
  -27.3192   -1.5255   -6.3016 N   0  0  0  0  0  0  0  0  0  0  0  0
  -27.5289   -2.0628   -5.1203 C   0  0  0  0  0  0  0  0  0  0  0  0
  -27.1184  -12.3370   -7.8436 N   0  0  0  0  0  0  0  0  0  0  0  0
  -27.5056  -12.2525   -6.9064 H   0  0  0  0  0  0  0  0  0  0  0  0
  -25.6568  -12.4634   -7.8379 C   0  0  0  0  0  0  0  0  0  0  0  0
  -25.1123  -11.7681   -6.5670 C   0  0  0  0  0  0  0  0  0  0  0  0
  -24.0076  -10.8085   -6.7856 N   0  0  0  0  0  0  0  0  0  0  0  0
  -22.9036  -11.4675   -7.5248 C   0  0  0  0  0  0  0  0  0  0  0  0
  -22.0693  -12.4640   -6.6821 C   0  0  0  0  0  0  0  0  0  0  0  0
  -21.5680  -11.8967   -5.4171 N   0  0  0  0  0  0  0  0  0  0  0  0
  -22.6719  -11.2579   -4.6789 C   0  0  0  0  0  0  0  0  0  0  0  0
  -23.4578  -10.2443   -5.5361 C   0  0  0  0  0  0  0  0  0  0  0  0
  -20.8898  -11.1707   -5.6518 H   0  0  0  0  0  0  0  0  0  0  0  0
 10 11  1  0  0  0
 10 15  2  0  0  0
 11 12  2  0  0  0
 12 13  1  0  0  0
 13  1  1  0  0  0
 13 14  2  0  0  0
  1  2  2  0  0  0
  1  9  1  0  0  0
  2 16  1  0  0  0
  2  3  1  0  0  0
 16 17  1  0  0  0
 16 21  2  0  0  0
 17 18  2  0  0  0
 18 19  1  0  0  0
 19 22  1  0  0  0
 19 20  2  0  0  0
 22 23  1  0  0  0
 23 24  1  0  0  0
 24 25  1  0  0  0
 25 26  1  0  0  0
 25 29  1  0  0  0
 26 27  2  0  0  0
 27 28  1  0  0  0
 28 29  2  0  0  0
 20 21  1  0  0  0
  3  4  1  0  0  0
  4  5  1  0  0  0
  4  9  2  0  0  0
  5  6  2  0  0  0
  6  7  1  0  0  0
  7  8  2  0  0  0
  8 30  1  0  0  0
  8  9  1  0  0  0
 30 32  1  0  0  0
 30 31  1  0  0  0
 32 33  1  0  0  0
 33 34  1  0  0  0
 34 35  1  0  0  0
 34 39  1  0  0  0
 35 36  1  0  0  0
 36 37  1  0  0  0
 37 38  1  0  0  0
 37 40  1  0  0  0
 38 39  1  0  0  0
 14 15  1  0  0  0
M  END
> <minimizedAffinity>
-7.47883

$$$$
