CHEMBL408030


 44 50  0  0  0  0  0  0  0  0999 V2000
  -29.3228   -8.1297   -6.2758 N   0  0  0  0  0  0  0  0  0  0  0  0
  -28.5271   -7.8184   -7.3748 C   0  0  0  0  0  0  0  0  0  0  0  0
  -27.9779   -8.6326   -8.1111 O   0  0  0  0  0  0  0  0  0  0  0  0
  -28.3456   -6.3874   -7.6781 C   0  0  0  0  0  0  0  0  0  0  0  0
  -27.6193   -5.9469   -8.7622 C   0  0  0  0  0  0  0  0  0  0  0  0
  -27.4731   -4.6383   -9.0898 N   0  0  0  0  0  0  0  0  0  0  0  0
  -28.0230   -3.7397   -8.2630 C   0  0  0  0  0  0  0  0  0  0  0  0
  -28.7380   -4.0884   -7.1751 N   0  0  0  0  0  0  0  0  0  0  0  0
  -28.9052   -5.3987   -6.9087 C   0  0  0  0  0  0  0  0  0  0  0  0
  -29.6948   -5.7976   -5.8148 N   0  0  0  0  0  0  0  0  0  0  0  0
  -30.3839   -5.0337   -4.8906 C   0  0  0  0  0  0  0  0  0  0  0  0
  -30.5514   -3.6570   -4.6904 C   0  0  0  0  0  0  0  0  0  0  0  0
  -31.3621   -3.2538   -3.6228 C   0  0  0  0  0  0  0  0  0  0  0  0
  -31.9781   -4.1854   -2.7873 C   0  0  0  0  0  0  0  0  0  0  0  0
  -31.7974   -5.5570   -2.9981 C   0  0  0  0  0  0  0  0  0  0  0  0
  -30.9895   -5.9809   -4.0648 C   0  0  0  0  0  0  0  0  0  0  0  0
  -30.6770   -7.2578   -4.4531 N   0  0  0  0  0  0  0  0  0  0  0  0
  -29.8998   -7.1275   -5.5086 C   0  0  0  0  0  0  0  0  0  0  0  0
  -31.5303   -9.5461   -7.5572 C   0  0  0  0  0  0  0  0  0  0  0  0
  -30.6546  -10.1725   -6.5074 C   0  0  0  0  0  0  0  0  0  0  0  0
  -30.9015  -11.4995   -6.1245 C   0  0  0  0  0  0  0  0  0  0  0  0
  -30.1034  -12.1253   -5.1704 C   0  0  0  0  0  0  0  0  0  0  0  0
  -29.0461  -11.4347   -4.5836 C   0  0  0  0  0  0  0  0  0  0  0  0
  -28.7746  -10.1042   -4.9367 C   0  0  0  0  0  0  0  0  0  0  0  0
  -27.6308   -9.3947   -4.2668 C   0  0  0  0  0  0  0  0  0  0  0  0
  -29.5890   -9.4689   -5.9008 C   0  0  0  0  0  0  0  0  0  0  0  0
  -27.8508   -2.3848   -8.5378 N   0  0  0  0  0  0  0  0  0  0  0  0
  -28.2638   -1.7656   -7.8606 H   0  0  0  0  0  0  0  0  0  0  0  0
  -27.3141   -1.8524   -9.7165 C   0  0  0  0  0  0  0  0  0  0  0  0
  -28.1198   -1.7377  -10.8535 C   0  0  0  0  0  0  0  0  0  0  0  0
  -27.5779   -1.4659  -12.1001 C   0  0  0  0  0  0  0  0  0  0  0  0
  -26.2038   -1.2990  -12.2487 C   0  0  0  0  0  0  0  0  0  0  0  0
  -25.3965   -1.3059  -11.1077 C   0  0  0  0  0  0  0  0  0  0  0  0
  -25.9504   -1.5758   -9.8438 C   0  0  0  0  0  0  0  0  0  0  0  0
  -25.5713   -1.1585  -13.4623 O   0  0  0  0  0  0  0  0  0  0  0  0
  -24.1406   -1.1560  -13.3613 C   0  0  0  0  0  0  0  0  0  0  0  0
  -23.5169   -0.1722  -14.3372 C   0  0  0  0  0  0  0  0  0  0  0  0
  -23.0429    1.0956  -13.6054 C   0  0  0  0  0  0  0  0  0  0  0  0
  -21.6250    1.4464  -13.8317 N   0  0  0  0  0  0  0  0  0  0  0  0
  -21.0021    0.5853  -14.8504 C   0  0  0  0  0  0  0  0  0  0  0  0
  -19.5307    0.9367  -15.0713 C   0  0  0  0  0  0  0  0  0  0  0  0
  -19.3651    2.3999  -15.4519 C   0  0  0  0  0  0  0  0  0  0  0  0
  -20.0492    3.2872  -14.4203 C   0  0  0  0  0  0  0  0  0  0  0  0
  -21.5061    2.8686  -14.2021 C   0  0  0  0  0  0  0  0  0  0  0  0
 19 20  1  0  0  0
 20 21  1  0  0  0
 20 26  2  0  0  0
 21 22  2  0  0  0
 22 23  1  0  0  0
 23 24  2  0  0  0
 24 25  1  0  0  0
 24 26  1  0  0  0
 26  1  1  0  0  0
  1  2  1  0  0  0
  1 18  1  0  0  0
  2  3  2  0  0  0
  2  4  1  0  0  0
  4  5  1  0  0  0
  4  9  2  0  0  0
  5  6  2  0  0  0
  6  7  1  0  0  0
  7 27  1  0  0  0
  7  8  2  0  0  0
 27 29  1  0  0  0
 27 28  1  0  0  0
 29 30  1  0  0  0
 29 34  2  0  0  0
 30 31  2  0  0  0
 31 32  1  0  0  0
 32 35  1  0  0  0
 32 33  2  0  0  0
 35 36  1  0  0  0
 36 37  1  0  0  0
 37 38  1  0  0  0
 38 39  1  0  0  0
 39 40  1  0  0  0
 39 44  1  0  0  0
 40 41  1  0  0  0
 41 42  1  0  0  0
 42 43  1  0  0  0
 43 44  1  0  0  0
 33 34  1  0  0  0
  8  9  1  0  0  0
  9 10  1  0  0  0
 10 11  1  0  0  0
 10 18  1  0  0  0
 11 12  1  0  0  0
 11 16  2  0  0  0
 12 13  2  0  0  0
 13 14  1  0  0  0
 14 15  2  0  0  0
 15 16  1  0  0  0
 16 17  1  0  0  0
 17 18  2  0  0  0
M  END
> <minimizedAffinity>
-8.67245

$$$$
