CHEMBL2018747


 31 33  0  0  0  0  0  0  0  0999 V2000
  -28.2567   -1.9551   -9.6272 N   0  0  0  0  0  0  0  0  0  0  0  0
  -28.9229   -2.6613   -9.9143 H   0  0  0  0  0  0  0  0  0  0  0  0
  -28.1421   -1.9165   -8.2138 C   0  0  0  0  0  0  0  0  0  0  0  0
  -27.9120   -0.7275   -7.6270 N   0  0  0  0  0  0  0  0  0  0  0  0
  -27.8760   -0.7166   -6.2950 C   0  0  0  0  0  0  0  0  0  0  0  0
  -28.0748   -1.7700   -5.4927 N   0  0  0  0  0  0  0  0  0  0  0  0
  -28.3081   -2.9514   -6.0818 C   0  0  0  0  0  0  0  0  0  0  0  0
  -28.6380   -4.0634   -5.3051 C   0  0  0  0  0  0  0  0  0  0  0  0
  -28.9625   -5.3266   -5.8405 C   0  0  0  0  0  0  0  0  0  0  0  0
  -28.8903   -5.4983   -7.2227 C   0  0  0  0  0  0  0  0  0  0  0  0
  -28.5657   -4.3775   -8.0084 C   0  0  0  0  0  0  0  0  0  0  0  0
  -28.3177   -3.0978   -7.4643 C   0  0  0  0  0  0  0  0  0  0  0  0
  -29.5502   -6.1731   -4.9400 O   0  0  0  0  0  0  0  0  0  0  0  0
  -30.9228   -5.9748   -4.6334 C   0  0  0  0  0  0  0  0  0  0  0  0
  -29.1370   -6.5531   -8.0439 O   0  0  0  0  0  0  0  0  0  0  0  0
  -28.6951   -7.8626   -7.7784 C   0  0  0  0  0  0  0  0  0  0  0  0
  -25.1206   -1.3889  -12.4272 C   0  0  0  0  0  0  0  0  0  0  0  0
  -24.8552   -1.4414  -11.0486 C   0  0  0  0  0  0  0  0  0  0  0  0
  -25.8943   -1.6123  -10.1244 C   0  0  0  0  0  0  0  0  0  0  0  0
  -27.2185   -1.7200  -10.5545 C   0  0  0  0  0  0  0  0  0  0  0  0
  -27.4645   -1.7087  -11.9363 C   0  0  0  0  0  0  0  0  0  0  0  0
  -26.4365   -1.5436  -12.8797 C   0  0  0  0  0  0  0  0  0  0  0  0
  -26.7621   -1.6413  -14.3424 C   0  0  0  0  0  0  0  0  0  0  0  0
  -23.4168    0.0362  -13.4750 C   0  0  0  0  0  0  0  0  0  0  0  0
  -23.5846    1.0217  -12.7627 O   0  0  0  0  0  0  0  0  0  0  0  0
  -24.0841   -1.1672  -13.3521 N   0  0  0  0  0  0  0  0  0  0  0  0
  -23.6136   -1.9841  -13.7170 H   0  0  0  0  0  0  0  0  0  0  0  0
  -22.4211    0.0581  -14.6170 C   0  0  0  0  0  0  0  0  0  0  0  0
  -21.2861    1.0447  -14.3497 C   0  0  0  0  0  0  0  0  0  0  0  0
  -18.8663    1.6143  -14.7740 C   0  0  0  0  0  0  0  0  0  0  0  0
  -20.0235    0.7043  -15.1466 C   0  0  0  0  0  0  0  0  0  0  0  0
 30 31  1  0  0  0
 31 29  1  0  0  0
 29 28  1  0  0  0
 28 24  1  0  0  0
 24 25  2  0  0  0
 24 26  1  0  0  0
 26 17  1  0  0  0
 26 27  1  0  0  0
 17 18  1  0  0  0
 17 22  2  0  0  0
 18 19  2  0  0  0
 19 20  1  0  0  0
 20  1  1  0  0  0
 20 21  2  0  0  0
  1  3  1  0  0  0
  1  2  1  0  0  0
  3  4  1  0  0  0
  3 12  2  0  0  0
  4  5  2  0  0  0
  5  6  1  0  0  0
  6  7  2  0  0  0
  7  8  1  0  0  0
  7 12  1  0  0  0
  8  9  2  0  0  0
  9 13  1  0  0  0
  9 10  1  0  0  0
 13 14  1  0  0  0
 10 15  1  0  0  0
 10 11  2  0  0  0
 15 16  1  0  0  0
 11 12  1  0  0  0
 21 22  1  0  0  0
 22 23  1  0  0  0
M  END
> <minimizedAffinity>
-8.77091

$$$$
