CHEMBL3922285


 36 39  0  0  0  0  0  0  0  0999 V2000
  -18.4073    1.8805  -15.5152 C   0  0  0  0  0  0  0  0  0  0  0  0
  -19.0930    3.0673  -15.7523 C   0  0  0  0  0  0  0  0  0  0  0  0
  -20.3452    3.2637  -15.2082 C   0  0  0  0  0  0  0  0  0  0  0  0
  -21.0477    2.2473  -14.6117 C   0  0  0  0  0  0  0  0  0  0  0  0
  -22.1470    2.6628  -13.9785 N   0  0  0  0  0  0  0  0  0  0  0  0
  -23.0352    1.7269  -13.6325 C   0  0  0  0  0  0  0  0  0  0  0  0
  -22.8867    0.4082  -14.0037 C   0  0  0  0  0  0  0  0  0  0  0  0
  -21.6622   -0.0482  -14.4701 N   0  0  0  0  0  0  0  0  0  0  0  0
  -20.6391    0.9023  -14.7355 C   0  0  0  0  0  0  0  0  0  0  0  0
  -19.2109    0.7641  -15.1132 C   0  0  0  0  0  0  0  0  0  0  0  0
  -24.1627   -0.3067  -14.2046 C   0  0  0  0  0  0  0  0  0  0  0  0
  -24.8421   -0.8238  -15.3336 C   0  0  0  0  0  0  0  0  0  0  0  0
  -25.8996   -1.5944  -15.0158 N   0  0  0  0  0  0  0  0  0  0  0  0
  -25.9015   -1.6044  -13.6681 N   0  0  0  0  0  0  0  0  0  0  0  0
  -24.8184   -0.9387  -13.1506 C   0  0  0  0  0  0  0  0  0  0  0  0
  -27.0596   -2.0498  -12.9046 C   0  0  0  0  0  0  0  0  0  0  0  0
  -27.0974   -1.7423  -11.4077 C   0  0  0  0  0  0  0  0  0  0  0  0
  -26.7913   -2.8868  -10.6167 O   0  0  0  0  0  0  0  0  0  0  0  0
  -27.6393   -3.3235  -10.4183 H   0  0  0  0  0  0  0  0  0  0  0  0
  -16.9589    2.0303  -15.5295 N   0  0  0  0  0  0  0  0  0  0  0  0
  -15.2610   -0.3365  -13.1481 C   0  0  0  0  0  0  0  0  0  0  0  0
  -14.1584   -0.7594  -13.9042 C   0  0  0  0  0  0  0  0  0  0  0  0
  -13.9496   -0.2132  -15.1679 C   0  0  0  0  0  0  0  0  0  0  0  0
  -14.8336    0.7554  -15.6722 C   0  0  0  0  0  0  0  0  0  0  0  0
  -15.9487    1.2134  -14.9474 C   0  0  0  0  0  0  0  0  0  0  0  0
  -16.1291    0.6564  -13.6625 C   0  0  0  0  0  0  0  0  0  0  0  0
  -15.7025   -2.2814  -11.8198 C   0  0  0  0  0  0  0  0  0  0  0  0
  -15.5879   -0.8562  -11.9187 O   0  0  0  0  0  0  0  0  0  0  0  0
  -12.9368   -0.5705  -16.0200 O   0  0  0  0  0  0  0  0  0  0  0  0
  -12.6755    0.3000  -17.1164 C   0  0  0  0  0  0  0  0  0  0  0  0
  -16.6507    3.5194  -15.5997 C   0  0  0  0  0  0  0  0  0  0  0  0
  -15.8691    4.0665  -16.8108 C   0  0  0  0  0  0  0  0  0  0  0  0
  -14.3651    4.3614  -16.6783 C   0  0  0  0  0  0  0  0  0  0  0  0
  -14.0047    5.1104  -15.4800 N   0  0  0  0  0  0  0  0  0  0  0  0
  -14.2653    6.0779  -15.5908 H   0  0  0  0  0  0  0  0  0  0  0  0
  -12.9778    5.1062  -15.3973 H   0  0  0  0  0  0  0  0  0  0  0  0
 27 28  1  0  0  0
 28 21  1  0  0  0
 21 22  1  0  0  0
 21 26  2  0  0  0
 22 23  2  0  0  0
 23 29  1  0  0  0
 23 24  1  0  0  0
 29 30  1  0  0  0
 24 25  2  0  0  0
 25 20  1  0  0  0
 25 26  1  0  0  0
 20 31  1  0  0  0
 20  1  1  0  0  0
 31 32  1  0  0  0
 32 33  1  0  0  0
 33 34  1  0  0  0
 34 35  1  0  0  0
 34 36  1  0  0  0
  1  2  1  0  0  0
  1 10  2  0  0  0
  2  3  2  0  0  0
  3  4  1  0  0  0
  4  5  1  0  0  0
  4  9  2  0  0  0
  5  6  2  0  0  0
  6  7  1  0  0  0
  7 11  1  0  0  0
  7  8  2  0  0  0
 11 12  1  0  0  0
 11 15  2  0  0  0
 12 13  2  0  0  0
 13 14  1  0  0  0
 14 16  1  0  0  0
 14 15  1  0  0  0
 16 17  1  0  0  0
 17 18  1  0  0  0
 18 19  1  0  0  0
  8  9  1  0  0  0
  9 10  1  0  0  0
M  END
> <minimizedAffinity>
-8.78157

$$$$
