CHEMBL3958209


 37 40  0  0  0  0  0  0  0  0999 V2000
  -17.5761    2.5889  -15.4965 C   0  0  0  0  0  0  0  0  0  0  0  0
  -17.8156    1.2946  -15.1145 C   0  0  0  0  0  0  0  0  0  0  0  0
  -19.0617    0.9952  -14.6762 C   0  0  0  0  0  0  0  0  0  0  0  0
  -20.1422    1.8807  -14.6479 C   0  0  0  0  0  0  0  0  0  0  0  0
  -21.0475    1.1087  -15.0772 N   0  0  0  0  0  0  0  0  0  0  0  0
  -21.6440    0.4404  -14.1708 C   0  0  0  0  0  0  0  0  0  0  0  0
  -22.6432    1.1665  -13.8401 C   0  0  0  0  0  0  0  0  0  0  0  0
  -22.1222    2.7363  -14.1551 N   0  0  0  0  0  0  0  0  0  0  0  0
  -20.4872    3.1501  -14.7717 C   0  0  0  0  0  0  0  0  0  0  0  0
  -18.8229    3.5204  -15.3796 C   0  0  0  0  0  0  0  0  0  0  0  0
  -23.8117   -0.1295  -13.3236 C   0  0  0  0  0  0  0  0  0  0  0  0
  -24.6539   -1.0313  -14.2223 C   0  0  0  0  0  0  0  0  0  0  0  0
  -25.7073   -1.7589  -13.7537 N   0  0  0  0  0  0  0  0  0  0  0  0
  -25.8087   -1.4133  -12.4594 N   0  0  0  0  0  0  0  0  0  0  0  0
  -24.7795   -0.3341  -12.1966 C   0  0  0  0  0  0  0  0  0  0  0  0
  -26.8560   -2.0781  -11.5537 C   0  0  0  0  0  0  0  0  0  0  0  0
  -26.6950   -1.6408  -10.0901 C   0  0  0  0  0  0  0  0  0  0  0  0
  -27.6075   -2.3716   -9.0863 C   0  0  0  0  0  0  0  0  0  0  0  0
  -28.3007   -2.9355   -8.3311 N   0  0  0  0  0  0  0  0  0  0  0  0
  -16.2164    2.8345  -15.9999 N   0  0  0  0  0  0  0  0  0  0  0  0
  -13.2484    0.9875  -14.4301 C   0  0  0  0  0  0  0  0  0  0  0  0
  -12.9311    0.1787  -15.4626 C   0  0  0  0  0  0  0  0  0  0  0  0
  -13.6038    0.2619  -16.6731 C   0  0  0  0  0  0  0  0  0  0  0  0
  -14.6383    1.1820  -16.8559 C   0  0  0  0  0  0  0  0  0  0  0  0
  -15.0856    1.9819  -15.8157 C   0  0  0  0  0  0  0  0  0  0  0  0
  -14.2553    1.9083  -14.6619 C   0  0  0  0  0  0  0  0  0  0  0  0
  -12.2378    2.2140  -12.7245 C   0  0  0  0  0  0  0  0  0  0  0  0
  -12.6829    0.9400  -13.1871 O   0  0  0  0  0  0  0  0  0  0  0  0
  -13.3197   -0.5663  -17.7205 O   0  0  0  0  0  0  0  0  0  0  0  0
  -13.8333   -0.1151  -18.9738 C   0  0  0  0  0  0  0  0  0  0  0  0
  -15.9518    4.3317  -16.2181 C   0  0  0  0  0  0  0  0  0  0  0  0
  -15.1947    4.6591  -17.4968 C   0  0  0  0  0  0  0  0  0  0  0  0
  -14.0262    5.5232  -17.4364 N   0  0  0  0  0  0  0  0  0  0  0  0
  -13.8477    5.7086  -16.4526 H   0  0  0  0  0  0  0  0  0  0  0  0
  -12.8765    4.8052  -18.0251 C   0  0  0  0  0  0  0  0  0  0  0  0
  -12.1102    3.9643  -16.9994 C   0  0  0  0  0  0  0  0  0  0  0  0
  -13.4654    3.8862  -19.0739 C   0  0  0  0  0  0  0  0  0  0  0  0
 27 28  1  0  0  0
 28 21  1  0  0  0
 21 22  1  0  0  0
 21 26  2  0  0  0
 22 23  2  0  0  0
 23 29  1  0  0  0
 23 24  1  0  0  0
 29 30  1  0  0  0
 24 25  2  0  0  0
 25 20  1  0  0  0
 25 26  1  0  0  0
 20 31  1  0  0  0
 20  1  1  0  0  0
 31 32  1  0  0  0
 32 33  1  0  0  0
 33 35  1  0  0  0
 33 34  1  0  0  0
 35 36  1  0  0  0
 35 37  1  0  0  0
  1  2  1  0  0  0
  1 10  2  0  0  0
  2  3  2  0  0  0
  3  4  1  0  0  0
  4  5  1  0  0  0
  4  9  2  0  0  0
  5  6  2  0  0  0
  6  7  1  0  0  0
  7 11  1  0  0  0
  7  8  2  0  0  0
 11 12  1  0  0  0
 11 15  2  0  0  0
 12 13  2  0  0  0
 13 14  1  0  0  0
 14 16  1  0  0  0
 14 15  1  0  0  0
 16 17  1  0  0  0
 17 18  1  0  0  0
 18 19  3  0  0  0
  8  9  1  0  0  0
  9 10  1  0  0  0
M  END
> <minimizedAffinity>
-8.46073

$$$$
