CHEMBL3288511


 34 38  0  0  0  0  0  0  0  0999 V2000
  -28.5096   -8.4449   -7.6138 C   0  0  0  0  0  0  0  0  0  0  0  0
  -28.6040   -7.1588   -8.1676 C   0  0  0  0  0  0  0  0  0  0  0  0
  -28.9448   -6.0408   -7.3908 C   0  0  0  0  0  0  0  0  0  0  0  0
  -29.3136   -6.1695   -6.0334 C   0  0  0  0  0  0  0  0  0  0  0  0
  -29.7726   -5.1215   -5.1877 C   0  0  0  0  0  0  0  0  0  0  0  0
  -30.0953   -5.3781   -3.8407 C   0  0  0  0  0  0  0  0  0  0  0  0
  -29.9793   -6.6556   -3.3118 C   0  0  0  0  0  0  0  0  0  0  0  0
  -29.5186   -7.6862   -4.1194 C   0  0  0  0  0  0  0  0  0  0  0  0
  -29.1834   -7.4585   -5.4625 C   0  0  0  0  0  0  0  0  0  0  0  0
  -28.7164   -8.5341   -6.2338 C   0  0  0  0  0  0  0  0  0  0  0  0
  -25.5826   -9.6512   -6.3066 N   0  0  0  0  0  0  0  0  0  0  0  0
  -25.8265  -10.4393   -7.3658 C   0  0  0  0  0  0  0  0  0  0  0  0
  -24.9546  -11.3891   -7.6887 N   0  0  0  0  0  0  0  0  0  0  0  0
  -25.5191  -11.9968   -8.7325 N   0  0  0  0  0  0  0  0  0  0  0  0
  -26.7267  -11.4748   -9.1067 C   0  0  0  0  0  0  0  0  0  0  0  0
  -27.5905  -11.8744  -10.1298 C   0  0  0  0  0  0  0  0  0  0  0  0
  -28.7579  -11.1423  -10.2964 C   0  0  0  0  0  0  0  0  0  0  0  0
  -29.0301  -10.0473   -9.4798 C   0  0  0  0  0  0  0  0  0  0  0  0
  -28.1634   -9.6296   -8.4349 C   0  0  0  0  0  0  0  0  0  0  0  0
  -26.9691  -10.4004   -8.2422 C   0  0  0  0  0  0  0  0  0  0  0  0
  -24.7886   -9.9269   -5.7387 H   0  0  0  0  0  0  0  0  0  0  0  0
  -26.3586   -9.3019   -5.7570 H   0  0  0  0  0  0  0  0  0  0  0  0
  -25.0287  -12.7762   -9.1540 H   0  0  0  0  0  0  0  0  0  0  0  0
  -29.8766   -3.6912   -5.5849 C   0  0  0  0  0  0  0  0  0  0  0  0
  -30.9090   -3.3595   -6.1689 O   0  0  0  0  0  0  0  0  0  0  0  0
  -28.7911   -2.8719   -5.3380 N   0  0  0  0  0  0  0  0  0  0  0  0
  -27.9342   -3.2951   -4.9948 H   0  0  0  0  0  0  0  0  0  0  0  0
  -28.7112   -1.4902   -5.6445 C   0  0  0  0  0  0  0  0  0  0  0  0
  -29.2140   -0.4832   -4.8125 C   0  0  0  0  0  0  0  0  0  0  0  0
  -29.1378    0.8607   -5.1860 C   0  0  0  0  0  0  0  0  0  0  0  0
  -28.5435    1.2238   -6.3935 C   0  0  0  0  0  0  0  0  0  0  0  0
  -28.0137    0.2357   -7.2235 C   0  0  0  0  0  0  0  0  0  0  0  0
  -28.0963   -1.1032   -6.8383 C   0  0  0  0  0  0  0  0  0  0  0  0
  -27.5785   -2.0413   -7.6539 F   0  0  0  0  0  0  0  0  0  0  0  0
 11 12  1  0  0  0
 11 21  1  0  0  0
 11 22  1  0  0  0
 12 13  2  0  0  0
 12 20  1  0  0  0
 13 14  1  0  0  0
 14 15  1  0  0  0
 14 23  1  0  0  0
 15 16  1  0  0  0
 15 20  2  0  0  0
 16 17  2  0  0  0
 17 18  1  0  0  0
 18 19  2  0  0  0
 19  1  1  0  0  0
 19 20  1  0  0  0
  1  2  1  0  0  0
  1 10  2  0  0  0
  2  3  2  0  0  0
  3  4  1  0  0  0
  4  5  1  0  0  0
  4  9  2  0  0  0
  5 24  1  0  0  0
  5  6  2  0  0  0
 24 25  2  0  0  0
 24 26  1  0  0  0
 26 28  1  0  0  0
 26 27  1  0  0  0
 28 29  1  0  0  0
 28 33  2  0  0  0
 29 30  2  0  0  0
 30 31  1  0  0  0
 31 32  2  0  0  0
 32 33  1  0  0  0
 33 34  1  0  0  0
  6  7  1  0  0  0
  7  8  2  0  0  0
  8  9  1  0  0  0
  9 10  1  0  0  0
M  END
> <minimizedAffinity>
-9.55316

$$$$
