CHEMBL4087814


 36 40  0  0  0  0  0  0  0  0999 V2000
  -18.1123    2.0334  -15.4156 C   0  0  0  0  0  0  0  0  0  0  0  0
  -18.1157    0.7628  -14.8389 C   0  0  0  0  0  0  0  0  0  0  0  0
  -16.9212    0.0736  -14.5923 C   0  0  0  0  0  0  0  0  0  0  0  0
  -15.7159    0.6643  -15.0073 C   0  0  0  0  0  0  0  0  0  0  0  0
  -15.6972    1.9053  -15.6553 C   0  0  0  0  0  0  0  0  0  0  0  0
  -14.3444    2.2130  -15.9479 C   0  0  0  0  0  0  0  0  0  0  0  0
  -13.5683    1.2223  -15.3978 C   0  0  0  0  0  0  0  0  0  0  0  0
  -14.3907    0.2702  -14.8244 N   0  0  0  0  0  0  0  0  0  0  0  0
  -13.9293   -0.8354  -14.0875 C   0  0  0  0  0  0  0  0  0  0  0  0
  -13.1285   -0.6620  -13.1848 O   0  0  0  0  0  0  0  0  0  0  0  0
  -14.3658   -2.0132  -14.6496 N   0  0  0  0  0  0  0  0  0  0  0  0
  -16.9107    2.5907  -15.8672 C   0  0  0  0  0  0  0  0  0  0  0  0
  -14.5842   -1.9983  -15.6383 H   0  0  0  0  0  0  0  0  0  0  0  0
  -13.8273   -3.2109  -14.2160 C   0  0  0  0  0  0  0  0  0  0  0  0
  -14.4608   -4.2512  -13.4918 C   0  0  0  0  0  0  0  0  0  0  0  0
  -13.4733   -5.1923  -13.2891 C   0  0  0  0  0  0  0  0  0  0  0  0
  -12.3192   -4.7168  -13.8395 O   0  0  0  0  0  0  0  0  0  0  0  0
  -12.5586   -3.5184  -14.4816 N   0  0  0  0  0  0  0  0  0  0  0  0
  -13.5891   -6.5766  -12.6087 C   0  0  0  0  0  0  0  0  0  0  0  0
  -13.8093   -6.5313  -11.0850 C   0  0  0  0  0  0  0  0  0  0  0  0
  -12.4967   -6.9860  -11.6097 C   0  0  0  0  0  0  0  0  0  0  0  0
  -14.2682   -7.6871  -13.3933 C   0  0  0  0  0  0  0  0  0  0  0  0
  -15.6148   -7.5788  -13.4358 F   0  0  0  0  0  0  0  0  0  0  0  0
  -13.8298   -7.6980  -14.6782 F   0  0  0  0  0  0  0  0  0  0  0  0
  -13.9783   -8.9023  -12.8642 F   0  0  0  0  0  0  0  0  0  0  0  0
  -19.2352    2.8044  -15.6314 O   0  0  0  0  0  0  0  0  0  0  0  0
  -22.0346    1.0674  -14.0732 C   0  0  0  0  0  0  0  0  0  0  0  0
  -20.7828    1.2215  -14.6383 C   0  0  0  0  0  0  0  0  0  0  0  0
  -20.4220    2.5019  -14.9988 C   0  0  0  0  0  0  0  0  0  0  0  0
  -21.1782    3.5773  -14.7132 N   0  0  0  0  0  0  0  0  0  0  0  0
  -22.3460    3.3286  -14.1091 C   0  0  0  0  0  0  0  0  0  0  0  0
  -22.8336    2.1195  -13.7960 N   0  0  0  0  0  0  0  0  0  0  0  0
  -22.5581   -0.3190  -13.7579 C   0  0  0  0  0  0  0  0  0  0  0  0
  -23.2216   -1.9306  -12.0809 C   0  0  0  0  0  0  0  0  0  0  0  0
  -22.9009   -0.5303  -12.3429 N   0  0  0  0  0  0  0  0  0  0  0  0
  -22.0902   -0.2745  -11.7797 H   0  0  0  0  0  0  0  0  0  0  0  0
 34 35  1  0  0  0
 35 33  1  0  0  0
 35 36  1  0  0  0
 33 27  1  0  0  0
 27 28  1  0  0  0
 27 32  2  0  0  0
 28 29  2  0  0  0
 29 26  1  0  0  0
 29 30  1  0  0  0
 26  1  1  0  0  0
  1  2  1  0  0  0
  1 12  2  0  0  0
  2  3  2  0  0  0
  3  4  1  0  0  0
  4  5  2  0  0  0
  4  8  1  0  0  0
  5  6  1  0  0  0
  5 12  1  0  0  0
  6  7  2  0  0  0
  7  8  1  0  0  0
  8  9  1  0  0  0
  9 10  2  0  0  0
  9 11  1  0  0  0
 11 14  1  0  0  0
 11 13  1  0  0  0
 14 15  1  0  0  0
 14 18  2  0  0  0
 15 16  2  0  0  0
 16 19  1  0  0  0
 16 17  1  0  0  0
 19 22  1  0  0  0
 19 20  1  0  0  0
 19 21  1  0  0  0
 22 23  1  0  0  0
 22 24  1  0  0  0
 22 25  1  0  0  0
 20 21  1  0  0  0
 17 18  1  0  0  0
 30 31  2  0  0  0
 31 32  1  0  0  0
M  END
> <minimizedAffinity>
-9.07745

$$$$
