CHEMBL237345


 27 30  0  0  0  0  0  0  0  0999 V2000
  -28.7482   -4.8585   -6.8009 C   0  0  0  0  0  0  0  0  0  0  0  0
  -29.2260   -4.9520   -5.4871 C   0  0  0  0  0  0  0  0  0  0  0  0
  -29.3392   -3.8048   -4.7326 C   0  0  0  0  0  0  0  0  0  0  0  0
  -29.0305   -2.5830   -5.1910 N   0  0  0  0  0  0  0  0  0  0  0  0
  -28.5826   -2.4766   -6.4523 C   0  0  0  0  0  0  0  0  0  0  0  0
  -28.2157   -1.2194   -6.8971 C   0  0  0  0  0  0  0  0  0  0  0  0
  -27.7130   -1.0085   -8.1843 C   0  0  0  0  0  0  0  0  0  0  0  0
  -27.5608   -2.0698   -9.0847 C   0  0  0  0  0  0  0  0  0  0  0  0
  -27.9369   -3.3496   -8.6337 C   0  0  0  0  0  0  0  0  0  0  0  0
  -28.4368   -3.5783   -7.3243 C   0  0  0  0  0  0  0  0  0  0  0  0
  -26.9927   -1.8560  -10.4308 C   0  0  0  0  0  0  0  0  0  0  0  0
  -27.7716   -1.9695  -11.5927 C   0  0  0  0  0  0  0  0  0  0  0  0
  -27.2145   -1.7434  -12.8508 C   0  0  0  0  0  0  0  0  0  0  0  0
  -25.8774   -1.4000  -12.9232 C   0  0  0  0  0  0  0  0  0  0  0  0
  -25.0799   -1.2814  -11.8431 N   0  0  0  0  0  0  0  0  0  0  0  0
  -25.6534   -1.5148  -10.6354 C   0  0  0  0  0  0  0  0  0  0  0  0
  -28.4880   -6.0509   -7.5283 N   0  0  0  0  0  0  0  0  0  0  0  0
  -27.6675   -6.0236   -8.1179 H   0  0  0  0  0  0  0  0  0  0  0  0
  -27.6665   -8.4450   -9.1095 C   0  0  0  0  0  0  0  0  0  0  0  0
  -29.0145   -8.2797   -8.4648 C   0  0  0  0  0  0  0  0  0  0  0  0
  -29.9889   -9.2743   -8.7004 C   0  0  0  0  0  0  0  0  0  0  0  0
  -31.2500   -9.2074   -8.1076 C   0  0  0  0  0  0  0  0  0  0  0  0
  -31.5375   -8.1570   -7.2562 C   0  0  0  0  0  0  0  0  0  0  0  0
  -32.7407   -8.0490   -6.6247 O   0  0  0  0  0  0  0  0  0  0  0  0
  -30.6013   -7.1561   -7.0310 C   0  0  0  0  0  0  0  0  0  0  0  0
  -29.3434   -7.1698   -7.6604 C   0  0  0  0  0  0  0  0  0  0  0  0
  -33.2768   -8.8283   -6.8432 H   0  0  0  0  0  0  0  0  0  0  0  0
 19 20  1  0  0  0
 20 21  1  0  0  0
 20 26  2  0  0  0
 21 22  2  0  0  0
 22 23  1  0  0  0
 23 24  1  0  0  0
 23 25  2  0  0  0
 24 27  1  0  0  0
 25 26  1  0  0  0
 26 17  1  0  0  0
 17  1  1  0  0  0
 17 18  1  0  0  0
  1  2  1  0  0  0
  1 10  2  0  0  0
  2  3  2  0  0  0
  3  4  1  0  0  0
  4  5  2  0  0  0
  5  6  1  0  0  0
  5 10  1  0  0  0
  6  7  2  0  0  0
  7  8  1  0  0  0
  8 11  1  0  0  0
  8  9  2  0  0  0
 11 12  1  0  0  0
 11 16  2  0  0  0
 12 13  2  0  0  0
 13 14  1  0  0  0
 14 15  2  0  0  0
 15 16  1  0  0  0
  9 10  1  0  0  0
M  END
> <minimizedAffinity>
-9.37117

$$$$
