CHEMBL259381


 25 27  0  0  0  0  0  0  0  0999 V2000
  -29.2190  -10.0856   -5.5625 N   0  0  0  0  0  0  0  0  0  0  0  0
  -29.0593   -8.7201   -5.4384 C   0  0  0  0  0  0  0  0  0  0  0  0
  -29.2217   -8.1958   -4.2257 N   0  0  0  0  0  0  0  0  0  0  0  0
  -29.0413   -6.8712   -4.1239 C   0  0  0  0  0  0  0  0  0  0  0  0
  -29.2507   -6.3188   -2.8468 N   0  0  0  0  0  0  0  0  0  0  0  0
  -28.7362   -6.0392   -5.2041 C   0  0  0  0  0  0  0  0  0  0  0  0
  -28.6291   -6.6978   -6.4312 C   0  0  0  0  0  0  0  0  0  0  0  0
  -28.7944   -8.0300   -6.5502 N   0  0  0  0  0  0  0  0  0  0  0  0
  -28.3007   -6.0779   -7.6283 N   0  0  0  0  0  0  0  0  0  0  0  0
  -28.8644   -4.7986   -8.0319 C   0  0  0  0  0  0  0  0  0  0  0  0
  -29.7471   -4.1081   -7.0081 C   0  0  0  0  0  0  0  0  0  0  0  0
  -28.9182   -3.7634   -5.7888 C   0  0  0  0  0  0  0  0  0  0  0  0
  -28.4747   -4.6641   -4.9662 N   0  0  0  0  0  0  0  0  0  0  0  0
  -29.7915  -10.4328   -4.8060 H   0  0  0  0  0  0  0  0  0  0  0  0
  -29.4959  -10.3179   -6.5051 H   0  0  0  0  0  0  0  0  0  0  0  0
  -29.2966   -7.0742   -2.1727 H   0  0  0  0  0  0  0  0  0  0  0  0
  -28.5322   -5.6254   -2.6583 H   0  0  0  0  0  0  0  0  0  0  0  0
  -28.3248   -6.7934   -8.3514 H   0  0  0  0  0  0  0  0  0  0  0  0
  -28.6102   -2.3306   -5.5055 C   0  0  0  0  0  0  0  0  0  0  0  0
  -27.3445   -1.9265   -5.0625 C   0  0  0  0  0  0  0  0  0  0  0  0
  -27.0931   -0.5780   -4.7980 C   0  0  0  0  0  0  0  0  0  0  0  0
  -28.1039    0.3677   -4.9684 C   0  0  0  0  0  0  0  0  0  0  0  0
  -29.3672   -0.0380   -5.3958 C   0  0  0  0  0  0  0  0  0  0  0  0
  -30.6133    1.1314   -5.5973 Cl  0  0  0  0  0  0  0  0  0  0  0  0
  -29.6273   -1.3803   -5.6616 C   0  0  0  0  0  0  0  0  0  0  0  0
  1  2  1  0  0  0
  1 14  1  0  0  0
  1 15  1  0  0  0
  2  3  1  0  0  0
  2  8  2  0  0  0
  3  4  2  0  0  0
  4  5  1  0  0  0
  4  6  1  0  0  0
  5 16  1  0  0  0
  5 17  1  0  0  0
  6  7  2  0  0  0
  6 13  1  0  0  0
  7  8  1  0  0  0
  7  9  1  0  0  0
  9 10  1  0  0  0
  9 18  1  0  0  0
 10 11  1  0  0  0
 11 12  1  0  0  0
 12 19  1  0  0  0
 12 13  2  0  0  0
 19 20  1  0  0  0
 19 25  2  0  0  0
 20 21  2  0  0  0
 21 22  1  0  0  0
 22 23  2  0  0  0
 23 24  1  0  0  0
 23 25  1  0  0  0
M  END
> <minimizedAffinity>
-8.49607

$$$$
