CHEMBL411091


 36 40  0  0  0  0  0  0  0  0999 V2000
  -27.4199   -1.6433  -10.1671 C   0  0  0  0  0  0  0  0  0  0  0  0
  -26.0662   -1.4945   -9.8964 C   0  0  0  0  0  0  0  0  0  0  0  0
  -25.1778   -1.2621  -10.9531 C   0  0  0  0  0  0  0  0  0  0  0  0
  -25.5780   -1.3490  -12.3118 C   0  0  0  0  0  0  0  0  0  0  0  0
  -24.7568   -1.0892  -13.4515 C   0  0  0  0  0  0  0  0  0  0  0  0
  -25.2737   -1.2331  -14.7518 C   0  0  0  0  0  0  0  0  0  0  0  0
  -26.5864   -1.6206  -14.9624 C   0  0  0  0  0  0  0  0  0  0  0  0
  -27.4154   -1.8410  -13.8635 C   0  0  0  0  0  0  0  0  0  0  0  0
  -26.9353   -1.6927  -12.5527 C   0  0  0  0  0  0  0  0  0  0  0  0
  -27.8359   -1.8203  -11.4847 C   0  0  0  0  0  0  0  0  0  0  0  0
  -23.3559   -0.5593  -13.4008 C   0  0  0  0  0  0  0  0  0  0  0  0
  -22.6210   -0.9951  -12.5189 O   0  0  0  0  0  0  0  0  0  0  0  0
  -23.0391    0.4429  -14.2968 N   0  0  0  0  0  0  0  0  0  0  0  0
  -23.7977    0.8213  -14.8479 H   0  0  0  0  0  0  0  0  0  0  0  0
  -21.8092    1.1322  -14.3849 C   0  0  0  0  0  0  0  0  0  0  0  0
  -21.6437    2.4780  -14.0530 C   0  0  0  0  0  0  0  0  0  0  0  0
  -20.4347    3.1322  -14.3118 C   0  0  0  0  0  0  0  0  0  0  0  0
  -19.3661    2.4441  -14.8907 C   0  0  0  0  0  0  0  0  0  0  0  0
  -18.1135    3.1634  -15.2922 C   0  0  0  0  0  0  0  0  0  0  0  0
  -19.5010    1.0748  -15.1395 C   0  0  0  0  0  0  0  0  0  0  0  0
  -20.7103    0.4225  -14.8795 C   0  0  0  0  0  0  0  0  0  0  0  0
  -28.4240   -1.5644   -9.2305 O   0  0  0  0  0  0  0  0  0  0  0  0
  -29.0278   -5.2862   -5.6308 C   0  0  0  0  0  0  0  0  0  0  0  0
  -28.4782   -4.1293   -5.0535 C   0  0  0  0  0  0  0  0  0  0  0  0
  -28.1586   -3.0000   -5.7973 C   0  0  0  0  0  0  0  0  0  0  0  0
  -27.7731   -1.8962   -5.1363 N   0  0  0  0  0  0  0  0  0  0  0  0
  -27.5721   -0.7646   -5.8403 C   0  0  0  0  0  0  0  0  0  0  0  0
  -27.7789   -0.6645   -7.1983 C   0  0  0  0  0  0  0  0  0  0  0  0
  -28.1785   -1.8075   -7.8878 C   0  0  0  0  0  0  0  0  0  0  0  0
  -28.2998   -3.0439   -7.1940 C   0  0  0  0  0  0  0  0  0  0  0  0
  -28.5912   -4.3014   -7.7723 C   0  0  0  0  0  0  0  0  0  0  0  0
  -29.0529   -5.3850   -7.0193 C   0  0  0  0  0  0  0  0  0  0  0  0
  -30.8536   -6.1950   -4.4171 C   0  0  0  0  0  0  0  0  0  0  0  0
  -29.5056   -6.3209   -4.8727 O   0  0  0  0  0  0  0  0  0  0  0  0
  -29.5129   -6.3925   -7.8187 O   0  0  0  0  0  0  0  0  0  0  0  0
  -28.6343   -7.4340   -8.2113 C   0  0  0  0  0  0  0  0  0  0  0  0
 33 34  1  0  0  0
 34 23  1  0  0  0
 23 24  1  0  0  0
 23 32  2  0  0  0
 24 25  2  0  0  0
 25 26  1  0  0  0
 25 30  1  0  0  0
 26 27  2  0  0  0
 27 28  1  0  0  0
 28 29  2  0  0  0
 29 22  1  0  0  0
 29 30  1  0  0  0
 22  1  1  0  0  0
  1  2  1  0  0  0
  1 10  2  0  0  0
  2  3  2  0  0  0
  3  4  1  0  0  0
  4  5  1  0  0  0
  4  9  2  0  0  0
  5 11  1  0  0  0
  5  6  2  0  0  0
 11 12  2  0  0  0
 11 13  1  0  0  0
 13 15  1  0  0  0
 13 14  1  0  0  0
 15 16  1  0  0  0
 15 21  2  0  0  0
 16 17  2  0  0  0
 17 18  1  0  0  0
 18 19  1  0  0  0
 18 20  2  0  0  0
 20 21  1  0  0  0
  6  7  1  0  0  0
  7  8  2  0  0  0
  8  9  1  0  0  0
  9 10  1  0  0  0
 30 31  2  0  0  0
 31 32  1  0  0  0
 32 35  1  0  0  0
 35 36  1  0  0  0
M  END
> <minimizedAffinity>
-11.80030

$$$$
