CHEMBL173550


 31 35  0  0  0  0  0  0  0  0999 V2000
  -14.5248    3.4922  -16.4742 C   0  0  0  0  0  0  0  0  0  0  0  0
  -14.8065    2.1388  -16.2274 C   0  0  0  0  0  0  0  0  0  0  0  0
  -16.0803    1.7364  -15.8319 C   0  0  0  0  0  0  0  0  0  0  0  0
  -17.0850    2.6884  -15.6427 C   0  0  0  0  0  0  0  0  0  0  0  0
  -16.8087    4.0415  -15.8611 C   0  0  0  0  0  0  0  0  0  0  0  0
  -15.5393    4.4399  -16.2854 C   0  0  0  0  0  0  0  0  0  0  0  0
  -18.4325    2.2574  -15.2524 C   0  0  0  0  0  0  0  0  0  0  0  0
  -18.7867    0.8445  -15.1525 C   0  0  0  0  0  0  0  0  0  0  0  0
  -20.0211    0.4956  -14.7558 C   0  0  0  0  0  0  0  0  0  0  0  0
  -20.9480    1.4909  -14.4175 N   0  0  0  0  0  0  0  0  0  0  0  0
  -22.2417    1.4048  -13.9151 C   0  0  0  0  0  0  0  0  0  0  0  0
  -22.6636    2.7275  -13.8667 C   0  0  0  0  0  0  0  0  0  0  0  0
  -21.6901    3.6032  -14.2512 N   0  0  0  0  0  0  0  0  0  0  0  0
  -20.6578    2.8491  -14.5545 C   0  0  0  0  0  0  0  0  0  0  0  0
  -19.3484    3.2117  -14.9762 C   0  0  0  0  0  0  0  0  0  0  0  0
  -22.9720    0.1915  -13.5226 C   0  0  0  0  0  0  0  0  0  0  0  0
  -23.9505   -0.3904  -14.3407 C   0  0  0  0  0  0  0  0  0  0  0  0
  -24.6254   -1.5496  -13.9468 C   0  0  0  0  0  0  0  0  0  0  0  0
  -24.2969   -2.1745  -12.7483 C   0  0  0  0  0  0  0  0  0  0  0  0
  -23.2992   -1.6368  -11.9409 C   0  0  0  0  0  0  0  0  0  0  0  0
  -22.6484   -0.4592  -12.3214 C   0  0  0  0  0  0  0  0  0  0  0  0
  -13.1472    3.9176  -16.9361 C   0  0  0  0  0  0  0  0  0  0  0  0
  -10.8177    7.1358  -21.3034 C   0  0  0  0  0  0  0  0  0  0  0  0
  -12.2387    6.7623  -20.9657 C   0  0  0  0  0  0  0  0  0  0  0  0
  -13.1671    7.1906  -21.6448 O   0  0  0  0  0  0  0  0  0  0  0  0
  -12.4261    5.9078  -19.8961 N   0  0  0  0  0  0  0  0  0  0  0  0
  -11.3779    5.4631  -18.9755 C   0  0  0  0  0  0  0  0  0  0  0  0
  -11.4599    3.9421  -18.7504 C   0  0  0  0  0  0  0  0  0  0  0  0
  -12.7841    3.4643  -18.2921 N   0  0  0  0  0  0  0  0  0  0  0  0
  -13.7999    3.9274  -19.2752 C   0  0  0  0  0  0  0  0  0  0  0  0
  -13.7780    5.4476  -19.5608 C   0  0  0  0  0  0  0  0  0  0  0  0
 23 24  1  0  0  0
 24 25  2  0  0  0
 24 26  1  0  0  0
 26 27  1  0  0  0
 26 31  1  0  0  0
 27 28  1  0  0  0
 28 29  1  0  0  0
 29 22  1  0  0  0
 29 30  1  0  0  0
 22  1  1  0  0  0
  1  2  1  0  0  0
  1  6  2  0  0  0
  2  3  2  0  0  0
  3  4  1  0  0  0
  4  7  1  0  0  0
  4  5  2  0  0  0
  7  8  1  0  0  0
  7 15  2  0  0  0
  8  9  2  0  0  0
  9 10  1  0  0  0
 10 11  1  0  0  0
 10 14  1  0  0  0
 11 16  1  0  0  0
 11 12  2  0  0  0
 16 17  1  0  0  0
 16 21  2  0  0  0
 17 18  2  0  0  0
 18 19  1  0  0  0
 19 20  2  0  0  0
 20 21  1  0  0  0
 12 13  1  0  0  0
 13 14  2  0  0  0
 14 15  1  0  0  0
  5  6  1  0  0  0
 30 31  1  0  0  0
M  END
> <minimizedAffinity>
-10.03845

$$$$
