CHEMBL3911073


 32 36  0  0  0  0  0  0  0  0999 V2000
  -15.5595   -2.1250  -12.7891 C   0  0  0  0  0  0  0  0  0  0  0  0
  -15.6946   -2.3602  -11.4096 C   0  0  0  0  0  0  0  0  0  0  0  0
  -15.4247   -3.6030  -10.8635 C   0  0  0  0  0  0  0  0  0  0  0  0
  -15.0327   -4.6557  -11.6901 C   0  0  0  0  0  0  0  0  0  0  0  0
  -14.9005   -4.5425  -13.0967 C   0  0  0  0  0  0  0  0  0  0  0  0
  -15.1498   -3.2263  -13.6198 C   0  0  0  0  0  0  0  0  0  0  0  0
  -14.5582   -5.6960  -13.8617 N   0  0  0  0  0  0  0  0  0  0  0  0
  -14.4509   -7.0438  -13.2880 C   0  0  0  0  0  0  0  0  0  0  0  0
  -13.9293   -8.2144  -14.2018 C   0  0  0  0  0  0  0  0  0  0  0  0
  -13.6598   -7.9685  -15.6683 C   0  0  0  0  0  0  0  0  0  0  0  0
  -13.8285   -6.6665  -16.1209 C   0  0  0  0  0  0  0  0  0  0  0  0
  -13.6203   -6.4319  -17.4769 C   0  0  0  0  0  0  0  0  0  0  0  0
  -13.3836   -7.3772  -18.4085 N   0  0  0  0  0  0  0  0  0  0  0  0
  -13.2136   -8.6256  -17.9910 C   0  0  0  0  0  0  0  0  0  0  0  0
  -12.9553   -9.5585  -18.9899 C   0  0  0  0  0  0  0  0  0  0  0  0
  -12.6041  -10.8682  -18.7009 C   0  0  0  0  0  0  0  0  0  0  0  0
  -12.5164  -11.2534  -17.3714 C   0  0  0  0  0  0  0  0  0  0  0  0
  -12.8628  -10.3450  -16.3478 C   0  0  0  0  0  0  0  0  0  0  0  0
  -13.2544   -8.9954  -16.6226 C   0  0  0  0  0  0  0  0  0  0  0  0
  -14.1979   -5.4847  -15.2737 C   0  0  0  0  0  0  0  0  0  0  0  0
  -16.5101   -0.4323  -14.4159 N   0  0  0  0  0  0  0  0  0  0  0  0
  -15.9043   -0.6798  -13.1894 C   0  0  0  0  0  0  0  0  0  0  0  0
  -15.6316    0.2110  -12.3794 O   0  0  0  0  0  0  0  0  0  0  0  0
  -16.6929   -1.2252  -15.0066 H   0  0  0  0  0  0  0  0  0  0  0  0
  -18.7574    2.4370  -15.3186 C   0  0  0  0  0  0  0  0  0  0  0  0
  -17.8587    3.3551  -15.8674 C   0  0  0  0  0  0  0  0  0  0  0  0
  -16.5107    3.0271  -15.9672 C   0  0  0  0  0  0  0  0  0  0  0  0
  -16.0417    1.7849  -15.5069 C   0  0  0  0  0  0  0  0  0  0  0  0
  -16.9097    0.8439  -14.9420 C   0  0  0  0  0  0  0  0  0  0  0  0
  -18.2757    1.1853  -14.8687 C   0  0  0  0  0  0  0  0  0  0  0  0
  -21.0530    1.6876  -14.6265 C   0  0  0  0  0  0  0  0  0  0  0  0
  -20.2105    2.8296  -15.1783 C   0  0  0  0  0  0  0  0  0  0  0  0
 31 32  1  0  0  0
 32 25  1  0  0  0
 25 26  1  0  0  0
 25 30  2  0  0  0
 26 27  2  0  0  0
 27 28  1  0  0  0
 28 29  2  0  0  0
 29 21  1  0  0  0
 29 30  1  0  0  0
 21 22  1  0  0  0
 21 24  1  0  0  0
 22 23  2  0  0  0
 22  1  1  0  0  0
  1  2  1  0  0  0
  1  6  2  0  0  0
  2  3  2  0  0  0
  3  4  1  0  0  0
  4  5  2  0  0  0
  5  7  1  0  0  0
  5  6  1  0  0  0
  7  8  1  0  0  0
  7 20  1  0  0  0
  8  9  1  0  0  0
  9 10  1  0  0  0
 10 11  1  0  0  0
 10 19  2  0  0  0
 11 12  2  0  0  0
 11 20  1  0  0  0
 12 13  1  0  0  0
 13 14  2  0  0  0
 14 15  1  0  0  0
 14 19  1  0  0  0
 15 16  2  0  0  0
 16 17  1  0  0  0
 17 18  2  0  0  0
 18 19  1  0  0  0
M  END
> <minimizedAffinity>
-10.00237

$$$$
