CHEMBL4278922


 38 42  0  0  0  0  0  0  0  0999 V2000
  -25.4619   -1.3457  -12.3774 C   0  0  0  0  0  0  0  0  0  0  0  0
  -26.8033   -1.5537  -12.6989 C   0  0  0  0  0  0  0  0  0  0  0  0
  -27.7393   -1.8264  -11.7067 C   0  0  0  0  0  0  0  0  0  0  0  0
  -27.3493   -1.9433  -10.3735 C   0  0  0  0  0  0  0  0  0  0  0  0
  -26.0121   -1.7120  -10.0412 C   0  0  0  0  0  0  0  0  0  0  0  0
  -25.0670   -1.4438  -11.0394 C   0  0  0  0  0  0  0  0  0  0  0  0
  -23.7070    0.9454  -12.4069 O   0  0  0  0  0  0  0  0  0  0  0  0
  -23.6676    0.1022  -13.2923 C   0  0  0  0  0  0  0  0  0  0  0  0
  -24.4826   -1.0188  -13.3417 N   0  0  0  0  0  0  0  0  0  0  0  0
  -22.7679    0.1291  -14.3444 N   0  0  0  0  0  0  0  0  0  0  0  0
  -24.2374   -1.7462  -13.9944 H   0  0  0  0  0  0  0  0  0  0  0  0
  -22.9014   -0.5555  -15.0748 H   0  0  0  0  0  0  0  0  0  0  0  0
  -21.7276    1.0657  -14.5234 C   0  0  0  0  0  0  0  0  0  0  0  0
  -21.9104    2.4457  -14.4775 C   0  0  0  0  0  0  0  0  0  0  0  0
  -20.8338    3.3163  -14.6711 C   0  0  0  0  0  0  0  0  0  0  0  0
  -19.5494    2.8173  -14.8931 C   0  0  0  0  0  0  0  0  0  0  0  0
  -18.3071    3.9901  -15.1417 Cl  0  0  0  0  0  0  0  0  0  0  0  0
  -19.3267    1.4397  -14.9068 C   0  0  0  0  0  0  0  0  0  0  0  0
  -20.4361    0.5760  -14.7349 C   0  0  0  0  0  0  0  0  0  0  0  0
  -17.9748    0.7966  -15.0614 C   0  0  0  0  0  0  0  0  0  0  0  0
  -17.2041    1.2257  -16.0916 F   0  0  0  0  0  0  0  0  0  0  0  0
  -17.2126    0.9718  -13.9408 F   0  0  0  0  0  0  0  0  0  0  0  0
  -18.0729   -0.5556  -15.2161 F   0  0  0  0  0  0  0  0  0  0  0  0
  -28.2910   -2.1997   -9.3594 N   0  0  0  0  0  0  0  0  0  0  0  0
  -28.7040   -3.1145   -9.4775 H   0  0  0  0  0  0  0  0  0  0  0  0
  -28.1174   -1.8469   -8.0073 C   0  0  0  0  0  0  0  0  0  0  0  0
  -27.8386   -0.5503   -7.7134 N   0  0  0  0  0  0  0  0  0  0  0  0
  -27.7055   -0.1699   -6.4409 C   0  0  0  0  0  0  0  0  0  0  0  0
  -27.8455   -0.9299   -5.3600 N   0  0  0  0  0  0  0  0  0  0  0  0
  -28.1279   -2.2067   -5.6645 C   0  0  0  0  0  0  0  0  0  0  0  0
  -28.3712   -3.3376   -4.4155 S   0  0  0  0  0  0  0  0  0  0  0  0
  -28.6039   -4.5987   -5.5250 C   0  0  0  0  0  0  0  0  0  0  0  0
  -28.5117   -4.1832   -6.8425 C   0  0  0  0  0  0  0  0  0  0  0  0
  -28.2611   -2.7578   -6.9351 C   0  0  0  0  0  0  0  0  0  0  0  0
  -28.6234   -5.1708   -7.9704 C   0  0  0  0  0  0  0  0  0  0  0  0
  -29.2321   -6.5067   -7.5257 C   0  0  0  0  0  0  0  0  0  0  0  0
  -28.6325   -6.9933   -6.2023 C   0  0  0  0  0  0  0  0  0  0  0  0
  -28.8991   -5.9944   -5.0696 C   0  0  0  0  0  0  0  0  0  0  0  0
  7  8  2  0  0  0
  8  9  1  0  0  0
  8 10  1  0  0  0
  9  1  1  0  0  0
  9 11  1  0  0  0
  1  2  1  0  0  0
  1  6  2  0  0  0
  2  3  2  0  0  0
  3  4  1  0  0  0
  4 24  1  0  0  0
  4  5  2  0  0  0
 24 26  1  0  0  0
 24 25  1  0  0  0
 26 27  1  0  0  0
 26 34  2  0  0  0
 27 28  2  0  0  0
 28 29  1  0  0  0
 29 30  2  0  0  0
 30 31  1  0  0  0
 30 34  1  0  0  0
 31 32  1  0  0  0
 32 33  2  0  0  0
 32 38  1  0  0  0
 33 34  1  0  0  0
 33 35  1  0  0  0
 35 36  1  0  0  0
 36 37  1  0  0  0
 37 38  1  0  0  0
  5  6  1  0  0  0
 10 13  1  0  0  0
 10 12  1  0  0  0
 13 14  1  0  0  0
 13 19  2  0  0  0
 14 15  2  0  0  0
 15 16  1  0  0  0
 16 17  1  0  0  0
 16 18  2  0  0  0
 18 20  1  0  0  0
 18 19  1  0  0  0
 20 21  1  0  0  0
 20 22  1  0  0  0
 20 23  1  0  0  0
M  END
> <minimizedAffinity>
-11.43996

$$$$
