CHEMBL370023


 37 40  0  0  0  0  0  0  0  0999 V2000
  -29.3557   -8.0257   -4.4361 C   0  0  0  0  0  0  0  0  0  0  0  0
  -28.8897   -8.4043   -3.2758 N   0  0  0  0  0  0  0  0  0  0  0  0
  -27.8560   -9.2903   -3.1970 C   0  0  0  0  0  0  0  0  0  0  0  0
  -27.2472   -9.8472   -4.1894 N   0  0  0  0  0  0  0  0  0  0  0  0
  -27.7246   -9.4900   -5.3900 N   0  0  0  0  0  0  0  0  0  0  0  0
  -27.2608   -9.9984   -6.5630 C   0  0  0  0  0  0  0  0  0  0  0  0
  -27.9843   -9.4405   -7.5862 C   0  0  0  0  0  0  0  0  0  0  0  0
  -28.9709   -8.5556   -7.0059 C   0  0  0  0  0  0  0  0  0  0  0  0
  -28.7474   -8.6029   -5.6174 C   0  0  0  0  0  0  0  0  0  0  0  0
  -27.7336   -9.7906   -9.0220 C   0  0  0  0  0  0  0  0  0  0  0  0
  -26.5848  -10.2285   -9.4975 N   0  0  0  0  0  0  0  0  0  0  0  0
  -26.7323  -10.4079  -10.8524 N   0  0  0  0  0  0  0  0  0  0  0  0
  -27.9733  -10.0662  -11.1384 C   0  0  0  0  0  0  0  0  0  0  0  0
  -28.6802   -9.6840  -10.0207 O   0  0  0  0  0  0  0  0  0  0  0  0
  -28.6636  -10.0208  -12.4521 C   0  0  0  0  0  0  0  0  0  0  0  0
  -29.0985  -11.2446  -12.8580 F   0  0  0  0  0  0  0  0  0  0  0  0
  -29.7569   -9.2112  -12.4338 F   0  0  0  0  0  0  0  0  0  0  0  0
  -27.8541   -9.5554  -13.4423 F   0  0  0  0  0  0  0  0  0  0  0  0
  -30.0360   -7.8310   -7.8083 C   0  0  0  0  0  0  0  0  0  0  0  0
  -31.4579   -8.2887   -7.4862 C   0  0  0  0  0  0  0  0  0  0  0  0
  -29.8788   -6.3126   -7.8231 C   0  0  0  0  0  0  0  0  0  0  0  0
  -30.3671   -7.0925   -4.4556 N   0  0  0  0  0  0  0  0  0  0  0  0
  -31.2972   -7.3978   -4.6926 H   0  0  0  0  0  0  0  0  0  0  0  0
  -29.1682   -3.5725   -4.8608 C   0  0  0  0  0  0  0  0  0  0  0  0
  -29.2769   -4.9632   -5.0120 C   0  0  0  0  0  0  0  0  0  0  0  0
  -30.2294   -5.6998   -4.2973 C   0  0  0  0  0  0  0  0  0  0  0  0
  -31.0869   -4.9957   -3.4380 C   0  0  0  0  0  0  0  0  0  0  0  0
  -32.0136   -5.6681   -2.7381 F   0  0  0  0  0  0  0  0  0  0  0  0
  -31.0073   -3.6133   -3.2899 C   0  0  0  0  0  0  0  0  0  0  0  0
  -30.0461   -2.9083   -4.0062 C   0  0  0  0  0  0  0  0  0  0  0  0
  -29.9751   -1.5779   -3.8483 F   0  0  0  0  0  0  0  0  0  0  0  0
  -28.2501   -2.8139   -6.9800 N   0  0  0  0  0  0  0  0  0  0  0  0
  -28.0970   -2.8780   -5.6126 C   0  0  0  0  0  0  0  0  0  0  0  0
  -27.1308   -2.4400   -4.9943 O   0  0  0  0  0  0  0  0  0  0  0  0
  -29.1697   -2.8721   -7.4066 H   0  0  0  0  0  0  0  0  0  0  0  0
  -27.6526   -1.9628   -9.0337 C   0  0  0  0  0  0  0  0  0  0  0  0
  -27.3285   -1.9698   -7.6448 O   0  0  0  0  0  0  0  0  0  0  0  0
 36 37  1  0  0  0
 37 32  1  0  0  0
 32 33  1  0  0  0
 32 35  1  0  0  0
 33 34  2  0  0  0
 33 24  1  0  0  0
 24 25  1  0  0  0
 24 30  2  0  0  0
 25 26  2  0  0  0
 26 22  1  0  0  0
 26 27  1  0  0  0
 22  1  1  0  0  0
 22 23  1  0  0  0
  1  2  2  0  0  0
  1  9  1  0  0  0
  2  3  1  0  0  0
  3  4  2  0  0  0
  4  5  1  0  0  0
  5  6  1  0  0  0
  5  9  1  0  0  0
  6  7  2  0  0  0
  7 10  1  0  0  0
  7  8  1  0  0  0
 10 11  2  0  0  0
 10 14  1  0  0  0
 11 12  1  0  0  0
 12 13  2  0  0  0
 13 15  1  0  0  0
 13 14  1  0  0  0
 15 16  1  0  0  0
 15 17  1  0  0  0
 15 18  1  0  0  0
  8 19  1  0  0  0
  8  9  2  0  0  0
 19 20  1  0  0  0
 19 21  1  0  0  0
 27 28  1  0  0  0
 27 29  2  0  0  0
 29 30  1  0  0  0
 30 31  1  0  0  0
M  END
> <minimizedAffinity>
-9.42268

$$$$
