CHEMBL324153


 30 34  0  0  0  0  0  0  0  0999 V2000
  -22.0273    1.4821  -13.9051 C   0  0  0  0  0  0  0  0  0  0  0  0
  -22.4530    2.8282  -13.9221 C   0  0  0  0  0  0  0  0  0  0  0  0
  -21.5318    3.6696  -14.3899 N   0  0  0  0  0  0  0  0  0  0  0  0
  -20.4797    2.8744  -14.6966 N   0  0  0  0  0  0  0  0  0  0  0  0
  -19.2562    3.2710  -15.2218 C   0  0  0  0  0  0  0  0  0  0  0  0
  -18.3045    2.3609  -15.4860 C   0  0  0  0  0  0  0  0  0  0  0  0
  -18.6814    0.9494  -15.1783 C   0  0  0  0  0  0  0  0  0  0  0  0
  -19.8125    0.5472  -14.6800 N   0  0  0  0  0  0  0  0  0  0  0  0
  -20.7425    1.5246  -14.4221 C   0  0  0  0  0  0  0  0  0  0  0  0
  -24.3689   -1.4244  -13.8631 C   0  0  0  0  0  0  0  0  0  0  0  0
  -23.7179   -0.2804  -14.2994 C   0  0  0  0  0  0  0  0  0  0  0  0
  -22.7353    0.2832  -13.4813 C   0  0  0  0  0  0  0  0  0  0  0  0
  -22.4653   -0.3276  -12.2544 C   0  0  0  0  0  0  0  0  0  0  0  0
  -23.1688   -1.4699  -11.9090 C   0  0  0  0  0  0  0  0  0  0  0  0
  -24.1170   -2.0318  -12.6852 N   0  0  0  0  0  0  0  0  0  0  0  0
  -17.0008    2.7199  -16.0299 C   0  0  0  0  0  0  0  0  0  0  0  0
  -16.0375    1.7312  -16.2518 C   0  0  0  0  0  0  0  0  0  0  0  0
  -14.7839    2.0740  -16.7645 C   0  0  0  0  0  0  0  0  0  0  0  0
  -14.4927    3.4041  -17.0768 C   0  0  0  0  0  0  0  0  0  0  0  0
  -15.4441    4.3936  -16.8286 C   0  0  0  0  0  0  0  0  0  0  0  0
  -16.6966    4.0553  -16.3119 C   0  0  0  0  0  0  0  0  0  0  0  0
  -13.3126    3.8424  -17.6177 O   0  0  0  0  0  0  0  0  0  0  0  0
  -13.3485    4.0607  -19.0336 C   0  0  0  0  0  0  0  0  0  0  0  0
  -12.8386    5.4775  -19.3395 C   0  0  0  0  0  0  0  0  0  0  0  0
  -13.6963    6.2465  -20.2648 N   0  0  0  0  0  0  0  0  0  0  0  0
  -12.9031    7.2652  -20.9966 C   0  0  0  0  0  0  0  0  0  0  0  0
  -12.4934    8.4771  -20.1357 C   0  0  0  0  0  0  0  0  0  0  0  0
  -13.6262    9.0916  -19.5072 O   0  0  0  0  0  0  0  0  0  0  0  0
  -14.3602    8.1383  -18.7297 C   0  0  0  0  0  0  0  0  0  0  0  0
  -14.8136    6.9576  -19.6018 C   0  0  0  0  0  0  0  0  0  0  0  0
 10 11  1  0  0  0
 10 15  2  0  0  0
 11 12  2  0  0  0
 12  1  1  0  0  0
 12 13  1  0  0  0
  1  2  1  0  0  0
  1  9  2  0  0  0
  2  3  2  0  0  0
  3  4  1  0  0  0
  4  5  1  0  0  0
  4  9  1  0  0  0
  5  6  2  0  0  0
  6 16  1  0  0  0
  6  7  1  0  0  0
 16 17  1  0  0  0
 16 21  2  0  0  0
 17 18  2  0  0  0
 18 19  1  0  0  0
 19 22  1  0  0  0
 19 20  2  0  0  0
 22 23  1  0  0  0
 23 24  1  0  0  0
 24 25  1  0  0  0
 25 26  1  0  0  0
 25 30  1  0  0  0
 26 27  1  0  0  0
 27 28  1  0  0  0
 28 29  1  0  0  0
 29 30  1  0  0  0
 20 21  1  0  0  0
  7  8  2  0  0  0
  8  9  1  0  0  0
 13 14  2  0  0  0
 14 15  1  0  0  0
M  END
> <minimizedAffinity>
-8.86229

$$$$
