CHEMBL272938


 32 35  0  0  0  0  0  0  0  0999 V2000
  -28.2578   -2.2613   -8.1634 C   0  0  0  0  0  0  0  0  0  0  0  0
  -29.0360   -3.3811   -8.4548 C   0  0  0  0  0  0  0  0  0  0  0  0
  -29.6058   -4.1389   -7.4276 C   0  0  0  0  0  0  0  0  0  0  0  0
  -29.3919   -3.8214   -6.0752 C   0  0  0  0  0  0  0  0  0  0  0  0
  -28.4772   -2.7874   -5.8098 C   0  0  0  0  0  0  0  0  0  0  0  0
  -27.9255   -2.0028   -6.8362 C   0  0  0  0  0  0  0  0  0  0  0  0
  -30.1130   -4.5475   -5.0109 C   0  0  0  0  0  0  0  0  0  0  0  0
  -31.1631   -3.9550   -4.2893 C   0  0  0  0  0  0  0  0  0  0  0  0
  -31.8634   -4.5104   -3.2699 N   0  0  0  0  0  0  0  0  0  0  0  0
  -31.5575   -5.7634   -2.8892 C   0  0  0  0  0  0  0  0  0  0  0  0
  -30.5387   -6.4304   -3.5466 C   0  0  0  0  0  0  0  0  0  0  0  0
  -30.0435   -7.6882   -3.3627 N   0  0  0  0  0  0  0  0  0  0  0  0
  -29.0177   -7.9960   -4.1601 N   0  0  0  0  0  0  0  0  0  0  0  0
  -28.8359   -6.8936   -4.8807 C   0  0  0  0  0  0  0  0  0  0  0  0
  -27.8255   -6.8205   -5.7617 N   0  0  0  0  0  0  0  0  0  0  0  0
  -29.7896   -5.8635   -4.5830 C   0  0  0  0  0  0  0  0  0  0  0  0
  -30.3563   -8.3861   -2.6974 H   0  0  0  0  0  0  0  0  0  0  0  0
  -27.1613   -7.5858   -5.7073 H   0  0  0  0  0  0  0  0  0  0  0  0
  -27.3699   -5.9254   -5.9018 H   0  0  0  0  0  0  0  0  0  0  0  0
  -26.6589   -0.7325  -11.0440 N   0  0  0  0  0  0  0  0  0  0  0  0
  -26.9073   -1.7298  -10.1246 C   0  0  0  0  0  0  0  0  0  0  0  0
  -26.3852   -2.8411  -10.1334 O   0  0  0  0  0  0  0  0  0  0  0  0
  -27.8590   -1.3527   -9.1774 N   0  0  0  0  0  0  0  0  0  0  0  0
  -26.9560    0.2030  -10.8045 H   0  0  0  0  0  0  0  0  0  0  0  0
  -28.5704   -0.7251   -9.5231 H   0  0  0  0  0  0  0  0  0  0  0  0
  -22.3853    0.2452  -13.3618 C   0  0  0  0  0  0  0  0  0  0  0  0
  -23.7509   -0.3782  -13.3528 C   0  0  0  0  0  0  0  0  0  0  0  0
  -24.2086   -1.0609  -14.4843 C   0  0  0  0  0  0  0  0  0  0  0  0
  -25.4742   -1.6316  -14.4882 C   0  0  0  0  0  0  0  0  0  0  0  0
  -26.2921   -1.5280  -13.3637 C   0  0  0  0  0  0  0  0  0  0  0  0
  -25.8547   -0.8645  -12.2120 C   0  0  0  0  0  0  0  0  0  0  0  0
  -24.5797   -0.2856  -12.2187 C   0  0  0  0  0  0  0  0  0  0  0  0
 26 27  1  0  0  0
 27 28  1  0  0  0
 27 32  2  0  0  0
 28 29  2  0  0  0
 29 30  1  0  0  0
 30 31  2  0  0  0
 31 20  1  0  0  0
 31 32  1  0  0  0
 20 21  1  0  0  0
 20 24  1  0  0  0
 21 22  2  0  0  0
 21 23  1  0  0  0
 23  1  1  0  0  0
 23 25  1  0  0  0
  1  2  1  0  0  0
  1  6  2  0  0  0
  2  3  2  0  0  0
  3  4  1  0  0  0
  4  7  1  0  0  0
  4  5  2  0  0  0
  7  8  1  0  0  0
  7 16  2  0  0  0
  8  9  2  0  0  0
  9 10  1  0  0  0
 10 11  2  0  0  0
 11 12  1  0  0  0
 11 16  1  0  0  0
 12 13  1  0  0  0
 12 17  1  0  0  0
 13 14  2  0  0  0
 14 15  1  0  0  0
 14 16  1  0  0  0
 15 18  1  0  0  0
 15 19  1  0  0  0
  5  6  1  0  0  0
M  END
> <minimizedAffinity>
-9.64147

$$$$
