CHEMBL3952636


 38 41  0  0  0  0  0  0  0  0999 V2000
  -28.6070   -3.1657   -6.9210 C   0  0  0  0  0  0  0  0  0  0  0  0
  -27.9622   -3.1703   -5.6783 C   0  0  0  0  0  0  0  0  0  0  0  0
  -28.2545   -4.1483   -4.7174 C   0  0  0  0  0  0  0  0  0  0  0  0
  -29.2066   -5.1299   -4.9853 C   0  0  0  0  0  0  0  0  0  0  0  0
  -29.9073   -5.0747   -6.1908 C   0  0  0  0  0  0  0  0  0  0  0  0
  -30.9044   -5.9345   -6.4472 F   0  0  0  0  0  0  0  0  0  0  0  0
  -29.6033   -4.1163   -7.1583 C   0  0  0  0  0  0  0  0  0  0  0  0
  -27.0480   -3.6217   -9.3420 O   0  0  0  0  0  0  0  0  0  0  0  0
  -27.5735   -2.5403   -9.1108 C   0  0  0  0  0  0  0  0  0  0  0  0
  -28.3082   -2.2598   -7.9682 N   0  0  0  0  0  0  0  0  0  0  0  0
  -27.5366   -1.4491   -9.9704 N   0  0  0  0  0  0  0  0  0  0  0  0
  -28.8192   -1.3910   -7.9595 H   0  0  0  0  0  0  0  0  0  0  0  0
  -27.8482   -0.5666   -9.5979 H   0  0  0  0  0  0  0  0  0  0  0  0
  -27.0010   -1.4313  -11.2807 C   0  0  0  0  0  0  0  0  0  0  0  0
  -27.7141   -1.8223  -12.4099 C   0  0  0  0  0  0  0  0  0  0  0  0
  -27.1228   -1.7883  -13.6740 C   0  0  0  0  0  0  0  0  0  0  0  0
  -25.8084   -1.3477  -13.8371 C   0  0  0  0  0  0  0  0  0  0  0  0
  -25.1921   -1.3623  -15.4467 Cl  0  0  0  0  0  0  0  0  0  0  0  0
  -25.0711   -0.9261  -12.7274 C   0  0  0  0  0  0  0  0  0  0  0  0
  -25.6873   -0.9750  -11.4499 C   0  0  0  0  0  0  0  0  0  0  0  0
  -23.6608   -0.4010  -12.7974 C   0  0  0  0  0  0  0  0  0  0  0  0
  -22.7202   -1.2365  -13.3065 F   0  0  0  0  0  0  0  0  0  0  0  0
  -23.5862    0.7354  -13.5496 F   0  0  0  0  0  0  0  0  0  0  0  0
  -23.1965   -0.0440  -11.5640 F   0  0  0  0  0  0  0  0  0  0  0  0
  -29.4475   -6.0526   -3.9934 O   0  0  0  0  0  0  0  0  0  0  0  0
  -28.9438   -7.3397   -4.1691 C   0  0  0  0  0  0  0  0  0  0  0  0
  -28.3092   -7.5904   -5.3674 C   0  0  0  0  0  0  0  0  0  0  0  0
  -27.7819   -8.8555   -5.5145 C   0  0  0  0  0  0  0  0  0  0  0  0
  -27.8827   -9.7795   -4.5520 N   0  0  0  0  0  0  0  0  0  0  0  0
  -28.5469   -9.4423   -3.4434 C   0  0  0  0  0  0  0  0  0  0  0  0
  -29.1215   -8.2620   -3.2085 N   0  0  0  0  0  0  0  0  0  0  0  0
  -27.1477   -9.1733   -6.7278 N   0  0  0  0  0  0  0  0  0  0  0  0
  -27.8105   -9.5526   -7.8775 C   0  0  0  0  0  0  0  0  0  0  0  0
  -29.0077   -9.7683   -8.0018 O   0  0  0  0  0  0  0  0  0  0  0  0
  -26.1445   -9.1058   -6.7573 H   0  0  0  0  0  0  0  0  0  0  0  0
  -26.9620   -9.7366   -9.0963 C   0  0  0  0  0  0  0  0  0  0  0  0
  -27.3738  -10.5078  -10.3253 C   0  0  0  0  0  0  0  0  0  0  0  0
  -26.3182  -11.0662   -9.4130 C   0  0  0  0  0  0  0  0  0  0  0  0
  8  9  2  0  0  0
  9 10  1  0  0  0
  9 11  1  0  0  0
 10  1  1  0  0  0
 10 12  1  0  0  0
  1  2  1  0  0  0
  1  7  2  0  0  0
  2  3  2  0  0  0
  3  4  1  0  0  0
  4 25  1  0  0  0
  4  5  2  0  0  0
 25 26  1  0  0  0
 26 27  1  0  0  0
 26 31  2  0  0  0
 27 28  2  0  0  0
 28 32  1  0  0  0
 28 29  1  0  0  0
 32 33  1  0  0  0
 32 35  1  0  0  0
 33 34  2  0  0  0
 33 36  1  0  0  0
 36 37  1  0  0  0
 36 38  1  0  0  0
 37 38  1  0  0  0
 29 30  2  0  0  0
 30 31  1  0  0  0
  5  6  1  0  0  0
  5  7  1  0  0  0
 11 14  1  0  0  0
 11 13  1  0  0  0
 14 15  1  0  0  0
 14 20  2  0  0  0
 15 16  2  0  0  0
 16 17  1  0  0  0
 17 18  1  0  0  0
 17 19  2  0  0  0
 19 21  1  0  0  0
 19 20  1  0  0  0
 21 22  1  0  0  0
 21 23  1  0  0  0
 21 24  1  0  0  0
M  END
> <minimizedAffinity>
-9.75104

$$$$
