CHEMBL3098321


 29 31  0  0  0  0  0  0  0  0999 V2000
  -16.1997    0.5652  -14.9257 C   0  0  0  0  0  0  0  0  0  0  0  0
  -17.5039    0.2700  -14.7775 N   0  0  0  0  0  0  0  0  0  0  0  0
  -18.3779    1.2007  -15.1590 C   0  0  0  0  0  0  0  0  0  0  0  0
  -20.0332    0.7814  -15.1355 Cl  0  0  0  0  0  0  0  0  0  0  0  0
  -18.1076    2.3980  -15.6721 N   0  0  0  0  0  0  0  0  0  0  0  0
  -16.8286    2.6548  -15.8684 C   0  0  0  0  0  0  0  0  0  0  0  0
  -16.5568    3.8369  -16.5277 C   0  0  0  0  0  0  0  0  0  0  0  0
  -15.2693    4.2072  -16.9224 C   0  0  0  0  0  0  0  0  0  0  0  0
  -14.1941    3.4009  -16.5250 C   0  0  0  0  0  0  0  0  0  0  0  0
  -14.4585    2.2174  -15.8100 C   0  0  0  0  0  0  0  0  0  0  0  0
  -15.7849    1.7964  -15.5118 C   0  0  0  0  0  0  0  0  0  0  0  0
  -15.2101   -0.4111  -14.6325 N   0  0  0  0  0  0  0  0  0  0  0  0
  -14.3187   -0.1691  -15.0480 H   0  0  0  0  0  0  0  0  0  0  0  0
  -14.6198   -3.2894  -11.5689 C   0  0  0  0  0  0  0  0  0  0  0  0
  -15.6093   -2.3175  -11.4038 C   0  0  0  0  0  0  0  0  0  0  0  0
  -15.8257   -1.3556  -12.4064 C   0  0  0  0  0  0  0  0  0  0  0  0
  -15.0270   -1.3069  -13.5542 C   0  0  0  0  0  0  0  0  0  0  0  0
  -14.0324   -2.2960  -13.6915 C   0  0  0  0  0  0  0  0  0  0  0  0
  -13.8170   -3.2752  -12.7072 C   0  0  0  0  0  0  0  0  0  0  0  0
  -14.2798   -4.4608  -10.2721 S   0  0  0  0  0  0  0  0  0  0  0  0
  -15.1488   -4.1653   -9.1613 O   0  0  0  0  0  0  0  0  0  0  0  0
  -12.8424   -4.5518  -10.1038 O   0  0  0  0  0  0  0  0  0  0  0  0
  -13.7856   -6.8371  -11.4280 C   0  0  0  0  0  0  0  0  0  0  0  0
  -14.8110   -5.9357  -10.9033 N   0  0  0  0  0  0  0  0  0  0  0  0
  -15.4925   -6.3598  -10.2679 H   0  0  0  0  0  0  0  0  0  0  0  0
  -15.0424    5.3100  -17.7020 O   0  0  0  0  0  0  0  0  0  0  0  0
  -14.9883    5.1152  -19.1137 C   0  0  0  0  0  0  0  0  0  0  0  0
  -12.8568    3.5873  -16.7598 O   0  0  0  0  0  0  0  0  0  0  0  0
  -12.1304    4.4309  -15.8751 C   0  0  0  0  0  0  0  0  0  0  0  0
 23 24  1  0  0  0
 24 20  1  0  0  0
 24 25  1  0  0  0
 20 21  2  0  0  0
 20 22  2  0  0  0
 20 14  1  0  0  0
 14 15  1  0  0  0
 14 19  2  0  0  0
 15 16  2  0  0  0
 16 17  1  0  0  0
 17 12  1  0  0  0
 17 18  2  0  0  0
 12  1  1  0  0  0
 12 13  1  0  0  0
  1  2  1  0  0  0
  1 11  2  0  0  0
  2  3  2  0  0  0
  3  4  1  0  0  0
  3  5  1  0  0  0
  5  6  2  0  0  0
  6  7  1  0  0  0
  6 11  1  0  0  0
  7  8  2  0  0  0
  8 26  1  0  0  0
  8  9  1  0  0  0
 26 27  1  0  0  0
  9 28  1  0  0  0
  9 10  2  0  0  0
 28 29  1  0  0  0
 10 11  1  0  0  0
 18 19  1  0  0  0
M  END
> <minimizedAffinity>
-7.37801

$$$$
