CHEMBL3590219


 35 39  0  0  0  0  0  0  0  0999 V2000
  -30.3970   -5.9819   -5.3684 C   0  0  0  0  0  0  0  0  0  0  0  0
  -30.9996   -6.0757   -4.1153 C   0  0  0  0  0  0  0  0  0  0  0  0
  -31.1303   -5.0400   -3.2592 N   0  0  0  0  0  0  0  0  0  0  0  0
  -30.5772   -3.8693   -3.6327 C   0  0  0  0  0  0  0  0  0  0  0  0
  -30.6660   -2.8934   -2.6486 N   0  0  0  0  0  0  0  0  0  0  0  0
  -29.9452   -3.7471   -4.8705 C   0  0  0  0  0  0  0  0  0  0  0  0
  -29.8838   -4.7958   -5.7631 N   0  0  0  0  0  0  0  0  0  0  0  0
  -31.1395   -3.3365   -1.8523 H   0  0  0  0  0  0  0  0  0  0  0  0
  -29.7598   -2.5420   -2.3518 H   0  0  0  0  0  0  0  0  0  0  0  0
  -29.1095   -2.6345   -5.1932 N   0  0  0  0  0  0  0  0  0  0  0  0
  -27.7640   -2.8899   -5.3078 N   0  0  0  0  0  0  0  0  0  0  0  0
  -27.1236   -1.8046   -4.9198 N   0  0  0  0  0  0  0  0  0  0  0  0
  -28.0239   -0.8002   -4.8886 C   0  0  0  0  0  0  0  0  0  0  0  0
  -27.7942    0.5614   -4.6108 C   0  0  0  0  0  0  0  0  0  0  0  0
  -28.5886    1.3589   -5.4374 C   0  0  0  0  0  0  0  0  0  0  0  0
  -29.8666    0.9397   -5.8333 C   0  0  0  0  0  0  0  0  0  0  0  0
  -30.3057   -0.3647   -5.6033 C   0  0  0  0  0  0  0  0  0  0  0  0
  -29.2897   -1.2606   -5.2575 C   0  0  0  0  0  0  0  0  0  0  0  0
  -29.8161   -9.1572   -6.9805 N   0  0  0  0  0  0  0  0  0  0  0  0
  -29.8658   -8.4044   -5.8378 C   0  0  0  0  0  0  0  0  0  0  0  0
  -30.2328   -7.1239   -6.2252 C   0  0  0  0  0  0  0  0  0  0  0  0
  -30.4143   -7.2407   -7.6202 C   0  0  0  0  0  0  0  0  0  0  0  0
  -30.1594   -8.4637   -8.0770 N   0  0  0  0  0  0  0  0  0  0  0  0
  -25.4150  -11.6434   -6.1475 C   0  0  0  0  0  0  0  0  0  0  0  0
  -25.2024  -12.2167   -5.0757 O   0  0  0  0  0  0  0  0  0  0  0  0
  -26.6416  -11.0615   -6.4445 N   0  0  0  0  0  0  0  0  0  0  0  0
  -27.5770  -10.8093   -5.3531 C   0  0  0  0  0  0  0  0  0  0  0  0
  -29.0029  -11.1813   -5.7482 C   0  0  0  0  0  0  0  0  0  0  0  0
  -29.4359  -10.5702   -7.0947 C   0  0  0  0  0  0  0  0  0  0  0  0
  -28.3681  -10.8058   -8.1690 C   0  0  0  0  0  0  0  0  0  0  0  0
  -26.9664  -10.4106   -7.7123 C   0  0  0  0  0  0  0  0  0  0  0  0
  -24.2914  -11.5650   -7.1957 C   0  0  0  0  0  0  0  0  0  0  0  0
  -21.8850  -11.4035   -7.4938 C   0  0  0  0  0  0  0  0  0  0  0  0
  -23.0058  -11.1543   -6.5823 N   0  0  0  0  0  0  0  0  0  0  0  0
  -23.0527   -9.7399   -6.2163 C   0  0  0  0  0  0  0  0  0  0  0  0
 33 34  1  0  0  0
 34 35  1  0  0  0
 34 32  1  0  0  0
 32 24  1  0  0  0
 24 25  2  0  0  0
 24 26  1  0  0  0
 26 27  1  0  0  0
 26 31  1  0  0  0
 27 28  1  0  0  0
 28 29  1  0  0  0
 29 19  1  0  0  0
 29 30  1  0  0  0
 19 20  1  0  0  0
 19 23  1  0  0  0
 20 21  2  0  0  0
 21  1  1  0  0  0
 21 22  1  0  0  0
  1  2  1  0  0  0
  1  7  2  0  0  0
  2  3  2  0  0  0
  3  4  1  0  0  0
  4  5  1  0  0  0
  4  6  2  0  0  0
  5  8  1  0  0  0
  5  9  1  0  0  0
  6 10  1  0  0  0
  6  7  1  0  0  0
 10 11  1  0  0  0
 10 18  1  0  0  0
 11 12  2  0  0  0
 12 13  1  0  0  0
 13 14  1  0  0  0
 13 18  2  0  0  0
 14 15  2  0  0  0
 15 16  1  0  0  0
 16 17  2  0  0  0
 17 18  1  0  0  0
 22 23  2  0  0  0
 30 31  1  0  0  0
M  END
> <minimizedAffinity>
-9.01598

$$$$
