CHEMBL387971


 35 39  0  0  0  0  0  0  0  0999 V2000
  -31.6532   -9.3680   -6.8614 C   0  0  0  0  0  0  0  0  0  0  0  0
  -32.5093   -8.9918   -7.8295 N   0  0  0  0  0  0  0  0  0  0  0  0
  -32.3298   -9.9600   -8.7519 N   0  0  0  0  0  0  0  0  0  0  0  0
  -31.4450  -10.9181   -8.3209 C   0  0  0  0  0  0  0  0  0  0  0  0
  -31.5353  -10.7996   -6.9185 C   0  0  0  0  0  0  0  0  0  0  0  0
  -30.5541  -11.7262   -6.3790 C   0  0  0  0  0  0  0  0  0  0  0  0
  -30.6584  -12.4660   -5.4193 O   0  0  0  0  0  0  0  0  0  0  0  0
  -29.4643  -11.6913   -7.3779 C   0  0  0  0  0  0  0  0  0  0  0  0
  -28.1995  -11.4270   -6.8949 C   0  0  0  0  0  0  0  0  0  0  0  0
  -27.4837  -10.4393   -7.5566 C   0  0  0  0  0  0  0  0  0  0  0  0
  -27.8966   -9.9904   -8.8319 C   0  0  0  0  0  0  0  0  0  0  0  0
  -29.1589  -10.3476   -9.3664 C   0  0  0  0  0  0  0  0  0  0  0  0
  -29.9914  -11.1370   -8.5755 C   0  0  0  0  0  0  0  0  0  0  0  0
  -33.0229  -10.0369   -9.4841 H   0  0  0  0  0  0  0  0  0  0  0  0
  -29.2485   -6.4577   -6.9724 C   0  0  0  0  0  0  0  0  0  0  0  0
  -30.2936   -7.2547   -7.3898 C   0  0  0  0  0  0  0  0  0  0  0  0
  -30.5332   -8.4059   -6.5357 C   0  0  0  0  0  0  0  0  0  0  0  0
  -29.5756   -8.4762   -5.5492 C   0  0  0  0  0  0  0  0  0  0  0  0
  -28.5059   -7.1218   -5.5828 S   0  0  0  0  0  0  0  0  0  0  0  0
  -28.4764   -4.1524   -8.0017 C   0  0  0  0  0  0  0  0  0  0  0  0
  -28.8574   -5.2101   -7.5674 C   0  0  0  0  0  0  0  0  0  0  0  0
  -27.9476   -2.8636   -8.4694 C   0  0  0  0  0  0  0  0  0  0  0  0
  -27.4669   -2.0983   -7.3602 O   0  0  0  0  0  0  0  0  0  0  0  0
  -28.5172   -1.8064   -6.4364 C   0  0  0  0  0  0  0  0  0  0  0  0
  -27.9554   -1.6667   -5.0239 C   0  0  0  0  0  0  0  0  0  0  0  0
  -27.9736   -3.7946   -3.9988 C   0  0  0  0  0  0  0  0  0  0  0  0
  -27.1990   -2.8375   -4.7098 O   0  0  0  0  0  0  0  0  0  0  0  0
  -26.3948   -9.7209   -6.7653 C   0  0  0  0  0  0  0  0  0  0  0  0
  -25.3345  -10.5972   -6.2955 N   0  0  0  0  0  0  0  0  0  0  0  0
  -24.6176  -11.1903   -7.4337 C   0  0  0  0  0  0  0  0  0  0  0  0
  -23.4766  -12.0958   -6.9446 C   0  0  0  0  0  0  0  0  0  0  0  0
  -22.4822  -11.4100   -6.0965 N   0  0  0  0  0  0  0  0  0  0  0  0
  -21.6677  -10.4807   -6.8763 C   0  0  0  0  0  0  0  0  0  0  0  0
  -23.1874  -10.7186   -4.9958 C   0  0  0  0  0  0  0  0  0  0  0  0
  -24.3931   -9.8528   -5.4324 C   0  0  0  0  0  0  0  0  0  0  0  0
 26 27  1  0  0  0
 27 25  1  0  0  0
 25 24  1  0  0  0
 24 23  1  0  0  0
 23 22  1  0  0  0
 22 20  1  0  0  0
 20 21  3  0  0  0
 21 15  1  0  0  0
 15 16  2  0  0  0
 15 19  1  0  0  0
 16 17  1  0  0  0
 17  1  1  0  0  0
 17 18  2  0  0  0
  1  2  2  0  0  0
  1  5  1  0  0  0
  2  3  1  0  0  0
  3  4  1  0  0  0
  3 14  1  0  0  0
  4  5  2  0  0  0
  4 13  1  0  0  0
  5  6  1  0  0  0
  6  7  2  0  0  0
  6  8  1  0  0  0
  8  9  1  0  0  0
  8 13  2  0  0  0
  9 10  2  0  0  0
 10 28  1  0  0  0
 10 11  1  0  0  0
 28 29  1  0  0  0
 29 30  1  0  0  0
 29 35  1  0  0  0
 30 31  1  0  0  0
 31 32  1  0  0  0
 32 33  1  0  0  0
 32 34  1  0  0  0
 34 35  1  0  0  0
 11 12  2  0  0  0
 12 13  1  0  0  0
 18 19  1  0  0  0
M  END
> <minimizedAffinity>
-7.45596

$$$$
