CHEMBL2409777


 35 39  0  0  0  0  0  0  0  0999 V2000
  -13.8957    3.9897  -15.5877 C   0  0  0  0  0  0  0  0  0  0  0  0
  -14.9927    2.9718  -15.4845 C   0  0  0  0  0  0  0  0  0  0  0  0
  -14.7245    1.7003  -14.9603 C   0  0  0  0  0  0  0  0  0  0  0  0
  -15.7134    0.7154  -14.8762 C   0  0  0  0  0  0  0  0  0  0  0  0
  -16.9976    1.0171  -15.3443 C   0  0  0  0  0  0  0  0  0  0  0  0
  -17.2958    2.3062  -15.8055 C   0  0  0  0  0  0  0  0  0  0  0  0
  -16.2889    3.2688  -15.9034 C   0  0  0  0  0  0  0  0  0  0  0  0
  -15.4880   -0.5729  -14.3298 N   0  0  0  0  0  0  0  0  0  0  0  0
  -15.4383   -0.8966  -12.9819 C   0  0  0  0  0  0  0  0  0  0  0  0
  -15.5876   -0.0829  -12.0788 O   0  0  0  0  0  0  0  0  0  0  0  0
  -15.3678   -1.3264  -14.9898 H   0  0  0  0  0  0  0  0  0  0  0  0
  -15.1896   -2.2926  -12.6770 C   0  0  0  0  0  0  0  0  0  0  0  0
  -16.0253   -3.3441  -12.3364 C   0  0  0  0  0  0  0  0  0  0  0  0
  -15.1857   -4.4724  -12.1876 C   0  0  0  0  0  0  0  0  0  0  0  0
  -15.5545   -5.8688  -11.8585 C   0  0  0  0  0  0  0  0  0  0  0  0
  -13.9061   -4.1600  -12.3943 N   0  0  0  0  0  0  0  0  0  0  0  0
  -13.9254   -2.8460  -12.6806 N   0  0  0  0  0  0  0  0  0  0  0  0
  -12.6726   -2.1820  -12.9722 C   0  0  0  0  0  0  0  0  0  0  0  0
  -18.5347    2.7056  -16.2479 O   0  0  0  0  0  0  0  0  0  0  0  0
  -19.6897    2.4927  -15.5114 C   0  0  0  0  0  0  0  0  0  0  0  0
  -20.4191    3.5956  -14.8840 C   0  0  0  0  0  0  0  0  0  0  0  0
  -21.5276    3.3786  -14.1469 C   0  0  0  0  0  0  0  0  0  0  0  0
  -22.0411    2.0577  -14.0204 C   0  0  0  0  0  0  0  0  0  0  0  0
  -23.0836    1.5609  -13.3896 N   0  0  0  0  0  0  0  0  0  0  0  0
  -22.9944    0.2199  -13.6567 C   0  0  0  0  0  0  0  0  0  0  0  0
  -21.9889   -0.1255  -14.4559 N   0  0  0  0  0  0  0  0  0  0  0  0
  -21.3606    1.0381  -14.6866 N   0  0  0  0  0  0  0  0  0  0  0  0
  -20.2084    1.2577  -15.4295 C   0  0  0  0  0  0  0  0  0  0  0  0
  -23.9218   -0.6200  -13.1005 N   0  0  0  0  0  0  0  0  0  0  0  0
  -24.9060   -1.2476  -13.8175 C   0  0  0  0  0  0  0  0  0  0  0  0
  -25.0791   -1.2014  -15.0267 O   0  0  0  0  0  0  0  0  0  0  0  0
  -23.8028   -0.7728  -12.1133 H   0  0  0  0  0  0  0  0  0  0  0  0
  -25.8568   -2.0970  -13.0390 C   0  0  0  0  0  0  0  0  0  0  0  0
  -27.3393   -1.9689  -13.3053 C   0  0  0  0  0  0  0  0  0  0  0  0
  -26.7907   -1.6523  -11.9445 C   0  0  0  0  0  0  0  0  0  0  0  0
  1  2  1  0  0  0
  2  3  1  0  0  0
  2  7  2  0  0  0
  3  4  2  0  0  0
  4  8  1  0  0  0
  4  5  1  0  0  0
  8  9  1  0  0  0
  8 11  1  0  0  0
  9 10  2  0  0  0
  9 12  1  0  0  0
 12 13  2  0  0  0
 12 17  1  0  0  0
 13 14  1  0  0  0
 14 15  1  0  0  0
 14 16  2  0  0  0
 16 17  1  0  0  0
 17 18  1  0  0  0
  5  6  2  0  0  0
  6 19  1  0  0  0
  6  7  1  0  0  0
 19 20  1  0  0  0
 20 21  1  0  0  0
 20 28  2  0  0  0
 21 22  2  0  0  0
 22 23  1  0  0  0
 23 24  2  0  0  0
 23 27  1  0  0  0
 24 25  1  0  0  0
 25 29  1  0  0  0
 25 26  2  0  0  0
 29 30  1  0  0  0
 29 32  1  0  0  0
 30 31  2  0  0  0
 30 33  1  0  0  0
 33 34  1  0  0  0
 33 35  1  0  0  0
 34 35  1  0  0  0
 26 27  1  0  0  0
 27 28  1  0  0  0
M  END
> <minimizedAffinity>
-10.03706

$$$$
