CHEMBL498088


 40 43  0  0  0  0  0  0  0  0999 V2000
  -27.5854   -2.5456   -8.8499 C   0  0  0  0  0  0  0  0  0  0  0  0
  -27.9684   -2.1369   -7.5505 C   0  0  0  0  0  0  0  0  0  0  0  0
  -28.4204   -3.0711   -6.5951 C   0  0  0  0  0  0  0  0  0  0  0  0
  -28.4951   -4.4088   -6.9487 C   0  0  0  0  0  0  0  0  0  0  0  0
  -28.0931   -4.7832   -8.2350 C   0  0  0  0  0  0  0  0  0  0  0  0
  -27.6351   -3.8983   -9.1925 C   0  0  0  0  0  0  0  0  0  0  0  0
  -28.2545   -6.1496   -8.4320 N   0  0  0  0  0  0  0  0  0  0  0  0
  -28.8115   -6.7555   -7.3230 C   0  0  0  0  0  0  0  0  0  0  0  0
  -29.2195   -7.9014   -7.3027 O   0  0  0  0  0  0  0  0  0  0  0  0
  -28.8933   -5.6673   -6.2679 C   0  0  0  0  0  0  0  0  0  0  0  0
  -29.2919   -5.9451   -5.0035 C   0  0  0  0  0  0  0  0  0  0  0  0
  -28.1206   -6.6453   -9.2957 H   0  0  0  0  0  0  0  0  0  0  0  0
  -29.6790   -4.8440   -4.0917 C   0  0  0  0  0  0  0  0  0  0  0  0
  -28.6866   -4.0595   -3.4798 C   0  0  0  0  0  0  0  0  0  0  0  0
  -29.0386   -2.9886   -2.6551 C   0  0  0  0  0  0  0  0  0  0  0  0
  -30.3828   -2.6948   -2.4319 C   0  0  0  0  0  0  0  0  0  0  0  0
  -31.3744   -3.4644   -3.0363 C   0  0  0  0  0  0  0  0  0  0  0  0
  -31.0268   -4.5322   -3.8681 C   0  0  0  0  0  0  0  0  0  0  0  0
  -27.1555   -1.5951   -9.9187 C   0  0  0  0  0  0  0  0  0  0  0  0
  -27.9459   -0.9451  -10.5838 O   0  0  0  0  0  0  0  0  0  0  0  0
  -25.3194   -1.6241  -11.3473 C   0  0  0  0  0  0  0  0  0  0  0  0
  -25.8057   -1.5344  -10.0065 O   0  0  0  0  0  0  0  0  0  0  0  0
  -29.4673   -7.2040   -4.4334 N   0  0  0  0  0  0  0  0  0  0  0  0
  -30.1044   -7.2356   -3.6443 H   0  0  0  0  0  0  0  0  0  0  0  0
  -28.6339   -8.3422   -4.5669 C   0  0  0  0  0  0  0  0  0  0  0  0
  -27.2369   -8.2619   -4.6133 C   0  0  0  0  0  0  0  0  0  0  0  0
  -26.4586   -9.3539   -5.0209 C   0  0  0  0  0  0  0  0  0  0  0  0
  -27.0545  -10.5737   -5.3533 C   0  0  0  0  0  0  0  0  0  0  0  0
  -28.4353  -10.7105   -5.1903 C   0  0  0  0  0  0  0  0  0  0  0  0
  -29.2147   -9.5973   -4.8167 C   0  0  0  0  0  0  0  0  0  0  0  0
  -26.2762  -11.5396   -6.0550 N   0  0  0  0  0  0  0  0  0  0  0  0
  -25.7701  -11.3843   -7.3432 C   0  0  0  0  0  0  0  0  0  0  0  0
  -26.4465  -10.4165   -8.2782 C   0  0  0  0  0  0  0  0  0  0  0  0
  -24.8022  -12.0339   -7.7537 O   0  0  0  0  0  0  0  0  0  0  0  0
  -25.4828  -12.4232   -5.1819 C   0  0  0  0  0  0  0  0  0  0  0  0
  -24.2876  -11.7517   -4.4806 C   0  0  0  0  0  0  0  0  0  0  0  0
  -23.2993  -11.3693   -5.1070 O   0  0  0  0  0  0  0  0  0  0  0  0
  -24.3693  -11.6554   -3.0837 N   0  0  0  0  0  0  0  0  0  0  0  0
  -23.2959  -10.9852   -2.3714 C   0  0  0  0  0  0  0  0  0  0  0  0
  -25.2605  -12.4658   -2.2613 C   0  0  0  0  0  0  0  0  0  0  0  0
 21 22  1  0  0  0
 22 19  1  0  0  0
 19 20  2  0  0  0
 19  1  1  0  0  0
  1  2  1  0  0  0
  1  6  2  0  0  0
  2  3  2  0  0  0
  3  4  1  0  0  0
  4  5  2  0  0  0
  4 10  1  0  0  0
  5  6  1  0  0  0
  5  7  1  0  0  0
  7  8  1  0  0  0
  7 12  1  0  0  0
  8  9  2  0  0  0
  8 10  1  0  0  0
 10 11  2  0  0  0
 11 23  1  0  0  0
 11 13  1  0  0  0
 23 25  1  0  0  0
 23 24  1  0  0  0
 25 26  1  0  0  0
 25 30  2  0  0  0
 26 27  2  0  0  0
 27 28  1  0  0  0
 28 31  1  0  0  0
 28 29  2  0  0  0
 31 35  1  0  0  0
 31 32  1  0  0  0
 35 36  1  0  0  0
 36 37  2  0  0  0
 36 38  1  0  0  0
 38 39  1  0  0  0
 38 40  1  0  0  0
 32 33  1  0  0  0
 32 34  2  0  0  0
 29 30  1  0  0  0
 13 14  1  0  0  0
 13 18  2  0  0  0
 14 15  2  0  0  0
 15 16  1  0  0  0
 16 17  2  0  0  0
 17 18  1  0  0  0
M  END
> <minimizedAffinity>
-7.64580

$$$$
