CHEMBL249502


 37 42  0  0  0  0  0  0  0  0999 V2000
  -28.7000   -4.0439   -6.9889 C   0  0  0  0  0  0  0  0  0  0  0  0
  -28.7705   -3.5065   -5.7565 N   0  0  0  0  0  0  0  0  0  0  0  0
  -28.2418   -2.2758   -5.9312 N   0  0  0  0  0  0  0  0  0  0  0  0
  -27.9032   -2.0006   -7.2233 C   0  0  0  0  0  0  0  0  0  0  0  0
  -27.4541   -0.8256   -7.6908 N   0  0  0  0  0  0  0  0  0  0  0  0
  -27.2191   -0.8600   -9.0295 C   0  0  0  0  0  0  0  0  0  0  0  0
  -27.3073   -1.9680   -9.8850 C   0  0  0  0  0  0  0  0  0  0  0  0
  -27.7924   -3.1575   -9.3046 C   0  0  0  0  0  0  0  0  0  0  0  0
  -28.1261   -3.1615   -7.9385 C   0  0  0  0  0  0  0  0  0  0  0  0
  -28.1557   -1.6507   -5.1387 H   0  0  0  0  0  0  0  0  0  0  0  0
  -29.2459   -8.8107   -8.2192 C   0  0  0  0  0  0  0  0  0  0  0  0
  -30.3486   -9.6861   -8.1807 C   0  0  0  0  0  0  0  0  0  0  0  0
  -31.6078   -9.2404   -7.7730 C   0  0  0  0  0  0  0  0  0  0  0  0
  -31.8100   -7.9191   -7.3625 C   0  0  0  0  0  0  0  0  0  0  0  0
  -30.6974   -7.0736   -7.3864 C   0  0  0  0  0  0  0  0  0  0  0  0
  -30.5330   -5.7625   -7.0257 N   0  0  0  0  0  0  0  0  0  0  0  0
  -29.2292   -5.4117   -7.2642 C   0  0  0  0  0  0  0  0  0  0  0  0
  -28.5454   -6.4170   -7.7707 N   0  0  0  0  0  0  0  0  0  0  0  0
  -29.4329   -7.4752   -7.8187 C   0  0  0  0  0  0  0  0  0  0  0  0
  -31.2300   -5.1345   -6.6492 H   0  0  0  0  0  0  0  0  0  0  0  0
  -27.2168  -10.0586   -7.7466 N   0  0  0  0  0  0  0  0  0  0  0  0
  -27.9357   -9.3274   -8.6671 C   0  0  0  0  0  0  0  0  0  0  0  0
  -27.5325   -9.0747   -9.7981 O   0  0  0  0  0  0  0  0  0  0  0  0
  -27.6974  -10.3356   -6.8932 H   0  0  0  0  0  0  0  0  0  0  0  0
  -25.0394  -10.6789   -6.8444 C   0  0  0  0  0  0  0  0  0  0  0  0
  -25.9432  -10.6790   -8.0682 C   0  0  0  0  0  0  0  0  0  0  0  0
  -26.1655  -12.0943   -8.5975 C   0  0  0  0  0  0  0  0  0  0  0  0
  -26.9718   -1.8863  -11.3349 C   0  0  0  0  0  0  0  0  0  0  0  0
  -28.0123   -1.9492  -12.2703 C   0  0  0  0  0  0  0  0  0  0  0  0
  -27.8831   -1.8866  -13.6145 N   0  0  0  0  0  0  0  0  0  0  0  0
  -26.6360   -1.6912  -14.0805 C   0  0  0  0  0  0  0  0  0  0  0  0
  -25.5058   -1.5617  -13.2766 C   0  0  0  0  0  0  0  0  0  0  0  0
  -24.2523   -1.2912  -13.8477 C   0  0  0  0  0  0  0  0  0  0  0  0
  -23.1210   -1.1481  -13.0490 C   0  0  0  0  0  0  0  0  0  0  0  0
  -23.2258   -1.3314  -11.6796 C   0  0  0  0  0  0  0  0  0  0  0  0
  -24.4639   -1.6343  -11.1077 C   0  0  0  0  0  0  0  0  0  0  0  0
  -25.6572   -1.6994  -11.8712 C   0  0  0  0  0  0  0  0  0  0  0  0
 25 26  1  0  0  0
 26 27  1  0  0  0
 26 21  1  0  0  0
 21 22  1  0  0  0
 21 24  1  0  0  0
 22 23  2  0  0  0
 22 11  1  0  0  0
 11 12  1  0  0  0
 11 19  2  0  0  0
 12 13  2  0  0  0
 13 14  1  0  0  0
 14 15  2  0  0  0
 15 16  1  0  0  0
 15 19  1  0  0  0
 16 17  1  0  0  0
 16 20  1  0  0  0
 17  1  1  0  0  0
 17 18  2  0  0  0
  1  2  2  0  0  0
  1  9  1  0  0  0
  2  3  1  0  0  0
  3  4  1  0  0  0
  3 10  1  0  0  0
  4  5  1  0  0  0
  4  9  2  0  0  0
  5  6  2  0  0  0
  6  7  1  0  0  0
  7 28  1  0  0  0
  7  8  2  0  0  0
 28 29  1  0  0  0
 28 37  2  0  0  0
 29 30  2  0  0  0
 30 31  1  0  0  0
 31 32  2  0  0  0
 32 33  1  0  0  0
 32 37  1  0  0  0
 33 34  2  0  0  0
 34 35  1  0  0  0
 35 36  2  0  0  0
 36 37  1  0  0  0
  8  9  1  0  0  0
 18 19  1  0  0  0
M  END
> <minimizedAffinity>
-10.16861

$$$$
