CHEMBL4449758


 31 33  0  0  0  0  0  0  0  0999 V2000
  -23.7625   -0.6523  -13.7483 C   0  0  0  0  0  0  0  0  0  0  0  0
  -24.6540   -1.0391  -14.7616 C   0  0  0  0  0  0  0  0  0  0  0  0
  -25.8937   -1.5946  -14.4712 C   0  0  0  0  0  0  0  0  0  0  0  0
  -26.2470   -1.8085  -13.1503 C   0  0  0  0  0  0  0  0  0  0  0  0
  -25.3678   -1.4631  -12.1166 C   0  0  0  0  0  0  0  0  0  0  0  0
  -24.1168   -0.8954  -12.4121 C   0  0  0  0  0  0  0  0  0  0  0  0
  -23.1628    2.1685  -13.7317 O   0  0  0  0  0  0  0  0  0  0  0  0
  -22.3271    1.3327  -14.0794 C   0  0  0  0  0  0  0  0  0  0  0  0
  -22.5176   -0.0455  -14.0667 N   0  0  0  0  0  0  0  0  0  0  0  0
  -21.6887   -0.6244  -14.1663 H   0  0  0  0  0  0  0  0  0  0  0  0
  -20.9951    1.8430  -14.5223 C   0  0  0  0  0  0  0  0  0  0  0  0
  -20.0170    0.8959  -14.8324 C   0  0  0  0  0  0  0  0  0  0  0  0
  -18.7531    1.3278  -15.2073 C   0  0  0  0  0  0  0  0  0  0  0  0
  -18.5033    2.6917  -15.2576 C   0  0  0  0  0  0  0  0  0  0  0  0
  -19.5364    3.5690  -14.9374 C   0  0  0  0  0  0  0  0  0  0  0  0
  -20.7871    3.1850  -14.5733 N   0  0  0  0  0  0  0  0  0  0  0  0
  -25.7782   -1.8522  -10.8323 N   0  0  0  0  0  0  0  0  0  0  0  0
  -25.0446   -2.2263  -10.2405 H   0  0  0  0  0  0  0  0  0  0  0  0
  -27.0049   -1.8403  -10.2101 C   0  0  0  0  0  0  0  0  0  0  0  0
  -28.2603   -0.7957  -10.5298 S   0  0  0  0  0  0  0  0  0  0  0  0
  -27.1911   -2.9400   -9.3856 N   0  0  0  0  0  0  0  0  0  0  0  0
  -26.7707   -3.8143   -9.6826 H   0  0  0  0  0  0  0  0  0  0  0  0
  -28.0134   -2.9317   -8.2367 C   0  0  0  0  0  0  0  0  0  0  0  0
  -27.7720   -2.0192   -7.1982 C   0  0  0  0  0  0  0  0  0  0  0  0
  -28.4974   -2.0680   -6.0123 C   0  0  0  0  0  0  0  0  0  0  0  0
  -29.4980   -3.0299   -5.8718 C   0  0  0  0  0  0  0  0  0  0  0  0
  -29.8080   -3.8945   -6.9349 C   0  0  0  0  0  0  0  0  0  0  0  0
  -29.0752   -3.8285   -8.1294 C   0  0  0  0  0  0  0  0  0  0  0  0
  -30.2013   -3.1498   -4.5875 N   0  0  0  0  0  0  0  0  0  0  0  0
  -29.9187   -2.3303   -3.7002 O   0  0  0  0  0  0  0  0  0  0  0  0
  -31.0302   -4.0621   -4.4700 O   0  0  0  0  0  0  0  0  0  0  0  0
  7  8  2  0  0  0
  8  9  1  0  0  0
  8 11  1  0  0  0
  9  1  1  0  0  0
  9 10  1  0  0  0
  1  2  1  0  0  0
  1  6  2  0  0  0
  2  3  2  0  0  0
  3  4  1  0  0  0
  4  5  2  0  0  0
  5 17  1  0  0  0
  5  6  1  0  0  0
 17 19  1  0  0  0
 17 18  1  0  0  0
 19 20  2  0  0  0
 19 21  1  0  0  0
 21 23  1  0  0  0
 21 22  1  0  0  0
 23 24  1  0  0  0
 23 28  2  0  0  0
 24 25  2  0  0  0
 25 26  1  0  0  0
 26 29  1  0  0  0
 26 27  2  0  0  0
 29 30  2  0  0  0
 29 31  1  0  0  0
 27 28  1  0  0  0
 11 12  1  0  0  0
 11 16  2  0  0  0
 12 13  2  0  0  0
 13 14  1  0  0  0
 14 15  2  0  0  0
 15 16  1  0  0  0
M  CHG 1  29   1
M  CHG 1  31  -1
M  END
> <minimizedAffinity>
-9.79342

$$$$
