CHEMBL2016911


 33 37  0  0  0  0  0  0  0  0999 V2000
  -22.7046    0.7315  -13.9868 C   0  0  0  0  0  0  0  0  0  0  0  0
  -22.4988    2.0404  -14.0088 N   0  0  0  0  0  0  0  0  0  0  0  0
  -21.2087    2.2040  -14.4228 C   0  0  0  0  0  0  0  0  0  0  0  0
  -20.6108    1.0049  -14.6746 C   0  0  0  0  0  0  0  0  0  0  0  0
  -21.5631    0.0672  -14.3952 N   0  0  0  0  0  0  0  0  0  0  0  0
  -19.2392    0.7606  -15.1290 C   0  0  0  0  0  0  0  0  0  0  0  0
  -18.4865    2.0136  -15.2834 N   0  0  0  0  0  0  0  0  0  0  0  0
  -17.1630    1.8580  -15.6984 C   0  0  0  0  0  0  0  0  0  0  0  0
  -16.6698    0.7372  -15.8724 O   0  0  0  0  0  0  0  0  0  0  0  0
  -19.0810    3.3490  -15.0425 C   0  0  0  0  0  0  0  0  0  0  0  0
  -20.5327    3.4944  -14.5531 C   0  0  0  0  0  0  0  0  0  0  0  0
  -21.4724   -0.9445  -14.4473 H   0  0  0  0  0  0  0  0  0  0  0  0
  -26.8076   -1.6767  -10.1019 C   0  0  0  0  0  0  0  0  0  0  0  0
  -27.5723   -2.3458  -11.0609 C   0  0  0  0  0  0  0  0  0  0  0  0
  -27.2310   -2.2704  -12.4141 C   0  0  0  0  0  0  0  0  0  0  0  0
  -26.1233   -1.5232  -12.8039 C   0  0  0  0  0  0  0  0  0  0  0  0
  -25.7906   -1.4265  -14.1589 N   0  0  0  0  0  0  0  0  0  0  0  0
  -24.7276   -0.6988  -14.6274 C   0  0  0  0  0  0  0  0  0  0  0  0
  -24.5034   -0.6261  -15.8359 O   0  0  0  0  0  0  0  0  0  0  0  0
  -23.8627   -0.0078  -13.6137 C   0  0  0  0  0  0  0  0  0  0  0  0
  -24.1764   -0.0971  -12.3056 C   0  0  0  0  0  0  0  0  0  0  0  0
  -25.3413   -0.8578  -11.8558 C   0  0  0  0  0  0  0  0  0  0  0  0
  -25.6882   -0.9386  -10.5038 C   0  0  0  0  0  0  0  0  0  0  0  0
  -26.3547   -1.8913  -14.8566 H   0  0  0  0  0  0  0  0  0  0  0  0
  -27.9255   -2.6720   -8.2572 C   0  0  0  0  0  0  0  0  0  0  0  0
  -27.0470   -1.6695   -8.7545 O   0  0  0  0  0  0  0  0  0  0  0  0
  -16.2960    3.1094  -15.9303 C   0  0  0  0  0  0  0  0  0  0  0  0
  -14.9753    2.7758  -16.5200 N   0  0  0  0  0  0  0  0  0  0  0  0
  -13.8481    3.1558  -15.6304 C   0  0  0  0  0  0  0  0  0  0  0  0
  -13.6641    4.6759  -15.4659 C   0  0  0  0  0  0  0  0  0  0  0  0
  -13.5252    5.3342  -16.7341 O   0  0  0  0  0  0  0  0  0  0  0  0
  -14.6216    5.0322  -17.6048 C   0  0  0  0  0  0  0  0  0  0  0  0
  -14.7796    3.5125  -17.7929 C   0  0  0  0  0  0  0  0  0  0  0  0
 25 26  1  0  0  0
 26 13  1  0  0  0
 13 14  1  0  0  0
 13 23  2  0  0  0
 14 15  2  0  0  0
 15 16  1  0  0  0
 16 17  1  0  0  0
 16 22  2  0  0  0
 17 18  1  0  0  0
 17 24  1  0  0  0
 18 19  2  0  0  0
 18 20  1  0  0  0
 20  1  1  0  0  0
 20 21  2  0  0  0
  1  2  2  0  0  0
  1  5  1  0  0  0
  2  3  1  0  0  0
  3  4  2  0  0  0
  3 11  1  0  0  0
  4  5  1  0  0  0
  4  6  1  0  0  0
  5 12  1  0  0  0
  6  7  1  0  0  0
  7  8  1  0  0  0
  7 10  1  0  0  0
  8  9  2  0  0  0
  8 27  1  0  0  0
 27 28  1  0  0  0
 28 29  1  0  0  0
 28 33  1  0  0  0
 29 30  1  0  0  0
 30 31  1  0  0  0
 31 32  1  0  0  0
 32 33  1  0  0  0
 10 11  1  0  0  0
 21 22  1  0  0  0
 22 23  1  0  0  0
M  END
> <minimizedAffinity>
-9.26053

$$$$
