CHEMBL189542


 37 39  0  0  0  0  0  0  0  0999 V2000
  -30.3626   -4.8639   -4.4527 C   0  0  0  0  0  0  0  0  0  0  0  0
  -29.8819   -6.1602   -4.3209 C   0  0  0  0  0  0  0  0  0  0  0  0
  -29.4577   -6.8518   -5.4383 C   0  0  0  0  0  0  0  0  0  0  0  0
  -29.1447   -8.1574   -5.3524 N   0  0  0  0  0  0  0  0  0  0  0  0
  -28.8158   -8.8203   -6.4861 C   0  0  0  0  0  0  0  0  0  0  0  0
  -28.7775   -8.2390   -7.7672 C   0  0  0  0  0  0  0  0  0  0  0  0
  -29.0762   -6.8680   -7.8102 C   0  0  0  0  0  0  0  0  0  0  0  0
  -29.4255   -6.1676   -6.6541 C   0  0  0  0  0  0  0  0  0  0  0  0
  -29.7958   -4.8295   -6.6767 C   0  0  0  0  0  0  0  0  0  0  0  0
  -30.2776   -4.1790   -5.6055 N   0  0  0  0  0  0  0  0  0  0  0  0
  -28.6060  -10.1951   -6.3181 N   0  0  0  0  0  0  0  0  0  0  0  0
  -27.6154  -10.7654   -5.5719 C   0  0  0  0  0  0  0  0  0  0  0  0
  -27.6028  -11.9920   -5.4411 O   0  0  0  0  0  0  0  0  0  0  0  0
  -26.7089   -9.9301   -4.9895 N   0  0  0  0  0  0  0  0  0  0  0  0
  -29.4542  -10.7228   -6.1702 H   0  0  0  0  0  0  0  0  0  0  0  0
  -27.0464   -8.9891   -4.8287 H   0  0  0  0  0  0  0  0  0  0  0  0
  -25.5832  -10.3757   -4.1513 C   0  0  0  0  0  0  0  0  0  0  0  0
  -24.5400  -11.0995   -5.0174 C   0  0  0  0  0  0  0  0  0  0  0  0
  -24.9268   -9.1330   -3.5209 C   0  0  0  0  0  0  0  0  0  0  0  0
  -26.0390  -11.2969   -3.0049 C   0  0  0  0  0  0  0  0  0  0  0  0
  -28.5097   -8.9565   -9.0390 C   0  0  0  0  0  0  0  0  0  0  0  0
  -29.5027   -9.6710   -9.7320 C   0  0  0  0  0  0  0  0  0  0  0  0
  -29.2153  -10.3665  -10.9109 C   0  0  0  0  0  0  0  0  0  0  0  0
  -27.9337  -10.3306  -11.4477 C   0  0  0  0  0  0  0  0  0  0  0  0
  -26.9453   -9.5841  -10.8189 C   0  0  0  0  0  0  0  0  0  0  0  0
  -27.2304   -8.9113   -9.6289 C   0  0  0  0  0  0  0  0  0  0  0  0
  -30.9644   -4.2751   -3.3358 N   0  0  0  0  0  0  0  0  0  0  0  0
  -30.9196   -4.9381   -2.5692 H   0  0  0  0  0  0  0  0  0  0  0  0
  -30.4519   -2.9455   -3.0123 C   0  0  0  0  0  0  0  0  0  0  0  0
  -28.9251   -2.9688   -3.0283 C   0  0  0  0  0  0  0  0  0  0  0  0
  -28.3096   -1.9206   -3.9611 C   0  0  0  0  0  0  0  0  0  0  0  0
  -29.3240   -0.9630   -4.6072 C   0  0  0  0  0  0  0  0  0  0  0  0
  -29.0435   -0.6348   -6.0171 N   0  0  0  0  0  0  0  0  0  0  0  0
  -30.4631    1.4624   -6.0979 C   0  0  0  0  0  0  0  0  0  0  0  0
  -29.0891    0.8201   -6.2404 C   0  0  0  0  0  0  0  0  0  0  0  0
  -27.7991   -1.2747   -6.4806 C   0  0  0  0  0  0  0  0  0  0  0  0
  -27.8533   -1.9440   -7.8527 C   0  0  0  0  0  0  0  0  0  0  0  0
 34 35  1  0  0  0
 35 33  1  0  0  0
 33 36  1  0  0  0
 33 32  1  0  0  0
 36 37  1  0  0  0
 32 31  1  0  0  0
 31 30  1  0  0  0
 30 29  1  0  0  0
 29 27  1  0  0  0
 27  1  1  0  0  0
 27 28  1  0  0  0
  1  2  1  0  0  0
  1 10  2  0  0  0
  2  3  2  0  0  0
  3  4  1  0  0  0
  3  8  1  0  0  0
  4  5  2  0  0  0
  5 11  1  0  0  0
  5  6  1  0  0  0
 11 12  1  0  0  0
 11 15  1  0  0  0
 12 13  2  0  0  0
 12 14  1  0  0  0
 14 17  1  0  0  0
 14 16  1  0  0  0
 17 18  1  0  0  0
 17 19  1  0  0  0
 17 20  1  0  0  0
  6 21  1  0  0  0
  6  7  2  0  0  0
 21 22  1  0  0  0
 21 26  2  0  0  0
 22 23  2  0  0  0
 23 24  1  0  0  0
 24 25  2  0  0  0
 25 26  1  0  0  0
  7  8  1  0  0  0
  8  9  2  0  0  0
  9 10  1  0  0  0
M  END
> <minimizedAffinity>
-8.22379

$$$$
