CHEMBL3780276


 41 45  0  0  0  0  0  0  0  0999 V2000
  -15.4265    2.5081  -15.5539 N   0  0  0  0  0  0  0  0  0  0  0  0
  -15.0881    3.4226  -15.2723 H   0  0  0  0  0  0  0  0  0  0  0  0
  -12.8892   -0.4981  -14.1627 C   0  0  0  0  0  0  0  0  0  0  0  0
  -13.3653    0.4565  -13.3396 N   0  0  0  0  0  0  0  0  0  0  0  0
  -14.1438    1.4567  -13.8331 N   0  0  0  0  0  0  0  0  0  0  0  0
  -14.4941    1.5135  -15.1352 C   0  0  0  0  0  0  0  0  0  0  0  0
  -13.9678    0.5708  -16.0523 C   0  0  0  0  0  0  0  0  0  0  0  0
  -14.2552    0.5684  -17.4454 C   0  0  0  0  0  0  0  0  0  0  0  0
  -13.6984   -0.3758  -18.3113 C   0  0  0  0  0  0  0  0  0  0  0  0
  -12.8472   -1.3478  -17.8145 C   0  0  0  0  0  0  0  0  0  0  0  0
  -12.5628   -1.3909  -16.4500 C   0  0  0  0  0  0  0  0  0  0  0  0
  -13.1171   -0.4491  -15.5490 C   0  0  0  0  0  0  0  0  0  0  0  0
  -12.2281   -1.6569  -13.4517 C   0  0  0  0  0  0  0  0  0  0  0  0
  -14.8973   -4.5808  -11.6784 C   0  0  0  0  0  0  0  0  0  0  0  0
  -13.6526   -4.3370  -11.0987 C   0  0  0  0  0  0  0  0  0  0  0  0
  -12.7708   -3.4085  -11.6697 C   0  0  0  0  0  0  0  0  0  0  0  0
  -13.1133   -2.7196  -12.8393 C   0  0  0  0  0  0  0  0  0  0  0  0
  -14.3837   -2.9436  -13.3925 C   0  0  0  0  0  0  0  0  0  0  0  0
  -15.2623   -3.8676  -12.8196 C   0  0  0  0  0  0  0  0  0  0  0  0
  -17.0176   -5.5969  -12.0093 C   0  0  0  0  0  0  0  0  0  0  0  0
  -15.8344   -5.4706  -11.2297 O   0  0  0  0  0  0  0  0  0  0  0  0
  -16.8387    2.4274  -15.4277 C   0  0  0  0  0  0  0  0  0  0  0  0
  -17.6037    3.5890  -15.5020 C   0  0  0  0  0  0  0  0  0  0  0  0
  -18.9930    3.5504  -15.3148 C   0  0  0  0  0  0  0  0  0  0  0  0
  -19.6702    2.3481  -15.0712 C   0  0  0  0  0  0  0  0  0  0  0  0
  -18.9254    1.1733  -15.1005 C   0  0  0  0  0  0  0  0  0  0  0  0
  -17.5341    1.2160  -15.3042 C   0  0  0  0  0  0  0  0  0  0  0  0
  -21.0598    2.2716  -14.7821 N   0  0  0  0  0  0  0  0  0  0  0  0
  -21.6814    1.2353  -14.1121 C   0  0  0  0  0  0  0  0  0  0  0  0
  -21.0950    0.2837  -13.6017 O   0  0  0  0  0  0  0  0  0  0  0  0
  -23.0700    1.3427  -14.0979 N   0  0  0  0  0  0  0  0  0  0  0  0
  -21.6301    3.0621  -15.0428 H   0  0  0  0  0  0  0  0  0  0  0  0
  -23.4690    1.7094  -14.9501 H   0  0  0  0  0  0  0  0  0  0  0  0
  -23.8094    0.3162  -13.4508 C   0  0  0  0  0  0  0  0  0  0  0  0
  -24.2736   -0.7878  -14.1757 C   0  0  0  0  0  0  0  0  0  0  0  0
  -25.1187   -1.7303  -13.5844 C   0  0  0  0  0  0  0  0  0  0  0  0
  -25.5154   -1.5739  -12.2590 C   0  0  0  0  0  0  0  0  0  0  0  0
  -25.0207   -0.4900  -11.5240 C   0  0  0  0  0  0  0  0  0  0  0  0
  -24.1501    0.4422  -12.1058 C   0  0  0  0  0  0  0  0  0  0  0  0
  -26.3803   -2.3913  -11.5832 O   0  0  0  0  0  0  0  0  0  0  0  0
  -26.8407   -1.9279  -10.3172 C   0  0  0  0  0  0  0  0  0  0  0  0
 20 21  1  0  0  0
 21 14  1  0  0  0
 14 15  1  0  0  0
 14 19  2  0  0  0
 15 16  2  0  0  0
 16 17  1  0  0  0
 17 13  1  0  0  0
 17 18  2  0  0  0
 13  3  1  0  0  0
  3  4  1  0  0  0
  3 12  2  0  0  0
  4  5  2  0  0  0
  5  6  1  0  0  0
  6  1  1  0  0  0
  6  7  2  0  0  0
  1 22  1  0  0  0
  1  2  1  0  0  0
 22 23  1  0  0  0
 22 27  2  0  0  0
 23 24  2  0  0  0
 24 25  1  0  0  0
 25 28  1  0  0  0
 25 26  2  0  0  0
 28 29  1  0  0  0
 28 32  1  0  0  0
 29 30  2  0  0  0
 29 31  1  0  0  0
 31 34  1  0  0  0
 31 33  1  0  0  0
 34 35  1  0  0  0
 34 39  2  0  0  0
 35 36  2  0  0  0
 36 37  1  0  0  0
 37 40  1  0  0  0
 37 38  2  0  0  0
 40 41  1  0  0  0
 38 39  1  0  0  0
 26 27  1  0  0  0
  7  8  1  0  0  0
  7 12  1  0  0  0
  8  9  2  0  0  0
  9 10  1  0  0  0
 10 11  2  0  0  0
 11 12  1  0  0  0
 18 19  1  0  0  0
M  END
> <minimizedAffinity>
-9.45722

$$$$
