CHEMBL4439297


 35 38  0  0  0  0  0  0  0  0999 V2000
  -23.5773   -0.5527  -13.1508 C   0  0  0  0  0  0  0  0  0  0  0  0
  -24.5123   -1.1445  -13.9879 C   0  0  0  0  0  0  0  0  0  0  0  0
  -25.7024   -1.6383  -13.4759 C   0  0  0  0  0  0  0  0  0  0  0  0
  -25.9682   -1.5436  -12.1074 C   0  0  0  0  0  0  0  0  0  0  0  0
  -25.0029   -1.0397  -11.2415 C   0  0  0  0  0  0  0  0  0  0  0  0
  -23.8130   -0.5342  -11.7599 C   0  0  0  0  0  0  0  0  0  0  0  0
  -22.2247    1.3615  -13.9546 C   0  0  0  0  0  0  0  0  0  0  0  0
  -23.0968    2.2239  -13.8728 O   0  0  0  0  0  0  0  0  0  0  0  0
  -22.3806    0.0324  -13.6068 N   0  0  0  0  0  0  0  0  0  0  0  0
  -21.5666   -0.5628  -13.6308 H   0  0  0  0  0  0  0  0  0  0  0  0
  -18.3282    2.4221  -15.3783 C   0  0  0  0  0  0  0  0  0  0  0  0
  -19.2119    3.4336  -14.9966 C   0  0  0  0  0  0  0  0  0  0  0  0
  -20.4928    3.1182  -14.5275 C   0  0  0  0  0  0  0  0  0  0  0  0
  -20.8927    1.7815  -14.4314 C   0  0  0  0  0  0  0  0  0  0  0  0
  -20.0127    0.7672  -14.8249 C   0  0  0  0  0  0  0  0  0  0  0  0
  -18.7413    1.0869  -15.2907 C   0  0  0  0  0  0  0  0  0  0  0  0
  -16.6018    3.9245  -16.0014 C   0  0  0  0  0  0  0  0  0  0  0  0
  -17.0655    2.5891  -15.8628 O   0  0  0  0  0  0  0  0  0  0  0  0
  -27.2764   -2.0288  -11.6200 C   0  0  0  0  0  0  0  0  0  0  0  0
  -28.2375   -2.0851  -12.4030 O   0  0  0  0  0  0  0  0  0  0  0  0
  -27.3201   -2.3358  -10.2365 N   0  0  0  0  0  0  0  0  0  0  0  0
  -26.6473   -1.8582   -9.6451 H   0  0  0  0  0  0  0  0  0  0  0  0
  -28.5565   -2.4688   -9.6536 N   0  0  0  0  0  0  0  0  0  0  0  0
  -28.5680   -2.3211   -8.3640 C   0  0  0  0  0  0  0  0  0  0  0  0
  -27.6357   -1.4983   -7.4593 C   0  0  0  0  0  0  0  0  0  0  0  0
  -27.0332   -0.4951   -7.7749 O   0  0  0  0  0  0  0  0  0  0  0  0
  -27.6708   -2.1394   -6.2363 N   0  0  0  0  0  0  0  0  0  0  0  0
  -28.3774   -3.3348   -6.3556 C   0  0  0  0  0  0  0  0  0  0  0  0
  -28.1534   -4.5040   -5.6579 C   0  0  0  0  0  0  0  0  0  0  0  0
  -28.7713   -5.6658   -6.1478 C   0  0  0  0  0  0  0  0  0  0  0  0
  -29.6539   -5.6142   -7.2430 C   0  0  0  0  0  0  0  0  0  0  0  0
  -30.1981   -6.7490   -7.7004 F   0  0  0  0  0  0  0  0  0  0  0  0
  -29.8771   -4.4390   -7.9404 C   0  0  0  0  0  0  0  0  0  0  0  0
  -29.1676   -3.3389   -7.5066 C   0  0  0  0  0  0  0  0  0  0  0  0
  -27.1543   -1.8209   -5.4302 H   0  0  0  0  0  0  0  0  0  0  0  0
 17 18  1  0  0  0
 18 11  1  0  0  0
 11 12  1  0  0  0
 11 16  2  0  0  0
 12 13  2  0  0  0
 13 14  1  0  0  0
 14  7  1  0  0  0
 14 15  2  0  0  0
  7  8  2  0  0  0
  7  9  1  0  0  0
  9  1  1  0  0  0
  9 10  1  0  0  0
  1  2  1  0  0  0
  1  6  2  0  0  0
  2  3  2  0  0  0
  3  4  1  0  0  0
  4 19  1  0  0  0
  4  5  2  0  0  0
 19 20  2  0  0  0
 19 21  1  0  0  0
 21 23  1  0  0  0
 21 22  1  0  0  0
 23 24  2  0  0  0
 24 25  1  0  0  0
 24 34  1  0  0  0
 25 26  2  0  0  0
 25 27  1  0  0  0
 27 28  1  0  0  0
 27 35  1  0  0  0
 28 29  1  0  0  0
 28 34  2  0  0  0
 29 30  2  0  0  0
 30 31  1  0  0  0
 31 32  1  0  0  0
 31 33  2  0  0  0
 33 34  1  0  0  0
  5  6  1  0  0  0
 15 16  1  0  0  0
M  END
> <minimizedAffinity>
-10.67935

$$$$
