CHEMBL4786529


 35 40  0  0  0  0  0  0  0  0999 V2000
  -18.0758    2.5801  -15.4415 C   0  0  0  0  0  0  0  0  0  0  0  0
  -18.5036    3.8901  -15.3211 C   0  0  0  0  0  0  0  0  0  0  0  0
  -19.8231    3.9507  -14.9563 N   0  0  0  0  0  0  0  0  0  0  0  0
  -20.2106    2.6967  -14.8723 C   0  0  0  0  0  0  0  0  0  0  0  0
  -21.3907    2.1134  -14.3517 C   0  0  0  0  0  0  0  0  0  0  0  0
  -21.5887    0.7793  -14.4396 C   0  0  0  0  0  0  0  0  0  0  0  0
  -20.6285   -0.0755  -15.1324 C   0  0  0  0  0  0  0  0  0  0  0  0
  -19.4656    0.4605  -15.5366 C   0  0  0  0  0  0  0  0  0  0  0  0
  -19.2382    1.8283  -15.3445 N   0  0  0  0  0  0  0  0  0  0  0  0
  -15.1009   -0.3069  -12.8155 C   0  0  0  0  0  0  0  0  0  0  0  0
  -15.3155    0.6251  -13.9689 C   0  0  0  0  0  0  0  0  0  0  0  0
  -16.5932    0.9337  -14.3924 C   0  0  0  0  0  0  0  0  0  0  0  0
  -16.7518    1.9699  -15.3096 C   0  0  0  0  0  0  0  0  0  0  0  0
  -15.6134    2.5972  -15.8902 C   0  0  0  0  0  0  0  0  0  0  0  0
  -15.6768    3.6084  -16.8920 C   0  0  0  0  0  0  0  0  0  0  0  0
  -14.5281    4.2125  -17.3697 C   0  0  0  0  0  0  0  0  0  0  0  0
  -14.6220    5.1460  -18.3326 F   0  0  0  0  0  0  0  0  0  0  0  0
  -13.2919    3.8748  -16.8675 C   0  0  0  0  0  0  0  0  0  0  0  0
  -13.2257    2.8854  -15.8867 C   0  0  0  0  0  0  0  0  0  0  0  0
  -12.0110    2.5980  -15.3891 F   0  0  0  0  0  0  0  0  0  0  0  0
  -14.3528    2.2116  -15.3982 C   0  0  0  0  0  0  0  0  0  0  0  0
  -14.2218    1.2577  -14.4464 N   0  0  0  0  0  0  0  0  0  0  0  0
  -22.8132    0.2957  -13.8032 C   0  0  0  0  0  0  0  0  0  0  0  0
  -22.9664    0.4519  -12.4289 C   0  0  0  0  0  0  0  0  0  0  0  0
  -24.0233   -0.1777  -11.7743 C   0  0  0  0  0  0  0  0  0  0  0  0
  -24.9611   -0.9570  -12.4644 C   0  0  0  0  0  0  0  0  0  0  0  0
  -24.8069   -1.0666  -13.8548 C   0  0  0  0  0  0  0  0  0  0  0  0
  -23.7483   -0.4478  -14.5247 C   0  0  0  0  0  0  0  0  0  0  0  0
  -26.0087   -1.5520  -11.7972 N   0  0  0  0  0  0  0  0  0  0  0  0
  -27.2544   -1.9020  -12.4840 C   0  0  0  0  0  0  0  0  0  0  0  0
  -28.4520   -1.5037  -11.5929 C   0  0  0  0  0  0  0  0  0  0  0  0
  -28.4037   -2.0985  -10.2385 N   0  0  0  0  0  0  0  0  0  0  0  0
  -27.1251   -1.7141   -9.5980 C   0  0  0  0  0  0  0  0  0  0  0  0
  -25.8723   -2.0738  -10.4299 C   0  0  0  0  0  0  0  0  0  0  0  0
  -28.4064   -3.1127  -10.3454 H   0  0  0  0  0  0  0  0  0  0  0  0
 10 11  1  0  0  0
 11 12  1  0  0  0
 11 22  2  0  0  0
 12 13  2  0  0  0
 13  1  1  0  0  0
 13 14  1  0  0  0
  1  2  2  0  0  0
  1  9  1  0  0  0
  2  3  1  0  0  0
  3  4  2  0  0  0
  4  5  1  0  0  0
  4  9  1  0  0  0
  5  6  2  0  0  0
  6 23  1  0  0  0
  6  7  1  0  0  0
 23 24  1  0  0  0
 23 28  2  0  0  0
 24 25  2  0  0  0
 25 26  1  0  0  0
 26 29  1  0  0  0
 26 27  2  0  0  0
 29 30  1  0  0  0
 29 34  1  0  0  0
 30 31  1  0  0  0
 31 32  1  0  0  0
 32 33  1  0  0  0
 32 35  1  0  0  0
 33 34  1  0  0  0
 27 28  1  0  0  0
  7  8  2  0  0  0
  8  9  1  0  0  0
 14 15  1  0  0  0
 14 21  2  0  0  0
 15 16  2  0  0  0
 16 17  1  0  0  0
 16 18  1  0  0  0
 18 19  2  0  0  0
 19 20  1  0  0  0
 19 21  1  0  0  0
 21 22  1  0  0  0
M  END
> <minimizedAffinity>
-10.11004

$$$$
