CHEMBL1094492


 40 44  0  0  0  0  0  0  0  0999 V2000
  -29.1272   -4.0254   -7.0919 N   0  0  0  0  0  0  0  0  0  0  0  0
  -28.9886   -3.4934   -5.8324 C   0  0  0  0  0  0  0  0  0  0  0  0
  -28.7046   -4.4888   -4.9303 C   0  0  0  0  0  0  0  0  0  0  0  0
  -28.7024   -5.6439   -5.6166 C   0  0  0  0  0  0  0  0  0  0  0  0
  -28.3865   -6.8865   -5.1353 C   0  0  0  0  0  0  0  0  0  0  0  0
  -28.3974   -7.9624   -6.0039 C   0  0  0  0  0  0  0  0  0  0  0  0
  -28.8498   -7.7688   -7.3420 C   0  0  0  0  0  0  0  0  0  0  0  0
  -29.1539   -6.4735   -7.8143 C   0  0  0  0  0  0  0  0  0  0  0  0
  -29.0234   -5.3872   -6.9177 C   0  0  0  0  0  0  0  0  0  0  0  0
  -28.3897   -4.3242   -3.4877 C   0  0  0  0  0  0  0  0  0  0  0  0
  -29.0183   -3.0388   -2.9581 C   0  0  0  0  0  0  0  0  0  0  0  0
  -30.4544   -3.2490   -2.7747 N   0  0  0  0  0  0  0  0  0  0  0  0
  -28.7081   -1.8408   -3.8987 C   0  0  0  0  0  0  0  0  0  0  0  0
  -29.1302   -2.0466   -5.3905 C   0  0  0  0  0  0  0  0  0  0  0  0
  -30.8707   -2.4318   -2.2782 H   0  0  0  0  0  0  0  0  0  0  0  0
  -30.9388   -3.4177   -3.6841 H   0  0  0  0  0  0  0  0  0  0  0  0
  -29.0507   -3.2064   -8.3248 C   0  0  0  0  0  0  0  0  0  0  0  0
  -27.6924   -2.6179   -8.7504 C   0  0  0  0  0  0  0  0  0  0  0  0
  -27.7666   -1.8338  -10.0574 C   0  0  0  0  0  0  0  0  0  0  0  0
  -26.3590   -1.6121  -10.6141 C   0  0  0  0  0  0  0  0  0  0  0  0
  -26.3476   -1.7367  -12.1255 C   0  0  0  0  0  0  0  0  0  0  0  0
  -22.6731   -0.1717  -13.7515 C   0  0  0  0  0  0  0  0  0  0  0  0
  -22.8472   -0.2801  -12.3570 C   0  0  0  0  0  0  0  0  0  0  0  0
  -24.0399   -0.7714  -11.8337 C   0  0  0  0  0  0  0  0  0  0  0  0
  -25.0785   -1.1641  -12.6903 C   0  0  0  0  0  0  0  0  0  0  0  0
  -24.9209   -1.0286  -14.0762 C   0  0  0  0  0  0  0  0  0  0  0  0
  -23.7252   -0.5344  -14.6018 C   0  0  0  0  0  0  0  0  0  0  0  0
  -21.1058    1.5701  -14.3675 C   0  0  0  0  0  0  0  0  0  0  0  0
  -21.5095    0.2528  -14.3043 O   0  0  0  0  0  0  0  0  0  0  0  0
  -27.9346   -9.1157   -5.5029 O   0  0  0  0  0  0  0  0  0  0  0  0
  -28.3597  -10.3863   -5.8205 C   0  0  0  0  0  0  0  0  0  0  0  0
  -27.4447  -11.0781   -6.8619 C   0  0  0  0  0  0  0  0  0  0  0  0
  -27.7414  -10.8282   -8.3380 C   0  0  0  0  0  0  0  0  0  0  0  0
  -29.0481  -11.0424   -8.8194 C   0  0  0  0  0  0  0  0  0  0  0  0
  -29.3804  -10.7603  -10.1465 C   0  0  0  0  0  0  0  0  0  0  0  0
  -28.4161  -10.2491  -11.0232 C   0  0  0  0  0  0  0  0  0  0  0  0
  -28.7353   -9.9507  -12.3007 O   0  0  0  0  0  0  0  0  0  0  0  0
  -27.1116  -10.0364  -10.5643 C   0  0  0  0  0  0  0  0  0  0  0  0
  -26.7724  -10.3237   -9.2315 C   0  0  0  0  0  0  0  0  0  0  0  0
  -29.6337  -10.0624  -12.6459 H   0  0  0  0  0  0  0  0  0  0  0  0
 28 29  1  0  0  0
 29 22  1  0  0  0
 22 23  1  0  0  0
 22 27  2  0  0  0
 23 24  2  0  0  0
 24 25  1  0  0  0
 25 21  1  0  0  0
 25 26  2  0  0  0
 21 20  1  0  0  0
 20 19  1  0  0  0
 19 18  1  0  0  0
 18 17  1  0  0  0
 17  1  1  0  0  0
  1  2  1  0  0  0
  1  9  1  0  0  0
  2  3  2  0  0  0
  2 14  1  0  0  0
  3  4  1  0  0  0
  3 10  1  0  0  0
  4  5  1  0  0  0
  4  9  2  0  0  0
  5  6  2  0  0  0
  6 30  1  0  0  0
  6  7  1  0  0  0
 30 31  1  0  0  0
 31 32  1  0  0  0
 32 33  1  0  0  0
 33 34  1  0  0  0
 33 39  2  0  0  0
 34 35  2  0  0  0
 35 36  1  0  0  0
 36 37  1  0  0  0
 36 38  2  0  0  0
 37 40  1  0  0  0
 38 39  1  0  0  0
  7  8  2  0  0  0
  8  9  1  0  0  0
 10 11  1  0  0  0
 11 12  1  0  0  0
 11 13  1  0  0  0
 12 15  1  0  0  0
 12 16  1  0  0  0
 13 14  1  0  0  0
 26 27  1  0  0  0
M  END
> <minimizedAffinity>
-10.07958

$$$$
