CHEMBL390353


 37 42  0  0  0  0  0  0  0  0999 V2000
  -21.7080    1.7121  -14.3580 C   0  0  0  0  0  0  0  0  0  0  0  0
  -21.6107    3.0816  -14.7217 C   0  0  0  0  0  0  0  0  0  0  0  0
  -20.3894    3.6698  -15.0794 C   0  0  0  0  0  0  0  0  0  0  0  0
  -19.2781    2.8621  -15.0706 C   0  0  0  0  0  0  0  0  0  0  0  0
  -19.3514    1.4848  -14.7372 C   0  0  0  0  0  0  0  0  0  0  0  0
  -20.5603    0.9062  -14.3980 C   0  0  0  0  0  0  0  0  0  0  0  0
  -17.9976    0.7625  -14.7937 C   0  0  0  0  0  0  0  0  0  0  0  0
  -17.1843    1.9324  -15.2106 C   0  0  0  0  0  0  0  0  0  0  0  0
  -15.8762    2.2735  -15.5588 C   0  0  0  0  0  0  0  0  0  0  0  0
  -15.7906    3.5715  -15.9148 N   0  0  0  0  0  0  0  0  0  0  0  0
  -17.0577    4.0485  -15.7634 N   0  0  0  0  0  0  0  0  0  0  0  0
  -17.9050    3.0844  -15.3586 C   0  0  0  0  0  0  0  0  0  0  0  0
  -17.2405    5.0249  -15.9688 H   0  0  0  0  0  0  0  0  0  0  0  0
  -14.7525    1.3338  -15.5761 C   0  0  0  0  0  0  0  0  0  0  0  0
  -13.8170    1.2181  -16.5837 C   0  0  0  0  0  0  0  0  0  0  0  0
  -12.6233    0.0482  -16.2292 S   0  0  0  0  0  0  0  0  0  0  0  0
  -13.3530   -0.3216  -14.7310 C   0  0  0  0  0  0  0  0  0  0  0  0
  -14.4909    0.4230  -14.5082 C   0  0  0  0  0  0  0  0  0  0  0  0
  -12.8172   -1.2907  -13.8391 C   0  0  0  0  0  0  0  0  0  0  0  0
  -12.3511   -2.1758  -13.0028 C   0  0  0  0  0  0  0  0  0  0  0  0
  -11.8078   -3.2076  -12.0279 C   0  0  0  0  0  0  0  0  0  0  0  0
  -12.6623   -3.3208  -10.8970 O   0  0  0  0  0  0  0  0  0  0  0  0
  -13.9183   -3.8054  -11.1564 C   0  0  0  0  0  0  0  0  0  0  0  0
  -15.1126   -3.0856  -11.0537 C   0  0  0  0  0  0  0  0  0  0  0  0
  -16.3338   -3.6995  -11.3416 C   0  0  0  0  0  0  0  0  0  0  0  0
  -16.3687   -5.0371  -11.7357 C   0  0  0  0  0  0  0  0  0  0  0  0
  -15.1837   -5.7578  -11.8442 C   0  0  0  0  0  0  0  0  0  0  0  0
  -13.9627   -5.1446  -11.5550 C   0  0  0  0  0  0  0  0  0  0  0  0
  -23.0626    1.1444  -13.9686 C   0  0  0  0  0  0  0  0  0  0  0  0
  -23.0300    0.2276  -12.7260 C   0  0  0  0  0  0  0  0  0  0  0  0
  -27.3362   -1.5227  -11.3536 C   0  0  0  0  0  0  0  0  0  0  0  0
  -26.0538   -1.8459  -11.9671 N   0  0  0  0  0  0  0  0  0  0  0  0
  -25.8449   -1.0794  -13.2071 C   0  0  0  0  0  0  0  0  0  0  0  0
  -24.4844   -1.4250  -13.8523 C   0  0  0  0  0  0  0  0  0  0  0  0
  -23.3148   -1.1956  -12.9790 N   0  0  0  0  0  0  0  0  0  0  0  0
  -23.5585   -1.9048  -11.6958 C   0  0  0  0  0  0  0  0  0  0  0  0
  -24.9341   -1.6180  -11.0369 C   0  0  0  0  0  0  0  0  0  0  0  0
 31 32  1  0  0  0
 32 33  1  0  0  0
 32 37  1  0  0  0
 33 34  1  0  0  0
 34 35  1  0  0  0
 35 30  1  0  0  0
 35 36  1  0  0  0
 30 29  1  0  0  0
 29  1  1  0  0  0
  1  2  1  0  0  0
  1  6  2  0  0  0
  2  3  2  0  0  0
  3  4  1  0  0  0
  4  5  2  0  0  0
  4 12  1  0  0  0
  5  6  1  0  0  0
  5  7  1  0  0  0
  7  8  1  0  0  0
  8  9  1  0  0  0
  8 12  2  0  0  0
  9 14  1  0  0  0
  9 10  2  0  0  0
 14 15  2  0  0  0
 14 18  1  0  0  0
 15 16  1  0  0  0
 16 17  1  0  0  0
 17 19  1  0  0  0
 17 18  2  0  0  0
 19 20  3  0  0  0
 20 21  1  0  0  0
 21 22  1  0  0  0
 22 23  1  0  0  0
 23 24  1  0  0  0
 23 28  2  0  0  0
 24 25  2  0  0  0
 25 26  1  0  0  0
 26 27  2  0  0  0
 27 28  1  0  0  0
 10 11  1  0  0  0
 11 12  1  0  0  0
 11 13  1  0  0  0
 36 37  1  0  0  0
M  END
> <minimizedAffinity>
-10.55558

$$$$
