CHEMBL3977907


 32 35  0  0  0  0  0  0  0  0999 V2000
  -22.8541   -0.5441  -13.3815 O   0  0  0  0  0  0  0  0  0  0  0  0
  -26.5217   -1.7897  -10.8145 C   0  0  0  0  0  0  0  0  0  0  0  0
  -27.1818   -1.9445  -12.0162 C   0  0  0  0  0  0  0  0  0  0  0  0
  -26.3782   -1.6001  -13.1393 C   0  0  0  0  0  0  0  0  0  0  0  0
  -26.7953   -1.6399  -14.4323 N   0  0  0  0  0  0  0  0  0  0  0  0
  -25.9001   -1.2305  -15.3466 C   0  0  0  0  0  0  0  0  0  0  0  0
  -24.6135   -0.8111  -15.0670 C   0  0  0  0  0  0  0  0  0  0  0  0
  -24.1523   -0.8605  -13.7481 C   0  0  0  0  0  0  0  0  0  0  0  0
  -25.0899   -1.2173  -12.7659 C   0  0  0  0  0  0  0  0  0  0  0  0
  -24.9057   -1.2772  -11.0607 S   0  0  0  0  0  0  0  0  0  0  0  0
  -27.5090   -3.3007   -9.2357 N   0  0  0  0  0  0  0  0  0  0  0  0
  -27.0668   -2.0173   -9.4839 C   0  0  0  0  0  0  0  0  0  0  0  0
  -27.1245   -1.1374   -8.6313 O   0  0  0  0  0  0  0  0  0  0  0  0
  -27.3729   -3.9962   -9.9592 H   0  0  0  0  0  0  0  0  0  0  0  0
  -29.5120   -3.9061   -7.9631 C   0  0  0  0  0  0  0  0  0  0  0  0
  -28.0054   -3.7227   -7.9466 C   0  0  0  0  0  0  0  0  0  0  0  0
  -22.3073    0.6368  -13.8489 C   0  0  0  0  0  0  0  0  0  0  0  0
  -22.9289    1.8777  -13.6807 C   0  0  0  0  0  0  0  0  0  0  0  0
  -22.2572    3.0398  -14.0217 C   0  0  0  0  0  0  0  0  0  0  0  0
  -20.9936    2.9587  -14.5990 C   0  0  0  0  0  0  0  0  0  0  0  0
  -20.3893    1.7239  -14.8659 C   0  0  0  0  0  0  0  0  0  0  0  0
  -21.0714    0.5521  -14.5121 C   0  0  0  0  0  0  0  0  0  0  0  0
  -19.1173    1.6343  -15.4872 N   0  0  0  0  0  0  0  0  0  0  0  0
  -17.9045    1.7173  -14.8068 C   0  0  0  0  0  0  0  0  0  0  0  0
  -17.8137    1.7140  -13.5846 O   0  0  0  0  0  0  0  0  0  0  0  0
  -19.0667    1.4325  -16.4775 H   0  0  0  0  0  0  0  0  0  0  0  0
  -16.7157    1.7944  -15.6341 C   0  0  0  0  0  0  0  0  0  0  0  0
  -16.0339    0.6673  -16.0021 O   0  0  0  0  0  0  0  0  0  0  0  0
  -14.9997    1.0716  -16.7866 C   0  0  0  0  0  0  0  0  0  0  0  0
  -15.0048    2.4401  -16.9350 C   0  0  0  0  0  0  0  0  0  0  0  0
  -16.1043    2.9195  -16.1763 C   0  0  0  0  0  0  0  0  0  0  0  0
  -16.5422    4.3295  -16.0032 C   0  0  0  0  0  0  0  0  0  0  0  0
 15 16  1  0  0  0
 16 11  1  0  0  0
 11 12  1  0  0  0
 11 14  1  0  0  0
 12 13  2  0  0  0
 12  2  1  0  0  0
  2  3  2  0  0  0
  2 10  1  0  0  0
  3  4  1  0  0  0
  4  5  1  0  0  0
  4  9  2  0  0  0
  5  6  2  0  0  0
  6  7  1  0  0  0
  7  8  2  0  0  0
  8  1  1  0  0  0
  8  9  1  0  0  0
  1 17  1  0  0  0
 17 18  1  0  0  0
 17 22  2  0  0  0
 18 19  2  0  0  0
 19 20  1  0  0  0
 20 21  2  0  0  0
 21 23  1  0  0  0
 21 22  1  0  0  0
 23 24  1  0  0  0
 23 26  1  0  0  0
 24 25  2  0  0  0
 24 27  1  0  0  0
 27 28  1  0  0  0
 27 31  2  0  0  0
 28 29  1  0  0  0
 29 30  2  0  0  0
 30 31  1  0  0  0
 31 32  1  0  0  0
  9 10  1  0  0  0
M  END
> <minimizedAffinity>
-9.74593

$$$$
