CHEMBL495763


 33 37  0  0  0  0  0  0  0  0999 V2000
  -27.8698   -2.5350   -8.4208 C   0  0  0  0  0  0  0  0  0  0  0  0
  -26.6485   -2.0133   -8.5311 N   0  0  0  0  0  0  0  0  0  0  0  0
  -26.4821   -1.6910   -9.8861 C   0  0  0  0  0  0  0  0  0  0  0  0
  -25.4181   -1.1133  -10.6157 C   0  0  0  0  0  0  0  0  0  0  0  0
  -25.5647   -0.8531  -12.0072 C   0  0  0  0  0  0  0  0  0  0  0  0
  -26.7940   -1.1431  -12.6196 C   0  0  0  0  0  0  0  0  0  0  0  0
  -27.8417   -1.7515  -11.9360 C   0  0  0  0  0  0  0  0  0  0  0  0
  -27.6231   -2.0191  -10.5931 C   0  0  0  0  0  0  0  0  0  0  0  0
  -28.4150   -2.6393   -9.6820 N   0  0  0  0  0  0  0  0  0  0  0  0
  -29.3193   -3.0444   -9.8847 H   0  0  0  0  0  0  0  0  0  0  0  0
  -29.9727   -7.2172   -6.1756 C   0  0  0  0  0  0  0  0  0  0  0  0
  -30.4051   -5.9258   -5.5336 C   0  0  0  0  0  0  0  0  0  0  0  0
  -31.3045   -6.0742   -4.4418 C   0  0  0  0  0  0  0  0  0  0  0  0
  -31.7289   -4.9894   -3.6830 C   0  0  0  0  0  0  0  0  0  0  0  0
  -31.2477   -3.7374   -3.9965 C   0  0  0  0  0  0  0  0  0  0  0  0
  -30.3859   -3.5716   -5.0865 C   0  0  0  0  0  0  0  0  0  0  0  0
  -29.9484   -2.2796   -5.3093 N   0  0  0  0  0  0  0  0  0  0  0  0
  -29.1440   -1.9151   -6.3249 C   0  0  0  0  0  0  0  0  0  0  0  0
  -28.8019   -0.7330   -6.3923 O   0  0  0  0  0  0  0  0  0  0  0  0
  -28.7098   -2.9636   -7.3184 C   0  0  0  0  0  0  0  0  0  0  0  0
  -29.0841   -4.2597   -7.1184 C   0  0  0  0  0  0  0  0  0  0  0  0
  -28.7543   -5.2838   -8.0066 N   0  0  0  0  0  0  0  0  0  0  0  0
  -29.9521   -4.6318   -5.9168 C   0  0  0  0  0  0  0  0  0  0  0  0
  -30.2176   -1.5305   -4.6856 H   0  0  0  0  0  0  0  0  0  0  0  0
  -28.1643   -4.9320   -8.7726 H   0  0  0  0  0  0  0  0  0  0  0  0
  -28.2494   -6.0328   -7.5442 H   0  0  0  0  0  0  0  0  0  0  0  0
  -24.4742   -0.3747  -12.7523 N   0  0  0  0  0  0  0  0  0  0  0  0
  -23.9717    0.9819  -12.4347 C   0  0  0  0  0  0  0  0  0  0  0  0
  -23.0572    1.4745  -13.5740 C   0  0  0  0  0  0  0  0  0  0  0  0
  -21.9109    0.5701  -13.8115 N   0  0  0  0  0  0  0  0  0  0  0  0
  -21.1415    1.0379  -14.9673 C   0  0  0  0  0  0  0  0  0  0  0  0
  -22.4026   -0.8142  -14.0308 C   0  0  0  0  0  0  0  0  0  0  0  0
  -23.3554   -1.3270  -12.9156 C   0  0  0  0  0  0  0  0  0  0  0  0
 11 12  1  0  0  0
 12 13  1  0  0  0
 12 23  2  0  0  0
 13 14  2  0  0  0
 14 15  1  0  0  0
 15 16  2  0  0  0
 16 17  1  0  0  0
 16 23  1  0  0  0
 17 18  1  0  0  0
 17 24  1  0  0  0
 18 19  2  0  0  0
 18 20  1  0  0  0
 20  1  1  0  0  0
 20 21  2  0  0  0
  1  2  2  0  0  0
  1  9  1  0  0  0
  2  3  1  0  0  0
  3  4  1  0  0  0
  3  8  2  0  0  0
  4  5  2  0  0  0
  5 27  1  0  0  0
  5  6  1  0  0  0
 27 28  1  0  0  0
 27 33  1  0  0  0
 28 29  1  0  0  0
 29 30  1  0  0  0
 30 31  1  0  0  0
 30 32  1  0  0  0
 32 33  1  0  0  0
  6  7  2  0  0  0
  7  8  1  0  0  0
  8  9  1  0  0  0
  9 10  1  0  0  0
 21 22  1  0  0  0
 21 23  1  0  0  0
 22 25  1  0  0  0
 22 26  1  0  0  0
M  END
> <minimizedAffinity>
-9.56106

$$$$
