CHEMBL475051


 35 38  0  0  0  0  0  0  0  0999 V2000
  -25.3297   -1.2188  -11.9725 C   0  0  0  0  0  0  0  0  0  0  0  0
  -25.6285   -1.9075  -13.1515 C   0  0  0  0  0  0  0  0  0  0  0  0
  -25.0437   -1.5453  -14.3649 C   0  0  0  0  0  0  0  0  0  0  0  0
  -24.1492   -0.4824  -14.4137 C   0  0  0  0  0  0  0  0  0  0  0  0
  -23.8687    0.2576  -13.2585 C   0  0  0  0  0  0  0  0  0  0  0  0
  -24.4719   -0.1154  -12.0435 C   0  0  0  0  0  0  0  0  0  0  0  0
  -27.2001   -1.6256  -10.3948 C   0  0  0  0  0  0  0  0  0  0  0  0
  -28.1252   -1.4098  -11.1784 O   0  0  0  0  0  0  0  0  0  0  0  0
  -25.8510   -1.5895  -10.7069 N   0  0  0  0  0  0  0  0  0  0  0  0
  -25.1753   -1.8831  -10.0146 H   0  0  0  0  0  0  0  0  0  0  0  0
  -28.4049   -2.3507   -6.3396 C   0  0  0  0  0  0  0  0  0  0  0  0
  -28.3959   -3.4230   -7.2446 C   0  0  0  0  0  0  0  0  0  0  0  0
  -27.9959   -3.2292   -8.5761 C   0  0  0  0  0  0  0  0  0  0  0  0
  -27.5886   -1.9588   -8.9976 C   0  0  0  0  0  0  0  0  0  0  0  0
  -27.5908   -0.8938   -8.0797 C   0  0  0  0  0  0  0  0  0  0  0  0
  -27.9884   -1.0850   -6.7577 C   0  0  0  0  0  0  0  0  0  0  0  0
  -29.2267   -1.6603   -4.2317 O   0  0  0  0  0  0  0  0  0  0  0  0
  -28.8235   -2.5820   -4.9348 C   0  0  0  0  0  0  0  0  0  0  0  0
  -28.7040   -3.8724   -4.4696 N   0  0  0  0  0  0  0  0  0  0  0  0
  -29.0108   -4.0590   -3.1018 O   0  0  0  0  0  0  0  0  0  0  0  0
  -28.0615   -4.5426   -4.8796 H   0  0  0  0  0  0  0  0  0  0  0  0
  -29.3441   -3.1728   -2.8401 H   0  0  0  0  0  0  0  0  0  0  0  0
  -22.9163    1.2952  -13.3345 N   0  0  0  0  0  0  0  0  0  0  0  0
  -23.3456    2.2112  -13.2677 H   0  0  0  0  0  0  0  0  0  0  0  0
  -21.7638    1.2085  -14.0397 C   0  0  0  0  0  0  0  0  0  0  0  0
  -21.3258    0.1350  -14.6577 N   0  0  0  0  0  0  0  0  0  0  0  0
  -20.0802    0.3664  -15.1959 C   0  0  0  0  0  0  0  0  0  0  0  0
  -19.5667    1.6385  -15.0245 C   0  0  0  0  0  0  0  0  0  0  0  0
  -20.7181    2.5721  -14.1522 S   0  0  0  0  0  0  0  0  0  0  0  0
  -18.2658    2.1808  -15.4250 C   0  0  0  0  0  0  0  0  0  0  0  0
  -17.1803    1.3273  -15.6606 C   0  0  0  0  0  0  0  0  0  0  0  0
  -15.9395    1.8493  -16.0229 C   0  0  0  0  0  0  0  0  0  0  0  0
  -15.8163    3.2212  -16.1483 C   0  0  0  0  0  0  0  0  0  0  0  0
  -16.8333    4.0828  -15.9445 N   0  0  0  0  0  0  0  0  0  0  0  0
  -18.0273    3.5449  -15.5896 C   0  0  0  0  0  0  0  0  0  0  0  0
 17 18  2  0  0  0
 18 19  1  0  0  0
 18 11  1  0  0  0
 19 20  1  0  0  0
 19 21  1  0  0  0
 20 22  1  0  0  0
 11 12  1  0  0  0
 11 16  2  0  0  0
 12 13  2  0  0  0
 13 14  1  0  0  0
 14  7  1  0  0  0
 14 15  2  0  0  0
  7  8  2  0  0  0
  7  9  1  0  0  0
  9  1  1  0  0  0
  9 10  1  0  0  0
  1  2  1  0  0  0
  1  6  2  0  0  0
  2  3  2  0  0  0
  3  4  1  0  0  0
  4  5  2  0  0  0
  5 23  1  0  0  0
  5  6  1  0  0  0
 23 25  1  0  0  0
 23 24  1  0  0  0
 25 26  2  0  0  0
 25 29  1  0  0  0
 26 27  1  0  0  0
 27 28  2  0  0  0
 28 30  1  0  0  0
 28 29  1  0  0  0
 30 31  1  0  0  0
 30 35  2  0  0  0
 31 32  2  0  0  0
 32 33  1  0  0  0
 33 34  2  0  0  0
 34 35  1  0  0  0
 15 16  1  0  0  0
M  END
> <minimizedAffinity>
-10.51154

$$$$
