CHEMBL363304


 39 41  0  0  0  0  0  0  0  0999 V2000
  -29.8960   -9.6139   -7.6818 C   0  0  0  0  0  0  0  0  0  0  0  0
  -30.5150   -8.2419   -7.9935 C   0  0  0  0  0  0  0  0  0  0  0  0
  -30.0933   -7.1334   -7.0824 C   0  0  0  0  0  0  0  0  0  0  0  0
  -30.5012   -5.8277   -7.3085 C   0  0  0  0  0  0  0  0  0  0  0  0
  -30.2190   -4.7903   -6.4901 N   0  0  0  0  0  0  0  0  0  0  0  0
  -29.4719   -5.0367   -5.3964 C   0  0  0  0  0  0  0  0  0  0  0  0
  -29.0176   -6.3155   -5.0975 C   0  0  0  0  0  0  0  0  0  0  0  0
  -29.3335   -7.3738   -5.9474 C   0  0  0  0  0  0  0  0  0  0  0  0
  -28.8861   -8.6500   -5.5929 N   0  0  0  0  0  0  0  0  0  0  0  0
  -29.1612   -9.6671   -6.3453 C   0  0  0  0  0  0  0  0  0  0  0  0
  -28.5742  -10.2693  -11.2156 C   0  0  0  0  0  0  0  0  0  0  0  0
  -27.2712  -10.7045  -10.9568 C   0  0  0  0  0  0  0  0  0  0  0  0
  -26.8127  -10.8036   -9.6412 C   0  0  0  0  0  0  0  0  0  0  0  0
  -27.6685  -10.4693   -8.5899 C   0  0  0  0  0  0  0  0  0  0  0  0
  -28.9790  -10.0313   -8.8288 C   0  0  0  0  0  0  0  0  0  0  0  0
  -29.4156   -9.9237  -10.1554 C   0  0  0  0  0  0  0  0  0  0  0  0
  -28.1951   -9.7648  -13.4952 C   0  0  0  0  0  0  0  0  0  0  0  0
  -29.1141  -10.0985  -12.4613 O   0  0  0  0  0  0  0  0  0  0  0  0
  -25.5624  -11.1832   -9.2481 O   0  0  0  0  0  0  0  0  0  0  0  0
  -25.4727  -11.9937   -8.0805 C   0  0  0  0  0  0  0  0  0  0  0  0
  -28.7051  -10.9286   -5.9898 N   0  0  0  0  0  0  0  0  0  0  0  0
  -27.6241  -11.2819   -5.2120 C   0  0  0  0  0  0  0  0  0  0  0  0
  -27.4218  -12.4656   -4.9554 O   0  0  0  0  0  0  0  0  0  0  0  0
  -26.7985  -10.2515   -4.8610 N   0  0  0  0  0  0  0  0  0  0  0  0
  -29.1449  -11.7401   -6.4018 H   0  0  0  0  0  0  0  0  0  0  0  0
  -27.2142   -9.3317   -4.9937 H   0  0  0  0  0  0  0  0  0  0  0  0
  -25.5557  -10.3521   -4.0986 C   0  0  0  0  0  0  0  0  0  0  0  0
  -24.4217  -10.9178   -4.9684 C   0  0  0  0  0  0  0  0  0  0  0  0
  -25.1540   -8.9319   -3.6534 C   0  0  0  0  0  0  0  0  0  0  0  0
  -25.7540  -11.2178   -2.8482 C   0  0  0  0  0  0  0  0  0  0  0  0
  -29.2320   -3.9812   -4.4933 N   0  0  0  0  0  0  0  0  0  0  0  0
  -30.1473   -3.5549   -3.5323 C   0  0  0  0  0  0  0  0  0  0  0  0
  -31.4684   -4.2655   -3.3426 C   0  0  0  0  0  0  0  0  0  0  0  0
  -29.8874   -2.6192   -2.7639 O   0  0  0  0  0  0  0  0  0  0  0  0
  -27.9060   -3.3658   -4.4052 C   0  0  0  0  0  0  0  0  0  0  0  0
  -27.4424   -2.2561   -5.3521 C   0  0  0  0  0  0  0  0  0  0  0  0
  -28.5245   -1.2977   -5.8292 C   0  0  0  0  0  0  0  0  0  0  0  0
  -28.9517   -0.4793   -4.7408 O   0  0  0  0  0  0  0  0  0  0  0  0
  -29.1573   -1.0632   -3.9907 H   0  0  0  0  0  0  0  0  0  0  0  0
 17 18  1  0  0  0
 18 11  1  0  0  0
 11 12  1  0  0  0
 11 16  2  0  0  0
 12 13  2  0  0  0
 13 19  1  0  0  0
 13 14  1  0  0  0
 19 20  1  0  0  0
 14 15  2  0  0  0
 15  1  1  0  0  0
 15 16  1  0  0  0
  1  2  1  0  0  0
  1 10  1  0  0  0
  2  3  1  0  0  0
  3  4  1  0  0  0
  3  8  2  0  0  0
  4  5  2  0  0  0
  5  6  1  0  0  0
  6 31  1  0  0  0
  6  7  2  0  0  0
 31 35  1  0  0  0
 31 32  1  0  0  0
 35 36  1  0  0  0
 36 37  1  0  0  0
 37 38  1  0  0  0
 38 39  1  0  0  0
 32 33  1  0  0  0
 32 34  2  0  0  0
  7  8  1  0  0  0
  8  9  1  0  0  0
  9 10  2  0  0  0
 10 21  1  0  0  0
 21 22  1  0  0  0
 21 25  1  0  0  0
 22 23  2  0  0  0
 22 24  1  0  0  0
 24 27  1  0  0  0
 24 26  1  0  0  0
 27 28  1  0  0  0
 27 29  1  0  0  0
 27 30  1  0  0  0
M  END
> <minimizedAffinity>
-7.71697

$$$$
