CHEMBL3787614


 34 39  0  0  0  0  0  0  0  0999 V2000
  -33.1186   -8.0461   -6.2612 N   0  0  0  0  0  0  0  0  0  0  0  0
  -32.2969   -8.7805   -7.1068 C   0  0  0  0  0  0  0  0  0  0  0  0
  -32.8125   -9.9430   -7.5480 N   0  0  0  0  0  0  0  0  0  0  0  0
  -32.0864  -10.6839   -8.4017 C   0  0  0  0  0  0  0  0  0  0  0  0
  -30.8768  -10.4129   -8.9076 N   0  0  0  0  0  0  0  0  0  0  0  0
  -30.3753   -9.2647   -8.4262 C   0  0  0  0  0  0  0  0  0  0  0  0
  -31.0084   -8.3956   -7.5287 C   0  0  0  0  0  0  0  0  0  0  0  0
  -30.1084   -7.2903   -7.3126 C   0  0  0  0  0  0  0  0  0  0  0  0
  -29.0067   -7.5122   -8.1185 C   0  0  0  0  0  0  0  0  0  0  0  0
  -29.1378   -8.7323   -8.7174 N   0  0  0  0  0  0  0  0  0  0  0  0
  -34.0631   -8.4121   -6.2585 H   0  0  0  0  0  0  0  0  0  0  0  0
  -33.0332   -7.0431   -6.3449 H   0  0  0  0  0  0  0  0  0  0  0  0
  -30.2312   -6.0875   -6.4966 C   0  0  0  0  0  0  0  0  0  0  0  0
  -30.6534   -6.1537   -5.1613 C   0  0  0  0  0  0  0  0  0  0  0  0
  -30.6958   -5.0042   -4.3714 C   0  0  0  0  0  0  0  0  0  0  0  0
  -30.2744   -3.7805   -4.8926 C   0  0  0  0  0  0  0  0  0  0  0  0
  -29.8658   -3.6961   -6.2217 C   0  0  0  0  0  0  0  0  0  0  0  0
  -29.9083   -4.8362   -7.0263 C   0  0  0  0  0  0  0  0  0  0  0  0
  -29.3836   -2.5842   -6.8541 O   0  0  0  0  0  0  0  0  0  0  0  0
  -27.9769   -2.3740   -6.7941 C   0  0  0  0  0  0  0  0  0  0  0  0
  -27.6950   -0.9583   -6.2950 C   0  0  0  0  0  0  0  0  0  0  0  0
  -28.1564   -0.7032   -4.8646 C   0  0  0  0  0  0  0  0  0  0  0  0
  -28.5191    0.7609   -4.9036 C   0  0  0  0  0  0  0  0  0  0  0  0
  -29.0967    0.9065   -6.2929 C   0  0  0  0  0  0  0  0  0  0  0  0
  -28.3842   -0.0097   -7.1321 O   0  0  0  0  0  0  0  0  0  0  0  0
  -28.1905   -9.2545   -9.6842 C   0  0  0  0  0  0  0  0  0  0  0  0
  -26.7027   -8.9251   -9.4079 C   0  0  0  0  0  0  0  0  0  0  0  0
  -26.5438  -10.3399   -8.7841 C   0  0  0  0  0  0  0  0  0  0  0  0
  -27.8258  -10.7500   -9.5615 C   0  0  0  0  0  0  0  0  0  0  0  0
  -26.6257  -10.4166   -7.2525 C   0  0  0  0  0  0  0  0  0  0  0  0
  -25.5062  -11.1982   -6.7116 N   0  0  0  0  0  0  0  0  0  0  0  0
  -24.3672  -10.2954   -6.3905 C   0  0  0  0  0  0  0  0  0  0  0  0
  -23.4357  -11.3558   -7.0024 C   0  0  0  0  0  0  0  0  0  0  0  0
  -24.6800  -11.7874   -7.8000 C   0  0  0  0  0  0  0  0  0  0  0  0
  1  2  1  0  0  0
  1 11  1  0  0  0
  1 12  1  0  0  0
  2  3  1  0  0  0
  2  7  2  0  0  0
  3  4  2  0  0  0
  4  5  1  0  0  0
  5  6  2  0  0  0
  6  7  1  0  0  0
  6 10  1  0  0  0
  7  8  1  0  0  0
  8 13  1  0  0  0
  8  9  2  0  0  0
 13 14  1  0  0  0
 13 18  2  0  0  0
 14 15  2  0  0  0
 15 16  1  0  0  0
 16 17  2  0  0  0
 17 19  1  0  0  0
 17 18  1  0  0  0
 19 20  1  0  0  0
 20 21  1  0  0  0
 21 22  1  0  0  0
 21 25  1  0  0  0
 22 23  1  0  0  0
 23 24  1  0  0  0
 24 25  1  0  0  0
  9 10  1  0  0  0
 26 27  1  0  0  0
 26 29  1  0  0  0
 26 10  1  0  0  0
 27 28  1  0  0  0
 28 30  1  0  0  0
 28 29  1  0  0  0
 30 31  1  0  0  0
 31 32  1  0  0  0
 31 34  1  0  0  0
 32 33  1  0  0  0
 33 34  1  0  0  0
M  END
> <minimizedAffinity>
-8.55858

$$$$
