CHEMBL1242750


 28 31  0  0  0  0  0  0  0  0999 V2000
  -12.6993   -0.1848  -13.5066 N   0  0  0  0  0  0  0  0  0  0  0  0
  -13.6389    0.6431  -14.1093 C   0  0  0  0  0  0  0  0  0  0  0  0
  -13.1534    1.8053  -14.5957 N   0  0  0  0  0  0  0  0  0  0  0  0
  -13.9969    2.6482  -15.2169 C   0  0  0  0  0  0  0  0  0  0  0  0
  -15.3102    2.4851  -15.4309 N   0  0  0  0  0  0  0  0  0  0  0  0
  -15.7545    1.3219  -14.9268 C   0  0  0  0  0  0  0  0  0  0  0  0
  -15.0080    0.3654  -14.2506 C   0  0  0  0  0  0  0  0  0  0  0  0
  -15.9601   -0.6463  -13.8884 C   0  0  0  0  0  0  0  0  0  0  0  0
  -17.1812   -0.3537  -14.3730 N   0  0  0  0  0  0  0  0  0  0  0  0
  -17.0395    0.8586  -14.9506 N   0  0  0  0  0  0  0  0  0  0  0  0
  -11.7661    0.1553  -13.7073 H   0  0  0  0  0  0  0  0  0  0  0  0
  -12.8425   -1.1713  -13.6803 H   0  0  0  0  0  0  0  0  0  0  0  0
  -15.7694   -1.8630  -13.0846 C   0  0  0  0  0  0  0  0  0  0  0  0
  -15.4837   -3.0985  -13.6912 C   0  0  0  0  0  0  0  0  0  0  0  0
  -15.3263   -4.2596  -12.9289 C   0  0  0  0  0  0  0  0  0  0  0  0
  -15.3894   -4.1756  -11.5472 C   0  0  0  0  0  0  0  0  0  0  0  0
  -15.2117   -5.2761  -10.8026 F   0  0  0  0  0  0  0  0  0  0  0  0
  -15.6145   -2.9526  -10.9247 C   0  0  0  0  0  0  0  0  0  0  0  0
  -15.6260   -2.8581   -9.5616 O   0  0  0  0  0  0  0  0  0  0  0  0
  -15.8179   -1.8012  -11.6811 C   0  0  0  0  0  0  0  0  0  0  0  0
  -15.3845   -3.7380   -9.2153 H   0  0  0  0  0  0  0  0  0  0  0  0
  -18.2099    1.5792  -15.4706 C   0  0  0  0  0  0  0  0  0  0  0  0
  -18.3539    2.9429  -14.7778 C   0  0  0  0  0  0  0  0  0  0  0  0
  -19.6473    3.6865  -15.1044 C   0  0  0  0  0  0  0  0  0  0  0  0
  -20.7898    3.3218  -14.1600 C   0  0  0  0  0  0  0  0  0  0  0  0
  -21.3784    1.9289  -14.3574 C   0  0  0  0  0  0  0  0  0  0  0  0
  -20.3791    0.7753  -14.2828 C   0  0  0  0  0  0  0  0  0  0  0  0
  -19.4640    0.6908  -15.5030 C   0  0  0  0  0  0  0  0  0  0  0  0
  1  2  1  0  0  0
  1 11  1  0  0  0
  1 12  1  0  0  0
  2  3  1  0  0  0
  2  7  2  0  0  0
  3  4  2  0  0  0
  4  5  1  0  0  0
  5  6  2  0  0  0
  6  7  1  0  0  0
  6 10  1  0  0  0
  7  8  1  0  0  0
  8 13  1  0  0  0
  8  9  2  0  0  0
 13 14  1  0  0  0
 13 20  2  0  0  0
 14 15  2  0  0  0
 15 16  1  0  0  0
 16 17  1  0  0  0
 16 18  2  0  0  0
 18 19  1  0  0  0
 18 20  1  0  0  0
 19 21  1  0  0  0
  9 10  1  0  0  0
 10 22  1  0  0  0
 22 23  1  0  0  0
 22 28  1  0  0  0
 23 24  1  0  0  0
 24 25  1  0  0  0
 25 26  1  0  0  0
 26 27  1  0  0  0
 27 28  1  0  0  0
M  END
> <minimizedAffinity>
-8.47581

$$$$
