CHEMBL521201


 29 32  0  0  0  0  0  0  0  0999 V2000
  -31.4860   -8.3653   -6.9843 C   0  0  0  0  0  0  0  0  0  0  0  0
  -30.9399   -9.5513   -7.3196 C   0  0  0  0  0  0  0  0  0  0  0  0
  -32.0920  -10.4112   -7.7422 C   0  0  0  0  0  0  0  0  0  0  0  0
  -32.0470  -11.5925   -8.0590 O   0  0  0  0  0  0  0  0  0  0  0  0
  -33.2190   -9.6434   -7.6761 N   0  0  0  0  0  0  0  0  0  0  0  0
  -32.9396   -8.3157   -7.2468 C   0  0  0  0  0  0  0  0  0  0  0  0
  -34.1196  -10.0242   -7.9286 H   0  0  0  0  0  0  0  0  0  0  0  0
  -29.5786   -9.8906   -7.4875 C   0  0  0  0  0  0  0  0  0  0  0  0
  -28.5712   -9.6684   -6.5742 C   0  0  0  0  0  0  0  0  0  0  0  0
  -27.4163  -10.0655   -7.1911 N   0  0  0  0  0  0  0  0  0  0  0  0
  -27.5982   -9.9495   -8.5468 C   0  0  0  0  0  0  0  0  0  0  0  0
  -26.7271   -9.6542   -9.5970 C   0  0  0  0  0  0  0  0  0  0  0  0
  -27.2526   -9.7518  -10.8890 C   0  0  0  0  0  0  0  0  0  0  0  0
  -28.5311  -10.2659  -11.1082 C   0  0  0  0  0  0  0  0  0  0  0  0
  -29.3910  -10.5263  -10.0378 C   0  0  0  0  0  0  0  0  0  0  0  0
  -28.9507  -10.2221   -8.7372 C   0  0  0  0  0  0  0  0  0  0  0  0
  -26.5942  -10.4392   -6.7351 H   0  0  0  0  0  0  0  0  0  0  0  0
  -29.2272   -5.3405   -7.0332 C   0  0  0  0  0  0  0  0  0  0  0  0
  -29.9015   -6.5066   -7.4273 C   0  0  0  0  0  0  0  0  0  0  0  0
  -30.7854   -7.1565   -6.5518 C   0  0  0  0  0  0  0  0  0  0  0  0
  -30.9911   -6.6379   -5.2751 C   0  0  0  0  0  0  0  0  0  0  0  0
  -30.3028   -5.4923   -4.8548 C   0  0  0  0  0  0  0  0  0  0  0  0
  -29.4392   -4.8159   -5.7411 C   0  0  0  0  0  0  0  0  0  0  0  0
  -28.6423   -3.4270   -8.3386 C   0  0  0  0  0  0  0  0  0  0  0  0
  -28.3098   -4.7097   -7.8304 O   0  0  0  0  0  0  0  0  0  0  0  0
  -30.4804   -4.9368   -3.6083 O   0  0  0  0  0  0  0  0  0  0  0  0
  -31.8158   -4.5479   -3.3042 C   0  0  0  0  0  0  0  0  0  0  0  0
  -28.8192   -3.7044   -5.2134 O   0  0  0  0  0  0  0  0  0  0  0  0
  -27.6441   -3.9157   -4.4368 C   0  0  0  0  0  0  0  0  0  0  0  0
 24 25  1  0  0  0
 25 18  1  0  0  0
 18 19  1  0  0  0
 18 23  2  0  0  0
 19 20  2  0  0  0
 20  1  1  0  0  0
 20 21  1  0  0  0
  1  2  2  0  0  0
  1  6  1  0  0  0
  2  8  1  0  0  0
  2  3  1  0  0  0
  8  9  2  0  0  0
  8 16  1  0  0  0
  9 10  1  0  0  0
 10 11  1  0  0  0
 10 17  1  0  0  0
 11 12  1  0  0  0
 11 16  2  0  0  0
 12 13  2  0  0  0
 13 14  1  0  0  0
 14 15  2  0  0  0
 15 16  1  0  0  0
  3  4  2  0  0  0
  3  5  1  0  0  0
  5  6  1  0  0  0
  5  7  1  0  0  0
 21 22  2  0  0  0
 22 26  1  0  0  0
 22 23  1  0  0  0
 26 27  1  0  0  0
 23 28  1  0  0  0
 28 29  1  0  0  0
M  END
> <minimizedAffinity>
-7.91724

$$$$
