CHEMBL3593292


 42 47  0  0  0  0  0  0  0  0999 V2000
  -26.5443   -2.1564  -10.9657 C   0  0  0  0  0  0  0  0  0  0  0  0
  -27.1546   -1.6446  -12.0100 N   0  0  0  0  0  0  0  0  0  0  0  0
  -26.2944   -0.9528  -12.8019 C   0  0  0  0  0  0  0  0  0  0  0  0
  -24.9971   -0.8738  -12.3470 C   0  0  0  0  0  0  0  0  0  0  0  0
  -24.8635   -1.7569  -10.8815 S   0  0  0  0  0  0  0  0  0  0  0  0
  -23.9112   -0.1236  -12.9646 C   0  0  0  0  0  0  0  0  0  0  0  0
  -22.8493   -0.8537  -13.5229 C   0  0  0  0  0  0  0  0  0  0  0  0
  -21.7355   -0.2200  -14.0602 C   0  0  0  0  0  0  0  0  0  0  0  0
  -21.6592    1.1654  -14.0510 C   0  0  0  0  0  0  0  0  0  0  0  0
  -22.7180    1.9084  -13.4998 C   0  0  0  0  0  0  0  0  0  0  0  0
  -23.8401    1.2698  -12.9589 C   0  0  0  0  0  0  0  0  0  0  0  0
  -20.5659    1.8663  -14.5603 N   0  0  0  0  0  0  0  0  0  0  0  0
  -20.4996    3.1228  -15.1144 C   0  0  0  0  0  0  0  0  0  0  0  0
  -21.4405    3.8985  -15.2697 O   0  0  0  0  0  0  0  0  0  0  0  0
  -19.2335    3.5540  -15.4555 N   0  0  0  0  0  0  0  0  0  0  0  0
  -19.6822    1.3699  -14.5287 H   0  0  0  0  0  0  0  0  0  0  0  0
  -19.1776    4.5304  -15.7063 H   0  0  0  0  0  0  0  0  0  0  0  0
  -18.0765    2.8002  -15.4126 C   0  0  0  0  0  0  0  0  0  0  0  0
  -17.0274    2.7822  -16.3689 C   0  0  0  0  0  0  0  0  0  0  0  0
  -16.0535    2.0010  -15.7800 C   0  0  0  0  0  0  0  0  0  0  0  0
  -16.5393    1.4948  -14.6195 O   0  0  0  0  0  0  0  0  0  0  0  0
  -17.7879    1.9862  -14.3905 N   0  0  0  0  0  0  0  0  0  0  0  0
  -14.6251    1.7208  -16.1746 C   0  0  0  0  0  0  0  0  0  0  0  0
  -14.3412    0.6230  -17.1737 C   0  0  0  0  0  0  0  0  0  0  0  0
  -13.8815    0.4803  -15.7618 C   0  0  0  0  0  0  0  0  0  0  0  0
  -27.1387   -2.9474  -10.0437 N   0  0  0  0  0  0  0  0  0  0  0  0
  -27.5440   -3.8304  -10.3232 H   0  0  0  0  0  0  0  0  0  0  0  0
  -28.8711   -2.8406   -6.7856 C   0  0  0  0  0  0  0  0  0  0  0  0
  -28.4096   -3.3206   -7.9852 C   0  0  0  0  0  0  0  0  0  0  0  0
  -27.7092   -2.4919   -8.8496 C   0  0  0  0  0  0  0  0  0  0  0  0
  -27.5198   -1.1946   -8.5589 N   0  0  0  0  0  0  0  0  0  0  0  0
  -28.0089   -0.7806   -7.3780 C   0  0  0  0  0  0  0  0  0  0  0  0
  -27.8048    0.6503   -6.9873 C   0  0  0  0  0  0  0  0  0  0  0  0
  -28.6618   -1.5503   -6.4869 N   0  0  0  0  0  0  0  0  0  0  0  0
  -29.7767   -5.7555   -3.8199 N   0  0  0  0  0  0  0  0  0  0  0  0
  -29.5553   -4.3323   -3.4600 C   0  0  0  0  0  0  0  0  0  0  0  0
  -29.9329   -3.2458   -4.5107 C   0  0  0  0  0  0  0  0  0  0  0  0
  -29.5282   -3.6369   -5.8714 N   0  0  0  0  0  0  0  0  0  0  0  0
  -29.8467   -5.0139   -6.2451 C   0  0  0  0  0  0  0  0  0  0  0  0
  -29.2354   -5.9595   -5.1918 C   0  0  0  0  0  0  0  0  0  0  0  0
  -32.1359   -5.2239   -3.0760 C   0  0  0  0  0  0  0  0  0  0  0  0
  -31.1834   -6.1802   -3.7801 C   0  0  0  0  0  0  0  0  0  0  0  0
 41 42  1  0  0  0
 42 35  1  0  0  0
 35 36  1  0  0  0
 35 40  1  0  0  0
 36 37  1  0  0  0
 37 38  1  0  0  0
 38 28  1  0  0  0
 38 39  1  0  0  0
 28 29  1  0  0  0
 28 34  2  0  0  0
 29 30  2  0  0  0
 30 26  1  0  0  0
 30 31  1  0  0  0
 26  1  1  0  0  0
 26 27  1  0  0  0
  1  2  2  0  0  0
  1  5  1  0  0  0
  2  3  1  0  0  0
  3  4  2  0  0  0
  4  6  1  0  0  0
  4  5  1  0  0  0
  6  7  1  0  0  0
  6 11  2  0  0  0
  7  8  2  0  0  0
  8  9  1  0  0  0
  9 12  1  0  0  0
  9 10  2  0  0  0
 12 13  1  0  0  0
 12 16  1  0  0  0
 13 14  2  0  0  0
 13 15  1  0  0  0
 15 18  1  0  0  0
 15 17  1  0  0  0
 18 19  1  0  0  0
 18 22  2  0  0  0
 19 20  2  0  0  0
 20 23  1  0  0  0
 20 21  1  0  0  0
 23 24  1  0  0  0
 23 25  1  0  0  0
 24 25  1  0  0  0
 21 22  1  0  0  0
 10 11  1  0  0  0
 31 32  2  0  0  0
 32 33  1  0  0  0
 32 34  1  0  0  0
 39 40  1  0  0  0
M  END
> <minimizedAffinity>
-10.20103

$$$$
