CHEMBL3702604


 33 36  0  0  0  0  0  0  0  0999 V2000
  -27.0994   -1.8036  -11.2427 C   0  0  0  0  0  0  0  0  0  0  0  0
  -27.7096   -2.0268  -12.4719 C   0  0  0  0  0  0  0  0  0  0  0  0
  -27.0031   -1.7388  -13.6392 C   0  0  0  0  0  0  0  0  0  0  0  0
  -25.6999   -1.2242  -13.5733 C   0  0  0  0  0  0  0  0  0  0  0  0
  -25.0622   -0.9896  -12.3508 C   0  0  0  0  0  0  0  0  0  0  0  0
  -25.7848   -1.3066  -11.1973 C   0  0  0  0  0  0  0  0  0  0  0  0
  -23.8061   -0.4105  -12.2869 N   0  0  0  0  0  0  0  0  0  0  0  0
  -22.6038   -1.1891  -12.6027 C   0  0  0  0  0  0  0  0  0  0  0  0
  -22.0429   -0.7810  -13.9599 C   0  0  0  0  0  0  0  0  0  0  0  0
  -21.9460    0.7141  -14.0964 C   0  0  0  0  0  0  0  0  0  0  0  0
  -21.0775    1.1874  -15.0219 N   0  0  0  0  0  0  0  0  0  0  0  0
  -20.9806    2.5132  -15.1496 C   0  0  0  0  0  0  0  0  0  0  0  0
  -20.0800    3.0131  -16.0660 N   0  0  0  0  0  0  0  0  0  0  0  0
  -21.7135    3.3989  -14.4669 N   0  0  0  0  0  0  0  0  0  0  0  0
  -22.5732    2.8908  -13.5640 C   0  0  0  0  0  0  0  0  0  0  0  0
  -22.7398    1.5431  -13.3241 C   0  0  0  0  0  0  0  0  0  0  0  0
  -23.6534    1.0448  -12.2419 C   0  0  0  0  0  0  0  0  0  0  0  0
  -19.9080    2.3306  -16.7899 H   0  0  0  0  0  0  0  0  0  0  0  0
  -20.3653    3.9387  -16.3531 H   0  0  0  0  0  0  0  0  0  0  0  0
  -27.5637   -3.0249   -9.1496 N   0  0  0  0  0  0  0  0  0  0  0  0
  -27.8088   -1.9189   -9.9455 C   0  0  0  0  0  0  0  0  0  0  0  0
  -28.5860   -0.9986   -9.6791 O   0  0  0  0  0  0  0  0  0  0  0  0
  -26.8687   -3.6905   -9.4497 H   0  0  0  0  0  0  0  0  0  0  0  0
  -29.4441   -3.7954   -5.3822 C   0  0  0  0  0  0  0  0  0  0  0  0
  -29.7343   -4.5635   -6.5138 C   0  0  0  0  0  0  0  0  0  0  0  0
  -29.1301   -4.3191   -7.7462 C   0  0  0  0  0  0  0  0  0  0  0  0
  -28.2033   -3.2933   -7.9084 C   0  0  0  0  0  0  0  0  0  0  0  0
  -27.9061   -2.5023   -6.7997 C   0  0  0  0  0  0  0  0  0  0  0  0
  -28.5153   -2.7523   -5.5521 C   0  0  0  0  0  0  0  0  0  0  0  0
  -31.5912   -4.5122   -4.1673 C   0  0  0  0  0  0  0  0  0  0  0  0
  -30.1032   -4.1032   -4.0260 C   0  0  0  0  0  0  0  0  0  0  0  0
  -30.0739   -2.8766   -3.0914 C   0  0  0  0  0  0  0  0  0  0  0  0
  -29.3470   -5.2605   -3.3425 C   0  0  0  0  0  0  0  0  0  0  0  0
 30 31  1  0  0  0
 31 32  1  0  0  0
 31 33  1  0  0  0
 31 24  1  0  0  0
 24 25  1  0  0  0
 24 29  2  0  0  0
 25 26  2  0  0  0
 26 27  1  0  0  0
 27 20  1  0  0  0
 27 28  2  0  0  0
 20 21  1  0  0  0
 20 23  1  0  0  0
 21 22  2  0  0  0
 21  1  1  0  0  0
  1  2  1  0  0  0
  1  6  2  0  0  0
  2  3  2  0  0  0
  3  4  1  0  0  0
  4  5  2  0  0  0
  5  7  1  0  0  0
  5  6  1  0  0  0
  7  8  1  0  0  0
  7 17  1  0  0  0
  8  9  1  0  0  0
  9 10  1  0  0  0
 10 11  1  0  0  0
 10 16  2  0  0  0
 11 12  2  0  0  0
 12 13  1  0  0  0
 12 14  1  0  0  0
 13 18  1  0  0  0
 13 19  1  0  0  0
 14 15  2  0  0  0
 15 16  1  0  0  0
 16 17  1  0  0  0
 28 29  1  0  0  0
M  END
> <minimizedAffinity>
-9.42777

$$$$
