CHEMBL3935124


 39 43  0  0  0  0  0  0  0  0999 V2000
  -27.3668   -1.7597   -9.6435 C   0  0  0  0  0  0  0  0  0  0  0  0
  -28.1955   -1.7158  -10.7523 C   0  0  0  0  0  0  0  0  0  0  0  0
  -27.6671   -1.6788  -12.0248 C   0  0  0  0  0  0  0  0  0  0  0  0
  -26.3325   -1.4615  -12.2440 C   0  0  0  0  0  0  0  0  0  0  0  0
  -25.9598   -1.6406  -13.5140 N   0  0  0  0  0  0  0  0  0  0  0  0
  -24.7543   -1.1792  -13.8590 C   0  0  0  0  0  0  0  0  0  0  0  0
  -23.9707   -0.4452  -12.9940 C   0  0  0  0  0  0  0  0  0  0  0  0
  -24.2655   -0.4328  -11.6380 N   0  0  0  0  0  0  0  0  0  0  0  0
  -25.4794   -1.0311  -11.2074 C   0  0  0  0  0  0  0  0  0  0  0  0
  -26.0272   -1.3139   -9.8625 C   0  0  0  0  0  0  0  0  0  0  0  0
  -23.0710    0.5150  -13.6687 C   0  0  0  0  0  0  0  0  0  0  0  0
  -23.0338    1.9271  -13.7609 C   0  0  0  0  0  0  0  0  0  0  0  0
  -21.8896    2.4004  -14.2903 N   0  0  0  0  0  0  0  0  0  0  0  0
  -21.1708    1.2943  -14.5662 N   0  0  0  0  0  0  0  0  0  0  0  0
  -21.7889    0.1606  -14.0960 C   0  0  0  0  0  0  0  0  0  0  0  0
  -20.0381    1.3528  -15.4874 C   0  0  0  0  0  0  0  0  0  0  0  0
  -18.8341    0.4532  -15.1977 C   0  0  0  0  0  0  0  0  0  0  0  0
  -17.3772    1.4879  -14.9596 S   0  0  0  0  0  0  0  0  0  0  0  0
  -16.5530    0.8351  -13.5188 C   0  0  0  0  0  0  0  0  0  0  0  0
  -16.4931    1.2720  -16.0886 O   0  0  0  0  0  0  0  0  0  0  0  0
  -17.8271    2.8234  -14.6223 O   0  0  0  0  0  0  0  0  0  0  0  0
  -27.9552   -2.4219   -8.4928 N   0  0  0  0  0  0  0  0  0  0  0  0
  -28.7795   -0.1957   -5.5253 C   0  0  0  0  0  0  0  0  0  0  0  0
  -28.4233   -1.0244   -4.4769 C   0  0  0  0  0  0  0  0  0  0  0  0
  -27.9420   -2.2989   -4.7219 C   0  0  0  0  0  0  0  0  0  0  0  0
  -27.7710   -2.7404   -6.0501 C   0  0  0  0  0  0  0  0  0  0  0  0
  -28.1644   -1.9690   -7.1565 C   0  0  0  0  0  0  0  0  0  0  0  0
  -28.6910   -0.6864   -6.8443 C   0  0  0  0  0  0  0  0  0  0  0  0
  -30.5506    1.3667   -5.8956 C   0  0  0  0  0  0  0  0  0  0  0  0
  -29.2392    1.0904   -5.3709 O   0  0  0  0  0  0  0  0  0  0  0  0
  -27.6056   -3.2050   -3.7445 O   0  0  0  0  0  0  0  0  0  0  0  0
  -27.7622   -4.5924   -4.0878 C   0  0  0  0  0  0  0  0  0  0  0  0
  -29.1681   -5.0365   -3.7037 C   0  0  0  0  0  0  0  0  0  0  0  0
  -29.1171   -6.2490   -2.9588 O   0  0  0  0  0  0  0  0  0  0  0  0
  -28.5664   -6.8605   -3.4847 H   0  0  0  0  0  0  0  0  0  0  0  0
  -27.9228   -3.9190   -8.7184 C   0  0  0  0  0  0  0  0  0  0  0  0
  -28.4411   -4.9117   -7.6802 C   0  0  0  0  0  0  0  0  0  0  0  0
  -28.7073   -6.3865   -7.9322 C   0  0  0  0  0  0  0  0  0  0  0  0
  -29.8354   -5.4793   -7.5376 C   0  0  0  0  0  0  0  0  0  0  0  0
 29 30  1  0  0  0
 30 23  1  0  0  0
 23 24  1  0  0  0
 23 28  2  0  0  0
 24 25  2  0  0  0
 25 31  1  0  0  0
 25 26  1  0  0  0
 31 32  1  0  0  0
 32 33  1  0  0  0
 33 34  1  0  0  0
 34 35  1  0  0  0
 26 27  2  0  0  0
 27 22  1  0  0  0
 27 28  1  0  0  0
 22 36  1  0  0  0
 22  1  1  0  0  0
 36 37  1  0  0  0
 37 38  1  0  0  0
 37 39  1  0  0  0
 38 39  1  0  0  0
  1  2  1  0  0  0
  1 10  2  0  0  0
  2  3  2  0  0  0
  3  4  1  0  0  0
  4  5  1  0  0  0
  4  9  2  0  0  0
  5  6  2  0  0  0
  6  7  1  0  0  0
  7 11  1  0  0  0
  7  8  2  0  0  0
 11 12  1  0  0  0
 11 15  2  0  0  0
 12 13  2  0  0  0
 13 14  1  0  0  0
 14 16  1  0  0  0
 14 15  1  0  0  0
 16 17  1  0  0  0
 17 18  1  0  0  0
 18 19  1  0  0  0
 18 20  2  0  0  0
 18 21  2  0  0  0
  8  9  1  0  0  0
  9 10  1  0  0  0
M  END
> <minimizedAffinity>
-8.71822

$$$$
