CHEMBL4437943


 37 40  0  0  0  0  0  0  0  0999 V2000
  -11.6312   -0.0560  -12.5893 O   0  0  0  0  0  0  0  0  0  0  0  0
  -12.2919    0.1655  -13.5999 C   0  0  0  0  0  0  0  0  0  0  0  0
  -13.4403   -0.5191  -13.9983 N   0  0  0  0  0  0  0  0  0  0  0  0
  -13.7859   -0.3459  -14.9336 H   0  0  0  0  0  0  0  0  0  0  0  0
  -14.0813   -1.5584  -13.2706 C   0  0  0  0  0  0  0  0  0  0  0  0
  -15.3207   -1.3677  -12.6588 C   0  0  0  0  0  0  0  0  0  0  0  0
  -15.9052   -2.3764  -11.9055 C   0  0  0  0  0  0  0  0  0  0  0  0
  -15.2746   -3.6107  -11.7861 C   0  0  0  0  0  0  0  0  0  0  0  0
  -14.0739   -3.8753  -12.4540 C   0  0  0  0  0  0  0  0  0  0  0  0
  -13.4675   -2.8293  -13.1791 C   0  0  0  0  0  0  0  0  0  0  0  0
  -13.4753   -5.1608  -12.4211 N   0  0  0  0  0  0  0  0  0  0  0  0
  -13.1004   -5.8567  -11.2731 C   0  0  0  0  0  0  0  0  0  0  0  0
  -13.1953   -5.4573  -10.1156 O   0  0  0  0  0  0  0  0  0  0  0  0
  -13.3880   -5.6853  -13.2892 H   0  0  0  0  0  0  0  0  0  0  0  0
  -12.5637   -7.2358  -11.4937 C   0  0  0  0  0  0  0  0  0  0  0  0
  -13.3986   -8.1925  -12.0751 C   0  0  0  0  0  0  0  0  0  0  0  0
  -12.8943   -9.4647  -12.3107 C   0  0  0  0  0  0  0  0  0  0  0  0
  -11.5804   -9.7417  -11.9504 C   0  0  0  0  0  0  0  0  0  0  0  0
  -10.8212   -8.7286  -11.3752 C   0  0  0  0  0  0  0  0  0  0  0  0
  -11.2718   -7.4740  -11.1378 N   0  0  0  0  0  0  0  0  0  0  0  0
  -11.9077    1.2993  -14.5358 C   0  0  0  0  0  0  0  0  0  0  0  0
  -12.7793    2.5387  -14.2951 C   0  0  0  0  0  0  0  0  0  0  0  0
  -12.6883    3.6224  -15.7588 S   0  0  0  0  0  0  0  0  0  0  0  0
  -13.6577    2.7312  -16.9451 C   0  0  0  0  0  0  0  0  0  0  0  0
  -12.8987    1.9658  -18.2389 S   0  0  0  0  0  0  0  0  0  0  0  0
  -15.0125    2.5935  -16.6152 N   0  0  0  0  0  0  0  0  0  0  0  0
  -16.0152    3.6710  -16.8035 C   0  0  0  0  0  0  0  0  0  0  0  0
  -17.0788    3.7145  -15.6821 C   0  0  0  0  0  0  0  0  0  0  0  0
  -17.6653    2.3770  -15.5262 N   0  0  0  0  0  0  0  0  0  0  0  0
  -16.6707    1.3323  -15.2261 C   0  0  0  0  0  0  0  0  0  0  0  0
  -15.6388    1.2710  -16.3704 C   0  0  0  0  0  0  0  0  0  0  0  0
  -18.9875    2.1756  -15.1697 C   0  0  0  0  0  0  0  0  0  0  0  0
  -19.7919    3.2683  -14.8083 C   0  0  0  0  0  0  0  0  0  0  0  0
  -21.1187    3.1135  -14.3956 C   0  0  0  0  0  0  0  0  0  0  0  0
  -21.6781    1.8439  -14.3340 C   0  0  0  0  0  0  0  0  0  0  0  0
  -20.9075    0.7388  -14.6818 C   0  0  0  0  0  0  0  0  0  0  0  0
  -19.5759    0.9048  -15.0916 C   0  0  0  0  0  0  0  0  0  0  0  0
  1  2  2  0  0  0
  2 21  1  0  0  0
  2  3  1  0  0  0
 21 22  1  0  0  0
 22 23  1  0  0  0
 23 24  1  0  0  0
 24 25  2  0  0  0
 24 26  1  0  0  0
 26 27  1  0  0  0
 26 31  1  0  0  0
 27 28  1  0  0  0
 28 29  1  0  0  0
 29 32  1  0  0  0
 29 30  1  0  0  0
 32 33  1  0  0  0
 32 37  2  0  0  0
 33 34  2  0  0  0
 34 35  1  0  0  0
 35 36  2  0  0  0
 36 37  1  0  0  0
 30 31  1  0  0  0
  3  5  1  0  0  0
  3  4  1  0  0  0
  5  6  1  0  0  0
  5 10  2  0  0  0
  6  7  2  0  0  0
  7  8  1  0  0  0
  8  9  2  0  0  0
  9 11  1  0  0  0
  9 10  1  0  0  0
 11 12  1  0  0  0
 11 14  1  0  0  0
 12 13  2  0  0  0
 12 15  1  0  0  0
 15 16  1  0  0  0
 15 20  2  0  0  0
 16 17  2  0  0  0
 17 18  1  0  0  0
 18 19  2  0  0  0
 19 20  1  0  0  0
M  END
> <minimizedAffinity>
-8.67953

$$$$
