CHEMBL3397932


 32 34  0  0  0  0  0  0  0  0999 V2000
  -28.3561   -7.6728   -3.7147 N   0  0  0  0  0  0  0  0  0  0  0  0
  -29.3171   -7.3591   -4.6556 C   0  0  0  0  0  0  0  0  0  0  0  0
  -29.6222   -8.0621   -5.6182 O   0  0  0  0  0  0  0  0  0  0  0  0
  -28.3625   -7.1644   -2.8393 H   0  0  0  0  0  0  0  0  0  0  0  0
  -25.6642  -10.9359   -3.9923 C   0  0  0  0  0  0  0  0  0  0  0  0
  -26.9635  -11.1471   -3.5430 C   0  0  0  0  0  0  0  0  0  0  0  0
  -27.8651  -10.0850   -3.4552 C   0  0  0  0  0  0  0  0  0  0  0  0
  -27.4853   -8.7823   -3.8042 C   0  0  0  0  0  0  0  0  0  0  0  0
  -26.1918   -8.5723   -4.2772 C   0  0  0  0  0  0  0  0  0  0  0  0
  -25.2932   -9.6378   -4.3587 C   0  0  0  0  0  0  0  0  0  0  0  0
  -24.0592   -9.3544   -4.8007 F   0  0  0  0  0  0  0  0  0  0  0  0
  -24.8938  -12.0664   -4.0313 O   0  0  0  0  0  0  0  0  0  0  0  0
  -23.5777  -11.9400   -3.4947 C   0  0  0  0  0  0  0  0  0  0  0  0
  -22.5798  -12.4647   -4.5196 C   0  0  0  0  0  0  0  0  0  0  0  0
  -21.7895  -11.3229   -5.1670 C   0  0  0  0  0  0  0  0  0  0  0  0
  -23.0387  -11.5932   -7.2437 C   0  0  0  0  0  0  0  0  0  0  0  0
  -21.7208  -11.4013   -6.6361 N   0  0  0  0  0  0  0  0  0  0  0  0
  -21.0890  -10.1980   -7.1803 C   0  0  0  0  0  0  0  0  0  0  0  0
  -30.0771   -6.0975   -4.4707 C   0  0  0  0  0  0  0  0  0  0  0  0
  -31.2171   -5.9905   -3.6724 C   0  0  0  0  0  0  0  0  0  0  0  0
  -31.7984   -4.7377   -3.4800 C   0  0  0  0  0  0  0  0  0  0  0  0
  -31.2385   -3.5969   -4.0718 C   0  0  0  0  0  0  0  0  0  0  0  0
  -30.0831   -3.6721   -4.8683 C   0  0  0  0  0  0  0  0  0  0  0  0
  -29.5323   -4.9452   -5.0628 C   0  0  0  0  0  0  0  0  0  0  0  0
  -29.4325   -2.4703   -5.4389 C   0  0  0  0  0  0  0  0  0  0  0  0
  -29.6149   -1.1913   -4.8751 C   0  0  0  0  0  0  0  0  0  0  0  0
  -29.0304   -0.0512   -5.4385 C   0  0  0  0  0  0  0  0  0  0  0  0
  -28.2285   -0.1658   -6.5693 C   0  0  0  0  0  0  0  0  0  0  0  0
  -28.0316   -1.4200   -7.1322 C   0  0  0  0  0  0  0  0  0  0  0  0
  -27.2403   -1.5893   -8.2305 O   0  0  0  0  0  0  0  0  0  0  0  0
  -28.6353   -2.5534   -6.5925 C   0  0  0  0  0  0  0  0  0  0  0  0
  -26.7942   -0.7483   -8.4182 H   0  0  0  0  0  0  0  0  0  0  0  0
 16 17  1  0  0  0
 17 18  1  0  0  0
 17 15  1  0  0  0
 15 14  1  0  0  0
 14 13  1  0  0  0
 13 12  1  0  0  0
 12  5  1  0  0  0
  5  6  1  0  0  0
  5 10  2  0  0  0
  6  7  2  0  0  0
  7  8  1  0  0  0
  8  1  1  0  0  0
  8  9  2  0  0  0
  1  2  1  0  0  0
  1  4  1  0  0  0
  2  3  2  0  0  0
  2 19  1  0  0  0
 19 20  1  0  0  0
 19 24  2  0  0  0
 20 21  2  0  0  0
 21 22  1  0  0  0
 22 23  2  0  0  0
 23 25  1  0  0  0
 23 24  1  0  0  0
 25 26  1  0  0  0
 25 31  2  0  0  0
 26 27  2  0  0  0
 27 28  1  0  0  0
 28 29  2  0  0  0
 29 30  1  0  0  0
 29 31  1  0  0  0
 30 32  1  0  0  0
  9 10  1  0  0  0
 10 11  1  0  0  0
M  END
> <minimizedAffinity>
-8.36664

$$$$
