CHEMBL2386810


 42 46  0  0  0  0  0  0  0  0999 V2000
  -26.6908   -2.2581  -10.4482 C   0  0  0  0  0  0  0  0  0  0  0  0
  -25.4003   -1.9232  -10.7623 C   0  0  0  0  0  0  0  0  0  0  0  0
  -25.4808   -0.9981  -11.8524 C   0  0  0  0  0  0  0  0  0  0  0  0
  -26.7715   -0.7729  -12.1710 N   0  0  0  0  0  0  0  0  0  0  0  0
  -27.4660   -1.5321  -11.3113 N   0  0  0  0  0  0  0  0  0  0  0  0
  -28.4799   -1.5544  -11.3590 H   0  0  0  0  0  0  0  0  0  0  0  0
  -24.3877   -0.3640  -12.5800 C   0  0  0  0  0  0  0  0  0  0  0  0
  -24.2305    1.0324  -12.5677 C   0  0  0  0  0  0  0  0  0  0  0  0
  -23.1812    1.6428  -13.2620 C   0  0  0  0  0  0  0  0  0  0  0  0
  -22.2696    0.8731  -13.9949 C   0  0  0  0  0  0  0  0  0  0  0  0
  -22.4131   -0.5200  -14.0003 C   0  0  0  0  0  0  0  0  0  0  0  0
  -23.4624   -1.1282  -13.3057 C   0  0  0  0  0  0  0  0  0  0  0  0
  -21.1819    1.5349  -14.7954 C   0  0  0  0  0  0  0  0  0  0  0  0
  -20.0163    0.6980  -14.9733 N   0  0  0  0  0  0  0  0  0  0  0  0
  -18.7809    1.2806  -14.7637 C   0  0  0  0  0  0  0  0  0  0  0  0
  -18.6690    2.4632  -14.4588 O   0  0  0  0  0  0  0  0  0  0  0  0
  -17.7500    0.3935  -14.9856 N   0  0  0  0  0  0  0  0  0  0  0  0
  -20.1044   -0.2709  -14.6968 H   0  0  0  0  0  0  0  0  0  0  0  0
  -18.0010   -0.4308  -15.5108 H   0  0  0  0  0  0  0  0  0  0  0  0
  -16.3704    0.6718  -14.8431 C   0  0  0  0  0  0  0  0  0  0  0  0
  -15.6585    0.4516  -13.6582 C   0  0  0  0  0  0  0  0  0  0  0  0
  -14.2978    0.7639  -13.5686 C   0  0  0  0  0  0  0  0  0  0  0  0
  -13.6307    1.2983  -14.6668 C   0  0  0  0  0  0  0  0  0  0  0  0
  -14.3298    1.5072  -15.8535 C   0  0  0  0  0  0  0  0  0  0  0  0
  -13.5100    2.1749  -17.2129 Cl  0  0  0  0  0  0  0  0  0  0  0  0
  -15.6874    1.1900  -15.9501 C   0  0  0  0  0  0  0  0  0  0  0  0
  -27.2105   -3.1100   -9.5351 N   0  0  0  0  0  0  0  0  0  0  0  0
  -27.4293   -4.0581   -9.8164 H   0  0  0  0  0  0  0  0  0  0  0  0
  -28.0807    0.2776   -6.2584 C   0  0  0  0  0  0  0  0  0  0  0  0
  -28.2363   -1.1415   -6.7018 C   0  0  0  0  0  0  0  0  0  0  0  0
  -27.6653   -1.4597   -7.8759 N   0  0  0  0  0  0  0  0  0  0  0  0
  -27.8080   -2.7193   -8.3212 C   0  0  0  0  0  0  0  0  0  0  0  0
  -28.5147   -3.6414   -7.5924 C   0  0  0  0  0  0  0  0  0  0  0  0
  -29.1093   -3.2316   -6.4102 C   0  0  0  0  0  0  0  0  0  0  0  0
  -28.9521   -1.9853   -5.9403 N   0  0  0  0  0  0  0  0  0  0  0  0
  -29.8702   -4.1698   -5.7259 N   0  0  0  0  0  0  0  0  0  0  0  0
  -29.5425   -5.5915   -5.8573 C   0  0  0  0  0  0  0  0  0  0  0  0
  -30.8011   -6.3940   -5.4198 C   0  0  0  0  0  0  0  0  0  0  0  0
  -31.3058   -6.0576   -4.0628 N   0  0  0  0  0  0  0  0  0  0  0  0
  -31.4733   -4.5911   -3.9430 C   0  0  0  0  0  0  0  0  0  0  0  0
  -30.2110   -3.7997   -4.3437 C   0  0  0  0  0  0  0  0  0  0  0  0
  -30.6008   -6.3494   -3.3868 H   0  0  0  0  0  0  0  0  0  0  0  0
 29 30  1  0  0  0
 30 31  1  0  0  0
 30 35  2  0  0  0
 31 32  2  0  0  0
 32 27  1  0  0  0
 32 33  1  0  0  0
 27  1  1  0  0  0
 27 28  1  0  0  0
  1  2  2  0  0  0
  1  5  1  0  0  0
  2  3  1  0  0  0
  3  7  1  0  0  0
  3  4  2  0  0  0
  7  8  1  0  0  0
  7 12  2  0  0  0
  8  9  2  0  0  0
  9 10  1  0  0  0
 10 13  1  0  0  0
 10 11  2  0  0  0
 13 14  1  0  0  0
 14 15  1  0  0  0
 14 18  1  0  0  0
 15 16  2  0  0  0
 15 17  1  0  0  0
 17 20  1  0  0  0
 17 19  1  0  0  0
 20 21  1  0  0  0
 20 26  2  0  0  0
 21 22  2  0  0  0
 22 23  1  0  0  0
 23 24  2  0  0  0
 24 25  1  0  0  0
 24 26  1  0  0  0
 11 12  1  0  0  0
  4  5  1  0  0  0
  5  6  1  0  0  0
 33 34  2  0  0  0
 34 36  1  0  0  0
 34 35  1  0  0  0
 36 37  1  0  0  0
 36 41  1  0  0  0
 37 38  1  0  0  0
 38 39  1  0  0  0
 39 40  1  0  0  0
 39 42  1  0  0  0
 40 41  1  0  0  0
M  END
> <minimizedAffinity>
-11.10363

$$$$
