CHEMBL3905131


 45 48  0  0  0  0  0  0  0  0999 V2000
  -25.9947   11.9245  -14.4214 C   0  0  0  0  0  0  0  0  0  0  0  0
  -24.7968   12.6539  -14.4144 C   0  0  0  0  0  0  0  0  0  0  0  0
  -23.8389   12.4694  -15.4189 C   0  0  0  0  0  0  0  0  0  0  0  0
  -24.0702   11.5494  -16.4487 C   0  0  0  0  0  0  0  0  0  0  0  0
  -25.2638   10.8150  -16.4499 C   0  0  0  0  0  0  0  0  0  0  0  0
  -26.2230   11.0127  -15.4542 C   0  0  0  0  0  0  0  0  0  0  0  0
  -30.0745   12.3924  -11.4119 C   0  0  0  0  0  0  0  0  0  0  0  0
  -30.0907   12.4947  -10.0599 N   0  0  0  0  0  0  0  0  0  0  0  0
  -28.9184   12.4771   -9.3879 C   0  0  0  0  0  0  0  0  0  0  0  0
  -27.6689   12.3798   -9.8846 N   0  0  0  0  0  0  0  0  0  0  0  0
  -27.6952   12.2981  -11.2189 C   0  0  0  0  0  0  0  0  0  0  0  0
  -26.5758   12.1767  -12.0043 N   0  0  0  0  0  0  0  0  0  0  0  0
  -26.9494   12.0836  -13.3319 C   0  0  0  0  0  0  0  0  0  0  0  0
  -28.3298   12.1736  -13.3667 C   0  0  0  0  0  0  0  0  0  0  0  0
  -28.8113   12.3073  -12.0389 C   0  0  0  0  0  0  0  0  0  0  0  0
  -25.6413   12.1462  -11.6444 H   0  0  0  0  0  0  0  0  0  0  0  0
  -31.2594   12.3056  -12.1509 N   0  0  0  0  0  0  0  0  0  0  0  0
  -32.0398   12.5552  -11.5454 H   0  0  0  0  0  0  0  0  0  0  0  0
  -31.6990   11.2294  -14.3660 C   0  0  0  0  0  0  0  0  0  0  0  0
  -31.5359   11.0419  -12.8528 C   0  0  0  0  0  0  0  0  0  0  0  0
  -32.8548   10.4955  -12.3062 C   0  0  0  0  0  0  0  0  0  0  0  0
  -33.8390   11.3683  -11.8160 C   0  0  0  0  0  0  0  0  0  0  0  0
  -35.1013   10.8878  -11.4596 C   0  0  0  0  0  0  0  0  0  0  0  0
  -35.3883    9.5295  -11.5739 C   0  0  0  0  0  0  0  0  0  0  0  0
  -34.4028    8.6429  -12.0008 C   0  0  0  0  0  0  0  0  0  0  0  0
  -33.1372    9.1186  -12.3470 C   0  0  0  0  0  0  0  0  0  0  0  0
  -23.0942   11.2886  -17.5442 C   0  0  0  0  0  0  0  0  0  0  0  0
  -23.1078   10.2080  -18.1349 O   0  0  0  0  0  0  0  0  0  0  0  0
  -22.2099   12.2991  -17.8614 N   0  0  0  0  0  0  0  0  0  0  0  0
  -22.2945   13.2137  -17.4408 H   0  0  0  0  0  0  0  0  0  0  0  0
  -21.2753   12.1494  -18.9650 C   0  0  0  0  0  0  0  0  0  0  0  0
  -19.9522   11.4774  -18.5517 C   0  0  0  0  0  0  0  0  0  0  0  0
  -18.9438   11.5697  -19.6191 N   0  0  0  0  0  0  0  0  0  0  0  0
  -18.0353   11.2816  -19.2636 H   0  0  0  0  0  0  0  0  0  0  0  0
  -19.3204   10.7304  -20.7588 C   0  0  0  0  0  0  0  0  0  0  0  0
  -18.0631   10.2885  -21.5080 C   0  0  0  0  0  0  0  0  0  0  0  0
  -18.2069    8.8553  -22.0248 C   0  0  0  0  0  0  0  0  0  0  0  0
  -17.0667    7.9737  -21.5198 C   0  0  0  0  0  0  0  0  0  0  0  0
  -16.1541    8.7254  -20.5535 C   0  0  0  0  0  0  0  0  0  0  0  0
  -15.1120    7.8151  -19.9470 C   0  0  0  0  0  0  0  0  0  0  0  0
  -14.3776    7.0606  -20.5992 O   0  0  0  0  0  0  0  0  0  0  0  0
  -15.0157    7.9035  -18.5844 N   0  0  0  0  0  0  0  0  0  0  0  0
  -14.0611    7.0616  -17.9694 O   0  0  0  0  0  0  0  0  0  0  0  0
  -15.7028    8.3434  -17.9804 H   0  0  0  0  0  0  0  0  0  0  0  0
  -13.6449    6.6209  -18.7436 H   0  0  0  0  0  0  0  0  0  0  0  0
 19 20  1  0  0  0
 20 17  1  0  0  0
 20 21  1  0  0  0
 17  7  1  0  0  0
 17 18  1  0  0  0
  7  8  1  0  0  0
  7 15  2  0  0  0
  8  9  2  0  0  0
  9 10  1  0  0  0
 10 11  2  0  0  0
 11 12  1  0  0  0
 11 15  1  0  0  0
 12 13  1  0  0  0
 12 16  1  0  0  0
 13  1  1  0  0  0
 13 14  2  0  0  0
  1  2  1  0  0  0
  1  6  2  0  0  0
  2  3  2  0  0  0
  3  4  1  0  0  0
  4 27  1  0  0  0
  4  5  2  0  0  0
 27 28  2  0  0  0
 27 29  1  0  0  0
 29 31  1  0  0  0
 29 30  1  0  0  0
 31 32  1  0  0  0
 32 33  1  0  0  0
 33 35  1  0  0  0
 33 34  1  0  0  0
 35 36  1  0  0  0
 36 37  1  0  0  0
 37 38  1  0  0  0
 38 39  1  0  0  0
 39 40  1  0  0  0
 40 41  2  0  0  0
 40 42  1  0  0  0
 42 43  1  0  0  0
 42 44  1  0  0  0
 43 45  1  0  0  0
  5  6  1  0  0  0
 14 15  1  0  0  0
 21 22  1  0  0  0
 21 26  2  0  0  0
 22 23  2  0  0  0
 23 24  1  0  0  0
 24 25  2  0  0  0
 25 26  1  0  0  0
M  END
> <minimizedAffinity>
-6.51411

$$$$
