CHEMBL3353340


 31 36  0  0  0  0  0  0  0  0999 V2000
  -16.2816    2.3085  -16.2693 C   0  0  0  0  0  0  0  0  0  0  0  0
  -16.6989    1.0428  -15.8121 C   0  0  0  0  0  0  0  0  0  0  0  0
  -17.9291    0.8311  -15.1610 C   0  0  0  0  0  0  0  0  0  0  0  0
  -18.7896    1.9249  -14.9590 C   0  0  0  0  0  0  0  0  0  0  0  0
  -20.0683    2.1548  -14.3513 C   0  0  0  0  0  0  0  0  0  0  0  0
  -20.4306    3.4418  -14.4718 N   0  0  0  0  0  0  0  0  0  0  0  0
  -19.4141    4.0131  -15.1345 N   0  0  0  0  0  0  0  0  0  0  0  0
  -18.3875    3.1653  -15.4410 C   0  0  0  0  0  0  0  0  0  0  0  0
  -17.1664    3.3866  -16.0986 C   0  0  0  0  0  0  0  0  0  0  0  0
  -19.4770    5.0022  -15.3442 H   0  0  0  0  0  0  0  0  0  0  0  0
  -12.5104    3.6991  -18.2478 O   0  0  0  0  0  0  0  0  0  0  0  0
  -12.5997    3.4414  -17.0571 C   0  0  0  0  0  0  0  0  0  0  0  0
  -11.8614    3.9835  -16.0247 N   0  0  0  0  0  0  0  0  0  0  0  0
  -12.1814    3.3928  -14.8033 C   0  0  0  0  0  0  0  0  0  0  0  0
  -11.5855    3.6589  -13.5858 C   0  0  0  0  0  0  0  0  0  0  0  0
  -11.9956    2.8909  -12.4987 C   0  0  0  0  0  0  0  0  0  0  0  0
  -12.9465    1.8688  -12.6679 C   0  0  0  0  0  0  0  0  0  0  0  0
  -13.5373    1.6238  -13.9184 C   0  0  0  0  0  0  0  0  0  0  0  0
  -13.1837    2.4230  -14.9943 C   0  0  0  0  0  0  0  0  0  0  0  0
  -13.5782    2.4576  -16.4449 C   0  0  0  0  0  0  0  0  0  0  0  0
  -14.0668    1.2439  -17.1790 C   0  0  0  0  0  0  0  0  0  0  0  0
  -14.9799    2.4458  -17.0296 C   0  0  0  0  0  0  0  0  0  0  0  0
  -11.1325    4.6641  -16.1750 H   0  0  0  0  0  0  0  0  0  0  0  0
  -20.8676    1.1655  -13.6777 C   0  0  0  0  0  0  0  0  0  0  0  0
  -22.0540    0.7097  -14.1297 C   0  0  0  0  0  0  0  0  0  0  0  0
  -22.9246   -0.2775  -13.4662 C   0  0  0  0  0  0  0  0  0  0  0  0
  -22.7051   -0.7260  -12.1643 C   0  0  0  0  0  0  0  0  0  0  0  0
  -23.6100   -1.6183  -11.6044 C   0  0  0  0  0  0  0  0  0  0  0  0
  -24.7071   -2.0785  -12.2399 N   0  0  0  0  0  0  0  0  0  0  0  0
  -24.9131   -1.6202  -13.4925 C   0  0  0  0  0  0  0  0  0  0  0  0
  -24.0644   -0.7302  -14.1359 C   0  0  0  0  0  0  0  0  0  0  0  0
 11 12  2  0  0  0
 12 13  1  0  0  0
 12 20  1  0  0  0
 13 14  1  0  0  0
 13 23  1  0  0  0
 14 15  1  0  0  0
 14 19  2  0  0  0
 15 16  2  0  0  0
 16 17  1  0  0  0
 17 18  2  0  0  0
 18 19  1  0  0  0
 20 19  1  0  0  0
 20 21  1  0  0  0
 20 22  1  0  0  0
 21 22  1  0  0  0
 22  1  1  0  0  0
  1  2  1  0  0  0
  1  9  2  0  0  0
  2  3  2  0  0  0
  3  4  1  0  0  0
  4  5  1  0  0  0
  4  8  2  0  0  0
  5 24  1  0  0  0
  5  6  2  0  0  0
 24 25  2  0  0  0
 25 26  1  0  0  0
 26 27  1  0  0  0
 26 31  2  0  0  0
 27 28  2  0  0  0
 28 29  1  0  0  0
 29 30  2  0  0  0
 30 31  1  0  0  0
  6  7  1  0  0  0
  7  8  1  0  0  0
  7 10  1  0  0  0
  8  9  1  0  0  0
M  END
> <minimizedAffinity>
-10.58991

$$$$
