CHEMBL3589748


 32 35  0  0  0  0  0  0  0  0999 V2000
  -27.8867   -2.0738   -7.7587 C   0  0  0  0  0  0  0  0  0  0  0  0
  -28.3666   -3.3626   -7.8927 C   0  0  0  0  0  0  0  0  0  0  0  0
  -29.4333   -3.7911   -7.1424 C   0  0  0  0  0  0  0  0  0  0  0  0
  -29.9341   -3.0575   -6.0687 C   0  0  0  0  0  0  0  0  0  0  0  0
  -29.4668   -1.7556   -5.9151 C   0  0  0  0  0  0  0  0  0  0  0  0
  -28.4526   -1.2569   -6.7683 C   0  0  0  0  0  0  0  0  0  0  0  0
  -30.9162   -3.6499   -5.2365 N   0  0  0  0  0  0  0  0  0  0  0  0
  -30.4316   -4.4360   -4.3086 C   0  0  0  0  0  0  0  0  0  0  0  0
  -29.1956   -4.1443   -3.4123 C   0  0  0  0  0  0  0  0  0  0  0  0
  -28.9113   -3.0786   -2.9126 O   0  0  0  0  0  0  0  0  0  0  0  0
  -28.4699   -5.3195   -3.3817 N   0  0  0  0  0  0  0  0  0  0  0  0
  -29.0748   -6.2792   -4.1878 C   0  0  0  0  0  0  0  0  0  0  0  0
  -28.4118   -7.2944   -4.8586 C   0  0  0  0  0  0  0  0  0  0  0  0
  -29.1042   -7.9353   -5.8952 C   0  0  0  0  0  0  0  0  0  0  0  0
  -30.4415   -7.6059   -6.1794 C   0  0  0  0  0  0  0  0  0  0  0  0
  -31.0541   -8.2114   -7.2051 F   0  0  0  0  0  0  0  0  0  0  0  0
  -31.1013   -6.5810   -5.5081 C   0  0  0  0  0  0  0  0  0  0  0  0
  -30.3774   -5.9005   -4.5459 C   0  0  0  0  0  0  0  0  0  0  0  0
  -27.5332   -5.3588   -3.0060 H   0  0  0  0  0  0  0  0  0  0  0  0
  -27.8592   -2.2355  -10.6235 O   0  0  0  0  0  0  0  0  0  0  0  0
  -26.9192   -1.7456  -10.0084 C   0  0  0  0  0  0  0  0  0  0  0  0
  -26.8724   -1.5995   -8.6239 N   0  0  0  0  0  0  0  0  0  0  0  0
  -25.7907   -1.2704  -10.6350 N   0  0  0  0  0  0  0  0  0  0  0  0
  -26.1936   -0.9684   -8.2291 H   0  0  0  0  0  0  0  0  0  0  0  0
  -25.0426   -0.9393  -10.0477 H   0  0  0  0  0  0  0  0  0  0  0  0
  -25.5813   -1.2477  -12.0374 C   0  0  0  0  0  0  0  0  0  0  0  0
  -26.5261   -1.6515  -12.9916 C   0  0  0  0  0  0  0  0  0  0  0  0
  -26.2494   -1.5865  -14.3565 C   0  0  0  0  0  0  0  0  0  0  0  0
  -25.0194   -1.1191  -14.7957 C   0  0  0  0  0  0  0  0  0  0  0  0
  -24.0698   -0.7109  -13.8476 C   0  0  0  0  0  0  0  0  0  0  0  0
  -22.5505   -0.1189  -14.3798 Cl  0  0  0  0  0  0  0  0  0  0  0  0
  -24.3460   -0.7811  -12.4808 C   0  0  0  0  0  0  0  0  0  0  0  0
 20 21  2  0  0  0
 21 22  1  0  0  0
 21 23  1  0  0  0
 22  1  1  0  0  0
 22 24  1  0  0  0
  1  2  1  0  0  0
  1  6  2  0  0  0
  2  3  2  0  0  0
  3  4  1  0  0  0
  4  7  1  0  0  0
  4  5  2  0  0  0
  7  8  2  0  0  0
  8  9  1  0  0  0
  8 18  1  0  0  0
  9 10  2  0  0  0
  9 11  1  0  0  0
 11 12  1  0  0  0
 11 19  1  0  0  0
 12 13  1  0  0  0
 12 18  2  0  0  0
 13 14  2  0  0  0
 14 15  1  0  0  0
 15 16  1  0  0  0
 15 17  2  0  0  0
 17 18  1  0  0  0
  5  6  1  0  0  0
 23 26  1  0  0  0
 23 25  1  0  0  0
 26 27  1  0  0  0
 26 32  2  0  0  0
 27 28  2  0  0  0
 28 29  1  0  0  0
 29 30  2  0  0  0
 30 31  1  0  0  0
 30 32  1  0  0  0
M  END
> <minimizedAffinity>
-10.47190

$$$$
