CHEMBL2086722


 29 33  0  0  0  0  0  0  0  0999 V2000
  -28.2453   -8.1993   -5.5656 C   0  0  0  0  0  0  0  0  0  0  0  0
  -28.2635   -8.3924   -6.9058 C   0  0  0  0  0  0  0  0  0  0  0  0
  -28.8172   -7.4133   -7.9168 C   0  0  0  0  0  0  0  0  0  0  0  0
  -29.4229   -6.3761   -7.7206 O   0  0  0  0  0  0  0  0  0  0  0  0
  -28.4468   -7.9119   -9.1599 N   0  0  0  0  0  0  0  0  0  0  0  0
  -27.7697   -9.1217   -9.0478 C   0  0  0  0  0  0  0  0  0  0  0  0
  -27.2732   -9.8903  -10.0868 C   0  0  0  0  0  0  0  0  0  0  0  0
  -26.6599  -11.1007   -9.7598 C   0  0  0  0  0  0  0  0  0  0  0  0
  -26.5857  -11.5205   -8.4259 C   0  0  0  0  0  0  0  0  0  0  0  0
  -27.1015  -10.7252   -7.3953 C   0  0  0  0  0  0  0  0  0  0  0  0
  -27.6603   -9.4943   -7.7051 C   0  0  0  0  0  0  0  0  0  0  0  0
  -28.6804   -7.4462  -10.0213 H   0  0  0  0  0  0  0  0  0  0  0  0
  -27.5137   -9.1249   -4.7629 C   0  0  0  0  0  0  0  0  0  0  0  0
  -27.8873  -10.2262   -4.1434 N   0  0  0  0  0  0  0  0  0  0  0  0
  -26.7546  -10.7002   -3.5287 C   0  0  0  0  0  0  0  0  0  0  0  0
  -26.5808  -11.8457   -2.7417 C   0  0  0  0  0  0  0  0  0  0  0  0
  -25.3136  -12.1017   -2.2042 C   0  0  0  0  0  0  0  0  0  0  0  0
  -24.2386  -11.2462   -2.4638 C   0  0  0  0  0  0  0  0  0  0  0  0
  -24.3869  -10.1131   -3.2717 C   0  0  0  0  0  0  0  0  0  0  0  0
  -25.6652   -9.8737   -3.7756 C   0  0  0  0  0  0  0  0  0  0  0  0
  -26.1753   -8.8778   -4.5654 N   0  0  0  0  0  0  0  0  0  0  0  0
  -25.6591   -8.0989   -4.9477 H   0  0  0  0  0  0  0  0  0  0  0  0
  -28.0516   -3.4160   -4.0296 C   0  0  0  0  0  0  0  0  0  0  0  0
  -28.8190   -4.6942   -4.2094 C   0  0  0  0  0  0  0  0  0  0  0  0
  -30.1922   -4.7379   -3.9462 C   0  0  0  0  0  0  0  0  0  0  0  0
  -30.9061   -5.9222   -4.1250 C   0  0  0  0  0  0  0  0  0  0  0  0
  -30.2565   -7.0743   -4.5745 C   0  0  0  0  0  0  0  0  0  0  0  0
  -28.8848   -7.0501   -4.8637 C   0  0  0  0  0  0  0  0  0  0  0  0
  -28.1734   -5.8531   -4.6746 C   0  0  0  0  0  0  0  0  0  0  0  0
 23 24  1  0  0  0
 24 25  1  0  0  0
 24 29  2  0  0  0
 25 26  2  0  0  0
 26 27  1  0  0  0
 27 28  2  0  0  0
 28  1  1  0  0  0
 28 29  1  0  0  0
  1  2  2  0  0  0
  1 13  1  0  0  0
  2  3  1  0  0  0
  2 11  1  0  0  0
  3  4  2  0  0  0
  3  5  1  0  0  0
  5  6  1  0  0  0
  5 12  1  0  0  0
  6  7  1  0  0  0
  6 11  2  0  0  0
  7  8  2  0  0  0
  8  9  1  0  0  0
  9 10  2  0  0  0
 10 11  1  0  0  0
 13 14  2  0  0  0
 13 21  1  0  0  0
 14 15  1  0  0  0
 15 16  1  0  0  0
 15 20  2  0  0  0
 16 17  2  0  0  0
 17 18  1  0  0  0
 18 19  2  0  0  0
 19 20  1  0  0  0
 20 21  1  0  0  0
 21 22  1  0  0  0
M  END
> <minimizedAffinity>
-8.27470

$$$$
