CHEMBL3358994


 27 29  0  0  0  0  0  0  0  0999 V2000
  -29.1244   12.3076  -11.2514 C   0  0  0  0  0  0  0  0  0  0  0  0
  -30.4051   12.0803  -11.3904 N   0  0  0  0  0  0  0  0  0  0  0  0
  -31.2076   12.1105  -10.2672 C   0  0  0  0  0  0  0  0  0  0  0  0
  -30.7398   12.4306   -9.0457 C   0  0  0  0  0  0  0  0  0  0  0  0
  -29.4095   12.6578   -8.8452 N   0  0  0  0  0  0  0  0  0  0  0  0
  -28.4950   12.5463   -9.8613 C   0  0  0  0  0  0  0  0  0  0  0  0
  -27.2917   12.6211   -9.6733 O   0  0  0  0  0  0  0  0  0  0  0  0
  -29.0440   12.8356   -7.9184 H   0  0  0  0  0  0  0  0  0  0  0  0
  -32.6490   11.8006  -10.4569 C   0  0  0  0  0  0  0  0  0  0  0  0
  -33.6306   12.6542   -9.9244 C   0  0  0  0  0  0  0  0  0  0  0  0
  -34.9913   12.4025  -10.1242 C   0  0  0  0  0  0  0  0  0  0  0  0
  -35.3921   11.2923  -10.8642 C   0  0  0  0  0  0  0  0  0  0  0  0
  -34.4303   10.4441  -11.4046 C   0  0  0  0  0  0  0  0  0  0  0  0
  -34.9168    9.0752  -12.3278 Cl  0  0  0  0  0  0  0  0  0  0  0  0
  -33.0716   10.6949  -11.2124 C   0  0  0  0  0  0  0  0  0  0  0  0
  -27.9942   12.1502  -14.8859 C   0  0  0  0  0  0  0  0  0  0  0  0
  -28.8034   12.1329  -13.7421 C   0  0  0  0  0  0  0  0  0  0  0  0
  -28.2697   12.3528  -12.4710 C   0  0  0  0  0  0  0  0  0  0  0  0
  -26.8910   12.5342  -12.3290 C   0  0  0  0  0  0  0  0  0  0  0  0
  -26.0578   12.4995  -13.4520 C   0  0  0  0  0  0  0  0  0  0  0  0
  -26.6069   12.3432  -14.7432 C   0  0  0  0  0  0  0  0  0  0  0  0
  -29.1523   10.6384  -16.3206 C   0  0  0  0  0  0  0  0  0  0  0  0
  -28.5051   11.8951  -16.1339 O   0  0  0  0  0  0  0  0  0  0  0  0
  -24.6930   12.6583  -13.3645 O   0  0  0  0  0  0  0  0  0  0  0  0
  -24.0651   11.9656  -12.2897 C   0  0  0  0  0  0  0  0  0  0  0  0
  -25.6887   12.3156  -15.7678 O   0  0  0  0  0  0  0  0  0  0  0  0
  -25.2765   11.0366  -16.2316 C   0  0  0  0  0  0  0  0  0  0  0  0
 22 23  1  0  0  0
 23 16  1  0  0  0
 16 17  1  0  0  0
 16 21  2  0  0  0
 17 18  2  0  0  0
 18  1  1  0  0  0
 18 19  1  0  0  0
  1  2  2  0  0  0
  1  6  1  0  0  0
  2  3  1  0  0  0
  3  9  1  0  0  0
  3  4  2  0  0  0
  9 10  1  0  0  0
  9 15  2  0  0  0
 10 11  2  0  0  0
 11 12  1  0  0  0
 12 13  2  0  0  0
 13 14  1  0  0  0
 13 15  1  0  0  0
  4  5  1  0  0  0
  5  6  1  0  0  0
  5  8  1  0  0  0
  6  7  2  0  0  0
 19 20  2  0  0  0
 20 24  1  0  0  0
 20 21  1  0  0  0
 24 25  1  0  0  0
 21 26  1  0  0  0
 26 27  1  0  0  0
M  END
> <minimizedAffinity>
-5.26516

$$$$
