CHEMBL3928239


 34 38  0  0  0  0  0  0  0  0999 V2000
  -29.0391   -9.4229   -5.9070 N   0  0  0  0  0  0  0  0  0  0  0  0
  -29.1491   -7.9747   -5.8402 C   0  0  0  0  0  0  0  0  0  0  0  0
  -30.0274   -7.4825   -6.7765 C   0  0  0  0  0  0  0  0  0  0  0  0
  -29.8348   -6.2528   -7.3021 C   0  0  0  0  0  0  0  0  0  0  0  0
  -28.9655   -5.3517   -6.7711 C   0  0  0  0  0  0  0  0  0  0  0  0
  -28.7092   -4.4201   -7.6656 N   0  0  0  0  0  0  0  0  0  0  0  0
  -28.3297   -3.2440   -7.2093 C   0  0  0  0  0  0  0  0  0  0  0  0
  -28.3448   -2.9030   -5.8734 C   0  0  0  0  0  0  0  0  0  0  0  0
  -28.3172   -3.9844   -4.9586 N   0  0  0  0  0  0  0  0  0  0  0  0
  -28.5480   -5.3987   -5.4493 C   0  0  0  0  0  0  0  0  0  0  0  0
  -28.5048   -6.9157   -5.0758 C   0  0  0  0  0  0  0  0  0  0  0  0
  -28.7720   -1.4514   -5.7430 C   0  0  0  0  0  0  0  0  0  0  0  0
  -27.8559   -0.4292   -5.2625 C   0  0  0  0  0  0  0  0  0  0  0  0
  -28.3972    0.7464   -5.0089 N   0  0  0  0  0  0  0  0  0  0  0  0
  -29.6680    0.5906   -5.3773 N   0  0  0  0  0  0  0  0  0  0  0  0
  -30.4905    1.7834   -5.2743 C   0  0  0  0  0  0  0  0  0  0  0  0
  -29.9575   -0.7146   -5.7967 C   0  0  0  0  0  0  0  0  0  0  0  0
  -31.3516  -11.8150   -7.7625 C   0  0  0  0  0  0  0  0  0  0  0  0
  -30.4882  -12.2813   -8.7462 C   0  0  0  0  0  0  0  0  0  0  0  0
  -29.1716  -11.8370   -8.7809 C   0  0  0  0  0  0  0  0  0  0  0  0
  -28.6953  -10.9313   -7.8174 C   0  0  0  0  0  0  0  0  0  0  0  0
  -29.5276  -10.3898   -6.8366 C   0  0  0  0  0  0  0  0  0  0  0  0
  -30.8567  -10.9061   -6.8050 C   0  0  0  0  0  0  0  0  0  0  0  0
  -33.3297  -11.8257   -6.4194 C   0  0  0  0  0  0  0  0  0  0  0  0
  -32.6719  -12.1757   -7.6426 O   0  0  0  0  0  0  0  0  0  0  0  0
  -28.2429  -12.2187   -9.7134 O   0  0  0  0  0  0  0  0  0  0  0  0
  -27.4291  -11.1744  -10.2515 C   0  0  0  0  0  0  0  0  0  0  0  0
  -28.5787  -10.0098   -4.5710 C   0  0  0  0  0  0  0  0  0  0  0  0
  -27.1357  -10.4818   -4.3290 C   0  0  0  0  0  0  0  0  0  0  0  0
  -26.4838  -11.6139   -4.8194 C   0  0  0  0  0  0  0  0  0  0  0  0
  -25.0954  -11.7806   -4.6634 C   0  0  0  0  0  0  0  0  0  0  0  0
  -24.3739  -10.8193   -3.9794 C   0  0  0  0  0  0  0  0  0  0  0  0
  -24.9556   -9.7489   -3.4327 N   0  0  0  0  0  0  0  0  0  0  0  0
  -26.3067   -9.5935   -3.6246 C   0  0  0  0  0  0  0  0  0  0  0  0
 24 25  1  0  0  0
 25 18  1  0  0  0
 18 19  1  0  0  0
 18 23  2  0  0  0
 19 20  2  0  0  0
 20 26  1  0  0  0
 20 21  1  0  0  0
 26 27  1  0  0  0
 21 22  2  0  0  0
 22  1  1  0  0  0
 22 23  1  0  0  0
  1 28  1  0  0  0
  1  2  1  0  0  0
 28 29  1  0  0  0
 29 30  1  0  0  0
 29 34  2  0  0  0
 30 31  2  0  0  0
 31 32  1  0  0  0
 32 33  2  0  0  0
 33 34  1  0  0  0
  2  3  1  0  0  0
  2 11  2  0  0  0
  3  4  2  0  0  0
  4  5  1  0  0  0
  5  6  1  0  0  0
  5 10  2  0  0  0
  6  7  2  0  0  0
  7  8  1  0  0  0
  8 12  1  0  0  0
  8  9  2  0  0  0
 12 13  1  0  0  0
 12 17  2  0  0  0
 13 14  2  0  0  0
 14 15  1  0  0  0
 15 16  1  0  0  0
 15 17  1  0  0  0
  9 10  1  0  0  0
 10 11  1  0  0  0
M  END
> <minimizedAffinity>
-7.03758

$$$$
