CHEMBL3904510


 42 46  0  0  0  0  0  0  0  0999 V2000
  -17.7003    1.0171  -14.9839 C   0  0  0  0  0  0  0  0  0  0  0  0
  -19.0076    0.5664  -14.7715 C   0  0  0  0  0  0  0  0  0  0  0  0
  -20.0844    1.4717  -14.6049 C   0  0  0  0  0  0  0  0  0  0  0  0
  -21.4134    1.1273  -14.3282 C   0  0  0  0  0  0  0  0  0  0  0  0
  -22.3872    2.0543  -14.2101 N   0  0  0  0  0  0  0  0  0  0  0  0
  -22.0362    3.3297  -14.3678 C   0  0  0  0  0  0  0  0  0  0  0  0
  -20.8085    3.7676  -14.6417 N   0  0  0  0  0  0  0  0  0  0  0  0
  -19.8580    2.8375  -14.7533 C   0  0  0  0  0  0  0  0  0  0  0  0
  -18.5771    3.2637  -15.0305 C   0  0  0  0  0  0  0  0  0  0  0  0
  -17.4742    2.3922  -15.0732 C   0  0  0  0  0  0  0  0  0  0  0  0
  -16.0318   -0.4151  -14.0175 C   0  0  0  0  0  0  0  0  0  0  0  0
  -16.8058   -0.0027  -15.1351 O   0  0  0  0  0  0  0  0  0  0  0  0
  -21.7628   -0.2382  -14.1603 N   0  0  0  0  0  0  0  0  0  0  0  0
  -20.9295   -0.7743  -13.9378 H   0  0  0  0  0  0  0  0  0  0  0  0
  -22.9165   -0.6534  -13.4644 C   0  0  0  0  0  0  0  0  0  0  0  0
  -22.8615   -0.8801  -12.0805 C   0  0  0  0  0  0  0  0  0  0  0  0
  -23.9694   -1.3577  -11.3840 C   0  0  0  0  0  0  0  0  0  0  0  0
  -25.1598   -1.6031  -12.0686 C   0  0  0  0  0  0  0  0  0  0  0  0
  -26.4833   -2.2431  -11.1625 Cl  0  0  0  0  0  0  0  0  0  0  0  0
  -25.2391   -1.3363  -13.4435 C   0  0  0  0  0  0  0  0  0  0  0  0
  -26.6850   -1.6144  -14.3487 Cl  0  0  0  0  0  0  0  0  0  0  0  0
  -24.1255   -0.8512  -14.1313 C   0  0  0  0  0  0  0  0  0  0  0  0
  -16.1961    2.8609  -15.2314 O   0  0  0  0  0  0  0  0  0  0  0  0
  -15.7444    2.9464  -16.5921 C   0  0  0  0  0  0  0  0  0  0  0  0
  -14.3846    3.5004  -16.7682 C   0  0  0  0  0  0  0  0  0  0  0  0
  -13.3942    2.9193  -17.4547 N   0  0  0  0  0  0  0  0  0  0  0  0
  -12.3712    3.8715  -17.3866 O   0  0  0  0  0  0  0  0  0  0  0  0
  -12.8770    4.9361  -16.6907 C   0  0  0  0  0  0  0  0  0  0  0  0
  -14.1104    4.7550  -16.2862 N   0  0  0  0  0  0  0  0  0  0  0  0
  -12.0884    6.1991  -16.6658 C   0  0  0  0  0  0  0  0  0  0  0  0
  -12.2642    6.8533  -15.2886 C   0  0  0  0  0  0  0  0  0  0  0  0
  -11.3936    8.0903  -15.1435 C   0  0  0  0  0  0  0  0  0  0  0  0
  -11.6288    9.0532  -16.3055 C   0  0  0  0  0  0  0  0  0  0  0  0
  -11.4644    8.3662  -17.6628 C   0  0  0  0  0  0  0  0  0  0  0  0
  -12.3159    7.1806  -17.7453 N   0  0  0  0  0  0  0  0  0  0  0  0
  -13.1069    6.8856  -18.8450 C   0  0  0  0  0  0  0  0  0  0  0  0
  -13.7710    5.8632  -18.9350 O   0  0  0  0  0  0  0  0  0  0  0  0
  -13.0982    7.8424  -19.8202 O   0  0  0  0  0  0  0  0  0  0  0  0
  -14.3382    8.5626  -20.0921 C   0  0  0  0  0  0  0  0  0  0  0  0
  -15.2854    8.5344  -18.8807 C   0  0  0  0  0  0  0  0  0  0  0  0
  -13.9429   10.0281  -20.3401 C   0  0  0  0  0  0  0  0  0  0  0  0
  -15.0226    8.0467  -21.3692 C   0  0  0  0  0  0  0  0  0  0  0  0
 11 12  1  0  0  0
 12  1  1  0  0  0
  1  2  1  0  0  0
  1 10  2  0  0  0
  2  3  2  0  0  0
  3  4  1  0  0  0
  3  8  1  0  0  0
  4 13  1  0  0  0
  4  5  2  0  0  0
 13 15  1  0  0  0
 13 14  1  0  0  0
 15 16  1  0  0  0
 15 22  2  0  0  0
 16 17  2  0  0  0
 17 18  1  0  0  0
 18 19  1  0  0  0
 18 20  2  0  0  0
 20 21  1  0  0  0
 20 22  1  0  0  0
  5  6  1  0  0  0
  6  7  2  0  0  0
  7  8  1  0  0  0
  8  9  2  0  0  0
  9 10  1  0  0  0
 10 23  1  0  0  0
 23 24  1  0  0  0
 24 25  1  0  0  0
 25 26  2  0  0  0
 25 29  1  0  0  0
 26 27  1  0  0  0
 27 28  1  0  0  0
 28 30  1  0  0  0
 28 29  2  0  0  0
 30 31  1  0  0  0
 30 35  1  0  0  0
 31 32  1  0  0  0
 32 33  1  0  0  0
 33 34  1  0  0  0
 34 35  1  0  0  0
 35 36  1  0  0  0
 36 37  2  0  0  0
 36 38  1  0  0  0
 38 39  1  0  0  0
 39 40  1  0  0  0
 39 41  1  0  0  0
 39 42  1  0  0  0
M  END
> <minimizedAffinity>
-8.96072

$$$$
