CHEMBL1269858


 38 43  0  0  0  0  0  0  0  0999 V2000
  -15.0936    0.6535  -13.2726 N   0  0  0  0  0  0  0  0  0  0  0  0
  -15.6268    0.3821  -12.4573 H   0  0  0  0  0  0  0  0  0  0  0  0
  -13.0927   -2.3309  -13.0948 C   0  0  0  0  0  0  0  0  0  0  0  0
  -11.9775   -1.9414  -13.8229 C   0  0  0  0  0  0  0  0  0  0  0  0
  -11.9565   -0.6613  -14.3099 C   0  0  0  0  0  0  0  0  0  0  0  0
  -12.9580    0.1982  -14.1485 N   0  0  0  0  0  0  0  0  0  0  0  0
  -14.0336   -0.2335  -13.4731 C   0  0  0  0  0  0  0  0  0  0  0  0
  -14.1162   -1.4652  -12.9359 N   0  0  0  0  0  0  0  0  0  0  0  0
  -12.0655   -4.0954  -11.6974 C   0  0  0  0  0  0  0  0  0  0  0  0
  -13.1742   -3.6387  -12.5361 N   0  0  0  0  0  0  0  0  0  0  0  0
  -14.3835   -4.3777  -12.4373 C   0  0  0  0  0  0  0  0  0  0  0  0
  -15.3739   -4.0940  -11.4640 C   0  0  0  0  0  0  0  0  0  0  0  0
  -16.6237   -4.7276  -11.4373 C   0  0  0  0  0  0  0  0  0  0  0  0
  -16.9790   -5.6531  -12.4148 C   0  0  0  0  0  0  0  0  0  0  0  0
  -15.9952   -5.9734  -13.3486 C   0  0  0  0  0  0  0  0  0  0  0  0
  -16.0208   -6.7900  -14.4486 N   0  0  0  0  0  0  0  0  0  0  0  0
  -14.8148   -7.0175  -14.9905 N   0  0  0  0  0  0  0  0  0  0  0  0
  -14.0217   -6.1801  -14.3143 C   0  0  0  0  0  0  0  0  0  0  0  0
  -14.7127   -5.4285  -13.3285 C   0  0  0  0  0  0  0  0  0  0  0  0
  -16.8304   -7.2208  -14.8777 H   0  0  0  0  0  0  0  0  0  0  0  0
  -15.8136    1.3460  -14.2673 C   0  0  0  0  0  0  0  0  0  0  0  0
  -15.1785    2.0279  -15.3085 C   0  0  0  0  0  0  0  0  0  0  0  0
  -15.8896    2.7300  -16.2897 C   0  0  0  0  0  0  0  0  0  0  0  0
  -17.2860    2.7241  -16.2021 C   0  0  0  0  0  0  0  0  0  0  0  0
  -17.9824    2.0357  -15.1966 C   0  0  0  0  0  0  0  0  0  0  0  0
  -17.2111    1.3524  -14.2364 C   0  0  0  0  0  0  0  0  0  0  0  0
  -15.2039    3.3194  -17.3365 N   0  0  0  0  0  0  0  0  0  0  0  0
  -15.3060    4.7564  -17.6082 C   0  0  0  0  0  0  0  0  0  0  0  0
  -15.0885    4.9659  -19.1155 C   0  0  0  0  0  0  0  0  0  0  0  0
  -13.8195    4.4374  -19.5462 O   0  0  0  0  0  0  0  0  0  0  0  0
  -13.7366    3.0269  -19.2586 C   0  0  0  0  0  0  0  0  0  0  0  0
  -13.9189    2.7438  -17.7613 C   0  0  0  0  0  0  0  0  0  0  0  0
  -19.3610    1.9944  -15.1831 N   0  0  0  0  0  0  0  0  0  0  0  0
  -20.1698    3.2114  -15.3080 C   0  0  0  0  0  0  0  0  0  0  0  0
  -21.2335    3.2176  -14.2000 C   0  0  0  0  0  0  0  0  0  0  0  0
  -22.0474    2.0331  -14.2378 O   0  0  0  0  0  0  0  0  0  0  0  0
  -21.2309    0.8618  -14.0574 C   0  0  0  0  0  0  0  0  0  0  0  0
  -20.1438    0.7509  -15.1395 C   0  0  0  0  0  0  0  0  0  0  0  0
  9 10  1  0  0  0
 10  3  1  0  0  0
 10 11  1  0  0  0
  3  4  1  0  0  0
  3  8  2  0  0  0
  4  5  2  0  0  0
  5  6  1  0  0  0
  6  7  2  0  0  0
  7  1  1  0  0  0
  7  8  1  0  0  0
  1 21  1  0  0  0
  1  2  1  0  0  0
 21 22  1  0  0  0
 21 26  2  0  0  0
 22 23  2  0  0  0
 23 27  1  0  0  0
 23 24  1  0  0  0
 27 28  1  0  0  0
 27 32  1  0  0  0
 28 29  1  0  0  0
 29 30  1  0  0  0
 30 31  1  0  0  0
 31 32  1  0  0  0
 24 25  2  0  0  0
 25 33  1  0  0  0
 25 26  1  0  0  0
 33 34  1  0  0  0
 33 38  1  0  0  0
 34 35  1  0  0  0
 35 36  1  0  0  0
 36 37  1  0  0  0
 37 38  1  0  0  0
 11 12  1  0  0  0
 11 19  2  0  0  0
 12 13  2  0  0  0
 13 14  1  0  0  0
 14 15  2  0  0  0
 15 16  1  0  0  0
 15 19  1  0  0  0
 16 17  1  0  0  0
 16 20  1  0  0  0
 17 18  2  0  0  0
 18 19  1  0  0  0
M  END
> <minimizedAffinity>
-9.42871

$$$$
