CHEMBL3690463


 33 36  0  0  0  0  0  0  0  0999 V2000
  -28.2605   -8.3885   -4.7484 C   0  0  0  0  0  0  0  0  0  0  0  0
  -29.0605   -9.4363   -4.2652 C   0  0  0  0  0  0  0  0  0  0  0  0
  -28.4947  -10.5145   -3.5974 C   0  0  0  0  0  0  0  0  0  0  0  0
  -27.1119  -10.5994   -3.4530 C   0  0  0  0  0  0  0  0  0  0  0  0
  -26.2806   -9.6112   -3.9761 C   0  0  0  0  0  0  0  0  0  0  0  0
  -26.8666   -8.4691   -4.5457 C   0  0  0  0  0  0  0  0  0  0  0  0
  -28.7136   -3.1274   -5.1752 C   0  0  0  0  0  0  0  0  0  0  0  0
  -27.8850   -3.9085   -4.2500 C   0  0  0  0  0  0  0  0  0  0  0  0
  -27.8718   -5.2462   -4.3184 C   0  0  0  0  0  0  0  0  0  0  0  0
  -28.7069   -5.9050   -5.2175 N   0  0  0  0  0  0  0  0  0  0  0  0
  -28.9131   -7.2629   -5.4383 C   0  0  0  0  0  0  0  0  0  0  0  0
  -29.8158   -7.2849   -6.4940 C   0  0  0  0  0  0  0  0  0  0  0  0
  -30.1947   -6.0295   -6.8888 N   0  0  0  0  0  0  0  0  0  0  0  0
  -29.5304   -5.2105   -6.1033 C   0  0  0  0  0  0  0  0  0  0  0  0
  -29.5122   -3.7836   -6.0529 C   0  0  0  0  0  0  0  0  0  0  0  0
  -30.9550    1.1259   -6.0000 C   0  0  0  0  0  0  0  0  0  0  0  0
  -29.7384    0.3757   -5.5600 C   0  0  0  0  0  0  0  0  0  0  0  0
  -28.5993    1.0472   -5.1284 C   0  0  0  0  0  0  0  0  0  0  0  0
  -27.4813    0.4092   -4.7265 N   0  0  0  0  0  0  0  0  0  0  0  0
  -27.5508   -0.9421   -4.7706 C   0  0  0  0  0  0  0  0  0  0  0  0
  -28.6837   -1.6435   -5.1832 C   0  0  0  0  0  0  0  0  0  0  0  0
  -29.7950   -0.9816   -5.5929 N   0  0  0  0  0  0  0  0  0  0  0  0
  -24.8627   -9.7358   -3.9649 N   0  0  0  0  0  0  0  0  0  0  0  0
  -24.1518  -10.4690   -4.8883 C   0  0  0  0  0  0  0  0  0  0  0  0
  -24.6129  -11.0693   -5.8579 O   0  0  0  0  0  0  0  0  0  0  0  0
  -22.8016  -10.5291   -4.6307 N   0  0  0  0  0  0  0  0  0  0  0  0
  -24.3458   -9.0734   -3.4060 H   0  0  0  0  0  0  0  0  0  0  0  0
  -22.3786   -9.8165   -4.0552 H   0  0  0  0  0  0  0  0  0  0  0  0
  -21.9473  -11.2824   -5.5602 C   0  0  0  0  0  0  0  0  0  0  0  0
  -21.5408  -10.5693   -6.8611 C   0  0  0  0  0  0  0  0  0  0  0  0
  -21.9291  -11.2481   -7.9647 F   0  0  0  0  0  0  0  0  0  0  0  0
  -22.1398   -9.3520   -6.9207 F   0  0  0  0  0  0  0  0  0  0  0  0
  -20.2099  -10.3601   -6.9407 F   0  0  0  0  0  0  0  0  0  0  0  0
 16 17  1  0  0  0
 17 18  1  0  0  0
 17 22  2  0  0  0
 18 19  2  0  0  0
 19 20  1  0  0  0
 20 21  2  0  0  0
 21  7  1  0  0  0
 21 22  1  0  0  0
  7  8  1  0  0  0
  7 15  2  0  0  0
  8  9  2  0  0  0
  9 10  1  0  0  0
 10 11  1  0  0  0
 10 14  1  0  0  0
 11  1  1  0  0  0
 11 12  2  0  0  0
  1  2  1  0  0  0
  1  6  2  0  0  0
  2  3  2  0  0  0
  3  4  1  0  0  0
  4  5  2  0  0  0
  5 23  1  0  0  0
  5  6  1  0  0  0
 23 24  1  0  0  0
 23 27  1  0  0  0
 24 25  2  0  0  0
 24 26  1  0  0  0
 26 29  1  0  0  0
 26 28  1  0  0  0
 29 30  1  0  0  0
 30 31  1  0  0  0
 30 32  1  0  0  0
 30 33  1  0  0  0
 12 13  1  0  0  0
 13 14  2  0  0  0
 14 15  1  0  0  0
M  END
> <minimizedAffinity>
-8.98424

$$$$
