CHEMBL3937857


 36 40  0  0  0  0  0  0  0  0999 V2000
  -28.3153   11.2541  -15.8208 C   0  0  0  0  0  0  0  0  0  0  0  0
  -26.9986   10.8115  -15.9413 C   0  0  0  0  0  0  0  0  0  0  0  0
  -25.9911   11.2804  -15.0627 C   0  0  0  0  0  0  0  0  0  0  0  0
  -24.6255   11.0114  -15.1916 C   0  0  0  0  0  0  0  0  0  0  0  0
  -23.7189   11.4509  -14.2959 N   0  0  0  0  0  0  0  0  0  0  0  0
  -24.1738   12.1769  -13.2760 C   0  0  0  0  0  0  0  0  0  0  0  0
  -25.4477   12.5121  -13.0701 N   0  0  0  0  0  0  0  0  0  0  0  0
  -26.3290   12.0654  -13.9666 C   0  0  0  0  0  0  0  0  0  0  0  0
  -27.6477   12.4337  -13.8052 C   0  0  0  0  0  0  0  0  0  0  0  0
  -28.6318   12.1056  -14.7501 C   0  0  0  0  0  0  0  0  0  0  0  0
  -29.1305    9.7868  -17.5346 C   0  0  0  0  0  0  0  0  0  0  0  0
  -29.3131   10.9302  -16.7001 O   0  0  0  0  0  0  0  0  0  0  0  0
  -24.1646   10.2913  -16.3281 N   0  0  0  0  0  0  0  0  0  0  0  0
  -24.8904    9.6479  -16.6303 H   0  0  0  0  0  0  0  0  0  0  0  0
  -23.4855   10.9176  -17.3923 C   0  0  0  0  0  0  0  0  0  0  0  0
  -24.2174   11.5749  -18.3890 C   0  0  0  0  0  0  0  0  0  0  0  0
  -23.5851   12.1122  -19.5065 C   0  0  0  0  0  0  0  0  0  0  0  0
  -22.2012   12.0143  -19.6301 C   0  0  0  0  0  0  0  0  0  0  0  0
  -21.4829   12.6465  -21.0669 Cl  0  0  0  0  0  0  0  0  0  0  0  0
  -21.4523   11.4070  -18.6143 C   0  0  0  0  0  0  0  0  0  0  0  0
  -19.7312   11.2668  -18.6959 Cl  0  0  0  0  0  0  0  0  0  0  0  0
  -22.0933   10.8686  -17.4914 C   0  0  0  0  0  0  0  0  0  0  0  0
  -29.9059   12.6235  -14.6745 O   0  0  0  0  0  0  0  0  0  0  0  0
  -30.6396   12.1816  -13.5170 C   0  0  0  0  0  0  0  0  0  0  0  0
  -32.0071   11.7301  -13.8460 C   0  0  0  0  0  0  0  0  0  0  0  0
  -32.9067   12.5261  -14.4357 N   0  0  0  0  0  0  0  0  0  0  0  0
  -34.0190   11.7003  -14.5558 O   0  0  0  0  0  0  0  0  0  0  0  0
  -33.6840   10.4920  -14.0048 C   0  0  0  0  0  0  0  0  0  0  0  0
  -32.4685   10.4888  -13.5022 N   0  0  0  0  0  0  0  0  0  0  0  0
  -34.5634    9.3117  -14.0056 C   0  0  0  0  0  0  0  0  0  0  0  0
  -35.0751    8.5771  -15.0992 C   0  0  0  0  0  0  0  0  0  0  0  0
  -34.8605    8.7707  -16.5510 C   0  0  0  0  0  0  0  0  0  0  0  0
  -35.8203    7.5509  -14.6679 N   0  0  0  0  0  0  0  0  0  0  0  0
  -35.7838    7.6035  -13.2837 O   0  0  0  0  0  0  0  0  0  0  0  0
  -35.0218    8.6586  -12.8883 C   0  0  0  0  0  0  0  0  0  0  0  0
  -34.8569    8.8597  -11.4352 C   0  0  0  0  0  0  0  0  0  0  0  0
 11 12  1  0  0  0
 12  1  1  0  0  0
  1  2  1  0  0  0
  1 10  2  0  0  0
  2  3  2  0  0  0
  3  4  1  0  0  0
  3  8  1  0  0  0
  4 13  1  0  0  0
  4  5  2  0  0  0
 13 15  1  0  0  0
 13 14  1  0  0  0
 15 16  1  0  0  0
 15 22  2  0  0  0
 16 17  2  0  0  0
 17 18  1  0  0  0
 18 19  1  0  0  0
 18 20  2  0  0  0
 20 21  1  0  0  0
 20 22  1  0  0  0
  5  6  1  0  0  0
  6  7  2  0  0  0
  7  8  1  0  0  0
  8  9  2  0  0  0
  9 10  1  0  0  0
 10 23  1  0  0  0
 23 24  1  0  0  0
 24 25  1  0  0  0
 25 26  2  0  0  0
 25 29  1  0  0  0
 26 27  1  0  0  0
 27 28  1  0  0  0
 28 30  1  0  0  0
 28 29  2  0  0  0
 30 31  1  0  0  0
 30 35  2  0  0  0
 31 32  1  0  0  0
 31 33  2  0  0  0
 33 34  1  0  0  0
 34 35  1  0  0  0
 35 36  1  0  0  0
M  END
> <minimizedAffinity>
-6.60586

$$$$
