CHEMBL1254836


 30 33  0  0  0  0  0  0  0  0999 V2000
  -23.0729   -0.8953  -13.5531 C   0  0  0  0  0  0  0  0  0  0  0  0
  -22.8792   -1.2093  -12.2129 C   0  0  0  0  0  0  0  0  0  0  0  0
  -23.9193   -1.7438  -11.4546 C   0  0  0  0  0  0  0  0  0  0  0  0
  -25.1890   -1.9279  -11.9936 C   0  0  0  0  0  0  0  0  0  0  0  0
  -25.4035   -1.5612  -13.3308 C   0  0  0  0  0  0  0  0  0  0  0  0
  -24.3484   -1.0453  -14.1030 C   0  0  0  0  0  0  0  0  0  0  0  0
  -26.2651   -2.4953  -11.2574 N   0  0  0  0  0  0  0  0  0  0  0  0
  -26.7034   -2.0621  -10.0158 C   0  0  0  0  0  0  0  0  0  0  0  0
  -26.3047   -1.0613   -9.4318 O   0  0  0  0  0  0  0  0  0  0  0  0
  -27.6277   -2.9342   -9.4564 N   0  0  0  0  0  0  0  0  0  0  0  0
  -26.8339   -3.1852  -11.7253 H   0  0  0  0  0  0  0  0  0  0  0  0
  -27.4601   -3.9083   -9.6646 H   0  0  0  0  0  0  0  0  0  0  0  0
  -28.2063   -2.6477   -8.1948 C   0  0  0  0  0  0  0  0  0  0  0  0
  -29.1459   -3.5375   -7.6663 C   0  0  0  0  0  0  0  0  0  0  0  0
  -29.6827   -3.3175   -6.3938 C   0  0  0  0  0  0  0  0  0  0  0  0
  -29.3158   -2.1843   -5.6686 C   0  0  0  0  0  0  0  0  0  0  0  0
  -28.4048   -1.2894   -6.2120 C   0  0  0  0  0  0  0  0  0  0  0  0
  -28.0651   -0.1952   -5.5175 F   0  0  0  0  0  0  0  0  0  0  0  0
  -27.8412   -1.5129   -7.4622 C   0  0  0  0  0  0  0  0  0  0  0  0
  -22.0879   -0.3764  -14.3640 O   0  0  0  0  0  0  0  0  0  0  0  0
  -19.2363   -0.4061  -15.4910 C   0  0  0  0  0  0  0  0  0  0  0  0
  -19.4612    0.9926  -15.2009 N   0  0  0  0  0  0  0  0  0  0  0  0
  -18.5362    1.9879  -15.4061 C   0  0  0  0  0  0  0  0  0  0  0  0
  -19.1206    3.1865  -15.0568 C   0  0  0  0  0  0  0  0  0  0  0  0
  -20.4332    2.9025  -14.6172 C   0  0  0  0  0  0  0  0  0  0  0  0
  -21.3828    3.7585  -14.1865 N   0  0  0  0  0  0  0  0  0  0  0  0
  -22.5156    3.1508  -13.8160 C   0  0  0  0  0  0  0  0  0  0  0  0
  -22.7862    1.8353  -13.8264 N   0  0  0  0  0  0  0  0  0  0  0  0
  -21.8447    0.9929  -14.3103 C   0  0  0  0  0  0  0  0  0  0  0  0
  -20.6240    1.5275  -14.6979 C   0  0  0  0  0  0  0  0  0  0  0  0
 21 22  1  0  0  0
 22 23  1  0  0  0
 22 30  1  0  0  0
 23 24  2  0  0  0
 24 25  1  0  0  0
 25 26  1  0  0  0
 25 30  2  0  0  0
 26 27  2  0  0  0
 27 28  1  0  0  0
 28 29  2  0  0  0
 29 20  1  0  0  0
 29 30  1  0  0  0
 20  1  1  0  0  0
  1  2  1  0  0  0
  1  6  2  0  0  0
  2  3  2  0  0  0
  3  4  1  0  0  0
  4  7  1  0  0  0
  4  5  2  0  0  0
  7  8  1  0  0  0
  7 11  1  0  0  0
  8  9  2  0  0  0
  8 10  1  0  0  0
 10 13  1  0  0  0
 10 12  1  0  0  0
 13 14  1  0  0  0
 13 19  2  0  0  0
 14 15  2  0  0  0
 15 16  1  0  0  0
 16 17  2  0  0  0
 17 18  1  0  0  0
 17 19  1  0  0  0
  5  6  1  0  0  0
M  END
> <minimizedAffinity>
-10.62436

$$$$
