CHEMBL538361


 29 33  0  0  0  0  0  0  0  0999 V2000
  -29.4493   -3.8949   -5.7009 C   0  0  0  0  0  0  0  0  0  0  0  0
  -29.3315   -4.4204   -7.0058 C   0  0  0  0  0  0  0  0  0  0  0  0
  -28.6862   -3.7331   -8.0486 C   0  0  0  0  0  0  0  0  0  0  0  0
  -28.1835   -2.4467   -7.8032 C   0  0  0  0  0  0  0  0  0  0  0  0
  -27.4961   -1.4468   -8.5375 C   0  0  0  0  0  0  0  0  0  0  0  0
  -27.2461   -0.3509   -7.8023 N   0  0  0  0  0  0  0  0  0  0  0  0
  -27.7645   -0.6643   -6.6000 N   0  0  0  0  0  0  0  0  0  0  0  0
  -28.3121   -1.9171   -6.5292 C   0  0  0  0  0  0  0  0  0  0  0  0
  -28.8926   -2.6217   -5.4652 C   0  0  0  0  0  0  0  0  0  0  0  0
  -27.7207    0.0279   -5.8609 H   0  0  0  0  0  0  0  0  0  0  0  0
  -27.0662   -1.5477   -9.9580 C   0  0  0  0  0  0  0  0  0  0  0  0
  -25.8264   -1.4811  -10.3912 N   0  0  0  0  0  0  0  0  0  0  0  0
  -25.9071   -1.6044  -11.7553 C   0  0  0  0  0  0  0  0  0  0  0  0
  -24.8834   -1.6088  -12.7133 C   0  0  0  0  0  0  0  0  0  0  0  0
  -25.2316   -1.7524  -14.0612 C   0  0  0  0  0  0  0  0  0  0  0  0
  -26.5683   -1.8863  -14.4459 C   0  0  0  0  0  0  0  0  0  0  0  0
  -27.6037   -1.8827  -13.5025 C   0  0  0  0  0  0  0  0  0  0  0  0
  -27.2293   -1.7438  -12.1651 C   0  0  0  0  0  0  0  0  0  0  0  0
  -27.9450   -1.7066  -10.9941 N   0  0  0  0  0  0  0  0  0  0  0  0
  -28.9457   -1.7755  -10.8846 H   0  0  0  0  0  0  0  0  0  0  0  0
  -28.2983   -6.5582   -4.5564 C   0  0  0  0  0  0  0  0  0  0  0  0
  -29.5874   -5.9222   -4.0996 C   0  0  0  0  0  0  0  0  0  0  0  0
  -30.3054   -6.6202   -3.1016 C   0  0  0  0  0  0  0  0  0  0  0  0
  -31.4742   -6.0965   -2.5668 C   0  0  0  0  0  0  0  0  0  0  0  0
  -32.1707   -6.7501   -1.5958 O   0  0  0  0  0  0  0  0  0  0  0  0
  -31.9621   -4.8845   -3.0121 C   0  0  0  0  0  0  0  0  0  0  0  0
  -31.2866   -4.2041   -4.0285 C   0  0  0  0  0  0  0  0  0  0  0  0
  -30.0900   -4.6934   -4.6092 C   0  0  0  0  0  0  0  0  0  0  0  0
  -31.7260   -7.5927   -1.4088 H   0  0  0  0  0  0  0  0  0  0  0  0
 21 22  1  0  0  0
 22 23  1  0  0  0
 22 28  2  0  0  0
 23 24  2  0  0  0
 24 25  1  0  0  0
 24 26  1  0  0  0
 25 29  1  0  0  0
 26 27  2  0  0  0
 27 28  1  0  0  0
 28  1  1  0  0  0
  1  2  1  0  0  0
  1  9  2  0  0  0
  2  3  2  0  0  0
  3  4  1  0  0  0
  4  5  1  0  0  0
  4  8  2  0  0  0
  5 11  1  0  0  0
  5  6  2  0  0  0
 11 12  2  0  0  0
 11 19  1  0  0  0
 12 13  1  0  0  0
 13 14  1  0  0  0
 13 18  2  0  0  0
 14 15  2  0  0  0
 15 16  1  0  0  0
 16 17  2  0  0  0
 17 18  1  0  0  0
 18 19  1  0  0  0
 19 20  1  0  0  0
  6  7  1  0  0  0
  7  8  1  0  0  0
  7 10  1  0  0  0
  8  9  1  0  0  0
M  END
> <minimizedAffinity>
-9.60945

$$$$
