CHEMBL3586071


 34 36  0  0  0  0  0  0  0  0999 V2000
  -23.0521    0.3195  -13.1597 C   0  0  0  0  0  0  0  0  0  0  0  0
  -22.7298   -1.0221  -12.9136 C   0  0  0  0  0  0  0  0  0  0  0  0
  -23.6250   -1.8960  -12.2961 C   0  0  0  0  0  0  0  0  0  0  0  0
  -24.8736   -1.4624  -11.8613 C   0  0  0  0  0  0  0  0  0  0  0  0
  -25.2154   -0.1244  -12.0810 C   0  0  0  0  0  0  0  0  0  0  0  0
  -24.3185    0.7523  -12.7253 C   0  0  0  0  0  0  0  0  0  0  0  0
  -19.8816    1.5257  -14.8259 C   0  0  0  0  0  0  0  0  0  0  0  0
  -20.8410    0.6728  -14.2968 C   0  0  0  0  0  0  0  0  0  0  0  0
  -22.0635    1.1928  -13.8369 C   0  0  0  0  0  0  0  0  0  0  0  0
  -22.2605    2.5688  -13.9948 C   0  0  0  0  0  0  0  0  0  0  0  0
  -21.2514    3.3455  -14.5565 C   0  0  0  0  0  0  0  0  0  0  0  0
  -20.0591    2.8653  -14.9685 N   0  0  0  0  0  0  0  0  0  0  0  0
  -16.2859    1.5609  -16.0052 C   0  0  0  0  0  0  0  0  0  0  0  0
  -17.6154    1.9192  -15.5935 N   0  0  0  0  0  0  0  0  0  0  0  0
  -18.5490    0.9704  -15.2359 C   0  0  0  0  0  0  0  0  0  0  0  0
  -18.3290   -0.2358  -15.2346 O   0  0  0  0  0  0  0  0  0  0  0  0
  -17.9075    2.8916  -15.5400 H   0  0  0  0  0  0  0  0  0  0  0  0
  -25.8042   -2.3258  -11.2318 N   0  0  0  0  0  0  0  0  0  0  0  0
  -26.5037   -2.0380  -10.0706 C   0  0  0  0  0  0  0  0  0  0  0  0
  -26.5012   -0.9603   -9.4854 O   0  0  0  0  0  0  0  0  0  0  0  0
  -27.1855   -3.1465   -9.5788 N   0  0  0  0  0  0  0  0  0  0  0  0
  -26.0696   -3.1629  -11.7323 H   0  0  0  0  0  0  0  0  0  0  0  0
  -26.7288   -4.0288   -9.7609 H   0  0  0  0  0  0  0  0  0  0  0  0
  -27.9244   -3.0546   -8.3750 C   0  0  0  0  0  0  0  0  0  0  0  0
  -28.6407   -4.1645   -7.9428 C   0  0  0  0  0  0  0  0  0  0  0  0
  -29.3067   -4.1208   -6.7159 C   0  0  0  0  0  0  0  0  0  0  0  0
  -29.2988   -2.9590   -5.9293 C   0  0  0  0  0  0  0  0  0  0  0  0
  -30.1840   -3.0342   -4.4504 Cl  0  0  0  0  0  0  0  0  0  0  0  0
  -28.6051   -1.8243   -6.3546 C   0  0  0  0  0  0  0  0  0  0  0  0
  -27.9189   -1.8921   -7.5890 C   0  0  0  0  0  0  0  0  0  0  0  0
  -28.5197   -0.5332   -5.5837 C   0  0  0  0  0  0  0  0  0  0  0  0
  -27.9153   -0.5869   -4.3658 F   0  0  0  0  0  0  0  0  0  0  0  0
  -27.8522    0.4361   -6.2748 F   0  0  0  0  0  0  0  0  0  0  0  0
  -29.7595   -0.0079   -5.3396 F   0  0  0  0  0  0  0  0  0  0  0  0
 13 14  1  0  0  0
 14 15  1  0  0  0
 14 17  1  0  0  0
 15 16  2  0  0  0
 15  7  1  0  0  0
  7  8  1  0  0  0
  7 12  2  0  0  0
  8  9  2  0  0  0
  9  1  1  0  0  0
  9 10  1  0  0  0
  1  2  1  0  0  0
  1  6  2  0  0  0
  2  3  2  0  0  0
  3  4  1  0  0  0
  4 18  1  0  0  0
  4  5  2  0  0  0
 18 19  1  0  0  0
 18 22  1  0  0  0
 19 20  2  0  0  0
 19 21  1  0  0  0
 21 24  1  0  0  0
 21 23  1  0  0  0
 24 25  1  0  0  0
 24 30  2  0  0  0
 25 26  2  0  0  0
 26 27  1  0  0  0
 27 28  1  0  0  0
 27 29  2  0  0  0
 29 31  1  0  0  0
 29 30  1  0  0  0
 31 32  1  0  0  0
 31 33  1  0  0  0
 31 34  1  0  0  0
  5  6  1  0  0  0
 10 11  2  0  0  0
 11 12  1  0  0  0
M  END
> <minimizedAffinity>
-11.57947

$$$$
