CHEMBL2216906


 41 44  0  0  0  0  0  0  0  0999 V2000
  -27.4742   -9.0617   -4.5682 C   0  0  0  0  0  0  0  0  0  0  0  0
  -28.4082   -7.9006   -4.5618 N   0  0  0  0  0  0  0  0  0  0  0  0
  -28.1181   -6.4764   -4.9246 C   0  0  0  0  0  0  0  0  0  0  0  0
  -29.3271   -5.6000   -4.4889 C   0  0  0  0  0  0  0  0  0  0  0  0
  -29.8281   -5.9461   -3.0687 C   0  0  0  0  0  0  0  0  0  0  0  0
  -30.3755   -5.8665   -5.4620 O   0  0  0  0  0  0  0  0  0  0  0  0
  -30.4282   -7.1993   -5.8705 C   0  0  0  0  0  0  0  0  0  0  0  0
  -31.3698   -7.5549   -6.8366 C   0  0  0  0  0  0  0  0  0  0  0  0
  -31.4304   -8.8801   -7.3595 C   0  0  0  0  0  0  0  0  0  0  0  0
  -30.5762   -9.9013   -6.9194 C   0  0  0  0  0  0  0  0  0  0  0  0
  -29.7410   -9.5205   -5.8790 C   0  0  0  0  0  0  0  0  0  0  0  0
  -29.5527   -8.2015   -5.4157 C   0  0  0  0  0  0  0  0  0  0  0  0
  -28.8402   -4.0945   -4.4533 C   0  0  0  0  0  0  0  0  0  0  0  0
  -29.5514   -3.2187   -5.3512 O   0  0  0  0  0  0  0  0  0  0  0  0
  -28.9002   -2.7929   -6.4910 C   0  0  0  0  0  0  0  0  0  0  0  0
  -28.4130   -1.5059   -6.7368 C   0  0  0  0  0  0  0  0  0  0  0  0
  -27.7698   -1.1963   -7.9520 C   0  0  0  0  0  0  0  0  0  0  0  0
  -27.5986   -2.1721   -8.9403 C   0  0  0  0  0  0  0  0  0  0  0  0
  -28.0781   -3.4622   -8.7020 C   0  0  0  0  0  0  0  0  0  0  0  0
  -28.7227   -3.7644   -7.4871 C   0  0  0  0  0  0  0  0  0  0  0  0
  -26.9363   -1.8351  -10.2394 C   0  0  0  0  0  0  0  0  0  0  0  0
  -25.6493   -1.7482  -10.3723 N   0  0  0  0  0  0  0  0  0  0  0  0
  -27.6726   -1.5825  -11.3597 N   0  0  0  0  0  0  0  0  0  0  0  0
  -25.1598   -1.9962   -9.5094 H   0  0  0  0  0  0  0  0  0  0  0  0
  -28.5532   -1.1048  -11.2174 H   0  0  0  0  0  0  0  0  0  0  0  0
  -27.0967   -1.1360  -12.0725 H   0  0  0  0  0  0  0  0  0  0  0  0
  -30.4847  -11.2170   -7.4854 N   0  0  0  0  0  0  0  0  0  0  0  0
  -31.2847  -12.2739   -6.7516 C   0  0  0  0  0  0  0  0  0  0  0  0
  -32.7064  -11.9602   -6.2682 C   0  0  0  0  0  0  0  0  0  0  0  0
  -33.6191  -11.7313   -7.0597 O   0  0  0  0  0  0  0  0  0  0  0  0
  -32.8631  -11.8683   -4.9546 O   0  0  0  0  0  0  0  0  0  0  0  0
  -32.0218  -11.9988   -4.4787 H   0  0  0  0  0  0  0  0  0  0  0  0
  -30.5782  -11.2125   -8.9527 C   0  0  0  0  0  0  0  0  0  0  0  0
  -29.2218  -10.9555   -9.5826 C   0  0  0  0  0  0  0  0  0  0  0  0
  -29.1575  -10.3937  -10.8653 C   0  0  0  0  0  0  0  0  0  0  0  0
  -27.9249  -10.0757  -11.4344 C   0  0  0  0  0  0  0  0  0  0  0  0
  -27.8918   -9.5419  -12.6614 F   0  0  0  0  0  0  0  0  0  0  0  0
  -26.7370  -10.2916  -10.7530 C   0  0  0  0  0  0  0  0  0  0  0  0
  -26.7923  -10.8580   -9.4918 C   0  0  0  0  0  0  0  0  0  0  0  0
  -25.6597  -11.0712   -8.8099 F   0  0  0  0  0  0  0  0  0  0  0  0
  -28.0107  -11.2037   -8.9131 C   0  0  0  0  0  0  0  0  0  0  0  0
  1  2  1  0  0  0
  2  3  1  0  0  0
  2 12  1  0  0  0
  3  4  1  0  0  0
  4  5  1  0  0  0
  4 13  1  0  0  0
  4  6  1  0  0  0
 13 14  1  0  0  0
 14 15  1  0  0  0
 15 16  1  0  0  0
 15 20  2  0  0  0
 16 17  2  0  0  0
 17 18  1  0  0  0
 18 21  1  0  0  0
 18 19  2  0  0  0
 21 22  2  0  0  0
 21 23  1  0  0  0
 22 24  1  0  0  0
 23 25  1  0  0  0
 23 26  1  0  0  0
 19 20  1  0  0  0
  6  7  1  0  0  0
  7  8  1  0  0  0
  7 12  2  0  0  0
  8  9  2  0  0  0
  9 10  1  0  0  0
 10 27  1  0  0  0
 10 11  2  0  0  0
 27 28  1  0  0  0
 27 33  1  0  0  0
 28 29  1  0  0  0
 29 30  2  0  0  0
 29 31  1  0  0  0
 31 32  1  0  0  0
 33 34  1  0  0  0
 34 35  1  0  0  0
 34 41  2  0  0  0
 35 36  2  0  0  0
 36 37  1  0  0  0
 36 38  1  0  0  0
 38 39  2  0  0  0
 39 40  1  0  0  0
 39 41  1  0  0  0
 11 12  1  0  0  0
M  END
> <minimizedAffinity>
-9.36529

$$$$
