CHEMBL101924


 19 21  0  0  0  0  0  0  0  0999 V2000
  -19.6832    2.3833  -14.9351 C   0  0  0  0  0  0  0  0  0  0  0  0
  -20.3724    3.5367  -14.6210 C   0  0  0  0  0  0  0  0  0  0  0  0
  -21.6695    3.3690  -14.2081 N   0  0  0  0  0  0  0  0  0  0  0  0
  -21.9878    2.0958  -14.1540 C   0  0  0  0  0  0  0  0  0  0  0  0
  -20.7311    1.0409  -14.6965 S   0  0  0  0  0  0  0  0  0  0  0  0
  -15.6077    1.9115  -16.1486 C   0  0  0  0  0  0  0  0  0  0  0  0
  -16.2903    0.8563  -15.5514 C   0  0  0  0  0  0  0  0  0  0  0  0
  -17.6243    1.0156  -15.1706 C   0  0  0  0  0  0  0  0  0  0  0  0
  -18.2957    2.2334  -15.3790 C   0  0  0  0  0  0  0  0  0  0  0  0
  -17.5902    3.2843  -15.9827 C   0  0  0  0  0  0  0  0  0  0  0  0
  -16.2580    3.1247  -16.3661 C   0  0  0  0  0  0  0  0  0  0  0  0
  -23.1481    1.5754  -13.7061 N   0  0  0  0  0  0  0  0  0  0  0  0
  -24.0241    1.9347  -14.0507 H   0  0  0  0  0  0  0  0  0  0  0  0
  -23.3018    0.2415  -13.3365 C   0  0  0  0  0  0  0  0  0  0  0  0
  -24.0235   -0.6110  -14.0784 N   0  0  0  0  0  0  0  0  0  0  0  0
  -24.2133   -1.8538  -13.6167 C   0  0  0  0  0  0  0  0  0  0  0  0
  -23.6920   -2.2956  -12.4320 C   0  0  0  0  0  0  0  0  0  0  0  0
  -22.9381   -1.3739  -11.7494 C   0  0  0  0  0  0  0  0  0  0  0  0
  -22.7243   -0.1113  -12.1752 N   0  0  0  0  0  0  0  0  0  0  0  0
  6  7  1  0  0  0
  6 11  2  0  0  0
  7  8  2  0  0  0
  8  9  1  0  0  0
  9  1  1  0  0  0
  9 10  2  0  0  0
  1  2  2  0  0  0
  1  5  1  0  0  0
  2  3  1  0  0  0
  3  4  2  0  0  0
  4 12  1  0  0  0
  4  5  1  0  0  0
 12 14  1  0  0  0
 12 13  1  0  0  0
 14 15  1  0  0  0
 14 19  2  0  0  0
 15 16  2  0  0  0
 16 17  1  0  0  0
 17 18  2  0  0  0
 18 19  1  0  0  0
 10 11  1  0  0  0
M  END
> <minimizedAffinity>
-7.75559

$$$$
