CHEMBL1992937


 22 24  0  0  0  0  0  0  0  0999 V2000
  -27.8909   -2.0682   -9.2830 C   0  0  0  0  0  0  0  0  0  0  0  0
  -27.4260   -1.2846   -8.3360 N   0  0  0  0  0  0  0  0  0  0  0  0
  -27.8073   -1.8496   -7.1498 C   0  0  0  0  0  0  0  0  0  0  0  0
  -27.5890   -1.4071   -5.8368 C   0  0  0  0  0  0  0  0  0  0  0  0
  -28.0949   -2.1694   -4.7746 C   0  0  0  0  0  0  0  0  0  0  0  0
  -28.7962   -3.3611   -5.0313 C   0  0  0  0  0  0  0  0  0  0  0  0
  -29.0182   -3.8247   -6.3411 C   0  0  0  0  0  0  0  0  0  0  0  0
  -28.5095   -3.0279   -7.3681 C   0  0  0  0  0  0  0  0  0  0  0  0
  -28.5455   -3.1435   -8.7344 N   0  0  0  0  0  0  0  0  0  0  0  0
  -28.9571   -3.8992   -9.2581 H   0  0  0  0  0  0  0  0  0  0  0  0
  -29.3199   -4.1444   -3.9000 N   0  0  0  0  0  0  0  0  0  0  0  0
  -28.7322   -5.1893   -3.6000 O   0  0  0  0  0  0  0  0  0  0  0  0
  -30.3242   -3.7041   -3.3156 O   0  0  0  0  0  0  0  0  0  0  0  0
  -27.7975   -1.9807  -10.6215 N   0  0  0  0  0  0  0  0  0  0  0  0
  -28.4962   -2.3651  -11.2441 H   0  0  0  0  0  0  0  0  0  0  0  0
  -22.9083   -1.0749  -13.3084 C   0  0  0  0  0  0  0  0  0  0  0  0
  -24.2284   -1.3271  -12.6574 C   0  0  0  0  0  0  0  0  0  0  0  0
  -25.3923   -1.4699  -13.4036 C   0  0  0  0  0  0  0  0  0  0  0  0
  -26.6008   -1.7040  -12.7526 C   0  0  0  0  0  0  0  0  0  0  0  0
  -26.6327   -1.7926  -11.3662 C   0  0  0  0  0  0  0  0  0  0  0  0
  -25.5075   -1.6690  -10.6265 N   0  0  0  0  0  0  0  0  0  0  0  0
  -24.3450   -1.4305  -11.2782 C   0  0  0  0  0  0  0  0  0  0  0  0
 16 17  1  0  0  0
 17 18  1  0  0  0
 17 22  2  0  0  0
 18 19  2  0  0  0
 19 20  1  0  0  0
 20 14  1  0  0  0
 20 21  2  0  0  0
 14  1  1  0  0  0
 14 15  1  0  0  0
  1  2  2  0  0  0
  1  9  1  0  0  0
  2  3  1  0  0  0
  3  4  1  0  0  0
  3  8  2  0  0  0
  4  5  2  0  0  0
  5  6  1  0  0  0
  6 11  1  0  0  0
  6  7  2  0  0  0
 11 12  2  0  0  0
 11 13  1  0  0  0
  7  8  1  0  0  0
  8  9  1  0  0  0
  9 10  1  0  0  0
 21 22  1  0  0  0
M  CHG 1  11   1
M  CHG 1  13  -1
M  END
> <minimizedAffinity>
-8.70506

$$$$
