CHEMBL1254097


 30 33  0  0  0  0  0  0  0  0999 V2000
  -16.7477    2.2014  -15.7519 C   0  0  0  0  0  0  0  0  0  0  0  0
  -17.4611    3.2354  -15.1430 C   0  0  0  0  0  0  0  0  0  0  0  0
  -18.7599    3.0298  -14.6805 C   0  0  0  0  0  0  0  0  0  0  0  0
  -19.3466    1.7704  -14.7668 C   0  0  0  0  0  0  0  0  0  0  0  0
  -18.5979    0.7145  -15.3269 C   0  0  0  0  0  0  0  0  0  0  0  0
  -19.2530   -0.8850  -15.4604 Cl  0  0  0  0  0  0  0  0  0  0  0  0
  -17.3060    0.9252  -15.8175 C   0  0  0  0  0  0  0  0  0  0  0  0
  -20.6571    1.5280  -14.3191 N   0  0  0  0  0  0  0  0  0  0  0  0
  -21.7067    2.3949  -14.1779 C   0  0  0  0  0  0  0  0  0  0  0  0
  -21.6882    3.6038  -14.3988 O   0  0  0  0  0  0  0  0  0  0  0  0
  -22.9029    1.8318  -13.8170 N   0  0  0  0  0  0  0  0  0  0  0  0
  -20.8768    0.5602  -14.0826 H   0  0  0  0  0  0  0  0  0  0  0  0
  -23.6749    2.4818  -13.8491 H   0  0  0  0  0  0  0  0  0  0  0  0
  -23.1479    0.5125  -13.4248 C   0  0  0  0  0  0  0  0  0  0  0  0
  -23.9377   -0.2885  -14.2361 C   0  0  0  0  0  0  0  0  0  0  0  0
  -24.1685   -1.6054  -13.8421 C   0  0  0  0  0  0  0  0  0  0  0  0
  -23.6308   -2.0690  -12.6466 C   0  0  0  0  0  0  0  0  0  0  0  0
  -22.8686   -1.1992  -11.8950 C   0  0  0  0  0  0  0  0  0  0  0  0
  -22.6092    0.0694  -12.2692 N   0  0  0  0  0  0  0  0  0  0  0  0
  -15.4756    2.3539  -16.2573 O   0  0  0  0  0  0  0  0  0  0  0  0
  -14.5554    5.0825  -17.3212 C   0  0  0  0  0  0  0  0  0  0  0  0
  -13.6394    4.8207  -16.2331 N   0  0  0  0  0  0  0  0  0  0  0  0
  -12.6112    5.6539  -15.8637 C   0  0  0  0  0  0  0  0  0  0  0  0
  -11.9632    5.0781  -14.7920 C   0  0  0  0  0  0  0  0  0  0  0  0
  -12.6249    3.8638  -14.5014 C   0  0  0  0  0  0  0  0  0  0  0  0
  -12.3457    2.9558  -13.5430 N   0  0  0  0  0  0  0  0  0  0  0  0
  -13.1889    1.9170  -13.5322 C   0  0  0  0  0  0  0  0  0  0  0  0
  -14.2286    1.6955  -14.3504 N   0  0  0  0  0  0  0  0  0  0  0  0
  -14.4598    2.5868  -15.3398 C   0  0  0  0  0  0  0  0  0  0  0  0
  -13.6678    3.7207  -15.4086 C   0  0  0  0  0  0  0  0  0  0  0  0
 21 22  1  0  0  0
 22 23  1  0  0  0
 22 30  1  0  0  0
 23 24  2  0  0  0
 24 25  1  0  0  0
 25 26  1  0  0  0
 25 30  2  0  0  0
 26 27  2  0  0  0
 27 28  1  0  0  0
 28 29  2  0  0  0
 29 20  1  0  0  0
 29 30  1  0  0  0
 20  1  1  0  0  0
  1  2  1  0  0  0
  1  7  2  0  0  0
  2  3  2  0  0  0
  3  4  1  0  0  0
  4  8  1  0  0  0
  4  5  2  0  0  0
  8  9  1  0  0  0
  8 12  1  0  0  0
  9 10  2  0  0  0
  9 11  1  0  0  0
 11 14  1  0  0  0
 11 13  1  0  0  0
 14 15  1  0  0  0
 14 19  2  0  0  0
 15 16  2  0  0  0
 16 17  1  0  0  0
 17 18  2  0  0  0
 18 19  1  0  0  0
  5  6  1  0  0  0
  5  7  1  0  0  0
M  END
> <minimizedAffinity>
-8.30944

$$$$
