CHEMBL491680


 27 30  0  0  0  0  0  0  0  0999 V2000
  -30.6859   -8.0476   -7.1702 C   0  0  0  0  0  0  0  0  0  0  0  0
  -32.0940   -7.9316   -7.2012 C   0  0  0  0  0  0  0  0  0  0  0  0
  -32.9169   -9.0544   -7.2110 C   0  0  0  0  0  0  0  0  0  0  0  0
  -32.3435  -10.3150   -7.1717 C   0  0  0  0  0  0  0  0  0  0  0  0
  -30.9529  -10.4492   -7.1258 C   0  0  0  0  0  0  0  0  0  0  0  0
  -30.0888   -9.3357   -7.1693 C   0  0  0  0  0  0  0  0  0  0  0  0
  -29.2243   -4.7489   -6.9443 N   0  0  0  0  0  0  0  0  0  0  0  0
  -30.2357   -5.6067   -6.5734 C   0  0  0  0  0  0  0  0  0  0  0  0
  -29.9463   -6.7924   -7.2093 C   0  0  0  0  0  0  0  0  0  0  0  0
  -28.8262   -6.6173   -7.9788 N   0  0  0  0  0  0  0  0  0  0  0  0
  -28.3990   -5.3744   -7.8169 N   0  0  0  0  0  0  0  0  0  0  0  0
  -28.3007    0.8865   -5.3250 Cl  0  0  0  0  0  0  0  0  0  0  0  0
  -28.5507   -0.7531   -5.7797 C   0  0  0  0  0  0  0  0  0  0  0  0
  -29.3879   -1.5632   -5.0136 C   0  0  0  0  0  0  0  0  0  0  0  0
  -29.6128   -2.8921   -5.3876 C   0  0  0  0  0  0  0  0  0  0  0  0
  -28.9952   -3.4098   -6.5347 C   0  0  0  0  0  0  0  0  0  0  0  0
  -28.1367   -2.5916   -7.2886 C   0  0  0  0  0  0  0  0  0  0  0  0
  -27.9201   -1.2632   -6.9117 C   0  0  0  0  0  0  0  0  0  0  0  0
  -28.6877   -9.5170   -7.0923 N   0  0  0  0  0  0  0  0  0  0  0  0
  -28.2017   -8.6740   -7.3843 H   0  0  0  0  0  0  0  0  0  0  0  0
  -28.1071  -10.6742   -7.7691 C   0  0  0  0  0  0  0  0  0  0  0  0
  -28.0034  -10.3916   -9.2479 C   0  0  0  0  0  0  0  0  0  0  0  0
  -28.9743  -10.8745  -10.1322 C   0  0  0  0  0  0  0  0  0  0  0  0
  -28.8588  -10.5680  -11.4782 C   0  0  0  0  0  0  0  0  0  0  0  0
  -27.8553   -9.8278  -11.9951 N   0  0  0  0  0  0  0  0  0  0  0  0
  -26.9282   -9.3713  -11.1266 C   0  0  0  0  0  0  0  0  0  0  0  0
  -26.9554   -9.6244   -9.7653 C   0  0  0  0  0  0  0  0  0  0  0  0
 12 13  1  0  0  0
 13 14  1  0  0  0
 13 18  2  0  0  0
 14 15  2  0  0  0
 15 16  1  0  0  0
 16  7  1  0  0  0
 16 17  2  0  0  0
  7  8  1  0  0  0
  7 11  1  0  0  0
  8  9  2  0  0  0
  9  1  1  0  0  0
  9 10  1  0  0  0
  1  2  1  0  0  0
  1  6  2  0  0  0
  2  3  2  0  0  0
  3  4  1  0  0  0
  4  5  2  0  0  0
  5  6  1  0  0  0
  6 19  1  0  0  0
 19 21  1  0  0  0
 19 20  1  0  0  0
 21 22  1  0  0  0
 22 23  1  0  0  0
 22 27  2  0  0  0
 23 24  2  0  0  0
 24 25  1  0  0  0
 25 26  2  0  0  0
 26 27  1  0  0  0
 10 11  2  0  0  0
 17 18  1  0  0  0
M  END
> <minimizedAffinity>
-7.90049

$$$$
