CHEMBL460468


 42 46  0  0  0  0  0  0  0  0999 V2000
  -25.8961   -1.9563  -10.0131 N   0  0  0  0  0  0  0  0  0  0  0  0
  -27.2664   -1.8187   -9.8764 C   0  0  0  0  0  0  0  0  0  0  0  0
  -27.9806   -1.2077  -10.6672 O   0  0  0  0  0  0  0  0  0  0  0  0
  -25.3792   -2.3270   -9.2135 H   0  0  0  0  0  0  0  0  0  0  0  0
  -23.6278   -0.8069  -13.4424 C   0  0  0  0  0  0  0  0  0  0  0  0
  -24.9237   -1.2890  -13.5892 C   0  0  0  0  0  0  0  0  0  0  0  0
  -25.6813   -1.6367  -12.4652 C   0  0  0  0  0  0  0  0  0  0  0  0
  -25.1487   -1.5959  -11.1702 C   0  0  0  0  0  0  0  0  0  0  0  0
  -23.8111   -1.2085  -11.0314 C   0  0  0  0  0  0  0  0  0  0  0  0
  -23.0722   -0.8106  -12.1595 C   0  0  0  0  0  0  0  0  0  0  0  0
  -21.8066   -0.3901  -11.9762 F   0  0  0  0  0  0  0  0  0  0  0  0
  -22.8590   -0.2911  -14.4679 O   0  0  0  0  0  0  0  0  0  0  0  0
  -18.2810    2.0574  -15.0286 C   0  0  0  0  0  0  0  0  0  0  0  0
  -18.6917    0.7708  -15.3425 C   0  0  0  0  0  0  0  0  0  0  0  0
  -20.0328    0.4237  -15.2180 C   0  0  0  0  0  0  0  0  0  0  0  0
  -20.9815    1.3244  -14.6854 C   0  0  0  0  0  0  0  0  0  0  0  0
  -22.3167    0.9804  -14.3593 C   0  0  0  0  0  0  0  0  0  0  0  0
  -23.1977    1.9654  -13.9232 C   0  0  0  0  0  0  0  0  0  0  0  0
  -22.7109    3.2460  -13.7574 C   0  0  0  0  0  0  0  0  0  0  0  0
  -21.4231    3.5927  -13.9779 N   0  0  0  0  0  0  0  0  0  0  0  0
  -20.5738    2.6492  -14.4198 C   0  0  0  0  0  0  0  0  0  0  0  0
  -19.2398    2.9878  -14.6034 C   0  0  0  0  0  0  0  0  0  0  0  0
  -16.7799    3.6862  -15.8740 C   0  0  0  0  0  0  0  0  0  0  0  0
  -16.9915    2.5103  -15.0972 O   0  0  0  0  0  0  0  0  0  0  0  0
  -27.8884   -2.4503   -8.6897 C   0  0  0  0  0  0  0  0  0  0  0  0
  -28.5412   -1.8263   -7.6807 C   0  0  0  0  0  0  0  0  0  0  0  0
  -28.7523   -0.3467   -7.5958 C   0  0  0  0  0  0  0  0  0  0  0  0
  -29.0512   -2.7306   -6.7324 N   0  0  0  0  0  0  0  0  0  0  0  0
  -28.5470   -4.0082   -7.1098 N   0  0  0  0  0  0  0  0  0  0  0  0
  -27.9120   -3.8909   -8.3557 C   0  0  0  0  0  0  0  0  0  0  0  0
  -27.4840   -4.7580   -9.1042 O   0  0  0  0  0  0  0  0  0  0  0  0
  -29.0472   -5.2337   -6.6205 C   0  0  0  0  0  0  0  0  0  0  0  0
  -30.1923   -5.7727   -7.2218 C   0  0  0  0  0  0  0  0  0  0  0  0
  -30.7060   -7.0029   -6.8043 C   0  0  0  0  0  0  0  0  0  0  0  0
  -30.1042   -7.6866   -5.7503 C   0  0  0  0  0  0  0  0  0  0  0  0
  -28.9782   -7.1454   -5.1271 C   0  0  0  0  0  0  0  0  0  0  0  0
  -28.4381   -5.9319   -5.5719 C   0  0  0  0  0  0  0  0  0  0  0  0
  -29.4079   -2.5423   -5.3010 C   0  0  0  0  0  0  0  0  0  0  0  0
  -28.2696   -2.4273   -4.2609 C   0  0  0  0  0  0  0  0  0  0  0  0
  -28.7644   -2.7125   -2.8446 C   0  0  0  0  0  0  0  0  0  0  0  0
  -27.7100   -1.1138   -4.1749 O   0  0  0  0  0  0  0  0  0  0  0  0
  -28.3772   -0.4695   -4.4658 H   0  0  0  0  0  0  0  0  0  0  0  0
 23 24  1  0  0  0
 24 13  1  0  0  0
 13 14  1  0  0  0
 13 22  2  0  0  0
 14 15  2  0  0  0
 15 16  1  0  0  0
 16 17  1  0  0  0
 16 21  2  0  0  0
 17 12  1  0  0  0
 17 18  2  0  0  0
 12  5  1  0  0  0
  5  6  1  0  0  0
  5 10  2  0  0  0
  6  7  2  0  0  0
  7  8  1  0  0  0
  8  1  1  0  0  0
  8  9  2  0  0  0
  1  2  1  0  0  0
  1  4  1  0  0  0
  2  3  2  0  0  0
  2 25  1  0  0  0
 25 26  2  0  0  0
 25 30  1  0  0  0
 26 27  1  0  0  0
 26 28  1  0  0  0
 28 38  1  0  0  0
 28 29  1  0  0  0
 39 41  1  0  0  0
 39 40  1  0  0  0
 39 38  1  0  0  0
 41 42  1  0  0  0
 29 32  1  0  0  0
 29 30  1  0  0  0
 32 33  1  0  0  0
 32 37  2  0  0  0
 33 34  2  0  0  0
 34 35  1  0  0  0
 35 36  2  0  0  0
 36 37  1  0  0  0
 30 31  2  0  0  0
  9 10  1  0  0  0
 10 11  1  0  0  0
 18 19  1  0  0  0
 19 20  2  0  0  0
 20 21  1  0  0  0
 21 22  1  0  0  0
M  END
> <minimizedAffinity>
-10.07091

$$$$
