CHEMBL429585


 37 41  0  0  0  0  0  0  0  0999 V2000
  -28.9243   -5.4602   -6.1039 C   0  0  0  0  0  0  0  0  0  0  0  0
  -28.7236   -5.3428   -7.4786 C   0  0  0  0  0  0  0  0  0  0  0  0
  -28.3568   -4.1150   -8.0417 C   0  0  0  0  0  0  0  0  0  0  0  0
  -28.1860   -2.9465   -7.2556 C   0  0  0  0  0  0  0  0  0  0  0  0
  -27.8396   -1.6523   -7.7585 C   0  0  0  0  0  0  0  0  0  0  0  0
  -27.6954   -0.5641   -6.8770 C   0  0  0  0  0  0  0  0  0  0  0  0
  -27.8396   -0.7399   -5.5065 C   0  0  0  0  0  0  0  0  0  0  0  0
  -28.1754   -1.9930   -5.0041 C   0  0  0  0  0  0  0  0  0  0  0  0
  -28.3793   -3.0904   -5.8551 C   0  0  0  0  0  0  0  0  0  0  0  0
  -28.7771   -4.3269   -5.3097 C   0  0  0  0  0  0  0  0  0  0  0  0
  -29.0060   -4.4027   -3.9881 F   0  0  0  0  0  0  0  0  0  0  0  0
  -27.6925   -1.3758   -9.2289 C   0  0  0  0  0  0  0  0  0  0  0  0
  -28.5451   -0.7068   -9.7995 O   0  0  0  0  0  0  0  0  0  0  0  0
  -26.5646   -1.9277   -9.8264 N   0  0  0  0  0  0  0  0  0  0  0  0
  -26.0172   -2.5742   -9.2731 H   0  0  0  0  0  0  0  0  0  0  0  0
  -26.1685   -1.7958  -11.1772 C   0  0  0  0  0  0  0  0  0  0  0  0
  -24.8707   -1.4683  -11.5784 C   0  0  0  0  0  0  0  0  0  0  0  0
  -24.5682   -1.2787  -12.9319 C   0  0  0  0  0  0  0  0  0  0  0  0
  -25.5624   -1.4274  -13.8931 C   0  0  0  0  0  0  0  0  0  0  0  0
  -25.2039   -1.1382  -15.5501 Cl  0  0  0  0  0  0  0  0  0  0  0  0
  -26.8489   -1.8006  -13.5153 C   0  0  0  0  0  0  0  0  0  0  0  0
  -27.1477   -1.9941  -12.1614 C   0  0  0  0  0  0  0  0  0  0  0  0
  -29.2831   -6.7166   -5.6868 O   0  0  0  0  0  0  0  0  0  0  0  0
  -29.1319  -10.2500   -9.5270 C   0  0  0  0  0  0  0  0  0  0  0  0
  -30.4513   -9.8916   -9.2199 C   0  0  0  0  0  0  0  0  0  0  0  0
  -30.7658   -9.0125   -8.1961 C   0  0  0  0  0  0  0  0  0  0  0  0
  -32.0696   -8.8076   -7.9405 N   0  0  0  0  0  0  0  0  0  0  0  0
  -32.4007   -7.9771   -6.9358 C   0  0  0  0  0  0  0  0  0  0  0  0
  -31.4735   -7.3178   -6.1579 C   0  0  0  0  0  0  0  0  0  0  0  0
  -30.1187   -7.5269   -6.4247 C   0  0  0  0  0  0  0  0  0  0  0  0
  -29.7251   -8.3914   -7.4758 C   0  0  0  0  0  0  0  0  0  0  0  0
  -28.3928   -8.6792   -7.8584 C   0  0  0  0  0  0  0  0  0  0  0  0
  -28.0908   -9.6075   -8.8582 C   0  0  0  0  0  0  0  0  0  0  0  0
  -28.7335  -10.7517  -11.8007 C   0  0  0  0  0  0  0  0  0  0  0  0
  -28.8301  -11.2136  -10.4537 O   0  0  0  0  0  0  0  0  0  0  0  0
  -26.7502   -9.8497   -8.9932 O   0  0  0  0  0  0  0  0  0  0  0  0
  -26.1267  -10.5286   -7.9111 C   0  0  0  0  0  0  0  0  0  0  0  0
 34 35  1  0  0  0
 35 24  1  0  0  0
 24 25  1  0  0  0
 24 33  2  0  0  0
 25 26  2  0  0  0
 26 27  1  0  0  0
 26 31  1  0  0  0
 27 28  2  0  0  0
 28 29  1  0  0  0
 29 30  2  0  0  0
 30 23  1  0  0  0
 30 31  1  0  0  0
 23  1  1  0  0  0
  1  2  1  0  0  0
  1 10  2  0  0  0
  2  3  2  0  0  0
  3  4  1  0  0  0
  4  5  1  0  0  0
  4  9  2  0  0  0
  5 12  1  0  0  0
  5  6  2  0  0  0
 12 13  2  0  0  0
 12 14  1  0  0  0
 14 16  1  0  0  0
 14 15  1  0  0  0
 16 17  1  0  0  0
 16 22  2  0  0  0
 17 18  2  0  0  0
 18 19  1  0  0  0
 19 20  1  0  0  0
 19 21  2  0  0  0
 21 22  1  0  0  0
  6  7  1  0  0  0
  7  8  2  0  0  0
  8  9  1  0  0  0
  9 10  1  0  0  0
 10 11  1  0  0  0
 31 32  2  0  0  0
 32 33  1  0  0  0
 33 36  1  0  0  0
 36 37  1  0  0  0
M  END
> <minimizedAffinity>
-10.48694

$$$$
