CHEMBL3589200


 37 40  0  0  0  0  0  0  0  0999 V2000
  -17.2833    3.0053  -15.7419 C   0  0  0  0  0  0  0  0  0  0  0  0
  -16.8921    1.6736  -15.7108 C   0  0  0  0  0  0  0  0  0  0  0  0
  -15.5569    1.3592  -15.6914 C   0  0  0  0  0  0  0  0  0  0  0  0
  -14.5678    2.3153  -15.9425 C   0  0  0  0  0  0  0  0  0  0  0  0
  -14.9526    3.6536  -15.9884 C   0  0  0  0  0  0  0  0  0  0  0  0
  -16.3165    4.0047  -15.8835 C   0  0  0  0  0  0  0  0  0  0  0  0
  -13.2315    1.8715  -16.1019 N   0  0  0  0  0  0  0  0  0  0  0  0
  -12.4256    2.3060  -15.1661 C   0  0  0  0  0  0  0  0  0  0  0  0
  -12.7722    2.4306  -13.6562 C   0  0  0  0  0  0  0  0  0  0  0  0
  -13.3596    1.6096  -12.9881 O   0  0  0  0  0  0  0  0  0  0  0  0
  -12.3464    3.6893  -13.2834 N   0  0  0  0  0  0  0  0  0  0  0  0
  -11.7657    4.3455  -14.3650 C   0  0  0  0  0  0  0  0  0  0  0  0
  -11.6834    5.7154  -14.5245 C   0  0  0  0  0  0  0  0  0  0  0  0
  -11.3597    6.1946  -15.8014 C   0  0  0  0  0  0  0  0  0  0  0  0
  -11.0657    5.3068  -16.8574 C   0  0  0  0  0  0  0  0  0  0  0  0
  -10.6968    5.9433  -18.4138 Cl  0  0  0  0  0  0  0  0  0  0  0  0
  -11.1703    3.9276  -16.6946 C   0  0  0  0  0  0  0  0  0  0  0  0
  -11.5528    3.4727  -15.4429 C   0  0  0  0  0  0  0  0  0  0  0  0
  -12.6213    4.1076  -12.4058 H   0  0  0  0  0  0  0  0  0  0  0  0
  -20.7563    2.5419  -14.8958 N   0  0  0  0  0  0  0  0  0  0  0  0
  -19.4072    2.2819  -14.9146 C   0  0  0  0  0  0  0  0  0  0  0  0
  -18.8975    1.2596  -14.4637 O   0  0  0  0  0  0  0  0  0  0  0  0
  -18.6486    3.2901  -15.5019 N   0  0  0  0  0  0  0  0  0  0  0  0
  -21.0780    3.3469  -15.4122 H   0  0  0  0  0  0  0  0  0  0  0  0
  -18.8913    4.2351  -15.2480 H   0  0  0  0  0  0  0  0  0  0  0  0
  -23.6548   -0.0524  -13.2590 C   0  0  0  0  0  0  0  0  0  0  0  0
  -23.8100    1.3165  -13.0886 C   0  0  0  0  0  0  0  0  0  0  0  0
  -22.8496    2.1767  -13.6131 C   0  0  0  0  0  0  0  0  0  0  0  0
  -21.7265    1.6951  -14.3041 C   0  0  0  0  0  0  0  0  0  0  0  0
  -21.5649    0.3136  -14.4322 C   0  0  0  0  0  0  0  0  0  0  0  0
  -22.5260   -0.5637  -13.9154 C   0  0  0  0  0  0  0  0  0  0  0  0
  -23.9668   -2.1784  -11.6794 N   0  0  0  0  0  0  0  0  0  0  0  0
  -24.8919   -1.1329  -12.6081 S   0  0  0  0  0  0  0  0  0  0  0  0
  -25.4475   -1.9222  -13.6764 O   0  0  0  0  0  0  0  0  0  0  0  0
  -25.7011   -0.3871  -11.6623 O   0  0  0  0  0  0  0  0  0  0  0  0
  -24.0932   -3.1383  -12.0048 H   0  0  0  0  0  0  0  0  0  0  0  0
  -24.1637   -2.0432  -10.6907 H   0  0  0  0  0  0  0  0  0  0  0  0
 32 33  1  0  0  0
 32 36  1  0  0  0
 32 37  1  0  0  0
 33 34  2  0  0  0
 33 35  2  0  0  0
 33 26  1  0  0  0
 26 27  1  0  0  0
 26 31  2  0  0  0
 27 28  2  0  0  0
 28 29  1  0  0  0
 29 20  1  0  0  0
 29 30  2  0  0  0
 20 21  1  0  0  0
 20 24  1  0  0  0
 21 22  2  0  0  0
 21 23  1  0  0  0
 23  1  1  0  0  0
 23 25  1  0  0  0
  1  2  1  0  0  0
  1  6  2  0  0  0
  2  3  2  0  0  0
  3  4  1  0  0  0
  4  7  1  0  0  0
  4  5  2  0  0  0
  7  8  2  0  0  0
  8  9  1  0  0  0
  8 18  1  0  0  0
  9 10  2  0  0  0
  9 11  1  0  0  0
 11 12  1  0  0  0
 11 19  1  0  0  0
 12 13  1  0  0  0
 12 18  2  0  0  0
 13 14  2  0  0  0
 14 15  1  0  0  0
 15 16  1  0  0  0
 15 17  2  0  0  0
 17 18  1  0  0  0
  5  6  1  0  0  0
 30 31  1  0  0  0
M  END
> <minimizedAffinity>
-9.42666

$$$$
