CHEMBL1952210


 34 38  0  0  0  0  0  0  0  0999 V2000
  -29.6134   -6.8002   -5.7740 N   0  0  0  0  0  0  0  0  0  0  0  0
  -28.9144   -7.4525   -4.6874 C   0  0  0  0  0  0  0  0  0  0  0  0
  -27.9831   -8.4975   -5.1530 C   0  0  0  0  0  0  0  0  0  0  0  0
  -27.0849   -9.1233   -4.3166 C   0  0  0  0  0  0  0  0  0  0  0  0
  -26.2786  -10.1248   -4.7057 N   0  0  0  0  0  0  0  0  0  0  0  0
  -26.3441  -10.4783   -5.9947 C   0  0  0  0  0  0  0  0  0  0  0  0
  -27.1781   -9.9060   -6.8753 N   0  0  0  0  0  0  0  0  0  0  0  0
  -28.0189   -8.9533   -6.4455 C   0  0  0  0  0  0  0  0  0  0  0  0
  -28.9961   -8.4418   -7.3346 N   0  0  0  0  0  0  0  0  0  0  0  0
  -29.9473   -7.4966   -6.9359 C   0  0  0  0  0  0  0  0  0  0  0  0
  -30.8933   -7.1814   -7.6555 O   0  0  0  0  0  0  0  0  0  0  0  0
  -28.8620   -8.7488   -8.7692 C   0  0  0  0  0  0  0  0  0  0  0  0
  -29.5216  -10.0998   -9.1526 C   0  0  0  0  0  0  0  0  0  0  0  0
  -28.4099  -10.9501   -9.7606 C   0  0  0  0  0  0  0  0  0  0  0  0
  -27.4388   -9.9308  -10.3324 C   0  0  0  0  0  0  0  0  0  0  0  0
  -27.9026   -9.4506  -11.5919 O   0  0  0  0  0  0  0  0  0  0  0  0
  -27.4191   -8.8134   -9.2934 C   0  0  0  0  0  0  0  0  0  0  0  0
  -28.8149   -9.1285  -11.4989 H   0  0  0  0  0  0  0  0  0  0  0  0
  -29.7369   -2.5755   -5.6948 C   0  0  0  0  0  0  0  0  0  0  0  0
  -29.0251   -3.2352   -6.6999 C   0  0  0  0  0  0  0  0  0  0  0  0
  -29.0007   -4.6338   -6.7371 C   0  0  0  0  0  0  0  0  0  0  0  0
  -29.7114   -5.3840   -5.7984 C   0  0  0  0  0  0  0  0  0  0  0  0
  -30.4264   -4.7188   -4.7963 C   0  0  0  0  0  0  0  0  0  0  0  0
  -30.4271   -3.3241   -4.7417 C   0  0  0  0  0  0  0  0  0  0  0  0
  -28.7452   -0.5945   -4.8471 C   0  0  0  0  0  0  0  0  0  0  0  0
  -29.8212   -1.2207   -5.5351 O   0  0  0  0  0  0  0  0  0  0  0  0
  -25.5516  -11.5418   -6.4045 N   0  0  0  0  0  0  0  0  0  0  0  0
  -25.8715  -12.4190   -6.0200 H   0  0  0  0  0  0  0  0  0  0  0  0
  -24.2332  -11.5085   -6.8752 C   0  0  0  0  0  0  0  0  0  0  0  0
  -23.7592  -12.4126   -7.8364 C   0  0  0  0  0  0  0  0  0  0  0  0
  -22.4277  -12.3919   -8.2599 C   0  0  0  0  0  0  0  0  0  0  0  0
  -21.5456  -11.4716   -7.7008 C   0  0  0  0  0  0  0  0  0  0  0  0
  -21.9985  -10.5659   -6.7418 C   0  0  0  0  0  0  0  0  0  0  0  0
  -23.3362  -10.5783   -6.3404 C   0  0  0  0  0  0  0  0  0  0  0  0
 25 26  1  0  0  0
 26 19  1  0  0  0
 19 20  1  0  0  0
 19 24  2  0  0  0
 20 21  2  0  0  0
 21 22  1  0  0  0
 22  1  1  0  0  0
 22 23  2  0  0  0
  1  2  1  0  0  0
  1 10  1  0  0  0
  2  3  1  0  0  0
  3  4  1  0  0  0
  3  8  2  0  0  0
  4  5  2  0  0  0
  5  6  1  0  0  0
  6 27  1  0  0  0
  6  7  2  0  0  0
 27 29  1  0  0  0
 27 28  1  0  0  0
 29 30  1  0  0  0
 29 34  2  0  0  0
 30 31  2  0  0  0
 31 32  1  0  0  0
 32 33  2  0  0  0
 33 34  1  0  0  0
  7  8  1  0  0  0
  8  9  1  0  0  0
  9 12  1  0  0  0
  9 10  1  0  0  0
 12 13  1  0  0  0
 12 17  1  0  0  0
 13 14  1  0  0  0
 14 15  1  0  0  0
 15 16  1  0  0  0
 15 17  1  0  0  0
 16 18  1  0  0  0
 10 11  2  0  0  0
 23 24  1  0  0  0
M  END
> <minimizedAffinity>
-8.79990

$$$$
