CHEMBL3915508


 20 22  0  0  0  0  0  0  0  0999 V2000
  -28.1248   -2.2289   -9.8899 N   0  0  0  0  0  0  0  0  0  0  0  0
  -28.4984   -3.1487  -10.1033 H   0  0  0  0  0  0  0  0  0  0  0  0
  -28.0146   -2.0841   -8.4765 C   0  0  0  0  0  0  0  0  0  0  0  0
  -27.7717   -0.8537   -7.9608 N   0  0  0  0  0  0  0  0  0  0  0  0
  -27.7544   -0.6211   -6.6322 N   0  0  0  0  0  0  0  0  0  0  0  0
  -28.0540   -1.6285   -5.8025 C   0  0  0  0  0  0  0  0  0  0  0  0
  -28.3307   -2.9204   -6.2357 C   0  0  0  0  0  0  0  0  0  0  0  0
  -28.6607   -3.9458   -5.3288 C   0  0  0  0  0  0  0  0  0  0  0  0
  -28.9448   -5.2322   -5.7847 C   0  0  0  0  0  0  0  0  0  0  0  0
  -28.8750   -5.5138   -7.1444 C   0  0  0  0  0  0  0  0  0  0  0  0
  -28.5420   -4.5035   -8.0508 C   0  0  0  0  0  0  0  0  0  0  0  0
  -28.2856   -3.1784   -7.6212 C   0  0  0  0  0  0  0  0  0  0  0  0
  -25.1578   -1.1264  -12.6996 C   0  0  0  0  0  0  0  0  0  0  0  0
  -24.8349   -1.1711  -11.3443 C   0  0  0  0  0  0  0  0  0  0  0  0
  -25.7953   -1.5792  -10.4182 C   0  0  0  0  0  0  0  0  0  0  0  0
  -27.1062   -1.8856  -10.8134 C   0  0  0  0  0  0  0  0  0  0  0  0
  -27.4010   -1.8890  -12.1820 C   0  0  0  0  0  0  0  0  0  0  0  0
  -26.4358   -1.5012  -13.1193 C   0  0  0  0  0  0  0  0  0  0  0  0
  -23.3773   -0.3507  -14.4161 N   0  0  0  0  0  0  0  0  0  0  0  0
  -24.1794   -0.7001  -13.6480 C   0  0  0  0  0  0  0  0  0  0  0  0
 19 20  3  0  0  0
 20 13  1  0  0  0
 13 14  1  0  0  0
 13 18  2  0  0  0
 14 15  2  0  0  0
 15 16  1  0  0  0
 16  1  1  0  0  0
 16 17  2  0  0  0
  1  3  1  0  0  0
  1  2  1  0  0  0
  3  4  1  0  0  0
  3 12  2  0  0  0
  4  5  2  0  0  0
  5  6  1  0  0  0
  6  7  2  0  0  0
  7  8  1  0  0  0
  7 12  1  0  0  0
  8  9  2  0  0  0
  9 10  1  0  0  0
 10 11  2  0  0  0
 11 12  1  0  0  0
 17 18  1  0  0  0
M  END
> <minimizedAffinity>
-7.39097

$$$$
