CHEMBL2063332


 43 47  0  0  0  0  0  0  0  0999 V2000
  -22.3958    1.1588  -14.0463 C   0  0  0  0  0  0  0  0  0  0  0  0
  -21.1902    0.7437  -14.6740 C   0  0  0  0  0  0  0  0  0  0  0  0
  -20.4795    1.8864  -14.9487 C   0  0  0  0  0  0  0  0  0  0  0  0
  -21.2605    2.9044  -14.4696 N   0  0  0  0  0  0  0  0  0  0  0  0
  -22.4365    2.4983  -13.9583 N   0  0  0  0  0  0  0  0  0  0  0  0
  -21.0782    3.9004  -14.4869 H   0  0  0  0  0  0  0  0  0  0  0  0
  -25.4655   -1.4202  -12.5119 C   0  0  0  0  0  0  0  0  0  0  0  0
  -24.9147   -0.4101  -11.7161 C   0  0  0  0  0  0  0  0  0  0  0  0
  -23.9194    0.4299  -12.2265 C   0  0  0  0  0  0  0  0  0  0  0  0
  -23.4602    0.2873  -13.5447 C   0  0  0  0  0  0  0  0  0  0  0  0
  -24.0274   -0.7078  -14.3484 C   0  0  0  0  0  0  0  0  0  0  0  0
  -25.0222   -1.5516  -13.8366 C   0  0  0  0  0  0  0  0  0  0  0  0
  -26.5173   -2.3472  -11.9572 C   0  0  0  0  0  0  0  0  0  0  0  0
  -27.3796   -1.7145   -9.7467 C   0  0  0  0  0  0  0  0  0  0  0  0
  -28.2671   -0.9854  -10.1626 O   0  0  0  0  0  0  0  0  0  0  0  0
  -26.4978   -2.4011  -10.5195 N   0  0  0  0  0  0  0  0  0  0  0  0
  -25.7717   -2.9069  -10.0338 H   0  0  0  0  0  0  0  0  0  0  0  0
  -27.1241   -1.9763   -8.4443 O   0  0  0  0  0  0  0  0  0  0  0  0
  -27.7478   -1.0751   -7.5121 C   0  0  0  0  0  0  0  0  0  0  0  0
  -28.8439   -3.1374   -2.9774 C   0  0  0  0  0  0  0  0  0  0  0  0
  -28.7397   -2.6471   -4.3612 C   0  0  0  0  0  0  0  0  0  0  0  0
  -27.8711   -1.8112   -5.0139 C   0  0  0  0  0  0  0  0  0  0  0  0
  -28.3384   -1.7932   -6.3486 C   0  0  0  0  0  0  0  0  0  0  0  0
  -29.4296   -2.5579   -6.4910 N   0  0  0  0  0  0  0  0  0  0  0  0
  -29.6783   -3.0932   -5.2381 O   0  0  0  0  0  0  0  0  0  0  0  0
  -19.2317    2.0037  -15.5664 N   0  0  0  0  0  0  0  0  0  0  0  0
  -18.2124    2.8700  -15.0388 C   0  0  0  0  0  0  0  0  0  0  0  0
  -18.3772    3.4646  -13.9828 O   0  0  0  0  0  0  0  0  0  0  0  0
  -19.0218    1.3983  -16.3484 H   0  0  0  0  0  0  0  0  0  0  0  0
  -16.9240    2.9846  -15.7588 C   0  0  0  0  0  0  0  0  0  0  0  0
  -16.4080    4.2030  -16.2144 C   0  0  0  0  0  0  0  0  0  0  0  0
  -15.1389    4.2323  -16.8124 C   0  0  0  0  0  0  0  0  0  0  0  0
  -14.3873    3.0583  -16.9412 C   0  0  0  0  0  0  0  0  0  0  0  0
  -14.9208    1.8464  -16.5131 C   0  0  0  0  0  0  0  0  0  0  0  0
  -16.1776    1.8090  -15.9161 C   0  0  0  0  0  0  0  0  0  0  0  0
  -13.1320    2.9743  -17.4760 O   0  0  0  0  0  0  0  0  0  0  0  0
  -13.0641    3.0888  -18.9010 C   0  0  0  0  0  0  0  0  0  0  0  0
  -12.0971    2.0226  -19.4468 C   0  0  0  0  0  0  0  0  0  0  0  0
  -12.7354    1.1177  -20.4215 N   0  0  0  0  0  0  0  0  0  0  0  0
  -14.0256    0.6093  -19.9211 C   0  0  0  0  0  0  0  0  0  0  0  0
  -13.6668   -0.6106  -19.0945 C   0  0  0  0  0  0  0  0  0  0  0  0
  -12.5276   -1.2330  -19.8764 C   0  0  0  0  0  0  0  0  0  0  0  0
  -11.9378   -0.0916  -20.6947 C   0  0  0  0  0  0  0  0  0  0  0  0
 20 21  1  0  0  0
 21 22  2  0  0  0
 21 25  1  0  0  0
 22 23  1  0  0  0
 23 19  1  0  0  0
 23 24  2  0  0  0
 19 18  1  0  0  0
 18 14  1  0  0  0
 14 15  2  0  0  0
 14 16  1  0  0  0
 16 13  1  0  0  0
 16 17  1  0  0  0
 13  7  1  0  0  0
  7  8  1  0  0  0
  7 12  2  0  0  0
  8  9  2  0  0  0
  9 10  1  0  0  0
 10  1  1  0  0  0
 10 11  2  0  0  0
  1  2  1  0  0  0
  1  5  2  0  0  0
  2  3  2  0  0  0
  3 26  1  0  0  0
  3  4  1  0  0  0
 26 27  1  0  0  0
 26 29  1  0  0  0
 27 28  2  0  0  0
 27 30  1  0  0  0
 30 31  1  0  0  0
 30 35  2  0  0  0
 31 32  2  0  0  0
 32 33  1  0  0  0
 33 36  1  0  0  0
 33 34  2  0  0  0
 36 37  1  0  0  0
 37 38  1  0  0  0
 38 39  1  0  0  0
 39 40  1  0  0  0
 39 43  1  0  0  0
 40 41  1  0  0  0
 41 42  1  0  0  0
 42 43  1  0  0  0
 34 35  1  0  0  0
  4  5  1  0  0  0
  4  6  1  0  0  0
 11 12  1  0  0  0
 24 25  1  0  0  0
M  END
> <minimizedAffinity>
-9.56492

$$$$
