CHEMBL82433


 31 35  0  0  0  0  0  0  0  0999 V2000
  -27.3633   -1.6447  -13.9637 O   0  0  0  0  0  0  0  0  0  0  0  0
  -26.6337   -1.6048  -12.9704 C   0  0  0  0  0  0  0  0  0  0  0  0
  -27.2246   -1.8425  -11.6379 C   0  0  0  0  0  0  0  0  0  0  0  0
  -26.4483   -1.7666  -10.5459 C   0  0  0  0  0  0  0  0  0  0  0  0
  -25.0344   -1.5066  -10.6700 C   0  0  0  0  0  0  0  0  0  0  0  0
  -24.4942   -1.2832  -11.8701 C   0  0  0  0  0  0  0  0  0  0  0  0
  -25.2683   -1.3145  -13.0133 N   0  0  0  0  0  0  0  0  0  0  0  0
  -27.0648   -1.8800   -9.2251 C   0  0  0  0  0  0  0  0  0  0  0  0
  -27.6407   -3.1036   -8.8552 C   0  0  0  0  0  0  0  0  0  0  0  0
  -28.3970   -3.2140   -7.6934 C   0  0  0  0  0  0  0  0  0  0  0  0
  -28.5867   -2.0400   -6.9526 C   0  0  0  0  0  0  0  0  0  0  0  0
  -28.0489   -0.8103   -7.3325 C   0  0  0  0  0  0  0  0  0  0  0  0
  -27.2103   -0.7321   -8.4437 C   0  0  0  0  0  0  0  0  0  0  0  0
  -28.5225    0.2069   -6.5424 N   0  0  0  0  0  0  0  0  0  0  0  0
  -29.3616   -0.3755   -5.7131 C   0  0  0  0  0  0  0  0  0  0  0  0
  -29.3420   -1.7476   -5.8371 N   0  0  0  0  0  0  0  0  0  0  0  0
  -29.9248   -2.6511   -4.9269 C   0  0  0  0  0  0  0  0  0  0  0  0
  -30.6379   -3.7516   -5.4224 C   0  0  0  0  0  0  0  0  0  0  0  0
  -31.3728   -4.5363   -4.5412 C   0  0  0  0  0  0  0  0  0  0  0  0
  -31.4084   -4.2161   -3.1855 C   0  0  0  0  0  0  0  0  0  0  0  0
  -30.6645   -3.1446   -2.6905 C   0  0  0  0  0  0  0  0  0  0  0  0
  -29.8957   -2.3712   -3.5578 C   0  0  0  0  0  0  0  0  0  0  0  0
  -24.6573   -0.9288  -14.2820 C   0  0  0  0  0  0  0  0  0  0  0  0
  -23.1910   -0.5089  -14.1281 C   0  0  0  0  0  0  0  0  0  0  0  0
  -22.9694    1.0010  -13.9321 C   0  0  0  0  0  0  0  0  0  0  0  0
  -21.5604    1.4379  -14.0161 N   0  0  0  0  0  0  0  0  0  0  0  0
  -20.7926    0.6427  -14.9842 C   0  0  0  0  0  0  0  0  0  0  0  0
  -19.3281    1.0817  -15.0258 C   0  0  0  0  0  0  0  0  0  0  0  0
  -19.2033    2.5664  -15.3360 C   0  0  0  0  0  0  0  0  0  0  0  0
  -20.0541    3.3777  -14.3676 C   0  0  0  0  0  0  0  0  0  0  0  0
  -21.4979    2.8733  -14.3424 C   0  0  0  0  0  0  0  0  0  0  0  0
  1  2  2  0  0  0
  2  3  1  0  0  0
  2  7  1  0  0  0
  3  4  2  0  0  0
  4  8  1  0  0  0
  4  5  1  0  0  0
  8  9  1  0  0  0
  8 13  2  0  0  0
  9 10  2  0  0  0
 10 11  1  0  0  0
 11 12  2  0  0  0
 11 16  1  0  0  0
 12 13  1  0  0  0
 12 14  1  0  0  0
 14 15  2  0  0  0
 15 16  1  0  0  0
 16 17  1  0  0  0
 17 18  1  0  0  0
 17 22  2  0  0  0
 18 19  2  0  0  0
 19 20  1  0  0  0
 20 21  2  0  0  0
 21 22  1  0  0  0
  5  6  2  0  0  0
  6  7  1  0  0  0
  7 23  1  0  0  0
 23 24  1  0  0  0
 24 25  1  0  0  0
 25 26  1  0  0  0
 26 27  1  0  0  0
 26 31  1  0  0  0
 27 28  1  0  0  0
 28 29  1  0  0  0
 29 30  1  0  0  0
 30 31  1  0  0  0
M  END
> <minimizedAffinity>
-10.10112

$$$$
