CHEMBL376475


 39 42  0  0  0  0  0  0  0  0999 V2000
  -27.6602   -2.0668   -9.2109 N   0  0  0  0  0  0  0  0  0  0  0  0
  -27.8578   -1.0640  -10.1575 C   0  0  0  0  0  0  0  0  0  0  0  0
  -28.5712   -0.0792   -9.9907 O   0  0  0  0  0  0  0  0  0  0  0  0
  -27.2518   -2.9523   -9.4807 H   0  0  0  0  0  0  0  0  0  0  0  0
  -27.2088   -1.2276  -11.4902 C   0  0  0  0  0  0  0  0  0  0  0  0
  -26.0054   -0.5451  -11.7761 C   0  0  0  0  0  0  0  0  0  0  0  0
  -25.3563   -0.7314  -13.0065 C   0  0  0  0  0  0  0  0  0  0  0  0
  -25.8926   -1.6148  -13.9431 C   0  0  0  0  0  0  0  0  0  0  0  0
  -27.0758   -2.3031  -13.6603 C   0  0  0  0  0  0  0  0  0  0  0  0
  -27.7283   -2.1031  -12.4431 C   0  0  0  0  0  0  0  0  0  0  0  0
  -28.8528   -2.7880  -12.2080 F   0  0  0  0  0  0  0  0  0  0  0  0
  -24.1431   -0.0314  -13.3301 C   0  0  0  0  0  0  0  0  0  0  0  0
  -23.1562    0.5939  -13.6250 C   0  0  0  0  0  0  0  0  0  0  0  0
  -21.9890    1.3453  -13.9802 C   0  0  0  0  0  0  0  0  0  0  0  0
  -21.9501    2.7184  -13.9334 C   0  0  0  0  0  0  0  0  0  0  0  0
  -20.8783    3.4563  -14.3032 N   0  0  0  0  0  0  0  0  0  0  0  0
  -19.8131    2.7801  -14.7529 C   0  0  0  0  0  0  0  0  0  0  0  0
  -18.7331    3.5218  -15.1744 N   0  0  0  0  0  0  0  0  0  0  0  0
  -19.7257    1.4474  -14.7953 N   0  0  0  0  0  0  0  0  0  0  0  0
  -20.8235    0.7552  -14.4118 C   0  0  0  0  0  0  0  0  0  0  0  0
  -18.7355    4.4255  -14.7469 H   0  0  0  0  0  0  0  0  0  0  0  0
  -17.8918    2.9702  -15.1112 H   0  0  0  0  0  0  0  0  0  0  0  0
  -28.6843   -3.1122   -7.1854 C   0  0  0  0  0  0  0  0  0  0  0  0
  -29.2624   -2.8462   -5.9213 C   0  0  0  0  0  0  0  0  0  0  0  0
  -29.2705   -1.5794   -5.3381 C   0  0  0  0  0  0  0  0  0  0  0  0
  -28.6990   -0.5039   -6.0092 C   0  0  0  0  0  0  0  0  0  0  0  0
  -28.2023   -0.7146   -7.3029 C   0  0  0  0  0  0  0  0  0  0  0  0
  -28.2189   -1.9879   -7.9092 C   0  0  0  0  0  0  0  0  0  0  0  0
  -28.3459   -8.5988   -8.4999 C   0  0  0  0  0  0  0  0  0  0  0  0
  -28.6785   -7.1802   -8.6055 N   0  0  0  0  0  0  0  0  0  0  0  0
  -29.5698   -6.7620   -7.4997 C   0  0  0  0  0  0  0  0  0  0  0  0
  -29.9451   -5.2569   -7.5649 C   0  0  0  0  0  0  0  0  0  0  0  0
  -28.7308   -4.4372   -7.6106 N   0  0  0  0  0  0  0  0  0  0  0  0
  -27.7684   -4.8436   -8.6616 C   0  0  0  0  0  0  0  0  0  0  0  0
  -27.4527   -6.3536   -8.5606 C   0  0  0  0  0  0  0  0  0  0  0  0
  -28.5992    0.8481   -5.3594 C   0  0  0  0  0  0  0  0  0  0  0  0
  -27.7262    0.8837   -4.3129 F   0  0  0  0  0  0  0  0  0  0  0  0
  -28.1732    1.8103   -6.2246 F   0  0  0  0  0  0  0  0  0  0  0  0
  -29.7888    1.2901   -4.8642 F   0  0  0  0  0  0  0  0  0  0  0  0
 29 30  1  0  0  0
 30 31  1  0  0  0
 30 35  1  0  0  0
 31 32  1  0  0  0
 32 33  1  0  0  0
 33 23  1  0  0  0
 33 34  1  0  0  0
 23 24  1  0  0  0
 23 28  2  0  0  0
 24 25  2  0  0  0
 25 26  1  0  0  0
 26 36  1  0  0  0
 26 27  2  0  0  0
 36 37  1  0  0  0
 36 38  1  0  0  0
 36 39  1  0  0  0
 27 28  1  0  0  0
 28  1  1  0  0  0
  1  2  1  0  0  0
  1  4  1  0  0  0
  2  3  2  0  0  0
  2  5  1  0  0  0
  5  6  1  0  0  0
  5 10  2  0  0  0
  6  7  2  0  0  0
  7 12  1  0  0  0
  7  8  1  0  0  0
 12 13  3  0  0  0
 13 14  1  0  0  0
 14 15  1  0  0  0
 14 20  2  0  0  0
 15 16  2  0  0  0
 16 17  1  0  0  0
 17 18  1  0  0  0
 17 19  2  0  0  0
 18 21  1  0  0  0
 18 22  1  0  0  0
 19 20  1  0  0  0
  8  9  2  0  0  0
  9 10  1  0  0  0
 10 11  1  0  0  0
 34 35  1  0  0  0
M  END
> <minimizedAffinity>
-9.07977

$$$$
