CHEMBL2031900


 39 43  0  0  0  0  0  0  0  0999 V2000
  -15.4890    1.0629  -14.5830 C   0  0  0  0  0  0  0  0  0  0  0  0
  -14.2143    1.2041  -14.0496 C   0  0  0  0  0  0  0  0  0  0  0  0
  -13.6058    0.1077  -13.4173 C   0  0  0  0  0  0  0  0  0  0  0  0
  -14.3231   -1.0767  -13.2511 C   0  0  0  0  0  0  0  0  0  0  0  0
  -15.5993   -1.1719  -13.6662 N   0  0  0  0  0  0  0  0  0  0  0  0
  -16.1528   -0.1235  -14.3165 C   0  0  0  0  0  0  0  0  0  0  0  0
  -13.6822   -2.1890  -12.6664 N   0  0  0  0  0  0  0  0  0  0  0  0
  -14.1425   -2.8331  -11.5327 C   0  0  0  0  0  0  0  0  0  0  0  0
  -15.1066   -2.4809  -10.8612 O   0  0  0  0  0  0  0  0  0  0  0  0
  -12.8624   -2.5617  -13.1360 H   0  0  0  0  0  0  0  0  0  0  0  0
  -13.3978   -4.0578  -11.1381 C   0  0  0  0  0  0  0  0  0  0  0  0
  -12.7968   -4.3223   -9.9553 C   0  0  0  0  0  0  0  0  0  0  0  0
  -12.5907   -3.3905   -8.7985 C   0  0  0  0  0  0  0  0  0  0  0  0
  -12.3282   -5.6418   -9.8774 N   0  0  0  0  0  0  0  0  0  0  0  0
  -11.1954   -6.0711   -9.0583 C   0  0  0  0  0  0  0  0  0  0  0  0
  -12.4194   -6.1620  -11.1790 N   0  0  0  0  0  0  0  0  0  0  0  0
  -13.1351   -5.2621  -11.9768 C   0  0  0  0  0  0  0  0  0  0  0  0
  -13.5173   -5.3736  -13.1334 O   0  0  0  0  0  0  0  0  0  0  0  0
  -12.1902   -7.5189  -11.4727 C   0  0  0  0  0  0  0  0  0  0  0  0
  -13.2773   -8.3345  -11.8064 C   0  0  0  0  0  0  0  0  0  0  0  0
  -13.0711   -9.6625  -12.1903 C   0  0  0  0  0  0  0  0  0  0  0  0
  -11.7824  -10.1954  -12.2002 C   0  0  0  0  0  0  0  0  0  0  0  0
  -10.6967   -9.3934  -11.8427 C   0  0  0  0  0  0  0  0  0  0  0  0
  -10.8977   -8.0553  -11.5026 C   0  0  0  0  0  0  0  0  0  0  0  0
  -16.1603    1.9696  -15.3625 O   0  0  0  0  0  0  0  0  0  0  0  0
  -12.8382    1.1160  -19.2932 C   0  0  0  0  0  0  0  0  0  0  0  0
  -13.2572    2.4571  -19.2831 C   0  0  0  0  0  0  0  0  0  0  0  0
  -14.1666    2.9504  -18.3599 C   0  0  0  0  0  0  0  0  0  0  0  0
  -14.4131    4.2672  -18.3541 N   0  0  0  0  0  0  0  0  0  0  0  0
  -15.2451    4.7626  -17.4184 C   0  0  0  0  0  0  0  0  0  0  0  0
  -15.8151    3.9957  -16.4210 C   0  0  0  0  0  0  0  0  0  0  0  0
  -15.5538    2.6266  -16.4152 C   0  0  0  0  0  0  0  0  0  0  0  0
  -14.7635    2.0593  -17.4464 C   0  0  0  0  0  0  0  0  0  0  0  0
  -14.5106    0.6859  -17.6307 C   0  0  0  0  0  0  0  0  0  0  0  0
  -13.4993    0.2091  -18.4674 C   0  0  0  0  0  0  0  0  0  0  0  0
  -12.0944    0.7033  -21.5110 C   0  0  0  0  0  0  0  0  0  0  0  0
  -11.8310    0.6734  -20.1077 O   0  0  0  0  0  0  0  0  0  0  0  0
  -13.3044   -1.1278  -18.2806 O   0  0  0  0  0  0  0  0  0  0  0  0
  -12.9977   -1.6415  -16.9982 C   0  0  0  0  0  0  0  0  0  0  0  0
 36 37  1  0  0  0
 37 26  1  0  0  0
 26 27  1  0  0  0
 26 35  2  0  0  0
 27 28  2  0  0  0
 28 29  1  0  0  0
 28 33  1  0  0  0
 29 30  2  0  0  0
 30 31  1  0  0  0
 31 32  2  0  0  0
 32 25  1  0  0  0
 32 33  1  0  0  0
 25  1  1  0  0  0
  1  2  1  0  0  0
  1  6  2  0  0  0
  2  3  2  0  0  0
  3  4  1  0  0  0
  4  7  1  0  0  0
  4  5  2  0  0  0
  7  8  1  0  0  0
  7 10  1  0  0  0
  8  9  2  0  0  0
  8 11  1  0  0  0
 11 12  2  0  0  0
 11 17  1  0  0  0
 12 13  1  0  0  0
 12 14  1  0  0  0
 14 15  1  0  0  0
 14 16  1  0  0  0
 16 19  1  0  0  0
 16 17  1  0  0  0
 19 20  1  0  0  0
 19 24  2  0  0  0
 20 21  2  0  0  0
 21 22  1  0  0  0
 22 23  2  0  0  0
 23 24  1  0  0  0
 17 18  2  0  0  0
  5  6  1  0  0  0
 33 34  2  0  0  0
 34 35  1  0  0  0
 35 38  1  0  0  0
 38 39  1  0  0  0
M  END
> <minimizedAffinity>
-7.20642

$$$$
