CHEMBL1984711


 33 36  0  0  0  0  0  0  0  0999 V2000
  -29.1195   -4.6909   -6.3719 C   0  0  0  0  0  0  0  0  0  0  0  0
  -28.5842   -3.9092   -5.4202 N   0  0  0  0  0  0  0  0  0  0  0  0
  -28.1407   -2.7022   -5.7911 C   0  0  0  0  0  0  0  0  0  0  0  0
  -28.2150   -2.2430   -7.0791 C   0  0  0  0  0  0  0  0  0  0  0  0
  -28.7756   -3.1011   -8.0034 C   0  0  0  0  0  0  0  0  0  0  0  0
  -29.2266   -4.3212   -7.6497 N   0  0  0  0  0  0  0  0  0  0  0  0
  -29.5680   -5.9723   -6.0439 N   0  0  0  0  0  0  0  0  0  0  0  0
  -29.1673   -6.2404   -5.1533 H   0  0  0  0  0  0  0  0  0  0  0  0
  -31.1623   -8.6913   -8.0466 C   0  0  0  0  0  0  0  0  0  0  0  0
  -30.9946   -7.6052   -7.1817 C   0  0  0  0  0  0  0  0  0  0  0  0
  -29.7381   -7.0281   -6.9544 C   0  0  0  0  0  0  0  0  0  0  0  0
  -28.6404   -7.4952   -7.6786 C   0  0  0  0  0  0  0  0  0  0  0  0
  -28.7760   -8.6019   -8.5247 C   0  0  0  0  0  0  0  0  0  0  0  0
  -30.0413   -9.1919   -8.7342 C   0  0  0  0  0  0  0  0  0  0  0  0
  -32.9310   -9.9188   -7.0072 C   0  0  0  0  0  0  0  0  0  0  0  0
  -32.3599   -9.3472   -8.1779 O   0  0  0  0  0  0  0  0  0  0  0  0
  -27.7097   -9.1395   -9.2103 O   0  0  0  0  0  0  0  0  0  0  0  0
  -26.7960   -9.8934   -8.4184 C   0  0  0  0  0  0  0  0  0  0  0  0
  -30.0472  -10.2872   -9.5671 O   0  0  0  0  0  0  0  0  0  0  0  0
  -30.0862  -11.5623   -8.9388 C   0  0  0  0  0  0  0  0  0  0  0  0
  -28.7559   -2.7211   -9.3557 N   0  0  0  0  0  0  0  0  0  0  0  0
  -29.4876   -3.1182   -9.9299 H   0  0  0  0  0  0  0  0  0  0  0  0
  -27.7336   -2.0905   -9.9622 C   0  0  0  0  0  0  0  0  0  0  0  0
  -27.5907   -1.4282  -11.1548 C   0  0  0  0  0  0  0  0  0  0  0  0
  -26.2175   -1.1293  -11.2385 C   0  0  0  0  0  0  0  0  0  0  0  0
  -25.5662   -1.5285  -10.1375 N   0  0  0  0  0  0  0  0  0  0  0  0
  -26.5238   -2.1319   -9.3377 O   0  0  0  0  0  0  0  0  0  0  0  0
  -25.5030   -0.5027  -12.3959 C   0  0  0  0  0  0  0  0  0  0  0  0
  -25.2284   -1.5391  -13.4994 C   0  0  0  0  0  0  0  0  0  0  0  0
  -24.4421   -0.9462  -14.6632 C   0  0  0  0  0  0  0  0  0  0  0  0
  -23.1586   -0.2812  -14.1803 C   0  0  0  0  0  0  0  0  0  0  0  0
  -23.4529    0.7957  -13.1419 C   0  0  0  0  0  0  0  0  0  0  0  0
  -24.2276    0.2306  -11.9548 C   0  0  0  0  0  0  0  0  0  0  0  0
 15 16  1  0  0  0
 16  9  1  0  0  0
  9 10  1  0  0  0
  9 14  2  0  0  0
 10 11  2  0  0  0
 11  7  1  0  0  0
 11 12  1  0  0  0
  7  1  1  0  0  0
  7  8  1  0  0  0
  1  2  1  0  0  0
  1  6  2  0  0  0
  2  3  2  0  0  0
  3  4  1  0  0  0
  4  5  2  0  0  0
  5 21  1  0  0  0
  5  6  1  0  0  0
 21 23  1  0  0  0
 21 22  1  0  0  0
 23 24  2  0  0  0
 23 27  1  0  0  0
 24 25  1  0  0  0
 25 28  1  0  0  0
 25 26  2  0  0  0
 28 29  1  0  0  0
 28 33  1  0  0  0
 29 30  1  0  0  0
 30 31  1  0  0  0
 31 32  1  0  0  0
 32 33  1  0  0  0
 26 27  1  0  0  0
 12 13  2  0  0  0
 13 17  1  0  0  0
 13 14  1  0  0  0
 17 18  1  0  0  0
 14 19  1  0  0  0
 19 20  1  0  0  0
M  END
> <minimizedAffinity>
-9.05994

$$$$
