CHEMBL4449612


 39 43  0  0  0  0  0  0  0  0999 V2000
  -29.2210   -5.9379   -6.6634 N   0  0  0  0  0  0  0  0  0  0  0  0
  -29.0817   -5.7357   -7.6535 H   0  0  0  0  0  0  0  0  0  0  0  0
  -27.9821    0.5599   -7.2815 C   0  0  0  0  0  0  0  0  0  0  0  0
  -28.2977   -0.8681   -6.9264 C   0  0  0  0  0  0  0  0  0  0  0  0
  -28.8181   -1.1291   -5.7174 C   0  0  0  0  0  0  0  0  0  0  0  0
  -29.2682   -2.4677   -5.3706 C   0  0  0  0  0  0  0  0  0  0  0  0
  -29.9022   -2.6943   -4.1487 C   0  0  0  0  0  0  0  0  0  0  0  0
  -30.3345   -3.9677   -3.8737 C   0  0  0  0  0  0  0  0  0  0  0  0
  -30.1337   -5.0045   -4.7047 N   0  0  0  0  0  0  0  0  0  0  0  0
  -29.4766   -4.8018   -5.8752 C   0  0  0  0  0  0  0  0  0  0  0  0
  -29.0823   -3.5205   -6.2664 C   0  0  0  0  0  0  0  0  0  0  0  0
  -28.4737   -3.2365   -7.5882 C   0  0  0  0  0  0  0  0  0  0  0  0
  -28.2892   -4.1832   -8.3566 O   0  0  0  0  0  0  0  0  0  0  0  0
  -28.1379   -1.8876   -7.8800 N   0  0  0  0  0  0  0  0  0  0  0  0
  -27.6163   -1.6463   -9.1874 C   0  0  0  0  0  0  0  0  0  0  0  0
  -28.5038   -1.3906  -10.2466 C   0  0  0  0  0  0  0  0  0  0  0  0
  -28.0200   -1.2329  -11.5451 C   0  0  0  0  0  0  0  0  0  0  0  0
  -26.6551   -1.3406  -11.7817 C   0  0  0  0  0  0  0  0  0  0  0  0
  -26.1938   -1.2295  -13.0344 F   0  0  0  0  0  0  0  0  0  0  0  0
  -25.7621   -1.5757  -10.7423 C   0  0  0  0  0  0  0  0  0  0  0  0
  -26.2428   -1.7251   -9.4396 C   0  0  0  0  0  0  0  0  0  0  0  0
  -28.6974   -7.1617   -6.2201 C   0  0  0  0  0  0  0  0  0  0  0  0
  -27.9930   -7.2046   -5.0140 C   0  0  0  0  0  0  0  0  0  0  0  0
  -27.3860   -8.3906   -4.5933 C   0  0  0  0  0  0  0  0  0  0  0  0
  -27.4247   -9.5380   -5.4014 C   0  0  0  0  0  0  0  0  0  0  0  0
  -28.1704   -9.5020   -6.5776 C   0  0  0  0  0  0  0  0  0  0  0  0
  -28.2592  -10.5885   -7.3592 F   0  0  0  0  0  0  0  0  0  0  0  0
  -28.7976   -8.3342   -6.9808 C   0  0  0  0  0  0  0  0  0  0  0  0
  -26.7600  -10.7080   -5.1173 O   0  0  0  0  0  0  0  0  0  0  0  0
  -25.3823  -10.7141   -5.1945 C   0  0  0  0  0  0  0  0  0  0  0  0
  -24.7179  -10.2371   -6.3257 C   0  0  0  0  0  0  0  0  0  0  0  0
  -23.3465  -10.1244   -6.2765 C   0  0  0  0  0  0  0  0  0  0  0  0
  -22.6037  -10.5259   -5.2269 N   0  0  0  0  0  0  0  0  0  0  0  0
  -23.2448  -11.0850   -4.1790 C   0  0  0  0  0  0  0  0  0  0  0  0
  -22.4041  -11.4490   -3.1287 N   0  0  0  0  0  0  0  0  0  0  0  0
  -24.6367  -11.2080   -4.1200 C   0  0  0  0  0  0  0  0  0  0  0  0
  -25.5694  -12.1453   -2.4877 I   0  0  0  0  0  0  0  0  0  0  0  0
  -21.4475  -11.3428   -3.4547 H   0  0  0  0  0  0  0  0  0  0  0  0
  -22.6084  -12.3756   -2.7749 H   0  0  0  0  0  0  0  0  0  0  0  0
  3  4  1  0  0  0
  4  5  2  0  0  0
  4 14  1  0  0  0
  5  6  1  0  0  0
  6  7  1  0  0  0
  6 11  2  0  0  0
  7  8  2  0  0  0
  8  9  1  0  0  0
  9 10  2  0  0  0
 10  1  1  0  0  0
 10 11  1  0  0  0
  1 22  1  0  0  0
  1  2  1  0  0  0
 22 23  1  0  0  0
 22 28  2  0  0  0
 23 24  2  0  0  0
 24 25  1  0  0  0
 25 29  1  0  0  0
 25 26  2  0  0  0
 29 30  1  0  0  0
 30 31  1  0  0  0
 30 36  2  0  0  0
 31 32  2  0  0  0
 32 33  1  0  0  0
 33 34  2  0  0  0
 34 35  1  0  0  0
 34 36  1  0  0  0
 35 38  1  0  0  0
 35 39  1  0  0  0
 36 37  1  0  0  0
 26 27  1  0  0  0
 26 28  1  0  0  0
 11 12  1  0  0  0
 12 13  2  0  0  0
 12 14  1  0  0  0
 14 15  1  0  0  0
 15 16  1  0  0  0
 15 21  2  0  0  0
 16 17  2  0  0  0
 17 18  1  0  0  0
 18 19  1  0  0  0
 18 20  2  0  0  0
 20 21  1  0  0  0
M  END
> <minimizedAffinity>
-8.56334

$$$$
