CHEMBL411043


 27 30  0  0  0  0  0  0  0  0999 V2000
  -29.9294   -3.4688   -6.1422 N   0  0  0  0  0  0  0  0  0  0  0  0
  -30.0745   -4.5188   -6.9853 N   0  0  0  0  0  0  0  0  0  0  0  0
  -29.2423   -4.2291   -7.9881 C   0  0  0  0  0  0  0  0  0  0  0  0
  -28.5937   -2.9900   -7.8204 C   0  0  0  0  0  0  0  0  0  0  0  0
  -27.6795   -2.1986   -8.5302 C   0  0  0  0  0  0  0  0  0  0  0  0
  -27.3327   -1.0095   -7.9793 N   0  0  0  0  0  0  0  0  0  0  0  0
  -27.8822   -0.6482   -6.7986 C   0  0  0  0  0  0  0  0  0  0  0  0
  -28.7478   -1.3403   -6.0314 N   0  0  0  0  0  0  0  0  0  0  0  0
  -29.0655   -2.5122   -6.6086 C   0  0  0  0  0  0  0  0  0  0  0  0
  -27.2061   -2.5744   -9.7763 N   0  0  0  0  0  0  0  0  0  0  0  0
  -26.3198   -3.0609   -9.7758 H   0  0  0  0  0  0  0  0  0  0  0  0
  -27.3830   -1.6687  -10.8945 C   0  0  0  0  0  0  0  0  0  0  0  0
  -26.0843   -1.5967  -11.6661 C   0  0  0  0  0  0  0  0  0  0  0  0
  -26.1134   -1.6091  -13.0698 C   0  0  0  0  0  0  0  0  0  0  0  0
  -24.9336   -1.5297  -13.8091 C   0  0  0  0  0  0  0  0  0  0  0  0
  -23.7086   -1.4369  -13.1528 C   0  0  0  0  0  0  0  0  0  0  0  0
  -23.6638   -1.4290  -11.7589 C   0  0  0  0  0  0  0  0  0  0  0  0
  -24.8452   -1.5103  -11.0163 C   0  0  0  0  0  0  0  0  0  0  0  0
  -30.7325   -3.4136   -4.9391 C   0  0  0  0  0  0  0  0  0  0  0  0
  -28.7680   -2.8571   -3.0515 Cl  0  0  0  0  0  0  0  0  0  0  0  0
  -30.0298   -3.9664   -3.6950 C   0  0  0  0  0  0  0  0  0  0  0  0
  -29.3813   -5.3130   -3.9770 C   0  0  0  0  0  0  0  0  0  0  0  0
  -28.0002   -5.3966   -4.2095 C   0  0  0  0  0  0  0  0  0  0  0  0
  -27.3969   -6.6294   -4.4657 C   0  0  0  0  0  0  0  0  0  0  0  0
  -28.1601   -7.7938   -4.4959 C   0  0  0  0  0  0  0  0  0  0  0  0
  -29.5337   -7.7272   -4.2710 C   0  0  0  0  0  0  0  0  0  0  0  0
  -30.1399   -6.4978   -4.0153 C   0  0  0  0  0  0  0  0  0  0  0  0
 20 21  1  0  0  0
 21 19  1  0  0  0
 21 22  1  0  0  0
 19  1  1  0  0  0
  1  2  1  0  0  0
  1  9  1  0  0  0
  2  3  2  0  0  0
  3  4  1  0  0  0
  4  5  1  0  0  0
  4  9  2  0  0  0
  5 10  1  0  0  0
  5  6  2  0  0  0
 10 12  1  0  0  0
 10 11  1  0  0  0
 12 13  1  0  0  0
 13 14  1  0  0  0
 13 18  2  0  0  0
 14 15  2  0  0  0
 15 16  1  0  0  0
 16 17  2  0  0  0
 17 18  1  0  0  0
  6  7  1  0  0  0
  7  8  2  0  0  0
  8  9  1  0  0  0
 22 23  1  0  0  0
 22 27  2  0  0  0
 23 24  2  0  0  0
 24 25  1  0  0  0
 25 26  2  0  0  0
 26 27  1  0  0  0
M  END
> <minimizedAffinity>
-8.60092

$$$$
