CHEMBL424839


 34 37  0  0  0  0  0  0  0  0999 V2000
  -16.0073    2.7447  -16.2711 C   0  0  0  0  0  0  0  0  0  0  0  0
  -17.2034    3.3620  -16.3473 N   0  0  0  0  0  0  0  0  0  0  0  0
  -18.0908    3.0746  -15.3948 C   0  0  0  0  0  0  0  0  0  0  0  0
  -17.9180    2.2027  -14.4001 N   0  0  0  0  0  0  0  0  0  0  0  0
  -16.7314    1.5942  -14.3325 C   0  0  0  0  0  0  0  0  0  0  0  0
  -16.5476    0.6793  -13.3101 C   0  0  0  0  0  0  0  0  0  0  0  0
  -15.3324    0.0293  -13.1083 C   0  0  0  0  0  0  0  0  0  0  0  0
  -14.2705    0.2786  -13.9645 C   0  0  0  0  0  0  0  0  0  0  0  0
  -14.4456    1.1399  -15.0496 C   0  0  0  0  0  0  0  0  0  0  0  0
  -15.6867    1.8294  -15.2373 C   0  0  0  0  0  0  0  0  0  0  0  0
  -15.0467    3.0227  -17.2754 N   0  0  0  0  0  0  0  0  0  0  0  0
  -15.2747    2.4701  -18.0962 H   0  0  0  0  0  0  0  0  0  0  0  0
  -14.8472    5.9041  -19.3647 C   0  0  0  0  0  0  0  0  0  0  0  0
  -13.9427    6.7485  -18.7412 C   0  0  0  0  0  0  0  0  0  0  0  0
  -13.3471    6.3122  -17.5637 C   0  0  0  0  0  0  0  0  0  0  0  0
  -13.6837    5.0641  -17.0431 C   0  0  0  0  0  0  0  0  0  0  0  0
  -12.7928    4.5073  -15.6700 Cl  0  0  0  0  0  0  0  0  0  0  0  0
  -14.6429    4.2883  -17.7133 C   0  0  0  0  0  0  0  0  0  0  0  0
  -15.1982    4.6917  -18.8875 N   0  0  0  0  0  0  0  0  0  0  0  0
  -15.5210    7.7824  -20.5896 C   0  0  0  0  0  0  0  0  0  0  0  0
  -15.3784    6.3671  -20.5515 O   0  0  0  0  0  0  0  0  0  0  0  0
  -15.3144   -0.8537  -12.0689 O   0  0  0  0  0  0  0  0  0  0  0  0
  -15.5270   -2.2272  -12.3965 C   0  0  0  0  0  0  0  0  0  0  0  0
  -15.9714   -2.9233  -11.1167 C   0  0  0  0  0  0  0  0  0  0  0  0
  -14.9998   -4.0394  -10.7350 C   0  0  0  0  0  0  0  0  0  0  0  0
  -15.5609   -5.3937  -10.8847 N   0  0  0  0  0  0  0  0  0  0  0  0
  -14.6310   -6.3593  -11.4960 C   0  0  0  0  0  0  0  0  0  0  0  0
  -14.7288   -6.0902  -12.9829 C   0  0  0  0  0  0  0  0  0  0  0  0
  -16.2152   -5.8536  -13.1709 C   0  0  0  0  0  0  0  0  0  0  0  0
  -16.7146   -5.3653  -11.8104 C   0  0  0  0  0  0  0  0  0  0  0  0
  -13.4561    1.3760  -15.9719 O   0  0  0  0  0  0  0  0  0  0  0  0
  -12.7628    0.2733  -16.5679 C   0  0  0  0  0  0  0  0  0  0  0  0
  -13.5082   -0.2454  -17.7970 C   0  0  0  0  0  0  0  0  0  0  0  0
  -11.3939    0.8032  -16.9927 C   0  0  0  0  0  0  0  0  0  0  0  0
 20 21  1  0  0  0
 21 13  1  0  0  0
 13 14  1  0  0  0
 13 19  2  0  0  0
 14 15  2  0  0  0
 15 16  1  0  0  0
 16 17  1  0  0  0
 16 18  2  0  0  0
 18 11  1  0  0  0
 18 19  1  0  0  0
 11  1  1  0  0  0
 11 12  1  0  0  0
  1  2  1  0  0  0
  1 10  2  0  0  0
  2  3  2  0  0  0
  3  4  1  0  0  0
  4  5  2  0  0  0
  5  6  1  0  0  0
  5 10  1  0  0  0
  6  7  2  0  0  0
  7 22  1  0  0  0
  7  8  1  0  0  0
 22 23  1  0  0  0
 23 24  1  0  0  0
 24 25  1  0  0  0
 25 26  1  0  0  0
 26 27  1  0  0  0
 26 30  1  0  0  0
 27 28  1  0  0  0
 28 29  1  0  0  0
 29 30  1  0  0  0
  8  9  2  0  0  0
  9 31  1  0  0  0
  9 10  1  0  0  0
 31 32  1  0  0  0
 32 33  1  0  0  0
 32 34  1  0  0  0
M  END
> <minimizedAffinity>
-6.75084

$$$$
