CHEMBL4467107


 29 31  0  0  0  0  0  0  0  0999 V2000
  -18.3681    2.0409  -14.7450 C   0  0  0  0  0  0  0  0  0  0  0  0
  -18.7613    3.3229  -14.7721 N   0  0  0  0  0  0  0  0  0  0  0  0
  -20.0907    3.5244  -14.7486 C   0  0  0  0  0  0  0  0  0  0  0  0
  -21.0154    2.5061  -14.6967 C   0  0  0  0  0  0  0  0  0  0  0  0
  -20.5194    1.2183  -14.6652 C   0  0  0  0  0  0  0  0  0  0  0  0
  -19.1988    0.9903  -14.6792 N   0  0  0  0  0  0  0  0  0  0  0  0
  -21.4429    0.1491  -14.7048 N   0  0  0  0  0  0  0  0  0  0  0  0
  -21.5224   -0.2456  -15.6347 H   0  0  0  0  0  0  0  0  0  0  0  0
  -22.5731   -0.0941  -13.8949 C   0  0  0  0  0  0  0  0  0  0  0  0
  -22.5214   -0.0964  -12.4967 C   0  0  0  0  0  0  0  0  0  0  0  0
  -23.6171   -0.5022  -11.7259 C   0  0  0  0  0  0  0  0  0  0  0  0
  -24.7955   -0.9330  -12.3396 C   0  0  0  0  0  0  0  0  0  0  0  0
  -24.8703   -0.9431  -13.7337 C   0  0  0  0  0  0  0  0  0  0  0  0
  -23.7664   -0.5318  -14.4992 C   0  0  0  0  0  0  0  0  0  0  0  0
  -25.8926   -1.4228  -11.4637 C   0  0  0  0  0  0  0  0  0  0  0  0
  -27.2164   -1.8130  -12.0601 C   0  0  0  0  0  0  0  0  0  0  0  0
  -25.7102   -1.4838  -10.2474 O   0  0  0  0  0  0  0  0  0  0  0  0
  -16.6424    1.6448  -14.8588 S   0  0  0  0  0  0  0  0  0  0  0  0
  -16.6768   -0.1130  -14.4120 C   0  0  0  0  0  0  0  0  0  0  0  0
  -15.9258   -0.3905  -13.1153 C   0  0  0  0  0  0  0  0  0  0  0  0
  -15.4002    0.4775  -12.4206 O   0  0  0  0  0  0  0  0  0  0  0  0
  -15.6533   -4.5174  -11.8823 C   0  0  0  0  0  0  0  0  0  0  0  0
  -15.7339   -4.1823  -13.2340 C   0  0  0  0  0  0  0  0  0  0  0  0
  -15.8205   -2.8357  -13.6186 C   0  0  0  0  0  0  0  0  0  0  0  0
  -15.8277   -1.8141  -12.6576 C   0  0  0  0  0  0  0  0  0  0  0  0
  -15.7401   -2.1565  -11.3046 C   0  0  0  0  0  0  0  0  0  0  0  0
  -15.6548   -3.4998  -10.9279 C   0  0  0  0  0  0  0  0  0  0  0  0
  -15.0868   -6.7999  -12.2297 C   0  0  0  0  0  0  0  0  0  0  0  0
  -15.5722   -5.7797  -11.3667 O   0  0  0  0  0  0  0  0  0  0  0  0
 28 29  1  0  0  0
 29 22  1  0  0  0
 22 23  1  0  0  0
 22 27  2  0  0  0
 23 24  2  0  0  0
 24 25  1  0  0  0
 25 20  1  0  0  0
 25 26  2  0  0  0
 20 21  2  0  0  0
 20 19  1  0  0  0
 19 18  1  0  0  0
 18  1  1  0  0  0
  1  2  1  0  0  0
  1  6  2  0  0  0
  2  3  2  0  0  0
  3  4  1  0  0  0
  4  5  2  0  0  0
  5  7  1  0  0  0
  5  6  1  0  0  0
  7  9  1  0  0  0
  7  8  1  0  0  0
  9 10  1  0  0  0
  9 14  2  0  0  0
 10 11  2  0  0  0
 11 12  1  0  0  0
 12 15  1  0  0  0
 12 13  2  0  0  0
 15 16  1  0  0  0
 15 17  2  0  0  0
 13 14  1  0  0  0
 26 27  1  0  0  0
M  END
> <minimizedAffinity>
-9.20750

$$$$
