CHEMBL3690447


 35 38  0  0  0  0  0  0  0  0999 V2000
  -14.3340   -2.5099  -12.1273 C   0  0  0  0  0  0  0  0  0  0  0  0
  -15.5670   -1.7328  -12.0176 C   0  0  0  0  0  0  0  0  0  0  0  0
  -15.8508   -0.8013  -12.9403 C   0  0  0  0  0  0  0  0  0  0  0  0
  -14.9475   -0.5512  -13.9761 N   0  0  0  0  0  0  0  0  0  0  0  0
  -14.9846    0.3672  -15.0205 C   0  0  0  0  0  0  0  0  0  0  0  0
  -13.8506    0.0632  -15.7641 C   0  0  0  0  0  0  0  0  0  0  0  0
  -13.1119   -0.9433  -15.2071 N   0  0  0  0  0  0  0  0  0  0  0  0
  -13.7684   -1.2851  -14.1229 C   0  0  0  0  0  0  0  0  0  0  0  0
  -13.4772   -2.2827  -13.1481 C   0  0  0  0  0  0  0  0  0  0  0  0
  -15.4952   -5.2054  -12.3800 N   0  0  0  0  0  0  0  0  0  0  0  0
  -14.5942   -4.8914  -11.3597 C   0  0  0  0  0  0  0  0  0  0  0  0
  -14.3436   -5.8814  -10.4799 N   0  0  0  0  0  0  0  0  0  0  0  0
  -13.5261   -5.5638   -9.4481 C   0  0  0  0  0  0  0  0  0  0  0  0
  -12.9733   -4.3045   -9.2899 C   0  0  0  0  0  0  0  0  0  0  0  0
  -13.2063   -3.2984  -10.1599 N   0  0  0  0  0  0  0  0  0  0  0  0
  -14.0297   -3.6095  -11.1955 C   0  0  0  0  0  0  0  0  0  0  0  0
  -15.6911   -6.2010  -12.3230 H   0  0  0  0  0  0  0  0  0  0  0  0
  -15.1568   -4.9252  -13.2942 H   0  0  0  0  0  0  0  0  0  0  0  0
  -16.0216    1.3756  -15.2900 C   0  0  0  0  0  0  0  0  0  0  0  0
  -15.7371    2.4134  -16.1885 C   0  0  0  0  0  0  0  0  0  0  0  0
  -16.6792    3.4015  -16.4575 C   0  0  0  0  0  0  0  0  0  0  0  0
  -17.9369    3.3479  -15.8623 C   0  0  0  0  0  0  0  0  0  0  0  0
  -18.2660    2.3208  -14.9796 C   0  0  0  0  0  0  0  0  0  0  0  0
  -17.2832    1.3665  -14.6627 C   0  0  0  0  0  0  0  0  0  0  0  0
  -19.5487    2.1919  -14.3923 N   0  0  0  0  0  0  0  0  0  0  0  0
  -20.4560    1.1820  -14.6169 C   0  0  0  0  0  0  0  0  0  0  0  0
  -20.3215    0.2230  -15.3611 O   0  0  0  0  0  0  0  0  0  0  0  0
  -21.6361    1.3697  -13.9296 N   0  0  0  0  0  0  0  0  0  0  0  0
  -19.8211    2.9065  -13.7325 H   0  0  0  0  0  0  0  0  0  0  0  0
  -21.5681    1.8119  -13.0252 H   0  0  0  0  0  0  0  0  0  0  0  0
  -22.6931    0.3611  -14.0996 C   0  0  0  0  0  0  0  0  0  0  0  0
  -23.0008   -0.5155  -12.8753 C   0  0  0  0  0  0  0  0  0  0  0  0
  -24.2948   -0.4176  -12.4925 F   0  0  0  0  0  0  0  0  0  0  0  0
  -22.7830   -1.8205  -13.1802 F   0  0  0  0  0  0  0  0  0  0  0  0
  -22.2214   -0.2185  -11.8155 F   0  0  0  0  0  0  0  0  0  0  0  0
 10 11  1  0  0  0
 10 17  1  0  0  0
 10 18  1  0  0  0
 11 12  1  0  0  0
 11 16  2  0  0  0
 12 13  2  0  0  0
 13 14  1  0  0  0
 14 15  2  0  0  0
 15 16  1  0  0  0
 16  1  1  0  0  0
  1  2  1  0  0  0
  1  9  2  0  0  0
  2  3  2  0  0  0
  3  4  1  0  0  0
  4  5  1  0  0  0
  4  8  1  0  0  0
  5 19  1  0  0  0
  5  6  2  0  0  0
 19 20  1  0  0  0
 19 24  2  0  0  0
 20 21  2  0  0  0
 21 22  1  0  0  0
 22 23  2  0  0  0
 23 25  1  0  0  0
 23 24  1  0  0  0
 25 26  1  0  0  0
 25 29  1  0  0  0
 26 27  2  0  0  0
 26 28  1  0  0  0
 28 31  1  0  0  0
 28 30  1  0  0  0
 31 32  1  0  0  0
 32 33  1  0  0  0
 32 34  1  0  0  0
 32 35  1  0  0  0
  6  7  1  0  0  0
  7  8  2  0  0  0
  8  9  1  0  0  0
M  END
> <minimizedAffinity>
-9.37925

$$$$
