CHEMBL245734


 30 34  0  0  0  0  0  0  0  0999 V2000
  -30.2008   -6.1142   -6.2787 C   0  0  0  0  0  0  0  0  0  0  0  0
  -30.6396   -6.2033   -4.9441 C   0  0  0  0  0  0  0  0  0  0  0  0
  -30.3287   -5.2409   -3.9656 C   0  0  0  0  0  0  0  0  0  0  0  0
  -29.6228   -4.1004   -4.3071 C   0  0  0  0  0  0  0  0  0  0  0  0
  -29.2604   -3.9732   -5.6299 C   0  0  0  0  0  0  0  0  0  0  0  0
  -29.5288   -4.9481   -6.6352 C   0  0  0  0  0  0  0  0  0  0  0  0
  -29.0304   -4.5120   -8.0257 C   0  0  0  0  0  0  0  0  0  0  0  0
  -28.4726   -3.1785   -7.6401 C   0  0  0  0  0  0  0  0  0  0  0  0
  -28.6074   -2.8953   -6.2767 C   0  0  0  0  0  0  0  0  0  0  0  0
  -28.1295   -1.7194   -5.9036 N   0  0  0  0  0  0  0  0  0  0  0  0
  -27.6671   -1.2302   -7.0803 N   0  0  0  0  0  0  0  0  0  0  0  0
  -27.8510   -2.0737   -8.1579 C   0  0  0  0  0  0  0  0  0  0  0  0
  -27.2454   -0.3085   -7.0782 H   0  0  0  0  0  0  0  0  0  0  0  0
  -29.8823  -10.3968   -7.7425 C   0  0  0  0  0  0  0  0  0  0  0  0
  -28.3855  -10.5139   -7.3538 C   0  0  0  0  0  0  0  0  0  0  0  0
  -27.8150   -9.2102   -6.7795 C   0  0  0  0  0  0  0  0  0  0  0  0
  -28.1626   -7.9987   -7.6550 C   0  0  0  0  0  0  0  0  0  0  0  0
  -29.6032   -7.9724   -7.9020 N   0  0  0  0  0  0  0  0  0  0  0  0
  -30.5616   -7.1492   -7.2967 C   0  0  0  0  0  0  0  0  0  0  0  0
  -31.7579   -7.3029   -7.5601 O   0  0  0  0  0  0  0  0  0  0  0  0
  -30.0684   -9.1593   -8.6201 C   0  0  0  0  0  0  0  0  0  0  0  0
  -30.3824  -10.9165   -5.4353 O   0  0  0  0  0  0  0  0  0  0  0  0
  -30.7746  -10.4633   -6.5048 C   0  0  0  0  0  0  0  0  0  0  0  0
  -32.0605  -10.0903   -6.6494 O   0  0  0  0  0  0  0  0  0  0  0  0
  -32.3052   -9.5291   -7.4184 H   0  0  0  0  0  0  0  0  0  0  0  0
  -27.4511   -1.7985   -9.5614 C   0  0  0  0  0  0  0  0  0  0  0  0
  -28.3415   -1.6504  -10.6596 C   0  0  0  0  0  0  0  0  0  0  0  0
  -27.6819   -1.4040  -11.8464 C   0  0  0  0  0  0  0  0  0  0  0  0
  -25.9848   -1.3589  -11.6345 S   0  0  0  0  0  0  0  0  0  0  0  0
  -26.1362   -1.6644   -9.9552 C   0  0  0  0  0  0  0  0  0  0  0  0
 22 23  2  0  0  0
 23 24  1  0  0  0
 23 14  1  0  0  0
 24 25  1  0  0  0
 14 15  1  0  0  0
 14 21  1  0  0  0
 15 16  1  0  0  0
 16 17  1  0  0  0
 17 18  1  0  0  0
 18 19  1  0  0  0
 18 21  1  0  0  0
 19 20  2  0  0  0
 19  1  1  0  0  0
  1  2  1  0  0  0
  1  6  2  0  0  0
  2  3  2  0  0  0
  3  4  1  0  0  0
  4  5  2  0  0  0
  5  6  1  0  0  0
  5  9  1  0  0  0
  6  7  1  0  0  0
  7  8  1  0  0  0
  8  9  1  0  0  0
  8 12  2  0  0  0
  9 10  2  0  0  0
 10 11  1  0  0  0
 11 12  1  0  0  0
 11 13  1  0  0  0
 12 26  1  0  0  0
 26 27  1  0  0  0
 26 30  2  0  0  0
 27 28  2  0  0  0
 28 29  1  0  0  0
 29 30  1  0  0  0
M  END
> <minimizedAffinity>
-8.05472

$$$$
