CHEMBL204427


 32 36  0  0  0  0  0  0  0  0999 V2000
  -14.4469   -4.6216  -12.3487 C   0  0  0  0  0  0  0  0  0  0  0  0
  -15.5281   -4.0947  -11.6160 C   0  0  0  0  0  0  0  0  0  0  0  0
  -15.9121   -2.7491  -11.6693 C   0  0  0  0  0  0  0  0  0  0  0  0
  -15.1713   -1.9360  -12.5159 C   0  0  0  0  0  0  0  0  0  0  0  0
  -15.2446   -0.6017  -12.8075 N   0  0  0  0  0  0  0  0  0  0  0  0
  -14.2879   -0.3033  -13.7498 C   0  0  0  0  0  0  0  0  0  0  0  0
  -13.5972   -1.3912  -14.0603 N   0  0  0  0  0  0  0  0  0  0  0  0
  -14.1159   -2.4007  -13.2852 C   0  0  0  0  0  0  0  0  0  0  0  0
  -13.7380   -3.7505  -13.1933 C   0  0  0  0  0  0  0  0  0  0  0  0
  -15.8636    0.0747  -12.3766 H   0  0  0  0  0  0  0  0  0  0  0  0
  -14.1650    1.0351  -14.2351 C   0  0  0  0  0  0  0  0  0  0  0  0
  -14.7479    1.3794  -15.4111 C   0  0  0  0  0  0  0  0  0  0  0  0
  -15.5830    0.5372  -16.1516 N   0  0  0  0  0  0  0  0  0  0  0  0
  -14.4720    2.7277  -15.9828 C   0  0  0  0  0  0  0  0  0  0  0  0
  -15.0013    3.1597  -17.2092 C   0  0  0  0  0  0  0  0  0  0  0  0
  -14.6478    4.3991  -17.7503 C   0  0  0  0  0  0  0  0  0  0  0  0
  -13.7766    5.2395  -17.0605 C   0  0  0  0  0  0  0  0  0  0  0  0
  -13.2717    4.8500  -15.8233 C   0  0  0  0  0  0  0  0  0  0  0  0
  -13.6172    3.6024  -15.2955 C   0  0  0  0  0  0  0  0  0  0  0  0
  -13.0963    3.2325  -14.0566 N   0  0  0  0  0  0  0  0  0  0  0  0
  -13.3484    2.0301  -13.4646 C   0  0  0  0  0  0  0  0  0  0  0  0
  -12.9167    1.7920  -12.3359 O   0  0  0  0  0  0  0  0  0  0  0  0
  -15.5243   -0.4284  -15.7974 H   0  0  0  0  0  0  0  0  0  0  0  0
  -15.3600    0.5360  -17.1416 H   0  0  0  0  0  0  0  0  0  0  0  0
  -12.5173    3.8740  -13.5316 H   0  0  0  0  0  0  0  0  0  0  0  0
  -12.6141   -9.8857  -12.6883 C   0  0  0  0  0  0  0  0  0  0  0  0
  -13.4991   -8.8043  -12.2620 N   0  0  0  0  0  0  0  0  0  0  0  0
  -12.7466   -7.8048  -11.4650 C   0  0  0  0  0  0  0  0  0  0  0  0
  -13.6074   -6.5842  -11.0546 C   0  0  0  0  0  0  0  0  0  0  0  0
  -14.1717   -5.9778  -12.2684 N   0  0  0  0  0  0  0  0  0  0  0  0
  -14.9797   -6.9231  -13.0597 C   0  0  0  0  0  0  0  0  0  0  0  0
  -14.1050   -8.1397  -13.4411 C   0  0  0  0  0  0  0  0  0  0  0  0
 26 27  1  0  0  0
 27 28  1  0  0  0
 27 32  1  0  0  0
 28 29  1  0  0  0
 29 30  1  0  0  0
 30  1  1  0  0  0
 30 31  1  0  0  0
  1  2  1  0  0  0
  1  9  2  0  0  0
  2  3  2  0  0  0
  3  4  1  0  0  0
  4  5  1  0  0  0
  4  8  2  0  0  0
  5  6  1  0  0  0
  5 10  1  0  0  0
  6 11  1  0  0  0
  6  7  2  0  0  0
 11 12  2  0  0  0
 11 21  1  0  0  0
 12 13  1  0  0  0
 12 14  1  0  0  0
 13 23  1  0  0  0
 13 24  1  0  0  0
 14 15  1  0  0  0
 14 19  2  0  0  0
 15 16  2  0  0  0
 16 17  1  0  0  0
 17 18  2  0  0  0
 18 19  1  0  0  0
 19 20  1  0  0  0
 20 21  1  0  0  0
 20 25  1  0  0  0
 21 22  2  0  0  0
  7  8  1  0  0  0
  8  9  1  0  0  0
 31 32  1  0  0  0
M  END
> <minimizedAffinity>
-7.88891

$$$$
