CHEMBL190783


 39 41  0  0  0  0  0  0  0  0999 V2000
  -28.2657   -8.7953   -5.3778 C   0  0  0  0  0  0  0  0  0  0  0  0
  -28.7980   -8.0001   -4.4076 N   0  0  0  0  0  0  0  0  0  0  0  0
  -29.3423   -6.8044   -4.7318 C   0  0  0  0  0  0  0  0  0  0  0  0
  -29.7841   -5.9562   -3.7915 N   0  0  0  0  0  0  0  0  0  0  0  0
  -30.3210   -4.7794   -4.1621 C   0  0  0  0  0  0  0  0  0  0  0  0
  -30.4869   -4.4024   -5.4345 N   0  0  0  0  0  0  0  0  0  0  0  0
  -30.0362   -5.2432   -6.3659 C   0  0  0  0  0  0  0  0  0  0  0  0
  -29.4494   -6.4517   -6.0717 C   0  0  0  0  0  0  0  0  0  0  0  0
  -28.9849   -7.3087   -7.0702 C   0  0  0  0  0  0  0  0  0  0  0  0
  -28.3576   -8.5185   -6.7544 C   0  0  0  0  0  0  0  0  0  0  0  0
  -25.8953  -11.0874   -3.8826 N   0  0  0  0  0  0  0  0  0  0  0  0
  -26.3899   -9.8894   -4.3370 C   0  0  0  0  0  0  0  0  0  0  0  0
  -25.7694   -8.8332   -4.2032 O   0  0  0  0  0  0  0  0  0  0  0  0
  -27.6295   -9.9968   -4.9335 N   0  0  0  0  0  0  0  0  0  0  0  0
  -26.2659  -11.9416   -4.2913 H   0  0  0  0  0  0  0  0  0  0  0  0
  -28.2443  -10.5721   -4.3778 H   0  0  0  0  0  0  0  0  0  0  0  0
  -24.6834  -11.9007   -1.8451 C   0  0  0  0  0  0  0  0  0  0  0  0
  -24.6159  -11.1707   -3.1810 C   0  0  0  0  0  0  0  0  0  0  0  0
  -27.9450   -9.4245   -7.8565 C   0  0  0  0  0  0  0  0  0  0  0  0
  -26.7082  -10.1038   -7.8269 C   0  0  0  0  0  0  0  0  0  0  0  0
  -26.2946  -10.9099   -8.8881 C   0  0  0  0  0  0  0  0  0  0  0  0
  -27.1312  -11.0734   -9.9932 C   0  0  0  0  0  0  0  0  0  0  0  0
  -28.3548  -10.4185  -10.0530 C   0  0  0  0  0  0  0  0  0  0  0  0
  -28.7319   -9.5864   -9.0052 C   0  0  0  0  0  0  0  0  0  0  0  0
  -25.1073  -11.5865   -8.9673 O   0  0  0  0  0  0  0  0  0  0  0  0
  -24.2875  -11.5948   -7.8060 C   0  0  0  0  0  0  0  0  0  0  0  0
  -29.2753  -10.4926  -11.0610 O   0  0  0  0  0  0  0  0  0  0  0  0
  -28.7986  -10.2489  -12.3744 C   0  0  0  0  0  0  0  0  0  0  0  0
  -30.6515   -3.8804   -3.1684 N   0  0  0  0  0  0  0  0  0  0  0  0
  -31.6304   -3.9452   -2.9272 H   0  0  0  0  0  0  0  0  0  0  0  0
  -30.0265   -2.5661   -3.1981 C   0  0  0  0  0  0  0  0  0  0  0  0
  -28.4966   -2.6944   -3.3051 C   0  0  0  0  0  0  0  0  0  0  0  0
  -27.9177   -1.5770   -4.1798 C   0  0  0  0  0  0  0  0  0  0  0  0
  -28.7429   -1.2186   -5.4243 C   0  0  0  0  0  0  0  0  0  0  0  0
  -28.1017   -0.3450   -6.4314 N   0  0  0  0  0  0  0  0  0  0  0  0
  -27.8135   -1.0278   -7.7047 C   0  0  0  0  0  0  0  0  0  0  0  0
  -28.0362   -2.5387   -7.7444 C   0  0  0  0  0  0  0  0  0  0  0  0
  -28.9151    0.8766   -6.5983 C   0  0  0  0  0  0  0  0  0  0  0  0
  -30.0506    1.0412   -5.5912 C   0  0  0  0  0  0  0  0  0  0  0  0
 17 18  1  0  0  0
 18 11  1  0  0  0
 11 12  1  0  0  0
 11 15  1  0  0  0
 12 13  2  0  0  0
 12 14  1  0  0  0
 14  1  1  0  0  0
 14 16  1  0  0  0
  1  2  1  0  0  0
  1 10  2  0  0  0
  2  3  2  0  0  0
  3  4  1  0  0  0
  3  8  1  0  0  0
  4  5  2  0  0  0
  5 29  1  0  0  0
  5  6  1  0  0  0
 29 31  1  0  0  0
 29 30  1  0  0  0
 31 32  1  0  0  0
 32 33  1  0  0  0
 33 34  1  0  0  0
 34 35  1  0  0  0
 35 36  1  0  0  0
 35 38  1  0  0  0
 36 37  1  0  0  0
 38 39  1  0  0  0
  6  7  2  0  0  0
  7  8  1  0  0  0
  8  9  2  0  0  0
  9 10  1  0  0  0
 10 19  1  0  0  0
 19 20  1  0  0  0
 19 24  2  0  0  0
 20 21  2  0  0  0
 21 25  1  0  0  0
 21 22  1  0  0  0
 25 26  1  0  0  0
 22 23  2  0  0  0
 23 27  1  0  0  0
 23 24  1  0  0  0
 27 28  1  0  0  0
M  END
> <minimizedAffinity>
-7.55517

$$$$
