CHEMBL3901787


 40 44  0  0  0  0  0  0  0  0999 V2000
  -12.9204   -2.1133  -15.4820 C   0  0  0  0  0  0  0  0  0  0  0  0
  -13.3827   -0.8202  -15.7640 C   0  0  0  0  0  0  0  0  0  0  0  0
  -13.4657   -0.3337  -17.0926 C   0  0  0  0  0  0  0  0  0  0  0  0
  -13.8792    0.9482  -17.4775 C   0  0  0  0  0  0  0  0  0  0  0  0
  -13.9639    1.3182  -18.7733 N   0  0  0  0  0  0  0  0  0  0  0  0
  -13.6292    0.4109  -19.6909 C   0  0  0  0  0  0  0  0  0  0  0  0
  -13.2203   -0.8303  -19.4374 N   0  0  0  0  0  0  0  0  0  0  0  0
  -13.1493   -1.1794  -18.1506 C   0  0  0  0  0  0  0  0  0  0  0  0
  -12.7307   -2.4589  -17.8624 C   0  0  0  0  0  0  0  0  0  0  0  0
  -12.5622   -2.9430  -16.5507 C   0  0  0  0  0  0  0  0  0  0  0  0
  -13.8038   -1.6560  -13.3150 C   0  0  0  0  0  0  0  0  0  0  0  0
  -12.9375   -2.4088  -14.1511 O   0  0  0  0  0  0  0  0  0  0  0  0
  -14.2365    1.8977  -16.4856 N   0  0  0  0  0  0  0  0  0  0  0  0
  -13.5878    2.6780  -16.5109 H   0  0  0  0  0  0  0  0  0  0  0  0
  -15.5738    2.2704  -16.2388 C   0  0  0  0  0  0  0  0  0  0  0  0
  -15.9330    3.6255  -16.2487 C   0  0  0  0  0  0  0  0  0  0  0  0
  -17.2172    4.0305  -15.8963 C   0  0  0  0  0  0  0  0  0  0  0  0
  -18.1681    3.0768  -15.5378 C   0  0  0  0  0  0  0  0  0  0  0  0
  -19.7251    3.6448  -15.0541 Cl  0  0  0  0  0  0  0  0  0  0  0  0
  -17.8340    1.7168  -15.5635 C   0  0  0  0  0  0  0  0  0  0  0  0
  -18.9665    0.4820  -15.1370 Cl  0  0  0  0  0  0  0  0  0  0  0  0
  -16.5414    1.3147  -15.9212 C   0  0  0  0  0  0  0  0  0  0  0  0
  -12.0791   -4.2153  -16.3206 O   0  0  0  0  0  0  0  0  0  0  0  0
  -13.0815   -5.2225  -16.5371 C   0  0  0  0  0  0  0  0  0  0  0  0
  -13.4702   -5.9916  -15.2876 C   0  0  0  0  0  0  0  0  0  0  0  0
  -12.3873   -6.9791  -14.8306 C   0  0  0  0  0  0  0  0  0  0  0  0
  -12.8063   -7.6118  -13.5233 N   0  0  0  0  0  0  0  0  0  0  0  0
  -14.1468   -8.2528  -13.7255 C   0  0  0  0  0  0  0  0  0  0  0  0
  -15.1824   -7.2685  -14.2814 C   0  0  0  0  0  0  0  0  0  0  0  0
  -14.7259   -6.6652  -15.4989 O   0  0  0  0  0  0  0  0  0  0  0  0
  -12.6001   -6.5854  -12.1662 S   0  0  0  0  0  0  0  0  0  0  0  0
  -11.5260   -7.1702  -11.3816 O   0  0  0  0  0  0  0  0  0  0  0  0
  -12.4936   -5.2255  -12.6524 O   0  0  0  0  0  0  0  0  0  0  0  0
  -14.1514   -6.7627  -11.2792 C   0  0  0  0  0  0  0  0  0  0  0  0
  -14.7061   -5.3966  -10.9592 C   0  0  0  0  0  0  0  0  0  0  0  0
  -15.7830   -4.8703  -11.6915 C   0  0  0  0  0  0  0  0  0  0  0  0
  -16.3151   -3.6205  -11.3703 C   0  0  0  0  0  0  0  0  0  0  0  0
  -15.7730   -2.8814  -10.3216 C   0  0  0  0  0  0  0  0  0  0  0  0
  -14.6879   -3.3827   -9.6054 C   0  0  0  0  0  0  0  0  0  0  0  0
  -14.1536   -4.6318   -9.9239 C   0  0  0  0  0  0  0  0  0  0  0  0
 11 12  1  0  0  0
 12  1  1  0  0  0
  1  2  1  0  0  0
  1 10  2  0  0  0
  2  3  2  0  0  0
  3  4  1  0  0  0
  3  8  1  0  0  0
  4 13  1  0  0  0
  4  5  2  0  0  0
 13 15  1  0  0  0
 13 14  1  0  0  0
 15 16  1  0  0  0
 15 22  2  0  0  0
 16 17  2  0  0  0
 17 18  1  0  0  0
 18 19  1  0  0  0
 18 20  2  0  0  0
 20 21  1  0  0  0
 20 22  1  0  0  0
  5  6  1  0  0  0
  6  7  2  0  0  0
  7  8  1  0  0  0
  8  9  2  0  0  0
  9 10  1  0  0  0
 10 23  1  0  0  0
 23 24  1  0  0  0
 24 25  1  0  0  0
 25 26  1  0  0  0
 25 30  1  0  0  0
 26 27  1  0  0  0
 27 31  1  0  0  0
 27 28  1  0  0  0
 31 32  2  0  0  0
 31 33  2  0  0  0
 31 34  1  0  0  0
 34 35  1  0  0  0
 35 36  1  0  0  0
 35 40  2  0  0  0
 36 37  2  0  0  0
 37 38  1  0  0  0
 38 39  2  0  0  0
 39 40  1  0  0  0
 28 29  1  0  0  0
 29 30  1  0  0  0
M  END
> <minimizedAffinity>
-8.22254

$$$$
