CHEMBL3969955


 38 41  0  0  0  0  0  0  0  0999 V2000
  -27.5391   -1.9919   -4.7919 C   0  0  0  0  0  0  0  0  0  0  0  0
  -28.1874   -3.2678   -5.2628 C   0  0  0  0  0  0  0  0  0  0  0  0
  -28.3052   -4.3242   -4.3263 C   0  0  0  0  0  0  0  0  0  0  0  0
  -28.9282   -5.5089   -4.7059 C   0  0  0  0  0  0  0  0  0  0  0  0
  -29.4750   -5.6722   -5.9163 N   0  0  0  0  0  0  0  0  0  0  0  0
  -29.3227   -4.6675   -6.8148 C   0  0  0  0  0  0  0  0  0  0  0  0
  -28.6783   -3.4523   -6.5728 C   0  0  0  0  0  0  0  0  0  0  0  0
  -28.5292   -2.4599   -7.5969 N   0  0  0  0  0  0  0  0  0  0  0  0
  -27.8363   -2.6600   -8.7866 C   0  0  0  0  0  0  0  0  0  0  0  0
  -27.2765   -3.7043   -9.1040 O   0  0  0  0  0  0  0  0  0  0  0  0
  -27.7717   -1.5254   -9.5840 N   0  0  0  0  0  0  0  0  0  0  0  0
  -28.9132   -1.5442   -7.4160 H   0  0  0  0  0  0  0  0  0  0  0  0
  -27.7290   -0.6559   -9.0728 H   0  0  0  0  0  0  0  0  0  0  0  0
  -27.0579   -1.5552  -10.8148 C   0  0  0  0  0  0  0  0  0  0  0  0
  -27.7757   -1.6971  -11.9985 C   0  0  0  0  0  0  0  0  0  0  0  0
  -27.1127   -1.6466  -13.2285 C   0  0  0  0  0  0  0  0  0  0  0  0
  -25.7193   -1.5119  -13.2944 C   0  0  0  0  0  0  0  0  0  0  0  0
  -25.0324   -1.4697  -14.8772 Cl  0  0  0  0  0  0  0  0  0  0  0  0
  -24.9664   -1.4175  -12.1206 C   0  0  0  0  0  0  0  0  0  0  0  0
  -25.6609   -1.4227  -10.8827 C   0  0  0  0  0  0  0  0  0  0  0  0
  -23.4606   -1.3108  -12.0855 C   0  0  0  0  0  0  0  0  0  0  0  0
  -22.7914   -1.8404  -13.1425 F   0  0  0  0  0  0  0  0  0  0  0  0
  -23.0347   -0.0194  -11.9972 F   0  0  0  0  0  0  0  0  0  0  0  0
  -22.9395   -1.9407  -10.9905 F   0  0  0  0  0  0  0  0  0  0  0  0
  -28.9882   -6.5551   -3.7894 O   0  0  0  0  0  0  0  0  0  0  0  0
  -28.5997   -7.8095   -4.2306 C   0  0  0  0  0  0  0  0  0  0  0  0
  -29.5121   -8.8338   -4.4703 C   0  0  0  0  0  0  0  0  0  0  0  0
  -29.0226  -10.0517   -4.8816 C   0  0  0  0  0  0  0  0  0  0  0  0
  -27.7188  -10.2826   -5.1183 N   0  0  0  0  0  0  0  0  0  0  0  0
  -26.8377   -9.2898   -4.9272 C   0  0  0  0  0  0  0  0  0  0  0  0
  -27.2392   -8.0282   -4.4878 C   0  0  0  0  0  0  0  0  0  0  0  0
  -25.4718   -9.5346   -5.1784 N   0  0  0  0  0  0  0  0  0  0  0  0
  -24.6550  -10.2611   -4.3296 C   0  0  0  0  0  0  0  0  0  0  0  0
  -24.9662  -10.7880   -3.2694 O   0  0  0  0  0  0  0  0  0  0  0  0
  -25.0710   -9.1283   -6.0059 H   0  0  0  0  0  0  0  0  0  0  0  0
  -23.2259  -10.4181   -4.7362 C   0  0  0  0  0  0  0  0  0  0  0  0
  -22.8059  -11.6451   -5.5123 C   0  0  0  0  0  0  0  0  0  0  0  0
  -22.2086  -11.3664   -4.1626 C   0  0  0  0  0  0  0  0  0  0  0  0
  1  2  1  0  0  0
  2  3  1  0  0  0
  2  7  2  0  0  0
  3  4  2  0  0  0
  4 25  1  0  0  0
  4  5  1  0  0  0
 25 26  1  0  0  0
 26 27  1  0  0  0
 26 31  2  0  0  0
 27 28  2  0  0  0
 28 29  1  0  0  0
 29 30  2  0  0  0
 30 32  1  0  0  0
 30 31  1  0  0  0
 32 33  1  0  0  0
 32 35  1  0  0  0
 33 34  2  0  0  0
 33 36  1  0  0  0
 36 37  1  0  0  0
 36 38  1  0  0  0
 37 38  1  0  0  0
  5  6  2  0  0  0
  6  7  1  0  0  0
  7  8  1  0  0  0
  8  9  1  0  0  0
  8 12  1  0  0  0
  9 10  2  0  0  0
  9 11  1  0  0  0
 11 14  1  0  0  0
 11 13  1  0  0  0
 14 15  1  0  0  0
 14 20  2  0  0  0
 15 16  2  0  0  0
 16 17  1  0  0  0
 17 18  1  0  0  0
 17 19  2  0  0  0
 19 21  1  0  0  0
 19 20  1  0  0  0
 21 22  1  0  0  0
 21 23  1  0  0  0
 21 24  1  0  0  0
M  END
> <minimizedAffinity>
-9.86120

$$$$
