CHEMBL275473


 29 31  0  0  0  0  0  0  0  0999 V2000
  -29.0655   -4.0447   -5.6650 C   0  0  0  0  0  0  0  0  0  0  0  0
  -29.4732   -4.0630   -6.9971 C   0  0  0  0  0  0  0  0  0  0  0  0
  -29.9953   -5.2408   -7.5379 C   0  0  0  0  0  0  0  0  0  0  0  0
  -30.1269   -6.3924   -6.7463 C   0  0  0  0  0  0  0  0  0  0  0  0
  -29.7441   -6.3680   -5.3845 C   0  0  0  0  0  0  0  0  0  0  0  0
  -29.1798   -5.1887   -4.8749 C   0  0  0  0  0  0  0  0  0  0  0  0
  -28.4592   -2.5588   -4.9080 S   0  0  0  0  0  0  0  0  0  0  0  0
  -27.0152   -2.6309   -4.9078 O   0  0  0  0  0  0  0  0  0  0  0  0
  -29.1964   -2.3637   -3.6741 O   0  0  0  0  0  0  0  0  0  0  0  0
  -28.9482   -1.3178   -5.9953 N   0  0  0  0  0  0  0  0  0  0  0  0
  -29.5435    1.1006   -5.6310 C   0  0  0  0  0  0  0  0  0  0  0  0
  -29.9312   -0.3544   -5.4206 C   0  0  0  0  0  0  0  0  0  0  0  0
  -27.8190   -0.7107   -6.7619 C   0  0  0  0  0  0  0  0  0  0  0  0
  -27.6592   -1.2862   -8.1592 C   0  0  0  0  0  0  0  0  0  0  0  0
  -30.6676   -7.5796   -7.1857 O   0  0  0  0  0  0  0  0  0  0  0  0
  -29.8998   -8.3169   -8.1317 C   0  0  0  0  0  0  0  0  0  0  0  0
  -29.9226   -7.5282   -4.5914 N   0  0  0  0  0  0  0  0  0  0  0  0
  -30.7568   -7.4788   -4.0166 H   0  0  0  0  0  0  0  0  0  0  0  0
  -28.9531   -8.3846   -4.2229 C   0  0  0  0  0  0  0  0  0  0  0  0
  -28.8924   -9.2009   -3.1931 N   0  0  0  0  0  0  0  0  0  0  0  0
  -27.7404   -9.9019   -3.3746 C   0  0  0  0  0  0  0  0  0  0  0  0
  -27.0960   -9.4652   -4.5081 C   0  0  0  0  0  0  0  0  0  0  0  0
  -27.8674   -8.4687   -5.0558 O   0  0  0  0  0  0  0  0  0  0  0  0
  -25.8691   -9.8482   -5.1874 C   0  0  0  0  0  0  0  0  0  0  0  0
  -25.9386  -10.5741   -6.3889 C   0  0  0  0  0  0  0  0  0  0  0  0
  -24.7790  -10.9461   -7.0713 C   0  0  0  0  0  0  0  0  0  0  0  0
  -23.5333  -10.5981   -6.5602 C   0  0  0  0  0  0  0  0  0  0  0  0
  -23.4466   -9.8812   -5.3683 C   0  0  0  0  0  0  0  0  0  0  0  0
  -24.6080   -9.5077   -4.6855 C   0  0  0  0  0  0  0  0  0  0  0  0
 11 12  1  0  0  0
 12 10  1  0  0  0
 10 13  1  0  0  0
 10  7  1  0  0  0
 13 14  1  0  0  0
  7  8  2  0  0  0
  7  9  2  0  0  0
  7  1  1  0  0  0
  1  2  1  0  0  0
  1  6  2  0  0  0
  2  3  2  0  0  0
  3  4  1  0  0  0
  4 15  1  0  0  0
  4  5  2  0  0  0
 15 16  1  0  0  0
  5 17  1  0  0  0
  5  6  1  0  0  0
 17 19  1  0  0  0
 17 18  1  0  0  0
 19 20  2  0  0  0
 19 23  1  0  0  0
 20 21  1  0  0  0
 21 22  2  0  0  0
 22 24  1  0  0  0
 22 23  1  0  0  0
 24 25  1  0  0  0
 24 29  2  0  0  0
 25 26  2  0  0  0
 26 27  1  0  0  0
 27 28  2  0  0  0
 28 29  1  0  0  0
M  END
> <minimizedAffinity>
-7.43448

$$$$
