CHEMBL3936588


 47 51  0  0  0  0  0  0  0  0999 V2000
  -21.7982    0.9106  -14.2823 C   0  0  0  0  0  0  0  0  0  0  0  0
  -22.7326    1.8785  -13.9136 C   0  0  0  0  0  0  0  0  0  0  0  0
  -22.3433    3.1994  -13.8329 C   0  0  0  0  0  0  0  0  0  0  0  0
  -21.1217    3.6641  -14.1381 N   0  0  0  0  0  0  0  0  0  0  0  0
  -20.2216    2.7362  -14.5534 C   0  0  0  0  0  0  0  0  0  0  0  0
  -18.8853    3.0277  -14.9453 C   0  0  0  0  0  0  0  0  0  0  0  0
  -18.1678    1.9031  -15.2967 C   0  0  0  0  0  0  0  0  0  0  0  0
  -19.1409    0.4950  -15.1811 S   0  0  0  0  0  0  0  0  0  0  0  0
  -20.5135    1.3734  -14.6360 C   0  0  0  0  0  0  0  0  0  0  0  0
  -16.7732    1.8572  -15.7239 C   0  0  0  0  0  0  0  0  0  0  0  0
  -16.2599    2.7290  -16.4226 O   0  0  0  0  0  0  0  0  0  0  0  0
  -16.0636    0.7639  -15.2869 N   0  0  0  0  0  0  0  0  0  0  0  0
  -16.5269    0.1401  -14.6373 H   0  0  0  0  0  0  0  0  0  0  0  0
  -14.6621    0.5452  -15.5796 C   0  0  0  0  0  0  0  0  0  0  0  0
  -13.9683   -0.0132  -14.3415 C   0  0  0  0  0  0  0  0  0  0  0  0
  -14.9676   -0.4577  -13.2684 C   0  0  0  0  0  0  0  0  0  0  0  0
  -14.5502   -1.6828  -12.5717 N   0  0  0  0  0  0  0  0  0  0  0  0
  -14.3590   -2.8086  -13.4943 C   0  0  0  0  0  0  0  0  0  0  0  0
  -15.7092   -3.4994  -13.5628 C   0  0  0  0  0  0  0  0  0  0  0  0
  -16.2692   -3.3505  -12.1540 C   0  0  0  0  0  0  0  0  0  0  0  0
  -15.4888   -2.1804  -11.5471 C   0  0  0  0  0  0  0  0  0  0  0  0
  -16.1273   -4.6254  -11.3421 C   0  0  0  0  0  0  0  0  0  0  0  0
  -15.3325   -4.8094  -10.4347 O   0  0  0  0  0  0  0  0  0  0  0  0
  -17.0343   -5.5718  -11.6880 O   0  0  0  0  0  0  0  0  0  0  0  0
  -17.6477   -5.3019  -12.3966 H   0  0  0  0  0  0  0  0  0  0  0  0
  -22.0942   -0.4364  -14.3771 O   0  0  0  0  0  0  0  0  0  0  0  0
  -25.4115   -1.9352  -12.3066 C   0  0  0  0  0  0  0  0  0  0  0  0
  -24.1520   -1.8493  -11.6991 C   0  0  0  0  0  0  0  0  0  0  0  0
  -23.0560   -1.3545  -12.4196 C   0  0  0  0  0  0  0  0  0  0  0  0
  -23.2183   -0.9277  -13.7419 C   0  0  0  0  0  0  0  0  0  0  0  0
  -24.4844   -0.9602  -14.3271 C   0  0  0  0  0  0  0  0  0  0  0  0
  -25.5555   -1.5028  -13.6237 C   0  0  0  0  0  0  0  0  0  0  0  0
  -26.7621   -1.5525  -14.2101 F   0  0  0  0  0  0  0  0  0  0  0  0
  -27.8524   -2.5936   -9.7026 N   0  0  0  0  0  0  0  0  0  0  0  0
  -26.6870   -2.0895  -10.2593 C   0  0  0  0  0  0  0  0  0  0  0  0
  -25.8681   -1.3777   -9.6857 O   0  0  0  0  0  0  0  0  0  0  0  0
  -26.5547   -2.4094  -11.6037 N   0  0  0  0  0  0  0  0  0  0  0  0
  -28.5029   -3.0398  -10.3359 H   0  0  0  0  0  0  0  0  0  0  0  0
  -27.4197   -2.3212  -12.1235 H   0  0  0  0  0  0  0  0  0  0  0  0
  -28.1244    0.4397   -5.7775 C   0  0  0  0  0  0  0  0  0  0  0  0
  -28.3943   -0.8915   -6.4189 C   0  0  0  0  0  0  0  0  0  0  0  0
  -29.0032   -1.9019   -5.6707 C   0  0  0  0  0  0  0  0  0  0  0  0
  -29.2853   -3.1275   -6.2595 C   0  0  0  0  0  0  0  0  0  0  0  0
  -28.9512   -3.3584   -7.5901 C   0  0  0  0  0  0  0  0  0  0  0  0
  -29.3853   -4.5159   -8.1044 F   0  0  0  0  0  0  0  0  0  0  0  0
  -28.2875   -2.3924   -8.3617 C   0  0  0  0  0  0  0  0  0  0  0  0
  -28.0387   -1.1416   -7.7652 C   0  0  0  0  0  0  0  0  0  0  0  0
 40 41  1  0  0  0
 41 42  1  0  0  0
 41 47  2  0  0  0
 42 43  2  0  0  0
 43 44  1  0  0  0
 44 45  1  0  0  0
 44 46  2  0  0  0
 46 34  1  0  0  0
 46 47  1  0  0  0
 34 35  1  0  0  0
 34 38  1  0  0  0
 35 36  2  0  0  0
 35 37  1  0  0  0
 37 27  1  0  0  0
 37 39  1  0  0  0
 27 28  1  0  0  0
 27 32  2  0  0  0
 28 29  2  0  0  0
 29 30  1  0  0  0
 30 26  1  0  0  0
 30 31  2  0  0  0
 26  1  1  0  0  0
  1  2  1  0  0  0
  1  9  2  0  0  0
  2  3  2  0  0  0
  3  4  1  0  0  0
  4  5  2  0  0  0
  5  6  1  0  0  0
  5  9  1  0  0  0
  6  7  2  0  0  0
  7 10  1  0  0  0
  7  8  1  0  0  0
 10 11  2  0  0  0
 10 12  1  0  0  0
 12 14  1  0  0  0
 12 13  1  0  0  0
 14 15  1  0  0  0
 15 16  1  0  0  0
 16 17  1  0  0  0
 17 18  1  0  0  0
 17 21  1  0  0  0
 18 19  1  0  0  0
 19 20  1  0  0  0
 20 22  1  0  0  0
 20 21  1  0  0  0
 22 23  2  0  0  0
 22 24  1  0  0  0
 24 25  1  0  0  0
  8  9  1  0  0  0
 31 32  1  0  0  0
 32 33  1  0  0  0
M  END
> <minimizedAffinity>
-12.34868

$$$$
