CHEMBL270828


 28 33  0  0  0  0  0  0  0  0999 V2000
  -13.3822   -2.7502  -15.2550 N   0  0  0  0  0  0  0  0  0  0  0  0
  -13.6987   -1.4014  -14.9545 C   0  0  0  0  0  0  0  0  0  0  0  0
  -13.2405   -0.1967  -15.5205 C   0  0  0  0  0  0  0  0  0  0  0  0
  -13.6271    1.0137  -14.9214 C   0  0  0  0  0  0  0  0  0  0  0  0
  -14.4662    1.0356  -13.8151 C   0  0  0  0  0  0  0  0  0  0  0  0
  -14.9225   -0.1585  -13.2640 C   0  0  0  0  0  0  0  0  0  0  0  0
  -14.5157   -1.3846  -13.8162 C   0  0  0  0  0  0  0  0  0  0  0  0
  -14.5830   -2.7269  -13.4805 C   0  0  0  0  0  0  0  0  0  0  0  0
  -14.8666   -3.1522  -12.1702 C   0  0  0  0  0  0  0  0  0  0  0  0
  -14.3136   -4.3955  -11.8008 C   0  0  0  0  0  0  0  0  0  0  0  0
  -13.6450   -5.2498  -12.6929 C   0  0  0  0  0  0  0  0  0  0  0  0
  -13.9724   -4.9881  -14.0667 C   0  0  0  0  0  0  0  0  0  0  0  0
  -14.0491   -3.6132  -14.3771 C   0  0  0  0  0  0  0  0  0  0  0  0
  -14.9917   -6.0595  -14.6385 C   0  0  0  0  0  0  0  0  0  0  0  0
  -15.6001   -7.0342  -13.5456 C   0  0  0  0  0  0  0  0  0  0  0  0
  -14.4523   -7.5575  -12.7578 C   0  0  0  0  0  0  0  0  0  0  0  0
  -14.0497   -8.8209  -12.6411 N   0  0  0  0  0  0  0  0  0  0  0  0
  -12.7653   -8.6814  -12.2232 N   0  0  0  0  0  0  0  0  0  0  0  0
  -11.9238   -9.8470  -12.1003 C   0  0  0  0  0  0  0  0  0  0  0  0
  -12.3410   -7.3762  -12.1750 C   0  0  0  0  0  0  0  0  0  0  0  0
  -13.4816   -6.6317  -12.3426 C   0  0  0  0  0  0  0  0  0  0  0  0
  -14.7155   -4.6520  -10.4313 C   0  0  0  0  0  0  0  0  0  0  0  0
  -14.5181   -5.5896   -9.6605 O   0  0  0  0  0  0  0  0  0  0  0  0
  -15.4899   -3.5660  -10.0865 N   0  0  0  0  0  0  0  0  0  0  0  0
  -15.5953   -2.5109  -11.0794 C   0  0  0  0  0  0  0  0  0  0  0  0
  -15.9587   -3.5508   -9.1991 H   0  0  0  0  0  0  0  0  0  0  0  0
  -10.9168   -3.1865  -15.2833 C   0  0  0  0  0  0  0  0  0  0  0  0
  -12.2189   -3.1131  -16.0588 C   0  0  0  0  0  0  0  0  0  0  0  0
 27 28  1  0  0  0
 28  1  1  0  0  0
  1  2  1  0  0  0
  1 13  1  0  0  0
  2  3  1  0  0  0
  2  7  2  0  0  0
  3  4  2  0  0  0
  4  5  1  0  0  0
  5  6  2  0  0  0
  6  7  1  0  0  0
  7  8  1  0  0  0
  8  9  1  0  0  0
  8 13  2  0  0  0
  9 10  2  0  0  0
  9 25  1  0  0  0
 10 11  1  0  0  0
 10 22  1  0  0  0
 11 12  2  0  0  0
 11 21  1  0  0  0
 12 13  1  0  0  0
 12 14  1  0  0  0
 14 15  1  0  0  0
 15 16  1  0  0  0
 16 17  2  0  0  0
 16 21  1  0  0  0
 17 18  1  0  0  0
 18 19  1  0  0  0
 18 20  1  0  0  0
 20 21  2  0  0  0
 22 23  2  0  0  0
 22 24  1  0  0  0
 24 25  1  0  0  0
 24 26  1  0  0  0
M  END
> <minimizedAffinity>
-7.58002

$$$$
