CHEMBL3681287


 32 36  0  0  0  0  0  0  0  0999 V2000
  -28.5890   -7.6949   -4.7652 N   0  0  0  0  0  0  0  0  0  0  0  0
  -28.6276   -7.5230   -6.1111 N   0  0  0  0  0  0  0  0  0  0  0  0
  -29.3310   -6.4126   -6.2797 C   0  0  0  0  0  0  0  0  0  0  0  0
  -29.7334   -5.8031   -5.0672 C   0  0  0  0  0  0  0  0  0  0  0  0
  -29.2397   -6.6512   -4.0881 C   0  0  0  0  0  0  0  0  0  0  0  0
  -29.2869   -6.5114   -2.7347 N   0  0  0  0  0  0  0  0  0  0  0  0
  -29.5588   -5.6000   -2.3598 H   0  0  0  0  0  0  0  0  0  0  0  0
  -28.5833   -6.9555   -2.1455 H   0  0  0  0  0  0  0  0  0  0  0  0
  -24.3788  -11.3449   -3.0020 C   0  0  0  0  0  0  0  0  0  0  0  0
  -24.4841  -10.0872   -3.3917 N   0  0  0  0  0  0  0  0  0  0  0  0
  -25.8193   -9.8947   -3.6412 C   0  0  0  0  0  0  0  0  0  0  0  0
  -26.4794   -8.7336   -4.0691 C   0  0  0  0  0  0  0  0  0  0  0  0
  -27.8679   -8.7982   -4.2489 C   0  0  0  0  0  0  0  0  0  0  0  0
  -28.5791   -9.9770   -3.9569 C   0  0  0  0  0  0  0  0  0  0  0  0
  -27.9278  -11.1472   -3.5547 C   0  0  0  0  0  0  0  0  0  0  0  0
  -26.5534  -11.0549   -3.4196 C   0  0  0  0  0  0  0  0  0  0  0  0
  -25.6016  -11.9779   -3.0417 N   0  0  0  0  0  0  0  0  0  0  0  0
  -25.7835  -12.9409   -2.7976 H   0  0  0  0  0  0  0  0  0  0  0  0
  -21.9080  -11.3680   -3.0804 C   0  0  0  0  0  0  0  0  0  0  0  0
  -23.1558  -12.0260   -2.5173 C   0  0  0  0  0  0  0  0  0  0  0  0
  -30.4804   -4.5588   -4.8907 C   0  0  0  0  0  0  0  0  0  0  0  0
  -31.6334   -4.5360   -4.4744 O   0  0  0  0  0  0  0  0  0  0  0  0
  -29.7164   -3.3759   -5.2010 C   0  0  0  0  0  0  0  0  0  0  0  0
  -29.3773   -2.9152   -6.4568 C   0  0  0  0  0  0  0  0  0  0  0  0
  -28.5433   -1.8077   -6.2970 C   0  0  0  0  0  0  0  0  0  0  0  0
  -27.8819   -0.9851   -7.2189 C   0  0  0  0  0  0  0  0  0  0  0  0
  -28.2670    0.3260   -6.9798 C   0  0  0  0  0  0  0  0  0  0  0  0
  -28.2989    0.7987   -5.6710 C   0  0  0  0  0  0  0  0  0  0  0  0
  -28.3457   -0.0950   -4.5896 C   0  0  0  0  0  0  0  0  0  0  0  0
  -28.6706   -1.4000   -4.9686 C   0  0  0  0  0  0  0  0  0  0  0  0
  -29.2485   -2.4515   -4.2898 N   0  0  0  0  0  0  0  0  0  0  0  0
  -29.4409   -2.4767   -3.2964 H   0  0  0  0  0  0  0  0  0  0  0  0
 19 20  1  0  0  0
 20  9  1  0  0  0
  9 10  2  0  0  0
  9 17  1  0  0  0
 10 11  1  0  0  0
 11 12  1  0  0  0
 11 16  2  0  0  0
 12 13  2  0  0  0
 13  1  1  0  0  0
 13 14  1  0  0  0
  1  2  1  0  0  0
  1  5  1  0  0  0
  2  3  2  0  0  0
  3  4  1  0  0  0
  4 21  1  0  0  0
  4  5  2  0  0  0
 21 22  2  0  0  0
 21 23  1  0  0  0
 23 24  2  0  0  0
 23 31  1  0  0  0
 24 25  1  0  0  0
 25 26  1  0  0  0
 25 30  2  0  0  0
 26 27  2  0  0  0
 27 28  1  0  0  0
 28 29  2  0  0  0
 29 30  1  0  0  0
 30 31  1  0  0  0
 31 32  1  0  0  0
  5  6  1  0  0  0
  6  7  1  0  0  0
  6  8  1  0  0  0
 14 15  2  0  0  0
 15 16  1  0  0  0
 16 17  1  0  0  0
 17 18  1  0  0  0
M  END
> <minimizedAffinity>
-8.94736

$$$$
