CHEMBL3219512


 33 35  0  0  0  0  0  0  0  0999 V2000
  -12.9355   -4.5165  -12.8102 C   0  0  0  0  0  0  0  0  0  0  0  0
  -12.7709   -4.4847  -14.2195 C   0  0  0  0  0  0  0  0  0  0  0  0
  -12.9387   -3.3251  -14.9582 C   0  0  0  0  0  0  0  0  0  0  0  0
  -12.7205   -3.3657  -16.2972 N   0  0  0  0  0  0  0  0  0  0  0  0
  -12.8392   -2.2522  -17.0535 C   0  0  0  0  0  0  0  0  0  0  0  0
  -13.1805   -1.0820  -16.4688 N   0  0  0  0  0  0  0  0  0  0  0  0
  -13.4198   -0.9712  -15.1319 C   0  0  0  0  0  0  0  0  0  0  0  0
  -13.3091   -2.1280  -14.3254 C   0  0  0  0  0  0  0  0  0  0  0  0
  -13.4986   -2.1294  -12.9396 C   0  0  0  0  0  0  0  0  0  0  0  0
  -13.3040   -3.2873  -12.1682 C   0  0  0  0  0  0  0  0  0  0  0  0
  -13.7924    0.3084  -14.6100 N   0  0  0  0  0  0  0  0  0  0  0  0
  -13.1059    0.8612  -14.0776 H   0  0  0  0  0  0  0  0  0  0  0  0
  -15.1340    0.7937  -14.7015 C   0  0  0  0  0  0  0  0  0  0  0  0
  -15.5976    1.3956  -15.8794 C   0  0  0  0  0  0  0  0  0  0  0  0
  -16.8999    1.8951  -15.9574 C   0  0  0  0  0  0  0  0  0  0  0  0
  -17.7713    1.7842  -14.8552 C   0  0  0  0  0  0  0  0  0  0  0  0
  -17.3215    1.1495  -13.6935 C   0  0  0  0  0  0  0  0  0  0  0  0
  -16.0244    0.6574  -13.6180 C   0  0  0  0  0  0  0  0  0  0  0  0
  -19.2413    2.3597  -14.9030 B   0  0  0  0  0  0  0  0  0  0  0  0
  -20.3692    1.4932  -15.2429 O   0  0  0  0  0  0  0  0  0  0  0  0
  -19.4705    3.7879  -14.6677 O   0  0  0  0  0  0  0  0  0  0  0  0
  -20.1492    1.1123  -16.1310 H   0  0  0  0  0  0  0  0  0  0  0  0
  -19.2658    3.9272  -13.7080 H   0  0  0  0  0  0  0  0  0  0  0  0
  -12.7484   -5.7037  -12.1325 O   0  0  0  0  0  0  0  0  0  0  0  0
  -13.8127   -6.5899  -11.9270 C   0  0  0  0  0  0  0  0  0  0  0  0
  -13.4932   -8.0820  -11.9444 C   0  0  0  0  0  0  0  0  0  0  0  0
  -14.9784   -7.7365  -13.7124 C   0  0  0  0  0  0  0  0  0  0  0  0
  -14.4679   -8.6686  -12.7920 O   0  0  0  0  0  0  0  0  0  0  0  0
  -13.4981   -3.0998  -10.8377 O   0  0  0  0  0  0  0  0  0  0  0  0
  -14.5609   -3.4026  -10.0214 C   0  0  0  0  0  0  0  0  0  0  0  0
  -15.9018   -3.2131  -10.7319 C   0  0  0  0  0  0  0  0  0  0  0  0
  -16.4800   -4.4966  -10.8550 O   0  0  0  0  0  0  0  0  0  0  0  0
  -16.7419   -4.7898  -12.2049 C   0  0  0  0  0  0  0  0  0  0  0  0
 27 28  1  0  0  0
 28 26  1  0  0  0
 26 25  1  0  0  0
 25 24  1  0  0  0
 24  1  1  0  0  0
  1  2  1  0  0  0
  1 10  2  0  0  0
  2  3  2  0  0  0
  3  4  1  0  0  0
  3  8  1  0  0  0
  4  5  2  0  0  0
  5  6  1  0  0  0
  6  7  2  0  0  0
  7 11  1  0  0  0
  7  8  1  0  0  0
 11 13  1  0  0  0
 11 12  1  0  0  0
 13 14  1  0  0  0
 13 18  2  0  0  0
 14 15  2  0  0  0
 15 16  1  0  0  0
 16 19  1  0  0  0
 16 17  2  0  0  0
 19 20  1  0  0  0
 19 21  1  0  0  0
 20 22  1  0  0  0
 21 23  1  0  0  0
 17 18  1  0  0  0
  8  9  2  0  0  0
  9 10  1  0  0  0
 10 29  1  0  0  0
 29 30  1  0  0  0
 30 31  1  0  0  0
 31 32  1  0  0  0
 32 33  1  0  0  0
M  END
> <minimizedAffinity>
-6.48002

$$$$
