CHEMBL3956001


 27 30  0  0  0  0  0  0  0  0999 V2000
  -29.3515   -7.0515   -4.4420 N   0  0  0  0  0  0  0  0  0  0  0  0
  -29.3107   -6.2403   -5.5451 C   0  0  0  0  0  0  0  0  0  0  0  0
  -28.7285   -4.9814   -5.6562 C   0  0  0  0  0  0  0  0  0  0  0  0
  -28.7964   -4.7134   -7.0545 C   0  0  0  0  0  0  0  0  0  0  0  0
  -29.4075   -5.6661   -7.7498 N   0  0  0  0  0  0  0  0  0  0  0  0
  -29.8030   -6.5828   -6.8143 N   0  0  0  0  0  0  0  0  0  0  0  0
  -29.0400   -6.7053   -3.5547 H   0  0  0  0  0  0  0  0  0  0  0  0
  -30.0104   -7.8250   -4.3814 H   0  0  0  0  0  0  0  0  0  0  0  0
  -30.4767   -7.7409   -7.2697 C   0  0  0  0  0  0  0  0  0  0  0  0
  -31.8342   -7.8672   -6.9074 C   0  0  0  0  0  0  0  0  0  0  0  0
  -32.6121   -8.9062   -7.4127 C   0  0  0  0  0  0  0  0  0  0  0  0
  -32.0384   -9.8458   -8.2595 C   0  0  0  0  0  0  0  0  0  0  0  0
  -30.6776   -9.7743   -8.5590 C   0  0  0  0  0  0  0  0  0  0  0  0
  -29.8847   -8.7350   -8.0526 C   0  0  0  0  0  0  0  0  0  0  0  0
  -28.1815   -8.8945   -8.3073 Cl  0  0  0  0  0  0  0  0  0  0  0  0
  -28.1466   -4.1857   -4.6253 C   0  0  0  0  0  0  0  0  0  0  0  0
  -27.5257   -4.6137   -3.6699 O   0  0  0  0  0  0  0  0  0  0  0  0
  -28.4013   -2.7430   -4.7899 C   0  0  0  0  0  0  0  0  0  0  0  0
  -27.5046   -1.7314   -5.0988 C   0  0  0  0  0  0  0  0  0  0  0  0
  -28.2140   -0.5196   -5.1328 C   0  0  0  0  0  0  0  0  0  0  0  0
  -27.8460    0.8090   -5.3519 C   0  0  0  0  0  0  0  0  0  0  0  0
  -28.7021    1.5696   -6.1238 C   0  0  0  0  0  0  0  0  0  0  0  0
  -30.0448    1.2305   -6.1413 C   0  0  0  0  0  0  0  0  0  0  0  0
  -30.5314    0.0932   -5.4716 C   0  0  0  0  0  0  0  0  0  0  0  0
  -29.5631   -0.8369   -5.1087 C   0  0  0  0  0  0  0  0  0  0  0  0
  -29.6504   -2.1474   -4.7119 N   0  0  0  0  0  0  0  0  0  0  0  0
  -30.5050   -2.6576   -4.5486 H   0  0  0  0  0  0  0  0  0  0  0  0
  1  2  1  0  0  0
  1  7  1  0  0  0
  1  8  1  0  0  0
  2  3  2  0  0  0
  2  6  1  0  0  0
  3 16  1  0  0  0
  3  4  1  0  0  0
 16 17  2  0  0  0
 16 18  1  0  0  0
 18 19  2  0  0  0
 18 26  1  0  0  0
 19 20  1  0  0  0
 20 21  1  0  0  0
 20 25  2  0  0  0
 21 22  2  0  0  0
 22 23  1  0  0  0
 23 24  2  0  0  0
 24 25  1  0  0  0
 25 26  1  0  0  0
 26 27  1  0  0  0
  4  5  2  0  0  0
  5  6  1  0  0  0
  6  9  1  0  0  0
  9 10  1  0  0  0
  9 14  2  0  0  0
 10 11  2  0  0  0
 11 12  1  0  0  0
 12 13  2  0  0  0
 13 14  1  0  0  0
 14 15  1  0  0  0
M  END
> <minimizedAffinity>
-8.82407

$$$$
