CHEMBL3741413


 41 45  0  0  0  0  0  0  0  0999 V2000
  -22.8006   -0.5270  -12.4593 C   0  0  0  0  0  0  0  0  0  0  0  0
  -22.7896   -1.0507  -13.7494 C   0  0  0  0  0  0  0  0  0  0  0  0
  -21.9920   -0.4443  -14.7226 C   0  0  0  0  0  0  0  0  0  0  0  0
  -21.2930    0.7427  -14.4307 C   0  0  0  0  0  0  0  0  0  0  0  0
  -20.5074    1.4442  -15.3559 C   0  0  0  0  0  0  0  0  0  0  0  0
  -21.1600    2.5950  -15.7491 C   0  0  0  0  0  0  0  0  0  0  0  0
  -21.6973    3.3774  -14.7285 C   0  0  0  0  0  0  0  0  0  0  0  0
  -21.8091    2.8401  -13.4338 C   0  0  0  0  0  0  0  0  0  0  0  0
  -21.7239    1.4472  -13.2964 C   0  0  0  0  0  0  0  0  0  0  0  0
  -22.3016    0.7548  -12.2279 C   0  0  0  0  0  0  0  0  0  0  0  0
  -19.0691    1.8042  -14.8101 C   0  0  0  0  0  0  0  0  0  0  0  0
  -18.7906    2.9556  -14.4975 O   0  0  0  0  0  0  0  0  0  0  0  0
  -18.1809    0.7246  -14.7458 N   0  0  0  0  0  0  0  0  0  0  0  0
  -18.5773   -0.1884  -14.9199 H   0  0  0  0  0  0  0  0  0  0  0  0
  -16.7933    0.7238  -14.5351 C   0  0  0  0  0  0  0  0  0  0  0  0
  -16.1447    0.4252  -13.3317 C   0  0  0  0  0  0  0  0  0  0  0  0
  -14.7416    0.4645  -13.2270 C   0  0  0  0  0  0  0  0  0  0  0  0
  -13.9653    0.8154  -14.3334 C   0  0  0  0  0  0  0  0  0  0  0  0
  -12.2466    0.8490  -14.2070 Cl  0  0  0  0  0  0  0  0  0  0  0  0
  -14.5832    1.1413  -15.5319 C   0  0  0  0  0  0  0  0  0  0  0  0
  -15.9724    1.1046  -15.6294 C   0  0  0  0  0  0  0  0  0  0  0  0
  -23.4491   -1.2473  -11.4895 O   0  0  0  0  0  0  0  0  0  0  0  0
  -26.6973   -2.1155  -10.4826 C   0  0  0  0  0  0  0  0  0  0  0  0
  -27.5233   -1.5186  -11.3558 N   0  0  0  0  0  0  0  0  0  0  0  0
  -26.9528   -0.7578  -12.3064 C   0  0  0  0  0  0  0  0  0  0  0  0
  -25.5977   -0.5874  -12.4293 C   0  0  0  0  0  0  0  0  0  0  0  0
  -24.8288   -1.2808  -11.5195 C   0  0  0  0  0  0  0  0  0  0  0  0
  -25.3632   -2.0133  -10.5286 N   0  0  0  0  0  0  0  0  0  0  0  0
  -27.3063   -2.8879   -9.4886 N   0  0  0  0  0  0  0  0  0  0  0  0
  -27.8889   -3.5617   -9.9753 H   0  0  0  0  0  0  0  0  0  0  0  0
  -29.1913   -2.7489   -6.2449 C   0  0  0  0  0  0  0  0  0  0  0  0
  -28.9191   -1.4251   -5.8800 C   0  0  0  0  0  0  0  0  0  0  0  0
  -28.1723   -0.5973   -6.7191 C   0  0  0  0  0  0  0  0  0  0  0  0
  -27.6639   -1.0901   -7.9207 C   0  0  0  0  0  0  0  0  0  0  0  0
  -27.9247   -2.4033   -8.3184 C   0  0  0  0  0  0  0  0  0  0  0  0
  -28.6800   -3.2241   -7.4676 C   0  0  0  0  0  0  0  0  0  0  0  0
  -29.9056   -3.7015   -5.3181 C   0  0  0  0  0  0  0  0  0  0  0  0
  -29.4709   -5.8107   -3.4782 C   0  0  0  0  0  0  0  0  0  0  0  0
  -28.9415   -4.1640   -3.8851 S   0  0  0  0  0  0  0  0  0  0  0  0
  -29.2708   -3.2955   -2.7698 O   0  0  0  0  0  0  0  0  0  0  0  0
  -27.5581   -4.2676   -4.3223 O   0  0  0  0  0  0  0  0  0  0  0  0
 38 39  1  0  0  0
 39 40  2  0  0  0
 39 41  2  0  0  0
 39 37  1  0  0  0
 37 31  1  0  0  0
 31 32  1  0  0  0
 31 36  2  0  0  0
 32 33  2  0  0  0
 33 34  1  0  0  0
 34 35  2  0  0  0
 35 29  1  0  0  0
 35 36  1  0  0  0
 29 23  1  0  0  0
 29 30  1  0  0  0
 23 24  1  0  0  0
 23 28  2  0  0  0
 24 25  2  0  0  0
 25 26  1  0  0  0
 26 27  2  0  0  0
 27 22  1  0  0  0
 27 28  1  0  0  0
 22  1  1  0  0  0
  1  2  1  0  0  0
  1 10  2  0  0  0
  2  3  2  0  0  0
  3  4  1  0  0  0
  4  5  1  0  0  0
  4  9  2  0  0  0
  5 11  1  0  0  0
  5  6  2  0  0  0
 11 12  2  0  0  0
 11 13  1  0  0  0
 13 15  1  0  0  0
 13 14  1  0  0  0
 15 16  1  0  0  0
 15 21  2  0  0  0
 16 17  2  0  0  0
 17 18  1  0  0  0
 18 19  1  0  0  0
 18 20  2  0  0  0
 20 21  1  0  0  0
  6  7  1  0  0  0
  7  8  2  0  0  0
  8  9  1  0  0  0
  9 10  1  0  0  0
M  END
> <minimizedAffinity>
-9.77821

$$$$
