CHEMBL1173174


 38 41  0  0  0  0  0  0  0  0999 V2000
  -23.2813   -1.0258  -13.4608 C   0  0  0  0  0  0  0  0  0  0  0  0
  -22.9596   -1.1583  -12.0997 C   0  0  0  0  0  0  0  0  0  0  0  0
  -23.9616   -1.3423  -11.1465 C   0  0  0  0  0  0  0  0  0  0  0  0
  -25.2766   -1.4452  -11.5762 C   0  0  0  0  0  0  0  0  0  0  0  0
  -25.5946   -1.3234  -12.9267 C   0  0  0  0  0  0  0  0  0  0  0  0
  -24.6218   -1.1017  -13.8873 C   0  0  0  0  0  0  0  0  0  0  0  0
  -26.9770   -1.4634  -13.1045 N   0  0  0  0  0  0  0  0  0  0  0  0
  -27.6263   -1.6973  -11.8899 C   0  0  0  0  0  0  0  0  0  0  0  0
  -28.8181   -1.8666  -11.7029 O   0  0  0  0  0  0  0  0  0  0  0  0
  -26.5356   -1.7053  -10.8573 C   0  0  0  0  0  0  0  0  0  0  0  0
  -26.5330   -1.9341   -9.5375 C   0  0  0  0  0  0  0  0  0  0  0  0
  -27.4603   -1.4020  -13.9944 H   0  0  0  0  0  0  0  0  0  0  0  0
  -27.5642   -2.2904   -8.6301 C   0  0  0  0  0  0  0  0  0  0  0  0
  -28.3285   -3.4208   -8.7479 N   0  0  0  0  0  0  0  0  0  0  0  0
  -29.1983   -3.5189   -7.6752 C   0  0  0  0  0  0  0  0  0  0  0  0
  -30.0662   -4.7244   -7.5276 C   0  0  0  0  0  0  0  0  0  0  0  0
  -29.0068   -2.4075   -6.8547 C   0  0  0  0  0  0  0  0  0  0  0  0
  -27.9711   -1.6286   -7.4787 C   0  0  0  0  0  0  0  0  0  0  0  0
  -27.3946   -0.3392   -6.9874 C   0  0  0  0  0  0  0  0  0  0  0  0
  -28.2331   -4.1097   -9.4917 H   0  0  0  0  0  0  0  0  0  0  0  0
  -29.6629   -2.0964   -5.5797 C   0  0  0  0  0  0  0  0  0  0  0  0
  -29.7631   -2.8897   -4.6537 O   0  0  0  0  0  0  0  0  0  0  0  0
  -30.1326   -0.8287   -5.4656 O   0  0  0  0  0  0  0  0  0  0  0  0
  -29.8295   -0.2824   -6.2095 H   0  0  0  0  0  0  0  0  0  0  0  0
  -20.4224    0.4033  -15.1832 N   0  0  0  0  0  0  0  0  0  0  0  0
  -21.4886    0.3934  -14.2946 C   0  0  0  0  0  0  0  0  0  0  0  0
  -21.7626    1.2801  -13.4949 O   0  0  0  0  0  0  0  0  0  0  0  0
  -22.2087   -0.7916  -14.3588 N   0  0  0  0  0  0  0  0  0  0  0  0
  -20.4220   -0.2922  -15.9151 H   0  0  0  0  0  0  0  0  0  0  0  0
  -21.6469   -1.5967  -14.5972 H   0  0  0  0  0  0  0  0  0  0  0  0
  -17.3912    3.3731  -15.3822 C   0  0  0  0  0  0  0  0  0  0  0  0
  -17.0531    2.0454  -15.1766 C   0  0  0  0  0  0  0  0  0  0  0  0
  -18.0463    1.0656  -15.1038 C   0  0  0  0  0  0  0  0  0  0  0  0
  -19.3993    1.3845  -15.2285 C   0  0  0  0  0  0  0  0  0  0  0  0
  -19.7413    2.7267  -15.4335 C   0  0  0  0  0  0  0  0  0  0  0  0
  -18.7420    3.7130  -15.5085 C   0  0  0  0  0  0  0  0  0  0  0  0
  -15.6957    4.4353  -16.6547 C   0  0  0  0  0  0  0  0  0  0  0  0
  -16.4942    4.4074  -15.4727 O   0  0  0  0  0  0  0  0  0  0  0  0
 37 38  1  0  0  0
 38 31  1  0  0  0
 31 32  1  0  0  0
 31 36  2  0  0  0
 32 33  2  0  0  0
 33 34  1  0  0  0
 34 25  1  0  0  0
 34 35  2  0  0  0
 25 26  1  0  0  0
 25 29  1  0  0  0
 26 27  2  0  0  0
 26 28  1  0  0  0
 28  1  1  0  0  0
 28 30  1  0  0  0
  1  2  1  0  0  0
  1  6  2  0  0  0
  2  3  2  0  0  0
  3  4  1  0  0  0
  4  5  2  0  0  0
  4 10  1  0  0  0
  5  6  1  0  0  0
  5  7  1  0  0  0
  7  8  1  0  0  0
  7 12  1  0  0  0
  8  9  2  0  0  0
  8 10  1  0  0  0
 10 11  2  0  0  0
 11 13  1  0  0  0
 13 14  1  0  0  0
 13 18  2  0  0  0
 14 15  1  0  0  0
 14 20  1  0  0  0
 15 16  1  0  0  0
 15 17  2  0  0  0
 17 21  1  0  0  0
 17 18  1  0  0  0
 21 22  2  0  0  0
 21 23  1  0  0  0
 23 24  1  0  0  0
 18 19  1  0  0  0
 35 36  1  0  0  0
M  END
> <minimizedAffinity>
-10.23049

$$$$
