CHEMBL233209


 35 38  0  0  0  0  0  0  0  0999 V2000
  -14.8312    0.4841  -14.3536 C   0  0  0  0  0  0  0  0  0  0  0  0
  -16.0559    0.9054  -14.7906 N   0  0  0  0  0  0  0  0  0  0  0  0
  -16.1349    2.0620  -15.4548 C   0  0  0  0  0  0  0  0  0  0  0  0
  -15.0709    2.8506  -15.6595 N   0  0  0  0  0  0  0  0  0  0  0  0
  -13.8743    2.4189  -15.2351 C   0  0  0  0  0  0  0  0  0  0  0  0
  -13.6798    1.2216  -14.5957 C   0  0  0  0  0  0  0  0  0  0  0  0
  -12.0650    0.7606  -14.2298 Cl  0  0  0  0  0  0  0  0  0  0  0  0
  -15.1580   -3.3051  -12.2588 C   0  0  0  0  0  0  0  0  0  0  0  0
  -14.4140   -3.1824  -13.4414 C   0  0  0  0  0  0  0  0  0  0  0  0
  -14.2893   -1.9476  -14.0924 C   0  0  0  0  0  0  0  0  0  0  0  0
  -14.8967   -0.7837  -13.5916 C   0  0  0  0  0  0  0  0  0  0  0  0
  -15.6117   -0.9096  -12.3950 C   0  0  0  0  0  0  0  0  0  0  0  0
  -15.7125   -2.1329  -11.7273 C   0  0  0  0  0  0  0  0  0  0  0  0
  -14.2956   -5.6396  -12.0510 C   0  0  0  0  0  0  0  0  0  0  0  0
  -15.3625   -4.6516  -11.5604 C   0  0  0  0  0  0  0  0  0  0  0  0
  -16.7711   -5.2282  -11.8050 C   0  0  0  0  0  0  0  0  0  0  0  0
  -15.2189   -4.5148  -10.0972 N   0  0  0  0  0  0  0  0  0  0  0  0
  -15.4014   -5.4120   -9.6481 H   0  0  0  0  0  0  0  0  0  0  0  0
  -15.9361   -3.8728   -9.7601 H   0  0  0  0  0  0  0  0  0  0  0  0
  -17.3930    2.4527  -15.9096 N   0  0  0  0  0  0  0  0  0  0  0  0
  -17.3684    2.7621  -16.8685 H   0  0  0  0  0  0  0  0  0  0  0  0
  -18.6318    2.2578  -15.2912 C   0  0  0  0  0  0  0  0  0  0  0  0
  -19.2226    0.9917  -15.2293 C   0  0  0  0  0  0  0  0  0  0  0  0
  -20.5360    0.8165  -14.8042 C   0  0  0  0  0  0  0  0  0  0  0  0
  -21.2958    1.9090  -14.3875 C   0  0  0  0  0  0  0  0  0  0  0  0
  -20.7004    3.1799  -14.4085 C   0  0  0  0  0  0  0  0  0  0  0  0
  -19.3816    3.3509  -14.8516 C   0  0  0  0  0  0  0  0  0  0  0  0
  -22.7493    1.7675  -13.9888 C   0  0  0  0  0  0  0  0  0  0  0  0
  -23.1784    0.3245  -13.6535 C   0  0  0  0  0  0  0  0  0  0  0  0
  -23.3145    0.0280  -12.2161 N   0  0  0  0  0  0  0  0  0  0  0  0
  -22.8926   -1.3388  -11.8448 C   0  0  0  0  0  0  0  0  0  0  0  0
  -23.8218   -2.4314  -12.3935 C   0  0  0  0  0  0  0  0  0  0  0  0
  -25.1618   -2.2439  -11.9212 O   0  0  0  0  0  0  0  0  0  0  0  0
  -25.6588   -0.9479  -12.2807 C   0  0  0  0  0  0  0  0  0  0  0  0
  -24.7306    0.1819  -11.7919 C   0  0  0  0  0  0  0  0  0  0  0  0
 14 15  1  0  0  0
 15 16  1  0  0  0
 15 17  1  0  0  0
 15  8  1  0  0  0
 17 18  1  0  0  0
 17 19  1  0  0  0
  8  9  1  0  0  0
  8 13  2  0  0  0
  9 10  2  0  0  0
 10 11  1  0  0  0
 11  1  1  0  0  0
 11 12  2  0  0  0
  1  2  1  0  0  0
  1  6  2  0  0  0
  2  3  2  0  0  0
  3 20  1  0  0  0
  3  4  1  0  0  0
 20 22  1  0  0  0
 20 21  1  0  0  0
 22 23  1  0  0  0
 22 27  2  0  0  0
 23 24  2  0  0  0
 24 25  1  0  0  0
 25 28  1  0  0  0
 25 26  2  0  0  0
 28 29  1  0  0  0
 29 30  1  0  0  0
 30 31  1  0  0  0
 30 35  1  0  0  0
 31 32  1  0  0  0
 32 33  1  0  0  0
 33 34  1  0  0  0
 34 35  1  0  0  0
 26 27  1  0  0  0
  4  5  2  0  0  0
  5  6  1  0  0  0
  6  7  1  0  0  0
 12 13  1  0  0  0
M  END
> <minimizedAffinity>
-10.06277

$$$$
