CHEMBL4283293


 27 30  0  0  0  0  0  0  0  0999 V2000
  -28.2722   -8.6340   -7.4819 C   0  0  0  0  0  0  0  0  0  0  0  0
  -27.7840   -9.5116   -6.6510 N   0  0  0  0  0  0  0  0  0  0  0  0
  -27.8529   -9.2722   -5.2775 C   0  0  0  0  0  0  0  0  0  0  0  0
  -28.8948   -8.6721   -4.5357 C   0  0  0  0  0  0  0  0  0  0  0  0
  -28.6696   -8.7599   -3.2205 N   0  0  0  0  0  0  0  0  0  0  0  0
  -27.4775   -9.3746   -3.1497 N   0  0  0  0  0  0  0  0  0  0  0  0
  -26.9368   -9.7110   -4.3659 C   0  0  0  0  0  0  0  0  0  0  0  0
  -25.6396  -10.4022   -4.5043 C   0  0  0  0  0  0  0  0  0  0  0  0
  -29.9236   -7.9861   -5.0862 N   0  0  0  0  0  0  0  0  0  0  0  0
  -29.6506   -7.0303   -6.0795 C   0  0  0  0  0  0  0  0  0  0  0  0
  -30.2003   -5.8130   -5.8728 N   0  0  0  0  0  0  0  0  0  0  0  0
  -29.7708   -4.8084   -6.6508 C   0  0  0  0  0  0  0  0  0  0  0  0
  -28.8318   -4.9252   -7.6047 N   0  0  0  0  0  0  0  0  0  0  0  0
  -28.3527   -6.1675   -7.8193 C   0  0  0  0  0  0  0  0  0  0  0  0
  -28.7605   -7.2771   -7.1152 C   0  0  0  0  0  0  0  0  0  0  0  0
  -27.0725   -9.5291   -2.2294 H   0  0  0  0  0  0  0  0  0  0  0  0
  -30.5392   -7.5535   -4.4066 H   0  0  0  0  0  0  0  0  0  0  0  0
  -29.5006   -9.6493   -9.5276 C   0  0  0  0  0  0  0  0  0  0  0  0
  -29.4098  -10.1976  -10.8170 C   0  0  0  0  0  0  0  0  0  0  0  0
  -28.2013  -10.1942  -11.5157 C   0  0  0  0  0  0  0  0  0  0  0  0
  -27.0750   -9.6106  -10.9499 C   0  0  0  0  0  0  0  0  0  0  0  0
  -27.1508   -9.0568   -9.6709 C   0  0  0  0  0  0  0  0  0  0  0  0
  -28.3513   -9.0794   -8.9366 C   0  0  0  0  0  0  0  0  0  0  0  0
  -31.1915  -10.8896   -8.3781 C   0  0  0  0  0  0  0  0  0  0  0  0
  -30.6688   -9.6392   -8.8132 O   0  0  0  0  0  0  0  0  0  0  0  0
  -30.4390   -3.1795   -6.4094 S   0  0  0  0  0  0  0  0  0  0  0  0
  -29.8219   -2.8129   -4.7487 C   0  0  0  0  0  0  0  0  0  0  0  0
 24 25  1  0  0  0
 25 18  1  0  0  0
 18 19  1  0  0  0
 18 23  2  0  0  0
 19 20  2  0  0  0
 20 21  1  0  0  0
 21 22  2  0  0  0
 22 23  1  0  0  0
 23  1  1  0  0  0
  1  2  2  0  0  0
  1 15  1  0  0  0
  2  3  1  0  0  0
  3  4  1  0  0  0
  3  7  2  0  0  0
  4  5  2  0  0  0
  4  9  1  0  0  0
  5  6  1  0  0  0
  6  7  1  0  0  0
  6 16  1  0  0  0
  7  8  1  0  0  0
  9 10  1  0  0  0
  9 17  1  0  0  0
 10 11  1  0  0  0
 10 15  2  0  0  0
 11 12  2  0  0  0
 12 26  1  0  0  0
 12 13  1  0  0  0
 26 27  1  0  0  0
 13 14  2  0  0  0
 14 15  1  0  0  0
M  END
> <minimizedAffinity>
-7.41478

$$$$
