CHEMBL190443


 47 50  0  0  0  0  0  0  0  0999 V2000
  -28.7684   -2.5090   -8.5192 C   0  0  0  0  0  0  0  0  0  0  0  0
  -29.0681   -2.5390  -10.0319 C   0  0  0  0  0  0  0  0  0  0  0  0
  -27.8934   -2.2693  -10.9224 C   0  0  0  0  0  0  0  0  0  0  0  0
  -28.0007   -2.3468  -12.3016 C   0  0  0  0  0  0  0  0  0  0  0  0
  -26.9944   -2.0646  -13.1622 N   0  0  0  0  0  0  0  0  0  0  0  0
  -25.8058   -1.6810  -12.6532 C   0  0  0  0  0  0  0  0  0  0  0  0
  -25.6151   -1.5730  -11.2822 C   0  0  0  0  0  0  0  0  0  0  0  0
  -26.6646   -1.8808  -10.4097 C   0  0  0  0  0  0  0  0  0  0  0  0
  -26.4234   -1.7699   -9.0418 N   0  0  0  0  0  0  0  0  0  0  0  0
  -27.3597   -2.0262   -8.1848 C   0  0  0  0  0  0  0  0  0  0  0  0
  -28.6652   -6.2866   -7.8580 C   0  0  0  0  0  0  0  0  0  0  0  0
  -29.5079   -6.3986   -6.7497 C   0  0  0  0  0  0  0  0  0  0  0  0
  -30.0904   -5.2565   -6.2011 C   0  0  0  0  0  0  0  0  0  0  0  0
  -29.8565   -4.0109   -6.7823 C   0  0  0  0  0  0  0  0  0  0  0  0
  -28.9902   -3.8769   -7.8793 C   0  0  0  0  0  0  0  0  0  0  0  0
  -28.3814   -5.0278   -8.3974 C   0  0  0  0  0  0  0  0  0  0  0  0
  -28.7803   -8.5613   -8.4829 C   0  0  0  0  0  0  0  0  0  0  0  0
  -28.0440   -7.3406   -8.4751 O   0  0  0  0  0  0  0  0  0  0  0  0
  -30.9317   -5.2419   -5.1216 O   0  0  0  0  0  0  0  0  0  0  0  0
  -30.2978   -5.4132   -3.8586 C   0  0  0  0  0  0  0  0  0  0  0  0
  -27.0874   -1.9223   -6.8282 N   0  0  0  0  0  0  0  0  0  0  0  0
  -27.6962   -1.1423   -5.8678 C   0  0  0  0  0  0  0  0  0  0  0  0
  -27.3745   -1.2651   -4.6908 O   0  0  0  0  0  0  0  0  0  0  0  0
  -28.5741   -0.2175   -6.3512 N   0  0  0  0  0  0  0  0  0  0  0  0
  -26.2961   -2.4248   -6.4501 H   0  0  0  0  0  0  0  0  0  0  0  0
  -28.8207   -0.3493   -7.3295 H   0  0  0  0  0  0  0  0  0  0  0  0
  -29.3095    0.7836   -5.5786 C   0  0  0  0  0  0  0  0  0  0  0  0
  -30.0123    1.7840   -6.5095 C   0  0  0  0  0  0  0  0  0  0  0  0
  -30.3873    0.0519   -4.7560 C   0  0  0  0  0  0  0  0  0  0  0  0
  -28.3735    1.5193   -4.6110 C   0  0  0  0  0  0  0  0  0  0  0  0
  -24.7723   -1.2956  -13.5459 N   0  0  0  0  0  0  0  0  0  0  0  0
  -24.9781   -0.9414  -14.8755 C   0  0  0  0  0  0  0  0  0  0  0  0
  -26.3725   -0.8907  -15.4561 C   0  0  0  0  0  0  0  0  0  0  0  0
  -24.0390   -0.6072  -15.6102 O   0  0  0  0  0  0  0  0  0  0  0  0
  -23.4063   -1.0909  -13.0344 C   0  0  0  0  0  0  0  0  0  0  0  0
  -22.9965    0.3321  -12.6630 C   0  0  0  0  0  0  0  0  0  0  0  0
  -21.7064    0.8075  -13.3344 C   0  0  0  0  0  0  0  0  0  0  0  0
  -22.0859    1.8213  -14.4205 C   0  0  0  0  0  0  0  0  0  0  0  0
  -21.7206    3.2564  -14.0841 C   0  0  0  0  0  0  0  0  0  0  0  0
  -20.3055    3.3847  -14.0094 O   0  0  0  0  0  0  0  0  0  0  0  0
  -19.7350    3.5195  -15.3088 C   0  0  0  0  0  0  0  0  0  0  0  0
  -18.4805    2.6925  -15.3949 C   0  0  0  0  0  0  0  0  0  0  0  0
  -18.4511    1.3838  -14.8916 C   0  0  0  0  0  0  0  0  0  0  0  0
  -17.2967    0.6083  -15.0045 C   0  0  0  0  0  0  0  0  0  0  0  0
  -16.1611    1.1335  -15.6209 C   0  0  0  0  0  0  0  0  0  0  0  0
  -16.1813    2.4339  -16.1200 C   0  0  0  0  0  0  0  0  0  0  0  0
  -17.3306    3.2103  -16.0058 C   0  0  0  0  0  0  0  0  0  0  0  0
 17 18  1  0  0  0
 18 11  1  0  0  0
 11 12  1  0  0  0
 11 16  2  0  0  0
 12 13  2  0  0  0
 13 19  1  0  0  0
 13 14  1  0  0  0
 19 20  1  0  0  0
 14 15  2  0  0  0
 15  1  1  0  0  0
 15 16  1  0  0  0
  1  2  1  0  0  0
  1 10  1  0  0  0
  2  3  1  0  0  0
  3  4  1  0  0  0
  3  8  2  0  0  0
  4  5  2  0  0  0
  5  6  1  0  0  0
  6 31  1  0  0  0
  6  7  2  0  0  0
 31 35  1  0  0  0
 31 32  1  0  0  0
 35 36  1  0  0  0
 36 37  1  0  0  0
 37 38  1  0  0  0
 38 39  1  0  0  0
 39 40  1  0  0  0
 40 41  1  0  0  0
 41 42  1  0  0  0
 42 43  1  0  0  0
 42 47  2  0  0  0
 43 44  2  0  0  0
 44 45  1  0  0  0
 45 46  2  0  0  0
 46 47  1  0  0  0
 32 33  1  0  0  0
 32 34  2  0  0  0
  7  8  1  0  0  0
  8  9  1  0  0  0
  9 10  2  0  0  0
 10 21  1  0  0  0
 21 22  1  0  0  0
 21 25  1  0  0  0
 22 23  2  0  0  0
 22 24  1  0  0  0
 24 27  1  0  0  0
 24 26  1  0  0  0
 27 28  1  0  0  0
 27 29  1  0  0  0
 27 30  1  0  0  0
M  END
> <minimizedAffinity>
-6.72345

$$$$
