CHEMBL150177


 32 34  0  0  0  0  0  0  0  0999 V2000
  -17.9735    0.4891  -14.8036 C   0  0  0  0  0  0  0  0  0  0  0  0
  -18.8395    1.5029  -14.6524 C   0  0  0  0  0  0  0  0  0  0  0  0
  -18.5171    2.9790  -14.7216 C   0  0  0  0  0  0  0  0  0  0  0  0
  -17.4495    3.5267  -14.8970 O   0  0  0  0  0  0  0  0  0  0  0  0
  -19.7310    3.6226  -14.5421 N   0  0  0  0  0  0  0  0  0  0  0  0
  -20.7678    2.7176  -14.3714 C   0  0  0  0  0  0  0  0  0  0  0  0
  -22.0954    3.0448  -14.1758 C   0  0  0  0  0  0  0  0  0  0  0  0
  -22.9877    1.9942  -13.9894 C   0  0  0  0  0  0  0  0  0  0  0  0
  -22.5200    0.6641  -13.9874 C   0  0  0  0  0  0  0  0  0  0  0  0
  -21.1686    0.3470  -14.2200 C   0  0  0  0  0  0  0  0  0  0  0  0
  -20.2919    1.4001  -14.4120 C   0  0  0  0  0  0  0  0  0  0  0  0
  -19.8081    4.6269  -14.5339 H   0  0  0  0  0  0  0  0  0  0  0  0
  -14.1895    1.6669  -17.6357 C   0  0  0  0  0  0  0  0  0  0  0  0
  -14.8470    1.2140  -16.3801 C   0  0  0  0  0  0  0  0  0  0  0  0
  -16.2131    1.0962  -16.3035 N   0  0  0  0  0  0  0  0  0  0  0  0
  -16.5901    0.6804  -15.0527 C   0  0  0  0  0  0  0  0  0  0  0  0
  -15.4396    0.5555  -14.2880 C   0  0  0  0  0  0  0  0  0  0  0  0
  -15.3809    0.1814  -12.8479 C   0  0  0  0  0  0  0  0  0  0  0  0
  -14.3206    0.8901  -15.1369 C   0  0  0  0  0  0  0  0  0  0  0  0
  -16.8519    1.3187  -17.0544 H   0  0  0  0  0  0  0  0  0  0  0  0
  -12.8642    0.9377  -14.7469 C   0  0  0  0  0  0  0  0  0  0  0  0
  -12.3690    2.3544  -14.4696 C   0  0  0  0  0  0  0  0  0  0  0  0
  -12.3563    2.6782  -12.9976 C   0  0  0  0  0  0  0  0  0  0  0  0
  -12.7289    1.9411  -12.1002 O   0  0  0  0  0  0  0  0  0  0  0  0
  -11.8625    3.9178  -12.7559 O   0  0  0  0  0  0  0  0  0  0  0  0
  -11.5976    4.3971  -13.5643 H   0  0  0  0  0  0  0  0  0  0  0  0
  -23.6759   -0.6233  -13.6095 S   0  0  0  0  0  0  0  0  0  0  0  0
  -24.5480    0.1110  -12.3806 N   0  0  0  0  0  0  0  0  0  0  0  0
  -24.5878   -0.7863  -14.7146 O   0  0  0  0  0  0  0  0  0  0  0  0
  -22.9709   -1.7302  -13.0064 O   0  0  0  0  0  0  0  0  0  0  0  0
  -25.5167    0.2557  -12.6637 H   0  0  0  0  0  0  0  0  0  0  0  0
  -24.4327   -0.3980  -11.5045 H   0  0  0  0  0  0  0  0  0  0  0  0
 13 14  1  0  0  0
 14 15  1  0  0  0
 14 19  2  0  0  0
 15 16  1  0  0  0
 15 20  1  0  0  0
 16  1  1  0  0  0
 16 17  2  0  0  0
  1  2  2  0  0  0
  2  3  1  0  0  0
  2 11  1  0  0  0
  3  4  2  0  0  0
  3  5  1  0  0  0
  5  6  1  0  0  0
  5 12  1  0  0  0
  6  7  1  0  0  0
  6 11  2  0  0  0
  7  8  2  0  0  0
  8  9  1  0  0  0
  9 27  1  0  0  0
  9 10  2  0  0  0
 27 28  1  0  0  0
 27 29  2  0  0  0
 27 30  2  0  0  0
 28 31  1  0  0  0
 28 32  1  0  0  0
 10 11  1  0  0  0
 17 18  1  0  0  0
 17 19  1  0  0  0
 19 21  1  0  0  0
 21 22  1  0  0  0
 22 23  1  0  0  0
 23 24  2  0  0  0
 23 25  1  0  0  0
 25 26  1  0  0  0
M  END
> <minimizedAffinity>
-8.89918

$$$$
