CHEMBL3676365


 38 40  0  0  0  0  0  0  0  0999 V2000
  -28.5970   -5.1909   -5.7446 C   0  0  0  0  0  0  0  0  0  0  0  0
  -28.3165   -6.5068   -5.3720 C   0  0  0  0  0  0  0  0  0  0  0  0
  -28.6000   -7.5725   -6.2522 C   0  0  0  0  0  0  0  0  0  0  0  0
  -28.4849   -8.9328   -5.9275 C   0  0  0  0  0  0  0  0  0  0  0  0
  -28.7783   -9.9004   -6.8172 N   0  0  0  0  0  0  0  0  0  0  0  0
  -29.2159   -9.5147   -8.0155 C   0  0  0  0  0  0  0  0  0  0  0  0
  -29.4126   -8.2551   -8.4085 N   0  0  0  0  0  0  0  0  0  0  0  0
  -29.1120   -7.2973   -7.5300 C   0  0  0  0  0  0  0  0  0  0  0  0
  -29.3440   -5.9765   -7.8914 C   0  0  0  0  0  0  0  0  0  0  0  0
  -29.0729   -4.9098   -7.0305 C   0  0  0  0  0  0  0  0  0  0  0  0
  -29.5694   -3.8570   -3.9357 C   0  0  0  0  0  0  0  0  0  0  0  0
  -29.3694   -3.2322   -2.8988 O   0  0  0  0  0  0  0  0  0  0  0  0
  -28.5215   -4.1912   -4.7593 N   0  0  0  0  0  0  0  0  0  0  0  0
  -27.6513   -4.1368   -4.2400 H   0  0  0  0  0  0  0  0  0  0  0  0
  -31.7220   -4.8713   -3.4164 C   0  0  0  0  0  0  0  0  0  0  0  0
  -30.9235   -4.3189   -4.3373 C   0  0  0  0  0  0  0  0  0  0  0  0
  -28.1359   -9.3255   -4.6064 N   0  0  0  0  0  0  0  0  0  0  0  0
  -28.4421   -8.6312   -3.9282 H   0  0  0  0  0  0  0  0  0  0  0  0
  -26.8742   -9.8775   -4.2711 C   0  0  0  0  0  0  0  0  0  0  0  0
  -25.7085   -9.4323   -4.9086 C   0  0  0  0  0  0  0  0  0  0  0  0
  -24.4536   -9.8734   -4.4934 C   0  0  0  0  0  0  0  0  0  0  0  0
  -24.3466  -10.7919   -3.4463 C   0  0  0  0  0  0  0  0  0  0  0  0
  -22.5935  -11.2641   -2.8882 Br  0  0  0  0  0  0  0  0  0  0  0  0
  -25.5020  -11.3035   -2.8440 C   0  0  0  0  0  0  0  0  0  0  0  0
  -25.4379  -12.4657   -1.5656 Cl  0  0  0  0  0  0  0  0  0  0  0  0
  -26.7547  -10.8481   -3.2698 C   0  0  0  0  0  0  0  0  0  0  0  0
  -27.8776  -11.3094   -2.6906 F   0  0  0  0  0  0  0  0  0  0  0  0
  -29.3598   -3.6687   -7.5460 O   0  0  0  0  0  0  0  0  0  0  0  0
  -28.3893   -3.1575   -8.4656 C   0  0  0  0  0  0  0  0  0  0  0  0
  -27.5738   -2.0269   -7.8325 C   0  0  0  0  0  0  0  0  0  0  0  0
  -28.4123   -1.1630   -7.0112 N   0  0  0  0  0  0  0  0  0  0  0  0
  -28.1209   -0.9542   -5.6806 C   0  0  0  0  0  0  0  0  0  0  0  0
  -27.1143   -1.4088   -5.1418 O   0  0  0  0  0  0  0  0  0  0  0  0
  -29.3113   -0.8706   -7.3744 H   0  0  0  0  0  0  0  0  0  0  0  0
  -29.1540   -0.1320   -4.9419 C   0  0  0  0  0  0  0  0  0  0  0  0
  -29.3666    1.2167   -5.6131 C   0  0  0  0  0  0  0  0  0  0  0  0
  -28.2642    1.5391   -6.4590 O   0  0  0  0  0  0  0  0  0  0  0  0
  -27.5072    1.7201   -5.8683 H   0  0  0  0  0  0  0  0  0  0  0  0
 15 16  2  0  0  0
 16 11  1  0  0  0
 11 12  2  0  0  0
 11 13  1  0  0  0
 13  1  1  0  0  0
 13 14  1  0  0  0
  1  2  1  0  0  0
  1 10  2  0  0  0
  2  3  2  0  0  0
  3  4  1  0  0  0
  3  8  1  0  0  0
  4 17  1  0  0  0
  4  5  2  0  0  0
 17 19  1  0  0  0
 17 18  1  0  0  0
 19 20  1  0  0  0
 19 26  2  0  0  0
 20 21  2  0  0  0
 21 22  1  0  0  0
 22 23  1  0  0  0
 22 24  2  0  0  0
 24 25  1  0  0  0
 24 26  1  0  0  0
 26 27  1  0  0  0
  5  6  1  0  0  0
  6  7  2  0  0  0
  7  8  1  0  0  0
  8  9  2  0  0  0
  9 10  1  0  0  0
 10 28  1  0  0  0
 28 29  1  0  0  0
 29 30  1  0  0  0
 30 31  1  0  0  0
 31 32  1  0  0  0
 31 34  1  0  0  0
 32 33  2  0  0  0
 32 35  1  0  0  0
 35 36  1  0  0  0
 36 37  1  0  0  0
 37 38  1  0  0  0
M  END
> <minimizedAffinity>
-7.94225

$$$$
