CHEMBL4280932


 30 34  0  0  0  0  0  0  0  0999 V2000
  -27.9043   -1.5764   -8.4014 C   0  0  0  0  0  0  0  0  0  0  0  0
  -28.0628   -0.3621   -7.9550 N   0  0  0  0  0  0  0  0  0  0  0  0
  -28.4013   -0.1492   -6.6201 C   0  0  0  0  0  0  0  0  0  0  0  0
  -28.0084   -0.8665   -5.4674 C   0  0  0  0  0  0  0  0  0  0  0  0
  -28.3988   -0.2489   -4.3500 N   0  0  0  0  0  0  0  0  0  0  0  0
  -29.0680    0.8278   -4.7998 N   0  0  0  0  0  0  0  0  0  0  0  0
  -29.1092    0.9326   -6.1636 C   0  0  0  0  0  0  0  0  0  0  0  0
  -29.7997    2.0313   -6.8658 C   0  0  0  0  0  0  0  0  0  0  0  0
  -27.4067   -2.0726   -5.4920 N   0  0  0  0  0  0  0  0  0  0  0  0
  -27.8924   -3.0690   -6.3486 C   0  0  0  0  0  0  0  0  0  0  0  0
  -28.1176   -4.2546   -5.7504 N   0  0  0  0  0  0  0  0  0  0  0  0
  -28.7446   -5.2222   -6.4310 C   0  0  0  0  0  0  0  0  0  0  0  0
  -29.1101   -5.0684   -7.7113 N   0  0  0  0  0  0  0  0  0  0  0  0
  -28.8290   -3.8906   -8.3054 C   0  0  0  0  0  0  0  0  0  0  0  0
  -28.1998   -2.8420   -7.6734 C   0  0  0  0  0  0  0  0  0  0  0  0
  -29.4785    1.4523   -4.1137 H   0  0  0  0  0  0  0  0  0  0  0  0
  -27.3076   -2.4957   -4.5747 H   0  0  0  0  0  0  0  0  0  0  0  0
  -25.8746   -1.6173  -13.8600 C   0  0  0  0  0  0  0  0  0  0  0  0
  -26.3806   -1.6631  -12.4487 C   0  0  0  0  0  0  0  0  0  0  0  0
  -25.4984   -1.7513  -11.3687 C   0  0  0  0  0  0  0  0  0  0  0  0
  -25.9781   -1.7436  -10.0547 C   0  0  0  0  0  0  0  0  0  0  0  0
  -27.3552   -1.6785   -9.8047 C   0  0  0  0  0  0  0  0  0  0  0  0
  -28.2407   -1.6069  -10.8880 C   0  0  0  0  0  0  0  0  0  0  0  0
  -27.7581   -1.6036  -12.1992 C   0  0  0  0  0  0  0  0  0  0  0  0
  -28.9914   -6.4119   -5.7962 N   0  0  0  0  0  0  0  0  0  0  0  0
  -29.9565   -6.4809   -4.7092 C   0  0  0  0  0  0  0  0  0  0  0  0
  -29.3488   -7.3248   -3.5900 C   0  0  0  0  0  0  0  0  0  0  0  0
  -28.8772   -8.6871   -4.1028 C   0  0  0  0  0  0  0  0  0  0  0  0
  -27.9812   -8.5553   -5.3373 C   0  0  0  0  0  0  0  0  0  0  0  0
  -28.6204   -7.6748   -6.4110 C   0  0  0  0  0  0  0  0  0  0  0  0
 18 19  1  0  0  0
 19 20  1  0  0  0
 19 24  2  0  0  0
 20 21  2  0  0  0
 21 22  1  0  0  0
 22  1  1  0  0  0
 22 23  2  0  0  0
  1  2  2  0  0  0
  1 15  1  0  0  0
  2  3  1  0  0  0
  3  4  1  0  0  0
  3  7  2  0  0  0
  4  5  2  0  0  0
  4  9  1  0  0  0
  5  6  1  0  0  0
  6  7  1  0  0  0
  6 16  1  0  0  0
  7  8  1  0  0  0
  9 10  1  0  0  0
  9 17  1  0  0  0
 10 11  1  0  0  0
 10 15  2  0  0  0
 11 12  2  0  0  0
 12 25  1  0  0  0
 12 13  1  0  0  0
 25 26  1  0  0  0
 25 30  1  0  0  0
 26 27  1  0  0  0
 27 28  1  0  0  0
 28 29  1  0  0  0
 29 30  1  0  0  0
 13 14  2  0  0  0
 14 15  1  0  0  0
 23 24  1  0  0  0
M  END
> <minimizedAffinity>
-8.61419

$$$$
