CHEMBL2385579


 27 31  0  0  0  0  0  0  0  0999 V2000
  -22.1344    0.3154  -14.0946 C   0  0  0  0  0  0  0  0  0  0  0  0
  -22.4364    0.2036  -12.6309 C   0  0  0  0  0  0  0  0  0  0  0  0
  -23.5179   -0.2878  -12.1060 N   0  0  0  0  0  0  0  0  0  0  0  0
  -24.4565   -0.7465  -12.9919 C   0  0  0  0  0  0  0  0  0  0  0  0
  -25.7213   -1.2709  -12.8158 C   0  0  0  0  0  0  0  0  0  0  0  0
  -26.1780   -1.5623  -14.1120 C   0  0  0  0  0  0  0  0  0  0  0  0
  -25.2952   -1.2446  -15.0613 N   0  0  0  0  0  0  0  0  0  0  0  0
  -24.2437   -0.7229  -14.3761 N   0  0  0  0  0  0  0  0  0  0  0  0
  -23.0753   -0.1828  -14.9087 C   0  0  0  0  0  0  0  0  0  0  0  0
  -19.8881    0.2039  -15.1233 C   0  0  0  0  0  0  0  0  0  0  0  0
  -18.6711    0.8141  -15.4356 C   0  0  0  0  0  0  0  0  0  0  0  0
  -18.4303    2.1760  -15.1863 C   0  0  0  0  0  0  0  0  0  0  0  0
  -19.4904    2.9221  -14.6601 C   0  0  0  0  0  0  0  0  0  0  0  0
  -20.7150    2.3227  -14.3385 C   0  0  0  0  0  0  0  0  0  0  0  0
  -20.9081    0.9551  -14.5467 C   0  0  0  0  0  0  0  0  0  0  0  0
  -17.2056    2.7258  -15.4958 N   0  0  0  0  0  0  0  0  0  0  0  0
  -17.0045    4.1539  -15.7737 C   0  0  0  0  0  0  0  0  0  0  0  0
  -15.9082    4.2827  -16.8508 C   0  0  0  0  0  0  0  0  0  0  0  0
  -14.6889    3.6179  -16.4682 O   0  0  0  0  0  0  0  0  0  0  0  0
  -14.9331    2.2225  -16.2120 C   0  0  0  0  0  0  0  0  0  0  0  0
  -15.9643    2.0419  -15.0907 C   0  0  0  0  0  0  0  0  0  0  0  0
  -26.4595   -1.4766  -11.5816 C   0  0  0  0  0  0  0  0  0  0  0  0
  -25.9094   -1.6209  -10.2911 C   0  0  0  0  0  0  0  0  0  0  0  0
  -26.8489   -1.7791   -9.3524 N   0  0  0  0  0  0  0  0  0  0  0  0
  -27.9973   -1.7346  -10.0462 N   0  0  0  0  0  0  0  0  0  0  0  0
  -27.8185   -1.5576  -11.3892 C   0  0  0  0  0  0  0  0  0  0  0  0
  -28.8689   -1.8299   -9.5360 H   0  0  0  0  0  0  0  0  0  0  0  0
 10 11  1  0  0  0
 10 15  2  0  0  0
 11 12  2  0  0  0
 12 16  1  0  0  0
 12 13  1  0  0  0
 16 17  1  0  0  0
 16 21  1  0  0  0
 17 18  1  0  0  0
 18 19  1  0  0  0
 19 20  1  0  0  0
 20 21  1  0  0  0
 13 14  2  0  0  0
 14 15  1  0  0  0
 15  1  1  0  0  0
  1  2  1  0  0  0
  1  9  2  0  0  0
  2  3  2  0  0  0
  3  4  1  0  0  0
  4  5  2  0  0  0
  4  8  1  0  0  0
  5 22  1  0  0  0
  5  6  1  0  0  0
 22 23  1  0  0  0
 22 26  2  0  0  0
 23 24  2  0  0  0
 24 25  1  0  0  0
 25 26  1  0  0  0
 25 27  1  0  0  0
  6  7  2  0  0  0
  7  8  1  0  0  0
  8  9  1  0  0  0
M  END
> <minimizedAffinity>
-9.45303

$$$$
