CHEMBL1269663


 20 22  0  0  0  0  0  0  0  0999 V2000
  -28.0664   -1.0249  -11.1124 O   0  0  0  0  0  0  0  0  0  0  0  0
  -27.0097   -1.5835  -10.8361 C   0  0  0  0  0  0  0  0  0  0  0  0
  -26.6966   -2.1845   -9.6281 N   0  0  0  0  0  0  0  0  0  0  0  0
  -25.7238   -2.4145   -9.4619 H   0  0  0  0  0  0  0  0  0  0  0  0
  -27.5659   -2.2511   -8.5192 C   0  0  0  0  0  0  0  0  0  0  0  0
  -27.7667   -1.2091   -7.6214 C   0  0  0  0  0  0  0  0  0  0  0  0
  -28.5436   -1.2906   -6.5151 N   0  0  0  0  0  0  0  0  0  0  0  0
  -29.1344   -2.4630   -6.2517 C   0  0  0  0  0  0  0  0  0  0  0  0
  -29.8648   -2.5940   -5.0823 C   0  0  0  0  0  0  0  0  0  0  0  0
  -30.4731   -3.8006   -4.7315 C   0  0  0  0  0  0  0  0  0  0  0  0
  -30.3651   -4.8998   -5.5754 C   0  0  0  0  0  0  0  0  0  0  0  0
  -29.6510   -4.7893   -6.7676 C   0  0  0  0  0  0  0  0  0  0  0  0
  -29.0240   -3.5778   -7.1111 C   0  0  0  0  0  0  0  0  0  0  0  0
  -28.2506   -3.4402   -8.2756 C   0  0  0  0  0  0  0  0  0  0  0  0
  -25.9204   -1.5572  -11.8410 C   0  0  0  0  0  0  0  0  0  0  0  0
  -24.6009   -1.4595  -11.3809 C   0  0  0  0  0  0  0  0  0  0  0  0
  -23.5447   -1.4239  -12.2902 C   0  0  0  0  0  0  0  0  0  0  0  0
  -23.8092   -1.4741  -13.6596 C   0  0  0  0  0  0  0  0  0  0  0  0
  -25.1233   -1.5544  -14.1203 C   0  0  0  0  0  0  0  0  0  0  0  0
  -26.1849   -1.5949  -13.2138 C   0  0  0  0  0  0  0  0  0  0  0  0
  1  2  2  0  0  0
  2  3  1  0  0  0
  2 15  1  0  0  0
  3  5  1  0  0  0
  3  4  1  0  0  0
  5  6  1  0  0  0
  5 14  2  0  0  0
  6  7  2  0  0  0
  7  8  1  0  0  0
  8  9  1  0  0  0
  8 13  2  0  0  0
  9 10  2  0  0  0
 10 11  1  0  0  0
 11 12  2  0  0  0
 12 13  1  0  0  0
 13 14  1  0  0  0
 15 16  1  0  0  0
 15 20  2  0  0  0
 16 17  2  0  0  0
 17 18  1  0  0  0
 18 19  2  0  0  0
 19 20  1  0  0  0
M  END
> <minimizedAffinity>
-8.67964

$$$$
