CHEMBL3939655


 37 40  0  0  0  0  0  0  0  0999 V2000
  -28.7160   -2.8801   -6.5863 C   0  0  0  0  0  0  0  0  0  0  0  0
  -27.9029   -3.0522   -5.4603 C   0  0  0  0  0  0  0  0  0  0  0  0
  -28.1321   -4.0986   -4.5624 C   0  0  0  0  0  0  0  0  0  0  0  0
  -29.2200   -4.9527   -4.7443 C   0  0  0  0  0  0  0  0  0  0  0  0
  -30.0489   -4.7686   -5.8579 C   0  0  0  0  0  0  0  0  0  0  0  0
  -29.8151   -3.7211   -6.7651 C   0  0  0  0  0  0  0  0  0  0  0  0
  -27.4008   -1.2570   -9.5573 N   0  0  0  0  0  0  0  0  0  0  0  0
  -27.6388   -2.3049   -8.6819 C   0  0  0  0  0  0  0  0  0  0  0  0
  -27.2460   -3.4515   -8.8670 O   0  0  0  0  0  0  0  0  0  0  0  0
  -28.3913   -1.9180   -7.5787 N   0  0  0  0  0  0  0  0  0  0  0  0
  -27.3632   -0.3364   -9.1428 H   0  0  0  0  0  0  0  0  0  0  0  0
  -29.0901   -1.2151   -7.7757 H   0  0  0  0  0  0  0  0  0  0  0  0
  -24.8409   -1.5529  -12.2990 C   0  0  0  0  0  0  0  0  0  0  0  0
  -25.4236   -1.4261  -11.0194 C   0  0  0  0  0  0  0  0  0  0  0  0
  -26.8137   -1.4217  -10.8349 C   0  0  0  0  0  0  0  0  0  0  0  0
  -27.6402   -1.6007  -11.9452 C   0  0  0  0  0  0  0  0  0  0  0  0
  -27.0824   -1.7375  -13.2203 C   0  0  0  0  0  0  0  0  0  0  0  0
  -25.6942   -1.7071  -13.3869 C   0  0  0  0  0  0  0  0  0  0  0  0
  -25.1914   -1.8279  -14.6252 F   0  0  0  0  0  0  0  0  0  0  0  0
  -22.7891   -0.2900  -13.0850 C   0  0  0  0  0  0  0  0  0  0  0  0
  -23.3429   -1.5631  -12.4612 C   0  0  0  0  0  0  0  0  0  0  0  0
  -22.9242   -2.6180  -13.2190 F   0  0  0  0  0  0  0  0  0  0  0  0
  -22.6969   -1.7184  -11.2628 F   0  0  0  0  0  0  0  0  0  0  0  0
  -29.4865   -6.0435   -3.9384 O   0  0  0  0  0  0  0  0  0  0  0  0
  -28.9762   -7.2897   -4.2536 C   0  0  0  0  0  0  0  0  0  0  0  0
  -28.9549   -8.3613   -3.3690 C   0  0  0  0  0  0  0  0  0  0  0  0
  -28.4086   -9.5460   -3.8087 C   0  0  0  0  0  0  0  0  0  0  0  0
  -27.9498   -9.7341   -5.0587 N   0  0  0  0  0  0  0  0  0  0  0  0
  -28.0250   -8.7268   -5.9424 C   0  0  0  0  0  0  0  0  0  0  0  0
  -28.5291   -7.4794   -5.5720 C   0  0  0  0  0  0  0  0  0  0  0  0
  -27.5980   -8.9430   -7.2710 N   0  0  0  0  0  0  0  0  0  0  0  0
  -28.4185   -9.4550   -8.2625 C   0  0  0  0  0  0  0  0  0  0  0  0
  -29.5889   -9.7920   -8.1502 O   0  0  0  0  0  0  0  0  0  0  0  0
  -26.6556   -8.6837   -7.5084 H   0  0  0  0  0  0  0  0  0  0  0  0
  -27.8302   -9.6141   -9.6293 C   0  0  0  0  0  0  0  0  0  0  0  0
  -28.3759  -10.4234  -10.7739 C   0  0  0  0  0  0  0  0  0  0  0  0
  -27.1705  -10.9149  -10.0236 C   0  0  0  0  0  0  0  0  0  0  0  0
 20 21  1  0  0  0
 21 22  1  0  0  0
 21 23  1  0  0  0
 21 13  1  0  0  0
 13 14  1  0  0  0
 13 18  2  0  0  0
 14 15  2  0  0  0
 15  7  1  0  0  0
 15 16  1  0  0  0
  7  8  1  0  0  0
  7 11  1  0  0  0
  8  9  2  0  0  0
  8 10  1  0  0  0
 10  1  1  0  0  0
 10 12  1  0  0  0
  1  2  1  0  0  0
  1  6  2  0  0  0
  2  3  2  0  0  0
  3  4  1  0  0  0
  4 24  1  0  0  0
  4  5  2  0  0  0
 24 25  1  0  0  0
 25 26  1  0  0  0
 25 30  2  0  0  0
 26 27  2  0  0  0
 27 28  1  0  0  0
 28 29  2  0  0  0
 29 31  1  0  0  0
 29 30  1  0  0  0
 31 32  1  0  0  0
 31 34  1  0  0  0
 32 33  2  0  0  0
 32 35  1  0  0  0
 35 36  1  0  0  0
 35 37  1  0  0  0
 36 37  1  0  0  0
  5  6  1  0  0  0
 16 17  2  0  0  0
 17 18  1  0  0  0
 18 19  1  0  0  0
M  END
> <minimizedAffinity>
-10.19247

$$$$
