CHEMBL2071214


 27 29  0  0  0  0  0  0  0  0999 V2000
  -29.0665   -6.7860   -5.8579 C   0  0  0  0  0  0  0  0  0  0  0  0
  -29.6613   -7.3359   -4.7925 N   0  0  0  0  0  0  0  0  0  0  0  0
  -30.4175   -6.4884   -4.0483 C   0  0  0  0  0  0  0  0  0  0  0  0
  -30.5725   -5.1429   -4.3154 C   0  0  0  0  0  0  0  0  0  0  0  0
  -31.5542   -4.1686   -3.2971 Cl  0  0  0  0  0  0  0  0  0  0  0  0
  -29.8879   -4.6525   -5.4169 C   0  0  0  0  0  0  0  0  0  0  0  0
  -29.1418   -5.4787   -6.1723 N   0  0  0  0  0  0  0  0  0  0  0  0
  -28.3639   -7.6618   -6.6914 N   0  0  0  0  0  0  0  0  0  0  0  0
  -27.4494   -7.8290   -6.2922 H   0  0  0  0  0  0  0  0  0  0  0  0
  -28.6562  -10.3206  -10.7496 C   0  0  0  0  0  0  0  0  0  0  0  0
  -28.9548   -9.5871   -9.5451 N   0  0  0  0  0  0  0  0  0  0  0  0
  -28.0822   -8.8824   -8.7639 C   0  0  0  0  0  0  0  0  0  0  0  0
  -28.8323   -8.3843   -7.7275 C   0  0  0  0  0  0  0  0  0  0  0  0
  -30.1425   -8.8582   -7.9690 C   0  0  0  0  0  0  0  0  0  0  0  0
  -30.2191   -9.5887   -9.0853 N   0  0  0  0  0  0  0  0  0  0  0  0
  -30.0143   -3.3339   -5.8361 N   0  0  0  0  0  0  0  0  0  0  0  0
  -30.9370   -3.0404   -6.1662 H   0  0  0  0  0  0  0  0  0  0  0  0
  -29.1594   -2.2927   -5.2799 C   0  0  0  0  0  0  0  0  0  0  0  0
  -29.8436   -0.9251   -5.1734 C   0  0  0  0  0  0  0  0  0  0  0  0
  -28.7454    0.1212   -5.3676 C   0  0  0  0  0  0  0  0  0  0  0  0
  -27.4514   -0.6445   -5.6226 C   0  0  0  0  0  0  0  0  0  0  0  0
  -27.8848   -2.0339   -6.0990 C   0  0  0  0  0  0  0  0  0  0  0  0
  -28.0278   -2.0912   -7.6143 C   0  0  0  0  0  0  0  0  0  0  0  0
  -27.4677   -1.0389   -8.2868 N   0  0  0  0  0  0  0  0  0  0  0  0
  -28.5346   -3.0161   -8.2396 O   0  0  0  0  0  0  0  0  0  0  0  0
  -27.0402   -0.2447   -7.8308 H   0  0  0  0  0  0  0  0  0  0  0  0
  -27.4985   -1.0550   -9.2969 H   0  0  0  0  0  0  0  0  0  0  0  0
 10 11  1  0  0  0
 11 12  1  0  0  0
 11 15  1  0  0  0
 12 13  2  0  0  0
 13  8  1  0  0  0
 13 14  1  0  0  0
  8  1  1  0  0  0
  8  9  1  0  0  0
  1  2  1  0  0  0
  1  7  2  0  0  0
  2  3  2  0  0  0
  3  4  1  0  0  0
  4  5  1  0  0  0
  4  6  2  0  0  0
  6 16  1  0  0  0
  6  7  1  0  0  0
 16 18  1  0  0  0
 16 17  1  0  0  0
 18 19  1  0  0  0
 18 22  1  0  0  0
 19 20  1  0  0  0
 20 21  1  0  0  0
 21 22  1  0  0  0
 22 23  1  0  0  0
 23 24  1  0  0  0
 23 25  2  0  0  0
 24 26  1  0  0  0
 24 27  1  0  0  0
 14 15  2  0  0  0
M  END
> <minimizedAffinity>
-7.29824

$$$$
