CHEMBL3686065


 38 42  0  0  0  0  0  0  0  0999 V2000
  -26.3163   -1.5188  -10.8197 C   0  0  0  0  0  0  0  0  0  0  0  0
  -25.0923   -0.7363  -10.5873 C   0  0  0  0  0  0  0  0  0  0  0  0
  -24.2014   -0.5592  -11.5710 C   0  0  0  0  0  0  0  0  0  0  0  0
  -24.5703   -0.8788  -12.8719 N   0  0  0  0  0  0  0  0  0  0  0  0
  -24.0046   -0.4850  -14.0706 C   0  0  0  0  0  0  0  0  0  0  0  0
  -24.8109   -1.0839  -15.0305 C   0  0  0  0  0  0  0  0  0  0  0  0
  -25.8774   -1.7378  -14.4697 N   0  0  0  0  0  0  0  0  0  0  0  0
  -25.7527   -1.5480  -13.1741 C   0  0  0  0  0  0  0  0  0  0  0  0
  -26.6104   -1.9002  -12.0884 C   0  0  0  0  0  0  0  0  0  0  0  0
  -22.9103    0.4873  -14.2604 C   0  0  0  0  0  0  0  0  0  0  0  0
  -23.1343    1.8185  -13.9268 C   0  0  0  0  0  0  0  0  0  0  0  0
  -22.0944    2.7459  -13.9980 C   0  0  0  0  0  0  0  0  0  0  0  0
  -20.8222    2.3393  -14.3979 C   0  0  0  0  0  0  0  0  0  0  0  0
  -20.5621    1.0090  -14.7438 C   0  0  0  0  0  0  0  0  0  0  0  0
  -21.6211    0.0891  -14.6752 C   0  0  0  0  0  0  0  0  0  0  0  0
  -19.2784    0.5463  -15.1511 N   0  0  0  0  0  0  0  0  0  0  0  0
  -18.0689    0.9909  -14.6470 C   0  0  0  0  0  0  0  0  0  0  0  0
  -17.8856    1.8165  -13.7622 O   0  0  0  0  0  0  0  0  0  0  0  0
  -16.9928    0.4204  -15.2913 N   0  0  0  0  0  0  0  0  0  0  0  0
  -19.2455   -0.1511  -15.8739 H   0  0  0  0  0  0  0  0  0  0  0  0
  -17.1170   -0.5251  -15.6236 H   0  0  0  0  0  0  0  0  0  0  0  0
  -15.6403    0.7925  -14.8435 C   0  0  0  0  0  0  0  0  0  0  0  0
  -15.0172   -0.0995  -13.7574 C   0  0  0  0  0  0  0  0  0  0  0  0
  -13.6860    0.1074  -13.6330 F   0  0  0  0  0  0  0  0  0  0  0  0
  -15.5708    0.1927  -12.5529 F   0  0  0  0  0  0  0  0  0  0  0  0
  -15.2231   -1.4125  -13.9836 F   0  0  0  0  0  0  0  0  0  0  0  0
  -28.1815   -1.8875   -7.7622 N   0  0  0  0  0  0  0  0  0  0  0  0
  -27.5676   -1.0925   -8.6920 C   0  0  0  0  0  0  0  0  0  0  0  0
  -27.0900   -1.9291   -9.6821 C   0  0  0  0  0  0  0  0  0  0  0  0
  -27.5031   -3.2116   -9.2713 C   0  0  0  0  0  0  0  0  0  0  0  0
  -28.1912   -3.1853   -8.1262 N   0  0  0  0  0  0  0  0  0  0  0  0
  -27.6456   -4.6117   -3.9626 C   0  0  0  0  0  0  0  0  0  0  0  0
  -28.2804   -3.3479   -4.3628 N   0  0  0  0  0  0  0  0  0  0  0  0
  -27.2474   -2.4144   -4.8280 C   0  0  0  0  0  0  0  0  0  0  0  0
  -27.8352   -1.1289   -5.4055 C   0  0  0  0  0  0  0  0  0  0  0  0
  -28.8323   -1.4234   -6.5347 C   0  0  0  0  0  0  0  0  0  0  0  0
  -29.9116   -2.3639   -5.9861 C   0  0  0  0  0  0  0  0  0  0  0  0
  -29.3069   -3.6306   -5.3790 C   0  0  0  0  0  0  0  0  0  0  0  0
 32 33  1  0  0  0
 33 34  1  0  0  0
 33 38  1  0  0  0
 34 35  1  0  0  0
 35 36  1  0  0  0
 36 27  1  0  0  0
 36 37  1  0  0  0
 27 28  1  0  0  0
 27 31  1  0  0  0
 28 29  2  0  0  0
 29  1  1  0  0  0
 29 30  1  0  0  0
  1  2  1  0  0  0
  1  9  2  0  0  0
  2  3  2  0  0  0
  3  4  1  0  0  0
  4  5  1  0  0  0
  4  8  1  0  0  0
  5 10  1  0  0  0
  5  6  2  0  0  0
 10 11  1  0  0  0
 10 15  2  0  0  0
 11 12  2  0  0  0
 12 13  1  0  0  0
 13 14  2  0  0  0
 14 16  1  0  0  0
 14 15  1  0  0  0
 16 17  1  0  0  0
 16 20  1  0  0  0
 17 18  2  0  0  0
 17 19  1  0  0  0
 19 22  1  0  0  0
 19 21  1  0  0  0
 22 23  1  0  0  0
 23 24  1  0  0  0
 23 25  1  0  0  0
 23 26  1  0  0  0
  6  7  1  0  0  0
  7  8  2  0  0  0
  8  9  1  0  0  0
 30 31  2  0  0  0
 37 38  1  0  0  0
M  END
> <minimizedAffinity>
-9.99054

$$$$
