CHEMBL2403374


 35 39  0  0  0  0  0  0  0  0999 V2000
  -13.6675    2.0487  -15.6452 C   0  0  0  0  0  0  0  0  0  0  0  0
  -13.1064    0.7844  -15.7287 C   0  0  0  0  0  0  0  0  0  0  0  0
  -13.8134   -0.0681  -14.8352 C   0  0  0  0  0  0  0  0  0  0  0  0
  -14.7375    0.7363  -14.2141 C   0  0  0  0  0  0  0  0  0  0  0  0
  -14.6301    2.0140  -14.6728 N   0  0  0  0  0  0  0  0  0  0  0  0
  -15.7581    0.2873  -13.2794 C   0  0  0  0  0  0  0  0  0  0  0  0
  -15.5115   -1.1586  -12.8699 C   0  0  0  0  0  0  0  0  0  0  0  0
  -14.6340   -2.0681  -13.5928 N   0  0  0  0  0  0  0  0  0  0  0  0
  -14.4485   -3.3998  -13.2219 C   0  0  0  0  0  0  0  0  0  0  0  0
  -13.6687   -4.1025  -13.8896 O   0  0  0  0  0  0  0  0  0  0  0  0
  -15.0785   -3.9401  -12.1049 N   0  0  0  0  0  0  0  0  0  0  0  0
  -15.9254   -3.3613  -11.0382 C   0  0  0  0  0  0  0  0  0  0  0  0
  -15.1300   -3.2981   -9.7354 C   0  0  0  0  0  0  0  0  0  0  0  0
  -14.8211   -4.6306   -9.3120 O   0  0  0  0  0  0  0  0  0  0  0  0
  -14.0318   -5.3082  -10.3077 C   0  0  0  0  0  0  0  0  0  0  0  0
  -14.6937   -5.3063  -11.7030 C   0  0  0  0  0  0  0  0  0  0  0  0
  -13.6882   -1.5410  -14.6074 C   0  0  0  0  0  0  0  0  0  0  0  0
  -15.2531    2.7740  -14.4280 H   0  0  0  0  0  0  0  0  0  0  0  0
  -12.8812    7.5753  -17.9017 C   0  0  0  0  0  0  0  0  0  0  0  0
  -12.2260    8.3259  -16.9038 C   0  0  0  0  0  0  0  0  0  0  0  0
  -11.8425    7.7621  -15.6892 C   0  0  0  0  0  0  0  0  0  0  0  0
  -12.1357    6.4364  -15.5013 C   0  0  0  0  0  0  0  0  0  0  0  0
  -12.7875    5.6530  -16.4595 C   0  0  0  0  0  0  0  0  0  0  0  0
  -13.1849    6.2181  -17.6677 C   0  0  0  0  0  0  0  0  0  0  0  0
  -12.9138    4.3166  -15.8510 C   0  0  0  0  0  0  0  0  0  0  0  0
  -13.5009    3.2364  -16.3907 C   0  0  0  0  0  0  0  0  0  0  0  0
  -12.2714    4.3958  -14.4766 C   0  0  0  0  0  0  0  0  0  0  0  0
  -12.0938    3.5261  -13.6473 O   0  0  0  0  0  0  0  0  0  0  0  0
  -11.8492    5.7044  -14.3582 N   0  0  0  0  0  0  0  0  0  0  0  0
  -11.3839    6.0488  -13.5348 H   0  0  0  0  0  0  0  0  0  0  0  0
  -14.7157    8.9999  -20.8829 C   0  0  0  0  0  0  0  0  0  0  0  0
  -14.5719    8.5430  -19.4571 C   0  0  0  0  0  0  0  0  0  0  0  0
  -15.5469    8.5418  -18.7124 O   0  0  0  0  0  0  0  0  0  0  0  0
  -13.2766    8.1613  -19.1293 N   0  0  0  0  0  0  0  0  0  0  0  0
  -12.5454    8.3876  -19.7891 H   0  0  0  0  0  0  0  0  0  0  0  0
 31 32  1  0  0  0
 32 33  2  0  0  0
 32 34  1  0  0  0
 34 19  1  0  0  0
 34 35  1  0  0  0
 19 20  1  0  0  0
 19 24  2  0  0  0
 20 21  2  0  0  0
 21 22  1  0  0  0
 22 23  2  0  0  0
 22 29  1  0  0  0
 23 24  1  0  0  0
 23 25  1  0  0  0
 25 26  2  0  0  0
 25 27  1  0  0  0
 26  1  1  0  0  0
  1  2  2  0  0  0
  1  5  1  0  0  0
  2  3  1  0  0  0
  3  4  2  0  0  0
  3 17  1  0  0  0
  4  5  1  0  0  0
  4  6  1  0  0  0
  5 18  1  0  0  0
  6  7  1  0  0  0
  7  8  1  0  0  0
  8  9  1  0  0  0
  8 17  1  0  0  0
  9 10  2  0  0  0
  9 11  1  0  0  0
 11 12  1  0  0  0
 11 16  1  0  0  0
 12 13  1  0  0  0
 13 14  1  0  0  0
 14 15  1  0  0  0
 15 16  1  0  0  0
 27 28  2  0  0  0
 27 29  1  0  0  0
 29 30  1  0  0  0
M  END
> <minimizedAffinity>
-7.79691

$$$$
