CHEMBL206463


 24 27  0  0  0  0  0  0  0  0999 V2000
  -16.0634   -0.0523  -14.2371 C   0  0  0  0  0  0  0  0  0  0  0  0
  -14.8333   -0.3189  -13.7639 C   0  0  0  0  0  0  0  0  0  0  0  0
  -13.6379    0.5563  -13.6564 C   0  0  0  0  0  0  0  0  0  0  0  0
  -13.5251    1.7583  -13.7750 O   0  0  0  0  0  0  0  0  0  0  0  0
  -12.6271   -0.3287  -13.3230 N   0  0  0  0  0  0  0  0  0  0  0  0
  -13.0440   -1.5993  -13.0259 N   0  0  0  0  0  0  0  0  0  0  0  0
  -14.3435   -1.6286  -13.2373 C   0  0  0  0  0  0  0  0  0  0  0  0
  -11.6760   -0.0376  -13.1285 H   0  0  0  0  0  0  0  0  0  0  0  0
  -16.3595    4.4487  -16.2613 C   0  0  0  0  0  0  0  0  0  0  0  0
  -16.7589    3.1766  -15.6983 N   0  0  0  0  0  0  0  0  0  0  0  0
  -15.8901    2.1707  -15.3801 C   0  0  0  0  0  0  0  0  0  0  0  0
  -16.5984    1.1621  -14.7708 C   0  0  0  0  0  0  0  0  0  0  0  0
  -17.9842    1.5296  -14.8325 C   0  0  0  0  0  0  0  0  0  0  0  0
  -19.1928    0.9032  -14.4464 C   0  0  0  0  0  0  0  0  0  0  0  0
  -20.4048    1.5761  -14.6330 C   0  0  0  0  0  0  0  0  0  0  0  0
  -21.8782    0.8121  -14.1705 Cl  0  0  0  0  0  0  0  0  0  0  0  0
  -20.4432    2.8520  -15.1855 C   0  0  0  0  0  0  0  0  0  0  0  0
  -19.2654    3.4913  -15.5798 C   0  0  0  0  0  0  0  0  0  0  0  0
  -18.0505    2.8076  -15.4008 C   0  0  0  0  0  0  0  0  0  0  0  0
  -15.1581   -2.7770  -12.9117 C   0  0  0  0  0  0  0  0  0  0  0  0
  -15.6353   -3.6253  -13.8016 N   0  0  0  0  0  0  0  0  0  0  0  0
  -16.4456   -4.5546  -13.1794 C   0  0  0  0  0  0  0  0  0  0  0  0
  -16.5826   -4.4060  -11.8177 C   0  0  0  0  0  0  0  0  0  0  0  0
  -15.6517   -3.0712  -11.2878 S   0  0  0  0  0  0  0  0  0  0  0  0
  9 10  1  0  0  0
 10 11  1  0  0  0
 10 19  1  0  0  0
 11 12  2  0  0  0
 12  1  1  0  0  0
 12 13  1  0  0  0
  1  2  2  0  0  0
  2  3  1  0  0  0
  2  7  1  0  0  0
  3  4  2  0  0  0
  3  5  1  0  0  0
  5  6  1  0  0  0
  5  8  1  0  0  0
  6  7  2  0  0  0
  7 20  1  0  0  0
 20 21  2  0  0  0
 20 24  1  0  0  0
 21 22  1  0  0  0
 22 23  2  0  0  0
 23 24  1  0  0  0
 13 14  1  0  0  0
 13 19  2  0  0  0
 14 15  2  0  0  0
 15 16  1  0  0  0
 15 17  1  0  0  0
 17 18  2  0  0  0
 18 19  1  0  0  0
M  END
> <minimizedAffinity>
-8.06106

$$$$
