CHEMBL58483


 27 30  0  0  0  0  0  0  0  0999 V2000
  -13.2197   -8.6548  -13.8181 O   0  0  0  0  0  0  0  0  0  0  0  0
  -13.3567   -8.5522  -15.0211 C   0  0  0  0  0  0  0  0  0  0  0  0
  -13.3458   -9.6028  -15.9130 N   0  0  0  0  0  0  0  0  0  0  0  0
  -13.4591   -9.1615  -17.2234 C   0  0  0  0  0  0  0  0  0  0  0  0
  -13.4579   -9.9971  -18.3252 C   0  0  0  0  0  0  0  0  0  0  0  0
  -13.5666   -9.4060  -19.5751 C   0  0  0  0  0  0  0  0  0  0  0  0
  -13.6644   -8.0108  -19.6855 C   0  0  0  0  0  0  0  0  0  0  0  0
  -13.6557   -7.1573  -18.5522 C   0  0  0  0  0  0  0  0  0  0  0  0
  -13.5635   -7.7578  -17.2923 C   0  0  0  0  0  0  0  0  0  0  0  0
  -13.5367   -7.3143  -15.8704 C   0  0  0  0  0  0  0  0  0  0  0  0
  -13.7067   -6.0807  -15.3644 C   0  0  0  0  0  0  0  0  0  0  0  0
  -13.2336  -10.5585  -15.6175 H   0  0  0  0  0  0  0  0  0  0  0  0
  -13.8277   -5.8062  -13.9778 C   0  0  0  0  0  0  0  0  0  0  0  0
  -12.7163   -5.8098  -13.1617 N   0  0  0  0  0  0  0  0  0  0  0  0
  -13.0720   -5.4411  -11.8834 C   0  0  0  0  0  0  0  0  0  0  0  0
  -14.4349   -5.2334  -11.8649 C   0  0  0  0  0  0  0  0  0  0  0  0
  -14.9045   -5.4741  -13.1828 C   0  0  0  0  0  0  0  0  0  0  0  0
  -16.3457   -5.3321  -13.4890 C   0  0  0  0  0  0  0  0  0  0  0  0
  -17.1404   -5.5362  -12.1925 C   0  0  0  0  0  0  0  0  0  0  0  0
  -16.6382   -4.7686  -11.0670 O   0  0  0  0  0  0  0  0  0  0  0  0
  -15.2935   -4.8185  -10.7645 C   0  0  0  0  0  0  0  0  0  0  0  0
  -14.8711   -4.4783   -9.6665 O   0  0  0  0  0  0  0  0  0  0  0  0
  -11.7782   -6.0539  -13.4492 H   0  0  0  0  0  0  0  0  0  0  0  0
  -13.7221   -5.6724  -18.8193 C   0  0  0  0  0  0  0  0  0  0  0  0
  -14.7147   -5.2846  -19.9162 C   0  0  0  0  0  0  0  0  0  0  0  0
  -14.9033   -3.8768  -19.9723 O   0  0  0  0  0  0  0  0  0  0  0  0
  -15.6811   -3.6708  -19.4247 H   0  0  0  0  0  0  0  0  0  0  0  0
  1  2  2  0  0  0
  2  3  1  0  0  0
  2 10  1  0  0  0
  3  4  1  0  0  0
  3 12  1  0  0  0
  4  5  1  0  0  0
  4  9  2  0  0  0
  5  6  2  0  0  0
  6  7  1  0  0  0
  7  8  2  0  0  0
  8 24  1  0  0  0
  8  9  1  0  0  0
 24 25  1  0  0  0
 25 26  1  0  0  0
 26 27  1  0  0  0
  9 10  1  0  0  0
 10 11  2  0  0  0
 11 13  1  0  0  0
 13 14  1  0  0  0
 13 17  2  0  0  0
 14 15  1  0  0  0
 14 23  1  0  0  0
 15 16  2  0  0  0
 16 17  1  0  0  0
 16 21  1  0  0  0
 17 18  1  0  0  0
 18 19  1  0  0  0
 19 20  1  0  0  0
 20 21  1  0  0  0
 21 22  2  0  0  0
M  END
> <minimizedAffinity>
-7.26505

$$$$
