CHEMBL1761930


 27 29  0  0  0  0  0  0  0  0999 V2000
  -28.4683   -8.0062   -4.8230 C   0  0  0  0  0  0  0  0  0  0  0  0
  -27.2720   -8.1965   -4.2380 N   0  0  0  0  0  0  0  0  0  0  0  0
  -26.4960   -9.1233   -4.8054 C   0  0  0  0  0  0  0  0  0  0  0  0
  -26.8122   -9.8800   -5.8640 N   0  0  0  0  0  0  0  0  0  0  0  0
  -28.0150   -9.6820   -6.4150 C   0  0  0  0  0  0  0  0  0  0  0  0
  -28.3776  -10.4441   -7.5184 C   0  0  0  0  0  0  0  0  0  0  0  0
  -29.6051  -10.2865   -8.1848 C   0  0  0  0  0  0  0  0  0  0  0  0
  -30.5169   -9.3395   -7.6987 C   0  0  0  0  0  0  0  0  0  0  0  0
  -30.1688   -8.5815   -6.5726 C   0  0  0  0  0  0  0  0  0  0  0  0
  -28.9160   -8.7358   -5.9335 C   0  0  0  0  0  0  0  0  0  0  0  0
  -29.9483  -11.0271   -9.2844 O   0  0  0  0  0  0  0  0  0  0  0  0
  -29.1319  -10.9213  -10.4452 C   0  0  0  0  0  0  0  0  0  0  0  0
  -31.7603   -9.0182   -8.1735 O   0  0  0  0  0  0  0  0  0  0  0  0
  -32.7534   -8.5756   -7.2603 C   0  0  0  0  0  0  0  0  0  0  0  0
  -29.3638   -7.0622   -4.3225 O   0  0  0  0  0  0  0  0  0  0  0  0
  -28.9717   -2.9991   -5.2547 C   0  0  0  0  0  0  0  0  0  0  0  0
  -28.0818   -3.5731   -4.3409 C   0  0  0  0  0  0  0  0  0  0  0  0
  -28.1851   -4.9241   -3.9824 C   0  0  0  0  0  0  0  0  0  0  0  0
  -29.2048   -5.7117   -4.5063 C   0  0  0  0  0  0  0  0  0  0  0  0
  -30.1032   -5.1369   -5.4117 C   0  0  0  0  0  0  0  0  0  0  0  0
  -29.9997   -3.7887   -5.7730 C   0  0  0  0  0  0  0  0  0  0  0  0
  -28.1222   -1.2082   -6.7452 C   0  0  0  0  0  0  0  0  0  0  0  0
  -27.4233   -1.8675   -7.5057 O   0  0  0  0  0  0  0  0  0  0  0  0
  -28.8721   -1.6644   -5.6944 N   0  0  0  0  0  0  0  0  0  0  0  0
  -29.4752   -0.9707   -5.2806 H   0  0  0  0  0  0  0  0  0  0  0  0
  -28.9267    0.7251   -5.7284 C   0  0  0  0  0  0  0  0  0  0  0  0
  -28.2950    0.1355   -6.8688 O   0  0  0  0  0  0  0  0  0  0  0  0
 26 27  1  0  0  0
 27 22  1  0  0  0
 22 23  2  0  0  0
 22 24  1  0  0  0
 24 16  1  0  0  0
 24 25  1  0  0  0
 16 17  1  0  0  0
 16 21  2  0  0  0
 17 18  2  0  0  0
 18 19  1  0  0  0
 19 15  1  0  0  0
 19 20  2  0  0  0
 15  1  1  0  0  0
  1  2  1  0  0  0
  1 10  2  0  0  0
  2  3  2  0  0  0
  3  4  1  0  0  0
  4  5  2  0  0  0
  5  6  1  0  0  0
  5 10  1  0  0  0
  6  7  2  0  0  0
  7 11  1  0  0  0
  7  8  1  0  0  0
 11 12  1  0  0  0
  8 13  1  0  0  0
  8  9  2  0  0  0
 13 14  1  0  0  0
  9 10  1  0  0  0
 20 21  1  0  0  0
M  END
> <minimizedAffinity>
-6.94883

$$$$
