CHEMBL3633692


 34 37  0  0  0  0  0  0  0  0999 V2000
  -28.0163   -2.1137   -9.1150 C   0  0  0  0  0  0  0  0  0  0  0  0
  -28.1200   -1.9514  -10.4721 C   0  0  0  0  0  0  0  0  0  0  0  0
  -26.8385   -1.6553  -10.8790 N   0  0  0  0  0  0  0  0  0  0  0  0
  -26.0228   -1.5889   -9.7942 N   0  0  0  0  0  0  0  0  0  0  0  0
  -26.7409   -1.8613   -8.7134 N   0  0  0  0  0  0  0  0  0  0  0  0
  -26.3342   -1.4773  -12.1944 C   0  0  0  0  0  0  0  0  0  0  0  0
  -27.0885   -1.9431  -13.2792 C   0  0  0  0  0  0  0  0  0  0  0  0
  -26.6348   -1.7497  -14.5807 C   0  0  0  0  0  0  0  0  0  0  0  0
  -25.4320   -1.0784  -14.8071 C   0  0  0  0  0  0  0  0  0  0  0  0
  -25.0069   -0.9355  -16.1021 O   0  0  0  0  0  0  0  0  0  0  0  0
  -24.6580   -0.5645  -13.7459 C   0  0  0  0  0  0  0  0  0  0  0  0
  -25.1219   -0.8066  -12.4314 C   0  0  0  0  0  0  0  0  0  0  0  0
  -25.6002   -1.4297  -16.6915 H   0  0  0  0  0  0  0  0  0  0  0  0
  -23.4259    0.2319  -13.9593 C   0  0  0  0  0  0  0  0  0  0  0  0
  -23.3570    1.6007  -13.6678 C   0  0  0  0  0  0  0  0  0  0  0  0
  -22.1724    2.2970  -13.8830 C   0  0  0  0  0  0  0  0  0  0  0  0
  -21.0668    1.6159  -14.3588 C   0  0  0  0  0  0  0  0  0  0  0  0
  -21.1938    0.2608  -14.5983 C   0  0  0  0  0  0  0  0  0  0  0  0
  -22.3334   -0.4439  -14.4036 N   0  0  0  0  0  0  0  0  0  0  0  0
  -28.9979   -2.5113   -8.2834 N   0  0  0  0  0  0  0  0  0  0  0  0
  -29.7372   -1.8604   -8.0325 H   0  0  0  0  0  0  0  0  0  0  0  0
  -28.9032   -5.9249   -6.8145 C   0  0  0  0  0  0  0  0  0  0  0  0
  -28.5882   -5.6448   -5.4833 C   0  0  0  0  0  0  0  0  0  0  0  0
  -28.4832   -4.3188   -5.0610 C   0  0  0  0  0  0  0  0  0  0  0  0
  -28.6582   -3.2675   -5.9699 C   0  0  0  0  0  0  0  0  0  0  0  0
  -28.9449   -3.5570   -7.3250 C   0  0  0  0  0  0  0  0  0  0  0  0
  -29.0969   -4.8900   -7.7308 C   0  0  0  0  0  0  0  0  0  0  0  0
  -28.9058   -7.6038   -7.3904 S   0  0  0  0  0  0  0  0  0  0  0  0
  -28.5444   -8.4444   -6.2625 O   0  0  0  0  0  0  0  0  0  0  0  0
  -28.1143   -7.6264   -8.6072 O   0  0  0  0  0  0  0  0  0  0  0  0
  -31.5082   -7.7284   -6.6070 C   0  0  0  0  0  0  0  0  0  0  0  0
  -30.6035   -7.9420   -7.8070 C   0  0  0  0  0  0  0  0  0  0  0  0
  -28.5461   -1.9380   -5.6412 O   0  0  0  0  0  0  0  0  0  0  0  0
  -27.3220   -1.5233   -5.0404 C   0  0  0  0  0  0  0  0  0  0  0  0
 31 32  1  0  0  0
 32 28  1  0  0  0
 28 29  2  0  0  0
 28 30  2  0  0  0
 28 22  1  0  0  0
 22 23  1  0  0  0
 22 27  2  0  0  0
 23 24  2  0  0  0
 24 25  1  0  0  0
 25 33  1  0  0  0
 25 26  2  0  0  0
 33 34  1  0  0  0
 26 20  1  0  0  0
 26 27  1  0  0  0
 20  1  1  0  0  0
 20 21  1  0  0  0
  1  2  2  0  0  0
  1  5  1  0  0  0
  2  3  1  0  0  0
  3  6  1  0  0  0
  3  4  1  0  0  0
  6  7  1  0  0  0
  6 12  2  0  0  0
  7  8  2  0  0  0
  8  9  1  0  0  0
  9 10  1  0  0  0
  9 11  2  0  0  0
 10 13  1  0  0  0
 11 14  1  0  0  0
 11 12  1  0  0  0
 14 15  1  0  0  0
 14 19  2  0  0  0
 15 16  2  0  0  0
 16 17  1  0  0  0
 17 18  2  0  0  0
 18 19  1  0  0  0
  4  5  2  0  0  0
M  END
> <minimizedAffinity>
-8.96281

$$$$
