CHEMBL259951


 32 36  0  0  0  0  0  0  0  0999 V2000
  -12.6364   -2.0510  -12.9397 C   0  0  0  0  0  0  0  0  0  0  0  0
  -11.6437   -1.1177  -13.0966 C   0  0  0  0  0  0  0  0  0  0  0  0
  -12.0433   -0.2403  -14.0533 N   0  0  0  0  0  0  0  0  0  0  0  0
  -11.2882    0.7878  -14.4683 N   0  0  0  0  0  0  0  0  0  0  0  0
  -11.8699    1.5496  -15.3307 C   0  0  0  0  0  0  0  0  0  0  0  0
  -13.1390    1.4064  -15.8039 N   0  0  0  0  0  0  0  0  0  0  0  0
  -13.8785    0.3972  -15.4364 C   0  0  0  0  0  0  0  0  0  0  0  0
  -13.3100   -0.5458  -14.4952 C   0  0  0  0  0  0  0  0  0  0  0  0
  -13.7258   -1.7138  -13.8352 C   0  0  0  0  0  0  0  0  0  0  0  0
  -12.7719   -4.3638  -10.1978 C   0  0  0  0  0  0  0  0  0  0  0  0
  -12.0898   -5.0931  -11.0505 N   0  0  0  0  0  0  0  0  0  0  0  0
  -11.9449   -4.3222  -12.1759 N   0  0  0  0  0  0  0  0  0  0  0  0
  -12.5322   -3.1621  -11.9439 C   0  0  0  0  0  0  0  0  0  0  0  0
  -13.0744   -3.1192  -10.6773 O   0  0  0  0  0  0  0  0  0  0  0  0
  -12.1695   -5.1099   -7.9310 C   0  0  0  0  0  0  0  0  0  0  0  0
  -13.3041   -4.7384   -8.8719 C   0  0  0  0  0  0  0  0  0  0  0  0
  -15.0305   -2.5020  -13.8471 C   0  0  0  0  0  0  0  0  0  0  0  0
  -14.8145   -3.9250  -14.3663 C   0  0  0  0  0  0  0  0  0  0  0  0
  -15.8737   -2.5126  -12.5808 C   0  0  0  0  0  0  0  0  0  0  0  0
  -15.1421    0.2731  -15.9799 N   0  0  0  0  0  0  0  0  0  0  0  0
  -15.1040    0.0354  -16.9629 H   0  0  0  0  0  0  0  0  0  0  0  0
  -16.2029    1.1689  -15.6971 C   0  0  0  0  0  0  0  0  0  0  0  0
  -16.1283    2.5429  -15.9724 C   0  0  0  0  0  0  0  0  0  0  0  0
  -17.0917    3.4729  -15.7486 N   0  0  0  0  0  0  0  0  0  0  0  0
  -18.2094    2.9347  -15.2311 C   0  0  0  0  0  0  0  0  0  0  0  0
  -19.3574    3.6325  -14.9740 N   0  0  0  0  0  0  0  0  0  0  0  0
  -20.3387    2.7756  -14.5326 C   0  0  0  0  0  0  0  0  0  0  0  0
  -21.7341    3.2183  -14.2973 C   0  0  0  0  0  0  0  0  0  0  0  0
  -19.7651    1.5226  -14.4120 C   0  0  0  0  0  0  0  0  0  0  0  0
  -18.4275    1.6080  -14.8849 C   0  0  0  0  0  0  0  0  0  0  0  0
  -17.3759    0.6983  -15.0923 C   0  0  0  0  0  0  0  0  0  0  0  0
  -19.4554    4.6218  -15.1508 H   0  0  0  0  0  0  0  0  0  0  0  0
 15 16  1  0  0  0
 16 10  1  0  0  0
 10 11  2  0  0  0
 10 14  1  0  0  0
 11 12  1  0  0  0
 12 13  2  0  0  0
 13  1  1  0  0  0
 13 14  1  0  0  0
  1  2  2  0  0  0
  1  9  1  0  0  0
  2  3  1  0  0  0
  3  4  1  0  0  0
  3  8  1  0  0  0
  4  5  2  0  0  0
  5  6  1  0  0  0
  6  7  2  0  0  0
  7 20  1  0  0  0
  7  8  1  0  0  0
 20 22  1  0  0  0
 20 21  1  0  0  0
 22 23  1  0  0  0
 22 31  2  0  0  0
 23 24  2  0  0  0
 24 25  1  0  0  0
 25 26  1  0  0  0
 25 30  2  0  0  0
 26 27  1  0  0  0
 26 32  1  0  0  0
 27 28  1  0  0  0
 27 29  2  0  0  0
 29 30  1  0  0  0
 30 31  1  0  0  0
  8  9  2  0  0  0
  9 17  1  0  0  0
 17 18  1  0  0  0
 17 19  1  0  0  0
M  END
> <minimizedAffinity>
-7.95028

$$$$
