CHEMBL224842


 26 28  0  0  0  0  0  0  0  0999 V2000
  -15.4891    0.4705  -14.0946 C   0  0  0  0  0  0  0  0  0  0  0  0
  -14.8234    0.3438  -15.3113 C   0  0  0  0  0  0  0  0  0  0  0  0
  -15.2233    1.1494  -16.3646 C   0  0  0  0  0  0  0  0  0  0  0  0
  -16.2412    2.0366  -16.2968 N   0  0  0  0  0  0  0  0  0  0  0  0
  -16.9042    2.1430  -15.1258 C   0  0  0  0  0  0  0  0  0  0  0  0
  -16.5275    1.4003  -14.0087 C   0  0  0  0  0  0  0  0  0  0  0  0
  -17.9899    3.0216  -15.1423 N   0  0  0  0  0  0  0  0  0  0  0  0
  -17.8217    3.7182  -15.8600 H   0  0  0  0  0  0  0  0  0  0  0  0
  -19.2656    2.6843  -14.8541 C   0  0  0  0  0  0  0  0  0  0  0  0
  -20.1802    3.4746  -14.3344 N   0  0  0  0  0  0  0  0  0  0  0  0
  -21.3351    2.7805  -14.0566 C   0  0  0  0  0  0  0  0  0  0  0  0
  -21.3049    1.4511  -14.3920 C   0  0  0  0  0  0  0  0  0  0  0  0
  -19.8093    1.0670  -15.1264 S   0  0  0  0  0  0  0  0  0  0  0  0
  -22.3579    0.5226  -14.1782 C   0  0  0  0  0  0  0  0  0  0  0  0
  -23.1984   -0.2552  -13.9881 N   0  0  0  0  0  0  0  0  0  0  0  0
  -15.0723   -0.3215  -12.8765 C   0  0  0  0  0  0  0  0  0  0  0  0
  -14.8510   -4.4830  -11.7658 C   0  0  0  0  0  0  0  0  0  0  0  0
  -14.1298   -4.0298  -13.0326 C   0  0  0  0  0  0  0  0  0  0  0  0
  -14.0498   -2.5058  -13.2121 C   0  0  0  0  0  0  0  0  0  0  0  0
  -15.3081   -1.7869  -12.9584 N   0  0  0  0  0  0  0  0  0  0  0  0
  -15.9575   -2.2096  -11.7069 C   0  0  0  0  0  0  0  0  0  0  0  0
  -16.1726   -3.7205  -11.6465 C   0  0  0  0  0  0  0  0  0  0  0  0
  -12.7200   -5.6454  -10.2079 C   0  0  0  0  0  0  0  0  0  0  0  0
  -13.9039   -4.3229  -10.2313 S   0  0  0  0  0  0  0  0  0  0  0  0
  -14.8215   -4.5887   -9.1357 O   0  0  0  0  0  0  0  0  0  0  0  0
  -13.1421   -3.0909  -10.2564 O   0  0  0  0  0  0  0  0  0  0  0  0
 23 24  1  0  0  0
 24 25  2  0  0  0
 24 26  2  0  0  0
 24 17  1  0  0  0
 17 18  1  0  0  0
 17 22  1  0  0  0
 18 19  1  0  0  0
 19 20  1  0  0  0
 20 16  1  0  0  0
 20 21  1  0  0  0
 16  1  1  0  0  0
  1  2  1  0  0  0
  1  6  2  0  0  0
  2  3  2  0  0  0
  3  4  1  0  0  0
  4  5  2  0  0  0
  5  7  1  0  0  0
  5  6  1  0  0  0
  7  9  1  0  0  0
  7  8  1  0  0  0
  9 10  2  0  0  0
  9 13  1  0  0  0
 10 11  1  0  0  0
 11 12  2  0  0  0
 12 14  1  0  0  0
 12 13  1  0  0  0
 14 15  3  0  0  0
 21 22  1  0  0  0
M  END
> <minimizedAffinity>
-7.10392

$$$$
