CHEMBL2113165


 40 44  0  0  0  0  0  0  0  0999 V2000
  -13.3900   -0.3035  -14.1695 C   0  0  0  0  0  0  0  0  0  0  0  0
  -14.1034   -0.2193  -15.2972 C   0  0  0  0  0  0  0  0  0  0  0  0
  -14.2935    1.0255  -16.0587 C   0  0  0  0  0  0  0  0  0  0  0  0
  -14.8673    0.9469  -17.1410 O   0  0  0  0  0  0  0  0  0  0  0  0
  -13.7115    2.3080  -15.5018 C   0  0  0  0  0  0  0  0  0  0  0  0
  -13.0786    2.2214  -14.3196 C   0  0  0  0  0  0  0  0  0  0  0  0
  -12.8867    0.9678  -13.5702 C   0  0  0  0  0  0  0  0  0  0  0  0
  -12.2929    0.9567  -12.4950 O   0  0  0  0  0  0  0  0  0  0  0  0
  -13.8327    3.5087  -16.2319 N   0  0  0  0  0  0  0  0  0  0  0  0
  -15.0757    4.3043  -16.2829 C   0  0  0  0  0  0  0  0  0  0  0  0
  -15.6231    4.3314  -17.7080 C   0  0  0  0  0  0  0  0  0  0  0  0
  -14.5947    4.9102  -18.6963 C   0  0  0  0  0  0  0  0  0  0  0  0
  -13.2970    4.0870  -18.5736 C   0  0  0  0  0  0  0  0  0  0  0  0
  -12.7774    4.0054  -17.1313 C   0  0  0  0  0  0  0  0  0  0  0  0
  -14.2913    6.4144  -18.4840 C   0  0  0  0  0  0  0  0  0  0  0  0
  -15.0086    7.3725  -19.3980 C   0  0  0  0  0  0  0  0  0  0  0  0
  -15.6408    6.9086  -20.5602 C   0  0  0  0  0  0  0  0  0  0  0  0
  -16.3646    7.7763  -21.3788 C   0  0  0  0  0  0  0  0  0  0  0  0
  -16.4678    9.1238  -21.0476 C   0  0  0  0  0  0  0  0  0  0  0  0
  -15.8364    9.5997  -19.8941 C   0  0  0  0  0  0  0  0  0  0  0  0
  -15.1236    8.7335  -19.0703 C   0  0  0  0  0  0  0  0  0  0  0  0
  -13.0341   -1.4677  -13.4891 N   0  0  0  0  0  0  0  0  0  0  0  0
  -12.4546   -2.0436  -14.1073 H   0  0  0  0  0  0  0  0  0  0  0  0
  -14.3313   -6.4361  -13.6660 C   0  0  0  0  0  0  0  0  0  0  0  0
  -15.2004   -5.7324  -12.7977 C   0  0  0  0  0  0  0  0  0  0  0  0
  -15.0657   -4.3797  -12.4902 C   0  0  0  0  0  0  0  0  0  0  0  0
  -15.9116   -3.8141  -11.6217 N   0  0  0  0  0  0  0  0  0  0  0  0
  -15.7436   -2.5123  -11.3737 C   0  0  0  0  0  0  0  0  0  0  0  0
  -14.8410   -1.7226  -11.9539 N   0  0  0  0  0  0  0  0  0  0  0  0
  -13.9978   -2.2878  -12.8338 C   0  0  0  0  0  0  0  0  0  0  0  0
  -14.0407   -3.6697  -13.1082 C   0  0  0  0  0  0  0  0  0  0  0  0
  -13.1476   -4.3632  -13.9547 C   0  0  0  0  0  0  0  0  0  0  0  0
  -13.2776   -5.7329  -14.2575 C   0  0  0  0  0  0  0  0  0  0  0  0
  -12.2241   -6.1161  -15.0315 O   0  0  0  0  0  0  0  0  0  0  0  0
  -12.3573   -6.5567  -16.3670 C   0  0  0  0  0  0  0  0  0  0  0  0
  -14.7015   -7.7577  -13.7265 O   0  0  0  0  0  0  0  0  0  0  0  0
  -13.7312   -8.7257  -13.3924 C   0  0  0  0  0  0  0  0  0  0  0  0
  -13.5533   -8.9395  -11.8962 C   0  0  0  0  0  0  0  0  0  0  0  0
  -11.2832   -8.2981  -12.2046 C   0  0  0  0  0  0  0  0  0  0  0  0
  -12.1748   -9.2892  -11.7340 O   0  0  0  0  0  0  0  0  0  0  0  0
 39 40  1  0  0  0
 40 38  1  0  0  0
 38 37  1  0  0  0
 37 36  1  0  0  0
 36 24  1  0  0  0
 24 25  1  0  0  0
 24 33  2  0  0  0
 25 26  2  0  0  0
 26 27  1  0  0  0
 26 31  1  0  0  0
 27 28  2  0  0  0
 28 29  1  0  0  0
 29 30  2  0  0  0
 30 22  1  0  0  0
 30 31  1  0  0  0
 22  1  1  0  0  0
 22 23  1  0  0  0
  1  2  2  0  0  0
  1  7  1  0  0  0
  2  3  1  0  0  0
  3  4  2  0  0  0
  3  5  1  0  0  0
  5  9  1  0  0  0
  5  6  2  0  0  0
  9 10  1  0  0  0
  9 14  1  0  0  0
 10 11  1  0  0  0
 11 12  1  0  0  0
 12 15  1  0  0  0
 12 13  1  0  0  0
 15 16  1  0  0  0
 16 17  1  0  0  0
 16 21  2  0  0  0
 17 18  2  0  0  0
 18 19  1  0  0  0
 19 20  2  0  0  0
 20 21  1  0  0  0
 13 14  1  0  0  0
  6  7  1  0  0  0
  7  8  2  0  0  0
 31 32  2  0  0  0
 32 33  1  0  0  0
 33 34  1  0  0  0
 34 35  1  0  0  0
M  END
> <minimizedAffinity>
-6.85930

$$$$
