CHEMBL474046


 43 47  0  0  0  0  0  0  0  0999 V2000
  -27.1836   -2.6258   -9.2009 N   0  0  0  0  0  0  0  0  0  0  0  0
  -27.4899   -1.7252  -10.2136 C   0  0  0  0  0  0  0  0  0  0  0  0
  -28.5370   -1.0956  -10.3192 O   0  0  0  0  0  0  0  0  0  0  0  0
  -26.2516   -3.0181   -9.1592 H   0  0  0  0  0  0  0  0  0  0  0  0
  -30.5151   -4.0844   -4.7284 C   0  0  0  0  0  0  0  0  0  0  0  0
  -29.6658   -3.7622   -5.9302 C   0  0  0  0  0  0  0  0  0  0  0  0
  -29.1336   -2.4684   -6.0046 C   0  0  0  0  0  0  0  0  0  0  0  0
  -28.3248   -2.0802   -7.0703 C   0  0  0  0  0  0  0  0  0  0  0  0
  -28.0371   -2.9596   -8.1087 C   0  0  0  0  0  0  0  0  0  0  0  0
  -28.6051   -4.2437   -8.0588 C   0  0  0  0  0  0  0  0  0  0  0  0
  -29.4022   -4.6821   -6.9724 C   0  0  0  0  0  0  0  0  0  0  0  0
  -29.8803   -6.0120   -6.8687 N   0  0  0  0  0  0  0  0  0  0  0  0
  -30.8868   -6.0936   -6.8261 H   0  0  0  0  0  0  0  0  0  0  0  0
  -29.1812   -7.1330   -6.5600 C   0  0  0  0  0  0  0  0  0  0  0  0
  -29.0700   -8.2242   -7.2826 N   0  0  0  0  0  0  0  0  0  0  0  0
  -28.2791   -9.1547   -6.6478 C   0  0  0  0  0  0  0  0  0  0  0  0
  -27.7521   -8.7835   -5.4257 C   0  0  0  0  0  0  0  0  0  0  0  0
  -28.2971   -7.1918   -5.0708 S   0  0  0  0  0  0  0  0  0  0  0  0
  -26.8794   -9.5482   -4.5271 C   0  0  0  0  0  0  0  0  0  0  0  0
  -25.5816   -9.1021   -4.2400 C   0  0  0  0  0  0  0  0  0  0  0  0
  -24.7335   -9.8631   -3.4360 C   0  0  0  0  0  0  0  0  0  0  0  0
  -25.2091  -11.0584   -2.9285 C   0  0  0  0  0  0  0  0  0  0  0  0
  -26.4521  -11.5250   -3.1647 N   0  0  0  0  0  0  0  0  0  0  0  0
  -27.2523  -10.7635   -3.9543 C   0  0  0  0  0  0  0  0  0  0  0  0
  -26.4758   -1.4603  -11.2655 C   0  0  0  0  0  0  0  0  0  0  0  0
  -26.5630   -1.8960  -12.5856 C   0  0  0  0  0  0  0  0  0  0  0  0
  -25.5748   -1.4970  -13.4930 C   0  0  0  0  0  0  0  0  0  0  0  0
  -24.5359   -0.6699  -13.0576 C   0  0  0  0  0  0  0  0  0  0  0  0
  -24.4236   -0.2250  -11.7803 N   0  0  0  0  0  0  0  0  0  0  0  0
  -25.3959   -0.6365  -10.9237 C   0  0  0  0  0  0  0  0  0  0  0  0
  -23.5008   -0.1973  -14.0382 C   0  0  0  0  0  0  0  0  0  0  0  0
  -23.6283   -0.5084  -15.2166 O   0  0  0  0  0  0  0  0  0  0  0  0
  -22.5134    0.6091  -13.4931 N   0  0  0  0  0  0  0  0  0  0  0  0
  -22.5922    0.7962  -12.4979 H   0  0  0  0  0  0  0  0  0  0  0  0
  -21.4293    1.2128  -14.1790 C   0  0  0  0  0  0  0  0  0  0  0  0
  -20.3498    0.4657  -14.6691 C   0  0  0  0  0  0  0  0  0  0  0  0
  -19.2672    1.0894  -15.2937 C   0  0  0  0  0  0  0  0  0  0  0  0
  -19.2437    2.4712  -15.4298 C   0  0  0  0  0  0  0  0  0  0  0  0
  -20.3107    3.2300  -14.9489 C   0  0  0  0  0  0  0  0  0  0  0  0
  -21.4312    2.6152  -14.3653 C   0  0  0  0  0  0  0  0  0  0  0  0
  -22.4435    3.4397  -13.8240 N   0  0  0  0  0  0  0  0  0  0  0  0
  -22.4685    4.3577  -14.2603 H   0  0  0  0  0  0  0  0  0  0  0  0
  -23.3591    3.0054  -13.8497 H   0  0  0  0  0  0  0  0  0  0  0  0
  5  6  1  0  0  0
  6  7  1  0  0  0
  6 11  2  0  0  0
  7  8  2  0  0  0
  8  9  1  0  0  0
  9  1  1  0  0  0
  9 10  2  0  0  0
  1  2  1  0  0  0
  1  4  1  0  0  0
  2  3  2  0  0  0
  2 25  1  0  0  0
 25 26  1  0  0  0
 25 30  2  0  0  0
 26 27  2  0  0  0
 27 28  1  0  0  0
 28 31  1  0  0  0
 28 29  2  0  0  0
 31 32  2  0  0  0
 31 33  1  0  0  0
 33 35  1  0  0  0
 33 34  1  0  0  0
 35 36  1  0  0  0
 35 40  2  0  0  0
 36 37  2  0  0  0
 37 38  1  0  0  0
 38 39  2  0  0  0
 39 40  1  0  0  0
 40 41  1  0  0  0
 41 42  1  0  0  0
 41 43  1  0  0  0
 29 30  1  0  0  0
 10 11  1  0  0  0
 11 12  1  0  0  0
 12 14  1  0  0  0
 12 13  1  0  0  0
 14 15  2  0  0  0
 14 18  1  0  0  0
 15 16  1  0  0  0
 16 17  2  0  0  0
 17 19  1  0  0  0
 17 18  1  0  0  0
 19 20  1  0  0  0
 19 24  2  0  0  0
 20 21  2  0  0  0
 21 22  1  0  0  0
 22 23  2  0  0  0
 23 24  1  0  0  0
M  END
> <minimizedAffinity>
-11.02319

$$$$
