CHEMBL2023222


 36 40  0  0  0  0  0  0  0  0999 V2000
  -14.2918    1.6391  -15.9104 C   0  0  0  0  0  0  0  0  0  0  0  0
  -15.1978    2.6932  -15.7868 C   0  0  0  0  0  0  0  0  0  0  0  0
  -14.8462    3.9816  -16.1910 C   0  0  0  0  0  0  0  0  0  0  0  0
  -13.5631    4.2579  -16.6871 C   0  0  0  0  0  0  0  0  0  0  0  0
  -12.6221    3.2211  -16.6740 C   0  0  0  0  0  0  0  0  0  0  0  0
  -12.9849    1.9140  -16.3062 C   0  0  0  0  0  0  0  0  0  0  0  0
  -13.2522    5.6001  -17.2131 C   0  0  0  0  0  0  0  0  0  0  0  0
  -12.3656    6.3904  -16.5087 C   0  0  0  0  0  0  0  0  0  0  0  0
  -12.1874    7.9373  -17.1522 S   0  0  0  0  0  0  0  0  0  0  0  0
  -13.2189    7.6062  -18.4998 C   0  0  0  0  0  0  0  0  0  0  0  0
  -13.5400    8.4750  -19.5726 C   0  0  0  0  0  0  0  0  0  0  0  0
  -14.4314    7.9587  -20.4988 C   0  0  0  0  0  0  0  0  0  0  0  0
  -15.0067    6.7483  -20.4227 N   0  0  0  0  0  0  0  0  0  0  0  0
  -14.7162    5.9254  -19.3960 C   0  0  0  0  0  0  0  0  0  0  0  0
  -15.4343    4.7374  -19.4216 N   0  0  0  0  0  0  0  0  0  0  0  0
  -13.7755    6.3088  -18.3955 C   0  0  0  0  0  0  0  0  0  0  0  0
  -16.1688    4.8208  -20.1177 H   0  0  0  0  0  0  0  0  0  0  0  0
  -15.7520    4.4445  -18.5056 H   0  0  0  0  0  0  0  0  0  0  0  0
  -12.9867    9.8144  -19.7123 C   0  0  0  0  0  0  0  0  0  0  0  0
  -13.5676   11.1029  -19.5370 C   0  0  0  0  0  0  0  0  0  0  0  0
  -12.5844   12.0259  -19.8036 C   0  0  0  0  0  0  0  0  0  0  0  0
  -11.4220   11.4002  -20.1070 O   0  0  0  0  0  0  0  0  0  0  0  0
  -11.6673   10.0662  -20.0463 C   0  0  0  0  0  0  0  0  0  0  0  0
  -15.2221   -1.5243  -14.3782 N   0  0  0  0  0  0  0  0  0  0  0  0
  -14.8211   -0.1966  -14.3990 C   0  0  0  0  0  0  0  0  0  0  0  0
  -14.6089    0.4904  -13.4129 O   0  0  0  0  0  0  0  0  0  0  0  0
  -14.6988    0.2961  -15.7036 N   0  0  0  0  0  0  0  0  0  0  0  0
  -15.1390   -2.0431  -15.2395 H   0  0  0  0  0  0  0  0  0  0  0  0
  -15.3586   -0.0851  -16.3652 H   0  0  0  0  0  0  0  0  0  0  0  0
  -16.9510   -5.7206  -12.3759 C   0  0  0  0  0  0  0  0  0  0  0  0
  -16.4246   -4.3229  -12.2244 C   0  0  0  0  0  0  0  0  0  0  0  0
  -16.2958   -3.7662  -10.9480 C   0  0  0  0  0  0  0  0  0  0  0  0
  -15.8179   -2.4721  -10.7980 C   0  0  0  0  0  0  0  0  0  0  0  0
  -15.4641   -1.7239  -11.9207 C   0  0  0  0  0  0  0  0  0  0  0  0
  -15.5676   -2.2519  -13.2110 C   0  0  0  0  0  0  0  0  0  0  0  0
  -16.0584   -3.5594  -13.3526 C   0  0  0  0  0  0  0  0  0  0  0  0
 30 31  1  0  0  0
 31 32  1  0  0  0
 31 36  2  0  0  0
 32 33  2  0  0  0
 33 34  1  0  0  0
 34 35  2  0  0  0
 35 24  1  0  0  0
 35 36  1  0  0  0
 24 25  1  0  0  0
 24 28  1  0  0  0
 25 26  2  0  0  0
 25 27  1  0  0  0
 27  1  1  0  0  0
 27 29  1  0  0  0
  1  2  1  0  0  0
  1  6  2  0  0  0
  2  3  2  0  0  0
  3  4  1  0  0  0
  4  7  1  0  0  0
  4  5  2  0  0  0
  7  8  2  0  0  0
  7 16  1  0  0  0
  8  9  1  0  0  0
  9 10  1  0  0  0
 10 11  1  0  0  0
 10 16  2  0  0  0
 11 19  1  0  0  0
 11 12  2  0  0  0
 19 20  1  0  0  0
 19 23  2  0  0  0
 20 21  2  0  0  0
 21 22  1  0  0  0
 22 23  1  0  0  0
 12 13  1  0  0  0
 13 14  2  0  0  0
 14 15  1  0  0  0
 14 16  1  0  0  0
 15 17  1  0  0  0
 15 18  1  0  0  0
  5  6  1  0  0  0
M  END
> <minimizedAffinity>
-7.61006

$$$$
