CHEMBL3397934


 33 35  0  0  0  0  0  0  0  0999 V2000
  -27.0943   -2.1007  -10.6140 N   0  0  0  0  0  0  0  0  0  0  0  0
  -25.7994   -1.7182  -10.9385 C   0  0  0  0  0  0  0  0  0  0  0  0
  -24.8617   -1.5725  -10.1601 O   0  0  0  0  0  0  0  0  0  0  0  0
  -27.7330   -2.3474  -11.3577 H   0  0  0  0  0  0  0  0  0  0  0  0
  -28.6422   -2.3043   -6.6750 C   0  0  0  0  0  0  0  0  0  0  0  0
  -28.5565   -3.4432   -7.4757 C   0  0  0  0  0  0  0  0  0  0  0  0
  -28.0387   -3.3726   -8.7612 C   0  0  0  0  0  0  0  0  0  0  0  0
  -27.5847   -2.1710   -9.2914 C   0  0  0  0  0  0  0  0  0  0  0  0
  -27.5902   -1.0350   -8.4793 C   0  0  0  0  0  0  0  0  0  0  0  0
  -28.1311   -1.1056   -7.1861 C   0  0  0  0  0  0  0  0  0  0  0  0
  -28.1680    0.0137   -6.4469 F   0  0  0  0  0  0  0  0  0  0  0  0
  -29.2083   -2.3013   -5.4170 O   0  0  0  0  0  0  0  0  0  0  0  0
  -28.2983   -2.7313   -4.3932 C   0  0  0  0  0  0  0  0  0  0  0  0
  -28.8671   -3.8384   -3.5054 C   0  0  0  0  0  0  0  0  0  0  0  0
  -29.4102   -4.9777   -4.2867 N   0  0  0  0  0  0  0  0  0  0  0  0
  -28.5781   -6.7427   -5.8857 C   0  0  0  0  0  0  0  0  0  0  0  0
  -28.3231   -5.9038   -4.6361 C   0  0  0  0  0  0  0  0  0  0  0  0
  -30.5878   -5.6289   -3.6863 C   0  0  0  0  0  0  0  0  0  0  0  0
  -31.8489   -4.7786   -3.5891 C   0  0  0  0  0  0  0  0  0  0  0  0
  -25.5365   -1.4250  -12.3594 C   0  0  0  0  0  0  0  0  0  0  0  0
  -26.3877   -1.8328  -13.3821 C   0  0  0  0  0  0  0  0  0  0  0  0
  -26.0566   -1.5193  -14.6968 C   0  0  0  0  0  0  0  0  0  0  0  0
  -24.8889   -0.7964  -14.9776 C   0  0  0  0  0  0  0  0  0  0  0  0
  -24.0185   -0.3659  -13.9590 C   0  0  0  0  0  0  0  0  0  0  0  0
  -24.3601   -0.7144  -12.6470 C   0  0  0  0  0  0  0  0  0  0  0  0
  -22.8202    0.4539  -14.2444 C   0  0  0  0  0  0  0  0  0  0  0  0
  -21.6227   -0.1170  -14.7251 C   0  0  0  0  0  0  0  0  0  0  0  0
  -20.4793    0.6608  -14.9463 C   0  0  0  0  0  0  0  0  0  0  0  0
  -20.5121    2.0327  -14.7139 C   0  0  0  0  0  0  0  0  0  0  0  0
  -21.6880    2.6109  -14.2555 C   0  0  0  0  0  0  0  0  0  0  0  0
  -21.7804    3.9525  -14.0284 O   0  0  0  0  0  0  0  0  0  0  0  0
  -22.8194    1.8379  -14.0085 C   0  0  0  0  0  0  0  0  0  0  0  0
  -20.9706    4.3757  -14.3564 H   0  0  0  0  0  0  0  0  0  0  0  0
 16 17  1  0  0  0
 17 15  1  0  0  0
 15 18  1  0  0  0
 15 14  1  0  0  0
 18 19  1  0  0  0
 14 13  1  0  0  0
 13 12  1  0  0  0
 12  5  1  0  0  0
  5  6  1  0  0  0
  5 10  2  0  0  0
  6  7  2  0  0  0
  7  8  1  0  0  0
  8  1  1  0  0  0
  8  9  2  0  0  0
  1  2  1  0  0  0
  1  4  1  0  0  0
  2  3  2  0  0  0
  2 20  1  0  0  0
 20 21  1  0  0  0
 20 25  2  0  0  0
 21 22  2  0  0  0
 22 23  1  0  0  0
 23 24  2  0  0  0
 24 26  1  0  0  0
 24 25  1  0  0  0
 26 27  1  0  0  0
 26 32  2  0  0  0
 27 28  2  0  0  0
 28 29  1  0  0  0
 29 30  2  0  0  0
 30 31  1  0  0  0
 30 32  1  0  0  0
 31 33  1  0  0  0
  9 10  1  0  0  0
 10 11  1  0  0  0
M  END
> <minimizedAffinity>
-9.78284

$$$$
