CHEMBL1276981


 33 36  0  0  0  0  0  0  0  0999 V2000
  -12.3176    4.0655  -16.1670 N   0  0  0  0  0  0  0  0  0  0  0  0
  -12.5947    4.4172  -14.7760 C   0  0  0  0  0  0  0  0  0  0  0  0
  -11.4828    3.9272  -13.8505 C   0  0  0  0  0  0  0  0  0  0  0  0
  -11.3905    2.4110  -13.6209 C   0  0  0  0  0  0  0  0  0  0  0  0
  -12.3407    1.5839  -14.4172 C   0  0  0  0  0  0  0  0  0  0  0  0
  -12.8293    0.3903  -13.9436 N   0  0  0  0  0  0  0  0  0  0  0  0
  -13.6926   -0.1811  -14.8462 C   0  0  0  0  0  0  0  0  0  0  0  0
  -13.8127    0.7157  -15.8998 C   0  0  0  0  0  0  0  0  0  0  0  0
  -14.7203    0.6675  -17.0856 C   0  0  0  0  0  0  0  0  0  0  0  0
  -12.8451    1.7443  -15.6954 C   0  0  0  0  0  0  0  0  0  0  0  0
  -12.4938    2.7801  -16.6632 C   0  0  0  0  0  0  0  0  0  0  0  0
  -12.4201    2.5165  -17.8587 O   0  0  0  0  0  0  0  0  0  0  0  0
  -12.5257   -0.0450  -13.0766 H   0  0  0  0  0  0  0  0  0  0  0  0
  -14.2914   -1.4516  -14.6178 C   0  0  0  0  0  0  0  0  0  0  0  0
  -15.0307   -1.8285  -13.5588 C   0  0  0  0  0  0  0  0  0  0  0  0
  -15.5030   -1.0330  -12.3649 C   0  0  0  0  0  0  0  0  0  0  0  0
  -15.5676    0.1747  -12.2373 O   0  0  0  0  0  0  0  0  0  0  0  0
  -15.9516   -1.9744  -11.4506 N   0  0  0  0  0  0  0  0  0  0  0  0
  -15.9444   -3.2497  -11.9986 C   0  0  0  0  0  0  0  0  0  0  0  0
  -16.4229   -4.4002  -11.4029 C   0  0  0  0  0  0  0  0  0  0  0  0
  -16.4113   -5.5666  -12.1701 C   0  0  0  0  0  0  0  0  0  0  0  0
  -15.9178   -5.5411  -13.4856 C   0  0  0  0  0  0  0  0  0  0  0  0
  -15.9457   -6.6699  -14.2067 F   0  0  0  0  0  0  0  0  0  0  0  0
  -15.4116   -4.3772  -14.0631 C   0  0  0  0  0  0  0  0  0  0  0  0
  -15.4330   -3.2238  -13.3004 C   0  0  0  0  0  0  0  0  0  0  0  0
  -16.3409   -1.7159  -10.5560 H   0  0  0  0  0  0  0  0  0  0  0  0
  -12.1735    5.1347  -17.1511 C   0  0  0  0  0  0  0  0  0  0  0  0
  -13.5198    5.8440  -17.4166 C   0  0  0  0  0  0  0  0  0  0  0  0
  -14.1863    5.5015  -18.6910 N   0  0  0  0  0  0  0  0  0  0  0  0
  -15.7723    4.4386  -17.0310 C   0  0  0  0  0  0  0  0  0  0  0  0
  -15.1902    4.4501  -18.4407 C   0  0  0  0  0  0  0  0  0  0  0  0
  -14.7004    6.6686  -19.4167 C   0  0  0  0  0  0  0  0  0  0  0  0
  -14.3002    8.0240  -18.8450 C   0  0  0  0  0  0  0  0  0  0  0  0
 30 31  1  0  0  0
 31 29  1  0  0  0
 29 32  1  0  0  0
 29 28  1  0  0  0
 32 33  1  0  0  0
 28 27  1  0  0  0
 27  1  1  0  0  0
  1  2  1  0  0  0
  1 11  1  0  0  0
  2  3  1  0  0  0
  3  4  1  0  0  0
  4  5  1  0  0  0
  5  6  1  0  0  0
  5 10  2  0  0  0
  6  7  1  0  0  0
  6 13  1  0  0  0
  7 14  1  0  0  0
  7  8  2  0  0  0
 14 15  2  0  0  0
 15 16  1  0  0  0
 15 25  1  0  0  0
 16 17  2  0  0  0
 16 18  1  0  0  0
 18 19  1  0  0  0
 18 26  1  0  0  0
 19 20  1  0  0  0
 19 25  2  0  0  0
 20 21  2  0  0  0
 21 22  1  0  0  0
 22 23  1  0  0  0
 22 24  2  0  0  0
 24 25  1  0  0  0
  8  9  1  0  0  0
  8 10  1  0  0  0
 10 11  1  0  0  0
 11 12  2  0  0  0
M  END
> <minimizedAffinity>
-6.84861

$$$$
