CHEMBL508928


 37 41  0  0  0  0  0  0  0  0999 V2000
  -26.1586   11.2360  -15.4067 C   0  0  0  0  0  0  0  0  0  0  0  0
  -25.7607   10.1284  -16.1659 C   0  0  0  0  0  0  0  0  0  0  0  0
  -24.6934   10.2240  -17.0634 C   0  0  0  0  0  0  0  0  0  0  0  0
  -24.0030   11.4306  -17.2043 C   0  0  0  0  0  0  0  0  0  0  0  0
  -24.4378   12.5537  -16.4861 C   0  0  0  0  0  0  0  0  0  0  0  0
  -25.5277   12.4641  -15.6085 C   0  0  0  0  0  0  0  0  0  0  0  0
  -22.8156   11.5078  -18.0643 C   0  0  0  0  0  0  0  0  0  0  0  0
  -21.4745   11.1037  -17.5302 C   0  0  0  0  0  0  0  0  0  0  0  0
  -20.3393   11.1321  -18.1624 N   0  0  0  0  0  0  0  0  0  0  0  0
  -20.3876   11.5796  -19.4548 C   0  0  0  0  0  0  0  0  0  0  0  0
  -19.4092   11.7688  -20.4123 C   0  0  0  0  0  0  0  0  0  0  0  0
  -20.0918   12.2701  -21.5366 C   0  0  0  0  0  0  0  0  0  0  0  0
  -21.4011   12.4137  -21.3327 N   0  0  0  0  0  0  0  0  0  0  0  0
  -21.5957   11.9606  -20.0570 N   0  0  0  0  0  0  0  0  0  0  0  0
  -22.8312   11.9115  -19.3543 C   0  0  0  0  0  0  0  0  0  0  0  0
  -23.9703   12.3073  -20.0551 N   0  0  0  0  0  0  0  0  0  0  0  0
  -23.7296   12.8733  -20.8731 H   0  0  0  0  0  0  0  0  0  0  0  0
  -24.7056   12.7014  -19.4764 H   0  0  0  0  0  0  0  0  0  0  0  0
  -17.9777   11.5387  -20.3330 C   0  0  0  0  0  0  0  0  0  0  0  0
  -16.9718   12.5260  -20.2647 C   0  0  0  0  0  0  0  0  0  0  0  0
  -15.7426   11.9974  -20.2136 N   0  0  0  0  0  0  0  0  0  0  0  0
  -15.9664   10.6746  -20.2504 N   0  0  0  0  0  0  0  0  0  0  0  0
  -14.8548    9.7533  -20.2397 C   0  0  0  0  0  0  0  0  0  0  0  0
  -17.2904   10.3448  -20.3123 C   0  0  0  0  0  0  0  0  0  0  0  0
  -29.3204   11.0918  -13.6241 N   0  0  0  0  0  0  0  0  0  0  0  0
  -28.4803   11.2819  -14.7107 C   0  0  0  0  0  0  0  0  0  0  0  0
  -28.8504   11.5298  -15.8536 O   0  0  0  0  0  0  0  0  0  0  0  0
  -27.1356   11.1134  -14.3826 N   0  0  0  0  0  0  0  0  0  0  0  0
  -28.8956   11.1039  -12.7092 H   0  0  0  0  0  0  0  0  0  0  0  0
  -26.9699   10.3961  -13.6915 H   0  0  0  0  0  0  0  0  0  0  0  0
  -33.5758    8.9781  -12.1675 C   0  0  0  0  0  0  0  0  0  0  0  0
  -32.8373   10.0172  -12.9603 C   0  0  0  0  0  0  0  0  0  0  0  0
  -33.5573   10.9332  -13.7338 C   0  0  0  0  0  0  0  0  0  0  0  0
  -32.8868   11.8963  -14.4746 C   0  0  0  0  0  0  0  0  0  0  0  0
  -31.4931   11.9533  -14.4484 C   0  0  0  0  0  0  0  0  0  0  0  0
  -30.7423   11.0617  -13.6758 C   0  0  0  0  0  0  0  0  0  0  0  0
  -31.4287   10.0883  -12.9352 C   0  0  0  0  0  0  0  0  0  0  0  0
 31 32  1  0  0  0
 32 33  1  0  0  0
 32 37  2  0  0  0
 33 34  2  0  0  0
 34 35  1  0  0  0
 35 36  2  0  0  0
 36 25  1  0  0  0
 36 37  1  0  0  0
 25 26  1  0  0  0
 25 29  1  0  0  0
 26 27  2  0  0  0
 26 28  1  0  0  0
 28  1  1  0  0  0
 28 30  1  0  0  0
  1  2  1  0  0  0
  1  6  2  0  0  0
  2  3  2  0  0  0
  3  4  1  0  0  0
  4  7  1  0  0  0
  4  5  2  0  0  0
  7  8  1  0  0  0
  7 15  2  0  0  0
  8  9  2  0  0  0
  9 10  1  0  0  0
 10 11  2  0  0  0
 10 14  1  0  0  0
 11 19  1  0  0  0
 11 12  1  0  0  0
 19 20  1  0  0  0
 19 24  2  0  0  0
 20 21  2  0  0  0
 21 22  1  0  0  0
 22 23  1  0  0  0
 22 24  1  0  0  0
 12 13  2  0  0  0
 13 14  1  0  0  0
 14 15  1  0  0  0
 15 16  1  0  0  0
 16 17  1  0  0  0
 16 18  1  0  0  0
  5  6  1  0  0  0
M  END
> <minimizedAffinity>
-7.90801

$$$$
