CHEMBL360349


 36 39  0  0  0  0  0  0  0  0999 V2000
  -16.8924    1.9066  -15.8285 C   0  0  0  0  0  0  0  0  0  0  0  0
  -17.5508    0.7027  -15.5864 C   0  0  0  0  0  0  0  0  0  0  0  0
  -18.8245    0.7023  -15.0268 C   0  0  0  0  0  0  0  0  0  0  0  0
  -19.5201    1.8906  -14.7794 C   0  0  0  0  0  0  0  0  0  0  0  0
  -18.9145    3.0946  -15.1620 C   0  0  0  0  0  0  0  0  0  0  0  0
  -17.6079    3.1015  -15.6924 C   0  0  0  0  0  0  0  0  0  0  0  0
  -16.9051    4.6133  -16.1383 Cl  0  0  0  0  0  0  0  0  0  0  0  0
  -20.7934    1.9132  -14.1494 N   0  0  0  0  0  0  0  0  0  0  0  0
  -21.6630    0.8367  -14.0818 C   0  0  0  0  0  0  0  0  0  0  0  0
  -21.4531   -0.2638  -14.5714 O   0  0  0  0  0  0  0  0  0  0  0  0
  -22.8473    1.1272  -13.4184 N   0  0  0  0  0  0  0  0  0  0  0  0
  -21.0650    2.7613  -13.6732 H   0  0  0  0  0  0  0  0  0  0  0  0
  -23.1973    2.0648  -13.5678 H   0  0  0  0  0  0  0  0  0  0  0  0
  -23.8563    0.1212  -13.3623 C   0  0  0  0  0  0  0  0  0  0  0  0
  -24.2277   -0.6209  -14.4921 C   0  0  0  0  0  0  0  0  0  0  0  0
  -25.3303   -1.4748  -14.4314 C   0  0  0  0  0  0  0  0  0  0  0  0
  -26.0520   -1.5797  -13.2460 C   0  0  0  0  0  0  0  0  0  0  0  0
  -27.1358   -2.3629  -13.2152 F   0  0  0  0  0  0  0  0  0  0  0  0
  -25.6709   -0.8884  -12.1081 C   0  0  0  0  0  0  0  0  0  0  0  0
  -24.5558   -0.0618  -12.1672 C   0  0  0  0  0  0  0  0  0  0  0  0
  -24.2111    0.6505  -11.0845 F   0  0  0  0  0  0  0  0  0  0  0  0
  -15.5382    1.9155  -16.1304 O   0  0  0  0  0  0  0  0  0  0  0  0
  -11.7091    5.0084  -14.7257 C   0  0  0  0  0  0  0  0  0  0  0  0
  -11.8135    3.9398  -13.8227 C   0  0  0  0  0  0  0  0  0  0  0  0
  -12.7818    2.9589  -13.9285 C   0  0  0  0  0  0  0  0  0  0  0  0
  -12.7352    1.9578  -13.0376 N   0  0  0  0  0  0  0  0  0  0  0  0
  -13.6679    0.9946  -13.1143 C   0  0  0  0  0  0  0  0  0  0  0  0
  -14.6648    0.9792  -14.0621 C   0  0  0  0  0  0  0  0  0  0  0  0
  -14.6638    1.9766  -15.0441 C   0  0  0  0  0  0  0  0  0  0  0  0
  -13.7336    3.0392  -14.9617 C   0  0  0  0  0  0  0  0  0  0  0  0
  -13.6767    4.1501  -15.8357 C   0  0  0  0  0  0  0  0  0  0  0  0
  -12.6723    5.1329  -15.7337 C   0  0  0  0  0  0  0  0  0  0  0  0
  -10.8779    6.9028  -13.5692 C   0  0  0  0  0  0  0  0  0  0  0  0
  -10.7021    5.9321  -14.6055 O   0  0  0  0  0  0  0  0  0  0  0  0
  -12.7942    6.0879  -16.7040 O   0  0  0  0  0  0  0  0  0  0  0  0
  -13.0453    5.7318  -18.0541 C   0  0  0  0  0  0  0  0  0  0  0  0
 33 34  1  0  0  0
 34 23  1  0  0  0
 23 24  1  0  0  0
 23 32  2  0  0  0
 24 25  2  0  0  0
 25 26  1  0  0  0
 25 30  1  0  0  0
 26 27  2  0  0  0
 27 28  1  0  0  0
 28 29  2  0  0  0
 29 22  1  0  0  0
 29 30  1  0  0  0
 22  1  1  0  0  0
  1  2  1  0  0  0
  1  6  2  0  0  0
  2  3  2  0  0  0
  3  4  1  0  0  0
  4  8  1  0  0  0
  4  5  2  0  0  0
  8  9  1  0  0  0
  8 12  1  0  0  0
  9 10  2  0  0  0
  9 11  1  0  0  0
 11 14  1  0  0  0
 11 13  1  0  0  0
 14 15  1  0  0  0
 14 20  2  0  0  0
 15 16  2  0  0  0
 16 17  1  0  0  0
 17 18  1  0  0  0
 17 19  2  0  0  0
 19 20  1  0  0  0
 20 21  1  0  0  0
  5  6  1  0  0  0
  6  7  1  0  0  0
 30 31  2  0  0  0
 31 32  1  0  0  0
 32 35  1  0  0  0
 35 36  1  0  0  0
M  END
> <minimizedAffinity>
-9.23230

$$$$
