CHEMBL3985867


 36 40  0  0  0  0  0  0  0  0999 V2000
  -30.0201   -4.7132   -6.8189 N   0  0  0  0  0  0  0  0  0  0  0  0
  -30.9675   -4.4745   -6.5353 H   0  0  0  0  0  0  0  0  0  0  0  0
  -29.5051   -5.8182   -6.0961 C   0  0  0  0  0  0  0  0  0  0  0  0
  -29.7011   -5.9365   -4.7096 C   0  0  0  0  0  0  0  0  0  0  0  0
  -29.0950   -6.9735   -3.9621 C   0  0  0  0  0  0  0  0  0  0  0  0
  -28.4235   -7.9927   -4.6637 C   0  0  0  0  0  0  0  0  0  0  0  0
  -27.6017   -9.1559   -4.4395 C   0  0  0  0  0  0  0  0  0  0  0  0
  -28.0392  -10.0746   -5.3296 N   0  0  0  0  0  0  0  0  0  0  0  0
  -28.2980   -9.2857   -6.4006 N   0  0  0  0  0  0  0  0  0  0  0  0
  -28.5264   -7.9840   -6.0499 C   0  0  0  0  0  0  0  0  0  0  0  0
  -28.8995   -6.8706   -6.7947 C   0  0  0  0  0  0  0  0  0  0  0  0
  -28.4067   -9.7204   -7.3053 H   0  0  0  0  0  0  0  0  0  0  0  0
  -26.1444   -9.1420   -4.3241 C   0  0  0  0  0  0  0  0  0  0  0  0
  -25.2855  -10.0095   -4.8827 C   0  0  0  0  0  0  0  0  0  0  0  0
  -24.0942  -10.4939   -4.1453 C   0  0  0  0  0  0  0  0  0  0  0  0
  -24.2130  -10.9334   -2.8104 C   0  0  0  0  0  0  0  0  0  0  0  0
  -23.1789  -11.6347   -2.1821 C   0  0  0  0  0  0  0  0  0  0  0  0
  -22.0066  -11.9059   -2.8789 C   0  0  0  0  0  0  0  0  0  0  0  0
  -21.8619  -11.4524   -4.1903 C   0  0  0  0  0  0  0  0  0  0  0  0
  -22.8990  -10.7514   -4.8207 C   0  0  0  0  0  0  0  0  0  0  0  0
  -27.6967   -2.2475   -8.4365 C   0  0  0  0  0  0  0  0  0  0  0  0
  -27.7878   -1.2030   -7.5134 C   0  0  0  0  0  0  0  0  0  0  0  0
  -28.5646   -1.3347   -6.3637 C   0  0  0  0  0  0  0  0  0  0  0  0
  -29.2875   -2.5044   -6.1436 C   0  0  0  0  0  0  0  0  0  0  0  0
  -29.2975   -3.5224   -7.1000 C   0  0  0  0  0  0  0  0  0  0  0  0
  -28.4813   -3.3935   -8.2389 C   0  0  0  0  0  0  0  0  0  0  0  0
  -28.1289   -1.0251  -11.0643 O   0  0  0  0  0  0  0  0  0  0  0  0
  -27.0888   -1.6140  -10.7595 C   0  0  0  0  0  0  0  0  0  0  0  0
  -26.8153   -2.2153   -9.5439 N   0  0  0  0  0  0  0  0  0  0  0  0
  -25.8557   -2.4971   -9.3662 H   0  0  0  0  0  0  0  0  0  0  0  0
  -26.0032   -1.6044  -11.7650 C   0  0  0  0  0  0  0  0  0  0  0  0
  -24.6817   -1.5086  -11.3075 C   0  0  0  0  0  0  0  0  0  0  0  0
  -23.6248   -1.4448  -12.2135 C   0  0  0  0  0  0  0  0  0  0  0  0
  -23.8844   -1.4660  -13.5829 C   0  0  0  0  0  0  0  0  0  0  0  0
  -25.1982   -1.5513  -14.0485 C   0  0  0  0  0  0  0  0  0  0  0  0
  -26.2687   -1.6200  -13.1437 C   0  0  0  0  0  0  0  0  0  0  0  0
 27 28  2  0  0  0
 28 29  1  0  0  0
 28 31  1  0  0  0
 29 21  1  0  0  0
 29 30  1  0  0  0
 21 22  1  0  0  0
 21 26  2  0  0  0
 22 23  2  0  0  0
 23 24  1  0  0  0
 24 25  2  0  0  0
 25  1  1  0  0  0
 25 26  1  0  0  0
  1  3  1  0  0  0
  1  2  1  0  0  0
  3  4  1  0  0  0
  3 11  2  0  0  0
  4  5  2  0  0  0
  5  6  1  0  0  0
  6  7  1  0  0  0
  6 10  2  0  0  0
  7 13  1  0  0  0
  7  8  2  0  0  0
 13 14  2  0  0  0
 14 15  1  0  0  0
 15 16  1  0  0  0
 15 20  2  0  0  0
 16 17  2  0  0  0
 17 18  1  0  0  0
 18 19  2  0  0  0
 19 20  1  0  0  0
  8  9  1  0  0  0
  9 10  1  0  0  0
  9 12  1  0  0  0
 10 11  1  0  0  0
 31 32  1  0  0  0
 31 36  2  0  0  0
 32 33  2  0  0  0
 33 34  1  0  0  0
 34 35  2  0  0  0
 35 36  1  0  0  0
M  END
> <minimizedAffinity>
-10.72646

$$$$
