CHEMBL3656033


 42 45  0  0  0  0  0  0  0  0999 V2000
  -24.8750   -1.5771  -12.8011 C   0  0  0  0  0  0  0  0  0  0  0  0
  -25.8322   -1.6165  -13.8134 C   0  0  0  0  0  0  0  0  0  0  0  0
  -27.1587   -1.7397  -13.4430 C   0  0  0  0  0  0  0  0  0  0  0  0
  -27.5753   -1.8622  -12.1648 N   0  0  0  0  0  0  0  0  0  0  0  0
  -26.6185   -1.8913  -11.2046 C   0  0  0  0  0  0  0  0  0  0  0  0
  -25.2660   -1.7618  -11.4790 C   0  0  0  0  0  0  0  0  0  0  0  0
  -27.1344   -2.0354   -9.8471 C   0  0  0  0  0  0  0  0  0  0  0  0
  -27.4496   -1.1090   -8.8625 C   0  0  0  0  0  0  0  0  0  0  0  0
  -27.9458   -1.8058   -7.7166 C   0  0  0  0  0  0  0  0  0  0  0  0
  -27.9061   -3.1493   -8.0491 C   0  0  0  0  0  0  0  0  0  0  0  0
  -27.4100   -3.2751   -9.3154 N   0  0  0  0  0  0  0  0  0  0  0  0
  -27.2596   -4.1393   -9.8222 H   0  0  0  0  0  0  0  0  0  0  0  0
  -28.3995   -1.2965   -6.4239 C   0  0  0  0  0  0  0  0  0  0  0  0
  -28.2179   -0.1351   -6.0700 O   0  0  0  0  0  0  0  0  0  0  0  0
  -29.0433   -2.2156   -5.6245 N   0  0  0  0  0  0  0  0  0  0  0  0
  -28.9434   -3.2013   -5.8301 H   0  0  0  0  0  0  0  0  0  0  0  0
  -29.4763   -1.8507   -4.2900 C   0  0  0  0  0  0  0  0  0  0  0  0
  -28.9520   -2.8312   -3.2379 C   0  0  0  0  0  0  0  0  0  0  0  0
  -29.8107   -2.7853   -2.0876 O   0  0  0  0  0  0  0  0  0  0  0  0
  -30.5748   -3.3641   -2.2647 H   0  0  0  0  0  0  0  0  0  0  0  0
  -28.8761   -4.2530   -3.8116 C   0  0  0  0  0  0  0  0  0  0  0  0
  -30.1045   -4.6331   -4.4258 O   0  0  0  0  0  0  0  0  0  0  0  0
  -30.8293   -4.4056   -3.8173 H   0  0  0  0  0  0  0  0  0  0  0  0
  -23.5221   -1.4208  -13.0031 O   0  0  0  0  0  0  0  0  0  0  0  0
  -21.1186    0.9949  -14.3342 C   0  0  0  0  0  0  0  0  0  0  0  0
  -21.8131    2.2013  -14.1930 C   0  0  0  0  0  0  0  0  0  0  0  0
  -23.0737    2.2150  -13.5830 C   0  0  0  0  0  0  0  0  0  0  0  0
  -23.6583    1.0260  -13.1394 C   0  0  0  0  0  0  0  0  0  0  0  0
  -23.0124   -0.1914  -13.3580 C   0  0  0  0  0  0  0  0  0  0  0  0
  -21.7330   -0.1992  -13.9162 C   0  0  0  0  0  0  0  0  0  0  0  0
  -18.8168    1.8284  -14.5857 N   0  0  0  0  0  0  0  0  0  0  0  0
  -19.7628    0.8860  -14.9608 C   0  0  0  0  0  0  0  0  0  0  0  0
  -19.5610   -0.0719  -15.6989 O   0  0  0  0  0  0  0  0  0  0  0  0
  -19.0011    2.3575  -13.7450 H   0  0  0  0  0  0  0  0  0  0  0  0
  -15.6881    4.4082  -17.4099 C   0  0  0  0  0  0  0  0  0  0  0  0
  -15.9548    3.2311  -16.5157 C   0  0  0  0  0  0  0  0  0  0  0  0
  -14.9299    2.3284  -16.2190 C   0  0  0  0  0  0  0  0  0  0  0  0
  -15.1880    1.2267  -15.4093 C   0  0  0  0  0  0  0  0  0  0  0  0
  -16.4623    1.0273  -14.8785 C   0  0  0  0  0  0  0  0  0  0  0  0
  -16.6578   -0.1172  -14.2117 F   0  0  0  0  0  0  0  0  0  0  0  0
  -17.5019    1.9375  -15.1173 C   0  0  0  0  0  0  0  0  0  0  0  0
  -17.2364    3.0268  -15.9661 C   0  0  0  0  0  0  0  0  0  0  0  0
 35 36  1  0  0  0
 36 37  1  0  0  0
 36 42  2  0  0  0
 37 38  2  0  0  0
 38 39  1  0  0  0
 39 40  1  0  0  0
 39 41  2  0  0  0
 41 31  1  0  0  0
 41 42  1  0  0  0
 31 32  1  0  0  0
 31 34  1  0  0  0
 32 33  2  0  0  0
 32 25  1  0  0  0
 25 26  1  0  0  0
 25 30  2  0  0  0
 26 27  2  0  0  0
 27 28  1  0  0  0
 28 29  2  0  0  0
 29 24  1  0  0  0
 29 30  1  0  0  0
 24  1  1  0  0  0
  1  2  1  0  0  0
  1  6  2  0  0  0
  2  3  2  0  0  0
  3  4  1  0  0  0
  4  5  2  0  0  0
  5  7  1  0  0  0
  5  6  1  0  0  0
  7  8  2  0  0  0
  7 11  1  0  0  0
  8  9  1  0  0  0
  9 13  1  0  0  0
  9 10  2  0  0  0
 13 14  2  0  0  0
 13 15  1  0  0  0
 15 17  1  0  0  0
 15 16  1  0  0  0
 17 18  1  0  0  0
 18 19  1  0  0  0
 18 21  1  0  0  0
 19 20  1  0  0  0
 21 22  1  0  0  0
 22 23  1  0  0  0
 10 11  1  0  0  0
 11 12  1  0  0  0
M  END
> <minimizedAffinity>
-10.89421

$$$$
