CHEMBL192668


 41 43  0  0  0  0  0  0  0  0999 V2000
  -29.8119   -3.9294   -7.4385 C   0  0  0  0  0  0  0  0  0  0  0  0
  -30.5937   -5.2583   -7.4115 C   0  0  0  0  0  0  0  0  0  0  0  0
  -29.8226   -6.4761   -7.8336 C   0  0  0  0  0  0  0  0  0  0  0  0
  -30.4190   -7.7260   -7.8858 C   0  0  0  0  0  0  0  0  0  0  0  0
  -29.7832   -8.8584   -8.2696 N   0  0  0  0  0  0  0  0  0  0  0  0
  -28.4851   -8.7766   -8.6206 C   0  0  0  0  0  0  0  0  0  0  0  0
  -27.8157   -7.5662   -8.5957 C   0  0  0  0  0  0  0  0  0  0  0  0
  -28.4893   -6.4036   -8.1983 C   0  0  0  0  0  0  0  0  0  0  0  0
  -27.7869   -5.1985   -8.2023 N   0  0  0  0  0  0  0  0  0  0  0  0
  -28.3609   -4.0822   -7.8954 C   0  0  0  0  0  0  0  0  0  0  0  0
  -30.6318   -3.3080   -3.7446 C   0  0  0  0  0  0  0  0  0  0  0  0
  -29.9849   -2.0931   -3.5068 C   0  0  0  0  0  0  0  0  0  0  0  0
  -29.2858   -1.4668   -4.5371 C   0  0  0  0  0  0  0  0  0  0  0  0
  -29.2627   -2.0396   -5.8082 C   0  0  0  0  0  0  0  0  0  0  0  0
  -29.8943   -3.2686   -6.0622 C   0  0  0  0  0  0  0  0  0  0  0  0
  -30.5573   -3.9076   -5.0053 C   0  0  0  0  0  0  0  0  0  0  0  0
  -31.9500   -5.2034   -3.2804 C   0  0  0  0  0  0  0  0  0  0  0  0
  -31.3330   -4.0113   -2.8016 O   0  0  0  0  0  0  0  0  0  0  0  0
  -28.6138   -0.2808   -4.4224 O   0  0  0  0  0  0  0  0  0  0  0  0
  -29.0711    0.7550   -5.2842 C   0  0  0  0  0  0  0  0  0  0  0  0
  -27.6276   -2.9036   -7.9158 N   0  0  0  0  0  0  0  0  0  0  0  0
  -27.3553   -2.0678   -8.9815 C   0  0  0  0  0  0  0  0  0  0  0  0
  -26.7900   -0.9952   -8.7856 O   0  0  0  0  0  0  0  0  0  0  0  0
  -27.6910   -2.5728  -10.2062 N   0  0  0  0  0  0  0  0  0  0  0  0
  -27.1656   -2.5972   -7.0719 H   0  0  0  0  0  0  0  0  0  0  0  0
  -28.2202   -3.4377  -10.1719 H   0  0  0  0  0  0  0  0  0  0  0  0
  -27.4839   -1.9377  -11.5066 C   0  0  0  0  0  0  0  0  0  0  0  0
  -28.2973   -2.6499  -12.5984 C   0  0  0  0  0  0  0  0  0  0  0  0
  -27.9708   -0.4787  -11.4152 C   0  0  0  0  0  0  0  0  0  0  0  0
  -25.9946   -1.9226  -11.8792 C   0  0  0  0  0  0  0  0  0  0  0  0
  -27.8351   -9.9587   -9.0979 N   0  0  0  0  0  0  0  0  0  0  0  0
  -28.0974  -10.5572  -10.3267 C   0  0  0  0  0  0  0  0  0  0  0  0
  -29.1293   -9.9954  -11.2728 C   0  0  0  0  0  0  0  0  0  0  0  0
  -27.4598  -11.5488  -10.7066 O   0  0  0  0  0  0  0  0  0  0  0  0
  -26.6777  -10.5172   -8.3700 C   0  0  0  0  0  0  0  0  0  0  0  0
  -26.9081  -11.0329   -6.9531 C   0  0  0  0  0  0  0  0  0  0  0  0
  -26.4953  -10.0822   -5.8208 C   0  0  0  0  0  0  0  0  0  0  0  0
  -27.7813   -9.6536   -5.1045 C   0  0  0  0  0  0  0  0  0  0  0  0
  -27.9435   -8.1567   -4.9148 C   0  0  0  0  0  0  0  0  0  0  0  0
  -26.7579   -7.6396   -4.3155 O   0  0  0  0  0  0  0  0  0  0  0  0
  -26.6299   -8.1034   -3.4695 H   0  0  0  0  0  0  0  0  0  0  0  0
 17 18  1  0  0  0
 18 11  1  0  0  0
 11 12  1  0  0  0
 11 16  2  0  0  0
 12 13  2  0  0  0
 13 19  1  0  0  0
 13 14  1  0  0  0
 19 20  1  0  0  0
 14 15  2  0  0  0
 15  1  1  0  0  0
 15 16  1  0  0  0
  1  2  1  0  0  0
  1 10  1  0  0  0
  2  3  1  0  0  0
  3  4  1  0  0  0
  3  8  2  0  0  0
  4  5  2  0  0  0
  5  6  1  0  0  0
  6 31  1  0  0  0
  6  7  2  0  0  0
 31 35  1  0  0  0
 31 32  1  0  0  0
 35 36  1  0  0  0
 36 37  1  0  0  0
 37 38  1  0  0  0
 38 39  1  0  0  0
 39 40  1  0  0  0
 40 41  1  0  0  0
 32 33  1  0  0  0
 32 34  2  0  0  0
  7  8  1  0  0  0
  8  9  1  0  0  0
  9 10  2  0  0  0
 10 21  1  0  0  0
 21 22  1  0  0  0
 21 25  1  0  0  0
 22 23  2  0  0  0
 22 24  1  0  0  0
 24 27  1  0  0  0
 24 26  1  0  0  0
 27 28  1  0  0  0
 27 29  1  0  0  0
 27 30  1  0  0  0
M  END
> <minimizedAffinity>
-6.84073

$$$$
