CHEMBL3968013


 40 43  0  0  0  0  0  0  0  0999 V2000
  -23.1879    0.1127  -13.6925 C   0  0  0  0  0  0  0  0  0  0  0  0
  -23.1981    1.4911  -13.6092 C   0  0  0  0  0  0  0  0  0  0  0  0
  -21.9705    2.0750  -14.0320 C   0  0  0  0  0  0  0  0  0  0  0  0
  -21.6922    3.4064  -14.0145 N   0  0  0  0  0  0  0  0  0  0  0  0
  -20.4560    3.7482  -14.4178 C   0  0  0  0  0  0  0  0  0  0  0  0
  -19.4890    2.8651  -14.8597 C   0  0  0  0  0  0  0  0  0  0  0  0
  -19.8055    1.5080  -14.9620 C   0  0  0  0  0  0  0  0  0  0  0  0
  -21.0641    1.1182  -14.4841 C   0  0  0  0  0  0  0  0  0  0  0  0
  -21.7209   -0.4571  -14.3648 S   0  0  0  0  0  0  0  0  0  0  0  0
  -24.5059   -0.8068  -11.9284 N   0  0  0  0  0  0  0  0  0  0  0  0
  -24.2378   -0.8046  -13.2808 C   0  0  0  0  0  0  0  0  0  0  0  0
  -24.8588   -1.5147  -14.0696 O   0  0  0  0  0  0  0  0  0  0  0  0
  -23.9062   -0.2499  -11.3299 H   0  0  0  0  0  0  0  0  0  0  0  0
  -25.5118   -1.6407  -11.3233 C   0  0  0  0  0  0  0  0  0  0  0  0
  -26.9026   -1.0383  -11.4769 C   0  0  0  0  0  0  0  0  0  0  0  0
  -27.8357   -1.5909  -10.4029 C   0  0  0  0  0  0  0  0  0  0  0  0
  -27.0818   -2.4279   -9.4777 N   0  0  0  0  0  0  0  0  0  0  0  0
  -26.6574   -3.2193   -9.9692 H   0  0  0  0  0  0  0  0  0  0  0  0
  -27.9473   -2.9493   -8.4059 C   0  0  0  0  0  0  0  0  0  0  0  0
  -27.9515   -1.9916   -7.2174 C   0  0  0  0  0  0  0  0  0  0  0  0
  -27.5642   -0.8294   -7.2476 O   0  0  0  0  0  0  0  0  0  0  0  0
  -28.9085   -1.7723   -5.0930 C   0  0  0  0  0  0  0  0  0  0  0  0
  -28.3921   -2.6412   -6.1008 O   0  0  0  0  0  0  0  0  0  0  0  0
  -18.9457    0.5502  -15.4701 O   0  0  0  0  0  0  0  0  0  0  0  0
  -17.6095    0.6259  -15.1337 C   0  0  0  0  0  0  0  0  0  0  0  0
  -16.7507    1.5931  -15.6683 C   0  0  0  0  0  0  0  0  0  0  0  0
  -15.4816    1.7496  -15.1437 C   0  0  0  0  0  0  0  0  0  0  0  0
  -15.0405    0.8871  -14.1458 C   0  0  0  0  0  0  0  0  0  0  0  0
  -15.8474   -0.1571  -13.6685 C   0  0  0  0  0  0  0  0  0  0  0  0
  -17.1336   -0.3042  -14.1978 C   0  0  0  0  0  0  0  0  0  0  0  0
  -15.3934   -1.0487  -12.6655 N   0  0  0  0  0  0  0  0  0  0  0  0
  -14.7503   -2.2513  -12.9184 C   0  0  0  0  0  0  0  0  0  0  0  0
  -14.3889   -2.6085  -14.0425 O   0  0  0  0  0  0  0  0  0  0  0  0
  -15.4664   -0.7687  -11.6928 H   0  0  0  0  0  0  0  0  0  0  0  0
  -14.4983   -3.0983  -11.7671 C   0  0  0  0  0  0  0  0  0  0  0  0
  -13.3549   -2.9683  -11.0278 O   0  0  0  0  0  0  0  0  0  0  0  0
  -13.4350   -3.8753  -10.0164 C   0  0  0  0  0  0  0  0  0  0  0  0
  -14.6131   -4.5823  -10.0882 C   0  0  0  0  0  0  0  0  0  0  0  0
  -15.3001   -4.0982  -11.2296 C   0  0  0  0  0  0  0  0  0  0  0  0
  -16.6211   -4.5371  -11.7540 C   0  0  0  0  0  0  0  0  0  0  0  0
 22 23  1  0  0  0
 23 20  1  0  0  0
 20 21  2  0  0  0
 20 19  1  0  0  0
 19 17  1  0  0  0
 17 16  1  0  0  0
 17 18  1  0  0  0
 16 15  1  0  0  0
 15 14  1  0  0  0
 14 10  1  0  0  0
 10 11  1  0  0  0
 10 13  1  0  0  0
 11 12  2  0  0  0
 11  1  1  0  0  0
  1  2  2  0  0  0
  1  9  1  0  0  0
  2  3  1  0  0  0
  3  4  1  0  0  0
  3  8  2  0  0  0
  4  5  2  0  0  0
  5  6  1  0  0  0
  6  7  2  0  0  0
  7 24  1  0  0  0
  7  8  1  0  0  0
 24 25  1  0  0  0
 25 26  1  0  0  0
 25 30  2  0  0  0
 26 27  2  0  0  0
 27 28  1  0  0  0
 28 29  2  0  0  0
 29 31  1  0  0  0
 29 30  1  0  0  0
 31 32  1  0  0  0
 31 34  1  0  0  0
 32 33  2  0  0  0
 32 35  1  0  0  0
 35 36  1  0  0  0
 35 39  2  0  0  0
 36 37  1  0  0  0
 37 38  2  0  0  0
 38 39  1  0  0  0
 39 40  1  0  0  0
  8  9  1  0  0  0
M  END
> <minimizedAffinity>
-8.42478

$$$$
