CHEMBL2324873


 27 30  0  0  0  0  0  0  0  0999 V2000
  -17.6966    2.3221  -15.4869 C   0  0  0  0  0  0  0  0  0  0  0  0
  -17.1552    3.4657  -15.8317 N   0  0  0  0  0  0  0  0  0  0  0  0
  -15.7984    3.1731  -16.0689 N   0  0  0  0  0  0  0  0  0  0  0  0
  -15.4605    1.8079  -15.6632 C   0  0  0  0  0  0  0  0  0  0  0  0
  -16.8124    1.1284  -15.5746 C   0  0  0  0  0  0  0  0  0  0  0  0
  -14.5794    0.9746  -16.5680 C   0  0  0  0  0  0  0  0  0  0  0  0
  -13.6782    0.1025  -15.9312 C   0  0  0  0  0  0  0  0  0  0  0  0
  -12.9699   -0.8515  -16.6498 C   0  0  0  0  0  0  0  0  0  0  0  0
  -13.0152   -0.8331  -18.0379 C   0  0  0  0  0  0  0  0  0  0  0  0
  -12.2585   -1.7561  -18.7679 C   0  0  0  0  0  0  0  0  0  0  0  0
  -11.8541   -1.4344  -20.0556 C   0  0  0  0  0  0  0  0  0  0  0  0
  -12.4794   -0.3857  -20.7194 C   0  0  0  0  0  0  0  0  0  0  0  0
  -13.5095    0.3267  -20.0917 C   0  0  0  0  0  0  0  0  0  0  0  0
  -13.7372    0.1672  -18.7120 C   0  0  0  0  0  0  0  0  0  0  0  0
  -14.6205    0.9809  -17.9701 C   0  0  0  0  0  0  0  0  0  0  0  0
  -23.1840    1.6489  -13.6608 C   0  0  0  0  0  0  0  0  0  0  0  0
  -21.7866    1.8096  -14.1850 C   0  0  0  0  0  0  0  0  0  0  0  0
  -21.0432    0.7142  -14.6459 C   0  0  0  0  0  0  0  0  0  0  0  0
  -19.7189    0.8754  -15.0807 C   0  0  0  0  0  0  0  0  0  0  0  0
  -19.1199    2.1412  -15.0468 C   0  0  0  0  0  0  0  0  0  0  0  0
  -19.8772    3.2374  -14.6142 C   0  0  0  0  0  0  0  0  0  0  0  0
  -21.1973    3.0754  -14.1875 C   0  0  0  0  0  0  0  0  0  0  0  0
  -14.8990    4.2269  -16.1716 C   0  0  0  0  0  0  0  0  0  0  0  0
  -15.2764    5.2011  -17.0418 N   0  0  0  0  0  0  0  0  0  0  0  0
  -13.4394    4.4025  -15.3770 S   0  0  0  0  0  0  0  0  0  0  0  0
  -16.0980    5.0233  -17.6009 H   0  0  0  0  0  0  0  0  0  0  0  0
  -14.6421    5.9557  -17.2654 H   0  0  0  0  0  0  0  0  0  0  0  0
 16 17  1  0  0  0
 17 18  1  0  0  0
 17 22  2  0  0  0
 18 19  2  0  0  0
 19 20  1  0  0  0
 20  1  1  0  0  0
 20 21  2  0  0  0
  1  2  2  0  0  0
  1  5  1  0  0  0
  2  3  1  0  0  0
  3 23  1  0  0  0
  3  4  1  0  0  0
 23 24  1  0  0  0
 23 25  2  0  0  0
 24 26  1  0  0  0
 24 27  1  0  0  0
  4  6  1  0  0  0
  4  5  1  0  0  0
  6  7  1  0  0  0
  6 15  2  0  0  0
  7  8  2  0  0  0
  8  9  1  0  0  0
  9 10  1  0  0  0
  9 14  2  0  0  0
 10 11  2  0  0  0
 11 12  1  0  0  0
 12 13  2  0  0  0
 13 14  1  0  0  0
 14 15  1  0  0  0
 21 22  1  0  0  0
M  END
> <minimizedAffinity>
-8.47446

$$$$
