CHEMBL206658


 33 38  0  0  0  0  0  0  0  0999 V2000
  -28.9253   -7.2575   -6.2598 C   0  0  0  0  0  0  0  0  0  0  0  0
  -28.3393   -7.1575   -5.0515 N   0  0  0  0  0  0  0  0  0  0  0  0
  -27.5631   -8.1592   -4.5785 N   0  0  0  0  0  0  0  0  0  0  0  0
  -27.3978   -9.3109   -5.2673 C   0  0  0  0  0  0  0  0  0  0  0  0
  -27.9717   -9.4642   -6.5501 C   0  0  0  0  0  0  0  0  0  0  0  0
  -27.8829  -10.6499   -7.3310 C   0  0  0  0  0  0  0  0  0  0  0  0
  -28.3934  -10.7590   -8.6091 C   0  0  0  0  0  0  0  0  0  0  0  0
  -29.0598   -9.6772   -9.1474 C   0  0  0  0  0  0  0  0  0  0  0  0
  -29.2021   -8.5108   -8.3982 C   0  0  0  0  0  0  0  0  0  0  0  0
  -28.6936   -8.3845   -7.0827 C   0  0  0  0  0  0  0  0  0  0  0  0
  -26.5371  -10.3255   -4.6053 C   0  0  0  0  0  0  0  0  0  0  0  0
  -27.1092  -11.1627   -3.6194 C   0  0  0  0  0  0  0  0  0  0  0  0
  -26.3834  -12.0434   -2.8535 C   0  0  0  0  0  0  0  0  0  0  0  0
  -25.0435  -12.2010   -3.0997 C   0  0  0  0  0  0  0  0  0  0  0  0
  -24.4196  -11.4573   -4.1410 C   0  0  0  0  0  0  0  0  0  0  0  0
  -23.0617  -11.6230   -4.4273 C   0  0  0  0  0  0  0  0  0  0  0  0
  -22.3856  -10.9475   -5.3824 N   0  0  0  0  0  0  0  0  0  0  0  0
  -23.0956  -10.0585   -6.0956 C   0  0  0  0  0  0  0  0  0  0  0  0
  -24.4391   -9.8094   -5.8892 C   0  0  0  0  0  0  0  0  0  0  0  0
  -25.1499  -10.5108   -4.8958 C   0  0  0  0  0  0  0  0  0  0  0  0
  -29.7790   -6.2120   -6.6752 N   0  0  0  0  0  0  0  0  0  0  0  0
  -30.2699   -6.5119   -7.5117 H   0  0  0  0  0  0  0  0  0  0  0  0
  -28.4542    0.9277   -4.9921 C   0  0  0  0  0  0  0  0  0  0  0  0
  -28.6334   -0.4677   -5.4562 C   0  0  0  0  0  0  0  0  0  0  0  0
  -29.2924   -1.5348   -4.8813 C   0  0  0  0  0  0  0  0  0  0  0  0
  -29.1838   -2.6462   -5.7600 C   0  0  0  0  0  0  0  0  0  0  0  0
  -29.6379   -3.9811   -5.7159 C   0  0  0  0  0  0  0  0  0  0  0  0
  -29.3897   -4.8465   -6.7931 C   0  0  0  0  0  0  0  0  0  0  0  0
  -28.6465   -4.3702   -7.8842 C   0  0  0  0  0  0  0  0  0  0  0  0
  -28.1550   -3.0589   -7.9392 C   0  0  0  0  0  0  0  0  0  0  0  0
  -28.4468   -2.2215   -6.8624 C   0  0  0  0  0  0  0  0  0  0  0  0
  -28.1091   -0.9057   -6.6465 N   0  0  0  0  0  0  0  0  0  0  0  0
  -27.5662   -0.3451   -7.2890 H   0  0  0  0  0  0  0  0  0  0  0  0
 23 24  1  0  0  0
 24 25  2  0  0  0
 24 32  1  0  0  0
 25 26  1  0  0  0
 26 27  1  0  0  0
 26 31  2  0  0  0
 27 28  2  0  0  0
 28 21  1  0  0  0
 28 29  1  0  0  0
 21  1  1  0  0  0
 21 22  1  0  0  0
  1  2  1  0  0  0
  1 10  2  0  0  0
  2  3  2  0  0  0
  3  4  1  0  0  0
  4 11  1  0  0  0
  4  5  2  0  0  0
 11 12  1  0  0  0
 11 20  2  0  0  0
 12 13  2  0  0  0
 13 14  1  0  0  0
 14 15  2  0  0  0
 15 16  1  0  0  0
 15 20  1  0  0  0
 16 17  2  0  0  0
 17 18  1  0  0  0
 18 19  2  0  0  0
 19 20  1  0  0  0
  5  6  1  0  0  0
  5 10  1  0  0  0
  6  7  2  0  0  0
  7  8  1  0  0  0
  8  9  2  0  0  0
  9 10  1  0  0  0
 29 30  2  0  0  0
 30 31  1  0  0  0
 31 32  1  0  0  0
 32 33  1  0  0  0
M  END
> <minimizedAffinity>
-9.44998

$$$$
