CHEMBL1996979


 28 31  0  0  0  0  0  0  0  0999 V2000
  -27.5290   -2.2714   -8.8134 C   0  0  0  0  0  0  0  0  0  0  0  0
  -27.6820   -1.3150   -7.8067 C   0  0  0  0  0  0  0  0  0  0  0  0
  -28.3740   -1.4728   -6.6525 N   0  0  0  0  0  0  0  0  0  0  0  0
  -28.9094   -2.6953   -6.5306 C   0  0  0  0  0  0  0  0  0  0  0  0
  -29.5841   -3.1129   -5.4230 N   0  0  0  0  0  0  0  0  0  0  0  0
  -29.9745   -4.4146   -5.5819 C   0  0  0  0  0  0  0  0  0  0  0  0
  -29.5425   -4.8530   -6.8249 C   0  0  0  0  0  0  0  0  0  0  0  0
  -28.8670   -3.7462   -7.4432 C   0  0  0  0  0  0  0  0  0  0  0  0
  -28.1712   -3.5069   -8.6484 C   0  0  0  0  0  0  0  0  0  0  0  0
  -29.7240   -2.5333   -4.6085 H   0  0  0  0  0  0  0  0  0  0  0  0
  -29.7325   -6.2288   -7.2758 C   0  0  0  0  0  0  0  0  0  0  0  0
  -30.9345   -6.9067   -7.0421 C   0  0  0  0  0  0  0  0  0  0  0  0
  -31.1129   -8.2140   -7.5105 C   0  0  0  0  0  0  0  0  0  0  0  0
  -30.0890   -8.8567   -8.2064 C   0  0  0  0  0  0  0  0  0  0  0  0
  -28.8856   -8.1995   -8.4324 C   0  0  0  0  0  0  0  0  0  0  0  0
  -28.7086   -6.8936   -7.9720 C   0  0  0  0  0  0  0  0  0  0  0  0
  -28.2156   -0.7759  -11.1980 O   0  0  0  0  0  0  0  0  0  0  0  0
  -27.1376   -1.3514  -11.0886 C   0  0  0  0  0  0  0  0  0  0  0  0
  -26.7444   -2.0779   -9.9758 N   0  0  0  0  0  0  0  0  0  0  0  0
  -25.7764   -2.3769   -9.9201 H   0  0  0  0  0  0  0  0  0  0  0  0
  -26.1603   -1.2271  -12.1992 C   0  0  0  0  0  0  0  0  0  0  0  0
  -24.9455   -0.5565  -12.0575 C   0  0  0  0  0  0  0  0  0  0  0  0
  -24.5890   -0.0228  -10.8788 F   0  0  0  0  0  0  0  0  0  0  0  0
  -24.0663   -0.4138  -13.1328 C   0  0  0  0  0  0  0  0  0  0  0  0
  -24.3947   -0.9505  -14.3772 C   0  0  0  0  0  0  0  0  0  0  0  0
  -25.6016   -1.6260  -14.5347 C   0  0  0  0  0  0  0  0  0  0  0  0
  -26.4742   -1.7598  -13.4534 C   0  0  0  0  0  0  0  0  0  0  0  0
  -27.6098   -2.4399  -13.6637 F   0  0  0  0  0  0  0  0  0  0  0  0
 17 18  2  0  0  0
 18 19  1  0  0  0
 18 21  1  0  0  0
 19  1  1  0  0  0
 19 20  1  0  0  0
  1  2  1  0  0  0
  1  9  2  0  0  0
  2  3  2  0  0  0
  3  4  1  0  0  0
  4  5  1  0  0  0
  4  8  2  0  0  0
  5  6  1  0  0  0
  5 10  1  0  0  0
  6  7  2  0  0  0
  7 11  1  0  0  0
  7  8  1  0  0  0
 11 12  1  0  0  0
 11 16  2  0  0  0
 12 13  2  0  0  0
 13 14  1  0  0  0
 14 15  2  0  0  0
 15 16  1  0  0  0
  8  9  1  0  0  0
 21 22  1  0  0  0
 21 27  2  0  0  0
 22 23  1  0  0  0
 22 24  2  0  0  0
 24 25  1  0  0  0
 25 26  2  0  0  0
 26 27  1  0  0  0
 27 28  1  0  0  0
M  END
> <minimizedAffinity>
-10.32413

$$$$
