CHEMBL3747266


 36 40  0  0  0  0  0  0  0  0999 V2000
  -29.4885   -6.2727   -6.3483 C   0  0  0  0  0  0  0  0  0  0  0  0
  -28.5813   -6.2045   -7.4061 C   0  0  0  0  0  0  0  0  0  0  0  0
  -28.1963   -4.9812   -7.9548 C   0  0  0  0  0  0  0  0  0  0  0  0
  -28.7116   -3.8109   -7.3786 C   0  0  0  0  0  0  0  0  0  0  0  0
  -29.5445   -3.8513   -6.2540 C   0  0  0  0  0  0  0  0  0  0  0  0
  -29.7769   -2.5108   -5.8485 C   0  0  0  0  0  0  0  0  0  0  0  0
  -29.0633   -1.6980   -6.6946 C   0  0  0  0  0  0  0  0  0  0  0  0
  -28.4610   -2.4728   -7.6687 N   0  0  0  0  0  0  0  0  0  0  0  0
  -27.6003   -1.9606   -8.6579 C   0  0  0  0  0  0  0  0  0  0  0  0
  -26.8160   -1.0823   -8.3263 O   0  0  0  0  0  0  0  0  0  0  0  0
  -27.8800   -2.4555   -9.9255 N   0  0  0  0  0  0  0  0  0  0  0  0
  -29.9441   -5.1007   -5.7359 C   0  0  0  0  0  0  0  0  0  0  0  0
  -28.7772   -2.9011  -10.0723 H   0  0  0  0  0  0  0  0  0  0  0  0
  -27.1480   -2.0515  -11.0663 C   0  0  0  0  0  0  0  0  0  0  0  0
  -27.7668   -1.9820  -12.3241 C   0  0  0  0  0  0  0  0  0  0  0  0
  -27.0485   -1.6801  -13.4796 C   0  0  0  0  0  0  0  0  0  0  0  0
  -25.6819   -1.4320  -13.3925 C   0  0  0  0  0  0  0  0  0  0  0  0
  -25.0343   -1.4430  -12.1502 C   0  0  0  0  0  0  0  0  0  0  0  0
  -25.7828   -1.7318  -10.9787 C   0  0  0  0  0  0  0  0  0  0  0  0
  -23.5485   -1.1783  -12.0837 C   0  0  0  0  0  0  0  0  0  0  0  0
  -22.8870   -2.0160  -11.2293 F   0  0  0  0  0  0  0  0  0  0  0  0
  -22.9328   -1.3217  -13.2871 F   0  0  0  0  0  0  0  0  0  0  0  0
  -23.2584    0.0803  -11.6567 F   0  0  0  0  0  0  0  0  0  0  0  0
  -29.9307   -7.4594   -5.8001 O   0  0  0  0  0  0  0  0  0  0  0  0
  -27.3189  -11.6702   -7.5500 C   0  0  0  0  0  0  0  0  0  0  0  0
  -28.7973  -11.2973   -7.4808 C   0  0  0  0  0  0  0  0  0  0  0  0
  -28.9607   -9.8448   -6.9942 C   0  0  0  0  0  0  0  0  0  0  0  0
  -30.3721   -9.3610   -7.1385 C   0  0  0  0  0  0  0  0  0  0  0  0
  -31.2803  -10.0094   -7.9623 C   0  0  0  0  0  0  0  0  0  0  0  0
  -32.5539   -9.5856   -8.1205 N   0  0  0  0  0  0  0  0  0  0  0  0
  -32.9068   -8.4907   -7.4345 C   0  0  0  0  0  0  0  0  0  0  0  0
  -32.1123   -7.7782   -6.6338 N   0  0  0  0  0  0  0  0  0  0  0  0
  -30.8385   -8.2102   -6.5384 C   0  0  0  0  0  0  0  0  0  0  0  0
  -30.8749  -11.2714   -8.6980 C   0  0  0  0  0  0  0  0  0  0  0  0
  -29.4182  -11.4770   -8.8039 N   0  0  0  0  0  0  0  0  0  0  0  0
  -29.0428  -10.7840   -9.4524 H   0  0  0  0  0  0  0  0  0  0  0  0
 25 26  1  0  0  0
 26 27  1  0  0  0
 26 35  1  0  0  0
 27 28  1  0  0  0
 28 29  1  0  0  0
 28 33  2  0  0  0
 29 30  2  0  0  0
 29 34  1  0  0  0
 30 31  1  0  0  0
 31 32  2  0  0  0
 32 33  1  0  0  0
 33 24  1  0  0  0
 24  1  1  0  0  0
  1  2  1  0  0  0
  1 12  2  0  0  0
  2  3  2  0  0  0
  3  4  1  0  0  0
  4  5  2  0  0  0
  4  8  1  0  0  0
  5  6  1  0  0  0
  5 12  1  0  0  0
  6  7  2  0  0  0
  7  8  1  0  0  0
  8  9  1  0  0  0
  9 10  2  0  0  0
  9 11  1  0  0  0
 11 14  1  0  0  0
 11 13  1  0  0  0
 14 15  1  0  0  0
 14 19  2  0  0  0
 15 16  2  0  0  0
 16 17  1  0  0  0
 17 18  2  0  0  0
 18 20  1  0  0  0
 18 19  1  0  0  0
 20 21  1  0  0  0
 20 22  1  0  0  0
 20 23  1  0  0  0
 34 35  1  0  0  0
 35 36  1  0  0  0
M  END
> <minimizedAffinity>
-11.14115

$$$$
