CHEMBL611649


 19 21  0  0  0  0  0  0  0  0999 V2000
  -28.0122   -4.2398   -3.6529 O   0  0  0  0  0  0  0  0  0  0  0  0
  -28.2158   -5.0931   -4.4930 C   0  0  0  0  0  0  0  0  0  0  0  0
  -28.0878   -6.4591   -4.3120 N   0  0  0  0  0  0  0  0  0  0  0  0
  -28.3956   -7.1572   -5.4735 C   0  0  0  0  0  0  0  0  0  0  0  0
  -28.3590   -8.5268   -5.6367 C   0  0  0  0  0  0  0  0  0  0  0  0
  -28.6946   -9.0288   -6.8941 C   0  0  0  0  0  0  0  0  0  0  0  0
  -29.0560   -8.1595   -7.9409 C   0  0  0  0  0  0  0  0  0  0  0  0
  -29.0881   -6.7715   -7.7497 C   0  0  0  0  0  0  0  0  0  0  0  0
  -28.7542   -6.2790   -6.5009 C   0  0  0  0  0  0  0  0  0  0  0  0
  -28.6563   -4.9307   -5.9309 C   0  0  0  0  0  0  0  0  0  0  0  0
  -28.8975   -3.7709   -6.5631 C   0  0  0  0  0  0  0  0  0  0  0  0
  -27.8009   -6.8608   -3.4331 H   0  0  0  0  0  0  0  0  0  0  0  0
  -28.7263   -2.4630   -5.9265 C   0  0  0  0  0  0  0  0  0  0  0  0
  -29.8507   -1.7672   -5.4611 C   0  0  0  0  0  0  0  0  0  0  0  0
  -29.7142   -0.4739   -4.9550 C   0  0  0  0  0  0  0  0  0  0  0  0
  -28.4559    0.1151   -4.9113 C   0  0  0  0  0  0  0  0  0  0  0  0
  -28.3303    1.3666   -4.4498 F   0  0  0  0  0  0  0  0  0  0  0  0
  -27.3278   -0.5705   -5.3476 C   0  0  0  0  0  0  0  0  0  0  0  0
  -27.4608   -1.8649   -5.8544 C   0  0  0  0  0  0  0  0  0  0  0  0
  1  2  2  0  0  0
  2  3  1  0  0  0
  2 10  1  0  0  0
  3  4  1  0  0  0
  3 12  1  0  0  0
  4  5  1  0  0  0
  4  9  2  0  0  0
  5  6  2  0  0  0
  6  7  1  0  0  0
  7  8  2  0  0  0
  8  9  1  0  0  0
  9 10  1  0  0  0
 10 11  2  0  0  0
 11 13  1  0  0  0
 13 14  1  0  0  0
 13 19  2  0  0  0
 14 15  2  0  0  0
 15 16  1  0  0  0
 16 17  1  0  0  0
 16 18  2  0  0  0
 18 19  1  0  0  0
M  END
> <minimizedAffinity>
-7.93374

$$$$
