CHEMBL2018884


 35 38  0  0  0  0  0  0  0  0999 V2000
  -28.4817   -9.5162   -5.7715 C   0  0  0  0  0  0  0  0  0  0  0  0
  -27.5954   -8.7656   -5.0154 C   0  0  0  0  0  0  0  0  0  0  0  0
  -27.9334   -7.4726   -4.6264 C   0  0  0  0  0  0  0  0  0  0  0  0
  -29.1443   -6.8759   -5.0042 C   0  0  0  0  0  0  0  0  0  0  0  0
  -30.0103   -7.6032   -5.8534 C   0  0  0  0  0  0  0  0  0  0  0  0
  -31.3187   -7.0734   -6.3814 C   0  0  0  0  0  0  0  0  0  0  0  0
  -29.6528   -8.9215   -6.2432 C   0  0  0  0  0  0  0  0  0  0  0  0
  -29.4988   -5.5882   -4.5224 N   0  0  0  0  0  0  0  0  0  0  0  0
  -29.0383   -4.3800   -5.0420 C   0  0  0  0  0  0  0  0  0  0  0  0
  -28.2697   -4.2577   -5.9900 O   0  0  0  0  0  0  0  0  0  0  0  0
  -29.4881   -3.2852   -4.3123 N   0  0  0  0  0  0  0  0  0  0  0  0
  -30.0939   -5.5356   -3.7133 H   0  0  0  0  0  0  0  0  0  0  0  0
  -29.5871   -3.4534   -3.3228 H   0  0  0  0  0  0  0  0  0  0  0  0
  -29.1028   -1.9704   -4.6849 C   0  0  0  0  0  0  0  0  0  0  0  0
  -27.7608   -1.6040   -4.5609 C   0  0  0  0  0  0  0  0  0  0  0  0
  -27.3329   -0.3468   -4.9985 C   0  0  0  0  0  0  0  0  0  0  0  0
  -28.2522    0.5688   -5.5111 C   0  0  0  0  0  0  0  0  0  0  0  0
  -29.5977    0.2181   -5.5947 C   0  0  0  0  0  0  0  0  0  0  0  0
  -30.8498    1.4722   -6.2573 Br  0  0  0  0  0  0  0  0  0  0  0  0
  -30.0260   -1.0483   -5.1949 C   0  0  0  0  0  0  0  0  0  0  0  0
  -28.2140  -10.8239   -6.1091 O   0  0  0  0  0  0  0  0  0  0  0  0
  -23.3277  -11.9187   -6.7722 C   0  0  0  0  0  0  0  0  0  0  0  0
  -23.9566  -11.8169   -8.0265 C   0  0  0  0  0  0  0  0  0  0  0  0
  -25.3036  -11.5340   -8.1606 C   0  0  0  0  0  0  0  0  0  0  0  0
  -25.7900  -11.3382   -9.3917 N   0  0  0  0  0  0  0  0  0  0  0  0
  -27.0678  -10.9564   -9.4782 C   0  0  0  0  0  0  0  0  0  0  0  0
  -27.8929  -10.7569   -8.4523 N   0  0  0  0  0  0  0  0  0  0  0  0
  -27.3955  -11.0301   -7.2281 C   0  0  0  0  0  0  0  0  0  0  0  0
  -26.0758  -11.4239   -7.0078 C   0  0  0  0  0  0  0  0  0  0  0  0
  -25.4921  -11.6832   -5.7468 C   0  0  0  0  0  0  0  0  0  0  0  0
  -24.1159  -11.9082   -5.6170 C   0  0  0  0  0  0  0  0  0  0  0  0
  -21.2325  -10.8166   -6.8739 C   0  0  0  0  0  0  0  0  0  0  0  0
  -21.9639  -12.0338   -6.6821 O   0  0  0  0  0  0  0  0  0  0  0  0
  -23.7503  -12.0713   -4.3110 O   0  0  0  0  0  0  0  0  0  0  0  0
  -23.3902  -10.9421   -3.5330 C   0  0  0  0  0  0  0  0  0  0  0  0
 32 33  1  0  0  0
 33 22  1  0  0  0
 22 23  1  0  0  0
 22 31  2  0  0  0
 23 24  2  0  0  0
 24 25  1  0  0  0
 24 29  1  0  0  0
 25 26  2  0  0  0
 26 27  1  0  0  0
 27 28  2  0  0  0
 28 21  1  0  0  0
 28 29  1  0  0  0
 21  1  1  0  0  0
  1  2  1  0  0  0
  1  7  2  0  0  0
  2  3  2  0  0  0
  3  4  1  0  0  0
  4  8  1  0  0  0
  4  5  2  0  0  0
  8  9  1  0  0  0
  8 12  1  0  0  0
  9 10  2  0  0  0
  9 11  1  0  0  0
 11 14  1  0  0  0
 11 13  1  0  0  0
 14 15  1  0  0  0
 14 20  2  0  0  0
 15 16  2  0  0  0
 16 17  1  0  0  0
 17 18  2  0  0  0
 18 19  1  0  0  0
 18 20  1  0  0  0
  5  6  1  0  0  0
  5  7  1  0  0  0
 29 30  2  0  0  0
 30 31  1  0  0  0
 31 34  1  0  0  0
 34 35  1  0  0  0
M  END
> <minimizedAffinity>
-8.15214

$$$$
