CHEMBL249175


 24 27  0  0  0  0  0  0  0  0999 V2000
  -29.6481   -5.8581   -7.0585 C   0  0  0  0  0  0  0  0  0  0  0  0
  -29.2915   -6.8558   -6.2338 C   0  0  0  0  0  0  0  0  0  0  0  0
  -28.2652   -6.9067   -5.1624 C   0  0  0  0  0  0  0  0  0  0  0  0
  -27.6322   -6.0136   -4.6398 O   0  0  0  0  0  0  0  0  0  0  0  0
  -28.2021   -8.2548   -4.8537 N   0  0  0  0  0  0  0  0  0  0  0  0
  -29.1396   -9.0416   -5.4749 N   0  0  0  0  0  0  0  0  0  0  0  0
  -29.8243   -8.2496   -6.2664 C   0  0  0  0  0  0  0  0  0  0  0  0
  -27.6091   -8.6315   -4.1234 H   0  0  0  0  0  0  0  0  0  0  0  0
  -27.5047   -1.7188   -8.7059 C   0  0  0  0  0  0  0  0  0  0  0  0
  -28.2320   -2.6334   -7.8547 N   0  0  0  0  0  0  0  0  0  0  0  0
  -28.5663   -3.9137   -8.2048 C   0  0  0  0  0  0  0  0  0  0  0  0
  -29.1729   -4.5124   -7.1256 C   0  0  0  0  0  0  0  0  0  0  0  0
  -29.3044   -3.5118   -6.1070 C   0  0  0  0  0  0  0  0  0  0  0  0
  -29.8761   -3.4844   -4.8166 C   0  0  0  0  0  0  0  0  0  0  0  0
  -29.8065   -2.3093   -4.0676 C   0  0  0  0  0  0  0  0  0  0  0  0
  -30.3543   -2.2836   -2.8445 F   0  0  0  0  0  0  0  0  0  0  0  0
  -29.1826   -1.1693   -4.5535 C   0  0  0  0  0  0  0  0  0  0  0  0
  -28.6100   -1.1673   -5.8262 C   0  0  0  0  0  0  0  0  0  0  0  0
  -28.6885   -2.3475   -6.5866 C   0  0  0  0  0  0  0  0  0  0  0  0
  -30.9688   -8.7087   -6.9919 C   0  0  0  0  0  0  0  0  0  0  0  0
  -32.3196   -8.4350   -6.8692 C   0  0  0  0  0  0  0  0  0  0  0  0
  -33.1493   -9.1016   -7.7547 N   0  0  0  0  0  0  0  0  0  0  0  0
  -32.4646   -9.9100   -8.5445 N   0  0  0  0  0  0  0  0  0  0  0  0
  -30.8217   -9.8871   -8.2323 S   0  0  0  0  0  0  0  0  0  0  0  0
  9 10  1  0  0  0
 10 11  1  0  0  0
 10 19  1  0  0  0
 11 12  2  0  0  0
 12  1  1  0  0  0
 12 13  1  0  0  0
  1  2  2  0  0  0
  2  3  1  0  0  0
  2  7  1  0  0  0
  3  4  2  0  0  0
  3  5  1  0  0  0
  5  6  1  0  0  0
  5  8  1  0  0  0
  6  7  2  0  0  0
  7 20  1  0  0  0
 20 21  2  0  0  0
 20 24  1  0  0  0
 21 22  1  0  0  0
 22 23  2  0  0  0
 23 24  1  0  0  0
 13 14  1  0  0  0
 13 19  2  0  0  0
 14 15  2  0  0  0
 15 16  1  0  0  0
 15 17  1  0  0  0
 17 18  2  0  0  0
 18 19  1  0  0  0
M  END
> <minimizedAffinity>
-8.65222

$$$$
