CHEMBL231456


 31 34  0  0  0  0  0  0  0  0999 V2000
  -21.2357    1.4380  -14.6731 C   0  0  0  0  0  0  0  0  0  0  0  0
  -21.2863    0.0479  -14.5529 C   0  0  0  0  0  0  0  0  0  0  0  0
  -22.3380   -0.5679  -13.8689 C   0  0  0  0  0  0  0  0  0  0  0  0
  -23.3403    0.1954  -13.2544 C   0  0  0  0  0  0  0  0  0  0  0  0
  -23.1968    1.5893  -13.2611 C   0  0  0  0  0  0  0  0  0  0  0  0
  -22.1626    2.2112  -13.9808 C   0  0  0  0  0  0  0  0  0  0  0  0
  -24.5098   -0.4638  -12.6458 C   0  0  0  0  0  0  0  0  0  0  0  0
  -24.5603   -0.5954  -11.2687 C   0  0  0  0  0  0  0  0  0  0  0  0
  -25.9383   -1.4109  -10.7144 S   0  0  0  0  0  0  0  0  0  0  0  0
  -26.5443   -1.6115  -12.3083 C   0  0  0  0  0  0  0  0  0  0  0  0
  -27.7496   -2.2444  -12.6350 C   0  0  0  0  0  0  0  0  0  0  0  0
  -28.0598   -2.3010  -13.9720 C   0  0  0  0  0  0  0  0  0  0  0  0
  -27.2741   -1.8159  -14.9437 N   0  0  0  0  0  0  0  0  0  0  0  0
  -26.0971   -1.2238  -14.6388 C   0  0  0  0  0  0  0  0  0  0  0  0
  -25.3650   -0.8331  -15.7545 N   0  0  0  0  0  0  0  0  0  0  0  0
  -25.6879   -1.0729  -13.2821 C   0  0  0  0  0  0  0  0  0  0  0  0
  -25.7946   -1.2485  -16.5753 H   0  0  0  0  0  0  0  0  0  0  0  0
  -24.3741   -1.0172  -15.6573 H   0  0  0  0  0  0  0  0  0  0  0  0
  -18.2091    2.8105  -16.1260 N   0  0  0  0  0  0  0  0  0  0  0  0
  -18.9810    2.1898  -15.1654 C   0  0  0  0  0  0  0  0  0  0  0  0
  -18.5559    1.7598  -14.0961 O   0  0  0  0  0  0  0  0  0  0  0  0
  -20.3091    2.0664  -15.5464 N   0  0  0  0  0  0  0  0  0  0  0  0
  -18.6970    3.3182  -16.8463 H   0  0  0  0  0  0  0  0  0  0  0  0
  -20.4553    1.9209  -16.5349 H   0  0  0  0  0  0  0  0  0  0  0  0
  -12.4851    3.3155  -15.9272 C   0  0  0  0  0  0  0  0  0  0  0  0
  -13.9778    3.1817  -15.9681 C   0  0  0  0  0  0  0  0  0  0  0  0
  -14.7780    4.3153  -15.8988 C   0  0  0  0  0  0  0  0  0  0  0  0
  -16.1728    4.2006  -15.9385 C   0  0  0  0  0  0  0  0  0  0  0  0
  -16.7955    2.9648  -16.0695 C   0  0  0  0  0  0  0  0  0  0  0  0
  -15.9884    1.8171  -16.1293 C   0  0  0  0  0  0  0  0  0  0  0  0
  -14.5928    1.9284  -16.0781 C   0  0  0  0  0  0  0  0  0  0  0  0
 25 26  1  0  0  0
 26 27  1  0  0  0
 26 31  2  0  0  0
 27 28  2  0  0  0
 28 29  1  0  0  0
 29 19  1  0  0  0
 29 30  2  0  0  0
 19 20  1  0  0  0
 19 23  1  0  0  0
 20 21  2  0  0  0
 20 22  1  0  0  0
 22  1  1  0  0  0
 22 24  1  0  0  0
  1  2  1  0  0  0
  1  6  2  0  0  0
  2  3  2  0  0  0
  3  4  1  0  0  0
  4  7  1  0  0  0
  4  5  2  0  0  0
  7  8  2  0  0  0
  7 16  1  0  0  0
  8  9  1  0  0  0
  9 10  1  0  0  0
 10 11  1  0  0  0
 10 16  2  0  0  0
 11 12  2  0  0  0
 12 13  1  0  0  0
 13 14  2  0  0  0
 14 15  1  0  0  0
 14 16  1  0  0  0
 15 17  1  0  0  0
 15 18  1  0  0  0
  5  6  1  0  0  0
 30 31  1  0  0  0
M  END
> <minimizedAffinity>
-8.99026

$$$$
