CHEMBL4061361


 43 48  0  0  0  0  0  0  0  0999 V2000
  -26.7481   -1.7753  -10.3291 C   0  0  0  0  0  0  0  0  0  0  0  0
  -26.8735   -0.8056   -9.3099 C   0  0  0  0  0  0  0  0  0  0  0  0
  -27.5688   -1.0925   -8.1179 C   0  0  0  0  0  0  0  0  0  0  0  0
  -28.1383   -2.3430   -7.9624 C   0  0  0  0  0  0  0  0  0  0  0  0
  -27.9911   -3.2895   -8.9879 C   0  0  0  0  0  0  0  0  0  0  0  0
  -27.2946   -3.0454  -10.1638 C   0  0  0  0  0  0  0  0  0  0  0  0
  -28.6664   -4.4693   -8.6748 N   0  0  0  0  0  0  0  0  0  0  0  0
  -29.3070   -4.3678   -7.4520 C   0  0  0  0  0  0  0  0  0  0  0  0
  -30.1180   -5.1440   -6.9905 O   0  0  0  0  0  0  0  0  0  0  0  0
  -28.9087   -3.0133   -6.8985 C   0  0  0  0  0  0  0  0  0  0  0  0
  -29.2617   -2.6756   -5.6367 C   0  0  0  0  0  0  0  0  0  0  0  0
  -28.7783   -5.2604   -9.2848 H   0  0  0  0  0  0  0  0  0  0  0  0
  -29.1874   -1.2422   -5.2187 C   0  0  0  0  0  0  0  0  0  0  0  0
  -28.0174   -0.7551   -4.6015 C   0  0  0  0  0  0  0  0  0  0  0  0
  -27.8672    0.6109   -4.3533 C   0  0  0  0  0  0  0  0  0  0  0  0
  -28.8671    1.5073   -4.7093 C   0  0  0  0  0  0  0  0  0  0  0  0
  -30.0516    1.0306   -5.2578 C   0  0  0  0  0  0  0  0  0  0  0  0
  -30.2268   -0.3354   -5.4793 C   0  0  0  0  0  0  0  0  0  0  0  0
  -26.0731   -1.4801  -11.6297 C   0  0  0  0  0  0  0  0  0  0  0  0
  -26.6014   -1.6592  -12.7200 O   0  0  0  0  0  0  0  0  0  0  0  0
  -23.7607   -1.8625  -11.7047 C   0  0  0  0  0  0  0  0  0  0  0  0
  -24.8349   -0.9606  -11.4225 O   0  0  0  0  0  0  0  0  0  0  0  0
  -29.9003   -3.5044   -4.6950 N   0  0  0  0  0  0  0  0  0  0  0  0
  -30.8818   -3.6079   -4.9783 H   0  0  0  0  0  0  0  0  0  0  0  0
  -29.4497   -4.8545   -4.4616 C   0  0  0  0  0  0  0  0  0  0  0  0
  -28.1318   -5.2538   -4.6255 C   0  0  0  0  0  0  0  0  0  0  0  0
  -27.7276   -6.5899   -4.4548 C   0  0  0  0  0  0  0  0  0  0  0  0
  -28.6240   -7.6082   -4.0864 C   0  0  0  0  0  0  0  0  0  0  0  0
  -29.9110   -7.1808   -3.7499 C   0  0  0  0  0  0  0  0  0  0  0  0
  -30.3126   -5.8248   -3.9288 C   0  0  0  0  0  0  0  0  0  0  0  0
  -28.1600   -8.9877   -4.0246 N   0  0  0  0  0  0  0  0  0  0  0  0
  -26.8642   -9.3247   -3.6174 C   0  0  0  0  0  0  0  0  0  0  0  0
  -26.7404  -10.6785   -3.4462 C   0  0  0  0  0  0  0  0  0  0  0  0
  -27.9804  -11.2270   -3.7759 C   0  0  0  0  0  0  0  0  0  0  0  0
  -28.7682  -10.2238   -4.3396 C   0  0  0  0  0  0  0  0  0  0  0  0
  -29.9775  -10.5205   -5.1944 C   0  0  0  0  0  0  0  0  0  0  0  0
  -29.8102  -10.0654   -6.5826 N   0  0  0  0  0  0  0  0  0  0  0  0
  -30.5655   -8.8515   -6.9045 C   0  0  0  0  0  0  0  0  0  0  0  0
  -31.9294   -9.0273   -7.6036 C   0  0  0  0  0  0  0  0  0  0  0  0
  -31.9798   -9.9366   -8.7454 N   0  0  0  0  0  0  0  0  0  0  0  0
  -31.1543  -11.1289   -8.5702 C   0  0  0  0  0  0  0  0  0  0  0  0
  -29.9123  -11.0783   -7.6427 C   0  0  0  0  0  0  0  0  0  0  0  0
  -31.7137   -9.4528   -9.5992 H   0  0  0  0  0  0  0  0  0  0  0  0
 21 22  1  0  0  0
 22 19  1  0  0  0
 19 20  2  0  0  0
 19  1  1  0  0  0
  1  2  1  0  0  0
  1  6  2  0  0  0
  2  3  2  0  0  0
  3  4  1  0  0  0
  4  5  2  0  0  0
  4 10  1  0  0  0
  5  6  1  0  0  0
  5  7  1  0  0  0
  7  8  1  0  0  0
  7 12  1  0  0  0
  8  9  2  0  0  0
  8 10  1  0  0  0
 10 11  2  0  0  0
 11 23  1  0  0  0
 11 13  1  0  0  0
 23 25  1  0  0  0
 23 24  1  0  0  0
 25 26  1  0  0  0
 25 30  2  0  0  0
 26 27  2  0  0  0
 27 28  1  0  0  0
 28 31  1  0  0  0
 28 29  2  0  0  0
 31 32  1  0  0  0
 31 35  1  0  0  0
 32 33  2  0  0  0
 33 34  1  0  0  0
 34 35  2  0  0  0
 35 36  1  0  0  0
 36 37  1  0  0  0
 37 38  1  0  0  0
 37 42  1  0  0  0
 38 39  1  0  0  0
 39 40  1  0  0  0
 40 41  1  0  0  0
 40 43  1  0  0  0
 41 42  1  0  0  0
 29 30  1  0  0  0
 13 14  1  0  0  0
 13 18  2  0  0  0
 14 15  2  0  0  0
 15 16  1  0  0  0
 16 17  2  0  0  0
 17 18  1  0  0  0
M  END
> <minimizedAffinity>
-8.23832

$$$$
