CHEMBL4079003


 34 37  0  0  0  0  0  0  0  0999 V2000
  -23.0724   -0.6237  -13.5042 C   0  0  0  0  0  0  0  0  0  0  0  0
  -23.0827   -0.5317  -12.1111 C   0  0  0  0  0  0  0  0  0  0  0  0
  -24.2121   -0.8950  -11.3624 C   0  0  0  0  0  0  0  0  0  0  0  0
  -25.3671   -1.2843  -12.0618 C   0  0  0  0  0  0  0  0  0  0  0  0
  -25.4052   -1.2991  -13.4607 C   0  0  0  0  0  0  0  0  0  0  0  0
  -26.7026   -1.7216  -13.8492 C   0  0  0  0  0  0  0  0  0  0  0  0
  -27.3869   -2.0495  -12.7050 C   0  0  0  0  0  0  0  0  0  0  0  0
  -26.5862   -1.7885  -11.6064 N   0  0  0  0  0  0  0  0  0  0  0  0
  -26.9183   -2.1366  -10.2865 C   0  0  0  0  0  0  0  0  0  0  0  0
  -27.2453   -3.2952  -10.0490 O   0  0  0  0  0  0  0  0  0  0  0  0
  -26.9760   -1.0251   -9.4795 N   0  0  0  0  0  0  0  0  0  0  0  0
  -24.2451   -0.9561  -14.1884 C   0  0  0  0  0  0  0  0  0  0  0  0
  -27.1810   -0.1373   -9.9180 H   0  0  0  0  0  0  0  0  0  0  0  0
  -27.4978   -1.1517   -8.2107 C   0  0  0  0  0  0  0  0  0  0  0  0
  -28.1054   -0.1518   -7.4171 C   0  0  0  0  0  0  0  0  0  0  0  0
  -28.4187   -0.7779   -6.2289 C   0  0  0  0  0  0  0  0  0  0  0  0
  -27.9408   -2.0488   -6.3516 N   0  0  0  0  0  0  0  0  0  0  0  0
  -27.4868   -2.3312   -7.5886 N   0  0  0  0  0  0  0  0  0  0  0  0
  -27.9133   -2.7822   -5.6461 H   0  0  0  0  0  0  0  0  0  0  0  0
  -29.0916   -0.3389   -4.9985 C   0  0  0  0  0  0  0  0  0  0  0  0
  -30.3086    0.2027   -5.2367 F   0  0  0  0  0  0  0  0  0  0  0  0
  -29.2762   -1.3772   -4.1455 F   0  0  0  0  0  0  0  0  0  0  0  0
  -28.3590    0.5853   -4.3317 F   0  0  0  0  0  0  0  0  0  0  0  0
  -21.9713   -0.3716  -14.2960 O   0  0  0  0  0  0  0  0  0  0  0  0
  -19.6718    2.4514  -14.4901 C   0  0  0  0  0  0  0  0  0  0  0  0
  -20.0889    1.1370  -14.5762 C   0  0  0  0  0  0  0  0  0  0  0  0
  -21.4241    0.8948  -14.3330 C   0  0  0  0  0  0  0  0  0  0  0  0
  -22.3183    1.8830  -14.1510 N   0  0  0  0  0  0  0  0  0  0  0  0
  -21.8246    3.1273  -14.1504 C   0  0  0  0  0  0  0  0  0  0  0  0
  -20.5342    3.4683  -14.2807 N   0  0  0  0  0  0  0  0  0  0  0  0
  -18.2022    2.7861  -14.6439 C   0  0  0  0  0  0  0  0  0  0  0  0
  -16.5525    3.9239  -15.9973 C   0  0  0  0  0  0  0  0  0  0  0  0
  -17.9410    3.9209  -15.5415 N   0  0  0  0  0  0  0  0  0  0  0  0
  -18.5477    3.8305  -16.3559 H   0  0  0  0  0  0  0  0  0  0  0  0
 32 33  1  0  0  0
 33 31  1  0  0  0
 33 34  1  0  0  0
 31 25  1  0  0  0
 25 26  1  0  0  0
 25 30  2  0  0  0
 26 27  2  0  0  0
 27 24  1  0  0  0
 27 28  1  0  0  0
 24  1  1  0  0  0
  1  2  1  0  0  0
  1 12  2  0  0  0
  2  3  2  0  0  0
  3  4  1  0  0  0
  4  5  2  0  0  0
  4  8  1  0  0  0
  5  6  1  0  0  0
  5 12  1  0  0  0
  6  7  2  0  0  0
  7  8  1  0  0  0
  8  9  1  0  0  0
  9 10  2  0  0  0
  9 11  1  0  0  0
 11 14  1  0  0  0
 11 13  1  0  0  0
 14 15  1  0  0  0
 14 18  2  0  0  0
 15 16  2  0  0  0
 16 20  1  0  0  0
 16 17  1  0  0  0
 20 21  1  0  0  0
 20 22  1  0  0  0
 20 23  1  0  0  0
 17 18  1  0  0  0
 17 19  1  0  0  0
 28 29  2  0  0  0
 29 30  1  0  0  0
M  END
> <minimizedAffinity>
-10.27257

$$$$
