CHEMBL203429


 33 37  0  0  0  0  0  0  0  0999 V2000
  -27.3188   -3.8744   -8.7693 O   0  0  0  0  0  0  0  0  0  0  0  0
  -27.6861   -2.7367   -8.5036 C   0  0  0  0  0  0  0  0  0  0  0  0
  -27.4674   -1.6235   -9.3153 N   0  0  0  0  0  0  0  0  0  0  0  0
  -27.9018   -0.7516   -9.0485 H   0  0  0  0  0  0  0  0  0  0  0  0
  -26.7593   -1.5864  -10.5448 C   0  0  0  0  0  0  0  0  0  0  0  0
  -27.3751   -1.6190  -11.7937 C   0  0  0  0  0  0  0  0  0  0  0  0
  -26.6253   -1.5007  -12.9700 C   0  0  0  0  0  0  0  0  0  0  0  0
  -25.2338   -1.3677  -12.9264 C   0  0  0  0  0  0  0  0  0  0  0  0
  -24.6050   -1.3879  -11.6756 C   0  0  0  0  0  0  0  0  0  0  0  0
  -25.3604   -1.4956  -10.4971 C   0  0  0  0  0  0  0  0  0  0  0  0
  -24.4484   -1.1710  -14.2037 C   0  0  0  0  0  0  0  0  0  0  0  0
  -23.4195   -0.0629  -14.1255 C   0  0  0  0  0  0  0  0  0  0  0  0
  -23.7937    1.2318  -13.7372 C   0  0  0  0  0  0  0  0  0  0  0  0
  -22.8479    2.2572  -13.6759 C   0  0  0  0  0  0  0  0  0  0  0  0
  -21.5184    2.0037  -14.0039 C   0  0  0  0  0  0  0  0  0  0  0  0
  -21.1323    0.7223  -14.3929 C   0  0  0  0  0  0  0  0  0  0  0  0
  -22.0775   -0.3051  -14.4561 C   0  0  0  0  0  0  0  0  0  0  0  0
  -28.4166   -2.4946   -7.2084 C   0  0  0  0  0  0  0  0  0  0  0  0
  -27.8667   -1.5643   -6.2978 C   0  0  0  0  0  0  0  0  0  0  0  0
  -28.4816   -1.2862   -5.0755 C   0  0  0  0  0  0  0  0  0  0  0  0
  -29.6646   -1.9246   -4.7389 C   0  0  0  0  0  0  0  0  0  0  0  0
  -30.2038   -2.8762   -5.6023 C   0  0  0  0  0  0  0  0  0  0  0  0
  -29.5795   -3.2135   -6.8275 C   0  0  0  0  0  0  0  0  0  0  0  0
  -30.1759   -4.3933   -7.5834 C   0  0  0  0  0  0  0  0  0  0  0  0
  -29.9426   -5.6971   -6.9323 N   0  0  0  0  0  0  0  0  0  0  0  0
  -30.7581   -6.7995   -7.2222 C   0  0  0  0  0  0  0  0  0  0  0  0
  -30.5825   -8.0406   -6.7400 C   0  0  0  0  0  0  0  0  0  0  0  0
  -29.4404   -8.2250   -5.8388 C   0  0  0  0  0  0  0  0  0  0  0  0
  -29.0155   -9.2635   -5.1957 N   0  0  0  0  0  0  0  0  0  0  0  0
  -27.8894   -8.7811   -4.5339 C   0  0  0  0  0  0  0  0  0  0  0  0
  -27.5700   -7.5305   -4.7219 N   0  0  0  0  0  0  0  0  0  0  0  0
  -28.5493   -7.0933   -5.5583 C   0  0  0  0  0  0  0  0  0  0  0  0
  -28.8265   -5.9127   -6.1116 C   0  0  0  0  0  0  0  0  0  0  0  0
  1  2  2  0  0  0
  2  3  1  0  0  0
  2 18  1  0  0  0
  3  5  1  0  0  0
  3  4  1  0  0  0
  5  6  1  0  0  0
  5 10  2  0  0  0
  6  7  2  0  0  0
  7  8  1  0  0  0
  8 11  1  0  0  0
  8  9  2  0  0  0
 11 12  1  0  0  0
 12 13  1  0  0  0
 12 17  2  0  0  0
 13 14  2  0  0  0
 14 15  1  0  0  0
 15 16  2  0  0  0
 16 17  1  0  0  0
  9 10  1  0  0  0
 18 19  1  0  0  0
 18 23  2  0  0  0
 19 20  2  0  0  0
 20 21  1  0  0  0
 21 22  2  0  0  0
 22 23  1  0  0  0
 23 24  1  0  0  0
 24 25  1  0  0  0
 25 26  1  0  0  0
 25 33  1  0  0  0
 26 27  2  0  0  0
 27 28  1  0  0  0
 28 29  2  0  0  0
 28 32  1  0  0  0
 29 30  1  0  0  0
 30 31  2  0  0  0
 31 32  1  0  0  0
 32 33  2  0  0  0
M  END
> <minimizedAffinity>
-10.26955

$$$$
