CHEMBL223219


 36 41  0  0  0  0  0  0  0  0999 V2000
  -12.7620   -2.6635  -12.9353 C   0  0  0  0  0  0  0  0  0  0  0  0
  -11.9658   -2.1708  -14.0037 C   0  0  0  0  0  0  0  0  0  0  0  0
  -12.4027   -1.1453  -14.8449 C   0  0  0  0  0  0  0  0  0  0  0  0
  -13.6655   -0.6593  -14.6228 C   0  0  0  0  0  0  0  0  0  0  0  0
  -14.5090   -1.1579  -13.5916 C   0  0  0  0  0  0  0  0  0  0  0  0
  -14.0521   -2.1455  -12.7328 C   0  0  0  0  0  0  0  0  0  0  0  0
  -15.9006   -0.5032  -13.5855 C   0  0  0  0  0  0  0  0  0  0  0  0
  -15.6746    0.4424  -14.7157 C   0  0  0  0  0  0  0  0  0  0  0  0
  -16.3148    1.4373  -15.4599 C   0  0  0  0  0  0  0  0  0  0  0  0
  -15.4975    1.9440  -16.4077 N   0  0  0  0  0  0  0  0  0  0  0  0
  -14.3390    1.2496  -16.2592 N   0  0  0  0  0  0  0  0  0  0  0  0
  -14.4322    0.3406  -15.2726 C   0  0  0  0  0  0  0  0  0  0  0  0
  -13.5551    1.4688  -16.8645 H   0  0  0  0  0  0  0  0  0  0  0  0
  -17.7009    1.8789  -15.2643 C   0  0  0  0  0  0  0  0  0  0  0  0
  -18.1388    3.1875  -15.2315 C   0  0  0  0  0  0  0  0  0  0  0  0
  -19.8203    3.3062  -14.9565 S   0  0  0  0  0  0  0  0  0  0  0  0
  -19.9791    1.6098  -14.8814 C   0  0  0  0  0  0  0  0  0  0  0  0
  -18.7774    0.9621  -15.0639 C   0  0  0  0  0  0  0  0  0  0  0  0
  -21.2293    0.9759  -14.6477 C   0  0  0  0  0  0  0  0  0  0  0  0
  -22.3447    0.3428  -14.4131 C   0  0  0  0  0  0  0  0  0  0  0  0
  -23.6451   -0.3953  -14.1399 C   0  0  0  0  0  0  0  0  0  0  0  0
  -23.6547   -0.8563  -12.7936 O   0  0  0  0  0  0  0  0  0  0  0  0
  -24.8768   -1.1938  -12.2850 C   0  0  0  0  0  0  0  0  0  0  0  0
  -26.0272   -1.4858  -13.0148 C   0  0  0  0  0  0  0  0  0  0  0  0
  -27.2048   -1.8155  -12.3433 C   0  0  0  0  0  0  0  0  0  0  0  0
  -27.1921   -1.8413  -10.9589 C   0  0  0  0  0  0  0  0  0  0  0  0
  -26.1006   -1.5641  -10.2172 N   0  0  0  0  0  0  0  0  0  0  0  0
  -24.9720   -1.2475  -10.8985 C   0  0  0  0  0  0  0  0  0  0  0  0
  -12.2145   -3.7475  -12.0216 C   0  0  0  0  0  0  0  0  0  0  0  0
  -10.8654   -5.4330   -7.7442 C   0  0  0  0  0  0  0  0  0  0  0  0
  -11.9889   -5.3694   -8.6742 N   0  0  0  0  0  0  0  0  0  0  0  0
  -12.3926   -3.9752   -8.9176 C   0  0  0  0  0  0  0  0  0  0  0  0
  -13.5483   -3.8934   -9.9403 C   0  0  0  0  0  0  0  0  0  0  0  0
  -13.2362   -4.4880  -11.2585 N   0  0  0  0  0  0  0  0  0  0  0  0
  -12.7926   -5.8835  -11.0136 C   0  0  0  0  0  0  0  0  0  0  0  0
  -11.6728   -6.0432   -9.9479 C   0  0  0  0  0  0  0  0  0  0  0  0
 30 31  1  0  0  0
 31 32  1  0  0  0
 31 36  1  0  0  0
 32 33  1  0  0  0
 33 34  1  0  0  0
 34 29  1  0  0  0
 34 35  1  0  0  0
 29  1  1  0  0  0
  1  2  1  0  0  0
  1  6  2  0  0  0
  2  3  2  0  0  0
  3  4  1  0  0  0
  4  5  2  0  0  0
  4 12  1  0  0  0
  5  6  1  0  0  0
  5  7  1  0  0  0
  7  8  1  0  0  0
  8  9  1  0  0  0
  8 12  2  0  0  0
  9 14  1  0  0  0
  9 10  2  0  0  0
 14 15  2  0  0  0
 14 18  1  0  0  0
 15 16  1  0  0  0
 16 17  1  0  0  0
 17 19  1  0  0  0
 17 18  2  0  0  0
 19 20  3  0  0  0
 20 21  1  0  0  0
 21 22  1  0  0  0
 22 23  1  0  0  0
 23 24  1  0  0  0
 23 28  2  0  0  0
 24 25  2  0  0  0
 25 26  1  0  0  0
 26 27  2  0  0  0
 27 28  1  0  0  0
 10 11  1  0  0  0
 11 12  1  0  0  0
 11 13  1  0  0  0
 35 36  1  0  0  0
M  END
> <minimizedAffinity>
-9.31031

$$$$
