CHEMBL262433


 32 35  0  0  0  0  0  0  0  0999 V2000
  -28.4572   -2.4747   -8.1139 C   0  0  0  0  0  0  0  0  0  0  0  0
  -27.8851   -2.4760   -6.8397 C   0  0  0  0  0  0  0  0  0  0  0  0
  -28.1665   -3.5073   -5.9384 C   0  0  0  0  0  0  0  0  0  0  0  0
  -29.0240   -4.5584   -6.2955 C   0  0  0  0  0  0  0  0  0  0  0  0
  -29.6843   -4.4797   -7.5288 C   0  0  0  0  0  0  0  0  0  0  0  0
  -29.3998   -3.4489   -8.4380 C   0  0  0  0  0  0  0  0  0  0  0  0
  -29.1906   -5.7074   -5.3831 C   0  0  0  0  0  0  0  0  0  0  0  0
  -29.5838   -5.4423   -4.1277 N   0  0  0  0  0  0  0  0  0  0  0  0
  -29.6704   -6.8399   -3.2579 S   0  0  0  0  0  0  0  0  0  0  0  0
  -29.1882   -7.8663   -4.5183 C   0  0  0  0  0  0  0  0  0  0  0  0
  -29.0825   -9.1956   -4.3585 N   0  0  0  0  0  0  0  0  0  0  0  0
  -28.6824   -9.8001   -5.4763 C   0  0  0  0  0  0  0  0  0  0  0  0
  -28.3818   -9.2212   -6.6471 N   0  0  0  0  0  0  0  0  0  0  0  0
  -28.4812   -7.8805   -6.7608 C   0  0  0  0  0  0  0  0  0  0  0  0
  -28.0966   -7.3745   -7.9968 N   0  0  0  0  0  0  0  0  0  0  0  0
  -28.9290   -7.1214   -5.6625 C   0  0  0  0  0  0  0  0  0  0  0  0
  -27.6351   -8.1051   -8.5303 H   0  0  0  0  0  0  0  0  0  0  0  0
  -27.5772   -6.5054   -7.9436 H   0  0  0  0  0  0  0  0  0  0  0  0
  -26.8335   -0.8874  -10.9428 N   0  0  0  0  0  0  0  0  0  0  0  0
  -27.1689   -1.9224  -10.0902 C   0  0  0  0  0  0  0  0  0  0  0  0
  -26.8029   -3.0827  -10.2195 O   0  0  0  0  0  0  0  0  0  0  0  0
  -28.0599   -1.5316   -9.0957 N   0  0  0  0  0  0  0  0  0  0  0  0
  -27.3259   -0.0168  -10.8072 H   0  0  0  0  0  0  0  0  0  0  0  0
  -28.7737   -0.8947   -9.4105 H   0  0  0  0  0  0  0  0  0  0  0  0
  -22.4222    0.1701  -12.9172 C   0  0  0  0  0  0  0  0  0  0  0  0
  -23.7969   -0.4193  -13.0526 C   0  0  0  0  0  0  0  0  0  0  0  0
  -24.2055   -0.9562  -14.2768 C   0  0  0  0  0  0  0  0  0  0  0  0
  -25.4644   -1.5324  -14.3950 C   0  0  0  0  0  0  0  0  0  0  0  0
  -26.3286   -1.5615  -13.3024 C   0  0  0  0  0  0  0  0  0  0  0  0
  -27.4629   -2.2497  -13.4715 F   0  0  0  0  0  0  0  0  0  0  0  0
  -25.9799   -0.9762  -12.0780 C   0  0  0  0  0  0  0  0  0  0  0  0
  -24.6870   -0.4345  -11.9557 C   0  0  0  0  0  0  0  0  0  0  0  0
 25 26  1  0  0  0
 26 27  1  0  0  0
 26 32  2  0  0  0
 27 28  2  0  0  0
 28 29  1  0  0  0
 29 30  1  0  0  0
 29 31  2  0  0  0
 31 19  1  0  0  0
 31 32  1  0  0  0
 19 20  1  0  0  0
 19 23  1  0  0  0
 20 21  2  0  0  0
 20 22  1  0  0  0
 22  1  1  0  0  0
 22 24  1  0  0  0
  1  2  1  0  0  0
  1  6  2  0  0  0
  2  3  2  0  0  0
  3  4  1  0  0  0
  4  7  1  0  0  0
  4  5  2  0  0  0
  7  8  2  0  0  0
  7 16  1  0  0  0
  8  9  1  0  0  0
  9 10  1  0  0  0
 10 11  1  0  0  0
 10 16  2  0  0  0
 11 12  2  0  0  0
 12 13  1  0  0  0
 13 14  2  0  0  0
 14 15  1  0  0  0
 14 16  1  0  0  0
 15 17  1  0  0  0
 15 18  1  0  0  0
  5  6  1  0  0  0
M  END
> <minimizedAffinity>
-9.28792

$$$$
