CHEMBL333021


 29 33  0  0  0  0  0  0  0  0999 V2000
  -26.5835   -1.7606  -10.5882 C   0  0  0  0  0  0  0  0  0  0  0  0
  -27.2377   -1.9259  -11.8105 C   0  0  0  0  0  0  0  0  0  0  0  0
  -26.5859   -1.6084  -13.0044 C   0  0  0  0  0  0  0  0  0  0  0  0
  -25.2753   -1.1212  -12.9894 C   0  0  0  0  0  0  0  0  0  0  0  0
  -24.6152   -0.9787  -11.7678 C   0  0  0  0  0  0  0  0  0  0  0  0
  -25.2663   -1.2920  -10.5699 C   0  0  0  0  0  0  0  0  0  0  0  0
  -29.1691   -2.9006   -5.7726 C   0  0  0  0  0  0  0  0  0  0  0  0
  -29.1559   -1.5610   -5.3426 C   0  0  0  0  0  0  0  0  0  0  0  0
  -28.5796   -0.7376   -6.2185 N   0  0  0  0  0  0  0  0  0  0  0  0
  -28.2123   -1.5477   -7.2417 N   0  0  0  0  0  0  0  0  0  0  0  0
  -27.5617   -1.1724   -8.4106 C   0  0  0  0  0  0  0  0  0  0  0  0
  -27.2672   -2.0870   -9.3448 C   0  0  0  0  0  0  0  0  0  0  0  0
  -27.7021   -3.4836   -9.0204 C   0  0  0  0  0  0  0  0  0  0  0  0
  -28.3040   -3.8675   -7.9342 N   0  0  0  0  0  0  0  0  0  0  0  0
  -28.5672   -2.8817   -7.0160 C   0  0  0  0  0  0  0  0  0  0  0  0
  -31.3439   -5.2475   -3.8852 C   0  0  0  0  0  0  0  0  0  0  0  0
  -31.0630   -4.0777   -4.5528 C   0  0  0  0  0  0  0  0  0  0  0  0
  -29.7173   -4.0369   -5.0300 C   0  0  0  0  0  0  0  0  0  0  0  0
  -29.0266   -5.1821   -4.6912 C   0  0  0  0  0  0  0  0  0  0  0  0
  -29.9942   -6.2943   -3.8212 S   0  0  0  0  0  0  0  0  0  0  0  0
  -24.5505   -0.7934  -14.1102 O   0  0  0  0  0  0  0  0  0  0  0  0
  -23.1839   -0.4485  -13.8397 C   0  0  0  0  0  0  0  0  0  0  0  0
  -22.9646    1.0703  -13.9565 C   0  0  0  0  0  0  0  0  0  0  0  0
  -21.5357    1.4623  -14.0203 N   0  0  0  0  0  0  0  0  0  0  0  0
  -20.7674    0.6647  -14.9915 C   0  0  0  0  0  0  0  0  0  0  0  0
  -19.2894    1.0665  -15.0161 C   0  0  0  0  0  0  0  0  0  0  0  0
  -19.1294    2.5500  -15.3128 C   0  0  0  0  0  0  0  0  0  0  0  0
  -19.9638    3.3672  -14.3355 C   0  0  0  0  0  0  0  0  0  0  0  0
  -21.4221    2.9010  -14.3181 C   0  0  0  0  0  0  0  0  0  0  0  0
 16 17  2  0  0  0
 16 20  1  0  0  0
 17 18  1  0  0  0
 18  7  1  0  0  0
 18 19  2  0  0  0
  7  8  1  0  0  0
  7 15  2  0  0  0
  8  9  2  0  0  0
  9 10  1  0  0  0
 10 11  1  0  0  0
 10 15  1  0  0  0
 11 12  2  0  0  0
 12  1  1  0  0  0
 12 13  1  0  0  0
  1  2  1  0  0  0
  1  6  2  0  0  0
  2  3  2  0  0  0
  3  4  1  0  0  0
  4 21  1  0  0  0
  4  5  2  0  0  0
 21 22  1  0  0  0
 22 23  1  0  0  0
 23 24  1  0  0  0
 24 25  1  0  0  0
 24 29  1  0  0  0
 25 26  1  0  0  0
 26 27  1  0  0  0
 27 28  1  0  0  0
 28 29  1  0  0  0
  5  6  1  0  0  0
 13 14  2  0  0  0
 14 15  1  0  0  0
 19 20  1  0  0  0
M  END
> <minimizedAffinity>
-9.63175

$$$$
