CHEMBL3895378


 33 36  0  0  0  0  0  0  0  0999 V2000
  -29.8803   -6.5499   -6.0664 N   0  0  0  0  0  0  0  0  0  0  0  0
  -28.9839   -5.4659   -6.4515 C   0  0  0  0  0  0  0  0  0  0  0  0
  -28.8056   -4.4986   -5.4626 C   0  0  0  0  0  0  0  0  0  0  0  0
  -28.4772   -3.2014   -5.8005 C   0  0  0  0  0  0  0  0  0  0  0  0
  -28.2058   -2.8460   -7.1015 C   0  0  0  0  0  0  0  0  0  0  0  0
  -28.0978   -1.5238   -7.2876 N   0  0  0  0  0  0  0  0  0  0  0  0
  -27.7173   -1.1234   -8.5076 C   0  0  0  0  0  0  0  0  0  0  0  0
  -27.3645   -2.0130   -9.5011 C   0  0  0  0  0  0  0  0  0  0  0  0
  -27.5681   -3.3691   -9.3449 N   0  0  0  0  0  0  0  0  0  0  0  0
  -28.0639   -3.8161   -8.1184 C   0  0  0  0  0  0  0  0  0  0  0  0
  -28.5172   -5.1393   -7.7626 C   0  0  0  0  0  0  0  0  0  0  0  0
  -26.6617   -1.4469  -10.6483 C   0  0  0  0  0  0  0  0  0  0  0  0
  -27.0402   -1.4187  -12.0168 C   0  0  0  0  0  0  0  0  0  0  0  0
  -26.0482   -1.0266  -12.8268 N   0  0  0  0  0  0  0  0  0  0  0  0
  -25.0246   -0.8100  -11.9841 N   0  0  0  0  0  0  0  0  0  0  0  0
  -23.8421   -0.1118  -12.4336 C   0  0  0  0  0  0  0  0  0  0  0  0
  -25.2971   -1.2065  -10.7017 C   0  0  0  0  0  0  0  0  0  0  0  0
  -31.7893   -9.3656   -7.6033 C   0  0  0  0  0  0  0  0  0  0  0  0
  -30.8811   -9.8373   -8.5487 C   0  0  0  0  0  0  0  0  0  0  0  0
  -29.5890   -9.3107   -8.5819 C   0  0  0  0  0  0  0  0  0  0  0  0
  -29.2225   -8.2716   -7.7152 C   0  0  0  0  0  0  0  0  0  0  0  0
  -30.1199   -7.7485   -6.7813 C   0  0  0  0  0  0  0  0  0  0  0  0
  -31.3876   -8.3642   -6.6972 C   0  0  0  0  0  0  0  0  0  0  0  0
  -33.3773  -10.8170   -6.5586 C   0  0  0  0  0  0  0  0  0  0  0  0
  -33.0941   -9.7832   -7.5041 O   0  0  0  0  0  0  0  0  0  0  0  0
  -28.6296   -9.6827   -9.4877 O   0  0  0  0  0  0  0  0  0  0  0  0
  -29.1039  -10.4999  -10.5543 C   0  0  0  0  0  0  0  0  0  0  0  0
  -31.0643   -5.8888   -5.3843 C   0  0  0  0  0  0  0  0  0  0  0  0
  -31.3816   -6.1082   -3.8623 C   0  0  0  0  0  0  0  0  0  0  0  0
  -31.9692   -4.9048   -3.1146 C   0  0  0  0  0  0  0  0  0  0  0  0
  -30.3747   -6.7525   -3.0185 N   0  0  0  0  0  0  0  0  0  0  0  0
  -29.6089   -6.1023   -2.8452 H   0  0  0  0  0  0  0  0  0  0  0  0
  -29.9649   -7.5495   -3.5030 H   0  0  0  0  0  0  0  0  0  0  0  0
 24 25  1  0  0  0
 25 18  1  0  0  0
 18 19  1  0  0  0
 18 23  2  0  0  0
 19 20  2  0  0  0
 20 26  1  0  0  0
 20 21  1  0  0  0
 26 27  1  0  0  0
 21 22  2  0  0  0
 22  1  1  0  0  0
 22 23  1  0  0  0
  1 28  1  0  0  0
  1  2  1  0  0  0
 29 31  1  0  0  0
 29 30  1  0  0  0
 29 28  1  0  0  0
 31 32  1  0  0  0
 31 33  1  0  0  0
  2  3  1  0  0  0
  2 11  2  0  0  0
  3  4  2  0  0  0
  4  5  1  0  0  0
  5  6  1  0  0  0
  5 10  2  0  0  0
  6  7  2  0  0  0
  7  8  1  0  0  0
  8 12  1  0  0  0
  8  9  2  0  0  0
 12 13  1  0  0  0
 12 17  2  0  0  0
 13 14  2  0  0  0
 14 15  1  0  0  0
 15 16  1  0  0  0
 15 17  1  0  0  0
  9 10  1  0  0  0
 10 11  1  0  0  0
M  END
> <minimizedAffinity>
-8.36116

$$$$
