CHEMBL260306


 49 55  0  0  0  0  0  0  0  0999 V2000
  -28.5856   -3.9196   -7.8932 C   0  0  0  0  0  0  0  0  0  0  0  0
  -29.3546   -3.8604   -6.7905 N   0  0  0  0  0  0  0  0  0  0  0  0
  -29.5081   -4.9834   -6.0946 C   0  0  0  0  0  0  0  0  0  0  0  0
  -28.9245   -6.1587   -6.4843 C   0  0  0  0  0  0  0  0  0  0  0  0
  -29.3725   -7.3579   -5.7916 C   0  0  0  0  0  0  0  0  0  0  0  0
  -29.3260   -7.3545   -4.5676 O   0  0  0  0  0  0  0  0  0  0  0  0
  -29.8677   -8.3348   -6.6273 N   0  0  0  0  0  0  0  0  0  0  0  0
  -29.7875   -8.0459   -8.0098 C   0  0  0  0  0  0  0  0  0  0  0  0
  -30.2785   -8.6645   -9.0536 N   0  0  0  0  0  0  0  0  0  0  0  0
  -29.1542   -9.3017   -9.4568 C   0  0  0  0  0  0  0  0  0  0  0  0
  -29.1602  -10.6295   -9.9058 C   0  0  0  0  0  0  0  0  0  0  0  0
  -28.0745  -11.4089   -9.5413 C   0  0  0  0  0  0  0  0  0  0  0  0
  -26.9481  -10.8111   -8.9605 C   0  0  0  0  0  0  0  0  0  0  0  0
  -26.8383   -9.4051   -8.7310 C   0  0  0  0  0  0  0  0  0  0  0  0
  -28.0085   -8.6422   -8.9393 C   0  0  0  0  0  0  0  0  0  0  0  0
  -28.6026   -7.4417   -8.4361 N   0  0  0  0  0  0  0  0  0  0  0  0
  -28.2649   -6.2298   -7.7144 C   0  0  0  0  0  0  0  0  0  0  0  0
  -28.0476   -5.0743   -8.4081 N   0  0  0  0  0  0  0  0  0  0  0  0
  -29.7578   -9.7153   -6.2764 C   0  0  0  0  0  0  0  0  0  0  0  0
  -30.8713  -10.5517   -6.5172 C   0  0  0  0  0  0  0  0  0  0  0  0
  -32.1934  -10.0180   -7.0066 C   0  0  0  0  0  0  0  0  0  0  0  0
  -30.7588  -11.9188   -6.2757 C   0  0  0  0  0  0  0  0  0  0  0  0
  -29.5809  -12.4656   -5.7863 C   0  0  0  0  0  0  0  0  0  0  0  0
  -28.4902  -11.6600   -5.5329 C   0  0  0  0  0  0  0  0  0  0  0  0
  -28.5421  -10.2768   -5.7845 C   0  0  0  0  0  0  0  0  0  0  0  0
  -27.2542   -9.5274   -5.5119 C   0  0  0  0  0  0  0  0  0  0  0  0
  -28.5701   -2.6770   -8.5391 N   0  0  0  0  0  0  0  0  0  0  0  0
  -28.2817   -2.0745   -7.7585 H   0  0  0  0  0  0  0  0  0  0  0  0
  -27.7157   -1.5970  -11.9793 C   0  0  0  0  0  0  0  0  0  0  0  0
  -28.4047   -2.0685  -10.8555 C   0  0  0  0  0  0  0  0  0  0  0  0
  -27.7630   -2.2761   -9.6295 C   0  0  0  0  0  0  0  0  0  0  0  0
  -26.4126   -1.9536   -9.5220 C   0  0  0  0  0  0  0  0  0  0  0  0
  -25.7052   -1.4412  -10.6248 C   0  0  0  0  0  0  0  0  0  0  0  0
  -26.3763   -1.1874  -11.8455 C   0  0  0  0  0  0  0  0  0  0  0  0
  -28.3201   -2.6878  -13.9866 C   0  0  0  0  0  0  0  0  0  0  0  0
  -28.3413   -1.4982  -13.1981 O   0  0  0  0  0  0  0  0  0  0  0  0
  -24.3601   -1.1538  -10.5937 O   0  0  0  0  0  0  0  0  0  0  0  0
  -23.4798   -2.0454  -11.2681 C   0  0  0  0  0  0  0  0  0  0  0  0
  -25.6378   -0.5523  -12.8305 O   0  0  0  0  0  0  0  0  0  0  0  0
  -25.1585   -1.3998  -13.8886 C   0  0  0  0  0  0  0  0  0  0  0  0
  -24.0349   -0.7170  -14.6765 C   0  0  0  0  0  0  0  0  0  0  0  0
  -23.2820    0.3336  -13.8292 C   0  0  0  0  0  0  0  0  0  0  0  0
  -22.3233    1.1582  -14.5804 N   0  0  0  0  0  0  0  0  0  0  0  0
  -22.1990    2.5285  -14.0553 C   0  0  0  0  0  0  0  0  0  0  0  0
  -21.2601    3.3681  -14.9488 C   0  0  0  0  0  0  0  0  0  0  0  0
  -19.8883    2.8385  -15.0613 N   0  0  0  0  0  0  0  0  0  0  0  0
  -19.1291    3.0551  -13.8333 C   0  0  0  0  0  0  0  0  0  0  0  0
  -19.9525    1.4076  -15.4290 C   0  0  0  0  0  0  0  0  0  0  0  0
  -20.9782    0.5443  -14.6381 C   0  0  0  0  0  0  0  0  0  0  0  0
 35 36  1  0  0  0
 36 29  1  0  0  0
 29 30  1  0  0  0
 29 34  2  0  0  0
 30 31  2  0  0  0
 31 27  1  0  0  0
 31 32  1  0  0  0
 27  1  1  0  0  0
 27 28  1  0  0  0
  1  2  1  0  0  0
  1 18  2  0  0  0
  2  3  2  0  0  0
  3  4  1  0  0  0
  4  5  1  0  0  0
  4 17  2  0  0  0
  5  6  2  0  0  0
  5  7  1  0  0  0
  7 19  1  0  0  0
  7  8  1  0  0  0
 19 20  1  0  0  0
 19 25  2  0  0  0
 20 21  1  0  0  0
 20 22  2  0  0  0
 22 23  1  0  0  0
 23 24  2  0  0  0
 24 25  1  0  0  0
 25 26  1  0  0  0
  8  9  2  0  0  0
  8 16  1  0  0  0
  9 10  1  0  0  0
 10 11  1  0  0  0
 10 15  2  0  0  0
 11 12  2  0  0  0
 12 13  1  0  0  0
 13 14  2  0  0  0
 14 15  1  0  0  0
 15 16  1  0  0  0
 16 17  1  0  0  0
 17 18  1  0  0  0
 32 33  2  0  0  0
 33 37  1  0  0  0
 33 34  1  0  0  0
 37 38  1  0  0  0
 34 39  1  0  0  0
 39 40  1  0  0  0
 40 41  1  0  0  0
 41 42  1  0  0  0
 42 43  1  0  0  0
 43 44  1  0  0  0
 43 49  1  0  0  0
 44 45  1  0  0  0
 45 46  1  0  0  0
 46 47  1  0  0  0
 46 48  1  0  0  0
 48 49  1  0  0  0
M  END
> <minimizedAffinity>
-7.45309

$$$$
