CHEMBL3893827


 36 40  0  0  0  0  0  0  0  0999 V2000
  -27.7448   -1.4557   -5.9493 C   0  0  0  0  0  0  0  0  0  0  0  0
  -27.5764   -2.1587   -7.1153 N   0  0  0  0  0  0  0  0  0  0  0  0
  -27.8154   -1.5453   -8.2902 C   0  0  0  0  0  0  0  0  0  0  0  0
  -28.2071   -0.2696   -8.3736 N   0  0  0  0  0  0  0  0  0  0  0  0
  -28.3580    0.4070   -7.2280 C   0  0  0  0  0  0  0  0  0  0  0  0
  -28.1293   -0.1274   -5.9788 C   0  0  0  0  0  0  0  0  0  0  0  0
  -28.2908    0.9318   -4.6393 Cl  0  0  0  0  0  0  0  0  0  0  0  0
  -27.7007   -2.3113   -9.4518 N   0  0  0  0  0  0  0  0  0  0  0  0
  -28.4439   -2.9984   -9.4561 H   0  0  0  0  0  0  0  0  0  0  0  0
  -27.0802   -1.9532  -10.5970 C   0  0  0  0  0  0  0  0  0  0  0  0
  -27.6146   -1.5126  -11.8292 C   0  0  0  0  0  0  0  0  0  0  0  0
  -26.6754   -1.3709  -12.7676 N   0  0  0  0  0  0  0  0  0  0  0  0
  -25.5374   -1.7292  -12.1349 N   0  0  0  0  0  0  0  0  0  0  0  0
  -25.7279   -2.0182  -10.8103 C   0  0  0  0  0  0  0  0  0  0  0  0
  -24.3209   -1.8540  -12.9209 C   0  0  0  0  0  0  0  0  0  0  0  0
  -23.0716   -1.5871  -12.0893 C   0  0  0  0  0  0  0  0  0  0  0  0
  -22.8490   -0.0974  -12.2664 C   0  0  0  0  0  0  0  0  0  0  0  0
  -23.2552    0.2061  -13.6441 N   0  0  0  0  0  0  0  0  0  0  0  0
  -24.2072   -0.8444  -14.0617 C   0  0  0  0  0  0  0  0  0  0  0  0
  -22.4377    0.1700  -14.2514 H   0  0  0  0  0  0  0  0  0  0  0  0
  -27.3651   -2.2458   -4.7077 C   0  0  0  0  0  0  0  0  0  0  0  0
  -27.6996   -3.7473   -4.6295 C   0  0  0  0  0  0  0  0  0  0  0  0
  -29.9511   -5.0241   -4.6682 C   0  0  0  0  0  0  0  0  0  0  0  0
  -31.3115   -5.0051   -4.2914 C   0  0  0  0  0  0  0  0  0  0  0  0
  -31.8062   -4.1103   -3.3439 C   0  0  0  0  0  0  0  0  0  0  0  0
  -30.9472   -3.2029   -2.7419 C   0  0  0  0  0  0  0  0  0  0  0  0
  -29.6204   -3.1299   -3.1563 C   0  0  0  0  0  0  0  0  0  0  0  0
  -29.1183   -3.9981   -4.1445 C   0  0  0  0  0  0  0  0  0  0  0  0
  -29.4718   -6.1746   -5.5730 C   0  0  0  0  0  0  0  0  0  0  0  0
  -30.2429   -6.4274   -6.8739 C   0  0  0  0  0  0  0  0  0  0  0  0
  -28.9036   -5.7823   -6.9518 C   0  0  0  0  0  0  0  0  0  0  0  0
  -29.4672   -8.4017   -4.6153 N   0  0  0  0  0  0  0  0  0  0  0  0
  -28.7312   -7.2966   -4.8936 C   0  0  0  0  0  0  0  0  0  0  0  0
  -27.5445   -7.2111   -4.6264 O   0  0  0  0  0  0  0  0  0  0  0  0
  -29.0014   -9.1762   -4.1624 H   0  0  0  0  0  0  0  0  0  0  0  0
  -30.4473   -8.4806   -4.8505 H   0  0  0  0  0  0  0  0  0  0  0  0
 32 33  1  0  0  0
 32 35  1  0  0  0
 32 36  1  0  0  0
 33 34  2  0  0  0
 33 29  1  0  0  0
 29 23  1  0  0  0
 29 30  1  0  0  0
 29 31  1  0  0  0
 23 24  1  0  0  0
 23 28  2  0  0  0
 24 25  2  0  0  0
 25 26  1  0  0  0
 26 27  2  0  0  0
 27 28  1  0  0  0
 28 22  1  0  0  0
 22 21  1  0  0  0
 21  1  1  0  0  0
  1  2  1  0  0  0
  1  6  2  0  0  0
  2  3  2  0  0  0
  3  8  1  0  0  0
  3  4  1  0  0  0
  8 10  1  0  0  0
  8  9  1  0  0  0
 10 11  1  0  0  0
 10 14  2  0  0  0
 11 12  2  0  0  0
 12 13  1  0  0  0
 13 15  1  0  0  0
 13 14  1  0  0  0
 15 16  1  0  0  0
 15 19  1  0  0  0
 16 17  1  0  0  0
 17 18  1  0  0  0
 18 19  1  0  0  0
 18 20  1  0  0  0
  4  5  2  0  0  0
  5  6  1  0  0  0
  6  7  1  0  0  0
 30 31  1  0  0  0
M  END
> <minimizedAffinity>
-9.16236

$$$$
