CHEMBL3913166


 38 41  0  0  0  0  0  0  0  0999 V2000
  -27.2830   -1.8279   -5.0207 C   0  0  0  0  0  0  0  0  0  0  0  0
  -27.9923   -3.1050   -5.3799 C   0  0  0  0  0  0  0  0  0  0  0  0
  -28.1232   -4.0586   -4.3438 C   0  0  0  0  0  0  0  0  0  0  0  0
  -28.8597   -5.2326   -4.5099 C   0  0  0  0  0  0  0  0  0  0  0  0
  -29.4203   -5.4965   -5.7487 C   0  0  0  0  0  0  0  0  0  0  0  0
  -29.2665   -4.5809   -6.7979 C   0  0  0  0  0  0  0  0  0  0  0  0
  -28.5671   -3.3715   -6.6431 C   0  0  0  0  0  0  0  0  0  0  0  0
  -28.4076   -2.4600   -7.7317 N   0  0  0  0  0  0  0  0  0  0  0  0
  -27.7669   -2.7227   -8.9372 C   0  0  0  0  0  0  0  0  0  0  0  0
  -27.3557   -3.8200   -9.2996 O   0  0  0  0  0  0  0  0  0  0  0  0
  -27.5736   -1.5761   -9.7042 N   0  0  0  0  0  0  0  0  0  0  0  0
  -28.8846   -1.5678   -7.6565 H   0  0  0  0  0  0  0  0  0  0  0  0
  -27.3989   -0.7443   -9.1590 H   0  0  0  0  0  0  0  0  0  0  0  0
  -26.8987   -1.6537  -10.9555 C   0  0  0  0  0  0  0  0  0  0  0  0
  -27.6581   -1.6852  -12.1274 C   0  0  0  0  0  0  0  0  0  0  0  0
  -27.0192   -1.6751  -13.3716 C   0  0  0  0  0  0  0  0  0  0  0  0
  -25.6291   -1.6935  -13.4484 C   0  0  0  0  0  0  0  0  0  0  0  0
  -25.0608   -1.6881  -14.6598 F   0  0  0  0  0  0  0  0  0  0  0  0
  -24.8456   -1.7157  -12.2972 C   0  0  0  0  0  0  0  0  0  0  0  0
  -25.4981   -1.6788  -11.0462 C   0  0  0  0  0  0  0  0  0  0  0  0
  -23.3493   -1.7780  -12.3858 C   0  0  0  0  0  0  0  0  0  0  0  0
  -22.7740   -0.7942  -13.1309 F   0  0  0  0  0  0  0  0  0  0  0  0
  -22.7475   -1.7128  -11.1656 F   0  0  0  0  0  0  0  0  0  0  0  0
  -22.9208   -2.9483  -12.9444 F   0  0  0  0  0  0  0  0  0  0  0  0
  -29.0010   -6.1888   -3.5287 O   0  0  0  0  0  0  0  0  0  0  0  0
  -28.6233   -7.4948   -3.8310 C   0  0  0  0  0  0  0  0  0  0  0  0
  -27.3804   -7.6697   -4.4049 C   0  0  0  0  0  0  0  0  0  0  0  0
  -27.0455   -8.9713   -4.7106 C   0  0  0  0  0  0  0  0  0  0  0  0
  -27.8587   -9.9967   -4.4355 N   0  0  0  0  0  0  0  0  0  0  0  0
  -29.0429   -9.7175   -3.8908 C   0  0  0  0  0  0  0  0  0  0  0  0
  -29.4837   -8.4993   -3.5877 N   0  0  0  0  0  0  0  0  0  0  0  0
  -25.8090   -9.2307   -5.3329 N   0  0  0  0  0  0  0  0  0  0  0  0
  -24.6866   -9.6614   -4.6609 C   0  0  0  0  0  0  0  0  0  0  0  0
  -24.5647   -9.8796   -3.4598 O   0  0  0  0  0  0  0  0  0  0  0  0
  -25.7547   -9.1171   -6.3356 H   0  0  0  0  0  0  0  0  0  0  0  0
  -23.4941   -9.8523   -5.5437 C   0  0  0  0  0  0  0  0  0  0  0  0
  -23.3886  -11.0789   -6.4254 C   0  0  0  0  0  0  0  0  0  0  0  0
  -22.5137  -10.9554   -5.2135 C   0  0  0  0  0  0  0  0  0  0  0  0
  1  2  1  0  0  0
  2  3  1  0  0  0
  2  7  2  0  0  0
  3  4  2  0  0  0
  4 25  1  0  0  0
  4  5  1  0  0  0
 25 26  1  0  0  0
 26 27  1  0  0  0
 26 31  2  0  0  0
 27 28  2  0  0  0
 28 32  1  0  0  0
 28 29  1  0  0  0
 32 33  1  0  0  0
 32 35  1  0  0  0
 33 34  2  0  0  0
 33 36  1  0  0  0
 36 37  1  0  0  0
 36 38  1  0  0  0
 37 38  1  0  0  0
 29 30  2  0  0  0
 30 31  1  0  0  0
  5  6  2  0  0  0
  6  7  1  0  0  0
  7  8  1  0  0  0
  8  9  1  0  0  0
  8 12  1  0  0  0
  9 10  2  0  0  0
  9 11  1  0  0  0
 11 14  1  0  0  0
 11 13  1  0  0  0
 14 15  1  0  0  0
 14 20  2  0  0  0
 15 16  2  0  0  0
 16 17  1  0  0  0
 17 18  1  0  0  0
 17 19  2  0  0  0
 19 21  1  0  0  0
 19 20  1  0  0  0
 21 22  1  0  0  0
 21 23  1  0  0  0
 21 24  1  0  0  0
M  END
> <minimizedAffinity>
-10.14288

$$$$
