CHEMBL198267


 32 35  0  0  0  0  0  0  0  0999 V2000
  -27.5620   -1.9669   -9.4104 C   0  0  0  0  0  0  0  0  0  0  0  0
  -28.0551   -3.2701   -9.3218 C   0  0  0  0  0  0  0  0  0  0  0  0
  -28.5869   -3.7540   -8.1259 C   0  0  0  0  0  0  0  0  0  0  0  0
  -28.5400   -2.9914   -6.9543 C   0  0  0  0  0  0  0  0  0  0  0  0
  -27.9223   -1.7324   -7.0251 C   0  0  0  0  0  0  0  0  0  0  0  0
  -27.4591   -1.2092   -8.2467 C   0  0  0  0  0  0  0  0  0  0  0  0
  -29.1586   -3.4857   -5.7073 C   0  0  0  0  0  0  0  0  0  0  0  0
  -29.7078   -2.6108   -4.7642 C   0  0  0  0  0  0  0  0  0  0  0  0
  -29.8533   -1.1182   -4.7309 C   0  0  0  0  0  0  0  0  0  0  0  0
  -30.3163   -3.4391   -3.3932 S   0  0  0  0  0  0  0  0  0  0  0  0
  -29.9061   -4.9503   -4.0288 C   0  0  0  0  0  0  0  0  0  0  0  0
  -30.2026   -6.0531   -3.3172 N   0  0  0  0  0  0  0  0  0  0  0  0
  -29.8218   -7.1696   -3.9280 C   0  0  0  0  0  0  0  0  0  0  0  0
  -29.1954   -7.2717   -5.1044 N   0  0  0  0  0  0  0  0  0  0  0  0
  -28.9036   -6.1467   -5.7852 C   0  0  0  0  0  0  0  0  0  0  0  0
  -28.2164   -6.3644   -6.9725 N   0  0  0  0  0  0  0  0  0  0  0  0
  -29.2794   -4.8841   -5.2642 C   0  0  0  0  0  0  0  0  0  0  0  0
  -27.9056   -7.3308   -7.0035 H   0  0  0  0  0  0  0  0  0  0  0  0
  -27.4937   -5.6789   -7.1560 H   0  0  0  0  0  0  0  0  0  0  0  0
  -25.7602   -0.5482  -12.2327 N   0  0  0  0  0  0  0  0  0  0  0  0
  -25.9200   -1.1160  -10.9819 C   0  0  0  0  0  0  0  0  0  0  0  0
  -24.9959   -1.3785  -10.2202 O   0  0  0  0  0  0  0  0  0  0  0  0
  -27.2458   -1.3885  -10.6679 N   0  0  0  0  0  0  0  0  0  0  0  0
  -26.5804   -0.1714  -12.6840 H   0  0  0  0  0  0  0  0  0  0  0  0
  -27.8265   -1.6505  -11.4499 H   0  0  0  0  0  0  0  0  0  0  0  0
  -20.7179    0.6577  -14.7077 C   0  0  0  0  0  0  0  0  0  0  0  0
  -22.0353    0.3412  -14.0668 C   0  0  0  0  0  0  0  0  0  0  0  0
  -22.4567   -0.9793  -13.9602 C   0  0  0  0  0  0  0  0  0  0  0  0
  -23.6796   -1.2841  -13.3633 C   0  0  0  0  0  0  0  0  0  0  0  0
  -24.5090   -0.2827  -12.8468 C   0  0  0  0  0  0  0  0  0  0  0  0
  -24.0884    1.0455  -12.9581 C   0  0  0  0  0  0  0  0  0  0  0  0
  -22.8588    1.3550  -13.5627 C   0  0  0  0  0  0  0  0  0  0  0  0
 26 27  1  0  0  0
 27 28  1  0  0  0
 27 32  2  0  0  0
 28 29  2  0  0  0
 29 30  1  0  0  0
 30 20  1  0  0  0
 30 31  2  0  0  0
 20 21  1  0  0  0
 20 24  1  0  0  0
 21 22  2  0  0  0
 21 23  1  0  0  0
 23  1  1  0  0  0
 23 25  1  0  0  0
  1  2  1  0  0  0
  1  6  2  0  0  0
  2  3  2  0  0  0
  3  4  1  0  0  0
  4  7  1  0  0  0
  4  5  2  0  0  0
  7  8  2  0  0  0
  7 17  1  0  0  0
  8  9  1  0  0  0
  8 10  1  0  0  0
 10 11  1  0  0  0
 11 12  1  0  0  0
 11 17  2  0  0  0
 12 13  2  0  0  0
 13 14  1  0  0  0
 14 15  2  0  0  0
 15 16  1  0  0  0
 15 17  1  0  0  0
 16 18  1  0  0  0
 16 19  1  0  0  0
  5  6  1  0  0  0
 31 32  1  0  0  0
M  END
> <minimizedAffinity>
-9.60722

$$$$
