CHEMBL4294551


 26 29  0  0  0  0  0  0  0  0999 V2000
  -14.8467   -1.0721  -13.1420 C   0  0  0  0  0  0  0  0  0  0  0  0
  -15.6899   -0.2670  -12.4796 N   0  0  0  0  0  0  0  0  0  0  0  0
  -16.3250    0.6679  -13.2140 C   0  0  0  0  0  0  0  0  0  0  0  0
  -16.1453    0.8322  -14.5720 C   0  0  0  0  0  0  0  0  0  0  0  0
  -15.2119   -0.0122  -15.1512 C   0  0  0  0  0  0  0  0  0  0  0  0
  -14.5959   -0.9935  -14.4570 N   0  0  0  0  0  0  0  0  0  0  0  0
  -14.7608    0.1509  -16.4696 N   0  0  0  0  0  0  0  0  0  0  0  0
  -14.4076    1.3797  -16.9077 C   0  0  0  0  0  0  0  0  0  0  0  0
  -13.2590    1.6510  -17.5299 N   0  0  0  0  0  0  0  0  0  0  0  0
  -13.2719    2.9911  -17.6524 N   0  0  0  0  0  0  0  0  0  0  0  0
  -14.3923    3.5905  -17.1455 C   0  0  0  0  0  0  0  0  0  0  0  0
  -14.6111    5.0503  -17.1795 C   0  0  0  0  0  0  0  0  0  0  0  0
  -15.1583    2.5554  -16.6753 C   0  0  0  0  0  0  0  0  0  0  0  0
  -16.4647    2.6912  -16.2130 N   0  0  0  0  0  0  0  0  0  0  0  0
  -16.9233    1.8600  -15.3204 C   0  0  0  0  0  0  0  0  0  0  0  0
  -14.0525   -0.5548  -16.6408 H   0  0  0  0  0  0  0  0  0  0  0  0
  -12.4748    3.4356  -18.0969 H   0  0  0  0  0  0  0  0  0  0  0  0
  -18.4073    1.9594  -15.0529 C   0  0  0  0  0  0  0  0  0  0  0  0
  -18.9874    3.1306  -14.5474 C   0  0  0  0  0  0  0  0  0  0  0  0
  -20.3446    3.1570  -14.2089 C   0  0  0  0  0  0  0  0  0  0  0  0
  -21.1351    2.0110  -14.3466 C   0  0  0  0  0  0  0  0  0  0  0  0
  -22.5786    2.0143  -13.9376 C   0  0  0  0  0  0  0  0  0  0  0  0
  -20.5569    0.8430  -14.8555 C   0  0  0  0  0  0  0  0  0  0  0  0
  -19.2040    0.8165  -15.2041 C   0  0  0  0  0  0  0  0  0  0  0  0
  -15.3001   -2.9345  -11.1842 C   0  0  0  0  0  0  0  0  0  0  0  0
  -13.9477   -2.2557  -12.1738 S   0  0  0  0  0  0  0  0  0  0  0  0
 25 26  1  0  0  0
 26  1  1  0  0  0
  1  2  1  0  0  0
  1  6  2  0  0  0
  2  3  2  0  0  0
  3  4  1  0  0  0
  4  5  2  0  0  0
  4 15  1  0  0  0
  5  6  1  0  0  0
  5  7  1  0  0  0
  7  8  1  0  0  0
  7 16  1  0  0  0
  8  9  2  0  0  0
  8 13  1  0  0  0
  9 10  1  0  0  0
 10 11  1  0  0  0
 10 17  1  0  0  0
 11 12  1  0  0  0
 11 13  2  0  0  0
 13 14  1  0  0  0
 14 15  2  0  0  0
 15 18  1  0  0  0
 18 19  1  0  0  0
 18 24  2  0  0  0
 19 20  2  0  0  0
 20 21  1  0  0  0
 21 22  1  0  0  0
 21 23  2  0  0  0
 23 24  1  0  0  0
M  END
> <minimizedAffinity>
-7.76381

$$$$
