CHEMBL4083278


 42 46  0  0  0  0  0  0  0  0999 V2000
  -23.2034   -0.8022  -13.2418 C   0  0  0  0  0  0  0  0  0  0  0  0
  -23.0488   -0.9374  -11.8668 C   0  0  0  0  0  0  0  0  0  0  0  0
  -24.0619   -1.4889  -11.1003 C   0  0  0  0  0  0  0  0  0  0  0  0
  -25.2758   -1.8756  -11.6660 C   0  0  0  0  0  0  0  0  0  0  0  0
  -25.5210   -1.5604  -13.0522 C   0  0  0  0  0  0  0  0  0  0  0  0
  -26.7752   -1.7707  -13.6976 C   0  0  0  0  0  0  0  0  0  0  0  0
  -26.9802   -1.4444  -15.0425 C   0  0  0  0  0  0  0  0  0  0  0  0
  -25.9355   -0.9314  -15.7964 C   0  0  0  0  0  0  0  0  0  0  0  0
  -24.6885   -0.7377  -15.2041 C   0  0  0  0  0  0  0  0  0  0  0  0
  -24.4605   -1.0282  -13.8418 C   0  0  0  0  0  0  0  0  0  0  0  0
  -26.2271   -2.5985  -10.8754 N   0  0  0  0  0  0  0  0  0  0  0  0
  -26.7792   -2.1594   -9.6727 C   0  0  0  0  0  0  0  0  0  0  0  0
  -26.5775   -1.0720   -9.1422 O   0  0  0  0  0  0  0  0  0  0  0  0
  -27.5661   -3.1334   -9.0661 N   0  0  0  0  0  0  0  0  0  0  0  0
  -26.4257   -3.5484  -11.1406 H   0  0  0  0  0  0  0  0  0  0  0  0
  -27.2492   -4.0793   -9.2177 H   0  0  0  0  0  0  0  0  0  0  0  0
  -28.1890   -2.8822   -7.8170 C   0  0  0  0  0  0  0  0  0  0  0  0
  -28.7221   -3.9561   -7.1108 C   0  0  0  0  0  0  0  0  0  0  0  0
  -29.2855   -3.7481   -5.8497 C   0  0  0  0  0  0  0  0  0  0  0  0
  -29.3752   -2.4606   -5.3034 C   0  0  0  0  0  0  0  0  0  0  0  0
  -30.1083   -2.3454   -3.7451 Cl  0  0  0  0  0  0  0  0  0  0  0  0
  -28.8862   -1.3590   -6.0119 C   0  0  0  0  0  0  0  0  0  0  0  0
  -28.2769   -1.5930   -7.2689 C   0  0  0  0  0  0  0  0  0  0  0  0
  -28.9634    0.0665   -5.5275 C   0  0  0  0  0  0  0  0  0  0  0  0
  -30.2061    0.5461   -5.2478 F   0  0  0  0  0  0  0  0  0  0  0  0
  -28.2338    0.2746   -4.3959 F   0  0  0  0  0  0  0  0  0  0  0  0
  -28.4549    0.9382   -6.4514 F   0  0  0  0  0  0  0  0  0  0  0  0
  -22.1258   -0.3948  -14.0154 O   0  0  0  0  0  0  0  0  0  0  0  0
  -18.1127    2.5542  -15.0409 C   0  0  0  0  0  0  0  0  0  0  0  0
  -19.2642    3.3472  -14.8968 C   0  0  0  0  0  0  0  0  0  0  0  0
  -20.5047    2.8141  -14.5874 C   0  0  0  0  0  0  0  0  0  0  0  0
  -21.5131    3.6606  -14.3552 N   0  0  0  0  0  0  0  0  0  0  0  0
  -22.6741    3.1241  -13.9679 C   0  0  0  0  0  0  0  0  0  0  0  0
  -22.9161    1.8246  -13.8048 N   0  0  0  0  0  0  0  0  0  0  0  0
  -21.9048    0.9867  -14.1168 C   0  0  0  0  0  0  0  0  0  0  0  0
  -20.6354    1.4278  -14.5025 C   0  0  0  0  0  0  0  0  0  0  0  0
  -19.5191    0.6109  -14.7869 C   0  0  0  0  0  0  0  0  0  0  0  0
  -18.2510    1.1609  -15.0320 C   0  0  0  0  0  0  0  0  0  0  0  0
  -16.6026    3.6787  -16.4896 C   0  0  0  0  0  0  0  0  0  0  0  0
  -16.8773    3.1293  -15.1952 O   0  0  0  0  0  0  0  0  0  0  0  0
  -17.3105    0.1852  -15.1980 O   0  0  0  0  0  0  0  0  0  0  0  0
  -16.3833   -0.1100  -14.1681 C   0  0  0  0  0  0  0  0  0  0  0  0
 39 40  1  0  0  0
 40 29  1  0  0  0
 29 30  1  0  0  0
 29 38  2  0  0  0
 30 31  2  0  0  0
 31 32  1  0  0  0
 31 36  1  0  0  0
 32 33  2  0  0  0
 33 34  1  0  0  0
 34 35  2  0  0  0
 35 28  1  0  0  0
 35 36  1  0  0  0
 28  1  1  0  0  0
  1  2  1  0  0  0
  1 10  2  0  0  0
  2  3  2  0  0  0
  3  4  1  0  0  0
  4 11  1  0  0  0
  4  5  2  0  0  0
 11 12  1  0  0  0
 11 15  1  0  0  0
 12 13  2  0  0  0
 12 14  1  0  0  0
 14 17  1  0  0  0
 14 16  1  0  0  0
 17 18  1  0  0  0
 17 23  2  0  0  0
 18 19  2  0  0  0
 19 20  1  0  0  0
 20 21  1  0  0  0
 20 22  2  0  0  0
 22 24  1  0  0  0
 22 23  1  0  0  0
 24 25  1  0  0  0
 24 26  1  0  0  0
 24 27  1  0  0  0
  5  6  1  0  0  0
  5 10  1  0  0  0
  6  7  2  0  0  0
  7  8  1  0  0  0
  8  9  2  0  0  0
  9 10  1  0  0  0
 36 37  2  0  0  0
 37 38  1  0  0  0
 38 41  1  0  0  0
 41 42  1  0  0  0
M  END
> <minimizedAffinity>
-12.67514

$$$$
