CHEMBL241466


 33 36  0  0  0  0  0  0  0  0999 V2000
  -30.2698   -3.0817   -3.8446 C   0  0  0  0  0  0  0  0  0  0  0  0
  -29.5918   -2.5558   -5.0057 N   0  0  0  0  0  0  0  0  0  0  0  0
  -29.3756   -1.2307   -5.2546 C   0  0  0  0  0  0  0  0  0  0  0  0
  -28.6366   -1.0575   -6.3261 N   0  0  0  0  0  0  0  0  0  0  0  0
  -28.4107   -2.3121   -6.8019 C   0  0  0  0  0  0  0  0  0  0  0  0
  -28.9616   -3.2832   -5.9928 C   0  0  0  0  0  0  0  0  0  0  0  0
  -28.9118   -4.7223   -6.0757 C   0  0  0  0  0  0  0  0  0  0  0  0
  -28.2666   -5.3900   -5.2707 O   0  0  0  0  0  0  0  0  0  0  0  0
  -29.5783   -5.2397   -7.1762 N   0  0  0  0  0  0  0  0  0  0  0  0
  -29.8575   -4.5580   -7.8744 H   0  0  0  0  0  0  0  0  0  0  0  0
  -29.7319   -6.6032   -7.4993 C   0  0  0  0  0  0  0  0  0  0  0  0
  -28.7231   -7.3571   -8.0942 C   0  0  0  0  0  0  0  0  0  0  0  0
  -28.9442   -8.6882   -8.4565 C   0  0  0  0  0  0  0  0  0  0  0  0
  -30.1839   -9.2946   -8.2226 C   0  0  0  0  0  0  0  0  0  0  0  0
  -31.1813   -8.5532   -7.5726 C   0  0  0  0  0  0  0  0  0  0  0  0
  -30.9533   -7.2202   -7.2019 C   0  0  0  0  0  0  0  0  0  0  0  0
  -30.4489  -10.7076   -8.6831 C   0  0  0  0  0  0  0  0  0  0  0  0
  -31.7700  -11.0420   -8.6842 F   0  0  0  0  0  0  0  0  0  0  0  0
  -30.0046  -10.9386   -9.9496 F   0  0  0  0  0  0  0  0  0  0  0  0
  -29.8336  -11.6335   -7.8958 F   0  0  0  0  0  0  0  0  0  0  0  0
  -27.7102   -2.5298   -7.9256 N   0  0  0  0  0  0  0  0  0  0  0  0
  -27.3876   -3.4578   -8.1795 H   0  0  0  0  0  0  0  0  0  0  0  0
  -27.4850   -1.4548   -8.8784 C   0  0  0  0  0  0  0  0  0  0  0  0
  -27.9463   -1.8807  -10.2746 C   0  0  0  0  0  0  0  0  0  0  0  0
  -26.8805   -1.6647  -11.3201 C   0  0  0  0  0  0  0  0  0  0  0  0
  -27.1957   -1.7935  -12.6914 C   0  0  0  0  0  0  0  0  0  0  0  0
  -26.2207   -1.5964  -13.6743 C   0  0  0  0  0  0  0  0  0  0  0  0
  -24.9479   -1.2719  -13.2595 C   0  0  0  0  0  0  0  0  0  0  0  0
  -24.6343   -1.1334  -11.9287 C   0  0  0  0  0  0  0  0  0  0  0  0
  -25.5749   -1.3161  -10.9369 C   0  0  0  0  0  0  0  0  0  0  0  0
  -23.3274   -0.8111  -11.7339 O   0  0  0  0  0  0  0  0  0  0  0  0
  -22.8468   -0.7998  -13.0946 C   0  0  0  0  0  0  0  0  0  0  0  0
  -23.8778   -1.0566  -14.0703 O   0  0  0  0  0  0  0  0  0  0  0  0
  1  2  1  0  0  0
  2  3  1  0  0  0
  2  6  1  0  0  0
  3  4  2  0  0  0
  4  5  1  0  0  0
  5 21  1  0  0  0
  5  6  2  0  0  0
 21 23  1  0  0  0
 21 22  1  0  0  0
 23 24  1  0  0  0
 24 25  1  0  0  0
 25 26  1  0  0  0
 25 30  2  0  0  0
 26 27  2  0  0  0
 27 28  1  0  0  0
 28 29  2  0  0  0
 28 33  1  0  0  0
 29 30  1  0  0  0
 29 31  1  0  0  0
 31 32  1  0  0  0
 32 33  1  0  0  0
  6  7  1  0  0  0
  7  8  2  0  0  0
  7  9  1  0  0  0
  9 11  1  0  0  0
  9 10  1  0  0  0
 11 12  1  0  0  0
 11 16  2  0  0  0
 12 13  2  0  0  0
 13 14  1  0  0  0
 14 17  1  0  0  0
 14 15  2  0  0  0
 17 18  1  0  0  0
 17 19  1  0  0  0
 17 20  1  0  0  0
 15 16  1  0  0  0
M  END
> <minimizedAffinity>
-9.29871

$$$$
