CHEMBL1968590


 29 32  0  0  0  0  0  0  0  0999 V2000
  -29.0134   -8.0852   -5.8284 C   0  0  0  0  0  0  0  0  0  0  0  0
  -28.7861   -8.0429   -7.1876 C   0  0  0  0  0  0  0  0  0  0  0  0
  -28.5932   -6.9230   -7.8975 N   0  0  0  0  0  0  0  0  0  0  0  0
  -28.6393   -5.7172   -7.2946 C   0  0  0  0  0  0  0  0  0  0  0  0
  -28.4059   -4.6788   -8.1635 N   0  0  0  0  0  0  0  0  0  0  0  0
  -28.8926   -5.6178   -5.8911 C   0  0  0  0  0  0  0  0  0  0  0  0
  -28.9858   -4.4700   -4.9726 C   0  0  0  0  0  0  0  0  0  0  0  0
  -29.2558   -4.8740   -3.6792 C   0  0  0  0  0  0  0  0  0  0  0  0
  -29.3863   -6.5456   -3.5079 S   0  0  0  0  0  0  0  0  0  0  0  0
  -29.0854   -6.8287   -5.1877 C   0  0  0  0  0  0  0  0  0  0  0  0
  -28.2702   -4.9509   -9.1266 H   0  0  0  0  0  0  0  0  0  0  0  0
  -28.6480   -3.7270   -7.9559 H   0  0  0  0  0  0  0  0  0  0  0  0
  -28.8245   -3.0298   -5.2263 C   0  0  0  0  0  0  0  0  0  0  0  0
  -27.5646   -2.4239   -5.1058 C   0  0  0  0  0  0  0  0  0  0  0  0
  -27.3717   -1.0623   -5.3603 C   0  0  0  0  0  0  0  0  0  0  0  0
  -28.4920   -0.2907   -5.6868 C   0  0  0  0  0  0  0  0  0  0  0  0
  -28.5845    1.3921   -6.0128 S   0  0  0  0  0  0  0  0  0  0  0  0
  -30.2759    1.2515   -6.2571 C   0  0  0  0  0  0  0  0  0  0  0  0
  -31.0742    2.4520   -6.6232 C   0  0  0  0  0  0  0  0  0  0  0  0
  -30.7747    0.0422   -6.1207 N   0  0  0  0  0  0  0  0  0  0  0  0
  -29.7607   -0.8516   -5.8168 C   0  0  0  0  0  0  0  0  0  0  0  0
  -29.9056   -2.2438   -5.6454 C   0  0  0  0  0  0  0  0  0  0  0  0
  -28.2141  -10.0443   -4.5296 C   0  0  0  0  0  0  0  0  0  0  0  0
  -29.2144   -9.3272   -5.0724 C   0  0  0  0  0  0  0  0  0  0  0  0
  -30.3352  -12.4657   -2.6289 C   0  0  0  0  0  0  0  0  0  0  0  0
  -29.8483  -11.3344   -3.3756 N   0  0  0  0  0  0  0  0  0  0  0  0
  -28.5350  -11.2732   -3.7734 C   0  0  0  0  0  0  0  0  0  0  0  0
  -27.7030  -12.1444   -3.5305 O   0  0  0  0  0  0  0  0  0  0  0  0
  -30.4922  -10.5928   -3.6052 H   0  0  0  0  0  0  0  0  0  0  0  0
 25 26  1  0  0  0
 26 27  1  0  0  0
 26 29  1  0  0  0
 27 28  2  0  0  0
 27 23  1  0  0  0
 23 24  2  0  0  0
 24  1  1  0  0  0
  1  2  1  0  0  0
  1 10  2  0  0  0
  2  3  2  0  0  0
  3  4  1  0  0  0
  4  5  1  0  0  0
  4  6  2  0  0  0
  5 11  1  0  0  0
  5 12  1  0  0  0
  6  7  1  0  0  0
  6 10  1  0  0  0
  7 13  1  0  0  0
  7  8  2  0  0  0
 13 14  1  0  0  0
 13 22  2  0  0  0
 14 15  2  0  0  0
 15 16  1  0  0  0
 16 17  1  0  0  0
 16 21  2  0  0  0
 17 18  1  0  0  0
 18 19  1  0  0  0
 18 20  2  0  0  0
 20 21  1  0  0  0
 21 22  1  0  0  0
  8  9  1  0  0  0
  9 10  1  0  0  0
M  END
> <minimizedAffinity>
-7.03782

$$$$
