CHEMBL3981207


 32 35  0  0  0  0  0  0  0  0999 V2000
  -29.3073   -6.3277   -4.9199 N   0  0  0  0  0  0  0  0  0  0  0  0
  -28.9850   -5.0011   -5.3229 C   0  0  0  0  0  0  0  0  0  0  0  0
  -29.0955   -3.8846   -4.4829 C   0  0  0  0  0  0  0  0  0  0  0  0
  -28.6980   -2.6093   -4.8930 C   0  0  0  0  0  0  0  0  0  0  0  0
  -28.2977   -2.3772   -6.1911 C   0  0  0  0  0  0  0  0  0  0  0  0
  -27.9803   -1.1250   -6.5624 N   0  0  0  0  0  0  0  0  0  0  0  0
  -27.6482   -0.9595   -7.8616 C   0  0  0  0  0  0  0  0  0  0  0  0
  -27.6274   -2.0038   -8.7696 C   0  0  0  0  0  0  0  0  0  0  0  0
  -27.9347   -3.2716   -8.3930 N   0  0  0  0  0  0  0  0  0  0  0  0
  -28.2637   -3.4598   -7.1005 C   0  0  0  0  0  0  0  0  0  0  0  0
  -28.5726   -4.7401   -6.6435 C   0  0  0  0  0  0  0  0  0  0  0  0
  -27.2312   -1.8042  -10.1533 C   0  0  0  0  0  0  0  0  0  0  0  0
  -27.9888   -1.6748  -11.3318 C   0  0  0  0  0  0  0  0  0  0  0  0
  -27.2368   -1.4497  -12.4133 N   0  0  0  0  0  0  0  0  0  0  0  0
  -25.9791   -1.4177  -11.9154 N   0  0  0  0  0  0  0  0  0  0  0  0
  -24.8693   -1.1191  -12.7805 C   0  0  0  0  0  0  0  0  0  0  0  0
  -25.9190   -1.6498  -10.5751 C   0  0  0  0  0  0  0  0  0  0  0  0
  -29.0559   -7.5162   -5.7301 C   0  0  0  0  0  0  0  0  0  0  0  0
  -29.8849   -7.8383   -6.8748 C   0  0  0  0  0  0  0  0  0  0  0  0
  -31.3548   -6.9415   -7.1636 Cl  0  0  0  0  0  0  0  0  0  0  0  0
  -29.5472   -8.8948   -7.7597 C   0  0  0  0  0  0  0  0  0  0  0  0
  -28.4331   -9.6955   -7.4891 C   0  0  0  0  0  0  0  0  0  0  0  0
  -27.6417   -9.4695   -6.3725 C   0  0  0  0  0  0  0  0  0  0  0  0
  -27.9302   -8.3768   -5.5154 C   0  0  0  0  0  0  0  0  0  0  0  0
  -26.7142   -8.0866   -4.2929 Cl  0  0  0  0  0  0  0  0  0  0  0  0
  -30.0977   -9.2427   -8.9679 O   0  0  0  0  0  0  0  0  0  0  0  0
  -29.3795  -10.0446   -9.8903 C   0  0  0  0  0  0  0  0  0  0  0  0
  -26.5476  -10.2349   -6.0473 O   0  0  0  0  0  0  0  0  0  0  0  0
  -25.6035  -10.5599   -7.0567 C   0  0  0  0  0  0  0  0  0  0  0  0
  -30.1085   -6.5295   -3.6673 C   0  0  0  0  0  0  0  0  0  0  0  0
  -32.3830   -5.1105   -3.3734 C   0  0  0  0  0  0  0  0  0  0  0  0
  -31.3755   -5.7598   -3.5149 C   0  0  0  0  0  0  0  0  0  0  0  0
 31 32  3  0  0  0
 32 30  1  0  0  0
 30  1  1  0  0  0
  1  2  1  0  0  0
  1 18  1  0  0  0
  2  3  1  0  0  0
  2 11  2  0  0  0
  3  4  2  0  0  0
  4  5  1  0  0  0
  5  6  1  0  0  0
  5 10  2  0  0  0
  6  7  2  0  0  0
  7  8  1  0  0  0
  8 12  1  0  0  0
  8  9  2  0  0  0
 12 13  1  0  0  0
 12 17  2  0  0  0
 13 14  2  0  0  0
 14 15  1  0  0  0
 15 16  1  0  0  0
 15 17  1  0  0  0
  9 10  1  0  0  0
 10 11  1  0  0  0
 18 19  1  0  0  0
 18 24  2  0  0  0
 19 20  1  0  0  0
 19 21  2  0  0  0
 21 26  1  0  0  0
 21 22  1  0  0  0
 26 27  1  0  0  0
 22 23  2  0  0  0
 23 28  1  0  0  0
 23 24  1  0  0  0
 28 29  1  0  0  0
 24 25  1  0  0  0
M  END
> <minimizedAffinity>
-8.05994

$$$$
