CHEMBL356626


 35 40  0  0  0  0  0  0  0  0999 V2000
  -12.1864   -2.9258  -17.4624 C   0  0  0  0  0  0  0  0  0  0  0  0
  -11.1957   -3.8835  -17.6914 C   0  0  0  0  0  0  0  0  0  0  0  0
  -10.9534   -4.9002  -16.7717 C   0  0  0  0  0  0  0  0  0  0  0  0
  -11.7255   -4.9015  -15.6082 C   0  0  0  0  0  0  0  0  0  0  0  0
  -12.7948   -4.0133  -15.4115 C   0  0  0  0  0  0  0  0  0  0  0  0
  -13.0341   -3.0176  -16.3456 C   0  0  0  0  0  0  0  0  0  0  0  0
  -13.3709   -4.5039  -14.2533 C   0  0  0  0  0  0  0  0  0  0  0  0
  -14.6797   -4.4009  -13.8042 C   0  0  0  0  0  0  0  0  0  0  0  0
  -15.0927   -5.4642  -12.8611 C   0  0  0  0  0  0  0  0  0  0  0  0
  -14.1014   -6.3662  -12.3943 C   0  0  0  0  0  0  0  0  0  0  0  0
  -12.9285   -5.6263  -12.2832 C   0  0  0  0  0  0  0  0  0  0  0  0
  -12.4976   -5.2468  -13.5148 C   0  0  0  0  0  0  0  0  0  0  0  0
  -11.7702   -5.8346  -14.5697 N   0  0  0  0  0  0  0  0  0  0  0  0
  -12.2942   -5.9173  -10.9987 C   0  0  0  0  0  0  0  0  0  0  0  0
  -12.4155   -7.4015  -11.1176 C   0  0  0  0  0  0  0  0  0  0  0  0
  -11.2420   -8.1580  -11.0482 C   0  0  0  0  0  0  0  0  0  0  0  0
  -11.1823   -9.3011  -11.8113 C   0  0  0  0  0  0  0  0  0  0  0  0
  -12.3258   -9.6994  -12.5293 C   0  0  0  0  0  0  0  0  0  0  0  0
  -13.5384   -8.9217  -12.5644 C   0  0  0  0  0  0  0  0  0  0  0  0
  -13.6108   -7.6918  -11.8865 C   0  0  0  0  0  0  0  0  0  0  0  0
  -16.1544   -4.8230  -12.0908 C   0  0  0  0  0  0  0  0  0  0  0  0
  -16.7249   -5.1354  -11.0521 O   0  0  0  0  0  0  0  0  0  0  0  0
  -16.3324   -3.5365  -12.6560 N   0  0  0  0  0  0  0  0  0  0  0  0
  -15.4569   -3.1760  -13.7481 C   0  0  0  0  0  0  0  0  0  0  0  0
  -16.7198   -2.8215  -12.0526 H   0  0  0  0  0  0  0  0  0  0  0  0
  -12.3592   -1.7745  -18.4032 C   0  0  0  0  0  0  0  0  0  0  0  0
  -13.3952   -2.1338  -19.3120 O   0  0  0  0  0  0  0  0  0  0  0  0
  -12.8591   -2.5074  -20.5702 C   0  0  0  0  0  0  0  0  0  0  0  0
  -14.4488   -4.3171  -19.9419 C   0  0  0  0  0  0  0  0  0  0  0  0
  -13.3871   -3.8852  -20.9360 C   0  0  0  0  0  0  0  0  0  0  0  0
  -11.5268   -7.2426  -14.8543 C   0  0  0  0  0  0  0  0  0  0  0  0
  -12.3645   -7.9404  -15.9673 C   0  0  0  0  0  0  0  0  0  0  0  0
  -13.8594   -7.6244  -16.0204 C   0  0  0  0  0  0  0  0  0  0  0  0
  -14.3668   -7.8965  -17.3295 O   0  0  0  0  0  0  0  0  0  0  0  0
  -14.0207   -7.2235  -17.9399 H   0  0  0  0  0  0  0  0  0  0  0  0
 29 30  1  0  0  0
 30 28  1  0  0  0
 28 27  1  0  0  0
 27 26  1  0  0  0
 26  1  1  0  0  0
  1  2  1  0  0  0
  1  6  2  0  0  0
  2  3  2  0  0  0
  3  4  1  0  0  0
  4  5  2  0  0  0
  4 13  1  0  0  0
  5  6  1  0  0  0
  5  7  1  0  0  0
  7  8  1  0  0  0
  7 12  2  0  0  0
  8  9  2  0  0  0
  8 24  1  0  0  0
  9 10  1  0  0  0
  9 21  1  0  0  0
 10 11  2  0  0  0
 10 20  1  0  0  0
 11 12  1  0  0  0
 11 14  1  0  0  0
 12 13  1  0  0  0
 13 31  1  0  0  0
 31 32  1  0  0  0
 32 33  1  0  0  0
 33 34  1  0  0  0
 34 35  1  0  0  0
 14 15  1  0  0  0
 15 16  1  0  0  0
 15 20  2  0  0  0
 16 17  2  0  0  0
 17 18  1  0  0  0
 18 19  2  0  0  0
 19 20  1  0  0  0
 21 22  2  0  0  0
 21 23  1  0  0  0
 23 24  1  0  0  0
 23 25  1  0  0  0
M  END
> <minimizedAffinity>
-6.71216

$$$$
