CHEMBL240643


 28 30  0  0  0  0  0  0  0  0999 V2000
  -13.6160    1.4175  -15.0685 C   0  0  0  0  0  0  0  0  0  0  0  0
  -13.7063    0.7456  -13.8478 C   0  0  0  0  0  0  0  0  0  0  0  0
  -13.1498    1.6213  -12.8876 C   0  0  0  0  0  0  0  0  0  0  0  0
  -12.7792    2.7775  -13.4133 N   0  0  0  0  0  0  0  0  0  0  0  0
  -13.1211    2.6727  -14.7101 N   0  0  0  0  0  0  0  0  0  0  0  0
  -12.9427    3.8634  -15.4967 C   0  0  0  0  0  0  0  0  0  0  0  0
  -15.4379    0.7545  -16.6008 N   0  0  0  0  0  0  0  0  0  0  0  0
  -14.0905    0.9705  -16.3695 C   0  0  0  0  0  0  0  0  0  0  0  0
  -13.3140    0.6884  -17.2848 O   0  0  0  0  0  0  0  0  0  0  0  0
  -15.6184    0.1084  -17.3639 H   0  0  0  0  0  0  0  0  0  0  0  0
  -18.9984    2.1733  -14.8937 C   0  0  0  0  0  0  0  0  0  0  0  0
  -18.5225    0.8893  -14.5746 C   0  0  0  0  0  0  0  0  0  0  0  0
  -17.3074    0.4270  -15.0792 C   0  0  0  0  0  0  0  0  0  0  0  0
  -16.5365    1.2552  -15.8920 C   0  0  0  0  0  0  0  0  0  0  0  0
  -16.9309    2.5780  -16.1190 C   0  0  0  0  0  0  0  0  0  0  0  0
  -18.1815    3.0175  -15.6625 C   0  0  0  0  0  0  0  0  0  0  0  0
  -21.0383    3.4903  -15.3810 C   0  0  0  0  0  0  0  0  0  0  0  0
  -20.3468    2.6037  -14.3399 C   0  0  0  0  0  0  0  0  0  0  0  0
  -21.2752    1.4725  -13.8956 C   0  0  0  0  0  0  0  0  0  0  0  0
  -14.1965   -0.4917  -13.6166 N   0  0  0  0  0  0  0  0  0  0  0  0
  -14.2445   -1.1664  -14.3762 H   0  0  0  0  0  0  0  0  0  0  0  0
  -15.1658   -0.7376  -12.5460 C   0  0  0  0  0  0  0  0  0  0  0  0
  -15.6241   -2.1782  -12.4981 C   0  0  0  0  0  0  0  0  0  0  0  0
  -15.8607   -2.7865  -11.2587 C   0  0  0  0  0  0  0  0  0  0  0  0
  -16.2977   -4.1028  -11.2290 C   0  0  0  0  0  0  0  0  0  0  0  0
  -16.5277   -4.8422  -12.3329 N   0  0  0  0  0  0  0  0  0  0  0  0
  -16.3276   -4.2309  -13.5197 C   0  0  0  0  0  0  0  0  0  0  0  0
  -15.9002   -2.9193  -13.6516 C   0  0  0  0  0  0  0  0  0  0  0  0
 17 18  1  0  0  0
 18 19  1  0  0  0
 18 11  1  0  0  0
 11 12  1  0  0  0
 11 16  2  0  0  0
 12 13  2  0  0  0
 13 14  1  0  0  0
 14  7  1  0  0  0
 14 15  2  0  0  0
  7  8  1  0  0  0
  7 10  1  0  0  0
  8  9  2  0  0  0
  8  1  1  0  0  0
  1  2  2  0  0  0
  1  5  1  0  0  0
  2 20  1  0  0  0
  2  3  1  0  0  0
 20 22  1  0  0  0
 20 21  1  0  0  0
 22 23  1  0  0  0
 23 24  1  0  0  0
 23 28  2  0  0  0
 24 25  2  0  0  0
 25 26  1  0  0  0
 26 27  2  0  0  0
 27 28  1  0  0  0
  3  4  2  0  0  0
  4  5  1  0  0  0
  5  6  1  0  0  0
 15 16  1  0  0  0
M  END
> <minimizedAffinity>
-7.74647

$$$$
