CHEMBL212985


 40 45  0  0  0  0  0  0  0  0999 V2000
  -23.4601   -0.5834  -14.3661 C   0  0  0  0  0  0  0  0  0  0  0  0
  -24.4573   -0.7759  -15.2395 N   0  0  0  0  0  0  0  0  0  0  0  0
  -25.1481   -1.8393  -14.7440 N   0  0  0  0  0  0  0  0  0  0  0  0
  -24.6752   -2.3045  -13.5344 C   0  0  0  0  0  0  0  0  0  0  0  0
  -23.4331   -1.6398  -13.4191 C   0  0  0  0  0  0  0  0  0  0  0  0
  -23.0078   -1.5764  -11.9993 C   0  0  0  0  0  0  0  0  0  0  0  0
  -24.4385   -1.3330  -11.5519 C   0  0  0  0  0  0  0  0  0  0  0  0
  -24.9431   -0.0639  -11.2819 C   0  0  0  0  0  0  0  0  0  0  0  0
  -26.3146    0.0991  -11.1747 C   0  0  0  0  0  0  0  0  0  0  0  0
  -27.1222   -1.0450  -11.1630 C   0  0  0  0  0  0  0  0  0  0  0  0
  -26.6652   -2.1983  -11.8327 C   0  0  0  0  0  0  0  0  0  0  0  0
  -25.3236   -2.2339  -12.1913 C   0  0  0  0  0  0  0  0  0  0  0  0
  -25.9986   -2.1078  -15.2200 H   0  0  0  0  0  0  0  0  0  0  0  0
  -21.1581    2.6861  -14.0807 C   0  0  0  0  0  0  0  0  0  0  0  0
  -22.4043    3.0143  -13.5801 C   0  0  0  0  0  0  0  0  0  0  0  0
  -23.3318    1.9174  -13.6563 C   0  0  0  0  0  0  0  0  0  0  0  0
  -22.7613    0.7660  -14.1718 C   0  0  0  0  0  0  0  0  0  0  0  0
  -21.1630    1.0808  -14.7091 S   0  0  0  0  0  0  0  0  0  0  0  0
  -19.8431    3.3954  -13.9255 C   0  0  0  0  0  0  0  0  0  0  0  0
  -17.1744    3.1294  -16.3860 N   0  0  0  0  0  0  0  0  0  0  0  0
  -17.9056    2.9265  -15.2299 C   0  0  0  0  0  0  0  0  0  0  0  0
  -17.5778    2.1743  -14.3118 O   0  0  0  0  0  0  0  0  0  0  0  0
  -19.0794    3.6567  -15.1457 N   0  0  0  0  0  0  0  0  0  0  0  0
  -17.6462    3.5898  -17.1514 H   0  0  0  0  0  0  0  0  0  0  0  0
  -19.6132    3.7789  -15.9994 H   0  0  0  0  0  0  0  0  0  0  0  0
  -14.9582    4.9246  -17.3042 C   0  0  0  0  0  0  0  0  0  0  0  0
  -14.8110    3.4439  -17.0588 C   0  0  0  0  0  0  0  0  0  0  0  0
  -13.5328    2.8883  -17.2886 C   0  0  0  0  0  0  0  0  0  0  0  0
  -13.2823    1.5290  -17.1009 C   0  0  0  0  0  0  0  0  0  0  0  0
  -14.3056    0.7093  -16.6591 C   0  0  0  0  0  0  0  0  0  0  0  0
  -15.5724    1.2511  -16.4209 C   0  0  0  0  0  0  0  0  0  0  0  0
  -15.8584    2.6143  -16.6347 C   0  0  0  0  0  0  0  0  0  0  0  0
  -28.2661   -1.0389  -10.1593 C   0  0  0  0  0  0  0  0  0  0  0  0
  -27.9137   -1.7763   -8.9231 N   0  0  0  0  0  0  0  0  0  0  0  0
  -28.0491   -0.9814   -7.6810 C   0  0  0  0  0  0  0  0  0  0  0  0
  -27.5588   -1.7746   -6.4522 C   0  0  0  0  0  0  0  0  0  0  0  0
  -28.2722   -3.0417   -6.2242 N   0  0  0  0  0  0  0  0  0  0  0  0
  -29.6047   -2.8118   -5.6740 C   0  0  0  0  0  0  0  0  0  0  0  0
  -28.3132   -3.8043   -7.4908 C   0  0  0  0  0  0  0  0  0  0  0  0
  -28.7217   -3.0015   -8.7599 C   0  0  0  0  0  0  0  0  0  0  0  0
 26 27  1  0  0  0
 27 28  1  0  0  0
 27 32  2  0  0  0
 28 29  2  0  0  0
 29 30  1  0  0  0
 30 31  2  0  0  0
 31 32  1  0  0  0
 32 20  1  0  0  0
 20 21  1  0  0  0
 20 24  1  0  0  0
 21 22  2  0  0  0
 21 23  1  0  0  0
 23 19  1  0  0  0
 23 25  1  0  0  0
 19 14  1  0  0  0
 14 15  2  0  0  0
 14 18  1  0  0  0
 15 16  1  0  0  0
 16 17  2  0  0  0
 17  1  1  0  0  0
 17 18  1  0  0  0
  1  2  2  0  0  0
  1  5  1  0  0  0
  2  3  1  0  0  0
  3  4  1  0  0  0
  3 13  1  0  0  0
  4  5  2  0  0  0
  4 12  1  0  0  0
  5  6  1  0  0  0
  6  7  1  0  0  0
  7  8  1  0  0  0
  7 12  2  0  0  0
  8  9  2  0  0  0
  9 10  1  0  0  0
 10 33  1  0  0  0
 10 11  2  0  0  0
 33 34  1  0  0  0
 34 35  1  0  0  0
 34 40  1  0  0  0
 35 36  1  0  0  0
 36 37  1  0  0  0
 37 38  1  0  0  0
 37 39  1  0  0  0
 39 40  1  0  0  0
 11 12  1  0  0  0
M  END
> <minimizedAffinity>
-7.94005

$$$$
