CHEMBL3970244


 39 42  0  0  0  0  0  0  0  0999 V2000
  -24.8357   -1.2126  -12.8069 C   0  0  0  0  0  0  0  0  0  0  0  0
  -24.8019   -1.2083  -11.4071 C   0  0  0  0  0  0  0  0  0  0  0  0
  -25.9313   -1.5597  -10.6548 C   0  0  0  0  0  0  0  0  0  0  0  0
  -27.1177   -1.9095  -11.2954 C   0  0  0  0  0  0  0  0  0  0  0  0
  -27.1841   -1.7926  -12.6846 C   0  0  0  0  0  0  0  0  0  0  0  0
  -28.3282   -2.0244  -13.3450 F   0  0  0  0  0  0  0  0  0  0  0  0
  -26.0546   -1.4698  -13.4379 C   0  0  0  0  0  0  0  0  0  0  0  0
  -23.2540    1.2040  -13.1192 O   0  0  0  0  0  0  0  0  0  0  0  0
  -22.9689    0.1754  -13.7149 C   0  0  0  0  0  0  0  0  0  0  0  0
  -23.7052   -0.9985  -13.6336 N   0  0  0  0  0  0  0  0  0  0  0  0
  -21.8499    0.0241  -14.5280 N   0  0  0  0  0  0  0  0  0  0  0  0
  -23.2914   -1.8215  -14.0434 H   0  0  0  0  0  0  0  0  0  0  0  0
  -21.8166   -0.8005  -15.1109 H   0  0  0  0  0  0  0  0  0  0  0  0
  -20.8264    0.9853  -14.7288 C   0  0  0  0  0  0  0  0  0  0  0  0
  -21.0612    2.3576  -14.8161 C   0  0  0  0  0  0  0  0  0  0  0  0
  -20.0143    3.2365  -15.1083 C   0  0  0  0  0  0  0  0  0  0  0  0
  -18.7108    2.7655  -15.3020 C   0  0  0  0  0  0  0  0  0  0  0  0
  -17.5707    3.9113  -15.9062 Cl  0  0  0  0  0  0  0  0  0  0  0  0
  -18.4354    1.4072  -15.1145 C   0  0  0  0  0  0  0  0  0  0  0  0
  -19.5064    0.5273  -14.8552 C   0  0  0  0  0  0  0  0  0  0  0  0
  -17.2415    0.7618  -15.2599 O   0  0  0  0  0  0  0  0  0  0  0  0
  -16.3590    0.6146  -14.1540 C   0  0  0  0  0  0  0  0  0  0  0  0
  -16.8680    1.0395  -12.9821 F   0  0  0  0  0  0  0  0  0  0  0  0
  -16.0820   -0.7039  -14.0144 F   0  0  0  0  0  0  0  0  0  0  0  0
  -15.2002    1.2526  -14.4180 F   0  0  0  0  0  0  0  0  0  0  0  0
  -28.1579   -2.3062  -10.4811 O   0  0  0  0  0  0  0  0  0  0  0  0
  -28.0776   -2.0730   -9.1201 C   0  0  0  0  0  0  0  0  0  0  0  0
  -27.7103   -0.8608   -8.5558 C   0  0  0  0  0  0  0  0  0  0  0  0
  -27.5741   -0.8042   -7.1857 C   0  0  0  0  0  0  0  0  0  0  0  0
  -27.8524   -1.8381   -6.3731 N   0  0  0  0  0  0  0  0  0  0  0  0
  -28.2892   -2.9869   -6.9155 C   0  0  0  0  0  0  0  0  0  0  0  0
  -28.4278   -3.1420   -8.2899 C   0  0  0  0  0  0  0  0  0  0  0  0
  -28.6255   -4.0651   -6.0821 N   0  0  0  0  0  0  0  0  0  0  0  0
  -29.7873   -4.1387   -5.3390 C   0  0  0  0  0  0  0  0  0  0  0  0
  -30.6706   -3.2959   -5.2332 O   0  0  0  0  0  0  0  0  0  0  0  0
  -27.9763   -4.8330   -6.0332 H   0  0  0  0  0  0  0  0  0  0  0  0
  -29.9382   -5.4392   -4.6158 C   0  0  0  0  0  0  0  0  0  0  0  0
  -30.5618   -6.6076   -5.3465 C   0  0  0  0  0  0  0  0  0  0  0  0
  -31.3123   -5.9448   -4.2296 C   0  0  0  0  0  0  0  0  0  0  0  0
  8  9  2  0  0  0
  9 10  1  0  0  0
  9 11  1  0  0  0
 10  1  1  0  0  0
 10 12  1  0  0  0
  1  2  1  0  0  0
  1  7  2  0  0  0
  2  3  2  0  0  0
  3  4  1  0  0  0
  4 26  1  0  0  0
  4  5  2  0  0  0
 26 27  1  0  0  0
 27 28  1  0  0  0
 27 32  2  0  0  0
 28 29  2  0  0  0
 29 30  1  0  0  0
 30 31  2  0  0  0
 31 33  1  0  0  0
 31 32  1  0  0  0
 33 34  1  0  0  0
 33 36  1  0  0  0
 34 35  2  0  0  0
 34 37  1  0  0  0
 37 38  1  0  0  0
 37 39  1  0  0  0
 38 39  1  0  0  0
  5  6  1  0  0  0
  5  7  1  0  0  0
 11 14  1  0  0  0
 11 13  1  0  0  0
 14 15  1  0  0  0
 14 20  2  0  0  0
 15 16  2  0  0  0
 16 17  1  0  0  0
 17 18  1  0  0  0
 17 19  2  0  0  0
 19 21  1  0  0  0
 19 20  1  0  0  0
 21 22  1  0  0  0
 22 23  1  0  0  0
 22 24  1  0  0  0
 22 25  1  0  0  0
M  END
> <minimizedAffinity>
-10.58060

$$$$
