CHEMBL1173411


 37 40  0  0  0  0  0  0  0  0999 V2000
  -23.3193   -1.0160  -13.4905 C   0  0  0  0  0  0  0  0  0  0  0  0
  -22.9705   -1.1741  -12.1381 C   0  0  0  0  0  0  0  0  0  0  0  0
  -23.9530   -1.3815  -11.1669 C   0  0  0  0  0  0  0  0  0  0  0  0
  -25.2740   -1.4786  -11.5732 C   0  0  0  0  0  0  0  0  0  0  0  0
  -25.6169   -1.3364  -12.9169 C   0  0  0  0  0  0  0  0  0  0  0  0
  -24.6641   -1.0969  -13.8932 C   0  0  0  0  0  0  0  0  0  0  0  0
  -26.9964   -1.4738  -13.0753 N   0  0  0  0  0  0  0  0  0  0  0  0
  -27.6313   -1.7189  -11.8628 C   0  0  0  0  0  0  0  0  0  0  0  0
  -28.8216   -1.8676  -11.6665 O   0  0  0  0  0  0  0  0  0  0  0  0
  -26.5239   -1.7489  -10.8418 C   0  0  0  0  0  0  0  0  0  0  0  0
  -26.5162   -2.0132   -9.5286 C   0  0  0  0  0  0  0  0  0  0  0  0
  -27.4925   -1.3958  -13.9540 H   0  0  0  0  0  0  0  0  0  0  0  0
  -27.5635   -2.3937   -8.6502 C   0  0  0  0  0  0  0  0  0  0  0  0
  -28.3309   -3.5111   -8.8348 N   0  0  0  0  0  0  0  0  0  0  0  0
  -29.2550   -3.6110   -7.8190 C   0  0  0  0  0  0  0  0  0  0  0  0
  -29.0951   -2.5412   -6.9485 C   0  0  0  0  0  0  0  0  0  0  0  0
  -28.0083   -1.7651   -7.4896 C   0  0  0  0  0  0  0  0  0  0  0  0
  -27.4118   -0.5153   -6.9236 C   0  0  0  0  0  0  0  0  0  0  0  0
  -28.2256   -4.1784   -9.5959 H   0  0  0  0  0  0  0  0  0  0  0  0
  -29.8670   -2.2558   -5.7293 C   0  0  0  0  0  0  0  0  0  0  0  0
  -29.9196   -1.1591   -5.1922 O   0  0  0  0  0  0  0  0  0  0  0  0
  -30.5453   -3.3098   -5.2025 O   0  0  0  0  0  0  0  0  0  0  0  0
  -30.4043   -4.1294   -5.7058 H   0  0  0  0  0  0  0  0  0  0  0  0
  -20.4933    0.4566  -15.2241 N   0  0  0  0  0  0  0  0  0  0  0  0
  -21.5076    0.4030  -14.2803 C   0  0  0  0  0  0  0  0  0  0  0  0
  -21.7056    1.2295  -13.3977 O   0  0  0  0  0  0  0  0  0  0  0  0
  -22.2724   -0.7490  -14.4075 N   0  0  0  0  0  0  0  0  0  0  0  0
  -20.5662   -0.1775  -16.0105 H   0  0  0  0  0  0  0  0  0  0  0  0
  -21.7495   -1.5509  -14.7290 H   0  0  0  0  0  0  0  0  0  0  0  0
  -17.4120    3.3693  -15.3690 C   0  0  0  0  0  0  0  0  0  0  0  0
  -17.0963    2.0310  -15.1782 C   0  0  0  0  0  0  0  0  0  0  0  0
  -18.1064    1.0669  -15.1293 C   0  0  0  0  0  0  0  0  0  0  0  0
  -19.4514    1.4093  -15.2645 C   0  0  0  0  0  0  0  0  0  0  0  0
  -19.7703    2.7600  -15.4680 C   0  0  0  0  0  0  0  0  0  0  0  0
  -18.7557    3.7269  -15.5169 C   0  0  0  0  0  0  0  0  0  0  0  0
  -15.2484    4.0913  -16.0217 C   0  0  0  0  0  0  0  0  0  0  0  0
  -16.5070    4.3933  -15.4233 O   0  0  0  0  0  0  0  0  0  0  0  0
 36 37  1  0  0  0
 37 30  1  0  0  0
 30 31  1  0  0  0
 30 35  2  0  0  0
 31 32  2  0  0  0
 32 33  1  0  0  0
 33 24  1  0  0  0
 33 34  2  0  0  0
 24 25  1  0  0  0
 24 28  1  0  0  0
 25 26  2  0  0  0
 25 27  1  0  0  0
 27  1  1  0  0  0
 27 29  1  0  0  0
  1  2  1  0  0  0
  1  6  2  0  0  0
  2  3  2  0  0  0
  3  4  1  0  0  0
  4  5  2  0  0  0
  4 10  1  0  0  0
  5  6  1  0  0  0
  5  7  1  0  0  0
  7  8  1  0  0  0
  7 12  1  0  0  0
  8  9  2  0  0  0
  8 10  1  0  0  0
 10 11  2  0  0  0
 11 13  1  0  0  0
 13 14  1  0  0  0
 13 17  2  0  0  0
 14 15  1  0  0  0
 14 19  1  0  0  0
 15 16  2  0  0  0
 16 20  1  0  0  0
 16 17  1  0  0  0
 20 21  2  0  0  0
 20 22  1  0  0  0
 22 23  1  0  0  0
 17 18  1  0  0  0
 34 35  1  0  0  0
M  END
> <minimizedAffinity>
-9.78154

$$$$
