CHEMBL410841


 36 40  0  0  0  0  0  0  0  0999 V2000
  -27.3198   -1.7189  -10.4412 C   0  0  0  0  0  0  0  0  0  0  0  0
  -26.0148   -1.4360  -10.0665 C   0  0  0  0  0  0  0  0  0  0  0  0
  -25.0925   -1.0514  -11.0493 C   0  0  0  0  0  0  0  0  0  0  0  0
  -25.3576   -1.1748  -12.4402 C   0  0  0  0  0  0  0  0  0  0  0  0
  -24.4599   -0.8310  -13.5131 C   0  0  0  0  0  0  0  0  0  0  0  0
  -24.8837   -1.0044  -14.8475 C   0  0  0  0  0  0  0  0  0  0  0  0
  -26.1484   -1.4731  -15.1576 C   0  0  0  0  0  0  0  0  0  0  0  0
  -27.0373   -1.7817  -14.1302 C   0  0  0  0  0  0  0  0  0  0  0  0
  -26.6568   -1.6421  -12.7866 C   0  0  0  0  0  0  0  0  0  0  0  0
  -27.6218   -1.8987  -11.7888 C   0  0  0  0  0  0  0  0  0  0  0  0
  -23.0823   -0.2227  -13.3873 C   0  0  0  0  0  0  0  0  0  0  0  0
  -22.4631   -0.4074  -12.3513 O   0  0  0  0  0  0  0  0  0  0  0  0
  -22.6492    0.5938  -14.4205 N   0  0  0  0  0  0  0  0  0  0  0  0
  -23.3270    0.8432  -15.1220 H   0  0  0  0  0  0  0  0  0  0  0  0
  -21.4336    1.3150  -14.4570 C   0  0  0  0  0  0  0  0  0  0  0  0
  -21.2950    2.6469  -14.0568 C   0  0  0  0  0  0  0  0  0  0  0  0
  -20.0743    3.3110  -14.2208 C   0  0  0  0  0  0  0  0  0  0  0  0
  -18.9963    2.6365  -14.7791 C   0  0  0  0  0  0  0  0  0  0  0  0
  -17.8427    3.2849  -14.9844 F   0  0  0  0  0  0  0  0  0  0  0  0
  -19.0992    1.2972  -15.1309 C   0  0  0  0  0  0  0  0  0  0  0  0
  -20.3123    0.6309  -14.9515 C   0  0  0  0  0  0  0  0  0  0  0  0
  -28.3702   -1.7127   -9.5550 O   0  0  0  0  0  0  0  0  0  0  0  0
  -28.7155   -5.2930   -5.7059 C   0  0  0  0  0  0  0  0  0  0  0  0
  -28.2357   -4.0533   -5.2322 C   0  0  0  0  0  0  0  0  0  0  0  0
  -28.0528   -2.9326   -6.0168 C   0  0  0  0  0  0  0  0  0  0  0  0
  -27.7358   -1.7644   -5.4363 N   0  0  0  0  0  0  0  0  0  0  0  0
  -27.6130   -0.6675   -6.2125 C   0  0  0  0  0  0  0  0  0  0  0  0
  -27.8244   -0.6551   -7.5727 C   0  0  0  0  0  0  0  0  0  0  0  0
  -28.1520   -1.8587   -8.1887 C   0  0  0  0  0  0  0  0  0  0  0  0
  -28.2166   -3.0554   -7.4165 C   0  0  0  0  0  0  0  0  0  0  0  0
  -28.4793   -4.3593   -7.8849 C   0  0  0  0  0  0  0  0  0  0  0  0
  -28.8605   -5.4413   -7.0863 C   0  0  0  0  0  0  0  0  0  0  0  0
  -30.3874   -6.1670   -4.3126 C   0  0  0  0  0  0  0  0  0  0  0  0
  -29.0422   -6.2755   -4.8081 O   0  0  0  0  0  0  0  0  0  0  0  0
  -29.4061   -6.4000   -7.8728 O   0  0  0  0  0  0  0  0  0  0  0  0
  -28.7266   -7.5655   -8.2429 C   0  0  0  0  0  0  0  0  0  0  0  0
 33 34  1  0  0  0
 34 23  1  0  0  0
 23 24  1  0  0  0
 23 32  2  0  0  0
 24 25  2  0  0  0
 25 26  1  0  0  0
 25 30  1  0  0  0
 26 27  2  0  0  0
 27 28  1  0  0  0
 28 29  2  0  0  0
 29 22  1  0  0  0
 29 30  1  0  0  0
 22  1  1  0  0  0
  1  2  1  0  0  0
  1 10  2  0  0  0
  2  3  2  0  0  0
  3  4  1  0  0  0
  4  5  1  0  0  0
  4  9  2  0  0  0
  5 11  1  0  0  0
  5  6  2  0  0  0
 11 12  2  0  0  0
 11 13  1  0  0  0
 13 15  1  0  0  0
 13 14  1  0  0  0
 15 16  1  0  0  0
 15 21  2  0  0  0
 16 17  2  0  0  0
 17 18  1  0  0  0
 18 19  1  0  0  0
 18 20  2  0  0  0
 20 21  1  0  0  0
  6  7  1  0  0  0
  7  8  2  0  0  0
  8  9  1  0  0  0
  9 10  1  0  0  0
 30 31  2  0  0  0
 31 32  1  0  0  0
 32 35  1  0  0  0
 35 36  1  0  0  0
M  END
> <minimizedAffinity>
-11.55046

$$$$
