CHEMBL1997193


 25 27  0  0  0  0  0  0  0  0999 V2000
  -25.3430   -1.0335  -12.2904 C   0  0  0  0  0  0  0  0  0  0  0  0
  -25.7626   -1.1458  -10.8924 C   0  0  0  0  0  0  0  0  0  0  0  0
  -26.9617   -1.6544  -10.5729 C   0  0  0  0  0  0  0  0  0  0  0  0
  -27.7965   -2.0889  -11.5674 N   0  0  0  0  0  0  0  0  0  0  0  0
  -27.5051   -2.0209  -12.9045 C   0  0  0  0  0  0  0  0  0  0  0  0
  -28.3176   -2.4004  -13.7432 O   0  0  0  0  0  0  0  0  0  0  0  0
  -26.1727   -1.4570  -13.2749 C   0  0  0  0  0  0  0  0  0  0  0  0
  -28.7163   -2.4419  -11.3306 H   0  0  0  0  0  0  0  0  0  0  0  0
  -27.4456   -1.7447   -9.1884 C   0  0  0  0  0  0  0  0  0  0  0  0
  -27.7176   -0.5725   -8.4692 C   0  0  0  0  0  0  0  0  0  0  0  0
  -28.1327   -0.6518   -7.1385 C   0  0  0  0  0  0  0  0  0  0  0  0
  -28.4760    0.9331   -6.1661 Br  0  0  0  0  0  0  0  0  0  0  0  0
  -28.2868   -1.8885   -6.5120 C   0  0  0  0  0  0  0  0  0  0  0  0
  -28.0232   -3.0613   -7.2203 C   0  0  0  0  0  0  0  0  0  0  0  0
  -27.6037   -2.9849   -8.5492 C   0  0  0  0  0  0  0  0  0  0  0  0
  -27.3284   -4.1334   -9.2404 O   0  0  0  0  0  0  0  0  0  0  0  0
  -27.4508   -4.8985   -8.6544 H   0  0  0  0  0  0  0  0  0  0  0  0
  -21.6127    2.3349  -13.9723 C   0  0  0  0  0  0  0  0  0  0  0  0
  -22.3388    1.1506  -13.4300 C   0  0  0  0  0  0  0  0  0  0  0  0
  -21.8065   -0.0024  -12.8957 C   0  0  0  0  0  0  0  0  0  0  0  0
  -22.8147   -0.9084  -12.4580 C   0  0  0  0  0  0  0  0  0  0  0  0
  -24.0955   -0.4196  -12.6480 C   0  0  0  0  0  0  0  0  0  0  0  0
  -24.0501    1.1175  -13.4195 S   0  0  0  0  0  0  0  0  0  0  0  0
  -25.8667   -1.3789  -14.6629 C   0  0  0  0  0  0  0  0  0  0  0  0
  -25.6063   -1.2881  -15.7921 N   0  0  0  0  0  0  0  0  0  0  0  0
 18 19  1  0  0  0
 19 20  2  0  0  0
 19 23  1  0  0  0
 20 21  1  0  0  0
 21 22  2  0  0  0
 22  1  1  0  0  0
 22 23  1  0  0  0
  1  2  1  0  0  0
  1  7  2  0  0  0
  2  3  2  0  0  0
  3  9  1  0  0  0
  3  4  1  0  0  0
  9 10  1  0  0  0
  9 15  2  0  0  0
 10 11  2  0  0  0
 11 12  1  0  0  0
 11 13  1  0  0  0
 13 14  2  0  0  0
 14 15  1  0  0  0
 15 16  1  0  0  0
 16 17  1  0  0  0
  4  5  1  0  0  0
  4  8  1  0  0  0
  5  6  2  0  0  0
  5  7  1  0  0  0
  7 24  1  0  0  0
 24 25  3  0  0  0
M  END
> <minimizedAffinity>
-8.30984

$$$$
