CHEMBL411632


 34 36  0  0  0  0  0  0  0  0999 V2000
  -29.4564   -3.7113   -4.5279 C   0  0  0  0  0  0  0  0  0  0  0  0
  -28.9621   -3.4810   -5.9282 C   0  0  0  0  0  0  0  0  0  0  0  0
  -28.5482   -2.1792   -6.2536 C   0  0  0  0  0  0  0  0  0  0  0  0
  -27.9778   -1.8793   -7.4946 C   0  0  0  0  0  0  0  0  0  0  0  0
  -27.8062   -2.8665   -8.4607 C   0  0  0  0  0  0  0  0  0  0  0  0
  -28.2616   -4.1583   -8.1665 C   0  0  0  0  0  0  0  0  0  0  0  0
  -28.8529   -4.4774   -6.9180 C   0  0  0  0  0  0  0  0  0  0  0  0
  -27.1907   -2.6397   -9.7181 N   0  0  0  0  0  0  0  0  0  0  0  0
  -27.4635   -1.5949  -10.5899 C   0  0  0  0  0  0  0  0  0  0  0  0
  -28.3035   -0.7187  -10.4276 O   0  0  0  0  0  0  0  0  0  0  0  0
  -26.5015   -3.3230  -10.0043 H   0  0  0  0  0  0  0  0  0  0  0  0
  -26.6820   -1.5509  -11.8605 C   0  0  0  0  0  0  0  0  0  0  0  0
  -27.2203   -1.9059  -13.1017 C   0  0  0  0  0  0  0  0  0  0  0  0
  -26.4101   -1.8872  -14.2425 C   0  0  0  0  0  0  0  0  0  0  0  0
  -25.0662   -1.5133  -14.1527 C   0  0  0  0  0  0  0  0  0  0  0  0
  -24.5081   -1.1553  -12.9185 C   0  0  0  0  0  0  0  0  0  0  0  0
  -25.3255   -1.1899  -11.7767 C   0  0  0  0  0  0  0  0  0  0  0  0
  -23.0636   -0.7326  -12.7974 C   0  0  0  0  0  0  0  0  0  0  0  0
  -22.4415   -1.2349  -11.6940 F   0  0  0  0  0  0  0  0  0  0  0  0
  -22.3161   -1.1392  -13.8608 F   0  0  0  0  0  0  0  0  0  0  0  0
  -22.9142    0.6181  -12.7274 F   0  0  0  0  0  0  0  0  0  0  0  0
  -29.2562   -5.9121   -6.7412 C   0  0  0  0  0  0  0  0  0  0  0  0
  -28.6076   -6.5984   -5.9586 O   0  0  0  0  0  0  0  0  0  0  0  0
  -30.3035   -6.3730   -7.5189 N   0  0  0  0  0  0  0  0  0  0  0  0
  -30.7170   -5.7311   -8.1803 H   0  0  0  0  0  0  0  0  0  0  0  0
  -30.8203   -7.6913   -7.5267 C   0  0  0  0  0  0  0  0  0  0  0  0
  -30.1941   -8.8152   -8.0243 C   0  0  0  0  0  0  0  0  0  0  0  0
  -30.7494  -10.0528   -8.0328 N   0  0  0  0  0  0  0  0  0  0  0  0
  -31.9677  -10.1709   -7.5016 C   0  0  0  0  0  0  0  0  0  0  0  0
  -32.5596  -11.4154   -7.5305 N   0  0  0  0  0  0  0  0  0  0  0  0
  -32.6743   -9.1574   -6.9951 N   0  0  0  0  0  0  0  0  0  0  0  0
  -32.0795   -7.9434   -7.0131 C   0  0  0  0  0  0  0  0  0  0  0  0
  -32.1506  -11.9661   -8.2729 H   0  0  0  0  0  0  0  0  0  0  0  0
  -33.5646  -11.3187   -7.5242 H   0  0  0  0  0  0  0  0  0  0  0  0
  1  2  1  0  0  0
  2  3  1  0  0  0
  2  7  2  0  0  0
  3  4  2  0  0  0
  4  5  1  0  0  0
  5  8  1  0  0  0
  5  6  2  0  0  0
  8  9  1  0  0  0
  8 11  1  0  0  0
  9 10  2  0  0  0
  9 12  1  0  0  0
 12 13  1  0  0  0
 12 17  2  0  0  0
 13 14  2  0  0  0
 14 15  1  0  0  0
 15 16  2  0  0  0
 16 18  1  0  0  0
 16 17  1  0  0  0
 18 19  1  0  0  0
 18 20  1  0  0  0
 18 21  1  0  0  0
  6  7  1  0  0  0
  7 22  1  0  0  0
 22 23  2  0  0  0
 22 24  1  0  0  0
 24 26  1  0  0  0
 24 25  1  0  0  0
 26 27  1  0  0  0
 26 32  2  0  0  0
 27 28  2  0  0  0
 28 29  1  0  0  0
 29 30  1  0  0  0
 29 31  2  0  0  0
 30 33  1  0  0  0
 30 34  1  0  0  0
 31 32  1  0  0  0
M  END
> <minimizedAffinity>
-10.96216

$$$$
