CHEMBL219727


 33 36  0  0  0  0  0  0  0  0999 V2000
  -26.1937   -1.2169  -11.4945 C   0  0  0  0  0  0  0  0  0  0  0  0
  -25.5940   -1.5513  -10.2784 C   0  0  0  0  0  0  0  0  0  0  0  0
  -26.3652   -1.9752   -9.1904 C   0  0  0  0  0  0  0  0  0  0  0  0
  -27.7631   -2.0432   -9.2727 C   0  0  0  0  0  0  0  0  0  0  0  0
  -28.3472   -1.5732  -10.4659 C   0  0  0  0  0  0  0  0  0  0  0  0
  -27.5800   -1.1780  -11.5706 C   0  0  0  0  0  0  0  0  0  0  0  0
  -28.5842   -2.5445   -8.1475 C   0  0  0  0  0  0  0  0  0  0  0  0
  -29.3133   -3.7566   -8.2456 C   0  0  0  0  0  0  0  0  0  0  0  0
  -30.0001   -4.3087   -7.1622 C   0  0  0  0  0  0  0  0  0  0  0  0
  -29.9487   -3.6996   -5.9133 C   0  0  0  0  0  0  0  0  0  0  0  0
  -30.8053   -4.4860   -4.4285 Br  0  0  0  0  0  0  0  0  0  0  0  0
  -29.2665   -2.4879   -5.8139 C   0  0  0  0  0  0  0  0  0  0  0  0
  -29.0270   -1.6787   -4.7374 N   0  0  0  0  0  0  0  0  0  0  0  0
  -28.4635   -0.5059   -5.0449 N   0  0  0  0  0  0  0  0  0  0  0  0
  -28.2608   -0.5893   -6.3559 C   0  0  0  0  0  0  0  0  0  0  0  0
  -27.7919    0.4542   -7.0572 N   0  0  0  0  0  0  0  0  0  0  0  0
  -28.6468   -1.8607   -6.8970 C   0  0  0  0  0  0  0  0  0  0  0  0
  -29.2520   -1.8659   -3.7672 H   0  0  0  0  0  0  0  0  0  0  0  0
  -27.8057    1.3467   -6.5755 H   0  0  0  0  0  0  0  0  0  0  0  0
  -28.0368    0.5343   -8.0396 H   0  0  0  0  0  0  0  0  0  0  0  0
  -23.8023    0.0866  -13.8962 N   0  0  0  0  0  0  0  0  0  0  0  0
  -24.4976    0.0476  -12.6995 C   0  0  0  0  0  0  0  0  0  0  0  0
  -24.2921    0.7958  -11.7495 O   0  0  0  0  0  0  0  0  0  0  0  0
  -25.4314   -0.9824  -12.6659 N   0  0  0  0  0  0  0  0  0  0  0  0
  -24.2343   -0.3704  -14.6871 H   0  0  0  0  0  0  0  0  0  0  0  0
  -25.1949   -1.7925  -13.2183 H   0  0  0  0  0  0  0  0  0  0  0  0
  -19.0463    0.3876  -15.2573 C   0  0  0  0  0  0  0  0  0  0  0  0
  -20.3215    1.0467  -14.8189 C   0  0  0  0  0  0  0  0  0  0  0  0
  -20.3707    2.4366  -14.6750 C   0  0  0  0  0  0  0  0  0  0  0  0
  -21.5459    3.0521  -14.2636 C   0  0  0  0  0  0  0  0  0  0  0  0
  -22.6787    2.2914  -13.9983 C   0  0  0  0  0  0  0  0  0  0  0  0
  -22.6674    0.9011  -14.1546 C   0  0  0  0  0  0  0  0  0  0  0  0
  -21.4779    0.2808  -14.5568 C   0  0  0  0  0  0  0  0  0  0  0  0
 27 28  1  0  0  0
 28 29  1  0  0  0
 28 33  2  0  0  0
 29 30  2  0  0  0
 30 31  1  0  0  0
 31 32  2  0  0  0
 32 21  1  0  0  0
 32 33  1  0  0  0
 21 22  1  0  0  0
 21 25  1  0  0  0
 22 23  2  0  0  0
 22 24  1  0  0  0
 24  1  1  0  0  0
 24 26  1  0  0  0
  1  2  1  0  0  0
  1  6  2  0  0  0
  2  3  2  0  0  0
  3  4  1  0  0  0
  4  7  1  0  0  0
  4  5  2  0  0  0
  7  8  1  0  0  0
  7 17  2  0  0  0
  8  9  2  0  0  0
  9 10  1  0  0  0
 10 11  1  0  0  0
 10 12  2  0  0  0
 12 13  1  0  0  0
 12 17  1  0  0  0
 13 14  1  0  0  0
 13 18  1  0  0  0
 14 15  2  0  0  0
 15 16  1  0  0  0
 15 17  1  0  0  0
 16 19  1  0  0  0
 16 20  1  0  0  0
  5  6  1  0  0  0
M  END
> <minimizedAffinity>
-9.34534

$$$$
