CHEMBL3671522


 36 38  0  0  0  0  0  0  0  0999 V2000
  -28.6765   -4.9858   -5.5469 C   0  0  0  0  0  0  0  0  0  0  0  0
  -28.3370   -6.2652   -5.1095 C   0  0  0  0  0  0  0  0  0  0  0  0
  -28.6810   -7.3893   -5.8865 C   0  0  0  0  0  0  0  0  0  0  0  0
  -28.5495   -8.7181   -5.4576 C   0  0  0  0  0  0  0  0  0  0  0  0
  -28.9257   -9.7517   -6.2359 N   0  0  0  0  0  0  0  0  0  0  0  0
  -29.4529   -9.4584   -7.4231 C   0  0  0  0  0  0  0  0  0  0  0  0
  -29.6642   -8.2332   -7.9097 N   0  0  0  0  0  0  0  0  0  0  0  0
  -29.2884   -7.2104   -7.1385 C   0  0  0  0  0  0  0  0  0  0  0  0
  -29.5491   -5.9189   -7.5825 C   0  0  0  0  0  0  0  0  0  0  0  0
  -29.2362   -4.7947   -6.8155 C   0  0  0  0  0  0  0  0  0  0  0  0
  -29.7186   -3.6354   -3.8054 C   0  0  0  0  0  0  0  0  0  0  0  0
  -29.5668   -2.9933   -2.7685 O   0  0  0  0  0  0  0  0  0  0  0  0
  -28.6444   -3.9388   -4.6006 N   0  0  0  0  0  0  0  0  0  0  0  0
  -27.7936   -3.8616   -4.0517 H   0  0  0  0  0  0  0  0  0  0  0  0
  -31.7150   -4.9896   -3.4105 C   0  0  0  0  0  0  0  0  0  0  0  0
  -31.0499   -4.1570   -4.2218 C   0  0  0  0  0  0  0  0  0  0  0  0
  -28.0970   -8.9995   -4.1392 N   0  0  0  0  0  0  0  0  0  0  0  0
  -28.2428   -8.2028   -3.5267 H   0  0  0  0  0  0  0  0  0  0  0  0
  -26.8751   -9.6604   -3.8623 C   0  0  0  0  0  0  0  0  0  0  0  0
  -25.6460   -9.0301   -4.1048 C   0  0  0  0  0  0  0  0  0  0  0  0
  -24.4486   -9.6166   -3.6926 C   0  0  0  0  0  0  0  0  0  0  0  0
  -24.4734  -10.8572   -3.0604 C   0  0  0  0  0  0  0  0  0  0  0  0
  -22.8628  -11.5963   -2.4039 Br  0  0  0  0  0  0  0  0  0  0  0  0
  -25.6741  -11.5404   -2.8851 C   0  0  0  0  0  0  0  0  0  0  0  0
  -26.8615  -10.9404   -3.2968 C   0  0  0  0  0  0  0  0  0  0  0  0
  -28.0218  -11.5880   -3.1028 F   0  0  0  0  0  0  0  0  0  0  0  0
  -29.5816   -3.5912   -7.3807 O   0  0  0  0  0  0  0  0  0  0  0  0
  -28.7245   -3.1578   -8.4446 C   0  0  0  0  0  0  0  0  0  0  0  0
  -27.6306   -2.2272   -7.9152 C   0  0  0  0  0  0  0  0  0  0  0  0
  -28.1931   -1.0684   -7.2363 N   0  0  0  0  0  0  0  0  0  0  0  0
  -27.9437   -0.8403   -5.9046 C   0  0  0  0  0  0  0  0  0  0  0  0
  -27.1689   -1.5233   -5.2425 O   0  0  0  0  0  0  0  0  0  0  0  0
  -28.8262   -0.4666   -7.7439 H   0  0  0  0  0  0  0  0  0  0  0  0
  -28.6568    0.3226   -5.2900 C   0  0  0  0  0  0  0  0  0  0  0  0
  -28.0259    1.2491   -4.5476 C   0  0  0  0  0  0  0  0  0  0  0  0
  -30.1127    0.4654   -5.6284 C   0  0  0  0  0  0  0  0  0  0  0  0
 15 16  2  0  0  0
 16 11  1  0  0  0
 11 12  2  0  0  0
 11 13  1  0  0  0
 13  1  1  0  0  0
 13 14  1  0  0  0
  1  2  1  0  0  0
  1 10  2  0  0  0
  2  3  2  0  0  0
  3  4  1  0  0  0
  3  8  1  0  0  0
  4 17  1  0  0  0
  4  5  2  0  0  0
 17 19  1  0  0  0
 17 18  1  0  0  0
 19 20  1  0  0  0
 19 25  2  0  0  0
 20 21  2  0  0  0
 21 22  1  0  0  0
 22 23  1  0  0  0
 22 24  2  0  0  0
 24 25  1  0  0  0
 25 26  1  0  0  0
  5  6  1  0  0  0
  6  7  2  0  0  0
  7  8  1  0  0  0
  8  9  2  0  0  0
  9 10  1  0  0  0
 10 27  1  0  0  0
 27 28  1  0  0  0
 28 29  1  0  0  0
 29 30  1  0  0  0
 30 31  1  0  0  0
 30 33  1  0  0  0
 31 32  2  0  0  0
 31 34  1  0  0  0
 34 35  2  0  0  0
 34 36  1  0  0  0
M  END
> <minimizedAffinity>
-8.43590

$$$$
