CHEMBL1984760


 31 33  0  0  0  0  0  0  0  0999 V2000
  -15.0009    1.7129  -15.3957 C   0  0  0  0  0  0  0  0  0  0  0  0
  -14.7000    0.5053  -14.8720 N   0  0  0  0  0  0  0  0  0  0  0  0
  -13.6341    0.3742  -14.0281 C   0  0  0  0  0  0  0  0  0  0  0  0
  -12.9128    1.5253  -13.6917 C   0  0  0  0  0  0  0  0  0  0  0  0
  -11.8227    1.8661  -12.8438 C   0  0  0  0  0  0  0  0  0  0  0  0
  -11.5909    3.2199  -12.9843 C   0  0  0  0  0  0  0  0  0  0  0  0
  -12.4843    3.7031  -13.9058 N   0  0  0  0  0  0  0  0  0  0  0  0
  -13.3060    2.6922  -14.3162 C   0  0  0  0  0  0  0  0  0  0  0  0
  -14.3161    2.8449  -15.1730 N   0  0  0  0  0  0  0  0  0  0  0  0
  -12.5644    4.6559  -14.2307 H   0  0  0  0  0  0  0  0  0  0  0  0
  -16.1410    1.7655  -16.2072 N   0  0  0  0  0  0  0  0  0  0  0  0
  -15.9118    2.3008  -17.0341 H   0  0  0  0  0  0  0  0  0  0  0  0
  -20.0964    2.2846  -14.8369 C   0  0  0  0  0  0  0  0  0  0  0  0
  -19.3765    3.3850  -15.3041 C   0  0  0  0  0  0  0  0  0  0  0  0
  -18.0682    3.2161  -15.7654 C   0  0  0  0  0  0  0  0  0  0  0  0
  -17.4545    1.9558  -15.7429 C   0  0  0  0  0  0  0  0  0  0  0  0
  -18.1942    0.8528  -15.3075 C   0  0  0  0  0  0  0  0  0  0  0  0
  -19.5001    1.0177  -14.8337 C   0  0  0  0  0  0  0  0  0  0  0  0
  -22.1194    1.2527  -13.9503 N   0  0  0  0  0  0  0  0  0  0  0  0
  -21.4753    2.4202  -14.2971 C   0  0  0  0  0  0  0  0  0  0  0  0
  -21.9723    3.5354  -14.1608 O   0  0  0  0  0  0  0  0  0  0  0  0
  -21.6324    0.3702  -13.9987 H   0  0  0  0  0  0  0  0  0  0  0  0
  -23.4781    1.2546  -13.4458 C   0  0  0  0  0  0  0  0  0  0  0  0
  -22.8846   -1.0572  -12.5814 C   0  0  0  0  0  0  0  0  0  0  0  0
  -23.6939    0.2112  -12.3514 C   0  0  0  0  0  0  0  0  0  0  0  0
  -13.3090   -1.0020  -13.5154 C   0  0  0  0  0  0  0  0  0  0  0  0
  -14.4491   -2.0033  -13.6903 C   0  0  0  0  0  0  0  0  0  0  0  0
  -15.2631   -2.2130  -12.4266 C   0  0  0  0  0  0  0  0  0  0  0  0
  -15.7784   -1.0734  -11.9223 F   0  0  0  0  0  0  0  0  0  0  0  0
  -16.3101   -3.0343  -12.6836 F   0  0  0  0  0  0  0  0  0  0  0  0
  -14.5263   -2.8029  -11.4594 F   0  0  0  0  0  0  0  0  0  0  0  0
 24 25  1  0  0  0
 25 23  1  0  0  0
 23 19  1  0  0  0
 19 20  1  0  0  0
 19 22  1  0  0  0
 20 21  2  0  0  0
 20 13  1  0  0  0
 13 14  1  0  0  0
 13 18  2  0  0  0
 14 15  2  0  0  0
 15 16  1  0  0  0
 16 11  1  0  0  0
 16 17  2  0  0  0
 11  1  1  0  0  0
 11 12  1  0  0  0
  1  2  1  0  0  0
  1  9  2  0  0  0
  2  3  2  0  0  0
  3 26  1  0  0  0
  3  4  1  0  0  0
 26 27  1  0  0  0
 27 28  1  0  0  0
 28 29  1  0  0  0
 28 30  1  0  0  0
 28 31  1  0  0  0
  4  5  1  0  0  0
  4  8  2  0  0  0
  5  6  2  0  0  0
  6  7  1  0  0  0
  7  8  1  0  0  0
  7 10  1  0  0  0
  8  9  1  0  0  0
 17 18  1  0  0  0
M  END
> <minimizedAffinity>
-8.13069

$$$$
