CHEMBL3656100


 45 48  0  0  0  0  0  0  0  0999 V2000
  -15.0372    2.0514  -15.4900 C   0  0  0  0  0  0  0  0  0  0  0  0
  -16.3505    2.3006  -15.1100 C   0  0  0  0  0  0  0  0  0  0  0  0
  -16.9970    3.4386  -15.5873 C   0  0  0  0  0  0  0  0  0  0  0  0
  -16.3461    4.2289  -16.5244 C   0  0  0  0  0  0  0  0  0  0  0  0
  -15.0483    3.8842  -16.8821 C   0  0  0  0  0  0  0  0  0  0  0  0
  -14.3674    2.8269  -16.3731 N   0  0  0  0  0  0  0  0  0  0  0  0
  -13.5800   -1.0964  -14.1204 C   0  0  0  0  0  0  0  0  0  0  0  0
  -12.5844   -0.1574  -13.9155 C   0  0  0  0  0  0  0  0  0  0  0  0
  -13.0197    1.0562  -14.3997 N   0  0  0  0  0  0  0  0  0  0  0  0
  -14.2914    0.9352  -14.9136 C   0  0  0  0  0  0  0  0  0  0  0  0
  -14.6495   -0.3885  -14.7386 C   0  0  0  0  0  0  0  0  0  0  0  0
  -12.5060    1.9268  -14.3928 H   0  0  0  0  0  0  0  0  0  0  0  0
  -14.6130   -3.2514  -14.4379 N   0  0  0  0  0  0  0  0  0  0  0  0
  -13.6177   -2.5246  -13.8139 C   0  0  0  0  0  0  0  0  0  0  0  0
  -12.8140   -3.0375  -13.0493 O   0  0  0  0  0  0  0  0  0  0  0  0
  -15.2325   -2.7805  -15.0788 H   0  0  0  0  0  0  0  0  0  0  0  0
  -14.7518   -4.6736  -14.2161 C   0  0  0  0  0  0  0  0  0  0  0  0
  -16.1209   -5.0652  -13.6656 C   0  0  0  0  0  0  0  0  0  0  0  0
  -16.0327   -6.1506  -12.5986 C   0  0  0  0  0  0  0  0  0  0  0  0
  -15.0955   -5.7570  -11.4832 C   0  0  0  0  0  0  0  0  0  0  0  0
  -13.9864   -6.2366  -11.2998 O   0  0  0  0  0  0  0  0  0  0  0  0
  -15.7393   -4.9074  -10.6348 O   0  0  0  0  0  0  0  0  0  0  0  0
  -15.7888   -2.5384  -10.8539 C   0  0  0  0  0  0  0  0  0  0  0  0
  -15.0125   -3.7182  -10.2965 C   0  0  0  0  0  0  0  0  0  0  0  0
  -18.2713    3.8188  -15.2017 O   0  0  0  0  0  0  0  0  0  0  0  0
  -19.2288    2.8395  -15.0174 C   0  0  0  0  0  0  0  0  0  0  0  0
  -20.4204    3.0694  -14.3385 C   0  0  0  0  0  0  0  0  0  0  0  0
  -21.2766    2.0110  -14.0446 C   0  0  0  0  0  0  0  0  0  0  0  0
  -21.0195    0.7129  -14.4906 C   0  0  0  0  0  0  0  0  0  0  0  0
  -19.8873    0.5088  -15.2892 C   0  0  0  0  0  0  0  0  0  0  0  0
  -18.9932    1.5685  -15.5481 C   0  0  0  0  0  0  0  0  0  0  0  0
  -21.8443   -0.3921  -14.1394 N   0  0  0  0  0  0  0  0  0  0  0  0
  -23.1638   -0.3001  -13.7282 C   0  0  0  0  0  0  0  0  0  0  0  0
  -23.8183    0.7364  -13.6825 O   0  0  0  0  0  0  0  0  0  0  0  0
  -23.6979   -1.5208  -13.3321 N   0  0  0  0  0  0  0  0  0  0  0  0
  -21.4482   -1.3169  -14.2279 H   0  0  0  0  0  0  0  0  0  0  0  0
  -23.0631   -2.0916  -12.7880 H   0  0  0  0  0  0  0  0  0  0  0  0
  -25.0467   -1.5365  -12.8724 C   0  0  0  0  0  0  0  0  0  0  0  0
  -25.3475   -1.5602  -11.5032 C   0  0  0  0  0  0  0  0  0  0  0  0
  -26.6721   -1.6906  -11.0604 C   0  0  0  0  0  0  0  0  0  0  0  0
  -26.9892   -1.7282   -9.5930 C   0  0  0  0  0  0  0  0  0  0  0  0
  -27.6983   -1.8097  -12.0068 C   0  0  0  0  0  0  0  0  0  0  0  0
  -27.4065   -1.7661  -13.3726 C   0  0  0  0  0  0  0  0  0  0  0  0
  -26.0888   -1.6072  -13.7953 C   0  0  0  0  0  0  0  0  0  0  0  0
  -25.8172   -1.6025  -15.1096 F   0  0  0  0  0  0  0  0  0  0  0  0
 23 24  1  0  0  0
 24 22  1  0  0  0
 22 20  1  0  0  0
 20 21  2  0  0  0
 20 19  1  0  0  0
 19 18  1  0  0  0
 18 17  1  0  0  0
 17 13  1  0  0  0
 13 14  1  0  0  0
 13 16  1  0  0  0
 14 15  2  0  0  0
 14  7  1  0  0  0
  7  8  2  0  0  0
  7 11  1  0  0  0
  8  9  1  0  0  0
  9 10  1  0  0  0
  9 12  1  0  0  0
 10  1  1  0  0  0
 10 11  2  0  0  0
  1  2  1  0  0  0
  1  6  2  0  0  0
  2  3  2  0  0  0
  3 25  1  0  0  0
  3  4  1  0  0  0
 25 26  1  0  0  0
 26 27  1  0  0  0
 26 31  2  0  0  0
 27 28  2  0  0  0
 28 29  1  0  0  0
 29 32  1  0  0  0
 29 30  2  0  0  0
 32 33  1  0  0  0
 32 36  1  0  0  0
 33 34  2  0  0  0
 33 35  1  0  0  0
 35 38  1  0  0  0
 35 37  1  0  0  0
 38 39  1  0  0  0
 38 44  2  0  0  0
 39 40  2  0  0  0
 40 41  1  0  0  0
 40 42  1  0  0  0
 42 43  2  0  0  0
 43 44  1  0  0  0
 44 45  1  0  0  0
 30 31  1  0  0  0
  4  5  2  0  0  0
  5  6  1  0  0  0
M  END
> <minimizedAffinity>
-9.71111

$$$$
