CHEMBL2002165


 41 45  0  0  0  0  0  0  0  0999 V2000
  -12.7328    7.3092  -17.7386 C   0  0  0  0  0  0  0  0  0  0  0  0
  -12.1094    7.4728  -16.5115 C   0  0  0  0  0  0  0  0  0  0  0  0
  -12.1199    6.5784  -15.5142 N   0  0  0  0  0  0  0  0  0  0  0  0
  -12.8034    5.4277  -15.6564 C   0  0  0  0  0  0  0  0  0  0  0  0
  -12.6741    4.5894  -14.5627 N   0  0  0  0  0  0  0  0  0  0  0  0
  -13.5537    5.1609  -16.8417 C   0  0  0  0  0  0  0  0  0  0  0  0
  -14.4431    4.0446  -17.2166 C   0  0  0  0  0  0  0  0  0  0  0  0
  -14.9421    4.1982  -18.4934 C   0  0  0  0  0  0  0  0  0  0  0  0
  -14.3516    5.5719  -19.2738 S   0  0  0  0  0  0  0  0  0  0  0  0
  -13.4753    6.1138  -17.8853 C   0  0  0  0  0  0  0  0  0  0  0  0
  -11.9483    4.9366  -13.9447 H   0  0  0  0  0  0  0  0  0  0  0  0
  -12.6346    3.6028  -14.7797 H   0  0  0  0  0  0  0  0  0  0  0  0
  -14.8604    2.8851  -16.4209 C   0  0  0  0  0  0  0  0  0  0  0  0
  -14.0342    1.7688  -16.3430 C   0  0  0  0  0  0  0  0  0  0  0  0
  -14.4747    0.5971  -15.7396 C   0  0  0  0  0  0  0  0  0  0  0  0
  -15.6893    0.5514  -15.0565 C   0  0  0  0  0  0  0  0  0  0  0  0
  -16.4958    1.6912  -15.0489 C   0  0  0  0  0  0  0  0  0  0  0  0
  -16.0881    2.8447  -15.7382 C   0  0  0  0  0  0  0  0  0  0  0  0
  -16.1203   -0.6122  -14.3834 N   0  0  0  0  0  0  0  0  0  0  0  0
  -15.3909   -1.2267  -13.3804 C   0  0  0  0  0  0  0  0  0  0  0  0
  -14.3656   -0.7724  -12.8827 O   0  0  0  0  0  0  0  0  0  0  0  0
  -15.9405   -2.4395  -13.0030 N   0  0  0  0  0  0  0  0  0  0  0  0
  -17.1026   -0.8413  -14.4233 H   0  0  0  0  0  0  0  0  0  0  0  0
  -16.3505   -2.9708  -13.7584 H   0  0  0  0  0  0  0  0  0  0  0  0
  -15.3989   -3.1693  -11.9182 C   0  0  0  0  0  0  0  0  0  0  0  0
  -15.6317   -2.7832  -10.5910 C   0  0  0  0  0  0  0  0  0  0  0  0
  -15.0403   -3.4706   -9.5301 C   0  0  0  0  0  0  0  0  0  0  0  0
  -14.2112   -4.5546   -9.7962 C   0  0  0  0  0  0  0  0  0  0  0  0
  -13.9989   -4.9468  -11.1140 C   0  0  0  0  0  0  0  0  0  0  0  0
  -13.1788   -5.9758  -11.3672 F   0  0  0  0  0  0  0  0  0  0  0  0
  -14.5973   -4.2777  -12.1798 C   0  0  0  0  0  0  0  0  0  0  0  0
  -13.1722    9.7286  -20.3700 N   0  0  0  0  0  0  0  0  0  0  0  0
  -13.6781    8.8291  -19.4791 C   0  0  0  0  0  0  0  0  0  0  0  0
  -12.6045    8.3134  -18.7793 C   0  0  0  0  0  0  0  0  0  0  0  0
  -11.4924    8.9757  -19.3480 C   0  0  0  0  0  0  0  0  0  0  0  0
  -11.8400    9.8720  -20.2811 N   0  0  0  0  0  0  0  0  0  0  0  0
  -13.9197   10.5159  -21.3331 C   0  0  0  0  0  0  0  0  0  0  0  0
  -15.9941   11.5980  -20.2904 C   0  0  0  0  0  0  0  0  0  0  0  0
  -14.5466   11.7785  -20.7304 C   0  0  0  0  0  0  0  0  0  0  0  0
  -13.7835   12.2820  -19.6347 O   0  0  0  0  0  0  0  0  0  0  0  0
  -13.4891   11.5194  -19.0944 H   0  0  0  0  0  0  0  0  0  0  0  0
 38 39  1  0  0  0
 39 40  1  0  0  0
 39 37  1  0  0  0
 40 41  1  0  0  0
 37 32  1  0  0  0
 32 33  1  0  0  0
 32 36  1  0  0  0
 33 34  2  0  0  0
 34  1  1  0  0  0
 34 35  1  0  0  0
  1  2  1  0  0  0
  1 10  2  0  0  0
  2  3  2  0  0  0
  3  4  1  0  0  0
  4  5  1  0  0  0
  4  6  2  0  0  0
  5 11  1  0  0  0
  5 12  1  0  0  0
  6  7  1  0  0  0
  6 10  1  0  0  0
  7 13  1  0  0  0
  7  8  2  0  0  0
 13 14  1  0  0  0
 13 18  2  0  0  0
 14 15  2  0  0  0
 15 16  1  0  0  0
 16 19  1  0  0  0
 16 17  2  0  0  0
 19 20  1  0  0  0
 19 23  1  0  0  0
 20 21  2  0  0  0
 20 22  1  0  0  0
 22 25  1  0  0  0
 22 24  1  0  0  0
 25 26  1  0  0  0
 25 31  2  0  0  0
 26 27  2  0  0  0
 27 28  1  0  0  0
 28 29  2  0  0  0
 29 30  1  0  0  0
 29 31  1  0  0  0
 17 18  1  0  0  0
  8  9  1  0  0  0
  9 10  1  0  0  0
 35 36  2  0  0  0
M  END
> <minimizedAffinity>
-7.23955

$$$$
