CHEMBL1242756


 23 26  0  0  0  0  0  0  0  0999 V2000
  -32.7654   -9.7742   -7.1691 C   0  0  0  0  0  0  0  0  0  0  0  0
  -31.6463   -8.9538   -7.5610 N   0  0  0  0  0  0  0  0  0  0  0  0
  -31.5221   -7.7130   -7.0657 N   0  0  0  0  0  0  0  0  0  0  0  0
  -30.2923   -7.3130   -7.4517 C   0  0  0  0  0  0  0  0  0  0  0  0
  -29.6806   -8.2943   -8.2970 C   0  0  0  0  0  0  0  0  0  0  0  0
  -28.4793   -8.5093   -8.9847 C   0  0  0  0  0  0  0  0  0  0  0  0
  -27.4227   -7.6102   -9.0583 N   0  0  0  0  0  0  0  0  0  0  0  0
  -28.2889   -9.6903   -9.6141 N   0  0  0  0  0  0  0  0  0  0  0  0
  -29.2534  -10.6268   -9.5439 C   0  0  0  0  0  0  0  0  0  0  0  0
  -30.4344  -10.5420   -8.9172 N   0  0  0  0  0  0  0  0  0  0  0  0
  -30.5860   -9.3486   -8.3208 C   0  0  0  0  0  0  0  0  0  0  0  0
  -27.2665   -7.0931   -8.2030 H   0  0  0  0  0  0  0  0  0  0  0  0
  -26.6026   -8.0917   -9.4145 H   0  0  0  0  0  0  0  0  0  0  0  0
  -29.7359   -6.0982   -6.8413 C   0  0  0  0  0  0  0  0  0  0  0  0
  -29.4769   -6.1426   -5.4643 C   0  0  0  0  0  0  0  0  0  0  0  0
  -28.8737   -5.0740   -4.8037 C   0  0  0  0  0  0  0  0  0  0  0  0
  -28.5105   -3.9294   -5.4777 C   0  0  0  0  0  0  0  0  0  0  0  0
  -27.9068   -2.9568   -4.7775 N   0  0  0  0  0  0  0  0  0  0  0  0
  -27.5519   -1.8363   -5.4335 C   0  0  0  0  0  0  0  0  0  0  0  0
  -27.7708   -1.6346   -6.7804 C   0  0  0  0  0  0  0  0  0  0  0  0
  -28.3974   -2.6528   -7.5049 C   0  0  0  0  0  0  0  0  0  0  0  0
  -28.7857   -3.8411   -6.8617 C   0  0  0  0  0  0  0  0  0  0  0  0
  -29.4154   -4.9225   -7.5335 C   0  0  0  0  0  0  0  0  0  0  0  0
  1  2  1  0  0  0
  2  3  1  0  0  0
  2 11  1  0  0  0
  3  4  2  0  0  0
  4 14  1  0  0  0
  4  5  1  0  0  0
 14 15  1  0  0  0
 14 23  2  0  0  0
 15 16  2  0  0  0
 16 17  1  0  0  0
 17 18  1  0  0  0
 17 22  2  0  0  0
 18 19  2  0  0  0
 19 20  1  0  0  0
 20 21  2  0  0  0
 21 22  1  0  0  0
 22 23  1  0  0  0
  5  6  1  0  0  0
  5 11  2  0  0  0
  6  7  1  0  0  0
  6  8  2  0  0  0
  7 12  1  0  0  0
  7 13  1  0  0  0
  8  9  1  0  0  0
  9 10  2  0  0  0
 10 11  1  0  0  0
M  END
> <minimizedAffinity>
-8.22881

$$$$
