CHEMBL245770


 28 31  0  0  0  0  0  0  0  0999 V2000
  -14.3314   -4.8023  -11.5698 C   0  0  0  0  0  0  0  0  0  0  0  0
  -14.1546   -5.4251  -10.3591 C   0  0  0  0  0  0  0  0  0  0  0  0
  -14.1166   -4.4239   -9.4330 N   0  0  0  0  0  0  0  0  0  0  0  0
  -14.2573   -3.1894   -9.9560 N   0  0  0  0  0  0  0  0  0  0  0  0
  -14.4004   -3.4189  -11.2721 C   0  0  0  0  0  0  0  0  0  0  0  0
  -13.9819   -4.5098   -8.4309 H   0  0  0  0  0  0  0  0  0  0  0  0
  -14.6027   -2.3082  -12.2489 C   0  0  0  0  0  0  0  0  0  0  0  0
  -13.6499   -1.7246  -12.9486 N   0  0  0  0  0  0  0  0  0  0  0  0
  -14.2914   -0.8287  -13.7598 C   0  0  0  0  0  0  0  0  0  0  0  0
  -13.7608    0.0187  -14.7392 C   0  0  0  0  0  0  0  0  0  0  0  0
  -14.6297    0.8601  -15.4480 C   0  0  0  0  0  0  0  0  0  0  0  0
  -16.0029    0.8663  -15.1806 C   0  0  0  0  0  0  0  0  0  0  0  0
  -16.5457    0.0150  -14.2033 C   0  0  0  0  0  0  0  0  0  0  0  0
  -15.6602   -0.8229  -13.5201 C   0  0  0  0  0  0  0  0  0  0  0  0
  -15.8318   -1.7765  -12.5493 N   0  0  0  0  0  0  0  0  0  0  0  0
  -16.6980   -2.0773  -12.1263 H   0  0  0  0  0  0  0  0  0  0  0  0
  -16.9271    1.6582  -15.8119 O   0  0  0  0  0  0  0  0  0  0  0  0
  -16.5650    3.0160  -16.0333 C   0  0  0  0  0  0  0  0  0  0  0  0
  -13.3458   -6.2267  -13.3069 C   0  0  0  0  0  0  0  0  0  0  0  0
  -14.3334   -5.4458  -12.8355 C   0  0  0  0  0  0  0  0  0  0  0  0
  -13.0575   -8.9058  -15.9681 C   0  0  0  0  0  0  0  0  0  0  0  0
  -13.6318   -8.2001  -17.0173 C   0  0  0  0  0  0  0  0  0  0  0  0
  -14.0882   -6.9267  -16.9252 N   0  0  0  0  0  0  0  0  0  0  0  0
  -13.9753   -6.3337  -15.7123 C   0  0  0  0  0  0  0  0  0  0  0  0
  -13.4395   -6.9484  -14.5850 C   0  0  0  0  0  0  0  0  0  0  0  0
  -12.9491   -8.2524  -14.7427 C   0  0  0  0  0  0  0  0  0  0  0  0
  -13.2928  -10.8325  -17.3292 C   0  0  0  0  0  0  0  0  0  0  0  0
  -12.6471  -10.1798  -16.2403 O   0  0  0  0  0  0  0  0  0  0  0  0
 27 28  1  0  0  0
 28 21  1  0  0  0
 21 22  1  0  0  0
 21 26  2  0  0  0
 22 23  2  0  0  0
 23 24  1  0  0  0
 24 25  2  0  0  0
 25 19  1  0  0  0
 25 26  1  0  0  0
 19 20  2  0  0  0
 20  1  1  0  0  0
  1  2  2  0  0  0
  1  5  1  0  0  0
  2  3  1  0  0  0
  3  4  1  0  0  0
  3  6  1  0  0  0
  4  5  2  0  0  0
  5  7  1  0  0  0
  7  8  2  0  0  0
  7 15  1  0  0  0
  8  9  1  0  0  0
  9 10  1  0  0  0
  9 14  2  0  0  0
 10 11  2  0  0  0
 11 12  1  0  0  0
 12 17  1  0  0  0
 12 13  2  0  0  0
 17 18  1  0  0  0
 13 14  1  0  0  0
 14 15  1  0  0  0
 15 16  1  0  0  0
M  END
> <minimizedAffinity>
-6.33680

$$$$
