CHEMBL373693


 22 24  0  0  0  0  0  0  0  0999 V2000
  -30.3669   -6.4415   -5.1110 C   0  0  0  0  0  0  0  0  0  0  0  0
  -29.8053   -5.4999   -5.9920 C   0  0  0  0  0  0  0  0  0  0  0  0
  -29.9477   -4.1154   -5.7735 C   0  0  0  0  0  0  0  0  0  0  0  0
  -30.7361   -3.7346   -4.6838 C   0  0  0  0  0  0  0  0  0  0  0  0
  -31.3018   -4.7208   -3.8821 C   0  0  0  0  0  0  0  0  0  0  0  0
  -31.1219   -6.0477   -4.0666 N   0  0  0  0  0  0  0  0  0  0  0  0
  -30.0632   -7.8040   -5.3114 N   0  0  0  0  0  0  0  0  0  0  0  0
  -29.4646   -8.1965   -4.5993 H   0  0  0  0  0  0  0  0  0  0  0  0
  -29.8192   -9.4532   -8.7004 C   0  0  0  0  0  0  0  0  0  0  0  0
  -31.1307   -9.3214   -8.3042 C   0  0  0  0  0  0  0  0  0  0  0  0
  -31.3196   -8.7518   -7.0513 N   0  0  0  0  0  0  0  0  0  0  0  0
  -30.1620   -8.5062   -6.4683 C   0  0  0  0  0  0  0  0  0  0  0  0
  -28.7927   -8.9906   -7.4167 S   0  0  0  0  0  0  0  0  0  0  0  0
  -29.0412  -10.2723  -11.0294 N   0  0  0  0  0  0  0  0  0  0  0  0
  -29.3688   -9.8776   -9.9761 C   0  0  0  0  0  0  0  0  0  0  0  0
  -29.3968   -3.0911   -6.7551 C   0  0  0  0  0  0  0  0  0  0  0  0
  -28.0554   -2.5028   -6.6326 N   0  0  0  0  0  0  0  0  0  0  0  0
  -27.4584   -2.3691   -5.3066 C   0  0  0  0  0  0  0  0  0  0  0  0
  -27.8843   -1.0984   -4.5616 C   0  0  0  0  0  0  0  0  0  0  0  0
  -27.7739    0.0964   -5.3460 O   0  0  0  0  0  0  0  0  0  0  0  0
  -28.2293   -0.0128   -6.6991 C   0  0  0  0  0  0  0  0  0  0  0  0
  -27.7715   -1.2930   -7.4020 C   0  0  0  0  0  0  0  0  0  0  0  0
 14 15  3  0  0  0
 15  9  1  0  0  0
  9 10  2  0  0  0
  9 13  1  0  0  0
 10 11  1  0  0  0
 11 12  2  0  0  0
 12  7  1  0  0  0
 12 13  1  0  0  0
  7  1  1  0  0  0
  7  8  1  0  0  0
  1  2  1  0  0  0
  1  6  2  0  0  0
  2  3  2  0  0  0
  3 16  1  0  0  0
  3  4  1  0  0  0
 16 17  1  0  0  0
 17 18  1  0  0  0
 17 22  1  0  0  0
 18 19  1  0  0  0
 19 20  1  0  0  0
 20 21  1  0  0  0
 21 22  1  0  0  0
  4  5  2  0  0  0
  5  6  1  0  0  0
M  END
> <minimizedAffinity>
-6.63539

$$$$
