CHEMBL3981418


 37 40  0  0  0  0  0  0  0  0999 V2000
  -29.4922   -8.7870   -6.5396 N   0  0  0  0  0  0  0  0  0  0  0  0
  -29.7157   -7.3108   -6.5780 C   0  0  0  0  0  0  0  0  0  0  0  0
  -29.0451   -6.8364   -7.7004 C   0  0  0  0  0  0  0  0  0  0  0  0
  -28.6904   -5.6053   -7.8081 C   0  0  0  0  0  0  0  0  0  0  0  0
  -29.0044   -4.6832   -6.9561 C   0  0  0  0  0  0  0  0  0  0  0  0
  -28.2437   -3.6720   -7.1573 N   0  0  0  0  0  0  0  0  0  0  0  0
  -28.3088   -2.5727   -6.5241 C   0  0  0  0  0  0  0  0  0  0  0  0
  -29.4156   -2.2377   -5.8035 C   0  0  0  0  0  0  0  0  0  0  0  0
  -30.2125   -3.4163   -5.3815 N   0  0  0  0  0  0  0  0  0  0  0  0
  -29.9075   -4.7521   -5.9144 C   0  0  0  0  0  0  0  0  0  0  0  0
  -30.2916   -6.2301   -5.6568 C   0  0  0  0  0  0  0  0  0  0  0  0
  -29.4223   -0.6094   -5.8859 C   0  0  0  0  0  0  0  0  0  0  0  0
  -28.3438    0.1286   -6.5338 C   0  0  0  0  0  0  0  0  0  0  0  0
  -28.6049    1.4209   -6.6515 N   0  0  0  0  0  0  0  0  0  0  0  0
  -29.7760    1.6349   -6.1156 N   0  0  0  0  0  0  0  0  0  0  0  0
  -30.3135    0.4703   -5.6165 C   0  0  0  0  0  0  0  0  0  0  0  0
  -30.1723    2.6001   -6.1515 H   0  0  0  0  0  0  0  0  0  0  0  0
  -26.6044   -9.7829   -4.3461 C   0  0  0  0  0  0  0  0  0  0  0  0
  -27.1851  -10.7807   -3.5270 C   0  0  0  0  0  0  0  0  0  0  0  0
  -28.5183  -11.1596   -3.7167 C   0  0  0  0  0  0  0  0  0  0  0  0
  -29.2391  -10.5259   -4.7218 C   0  0  0  0  0  0  0  0  0  0  0  0
  -28.6901   -9.4972   -5.5649 C   0  0  0  0  0  0  0  0  0  0  0  0
  -27.3679   -9.1519   -5.3296 C   0  0  0  0  0  0  0  0  0  0  0  0
  -23.3329   -9.3950   -4.5561 H   0  0  0  0  0  0  0  0  0  0  0  0
  -24.2226  -10.0126   -4.7887 C   0  0  0  0  0  0  0  0  0  0  0  0
  -24.3447  -10.0551   -5.8920 H   0  0  0  0  0  0  0  0  0  0  0  0
  -24.0828  -11.0301   -4.3701 H   0  0  0  0  0  0  0  0  0  0  0  0
  -25.3146   -9.3979   -4.2288 O   0  0  0  0  0  0  0  0  0  0  0  0
  -29.0963  -12.1112   -2.9254 O   0  0  0  0  0  0  0  0  0  0  0  0
  -30.4628  -12.3103   -2.7326 C   0  0  0  0  0  0  0  0  0  0  0  0
  -30.4987   -9.6586   -7.3143 C   0  0  0  0  0  0  0  0  0  0  0  0
  -29.8438  -10.6210   -8.2747 C   0  0  0  0  0  0  0  0  0  0  0  0
  -30.0254  -10.1423   -9.6413 N   0  0  0  0  0  0  0  0  0  0  0  0
  -30.5072   -9.2096   -9.5909 H   0  0  0  0  0  0  0  0  0  0  0  0
  -28.7437   -9.9719  -10.3384 C   0  0  0  0  0  0  0  0  0  0  0  0
  -27.6516  -10.8989   -9.7660 C   0  0  0  0  0  0  0  0  0  0  0  0
  -28.9545  -10.3003  -11.8144 C   0  0  0  0  0  0  0  0  0  0  0  0
 24 25  1  0  0  0
 25 26  1  0  0  0
 25 27  1  0  0  0
 25 28  1  0  0  0
 28 18  1  0  0  0
 18 19  1  0  0  0
 18 23  2  0  0  0
 19 20  2  0  0  0
 20 29  1  0  0  0
 20 21  1  0  0  0
 29 30  1  0  0  0
 21 22  2  0  0  0
 22  1  1  0  0  0
 22 23  1  0  0  0
  1 31  1  0  0  0
  1  2  1  0  0  0
 31 32  1  0  0  0
 32 33  1  0  0  0
 33 35  1  0  0  0
 33 34  1  0  0  0
 35 36  1  0  0  0
 35 37  1  0  0  0
  2  3  1  0  0  0
  2 11  2  0  0  0
  3  4  2  0  0  0
  4  5  1  0  0  0
  5  6  1  0  0  0
  5 10  2  0  0  0
  6  7  2  0  0  0
  7  8  1  0  0  0
  8 12  1  0  0  0
  8  9  2  0  0  0
 12 13  1  0  0  0
 12 16  2  0  0  0
 13 14  2  0  0  0
 14 15  1  0  0  0
 15 16  1  0  0  0
 15 17  1  0  0  0
  9 10  1  0  0  0
 10 11  1  0  0  0
M  ISO 1  24   2
M  ISO 1  26   2
M  ISO 1  27   2
M  END
> <minimizedAffinity>
-7.55476

$$$$
