CHEMBL4174374


 31 33  0  0  0  0  0  0  0  0999 V2000
  -29.0732   -3.8841   -6.3964 C   0  0  0  0  0  0  0  0  0  0  0  0
  -29.3927   -4.1942   -7.7234 C   0  0  0  0  0  0  0  0  0  0  0  0
  -28.9968   -3.3783   -8.7838 C   0  0  0  0  0  0  0  0  0  0  0  0
  -28.2764   -2.2049   -8.5656 C   0  0  0  0  0  0  0  0  0  0  0  0
  -27.9744   -1.8565   -7.2462 C   0  0  0  0  0  0  0  0  0  0  0  0
  -28.3712   -2.6838   -6.1780 C   0  0  0  0  0  0  0  0  0  0  0  0
  -28.8828   -6.6514   -4.0342 C   0  0  0  0  0  0  0  0  0  0  0  0
  -30.0940   -6.6374   -3.3609 C   0  0  0  0  0  0  0  0  0  0  0  0
  -31.0216   -5.6566   -3.6837 C   0  0  0  0  0  0  0  0  0  0  0  0
  -30.7238   -4.7440   -4.6903 C   0  0  0  0  0  0  0  0  0  0  0  0
  -29.4803   -4.8061   -5.3150 C   0  0  0  0  0  0  0  0  0  0  0  0
  -28.5434   -5.7234   -4.9476 N   0  0  0  0  0  0  0  0  0  0  0  0
  -27.8953   -8.8221   -4.5042 C   0  0  0  0  0  0  0  0  0  0  0  0
  -28.6876   -9.1620   -5.3753 O   0  0  0  0  0  0  0  0  0  0  0  0
  -27.9201   -7.6384   -3.8061 N   0  0  0  0  0  0  0  0  0  0  0  0
  -27.0586   -7.2831   -3.4171 H   0  0  0  0  0  0  0  0  0  0  0  0
  -25.5372   -9.1082   -3.9114 C   0  0  0  0  0  0  0  0  0  0  0  0
  -26.7290   -9.6734   -4.1473 C   0  0  0  0  0  0  0  0  0  0  0  0
  -27.8170   -1.3763   -9.6167 N   0  0  0  0  0  0  0  0  0  0  0  0
  -26.7332   -1.6482  -10.4336 C   0  0  0  0  0  0  0  0  0  0  0  0
  -26.1037   -2.6976  -10.4399 O   0  0  0  0  0  0  0  0  0  0  0  0
  -26.3981   -0.5659  -11.2371 N   0  0  0  0  0  0  0  0  0  0  0  0
  -28.3859   -0.5782   -9.8659 H   0  0  0  0  0  0  0  0  0  0  0  0
  -26.4955    0.3356  -10.7855 H   0  0  0  0  0  0  0  0  0  0  0  0
  -25.2741   -0.6772  -12.1005 C   0  0  0  0  0  0  0  0  0  0  0  0
  -24.0177   -0.1832  -11.7363 C   0  0  0  0  0  0  0  0  0  0  0  0
  -22.9607   -0.1955  -12.6504 C   0  0  0  0  0  0  0  0  0  0  0  0
  -23.1626   -0.6945  -13.9354 C   0  0  0  0  0  0  0  0  0  0  0  0
  -24.4020   -1.2222  -14.2978 C   0  0  0  0  0  0  0  0  0  0  0  0
  -25.4402   -1.2345  -13.3692 C   0  0  0  0  0  0  0  0  0  0  0  0
  -26.6427   -1.7029  -13.7373 F   0  0  0  0  0  0  0  0  0  0  0  0
 17 18  2  0  0  0
 18 13  1  0  0  0
 13 14  2  0  0  0
 13 15  1  0  0  0
 15  7  1  0  0  0
 15 16  1  0  0  0
  7  8  1  0  0  0
  7 12  2  0  0  0
  8  9  2  0  0  0
  9 10  1  0  0  0
 10 11  2  0  0  0
 11  1  1  0  0  0
 11 12  1  0  0  0
  1  2  1  0  0  0
  1  6  2  0  0  0
  2  3  2  0  0  0
  3  4  1  0  0  0
  4 19  1  0  0  0
  4  5  2  0  0  0
 19 20  1  0  0  0
 19 23  1  0  0  0
 20 21  2  0  0  0
 20 22  1  0  0  0
 22 25  1  0  0  0
 22 24  1  0  0  0
 25 26  1  0  0  0
 25 30  2  0  0  0
 26 27  2  0  0  0
 27 28  1  0  0  0
 28 29  2  0  0  0
 29 30  1  0  0  0
 30 31  1  0  0  0
  5  6  1  0  0  0
M  END
> <minimizedAffinity>
-8.85067

$$$$
