CHEMBL398301


 25 28  0  0  0  0  0  0  0  0999 V2000
  -28.2850   -4.5768   -5.0073 C   0  0  0  0  0  0  0  0  0  0  0  0
  -27.3458   -4.9250   -4.1559 N   0  0  0  0  0  0  0  0  0  0  0  0
  -27.3252   -6.3001   -4.1362 N   0  0  0  0  0  0  0  0  0  0  0  0
  -28.2623   -6.9168   -4.9444 C   0  0  0  0  0  0  0  0  0  0  0  0
  -28.4889   -8.1053   -5.0352 O   0  0  0  0  0  0  0  0  0  0  0  0
  -28.8920   -5.7713   -5.6462 C   0  0  0  0  0  0  0  0  0  0  0  0
  -29.7356   -5.8335   -6.6849 C   0  0  0  0  0  0  0  0  0  0  0  0
  -26.7115   -6.8072   -3.5079 H   0  0  0  0  0  0  0  0  0  0  0  0
  -30.2419   -7.0392   -7.2386 C   0  0  0  0  0  0  0  0  0  0  0  0
  -31.4976   -7.5304   -6.9739 C   0  0  0  0  0  0  0  0  0  0  0  0
  -31.5873   -8.7616   -7.5681 N   0  0  0  0  0  0  0  0  0  0  0  0
  -32.7131   -9.6567   -7.4232 C   0  0  0  0  0  0  0  0  0  0  0  0
  -30.4314   -9.0447   -8.2700 C   0  0  0  0  0  0  0  0  0  0  0  0
  -30.0620  -10.1729   -9.0213 C   0  0  0  0  0  0  0  0  0  0  0  0
  -28.7922  -10.1813   -9.6057 C   0  0  0  0  0  0  0  0  0  0  0  0
  -27.9347   -9.1017   -9.4459 C   0  0  0  0  0  0  0  0  0  0  0  0
  -26.7242   -9.1372  -10.0197 F   0  0  0  0  0  0  0  0  0  0  0  0
  -28.2969   -7.9844   -8.6968 C   0  0  0  0  0  0  0  0  0  0  0  0
  -29.5688   -7.9562   -8.0906 C   0  0  0  0  0  0  0  0  0  0  0  0
  -30.1099   -2.6809   -3.1635 C   0  0  0  0  0  0  0  0  0  0  0  0
  -29.4303   -2.3608   -4.4439 C   0  0  0  0  0  0  0  0  0  0  0  0
  -29.5844   -1.0783   -4.9608 N   0  0  0  0  0  0  0  0  0  0  0  0
  -28.9608   -0.9319   -6.1150 N   0  0  0  0  0  0  0  0  0  0  0  0
  -28.1958   -2.3238   -6.6140 S   0  0  0  0  0  0  0  0  0  0  0  0
  -28.6280   -3.1994   -5.2078 C   0  0  0  0  0  0  0  0  0  0  0  0
 20 21  1  0  0  0
 21 22  1  0  0  0
 21 25  2  0  0  0
 22 23  2  0  0  0
 23 24  1  0  0  0
 24 25  1  0  0  0
 25  1  1  0  0  0
  1  2  2  0  0  0
  1  6  1  0  0  0
  2  3  1  0  0  0
  3  4  1  0  0  0
  3  8  1  0  0  0
  4  5  2  0  0  0
  4  6  1  0  0  0
  6  7  2  0  0  0
  7  9  1  0  0  0
  9 10  2  0  0  0
  9 19  1  0  0  0
 10 11  1  0  0  0
 11 12  1  0  0  0
 11 13  1  0  0  0
 13 14  1  0  0  0
 13 19  2  0  0  0
 14 15  2  0  0  0
 15 16  1  0  0  0
 16 17  1  0  0  0
 16 18  2  0  0  0
 18 19  1  0  0  0
M  END
> <minimizedAffinity>
-8.51307

$$$$
