CHEMBL402548


 37 41  0  0  0  0  0  0  0  0999 V2000
  -13.7564    0.9034  -18.0591 C   0  0  0  0  0  0  0  0  0  0  0  0
  -13.9317   -0.3222  -18.0564 O   0  0  0  0  0  0  0  0  0  0  0  0
  -14.5094    1.7027  -17.2258 N   0  0  0  0  0  0  0  0  0  0  0  0
  -14.3720    3.1769  -17.0559 C   0  0  0  0  0  0  0  0  0  0  0  0
  -15.6483    3.4731  -16.3734 C   0  0  0  0  0  0  0  0  0  0  0  0
  -16.2662    4.6062  -16.0640 N   0  0  0  0  0  0  0  0  0  0  0  0
  -17.4421    4.1552  -15.5530 N   0  0  0  0  0  0  0  0  0  0  0  0
  -17.5671    2.7750  -15.5537 C   0  0  0  0  0  0  0  0  0  0  0  0
  -16.3816    2.3246  -16.0691 C   0  0  0  0  0  0  0  0  0  0  0  0
  -15.6557    1.1144  -16.4757 C   0  0  0  0  0  0  0  0  0  0  0  0
  -18.1537    4.8168  -15.2494 H   0  0  0  0  0  0  0  0  0  0  0  0
  -18.7041    2.1117  -15.1305 N   0  0  0  0  0  0  0  0  0  0  0  0
  -19.9148    2.7743  -14.9772 C   0  0  0  0  0  0  0  0  0  0  0  0
  -20.0900    3.9741  -15.2129 O   0  0  0  0  0  0  0  0  0  0  0  0
  -18.6503    1.1082  -15.0088 H   0  0  0  0  0  0  0  0  0  0  0  0
  -21.0679    1.9444  -14.5280 C   0  0  0  0  0  0  0  0  0  0  0  0
  -22.2112    2.5218  -13.9805 C   0  0  0  0  0  0  0  0  0  0  0  0
  -23.2526    1.7063  -13.5347 C   0  0  0  0  0  0  0  0  0  0  0  0
  -23.1999    0.3060  -13.6285 C   0  0  0  0  0  0  0  0  0  0  0  0
  -22.0701   -0.2545  -14.2319 C   0  0  0  0  0  0  0  0  0  0  0  0
  -21.0111    0.5535  -14.6783 C   0  0  0  0  0  0  0  0  0  0  0  0
  -24.2756   -0.4339  -13.1799 N   0  0  0  0  0  0  0  0  0  0  0  0
  -24.9141   -1.4743  -13.9980 C   0  0  0  0  0  0  0  0  0  0  0  0
  -26.4075   -1.5733  -13.5916 C   0  0  0  0  0  0  0  0  0  0  0  0
  -26.5937   -1.8400  -12.1439 N   0  0  0  0  0  0  0  0  0  0  0  0
  -28.0139   -1.8615  -11.8032 C   0  0  0  0  0  0  0  0  0  0  0  0
  -25.8915   -0.7981  -11.3585 C   0  0  0  0  0  0  0  0  0  0  0  0
  -24.3969   -0.6856  -11.7306 C   0  0  0  0  0  0  0  0  0  0  0  0
  -12.7234    1.5339  -19.0497 C   0  0  0  0  0  0  0  0  0  0  0  0
  -12.2453    0.6001  -20.1694 C   0  0  0  0  0  0  0  0  0  0  0  0
  -12.9146    0.6000  -21.4086 C   0  0  0  0  0  0  0  0  0  0  0  0
  -12.4946   -0.2135  -22.4635 C   0  0  0  0  0  0  0  0  0  0  0  0
  -11.3862   -1.0385  -22.3013 C   0  0  0  0  0  0  0  0  0  0  0  0
  -10.6969   -1.0399  -21.0913 C   0  0  0  0  0  0  0  0  0  0  0  0
  -11.1140   -0.2219  -20.0364 C   0  0  0  0  0  0  0  0  0  0  0  0
  -12.0498    3.6259  -19.9838 C   0  0  0  0  0  0  0  0  0  0  0  0
  -13.1284    2.7648  -19.6478 O   0  0  0  0  0  0  0  0  0  0  0  0
 36 37  1  0  0  0
 37 29  1  0  0  0
 29  1  1  0  0  0
 29 30  1  0  0  0
  1  2  2  0  0  0
  1  3  1  0  0  0
  3  4  1  0  0  0
  3 10  1  0  0  0
  4  5  1  0  0  0
  5  6  2  0  0  0
  5  9  1  0  0  0
  6  7  1  0  0  0
  7  8  1  0  0  0
  7 11  1  0  0  0
  8 12  1  0  0  0
  8  9  2  0  0  0
 12 13  1  0  0  0
 12 15  1  0  0  0
 13 14  2  0  0  0
 13 16  1  0  0  0
 16 17  1  0  0  0
 16 21  2  0  0  0
 17 18  2  0  0  0
 18 19  1  0  0  0
 19 22  1  0  0  0
 19 20  2  0  0  0
 22 23  1  0  0  0
 22 28  1  0  0  0
 23 24  1  0  0  0
 24 25  1  0  0  0
 25 26  1  0  0  0
 25 27  1  0  0  0
 27 28  1  0  0  0
 20 21  1  0  0  0
  9 10  1  0  0  0
 30 31  1  0  0  0
 30 35  2  0  0  0
 31 32  2  0  0  0
 32 33  1  0  0  0
 33 34  2  0  0  0
 34 35  1  0  0  0
M  END
> <minimizedAffinity>
-9.09401

$$$$
