CHEMBL3906005


 49 53  0  0  0  0  0  0  0  0999 V2000
  -27.5188   -8.9944   -5.0890 C   0  0  0  0  0  0  0  0  0  0  0  0
  -28.0466   -8.7624   -3.8368 C   0  0  0  0  0  0  0  0  0  0  0  0
  -29.0217   -7.7262   -3.8338 C   0  0  0  0  0  0  0  0  0  0  0  0
  -29.6933   -7.3004   -2.7311 N   0  0  0  0  0  0  0  0  0  0  0  0
  -30.5641   -6.2965   -2.9284 C   0  0  0  0  0  0  0  0  0  0  0  0
  -30.8218   -5.6943   -4.1449 C   0  0  0  0  0  0  0  0  0  0  0  0
  -30.1832   -6.1773   -5.2901 C   0  0  0  0  0  0  0  0  0  0  0  0
  -29.2319   -7.1923   -5.1053 C   0  0  0  0  0  0  0  0  0  0  0  0
  -28.2201   -7.9583   -6.2605 S   0  0  0  0  0  0  0  0  0  0  0  0
  -26.2359  -10.0653   -6.7859 N   0  0  0  0  0  0  0  0  0  0  0  0
  -26.5106   -9.9808   -5.4483 C   0  0  0  0  0  0  0  0  0  0  0  0
  -25.9399  -10.6986   -4.6249 O   0  0  0  0  0  0  0  0  0  0  0  0
  -26.7639   -9.4525   -7.3949 H   0  0  0  0  0  0  0  0  0  0  0  0
  -25.3458  -11.0548   -7.3615 C   0  0  0  0  0  0  0  0  0  0  0  0
  -25.6758  -11.3200   -8.8316 C   0  0  0  0  0  0  0  0  0  0  0  0
  -26.7398  -10.3403   -9.3476 C   0  0  0  0  0  0  0  0  0  0  0  0
  -31.4575  -11.1411   -7.9089 C   0  0  0  0  0  0  0  0  0  0  0  0
  -31.7833  -12.1698   -7.3283 O   0  0  0  0  0  0  0  0  0  0  0  0
  -30.1633  -10.8414   -8.2739 N   0  0  0  0  0  0  0  0  0  0  0  0
  -29.7805   -9.6588   -9.0498 C   0  0  0  0  0  0  0  0  0  0  0  0
  -29.0012  -10.0547  -10.3214 C   0  0  0  0  0  0  0  0  0  0  0  0
  -27.8511  -10.9600  -10.0878 N   0  0  0  0  0  0  0  0  0  0  0  0
  -28.3461  -12.1511   -9.3448 C   0  0  0  0  0  0  0  0  0  0  0  0
  -29.1089  -11.8225   -8.0408 C   0  0  0  0  0  0  0  0  0  0  0  0
  -32.3437  -10.2055   -8.3396 O   0  0  0  0  0  0  0  0  0  0  0  0
  -32.6540   -8.2138   -7.0667 C   0  0  0  0  0  0  0  0  0  0  0  0
  -33.1550   -9.6266   -7.3108 C   0  0  0  0  0  0  0  0  0  0  0  0
  -30.4413   -5.6833   -6.5601 O   0  0  0  0  0  0  0  0  0  0  0  0
  -29.5671   -4.7540   -7.0882 C   0  0  0  0  0  0  0  0  0  0  0  0
  -28.5826   -5.0800   -8.0193 C   0  0  0  0  0  0  0  0  0  0  0  0
  -27.8266   -4.0804   -8.6219 C   0  0  0  0  0  0  0  0  0  0  0  0
  -27.9908   -2.7394   -8.2689 C   0  0  0  0  0  0  0  0  0  0  0  0
  -28.8820   -2.4386   -7.2344 C   0  0  0  0  0  0  0  0  0  0  0  0
  -29.0250   -1.1668   -6.8267 F   0  0  0  0  0  0  0  0  0  0  0  0
  -29.6765   -3.4325   -6.6479 C   0  0  0  0  0  0  0  0  0  0  0  0
  -27.2712   -1.7093   -8.9320 N   0  0  0  0  0  0  0  0  0  0  0  0
  -26.7816   -1.8648  -10.2165 C   0  0  0  0  0  0  0  0  0  0  0  0
  -27.0338   -2.8322  -10.9309 O   0  0  0  0  0  0  0  0  0  0  0  0
  -25.9432   -0.8320  -10.6142 N   0  0  0  0  0  0  0  0  0  0  0  0
  -27.4151   -0.7618   -8.6043 H   0  0  0  0  0  0  0  0  0  0  0  0
  -25.3371   -0.5021   -9.8718 H   0  0  0  0  0  0  0  0  0  0  0  0
  -25.3059   -0.9761  -11.8800 C   0  0  0  0  0  0  0  0  0  0  0  0
  -23.9696   -0.5943  -12.0587 C   0  0  0  0  0  0  0  0  0  0  0  0
  -23.4165   -0.5028  -13.3424 C   0  0  0  0  0  0  0  0  0  0  0  0
  -22.0144   -0.0019  -13.5314 C   0  0  0  0  0  0  0  0  0  0  0  0
  -24.2173   -0.8090  -14.4502 C   0  0  0  0  0  0  0  0  0  0  0  0
  -25.5307   -1.2542  -14.2723 C   0  0  0  0  0  0  0  0  0  0  0  0
  -26.0593   -1.3573  -12.9884 C   0  0  0  0  0  0  0  0  0  0  0  0
  -27.3408   -1.7235  -12.8317 F   0  0  0  0  0  0  0  0  0  0  0  0
 26 27  1  0  0  0
 27 25  1  0  0  0
 25 17  1  0  0  0
 17 18  2  0  0  0
 17 19  1  0  0  0
 19 20  1  0  0  0
 19 24  1  0  0  0
 20 21  1  0  0  0
 21 22  1  0  0  0
 22 16  1  0  0  0
 22 23  1  0  0  0
 16 15  1  0  0  0
 15 14  1  0  0  0
 14 10  1  0  0  0
 10 11  1  0  0  0
 10 13  1  0  0  0
 11 12  2  0  0  0
 11  1  1  0  0  0
  1  2  2  0  0  0
  1  9  1  0  0  0
  2  3  1  0  0  0
  3  4  1  0  0  0
  3  8  2  0  0  0
  4  5  2  0  0  0
  5  6  1  0  0  0
  6  7  2  0  0  0
  7 28  1  0  0  0
  7  8  1  0  0  0
 28 29  1  0  0  0
 29 30  1  0  0  0
 29 35  2  0  0  0
 30 31  2  0  0  0
 31 32  1  0  0  0
 32 36  1  0  0  0
 32 33  2  0  0  0
 36 37  1  0  0  0
 36 40  1  0  0  0
 37 38  2  0  0  0
 37 39  1  0  0  0
 39 42  1  0  0  0
 39 41  1  0  0  0
 42 43  1  0  0  0
 42 48  2  0  0  0
 43 44  2  0  0  0
 44 45  1  0  0  0
 44 46  1  0  0  0
 46 47  2  0  0  0
 47 48  1  0  0  0
 48 49  1  0  0  0
 33 34  1  0  0  0
 33 35  1  0  0  0
  8  9  1  0  0  0
 23 24  1  0  0  0
M  END
> <minimizedAffinity>
-9.65814

$$$$
