CHEMBL404718


 33 38  0  0  0  0  0  0  0  0999 V2000
  -21.0390    1.4943  -14.6321 C   0  0  0  0  0  0  0  0  0  0  0  0
  -21.3140    2.7141  -15.2559 C   0  0  0  0  0  0  0  0  0  0  0  0
  -20.2912    3.5433  -15.6242 C   0  0  0  0  0  0  0  0  0  0  0  0
  -19.0137    3.0802  -15.3595 C   0  0  0  0  0  0  0  0  0  0  0  0
  -17.8880    3.8417  -15.4522 N   0  0  0  0  0  0  0  0  0  0  0  0
  -16.7840    3.0464  -15.5004 C   0  0  0  0  0  0  0  0  0  0  0  0
  -15.5343    3.4018  -15.9731 C   0  0  0  0  0  0  0  0  0  0  0  0
  -14.5648    2.3832  -16.1847 C   0  0  0  0  0  0  0  0  0  0  0  0
  -14.9215    1.1297  -15.5738 C   0  0  0  0  0  0  0  0  0  0  0  0
  -16.2502    0.8218  -15.0241 C   0  0  0  0  0  0  0  0  0  0  0  0
  -17.2331    1.8300  -15.1164 C   0  0  0  0  0  0  0  0  0  0  0  0
  -18.6373    1.7977  -14.9460 C   0  0  0  0  0  0  0  0  0  0  0  0
  -19.7089    0.9711  -14.5094 C   0  0  0  0  0  0  0  0  0  0  0  0
  -16.3332   -0.4770  -14.3649 C   0  0  0  0  0  0  0  0  0  0  0  0
  -14.9231   -0.8714  -14.4637 N   0  0  0  0  0  0  0  0  0  0  0  0
  -14.0795    0.0149  -15.1544 C   0  0  0  0  0  0  0  0  0  0  0  0
  -12.8708   -0.1789  -15.1934 O   0  0  0  0  0  0  0  0  0  0  0  0
  -13.7718    2.6618  -17.4706 C   0  0  0  0  0  0  0  0  0  0  0  0
  -12.4981    3.2634  -17.6206 C   0  0  0  0  0  0  0  0  0  0  0  0
  -12.4814    3.9164  -18.8746 N   0  0  0  0  0  0  0  0  0  0  0  0
  -11.8134    5.1340  -19.3110 C   0  0  0  0  0  0  0  0  0  0  0  0
  -13.6248    3.6553  -19.5334 N   0  0  0  0  0  0  0  0  0  0  0  0
  -14.4203    3.4954  -18.4761 C   0  0  0  0  0  0  0  0  0  0  0  0
  -15.2204    4.7076  -18.0608 C   0  0  0  0  0  0  0  0  0  0  0  0
  -15.3650    4.7744  -16.5558 C   0  0  0  0  0  0  0  0  0  0  0  0
  -17.9174    4.8277  -15.6596 H   0  0  0  0  0  0  0  0  0  0  0  0
  -14.5306   -1.6060  -13.8959 H   0  0  0  0  0  0  0  0  0  0  0  0
  -22.3860   -0.3964  -14.0487 N   0  0  0  0  0  0  0  0  0  0  0  0
  -22.2382    0.8949  -13.9795 C   0  0  0  0  0  0  0  0  0  0  0  0
  -23.2554    1.8599  -13.4353 C   0  0  0  0  0  0  0  0  0  0  0  0
  -23.6257   -0.8265  -13.5755 O   0  0  0  0  0  0  0  0  0  0  0  0
  -23.1765   -1.7227  -11.4222 C   0  0  0  0  0  0  0  0  0  0  0  0
  -23.4345   -2.0569  -12.8751 C   0  0  0  0  0  0  0  0  0  0  0  0
 32 33  1  0  0  0
 33 31  1  0  0  0
 31 28  1  0  0  0
 28 29  2  0  0  0
 29 30  1  0  0  0
 29  1  1  0  0  0
  1  2  1  0  0  0
  1 13  2  0  0  0
  2  3  2  0  0  0
  3  4  1  0  0  0
  4  5  1  0  0  0
  4 12  2  0  0  0
  5  6  1  0  0  0
  5 26  1  0  0  0
  6  7  1  0  0  0
  6 11  2  0  0  0
  7  8  2  0  0  0
  7 25  1  0  0  0
  8  9  1  0  0  0
  8 18  1  0  0  0
  9 10  2  0  0  0
  9 16  1  0  0  0
 10 11  1  0  0  0
 10 14  1  0  0  0
 11 12  1  0  0  0
 12 13  1  0  0  0
 14 15  1  0  0  0
 15 16  1  0  0  0
 15 27  1  0  0  0
 16 17  2  0  0  0
 18 19  2  0  0  0
 18 23  1  0  0  0
 19 20  1  0  0  0
 20 21  1  0  0  0
 20 22  1  0  0  0
 22 23  2  0  0  0
 23 24  1  0  0  0
 24 25  1  0  0  0
M  END
> <minimizedAffinity>
-9.72035

$$$$
