CHEMBL3890126


 30 33  0  0  0  0  0  0  0  0999 V2000
  -28.8976   -5.1979   -5.5657 C   0  0  0  0  0  0  0  0  0  0  0  0
  -28.3671   -4.1832   -4.7718 C   0  0  0  0  0  0  0  0  0  0  0  0
  -28.0817   -2.9159   -5.2688 C   0  0  0  0  0  0  0  0  0  0  0  0
  -28.1601   -2.6318   -6.5811 C   0  0  0  0  0  0  0  0  0  0  0  0
  -27.9056   -1.3532   -6.8228 N   0  0  0  0  0  0  0  0  0  0  0  0
  -27.7159   -1.0310   -8.0991 C   0  0  0  0  0  0  0  0  0  0  0  0
  -27.7282   -1.9779   -9.1041 C   0  0  0  0  0  0  0  0  0  0  0  0
  -28.1130   -3.2851   -8.8603 N   0  0  0  0  0  0  0  0  0  0  0  0
  -28.3934   -3.6458   -7.5324 C   0  0  0  0  0  0  0  0  0  0  0  0
  -28.8712   -4.9201   -6.9715 C   0  0  0  0  0  0  0  0  0  0  0  0
  -27.1377   -1.5254  -10.3600 C   0  0  0  0  0  0  0  0  0  0  0  0
  -27.6838   -1.5405  -11.6705 C   0  0  0  0  0  0  0  0  0  0  0  0
  -26.7606   -1.3588  -12.6246 N   0  0  0  0  0  0  0  0  0  0  0  0
  -25.6141   -1.2461  -11.9339 N   0  0  0  0  0  0  0  0  0  0  0  0
  -24.3949   -0.8291  -12.5864 C   0  0  0  0  0  0  0  0  0  0  0  0
  -25.7709   -1.4868  -10.5978 C   0  0  0  0  0  0  0  0  0  0  0  0
  -29.3380   -6.4008   -4.9297 N   0  0  0  0  0  0  0  0  0  0  0  0
  -29.4498   -7.7381   -5.4301 C   0  0  0  0  0  0  0  0  0  0  0  0
  -28.5873   -8.7816   -5.0526 C   0  0  0  0  0  0  0  0  0  0  0  0
  -28.7087  -10.0584   -5.6405 C   0  0  0  0  0  0  0  0  0  0  0  0
  -29.7051  -10.3110   -6.5897 C   0  0  0  0  0  0  0  0  0  0  0  0
  -30.5646   -9.2972   -6.9725 C   0  0  0  0  0  0  0  0  0  0  0  0
  -30.4098   -8.0283   -6.4256 C   0  0  0  0  0  0  0  0  0  0  0  0
  -27.9303  -11.1578   -5.3943 O   0  0  0  0  0  0  0  0  0  0  0  0
  -27.0047  -11.5492   -6.3933 C   0  0  0  0  0  0  0  0  0  0  0  0
  -31.5637   -9.4365   -7.8955 O   0  0  0  0  0  0  0  0  0  0  0  0
  -32.8214   -8.9441   -7.4392 C   0  0  0  0  0  0  0  0  0  0  0  0
  -30.1127   -6.2641   -3.6384 C   0  0  0  0  0  0  0  0  0  0  0  0
  -31.8452   -4.4043   -3.3893 C   0  0  0  0  0  0  0  0  0  0  0  0
  -31.5530   -5.8041   -3.9107 C   0  0  0  0  0  0  0  0  0  0  0  0
 29 30  1  0  0  0
 30 28  1  0  0  0
 28 17  1  0  0  0
 17 18  1  0  0  0
 17  1  1  0  0  0
 18 19  1  0  0  0
 18 23  2  0  0  0
 19 20  2  0  0  0
 20 24  1  0  0  0
 20 21  1  0  0  0
 24 25  1  0  0  0
 21 22  2  0  0  0
 22 26  1  0  0  0
 22 23  1  0  0  0
 26 27  1  0  0  0
  1  2  1  0  0  0
  1 10  2  0  0  0
  2  3  2  0  0  0
  3  4  1  0  0  0
  4  5  1  0  0  0
  4  9  2  0  0  0
  5  6  2  0  0  0
  6  7  1  0  0  0
  7 11  1  0  0  0
  7  8  2  0  0  0
 11 12  1  0  0  0
 11 16  2  0  0  0
 12 13  2  0  0  0
 13 14  1  0  0  0
 14 15  1  0  0  0
 14 16  1  0  0  0
  8  9  1  0  0  0
  9 10  1  0  0  0
M  END
> <minimizedAffinity>
-7.90655

$$$$
