CHEMBL429481


 25 28  0  0  0  0  0  0  0  0999 V2000
  -30.8594   -6.3183   -5.5922 C   0  0  0  0  0  0  0  0  0  0  0  0
  -29.9216   -7.2572   -5.8475 C   0  0  0  0  0  0  0  0  0  0  0  0
  -28.4912   -7.2779   -5.5146 C   0  0  0  0  0  0  0  0  0  0  0  0
  -27.9276   -6.9053   -4.4871 O   0  0  0  0  0  0  0  0  0  0  0  0
  -27.9333   -7.9328   -6.5975 N   0  0  0  0  0  0  0  0  0  0  0  0
  -28.8515   -8.6885   -7.2961 N   0  0  0  0  0  0  0  0  0  0  0  0
  -30.0297   -8.3808   -6.8049 C   0  0  0  0  0  0  0  0  0  0  0  0
  -26.9452   -8.1487   -6.6700 H   0  0  0  0  0  0  0  0  0  0  0  0
  -27.2232   -0.4727   -5.0539 C   0  0  0  0  0  0  0  0  0  0  0  0
  -28.1180   -1.6776   -5.0998 C   0  0  0  0  0  0  0  0  0  0  0  0
  -28.1873   -2.4402   -6.2632 C   0  0  0  0  0  0  0  0  0  0  0  0
  -29.1211   -3.4799   -6.3870 C   0  0  0  0  0  0  0  0  0  0  0  0
  -29.6005   -3.9784   -8.1544 Br  0  0  0  0  0  0  0  0  0  0  0  0
  -29.8420   -3.9359   -5.2575 C   0  0  0  0  0  0  0  0  0  0  0  0
  -30.6719   -5.0673   -4.9086 C   0  0  0  0  0  0  0  0  0  0  0  0
  -31.2022   -4.8002   -3.6666 C   0  0  0  0  0  0  0  0  0  0  0  0
  -30.7411   -3.5888   -3.2441 N   0  0  0  0  0  0  0  0  0  0  0  0
  -31.1929   -2.9144   -2.0450 C   0  0  0  0  0  0  0  0  0  0  0  0
  -29.8079   -3.0973   -4.1295 C   0  0  0  0  0  0  0  0  0  0  0  0
  -28.9858   -1.9580   -4.0397 C   0  0  0  0  0  0  0  0  0  0  0  0
  -31.1939   -9.1593   -7.0572 C   0  0  0  0  0  0  0  0  0  0  0  0
  -32.4842   -8.8001   -7.4027 C   0  0  0  0  0  0  0  0  0  0  0  0
  -33.4032   -9.8395   -7.4012 N   0  0  0  0  0  0  0  0  0  0  0  0
  -32.8386  -10.9882   -7.0716 N   0  0  0  0  0  0  0  0  0  0  0  0
  -31.2052  -10.8468   -6.7577 S   0  0  0  0  0  0  0  0  0  0  0  0
  9 10  1  0  0  0
 10 11  1  0  0  0
 10 20  2  0  0  0
 11 12  2  0  0  0
 12 13  1  0  0  0
 12 14  1  0  0  0
 14 15  1  0  0  0
 14 19  2  0  0  0
 15  1  1  0  0  0
 15 16  2  0  0  0
  1  2  2  0  0  0
  2  3  1  0  0  0
  2  7  1  0  0  0
  3  4  2  0  0  0
  3  5  1  0  0  0
  5  6  1  0  0  0
  5  8  1  0  0  0
  6  7  2  0  0  0
  7 21  1  0  0  0
 21 22  2  0  0  0
 21 25  1  0  0  0
 22 23  1  0  0  0
 23 24  2  0  0  0
 24 25  1  0  0  0
 16 17  1  0  0  0
 17 18  1  0  0  0
 17 19  1  0  0  0
 19 20  1  0  0  0
M  END
> <minimizedAffinity>
-7.97848

$$$$
