CHEMBL4458736


 37 40  0  0  0  0  0  0  0  0999 V2000
  -19.4468    2.2657  -14.5687 C   0  0  0  0  0  0  0  0  0  0  0  0
  -18.5064    1.3555  -14.0726 C   0  0  0  0  0  0  0  0  0  0  0  0
  -17.1788    1.4330  -14.4793 C   0  0  0  0  0  0  0  0  0  0  0  0
  -16.7917    2.4267  -15.3878 C   0  0  0  0  0  0  0  0  0  0  0  0
  -17.7466    3.2784  -15.9480 C   0  0  0  0  0  0  0  0  0  0  0  0
  -19.0801    3.1875  -15.5507 C   0  0  0  0  0  0  0  0  0  0  0  0
  -22.7976    1.4089  -13.5305 N   0  0  0  0  0  0  0  0  0  0  0  0
  -21.5755    1.2339  -14.1510 C   0  0  0  0  0  0  0  0  0  0  0  0
  -21.2184    0.2094  -14.7265 O   0  0  0  0  0  0  0  0  0  0  0  0
  -20.7452    2.3410  -14.0116 N   0  0  0  0  0  0  0  0  0  0  0  0
  -23.0479    2.3487  -13.2548 H   0  0  0  0  0  0  0  0  0  0  0  0
  -20.8171    2.7937  -13.1117 H   0  0  0  0  0  0  0  0  0  0  0  0
  -25.7421   -1.5757  -12.9511 C   0  0  0  0  0  0  0  0  0  0  0  0
  -25.1089   -1.4630  -14.1816 C   0  0  0  0  0  0  0  0  0  0  0  0
  -24.1389   -0.4812  -14.3853 C   0  0  0  0  0  0  0  0  0  0  0  0
  -23.7820    0.4112  -13.3715 C   0  0  0  0  0  0  0  0  0  0  0  0
  -24.4188    0.2975  -12.1342 C   0  0  0  0  0  0  0  0  0  0  0  0
  -25.3921   -0.6904  -11.9279 C   0  0  0  0  0  0  0  0  0  0  0  0
  -27.9750   -2.3137  -13.2553 C   0  0  0  0  0  0  0  0  0  0  0  0
  -26.7031   -2.4967  -12.6386 O   0  0  0  0  0  0  0  0  0  0  0  0
  -15.3534    2.5238  -15.7440 C   0  0  0  0  0  0  0  0  0  0  0  0
  -15.0430    2.9854  -16.8396 O   0  0  0  0  0  0  0  0  0  0  0  0
  -14.4516    2.0083  -14.7887 N   0  0  0  0  0  0  0  0  0  0  0  0
  -14.8136    1.2901  -14.1681 H   0  0  0  0  0  0  0  0  0  0  0  0
  -13.1541    1.7873  -15.1821 N   0  0  0  0  0  0  0  0  0  0  0  0
  -12.2578    2.3500  -14.4279 C   0  0  0  0  0  0  0  0  0  0  0  0
  -12.3141    2.6756  -12.9253 C   0  0  0  0  0  0  0  0  0  0  0  0
  -12.9387    2.0647  -12.0843 O   0  0  0  0  0  0  0  0  0  0  0  0
  -11.5093    3.7865  -12.7684 N   0  0  0  0  0  0  0  0  0  0  0  0
  -11.0959    4.2442  -14.0171 C   0  0  0  0  0  0  0  0  0  0  0  0
  -10.8293    5.5514  -14.3710 C   0  0  0  0  0  0  0  0  0  0  0  0
  -10.7156    5.8301  -15.7414 C   0  0  0  0  0  0  0  0  0  0  0  0
  -10.7840    4.8019  -16.6999 C   0  0  0  0  0  0  0  0  0  0  0  0
  -10.6965    5.1129  -17.9997 F   0  0  0  0  0  0  0  0  0  0  0  0
  -11.0599    3.4919  -16.3427 C   0  0  0  0  0  0  0  0  0  0  0  0
  -11.2706    3.2647  -14.9988 C   0  0  0  0  0  0  0  0  0  0  0  0
  -11.3982    4.2617  -11.8850 H   0  0  0  0  0  0  0  0  0  0  0  0
 19 20  1  0  0  0
 20 13  1  0  0  0
 13 14  1  0  0  0
 13 18  2  0  0  0
 14 15  2  0  0  0
 15 16  1  0  0  0
 16  7  1  0  0  0
 16 17  2  0  0  0
  7  8  1  0  0  0
  7 11  1  0  0  0
  8  9  2  0  0  0
  8 10  1  0  0  0
 10  1  1  0  0  0
 10 12  1  0  0  0
  1  2  1  0  0  0
  1  6  2  0  0  0
  2  3  2  0  0  0
  3  4  1  0  0  0
  4 21  1  0  0  0
  4  5  2  0  0  0
 21 22  2  0  0  0
 21 23  1  0  0  0
 23 25  1  0  0  0
 23 24  1  0  0  0
 25 26  2  0  0  0
 26 27  1  0  0  0
 26 36  1  0  0  0
 27 28  2  0  0  0
 27 29  1  0  0  0
 29 30  1  0  0  0
 29 37  1  0  0  0
 30 31  1  0  0  0
 30 36  2  0  0  0
 31 32  2  0  0  0
 32 33  1  0  0  0
 33 34  1  0  0  0
 33 35  2  0  0  0
 35 36  1  0  0  0
  5  6  1  0  0  0
 17 18  1  0  0  0
M  END
> <minimizedAffinity>
-9.63438

$$$$
