CHEMBL1258603


 35 39  0  0  0  0  0  0  0  0999 V2000
  -13.1087    0.5441  -15.5403 C   0  0  0  0  0  0  0  0  0  0  0  0
  -14.2051    1.5383  -15.8378 C   0  0  0  0  0  0  0  0  0  0  0  0
  -13.6824    2.6195  -16.6906 C   0  0  0  0  0  0  0  0  0  0  0  0
  -14.6342    3.4895  -17.0201 C   0  0  0  0  0  0  0  0  0  0  0  0
  -15.8226    3.0235  -16.3750 C   0  0  0  0  0  0  0  0  0  0  0  0
  -17.0212    3.6193  -16.5783 C   0  0  0  0  0  0  0  0  0  0  0  0
  -17.9177    2.8781  -15.8606 C   0  0  0  0  0  0  0  0  0  0  0  0
  -18.7999    2.2192  -15.1961 C   0  0  0  0  0  0  0  0  0  0  0  0
  -17.9856    1.0530  -14.6054 C   0  0  0  0  0  0  0  0  0  0  0  0
  -16.5872    0.8228  -14.7724 C   0  0  0  0  0  0  0  0  0  0  0  0
  -15.5504    1.7312  -15.5773 C   0  0  0  0  0  0  0  0  0  0  0  0
  -14.6030    4.6627  -17.8039 C   0  0  0  0  0  0  0  0  0  0  0  0
  -13.9450    5.8030  -17.7071 C   0  0  0  0  0  0  0  0  0  0  0  0
  -12.9582    6.3269  -16.7284 C   0  0  0  0  0  0  0  0  0  0  0  0
  -12.4792    5.7905  -15.7518 O   0  0  0  0  0  0  0  0  0  0  0  0
  -12.6873    7.6042  -17.1932 N   0  0  0  0  0  0  0  0  0  0  0  0
  -13.4082    7.8970  -18.3511 C   0  0  0  0  0  0  0  0  0  0  0  0
  -13.4043    9.0483  -19.0990 C   0  0  0  0  0  0  0  0  0  0  0  0
  -14.2329    9.0906  -20.2315 C   0  0  0  0  0  0  0  0  0  0  0  0
  -15.0299    7.9954  -20.5871 C   0  0  0  0  0  0  0  0  0  0  0  0
  -15.8044    8.0543  -21.6773 F   0  0  0  0  0  0  0  0  0  0  0  0
  -15.0274    6.8409  -19.8318 C   0  0  0  0  0  0  0  0  0  0  0  0
  -14.2019    6.8183  -18.7159 C   0  0  0  0  0  0  0  0  0  0  0  0
  -12.0339    8.1991  -16.7125 H   0  0  0  0  0  0  0  0  0  0  0  0
  -15.8412   -0.2522  -14.3188 O   0  0  0  0  0  0  0  0  0  0  0  0
  -15.5739   -0.6594  -12.9753 C   0  0  0  0  0  0  0  0  0  0  0  0
  -14.4320   -1.7270  -12.9404 C   0  0  0  0  0  0  0  0  0  0  0  0
  -14.6754   -2.9835  -12.2069 N   0  0  0  0  0  0  0  0  0  0  0  0
  -14.9103   -4.1107  -13.1091 C   0  0  0  0  0  0  0  0  0  0  0  0
  -16.3445   -4.5206  -12.8735 C   0  0  0  0  0  0  0  0  0  0  0  0
  -16.4921   -4.3431  -11.3816 C   0  0  0  0  0  0  0  0  0  0  0  0
  -15.6019   -3.1183  -11.0562 C   0  0  0  0  0  0  0  0  0  0  0  0
  -14.8127   -3.4314   -9.7578 C   0  0  0  0  0  0  0  0  0  0  0  0
  -14.8353   -4.8139   -9.4107 O   0  0  0  0  0  0  0  0  0  0  0  0
  -15.7500   -5.0502   -9.1755 H   0  0  0  0  0  0  0  0  0  0  0  0
  1  2  1  0  0  0
  2  3  1  0  0  0
  2 11  2  0  0  0
  3  4  2  0  0  0
  4 12  1  0  0  0
  4  5  1  0  0  0
 12 13  2  0  0  0
 13 14  1  0  0  0
 13 23  1  0  0  0
 14 15  2  0  0  0
 14 16  1  0  0  0
 16 17  1  0  0  0
 16 24  1  0  0  0
 17 18  1  0  0  0
 17 23  2  0  0  0
 18 19  2  0  0  0
 19 20  1  0  0  0
 20 21  1  0  0  0
 20 22  2  0  0  0
 22 23  1  0  0  0
  5  6  2  0  0  0
  5 11  1  0  0  0
  6  7  1  0  0  0
  7  8  2  0  0  0
  8  9  1  0  0  0
  9 10  2  0  0  0
 10 25  1  0  0  0
 10 11  1  0  0  0
 25 26  1  0  0  0
 26 27  1  0  0  0
 27 28  1  0  0  0
 28 29  1  0  0  0
 28 32  1  0  0  0
 29 30  1  0  0  0
 30 31  1  0  0  0
 31 32  1  0  0  0
 32 33  1  0  0  0
 33 34  1  0  0  0
 34 35  1  0  0  0
M  END
> <minimizedAffinity>
-8.19104

$$$$
