CHEMBL3963347


 35 39  0  0  0  0  0  0  0  0999 V2000
  -29.9289   -9.2462   -6.6477 C   0  0  0  0  0  0  0  0  0  0  0  0
  -30.9922   -8.3982   -6.9980 C   0  0  0  0  0  0  0  0  0  0  0  0
  -31.1041   -7.0928   -6.4563 C   0  0  0  0  0  0  0  0  0  0  0  0
  -30.2203   -6.7147   -5.4246 C   0  0  0  0  0  0  0  0  0  0  0  0
  -29.8037   -5.5523   -4.6844 C   0  0  0  0  0  0  0  0  0  0  0  0
  -29.3838   -5.9715   -3.4749 N   0  0  0  0  0  0  0  0  0  0  0  0
  -28.8698   -7.1708   -3.7784 N   0  0  0  0  0  0  0  0  0  0  0  0
  -29.3313   -7.6780   -4.9607 C   0  0  0  0  0  0  0  0  0  0  0  0
  -29.0626   -8.8779   -5.6161 C   0  0  0  0  0  0  0  0  0  0  0  0
  -28.2350   -7.6085   -3.1202 H   0  0  0  0  0  0  0  0  0  0  0  0
  -29.1024   -4.3829   -5.1834 C   0  0  0  0  0  0  0  0  0  0  0  0
  -28.5875   -3.4420   -4.3665 C   0  0  0  0  0  0  0  0  0  0  0  0
  -28.6004   -1.9929   -4.6635 C   0  0  0  0  0  0  0  0  0  0  0  0
  -29.8128   -1.3650   -4.9408 C   0  0  0  0  0  0  0  0  0  0  0  0
  -29.8113   -0.0498   -5.4061 C   0  0  0  0  0  0  0  0  0  0  0  0
  -28.6015    0.6009   -5.6040 C   0  0  0  0  0  0  0  0  0  0  0  0
  -27.4396   -0.0941   -5.3148 C   0  0  0  0  0  0  0  0  0  0  0  0
  -27.4125   -1.3651   -4.8438 N   0  0  0  0  0  0  0  0  0  0  0  0
  -29.7338  -10.9026   -7.3021 S   0  0  0  0  0  0  0  0  0  0  0  0
  -27.3528  -10.7742   -8.8623 C   0  0  0  0  0  0  0  0  0  0  0  0
  -26.7149  -10.5511  -10.1060 C   0  0  0  0  0  0  0  0  0  0  0  0
  -27.4502  -10.2602  -11.2529 C   0  0  0  0  0  0  0  0  0  0  0  0
  -28.8341  -10.1921  -11.1762 C   0  0  0  0  0  0  0  0  0  0  0  0
  -29.4743  -10.3868   -9.9496 C   0  0  0  0  0  0  0  0  0  0  0  0
  -28.7503  -10.6565   -8.7743 C   0  0  0  0  0  0  0  0  0  0  0  0
  -26.2007  -12.3442   -7.5860 O   0  0  0  0  0  0  0  0  0  0  0  0
  -26.4181  -11.1480   -7.7532 C   0  0  0  0  0  0  0  0  0  0  0  0
  -25.9678  -10.1170   -6.9487 N   0  0  0  0  0  0  0  0  0  0  0  0
  -26.1965   -9.1742   -7.2421 H   0  0  0  0  0  0  0  0  0  0  0  0
  -25.1957  -10.2397   -5.7675 C   0  0  0  0  0  0  0  0  0  0  0  0
  -25.7140  -10.0805   -4.4776 C   0  0  0  0  0  0  0  0  0  0  0  0
  -24.8904  -10.2340   -3.3640 C   0  0  0  0  0  0  0  0  0  0  0  0
  -23.5421  -10.5314   -3.5110 C   0  0  0  0  0  0  0  0  0  0  0  0
  -23.0102  -10.6758   -4.7883 C   0  0  0  0  0  0  0  0  0  0  0  0
  -23.8312  -10.5260   -5.9110 C   0  0  0  0  0  0  0  0  0  0  0  0
 26 27  2  0  0  0
 27 28  1  0  0  0
 27 20  1  0  0  0
 28 30  1  0  0  0
 28 29  1  0  0  0
 30 31  1  0  0  0
 30 35  2  0  0  0
 31 32  2  0  0  0
 32 33  1  0  0  0
 33 34  2  0  0  0
 34 35  1  0  0  0
 20 21  1  0  0  0
 20 25  2  0  0  0
 21 22  2  0  0  0
 22 23  1  0  0  0
 23 24  2  0  0  0
 24 25  1  0  0  0
 25 19  1  0  0  0
 19  1  1  0  0  0
  1  2  1  0  0  0
  1  9  2  0  0  0
  2  3  2  0  0  0
  3  4  1  0  0  0
  4  5  1  0  0  0
  4  8  2  0  0  0
  5 11  1  0  0  0
  5  6  2  0  0  0
 11 12  2  0  0  0
 12 13  1  0  0  0
 13 14  1  0  0  0
 13 18  2  0  0  0
 14 15  2  0  0  0
 15 16  1  0  0  0
 16 17  2  0  0  0
 17 18  1  0  0  0
  6  7  1  0  0  0
  7  8  1  0  0  0
  7 10  1  0  0  0
  8  9  1  0  0  0
M  END
> <minimizedAffinity>
-9.46885

$$$$
