CHEMBL524086


 31 35  0  0  0  0  0  0  0  0999 V2000
  -29.1488   11.2882  -12.9572 C   0  0  0  0  0  0  0  0  0  0  0  0
  -29.4560   10.2535  -13.8062 C   0  0  0  0  0  0  0  0  0  0  0  0
  -28.5857   10.0619  -14.8540 C   0  0  0  0  0  0  0  0  0  0  0  0
  -27.4939   10.8171  -15.0728 N   0  0  0  0  0  0  0  0  0  0  0  0
  -27.2297   11.7519  -14.1561 C   0  0  0  0  0  0  0  0  0  0  0  0
  -28.0404   12.0193  -13.1215 N   0  0  0  0  0  0  0  0  0  0  0  0
  -28.3416   12.6583  -10.0522 C   0  0  0  0  0  0  0  0  0  0  0  0
  -29.6683   12.2399  -10.5697 C   0  0  0  0  0  0  0  0  0  0  0  0
  -30.7490   12.4168   -9.8011 N   0  0  0  0  0  0  0  0  0  0  0  0
  -31.7750   12.0004  -10.5580 N   0  0  0  0  0  0  0  0  0  0  0  0
  -33.0275   12.0348  -10.0543 N   0  0  0  0  0  0  0  0  0  0  0  0
  -33.9182   11.6098  -10.8938 C   0  0  0  0  0  0  0  0  0  0  0  0
  -33.6666   11.1271  -12.2726 C   0  0  0  0  0  0  0  0  0  0  0  0
  -32.3968   11.1141  -12.6826 C   0  0  0  0  0  0  0  0  0  0  0  0
  -31.3764   11.5579  -11.8028 C   0  0  0  0  0  0  0  0  0  0  0  0
  -29.9912   11.6677  -11.8326 C   0  0  0  0  0  0  0  0  0  0  0  0
  -26.0332   12.4629  -14.2549 N   0  0  0  0  0  0  0  0  0  0  0  0
  -25.7014   12.7506  -13.3497 H   0  0  0  0  0  0  0  0  0  0  0  0
  -25.1123   12.3096  -15.2979 C   0  0  0  0  0  0  0  0  0  0  0  0
  -25.4753   12.6500  -16.6057 C   0  0  0  0  0  0  0  0  0  0  0  0
  -24.6301   12.4022  -17.6803 C   0  0  0  0  0  0  0  0  0  0  0  0
  -23.3760   11.8162  -17.4980 C   0  0  0  0  0  0  0  0  0  0  0  0
  -22.9979   11.5266  -16.1773 C   0  0  0  0  0  0  0  0  0  0  0  0
  -23.8473   11.7722  -15.0875 C   0  0  0  0  0  0  0  0  0  0  0  0
  -22.5560   11.5883  -18.5786 N   0  0  0  0  0  0  0  0  0  0  0  0
  -21.4095   10.6789  -18.5135 C   0  0  0  0  0  0  0  0  0  0  0  0
  -20.2110   11.3187  -19.2500 C   0  0  0  0  0  0  0  0  0  0  0  0
  -20.5315   11.6839  -20.6489 N   0  0  0  0  0  0  0  0  0  0  0  0
  -19.3746   12.2947  -21.2946 C   0  0  0  0  0  0  0  0  0  0  0  0
  -21.6844   12.6149  -20.6512 C   0  0  0  0  0  0  0  0  0  0  0  0
  -22.9204   12.0204  -19.9395 C   0  0  0  0  0  0  0  0  0  0  0  0
  7  8  1  0  0  0
  8  9  2  0  0  0
  8 16  1  0  0  0
  9 10  1  0  0  0
 10 11  1  0  0  0
 10 15  1  0  0  0
 11 12  2  0  0  0
 12 13  1  0  0  0
 13 14  2  0  0  0
 14 15  1  0  0  0
 15 16  2  0  0  0
 16  1  1  0  0  0
  1  2  1  0  0  0
  1  6  2  0  0  0
  2  3  2  0  0  0
  3  4  1  0  0  0
  4  5  2  0  0  0
  5 17  1  0  0  0
  5  6  1  0  0  0
 17 19  1  0  0  0
 17 18  1  0  0  0
 19 20  1  0  0  0
 19 24  2  0  0  0
 20 21  2  0  0  0
 21 22  1  0  0  0
 22 25  1  0  0  0
 22 23  2  0  0  0
 25 26  1  0  0  0
 25 31  1  0  0  0
 26 27  1  0  0  0
 27 28  1  0  0  0
 28 29  1  0  0  0
 28 30  1  0  0  0
 30 31  1  0  0  0
 23 24  1  0  0  0
M  END
> <minimizedAffinity>
-5.38606

$$$$
