CHEMBL3690507


 29 32  0  0  0  0  0  0  0  0999 V2000
  -29.1586   -2.6781   -5.5009 C   0  0  0  0  0  0  0  0  0  0  0  0
  -29.0319   -1.3549   -5.1021 C   0  0  0  0  0  0  0  0  0  0  0  0
  -28.4225   -0.5793   -6.0501 N   0  0  0  0  0  0  0  0  0  0  0  0
  -28.1761   -1.3928   -7.0504 C   0  0  0  0  0  0  0  0  0  0  0  0
  -27.5701   -1.1442   -8.3176 C   0  0  0  0  0  0  0  0  0  0  0  0
  -27.4297   -2.1445   -9.2167 C   0  0  0  0  0  0  0  0  0  0  0  0
  -27.9004   -3.4886   -8.8989 C   0  0  0  0  0  0  0  0  0  0  0  0
  -28.5040   -3.7188   -7.7240 C   0  0  0  0  0  0  0  0  0  0  0  0
  -28.6238   -2.6883   -6.7869 N   0  0  0  0  0  0  0  0  0  0  0  0
  -26.8575   -1.8307  -10.5337 C   0  0  0  0  0  0  0  0  0  0  0  0
  -25.5236   -1.4201  -10.6515 C   0  0  0  0  0  0  0  0  0  0  0  0
  -24.9866   -1.1566  -11.9119 C   0  0  0  0  0  0  0  0  0  0  0  0
  -25.7801   -1.3103  -13.0439 C   0  0  0  0  0  0  0  0  0  0  0  0
  -25.2610   -1.0571  -14.2521 F   0  0  0  0  0  0  0  0  0  0  0  0
  -27.1023   -1.7275  -12.9423 C   0  0  0  0  0  0  0  0  0  0  0  0
  -27.6427   -1.9914  -11.6851 C   0  0  0  0  0  0  0  0  0  0  0  0
  -29.5306   -6.0033   -3.6933 C   0  0  0  0  0  0  0  0  0  0  0  0
  -30.8965   -5.9966   -3.4233 C   0  0  0  0  0  0  0  0  0  0  0  0
  -31.6865   -4.9180   -3.8226 C   0  0  0  0  0  0  0  0  0  0  0  0
  -31.1172   -3.8460   -4.5122 C   0  0  0  0  0  0  0  0  0  0  0  0
  -29.7419   -3.8164   -4.7768 C   0  0  0  0  0  0  0  0  0  0  0  0
  -28.9576   -4.8866   -4.3152 C   0  0  0  0  0  0  0  0  0  0  0  0
  -27.4012   -8.9371   -3.6389 N   0  0  0  0  0  0  0  0  0  0  0  0
  -28.1960   -8.0200   -4.2572 C   0  0  0  0  0  0  0  0  0  0  0  0
  -28.3730   -8.0949   -5.4663 O   0  0  0  0  0  0  0  0  0  0  0  0
  -28.6799   -7.0846   -3.3834 N   0  0  0  0  0  0  0  0  0  0  0  0
  -27.1134   -9.6756   -4.2715 H   0  0  0  0  0  0  0  0  0  0  0  0
  -27.7065   -9.2707   -2.7346 H   0  0  0  0  0  0  0  0  0  0  0  0
  -28.2061   -7.0576   -2.4923 H   0  0  0  0  0  0  0  0  0  0  0  0
 23 24  1  0  0  0
 23 27  1  0  0  0
 23 28  1  0  0  0
 24 25  2  0  0  0
 24 26  1  0  0  0
 26 17  1  0  0  0
 26 29  1  0  0  0
 17 18  1  0  0  0
 17 22  2  0  0  0
 18 19  2  0  0  0
 19 20  1  0  0  0
 20 21  2  0  0  0
 21  1  1  0  0  0
 21 22  1  0  0  0
  1  2  2  0  0  0
  1  9  1  0  0  0
  2  3  1  0  0  0
  3  4  2  0  0  0
  4  5  1  0  0  0
  4  9  1  0  0  0
  5  6  2  0  0  0
  6 10  1  0  0  0
  6  7  1  0  0  0
 10 11  1  0  0  0
 10 16  2  0  0  0
 11 12  2  0  0  0
 12 13  1  0  0  0
 13 14  1  0  0  0
 13 15  2  0  0  0
 15 16  1  0  0  0
  7  8  2  0  0  0
  8  9  1  0  0  0
M  END
> <minimizedAffinity>
-9.57075

$$$$
