CHEMBL3775940


 26 28  0  0  0  0  0  0  0  0999 V2000
  -30.7153   -8.1107   -7.2911 C   0  0  0  0  0  0  0  0  0  0  0  0
  -31.4713   -7.5804   -6.2374 C   0  0  0  0  0  0  0  0  0  0  0  0
  -31.0507   -6.4864   -5.4958 C   0  0  0  0  0  0  0  0  0  0  0  0
  -31.8142   -6.0934   -4.4737 N   0  0  0  0  0  0  0  0  0  0  0  0
  -31.3550   -5.0745   -3.7427 C   0  0  0  0  0  0  0  0  0  0  0  0
  -30.2214   -4.4068   -3.9539 N   0  0  0  0  0  0  0  0  0  0  0  0
  -29.4585   -4.8106   -4.9881 C   0  0  0  0  0  0  0  0  0  0  0  0
  -29.8383   -5.8754   -5.8250 C   0  0  0  0  0  0  0  0  0  0  0  0
  -29.0929   -6.3682   -6.9258 C   0  0  0  0  0  0  0  0  0  0  0  0
  -29.5411   -7.4582   -7.6780 C   0  0  0  0  0  0  0  0  0  0  0  0
  -32.4403   -9.6562   -7.7404 C   0  0  0  0  0  0  0  0  0  0  0  0
  -31.0835   -9.2598   -7.9432 O   0  0  0  0  0  0  0  0  0  0  0  0
  -28.2314   -4.1392   -5.2235 N   0  0  0  0  0  0  0  0  0  0  0  0
  -27.6007   -4.7460   -5.7294 H   0  0  0  0  0  0  0  0  0  0  0  0
  -28.1199   -2.7689   -5.5738 C   0  0  0  0  0  0  0  0  0  0  0  0
  -28.0780   -1.7797   -4.5679 C   0  0  0  0  0  0  0  0  0  0  0  0
  -28.0790   -2.1271   -3.2702 F   0  0  0  0  0  0  0  0  0  0  0  0
  -27.9971   -0.4246   -4.8702 C   0  0  0  0  0  0  0  0  0  0  0  0
  -27.9351   -0.0213   -6.1980 C   0  0  0  0  0  0  0  0  0  0  0  0
  -27.9632   -0.9826   -7.2097 C   0  0  0  0  0  0  0  0  0  0  0  0
  -27.8970   -0.5780   -8.5152 O   0  0  0  0  0  0  0  0  0  0  0  0
  -28.0636   -2.3574   -6.9257 C   0  0  0  0  0  0  0  0  0  0  0  0
  -28.1659   -3.3596   -8.0453 C   0  0  0  0  0  0  0  0  0  0  0  0
  -27.8214    0.3899   -8.5438 H   0  0  0  0  0  0  0  0  0  0  0  0
  -28.6998   -7.8086   -8.6981 O   0  0  0  0  0  0  0  0  0  0  0  0
  -27.8222   -8.9006   -8.4430 C   0  0  0  0  0  0  0  0  0  0  0  0
 11 12  1  0  0  0
 12  1  1  0  0  0
  1  2  1  0  0  0
  1 10  2  0  0  0
  2  3  2  0  0  0
  3  4  1  0  0  0
  3  8  1  0  0  0
  4  5  2  0  0  0
  5  6  1  0  0  0
  6  7  2  0  0  0
  7 13  1  0  0  0
  7  8  1  0  0  0
 13 15  1  0  0  0
 13 14  1  0  0  0
 15 16  1  0  0  0
 15 22  2  0  0  0
 16 17  1  0  0  0
 16 18  2  0  0  0
 18 19  1  0  0  0
 19 20  2  0  0  0
 20 21  1  0  0  0
 20 22  1  0  0  0
 21 24  1  0  0  0
 22 23  1  0  0  0
  8  9  2  0  0  0
  9 10  1  0  0  0
 10 25  1  0  0  0
 25 26  1  0  0  0
M  END
> <minimizedAffinity>
-7.39640

$$$$
