CHEMBL425930


 29 32  0  0  0  0  0  0  0  0999 V2000
  -29.3677   -7.7491   -3.1328 O   0  0  0  0  0  0  0  0  0  0  0  0
  -28.5630   -8.1957   -3.9486 C   0  0  0  0  0  0  0  0  0  0  0  0
  -28.0183   -7.4152   -4.9559 N   0  0  0  0  0  0  0  0  0  0  0  0
  -27.5544   -7.8944   -5.7167 H   0  0  0  0  0  0  0  0  0  0  0  0
  -28.2677   -6.0316   -5.0918 C   0  0  0  0  0  0  0  0  0  0  0  0
  -29.0915   -5.5256   -6.0975 C   0  0  0  0  0  0  0  0  0  0  0  0
  -29.2205   -4.1550   -6.2994 C   0  0  0  0  0  0  0  0  0  0  0  0
  -28.5747   -3.2363   -5.4666 C   0  0  0  0  0  0  0  0  0  0  0  0
  -27.8109   -3.7574   -4.4066 C   0  0  0  0  0  0  0  0  0  0  0  0
  -27.6573   -5.1411   -4.2160 C   0  0  0  0  0  0  0  0  0  0  0  0
  -28.7071   -1.7855   -5.7207 C   0  0  0  0  0  0  0  0  0  0  0  0
  -29.7568   -1.0392   -5.1514 C   0  0  0  0  0  0  0  0  0  0  0  0
  -29.9084    0.3241   -5.4075 C   0  0  0  0  0  0  0  0  0  0  0  0
  -28.9997    0.9764   -6.2324 C   0  0  0  0  0  0  0  0  0  0  0  0
  -27.9541    0.2627   -6.8114 C   0  0  0  0  0  0  0  0  0  0  0  0
  -27.8164   -1.1053   -6.5664 C   0  0  0  0  0  0  0  0  0  0  0  0
  -28.1910   -9.5980   -3.9067 C   0  0  0  0  0  0  0  0  0  0  0  0
  -29.3219  -10.8814   -3.9077 S   0  0  0  0  0  0  0  0  0  0  0  0
  -28.0258  -11.9996   -3.8450 C   0  0  0  0  0  0  0  0  0  0  0  0
  -26.8171  -11.4865   -3.8137 N   0  0  0  0  0  0  0  0  0  0  0  0
  -26.8957  -10.1011   -3.8598 C   0  0  0  0  0  0  0  0  0  0  0  0
  -25.6268   -9.2898   -3.8149 C   0  0  0  0  0  0  0  0  0  0  0  0
  -24.4297  -10.0192   -3.2156 C   0  0  0  0  0  0  0  0  0  0  0  0
  -23.4441  -10.4208   -4.2882 C   0  0  0  0  0  0  0  0  0  0  0  0
  -23.5322   -9.8773   -5.5717 C   0  0  0  0  0  0  0  0  0  0  0  0
  -22.6119  -10.2778   -6.5286 C   0  0  0  0  0  0  0  0  0  0  0  0
  -21.6308  -11.1768   -6.3008 N   0  0  0  0  0  0  0  0  0  0  0  0
  -21.5743  -11.7052   -5.0592 C   0  0  0  0  0  0  0  0  0  0  0  0
  -22.4482  -11.3689   -4.0356 C   0  0  0  0  0  0  0  0  0  0  0  0
  1  2  2  0  0  0
  2  3  1  0  0  0
  2 17  1  0  0  0
  3  5  1  0  0  0
  3  4  1  0  0  0
  5  6  1  0  0  0
  5 10  2  0  0  0
  6  7  2  0  0  0
  7  8  1  0  0  0
  8 11  1  0  0  0
  8  9  2  0  0  0
 11 12  1  0  0  0
 11 16  2  0  0  0
 12 13  2  0  0  0
 13 14  1  0  0  0
 14 15  2  0  0  0
 15 16  1  0  0  0
  9 10  1  0  0  0
 17 18  1  0  0  0
 17 21  2  0  0  0
 18 19  1  0  0  0
 19 20  2  0  0  0
 20 21  1  0  0  0
 21 22  1  0  0  0
 22 23  1  0  0  0
 23 24  1  0  0  0
 24 25  1  0  0  0
 24 29  2  0  0  0
 25 26  2  0  0  0
 26 27  1  0  0  0
 27 28  2  0  0  0
 28 29  1  0  0  0
M  END
> <minimizedAffinity>
-8.75695

$$$$
