CHEMBL1999590


 27 30  0  0  0  0  0  0  0  0999 V2000
  -16.0194    0.9114  -14.2675 C   0  0  0  0  0  0  0  0  0  0  0  0
  -15.3584   -0.1614  -14.8301 C   0  0  0  0  0  0  0  0  0  0  0  0
  -14.9594   -1.1599  -13.9604 C   0  0  0  0  0  0  0  0  0  0  0  0
  -15.2902   -1.1376  -12.6543 N   0  0  0  0  0  0  0  0  0  0  0  0
  -16.0191   -0.1066  -12.2303 C   0  0  0  0  0  0  0  0  0  0  0  0
  -16.3996    0.9356  -12.9708 N   0  0  0  0  0  0  0  0  0  0  0  0
  -14.6690    4.5426  -17.1332 C   0  0  0  0  0  0  0  0  0  0  0  0
  -15.5913    3.6771  -16.3559 C   0  0  0  0  0  0  0  0  0  0  0  0
  -16.9992    3.6533  -16.3999 C   0  0  0  0  0  0  0  0  0  0  0  0
  -17.3969    2.6645  -15.5120 C   0  0  0  0  0  0  0  0  0  0  0  0
  -16.2017    2.0850  -15.0653 N   0  0  0  0  0  0  0  0  0  0  0  0
  -15.1097    2.8007  -15.4747 N   0  0  0  0  0  0  0  0  0  0  0  0
  -18.7671    2.3111  -15.0862 C   0  0  0  0  0  0  0  0  0  0  0  0
  -19.6077    3.2878  -14.5315 C   0  0  0  0  0  0  0  0  0  0  0  0
  -20.9248    2.9829  -14.1676 C   0  0  0  0  0  0  0  0  0  0  0  0
  -21.4269    1.6991  -14.3628 C   0  0  0  0  0  0  0  0  0  0  0  0
  -20.5955    0.7072  -14.8675 C   0  0  0  0  0  0  0  0  0  0  0  0
  -19.2677    1.0039  -15.1854 C   0  0  0  0  0  0  0  0  0  0  0  0
  -14.0931   -2.1589  -14.4626 N   0  0  0  0  0  0  0  0  0  0  0  0
  -14.0147   -2.1264  -15.4760 H   0  0  0  0  0  0  0  0  0  0  0  0
  -14.0851   -3.3533  -13.8068 N   0  0  0  0  0  0  0  0  0  0  0  0
  -14.6610   -4.3360  -14.4182 C   0  0  0  0  0  0  0  0  0  0  0  0
  -14.5834   -5.6652  -13.8851 C   0  0  0  0  0  0  0  0  0  0  0  0
  -15.1851   -6.8491  -14.2656 C   0  0  0  0  0  0  0  0  0  0  0  0
  -14.8181   -7.8174  -13.3026 C   0  0  0  0  0  0  0  0  0  0  0  0
  -14.0003   -7.1717  -12.4052 C   0  0  0  0  0  0  0  0  0  0  0  0
  -13.8446   -5.8677  -12.7536 O   0  0  0  0  0  0  0  0  0  0  0  0
  7  8  1  0  0  0
  8  9  1  0  0  0
  8 12  2  0  0  0
  9 10  2  0  0  0
 10 13  1  0  0  0
 10 11  1  0  0  0
 13 14  1  0  0  0
 13 18  2  0  0  0
 14 15  2  0  0  0
 15 16  1  0  0  0
 16 17  2  0  0  0
 17 18  1  0  0  0
 11  1  1  0  0  0
 11 12  1  0  0  0
  1  2  1  0  0  0
  1  6  2  0  0  0
  2  3  2  0  0  0
  3 19  1  0  0  0
  3  4  1  0  0  0
 19 21  1  0  0  0
 19 20  1  0  0  0
 21 22  2  0  0  0
 22 23  1  0  0  0
 23 24  2  0  0  0
 23 27  1  0  0  0
 24 25  1  0  0  0
 25 26  2  0  0  0
 26 27  1  0  0  0
  4  5  2  0  0  0
  5  6  1  0  0  0
M  END
> <minimizedAffinity>
-7.99077

$$$$
