CHEMBL456463


 37 42  0  0  0  0  0  0  0  0999 V2000
  -28.2436   -8.9607   -5.1031 C   0  0  0  0  0  0  0  0  0  0  0  0
  -27.6608   -7.7834   -4.6308 C   0  0  0  0  0  0  0  0  0  0  0  0
  -28.2960   -6.5583   -4.7964 C   0  0  0  0  0  0  0  0  0  0  0  0
  -29.5286   -6.4594   -5.4545 C   0  0  0  0  0  0  0  0  0  0  0  0
  -30.0203   -7.6114   -6.1483 C   0  0  0  0  0  0  0  0  0  0  0  0
  -31.1435   -7.5638   -7.0201 C   0  0  0  0  0  0  0  0  0  0  0  0
  -31.6442   -8.7064   -7.6504 C   0  0  0  0  0  0  0  0  0  0  0  0
  -31.0338   -9.9293   -7.4277 C   0  0  0  0  0  0  0  0  0  0  0  0
  -29.9226  -10.0133   -6.5863 C   0  0  0  0  0  0  0  0  0  0  0  0
  -29.3855   -8.8754   -5.9439 C   0  0  0  0  0  0  0  0  0  0  0  0
  -30.2713   -5.2433   -5.4459 N   0  0  0  0  0  0  0  0  0  0  0  0
  -30.8778   -5.1747   -4.6413 H   0  0  0  0  0  0  0  0  0  0  0  0
  -29.7708   -4.0356   -5.7916 C   0  0  0  0  0  0  0  0  0  0  0  0
  -28.9405   -3.6754   -6.7485 N   0  0  0  0  0  0  0  0  0  0  0  0
  -28.7352   -2.3411   -6.5336 C   0  0  0  0  0  0  0  0  0  0  0  0
  -27.9386   -1.4146   -7.2166 C   0  0  0  0  0  0  0  0  0  0  0  0
  -27.9160   -0.0924   -6.7506 C   0  0  0  0  0  0  0  0  0  0  0  0
  -28.6675    0.2913   -5.6318 C   0  0  0  0  0  0  0  0  0  0  0  0
  -29.4760   -0.6244   -4.9429 C   0  0  0  0  0  0  0  0  0  0  0  0
  -29.4714   -1.9229   -5.4403 C   0  0  0  0  0  0  0  0  0  0  0  0
  -30.1573   -3.0052   -4.9670 O   0  0  0  0  0  0  0  0  0  0  0  0
  -27.6853  -10.2063   -4.8068 O   0  0  0  0  0  0  0  0  0  0  0  0
  -25.7174  -10.7440   -6.1484 C   0  0  0  0  0  0  0  0  0  0  0  0
  -24.3008  -10.7760   -6.1653 C   0  0  0  0  0  0  0  0  0  0  0  0
  -23.5420  -10.4402   -5.0516 C   0  0  0  0  0  0  0  0  0  0  0  0
  -24.2158  -10.0978   -3.9045 C   0  0  0  0  0  0  0  0  0  0  0  0
  -25.5578  -10.0750   -3.8156 N   0  0  0  0  0  0  0  0  0  0  0  0
  -26.2952  -10.3468   -4.9288 C   0  0  0  0  0  0  0  0  0  0  0  0
  -27.1469  -10.2433   -9.4531 C   0  0  0  0  0  0  0  0  0  0  0  0
  -27.8571  -11.3420   -9.7178 N   0  0  0  0  0  0  0  0  0  0  0  0
  -27.8670  -12.2982   -8.7731 C   0  0  0  0  0  0  0  0  0  0  0  0
  -27.1745  -12.2155   -7.5886 C   0  0  0  0  0  0  0  0  0  0  0  0
  -26.4234  -11.0786   -7.4051 C   0  0  0  0  0  0  0  0  0  0  0  0
  -26.4041  -10.0975   -8.3490 N   0  0  0  0  0  0  0  0  0  0  0  0
  -27.1446   -9.3949  -11.7461 C   0  0  0  0  0  0  0  0  0  0  0  0
  -27.3065   -9.2017  -10.3327 N   0  0  0  0  0  0  0  0  0  0  0  0
  -27.9296   -8.4906   -9.9798 H   0  0  0  0  0  0  0  0  0  0  0  0
 35 36  1  0  0  0
 36 29  1  0  0  0
 36 37  1  0  0  0
 29 30  1  0  0  0
 29 34  2  0  0  0
 30 31  2  0  0  0
 31 32  1  0  0  0
 32 33  2  0  0  0
 33 23  1  0  0  0
 33 34  1  0  0  0
 23 24  1  0  0  0
 23 28  2  0  0  0
 24 25  2  0  0  0
 25 26  1  0  0  0
 26 27  2  0  0  0
 27 28  1  0  0  0
 28 22  1  0  0  0
 22  1  1  0  0  0
  1  2  1  0  0  0
  1 10  2  0  0  0
  2  3  2  0  0  0
  3  4  1  0  0  0
  4 11  1  0  0  0
  4  5  2  0  0  0
 11 13  1  0  0  0
 11 12  1  0  0  0
 13 14  2  0  0  0
 13 21  1  0  0  0
 14 15  1  0  0  0
 15 16  1  0  0  0
 15 20  2  0  0  0
 16 17  2  0  0  0
 17 18  1  0  0  0
 18 19  2  0  0  0
 19 20  1  0  0  0
 20 21  1  0  0  0
  5  6  1  0  0  0
  5 10  1  0  0  0
  6  7  2  0  0  0
  7  8  1  0  0  0
  8  9  2  0  0  0
  9 10  1  0  0  0
M  END
> <minimizedAffinity>
-8.81731

$$$$
