CHEMBL372657


 31 34  0  0  0  0  0  0  0  0999 V2000
  -15.8054   -2.3186  -12.7663 C   0  0  0  0  0  0  0  0  0  0  0  0
  -15.8025   -2.4410  -11.3762 C   0  0  0  0  0  0  0  0  0  0  0  0
  -16.1337   -3.5667  -10.7000 N   0  0  0  0  0  0  0  0  0  0  0  0
  -16.4389   -4.6499  -11.4497 C   0  0  0  0  0  0  0  0  0  0  0  0
  -16.4330   -4.6846  -12.8441 C   0  0  0  0  0  0  0  0  0  0  0  0
  -16.1367   -3.4797  -13.4882 C   0  0  0  0  0  0  0  0  0  0  0  0
  -16.1201    0.6759  -14.8280 C   0  0  0  0  0  0  0  0  0  0  0  0
  -14.8727    1.2701  -14.6403 C   0  0  0  0  0  0  0  0  0  0  0  0
  -13.9056    0.7567  -13.8451 N   0  0  0  0  0  0  0  0  0  0  0  0
  -14.2218   -0.4183  -13.2531 C   0  0  0  0  0  0  0  0  0  0  0  0
  -15.4502   -1.0532  -13.4225 C   0  0  0  0  0  0  0  0  0  0  0  0
  -16.3990   -0.5034  -14.2197 N   0  0  0  0  0  0  0  0  0  0  0  0
  -17.0546    1.2482  -15.7291 N   0  0  0  0  0  0  0  0  0  0  0  0
  -16.6033    1.9432  -16.3142 H   0  0  0  0  0  0  0  0  0  0  0  0
  -21.8597    0.1950  -14.2922 Cl  0  0  0  0  0  0  0  0  0  0  0  0
  -20.6199    1.3143  -14.7098 C   0  0  0  0  0  0  0  0  0  0  0  0
  -20.9014    2.6796  -14.7193 C   0  0  0  0  0  0  0  0  0  0  0  0
  -19.9016    3.5875  -15.0675 C   0  0  0  0  0  0  0  0  0  0  0  0
  -18.6250    3.1182  -15.3857 C   0  0  0  0  0  0  0  0  0  0  0  0
  -18.3219    1.7498  -15.3367 C   0  0  0  0  0  0  0  0  0  0  0  0
  -19.3431    0.8485  -15.0352 C   0  0  0  0  0  0  0  0  0  0  0  0
  -16.6837   -5.8837  -13.5079 N   0  0  0  0  0  0  0  0  0  0  0  0
  -17.5924   -5.8875  -13.9711 H   0  0  0  0  0  0  0  0  0  0  0  0
  -15.6253   -6.5648  -14.2368 C   0  0  0  0  0  0  0  0  0  0  0  0
  -14.9066   -7.5186  -13.2852 C   0  0  0  0  0  0  0  0  0  0  0  0
  -13.4269   -7.1670  -13.1913 C   0  0  0  0  0  0  0  0  0  0  0  0
  -13.1681   -6.1120  -12.2388 N   0  0  0  0  0  0  0  0  0  0  0  0
  -12.7589   -4.8407  -12.4918 C   0  0  0  0  0  0  0  0  0  0  0  0
  -12.5827   -4.2045  -11.3570 N   0  0  0  0  0  0  0  0  0  0  0  0
  -12.9027   -5.1497  -10.4237 C   0  0  0  0  0  0  0  0  0  0  0  0
  -13.2690   -6.3362  -10.9168 N   0  0  0  0  0  0  0  0  0  0  0  0
 15 16  1  0  0  0
 16 17  1  0  0  0
 16 21  2  0  0  0
 17 18  2  0  0  0
 18 19  1  0  0  0
 19 20  2  0  0  0
 20 13  1  0  0  0
 20 21  1  0  0  0
 13  7  1  0  0  0
 13 14  1  0  0  0
  7  8  1  0  0  0
  7 12  2  0  0  0
  8  9  2  0  0  0
  9 10  1  0  0  0
 10 11  2  0  0  0
 11  1  1  0  0  0
 11 12  1  0  0  0
  1  2  1  0  0  0
  1  6  2  0  0  0
  2  3  2  0  0  0
  3  4  1  0  0  0
  4  5  2  0  0  0
  5 22  1  0  0  0
  5  6  1  0  0  0
 22 24  1  0  0  0
 22 23  1  0  0  0
 24 25  1  0  0  0
 25 26  1  0  0  0
 26 27  1  0  0  0
 27 28  1  0  0  0
 27 31  1  0  0  0
 28 29  2  0  0  0
 29 30  1  0  0  0
 30 31  2  0  0  0
M  END
> <minimizedAffinity>
-8.50706

$$$$
