CHEMBL3905411


 22 23  0  0  0  0  0  0  0  0999 V2000
  -26.3628   -1.8879   -9.9771 N   0  0  0  0  0  0  0  0  0  0  0  0
  -25.4079   -2.1397   -9.7175 H   0  0  0  0  0  0  0  0  0  0  0  0
  -26.3831   -1.7835  -11.4064 C   0  0  0  0  0  0  0  0  0  0  0  0
  -27.5369   -2.0353  -12.0780 N   0  0  0  0  0  0  0  0  0  0  0  0
  -27.5848   -1.9807  -13.4378 N   0  0  0  0  0  0  0  0  0  0  0  0
  -26.4699   -1.6533  -14.1160 C   0  0  0  0  0  0  0  0  0  0  0  0
  -25.2610   -1.3654  -13.5003 C   0  0  0  0  0  0  0  0  0  0  0  0
  -24.1196   -1.0057  -14.2433 C   0  0  0  0  0  0  0  0  0  0  0  0
  -22.9216   -0.7064  -13.6019 C   0  0  0  0  0  0  0  0  0  0  0  0
  -22.8430   -0.7661  -12.2133 C   0  0  0  0  0  0  0  0  0  0  0  0
  -23.9685   -1.1236  -11.4671 C   0  0  0  0  0  0  0  0  0  0  0  0
  -25.1987   -1.4321  -12.0945 C   0  0  0  0  0  0  0  0  0  0  0  0
  -27.2790   -2.8661   -9.5228 N   0  0  0  0  0  0  0  0  0  0  0  0
  -27.6053   -3.5427  -10.2169 H   0  0  0  0  0  0  0  0  0  0  0  0
  -28.0206   -2.6738   -8.3837 C   0  0  0  0  0  0  0  0  0  0  0  0
  -29.0882   -3.8586   -7.8963 S   0  0  0  0  0  0  0  0  0  0  0  0
  -27.7519   -1.5053   -7.7209 N   0  0  0  0  0  0  0  0  0  0  0  0
  -27.3821   -0.7681   -8.3051 H   0  0  0  0  0  0  0  0  0  0  0  0
  -27.8695   -1.2917   -6.2885 C   0  0  0  0  0  0  0  0  0  0  0  0
  -27.8525    0.1855   -5.9076 C   0  0  0  0  0  0  0  0  0  0  0  0
  -30.2151    1.0359   -5.6997 C   0  0  0  0  0  0  0  0  0  0  0  0
  -28.9779    0.9718   -6.5804 C   0  0  0  0  0  0  0  0  0  0  0  0
 21 22  1  0  0  0
 22 20  1  0  0  0
 20 19  1  0  0  0
 19 17  1  0  0  0
 17 15  1  0  0  0
 17 18  1  0  0  0
 15 16  2  0  0  0
 15 13  1  0  0  0
 13  1  1  0  0  0
 13 14  1  0  0  0
  1  3  1  0  0  0
  1  2  1  0  0  0
  3  4  1  0  0  0
  3 12  2  0  0  0
  4  5  2  0  0  0
  5  6  1  0  0  0
  6  7  2  0  0  0
  7  8  1  0  0  0
  7 12  1  0  0  0
  8  9  2  0  0  0
  9 10  1  0  0  0
 10 11  2  0  0  0
 11 12  1  0  0  0
M  END
> <minimizedAffinity>
-7.82526

$$$$
