CHEMBL1241777


 34 37  0  0  0  0  0  0  0  0999 V2000
  -26.7625   -9.9935   -7.2053 C   0  0  0  0  0  0  0  0  0  0  0  0
  -26.6327  -10.4501   -8.5289 C   0  0  0  0  0  0  0  0  0  0  0  0
  -27.5315  -10.0412   -9.5072 C   0  0  0  0  0  0  0  0  0  0  0  0
  -28.5741   -9.1807   -9.1737 C   0  0  0  0  0  0  0  0  0  0  0  0
  -28.7440   -8.7179   -7.8587 C   0  0  0  0  0  0  0  0  0  0  0  0
  -29.8209   -7.8613   -7.5521 C   0  0  0  0  0  0  0  0  0  0  0  0
  -30.0266   -7.3967   -6.2540 C   0  0  0  0  0  0  0  0  0  0  0  0
  -29.1151   -7.7390   -5.2591 C   0  0  0  0  0  0  0  0  0  0  0  0
  -28.0520   -8.6017   -5.5460 C   0  0  0  0  0  0  0  0  0  0  0  0
  -27.8332   -9.1205   -6.8447 C   0  0  0  0  0  0  0  0  0  0  0  0
  -24.5787   -9.7855   -6.1308 N   0  0  0  0  0  0  0  0  0  0  0  0
  -25.7652  -10.4933   -6.2042 C   0  0  0  0  0  0  0  0  0  0  0  0
  -25.9936  -11.4707   -5.5019 O   0  0  0  0  0  0  0  0  0  0  0  0
  -24.5553   -8.8415   -6.4998 H   0  0  0  0  0  0  0  0  0  0  0  0
  -23.6057  -10.0869   -5.0936 C   0  0  0  0  0  0  0  0  0  0  0  0
  -22.4914  -10.9987   -5.6038 C   0  0  0  0  0  0  0  0  0  0  0  0
  -21.0470  -10.1163   -7.2495 C   0  0  0  0  0  0  0  0  0  0  0  0
  -22.2935  -10.7539   -7.0013 O   0  0  0  0  0  0  0  0  0  0  0  0
  -31.1246   -6.5837   -6.0454 O   0  0  0  0  0  0  0  0  0  0  0  0
  -31.0118   -5.5444   -5.1367 C   0  0  0  0  0  0  0  0  0  0  0  0
  -31.7102   -5.5643   -3.9274 C   0  0  0  0  0  0  0  0  0  0  0  0
  -31.4811   -4.5451   -3.0328 C   0  0  0  0  0  0  0  0  0  0  0  0
  -30.6628   -3.5085   -3.2853 N   0  0  0  0  0  0  0  0  0  0  0  0
  -30.0476   -3.4604   -4.4758 C   0  0  0  0  0  0  0  0  0  0  0  0
  -29.2204   -2.3796   -4.7135 C   0  0  0  0  0  0  0  0  0  0  0  0
  -28.4964   -2.2096   -5.9059 C   0  0  0  0  0  0  0  0  0  0  0  0
  -28.6638   -3.1467   -6.9384 C   0  0  0  0  0  0  0  0  0  0  0  0
  -29.5081   -4.2568   -6.6954 C   0  0  0  0  0  0  0  0  0  0  0  0
  -30.1905   -4.4419   -5.4669 C   0  0  0  0  0  0  0  0  0  0  0  0
  -28.0346   -3.1051   -8.3107 C   0  0  0  0  0  0  0  0  0  0  0  0
  -27.9248   -1.8575   -9.1509 C   0  0  0  0  0  0  0  0  0  0  0  0
  -27.5569   -4.1466   -8.7646 O   0  0  0  0  0  0  0  0  0  0  0  0
  -27.6818   -1.1232   -6.0751 O   0  0  0  0  0  0  0  0  0  0  0  0
  -28.3216    0.1564   -6.0972 C   0  0  0  0  0  0  0  0  0  0  0  0
 17 18  1  0  0  0
 18 16  1  0  0  0
 16 15  1  0  0  0
 15 11  1  0  0  0
 11 12  1  0  0  0
 11 14  1  0  0  0
 12 13  2  0  0  0
 12  1  1  0  0  0
  1  2  1  0  0  0
  1 10  2  0  0  0
  2  3  2  0  0  0
  3  4  1  0  0  0
  4  5  2  0  0  0
  5  6  1  0  0  0
  5 10  1  0  0  0
  6  7  2  0  0  0
  7 19  1  0  0  0
  7  8  1  0  0  0
 19 20  1  0  0  0
 20 21  1  0  0  0
 20 29  2  0  0  0
 21 22  2  0  0  0
 22 23  1  0  0  0
 23 24  2  0  0  0
 24 25  1  0  0  0
 24 29  1  0  0  0
 25 26  2  0  0  0
 26 33  1  0  0  0
 26 27  1  0  0  0
 33 34  1  0  0  0
 27 30  1  0  0  0
 27 28  2  0  0  0
 30 31  1  0  0  0
 30 32  2  0  0  0
 28 29  1  0  0  0
  8  9  2  0  0  0
  9 10  1  0  0  0
M  END
> <minimizedAffinity>
-8.14394

$$$$
