CHEMBL360190


 56 60  0  0  0  0  0  0  0  0999 V2000
  -12.3441   -2.2632  -14.3627 O   0  0  0  0  0  0  0  0  0  0  0  0
  -13.3439   -2.0852  -13.6765 C   0  0  0  0  0  0  0  0  0  0  0  0
  -13.7768   -0.6750  -13.2678 N   0  0  0  0  0  0  0  0  0  0  0  0
  -13.2133    0.5980  -13.7612 C   0  0  0  0  0  0  0  0  0  0  0  0
  -13.6718    1.9036  -13.6539 C   0  0  0  0  0  0  0  0  0  0  0  0
  -13.1657    3.1773  -14.4185 C   0  0  0  0  0  0  0  0  0  0  0  0
  -11.8177    3.5533  -14.6028 C   0  0  0  0  0  0  0  0  0  0  0  0
  -11.4158    4.4322  -15.6573 C   0  0  0  0  0  0  0  0  0  0  0  0
  -12.3674    4.9239  -16.5596 C   0  0  0  0  0  0  0  0  0  0  0  0
  -13.7026    4.8691  -16.1727 C   0  0  0  0  0  0  0  0  0  0  0  0
  -15.0138    5.8334  -17.1526 Br  0  0  0  0  0  0  0  0  0  0  0  0
  -14.0922    4.0255  -15.0918 C   0  0  0  0  0  0  0  0  0  0  0  0
  -12.0141    5.1844  -17.8901 O   0  0  0  0  0  0  0  0  0  0  0  0
  -11.7504    4.0503  -18.6778 C   0  0  0  0  0  0  0  0  0  0  0  0
  -11.7892    2.7604  -18.1237 C   0  0  0  0  0  0  0  0  0  0  0  0
  -11.4124    1.6105  -18.8100 C   0  0  0  0  0  0  0  0  0  0  0  0
  -11.0336    1.7359  -20.1446 C   0  0  0  0  0  0  0  0  0  0  0  0
  -11.0874    2.9860  -20.7660 C   0  0  0  0  0  0  0  0  0  0  0  0
  -10.6965    3.0511  -22.6265 Br  0  0  0  0  0  0  0  0  0  0  0  0
  -11.4303    4.1473  -20.0408 C   0  0  0  0  0  0  0  0  0  0  0  0
  -11.4701    5.3561  -20.6854 O   0  0  0  0  0  0  0  0  0  0  0  0
  -11.4162    0.3072  -18.0440 C   0  0  0  0  0  0  0  0  0  0  0  0
  -12.0282   -0.8019  -18.8780 C   0  0  0  0  0  0  0  0  0  0  0  0
  -12.0517   -2.0983  -18.2450 N   0  0  0  0  0  0  0  0  0  0  0  0
  -11.7840   -3.1835  -19.0774 C   0  0  0  0  0  0  0  0  0  0  0  0
  -10.8928   -3.9659  -18.7778 O   0  0  0  0  0  0  0  0  0  0  0  0
  -12.6598   -3.3576  -20.3620 C   0  0  0  0  0  0  0  0  0  0  0  0
  -12.7717   -2.2979  -21.1144 N   0  0  0  0  0  0  0  0  0  0  0  0
  -13.5806   -2.5150  -22.2290 O   0  0  0  0  0  0  0  0  0  0  0  0
  -13.3377   -4.6785  -20.7437 C   0  0  0  0  0  0  0  0  0  0  0  0
  -13.2047   -5.8865  -19.8705 C   0  0  0  0  0  0  0  0  0  0  0  0
  -12.8910   -5.7345  -18.5461 C   0  0  0  0  0  0  0  0  0  0  0  0
  -12.3605   -6.7788  -17.8534 C   0  0  0  0  0  0  0  0  0  0  0  0
  -12.8789   -8.0109  -18.1288 C   0  0  0  0  0  0  0  0  0  0  0  0
  -13.3210   -8.2662  -19.4150 C   0  0  0  0  0  0  0  0  0  0  0  0
  -13.7771  -10.0100  -19.9949 Br  0  0  0  0  0  0  0  0  0  0  0  0
  -13.4127   -7.1819  -20.3202 C   0  0  0  0  0  0  0  0  0  0  0  0
  -13.0621   -8.8624  -17.0750 O   0  0  0  0  0  0  0  0  0  0  0  0
  -13.1478   -8.3316  -15.7753 C   0  0  0  0  0  0  0  0  0  0  0  0
  -13.5872   -6.9952  -15.3809 C   0  0  0  0  0  0  0  0  0  0  0  0
  -13.5924   -6.4540  -14.0571 C   0  0  0  0  0  0  0  0  0  0  0  0
  -13.3867   -7.5044  -13.1101 C   0  0  0  0  0  0  0  0  0  0  0  0
  -13.0138   -8.8584  -13.4702 C   0  0  0  0  0  0  0  0  0  0  0  0
  -12.9865  -10.2251  -12.1350 Br  0  0  0  0  0  0  0  0  0  0  0  0
  -12.8227   -9.2530  -14.7895 C   0  0  0  0  0  0  0  0  0  0  0  0
  -12.4066  -10.5082  -15.1546 O   0  0  0  0  0  0  0  0  0  0  0  0
  -14.3802   -5.0667  -13.7292 C   0  0  0  0  0  0  0  0  0  0  0  0
  -14.3285   -3.4335  -13.2315 C   0  0  0  0  0  0  0  0  0  0  0  0
  -15.3829   -2.9925  -12.5706 N   0  0  0  0  0  0  0  0  0  0  0  0
  -16.3547   -4.0011  -12.4192 O   0  0  0  0  0  0  0  0  0  0  0  0
  -14.5991   -0.6050  -12.6698 H   0  0  0  0  0  0  0  0  0  0  0  0
  -11.2868    5.1872  -21.6302 H   0  0  0  0  0  0  0  0  0  0  0  0
  -11.5181   -2.1615  -17.3806 H   0  0  0  0  0  0  0  0  0  0  0  0
  -13.5693   -1.6439  -22.6704 H   0  0  0  0  0  0  0  0  0  0  0  0
  -12.1491  -11.0296  -14.3838 H   0  0  0  0  0  0  0  0  0  0  0  0
  -17.1286   -3.5448  -12.0421 H   0  0  0  0  0  0  0  0  0  0  0  0
  1  2  2  0  0  0
  2  3  1  0  0  0
  2 48  1  0  0  0
  3  4  1  0  0  0
  3 51  1  0  0  0
  4  5  2  0  0  0
  5  6  1  0  0  0
  6  7  1  0  0  0
  6 12  2  0  0  0
  7  8  2  0  0  0
  8  9  1  0  0  0
  9 10  2  0  0  0
  9 13  1  0  0  0
 10 11  1  0  0  0
 10 12  1  0  0  0
 13 14  1  0  0  0
 14 15  1  0  0  0
 14 20  2  0  0  0
 15 16  2  0  0  0
 16 17  1  0  0  0
 16 22  1  0  0  0
 17 18  2  0  0  0
 18 19  1  0  0  0
 18 20  1  0  0  0
 20 21  1  0  0  0
 21 52  1  0  0  0
 22 23  1  0  0  0
 23 24  1  0  0  0
 24 25  1  0  0  0
 24 53  1  0  0  0
 25 26  2  0  0  0
 25 27  1  0  0  0
 27 28  2  0  0  0
 27 30  1  0  0  0
 28 29  1  0  0  0
 29 54  1  0  0  0
 30 31  1  0  0  0
 31 32  1  0  0  0
 31 37  2  0  0  0
 32 33  2  0  0  0
 33 34  1  0  0  0
 34 35  2  0  0  0
 34 38  1  0  0  0
 35 36  1  0  0  0
 35 37  1  0  0  0
 38 39  1  0  0  0
 39 40  1  0  0  0
 39 45  2  0  0  0
 40 41  2  0  0  0
 41 42  1  0  0  0
 41 47  1  0  0  0
 42 43  2  0  0  0
 43 44  1  0  0  0
 43 45  1  0  0  0
 45 46  1  0  0  0
 46 55  1  0  0  0
 47 48  1  0  0  0
 48 49  2  0  0  0
 49 50  1  0  0  0
 50 56  1  0  0  0
M  END
> <minimizedAffinity>
-1.19081

$$$$
