CHEMBL1779201


 33 38  0  0  0  0  0  0  0  0999 V2000
  -28.3080   -5.4676   -7.8530 C   0  0  0  0  0  0  0  0  0  0  0  0
  -29.3388   -4.3354   -7.6478 C   0  0  0  0  0  0  0  0  0  0  0  0
  -30.5225   -4.5124   -8.6242 C   0  0  0  0  0  0  0  0  0  0  0  0
  -28.6694   -2.9675   -7.9080 C   0  0  0  0  0  0  0  0  0  0  0  0
  -28.0779   -2.6979   -9.1616 C   0  0  0  0  0  0  0  0  0  0  0  0
  -27.4362   -1.4822   -9.4478 C   0  0  0  0  0  0  0  0  0  0  0  0
  -27.4385   -0.4986   -8.4556 C   0  0  0  0  0  0  0  0  0  0  0  0
  -28.0099   -0.7231   -7.2106 C   0  0  0  0  0  0  0  0  0  0  0  0
  -28.6119   -1.9505   -6.9282 C   0  0  0  0  0  0  0  0  0  0  0  0
  -29.1691   -2.1174   -5.5584 C   0  0  0  0  0  0  0  0  0  0  0  0
  -29.0903   -1.2203   -4.7264 O   0  0  0  0  0  0  0  0  0  0  0  0
  -29.7884   -3.3921   -5.2882 C   0  0  0  0  0  0  0  0  0  0  0  0
  -29.8611   -4.3950   -6.2325 C   0  0  0  0  0  0  0  0  0  0  0  0
  -30.5003   -5.4645   -5.6573 N   0  0  0  0  0  0  0  0  0  0  0  0
  -30.8450   -5.1584   -4.3573 C   0  0  0  0  0  0  0  0  0  0  0  0
  -31.5099   -5.9252   -3.3920 C   0  0  0  0  0  0  0  0  0  0  0  0
  -31.7287   -5.3358   -2.1383 C   0  0  0  0  0  0  0  0  0  0  0  0
  -31.2945   -4.0371   -1.8591 C   0  0  0  0  0  0  0  0  0  0  0  0
  -30.6279   -3.2935   -2.8334 C   0  0  0  0  0  0  0  0  0  0  0  0
  -30.4052   -3.8601   -4.1003 C   0  0  0  0  0  0  0  0  0  0  0  0
  -30.6970   -6.3470   -6.1089 H   0  0  0  0  0  0  0  0  0  0  0  0
  -26.8167   -1.2699  -10.6625 N   0  0  0  0  0  0  0  0  0  0  0  0
  -27.5880   -1.2678  -11.9118 C   0  0  0  0  0  0  0  0  0  0  0  0
  -26.9874   -2.2509  -12.9318 C   0  0  0  0  0  0  0  0  0  0  0  0
  -25.5376   -2.0986  -13.1916 N   0  0  0  0  0  0  0  0  0  0  0  0
  -24.8411   -2.1911  -11.8812 C   0  0  0  0  0  0  0  0  0  0  0  0
  -25.3518   -1.2565  -10.7532 C   0  0  0  0  0  0  0  0  0  0  0  0
  -25.2093   -0.8036  -13.8286 C   0  0  0  0  0  0  0  0  0  0  0  0
  -24.9530   -0.8963  -15.3441 C   0  0  0  0  0  0  0  0  0  0  0  0
  -23.6479   -0.2695  -15.1873 O   0  0  0  0  0  0  0  0  0  0  0  0
  -23.6816   -0.5816  -13.7686 C   0  0  0  0  0  0  0  0  0  0  0  0
  -32.4135   -6.0863   -1.1246 C   0  0  0  0  0  0  0  0  0  0  0  0
  -32.9581   -6.6887   -0.3033 N   0  0  0  0  0  0  0  0  0  0  0  0
  1  2  1  0  0  0
  2  3  1  0  0  0
  2  4  1  0  0  0
  2 13  1  0  0  0
  4  5  1  0  0  0
  4  9  2  0  0  0
  5  6  2  0  0  0
  6 22  1  0  0  0
  6  7  1  0  0  0
 22 23  1  0  0  0
 22 27  1  0  0  0
 23 24  1  0  0  0
 24 25  1  0  0  0
 25 28  1  0  0  0
 25 26  1  0  0  0
 28 29  1  0  0  0
 28 31  1  0  0  0
 29 30  1  0  0  0
 30 31  1  0  0  0
 26 27  1  0  0  0
  7  8  2  0  0  0
  8  9  1  0  0  0
  9 10  1  0  0  0
 10 11  2  0  0  0
 10 12  1  0  0  0
 12 13  2  0  0  0
 12 20  1  0  0  0
 13 14  1  0  0  0
 14 15  1  0  0  0
 14 21  1  0  0  0
 15 16  1  0  0  0
 15 20  2  0  0  0
 16 17  2  0  0  0
 17 32  1  0  0  0
 17 18  1  0  0  0
 32 33  3  0  0  0
 18 19  2  0  0  0
 19 20  1  0  0  0
M  END
> <minimizedAffinity>
-3.98122

$$$$
