CHEMBL3985332


 30 33  0  0  0  0  0  0  0  0999 V2000
  -29.4778   -5.8007   -5.6660 C   0  0  0  0  0  0  0  0  0  0  0  0
  -30.0413   -6.4730   -6.7958 C   0  0  0  0  0  0  0  0  0  0  0  0
  -29.6376   -7.7696   -7.1803 C   0  0  0  0  0  0  0  0  0  0  0  0
  -28.6695   -8.4464   -6.4382 C   0  0  0  0  0  0  0  0  0  0  0  0
  -28.2805   -9.7137   -6.7486 N   0  0  0  0  0  0  0  0  0  0  0  0
  -27.3463  -10.3694   -6.0008 C   0  0  0  0  0  0  0  0  0  0  0  0
  -26.7716   -9.7282   -4.8895 C   0  0  0  0  0  0  0  0  0  0  0  0
  -27.1514   -8.4591   -4.6092 N   0  0  0  0  0  0  0  0  0  0  0  0
  -28.0830   -7.8080   -5.3507 C   0  0  0  0  0  0  0  0  0  0  0  0
  -28.4516   -6.5206   -5.0047 C   0  0  0  0  0  0  0  0  0  0  0  0
  -25.7800  -10.3861   -4.0148 C   0  0  0  0  0  0  0  0  0  0  0  0
  -26.0355  -11.2763   -2.9791 C   0  0  0  0  0  0  0  0  0  0  0  0
  -24.8635  -11.6418   -2.4194 N   0  0  0  0  0  0  0  0  0  0  0  0
  -23.8955  -11.0154   -3.0740 N   0  0  0  0  0  0  0  0  0  0  0  0
  -22.4803  -11.1334   -2.7557 C   0  0  0  0  0  0  0  0  0  0  0  0
  -24.4102  -10.2495   -4.0478 C   0  0  0  0  0  0  0  0  0  0  0  0
  -29.9631   -4.4662   -5.2653 N   0  0  0  0  0  0  0  0  0  0  0  0
  -27.8581   -1.6204   -6.8008 C   0  0  0  0  0  0  0  0  0  0  0  0
  -27.4937   -0.8785   -5.6881 C   0  0  0  0  0  0  0  0  0  0  0  0
  -27.9421   -1.2688   -4.4346 C   0  0  0  0  0  0  0  0  0  0  0  0
  -28.7431   -2.4164   -4.2580 C   0  0  0  0  0  0  0  0  0  0  0  0
  -29.0302   -2.7661   -2.5495 Cl  0  0  0  0  0  0  0  0  0  0  0  0
  -29.1657   -3.2129   -5.3929 C   0  0  0  0  0  0  0  0  0  0  0  0
  -28.6852   -2.7251   -6.6410 C   0  0  0  0  0  0  0  0  0  0  0  0
  -27.5792   -2.1296   -9.1841 C   0  0  0  0  0  0  0  0  0  0  0  0
  -27.4194   -1.3489   -8.0614 O   0  0  0  0  0  0  0  0  0  0  0  0
  -31.2272   -4.4365   -4.5003 C   0  0  0  0  0  0  0  0  0  0  0  0
  -31.4118   -5.6677   -3.5984 C   0  0  0  0  0  0  0  0  0  0  0  0
  -32.0237   -5.3025   -2.3905 O   0  0  0  0  0  0  0  0  0  0  0  0
  -31.2893   -5.0928   -1.7537 H   0  0  0  0  0  0  0  0  0  0  0  0
 25 26  1  0  0  0
 26 18  1  0  0  0
 18 19  1  0  0  0
 18 24  2  0  0  0
 19 20  2  0  0  0
 20 21  1  0  0  0
 21 22  1  0  0  0
 21 23  2  0  0  0
 23 17  1  0  0  0
 23 24  1  0  0  0
 17 27  1  0  0  0
 17  1  1  0  0  0
 27 28  1  0  0  0
 28 29  1  0  0  0
 29 30  1  0  0  0
  1  2  1  0  0  0
  1 10  2  0  0  0
  2  3  2  0  0  0
  3  4  1  0  0  0
  4  5  1  0  0  0
  4  9  2  0  0  0
  5  6  2  0  0  0
  6  7  1  0  0  0
  7 11  1  0  0  0
  7  8  2  0  0  0
 11 12  1  0  0  0
 11 16  2  0  0  0
 12 13  2  0  0  0
 13 14  1  0  0  0
 14 15  1  0  0  0
 14 16  1  0  0  0
  8  9  1  0  0  0
  9 10  1  0  0  0
M  END
> <minimizedAffinity>
-8.42914

$$$$
