CHEMBL3656079


 60 63  0  0  0  0  0  0  0  0999 V2000
  -13.2205   -1.8614  -15.0940 C   0  0  0  0  0  0  0  0  0  0  0  0
  -12.5250   -2.6718  -14.2127 C   0  0  0  0  0  0  0  0  0  0  0  0
  -12.5013   -4.0057  -14.7213 C   0  0  0  0  0  0  0  0  0  0  0  0
  -13.1536   -3.9464  -15.9423 C   0  0  0  0  0  0  0  0  0  0  0  0
  -13.5739   -2.6612  -16.1564 N   0  0  0  0  0  0  0  0  0  0  0  0
  -14.1017   -2.3232  -16.9516 H   0  0  0  0  0  0  0  0  0  0  0  0
  -14.9260    1.4273  -15.6554 C   0  0  0  0  0  0  0  0  0  0  0  0
  -14.1557    2.2161  -14.8076 C   0  0  0  0  0  0  0  0  0  0  0  0
  -13.0986    1.6184  -14.1459 C   0  0  0  0  0  0  0  0  0  0  0  0
  -12.7978    0.3050  -14.2365 N   0  0  0  0  0  0  0  0  0  0  0  0
  -13.5986   -0.4541  -15.0233 C   0  0  0  0  0  0  0  0  0  0  0  0
  -14.6724    0.0624  -15.7373 C   0  0  0  0  0  0  0  0  0  0  0  0
  -15.9814    1.9035  -16.4041 O   0  0  0  0  0  0  0  0  0  0  0  0
  -19.7274    2.1982  -14.5701 C   0  0  0  0  0  0  0  0  0  0  0  0
  -19.2458    3.2800  -15.3157 C   0  0  0  0  0  0  0  0  0  0  0  0
  -18.0090    3.2055  -15.9564 C   0  0  0  0  0  0  0  0  0  0  0  0
  -17.2145    2.0672  -15.8096 C   0  0  0  0  0  0  0  0  0  0  0  0
  -17.6978    0.9825  -15.0712 C   0  0  0  0  0  0  0  0  0  0  0  0
  -18.9415    1.0541  -14.4289 C   0  0  0  0  0  0  0  0  0  0  0  0
  -23.0691    1.2296  -13.5533 N   0  0  0  0  0  0  0  0  0  0  0  0
  -21.7759    1.0584  -14.0220 C   0  0  0  0  0  0  0  0  0  0  0  0
  -21.2804   -0.0160  -14.3489 O   0  0  0  0  0  0  0  0  0  0  0  0
  -21.0372    2.2338  -14.0236 N   0  0  0  0  0  0  0  0  0  0  0  0
  -23.2895    2.1271  -13.1525 H   0  0  0  0  0  0  0  0  0  0  0  0
  -21.1527    2.7885  -13.1902 H   0  0  0  0  0  0  0  0  0  0  0  0
  -25.9888   -1.3667  -10.5162 C   0  0  0  0  0  0  0  0  0  0  0  0
  -25.4533   -1.1048  -11.8944 C   0  0  0  0  0  0  0  0  0  0  0  0
  -25.8537   -1.9176  -12.9593 C   0  0  0  0  0  0  0  0  0  0  0  0
  -25.3890   -1.6600  -14.2424 C   0  0  0  0  0  0  0  0  0  0  0  0
  -24.5104   -0.6026  -14.4682 C   0  0  0  0  0  0  0  0  0  0  0  0
  -24.2287   -0.3404  -15.7500 F   0  0  0  0  0  0  0  0  0  0  0  0
  -24.0329    0.1920  -13.4147 C   0  0  0  0  0  0  0  0  0  0  0  0
  -24.5464   -0.0506  -12.1289 C   0  0  0  0  0  0  0  0  0  0  0  0
  -11.9415   -5.2239  -14.1329 C   0  0  0  0  0  0  0  0  0  0  0  0
  -10.7517   -5.5086  -14.2133 O   0  0  0  0  0  0  0  0  0  0  0  0
  -12.8515   -6.0162  -13.4684 N   0  0  0  0  0  0  0  0  0  0  0  0
  -13.8168   -5.7207  -13.4042 H   0  0  0  0  0  0  0  0  0  0  0  0
  -12.4846   -7.2500  -12.7668 C   0  0  0  0  0  0  0  0  0  0  0  0
  -13.6057   -8.2741  -12.9982 C   0  0  0  0  0  0  0  0  0  0  0  0
  -14.0730   -8.9851  -12.1157 O   0  0  0  0  0  0  0  0  0  0  0  0
  -13.8794   -8.3968  -14.3242 O   0  0  0  0  0  0  0  0  0  0  0  0
  -13.0398   -9.3072  -15.0557 C   0  0  0  0  0  0  0  0  0  0  0  0
  -12.9968   -9.0418  -16.5609 C   0  0  0  0  0  0  0  0  0  0  0  0
  -14.0187   -9.7992  -17.2196 O   0  0  0  0  0  0  0  0  0  0  0  0
  -14.8659   -9.3341  -17.1057 H   0  0  0  0  0  0  0  0  0  0  0  0
  -13.1803   -7.5385  -16.8295 C   0  0  0  0  0  0  0  0  0  0  0  0
  -14.5289   -7.1290  -16.6259 O   0  0  0  0  0  0  0  0  0  0  0  0
  -15.1076   -7.7924  -17.0421 H   0  0  0  0  0  0  0  0  0  0  0  0
  -12.3621   -7.0017  -11.2515 C   0  0  0  0  0  0  0  0  0  0  0  0
  -12.6486   -5.5729  -10.8059 C   0  0  0  0  0  0  0  0  0  0  0  0
  -14.0526   -5.3620  -10.3088 C   0  0  0  0  0  0  0  0  0  0  0  0
  -14.3722   -5.3745   -9.1273 O   0  0  0  0  0  0  0  0  0  0  0  0
  -14.9110   -5.2887  -11.3600 O   0  0  0  0  0  0  0  0  0  0  0  0
  -15.2098   -3.9535  -11.7930 C   0  0  0  0  0  0  0  0  0  0  0  0
  -16.3368   -4.0269  -12.8342 C   0  0  0  0  0  0  0  0  0  0  0  0
  -16.0107   -3.2743  -14.0126 O   0  0  0  0  0  0  0  0  0  0  0  0
  -15.1835   -3.6366  -14.3826 H   0  0  0  0  0  0  0  0  0  0  0  0
  -16.6419   -5.4757  -13.2196 C   0  0  0  0  0  0  0  0  0  0  0  0
  -15.7138   -5.9725  -14.1814 O   0  0  0  0  0  0  0  0  0  0  0  0
  -15.4527   -5.2342  -14.7597 H   0  0  0  0  0  0  0  0  0  0  0  0
 26 27  1  0  0  0
 27 28  1  0  0  0
 27 33  2  0  0  0
 28 29  2  0  0  0
 29 30  1  0  0  0
 30 31  1  0  0  0
 30 32  2  0  0  0
 32 20  1  0  0  0
 32 33  1  0  0  0
 20 21  1  0  0  0
 20 24  1  0  0  0
 21 22  2  0  0  0
 21 23  1  0  0  0
 23 14  1  0  0  0
 23 25  1  0  0  0
 14 15  1  0  0  0
 14 19  2  0  0  0
 15 16  2  0  0  0
 16 17  1  0  0  0
 17 13  1  0  0  0
 17 18  2  0  0  0
 13  7  1  0  0  0
  7  8  1  0  0  0
  7 12  2  0  0  0
  8  9  2  0  0  0
  9 10  1  0  0  0
 10 11  2  0  0  0
 11  1  1  0  0  0
 11 12  1  0  0  0
  1  2  2  0  0  0
  1  5  1  0  0  0
  2  3  1  0  0  0
  3 34  1  0  0  0
  3  4  2  0  0  0
 34 35  2  0  0  0
 34 36  1  0  0  0
 36 38  1  0  0  0
 36 37  1  0  0  0
 38 49  1  0  0  0
 38 39  1  0  0  0
 49 50  1  0  0  0
 50 51  1  0  0  0
 51 52  2  0  0  0
 51 53  1  0  0  0
 53 54  1  0  0  0
 54 55  1  0  0  0
 55 56  1  0  0  0
 55 58  1  0  0  0
 56 57  1  0  0  0
 58 59  1  0  0  0
 59 60  1  0  0  0
 39 40  2  0  0  0
 39 41  1  0  0  0
 41 42  1  0  0  0
 42 43  1  0  0  0
 43 44  1  0  0  0
 43 46  1  0  0  0
 44 45  1  0  0  0
 46 47  1  0  0  0
 47 48  1  0  0  0
  4  5  1  0  0  0
  5  6  1  0  0  0
 18 19  1  0  0  0
M  END
> <minimizedAffinity>
-8.64124

$$$$
