CHEMBL3916154


 32 35  0  0  0  0  0  0  0  0999 V2000
  -28.2198   -8.1030   -5.0041 C   0  0  0  0  0  0  0  0  0  0  0  0
  -28.8668   -8.2163   -3.8347 N   0  0  0  0  0  0  0  0  0  0  0  0
  -29.6170   -7.1586   -3.4468 C   0  0  0  0  0  0  0  0  0  0  0  0
  -29.7478   -5.9967   -4.1747 C   0  0  0  0  0  0  0  0  0  0  0  0
  -29.0797   -6.0010   -5.3857 C   0  0  0  0  0  0  0  0  0  0  0  0
  -28.3079   -7.0239   -5.7911 N   0  0  0  0  0  0  0  0  0  0  0  0
  -29.1119   -4.8147   -6.3048 C   0  0  0  0  0  0  0  0  0  0  0  0
  -30.2803   -3.8921   -5.9649 C   0  0  0  0  0  0  0  0  0  0  0  0
  -30.2863   -3.6359   -4.5190 N   0  0  0  0  0  0  0  0  0  0  0  0
  -30.0040   -2.4434   -3.8635 C   0  0  0  0  0  0  0  0  0  0  0  0
  -30.2117   -2.2998   -2.6584 O   0  0  0  0  0  0  0  0  0  0  0  0
  -30.5920   -4.8351   -3.7281 C   0  0  0  0  0  0  0  0  0  0  0  0
  -29.4030   -1.2725   -4.5941 C   0  0  0  0  0  0  0  0  0  0  0  0
  -28.0146   -1.1695   -4.7026 C   0  0  0  0  0  0  0  0  0  0  0  0
  -27.4337   -0.0930   -5.3833 C   0  0  0  0  0  0  0  0  0  0  0  0
  -28.2310    0.9007   -5.9495 C   0  0  0  0  0  0  0  0  0  0  0  0
  -29.6118    0.7907   -5.8835 C   0  0  0  0  0  0  0  0  0  0  0  0
  -30.1854   -0.3125   -5.2486 C   0  0  0  0  0  0  0  0  0  0  0  0
  -27.4238   -9.1761   -5.4268 N   0  0  0  0  0  0  0  0  0  0  0  0
  -26.4643   -8.9618   -5.1834 H   0  0  0  0  0  0  0  0  0  0  0  0
  -26.6034  -11.0017   -8.5927 C   0  0  0  0  0  0  0  0  0  0  0  0
  -26.4623  -10.3375   -7.3691 C   0  0  0  0  0  0  0  0  0  0  0  0
  -27.5668   -9.8411   -6.6623 C   0  0  0  0  0  0  0  0  0  0  0  0
  -28.8440  -10.0703   -7.1757 C   0  0  0  0  0  0  0  0  0  0  0  0
  -29.0113  -10.6980   -8.4168 C   0  0  0  0  0  0  0  0  0  0  0  0
  -27.8926  -11.1938   -9.1234 C   0  0  0  0  0  0  0  0  0  0  0  0
  -24.4666  -12.0612   -8.6624 C   0  0  0  0  0  0  0  0  0  0  0  0
  -25.5211  -11.3925   -9.3440 O   0  0  0  0  0  0  0  0  0  0  0  0
  -30.2489  -10.9013   -8.9838 O   0  0  0  0  0  0  0  0  0  0  0  0
  -31.3226  -10.1891   -8.3751 C   0  0  0  0  0  0  0  0  0  0  0  0
  -28.1794  -11.7795  -10.3352 O   0  0  0  0  0  0  0  0  0  0  0  0
  -28.3882  -10.9066  -11.4395 C   0  0  0  0  0  0  0  0  0  0  0  0
 27 28  1  0  0  0
 28 21  1  0  0  0
 21 22  1  0  0  0
 21 26  2  0  0  0
 22 23  2  0  0  0
 23 19  1  0  0  0
 23 24  1  0  0  0
 19  1  1  0  0  0
 19 20  1  0  0  0
  1  2  1  0  0  0
  1  6  2  0  0  0
  2  3  2  0  0  0
  3  4  1  0  0  0
  4  5  2  0  0  0
  4 12  1  0  0  0
  5  6  1  0  0  0
  5  7  1  0  0  0
  7  8  1  0  0  0
  8  9  1  0  0  0
  9 10  1  0  0  0
  9 12  1  0  0  0
 10 11  2  0  0  0
 10 13  1  0  0  0
 13 14  1  0  0  0
 13 18  2  0  0  0
 14 15  2  0  0  0
 15 16  1  0  0  0
 16 17  2  0  0  0
 17 18  1  0  0  0
 24 25  2  0  0  0
 25 29  1  0  0  0
 25 26  1  0  0  0
 29 30  1  0  0  0
 26 31  1  0  0  0
 31 32  1  0  0  0
M  END
> <minimizedAffinity>
-8.10383

$$$$
