CHEMBL4224973


 35 37  0  0  0  0  0  0  0  0999 V2000
  -28.9168   -1.2764   -4.7489 C   0  0  0  0  0  0  0  0  0  0  0  0
  -29.2975    0.0581   -4.6077 C   0  0  0  0  0  0  0  0  0  0  0  0
  -29.0747    0.9643   -5.6460 C   0  0  0  0  0  0  0  0  0  0  0  0
  -28.4416    0.5537   -6.8225 C   0  0  0  0  0  0  0  0  0  0  0  0
  -27.9999   -0.7588   -6.9549 C   0  0  0  0  0  0  0  0  0  0  0  0
  -28.2609   -1.6742   -5.9200 C   0  0  0  0  0  0  0  0  0  0  0  0
  -27.3855   -1.2762   -8.1095 N   0  0  0  0  0  0  0  0  0  0  0  0
  -26.5163   -0.8203   -8.3622 H   0  0  0  0  0  0  0  0  0  0  0  0
  -27.7108   -2.2997   -8.9779 C   0  0  0  0  0  0  0  0  0  0  0  0
  -27.8270   -3.9304   -8.6544 S   0  0  0  0  0  0  0  0  0  0  0  0
  -28.1003   -1.8417  -10.2296 N   0  0  0  0  0  0  0  0  0  0  0  0
  -29.0886   -1.6354  -10.3379 H   0  0  0  0  0  0  0  0  0  0  0  0
  -27.2682   -1.7565  -11.3673 C   0  0  0  0  0  0  0  0  0  0  0  0
  -27.8118   -1.6705  -12.6556 C   0  0  0  0  0  0  0  0  0  0  0  0
  -26.9940   -1.7099  -13.7783 C   0  0  0  0  0  0  0  0  0  0  0  0
  -25.6193   -1.7941  -13.6129 C   0  0  0  0  0  0  0  0  0  0  0  0
  -24.8576   -1.8799  -14.7093 F   0  0  0  0  0  0  0  0  0  0  0  0
  -25.0420   -1.7959  -12.3430 C   0  0  0  0  0  0  0  0  0  0  0  0
  -25.8814   -1.7587  -11.2092 C   0  0  0  0  0  0  0  0  0  0  0  0
  -23.5520   -1.8501  -12.1826 C   0  0  0  0  0  0  0  0  0  0  0  0
  -23.1048   -1.8460  -10.8990 F   0  0  0  0  0  0  0  0  0  0  0  0
  -23.0206   -2.9666  -12.7562 F   0  0  0  0  0  0  0  0  0  0  0  0
  -22.9344   -0.7978  -12.7914 F   0  0  0  0  0  0  0  0  0  0  0  0
  -29.1974   -2.4445   -3.4298 S   0  0  0  0  0  0  0  0  0  0  0  0
  -28.9946   -6.4735   -5.5286 C   0  0  0  0  0  0  0  0  0  0  0  0
  -30.1429   -5.6944   -5.6573 C   0  0  0  0  0  0  0  0  0  0  0  0
  -30.1980   -4.4534   -5.0153 C   0  0  0  0  0  0  0  0  0  0  0  0
  -29.1031   -4.0210   -4.2670 C   0  0  0  0  0  0  0  0  0  0  0  0
  -27.9918   -4.7751   -4.1128 N   0  0  0  0  0  0  0  0  0  0  0  0
  -27.9637   -5.9813   -4.7374 C   0  0  0  0  0  0  0  0  0  0  0  0
  -27.4565   -9.8230   -6.3664 C   0  0  0  0  0  0  0  0  0  0  0  0
  -27.6721   -8.4910   -5.8553 N   0  0  0  0  0  0  0  0  0  0  0  0
  -28.8264   -7.7993   -6.1706 C   0  0  0  0  0  0  0  0  0  0  0  0
  -29.7038   -8.2382   -6.9034 O   0  0  0  0  0  0  0  0  0  0  0  0
  -27.0743   -8.1667   -5.1078 H   0  0  0  0  0  0  0  0  0  0  0  0
 31 32  1  0  0  0
 32 33  1  0  0  0
 32 35  1  0  0  0
 33 34  2  0  0  0
 33 25  1  0  0  0
 25 26  1  0  0  0
 25 30  2  0  0  0
 26 27  2  0  0  0
 27 28  1  0  0  0
 28 24  1  0  0  0
 28 29  2  0  0  0
 24  1  1  0  0  0
  1  2  1  0  0  0
  1  6  2  0  0  0
  2  3  2  0  0  0
  3  4  1  0  0  0
  4  5  2  0  0  0
  5  7  1  0  0  0
  5  6  1  0  0  0
  7  9  1  0  0  0
  7  8  1  0  0  0
  9 10  2  0  0  0
  9 11  1  0  0  0
 11 13  1  0  0  0
 11 12  1  0  0  0
 13 14  1  0  0  0
 13 19  2  0  0  0
 14 15  2  0  0  0
 15 16  1  0  0  0
 16 17  1  0  0  0
 16 18  2  0  0  0
 18 20  1  0  0  0
 18 19  1  0  0  0
 20 21  1  0  0  0
 20 22  1  0  0  0
 20 23  1  0  0  0
 29 30  1  0  0  0
M  END
> <minimizedAffinity>
-9.69112

$$$$
