CHEMBL1094825


 42 46  0  0  0  0  0  0  0  0999 V2000
  -11.2352    3.9759  -12.0388 N   0  0  0  0  0  0  0  0  0  0  0  0
  -12.2303    3.5462  -13.0214 C   0  0  0  0  0  0  0  0  0  0  0  0
  -12.3067    2.0127  -13.1978 C   0  0  0  0  0  0  0  0  0  0  0  0
  -13.5532    1.6406  -14.0431 C   0  0  0  0  0  0  0  0  0  0  0  0
  -13.7165    2.5663  -15.2282 C   0  0  0  0  0  0  0  0  0  0  0  0
  -12.9426    3.7009  -15.3939 C   0  0  0  0  0  0  0  0  0  0  0  0
  -13.3393    4.2816  -16.5663 C   0  0  0  0  0  0  0  0  0  0  0  0
  -12.8673    5.4384  -17.2004 C   0  0  0  0  0  0  0  0  0  0  0  0
  -13.4872    5.8403  -18.3988 C   0  0  0  0  0  0  0  0  0  0  0  0
  -14.5715    5.0766  -18.8936 C   0  0  0  0  0  0  0  0  0  0  0  0
  -15.0185    3.9332  -18.2426 C   0  0  0  0  0  0  0  0  0  0  0  0
  -14.3804    3.5194  -17.0606 C   0  0  0  0  0  0  0  0  0  0  0  0
  -14.6265    2.4484  -16.2355 N   0  0  0  0  0  0  0  0  0  0  0  0
  -11.9386    4.1923  -14.4006 C   0  0  0  0  0  0  0  0  0  0  0  0
  -11.2275    3.3375  -11.2104 H   0  0  0  0  0  0  0  0  0  0  0  0
  -10.2798    4.0670  -12.4451 H   0  0  0  0  0  0  0  0  0  0  0  0
  -13.0507    6.9539  -19.0496 O   0  0  0  0  0  0  0  0  0  0  0  0
  -13.8246    7.6166  -19.9882 C   0  0  0  0  0  0  0  0  0  0  0  0
  -14.6605    8.7260  -19.3541 C   0  0  0  0  0  0  0  0  0  0  0  0
  -15.8596    9.0085  -20.2338 C   0  0  0  0  0  0  0  0  0  0  0  0
  -16.6166   10.1781  -20.0522 C   0  0  0  0  0  0  0  0  0  0  0  0
  -17.7384   10.4244  -20.8444 C   0  0  0  0  0  0  0  0  0  0  0  0
  -18.1234    9.5046  -21.8335 C   0  0  0  0  0  0  0  0  0  0  0  0
  -19.2109    9.7240  -22.5989 O   0  0  0  0  0  0  0  0  0  0  0  0
  -17.3756    8.3404  -22.0213 C   0  0  0  0  0  0  0  0  0  0  0  0
  -16.2483    8.0932  -21.2325 C   0  0  0  0  0  0  0  0  0  0  0  0
  -19.7586   10.5148  -22.4979 H   0  0  0  0  0  0  0  0  0  0  0  0
  -15.6407    1.3640  -16.2894 C   0  0  0  0  0  0  0  0  0  0  0  0
  -16.8902    1.6518  -15.4674 C   0  0  0  0  0  0  0  0  0  0  0  0
  -17.7242    2.8453  -15.9257 C   0  0  0  0  0  0  0  0  0  0  0  0
  -18.7637    3.1149  -14.8264 C   0  0  0  0  0  0  0  0  0  0  0  0
  -20.1739    3.3371  -15.3678 C   0  0  0  0  0  0  0  0  0  0  0  0
  -21.1123    2.3189  -14.7613 C   0  0  0  0  0  0  0  0  0  0  0  0
  -22.2429    2.7352  -14.0367 C   0  0  0  0  0  0  0  0  0  0  0  0
  -23.0958    1.7968  -13.4511 C   0  0  0  0  0  0  0  0  0  0  0  0
  -22.8375    0.4215  -13.5836 C   0  0  0  0  0  0  0  0  0  0  0  0
  -21.7137    0.0065  -14.3164 C   0  0  0  0  0  0  0  0  0  0  0  0
  -20.8581    0.9457  -14.8994 C   0  0  0  0  0  0  0  0  0  0  0  0
  -23.7342   -0.6156  -12.9562 C   0  0  0  0  0  0  0  0  0  0  0  0
  -24.4090   -1.3550  -13.9148 F   0  0  0  0  0  0  0  0  0  0  0  0
  -22.9745   -1.4785  -12.1892 F   0  0  0  0  0  0  0  0  0  0  0  0
  -24.6655    0.0093  -12.1488 F   0  0  0  0  0  0  0  0  0  0  0  0
  1  2  1  0  0  0
  1 15  1  0  0  0
  1 16  1  0  0  0
  2  3  1  0  0  0
  2 14  1  0  0  0
  3  4  1  0  0  0
  4  5  1  0  0  0
  5  6  2  0  0  0
  5 13  1  0  0  0
  6  7  1  0  0  0
  6 14  1  0  0  0
  7  8  1  0  0  0
  7 12  2  0  0  0
  8  9  2  0  0  0
  9 17  1  0  0  0
  9 10  1  0  0  0
 17 18  1  0  0  0
 18 19  1  0  0  0
 19 20  1  0  0  0
 20 21  1  0  0  0
 20 26  2  0  0  0
 21 22  2  0  0  0
 22 23  1  0  0  0
 23 24  1  0  0  0
 23 25  2  0  0  0
 24 27  1  0  0  0
 25 26  1  0  0  0
 10 11  2  0  0  0
 11 12  1  0  0  0
 12 13  1  0  0  0
 13 28  1  0  0  0
 28 29  1  0  0  0
 29 30  1  0  0  0
 30 31  1  0  0  0
 31 32  1  0  0  0
 32 33  1  0  0  0
 33 34  1  0  0  0
 33 38  2  0  0  0
 34 35  2  0  0  0
 35 36  1  0  0  0
 36 39  1  0  0  0
 36 37  2  0  0  0
 39 40  1  0  0  0
 39 41  1  0  0  0
 39 42  1  0  0  0
 37 38  1  0  0  0
M  END
> <minimizedAffinity>
-9.44227

$$$$
