CHEMBL1987910


 34 37  0  0  0  0  0  0  0  0999 V2000
  -28.8115   -3.0799   -6.9204 C   0  0  0  0  0  0  0  0  0  0  0  0
  -28.0937   -1.8819   -6.8647 C   0  0  0  0  0  0  0  0  0  0  0  0
  -27.6462   -1.2548   -8.0259 C   0  0  0  0  0  0  0  0  0  0  0  0
  -27.8561   -1.8242   -9.2828 C   0  0  0  0  0  0  0  0  0  0  0  0
  -28.5678   -3.0215   -9.3514 C   0  0  0  0  0  0  0  0  0  0  0  0
  -29.0708   -3.6252   -8.1831 C   0  0  0  0  0  0  0  0  0  0  0  0
  -28.2064   -6.3778   -7.1065 N   0  0  0  0  0  0  0  0  0  0  0  0
  -28.8006   -6.2909   -5.8522 C   0  0  0  0  0  0  0  0  0  0  0  0
  -28.9067   -7.4758   -5.2104 N   0  0  0  0  0  0  0  0  0  0  0  0
  -29.4048   -7.5282   -3.9669 C   0  0  0  0  0  0  0  0  0  0  0  0
  -29.8312   -6.4294   -3.2603 C   0  0  0  0  0  0  0  0  0  0  0  0
  -29.7477   -5.2024   -3.9275 C   0  0  0  0  0  0  0  0  0  0  0  0
  -30.2209   -3.6908   -3.2670 S   0  0  0  0  0  0  0  0  0  0  0  0
  -29.8033   -2.8700   -4.6875 C   0  0  0  0  0  0  0  0  0  0  0  0
  -29.2752   -3.6932   -5.6686 C   0  0  0  0  0  0  0  0  0  0  0  0
  -29.2447   -5.0897   -5.2329 C   0  0  0  0  0  0  0  0  0  0  0  0
  -27.8004   -7.3032   -7.2006 H   0  0  0  0  0  0  0  0  0  0  0  0
  -27.5680   -5.6142   -7.2912 H   0  0  0  0  0  0  0  0  0  0  0  0
  -27.3882   -1.2262  -10.4786 N   0  0  0  0  0  0  0  0  0  0  0  0
  -26.0652   -1.1413  -10.8623 C   0  0  0  0  0  0  0  0  0  0  0  0
  -25.1211   -1.6382  -10.2539 O   0  0  0  0  0  0  0  0  0  0  0  0
  -25.8904   -0.3892  -12.0091 N   0  0  0  0  0  0  0  0  0  0  0  0
  -28.0817   -0.9439  -11.1565 H   0  0  0  0  0  0  0  0  0  0  0  0
  -26.5149    0.4086  -12.0751 H   0  0  0  0  0  0  0  0  0  0  0  0
  -24.5996   -0.2566  -12.5927 C   0  0  0  0  0  0  0  0  0  0  0  0
  -23.5761    0.3743  -11.8616 C   0  0  0  0  0  0  0  0  0  0  0  0
  -22.3094    0.5717  -12.4016 C   0  0  0  0  0  0  0  0  0  0  0  0
  -22.0354    0.1196  -13.6843 C   0  0  0  0  0  0  0  0  0  0  0  0
  -23.0319   -0.5285  -14.4177 C   0  0  0  0  0  0  0  0  0  0  0  0
  -24.3233   -0.7286  -13.8839 C   0  0  0  0  0  0  0  0  0  0  0  0
  -25.3588   -1.3600  -14.7736 C   0  0  0  0  0  0  0  0  0  0  0  0
  -26.6450   -1.1896  -14.3429 F   0  0  0  0  0  0  0  0  0  0  0  0
  -25.3303   -0.8707  -16.0448 F   0  0  0  0  0  0  0  0  0  0  0  0
  -25.1939   -2.7071  -14.8902 F   0  0  0  0  0  0  0  0  0  0  0  0
  7  8  1  0  0  0
  7 17  1  0  0  0
  7 18  1  0  0  0
  8  9  1  0  0  0
  8 16  2  0  0  0
  9 10  2  0  0  0
 10 11  1  0  0  0
 11 12  2  0  0  0
 12 13  1  0  0  0
 12 16  1  0  0  0
 13 14  1  0  0  0
 14 15  2  0  0  0
 15  1  1  0  0  0
 15 16  1  0  0  0
  1  2  1  0  0  0
  1  6  2  0  0  0
  2  3  2  0  0  0
  3  4  1  0  0  0
  4 19  1  0  0  0
  4  5  2  0  0  0
 19 20  1  0  0  0
 19 23  1  0  0  0
 20 21  2  0  0  0
 20 22  1  0  0  0
 22 25  1  0  0  0
 22 24  1  0  0  0
 25 26  1  0  0  0
 25 30  2  0  0  0
 26 27  2  0  0  0
 27 28  1  0  0  0
 28 29  2  0  0  0
 29 30  1  0  0  0
 30 31  1  0  0  0
 31 32  1  0  0  0
 31 33  1  0  0  0
 31 34  1  0  0  0
  5  6  1  0  0  0
M  END
> <minimizedAffinity>
-9.34934

$$$$
