CHEMBL1681941


 33 35  0  0  0  0  0  0  0  0999 V2000
  -22.9949   -0.7773  -13.4325 C   0  0  0  0  0  0  0  0  0  0  0  0
  -22.8040   -1.0776  -12.0890 C   0  0  0  0  0  0  0  0  0  0  0  0
  -23.8298   -1.6471  -11.3395 C   0  0  0  0  0  0  0  0  0  0  0  0
  -25.0863   -1.9082  -11.9009 C   0  0  0  0  0  0  0  0  0  0  0  0
  -25.3054   -1.4877  -13.2243 C   0  0  0  0  0  0  0  0  0  0  0  0
  -26.8557   -1.7012  -13.9702 Cl  0  0  0  0  0  0  0  0  0  0  0  0
  -24.2671   -0.9281  -13.9931 C   0  0  0  0  0  0  0  0  0  0  0  0
  -26.0998   -2.5984  -11.1709 N   0  0  0  0  0  0  0  0  0  0  0  0
  -26.6683   -2.1382   -9.9956 C   0  0  0  0  0  0  0  0  0  0  0  0
  -26.3986   -1.0708   -9.4532 O   0  0  0  0  0  0  0  0  0  0  0  0
  -27.5565   -3.0372   -9.4204 N   0  0  0  0  0  0  0  0  0  0  0  0
  -26.2917   -3.5504  -11.4597 H   0  0  0  0  0  0  0  0  0  0  0  0
  -27.3385   -4.0111   -9.5571 H   0  0  0  0  0  0  0  0  0  0  0  0
  -28.1983   -2.6954   -8.1978 C   0  0  0  0  0  0  0  0  0  0  0  0
  -29.1132   -3.5804   -7.6368 C   0  0  0  0  0  0  0  0  0  0  0  0
  -29.6481   -3.3006   -6.3782 C   0  0  0  0  0  0  0  0  0  0  0  0
  -29.2936   -2.1161   -5.7500 C   0  0  0  0  0  0  0  0  0  0  0  0
  -28.4520   -1.2101   -6.2855 N   0  0  0  0  0  0  0  0  0  0  0  0
  -27.9088   -1.5284   -7.4868 C   0  0  0  0  0  0  0  0  0  0  0  0
  -21.9540   -0.3153  -14.2190 O   0  0  0  0  0  0  0  0  0  0  0  0
  -20.5419    1.5940  -14.6159 C   0  0  0  0  0  0  0  0  0  0  0  0
  -20.4500    2.9830  -14.6048 C   0  0  0  0  0  0  0  0  0  0  0  0
  -19.3204    3.6697  -15.0474 N   0  0  0  0  0  0  0  0  0  0  0  0
  -21.4818    3.7792  -14.2792 N   0  0  0  0  0  0  0  0  0  0  0  0
  -22.6177    3.1717  -13.9282 C   0  0  0  0  0  0  0  0  0  0  0  0
  -22.8064    1.8519  -13.8665 N   0  0  0  0  0  0  0  0  0  0  0  0
  -21.7672    1.0719  -14.2466 C   0  0  0  0  0  0  0  0  0  0  0  0
  -18.4605    3.2318  -14.7156 H   0  0  0  0  0  0  0  0  0  0  0  0
  -19.4077    4.6547  -14.8231 H   0  0  0  0  0  0  0  0  0  0  0  0
  -18.2069    1.0308  -14.5340 N   0  0  0  0  0  0  0  0  0  0  0  0
  -19.3936    0.7476  -14.9758 C   0  0  0  0  0  0  0  0  0  0  0  0
  -16.0803    0.2553  -14.2519 C   0  0  0  0  0  0  0  0  0  0  0  0
  -17.2726    0.1108  -15.0214 O   0  0  0  0  0  0  0  0  0  0  0  0
 32 33  1  0  0  0
 33 30  1  0  0  0
 30 31  2  0  0  0
 31 21  1  0  0  0
 21 22  1  0  0  0
 21 27  2  0  0  0
 22 23  1  0  0  0
 22 24  2  0  0  0
 23 28  1  0  0  0
 23 29  1  0  0  0
 24 25  1  0  0  0
 25 26  2  0  0  0
 26 27  1  0  0  0
 27 20  1  0  0  0
 20  1  1  0  0  0
  1  2  1  0  0  0
  1  7  2  0  0  0
  2  3  2  0  0  0
  3  4  1  0  0  0
  4  8  1  0  0  0
  4  5  2  0  0  0
  8  9  1  0  0  0
  8 12  1  0  0  0
  9 10  2  0  0  0
  9 11  1  0  0  0
 11 14  1  0  0  0
 11 13  1  0  0  0
 14 15  1  0  0  0
 14 19  2  0  0  0
 15 16  2  0  0  0
 16 17  1  0  0  0
 17 18  2  0  0  0
 18 19  1  0  0  0
  5  6  1  0  0  0
  5  7  1  0  0  0
M  END
> <minimizedAffinity>
-10.32332

$$$$
