CHEMBL218799


 33 38  0  0  0  0  0  0  0  0999 V2000
  -13.4579   -7.8963  -13.9140 N   0  0  0  0  0  0  0  0  0  0  0  0
  -13.4750   -7.9736  -15.3286 C   0  0  0  0  0  0  0  0  0  0  0  0
  -13.1229   -9.0007  -16.2254 C   0  0  0  0  0  0  0  0  0  0  0  0
  -13.1503   -8.7276  -17.6112 C   0  0  0  0  0  0  0  0  0  0  0  0
  -13.5782   -7.5014  -18.1167 C   0  0  0  0  0  0  0  0  0  0  0  0
  -13.4498   -7.1813  -19.4739 N   0  0  0  0  0  0  0  0  0  0  0  0
  -13.8786   -6.4870  -17.2196 C   0  0  0  0  0  0  0  0  0  0  0  0
  -13.8230   -6.7102  -15.8302 C   0  0  0  0  0  0  0  0  0  0  0  0
  -13.8920   -5.9457  -14.6879 C   0  0  0  0  0  0  0  0  0  0  0  0
  -13.7355   -4.5508  -14.7209 C   0  0  0  0  0  0  0  0  0  0  0  0
  -13.2618   -3.9729  -13.5267 C   0  0  0  0  0  0  0  0  0  0  0  0
  -13.0958   -4.6848  -12.3263 C   0  0  0  0  0  0  0  0  0  0  0  0
  -13.8725   -5.8920  -12.2794 C   0  0  0  0  0  0  0  0  0  0  0  0
  -13.8442   -6.6136  -13.4956 C   0  0  0  0  0  0  0  0  0  0  0  0
  -15.1917   -5.6947  -11.4148 C   0  0  0  0  0  0  0  0  0  0  0  0
  -15.4769   -4.1942  -10.9801 C   0  0  0  0  0  0  0  0  0  0  0  0
  -14.2103   -3.6743  -10.3973 C   0  0  0  0  0  0  0  0  0  0  0  0
  -13.9929   -3.2523   -9.1529 N   0  0  0  0  0  0  0  0  0  0  0  0
  -12.6405   -3.3309   -9.0501 N   0  0  0  0  0  0  0  0  0  0  0  0
  -12.0061   -3.0914   -7.7763 C   0  0  0  0  0  0  0  0  0  0  0  0
  -12.0326   -3.8672  -10.1595 C   0  0  0  0  0  0  0  0  0  0  0  0
  -13.0253   -3.9381  -11.1000 C   0  0  0  0  0  0  0  0  0  0  0  0
  -13.1451   -2.5569  -13.7622 C   0  0  0  0  0  0  0  0  0  0  0  0
  -12.8120   -1.6036  -13.0559 O   0  0  0  0  0  0  0  0  0  0  0  0
  -13.5624   -2.3801  -15.0714 N   0  0  0  0  0  0  0  0  0  0  0  0
  -13.8923   -3.5836  -15.8002 C   0  0  0  0  0  0  0  0  0  0  0  0
  -13.5212   -7.9773  -20.1037 H   0  0  0  0  0  0  0  0  0  0  0  0
  -14.0282   -6.4007  -19.7725 H   0  0  0  0  0  0  0  0  0  0  0  0
  -13.6423   -1.4486  -15.4473 H   0  0  0  0  0  0  0  0  0  0  0  0
  -12.9396   -8.9614  -13.0542 C   0  0  0  0  0  0  0  0  0  0  0  0
  -10.8998   -9.8057  -11.7566 C   0  0  0  0  0  0  0  0  0  0  0  0
  -11.7053   -8.5837  -12.1958 C   0  0  0  0  0  0  0  0  0  0  0  0
  -10.7731   -7.6319  -12.9556 C   0  0  0  0  0  0  0  0  0  0  0  0
 31 32  1  0  0  0
 32 33  1  0  0  0
 32 30  1  0  0  0
 30  1  1  0  0  0
  1  2  1  0  0  0
  1 14  1  0  0  0
  2  3  1  0  0  0
  2  8  2  0  0  0
  3  4  2  0  0  0
  4  5  1  0  0  0
  5  6  1  0  0  0
  5  7  2  0  0  0
  6 27  1  0  0  0
  6 28  1  0  0  0
  7  8  1  0  0  0
  8  9  1  0  0  0
  9 10  1  0  0  0
  9 14  2  0  0  0
 10 11  2  0  0  0
 10 26  1  0  0  0
 11 12  1  0  0  0
 11 23  1  0  0  0
 12 13  2  0  0  0
 12 22  1  0  0  0
 13 14  1  0  0  0
 13 15  1  0  0  0
 15 16  1  0  0  0
 16 17  1  0  0  0
 17 18  2  0  0  0
 17 22  1  0  0  0
 18 19  1  0  0  0
 19 20  1  0  0  0
 19 21  1  0  0  0
 21 22  2  0  0  0
 23 24  2  0  0  0
 23 25  1  0  0  0
 25 26  1  0  0  0
 25 29  1  0  0  0
M  END
> <minimizedAffinity>
-7.53543

$$$$
