CHEMBL3964096


 34 37  0  0  0  0  0  0  0  0999 V2000
  -30.4112   -7.6530   -7.0003 N   0  0  0  0  0  0  0  0  0  0  0  0
  -30.3082   -6.5862   -6.0295 C   0  0  0  0  0  0  0  0  0  0  0  0
  -30.6126   -6.7888   -4.6600 C   0  0  0  0  0  0  0  0  0  0  0  0
  -30.5550   -5.7340   -3.7459 C   0  0  0  0  0  0  0  0  0  0  0  0
  -30.1966   -4.4587   -4.1729 C   0  0  0  0  0  0  0  0  0  0  0  0
  -30.1403   -3.4244   -3.2966 N   0  0  0  0  0  0  0  0  0  0  0  0
  -29.7939   -2.1750   -3.7019 C   0  0  0  0  0  0  0  0  0  0  0  0
  -29.4866   -1.9419   -5.0545 C   0  0  0  0  0  0  0  0  0  0  0  0
  -29.5496   -2.9810   -5.9311 N   0  0  0  0  0  0  0  0  0  0  0  0
  -29.8908   -4.2309   -5.5268 C   0  0  0  0  0  0  0  0  0  0  0  0
  -29.9506   -5.2828   -6.4415 C   0  0  0  0  0  0  0  0  0  0  0  0
  -29.0945   -0.6034   -5.5381 C   0  0  0  0  0  0  0  0  0  0  0  0
  -29.9273    0.4804   -5.7454 C   0  0  0  0  0  0  0  0  0  0  0  0
  -29.1933    1.5155   -6.1986 N   0  0  0  0  0  0  0  0  0  0  0  0
  -27.9342    1.1160   -6.2828 N   0  0  0  0  0  0  0  0  0  0  0  0
  -27.8335   -0.1633   -5.8886 C   0  0  0  0  0  0  0  0  0  0  0  0
  -27.1462    1.7189   -6.6102 H   0  0  0  0  0  0  0  0  0  0  0  0
  -27.3820   -9.9515   -7.0202 C   0  0  0  0  0  0  0  0  0  0  0  0
  -26.8669   -9.6908   -8.3029 C   0  0  0  0  0  0  0  0  0  0  0  0
  -27.5016   -8.7706   -9.1407 C   0  0  0  0  0  0  0  0  0  0  0  0
  -27.0089   -8.4945  -10.3669 O   0  0  0  0  0  0  0  0  0  0  0  0
  -28.6564   -8.1178   -8.7059 C   0  0  0  0  0  0  0  0  0  0  0  0
  -29.2188   -8.3680   -7.4283 C   0  0  0  0  0  0  0  0  0  0  0  0
  -28.5453   -9.2896   -6.5938 C   0  0  0  0  0  0  0  0  0  0  0  0
  -26.2088   -8.9160  -10.7123 H   0  0  0  0  0  0  0  0  0  0  0  0
  -25.4561  -10.8484   -5.8145 C   0  0  0  0  0  0  0  0  0  0  0  0
  -26.7918  -10.8255   -6.1626 O   0  0  0  0  0  0  0  0  0  0  0  0
  -31.7448   -8.0666   -7.4707 C   0  0  0  0  0  0  0  0  0  0  0  0
  -32.0191   -9.5825   -7.3021 C   0  0  0  0  0  0  0  0  0  0  0  0
  -32.0792  -10.3245   -8.5715 N   0  0  0  0  0  0  0  0  0  0  0  0
  -31.6039   -9.7329   -9.2947 H   0  0  0  0  0  0  0  0  0  0  0  0
  -31.3534  -11.6184   -8.4802 C   0  0  0  0  0  0  0  0  0  0  0  0
  -29.9875  -11.5733   -9.1967 C   0  0  0  0  0  0  0  0  0  0  0  0
  -31.1149  -11.9884   -7.0093 C   0  0  0  0  0  0  0  0  0  0  0  0
 26 27  1  0  0  0
 27 18  1  0  0  0
 18 19  1  0  0  0
 18 24  2  0  0  0
 19 20  2  0  0  0
 20 21  1  0  0  0
 20 22  1  0  0  0
 21 25  1  0  0  0
 22 23  2  0  0  0
 23  1  1  0  0  0
 23 24  1  0  0  0
  1 28  1  0  0  0
  1  2  1  0  0  0
 28 29  1  0  0  0
 29 30  1  0  0  0
 30 32  1  0  0  0
 30 31  1  0  0  0
 32 33  1  0  0  0
 32 34  1  0  0  0
  2  3  1  0  0  0
  2 11  2  0  0  0
  3  4  2  0  0  0
  4  5  1  0  0  0
  5  6  1  0  0  0
  5 10  2  0  0  0
  6  7  2  0  0  0
  7  8  1  0  0  0
  8 12  1  0  0  0
  8  9  2  0  0  0
 12 13  1  0  0  0
 12 16  2  0  0  0
 13 14  2  0  0  0
 14 15  1  0  0  0
 15 16  1  0  0  0
 15 17  1  0  0  0
  9 10  1  0  0  0
 10 11  1  0  0  0
M  END
> <minimizedAffinity>
-8.03509

$$$$
