CHEMBL3952488


 36 40  0  0  0  0  0  0  0  0999 V2000
  -16.8771    2.0685  -15.1598 N   0  0  0  0  0  0  0  0  0  0  0  0
  -18.3184    1.8317  -15.2368 C   0  0  0  0  0  0  0  0  0  0  0  0
  -19.0442    2.9505  -15.6168 C   0  0  0  0  0  0  0  0  0  0  0  0
  -20.3507    3.0880  -15.2199 C   0  0  0  0  0  0  0  0  0  0  0  0
  -21.0431    2.0838  -14.5783 C   0  0  0  0  0  0  0  0  0  0  0  0
  -22.1712    2.5447  -14.0228 N   0  0  0  0  0  0  0  0  0  0  0  0
  -23.0955    1.6521  -13.6673 C   0  0  0  0  0  0  0  0  0  0  0  0
  -22.9543    0.3278  -13.9992 C   0  0  0  0  0  0  0  0  0  0  0  0
  -21.6889   -0.1744  -14.3700 N   0  0  0  0  0  0  0  0  0  0  0  0
  -20.5961    0.7655  -14.5975 C   0  0  0  0  0  0  0  0  0  0  0  0
  -19.1230    0.6872  -14.8680 C   0  0  0  0  0  0  0  0  0  0  0  0
  -24.2258   -0.3682  -14.2800 C   0  0  0  0  0  0  0  0  0  0  0  0
  -24.8747   -0.7752  -15.4737 C   0  0  0  0  0  0  0  0  0  0  0  0
  -25.9809   -1.5194  -15.2608 N   0  0  0  0  0  0  0  0  0  0  0  0
  -26.0681   -1.5818  -13.9251 N   0  0  0  0  0  0  0  0  0  0  0  0
  -27.2951   -2.0203  -13.2956 C   0  0  0  0  0  0  0  0  0  0  0  0
  -24.9513   -1.0698  -13.3103 C   0  0  0  0  0  0  0  0  0  0  0  0
  -14.4579    3.5603  -17.6781 C   0  0  0  0  0  0  0  0  0  0  0  0
  -13.8034    2.4132  -18.1152 C   0  0  0  0  0  0  0  0  0  0  0  0
  -14.2297    1.1613  -17.6695 C   0  0  0  0  0  0  0  0  0  0  0  0
  -15.2521    1.0561  -16.7209 C   0  0  0  0  0  0  0  0  0  0  0  0
  -15.9475    2.1724  -16.2373 C   0  0  0  0  0  0  0  0  0  0  0  0
  -15.5682    3.4274  -16.8006 C   0  0  0  0  0  0  0  0  0  0  0  0
  -14.5393    5.3778  -19.2758 C   0  0  0  0  0  0  0  0  0  0  0  0
  -14.0681    4.8360  -18.0347 O   0  0  0  0  0  0  0  0  0  0  0  0
  -13.7121   -0.0378  -18.0900 O   0  0  0  0  0  0  0  0  0  0  0  0
  -13.6406   -0.2416  -19.4991 C   0  0  0  0  0  0  0  0  0  0  0  0
  -16.3593    1.5179  -13.7641 C   0  0  0  0  0  0  0  0  0  0  0  0
  -16.0688    0.0394  -13.5638 C   0  0  0  0  0  0  0  0  0  0  0  0
  -15.8195   -1.2288  -13.3920 C   0  0  0  0  0  0  0  0  0  0  0  0
  -15.5671   -2.6087  -13.1813 C   0  0  0  0  0  0  0  0  0  0  0  0
  -15.2853   -3.5800  -14.1162 C   0  0  0  0  0  0  0  0  0  0  0  0
  -15.1169   -4.8051  -13.5181 N   0  0  0  0  0  0  0  0  0  0  0  0
  -15.2879   -4.5853  -12.2337 C   0  0  0  0  0  0  0  0  0  0  0  0
  -15.5600   -3.2703  -11.9819 N   0  0  0  0  0  0  0  0  0  0  0  0
  -15.7906   -2.6934  -10.6819 C   0  0  0  0  0  0  0  0  0  0  0  0
 24 25  1  0  0  0
 25 18  1  0  0  0
 18 19  1  0  0  0
 18 23  2  0  0  0
 19 20  2  0  0  0
 20 26  1  0  0  0
 20 21  1  0  0  0
 26 27  1  0  0  0
 21 22  2  0  0  0
 22  1  1  0  0  0
 22 23  1  0  0  0
  1 28  1  0  0  0
  1  2  1  0  0  0
 28 29  1  0  0  0
 29 30  3  0  0  0
 30 31  1  0  0  0
 31 32  2  0  0  0
 31 35  1  0  0  0
 32 33  1  0  0  0
 33 34  2  0  0  0
 34 35  1  0  0  0
 35 36  1  0  0  0
  2  3  1  0  0  0
  2 11  2  0  0  0
  3  4  2  0  0  0
  4  5  1  0  0  0
  5  6  1  0  0  0
  5 10  2  0  0  0
  6  7  2  0  0  0
  7  8  1  0  0  0
  8 12  1  0  0  0
  8  9  2  0  0  0
 12 13  1  0  0  0
 12 17  2  0  0  0
 13 14  2  0  0  0
 14 15  1  0  0  0
 15 16  1  0  0  0
 15 17  1  0  0  0
  9 10  1  0  0  0
 10 11  1  0  0  0
M  END
> <minimizedAffinity>
-8.67986

$$$$
