CHEMBL2016902


 31 35  0  0  0  0  0  0  0  0999 V2000
  -28.7838   -6.2007   -6.2312 O   0  0  0  0  0  0  0  0  0  0  0  0
  -29.0423   -5.0433   -5.8893 C   0  0  0  0  0  0  0  0  0  0  0  0
  -28.6188   -3.9242   -6.6381 N   0  0  0  0  0  0  0  0  0  0  0  0
  -29.0313   -2.5475   -6.2834 C   0  0  0  0  0  0  0  0  0  0  0  0
  -28.5041   -1.3399   -7.0544 C   0  0  0  0  0  0  0  0  0  0  0  0
  -27.9606   -1.7338   -8.3435 C   0  0  0  0  0  0  0  0  0  0  0  0
  -27.5380   -0.8521   -9.2827 N   0  0  0  0  0  0  0  0  0  0  0  0
  -27.1070   -1.5918  -10.2887 C   0  0  0  0  0  0  0  0  0  0  0  0
  -27.2293   -2.9365   -9.9862 N   0  0  0  0  0  0  0  0  0  0  0  0
  -27.8003   -3.0293   -8.7454 C   0  0  0  0  0  0  0  0  0  0  0  0
  -28.1975   -4.2511   -8.0174 C   0  0  0  0  0  0  0  0  0  0  0  0
  -26.9371   -3.6929  -10.5965 H   0  0  0  0  0  0  0  0  0  0  0  0
  -26.5138   -1.1652  -11.5167 C   0  0  0  0  0  0  0  0  0  0  0  0
  -25.5377   -0.2435  -11.4507 C   0  0  0  0  0  0  0  0  0  0  0  0
  -24.6418   -0.0583  -12.5917 C   0  0  0  0  0  0  0  0  0  0  0  0
  -23.5192    0.7373  -12.4851 C   0  0  0  0  0  0  0  0  0  0  0  0
  -23.6764    2.0644  -12.3556 F   0  0  0  0  0  0  0  0  0  0  0  0
  -22.3239    0.2775  -12.9957 C   0  0  0  0  0  0  0  0  0  0  0  0
  -22.3669   -0.6594  -14.0257 C   0  0  0  0  0  0  0  0  0  0  0  0
  -23.5920   -1.1836  -14.4420 C   0  0  0  0  0  0  0  0  0  0  0  0
  -24.7110   -0.9832  -13.6259 C   0  0  0  0  0  0  0  0  0  0  0  0
  -25.8535   -1.7357  -13.8025 N   0  0  0  0  0  0  0  0  0  0  0  0
  -26.8127   -1.8458  -12.8184 C   0  0  0  0  0  0  0  0  0  0  0  0
  -27.8201   -2.5240  -12.9610 O   0  0  0  0  0  0  0  0  0  0  0  0
  -26.0099   -2.2938  -14.6321 H   0  0  0  0  0  0  0  0  0  0  0  0
  -29.9868   -4.8928   -4.7088 C   0  0  0  0  0  0  0  0  0  0  0  0
  -29.9776   -3.8320   -3.8034 C   0  0  0  0  0  0  0  0  0  0  0  0
  -31.0219   -3.7040   -2.9028 C   0  0  0  0  0  0  0  0  0  0  0  0
  -31.9965   -4.6182   -2.7604 N   0  0  0  0  0  0  0  0  0  0  0  0
  -31.9166   -5.7113   -3.5469 C   0  0  0  0  0  0  0  0  0  0  0  0
  -30.9547   -5.8858   -4.5303 C   0  0  0  0  0  0  0  0  0  0  0  0
  1  2  2  0  0  0
  2 26  1  0  0  0
  2  3  1  0  0  0
 26 27  1  0  0  0
 26 31  2  0  0  0
 27 28  2  0  0  0
 28 29  1  0  0  0
 29 30  2  0  0  0
 30 31  1  0  0  0
  3  4  1  0  0  0
  3 11  1  0  0  0
  4  5  1  0  0  0
  5  6  1  0  0  0
  6  7  1  0  0  0
  6 10  2  0  0  0
  7  8  2  0  0  0
  8 13  1  0  0  0
  8  9  1  0  0  0
 13 14  2  0  0  0
 13 23  1  0  0  0
 14 15  1  0  0  0
 15 16  1  0  0  0
 15 21  2  0  0  0
 16 17  1  0  0  0
 16 18  2  0  0  0
 18 19  1  0  0  0
 19 20  2  0  0  0
 20 21  1  0  0  0
 21 22  1  0  0  0
 22 23  1  0  0  0
 22 25  1  0  0  0
 23 24  2  0  0  0
  9 10  1  0  0  0
  9 12  1  0  0  0
 10 11  1  0  0  0
M  END
> <minimizedAffinity>
-9.39026

$$$$
