CHEMBL4280119


 26 29  0  0  0  0  0  0  0  0999 V2000
  -29.6910   -4.9932   -6.7120 C   0  0  0  0  0  0  0  0  0  0  0  0
  -28.9166   -5.1944   -7.7887 N   0  0  0  0  0  0  0  0  0  0  0  0
  -28.4629   -6.4525   -7.9721 C   0  0  0  0  0  0  0  0  0  0  0  0
  -28.7528   -7.5110   -7.1320 C   0  0  0  0  0  0  0  0  0  0  0  0
  -29.5450   -7.1878   -6.0390 C   0  0  0  0  0  0  0  0  0  0  0  0
  -30.0489   -5.9508   -5.8470 N   0  0  0  0  0  0  0  0  0  0  0  0
  -29.8035   -8.0801   -4.9882 N   0  0  0  0  0  0  0  0  0  0  0  0
  -28.7787   -8.7681   -4.4411 C   0  0  0  0  0  0  0  0  0  0  0  0
  -28.5033   -8.7991   -3.1356 N   0  0  0  0  0  0  0  0  0  0  0  0
  -27.3265   -9.4533   -3.0782 N   0  0  0  0  0  0  0  0  0  0  0  0
  -26.8434   -9.8437   -4.2981 C   0  0  0  0  0  0  0  0  0  0  0  0
  -25.5574  -10.5494   -4.4707 C   0  0  0  0  0  0  0  0  0  0  0  0
  -27.7958   -9.4353   -5.1949 C   0  0  0  0  0  0  0  0  0  0  0  0
  -27.7893   -9.7420   -6.5501 N   0  0  0  0  0  0  0  0  0  0  0  0
  -28.2401   -8.8886   -7.4206 C   0  0  0  0  0  0  0  0  0  0  0  0
  -30.3630   -7.5817   -4.3032 H   0  0  0  0  0  0  0  0  0  0  0  0
  -26.9022   -9.5924   -2.1677 H   0  0  0  0  0  0  0  0  0  0  0  0
  -28.2783   -9.3809   -8.8543 C   0  0  0  0  0  0  0  0  0  0  0  0
  -27.0767   -9.4150   -9.5894 C   0  0  0  0  0  0  0  0  0  0  0  0
  -27.0693   -9.7882  -10.9373 C   0  0  0  0  0  0  0  0  0  0  0  0
  -28.2611  -10.1016  -11.5817 C   0  0  0  0  0  0  0  0  0  0  0  0
  -29.4603  -10.0604  -10.8739 C   0  0  0  0  0  0  0  0  0  0  0  0
  -29.4776   -9.7133   -9.5147 C   0  0  0  0  0  0  0  0  0  0  0  0
  -31.0249   -9.7876   -8.7415 Cl  0  0  0  0  0  0  0  0  0  0  0  0
  -30.1440   -3.3466   -4.5720 C   0  0  0  0  0  0  0  0  0  0  0  0
  -30.2237   -3.3332   -6.3839 S   0  0  0  0  0  0  0  0  0  0  0  0
 25 26  1  0  0  0
 26  1  1  0  0  0
  1  2  1  0  0  0
  1  6  2  0  0  0
  2  3  2  0  0  0
  3  4  1  0  0  0
  4  5  2  0  0  0
  4 15  1  0  0  0
  5  6  1  0  0  0
  5  7  1  0  0  0
  7  8  1  0  0  0
  7 16  1  0  0  0
  8  9  2  0  0  0
  8 13  1  0  0  0
  9 10  1  0  0  0
 10 11  1  0  0  0
 10 17  1  0  0  0
 11 12  1  0  0  0
 11 13  2  0  0  0
 13 14  1  0  0  0
 14 15  2  0  0  0
 15 18  1  0  0  0
 18 19  1  0  0  0
 18 23  2  0  0  0
 19 20  2  0  0  0
 20 21  1  0  0  0
 21 22  2  0  0  0
 22 23  1  0  0  0
 23 24  1  0  0  0
M  END
> <minimizedAffinity>
-7.50690

$$$$
