CHEMBL3642830


 41 44  0  0  0  0  0  0  0  0999 V2000
  -27.8616   -8.3921   -8.6086 C   0  0  0  0  0  0  0  0  0  0  0  0
  -27.5810   -8.6884   -9.9374 C   0  0  0  0  0  0  0  0  0  0  0  0
  -27.5023  -10.0108  -10.3655 C   0  0  0  0  0  0  0  0  0  0  0  0
  -27.6614  -11.0736   -9.4641 C   0  0  0  0  0  0  0  0  0  0  0  0
  -27.6815  -12.4660  -10.0288 C   0  0  0  0  0  0  0  0  0  0  0  0
  -27.7873  -10.7948   -8.0885 C   0  0  0  0  0  0  0  0  0  0  0  0
  -27.9296   -9.4449   -7.6946 C   0  0  0  0  0  0  0  0  0  0  0  0
  -29.3180   -6.5895   -7.7454 C   0  0  0  0  0  0  0  0  0  0  0  0
  -30.3574   -7.2411   -7.6790 O   0  0  0  0  0  0  0  0  0  0  0  0
  -28.0816   -7.0772   -8.1416 N   0  0  0  0  0  0  0  0  0  0  0  0
  -27.2607   -6.5224   -7.9434 H   0  0  0  0  0  0  0  0  0  0  0  0
  -29.1941   -2.4701   -6.4955 C   0  0  0  0  0  0  0  0  0  0  0  0
  -29.8908   -3.4228   -5.7301 C   0  0  0  0  0  0  0  0  0  0  0  0
  -29.9812   -4.7649   -6.1199 C   0  0  0  0  0  0  0  0  0  0  0  0
  -29.3920   -5.1733   -7.3086 C   0  0  0  0  0  0  0  0  0  0  0  0
  -28.7293   -4.2232   -8.1018 C   0  0  0  0  0  0  0  0  0  0  0  0
  -28.6147   -2.8756   -7.7113 C   0  0  0  0  0  0  0  0  0  0  0  0
  -28.1282   -0.6501   -5.1560 C   0  0  0  0  0  0  0  0  0  0  0  0
  -27.2449   -1.2908   -4.6024 O   0  0  0  0  0  0  0  0  0  0  0  0
  -29.0582   -1.1292   -6.0591 N   0  0  0  0  0  0  0  0  0  0  0  0
  -29.6248   -0.4323   -6.5377 H   0  0  0  0  0  0  0  0  0  0  0  0
  -29.4109    1.4287   -5.2492 C   0  0  0  0  0  0  0  0  0  0  0  0
  -28.2662    0.8146   -4.9221 C   0  0  0  0  0  0  0  0  0  0  0  0
  -27.8045   -1.9794   -8.6128 C   0  0  0  0  0  0  0  0  0  0  0  0
  -28.5508   -1.2806   -9.5187 F   0  0  0  0  0  0  0  0  0  0  0  0
  -27.0959   -1.0436   -7.9232 F   0  0  0  0  0  0  0  0  0  0  0  0
  -26.8921   -2.6701   -9.3518 F   0  0  0  0  0  0  0  0  0  0  0  0
  -27.7703  -11.8231   -7.1247 N   0  0  0  0  0  0  0  0  0  0  0  0
  -27.5930  -12.7633   -7.4438 H   0  0  0  0  0  0  0  0  0  0  0  0
  -27.4334  -11.7362   -5.7689 C   0  0  0  0  0  0  0  0  0  0  0  0
  -28.4293  -11.8209   -4.8792 N   0  0  0  0  0  0  0  0  0  0  0  0
  -28.0827  -11.7932   -3.5773 C   0  0  0  0  0  0  0  0  0  0  0  0
  -26.7838  -11.7250   -3.1281 C   0  0  0  0  0  0  0  0  0  0  0  0
  -25.8134  -11.6564   -4.1018 C   0  0  0  0  0  0  0  0  0  0  0  0
  -26.1461  -11.6450   -5.4063 N   0  0  0  0  0  0  0  0  0  0  0  0
  -24.3641  -11.6110   -3.8393 C   0  0  0  0  0  0  0  0  0  0  0  0
  -23.8014  -11.7320   -2.5615 C   0  0  0  0  0  0  0  0  0  0  0  0
  -22.4173  -11.6684   -2.3860 C   0  0  0  0  0  0  0  0  0  0  0  0
  -21.6169  -11.4782   -3.4983 C   0  0  0  0  0  0  0  0  0  0  0  0
  -22.1021  -11.3507   -4.7472 N   0  0  0  0  0  0  0  0  0  0  0  0
  -23.4509  -11.4234   -4.8847 C   0  0  0  0  0  0  0  0  0  0  0  0
 22 23  2  0  0  0
 23 18  1  0  0  0
 18 19  2  0  0  0
 18 20  1  0  0  0
 20 12  1  0  0  0
 20 21  1  0  0  0
 12 13  1  0  0  0
 12 17  2  0  0  0
 13 14  2  0  0  0
 14 15  1  0  0  0
 15  8  1  0  0  0
 15 16  2  0  0  0
  8  9  2  0  0  0
  8 10  1  0  0  0
 10  1  1  0  0  0
 10 11  1  0  0  0
  1  2  1  0  0  0
  1  7  2  0  0  0
  2  3  2  0  0  0
  3  4  1  0  0  0
  4  5  1  0  0  0
  4  6  2  0  0  0
  6 28  1  0  0  0
  6  7  1  0  0  0
 28 30  1  0  0  0
 28 29  1  0  0  0
 30 31  1  0  0  0
 30 35  2  0  0  0
 31 32  2  0  0  0
 32 33  1  0  0  0
 33 34  2  0  0  0
 34 36  1  0  0  0
 34 35  1  0  0  0
 36 37  1  0  0  0
 36 41  2  0  0  0
 37 38  2  0  0  0
 38 39  1  0  0  0
 39 40  2  0  0  0
 40 41  1  0  0  0
 16 17  1  0  0  0
 17 24  1  0  0  0
 24 25  1  0  0  0
 24 26  1  0  0  0
 24 27  1  0  0  0
M  END
> <minimizedAffinity>
-9.03637

$$$$
