CHEMBL2063327


 44 48  0  0  0  0  0  0  0  0999 V2000
  -19.8832    2.2280  -14.7940 C   0  0  0  0  0  0  0  0  0  0  0  0
  -20.7059    1.3106  -14.0958 C   0  0  0  0  0  0  0  0  0  0  0  0
  -21.9686    1.8509  -14.0799 C   0  0  0  0  0  0  0  0  0  0  0  0
  -21.8464    3.0296  -14.7708 N   0  0  0  0  0  0  0  0  0  0  0  0
  -20.5952    3.2967  -15.1816 N   0  0  0  0  0  0  0  0  0  0  0  0
  -22.5644    3.7073  -14.9997 H   0  0  0  0  0  0  0  0  0  0  0  0
  -15.6828    1.7615  -15.5020 C   0  0  0  0  0  0  0  0  0  0  0  0
  -16.4627    0.6810  -15.0693 C   0  0  0  0  0  0  0  0  0  0  0  0
  -17.8333    0.8361  -14.8456 C   0  0  0  0  0  0  0  0  0  0  0  0
  -18.4572    2.0720  -15.0630 C   0  0  0  0  0  0  0  0  0  0  0  0
  -17.6853    3.1545  -15.4938 C   0  0  0  0  0  0  0  0  0  0  0  0
  -16.3089    3.0013  -15.7080 C   0  0  0  0  0  0  0  0  0  0  0  0
  -14.1920    1.5848  -15.6795 C   0  0  0  0  0  0  0  0  0  0  0  0
  -13.6755    1.4617  -12.9740 O   0  0  0  0  0  0  0  0  0  0  0  0
  -13.4383    0.4784  -13.6357 C   0  0  0  0  0  0  0  0  0  0  0  0
  -13.6463    0.4233  -15.0075 N   0  0  0  0  0  0  0  0  0  0  0  0
  -13.6223   -0.4575  -15.5004 H   0  0  0  0  0  0  0  0  0  0  0  0
  -12.9172   -0.6943  -13.1489 O   0  0  0  0  0  0  0  0  0  0  0  0
  -13.3022   -1.9335  -13.8113 C   0  0  0  0  0  0  0  0  0  0  0  0
  -14.4214   -2.6581  -13.0979 C   0  0  0  0  0  0  0  0  0  0  0  0
  -15.4219   -3.3273  -13.8214 C   0  0  0  0  0  0  0  0  0  0  0  0
  -16.4234   -4.0389  -13.1562 C   0  0  0  0  0  0  0  0  0  0  0  0
  -16.4315   -4.0982  -11.7644 C   0  0  0  0  0  0  0  0  0  0  0  0
  -15.4411   -3.4419  -11.0366 C   0  0  0  0  0  0  0  0  0  0  0  0
  -14.4449   -2.7221  -11.6990 C   0  0  0  0  0  0  0  0  0  0  0  0
  -23.1249    1.3342  -13.4957 N   0  0  0  0  0  0  0  0  0  0  0  0
  -23.4032   -0.0796  -13.4891 C   0  0  0  0  0  0  0  0  0  0  0  0
  -22.6353   -0.8836  -13.9983 O   0  0  0  0  0  0  0  0  0  0  0  0
  -23.7507    1.9683  -13.0178 H   0  0  0  0  0  0  0  0  0  0  0  0
  -24.6385   -0.5619  -12.8427 C   0  0  0  0  0  0  0  0  0  0  0  0
  -25.6090   -1.2929  -13.5286 C   0  0  0  0  0  0  0  0  0  0  0  0
  -26.6881   -1.8388  -12.8178 C   0  0  0  0  0  0  0  0  0  0  0  0
  -26.7971   -1.6493  -11.4352 C   0  0  0  0  0  0  0  0  0  0  0  0
  -25.8309   -0.9052  -10.7619 C   0  0  0  0  0  0  0  0  0  0  0  0
  -24.7538   -0.3641  -11.4590 C   0  0  0  0  0  0  0  0  0  0  0  0
  -27.8005   -2.1300  -10.6407 O   0  0  0  0  0  0  0  0  0  0  0  0
  -27.5799   -2.0415   -9.2337 C   0  0  0  0  0  0  0  0  0  0  0  0
  -28.4474   -3.0818   -8.5399 C   0  0  0  0  0  0  0  0  0  0  0  0
  -28.6680   -2.6999   -7.0720 C   0  0  0  0  0  0  0  0  0  0  0  0
  -27.7210   -1.6721   -6.6156 N   0  0  0  0  0  0  0  0  0  0  0  0
  -27.2084   -1.9384   -5.2615 C   0  0  0  0  0  0  0  0  0  0  0  0
  -28.2389   -1.3321   -4.3355 C   0  0  0  0  0  0  0  0  0  0  0  0
  -28.5773   -0.0388   -5.0450 C   0  0  0  0  0  0  0  0  0  0  0  0
  -28.3691   -0.3452   -6.5274 C   0  0  0  0  0  0  0  0  0  0  0  0
 14 15  2  0  0  0
 15 16  1  0  0  0
 15 18  1  0  0  0
 16 13  1  0  0  0
 16 17  1  0  0  0
 13  7  1  0  0  0
  7  8  1  0  0  0
  7 12  2  0  0  0
  8  9  2  0  0  0
  9 10  1  0  0  0
 10  1  1  0  0  0
 10 11  2  0  0  0
  1  2  1  0  0  0
  1  5  2  0  0  0
  2  3  2  0  0  0
  3 26  1  0  0  0
  3  4  1  0  0  0
 26 27  1  0  0  0
 26 29  1  0  0  0
 27 28  2  0  0  0
 27 30  1  0  0  0
 30 31  1  0  0  0
 30 35  2  0  0  0
 31 32  2  0  0  0
 32 33  1  0  0  0
 33 36  1  0  0  0
 33 34  2  0  0  0
 36 37  1  0  0  0
 37 38  1  0  0  0
 38 39  1  0  0  0
 39 40  1  0  0  0
 40 41  1  0  0  0
 40 44  1  0  0  0
 41 42  1  0  0  0
 42 43  1  0  0  0
 43 44  1  0  0  0
 34 35  1  0  0  0
  4  5  1  0  0  0
  4  6  1  0  0  0
 11 12  1  0  0  0
 18 19  1  0  0  0
 19 20  1  0  0  0
 20 21  1  0  0  0
 20 25  2  0  0  0
 21 22  2  0  0  0
 22 23  1  0  0  0
 23 24  2  0  0  0
 24 25  1  0  0  0
M  END
> <minimizedAffinity>
-10.48800

$$$$
