CHEMBL3945028


 33 37  0  0  0  0  0  0  0  0999 V2000
  -27.8033  -10.4653   -5.0601 C   0  0  0  0  0  0  0  0  0  0  0  0
  -28.9619   -9.7138   -5.1455 C   0  0  0  0  0  0  0  0  0  0  0  0
  -29.5812   -9.5039   -6.3931 C   0  0  0  0  0  0  0  0  0  0  0  0
  -30.6741   -8.6524   -6.6262 C   0  0  0  0  0  0  0  0  0  0  0  0
  -31.4347   -8.7639   -7.7249 N   0  0  0  0  0  0  0  0  0  0  0  0
  -31.0168   -9.6450   -8.6425 C   0  0  0  0  0  0  0  0  0  0  0  0
  -29.8580  -10.3209   -8.6185 N   0  0  0  0  0  0  0  0  0  0  0  0
  -29.1213  -10.2234   -7.5041 C   0  0  0  0  0  0  0  0  0  0  0  0
  -27.8612  -10.8392   -7.4173 C   0  0  0  0  0  0  0  0  0  0  0  0
  -27.1452  -10.8613   -6.2249 C   0  0  0  0  0  0  0  0  0  0  0  0
  -27.9072  -11.9768   -3.3300 C   0  0  0  0  0  0  0  0  0  0  0  0
  -27.3170  -10.7606   -3.8152 O   0  0  0  0  0  0  0  0  0  0  0  0
  -31.0641   -7.6283   -5.7432 N   0  0  0  0  0  0  0  0  0  0  0  0
  -32.0638   -7.7172   -5.5738 H   0  0  0  0  0  0  0  0  0  0  0  0
  -30.6007   -6.3051   -5.5846 C   0  0  0  0  0  0  0  0  0  0  0  0
  -30.7985   -5.5419   -4.4261 C   0  0  0  0  0  0  0  0  0  0  0  0
  -30.4662   -4.1820   -4.3932 C   0  0  0  0  0  0  0  0  0  0  0  0
  -29.9116   -3.5661   -5.5170 C   0  0  0  0  0  0  0  0  0  0  0  0
  -29.5877   -1.6970   -5.4294 Br  0  0  0  0  0  0  0  0  0  0  0  0
  -29.6424   -4.3292   -6.6546 C   0  0  0  0  0  0  0  0  0  0  0  0
  -28.9425   -3.6580   -8.0857 Cl  0  0  0  0  0  0  0  0  0  0  0  0
  -29.9729   -5.6905   -6.6773 C   0  0  0  0  0  0  0  0  0  0  0  0
  -25.8431  -11.2215   -6.0295 O   0  0  0  0  0  0  0  0  0  0  0  0
  -24.7656  -10.4570   -6.5700 C   0  0  0  0  0  0  0  0  0  0  0  0
  -23.8790  -11.4509   -7.3320 C   0  0  0  0  0  0  0  0  0  0  0  0
  -22.8517  -11.9034   -6.4359 O   0  0  0  0  0  0  0  0  0  0  0  0
  -22.6264  -10.8691   -5.4728 C   0  0  0  0  0  0  0  0  0  0  0  0
  -22.6600  -11.4038   -4.0563 C   0  0  0  0  0  0  0  0  0  0  0  0
  -21.4001  -11.1713   -3.4138 O   0  0  0  0  0  0  0  0  0  0  0  0
  -23.7616  -10.6100   -3.3678 C   0  0  0  0  0  0  0  0  0  0  0  0
  -24.2625   -9.6090   -4.2626 O   0  0  0  0  0  0  0  0  0  0  0  0
  -23.7629   -9.8716   -5.5715 C   0  0  0  0  0  0  0  0  0  0  0  0
  -21.4397  -11.5846   -2.5340 H   0  0  0  0  0  0  0  0  0  0  0  0
 11 12  1  0  0  0
 12  1  1  0  0  0
  1  2  1  0  0  0
  1 10  2  0  0  0
  2  3  2  0  0  0
  3  4  1  0  0  0
  3  8  1  0  0  0
  4 13  1  0  0  0
  4  5  2  0  0  0
 13 15  1  0  0  0
 13 14  1  0  0  0
 15 16  1  0  0  0
 15 22  2  0  0  0
 16 17  2  0  0  0
 17 18  1  0  0  0
 18 19  1  0  0  0
 18 20  2  0  0  0
 20 21  1  0  0  0
 20 22  1  0  0  0
  5  6  1  0  0  0
  6  7  2  0  0  0
  7  8  1  0  0  0
  8  9  2  0  0  0
  9 10  1  0  0  0
 10 23  1  0  0  0
 23 24  1  0  0  0
 24 25  1  0  0  0
 24 32  1  0  0  0
 25 26  1  0  0  0
 26 27  1  0  0  0
 27 28  1  0  0  0
 27 32  1  0  0  0
 28 29  1  0  0  0
 28 30  1  0  0  0
 29 33  1  0  0  0
 30 31  1  0  0  0
 31 32  1  0  0  0
M  END
> <minimizedAffinity>
-8.09246

$$$$
