CHEMBL3966129


 29 32  0  0  0  0  0  0  0  0999 V2000
  -16.0537    0.4906  -14.5455 C   0  0  0  0  0  0  0  0  0  0  0  0
  -15.8386   -0.6466  -13.9212 N   0  0  0  0  0  0  0  0  0  0  0  0
  -12.0462    3.2890  -18.1209 Cl  0  0  0  0  0  0  0  0  0  0  0  0
  -13.2011    2.5087  -17.1125 C   0  0  0  0  0  0  0  0  0  0  0  0
  -13.1621    2.7022  -15.7366 C   0  0  0  0  0  0  0  0  0  0  0  0
  -14.1118    2.0749  -14.9191 C   0  0  0  0  0  0  0  0  0  0  0  0
  -15.0808    1.2090  -15.4551 C   0  0  0  0  0  0  0  0  0  0  0  0
  -15.0952    1.0200  -16.8469 C   0  0  0  0  0  0  0  0  0  0  0  0
  -14.1725    1.6828  -17.6726 C   0  0  0  0  0  0  0  0  0  0  0  0
  -17.4269    1.0739  -14.3117 C   0  0  0  0  0  0  0  0  0  0  0  0
  -18.5518    0.7998  -14.9920 C   0  0  0  0  0  0  0  0  0  0  0  0
  -19.8607    1.4664  -14.8033 C   0  0  0  0  0  0  0  0  0  0  0  0
  -21.0147    0.7853  -14.3879 C   0  0  0  0  0  0  0  0  0  0  0  0
  -22.1966    1.4799  -14.0800 C   0  0  0  0  0  0  0  0  0  0  0  0
  -22.2362    2.8717  -14.1823 C   0  0  0  0  0  0  0  0  0  0  0  0
  -21.1070    3.5587  -14.6153 C   0  0  0  0  0  0  0  0  0  0  0  0
  -19.9329    2.8625  -14.9239 C   0  0  0  0  0  0  0  0  0  0  0  0
  -14.6878   -1.3277  -14.1920 N   0  0  0  0  0  0  0  0  0  0  0  0
  -14.7721   -1.9081  -15.0271 H   0  0  0  0  0  0  0  0  0  0  0  0
  -14.1387   -2.1892  -13.1776 C   0  0  0  0  0  0  0  0  0  0  0  0
  -12.9614   -1.9167  -12.5663 N   0  0  0  0  0  0  0  0  0  0  0  0
  -12.4692   -2.7429  -11.5829 N   0  0  0  0  0  0  0  0  0  0  0  0
  -13.1483   -3.8548  -11.2489 C   0  0  0  0  0  0  0  0  0  0  0  0
  -14.3352   -4.2284  -11.8643 C   0  0  0  0  0  0  0  0  0  0  0  0
  -15.0059   -5.4218  -11.5272 C   0  0  0  0  0  0  0  0  0  0  0  0
  -16.1959   -5.7752  -12.1610 C   0  0  0  0  0  0  0  0  0  0  0  0
  -16.7349   -4.9370  -13.1284 C   0  0  0  0  0  0  0  0  0  0  0  0
  -16.0748   -3.7557  -13.4740 C   0  0  0  0  0  0  0  0  0  0  0  0
  -14.8607   -3.3705  -12.8555 C   0  0  0  0  0  0  0  0  0  0  0  0
  3  4  1  0  0  0
  4  5  1  0  0  0
  4  9  2  0  0  0
  5  6  2  0  0  0
  6  7  1  0  0  0
  7  1  1  0  0  0
  7  8  2  0  0  0
  1 10  1  0  0  0
  1  2  2  0  0  0
 10 11  2  0  0  0
 11 12  1  0  0  0
 12 13  1  0  0  0
 12 17  2  0  0  0
 13 14  2  0  0  0
 14 15  1  0  0  0
 15 16  2  0  0  0
 16 17  1  0  0  0
  2 18  1  0  0  0
 18 20  1  0  0  0
 18 19  1  0  0  0
 20 21  1  0  0  0
 20 29  2  0  0  0
 21 22  2  0  0  0
 22 23  1  0  0  0
 23 24  2  0  0  0
 24 25  1  0  0  0
 24 29  1  0  0  0
 25 26  2  0  0  0
 26 27  1  0  0  0
 27 28  2  0  0  0
 28 29  1  0  0  0
  8  9  1  0  0  0
M  END
> <minimizedAffinity>
-9.04710

$$$$
