CHEMBL452283


 32 35  0  0  0  0  0  0  0  0999 V2000
  -20.3702    2.0778  -15.0942 C   0  0  0  0  0  0  0  0  0  0  0  0
  -20.4592    0.6803  -15.0923 C   0  0  0  0  0  0  0  0  0  0  0  0
  -21.5378    0.0339  -14.4765 C   0  0  0  0  0  0  0  0  0  0  0  0
  -22.5533    0.7797  -13.8707 C   0  0  0  0  0  0  0  0  0  0  0  0
  -22.4370    2.1769  -13.8311 C   0  0  0  0  0  0  0  0  0  0  0  0
  -21.3372    2.8230  -14.4176 C   0  0  0  0  0  0  0  0  0  0  0  0
  -23.7428    0.1095  -13.3233 C   0  0  0  0  0  0  0  0  0  0  0  0
  -23.9914    0.1151  -11.8415 C   0  0  0  0  0  0  0  0  0  0  0  0
  -24.9855   -0.4389  -11.2111 N   0  0  0  0  0  0  0  0  0  0  0  0
  -25.8904   -1.0896  -11.9962 C   0  0  0  0  0  0  0  0  0  0  0  0
  -27.0367   -1.7854  -11.6843 C   0  0  0  0  0  0  0  0  0  0  0  0
  -27.5325   -2.2436  -12.9118 C   0  0  0  0  0  0  0  0  0  0  0  0
  -26.7723   -1.8853  -13.9476 N   0  0  0  0  0  0  0  0  0  0  0  0
  -25.7648   -1.1453  -13.3881 N   0  0  0  0  0  0  0  0  0  0  0  0
  -24.6786   -0.5244  -14.0665 C   0  0  0  0  0  0  0  0  0  0  0  0
  -24.6586   -0.6379  -15.4571 N   0  0  0  0  0  0  0  0  0  0  0  0
  -25.2488   -1.4097  -15.7774 H   0  0  0  0  0  0  0  0  0  0  0  0
  -23.7292   -0.6242  -15.8663 H   0  0  0  0  0  0  0  0  0  0  0  0
  -17.1281    3.1994  -16.2998 N   0  0  0  0  0  0  0  0  0  0  0  0
  -18.0181    2.4692  -15.5255 C   0  0  0  0  0  0  0  0  0  0  0  0
  -17.7110    1.6116  -14.7041 O   0  0  0  0  0  0  0  0  0  0  0  0
  -19.3517    2.7456  -15.8316 N   0  0  0  0  0  0  0  0  0  0  0  0
  -17.5200    3.7685  -17.0306 H   0  0  0  0  0  0  0  0  0  0  0  0
  -19.5260    2.8488  -16.8201 H   0  0  0  0  0  0  0  0  0  0  0  0
  -12.8042    5.4054  -15.2548 C   0  0  0  0  0  0  0  0  0  0  0  0
  -13.5700    4.2106  -15.7488 C   0  0  0  0  0  0  0  0  0  0  0  0
  -12.8739    3.0809  -16.1866 C   0  0  0  0  0  0  0  0  0  0  0  0
  -13.5734    1.9603  -16.6137 C   0  0  0  0  0  0  0  0  0  0  0  0
  -14.9672    1.9633  -16.6226 C   0  0  0  0  0  0  0  0  0  0  0  0
  -15.5451    0.7942  -16.9216 F   0  0  0  0  0  0  0  0  0  0  0  0
  -15.7064    3.0953  -16.2472 C   0  0  0  0  0  0  0  0  0  0  0  0
  -14.9831    4.2117  -15.7812 C   0  0  0  0  0  0  0  0  0  0  0  0
 25 26  1  0  0  0
 26 27  1  0  0  0
 26 32  2  0  0  0
 27 28  2  0  0  0
 28 29  1  0  0  0
 29 30  1  0  0  0
 29 31  2  0  0  0
 31 19  1  0  0  0
 31 32  1  0  0  0
 19 20  1  0  0  0
 19 23  1  0  0  0
 20 21  2  0  0  0
 20 22  1  0  0  0
 22  1  1  0  0  0
 22 24  1  0  0  0
  1  2  1  0  0  0
  1  6  2  0  0  0
  2  3  2  0  0  0
  3  4  1  0  0  0
  4  7  1  0  0  0
  4  5  2  0  0  0
  7  8  1  0  0  0
  7 15  2  0  0  0
  8  9  2  0  0  0
  9 10  1  0  0  0
 10 11  2  0  0  0
 10 14  1  0  0  0
 11 12  1  0  0  0
 12 13  2  0  0  0
 13 14  1  0  0  0
 14 15  1  0  0  0
 15 16  1  0  0  0
 16 17  1  0  0  0
 16 18  1  0  0  0
  5  6  1  0  0  0
M  END
> <minimizedAffinity>
-9.44093

$$$$
