CHEMBL86755


 18 20  0  0  0  0  0  0  0  0999 V2000
  -23.8713    2.1027  -13.3378 O   0  0  0  0  0  0  0  0  0  0  0  0
  -22.7550    2.0383  -13.8135 C   0  0  0  0  0  0  0  0  0  0  0  0
  -21.9917    3.1190  -14.2198 N   0  0  0  0  0  0  0  0  0  0  0  0
  -20.7412    2.7208  -14.6716 C   0  0  0  0  0  0  0  0  0  0  0  0
  -19.7483    3.5495  -15.1507 C   0  0  0  0  0  0  0  0  0  0  0  0
  -18.5672    2.9466  -15.5803 C   0  0  0  0  0  0  0  0  0  0  0  0
  -18.4134    1.5484  -15.5232 C   0  0  0  0  0  0  0  0  0  0  0  0
  -19.4363    0.7267  -15.0269 C   0  0  0  0  0  0  0  0  0  0  0  0
  -20.6044    1.3302  -14.5926 C   0  0  0  0  0  0  0  0  0  0  0  0
  -21.8757    0.8292  -14.0482 C   0  0  0  0  0  0  0  0  0  0  0  0
  -22.2014   -0.4561  -13.8268 C   0  0  0  0  0  0  0  0  0  0  0  0
  -22.3363    4.0641  -14.1757 H   0  0  0  0  0  0  0  0  0  0  0  0
  -23.5068   -0.8373  -13.4365 C   0  0  0  0  0  0  0  0  0  0  0  0
  -24.6029   -1.2775  -14.1507 C   0  0  0  0  0  0  0  0  0  0  0  0
  -25.6827   -1.4036  -13.2438 C   0  0  0  0  0  0  0  0  0  0  0  0
  -25.2077   -1.0765  -11.9937 C   0  0  0  0  0  0  0  0  0  0  0  0
  -23.8802   -0.7486  -12.1171 N   0  0  0  0  0  0  0  0  0  0  0  0
  -23.2922   -0.4238  -11.3616 H   0  0  0  0  0  0  0  0  0  0  0  0
  1  2  2  0  0  0
  2  3  1  0  0  0
  2 10  1  0  0  0
  3  4  1  0  0  0
  3 12  1  0  0  0
  4  5  1  0  0  0
  4  9  2  0  0  0
  5  6  2  0  0  0
  6  7  1  0  0  0
  7  8  2  0  0  0
  8  9  1  0  0  0
  9 10  1  0  0  0
 10 11  2  0  0  0
 11 13  1  0  0  0
 13 14  2  0  0  0
 13 17  1  0  0  0
 14 15  1  0  0  0
 15 16  2  0  0  0
 16 17  1  0  0  0
 17 18  1  0  0  0
M  END
> <minimizedAffinity>
-8.51936

$$$$
