CHEMBL172292


 21 24  0  0  0  0  0  0  0  0999 V2000
  -30.2411   -6.3684   -6.8542 C   0  0  0  0  0  0  0  0  0  0  0  0
  -29.6941   -5.2056   -7.5504 C   0  0  0  0  0  0  0  0  0  0  0  0
  -29.5652   -4.0382   -6.8994 C   0  0  0  0  0  0  0  0  0  0  0  0
  -29.9333   -3.9500   -5.5536 N   0  0  0  0  0  0  0  0  0  0  0  0
  -29.8530   -2.8939   -4.6487 C   0  0  0  0  0  0  0  0  0  0  0  0
  -30.4415   -3.3990   -3.4981 C   0  0  0  0  0  0  0  0  0  0  0  0
  -30.8260   -4.7033   -3.6375 N   0  0  0  0  0  0  0  0  0  0  0  0
  -30.4973   -5.0275   -4.8676 C   0  0  0  0  0  0  0  0  0  0  0  0
  -30.6363   -6.2629   -5.5657 C   0  0  0  0  0  0  0  0  0  0  0  0
  -30.6987  -10.1002   -8.8806 C   0  0  0  0  0  0  0  0  0  0  0  0
  -31.7388   -9.5991   -8.0989 C   0  0  0  0  0  0  0  0  0  0  0  0
  -31.5865   -8.3860   -7.4236 C   0  0  0  0  0  0  0  0  0  0  0  0
  -30.3880   -7.6690   -7.5283 C   0  0  0  0  0  0  0  0  0  0  0  0
  -29.3471   -8.1786   -8.3123 C   0  0  0  0  0  0  0  0  0  0  0  0
  -29.5024   -9.3919   -8.9859 C   0  0  0  0  0  0  0  0  0  0  0  0
  -29.2785   -1.5644   -4.8806 C   0  0  0  0  0  0  0  0  0  0  0  0
  -30.0854   -0.5019   -5.3040 C   0  0  0  0  0  0  0  0  0  0  0  0
  -29.5367    0.7660   -5.4987 C   0  0  0  0  0  0  0  0  0  0  0  0
  -28.1831    0.9389   -5.2707 C   0  0  0  0  0  0  0  0  0  0  0  0
  -27.3687   -0.0476   -4.8463 N   0  0  0  0  0  0  0  0  0  0  0  0
  -27.9388   -1.2615   -4.6435 C   0  0  0  0  0  0  0  0  0  0  0  0
 10 11  1  0  0  0
 10 15  2  0  0  0
 11 12  2  0  0  0
 12 13  1  0  0  0
 13  1  1  0  0  0
 13 14  2  0  0  0
  1  2  1  0  0  0
  1  9  2  0  0  0
  2  3  2  0  0  0
  3  4  1  0  0  0
  4  5  1  0  0  0
  4  8  1  0  0  0
  5 16  1  0  0  0
  5  6  2  0  0  0
 16 17  1  0  0  0
 16 21  2  0  0  0
 17 18  2  0  0  0
 18 19  1  0  0  0
 19 20  2  0  0  0
 20 21  1  0  0  0
  6  7  1  0  0  0
  7  8  2  0  0  0
  8  9  1  0  0  0
 14 15  1  0  0  0
M  END
> <minimizedAffinity>
-8.42048

$$$$
