CHEMBL518203


 36 40  0  0  0  0  0  0  0  0999 V2000
  -13.6635   -1.0758  -14.0807 C   0  0  0  0  0  0  0  0  0  0  0  0
  -14.8335   -1.2242  -13.3280 C   0  0  0  0  0  0  0  0  0  0  0  0
  -15.9779   -0.4538  -13.5892 C   0  0  0  0  0  0  0  0  0  0  0  0
  -15.9381    0.4958  -14.6291 C   0  0  0  0  0  0  0  0  0  0  0  0
  -16.8430    1.4499  -15.2024 C   0  0  0  0  0  0  0  0  0  0  0  0
  -16.2542    2.1140  -16.1971 N   0  0  0  0  0  0  0  0  0  0  0  0
  -15.0080    1.6328  -16.2515 N   0  0  0  0  0  0  0  0  0  0  0  0
  -14.0619    2.2133  -17.1735 C   0  0  0  0  0  0  0  0  0  0  0  0
  -14.7486    0.6429  -15.3421 C   0  0  0  0  0  0  0  0  0  0  0  0
  -13.5890   -0.1092  -15.0853 C   0  0  0  0  0  0  0  0  0  0  0  0
  -18.1488    1.6725  -14.7799 N   0  0  0  0  0  0  0  0  0  0  0  0
  -19.2011    0.8108  -15.0343 C   0  0  0  0  0  0  0  0  0  0  0  0
  -19.1576   -0.2574  -15.6430 O   0  0  0  0  0  0  0  0  0  0  0  0
  -18.3231    2.5609  -14.3392 H   0  0  0  0  0  0  0  0  0  0  0  0
  -20.5465    1.2494  -14.5527 C   0  0  0  0  0  0  0  0  0  0  0  0
  -20.8086    2.6276  -14.5301 C   0  0  0  0  0  0  0  0  0  0  0  0
  -22.0521    3.1071  -14.1223 C   0  0  0  0  0  0  0  0  0  0  0  0
  -23.0525    2.2118  -13.7503 C   0  0  0  0  0  0  0  0  0  0  0  0
  -22.8202    0.8302  -13.7897 C   0  0  0  0  0  0  0  0  0  0  0  0
  -23.9219   -0.1315  -13.4497 C   0  0  0  0  0  0  0  0  0  0  0  0
  -21.5590    0.3513  -14.1895 C   0  0  0  0  0  0  0  0  0  0  0  0
  -12.6398   -1.9230  -13.7198 O   0  0  0  0  0  0  0  0  0  0  0  0
  -14.0216   -6.9100  -13.0590 C   0  0  0  0  0  0  0  0  0  0  0  0
  -13.0704   -6.7794  -14.0779 C   0  0  0  0  0  0  0  0  0  0  0  0
  -12.5775   -5.5541  -14.4832 C   0  0  0  0  0  0  0  0  0  0  0  0
  -11.7216   -5.5491  -15.5176 N   0  0  0  0  0  0  0  0  0  0  0  0
  -11.2385   -4.3680  -15.9447 C   0  0  0  0  0  0  0  0  0  0  0  0
  -11.5797   -3.1608  -15.3764 C   0  0  0  0  0  0  0  0  0  0  0  0
  -12.4727   -3.1632  -14.3043 C   0  0  0  0  0  0  0  0  0  0  0  0
  -12.9933   -4.3860  -13.8123 C   0  0  0  0  0  0  0  0  0  0  0  0
  -13.8771   -4.5320  -12.7154 C   0  0  0  0  0  0  0  0  0  0  0  0
  -14.3929   -5.7750  -12.3390 C   0  0  0  0  0  0  0  0  0  0  0  0
  -13.7621   -9.0272  -12.0586 C   0  0  0  0  0  0  0  0  0  0  0  0
  -14.6077   -8.1125  -12.7575 O   0  0  0  0  0  0  0  0  0  0  0  0
  -15.3088   -5.7031  -11.3265 O   0  0  0  0  0  0  0  0  0  0  0  0
  -16.6203   -5.2994  -11.6982 C   0  0  0  0  0  0  0  0  0  0  0  0
 33 34  1  0  0  0
 34 23  1  0  0  0
 23 24  1  0  0  0
 23 32  2  0  0  0
 24 25  2  0  0  0
 25 26  1  0  0  0
 25 30  1  0  0  0
 26 27  2  0  0  0
 27 28  1  0  0  0
 28 29  2  0  0  0
 29 22  1  0  0  0
 29 30  1  0  0  0
 22  1  1  0  0  0
  1  2  1  0  0  0
  1 10  2  0  0  0
  2  3  2  0  0  0
  3  4  1  0  0  0
  4  5  1  0  0  0
  4  9  2  0  0  0
  5 11  1  0  0  0
  5  6  2  0  0  0
 11 12  1  0  0  0
 11 14  1  0  0  0
 12 13  2  0  0  0
 12 15  1  0  0  0
 15 16  1  0  0  0
 15 21  2  0  0  0
 16 17  2  0  0  0
 17 18  1  0  0  0
 18 19  2  0  0  0
 19 20  1  0  0  0
 19 21  1  0  0  0
  6  7  1  0  0  0
  7  8  1  0  0  0
  7  9  1  0  0  0
  9 10  1  0  0  0
 30 31  2  0  0  0
 31 32  1  0  0  0
 32 35  1  0  0  0
 35 36  1  0  0  0
M  END
> <minimizedAffinity>
-8.87343

$$$$
