CHEMBL2031901


 37 41  0  0  0  0  0  0  0  0999 V2000
  -26.6888  -10.3244   -3.4828 C   0  0  0  0  0  0  0  0  0  0  0  0
  -27.8913  -10.3039   -4.1871 C   0  0  0  0  0  0  0  0  0  0  0  0
  -28.3129   -9.1263   -4.8263 C   0  0  0  0  0  0  0  0  0  0  0  0
  -27.5152   -7.9884   -4.7472 C   0  0  0  0  0  0  0  0  0  0  0  0
  -26.3284   -8.0193   -4.1155 N   0  0  0  0  0  0  0  0  0  0  0  0
  -25.9290   -9.1675   -3.5176 C   0  0  0  0  0  0  0  0  0  0  0  0
  -27.9494   -6.7983   -5.3657 N   0  0  0  0  0  0  0  0  0  0  0  0
  -28.3688   -5.6765   -4.6698 C   0  0  0  0  0  0  0  0  0  0  0  0
  -28.5680   -5.6203   -3.4596 O   0  0  0  0  0  0  0  0  0  0  0  0
  -27.9416   -6.7614   -6.3818 H   0  0  0  0  0  0  0  0  0  0  0  0
  -28.5682   -4.4608   -5.4948 C   0  0  0  0  0  0  0  0  0  0  0  0
  -28.8460   -4.3840   -6.8162 C   0  0  0  0  0  0  0  0  0  0  0  0
  -28.9232   -5.5069   -7.8059 C   0  0  0  0  0  0  0  0  0  0  0  0
  -29.0954   -3.0693   -7.2296 N   0  0  0  0  0  0  0  0  0  0  0  0
  -28.8768   -2.5691   -8.5862 C   0  0  0  0  0  0  0  0  0  0  0  0
  -28.6996   -2.2400   -6.1646 N   0  0  0  0  0  0  0  0  0  0  0  0
  -28.4935   -3.0449   -5.0361 C   0  0  0  0  0  0  0  0  0  0  0  0
  -28.3088   -2.7300   -3.8682 O   0  0  0  0  0  0  0  0  0  0  0  0
  -29.0425   -0.8765   -6.1023 C   0  0  0  0  0  0  0  0  0  0  0  0
  -28.1153    0.0724   -6.5491 C   0  0  0  0  0  0  0  0  0  0  0  0
  -28.4474    1.4288   -6.5679 C   0  0  0  0  0  0  0  0  0  0  0  0
  -29.6927    1.8471   -6.1014 C   0  0  0  0  0  0  0  0  0  0  0  0
  -30.6143    0.9093   -5.6355 C   0  0  0  0  0  0  0  0  0  0  0  0
  -30.2982   -0.4520   -5.6536 C   0  0  0  0  0  0  0  0  0  0  0  0
  -26.3815  -11.4782   -2.7978 O   0  0  0  0  0  0  0  0  0  0  0  0
  -21.9206  -12.1814   -5.3183 C   0  0  0  0  0  0  0  0  0  0  0  0
  -23.1571  -11.7330   -5.7570 C   0  0  0  0  0  0  0  0  0  0  0  0
  -24.1779  -11.5177   -4.8385 C   0  0  0  0  0  0  0  0  0  0  0  0
  -24.0167  -11.8292   -3.4713 C   0  0  0  0  0  0  0  0  0  0  0  0
  -25.0613  -11.7903   -2.5166 C   0  0  0  0  0  0  0  0  0  0  0  0
  -24.7795  -12.0156   -1.1718 C   0  0  0  0  0  0  0  0  0  0  0  0
  -23.4836  -12.3389   -0.8255 C   0  0  0  0  0  0  0  0  0  0  0  0
  -22.4806  -12.4654   -1.7193 N   0  0  0  0  0  0  0  0  0  0  0  0
  -22.7371  -12.2280   -3.0156 C   0  0  0  0  0  0  0  0  0  0  0  0
  -21.7211  -12.3909   -3.9492 C   0  0  0  0  0  0  0  0  0  0  0  0
  -20.7529  -11.6506   -7.3104 C   0  0  0  0  0  0  0  0  0  0  0  0
  -20.8458  -12.4377   -6.1259 O   0  0  0  0  0  0  0  0  0  0  0  0
 36 37  1  0  0  0
 37 26  1  0  0  0
 26 27  1  0  0  0
 26 35  2  0  0  0
 27 28  2  0  0  0
 28 29  1  0  0  0
 29 30  1  0  0  0
 29 34  2  0  0  0
 30 25  1  0  0  0
 30 31  2  0  0  0
 25  1  1  0  0  0
  1  2  1  0  0  0
  1  6  2  0  0  0
  2  3  2  0  0  0
  3  4  1  0  0  0
  4  7  1  0  0  0
  4  5  2  0  0  0
  7  8  1  0  0  0
  7 10  1  0  0  0
  8  9  2  0  0  0
  8 11  1  0  0  0
 11 12  2  0  0  0
 11 17  1  0  0  0
 12 13  1  0  0  0
 12 14  1  0  0  0
 14 15  1  0  0  0
 14 16  1  0  0  0
 16 19  1  0  0  0
 16 17  1  0  0  0
 19 20  1  0  0  0
 19 24  2  0  0  0
 20 21  2  0  0  0
 21 22  1  0  0  0
 22 23  2  0  0  0
 23 24  1  0  0  0
 17 18  2  0  0  0
  5  6  1  0  0  0
 31 32  1  0  0  0
 32 33  2  0  0  0
 33 34  1  0  0  0
 34 35  1  0  0  0
M  END
> <minimizedAffinity>
-7.78243

$$$$
