CHEMBL1242667


 33 36  0  0  0  0  0  0  0  0999 V2000
  -30.0899   -7.3579   -7.2561 C   0  0  0  0  0  0  0  0  0  0  0  0
  -29.2501   -6.3461   -7.6999 C   0  0  0  0  0  0  0  0  0  0  0  0
  -29.0393   -5.2277   -6.8835 C   0  0  0  0  0  0  0  0  0  0  0  0
  -29.7958   -4.9829   -5.7086 C   0  0  0  0  0  0  0  0  0  0  0  0
  -29.6255   -3.8876   -4.8022 C   0  0  0  0  0  0  0  0  0  0  0  0
  -30.4482   -3.7615   -3.6688 C   0  0  0  0  0  0  0  0  0  0  0  0
  -31.4422   -4.6983   -3.4078 C   0  0  0  0  0  0  0  0  0  0  0  0
  -31.6017   -5.7872   -4.2576 C   0  0  0  0  0  0  0  0  0  0  0  0
  -30.7858   -5.9546   -5.3865 C   0  0  0  0  0  0  0  0  0  0  0  0
  -30.9119   -7.1254   -6.1546 C   0  0  0  0  0  0  0  0  0  0  0  0
  -28.5512   -2.8538   -4.9058 C   0  0  0  0  0  0  0  0  0  0  0  0
  -27.4144   -3.0958   -4.4976 O   0  0  0  0  0  0  0  0  0  0  0  0
  -28.8823   -1.6291   -5.4276 N   0  0  0  0  0  0  0  0  0  0  0  0
  -29.8646   -1.3851   -5.4985 H   0  0  0  0  0  0  0  0  0  0  0  0
  -27.8946   -0.5721   -5.6241 C   0  0  0  0  0  0  0  0  0  0  0  0
  -28.4008    0.8623   -5.4321 C   0  0  0  0  0  0  0  0  0  0  0  0
  -29.7448    0.8486   -5.2168 F   0  0  0  0  0  0  0  0  0  0  0  0
  -27.8489    1.3722   -4.2953 F   0  0  0  0  0  0  0  0  0  0  0  0
  -30.1134   -8.6300   -7.7800 O   0  0  0  0  0  0  0  0  0  0  0  0
  -25.5313  -10.2582   -5.8688 C   0  0  0  0  0  0  0  0  0  0  0  0
  -25.6127  -10.5228   -7.2477 C   0  0  0  0  0  0  0  0  0  0  0  0
  -26.7394  -10.2240   -8.0053 C   0  0  0  0  0  0  0  0  0  0  0  0
  -26.6515  -10.3530   -9.3393 N   0  0  0  0  0  0  0  0  0  0  0  0
  -27.6985   -9.9546  -10.0873 C   0  0  0  0  0  0  0  0  0  0  0  0
  -28.8466   -9.4009   -9.5635 C   0  0  0  0  0  0  0  0  0  0  0  0
  -28.9448   -9.2654   -8.1802 C   0  0  0  0  0  0  0  0  0  0  0  0
  -27.8891   -9.7496   -7.3551 C   0  0  0  0  0  0  0  0  0  0  0  0
  -27.8724   -9.7609   -5.9414 C   0  0  0  0  0  0  0  0  0  0  0  0
  -26.6943   -9.8907   -5.1998 C   0  0  0  0  0  0  0  0  0  0  0  0
  -23.1918   -9.8703   -5.8277 C   0  0  0  0  0  0  0  0  0  0  0  0
  -24.3572  -10.3780   -5.1746 O   0  0  0  0  0  0  0  0  0  0  0  0
  -26.9046   -9.5736   -3.8901 O   0  0  0  0  0  0  0  0  0  0  0  0
  -28.1285   -8.9942   -3.4745 C   0  0  0  0  0  0  0  0  0  0  0  0
 30 31  1  0  0  0
 31 20  1  0  0  0
 20 21  1  0  0  0
 20 29  2  0  0  0
 21 22  2  0  0  0
 22 23  1  0  0  0
 22 27  1  0  0  0
 23 24  2  0  0  0
 24 25  1  0  0  0
 25 26  2  0  0  0
 26 19  1  0  0  0
 26 27  1  0  0  0
 19  1  1  0  0  0
  1  2  1  0  0  0
  1 10  2  0  0  0
  2  3  2  0  0  0
  3  4  1  0  0  0
  4  5  1  0  0  0
  4  9  2  0  0  0
  5 11  1  0  0  0
  5  6  2  0  0  0
 11 12  2  0  0  0
 11 13  1  0  0  0
 13 15  1  0  0  0
 13 14  1  0  0  0
 15 16  1  0  0  0
 16 17  1  0  0  0
 16 18  1  0  0  0
  6  7  1  0  0  0
  7  8  2  0  0  0
  8  9  1  0  0  0
  9 10  1  0  0  0
 27 28  2  0  0  0
 28 29  1  0  0  0
 29 32  1  0  0  0
 32 33  1  0  0  0
M  END
> <minimizedAffinity>
-8.83915

$$$$
