CHEMBL400749


 33 37  0  0  0  0  0  0  0  0999 V2000
  -29.3330   -5.1391   -7.0523 C   0  0  0  0  0  0  0  0  0  0  0  0
  -29.6039   -4.5928   -5.7881 C   0  0  0  0  0  0  0  0  0  0  0  0
  -29.2824   -3.3443   -5.3425 N   0  0  0  0  0  0  0  0  0  0  0  0
  -28.6561   -2.6110   -6.2799 C   0  0  0  0  0  0  0  0  0  0  0  0
  -28.1929   -1.3315   -6.1571 N   0  0  0  0  0  0  0  0  0  0  0  0
  -27.5503   -0.8689   -7.2607 N   0  0  0  0  0  0  0  0  0  0  0  0
  -27.7198   -1.8693   -8.1424 C   0  0  0  0  0  0  0  0  0  0  0  0
  -28.3470   -2.9948   -7.5674 C   0  0  0  0  0  0  0  0  0  0  0  0
  -28.6769   -4.2965   -7.9612 C   0  0  0  0  0  0  0  0  0  0  0  0
  -28.2789   -0.7338   -5.3444 H   0  0  0  0  0  0  0  0  0  0  0  0
  -27.2978   -1.7787   -9.5680 C   0  0  0  0  0  0  0  0  0  0  0  0
  -26.0548   -1.6000   -9.9731 N   0  0  0  0  0  0  0  0  0  0  0  0
  -26.0995   -1.6717  -11.3452 C   0  0  0  0  0  0  0  0  0  0  0  0
  -25.0437   -1.6419  -12.2779 C   0  0  0  0  0  0  0  0  0  0  0  0
  -25.3963   -1.7168  -13.6423 C   0  0  0  0  0  0  0  0  0  0  0  0
  -26.7288   -1.8197  -14.0545 C   0  0  0  0  0  0  0  0  0  0  0  0
  -27.7729   -1.8775  -13.1277 C   0  0  0  0  0  0  0  0  0  0  0  0
  -27.4135   -1.8176  -11.7828 C   0  0  0  0  0  0  0  0  0  0  0  0
  -28.1494   -1.9091  -10.6290 N   0  0  0  0  0  0  0  0  0  0  0  0
  -29.1468   -2.0390  -10.5460 H   0  0  0  0  0  0  0  0  0  0  0  0
  -23.5968   -1.6205  -11.8657 C   0  0  0  0  0  0  0  0  0  0  0  0
  -22.7699   -1.2669  -12.9752 O   0  0  0  0  0  0  0  0  0  0  0  0
  -22.4114    0.1080  -12.9302 C   0  0  0  0  0  0  0  0  0  0  0  0
  -31.3237   -8.3344   -7.5537 C   0  0  0  0  0  0  0  0  0  0  0  0
  -30.3769   -9.0607   -8.2624 C   0  0  0  0  0  0  0  0  0  0  0  0
  -29.1427   -8.6034   -8.5717 N   0  0  0  0  0  0  0  0  0  0  0  0
  -28.8369   -7.3494   -8.1577 C   0  0  0  0  0  0  0  0  0  0  0  0
  -29.6925   -6.5134   -7.4423 C   0  0  0  0  0  0  0  0  0  0  0  0
  -30.9575   -7.0487   -7.1426 C   0  0  0  0  0  0  0  0  0  0  0  0
  -32.6891   -8.8902   -7.2528 C   0  0  0  0  0  0  0  0  0  0  0  0
  -33.2039  -11.1216   -6.5085 C   0  0  0  0  0  0  0  0  0  0  0  0
  -32.7868  -10.2978   -7.6330 N   0  0  0  0  0  0  0  0  0  0  0  0
  -33.4632  -10.4011   -8.3874 H   0  0  0  0  0  0  0  0  0  0  0  0
 31 32  1  0  0  0
 32 30  1  0  0  0
 32 33  1  0  0  0
 30 24  1  0  0  0
 24 25  1  0  0  0
 24 29  2  0  0  0
 25 26  2  0  0  0
 26 27  1  0  0  0
 27 28  2  0  0  0
 28  1  1  0  0  0
 28 29  1  0  0  0
  1  2  1  0  0  0
  1  9  2  0  0  0
  2  3  2  0  0  0
  3  4  1  0  0  0
  4  5  1  0  0  0
  4  8  2  0  0  0
  5  6  1  0  0  0
  5 10  1  0  0  0
  6  7  2  0  0  0
  7 11  1  0  0  0
  7  8  1  0  0  0
 11 12  2  0  0  0
 11 19  1  0  0  0
 12 13  1  0  0  0
 13 14  1  0  0  0
 13 18  2  0  0  0
 14 21  1  0  0  0
 14 15  2  0  0  0
 21 22  1  0  0  0
 22 23  1  0  0  0
 15 16  1  0  0  0
 16 17  2  0  0  0
 17 18  1  0  0  0
 18 19  1  0  0  0
 19 20  1  0  0  0
  8  9  1  0  0  0
M  END
> <minimizedAffinity>
-10.45266

$$$$
