CHEMBL3924544


 30 34  0  0  0  0  0  0  0  0999 V2000
  -29.1836   -3.7884   -5.9775 C   0  0  0  0  0  0  0  0  0  0  0  0
  -29.9647   -4.6991   -6.7222 C   0  0  0  0  0  0  0  0  0  0  0  0
  -30.0713   -6.0677   -6.3607 C   0  0  0  0  0  0  0  0  0  0  0  0
  -29.5039   -6.4776   -5.1371 C   0  0  0  0  0  0  0  0  0  0  0  0
  -29.4038   -7.6174   -4.2935 C   0  0  0  0  0  0  0  0  0  0  0  0
  -29.6243   -7.2279   -3.0283 N   0  0  0  0  0  0  0  0  0  0  0  0
  -29.0714   -6.0031   -3.0466 N   0  0  0  0  0  0  0  0  0  0  0  0
  -29.0054   -5.4741   -4.3110 C   0  0  0  0  0  0  0  0  0  0  0  0
  -28.6697   -4.2078   -4.7438 C   0  0  0  0  0  0  0  0  0  0  0  0
  -28.9159   -5.5303   -2.1709 H   0  0  0  0  0  0  0  0  0  0  0  0
  -27.5596   -2.8768   -8.3864 C   0  0  0  0  0  0  0  0  0  0  0  0
  -28.2363   -1.9137   -7.4328 C   0  0  0  0  0  0  0  0  0  0  0  0
  -27.9815   -0.5393   -7.6070 C   0  0  0  0  0  0  0  0  0  0  0  0
  -28.5610    0.3890   -6.7524 C   0  0  0  0  0  0  0  0  0  0  0  0
  -28.2666    1.7211   -6.9164 O   0  0  0  0  0  0  0  0  0  0  0  0
  -29.3746   -0.0303   -5.6927 C   0  0  0  0  0  0  0  0  0  0  0  0
  -30.0866    1.0988   -4.5962 Cl  0  0  0  0  0  0  0  0  0  0  0  0
  -29.6168   -1.3986   -5.5039 C   0  0  0  0  0  0  0  0  0  0  0  0
  -29.0280   -2.3602   -6.3414 C   0  0  0  0  0  0  0  0  0  0  0  0
  -27.6366    1.8238   -7.6434 H   0  0  0  0  0  0  0  0  0  0  0  0
  -28.6169   -8.8985   -4.3716 C   0  0  0  0  0  0  0  0  0  0  0  0
  -28.4663   -9.7212   -5.4006 N   0  0  0  0  0  0  0  0  0  0  0  0
  -27.4154  -10.5607   -5.0448 C   0  0  0  0  0  0  0  0  0  0  0  0
  -26.7760  -11.6078   -5.7338 C   0  0  0  0  0  0  0  0  0  0  0  0
  -25.8674  -12.4193   -5.0273 C   0  0  0  0  0  0  0  0  0  0  0  0
  -25.5729  -12.1735   -3.6833 C   0  0  0  0  0  0  0  0  0  0  0  0
  -26.0875  -11.0546   -3.0301 C   0  0  0  0  0  0  0  0  0  0  0  0
  -26.9865  -10.2763   -3.7540 C   0  0  0  0  0  0  0  0  0  0  0  0
  -27.6267   -9.1148   -3.4502 N   0  0  0  0  0  0  0  0  0  0  0  0
  -27.4272   -8.4847   -2.6865 H   0  0  0  0  0  0  0  0  0  0  0  0
 11 12  1  0  0  0
 12 13  1  0  0  0
 12 19  2  0  0  0
 13 14  2  0  0  0
 14 15  1  0  0  0
 14 16  1  0  0  0
 15 20  1  0  0  0
 16 17  1  0  0  0
 16 18  2  0  0  0
 18 19  1  0  0  0
 19  1  1  0  0  0
  1  2  1  0  0  0
  1  9  2  0  0  0
  2  3  2  0  0  0
  3  4  1  0  0  0
  4  5  1  0  0  0
  4  8  2  0  0  0
  5 21  1  0  0  0
  5  6  2  0  0  0
 21 22  2  0  0  0
 21 29  1  0  0  0
 22 23  1  0  0  0
 23 24  1  0  0  0
 23 28  2  0  0  0
 24 25  2  0  0  0
 25 26  1  0  0  0
 26 27  2  0  0  0
 27 28  1  0  0  0
 28 29  1  0  0  0
 29 30  1  0  0  0
  6  7  1  0  0  0
  7  8  1  0  0  0
  7 10  1  0  0  0
  8  9  1  0  0  0
M  END
> <minimizedAffinity>
-9.33269

$$$$
