CHEMBL2409783


 35 39  0  0  0  0  0  0  0  0999 V2000
  -27.8608   -8.0183   -4.8122 C   0  0  0  0  0  0  0  0  0  0  0  0
  -29.0756   -8.6371   -4.5291 C   0  0  0  0  0  0  0  0  0  0  0  0
  -30.1872   -7.8954   -4.1581 C   0  0  0  0  0  0  0  0  0  0  0  0
  -30.1094   -6.5058   -3.9981 C   0  0  0  0  0  0  0  0  0  0  0  0
  -31.4018   -5.8042   -3.6826 C   0  0  0  0  0  0  0  0  0  0  0  0
  -28.8510   -5.8864   -4.1319 C   0  0  0  0  0  0  0  0  0  0  0  0
  -27.7465   -6.6470   -4.5839 C   0  0  0  0  0  0  0  0  0  0  0  0
  -25.8372   -9.4189   -4.5462 C   0  0  0  0  0  0  0  0  0  0  0  0
  -25.9649   -9.4905   -3.3327 O   0  0  0  0  0  0  0  0  0  0  0  0
  -26.7567   -8.7330   -5.3465 N   0  0  0  0  0  0  0  0  0  0  0  0
  -26.7415   -8.9042   -6.3391 H   0  0  0  0  0  0  0  0  0  0  0  0
  -21.5507  -10.8435   -6.8983 C   0  0  0  0  0  0  0  0  0  0  0  0
  -22.8838  -10.7505   -6.2577 C   0  0  0  0  0  0  0  0  0  0  0  0
  -23.5089   -9.6378   -5.6484 C   0  0  0  0  0  0  0  0  0  0  0  0
  -24.7486  -10.0851   -5.2205 C   0  0  0  0  0  0  0  0  0  0  0  0
  -24.7772  -11.4239   -5.5771 N   0  0  0  0  0  0  0  0  0  0  0  0
  -25.7947  -12.4251   -5.3711 C   0  0  0  0  0  0  0  0  0  0  0  0
  -23.6610  -11.8298   -6.2138 N   0  0  0  0  0  0  0  0  0  0  0  0
  -28.7148   -4.5244   -3.8727 O   0  0  0  0  0  0  0  0  0  0  0  0
  -28.3416   -3.6791   -4.9194 C   0  0  0  0  0  0  0  0  0  0  0  0
  -27.9879   -2.3040   -4.5667 C   0  0  0  0  0  0  0  0  0  0  0  0
  -27.7273   -1.3721   -5.5145 C   0  0  0  0  0  0  0  0  0  0  0  0
  -27.7628   -1.7357   -6.8953 C   0  0  0  0  0  0  0  0  0  0  0  0
  -27.5640   -1.0673   -8.0142 N   0  0  0  0  0  0  0  0  0  0  0  0
  -27.7969   -2.0077   -8.9841 C   0  0  0  0  0  0  0  0  0  0  0  0
  -28.0943   -3.2190   -8.5263 N   0  0  0  0  0  0  0  0  0  0  0  0
  -28.0547   -3.0636   -7.1922 N   0  0  0  0  0  0  0  0  0  0  0  0
  -28.3030   -4.0256   -6.2257 C   0  0  0  0  0  0  0  0  0  0  0  0
  -27.6959   -1.6484  -10.3030 N   0  0  0  0  0  0  0  0  0  0  0  0
  -26.4999   -1.4340  -10.9465 C   0  0  0  0  0  0  0  0  0  0  0  0
  -25.3729   -1.5598  -10.4887 O   0  0  0  0  0  0  0  0  0  0  0  0
  -28.5683   -1.6320  -10.8046 H   0  0  0  0  0  0  0  0  0  0  0  0
  -26.6593   -1.0903  -12.3976 C   0  0  0  0  0  0  0  0  0  0  0  0
  -27.4402   -2.0415  -13.2783 C   0  0  0  0  0  0  0  0  0  0  0  0
  -25.9605   -1.8972  -13.4734 C   0  0  0  0  0  0  0  0  0  0  0  0
 12 13  1  0  0  0
 13 14  1  0  0  0
 13 18  2  0  0  0
 14 15  2  0  0  0
 15  8  1  0  0  0
 15 16  1  0  0  0
  8  9  2  0  0  0
  8 10  1  0  0  0
 10  1  1  0  0  0
 10 11  1  0  0  0
  1  2  1  0  0  0
  1  7  2  0  0  0
  2  3  2  0  0  0
  3  4  1  0  0  0
  4  5  1  0  0  0
  4  6  2  0  0  0
  6 19  1  0  0  0
  6  7  1  0  0  0
 19 20  1  0  0  0
 20 21  1  0  0  0
 20 28  2  0  0  0
 21 22  2  0  0  0
 22 23  1  0  0  0
 23 24  2  0  0  0
 23 27  1  0  0  0
 24 25  1  0  0  0
 25 29  1  0  0  0
 25 26  2  0  0  0
 29 30  1  0  0  0
 29 32  1  0  0  0
 30 31  2  0  0  0
 30 33  1  0  0  0
 33 34  1  0  0  0
 33 35  1  0  0  0
 34 35  1  0  0  0
 26 27  1  0  0  0
 27 28  1  0  0  0
 16 17  1  0  0  0
 16 18  1  0  0  0
M  END
> <minimizedAffinity>
-9.32653

$$$$
