CHEMBL88606


 23 26  0  0  0  0  0  0  0  0999 V2000
  -23.1180    2.7631  -13.9449 O   0  0  0  0  0  0  0  0  0  0  0  0
  -21.9381    2.6335  -14.2096 C   0  0  0  0  0  0  0  0  0  0  0  0
  -21.0648    3.6504  -14.5648 N   0  0  0  0  0  0  0  0  0  0  0  0
  -19.8125    3.1514  -14.9013 C   0  0  0  0  0  0  0  0  0  0  0  0
  -18.7178    3.8725  -15.3297 C   0  0  0  0  0  0  0  0  0  0  0  0
  -17.5549    3.1565  -15.6293 C   0  0  0  0  0  0  0  0  0  0  0  0
  -17.5227    1.7573  -15.4938 C   0  0  0  0  0  0  0  0  0  0  0  0
  -15.9333    0.8180  -15.9093 Br  0  0  0  0  0  0  0  0  0  0  0  0
  -18.6398    1.0444  -15.0569 C   0  0  0  0  0  0  0  0  0  0  0  0
  -19.7863    1.7603  -14.7625 C   0  0  0  0  0  0  0  0  0  0  0  0
  -21.1211    1.3655  -14.2884 C   0  0  0  0  0  0  0  0  0  0  0  0
  -21.4330    0.1011  -13.9614 C   0  0  0  0  0  0  0  0  0  0  0  0
  -21.3453    4.6183  -14.5997 H   0  0  0  0  0  0  0  0  0  0  0  0
  -22.6461   -0.3764  -13.4115 C   0  0  0  0  0  0  0  0  0  0  0  0
  -23.0214   -0.5721  -12.0926 C   0  0  0  0  0  0  0  0  0  0  0  0
  -24.3480   -1.0578  -12.0876 C   0  0  0  0  0  0  0  0  0  0  0  0
  -24.7259   -1.2001  -13.4046 C   0  0  0  0  0  0  0  0  0  0  0  0
  -23.7000   -0.7755  -14.2007 N   0  0  0  0  0  0  0  0  0  0  0  0
  -26.0341   -1.7023  -13.8937 C   0  0  0  0  0  0  0  0  0  0  0  0
  -27.0702   -1.5832  -12.7624 C   0  0  0  0  0  0  0  0  0  0  0  0
  -26.5193   -2.1052  -11.4193 C   0  0  0  0  0  0  0  0  0  0  0  0
  -25.2692   -1.3342  -10.9512 C   0  0  0  0  0  0  0  0  0  0  0  0
  -23.7437   -0.6882  -15.2111 H   0  0  0  0  0  0  0  0  0  0  0  0
  1  2  2  0  0  0
  2  3  1  0  0  0
  2 11  1  0  0  0
  3  4  1  0  0  0
  3 13  1  0  0  0
  4  5  1  0  0  0
  4 10  2  0  0  0
  5  6  2  0  0  0
  6  7  1  0  0  0
  7  8  1  0  0  0
  7  9  2  0  0  0
  9 10  1  0  0  0
 10 11  1  0  0  0
 11 12  2  0  0  0
 12 14  1  0  0  0
 14 15  2  0  0  0
 14 18  1  0  0  0
 15 16  1  0  0  0
 16 17  2  0  0  0
 16 22  1  0  0  0
 17 18  1  0  0  0
 17 19  1  0  0  0
 18 23  1  0  0  0
 19 20  1  0  0  0
 20 21  1  0  0  0
 21 22  1  0  0  0
M  END
> <minimizedAffinity>
-9.90141

$$$$
