CHEMBL2016901


 30 34  0  0  0  0  0  0  0  0999 V2000
  -14.1732   -6.6777  -10.2576 O   0  0  0  0  0  0  0  0  0  0  0  0
  -13.6977   -6.6824  -11.4069 C   0  0  0  0  0  0  0  0  0  0  0  0
  -13.8959   -5.6046  -12.2958 N   0  0  0  0  0  0  0  0  0  0  0  0
  -13.2469   -5.5804  -13.6148 C   0  0  0  0  0  0  0  0  0  0  0  0
  -13.4960   -4.4569  -14.6089 C   0  0  0  0  0  0  0  0  0  0  0  0
  -14.0993   -3.3062  -13.9574 C   0  0  0  0  0  0  0  0  0  0  0  0
  -14.4023   -2.1585  -14.6095 N   0  0  0  0  0  0  0  0  0  0  0  0
  -14.8864   -1.3468  -13.6869 C   0  0  0  0  0  0  0  0  0  0  0  0
  -14.9132   -1.9780  -12.4542 N   0  0  0  0  0  0  0  0  0  0  0  0
  -14.4526   -3.2595  -12.6371 C   0  0  0  0  0  0  0  0  0  0  0  0
  -14.3187   -4.3253  -11.6420 C   0  0  0  0  0  0  0  0  0  0  0  0
  -15.2055   -1.5358  -11.5886 H   0  0  0  0  0  0  0  0  0  0  0  0
  -15.2740    0.0169  -13.8550 C   0  0  0  0  0  0  0  0  0  0  0  0
  -16.5528    0.3289  -13.6667 C   0  0  0  0  0  0  0  0  0  0  0  0
  -17.1051    1.5525  -14.2544 C   0  0  0  0  0  0  0  0  0  0  0  0
  -18.4684    1.8003  -14.2189 C   0  0  0  0  0  0  0  0  0  0  0  0
  -19.0689    2.3376  -15.3453 C   0  0  0  0  0  0  0  0  0  0  0  0
  -18.2787    3.0372  -16.2517 C   0  0  0  0  0  0  0  0  0  0  0  0
  -16.8982    3.1333  -16.0524 C   0  0  0  0  0  0  0  0  0  0  0  0
  -16.3088    2.2883  -15.1259 C   0  0  0  0  0  0  0  0  0  0  0  0
  -14.9249    2.0989  -15.0857 N   0  0  0  0  0  0  0  0  0  0  0  0
  -14.3413    1.0326  -14.4446 C   0  0  0  0  0  0  0  0  0  0  0  0
  -13.1195    0.8841  -14.4095 O   0  0  0  0  0  0  0  0  0  0  0  0
  -14.3034    2.7154  -15.5973 H   0  0  0  0  0  0  0  0  0  0  0  0
  -12.7702   -7.8335  -11.7410 C   0  0  0  0  0  0  0  0  0  0  0  0
  -11.4167   -7.9133  -11.3945 C   0  0  0  0  0  0  0  0  0  0  0  0
  -10.7485   -9.1210  -11.5260 C   0  0  0  0  0  0  0  0  0  0  0  0
  -11.2894  -10.2129  -12.0929 N   0  0  0  0  0  0  0  0  0  0  0  0
  -12.5508  -10.0834  -12.5529 C   0  0  0  0  0  0  0  0  0  0  0  0
  -13.3218   -8.9424  -12.3941 C   0  0  0  0  0  0  0  0  0  0  0  0
  1  2  2  0  0  0
  2 25  1  0  0  0
  2  3  1  0  0  0
 25 26  1  0  0  0
 25 30  2  0  0  0
 26 27  2  0  0  0
 27 28  1  0  0  0
 28 29  2  0  0  0
 29 30  1  0  0  0
  3  4  1  0  0  0
  3 11  1  0  0  0
  4  5  1  0  0  0
  5  6  1  0  0  0
  6  7  1  0  0  0
  6 10  2  0  0  0
  7  8  2  0  0  0
  8 13  1  0  0  0
  8  9  1  0  0  0
 13 14  2  0  0  0
 13 22  1  0  0  0
 14 15  1  0  0  0
 15 16  1  0  0  0
 15 20  2  0  0  0
 16 17  2  0  0  0
 17 18  1  0  0  0
 18 19  2  0  0  0
 19 20  1  0  0  0
 20 21  1  0  0  0
 21 22  1  0  0  0
 21 24  1  0  0  0
 22 23  2  0  0  0
  9 10  1  0  0  0
  9 12  1  0  0  0
 10 11  1  0  0  0
M  END
> <minimizedAffinity>
-8.18092

$$$$
