CHEMBL504950


 18 20  0  0  0  0  0  0  0  0999 V2000
  -28.3215    1.0334   -5.4149 C   0  0  0  0  0  0  0  0  0  0  0  0
  -28.5428   -0.4347   -5.6412 C   0  0  0  0  0  0  0  0  0  0  0  0
  -28.1581   -1.0259   -6.8390 C   0  0  0  0  0  0  0  0  0  0  0  0
  -28.3676   -2.3987   -7.0478 C   0  0  0  0  0  0  0  0  0  0  0  0
  -27.9466   -3.0264   -8.3473 C   0  0  0  0  0  0  0  0  0  0  0  0
  -28.9774   -3.1292   -5.9931 C   0  0  0  0  0  0  0  0  0  0  0  0
  -29.3130   -2.4191   -4.8476 C   0  0  0  0  0  0  0  0  0  0  0  0
  -29.1217   -1.1029   -4.6264 N   0  0  0  0  0  0  0  0  0  0  0  0
  -30.0337   -3.3785   -3.6469 S   0  0  0  0  0  0  0  0  0  0  0  0
  -29.9270   -4.7913   -4.6117 C   0  0  0  0  0  0  0  0  0  0  0  0
  -30.3307   -6.0954   -4.3202 C   0  0  0  0  0  0  0  0  0  0  0  0
  -30.9063   -6.4660   -3.1284 N   0  0  0  0  0  0  0  0  0  0  0  0
  -30.1445   -7.0477   -5.2485 N   0  0  0  0  0  0  0  0  0  0  0  0
  -29.5748   -6.6995   -6.4105 C   0  0  0  0  0  0  0  0  0  0  0  0
  -29.1539   -5.4866   -6.7815 N   0  0  0  0  0  0  0  0  0  0  0  0
  -29.3431   -4.5182   -5.8451 C   0  0  0  0  0  0  0  0  0  0  0  0
  -31.1045   -5.7856   -2.4114 H   0  0  0  0  0  0  0  0  0  0  0  0
  -31.1941   -7.4281   -3.0315 H   0  0  0  0  0  0  0  0  0  0  0  0
  1  2  1  0  0  0
  2  3  1  0  0  0
  2  8  2  0  0  0
  3  4  2  0  0  0
  4  5  1  0  0  0
  4  6  1  0  0  0
  6  7  2  0  0  0
  6 16  1  0  0  0
  7  8  1  0  0  0
  7  9  1  0  0  0
  9 10  1  0  0  0
 10 11  1  0  0  0
 10 16  2  0  0  0
 11 12  1  0  0  0
 11 13  2  0  0  0
 12 17  1  0  0  0
 12 18  1  0  0  0
 13 14  1  0  0  0
 14 15  2  0  0  0
 15 16  1  0  0  0
M  END
> <minimizedAffinity>
-7.24785

$$$$
