CHEMBL1235529


 25 27  0  0  0  0  0  0  0  0999 V2000
  -14.7680   -6.8509  -16.0211 O   0  0  0  0  0  0  0  0  0  0  0  0
  -14.0791   -6.3163  -14.8703 S   0  0  0  0  0  0  0  0  0  0  0  0
  -12.7718   -5.7052  -14.9460 O   0  0  0  0  0  0  0  0  0  0  0  0
  -14.0286   -7.5729  -13.6909 N   0  0  0  0  0  0  0  0  0  0  0  0
  -12.8089   -8.4234  -13.5994 C   0  0  0  0  0  0  0  0  0  0  0  0
  -12.2509   -8.5222  -12.1534 C   0  0  0  0  0  0  0  0  0  0  0  0
  -12.3819   -7.1832  -11.4605 C   0  0  0  0  0  0  0  0  0  0  0  0
  -11.7163   -7.0045  -10.1503 N   0  0  0  0  0  0  0  0  0  0  0  0
  -12.0748   -5.6955   -9.6832 C   0  0  0  0  0  0  0  0  0  0  0  0
  -12.8583   -4.9714  -10.5000 N   0  0  0  0  0  0  0  0  0  0  0  0
  -13.2420   -3.7362  -10.2281 C   0  0  0  0  0  0  0  0  0  0  0  0
  -12.8068   -3.0977   -9.1440 N   0  0  0  0  0  0  0  0  0  0  0  0
  -12.0643   -3.8311   -8.2844 C   0  0  0  0  0  0  0  0  0  0  0  0
  -11.6753   -5.1455   -8.4942 C   0  0  0  0  0  0  0  0  0  0  0  0
  -10.6965   -6.0707   -7.1774 Br  0  0  0  0  0  0  0  0  0  0  0  0
  -14.1643   -3.1306  -11.1127 N   0  0  0  0  0  0  0  0  0  0  0  0
  -14.9427   -3.9257  -11.9966 C   0  0  0  0  0  0  0  0  0  0  0  0
  -15.9478   -4.7522  -11.4554 C   0  0  0  0  0  0  0  0  0  0  0  0
  -16.7250   -5.5891  -12.2603 C   0  0  0  0  0  0  0  0  0  0  0  0
  -16.3852   -5.7542  -13.5919 C   0  0  0  0  0  0  0  0  0  0  0  0
  -15.1949   -5.1680  -14.0314 C   0  0  0  0  0  0  0  0  0  0  0  0
  -14.5872   -4.1138  -13.3323 C   0  0  0  0  0  0  0  0  0  0  0  0
  -14.8762   -8.1335  -13.7901 H   0  0  0  0  0  0  0  0  0  0  0  0
  -11.9959   -7.6821   -9.4439 H   0  0  0  0  0  0  0  0  0  0  0  0
  -13.6607   -2.3860  -11.5794 H   0  0  0  0  0  0  0  0  0  0  0  0
  1  2  2  0  0  0
  2  3  2  0  0  0
  2  4  1  0  0  0
  2 21  1  0  0  0
  4  5  1  0  0  0
  4 23  1  0  0  0
  5  6  1  0  0  0
  6  7  1  0  0  0
  7  8  1  0  0  0
  8  9  1  0  0  0
  8 24  1  0  0  0
  9 10  1  0  0  0
  9 14  2  0  0  0
 10 11  2  0  0  0
 11 12  1  0  0  0
 11 16  1  0  0  0
 12 13  2  0  0  0
 13 14  1  0  0  0
 14 15  1  0  0  0
 16 17  1  0  0  0
 16 25  1  0  0  0
 17 18  1  0  0  0
 17 22  2  0  0  0
 18 19  2  0  0  0
 19 20  1  0  0  0
 20 21  2  0  0  0
 21 22  1  0  0  0
M  END
> <minimizedAffinity>
-7.68143

$$$$
