CHEMBL3741187


 40 44  0  0  0  0  0  0  0  0999 V2000
  -28.3302   -2.0769   -9.8132 O   0  0  0  0  0  0  0  0  0  0  0  0
  -27.4016   -1.8754  -10.8008 C   0  0  0  0  0  0  0  0  0  0  0  0
  -26.1114   -1.5963  -10.3606 C   0  0  0  0  0  0  0  0  0  0  0  0
  -25.1012   -1.3169  -11.2820 C   0  0  0  0  0  0  0  0  0  0  0  0
  -25.3735   -1.2209  -12.6671 C   0  0  0  0  0  0  0  0  0  0  0  0
  -24.4721   -0.7202  -13.6510 C   0  0  0  0  0  0  0  0  0  0  0  0
  -24.8115   -0.7787  -15.0148 C   0  0  0  0  0  0  0  0  0  0  0  0
  -26.0334   -1.3025  -15.4222 C   0  0  0  0  0  0  0  0  0  0  0  0
  -26.9495   -1.7314  -14.4685 C   0  0  0  0  0  0  0  0  0  0  0  0
  -26.6511   -1.6637  -13.1005 C   0  0  0  0  0  0  0  0  0  0  0  0
  -27.6391   -2.0102  -12.1652 C   0  0  0  0  0  0  0  0  0  0  0  0
  -23.1788   -0.0210  -13.3466 C   0  0  0  0  0  0  0  0  0  0  0  0
  -22.6906   -0.1739  -12.2322 O   0  0  0  0  0  0  0  0  0  0  0  0
  -22.6116    0.6797  -14.3984 N   0  0  0  0  0  0  0  0  0  0  0  0
  -23.1030    0.6622  -15.2818 H   0  0  0  0  0  0  0  0  0  0  0  0
  -21.3902    1.3878  -14.4098 C   0  0  0  0  0  0  0  0  0  0  0  0
  -21.2558    2.7240  -14.0317 C   0  0  0  0  0  0  0  0  0  0  0  0
  -20.0009    3.3438  -14.0489 C   0  0  0  0  0  0  0  0  0  0  0  0
  -18.8717    2.6369  -14.4545 C   0  0  0  0  0  0  0  0  0  0  0  0
  -18.9949    1.3063  -14.8426 C   0  0  0  0  0  0  0  0  0  0  0  0
  -20.2471    0.6847  -14.8172 C   0  0  0  0  0  0  0  0  0  0  0  0
  -27.9324   -2.3547   -6.3500 C   0  0  0  0  0  0  0  0  0  0  0  0
  -27.5501   -1.1433   -5.9198 N   0  0  0  0  0  0  0  0  0  0  0  0
  -27.4247   -0.1817   -6.8577 C   0  0  0  0  0  0  0  0  0  0  0  0
  -27.6682   -0.3804   -8.1961 C   0  0  0  0  0  0  0  0  0  0  0  0
  -28.1157   -1.6376   -8.5284 C   0  0  0  0  0  0  0  0  0  0  0  0
  -28.2479   -2.6173   -7.6245 N   0  0  0  0  0  0  0  0  0  0  0  0
  -27.9429   -3.4005   -5.4134 N   0  0  0  0  0  0  0  0  0  0  0  0
  -27.0576   -3.8877   -5.5084 H   0  0  0  0  0  0  0  0  0  0  0  0
  -29.8270   -2.7599   -3.2715 C   0  0  0  0  0  0  0  0  0  0  0  0
  -29.9349   -4.0024   -4.1149 C   0  0  0  0  0  0  0  0  0  0  0  0
  -30.9776   -4.9084   -3.8418 C   0  0  0  0  0  0  0  0  0  0  0  0
  -31.1361   -6.0699   -4.5948 C   0  0  0  0  0  0  0  0  0  0  0  0
  -30.2429   -6.3353   -5.6282 C   0  0  0  0  0  0  0  0  0  0  0  0
  -29.1845   -5.4651   -5.8929 C   0  0  0  0  0  0  0  0  0  0  0  0
  -29.0241   -4.2763   -5.1584 C   0  0  0  0  0  0  0  0  0  0  0  0
  -30.4043   -7.8328   -6.5671 S   0  0  0  0  0  0  0  0  0  0  0  0
  -29.3976   -7.5479   -7.9980 C   0  0  0  0  0  0  0  0  0  0  0  0
  -29.8034   -8.9088   -5.8011 O   0  0  0  0  0  0  0  0  0  0  0  0
  -31.7813   -7.9225   -7.0017 O   0  0  0  0  0  0  0  0  0  0  0  0
 30 31  1  0  0  0
 31 32  1  0  0  0
 31 36  2  0  0  0
 32 33  2  0  0  0
 33 34  1  0  0  0
 34 37  1  0  0  0
 34 35  2  0  0  0
 37 38  1  0  0  0
 37 39  2  0  0  0
 37 40  2  0  0  0
 35 36  1  0  0  0
 36 28  1  0  0  0
 28 22  1  0  0  0
 28 29  1  0  0  0
 22 23  1  0  0  0
 22 27  2  0  0  0
 23 24  2  0  0  0
 24 25  1  0  0  0
 25 26  2  0  0  0
 26  1  1  0  0  0
 26 27  1  0  0  0
  1  2  1  0  0  0
  2  3  1  0  0  0
  2 11  2  0  0  0
  3  4  2  0  0  0
  4  5  1  0  0  0
  5  6  1  0  0  0
  5 10  2  0  0  0
  6 12  1  0  0  0
  6  7  2  0  0  0
 12 13  2  0  0  0
 12 14  1  0  0  0
 14 16  1  0  0  0
 14 15  1  0  0  0
 16 17  1  0  0  0
 16 21  2  0  0  0
 17 18  2  0  0  0
 18 19  1  0  0  0
 19 20  2  0  0  0
 20 21  1  0  0  0
  7  8  1  0  0  0
  8  9  2  0  0  0
  9 10  1  0  0  0
 10 11  1  0  0  0
M  END
> <minimizedAffinity>
-11.36347

$$$$
