CHEMBL3982666


 40 44  0  0  0  0  0  0  0  0999 V2000
  -13.7624    0.2688  -16.9016 C   0  0  0  0  0  0  0  0  0  0  0  0
  -15.0204    0.7546  -16.5211 C   0  0  0  0  0  0  0  0  0  0  0  0
  -15.4599    0.6854  -15.1793 C   0  0  0  0  0  0  0  0  0  0  0  0
  -16.6998    1.1244  -14.6919 C   0  0  0  0  0  0  0  0  0  0  0  0
  -17.0052    1.0953  -13.3797 N   0  0  0  0  0  0  0  0  0  0  0  0
  -16.0788    0.6131  -12.5506 C   0  0  0  0  0  0  0  0  0  0  0  0
  -14.8858    0.1420  -12.9086 N   0  0  0  0  0  0  0  0  0  0  0  0
  -14.5952    0.1843  -14.2078 C   0  0  0  0  0  0  0  0  0  0  0  0
  -13.3627   -0.2998  -14.5966 C   0  0  0  0  0  0  0  0  0  0  0  0
  -12.9318   -0.3166  -15.9318 C   0  0  0  0  0  0  0  0  0  0  0  0
  -13.6426   -0.5179  -19.1419 C   0  0  0  0  0  0  0  0  0  0  0  0
  -13.4749    0.5320  -18.2093 O   0  0  0  0  0  0  0  0  0  0  0  0
  -17.6832    1.6086  -15.5975 N   0  0  0  0  0  0  0  0  0  0  0  0
  -17.5753    1.1408  -16.4921 H   0  0  0  0  0  0  0  0  0  0  0  0
  -19.0294    1.8036  -15.2206 C   0  0  0  0  0  0  0  0  0  0  0  0
  -19.5186    3.1040  -15.0281 C   0  0  0  0  0  0  0  0  0  0  0  0
  -20.8106    3.3262  -14.5580 C   0  0  0  0  0  0  0  0  0  0  0  0
  -21.6430    2.2428  -14.2860 C   0  0  0  0  0  0  0  0  0  0  0  0
  -23.2162    2.5806  -13.6581 Cl  0  0  0  0  0  0  0  0  0  0  0  0
  -21.1823    0.9397  -14.5121 C   0  0  0  0  0  0  0  0  0  0  0  0
  -22.1641   -0.4492  -14.2012 Cl  0  0  0  0  0  0  0  0  0  0  0  0
  -19.8815    0.7219  -14.9860 C   0  0  0  0  0  0  0  0  0  0  0  0
  -11.7180   -0.8681  -16.2868 O   0  0  0  0  0  0  0  0  0  0  0  0
  -11.5171   -2.2002  -15.7724 C   0  0  0  0  0  0  0  0  0  0  0  0
  -12.7376   -3.1000  -15.9540 C   0  0  0  0  0  0  0  0  0  0  0  0
  -12.9601   -3.9274  -14.6862 C   0  0  0  0  0  0  0  0  0  0  0  0
  -13.9748   -4.9636  -14.8738 N   0  0  0  0  0  0  0  0  0  0  0  0
  -14.9826   -5.3072  -13.9776 C   0  0  0  0  0  0  0  0  0  0  0  0
  -15.8451   -6.1415  -14.2532 O   0  0  0  0  0  0  0  0  0  0  0  0
  -13.7804   -5.7678  -16.0837 C   0  0  0  0  0  0  0  0  0  0  0  0
  -13.5696   -4.8715  -17.3061 C   0  0  0  0  0  0  0  0  0  0  0  0
  -12.4873   -3.9510  -17.0936 O   0  0  0  0  0  0  0  0  0  0  0  0
  -15.1167   -4.6239  -12.6657 C   0  0  0  0  0  0  0  0  0  0  0  0
  -14.5006   -5.2134  -11.5526 C   0  0  0  0  0  0  0  0  0  0  0  0
  -14.6117   -4.6139  -10.3006 C   0  0  0  0  0  0  0  0  0  0  0  0
  -14.0130   -5.1758   -9.2434 F   0  0  0  0  0  0  0  0  0  0  0  0
  -15.3302   -3.4366  -10.1268 C   0  0  0  0  0  0  0  0  0  0  0  0
  -15.8962   -2.8174  -11.2365 C   0  0  0  0  0  0  0  0  0  0  0  0
  -15.7629   -3.3971  -12.4992 C   0  0  0  0  0  0  0  0  0  0  0  0
  -16.2890   -2.7376  -13.5406 F   0  0  0  0  0  0  0  0  0  0  0  0
 11 12  1  0  0  0
 12  1  1  0  0  0
  1  2  1  0  0  0
  1 10  2  0  0  0
  2  3  2  0  0  0
  3  4  1  0  0  0
  3  8  1  0  0  0
  4 13  1  0  0  0
  4  5  2  0  0  0
 13 15  1  0  0  0
 13 14  1  0  0  0
 15 16  1  0  0  0
 15 22  2  0  0  0
 16 17  2  0  0  0
 17 18  1  0  0  0
 18 19  1  0  0  0
 18 20  2  0  0  0
 20 21  1  0  0  0
 20 22  1  0  0  0
  5  6  1  0  0  0
  6  7  2  0  0  0
  7  8  1  0  0  0
  8  9  2  0  0  0
  9 10  1  0  0  0
 10 23  1  0  0  0
 23 24  1  0  0  0
 24 25  1  0  0  0
 25 26  1  0  0  0
 25 32  1  0  0  0
 26 27  1  0  0  0
 27 28  1  0  0  0
 27 30  1  0  0  0
 28 29  2  0  0  0
 28 33  1  0  0  0
 33 34  1  0  0  0
 33 39  2  0  0  0
 34 35  2  0  0  0
 35 36  1  0  0  0
 35 37  1  0  0  0
 37 38  2  0  0  0
 38 39  1  0  0  0
 39 40  1  0  0  0
 30 31  1  0  0  0
 31 32  1  0  0  0
M  END
> <minimizedAffinity>
-9.21831

$$$$
