CHEMBL406388


 35 39  0  0  0  0  0  0  0  0999 V2000
  -14.6734   -0.6550  -14.4564 C   0  0  0  0  0  0  0  0  0  0  0  0
  -15.7628   -0.5842  -13.6014 C   0  0  0  0  0  0  0  0  0  0  0  0
  -16.7504    0.3748  -13.8397 C   0  0  0  0  0  0  0  0  0  0  0  0
  -16.5925    1.4105  -14.7998 C   0  0  0  0  0  0  0  0  0  0  0  0
  -17.5557    2.4143  -15.1296 C   0  0  0  0  0  0  0  0  0  0  0  0
  -17.2582    3.3879  -16.1044 C   0  0  0  0  0  0  0  0  0  0  0  0
  -16.0357    3.3955  -16.7632 C   0  0  0  0  0  0  0  0  0  0  0  0
  -15.1020    2.4085  -16.4798 C   0  0  0  0  0  0  0  0  0  0  0  0
  -15.3682    1.4146  -15.5269 C   0  0  0  0  0  0  0  0  0  0  0  0
  -14.4368    0.3799  -15.3564 C   0  0  0  0  0  0  0  0  0  0  0  0
  -18.9517    2.4975  -14.5861 C   0  0  0  0  0  0  0  0  0  0  0  0
  -19.2828    3.5414  -14.0314 O   0  0  0  0  0  0  0  0  0  0  0  0
  -19.7490    1.3776  -14.7195 N   0  0  0  0  0  0  0  0  0  0  0  0
  -19.3292    0.5543  -15.1281 H   0  0  0  0  0  0  0  0  0  0  0  0
  -21.0890    1.2329  -14.2915 C   0  0  0  0  0  0  0  0  0  0  0  0
  -21.7386    0.0127  -14.1235 C   0  0  0  0  0  0  0  0  0  0  0  0
  -23.0899   -0.0139  -13.7751 C   0  0  0  0  0  0  0  0  0  0  0  0
  -23.7473    1.1881  -13.5774 C   0  0  0  0  0  0  0  0  0  0  0  0
  -23.1490    2.3917  -13.6896 N   0  0  0  0  0  0  0  0  0  0  0  0
  -21.8410    2.3820  -14.0443 C   0  0  0  0  0  0  0  0  0  0  0  0
  -13.8311   -1.7352  -14.5462 O   0  0  0  0  0  0  0  0  0  0  0  0
  -13.8842   -4.4897  -10.0524 C   0  0  0  0  0  0  0  0  0  0  0  0
  -12.6660   -3.8284  -10.2421 C   0  0  0  0  0  0  0  0  0  0  0  0
  -12.3928   -3.0730  -11.3740 C   0  0  0  0  0  0  0  0  0  0  0  0
  -11.1806   -2.5004  -11.4367 N   0  0  0  0  0  0  0  0  0  0  0  0
  -10.8777   -1.7673  -12.5232 C   0  0  0  0  0  0  0  0  0  0  0  0
  -11.7581   -1.5314  -13.5511 C   0  0  0  0  0  0  0  0  0  0  0  0
  -13.0330   -2.0969  -13.4738 C   0  0  0  0  0  0  0  0  0  0  0  0
  -13.3697   -2.9552  -12.3811 C   0  0  0  0  0  0  0  0  0  0  0  0
  -14.5803   -3.6805  -12.1985 C   0  0  0  0  0  0  0  0  0  0  0  0
  -14.8829   -4.3484  -11.0073 C   0  0  0  0  0  0  0  0  0  0  0  0
  -13.0778   -5.2193   -7.9824 C   0  0  0  0  0  0  0  0  0  0  0  0
  -14.1101   -5.2934   -8.9664 O   0  0  0  0  0  0  0  0  0  0  0  0
  -16.1554   -4.8492  -10.9477 O   0  0  0  0  0  0  0  0  0  0  0  0
  -16.6902   -5.3437  -12.1757 C   0  0  0  0  0  0  0  0  0  0  0  0
 32 33  1  0  0  0
 33 22  1  0  0  0
 22 23  1  0  0  0
 22 31  2  0  0  0
 23 24  2  0  0  0
 24 25  1  0  0  0
 24 29  1  0  0  0
 25 26  2  0  0  0
 26 27  1  0  0  0
 27 28  2  0  0  0
 28 21  1  0  0  0
 28 29  1  0  0  0
 21  1  1  0  0  0
  1  2  1  0  0  0
  1 10  2  0  0  0
  2  3  2  0  0  0
  3  4  1  0  0  0
  4  5  1  0  0  0
  4  9  2  0  0  0
  5 11  1  0  0  0
  5  6  2  0  0  0
 11 12  2  0  0  0
 11 13  1  0  0  0
 13 15  1  0  0  0
 13 14  1  0  0  0
 15 16  1  0  0  0
 15 20  2  0  0  0
 16 17  2  0  0  0
 17 18  1  0  0  0
 18 19  2  0  0  0
 19 20  1  0  0  0
  6  7  1  0  0  0
  7  8  2  0  0  0
  8  9  1  0  0  0
  9 10  1  0  0  0
 29 30  2  0  0  0
 30 31  1  0  0  0
 31 34  1  0  0  0
 34 35  1  0  0  0
M  END
> <minimizedAffinity>
-9.22937

$$$$
