CHEMBL419458


 26 29  0  0  0  0  0  0  0  0999 V2000
  -16.4079    1.3527  -14.7591 C   0  0  0  0  0  0  0  0  0  0  0  0
  -16.5883    0.8533  -13.5144 N   0  0  0  0  0  0  0  0  0  0  0  0
  -15.7620   -0.0960  -13.0037 N   0  0  0  0  0  0  0  0  0  0  0  0
  -14.7740   -0.6142  -13.7641 C   0  0  0  0  0  0  0  0  0  0  0  0
  -14.5510   -0.1786  -15.0843 C   0  0  0  0  0  0  0  0  0  0  0  0
  -13.5597   -0.7305  -15.9326 C   0  0  0  0  0  0  0  0  0  0  0  0
  -13.3234   -0.2247  -17.2110 C   0  0  0  0  0  0  0  0  0  0  0  0
  -14.0533    0.8601  -17.6660 C   0  0  0  0  0  0  0  0  0  0  0  0
  -15.0666    1.3917  -16.8691 C   0  0  0  0  0  0  0  0  0  0  0  0
  -15.3629    0.8710  -15.5813 C   0  0  0  0  0  0  0  0  0  0  0  0
  -17.3832    2.2543  -15.2693 N   0  0  0  0  0  0  0  0  0  0  0  0
  -17.1006    3.2134  -15.1246 H   0  0  0  0  0  0  0  0  0  0  0  0
  -23.1403    1.8843  -13.8703 Cl  0  0  0  0  0  0  0  0  0  0  0  0
  -21.4684    1.9811  -14.2655 C   0  0  0  0  0  0  0  0  0  0  0  0
  -20.8061    0.8563  -14.7477 C   0  0  0  0  0  0  0  0  0  0  0  0
  -19.4603    0.9431  -15.0923 C   0  0  0  0  0  0  0  0  0  0  0  0
  -18.7644    2.1567  -14.9855 C   0  0  0  0  0  0  0  0  0  0  0  0
  -19.4305    3.2596  -14.4384 C   0  0  0  0  0  0  0  0  0  0  0  0
  -20.7830    3.1813  -14.1001 C   0  0  0  0  0  0  0  0  0  0  0  0
  -13.8813   -1.5843  -13.0304 C   0  0  0  0  0  0  0  0  0  0  0  0
  -14.6632   -2.6322  -12.2693 C   0  0  0  0  0  0  0  0  0  0  0  0
  -15.6634   -3.3605  -12.8941 C   0  0  0  0  0  0  0  0  0  0  0  0
  -16.3459   -4.2640  -12.1111 C   0  0  0  0  0  0  0  0  0  0  0  0
  -16.0730   -4.4726  -10.8115 N   0  0  0  0  0  0  0  0  0  0  0  0
  -15.0773   -3.7318  -10.3043 C   0  0  0  0  0  0  0  0  0  0  0  0
  -14.3536   -2.8115  -10.9652 N   0  0  0  0  0  0  0  0  0  0  0  0
 13 14  1  0  0  0
 14 15  1  0  0  0
 14 19  2  0  0  0
 15 16  2  0  0  0
 16 17  1  0  0  0
 17 11  1  0  0  0
 17 18  2  0  0  0
 11  1  1  0  0  0
 11 12  1  0  0  0
  1  2  1  0  0  0
  1 10  2  0  0  0
  2  3  2  0  0  0
  3  4  1  0  0  0
  4 20  1  0  0  0
  4  5  2  0  0  0
 20 21  1  0  0  0
 21 22  1  0  0  0
 21 26  2  0  0  0
 22 23  2  0  0  0
 23 24  1  0  0  0
 24 25  2  0  0  0
 25 26  1  0  0  0
  5  6  1  0  0  0
  5 10  1  0  0  0
  6  7  2  0  0  0
  7  8  1  0  0  0
  8  9  2  0  0  0
  9 10  1  0  0  0
 18 19  1  0  0  0
M  END
> <minimizedAffinity>
-8.33180

$$$$
