CHEMBL4778145


 26 28  0  0  0  0  0  0  0  0999 V2000
  -27.3418   -9.3810   -5.3660 N   0  0  0  0  0  0  0  0  0  0  0  0
  -28.3194   -8.5655   -5.6117 C   0  0  0  0  0  0  0  0  0  0  0  0
  -28.4407   -7.0895   -5.2323 C   0  0  0  0  0  0  0  0  0  0  0  0
  -27.6068   -6.4818   -4.5917 O   0  0  0  0  0  0  0  0  0  0  0  0
  -29.6440   -6.6647   -5.7609 N   0  0  0  0  0  0  0  0  0  0  0  0
  -30.2840   -7.7154   -6.4408 C   0  0  0  0  0  0  0  0  0  0  0  0
  -31.4770   -7.7049   -7.1395 C   0  0  0  0  0  0  0  0  0  0  0  0
  -31.8980   -8.9023   -7.7362 C   0  0  0  0  0  0  0  0  0  0  0  0
  -31.1299  -10.0769   -7.6223 C   0  0  0  0  0  0  0  0  0  0  0  0
  -31.6924  -11.5277   -8.3574 Cl  0  0  0  0  0  0  0  0  0  0  0  0
  -29.9203  -10.0823   -6.9309 C   0  0  0  0  0  0  0  0  0  0  0  0
  -29.5286   -8.8866   -6.3590 C   0  0  0  0  0  0  0  0  0  0  0  0
  -26.2803   -8.8368   -4.6882 N   0  0  0  0  0  0  0  0  0  0  0  0
  -26.3153   -7.8586   -4.3857 H   0  0  0  0  0  0  0  0  0  0  0  0
  -24.2752   -9.3938   -5.6721 N   0  0  0  0  0  0  0  0  0  0  0  0
  -25.0831   -9.4844   -4.5912 C   0  0  0  0  0  0  0  0  0  0  0  0
  -24.6308  -10.3118   -3.2269 S   0  0  0  0  0  0  0  0  0  0  0  0
  -23.3504   -9.7973   -5.6694 H   0  0  0  0  0  0  0  0  0  0  0  0
  -24.6107   -8.8570   -6.4608 H   0  0  0  0  0  0  0  0  0  0  0  0
  -30.2053   -5.3656   -5.4757 C   0  0  0  0  0  0  0  0  0  0  0  0
  -29.4794   -4.2664   -6.2186 C   0  0  0  0  0  0  0  0  0  0  0  0
  -29.3599   -4.3117   -7.6178 C   0  0  0  0  0  0  0  0  0  0  0  0
  -28.6503   -3.3235   -8.3034 C   0  0  0  0  0  0  0  0  0  0  0  0
  -28.0492   -2.2812   -7.6012 C   0  0  0  0  0  0  0  0  0  0  0  0
  -28.1613   -2.2246   -6.2139 C   0  0  0  0  0  0  0  0  0  0  0  0
  -28.8713   -3.2102   -5.5262 C   0  0  0  0  0  0  0  0  0  0  0  0
 15 16  1  0  0  0
 15 18  1  0  0  0
 15 19  1  0  0  0
 16 17  2  0  0  0
 16 13  1  0  0  0
 13  1  1  0  0  0
 13 14  1  0  0  0
  1  2  2  0  0  0
  2  3  1  0  0  0
  2 12  1  0  0  0
  3  4  2  0  0  0
  3  5  1  0  0  0
  5 20  1  0  0  0
  5  6  1  0  0  0
 20 21  1  0  0  0
 21 22  1  0  0  0
 21 26  2  0  0  0
 22 23  2  0  0  0
 23 24  1  0  0  0
 24 25  2  0  0  0
 25 26  1  0  0  0
  6  7  1  0  0  0
  6 12  2  0  0  0
  7  8  2  0  0  0
  8  9  1  0  0  0
  9 10  1  0  0  0
  9 11  2  0  0  0
 11 12  1  0  0  0
M  END
> <minimizedAffinity>
-7.64802

$$$$
