CHEMBL3932595


 38 41  0  0  0  0  0  0  0  0999 V2000
  -28.3635   -5.2454   -3.9268 C   0  0  0  0  0  0  0  0  0  0  0  0
  -28.7095   -4.8254   -5.3225 C   0  0  0  0  0  0  0  0  0  0  0  0
  -28.2955   -3.5735   -5.6594 N   0  0  0  0  0  0  0  0  0  0  0  0
  -28.6427   -3.0692   -6.8618 C   0  0  0  0  0  0  0  0  0  0  0  0
  -29.3919   -3.7881   -7.7753 C   0  0  0  0  0  0  0  0  0  0  0  0
  -29.8149   -5.0669   -7.4273 C   0  0  0  0  0  0  0  0  0  0  0  0
  -29.4442   -5.6229   -6.1982 C   0  0  0  0  0  0  0  0  0  0  0  0
  -28.2805   -1.7612   -7.1922 N   0  0  0  0  0  0  0  0  0  0  0  0
  -27.6916   -1.3160   -8.3436 C   0  0  0  0  0  0  0  0  0  0  0  0
  -27.2872   -0.1557   -8.3941 O   0  0  0  0  0  0  0  0  0  0  0  0
  -27.6433   -2.2063   -9.3786 N   0  0  0  0  0  0  0  0  0  0  0  0
  -28.3602   -1.0455   -6.4848 H   0  0  0  0  0  0  0  0  0  0  0  0
  -28.3038   -2.9737   -9.2869 H   0  0  0  0  0  0  0  0  0  0  0  0
  -27.0438   -1.9862  -10.6185 C   0  0  0  0  0  0  0  0  0  0  0  0
  -27.8635   -1.9125  -11.7386 C   0  0  0  0  0  0  0  0  0  0  0  0
  -27.2976   -1.7045  -12.9939 C   0  0  0  0  0  0  0  0  0  0  0  0
  -25.9015   -1.6495  -13.1475 C   0  0  0  0  0  0  0  0  0  0  0  0
  -25.3273   -1.4157  -14.7564 Cl  0  0  0  0  0  0  0  0  0  0  0  0
  -25.0634   -1.7835  -12.0376 C   0  0  0  0  0  0  0  0  0  0  0  0
  -25.6573   -1.9144  -10.7622 C   0  0  0  0  0  0  0  0  0  0  0  0
  -23.5597   -1.8393  -12.1027 C   0  0  0  0  0  0  0  0  0  0  0  0
  -22.9406   -0.7910  -12.7063 F   0  0  0  0  0  0  0  0  0  0  0  0
  -22.9933   -1.9337  -10.8663 F   0  0  0  0  0  0  0  0  0  0  0  0
  -23.1282   -2.9432  -12.7833 F   0  0  0  0  0  0  0  0  0  0  0  0
  -29.8179   -6.9023   -5.8385 O   0  0  0  0  0  0  0  0  0  0  0  0
  -28.9976   -7.9376   -6.2947 C   0  0  0  0  0  0  0  0  0  0  0  0
  -29.0583   -8.2679   -7.6338 C   0  0  0  0  0  0  0  0  0  0  0  0
  -28.2028   -9.2715   -8.0412 C   0  0  0  0  0  0  0  0  0  0  0  0
  -27.3473   -9.8588   -7.1940 N   0  0  0  0  0  0  0  0  0  0  0  0
  -27.3813   -9.4792   -5.9173 C   0  0  0  0  0  0  0  0  0  0  0  0
  -28.1950   -8.5559   -5.4102 N   0  0  0  0  0  0  0  0  0  0  0  0
  -28.2667   -9.7230   -9.3727 N   0  0  0  0  0  0  0  0  0  0  0  0
  -27.4159   -9.2853  -10.3743 C   0  0  0  0  0  0  0  0  0  0  0  0
  -26.6353   -8.3477  -10.3212 O   0  0  0  0  0  0  0  0  0  0  0  0
  -28.9576  -10.4130   -9.6068 H   0  0  0  0  0  0  0  0  0  0  0  0
  -27.4788  -10.0300  -11.6674 C   0  0  0  0  0  0  0  0  0  0  0  0
  -27.5318   -9.2987  -12.9848 C   0  0  0  0  0  0  0  0  0  0  0  0
  -28.6883  -10.1574  -12.5572 C   0  0  0  0  0  0  0  0  0  0  0  0
  1  2  1  0  0  0
  2  3  1  0  0  0
  2  7  2  0  0  0
  3  4  2  0  0  0
  4  8  1  0  0  0
  4  5  1  0  0  0
  8  9  1  0  0  0
  8 12  1  0  0  0
  9 10  2  0  0  0
  9 11  1  0  0  0
 11 14  1  0  0  0
 11 13  1  0  0  0
 14 15  1  0  0  0
 14 20  2  0  0  0
 15 16  2  0  0  0
 16 17  1  0  0  0
 17 18  1  0  0  0
 17 19  2  0  0  0
 19 21  1  0  0  0
 19 20  1  0  0  0
 21 22  1  0  0  0
 21 23  1  0  0  0
 21 24  1  0  0  0
  5  6  2  0  0  0
  6  7  1  0  0  0
  7 25  1  0  0  0
 25 26  1  0  0  0
 26 27  1  0  0  0
 26 31  2  0  0  0
 27 28  2  0  0  0
 28 32  1  0  0  0
 28 29  1  0  0  0
 32 33  1  0  0  0
 32 35  1  0  0  0
 33 34  2  0  0  0
 33 36  1  0  0  0
 36 37  1  0  0  0
 36 38  1  0  0  0
 37 38  1  0  0  0
 29 30  2  0  0  0
 30 31  1  0  0  0
M  END
> <minimizedAffinity>
-9.72892

$$$$
