CHEMBL231468


 36 40  0  0  0  0  0  0  0  0999 V2000
  -23.5546   -0.9082  -13.0546 C   0  0  0  0  0  0  0  0  0  0  0  0
  -24.4112   -1.2135  -14.1254 C   0  0  0  0  0  0  0  0  0  0  0  0
  -25.7530   -1.5524  -13.9272 C   0  0  0  0  0  0  0  0  0  0  0  0
  -26.1807   -1.6328  -12.6054 C   0  0  0  0  0  0  0  0  0  0  0  0
  -27.3977   -1.9226  -12.0445 N   0  0  0  0  0  0  0  0  0  0  0  0
  -27.2552   -1.9596  -10.6794 C   0  0  0  0  0  0  0  0  0  0  0  0
  -26.0249   -1.6218  -10.3456 N   0  0  0  0  0  0  0  0  0  0  0  0
  -25.3440   -1.4140  -11.5184 C   0  0  0  0  0  0  0  0  0  0  0  0
  -24.0041   -1.0445  -11.7346 C   0  0  0  0  0  0  0  0  0  0  0  0
  -28.2370   -2.1585  -12.5486 H   0  0  0  0  0  0  0  0  0  0  0  0
  -28.3024   -2.3340   -9.9042 N   0  0  0  0  0  0  0  0  0  0  0  0
  -29.0455   -2.8949  -10.3040 H   0  0  0  0  0  0  0  0  0  0  0  0
  -28.2705   -2.4356   -8.4910 C   0  0  0  0  0  0  0  0  0  0  0  0
  -27.8537   -1.3890   -7.6633 C   0  0  0  0  0  0  0  0  0  0  0  0
  -27.7580   -1.5486   -6.2827 C   0  0  0  0  0  0  0  0  0  0  0  0
  -28.1008   -2.7587   -5.6880 C   0  0  0  0  0  0  0  0  0  0  0  0
  -27.8682   -2.8865   -3.9813 Cl  0  0  0  0  0  0  0  0  0  0  0  0
  -28.5944   -3.8163   -6.4687 C   0  0  0  0  0  0  0  0  0  0  0  0
  -28.6878   -3.6279   -7.8696 C   0  0  0  0  0  0  0  0  0  0  0  0
  -29.0178   -5.1429   -5.8664 C   0  0  0  0  0  0  0  0  0  0  0  0
  -29.6362   -6.0662   -6.8357 N   0  0  0  0  0  0  0  0  0  0  0  0
  -28.6820   -7.0811   -7.3280 C   0  0  0  0  0  0  0  0  0  0  0  0
  -29.3613   -8.0598   -8.3146 C   0  0  0  0  0  0  0  0  0  0  0  0
  -30.5443   -8.7602   -7.7770 N   0  0  0  0  0  0  0  0  0  0  0  0
  -30.1628   -9.7963   -6.8199 C   0  0  0  0  0  0  0  0  0  0  0  0
  -31.4587   -7.7685   -7.1753 C   0  0  0  0  0  0  0  0  0  0  0  0
  -30.7910   -6.7547   -6.2151 C   0  0  0  0  0  0  0  0  0  0  0  0
  -22.2376   -0.5177  -13.2371 O   0  0  0  0  0  0  0  0  0  0  0  0
  -20.5934    2.3297  -14.5994 C   0  0  0  0  0  0  0  0  0  0  0  0
  -21.4885    3.3178  -14.4678 N   0  0  0  0  0  0  0  0  0  0  0  0
  -22.6930    2.9737  -13.9752 C   0  0  0  0  0  0  0  0  0  0  0  0
  -23.0141    1.6955  -13.5713 C   0  0  0  0  0  0  0  0  0  0  0  0
  -22.0093    0.7708  -13.7141 C   0  0  0  0  0  0  0  0  0  0  0  0
  -20.8180    1.0558  -14.2689 N   0  0  0  0  0  0  0  0  0  0  0  0
  -18.1910    1.1192  -15.0438 C   0  0  0  0  0  0  0  0  0  0  0  0
  -18.9603    2.7561  -15.1457 S   0  0  0  0  0  0  0  0  0  0  0  0
 35 36  1  0  0  0
 36 29  1  0  0  0
 29 30  1  0  0  0
 29 34  2  0  0  0
 30 31  2  0  0  0
 31 32  1  0  0  0
 32 33  2  0  0  0
 33 28  1  0  0  0
 33 34  1  0  0  0
 28  1  1  0  0  0
  1  2  1  0  0  0
  1  9  2  0  0  0
  2  3  2  0  0  0
  3  4  1  0  0  0
  4  5  1  0  0  0
  4  8  2  0  0  0
  5  6  1  0  0  0
  5 10  1  0  0  0
  6 11  1  0  0  0
  6  7  2  0  0  0
 11 13  1  0  0  0
 11 12  1  0  0  0
 13 14  1  0  0  0
 13 19  2  0  0  0
 14 15  2  0  0  0
 15 16  1  0  0  0
 16 17  1  0  0  0
 16 18  2  0  0  0
 18 20  1  0  0  0
 18 19  1  0  0  0
 20 21  1  0  0  0
 21 22  1  0  0  0
 21 27  1  0  0  0
 22 23  1  0  0  0
 23 24  1  0  0  0
 24 25  1  0  0  0
 24 26  1  0  0  0
 26 27  1  0  0  0
  7  8  1  0  0  0
  8  9  1  0  0  0
M  END
> <minimizedAffinity>
-10.65604

$$$$
