CHEMBL3690441


 32 35  0  0  0  0  0  0  0  0999 V2000
  -16.6962    0.6667  -15.0225 C   0  0  0  0  0  0  0  0  0  0  0  0
  -16.0125    1.5301  -15.8776 C   0  0  0  0  0  0  0  0  0  0  0  0
  -16.5642    2.7581  -16.2288 C   0  0  0  0  0  0  0  0  0  0  0  0
  -17.8163    3.1217  -15.7516 C   0  0  0  0  0  0  0  0  0  0  0  0
  -18.5862    2.2287  -14.9902 C   0  0  0  0  0  0  0  0  0  0  0  0
  -17.9913    1.0184  -14.5940 C   0  0  0  0  0  0  0  0  0  0  0  0
  -19.9771    2.5467  -14.6276 C   0  0  0  0  0  0  0  0  0  0  0  0
  -20.5962    3.7788  -14.4719 C   0  0  0  0  0  0  0  0  0  0  0  0
  -21.9140    3.6586  -14.1223 N   0  0  0  0  0  0  0  0  0  0  0  0
  -22.1341    2.3645  -14.0480 C   0  0  0  0  0  0  0  0  0  0  0  0
  -23.3250    1.6430  -13.7323 C   0  0  0  0  0  0  0  0  0  0  0  0
  -23.3216    0.2914  -13.7104 C   0  0  0  0  0  0  0  0  0  0  0  0
  -22.0899   -0.4423  -13.9830 C   0  0  0  0  0  0  0  0  0  0  0  0
  -20.9616    0.2313  -14.2497 C   0  0  0  0  0  0  0  0  0  0  0  0
  -20.9819    1.6296  -14.3159 N   0  0  0  0  0  0  0  0  0  0  0  0
  -24.5663   -0.4096  -13.3725 C   0  0  0  0  0  0  0  0  0  0  0  0
  -25.2480   -1.1727  -14.3232 C   0  0  0  0  0  0  0  0  0  0  0  0
  -26.4023   -1.8572  -13.9522 C   0  0  0  0  0  0  0  0  0  0  0  0
  -26.8319   -1.7591  -12.6369 C   0  0  0  0  0  0  0  0  0  0  0  0
  -26.1957   -1.0377  -11.6889 N   0  0  0  0  0  0  0  0  0  0  0  0
  -25.0782   -0.3813  -12.0776 C   0  0  0  0  0  0  0  0  0  0  0  0
  -15.7937   -0.1099  -12.2972 O   0  0  0  0  0  0  0  0  0  0  0  0
  -15.7502   -0.8436  -13.2747 C   0  0  0  0  0  0  0  0  0  0  0  0
  -15.2816   -2.1369  -13.1729 N   0  0  0  0  0  0  0  0  0  0  0  0
  -16.1500   -0.5517  -14.5604 N   0  0  0  0  0  0  0  0  0  0  0  0
  -14.8537   -2.5112  -14.0076 H   0  0  0  0  0  0  0  0  0  0  0  0
  -16.1256   -1.3128  -15.2206 H   0  0  0  0  0  0  0  0  0  0  0  0
  -14.6882   -2.5686  -11.9007 C   0  0  0  0  0  0  0  0  0  0  0  0
  -15.6545   -3.2815  -10.9450 C   0  0  0  0  0  0  0  0  0  0  0  0
  -16.6963   -3.8400  -11.6062 F   0  0  0  0  0  0  0  0  0  0  0  0
  -15.0502   -4.2444  -10.2217 F   0  0  0  0  0  0  0  0  0  0  0  0
  -16.1845   -2.3873  -10.0718 F   0  0  0  0  0  0  0  0  0  0  0  0
 22 23  2  0  0  0
 23 24  1  0  0  0
 23 25  1  0  0  0
 24 28  1  0  0  0
 24 26  1  0  0  0
 28 29  1  0  0  0
 29 30  1  0  0  0
 29 31  1  0  0  0
 29 32  1  0  0  0
 25  1  1  0  0  0
 25 27  1  0  0  0
  1  2  1  0  0  0
  1  6  2  0  0  0
  2  3  2  0  0  0
  3  4  1  0  0  0
  4  5  2  0  0  0
  5  7  1  0  0  0
  5  6  1  0  0  0
  7  8  2  0  0  0
  7 15  1  0  0  0
  8  9  1  0  0  0
  9 10  2  0  0  0
 10 11  1  0  0  0
 10 15  1  0  0  0
 11 12  2  0  0  0
 12 16  1  0  0  0
 12 13  1  0  0  0
 16 17  1  0  0  0
 16 21  2  0  0  0
 17 18  2  0  0  0
 18 19  1  0  0  0
 19 20  2  0  0  0
 20 21  1  0  0  0
 13 14  2  0  0  0
 14 15  1  0  0  0
M  END
> <minimizedAffinity>
-10.47773

$$$$
