CHEMBL3985263


 42 45  0  0  0  0  0  0  0  0999 V2000
  -16.5749   -4.7866  -11.6701 C   0  0  0  0  0  0  0  0  0  0  0  0
  -15.0959   -4.6204  -11.4540 C   0  0  0  0  0  0  0  0  0  0  0  0
  -14.3855   -5.8297  -11.2335 C   0  0  0  0  0  0  0  0  0  0  0  0
  -13.0005   -5.8869  -11.1295 C   0  0  0  0  0  0  0  0  0  0  0  0
  -12.3020   -4.6885  -11.1749 C   0  0  0  0  0  0  0  0  0  0  0  0
  -12.9889   -3.4723  -11.3521 C   0  0  0  0  0  0  0  0  0  0  0  0
  -14.3910   -3.3959  -11.4732 C   0  0  0  0  0  0  0  0  0  0  0  0
  -15.0686   -2.1352  -11.5821 N   0  0  0  0  0  0  0  0  0  0  0  0
  -15.4380   -1.5173  -12.7873 C   0  0  0  0  0  0  0  0  0  0  0  0
  -15.2647   -2.0117  -13.8999 O   0  0  0  0  0  0  0  0  0  0  0  0
  -15.9626   -0.2396  -12.6269 N   0  0  0  0  0  0  0  0  0  0  0  0
  -15.2601   -1.6406  -10.7184 H   0  0  0  0  0  0  0  0  0  0  0  0
  -15.5589    0.2872  -11.8641 H   0  0  0  0  0  0  0  0  0  0  0  0
  -16.3373    0.5253  -13.7797 C   0  0  0  0  0  0  0  0  0  0  0  0
  -17.6973    0.6962  -14.0926 C   0  0  0  0  0  0  0  0  0  0  0  0
  -18.1194    1.4953  -15.1766 C   0  0  0  0  0  0  0  0  0  0  0  0
  -17.1344    2.1077  -15.9542 C   0  0  0  0  0  0  0  0  0  0  0  0
  -15.7659    1.8848  -15.7216 C   0  0  0  0  0  0  0  0  0  0  0  0
  -15.3759    1.1142  -14.6107 C   0  0  0  0  0  0  0  0  0  0  0  0
  -14.7441    2.4167  -16.6978 C   0  0  0  0  0  0  0  0  0  0  0  0
  -14.3718    1.5038  -17.6438 F   0  0  0  0  0  0  0  0  0  0  0  0
  -15.1654    3.5095  -17.3890 F   0  0  0  0  0  0  0  0  0  0  0  0
  -13.5852    2.7842  -16.0804 F   0  0  0  0  0  0  0  0  0  0  0  0
  -19.4721    1.6929  -15.3991 N   0  0  0  0  0  0  0  0  0  0  0  0
  -19.7913    1.6764  -16.3611 H   0  0  0  0  0  0  0  0  0  0  0  0
  -20.4893    1.8905  -14.3664 C   0  0  0  0  0  0  0  0  0  0  0  0
  -21.2883    3.1653  -14.6302 C   0  0  0  0  0  0  0  0  0  0  0  0
  -21.4347    0.6882  -14.3756 C   0  0  0  0  0  0  0  0  0  0  0  0
  -12.2988   -7.0523  -10.9142 O   0  0  0  0  0  0  0  0  0  0  0  0
  -12.3644   -8.0407  -11.8980 C   0  0  0  0  0  0  0  0  0  0  0  0
  -12.8899   -7.6931  -13.1293 C   0  0  0  0  0  0  0  0  0  0  0  0
  -12.9780   -8.7159  -14.0547 C   0  0  0  0  0  0  0  0  0  0  0  0
  -12.5237   -9.9463  -13.7888 N   0  0  0  0  0  0  0  0  0  0  0  0
  -12.0331  -10.1773  -12.5730 C   0  0  0  0  0  0  0  0  0  0  0  0
  -11.9572   -9.2852  -11.5893 N   0  0  0  0  0  0  0  0  0  0  0  0
  -13.5780   -8.4795  -15.3076 N   0  0  0  0  0  0  0  0  0  0  0  0
  -12.8541   -8.2201  -16.4644 C   0  0  0  0  0  0  0  0  0  0  0  0
  -11.6469   -8.1532  -16.5877 O   0  0  0  0  0  0  0  0  0  0  0  0
  -14.5820   -8.5458  -15.3730 H   0  0  0  0  0  0  0  0  0  0  0  0
  -13.7145   -7.9955  -17.6692 C   0  0  0  0  0  0  0  0  0  0  0  0
  -13.7494   -9.0068  -18.7987 C   0  0  0  0  0  0  0  0  0  0  0  0
  -13.0264   -7.7052  -18.9850 C   0  0  0  0  0  0  0  0  0  0  0  0
  1  2  1  0  0  0
  2  3  1  0  0  0
  2  7  2  0  0  0
  3  4  2  0  0  0
  4 29  1  0  0  0
  4  5  1  0  0  0
 29 30  1  0  0  0
 30 31  1  0  0  0
 30 35  2  0  0  0
 31 32  2  0  0  0
 32 36  1  0  0  0
 32 33  1  0  0  0
 36 37  1  0  0  0
 36 39  1  0  0  0
 37 38  2  0  0  0
 37 40  1  0  0  0
 40 41  1  0  0  0
 40 42  1  0  0  0
 41 42  1  0  0  0
 33 34  2  0  0  0
 34 35  1  0  0  0
  5  6  2  0  0  0
  6  7  1  0  0  0
  7  8  1  0  0  0
  8  9  1  0  0  0
  8 12  1  0  0  0
  9 10  2  0  0  0
  9 11  1  0  0  0
 11 14  1  0  0  0
 11 13  1  0  0  0
 14 15  1  0  0  0
 14 19  2  0  0  0
 15 16  2  0  0  0
 16 24  1  0  0  0
 16 17  1  0  0  0
 24 26  1  0  0  0
 24 25  1  0  0  0
 26 27  1  0  0  0
 26 28  1  0  0  0
 17 18  2  0  0  0
 18 20  1  0  0  0
 18 19  1  0  0  0
 20 21  1  0  0  0
 20 22  1  0  0  0
 20 23  1  0  0  0
M  END
> <minimizedAffinity>
-8.77015

$$$$
