CHEMBL3781989


 30 34  0  0  0  0  0  0  0  0999 V2000
  -27.9446   -9.9345   -6.4750 C   0  0  0  0  0  0  0  0  0  0  0  0
  -28.2125  -10.8832   -7.4533 C   0  0  0  0  0  0  0  0  0  0  0  0
  -29.3894  -10.9610   -8.1112 N   0  0  0  0  0  0  0  0  0  0  0  0
  -30.3282  -10.0591   -7.7593 C   0  0  0  0  0  0  0  0  0  0  0  0
  -31.5644  -10.0732   -8.3803 C   0  0  0  0  0  0  0  0  0  0  0  0
  -32.5849   -9.2302   -8.1136 N   0  0  0  0  0  0  0  0  0  0  0  0
  -32.3521   -8.3280   -7.1495 C   0  0  0  0  0  0  0  0  0  0  0  0
  -31.1535   -8.2055   -6.4363 C   0  0  0  0  0  0  0  0  0  0  0  0
  -30.1054   -9.0863   -6.7565 C   0  0  0  0  0  0  0  0  0  0  0  0
  -28.9009   -9.0316   -6.1206 N   0  0  0  0  0  0  0  0  0  0  0  0
  -24.1406   -9.6490   -4.4791 C   0  0  0  0  0  0  0  0  0  0  0  0
  -24.2223  -10.2299   -5.7387 C   0  0  0  0  0  0  0  0  0  0  0  0
  -25.4566  -10.3243   -6.3863 C   0  0  0  0  0  0  0  0  0  0  0  0
  -26.6404   -9.8424   -5.7910 C   0  0  0  0  0  0  0  0  0  0  0  0
  -26.5297   -9.2599   -4.5167 C   0  0  0  0  0  0  0  0  0  0  0  0
  -25.2929   -9.1639   -3.8652 C   0  0  0  0  0  0  0  0  0  0  0  0
  -31.0267   -7.2657   -5.3841 N   0  0  0  0  0  0  0  0  0  0  0  0
  -31.0834   -7.6849   -4.4615 H   0  0  0  0  0  0  0  0  0  0  0  0
  -30.6111   -5.9276   -5.4598 C   0  0  0  0  0  0  0  0  0  0  0  0
  -29.9489   -5.4296   -6.5855 C   0  0  0  0  0  0  0  0  0  0  0  0
  -29.4179   -4.1361   -6.6041 C   0  0  0  0  0  0  0  0  0  0  0  0
  -29.5307   -3.2791   -5.5047 C   0  0  0  0  0  0  0  0  0  0  0  0
  -30.2382   -3.7735   -4.3987 C   0  0  0  0  0  0  0  0  0  0  0  0
  -30.7695   -5.0729   -4.3716 C   0  0  0  0  0  0  0  0  0  0  0  0
  -28.9946   -2.0078   -5.5363 N   0  0  0  0  0  0  0  0  0  0  0  0
  -29.5011   -0.9279   -4.6941 C   0  0  0  0  0  0  0  0  0  0  0  0
  -29.7643    0.2902   -5.5800 C   0  0  0  0  0  0  0  0  0  0  0  0
  -28.5269    0.6800   -6.3872 C   0  0  0  0  0  0  0  0  0  0  0  0
  -27.9597   -0.5116   -7.1603 C   0  0  0  0  0  0  0  0  0  0  0  0
  -27.7468   -1.7189   -6.2466 C   0  0  0  0  0  0  0  0  0  0  0  0
 11 12  1  0  0  0
 11 16  2  0  0  0
 12 13  2  0  0  0
 13 14  1  0  0  0
 14  1  1  0  0  0
 14 15  2  0  0  0
  1  2  1  0  0  0
  1 10  2  0  0  0
  2  3  2  0  0  0
  3  4  1  0  0  0
  4  5  1  0  0  0
  4  9  2  0  0  0
  5  6  2  0  0  0
  6  7  1  0  0  0
  7  8  2  0  0  0
  8 17  1  0  0  0
  8  9  1  0  0  0
 17 19  1  0  0  0
 17 18  1  0  0  0
 19 20  1  0  0  0
 19 24  2  0  0  0
 20 21  2  0  0  0
 21 22  1  0  0  0
 22 25  1  0  0  0
 22 23  2  0  0  0
 25 26  1  0  0  0
 25 30  1  0  0  0
 26 27  1  0  0  0
 27 28  1  0  0  0
 28 29  1  0  0  0
 29 30  1  0  0  0
 23 24  1  0  0  0
  9 10  1  0  0  0
 15 16  1  0  0  0
M  END
> <minimizedAffinity>
-9.22880

$$$$
