CHEMBL379080


 49 53  0  0  0  0  0  0  0  0999 V2000
  -28.7386   -9.6315   -5.2544 C   0  0  0  0  0  0  0  0  0  0  0  0
  -28.4100   -9.6893   -3.9156 C   0  0  0  0  0  0  0  0  0  0  0  0
  -28.6683   -8.5607   -3.1875 C   0  0  0  0  0  0  0  0  0  0  0  0
  -29.2355   -7.4763   -3.7203 N   0  0  0  0  0  0  0  0  0  0  0  0
  -29.5855   -7.5166   -5.0153 C   0  0  0  0  0  0  0  0  0  0  0  0
  -29.3625   -8.5754   -5.8104 N   0  0  0  0  0  0  0  0  0  0  0  0
  -28.4140  -10.7379   -6.0777 N   0  0  0  0  0  0  0  0  0  0  0  0
  -27.9469  -11.8998   -5.4538 C   0  0  0  0  0  0  0  0  0  0  0  0
  -28.4233  -12.3516   -4.4124 O   0  0  0  0  0  0  0  0  0  0  0  0
  -27.7686  -10.0296  -10.2164 C   0  0  0  0  0  0  0  0  0  0  0  0
  -27.0306   -9.3359   -9.2608 C   0  0  0  0  0  0  0  0  0  0  0  0
  -27.2620   -9.5544   -7.8961 C   0  0  0  0  0  0  0  0  0  0  0  0
  -28.2351  -10.4723   -7.4627 C   0  0  0  0  0  0  0  0  0  0  0  0
  -29.0259  -11.1132   -8.4302 C   0  0  0  0  0  0  0  0  0  0  0  0
  -28.7663  -10.9151   -9.7941 C   0  0  0  0  0  0  0  0  0  0  0  0
  -28.7736  -10.1769  -12.3724 C   0  0  0  0  0  0  0  0  0  0  0  0
  -27.6230   -9.9228  -11.5730 O   0  0  0  0  0  0  0  0  0  0  0  0
  -30.1014  -11.9234   -8.1449 O   0  0  0  0  0  0  0  0  0  0  0  0
  -31.3662  -11.3224   -8.4304 C   0  0  0  0  0  0  0  0  0  0  0  0
  -26.8429  -12.4639   -6.1051 O   0  0  0  0  0  0  0  0  0  0  0  0
  -25.4810  -12.0780   -5.8958 C   0  0  0  0  0  0  0  0  0  0  0  0
  -24.9757  -11.6414   -4.6541 C   0  0  0  0  0  0  0  0  0  0  0  0
  -25.6359  -11.7648   -3.3088 C   0  0  0  0  0  0  0  0  0  0  0  0
  -23.7295  -10.9837   -4.6352 C   0  0  0  0  0  0  0  0  0  0  0  0
  -22.9852  -10.7929   -5.7943 C   0  0  0  0  0  0  0  0  0  0  0  0
  -23.4626  -11.2799   -7.0029 C   0  0  0  0  0  0  0  0  0  0  0  0
  -24.7110  -11.9208   -7.0744 C   0  0  0  0  0  0  0  0  0  0  0  0
  -25.1723  -12.4486   -8.4041 C   0  0  0  0  0  0  0  0  0  0  0  0
  -30.2620   -6.4348   -5.5630 N   0  0  0  0  0  0  0  0  0  0  0  0
  -31.2542   -6.5824   -5.6374 H   0  0  0  0  0  0  0  0  0  0  0  0
  -29.7126   -5.3082   -6.1732 C   0  0  0  0  0  0  0  0  0  0  0  0
  -29.2704   -5.3276   -7.4973 C   0  0  0  0  0  0  0  0  0  0  0  0
  -28.6197   -4.2385   -8.0708 C   0  0  0  0  0  0  0  0  0  0  0  0
  -28.3728   -3.0905   -7.3092 C   0  0  0  0  0  0  0  0  0  0  0  0
  -28.8189   -3.0436   -5.9797 C   0  0  0  0  0  0  0  0  0  0  0  0
  -29.4818   -4.1490   -5.4261 C   0  0  0  0  0  0  0  0  0  0  0  0
  -28.6305   -2.0231   -5.0796 O   0  0  0  0  0  0  0  0  0  0  0  0
  -29.5163   -0.9158   -5.1727 C   0  0  0  0  0  0  0  0  0  0  0  0
  -27.6130   -2.0589   -7.7788 O   0  0  0  0  0  0  0  0  0  0  0  0
  -27.9044   -1.5669   -9.0854 C   0  0  0  0  0  0  0  0  0  0  0  0
  -26.6015   -1.6365   -9.8697 C   0  0  0  0  0  0  0  0  0  0  0  0
  -26.8566   -1.8746  -11.3569 C   0  0  0  0  0  0  0  0  0  0  0  0
  -25.6157   -1.9802  -12.1340 N   0  0  0  0  0  0  0  0  0  0  0  0
  -25.6631   -1.2397  -13.4106 C   0  0  0  0  0  0  0  0  0  0  0  0
  -24.3313   -1.3443  -14.1899 C   0  0  0  0  0  0  0  0  0  0  0  0
  -23.1349   -0.9214  -13.4374 N   0  0  0  0  0  0  0  0  0  0  0  0
  -23.0749    0.5312  -13.2999 C   0  0  0  0  0  0  0  0  0  0  0  0
  -23.1330   -1.5970  -12.1238 C   0  0  0  0  0  0  0  0  0  0  0  0
  -24.4636   -1.5098  -11.3380 C   0  0  0  0  0  0  0  0  0  0  0  0
 16 17  1  0  0  0
 17 10  1  0  0  0
 10 11  1  0  0  0
 10 15  2  0  0  0
 11 12  2  0  0  0
 12 13  1  0  0  0
 13  7  1  0  0  0
 13 14  2  0  0  0
  7  8  1  0  0  0
  7  1  1  0  0  0
  8  9  2  0  0  0
  8 20  1  0  0  0
 20 21  1  0  0  0
 21 22  1  0  0  0
 21 27  2  0  0  0
 22 23  1  0  0  0
 22 24  2  0  0  0
 24 25  1  0  0  0
 25 26  2  0  0  0
 26 27  1  0  0  0
 27 28  1  0  0  0
  1  2  1  0  0  0
  1  6  2  0  0  0
  2  3  2  0  0  0
  3  4  1  0  0  0
  4  5  2  0  0  0
  5 29  1  0  0  0
  5  6  1  0  0  0
 29 31  1  0  0  0
 29 30  1  0  0  0
 31 32  1  0  0  0
 31 36  2  0  0  0
 32 33  2  0  0  0
 33 34  1  0  0  0
 34 39  1  0  0  0
 34 35  2  0  0  0
 39 40  1  0  0  0
 40 41  1  0  0  0
 41 42  1  0  0  0
 42 43  1  0  0  0
 43 44  1  0  0  0
 43 49  1  0  0  0
 44 45  1  0  0  0
 45 46  1  0  0  0
 46 47  1  0  0  0
 46 48  1  0  0  0
 48 49  1  0  0  0
 35 37  1  0  0  0
 35 36  1  0  0  0
 37 38  1  0  0  0
 14 18  1  0  0  0
 14 15  1  0  0  0
 18 19  1  0  0  0
M  END
> <minimizedAffinity>
-8.42329

$$$$
