CHEMBL1938421


 22 24  0  0  0  0  0  0  0  0999 V2000
  -28.0998   -2.5062   -8.1027 C   0  0  0  0  0  0  0  0  0  0  0  0
  -28.3777   -3.8729   -8.0533 C   0  0  0  0  0  0  0  0  0  0  0  0
  -28.6402   -4.4980   -6.8231 C   0  0  0  0  0  0  0  0  0  0  0  0
  -28.9291   -5.8733   -6.7361 C   0  0  0  0  0  0  0  0  0  0  0  0
  -29.1989   -6.4717   -5.5000 C   0  0  0  0  0  0  0  0  0  0  0  0
  -29.5205   -7.9328   -5.3962 C   0  0  0  0  0  0  0  0  0  0  0  0
  -29.1696   -5.6803   -4.3504 C   0  0  0  0  0  0  0  0  0  0  0  0
  -28.8757   -4.3166   -4.4398 C   0  0  0  0  0  0  0  0  0  0  0  0
  -28.6100   -3.7054   -5.6558 C   0  0  0  0  0  0  0  0  0  0  0  0
  -28.3396   -2.3913   -5.6838 N   0  0  0  0  0  0  0  0  0  0  0  0
  -28.0921   -1.8255   -6.8864 C   0  0  0  0  0  0  0  0  0  0  0  0
  -27.7618   -0.1380   -6.7735 Cl  0  0  0  0  0  0  0  0  0  0  0  0
  -26.7036   -2.0716  -10.0762 C   0  0  0  0  0  0  0  0  0  0  0  0
  -27.8435   -1.8668   -9.3957 C   0  0  0  0  0  0  0  0  0  0  0  0
  -26.5111   -1.4300  -11.4179 C   0  0  0  0  0  0  0  0  0  0  0  0
  -27.4994   -1.2843  -12.1404 O   0  0  0  0  0  0  0  0  0  0  0  0
  -22.9432    1.4827  -13.6095 C   0  0  0  0  0  0  0  0  0  0  0  0
  -23.5089    0.3279  -12.8542 C   0  0  0  0  0  0  0  0  0  0  0  0
  -22.7798   -0.7354  -12.3625 C   0  0  0  0  0  0  0  0  0  0  0  0
  -23.7523   -1.8859  -11.5592 S   0  0  0  0  0  0  0  0  0  0  0  0
  -25.1826   -0.9920  -11.8417 C   0  0  0  0  0  0  0  0  0  0  0  0
  -24.8985    0.1686  -12.5434 C   0  0  0  0  0  0  0  0  0  0  0  0
 17 18  1  0  0  0
 18 19  2  0  0  0
 18 22  1  0  0  0
 19 20  1  0  0  0
 20 21  1  0  0  0
 21 15  1  0  0  0
 21 22  2  0  0  0
 15 16  2  0  0  0
 15 13  1  0  0  0
 13 14  2  0  0  0
 14  1  1  0  0  0
  1  2  1  0  0  0
  1 11  2  0  0  0
  2  3  2  0  0  0
  3  4  1  0  0  0
  3  9  1  0  0  0
  4  5  2  0  0  0
  5  6  1  0  0  0
  5  7  1  0  0  0
  7  8  2  0  0  0
  8  9  1  0  0  0
  9 10  2  0  0  0
 10 11  1  0  0  0
 11 12  1  0  0  0
M  END
> <minimizedAffinity>
-8.41930

$$$$
