CHEMBL3702620


 29 31  0  0  0  0  0  0  0  0999 V2000
  -27.9157   -2.0185   -8.4454 C   0  0  0  0  0  0  0  0  0  0  0  0
  -27.7436   -1.0609   -7.4459 C   0  0  0  0  0  0  0  0  0  0  0  0
  -28.1663   -1.3395   -6.1513 C   0  0  0  0  0  0  0  0  0  0  0  0
  -28.7764   -2.5662   -5.8658 C   0  0  0  0  0  0  0  0  0  0  0  0
  -28.9849   -3.5395   -6.8578 C   0  0  0  0  0  0  0  0  0  0  0  0
  -28.5281   -3.2423   -8.1499 C   0  0  0  0  0  0  0  0  0  0  0  0
  -29.6639   -4.7123   -6.5735 N   0  0  0  0  0  0  0  0  0  0  0  0
  -29.7431   -5.8117   -7.5394 C   0  0  0  0  0  0  0  0  0  0  0  0
  -28.7761   -6.9187   -7.1408 C   0  0  0  0  0  0  0  0  0  0  0  0
  -28.9786   -7.3011   -5.7004 C   0  0  0  0  0  0  0  0  0  0  0  0
  -28.5570   -8.5339   -5.3411 N   0  0  0  0  0  0  0  0  0  0  0  0
  -28.7250   -8.8830   -4.0641 C   0  0  0  0  0  0  0  0  0  0  0  0
  -28.3004  -10.1415   -3.6918 N   0  0  0  0  0  0  0  0  0  0  0  0
  -29.2296   -8.0925   -3.1159 N   0  0  0  0  0  0  0  0  0  0  0  0
  -29.6303   -6.8673   -3.5080 C   0  0  0  0  0  0  0  0  0  0  0  0
  -29.5304   -6.4033   -4.8017 C   0  0  0  0  0  0  0  0  0  0  0  0
  -30.0347   -5.0432   -5.1937 C   0  0  0  0  0  0  0  0  0  0  0  0
  -27.5850  -10.4589   -4.3302 H   0  0  0  0  0  0  0  0  0  0  0  0
  -28.0811  -10.1465   -2.7061 H   0  0  0  0  0  0  0  0  0  0  0  0
  -26.3465   -2.1713  -10.3024 N   0  0  0  0  0  0  0  0  0  0  0  0
  -27.5457   -1.6728   -9.8363 C   0  0  0  0  0  0  0  0  0  0  0  0
  -28.3059   -0.9764  -10.5009 O   0  0  0  0  0  0  0  0  0  0  0  0
  -25.7455   -2.7040   -9.6911 H   0  0  0  0  0  0  0  0  0  0  0  0
  -25.9445   -1.9880  -11.6847 C   0  0  0  0  0  0  0  0  0  0  0  0
  -25.0392   -0.7659  -11.8838 C   0  0  0  0  0  0  0  0  0  0  0  0
  -22.6071   -0.1273  -12.3077 C   0  0  0  0  0  0  0  0  0  0  0  0
  -23.7869   -1.0007  -12.7678 C   0  0  0  0  0  0  0  0  0  0  0  0
  -24.0947   -0.7082  -14.2441 C   0  0  0  0  0  0  0  0  0  0  0  0
  -23.3728   -2.4796  -12.6352 C   0  0  0  0  0  0  0  0  0  0  0  0
 26 27  1  0  0  0
 27 28  1  0  0  0
 27 29  1  0  0  0
 27 25  1  0  0  0
 25 24  1  0  0  0
 24 20  1  0  0  0
 20 21  1  0  0  0
 20 23  1  0  0  0
 21 22  2  0  0  0
 21  1  1  0  0  0
  1  2  1  0  0  0
  1  6  2  0  0  0
  2  3  2  0  0  0
  3  4  1  0  0  0
  4  5  2  0  0  0
  5  7  1  0  0  0
  5  6  1  0  0  0
  7  8  1  0  0  0
  7 17  1  0  0  0
  8  9  1  0  0  0
  9 10  1  0  0  0
 10 11  1  0  0  0
 10 16  2  0  0  0
 11 12  2  0  0  0
 12 13  1  0  0  0
 12 14  1  0  0  0
 13 18  1  0  0  0
 13 19  1  0  0  0
 14 15  2  0  0  0
 15 16  1  0  0  0
 16 17  1  0  0  0
M  END
> <minimizedAffinity>
-9.34685

$$$$
