CHEMBL3912498


 34 38  0  0  0  0  0  0  0  0999 V2000
  -20.8405    1.8241  -14.0271 C   0  0  0  0  0  0  0  0  0  0  0  0
  -20.6517    3.1077  -14.5229 C   0  0  0  0  0  0  0  0  0  0  0  0
  -19.4807    3.4518  -15.2223 C   0  0  0  0  0  0  0  0  0  0  0  0
  -18.4989    2.5000  -15.4645 C   0  0  0  0  0  0  0  0  0  0  0  0
  -18.6731    1.2049  -14.9507 C   0  0  0  0  0  0  0  0  0  0  0  0
  -19.8440    0.8748  -14.2429 C   0  0  0  0  0  0  0  0  0  0  0  0
  -17.2993    2.8786  -16.3350 C   0  0  0  0  0  0  0  0  0  0  0  0
  -16.6103    4.1841  -15.8849 C   0  0  0  0  0  0  0  0  0  0  0  0
  -15.1241    4.1898  -16.0091 N   0  0  0  0  0  0  0  0  0  0  0  0
  -14.5694    3.1063  -15.5783 C   0  0  0  0  0  0  0  0  0  0  0  0
  -13.1811    3.0183  -15.1254 C   0  0  0  0  0  0  0  0  0  0  0  0
  -12.0796    3.4675  -15.8372 C   0  0  0  0  0  0  0  0  0  0  0  0
  -10.8201    3.3241  -15.2526 C   0  0  0  0  0  0  0  0  0  0  0  0
  -10.6971    2.8455  -13.9380 C   0  0  0  0  0  0  0  0  0  0  0  0
  -11.8151    2.3755  -13.2427 C   0  0  0  0  0  0  0  0  0  0  0  0
  -13.0379    2.3684  -13.8974 C   0  0  0  0  0  0  0  0  0  0  0  0
  -14.0974    1.5471  -13.4627 N   0  0  0  0  0  0  0  0  0  0  0  0
  -14.9315    1.0188  -14.4451 C   0  0  0  0  0  0  0  0  0  0  0  0
  -15.3437   -0.1346  -14.3868 O   0  0  0  0  0  0  0  0  0  0  0  0
  -15.2653    1.9319  -15.4258 N   0  0  0  0  0  0  0  0  0  0  0  0
  -16.3101    1.7166  -16.3931 C   0  0  0  0  0  0  0  0  0  0  0  0
  -14.0103    1.0107  -12.6123 H   0  0  0  0  0  0  0  0  0  0  0  0
  -22.6618   -0.4086  -14.5620 O   0  0  0  0  0  0  0  0  0  0  0  0
  -22.8388    0.3748  -13.6439 C   0  0  0  0  0  0  0  0  0  0  0  0
  -23.9648    0.3580  -12.8213 N   0  0  0  0  0  0  0  0  0  0  0  0
  -21.9901    1.4156  -13.3035 N   0  0  0  0  0  0  0  0  0  0  0  0
  -24.0927    1.1509  -12.2148 H   0  0  0  0  0  0  0  0  0  0  0  0
  -22.1452    1.8578  -12.4158 H   0  0  0  0  0  0  0  0  0  0  0  0
  -25.0803   -0.5179  -12.9507 C   0  0  0  0  0  0  0  0  0  0  0  0
  -25.4402   -1.1281  -14.1533 C   0  0  0  0  0  0  0  0  0  0  0  0
  -26.5953   -1.9034  -14.2351 C   0  0  0  0  0  0  0  0  0  0  0  0
  -27.3927   -2.0867  -13.1107 C   0  0  0  0  0  0  0  0  0  0  0  0
  -27.0182   -1.5137  -11.8977 C   0  0  0  0  0  0  0  0  0  0  0  0
  -25.8600   -0.7378  -11.8163 C   0  0  0  0  0  0  0  0  0  0  0  0
 23 24  2  0  0  0
 24 25  1  0  0  0
 24 26  1  0  0  0
 25 29  1  0  0  0
 25 27  1  0  0  0
 29 30  1  0  0  0
 29 34  2  0  0  0
 30 31  2  0  0  0
 31 32  1  0  0  0
 32 33  2  0  0  0
 33 34  1  0  0  0
 26  1  1  0  0  0
 26 28  1  0  0  0
  1  2  1  0  0  0
  1  6  2  0  0  0
  2  3  2  0  0  0
  3  4  1  0  0  0
  4  7  1  0  0  0
  4  5  2  0  0  0
  7  8  1  0  0  0
  7 21  1  0  0  0
  8  9  1  0  0  0
  9 10  2  0  0  0
 10 11  1  0  0  0
 10 20  1  0  0  0
 11 12  1  0  0  0
 11 16  2  0  0  0
 12 13  2  0  0  0
 13 14  1  0  0  0
 14 15  2  0  0  0
 15 16  1  0  0  0
 16 17  1  0  0  0
 17 18  1  0  0  0
 17 22  1  0  0  0
 18 19  2  0  0  0
 18 20  1  0  0  0
 20 21  1  0  0  0
  5  6  1  0  0  0
M  END
> <minimizedAffinity>
-9.82955

$$$$
