CHEMBL270755


 33 37  0  0  0  0  0  0  0  0999 V2000
  -14.9981   -0.5577  -14.4699 C   0  0  0  0  0  0  0  0  0  0  0  0
  -16.0870   -0.4501  -13.6142 C   0  0  0  0  0  0  0  0  0  0  0  0
  -17.0372    0.5473  -13.8396 C   0  0  0  0  0  0  0  0  0  0  0  0
  -16.8474    1.5888  -14.7900 C   0  0  0  0  0  0  0  0  0  0  0  0
  -17.7828    2.6241  -15.1056 C   0  0  0  0  0  0  0  0  0  0  0  0
  -17.4558    3.6078  -16.0602 C   0  0  0  0  0  0  0  0  0  0  0  0
  -16.2270    3.5892  -16.7079 C   0  0  0  0  0  0  0  0  0  0  0  0
  -15.3229    2.5661  -16.4423 C   0  0  0  0  0  0  0  0  0  0  0  0
  -15.6223    1.5605  -15.5111 C   0  0  0  0  0  0  0  0  0  0  0  0
  -14.7256    0.4866  -15.3535 C   0  0  0  0  0  0  0  0  0  0  0  0
  -19.1759    2.7365  -14.5531 C   0  0  0  0  0  0  0  0  0  0  0  0
  -19.4590    3.6570  -13.7967 O   0  0  0  0  0  0  0  0  0  0  0  0
  -20.0656    1.7467  -14.8920 N   0  0  0  0  0  0  0  0  0  0  0  0
  -19.7011    0.8847  -15.2749 H   0  0  0  0  0  0  0  0  0  0  0  0
  -21.4151    1.7196  -14.3840 C   0  0  0  0  0  0  0  0  0  0  0  0
  -21.7864    0.2952  -14.1055 C   0  0  0  0  0  0  0  0  0  0  0  0
  -23.2315   -0.1407  -14.1676 C   0  0  0  0  0  0  0  0  0  0  0  0
  -22.5175   -0.1060  -12.8490 C   0  0  0  0  0  0  0  0  0  0  0  0
  -14.2076   -1.6738  -14.5739 O   0  0  0  0  0  0  0  0  0  0  0  0
  -14.1169   -4.3874  -10.1061 C   0  0  0  0  0  0  0  0  0  0  0  0
  -12.8587   -3.8184  -10.3662 C   0  0  0  0  0  0  0  0  0  0  0  0
  -12.5957   -3.0736  -11.5026 C   0  0  0  0  0  0  0  0  0  0  0  0
  -11.4176   -2.4226  -11.5727 N   0  0  0  0  0  0  0  0  0  0  0  0
  -11.1956   -1.6014  -12.6129 C   0  0  0  0  0  0  0  0  0  0  0  0
  -12.1182   -1.3674  -13.6140 C   0  0  0  0  0  0  0  0  0  0  0  0
  -13.3376   -2.0371  -13.5501 C   0  0  0  0  0  0  0  0  0  0  0  0
  -13.5741   -2.9759  -12.5027 C   0  0  0  0  0  0  0  0  0  0  0  0
  -14.7152   -3.7849  -12.3454 C   0  0  0  0  0  0  0  0  0  0  0  0
  -15.0627   -4.3849  -11.1325 C   0  0  0  0  0  0  0  0  0  0  0  0
  -13.3182   -5.3524   -8.0913 C   0  0  0  0  0  0  0  0  0  0  0  0
  -14.4320   -4.9566   -8.9026 O   0  0  0  0  0  0  0  0  0  0  0  0
  -16.3520   -4.8378  -11.1586 O   0  0  0  0  0  0  0  0  0  0  0  0
  -16.8987   -5.4078  -12.3318 C   0  0  0  0  0  0  0  0  0  0  0  0
 30 31  1  0  0  0
 31 20  1  0  0  0
 20 21  1  0  0  0
 20 29  2  0  0  0
 21 22  2  0  0  0
 22 23  1  0  0  0
 22 27  1  0  0  0
 23 24  2  0  0  0
 24 25  1  0  0  0
 25 26  2  0  0  0
 26 19  1  0  0  0
 26 27  1  0  0  0
 19  1  1  0  0  0
  1  2  1  0  0  0
  1 10  2  0  0  0
  2  3  2  0  0  0
  3  4  1  0  0  0
  4  5  1  0  0  0
  4  9  2  0  0  0
  5 11  1  0  0  0
  5  6  2  0  0  0
 11 12  2  0  0  0
 11 13  1  0  0  0
 13 15  1  0  0  0
 13 14  1  0  0  0
 15 16  1  0  0  0
 16 17  1  0  0  0
 16 18  1  0  0  0
 17 18  1  0  0  0
  6  7  1  0  0  0
  7  8  2  0  0  0
  8  9  1  0  0  0
  9 10  1  0  0  0
 27 28  2  0  0  0
 28 29  1  0  0  0
 29 32  1  0  0  0
 32 33  1  0  0  0
M  END
> <minimizedAffinity>
-8.94559

$$$$
