CHEMBL4473820


 32 35  0  0  0  0  0  0  0  0999 V2000
  -26.2859   -1.7703  -10.8425 C   0  0  0  0  0  0  0  0  0  0  0  0
  -27.2078   -2.2406  -11.4871 O   0  0  0  0  0  0  0  0  0  0  0  0
  -26.3427   -1.6588   -9.4057 N   0  0  0  0  0  0  0  0  0  0  0  0
  -25.6493   -1.0981   -8.9289 H   0  0  0  0  0  0  0  0  0  0  0  0
  -22.8105   -0.0622  -12.6597 C   0  0  0  0  0  0  0  0  0  0  0  0
  -23.9674    0.7021  -12.4580 C   0  0  0  0  0  0  0  0  0  0  0  0
  -25.1007    0.1427  -11.8684 C   0  0  0  0  0  0  0  0  0  0  0  0
  -25.0909   -1.2048  -11.4959 C   0  0  0  0  0  0  0  0  0  0  0  0
  -23.9728   -1.9976  -11.7599 C   0  0  0  0  0  0  0  0  0  0  0  0
  -22.8455   -1.4231  -12.3481 C   0  0  0  0  0  0  0  0  0  0  0  0
  -21.7095    0.5608  -13.2464 N   0  0  0  0  0  0  0  0  0  0  0  0
  -21.3100    1.2408  -12.5981 H   0  0  0  0  0  0  0  0  0  0  0  0
  -17.8514    2.7176  -14.4726 C   0  0  0  0  0  0  0  0  0  0  0  0
  -19.1785    2.3802  -14.9976 N   0  0  0  0  0  0  0  0  0  0  0  0
  -19.3269    0.9189  -15.0479 C   0  0  0  0  0  0  0  0  0  0  0  0
  -20.7174    0.5171  -15.5333 C   0  0  0  0  0  0  0  0  0  0  0  0
  -21.8038    1.0956  -14.6197 C   0  0  0  0  0  0  0  0  0  0  0  0
  -21.6307    2.6158  -14.5826 C   0  0  0  0  0  0  0  0  0  0  0  0
  -20.2133    3.0091  -14.1611 C   0  0  0  0  0  0  0  0  0  0  0  0
  -27.3933   -2.1825   -8.6657 C   0  0  0  0  0  0  0  0  0  0  0  0
  -27.7096   -1.9364   -7.3538 C   0  0  0  0  0  0  0  0  0  0  0  0
  -28.8019   -2.7815   -7.0628 C   0  0  0  0  0  0  0  0  0  0  0  0
  -29.1892   -3.4730   -8.1426 N   0  0  0  0  0  0  0  0  0  0  0  0
  -28.3438   -3.0678   -9.1065 N   0  0  0  0  0  0  0  0  0  0  0  0
  -28.4486   -3.4752  -10.0285 H   0  0  0  0  0  0  0  0  0  0  0  0
  -29.4478   -2.9249   -5.7212 C   0  0  0  0  0  0  0  0  0  0  0  0
  -30.3650   -3.9047   -5.3985 C   0  0  0  0  0  0  0  0  0  0  0  0
  -30.7800   -3.8150   -4.0371 C   0  0  0  0  0  0  0  0  0  0  0  0
  -30.1868   -2.7646   -3.3786 C   0  0  0  0  0  0  0  0  0  0  0  0
  -29.1161   -1.9010   -4.3906 S   0  0  0  0  0  0  0  0  0  0  0  0
  -31.7021   -4.7060   -3.4038 C   0  0  0  0  0  0  0  0  0  0  0  0
  -32.4415   -5.4308   -2.8842 N   0  0  0  0  0  0  0  0  0  0  0  0
 13 14  1  0  0  0
 14 15  1  0  0  0
 14 19  1  0  0  0
 15 16  1  0  0  0
 16 17  1  0  0  0
 17 11  1  0  0  0
 17 18  1  0  0  0
 11  5  1  0  0  0
 11 12  1  0  0  0
  5  6  1  0  0  0
  5 10  2  0  0  0
  6  7  2  0  0  0
  7  8  1  0  0  0
  8  1  1  0  0  0
  8  9  2  0  0  0
  1  2  2  0  0  0
  1  3  1  0  0  0
  3 20  1  0  0  0
  3  4  1  0  0  0
 20 21  2  0  0  0
 20 24  1  0  0  0
 21 22  1  0  0  0
 22 26  1  0  0  0
 22 23  2  0  0  0
 26 27  2  0  0  0
 26 30  1  0  0  0
 27 28  1  0  0  0
 28 31  1  0  0  0
 28 29  2  0  0  0
 31 32  3  0  0  0
 29 30  1  0  0  0
 23 24  1  0  0  0
 24 25  1  0  0  0
  9 10  1  0  0  0
 18 19  1  0  0  0
M  END
> <minimizedAffinity>
-9.43783

$$$$
