CHEMBL3656060


 40 43  0  0  0  0  0  0  0  0999 V2000
  -15.3454   -3.0152  -11.8086 C   0  0  0  0  0  0  0  0  0  0  0  0
  -16.3727   -3.9544  -11.6756 C   0  0  0  0  0  0  0  0  0  0  0  0
  -16.0660   -5.3105  -11.5196 C   0  0  0  0  0  0  0  0  0  0  0  0
  -14.7343   -5.7346  -11.4779 C   0  0  0  0  0  0  0  0  0  0  0  0
  -13.7092   -4.8083  -11.6810 C   0  0  0  0  0  0  0  0  0  0  0  0
  -14.0237   -3.4607  -11.8382 C   0  0  0  0  0  0  0  0  0  0  0  0
  -13.0276   -2.5672  -11.9457 F   0  0  0  0  0  0  0  0  0  0  0  0
  -16.1021    0.3220  -13.0164 N   0  0  0  0  0  0  0  0  0  0  0  0
  -15.9209   -1.0473  -13.1192 C   0  0  0  0  0  0  0  0  0  0  0  0
  -16.0747   -1.7219  -14.1291 O   0  0  0  0  0  0  0  0  0  0  0  0
  -15.6028   -1.6217  -11.8933 N   0  0  0  0  0  0  0  0  0  0  0  0
  -16.0588    0.7136  -12.0879 H   0  0  0  0  0  0  0  0  0  0  0  0
  -16.1216   -1.2458  -11.1101 H   0  0  0  0  0  0  0  0  0  0  0  0
  -19.7598    2.8647  -15.1753 C   0  0  0  0  0  0  0  0  0  0  0  0
  -18.3234    2.4270  -15.1434 C   0  0  0  0  0  0  0  0  0  0  0  0
  -17.4568    2.8229  -16.1659 C   0  0  0  0  0  0  0  0  0  0  0  0
  -16.1193    2.4521  -16.1230 C   0  0  0  0  0  0  0  0  0  0  0  0
  -15.6412    1.6683  -15.0760 C   0  0  0  0  0  0  0  0  0  0  0  0
  -14.3183    1.4697  -15.0522 F   0  0  0  0  0  0  0  0  0  0  0  0
  -16.4924    1.1970  -14.0670 C   0  0  0  0  0  0  0  0  0  0  0  0
  -17.8355    1.6171  -14.0972 C   0  0  0  0  0  0  0  0  0  0  0  0
  -14.5415   -7.0852  -11.2851 O   0  0  0  0  0  0  0  0  0  0  0  0
  -13.9051   -7.8297  -12.2523 C   0  0  0  0  0  0  0  0  0  0  0  0
  -13.1213   -8.9478  -11.9865 C   0  0  0  0  0  0  0  0  0  0  0  0
  -12.5127   -9.5800  -13.0557 C   0  0  0  0  0  0  0  0  0  0  0  0
  -12.6688   -9.2025  -14.3438 N   0  0  0  0  0  0  0  0  0  0  0  0
  -13.4914   -8.1503  -14.5803 C   0  0  0  0  0  0  0  0  0  0  0  0
  -14.1316   -7.4466  -13.5707 C   0  0  0  0  0  0  0  0  0  0  0  0
  -13.6409   -7.8104  -15.9930 C   0  0  0  0  0  0  0  0  0  0  0  0
  -13.7959   -6.6021  -16.6468 C   0  0  0  0  0  0  0  0  0  0  0  0
  -13.9012   -6.8405  -18.0512 C   0  0  0  0  0  0  0  0  0  0  0  0
  -13.7956   -8.2132  -18.2083 C   0  0  0  0  0  0  0  0  0  0  0  0
  -13.6409   -8.7804  -16.9691 N   0  0  0  0  0  0  0  0  0  0  0  0
  -13.5419   -9.7676  -16.7616 H   0  0  0  0  0  0  0  0  0  0  0  0
  -14.0843   -5.8184  -19.0776 C   0  0  0  0  0  0  0  0  0  0  0  0
  -14.2496   -6.0878  -20.2661 O   0  0  0  0  0  0  0  0  0  0  0  0
  -14.0614   -4.5154  -18.6411 N   0  0  0  0  0  0  0  0  0  0  0  0
  -14.2193   -3.5010  -19.6091 O   0  0  0  0  0  0  0  0  0  0  0  0
  -13.9007   -4.2377  -17.6786 H   0  0  0  0  0  0  0  0  0  0  0  0
  -14.3165   -4.0179  -20.4381 H   0  0  0  0  0  0  0  0  0  0  0  0
 14 15  1  0  0  0
 15 16  1  0  0  0
 15 21  2  0  0  0
 16 17  2  0  0  0
 17 18  1  0  0  0
 18 19  1  0  0  0
 18 20  2  0  0  0
 20  8  1  0  0  0
 20 21  1  0  0  0
  8  9  1  0  0  0
  8 12  1  0  0  0
  9 10  2  0  0  0
  9 11  1  0  0  0
 11  1  1  0  0  0
 11 13  1  0  0  0
  1  2  1  0  0  0
  1  6  2  0  0  0
  2  3  2  0  0  0
  3  4  1  0  0  0
  4 22  1  0  0  0
  4  5  2  0  0  0
 22 23  1  0  0  0
 23 24  1  0  0  0
 23 28  2  0  0  0
 24 25  2  0  0  0
 25 26  1  0  0  0
 26 27  2  0  0  0
 27 29  1  0  0  0
 27 28  1  0  0  0
 29 30  2  0  0  0
 29 33  1  0  0  0
 30 31  1  0  0  0
 31 35  1  0  0  0
 31 32  2  0  0  0
 35 36  2  0  0  0
 35 37  1  0  0  0
 37 38  1  0  0  0
 37 39  1  0  0  0
 38 40  1  0  0  0
 32 33  1  0  0  0
 33 34  1  0  0  0
  5  6  1  0  0  0
  6  7  1  0  0  0
M  END
> <minimizedAffinity>
-9.31670

$$$$
