CHEMBL3781696


 32 36  0  0  0  0  0  0  0  0999 V2000
  -14.9993    0.0115  -13.6317 C   0  0  0  0  0  0  0  0  0  0  0  0
  -13.7655    0.5541  -13.2920 C   0  0  0  0  0  0  0  0  0  0  0  0
  -13.3442    1.7653  -13.7159 N   0  0  0  0  0  0  0  0  0  0  0  0
  -14.1888    2.4391  -14.5230 C   0  0  0  0  0  0  0  0  0  0  0  0
  -13.8294    3.6719  -15.0301 C   0  0  0  0  0  0  0  0  0  0  0  0
  -14.5758    4.4274  -15.8663 N   0  0  0  0  0  0  0  0  0  0  0  0
  -15.7666    3.9042  -16.2111 C   0  0  0  0  0  0  0  0  0  0  0  0
  -16.2601    2.6773  -15.7613 C   0  0  0  0  0  0  0  0  0  0  0  0
  -15.4510    1.9195  -14.8981 C   0  0  0  0  0  0  0  0  0  0  0  0
  -15.8499    0.7000  -14.4395 N   0  0  0  0  0  0  0  0  0  0  0  0
  -16.2891   -3.8763  -12.2586 C   0  0  0  0  0  0  0  0  0  0  0  0
  -15.9832   -2.8748  -11.3421 C   0  0  0  0  0  0  0  0  0  0  0  0
  -15.5678   -1.6127  -11.7880 C   0  0  0  0  0  0  0  0  0  0  0  0
  -15.4419   -1.3157  -13.1590 C   0  0  0  0  0  0  0  0  0  0  0  0
  -15.7522   -2.3427  -14.0656 C   0  0  0  0  0  0  0  0  0  0  0  0
  -16.1682   -3.6041  -13.6211 C   0  0  0  0  0  0  0  0  0  0  0  0
  -16.1709   -6.2016  -12.7270 C   0  0  0  0  0  0  0  0  0  0  0  0
  -16.7152   -5.1388  -11.9530 O   0  0  0  0  0  0  0  0  0  0  0  0
  -17.5052    2.1810  -16.2166 N   0  0  0  0  0  0  0  0  0  0  0  0
  -17.6259    2.2406  -17.2261 H   0  0  0  0  0  0  0  0  0  0  0  0
  -18.6343    1.8012  -15.4740 C   0  0  0  0  0  0  0  0  0  0  0  0
  -19.0835    0.4780  -15.4241 C   0  0  0  0  0  0  0  0  0  0  0  0
  -20.2695    0.1324  -14.7608 C   0  0  0  0  0  0  0  0  0  0  0  0
  -21.0688    1.0957  -14.1420 C   0  0  0  0  0  0  0  0  0  0  0  0
  -20.6023    2.4196  -14.1866 C   0  0  0  0  0  0  0  0  0  0  0  0
  -19.4050    2.7685  -14.8314 C   0  0  0  0  0  0  0  0  0  0  0  0
  -22.2493    0.7827  -13.4991 N   0  0  0  0  0  0  0  0  0  0  0  0
  -22.3008    0.1433  -12.1758 C   0  0  0  0  0  0  0  0  0  0  0  0
  -22.9317   -1.2534  -12.2655 C   0  0  0  0  0  0  0  0  0  0  0  0
  -24.2186   -1.2104  -12.9050 O   0  0  0  0  0  0  0  0  0  0  0  0
  -24.0888   -0.6910  -14.2389 C   0  0  0  0  0  0  0  0  0  0  0  0
  -23.5194    0.7394  -14.2440 C   0  0  0  0  0  0  0  0  0  0  0  0
 17 18  1  0  0  0
 18 11  1  0  0  0
 11 12  1  0  0  0
 11 16  2  0  0  0
 12 13  2  0  0  0
 13 14  1  0  0  0
 14  1  1  0  0  0
 14 15  2  0  0  0
  1  2  1  0  0  0
  1 10  2  0  0  0
  2  3  2  0  0  0
  3  4  1  0  0  0
  4  5  1  0  0  0
  4  9  2  0  0  0
  5  6  2  0  0  0
  6  7  1  0  0  0
  7  8  2  0  0  0
  8 19  1  0  0  0
  8  9  1  0  0  0
 19 21  1  0  0  0
 19 20  1  0  0  0
 21 22  1  0  0  0
 21 26  2  0  0  0
 22 23  2  0  0  0
 23 24  1  0  0  0
 24 27  1  0  0  0
 24 25  2  0  0  0
 27 28  1  0  0  0
 27 32  1  0  0  0
 28 29  1  0  0  0
 29 30  1  0  0  0
 30 31  1  0  0  0
 31 32  1  0  0  0
 25 26  1  0  0  0
  9 10  1  0  0  0
 15 16  1  0  0  0
M  END
> <minimizedAffinity>
-8.11496

$$$$
