CHEMBL401881


 38 44  0  0  0  0  0  0  0  0999 V2000
  -13.9245   -0.3873  -14.6570 C   0  0  0  0  0  0  0  0  0  0  0  0
  -12.9829   -0.1006  -15.6433 C   0  0  0  0  0  0  0  0  0  0  0  0
  -12.4187   -1.1146  -16.3738 C   0  0  0  0  0  0  0  0  0  0  0  0
  -12.6468   -2.4264  -15.9931 C   0  0  0  0  0  0  0  0  0  0  0  0
  -13.4821   -2.7924  -14.9114 C   0  0  0  0  0  0  0  0  0  0  0  0
  -14.1595   -1.7368  -14.2444 C   0  0  0  0  0  0  0  0  0  0  0  0
  -13.3694   -4.2022  -14.9247 C   0  0  0  0  0  0  0  0  0  0  0  0
  -14.0470   -5.1814  -14.1415 C   0  0  0  0  0  0  0  0  0  0  0  0
  -14.0031   -6.5930  -14.5820 C   0  0  0  0  0  0  0  0  0  0  0  0
  -13.2918   -7.1097  -15.6898 C   0  0  0  0  0  0  0  0  0  0  0  0
  -12.5194   -6.0987  -16.2522 C   0  0  0  0  0  0  0  0  0  0  0  0
  -12.5868   -4.7093  -15.9061 C   0  0  0  0  0  0  0  0  0  0  0  0
  -12.1726   -3.5767  -16.6002 N   0  0  0  0  0  0  0  0  0  0  0  0
  -11.9137   -6.4717  -17.5432 C   0  0  0  0  0  0  0  0  0  0  0  0
  -12.6039   -7.0696  -18.7302 C   0  0  0  0  0  0  0  0  0  0  0  0
  -13.6787   -7.9210  -18.1367 C   0  0  0  0  0  0  0  0  0  0  0  0
  -13.9336   -9.0333  -18.8293 N   0  0  0  0  0  0  0  0  0  0  0  0
  -12.9070   -9.7589  -18.3319 N   0  0  0  0  0  0  0  0  0  0  0  0
  -11.8925  -10.1260  -19.3272 C   0  0  0  0  0  0  0  0  0  0  0  0
  -12.7317   -9.3789  -16.9602 C   0  0  0  0  0  0  0  0  0  0  0  0
  -13.5862   -8.2592  -16.7034 C   0  0  0  0  0  0  0  0  0  0  0  0
  -14.7849   -7.3595  -13.5507 C   0  0  0  0  0  0  0  0  0  0  0  0
  -14.8941   -8.5701  -13.3841 O   0  0  0  0  0  0  0  0  0  0  0  0
  -15.2290   -6.4164  -12.7108 N   0  0  0  0  0  0  0  0  0  0  0  0
  -14.9284   -4.9779  -12.9982 C   0  0  0  0  0  0  0  0  0  0  0  0
  -15.6428   -6.6983  -11.8402 H   0  0  0  0  0  0  0  0  0  0  0  0
  -14.6240    0.7849  -14.0543 C   0  0  0  0  0  0  0  0  0  0  0  0
  -14.4124    0.9775  -12.8556 O   0  0  0  0  0  0  0  0  0  0  0  0
  -17.8155    0.5664  -14.9642 C   0  0  0  0  0  0  0  0  0  0  0  0
  -16.7908    1.6040  -15.3124 C   0  0  0  0  0  0  0  0  0  0  0  0
  -17.1281    2.7033  -16.1760 C   0  0  0  0  0  0  0  0  0  0  0  0
  -16.0758    3.5615  -16.3902 C   0  0  0  0  0  0  0  0  0  0  0  0
  -14.6783    3.0673  -15.5518 S   0  0  0  0  0  0  0  0  0  0  0  0
  -15.4545    1.6702  -14.8972 C   0  0  0  0  0  0  0  0  0  0  0  0
  -11.7693   -3.6354  -17.9845 C   0  0  0  0  0  0  0  0  0  0  0  0
  -12.4061   -3.1301  -19.2536 C   0  0  0  0  0  0  0  0  0  0  0  0
  -11.6523   -3.7267  -20.4347 C   0  0  0  0  0  0  0  0  0  0  0  0
  -13.8642   -3.6658  -19.2224 C   0  0  0  0  0  0  0  0  0  0  0  0
 29 30  1  0  0  0
 30 31  1  0  0  0
 30 34  2  0  0  0
 31 32  2  0  0  0
 32 33  1  0  0  0
 33 34  1  0  0  0
 34 27  1  0  0  0
 27 28  2  0  0  0
 27  1  1  0  0  0
  1  2  1  0  0  0
  1  6  2  0  0  0
  2  3  2  0  0  0
  3  4  1  0  0  0
  4  5  2  0  0  0
  4 13  1  0  0  0
  5  6  1  0  0  0
  5  7  1  0  0  0
  7  8  1  0  0  0
  7 12  2  0  0  0
  8  9  2  0  0  0
  8 25  1  0  0  0
  9 10  1  0  0  0
  9 22  1  0  0  0
 10 11  2  0  0  0
 10 21  1  0  0  0
 11 12  1  0  0  0
 11 14  1  0  0  0
 12 13  1  0  0  0
 13 35  1  0  0  0
 35 36  1  0  0  0
 36 37  1  0  0  0
 36 38  1  0  0  0
 14 15  1  0  0  0
 15 16  1  0  0  0
 16 17  2  0  0  0
 16 21  1  0  0  0
 17 18  1  0  0  0
 18 19  1  0  0  0
 18 20  1  0  0  0
 20 21  2  0  0  0
 22 23  2  0  0  0
 22 24  1  0  0  0
 24 25  1  0  0  0
 24 26  1  0  0  0
M  END
> <minimizedAffinity>
-7.52663

$$$$
