CHEMBL3828740


 38 43  0  0  0  0  0  0  0  0999 V2000
  -30.1220   -6.0589   -6.9262 C   0  0  0  0  0  0  0  0  0  0  0  0
  -30.6533   -5.8262   -5.6530 C   0  0  0  0  0  0  0  0  0  0  0  0
  -30.5901   -4.5644   -5.0446 C   0  0  0  0  0  0  0  0  0  0  0  0
  -29.9380   -3.5537   -5.7566 C   0  0  0  0  0  0  0  0  0  0  0  0
  -29.6761   -2.2434   -5.4555 N   0  0  0  0  0  0  0  0  0  0  0  0
  -28.9513   -1.5943   -6.3870 N   0  0  0  0  0  0  0  0  0  0  0  0
  -28.7826   -2.5179   -7.3466 C   0  0  0  0  0  0  0  0  0  0  0  0
  -29.3810   -3.7577   -7.0124 C   0  0  0  0  0  0  0  0  0  0  0  0
  -29.4763   -5.0280   -7.6124 C   0  0  0  0  0  0  0  0  0  0  0  0
  -29.9455   -1.7384   -4.6187 H   0  0  0  0  0  0  0  0  0  0  0  0
  -28.0044   -2.2272   -8.5823 C   0  0  0  0  0  0  0  0  0  0  0  0
  -26.7530   -1.8137   -8.6447 N   0  0  0  0  0  0  0  0  0  0  0  0
  -26.4878   -1.6492   -9.9836 C   0  0  0  0  0  0  0  0  0  0  0  0
  -25.3130   -1.2284  -10.6305 C   0  0  0  0  0  0  0  0  0  0  0  0
  -25.2804   -1.1216  -12.0317 C   0  0  0  0  0  0  0  0  0  0  0  0
  -26.4601   -1.4177  -12.7437 C   0  0  0  0  0  0  0  0  0  0  0  0
  -27.6469   -1.8364  -12.1298 C   0  0  0  0  0  0  0  0  0  0  0  0
  -27.6108   -1.9521  -10.7458 C   0  0  0  0  0  0  0  0  0  0  0  0
  -28.5504   -2.3400   -9.8323 N   0  0  0  0  0  0  0  0  0  0  0  0
  -29.5022   -2.6279  -10.0080 H   0  0  0  0  0  0  0  0  0  0  0  0
  -24.1695   -0.6752  -12.7347 N   0  0  0  0  0  0  0  0  0  0  0  0
  -22.8140   -0.7618  -12.1713 C   0  0  0  0  0  0  0  0  0  0  0  0
  -21.9420    0.3511  -12.8076 C   0  0  0  0  0  0  0  0  0  0  0  0
  -21.9065    0.2913  -14.2900 N   0  0  0  0  0  0  0  0  0  0  0  0
  -21.1542    1.4238  -14.8268 C   0  0  0  0  0  0  0  0  0  0  0  0
  -23.2914    0.2982  -14.8193 C   0  0  0  0  0  0  0  0  0  0  0  0
  -24.1778   -0.8099  -14.2047 C   0  0  0  0  0  0  0  0  0  0  0  0
  -30.2386   -7.3425   -7.3930 O   0  0  0  0  0  0  0  0  0  0  0  0
  -28.6683   -8.7630   -8.6162 C   0  0  0  0  0  0  0  0  0  0  0  0
  -29.0966   -8.2032   -7.2536 C   0  0  0  0  0  0  0  0  0  0  0  0
  -29.3697   -9.3744   -6.3084 C   0  0  0  0  0  0  0  0  0  0  0  0
  -28.5923   -9.5147   -5.1354 C   0  0  0  0  0  0  0  0  0  0  0  0
  -27.4112   -8.3547   -4.6330 Cl  0  0  0  0  0  0  0  0  0  0  0  0
  -28.7412  -10.6469   -4.3367 C   0  0  0  0  0  0  0  0  0  0  0  0
  -29.6090  -11.6459   -4.5960 N   0  0  0  0  0  0  0  0  0  0  0  0
  -30.3627  -11.4955   -5.7080 C   0  0  0  0  0  0  0  0  0  0  0  0
  -30.2830  -10.4092   -6.5826 C   0  0  0  0  0  0  0  0  0  0  0  0
  -31.3067  -10.4653   -7.9709 Cl  0  0  0  0  0  0  0  0  0  0  0  0
 29 30  1  0  0  0
 30 28  1  0  0  0
 30 31  1  0  0  0
 28  1  1  0  0  0
  1  2  1  0  0  0
  1  9  2  0  0  0
  2  3  2  0  0  0
  3  4  1  0  0  0
  4  5  1  0  0  0
  4  8  2  0  0  0
  5  6  1  0  0  0
  5 10  1  0  0  0
  6  7  2  0  0  0
  7 11  1  0  0  0
  7  8  1  0  0  0
 11 12  2  0  0  0
 11 19  1  0  0  0
 12 13  1  0  0  0
 13 14  1  0  0  0
 13 18  2  0  0  0
 14 15  2  0  0  0
 15 21  1  0  0  0
 15 16  1  0  0  0
 21 22  1  0  0  0
 21 27  1  0  0  0
 22 23  1  0  0  0
 23 24  1  0  0  0
 24 25  1  0  0  0
 24 26  1  0  0  0
 26 27  1  0  0  0
 16 17  2  0  0  0
 17 18  1  0  0  0
 18 19  1  0  0  0
 19 20  1  0  0  0
  8  9  1  0  0  0
 31 32  1  0  0  0
 31 37  2  0  0  0
 32 33  1  0  0  0
 32 34  2  0  0  0
 34 35  1  0  0  0
 35 36  2  0  0  0
 36 37  1  0  0  0
 37 38  1  0  0  0
M  END
> <minimizedAffinity>
-9.31452

$$$$
