CHEMBL151015


 31 33  0  0  0  0  0  0  0  0999 V2000
  -29.5263   -3.5617   -5.6832 C   0  0  0  0  0  0  0  0  0  0  0  0
  -30.0135   -4.4216   -6.6816 C   0  0  0  0  0  0  0  0  0  0  0  0
  -29.9839   -5.7979   -6.5513 C   0  0  0  0  0  0  0  0  0  0  0  0
  -30.3814   -6.5462   -7.5860 N   0  0  0  0  0  0  0  0  0  0  0  0
  -30.3331   -7.8676   -7.4217 C   0  0  0  0  0  0  0  0  0  0  0  0
  -29.9706   -8.4995   -6.3052 N   0  0  0  0  0  0  0  0  0  0  0  0
  -29.5899   -7.7368   -5.2604 C   0  0  0  0  0  0  0  0  0  0  0  0
  -29.5271   -6.3402   -5.3452 C   0  0  0  0  0  0  0  0  0  0  0  0
  -29.0117   -5.4858   -4.3401 C   0  0  0  0  0  0  0  0  0  0  0  0
  -28.9956   -4.1012   -4.5117 C   0  0  0  0  0  0  0  0  0  0  0  0
  -28.4000   -1.5377   -6.4651 C   0  0  0  0  0  0  0  0  0  0  0  0
  -27.3859   -2.0990   -6.8722 O   0  0  0  0  0  0  0  0  0  0  0  0
  -29.5080   -2.1769   -5.9292 N   0  0  0  0  0  0  0  0  0  0  0  0
  -30.3968   -1.6935   -5.9739 H   0  0  0  0  0  0  0  0  0  0  0  0
  -28.5474   -0.0205   -6.5145 C   0  0  0  0  0  0  0  0  0  0  0  0
  -30.4011    1.2480   -5.7980 C   0  0  0  0  0  0  0  0  0  0  0  0
  -29.2583    0.4932   -5.3943 O   0  0  0  0  0  0  0  0  0  0  0  0
  -29.2576   -8.3823   -4.0301 N   0  0  0  0  0  0  0  0  0  0  0  0
  -30.0774   -8.8904   -3.6956 H   0  0  0  0  0  0  0  0  0  0  0  0
  -28.0922   -9.1864   -3.9097 C   0  0  0  0  0  0  0  0  0  0  0  0
  -26.8508   -8.6746   -4.2927 C   0  0  0  0  0  0  0  0  0  0  0  0
  -25.7500   -9.5172   -4.4020 C   0  0  0  0  0  0  0  0  0  0  0  0
  -24.5737   -9.0198   -4.8848 O   0  0  0  0  0  0  0  0  0  0  0  0
  -25.8445  -10.8731   -4.0781 C   0  0  0  0  0  0  0  0  0  0  0  0
  -24.7127  -11.8266   -4.3234 C   0  0  0  0  0  0  0  0  0  0  0  0
  -27.0586  -11.3585   -3.5673 C   0  0  0  0  0  0  0  0  0  0  0  0
  -28.1685  -10.5195   -3.4923 C   0  0  0  0  0  0  0  0  0  0  0  0
  -29.3431  -11.0213   -3.0782 F   0  0  0  0  0  0  0  0  0  0  0  0
  -24.7486   -8.1403   -5.2606 H   0  0  0  0  0  0  0  0  0  0  0  0
  -28.4147   -3.3958   -3.4932 O   0  0  0  0  0  0  0  0  0  0  0  0
  -29.3070   -2.8032   -2.5530 C   0  0  0  0  0  0  0  0  0  0  0  0
 16 17  1  0  0  0
 17 15  1  0  0  0
 15 11  1  0  0  0
 11 12  2  0  0  0
 11 13  1  0  0  0
 13  1  1  0  0  0
 13 14  1  0  0  0
  1  2  1  0  0  0
  1 10  2  0  0  0
  2  3  2  0  0  0
  3  4  1  0  0  0
  3  8  1  0  0  0
  4  5  2  0  0  0
  5  6  1  0  0  0
  6  7  2  0  0  0
  7 18  1  0  0  0
  7  8  1  0  0  0
 18 20  1  0  0  0
 18 19  1  0  0  0
 20 21  1  0  0  0
 20 27  2  0  0  0
 21 22  2  0  0  0
 22 23  1  0  0  0
 22 24  1  0  0  0
 23 29  1  0  0  0
 24 25  1  0  0  0
 24 26  2  0  0  0
 26 27  1  0  0  0
 27 28  1  0  0  0
  8  9  2  0  0  0
  9 10  1  0  0  0
 10 30  1  0  0  0
 30 31  1  0  0  0
M  END
> <minimizedAffinity>
-7.72324

$$$$
