CHEMBL4577123


 35 38  0  0  0  0  0  0  0  0999 V2000
  -24.0255   -1.0689  -13.1760 C   0  0  0  0  0  0  0  0  0  0  0  0
  -25.3160   -1.3334  -13.6479 C   0  0  0  0  0  0  0  0  0  0  0  0
  -26.3737   -1.5481  -12.7614 C   0  0  0  0  0  0  0  0  0  0  0  0
  -26.1511   -1.4825  -11.3926 C   0  0  0  0  0  0  0  0  0  0  0  0
  -24.8556   -1.2727  -10.9002 C   0  0  0  0  0  0  0  0  0  0  0  0
  -23.7997   -1.0605  -11.7906 C   0  0  0  0  0  0  0  0  0  0  0  0
  -21.9391    0.9658  -12.9108 O   0  0  0  0  0  0  0  0  0  0  0  0
  -21.9844    0.2012  -13.8601 C   0  0  0  0  0  0  0  0  0  0  0  0
  -21.1072    0.2457  -14.9370 N   0  0  0  0  0  0  0  0  0  0  0  0
  -22.9273   -0.8010  -14.0256 N   0  0  0  0  0  0  0  0  0  0  0  0
  -21.3408   -0.3232  -15.7346 H   0  0  0  0  0  0  0  0  0  0  0  0
  -22.7669   -1.4612  -14.7693 H   0  0  0  0  0  0  0  0  0  0  0  0
  -20.0509    1.1689  -15.1179 C   0  0  0  0  0  0  0  0  0  0  0  0
  -20.2414    2.5442  -15.2824 C   0  0  0  0  0  0  0  0  0  0  0  0
  -19.1593    3.3936  -15.5229 C   0  0  0  0  0  0  0  0  0  0  0  0
  -17.8714    2.8727  -15.5892 C   0  0  0  0  0  0  0  0  0  0  0  0
  -17.6636    1.5088  -15.3926 C   0  0  0  0  0  0  0  0  0  0  0  0
  -18.7474    0.6600  -15.1514 C   0  0  0  0  0  0  0  0  0  0  0  0
  -27.2972   -1.6610  -10.4724 C   0  0  0  0  0  0  0  0  0  0  0  0
  -28.3620   -1.0995  -10.6965 O   0  0  0  0  0  0  0  0  0  0  0  0
  -27.0251   -2.5206   -9.4205 N   0  0  0  0  0  0  0  0  0  0  0  0
  -26.0627   -2.8304   -9.2923 H   0  0  0  0  0  0  0  0  0  0  0  0
  -28.0116   -3.3910   -9.0690 N   0  0  0  0  0  0  0  0  0  0  0  0
  -28.5239   -3.2254   -7.8934 C   0  0  0  0  0  0  0  0  0  0  0  0
  -28.3545   -2.0691   -6.9037 C   0  0  0  0  0  0  0  0  0  0  0  0
  -27.9909   -0.9479   -7.1810 O   0  0  0  0  0  0  0  0  0  0  0  0
  -28.5749   -2.6288   -5.6637 N   0  0  0  0  0  0  0  0  0  0  0  0
  -28.7092   -4.0091   -5.7932 C   0  0  0  0  0  0  0  0  0  0  0  0
  -28.3363   -4.9683   -4.8767 C   0  0  0  0  0  0  0  0  0  0  0  0
  -28.2948   -6.2988   -5.3257 C   0  0  0  0  0  0  0  0  0  0  0  0
  -28.7173   -6.6469   -6.6268 C   0  0  0  0  0  0  0  0  0  0  0  0
  -28.6371   -8.2874   -7.1376 Cl  0  0  0  0  0  0  0  0  0  0  0  0
  -29.0783   -5.6715   -7.5465 C   0  0  0  0  0  0  0  0  0  0  0  0
  -28.9858   -4.3660   -7.1115 C   0  0  0  0  0  0  0  0  0  0  0  0
  -28.5288   -2.1055   -4.8016 H   0  0  0  0  0  0  0  0  0  0  0  0
  7  8  2  0  0  0
  8  9  1  0  0  0
  8 10  1  0  0  0
  9 13  1  0  0  0
  9 11  1  0  0  0
 13 14  1  0  0  0
 13 18  2  0  0  0
 14 15  2  0  0  0
 15 16  1  0  0  0
 16 17  2  0  0  0
 17 18  1  0  0  0
 10  1  1  0  0  0
 10 12  1  0  0  0
  1  2  1  0  0  0
  1  6  2  0  0  0
  2  3  2  0  0  0
  3  4  1  0  0  0
  4 19  1  0  0  0
  4  5  2  0  0  0
 19 20  2  0  0  0
 19 21  1  0  0  0
 21 23  1  0  0  0
 21 22  1  0  0  0
 23 24  2  0  0  0
 24 25  1  0  0  0
 24 34  1  0  0  0
 25 26  2  0  0  0
 25 27  1  0  0  0
 27 28  1  0  0  0
 27 35  1  0  0  0
 28 29  1  0  0  0
 28 34  2  0  0  0
 29 30  2  0  0  0
 30 31  1  0  0  0
 31 32  1  0  0  0
 31 33  2  0  0  0
 33 34  1  0  0  0
  5  6  1  0  0  0
M  END
> <minimizedAffinity>
-11.26328

$$$$
