CHEMBL3930819


 32 35  0  0  0  0  0  0  0  0999 V2000
  -16.5170    1.2222  -15.3915 N   0  0  0  0  0  0  0  0  0  0  0  0
  -17.8302    1.7417  -15.2774 C   0  0  0  0  0  0  0  0  0  0  0  0
  -18.1230    3.0936  -15.4905 C   0  0  0  0  0  0  0  0  0  0  0  0
  -19.3913    3.6038  -15.2149 C   0  0  0  0  0  0  0  0  0  0  0  0
  -20.4068    2.7827  -14.7638 C   0  0  0  0  0  0  0  0  0  0  0  0
  -21.6014    3.3260  -14.4820 N   0  0  0  0  0  0  0  0  0  0  0  0
  -22.5572    2.4671  -14.0601 C   0  0  0  0  0  0  0  0  0  0  0  0
  -22.3443    1.1033  -13.9240 C   0  0  0  0  0  0  0  0  0  0  0  0
  -21.1315    0.5576  -14.1896 N   0  0  0  0  0  0  0  0  0  0  0  0
  -20.1619    1.3981  -14.6069 C   0  0  0  0  0  0  0  0  0  0  0  0
  -18.8860    0.9104  -14.8659 C   0  0  0  0  0  0  0  0  0  0  0  0
  -23.4056    0.2082  -13.5159 C   0  0  0  0  0  0  0  0  0  0  0  0
  -24.1143   -0.7758  -14.2410 C   0  0  0  0  0  0  0  0  0  0  0  0
  -25.0181   -1.4188  -13.4996 N   0  0  0  0  0  0  0  0  0  0  0  0
  -24.8889   -0.8496  -12.2865 N   0  0  0  0  0  0  0  0  0  0  0  0
  -25.7033   -1.3088  -11.1878 C   0  0  0  0  0  0  0  0  0  0  0  0
  -23.9408    0.1281  -12.2450 C   0  0  0  0  0  0  0  0  0  0  0  0
  -13.9628    3.6277  -16.7755 C   0  0  0  0  0  0  0  0  0  0  0  0
  -13.4691    2.9041  -17.8552 C   0  0  0  0  0  0  0  0  0  0  0  0
  -13.9708    1.6306  -18.1003 C   0  0  0  0  0  0  0  0  0  0  0  0
  -13.4974    0.9417  -19.1467 F   0  0  0  0  0  0  0  0  0  0  0  0
  -14.9591    1.0628  -17.3000 C   0  0  0  0  0  0  0  0  0  0  0  0
  -15.4830    1.7591  -16.2038 C   0  0  0  0  0  0  0  0  0  0  0  0
  -14.9539    3.0506  -15.9624 C   0  0  0  0  0  0  0  0  0  0  0  0
  -13.5589    4.8941  -16.4277 O   0  0  0  0  0  0  0  0  0  0  0  0
  -12.1502    6.3614  -15.1354 C   0  0  0  0  0  0  0  0  0  0  0  0
  -12.8753    5.0277  -15.1792 C   0  0  0  0  0  0  0  0  0  0  0  0
  -16.1824    0.0703  -14.5035 C   0  0  0  0  0  0  0  0  0  0  0  0
  -15.8425    0.4741  -13.0414 C   0  0  0  0  0  0  0  0  0  0  0  0
  -14.4256    0.7689  -12.8048 N   0  0  0  0  0  0  0  0  0  0  0  0
  -13.8927   -0.0889  -12.9680 H   0  0  0  0  0  0  0  0  0  0  0  0
  -14.2955    0.9931  -11.8186 H   0  0  0  0  0  0  0  0  0  0  0  0
 26 27  1  0  0  0
 27 25  1  0  0  0
 25 18  1  0  0  0
 18 19  1  0  0  0
 18 24  2  0  0  0
 19 20  2  0  0  0
 20 21  1  0  0  0
 20 22  1  0  0  0
 22 23  2  0  0  0
 23  1  1  0  0  0
 23 24  1  0  0  0
  1 28  1  0  0  0
  1  2  1  0  0  0
 28 29  1  0  0  0
 29 30  1  0  0  0
 30 31  1  0  0  0
 30 32  1  0  0  0
  2  3  1  0  0  0
  2 11  2  0  0  0
  3  4  2  0  0  0
  4  5  1  0  0  0
  5  6  1  0  0  0
  5 10  2  0  0  0
  6  7  2  0  0  0
  7  8  1  0  0  0
  8 12  1  0  0  0
  8  9  2  0  0  0
 12 13  1  0  0  0
 12 17  2  0  0  0
 13 14  2  0  0  0
 14 15  1  0  0  0
 15 16  1  0  0  0
 15 17  1  0  0  0
  9 10  1  0  0  0
 10 11  1  0  0  0
M  END
> <minimizedAffinity>
-8.64791

$$$$
