CHEMBL3594105


 50 55  0  0  0  0  0  0  0  0999 V2000
  -23.0086   -0.4944  -13.4528 C   0  0  0  0  0  0  0  0  0  0  0  0
  -24.1874   -1.1446  -13.8084 C   0  0  0  0  0  0  0  0  0  0  0  0
  -25.0510   -1.6395  -12.8198 C   0  0  0  0  0  0  0  0  0  0  0  0
  -24.7500   -1.5226  -11.4554 C   0  0  0  0  0  0  0  0  0  0  0  0
  -23.5962   -0.8219  -11.0986 C   0  0  0  0  0  0  0  0  0  0  0  0
  -22.7221   -0.3488  -12.0908 C   0  0  0  0  0  0  0  0  0  0  0  0
  -21.5829    0.2330  -11.6882 F   0  0  0  0  0  0  0  0  0  0  0  0
  -25.5379   -2.1278  -10.4329 N   0  0  0  0  0  0  0  0  0  0  0  0
  -26.8676   -1.8078  -10.2048 C   0  0  0  0  0  0  0  0  0  0  0  0
  -27.5001   -0.9562  -10.8226 O   0  0  0  0  0  0  0  0  0  0  0  0
  -25.1870   -2.9837  -10.0211 H   0  0  0  0  0  0  0  0  0  0  0  0
  -27.5743   -2.6277   -9.1715 C   0  0  0  0  0  0  0  0  0  0  0  0
  -27.6375   -3.9906   -9.1309 N   0  0  0  0  0  0  0  0  0  0  0  0
  -28.2302   -4.3894   -7.9069 C   0  0  0  0  0  0  0  0  0  0  0  0
  -28.3672   -5.5402   -7.5302 O   0  0  0  0  0  0  0  0  0  0  0  0
  -28.5973   -3.1700   -7.2701 N   0  0  0  0  0  0  0  0  0  0  0  0
  -28.1419   -2.1145   -8.0594 C   0  0  0  0  0  0  0  0  0  0  0  0
  -28.1861   -0.6877   -7.6209 C   0  0  0  0  0  0  0  0  0  0  0  0
  -27.2132   -4.6490   -9.7622 H   0  0  0  0  0  0  0  0  0  0  0  0
  -29.1903   -3.1014   -5.9883 C   0  0  0  0  0  0  0  0  0  0  0  0
  -30.4913   -3.5960   -5.8169 C   0  0  0  0  0  0  0  0  0  0  0  0
  -31.0551   -3.6811   -4.5392 C   0  0  0  0  0  0  0  0  0  0  0  0
  -30.3401   -3.2430   -3.4257 C   0  0  0  0  0  0  0  0  0  0  0  0
  -29.0624   -2.7088   -3.5879 C   0  0  0  0  0  0  0  0  0  0  0  0
  -28.4862   -2.6395   -4.8613 C   0  0  0  0  0  0  0  0  0  0  0  0
  -26.9234   -1.9061   -4.9902 Cl  0  0  0  0  0  0  0  0  0  0  0  0
  -22.1886   -0.1123  -14.4985 O   0  0  0  0  0  0  0  0  0  0  0  0
  -18.0498    0.7464  -15.1208 C   0  0  0  0  0  0  0  0  0  0  0  0
  -19.4152    0.4493  -15.0032 C   0  0  0  0  0  0  0  0  0  0  0  0
  -20.3821    1.4580  -14.8053 C   0  0  0  0  0  0  0  0  0  0  0  0
  -21.7601    1.2008  -14.5920 C   0  0  0  0  0  0  0  0  0  0  0  0
  -22.6577    2.2589  -14.5230 C   0  0  0  0  0  0  0  0  0  0  0  0
  -22.1431    3.5358  -14.5343 C   0  0  0  0  0  0  0  0  0  0  0  0
  -20.8300    3.8208  -14.6624 N   0  0  0  0  0  0  0  0  0  0  0  0
  -19.9646    2.8033  -14.8124 C   0  0  0  0  0  0  0  0  0  0  0  0
  -18.6151    3.0904  -15.0003 C   0  0  0  0  0  0  0  0  0  0  0  0
  -17.6510    2.0911  -15.1926 C   0  0  0  0  0  0  0  0  0  0  0  0
  -16.2636   -0.4314  -14.0251 C   0  0  0  0  0  0  0  0  0  0  0  0
  -17.0863   -0.2223  -15.1668 O   0  0  0  0  0  0  0  0  0  0  0  0
  -16.3787    2.5764  -15.4347 O   0  0  0  0  0  0  0  0  0  0  0  0
  -16.2872    3.5843  -16.4515 C   0  0  0  0  0  0  0  0  0  0  0  0
  -14.9401    4.3161  -16.4068 C   0  0  0  0  0  0  0  0  0  0  0  0
  -13.7868    3.4028  -16.8763 C   0  0  0  0  0  0  0  0  0  0  0  0
  -12.7235    3.2203  -15.8805 N   0  0  0  0  0  0  0  0  0  0  0  0
  -12.6798    4.2720  -14.8508 C   0  0  0  0  0  0  0  0  0  0  0  0
  -11.4497    4.0786  -13.9315 C   0  0  0  0  0  0  0  0  0  0  0  0
  -11.3783    2.7704  -13.2509 N   0  0  0  0  0  0  0  0  0  0  0  0
  -12.3111    2.6943  -12.1315 C   0  0  0  0  0  0  0  0  0  0  0  0
  -11.6047    1.6901  -14.2336 C   0  0  0  0  0  0  0  0  0  0  0  0
  -12.7867    1.9040  -15.2177 C   0  0  0  0  0  0  0  0  0  0  0  0
 38 39  1  0  0  0
 39 28  1  0  0  0
 28 29  1  0  0  0
 28 37  2  0  0  0
 29 30  2  0  0  0
 30 31  1  0  0  0
 30 35  1  0  0  0
 31 27  1  0  0  0
 31 32  2  0  0  0
 27  1  1  0  0  0
  1  2  1  0  0  0
  1  6  2  0  0  0
  2  3  2  0  0  0
  3  4  1  0  0  0
  4  8  1  0  0  0
  4  5  2  0  0  0
  8  9  1  0  0  0
  8 11  1  0  0  0
  9 10  2  0  0  0
  9 12  1  0  0  0
 12 13  1  0  0  0
 12 17  2  0  0  0
 13 14  1  0  0  0
 13 19  1  0  0  0
 14 15  2  0  0  0
 14 16  1  0  0  0
 16 20  1  0  0  0
 16 17  1  0  0  0
 20 21  1  0  0  0
 20 25  2  0  0  0
 21 22  2  0  0  0
 22 23  1  0  0  0
 23 24  2  0  0  0
 24 25  1  0  0  0
 25 26  1  0  0  0
 17 18  1  0  0  0
  5  6  1  0  0  0
  6  7  1  0  0  0
 32 33  1  0  0  0
 33 34  2  0  0  0
 34 35  1  0  0  0
 35 36  2  0  0  0
 36 37  1  0  0  0
 37 40  1  0  0  0
 40 41  1  0  0  0
 41 42  1  0  0  0
 42 43  1  0  0  0
 43 44  1  0  0  0
 44 45  1  0  0  0
 44 50  1  0  0  0
 45 46  1  0  0  0
 46 47  1  0  0  0
 47 48  1  0  0  0
 47 49  1  0  0  0
 49 50  1  0  0  0
M  END
> <minimizedAffinity>
-9.62151

$$$$
