CHEMBL4537518


 29 32  0  0  0  0  0  0  0  0999 V2000
  -30.1849   -6.0461   -6.1477 C   0  0  0  0  0  0  0  0  0  0  0  0
  -29.8024   -5.8623   -4.6877 C   0  0  0  0  0  0  0  0  0  0  0  0
  -30.3720   -4.9072   -3.9222 C   0  0  0  0  0  0  0  0  0  0  0  0
  -31.6935   -4.2454   -3.9672 C   0  0  0  0  0  0  0  0  0  0  0  0
  -29.1945   -4.2684   -3.2734 C   0  0  0  0  0  0  0  0  0  0  0  0
  -29.1564   -3.1612   -2.7723 O   0  0  0  0  0  0  0  0  0  0  0  0
  -28.1073   -5.0827   -3.5159 N   0  0  0  0  0  0  0  0  0  0  0  0
  -28.5483   -6.3391   -4.0019 C   0  0  0  0  0  0  0  0  0  0  0  0
  -28.9697   -6.9824   -2.7973 O   0  0  0  0  0  0  0  0  0  0  0  0
  -27.4565   -7.2374   -4.6093 C   0  0  0  0  0  0  0  0  0  0  0  0
  -27.7922   -8.7111   -4.8516 C   0  0  0  0  0  0  0  0  0  0  0  0
  -26.7325   -9.5020   -5.5689 C   0  0  0  0  0  0  0  0  0  0  0  0
  -28.2138   -9.5212   -3.7297 O   0  0  0  0  0  0  0  0  0  0  0  0
  -29.2456   -9.1760   -4.6453 C   0  0  0  0  0  0  0  0  0  0  0  0
  -29.8782  -10.1871   -5.5402 C   0  0  0  0  0  0  0  0  0  0  0  0
  -29.7108   -9.8842   -7.0457 C   0  0  0  0  0  0  0  0  0  0  0  0
  -29.6060   -8.4057   -7.3987 C   0  0  0  0  0  0  0  0  0  0  0  0
  -28.4866   -8.0500   -8.3438 C   0  0  0  0  0  0  0  0  0  0  0  0
  -30.8094   -7.7666   -7.8958 O   0  0  0  0  0  0  0  0  0  0  0  0
  -30.4835   -7.4507   -6.5519 C   0  0  0  0  0  0  0  0  0  0  0  0
  -27.1605   -4.7366   -3.4453 H   0  0  0  0  0  0  0  0  0  0  0  0
  -28.2752   -6.7903   -2.1488 H   0  0  0  0  0  0  0  0  0  0  0  0
  -29.1315   -5.4242   -6.8960 O   0  0  0  0  0  0  0  0  0  0  0  0
  -29.5097   -4.3191   -7.6229 C   0  0  0  0  0  0  0  0  0  0  0  0
  -30.5512   -4.2109   -8.2480 O   0  0  0  0  0  0  0  0  0  0  0  0
  -27.5330   -1.4689   -5.8279 C   0  0  0  0  0  0  0  0  0  0  0  0
  -28.4289   -2.6076   -6.2015 C   0  0  0  0  0  0  0  0  0  0  0  0
  -28.5581   -3.1811   -7.4111 C   0  0  0  0  0  0  0  0  0  0  0  0
  -27.8223   -2.7100   -8.6391 C   0  0  0  0  0  0  0  0  0  0  0  0
 26 27  1  0  0  0
 27 28  2  0  0  0
 28 29  1  0  0  0
 28 24  1  0  0  0
 24 25  2  0  0  0
 24 23  1  0  0  0
 23  1  1  0  0  0
  1  2  1  0  0  0
  1 20  1  0  0  0
  2  3  2  0  0  0
  2  8  1  0  0  0
  3  4  1  0  0  0
  3  5  1  0  0  0
  5  6  2  0  0  0
  5  7  1  0  0  0
  7  8  1  0  0  0
  7 21  1  0  0  0
  8  9  1  0  0  0
  8 10  1  0  0  0
  9 22  1  0  0  0
 10 11  1  0  0  0
 11 12  1  0  0  0
 11 13  1  0  0  0
 11 14  1  0  0  0
 13 14  1  0  0  0
 14 15  1  0  0  0
 15 16  1  0  0  0
 16 17  1  0  0  0
 17 18  1  0  0  0
 17 19  1  0  0  0
 17 20  1  0  0  0
 19 20  1  0  0  0
M  END
> <minimizedAffinity>
-8.15788

$$$$
