CHEMBL3946238


 38 41  0  0  0  0  0  0  0  0999 V2000
  -29.5521   -9.5481   -7.0492 C   0  0  0  0  0  0  0  0  0  0  0  0
  -30.8296  -10.1019   -7.1464 C   0  0  0  0  0  0  0  0  0  0  0  0
  -31.9457   -9.2714   -7.2108 C   0  0  0  0  0  0  0  0  0  0  0  0
  -33.1665   -9.8179   -7.2963 F   0  0  0  0  0  0  0  0  0  0  0  0
  -31.8169   -7.8883   -7.2145 C   0  0  0  0  0  0  0  0  0  0  0  0
  -30.5484   -7.3252   -7.1216 C   0  0  0  0  0  0  0  0  0  0  0  0
  -29.4270   -8.1545   -6.9593 C   0  0  0  0  0  0  0  0  0  0  0  0
  -27.1685   -9.2160   -5.4271 O   0  0  0  0  0  0  0  0  0  0  0  0
  -27.2514  -10.1084   -6.2594 C   0  0  0  0  0  0  0  0  0  0  0  0
  -28.3535  -10.3035   -7.0807 N   0  0  0  0  0  0  0  0  0  0  0  0
  -26.2796  -11.0767   -6.4772 N   0  0  0  0  0  0  0  0  0  0  0  0
  -28.3937  -11.1824   -7.5740 H   0  0  0  0  0  0  0  0  0  0  0  0
  -26.3966  -11.6659   -7.2877 H   0  0  0  0  0  0  0  0  0  0  0  0
  -25.0813  -11.2455   -5.7428 C   0  0  0  0  0  0  0  0  0  0  0  0
  -25.0347  -11.3733   -4.3548 C   0  0  0  0  0  0  0  0  0  0  0  0
  -23.8155  -11.5104   -3.6913 C   0  0  0  0  0  0  0  0  0  0  0  0
  -22.6122  -11.5365   -4.3992 C   0  0  0  0  0  0  0  0  0  0  0  0
  -21.1754  -11.6919   -3.4602 Cl  0  0  0  0  0  0  0  0  0  0  0  0
  -22.6222  -11.4375   -5.7929 C   0  0  0  0  0  0  0  0  0  0  0  0
  -23.8722  -11.2929   -6.4500 C   0  0  0  0  0  0  0  0  0  0  0  0
  -21.3874  -11.4893   -6.6547 C   0  0  0  0  0  0  0  0  0  0  0  0
  -20.6580  -10.3481   -6.7498 F   0  0  0  0  0  0  0  0  0  0  0  0
  -20.5154  -12.4457   -6.2223 F   0  0  0  0  0  0  0  0  0  0  0  0
  -21.6876  -11.8339   -7.9409 F   0  0  0  0  0  0  0  0  0  0  0  0
  -30.4813   -5.9473   -7.1627 O   0  0  0  0  0  0  0  0  0  0  0  0
  -30.1093   -5.2418   -6.0346 C   0  0  0  0  0  0  0  0  0  0  0  0
  -29.6694   -5.8264   -4.8510 C   0  0  0  0  0  0  0  0  0  0  0  0
  -29.4035   -4.9964   -3.7853 C   0  0  0  0  0  0  0  0  0  0  0  0
  -29.4860   -3.6582   -3.8531 N   0  0  0  0  0  0  0  0  0  0  0  0
  -29.8220   -3.0825   -5.0212 C   0  0  0  0  0  0  0  0  0  0  0  0
  -30.1461   -3.8465   -6.1379 C   0  0  0  0  0  0  0  0  0  0  0  0
  -29.8414   -1.6806   -5.1209 N   0  0  0  0  0  0  0  0  0  0  0  0
  -28.7028   -0.8989   -5.1454 C   0  0  0  0  0  0  0  0  0  0  0  0
  -27.5447   -1.2750   -5.0596 O   0  0  0  0  0  0  0  0  0  0  0  0
  -30.7380   -1.2324   -5.2168 H   0  0  0  0  0  0  0  0  0  0  0  0
  -28.9011    0.5767   -5.2967 C   0  0  0  0  0  0  0  0  0  0  0  0
  -30.1071    1.2811   -5.8599 C   0  0  0  0  0  0  0  0  0  0  0  0
  -28.8444    1.2072   -6.6702 C   0  0  0  0  0  0  0  0  0  0  0  0
  8  9  2  0  0  0
  9 10  1  0  0  0
  9 11  1  0  0  0
 10  1  1  0  0  0
 10 12  1  0  0  0
  1  2  1  0  0  0
  1  7  2  0  0  0
  2  3  2  0  0  0
  3  4  1  0  0  0
  3  5  1  0  0  0
  5  6  2  0  0  0
  6 25  1  0  0  0
  6  7  1  0  0  0
 25 26  1  0  0  0
 26 27  1  0  0  0
 26 31  2  0  0  0
 27 28  2  0  0  0
 28 29  1  0  0  0
 29 30  2  0  0  0
 30 32  1  0  0  0
 30 31  1  0  0  0
 32 33  1  0  0  0
 32 35  1  0  0  0
 33 34  2  0  0  0
 33 36  1  0  0  0
 36 37  1  0  0  0
 36 38  1  0  0  0
 37 38  1  0  0  0
 11 14  1  0  0  0
 11 13  1  0  0  0
 14 15  1  0  0  0
 14 20  2  0  0  0
 15 16  2  0  0  0
 16 17  1  0  0  0
 17 18  1  0  0  0
 17 19  2  0  0  0
 19 21  1  0  0  0
 19 20  1  0  0  0
 21 22  1  0  0  0
 21 23  1  0  0  0
 21 24  1  0  0  0
M  END
> <minimizedAffinity>
-9.72114

$$$$
