CHEMBL3219511


 27 29  0  0  0  0  0  0  0  0999 V2000
  -28.5399   -0.9945   -6.1318 C   0  0  0  0  0  0  0  0  0  0  0  0
  -29.3527   -1.3912   -5.0510 C   0  0  0  0  0  0  0  0  0  0  0  0
  -29.6408   -2.7322   -4.8229 C   0  0  0  0  0  0  0  0  0  0  0  0
  -30.3914   -3.0719   -3.7442 N   0  0  0  0  0  0  0  0  0  0  0  0
  -30.6547   -4.3671   -3.4641 C   0  0  0  0  0  0  0  0  0  0  0  0
  -30.1509   -5.3405   -4.2552 N   0  0  0  0  0  0  0  0  0  0  0  0
  -29.3908   -5.0750   -5.3547 C   0  0  0  0  0  0  0  0  0  0  0  0
  -29.1299   -3.7273   -5.6851 C   0  0  0  0  0  0  0  0  0  0  0  0
  -28.3535   -3.3364   -6.7874 C   0  0  0  0  0  0  0  0  0  0  0  0
  -28.0524   -1.9887   -7.0254 C   0  0  0  0  0  0  0  0  0  0  0  0
  -29.1158    1.3247   -6.6350 C   0  0  0  0  0  0  0  0  0  0  0  0
  -28.2225    0.3143   -6.3093 O   0  0  0  0  0  0  0  0  0  0  0  0
  -28.8924   -6.1746   -6.1182 N   0  0  0  0  0  0  0  0  0  0  0  0
  -27.9106   -6.1736   -6.4395 H   0  0  0  0  0  0  0  0  0  0  0  0
  -29.7357   -7.2556   -6.5239 C   0  0  0  0  0  0  0  0  0  0  0  0
  -30.9134   -7.0089   -7.2431 C   0  0  0  0  0  0  0  0  0  0  0  0
  -31.7551   -8.0708   -7.6035 C   0  0  0  0  0  0  0  0  0  0  0  0
  -31.4126   -9.3924   -7.2693 C   0  0  0  0  0  0  0  0  0  0  0  0
  -30.2161   -9.6430   -6.5894 C   0  0  0  0  0  0  0  0  0  0  0  0
  -29.3878   -8.5898   -6.2262 C   0  0  0  0  0  0  0  0  0  0  0  0
  -32.3585  -10.5982   -7.6257 B   0  0  0  0  0  0  0  0  0  0  0  0
  -33.4670  -10.9545   -6.7413 O   0  0  0  0  0  0  0  0  0  0  0  0
  -32.0923  -11.4104   -8.8140 O   0  0  0  0  0  0  0  0  0  0  0  0
  -33.0414  -11.1848   -5.8763 H   0  0  0  0  0  0  0  0  0  0  0  0
  -32.3716  -10.8451   -9.5785 H   0  0  0  0  0  0  0  0  0  0  0  0
  -27.2598   -1.7400   -8.1037 O   0  0  0  0  0  0  0  0  0  0  0  0
  -27.4797   -2.0459   -9.4276 C   0  0  0  0  0  0  0  0  0  0  0  0
 11 12  1  0  0  0
 12  1  1  0  0  0
  1  2  1  0  0  0
  1 10  2  0  0  0
  2  3  2  0  0  0
  3  4  1  0  0  0
  3  8  1  0  0  0
  4  5  2  0  0  0
  5  6  1  0  0  0
  6  7  2  0  0  0
  7 13  1  0  0  0
  7  8  1  0  0  0
 13 15  1  0  0  0
 13 14  1  0  0  0
 15 16  1  0  0  0
 15 20  2  0  0  0
 16 17  2  0  0  0
 17 18  1  0  0  0
 18 21  1  0  0  0
 18 19  2  0  0  0
 21 22  1  0  0  0
 21 23  1  0  0  0
 22 24  1  0  0  0
 23 25  1  0  0  0
 19 20  1  0  0  0
  8  9  2  0  0  0
  9 10  1  0  0  0
 10 26  1  0  0  0
 26 27  1  0  0  0
M  END
> <minimizedAffinity>
-7.86579

$$$$
