CHEMBL1688346


 32 36  0  0  0  0  0  0  0  0999 V2000
  -15.9921   -3.6526  -11.2977 C   0  0  0  0  0  0  0  0  0  0  0  0
  -16.3451   -4.9490  -11.1044 N   0  0  0  0  0  0  0  0  0  0  0  0
  -16.7152   -5.7003  -12.1608 C   0  0  0  0  0  0  0  0  0  0  0  0
  -16.7749   -5.2202  -13.4489 C   0  0  0  0  0  0  0  0  0  0  0  0
  -16.4428   -3.8868  -13.6542 C   0  0  0  0  0  0  0  0  0  0  0  0
  -16.0403   -3.0728  -12.5774 C   0  0  0  0  0  0  0  0  0  0  0  0
  -15.6406   -1.7056  -12.8741 C   0  0  0  0  0  0  0  0  0  0  0  0
  -15.0093   -0.8362  -12.1118 N   0  0  0  0  0  0  0  0  0  0  0  0
  -14.9920    0.3505  -12.8096 N   0  0  0  0  0  0  0  0  0  0  0  0
  -15.6425    0.1462  -13.9325 C   0  0  0  0  0  0  0  0  0  0  0  0
  -16.0887   -1.1443  -14.0489 O   0  0  0  0  0  0  0  0  0  0  0  0
  -15.9804    0.9775  -14.9394 N   0  0  0  0  0  0  0  0  0  0  0  0
  -15.3505    1.0498  -15.7260 H   0  0  0  0  0  0  0  0  0  0  0  0
  -17.1724    1.7188  -15.0558 C   0  0  0  0  0  0  0  0  0  0  0  0
  -17.2296    2.9875  -15.6777 C   0  0  0  0  0  0  0  0  0  0  0  0
  -18.4233    3.7186  -15.7575 C   0  0  0  0  0  0  0  0  0  0  0  0
  -19.5447    3.1722  -15.1760 C   0  0  0  0  0  0  0  0  0  0  0  0
  -19.5020    1.9569  -14.5438 C   0  0  0  0  0  0  0  0  0  0  0  0
  -18.3450    1.2091  -14.4691 C   0  0  0  0  0  0  0  0  0  0  0  0
  -20.7076    1.6079  -14.0132 O   0  0  0  0  0  0  0  0  0  0  0  0
  -21.4996    2.7627  -14.3612 C   0  0  0  0  0  0  0  0  0  0  0  0
  -20.7801    3.7393  -15.1425 O   0  0  0  0  0  0  0  0  0  0  0  0
  -15.6647   -2.8976  -10.1440 N   0  0  0  0  0  0  0  0  0  0  0  0
  -15.4112   -1.9523  -10.4190 H   0  0  0  0  0  0  0  0  0  0  0  0
  -14.5925   -3.5408   -9.3636 C   0  0  0  0  0  0  0  0  0  0  0  0
  -13.2361   -3.3977  -10.0615 C   0  0  0  0  0  0  0  0  0  0  0  0
  -12.2475   -6.8491  -11.3533 C   0  0  0  0  0  0  0  0  0  0  0  0
  -11.1984   -7.1099  -10.4869 C   0  0  0  0  0  0  0  0  0  0  0  0
  -10.7853   -6.2493   -9.5345 N   0  0  0  0  0  0  0  0  0  0  0  0
  -11.4602   -5.0806   -9.4373 C   0  0  0  0  0  0  0  0  0  0  0  0
  -12.5366   -4.7236  -10.2442 C   0  0  0  0  0  0  0  0  0  0  0  0
  -12.9196   -5.6341  -11.2331 C   0  0  0  0  0  0  0  0  0  0  0  0
 27 28  1  0  0  0
 27 32  2  0  0  0
 28 29  2  0  0  0
 29 30  1  0  0  0
 30 31  2  0  0  0
 31 26  1  0  0  0
 31 32  1  0  0  0
 26 25  1  0  0  0
 25 23  1  0  0  0
 23  1  1  0  0  0
 23 24  1  0  0  0
  1  2  1  0  0  0
  1  6  2  0  0  0
  2  3  2  0  0  0
  3  4  1  0  0  0
  4  5  2  0  0  0
  5  6  1  0  0  0
  6  7  1  0  0  0
  7  8  2  0  0  0
  7 11  1  0  0  0
  8  9  1  0  0  0
  9 10  2  0  0  0
 10 12  1  0  0  0
 10 11  1  0  0  0
 12 14  1  0  0  0
 12 13  1  0  0  0
 14 15  1  0  0  0
 14 19  2  0  0  0
 15 16  2  0  0  0
 16 17  1  0  0  0
 17 18  2  0  0  0
 17 22  1  0  0  0
 18 19  1  0  0  0
 18 20  1  0  0  0
 20 21  1  0  0  0
 21 22  1  0  0  0
M  END
> <minimizedAffinity>
-9.08069

$$$$
