CHEMBL1969042


 32 35  0  0  0  0  0  0  0  0999 V2000
  -28.6558   -4.2672   -6.3353 C   0  0  0  0  0  0  0  0  0  0  0  0
  -28.1063   -4.5291   -7.5598 N   0  0  0  0  0  0  0  0  0  0  0  0
  -28.5531   -5.6426   -8.1457 N   0  0  0  0  0  0  0  0  0  0  0  0
  -29.4425   -6.1422   -7.2708 C   0  0  0  0  0  0  0  0  0  0  0  0
  -29.5341   -5.3120   -6.0916 C   0  0  0  0  0  0  0  0  0  0  0  0
  -27.3900   -3.9882   -8.0282 H   0  0  0  0  0  0  0  0  0  0  0  0
  -30.1386   -7.3925   -7.5939 C   0  0  0  0  0  0  0  0  0  0  0  0
  -31.4674   -7.5789   -7.1741 C   0  0  0  0  0  0  0  0  0  0  0  0
  -32.1658   -8.7428   -7.5060 C   0  0  0  0  0  0  0  0  0  0  0  0
  -31.5344   -9.7213   -8.2653 C   0  0  0  0  0  0  0  0  0  0  0  0
  -32.1776  -10.8683   -8.6236 O   0  0  0  0  0  0  0  0  0  0  0  0
  -30.2191   -9.5621   -8.6819 C   0  0  0  0  0  0  0  0  0  0  0  0
  -29.5147   -8.4094   -8.3282 C   0  0  0  0  0  0  0  0  0  0  0  0
  -33.0549  -10.8719   -8.2071 H   0  0  0  0  0  0  0  0  0  0  0  0
  -30.3383   -5.4640   -4.8783 C   0  0  0  0  0  0  0  0  0  0  0  0
  -31.3294   -4.5214   -4.5616 C   0  0  0  0  0  0  0  0  0  0  0  0
  -32.0388   -4.5923   -3.3589 C   0  0  0  0  0  0  0  0  0  0  0  0
  -31.7975   -5.6431   -2.4869 C   0  0  0  0  0  0  0  0  0  0  0  0
  -32.4765   -5.7611   -1.3121 O   0  0  0  0  0  0  0  0  0  0  0  0
  -30.8411   -6.6109   -2.7911 C   0  0  0  0  0  0  0  0  0  0  0  0
  -30.1062   -6.5109   -3.9747 C   0  0  0  0  0  0  0  0  0  0  0  0
  -33.1068   -5.0248   -1.2416 H   0  0  0  0  0  0  0  0  0  0  0  0
  -28.2231   -3.2137   -5.5950 N   0  0  0  0  0  0  0  0  0  0  0  0
  -27.7970   -3.3899   -4.6868 H   0  0  0  0  0  0  0  0  0  0  0  0
  -29.2748    2.1135   -6.8846 O   0  0  0  0  0  0  0  0  0  0  0  0
  -29.0295    0.8238   -6.5207 C   0  0  0  0  0  0  0  0  0  0  0  0
  -29.7570    0.2067   -5.5120 C   0  0  0  0  0  0  0  0  0  0  0  0
  -29.4752   -1.1216   -5.1782 C   0  0  0  0  0  0  0  0  0  0  0  0
  -28.4705   -1.8443   -5.8428 C   0  0  0  0  0  0  0  0  0  0  0  0
  -27.7502   -1.1949   -6.8543 C   0  0  0  0  0  0  0  0  0  0  0  0
  -28.0263    0.1349   -7.1912 C   0  0  0  0  0  0  0  0  0  0  0  0
  -29.9907    2.4641   -6.3280 H   0  0  0  0  0  0  0  0  0  0  0  0
 25 26  1  0  0  0
 25 32  1  0  0  0
 26 27  1  0  0  0
 26 31  2  0  0  0
 27 28  2  0  0  0
 28 29  1  0  0  0
 29 23  1  0  0  0
 29 30  2  0  0  0
 23  1  1  0  0  0
 23 24  1  0  0  0
  1  2  1  0  0  0
  1  5  2  0  0  0
  2  3  1  0  0  0
  2  6  1  0  0  0
  3  4  2  0  0  0
  4  7  1  0  0  0
  4  5  1  0  0  0
  7  8  1  0  0  0
  7 13  2  0  0  0
  8  9  2  0  0  0
  9 10  1  0  0  0
 10 11  1  0  0  0
 10 12  2  0  0  0
 11 14  1  0  0  0
 12 13  1  0  0  0
  5 15  1  0  0  0
 15 16  1  0  0  0
 15 21  2  0  0  0
 16 17  2  0  0  0
 17 18  1  0  0  0
 18 19  1  0  0  0
 18 20  2  0  0  0
 19 22  1  0  0  0
 20 21  1  0  0  0
 30 31  1  0  0  0
M  END
> <minimizedAffinity>
-9.66256

$$$$
