CHEMBL3577117


 36 38  0  0  0  0  0  0  0  0999 V2000
  -13.5651   -4.9927  -12.6370 C   0  0  0  0  0  0  0  0  0  0  0  0
  -13.6363   -6.0508  -13.5678 C   0  0  0  0  0  0  0  0  0  0  0  0
  -13.4498   -7.3949  -13.2347 C   0  0  0  0  0  0  0  0  0  0  0  0
  -12.9509   -7.6724  -11.9728 C   0  0  0  0  0  0  0  0  0  0  0  0
  -12.7272   -8.9437  -11.6002 F   0  0  0  0  0  0  0  0  0  0  0  0
  -12.6605   -6.6427  -11.0782 C   0  0  0  0  0  0  0  0  0  0  0  0
  -12.9874   -5.3000  -11.3801 C   0  0  0  0  0  0  0  0  0  0  0  0
  -12.6941   -4.2722  -10.3180 C   0  0  0  0  0  0  0  0  0  0  0  0
  -15.2843    0.8926  -14.8385 C   0  0  0  0  0  0  0  0  0  0  0  0
  -15.9329    0.0121  -13.9818 C   0  0  0  0  0  0  0  0  0  0  0  0
  -15.3610   -1.2036  -13.6646 C   0  0  0  0  0  0  0  0  0  0  0  0
  -16.0099   -2.0441  -12.8526 N   0  0  0  0  0  0  0  0  0  0  0  0
  -15.4468   -3.2394  -12.5271 C   0  0  0  0  0  0  0  0  0  0  0  0
  -16.3236   -4.0293  -11.5907 C   0  0  0  0  0  0  0  0  0  0  0  0
  -14.1934   -3.6844  -13.0249 C   0  0  0  0  0  0  0  0  0  0  0  0
  -13.5616   -2.7899  -13.9022 C   0  0  0  0  0  0  0  0  0  0  0  0
  -14.1207   -1.5307  -14.2044 C   0  0  0  0  0  0  0  0  0  0  0  0
  -13.5120   -0.5763  -15.0170 C   0  0  0  0  0  0  0  0  0  0  0  0
  -14.0648    0.6155  -15.3363 N   0  0  0  0  0  0  0  0  0  0  0  0
  -17.2529    1.9658  -15.7061 C   0  0  0  0  0  0  0  0  0  0  0  0
  -15.9246    2.1091  -15.1358 N   0  0  0  0  0  0  0  0  0  0  0  0
  -15.9318    2.6918  -14.3035 H   0  0  0  0  0  0  0  0  0  0  0  0
  -13.8159   -8.4609  -14.0995 N   0  0  0  0  0  0  0  0  0  0  0  0
  -13.1336   -8.8339  -15.2306 C   0  0  0  0  0  0  0  0  0  0  0  0
  -12.0602   -8.3718  -15.6035 O   0  0  0  0  0  0  0  0  0  0  0  0
  -13.7440   -9.8465  -15.9454 N   0  0  0  0  0  0  0  0  0  0  0  0
  -14.5903   -9.0409  -13.8044 H   0  0  0  0  0  0  0  0  0  0  0  0
  -14.7543   -9.8206  -16.0030 H   0  0  0  0  0  0  0  0  0  0  0  0
  -13.0284  -10.2577  -17.1467 C   0  0  0  0  0  0  0  0  0  0  0  0
  -13.6385  -11.4449  -17.9034 C   0  0  0  0  0  0  0  0  0  0  0  0
  -14.9237  -11.7324  -17.3315 O   0  0  0  0  0  0  0  0  0  0  0  0
  -15.4848  -10.9443  -17.4316 H   0  0  0  0  0  0  0  0  0  0  0  0
  -13.7535  -11.1973  -19.4490 C   0  0  0  0  0  0  0  0  0  0  0  0
  -13.6709   -9.6897  -19.7703 C   0  0  0  0  0  0  0  0  0  0  0  0
  -12.5905  -11.8968  -20.1798 C   0  0  0  0  0  0  0  0  0  0  0  0
  -15.0745  -11.7415  -20.0320 C   0  0  0  0  0  0  0  0  0  0  0  0
 20 21  1  0  0  0
 21  9  1  0  0  0
 21 22  1  0  0  0
  9 10  1  0  0  0
  9 19  2  0  0  0
 10 11  2  0  0  0
 11 12  1  0  0  0
 11 17  1  0  0  0
 12 13  2  0  0  0
 13 14  1  0  0  0
 13 15  1  0  0  0
 15  1  1  0  0  0
 15 16  2  0  0  0
  1  2  1  0  0  0
  1  7  2  0  0  0
  2  3  2  0  0  0
  3 23  1  0  0  0
  3  4  1  0  0  0
 23 24  1  0  0  0
 23 27  1  0  0  0
 24 25  2  0  0  0
 24 26  1  0  0  0
 26 29  1  0  0  0
 26 28  1  0  0  0
 29 30  1  0  0  0
 30 31  1  0  0  0
 30 33  1  0  0  0
 31 32  1  0  0  0
 33 34  1  0  0  0
 33 35  1  0  0  0
 33 36  1  0  0  0
  4  5  1  0  0  0
  4  6  2  0  0  0
  6  7  1  0  0  0
  7  8  1  0  0  0
 16 17  1  0  0  0
 17 18  2  0  0  0
 18 19  1  0  0  0
M  END
> <minimizedAffinity>
-7.36249

$$$$
