CHEMBL2430267


 35 38  0  0  0  0  0  0  0  0999 V2000
  -15.0282   -2.8535  -13.4780 C   0  0  0  0  0  0  0  0  0  0  0  0
  -15.4684   -3.9358  -12.7217 C   0  0  0  0  0  0  0  0  0  0  0  0
  -16.3517   -4.0112  -11.5274 C   0  0  0  0  0  0  0  0  0  0  0  0
  -14.9868   -5.0959  -13.3170 N   0  0  0  0  0  0  0  0  0  0  0  0
  -14.2720   -4.7892  -14.4405 C   0  0  0  0  0  0  0  0  0  0  0  0
  -14.2762   -3.4125  -14.5510 C   0  0  0  0  0  0  0  0  0  0  0  0
  -13.6167   -2.6368  -15.6389 C   0  0  0  0  0  0  0  0  0  0  0  0
  -12.8509   -3.4692  -16.6460 C   0  0  0  0  0  0  0  0  0  0  0  0
  -12.9043   -4.9905  -16.5159 C   0  0  0  0  0  0  0  0  0  0  0  0
  -13.6363   -5.6781  -15.3600 C   0  0  0  0  0  0  0  0  0  0  0  0
  -13.6283   -7.0402  -15.3218 C   0  0  0  0  0  0  0  0  0  0  0  0
  -14.2628   -7.9957  -14.3240 C   0  0  0  0  0  0  0  0  0  0  0  0
  -14.9201   -7.7326  -13.3356 O   0  0  0  0  0  0  0  0  0  0  0  0
  -13.9367   -9.2777  -14.7631 N   0  0  0  0  0  0  0  0  0  0  0  0
  -13.1706   -9.2489  -15.9226 C   0  0  0  0  0  0  0  0  0  0  0  0
  -12.6643  -10.3297  -16.6356 C   0  0  0  0  0  0  0  0  0  0  0  0
  -11.9008  -10.0795  -17.7935 C   0  0  0  0  0  0  0  0  0  0  0  0
  -11.6709   -8.7683  -18.2046 C   0  0  0  0  0  0  0  0  0  0  0  0
  -12.1992   -7.7146  -17.4621 C   0  0  0  0  0  0  0  0  0  0  0  0
  -12.9501   -7.9328  -16.3154 C   0  0  0  0  0  0  0  0  0  0  0  0
  -15.1803   -6.0393  -12.9869 H   0  0  0  0  0  0  0  0  0  0  0  0
  -14.2356  -10.1105  -14.2770 H   0  0  0  0  0  0  0  0  0  0  0  0
  -16.2246   -0.8797  -14.1734 N   0  0  0  0  0  0  0  0  0  0  0  0
  -15.2948   -1.4238  -13.3214 C   0  0  0  0  0  0  0  0  0  0  0  0
  -14.7638   -0.7544  -12.4371 O   0  0  0  0  0  0  0  0  0  0  0  0
  -16.8715   -1.5069  -14.6361 H   0  0  0  0  0  0  0  0  0  0  0  0
  -16.6161    0.4989  -13.9868 C   0  0  0  0  0  0  0  0  0  0  0  0
  -17.6349    0.9759  -15.0297 C   0  0  0  0  0  0  0  0  0  0  0  0
  -18.8432    1.6261  -14.4685 N   0  0  0  0  0  0  0  0  0  0  0  0
  -17.8433    3.6119  -15.6760 C   0  0  0  0  0  0  0  0  0  0  0  0
  -18.7625    3.0948  -14.5741 C   0  0  0  0  0  0  0  0  0  0  0  0
  -20.0661    1.0511  -15.0589 C   0  0  0  0  0  0  0  0  0  0  0  0
  -21.2735    0.9218  -14.1316 C   0  0  0  0  0  0  0  0  0  0  0  0
  -10.9685   -8.3163  -19.2814 O   0  0  0  0  0  0  0  0  0  0  0  0
  -11.2414   -7.0286  -19.7937 C   0  0  0  0  0  0  0  0  0  0  0  0
 30 31  1  0  0  0
 31 29  1  0  0  0
 29 32  1  0  0  0
 29 28  1  0  0  0
 32 33  1  0  0  0
 28 27  1  0  0  0
 27 23  1  0  0  0
 23 24  1  0  0  0
 23 26  1  0  0  0
 24 25  2  0  0  0
 24  1  1  0  0  0
  1  2  2  0  0  0
  1  6  1  0  0  0
  2  3  1  0  0  0
  2  4  1  0  0  0
  4  5  1  0  0  0
  4 21  1  0  0  0
  5  6  2  0  0  0
  5 10  1  0  0  0
  6  7  1  0  0  0
  7  8  1  0  0  0
  8  9  1  0  0  0
  9 10  1  0  0  0
 10 11  2  0  0  0
 11 12  1  0  0  0
 11 20  1  0  0  0
 12 13  2  0  0  0
 12 14  1  0  0  0
 14 15  1  0  0  0
 14 22  1  0  0  0
 15 16  1  0  0  0
 15 20  2  0  0  0
 16 17  2  0  0  0
 17 18  1  0  0  0
 18 34  1  0  0  0
 18 19  2  0  0  0
 34 35  1  0  0  0
 19 20  1  0  0  0
M  END
> <minimizedAffinity>
-6.90566

$$$$
