CHEMBL3947643


 33 37  0  0  0  0  0  0  0  0999 V2000
  -13.7927    0.7156  -13.5592 C   0  0  0  0  0  0  0  0  0  0  0  0
  -13.6970    1.7475  -14.4954 C   0  0  0  0  0  0  0  0  0  0  0  0
  -14.8332    2.2451  -15.1577 C   0  0  0  0  0  0  0  0  0  0  0  0
  -14.7850    3.2435  -16.1448 C   0  0  0  0  0  0  0  0  0  0  0  0
  -15.9042    3.7285  -16.7008 N   0  0  0  0  0  0  0  0  0  0  0  0
  -17.0619    3.2060  -16.2818 C   0  0  0  0  0  0  0  0  0  0  0  0
  -17.2094    2.2359  -15.3705 N   0  0  0  0  0  0  0  0  0  0  0  0
  -16.0951    1.7626  -14.8142 C   0  0  0  0  0  0  0  0  0  0  0  0
  -16.1876    0.7385  -13.8728 C   0  0  0  0  0  0  0  0  0  0  0  0
  -15.0585    0.1747  -13.2599 C   0  0  0  0  0  0  0  0  0  0  0  0
  -11.6710   -0.3398  -13.7196 C   0  0  0  0  0  0  0  0  0  0  0  0
  -12.6947    0.2214  -12.8946 O   0  0  0  0  0  0  0  0  0  0  0  0
  -13.5227    3.7257  -16.6136 N   0  0  0  0  0  0  0  0  0  0  0  0
  -13.3596    3.3591  -17.5475 H   0  0  0  0  0  0  0  0  0  0  0  0
  -13.0954    5.0615  -16.4640 C   0  0  0  0  0  0  0  0  0  0  0  0
  -13.1729    5.9484  -17.5464 C   0  0  0  0  0  0  0  0  0  0  0  0
  -12.6418    7.2344  -17.4658 C   0  0  0  0  0  0  0  0  0  0  0  0
  -12.0361    7.6626  -16.2847 C   0  0  0  0  0  0  0  0  0  0  0  0
  -11.2227    9.3767  -16.2945 Br  0  0  0  0  0  0  0  0  0  0  0  0
  -12.0212    6.8165  -15.1692 C   0  0  0  0  0  0  0  0  0  0  0  0
  -11.3119    7.2847  -13.6621 Cl  0  0  0  0  0  0  0  0  0  0  0  0
  -12.5652    5.5253  -15.2553 C   0  0  0  0  0  0  0  0  0  0  0  0
  -15.1178   -0.9240  -12.4317 O   0  0  0  0  0  0  0  0  0  0  0  0
  -15.5425   -2.1802  -13.0018 C   0  0  0  0  0  0  0  0  0  0  0  0
  -14.5037   -2.7872  -13.9478 C   0  0  0  0  0  0  0  0  0  0  0  0
  -13.5814   -3.5556  -13.1517 O   0  0  0  0  0  0  0  0  0  0  0  0
  -14.3071   -4.0390  -12.0134 C   0  0  0  0  0  0  0  0  0  0  0  0
  -14.7723   -5.4746  -12.2499 C   0  0  0  0  0  0  0  0  0  0  0  0
  -16.1987   -5.4447  -11.7349 C   0  0  0  0  0  0  0  0  0  0  0  0
  -16.6892   -4.1400  -12.0832 O   0  0  0  0  0  0  0  0  0  0  0  0
  -15.5946   -3.2233  -11.8908 C   0  0  0  0  0  0  0  0  0  0  0  0
  -13.7827   -6.7648  -11.4149 S   0  0  0  0  0  0  0  0  0  0  0  0
  -12.5044   -7.0205  -12.6728 C   0  0  0  0  0  0  0  0  0  0  0  0
 11 12  1  0  0  0
 12  1  1  0  0  0
  1  2  1  0  0  0
  1 10  2  0  0  0
  2  3  2  0  0  0
  3  4  1  0  0  0
  3  8  1  0  0  0
  4 13  1  0  0  0
  4  5  2  0  0  0
 13 15  1  0  0  0
 13 14  1  0  0  0
 15 16  1  0  0  0
 15 22  2  0  0  0
 16 17  2  0  0  0
 17 18  1  0  0  0
 18 19  1  0  0  0
 18 20  2  0  0  0
 20 21  1  0  0  0
 20 22  1  0  0  0
  5  6  1  0  0  0
  6  7  2  0  0  0
  7  8  1  0  0  0
  8  9  2  0  0  0
  9 10  1  0  0  0
 10 23  1  0  0  0
 24 25  1  0  0  0
 24 31  1  0  0  0
 24 23  1  0  0  0
 25 26  1  0  0  0
 26 27  1  0  0  0
 27 28  1  0  0  0
 27 31  1  0  0  0
 28 32  1  0  0  0
 28 29  1  0  0  0
 32 33  1  0  0  0
 29 30  1  0  0  0
 30 31  1  0  0  0
M  END
> <minimizedAffinity>
-6.88852

$$$$
