CHEMBL206118


 33 37  0  0  0  0  0  0  0  0999 V2000
  -12.0309    2.3095  -15.8854 C   0  0  0  0  0  0  0  0  0  0  0  0
  -12.6807    1.4634  -14.9120 N   0  0  0  0  0  0  0  0  0  0  0  0
  -12.0561    0.4953  -14.1756 C   0  0  0  0  0  0  0  0  0  0  0  0
  -12.8893   -0.0959  -13.3486 N   0  0  0  0  0  0  0  0  0  0  0  0
  -14.0982    0.4903  -13.5829 C   0  0  0  0  0  0  0  0  0  0  0  0
  -14.0057    1.4781  -14.5398 C   0  0  0  0  0  0  0  0  0  0  0  0
  -14.9986    2.3587  -15.0499 C   0  0  0  0  0  0  0  0  0  0  0  0
  -14.8401    3.6624  -15.1647 N   0  0  0  0  0  0  0  0  0  0  0  0
  -16.0134    4.1617  -15.6663 N   0  0  0  0  0  0  0  0  0  0  0  0
  -16.8239    3.1395  -15.8339 C   0  0  0  0  0  0  0  0  0  0  0  0
  -16.2516    1.9577  -15.4561 O   0  0  0  0  0  0  0  0  0  0  0  0
  -18.0965    3.0716  -16.2674 N   0  0  0  0  0  0  0  0  0  0  0  0
  -18.2829    3.2890  -17.2369 H   0  0  0  0  0  0  0  0  0  0  0  0
  -19.1851    2.5939  -15.5176 C   0  0  0  0  0  0  0  0  0  0  0  0
  -19.4884    1.2269  -15.4209 C   0  0  0  0  0  0  0  0  0  0  0  0
  -20.6378    0.7813  -14.7653 C   0  0  0  0  0  0  0  0  0  0  0  0
  -21.5096    1.7061  -14.2047 C   0  0  0  0  0  0  0  0  0  0  0  0
  -22.9446    1.1641  -13.4279 Cl  0  0  0  0  0  0  0  0  0  0  0  0
  -21.2303    3.0682  -14.2819 C   0  0  0  0  0  0  0  0  0  0  0  0
  -20.0727    3.5083  -14.9338 C   0  0  0  0  0  0  0  0  0  0  0  0
  -15.2193    0.0957  -12.9529 N   0  0  0  0  0  0  0  0  0  0  0  0
  -15.2757    0.1662  -11.9426 H   0  0  0  0  0  0  0  0  0  0  0  0
  -16.0543   -0.9552  -13.5029 C   0  0  0  0  0  0  0  0  0  0  0  0
  -15.6926   -2.2778  -12.8585 C   0  0  0  0  0  0  0  0  0  0  0  0
  -15.6220   -3.4347  -13.6527 C   0  0  0  0  0  0  0  0  0  0  0  0
  -15.2655   -4.6780  -13.1199 C   0  0  0  0  0  0  0  0  0  0  0  0
  -14.9760   -4.7198  -11.7553 C   0  0  0  0  0  0  0  0  0  0  0  0
  -14.5920   -5.7539  -10.9390 N   0  0  0  0  0  0  0  0  0  0  0  0
  -14.4003   -5.3977   -9.6560 N   0  0  0  0  0  0  0  0  0  0  0  0
  -14.6661   -4.0875   -9.6565 C   0  0  0  0  0  0  0  0  0  0  0  0
  -15.0330   -3.6021  -10.9310 C   0  0  0  0  0  0  0  0  0  0  0  0
  -15.3985   -2.3592  -11.4830 C   0  0  0  0  0  0  0  0  0  0  0  0
  -14.4425   -6.7222  -11.1972 H   0  0  0  0  0  0  0  0  0  0  0  0
  1  2  1  0  0  0
  2  3  1  0  0  0
  2  6  1  0  0  0
  3  4  2  0  0  0
  4  5  1  0  0  0
  5 21  1  0  0  0
  5  6  2  0  0  0
 21 23  1  0  0  0
 21 22  1  0  0  0
 23 24  1  0  0  0
 24 25  1  0  0  0
 24 32  2  0  0  0
 25 26  2  0  0  0
 26 27  1  0  0  0
 27 28  1  0  0  0
 27 31  2  0  0  0
 28 29  1  0  0  0
 28 33  1  0  0  0
 29 30  2  0  0  0
 30 31  1  0  0  0
 31 32  1  0  0  0
  6  7  1  0  0  0
  7  8  2  0  0  0
  7 11  1  0  0  0
  8  9  1  0  0  0
  9 10  2  0  0  0
 10 12  1  0  0  0
 10 11  1  0  0  0
 12 14  1  0  0  0
 12 13  1  0  0  0
 14 15  1  0  0  0
 14 20  2  0  0  0
 15 16  2  0  0  0
 16 17  1  0  0  0
 17 18  1  0  0  0
 17 19  2  0  0  0
 19 20  1  0  0  0
M  END
> <minimizedAffinity>
-8.62002

$$$$
