CHEMBL83171


 31 35  0  0  0  0  0  0  0  0999 V2000
  -19.5746    1.9631  -15.1379 C   0  0  0  0  0  0  0  0  0  0  0  0
  -20.3483    3.0603  -14.7586 C   0  0  0  0  0  0  0  0  0  0  0  0
  -21.6130    2.8736  -14.2189 C   0  0  0  0  0  0  0  0  0  0  0  0
  -22.1233    1.5881  -14.1000 C   0  0  0  0  0  0  0  0  0  0  0  0
  -21.4555    0.5191  -14.5640 N   0  0  0  0  0  0  0  0  0  0  0  0
  -20.2101    0.7249  -15.0638 C   0  0  0  0  0  0  0  0  0  0  0  0
  -14.2168    3.0934  -16.0925 N   0  0  0  0  0  0  0  0  0  0  0  0
  -14.4174    4.3665  -16.5886 C   0  0  0  0  0  0  0  0  0  0  0  0
  -15.6859    4.6759  -16.6729 N   0  0  0  0  0  0  0  0  0  0  0  0
  -16.3368    3.5435  -16.2672 C   0  0  0  0  0  0  0  0  0  0  0  0
  -17.7003    3.3817  -15.9951 C   0  0  0  0  0  0  0  0  0  0  0  0
  -18.1778    2.1366  -15.5646 C   0  0  0  0  0  0  0  0  0  0  0  0
  -17.2750    1.0504  -15.5233 C   0  0  0  0  0  0  0  0  0  0  0  0
  -15.8988    1.1940  -15.7479 C   0  0  0  0  0  0  0  0  0  0  0  0
  -15.4550    2.4793  -16.0648 C   0  0  0  0  0  0  0  0  0  0  0  0
  -10.9083    1.8691  -13.8490 C   0  0  0  0  0  0  0  0  0  0  0  0
  -11.1212    1.3600  -15.1249 C   0  0  0  0  0  0  0  0  0  0  0  0
  -12.2137    1.7990  -15.8587 C   0  0  0  0  0  0  0  0  0  0  0  0
  -13.0929    2.7503  -15.3108 C   0  0  0  0  0  0  0  0  0  0  0  0
  -12.8612    3.3062  -14.0580 C   0  0  0  0  0  0  0  0  0  0  0  0
  -11.7681    2.8367  -13.3190 C   0  0  0  0  0  0  0  0  0  0  0  0
  -23.2987    1.3099  -13.4233 N   0  0  0  0  0  0  0  0  0  0  0  0
  -23.7774    2.1951  -13.2713 H   0  0  0  0  0  0  0  0  0  0  0  0
  -23.2297    0.3879  -12.3061 C   0  0  0  0  0  0  0  0  0  0  0  0
  -24.6349    0.0161  -11.8084 C   0  0  0  0  0  0  0  0  0  0  0  0
  -24.8732   -1.4422  -11.7654 N   0  0  0  0  0  0  0  0  0  0  0  0
  -24.9181   -2.0047  -13.1343 C   0  0  0  0  0  0  0  0  0  0  0  0
  -26.1996   -1.6415  -13.9088 C   0  0  0  0  0  0  0  0  0  0  0  0
  -27.3853   -1.9900  -13.1803 O   0  0  0  0  0  0  0  0  0  0  0  0
  -27.3862   -1.4022  -11.8735 C   0  0  0  0  0  0  0  0  0  0  0  0
  -26.1342   -1.8188  -11.0891 C   0  0  0  0  0  0  0  0  0  0  0  0
 16 17  1  0  0  0
 16 21  2  0  0  0
 17 18  2  0  0  0
 18 19  1  0  0  0
 19  7  1  0  0  0
 19 20  2  0  0  0
  7  8  1  0  0  0
  7 15  1  0  0  0
  8  9  2  0  0  0
  9 10  1  0  0  0
 10 11  1  0  0  0
 10 15  2  0  0  0
 11 12  2  0  0  0
 12  1  1  0  0  0
 12 13  1  0  0  0
  1  2  1  0  0  0
  1  6  2  0  0  0
  2  3  2  0  0  0
  3  4  1  0  0  0
  4 22  1  0  0  0
  4  5  2  0  0  0
 22 24  1  0  0  0
 22 23  1  0  0  0
 24 25  1  0  0  0
 25 26  1  0  0  0
 26 27  1  0  0  0
 26 31  1  0  0  0
 27 28  1  0  0  0
 28 29  1  0  0  0
 29 30  1  0  0  0
 30 31  1  0  0  0
  5  6  1  0  0  0
 13 14  2  0  0  0
 14 15  1  0  0  0
 20 21  1  0  0  0
M  END
> <minimizedAffinity>
-8.96071

$$$$
