CHEMBL2010876


 42 48  0  0  0  0  0  0  0  0999 V2000
  -30.2178   -4.8490   -5.5162 N   0  0  0  0  0  0  0  0  0  0  0  0
  -29.5008   -3.7861   -6.1180 C   0  0  0  0  0  0  0  0  0  0  0  0
  -29.6682   -2.3914   -6.0578 C   0  0  0  0  0  0  0  0  0  0  0  0
  -28.8940   -1.5827   -6.9173 C   0  0  0  0  0  0  0  0  0  0  0  0
  -27.9114   -2.1095   -7.7541 C   0  0  0  0  0  0  0  0  0  0  0  0
  -27.7303   -3.4934   -7.7590 C   0  0  0  0  0  0  0  0  0  0  0  0
  -28.5475   -4.3332   -6.9863 C   0  0  0  0  0  0  0  0  0  0  0  0
  -28.7976   -5.6886   -6.8943 C   0  0  0  0  0  0  0  0  0  0  0  0
  -28.3850   -6.6037   -7.8821 C   0  0  0  0  0  0  0  0  0  0  0  0
  -29.1497   -7.7829   -7.9497 C   0  0  0  0  0  0  0  0  0  0  0  0
  -30.1297   -8.1451   -7.0082 C   0  0  0  0  0  0  0  0  0  0  0  0
  -29.9919   -7.4465   -5.7594 C   0  0  0  0  0  0  0  0  0  0  0  0
  -29.6839   -6.0782   -5.9267 C   0  0  0  0  0  0  0  0  0  0  0  0
  -29.2978   -8.3602   -4.6556 C   0  0  0  0  0  0  0  0  0  0  0  0
  -28.7289   -9.7371   -5.2014 C   0  0  0  0  0  0  0  0  0  0  0  0
  -29.8187  -10.3575   -6.0009 C   0  0  0  0  0  0  0  0  0  0  0  0
  -30.4479  -11.5069   -5.7619 N   0  0  0  0  0  0  0  0  0  0  0  0
  -31.6014  -11.3607   -6.4620 N   0  0  0  0  0  0  0  0  0  0  0  0
  -32.6474  -12.3448   -6.3241 C   0  0  0  0  0  0  0  0  0  0  0  0
  -31.7306  -10.1280   -7.0570 C   0  0  0  0  0  0  0  0  0  0  0  0
  -30.5061   -9.5325   -6.9047 C   0  0  0  0  0  0  0  0  0  0  0  0
  -28.6145   -8.5646   -9.0392 C   0  0  0  0  0  0  0  0  0  0  0  0
  -28.9031   -9.6548   -9.5177 O   0  0  0  0  0  0  0  0  0  0  0  0
  -27.5479   -7.8085   -9.5165 N   0  0  0  0  0  0  0  0  0  0  0  0
  -27.3564   -6.5232   -8.8956 C   0  0  0  0  0  0  0  0  0  0  0  0
  -26.9732   -8.1858  -10.2607 H   0  0  0  0  0  0  0  0  0  0  0  0
  -27.1633   -1.3580   -8.6667 N   0  0  0  0  0  0  0  0  0  0  0  0
  -26.6006   -0.6060   -8.2974 H   0  0  0  0  0  0  0  0  0  0  0  0
  -26.8209   -1.5708   -9.9948 C   0  0  0  0  0  0  0  0  0  0  0  0
  -27.8535   -1.6475  -10.8489 N   0  0  0  0  0  0  0  0  0  0  0  0
  -27.5681   -1.8172  -12.1496 C   0  0  0  0  0  0  0  0  0  0  0  0
  -26.2891   -1.9044  -12.6389 C   0  0  0  0  0  0  0  0  0  0  0  0
  -25.2771   -1.8138  -11.7029 C   0  0  0  0  0  0  0  0  0  0  0  0
  -25.5434   -1.6422  -10.3830 N   0  0  0  0  0  0  0  0  0  0  0  0
  -23.8263   -1.9143  -12.1310 C   0  0  0  0  0  0  0  0  0  0  0  0
  -23.5633   -3.0312  -12.8742 F   0  0  0  0  0  0  0  0  0  0  0  0
  -23.4181   -0.8642  -12.8980 F   0  0  0  0  0  0  0  0  0  0  0  0
  -22.9646   -1.9713  -11.0759 F   0  0  0  0  0  0  0  0  0  0  0  0
  -31.4475   -4.6586   -4.7485 C   0  0  0  0  0  0  0  0  0  0  0  0
  -31.0770   -3.1598   -2.6903 C   0  0  0  0  0  0  0  0  0  0  0  0
  -31.2807   -4.5850   -3.2036 C   0  0  0  0  0  0  0  0  0  0  0  0
  -32.4871   -5.2114   -2.4889 C   0  0  0  0  0  0  0  0  0  0  0  0
 40 41  1  0  0  0
 41 42  1  0  0  0
 41 39  1  0  0  0
 39  1  1  0  0  0
  1  2  1  0  0  0
  1 13  1  0  0  0
  2  3  1  0  0  0
  2  7  2  0  0  0
  3  4  2  0  0  0
  4  5  1  0  0  0
  5 27  1  0  0  0
  5  6  2  0  0  0
 27 29  1  0  0  0
 27 28  1  0  0  0
 29 30  1  0  0  0
 29 34  2  0  0  0
 30 31  2  0  0  0
 31 32  1  0  0  0
 32 33  2  0  0  0
 33 35  1  0  0  0
 33 34  1  0  0  0
 35 36  1  0  0  0
 35 37  1  0  0  0
 35 38  1  0  0  0
  6  7  1  0  0  0
  7  8  1  0  0  0
  8  9  1  0  0  0
  8 13  2  0  0  0
  9 10  2  0  0  0
  9 25  1  0  0  0
 10 11  1  0  0  0
 10 22  1  0  0  0
 11 12  2  0  0  0
 11 21  1  0  0  0
 12 13  1  0  0  0
 12 14  1  0  0  0
 14 15  1  0  0  0
 15 16  1  0  0  0
 16 17  2  0  0  0
 16 21  1  0  0  0
 17 18  1  0  0  0
 18 19  1  0  0  0
 18 20  1  0  0  0
 20 21  2  0  0  0
 22 23  2  0  0  0
 22 24  1  0  0  0
 24 25  1  0  0  0
 24 26  1  0  0  0
M  END
> <minimizedAffinity>
-10.06506

$$$$
