CHEMBL409538


 34 38  0  0  0  0  0  0  0  0999 V2000
  -14.7419   -0.6901  -14.4168 C   0  0  0  0  0  0  0  0  0  0  0  0
  -15.8106   -0.5842  -13.5374 C   0  0  0  0  0  0  0  0  0  0  0  0
  -16.7900    0.3902  -13.7640 C   0  0  0  0  0  0  0  0  0  0  0  0
  -16.6394    1.4126  -14.7373 C   0  0  0  0  0  0  0  0  0  0  0  0
  -17.5921    2.4322  -15.0529 C   0  0  0  0  0  0  0  0  0  0  0  0
  -17.2952    3.3885  -16.0464 C   0  0  0  0  0  0  0  0  0  0  0  0
  -16.0948    3.3585  -16.7420 C   0  0  0  0  0  0  0  0  0  0  0  0
  -15.1754    2.3549  -16.4722 C   0  0  0  0  0  0  0  0  0  0  0  0
  -15.4339    1.3802  -15.4972 C   0  0  0  0  0  0  0  0  0  0  0  0
  -14.5150    0.3297  -15.3377 C   0  0  0  0  0  0  0  0  0  0  0  0
  -18.9807    2.5470  -14.5060 C   0  0  0  0  0  0  0  0  0  0  0  0
  -19.2198    3.5422  -13.8172 O   0  0  0  0  0  0  0  0  0  0  0  0
  -19.8755    1.5335  -14.7662 N   0  0  0  0  0  0  0  0  0  0  0  0
  -19.5805    0.7181  -15.2781 H   0  0  0  0  0  0  0  0  0  0  0  0
  -21.1954    1.5498  -14.3338 C   0  0  0  0  0  0  0  0  0  0  0  0
  -21.9017    0.4014  -13.8981 C   0  0  0  0  0  0  0  0  0  0  0  0
  -23.1461    0.8672  -13.5567 C   0  0  0  0  0  0  0  0  0  0  0  0
  -23.1941    2.2012  -13.7633 O   0  0  0  0  0  0  0  0  0  0  0  0
  -21.9813    2.6283  -14.2590 N   0  0  0  0  0  0  0  0  0  0  0  0
  -13.9168   -1.7866  -14.5103 O   0  0  0  0  0  0  0  0  0  0  0  0
  -13.8324   -4.4484  -10.0093 C   0  0  0  0  0  0  0  0  0  0  0  0
  -12.5793   -3.8653  -10.2660 C   0  0  0  0  0  0  0  0  0  0  0  0
  -12.3161   -3.1224  -11.4102 C   0  0  0  0  0  0  0  0  0  0  0  0
  -11.1492   -2.4609  -11.4745 N   0  0  0  0  0  0  0  0  0  0  0  0
  -10.9289   -1.6507  -12.5287 C   0  0  0  0  0  0  0  0  0  0  0  0
  -11.8445   -1.4448  -13.5368 C   0  0  0  0  0  0  0  0  0  0  0  0
  -13.0568   -2.1290  -13.4763 C   0  0  0  0  0  0  0  0  0  0  0  0
  -13.2924   -3.0515  -12.4167 C   0  0  0  0  0  0  0  0  0  0  0  0
  -14.4344   -3.8694  -12.2553 C   0  0  0  0  0  0  0  0  0  0  0  0
  -14.7723   -4.4660  -11.0359 C   0  0  0  0  0  0  0  0  0  0  0  0
  -13.0357   -5.2804   -7.9311 C   0  0  0  0  0  0  0  0  0  0  0  0
  -14.1383   -5.0104   -8.7989 O   0  0  0  0  0  0  0  0  0  0  0  0
  -16.0533   -4.9356  -11.0620 O   0  0  0  0  0  0  0  0  0  0  0  0
  -16.6047   -5.4913  -12.2377 C   0  0  0  0  0  0  0  0  0  0  0  0
 31 32  1  0  0  0
 32 21  1  0  0  0
 21 22  1  0  0  0
 21 30  2  0  0  0
 22 23  2  0  0  0
 23 24  1  0  0  0
 23 28  1  0  0  0
 24 25  2  0  0  0
 25 26  1  0  0  0
 26 27  2  0  0  0
 27 20  1  0  0  0
 27 28  1  0  0  0
 20  1  1  0  0  0
  1  2  1  0  0  0
  1 10  2  0  0  0
  2  3  2  0  0  0
  3  4  1  0  0  0
  4  5  1  0  0  0
  4  9  2  0  0  0
  5 11  1  0  0  0
  5  6  2  0  0  0
 11 12  2  0  0  0
 11 13  1  0  0  0
 13 15  1  0  0  0
 13 14  1  0  0  0
 15 16  1  0  0  0
 15 19  2  0  0  0
 16 17  2  0  0  0
 17 18  1  0  0  0
 18 19  1  0  0  0
  6  7  1  0  0  0
  7  8  2  0  0  0
  8  9  1  0  0  0
  9 10  1  0  0  0
 28 29  2  0  0  0
 29 30  1  0  0  0
 30 33  1  0  0  0
 33 34  1  0  0  0
M  END
> <minimizedAffinity>
-9.13672

$$$$
