CHEMBL2002599


 30 34  0  0  0  0  0  0  0  0999 V2000
  -30.9309   -8.3001   -6.8088 C   0  0  0  0  0  0  0  0  0  0  0  0
  -32.2419   -8.1963   -7.2630 C   0  0  0  0  0  0  0  0  0  0  0  0
  -32.9486   -9.3592   -7.4844 C   0  0  0  0  0  0  0  0  0  0  0  0
  -32.4514  -10.5915   -7.2774 N   0  0  0  0  0  0  0  0  0  0  0  0
  -31.1935  -10.7001   -6.8365 C   0  0  0  0  0  0  0  0  0  0  0  0
  -30.6939  -11.9744   -6.6467 C   0  0  0  0  0  0  0  0  0  0  0  0
  -29.3816  -12.2074   -6.2187 C   0  0  0  0  0  0  0  0  0  0  0  0
  -28.5169  -11.1564   -5.9196 C   0  0  0  0  0  0  0  0  0  0  0  0
  -29.0444   -9.8596   -6.0815 C   0  0  0  0  0  0  0  0  0  0  0  0
  -30.3633   -9.5935   -6.5691 C   0  0  0  0  0  0  0  0  0  0  0  0
  -27.2170  -11.3825   -5.5418 N   0  0  0  0  0  0  0  0  0  0  0  0
  -26.8051  -12.0345   -4.3120 C   0  0  0  0  0  0  0  0  0  0  0  0
  -25.4370  -11.4137   -4.0639 C   0  0  0  0  0  0  0  0  0  0  0  0
  -25.5478  -10.0122   -3.4728 C   0  0  0  0  0  0  0  0  0  0  0  0
  -24.9257   -9.0885   -4.3732 O   0  0  0  0  0  0  0  0  0  0  0  0
  -24.1613   -9.8457   -5.3111 C   0  0  0  0  0  0  0  0  0  0  0  0
  -24.8418  -11.1931   -5.4466 C   0  0  0  0  0  0  0  0  0  0  0  0
  -26.0489  -11.1993   -6.4082 C   0  0  0  0  0  0  0  0  0  0  0  0
  -28.5780   -7.2780   -8.3636 O   0  0  0  0  0  0  0  0  0  0  0  0
  -29.0348   -6.7386   -7.3561 C   0  0  0  0  0  0  0  0  0  0  0  0
  -28.4389   -5.5805   -6.9278 N   0  0  0  0  0  0  0  0  0  0  0  0
  -30.1409   -7.1372   -6.6493 N   0  0  0  0  0  0  0  0  0  0  0  0
  -27.7074   -5.2545   -7.5476 H   0  0  0  0  0  0  0  0  0  0  0  0
  -30.3826   -6.5211   -5.8849 H   0  0  0  0  0  0  0  0  0  0  0  0
  -28.7097   -4.8625   -5.7618 C   0  0  0  0  0  0  0  0  0  0  0  0
  -27.8828   -4.9867   -4.6510 C   0  0  0  0  0  0  0  0  0  0  0  0
  -28.0874   -4.2953   -3.4999 N   0  0  0  0  0  0  0  0  0  0  0  0
  -29.1817   -3.5014   -3.4869 C   0  0  0  0  0  0  0  0  0  0  0  0
  -30.0223   -3.3952   -4.5740 C   0  0  0  0  0  0  0  0  0  0  0  0
  -29.7855   -4.0417   -5.7345 N   0  0  0  0  0  0  0  0  0  0  0  0
 19 20  2  0  0  0
 20 21  1  0  0  0
 20 22  1  0  0  0
 21 25  1  0  0  0
 21 23  1  0  0  0
 25 26  1  0  0  0
 25 30  2  0  0  0
 26 27  2  0  0  0
 27 28  1  0  0  0
 28 29  2  0  0  0
 29 30  1  0  0  0
 22  1  1  0  0  0
 22 24  1  0  0  0
  1  2  1  0  0  0
  1 10  2  0  0  0
  2  3  2  0  0  0
  3  4  1  0  0  0
  4  5  2  0  0  0
  5  6  1  0  0  0
  5 10  1  0  0  0
  6  7  2  0  0  0
  7  8  1  0  0  0
  8 11  1  0  0  0
  8  9  2  0  0  0
 11 12  1  0  0  0
 11 18  1  0  0  0
 12 13  1  0  0  0
 13 14  1  0  0  0
 13 17  1  0  0  0
 14 15  1  0  0  0
 15 16  1  0  0  0
 16 17  1  0  0  0
 17 18  1  0  0  0
  9 10  1  0  0  0
M  END
> <minimizedAffinity>
-7.36834

$$$$
