CHEMBL260848


 37 40  0  0  0  0  0  0  0  0999 V2000
  -13.9580   -4.3509  -11.4772 C   0  0  0  0  0  0  0  0  0  0  0  0
  -14.4303   -4.0160  -10.2011 C   0  0  0  0  0  0  0  0  0  0  0  0
  -15.3472   -2.9893  -10.0437 C   0  0  0  0  0  0  0  0  0  0  0  0
  -15.7997   -2.2886  -11.1608 C   0  0  0  0  0  0  0  0  0  0  0  0
  -15.3307   -2.5836  -12.4468 C   0  0  0  0  0  0  0  0  0  0  0  0
  -14.4041   -3.6293  -12.6009 C   0  0  0  0  0  0  0  0  0  0  0  0
  -13.9003   -8.6462  -13.6524 N   0  0  0  0  0  0  0  0  0  0  0  0
  -12.8427   -8.7960  -12.7400 C   0  0  0  0  0  0  0  0  0  0  0  0
  -12.1064   -9.9089  -12.8741 N   0  0  0  0  0  0  0  0  0  0  0  0
  -11.0701  -10.0172  -12.0349 C   0  0  0  0  0  0  0  0  0  0  0  0
  -10.6966   -9.1263  -11.1035 N   0  0  0  0  0  0  0  0  0  0  0  0
  -11.4467   -8.0124  -11.0044 C   0  0  0  0  0  0  0  0  0  0  0  0
  -12.5649   -7.7839  -11.8127 C   0  0  0  0  0  0  0  0  0  0  0  0
  -13.4519   -6.6853  -11.6937 N   0  0  0  0  0  0  0  0  0  0  0  0
  -12.9821   -5.4808  -11.5544 C   0  0  0  0  0  0  0  0  0  0  0  0
  -11.4996   -5.1840  -11.5358 C   0  0  0  0  0  0  0  0  0  0  0  0
  -10.8721   -5.7192  -10.2607 C   0  0  0  0  0  0  0  0  0  0  0  0
  -11.0372   -7.1444   -9.9950 N   0  0  0  0  0  0  0  0  0  0  0  0
  -14.0502   -9.5298  -14.1260 H   0  0  0  0  0  0  0  0  0  0  0  0
  -14.7153   -8.2767  -13.1712 H   0  0  0  0  0  0  0  0  0  0  0  0
  -10.2099   -7.5711   -9.5810 H   0  0  0  0  0  0  0  0  0  0  0  0
  -15.7716   -1.8800  -13.5990 N   0  0  0  0  0  0  0  0  0  0  0  0
  -16.2507   -0.5780  -13.6190 C   0  0  0  0  0  0  0  0  0  0  0  0
  -16.2686    0.1882  -12.6606 O   0  0  0  0  0  0  0  0  0  0  0  0
  -16.7710   -0.2326  -14.8609 N   0  0  0  0  0  0  0  0  0  0  0  0
  -15.5923   -2.3052  -14.4961 H   0  0  0  0  0  0  0  0  0  0  0  0
  -17.2300   -0.9915  -15.3438 H   0  0  0  0  0  0  0  0  0  0  0  0
  -17.3190    1.0582  -15.0715 C   0  0  0  0  0  0  0  0  0  0  0  0
  -16.4885    2.0742  -15.5457 C   0  0  0  0  0  0  0  0  0  0  0  0
  -17.0195    3.3331  -15.8349 C   0  0  0  0  0  0  0  0  0  0  0  0
  -18.3691    3.5996  -15.5974 C   0  0  0  0  0  0  0  0  0  0  0  0
  -19.2084    2.6055  -15.0754 C   0  0  0  0  0  0  0  0  0  0  0  0
  -18.6732    1.3289  -14.8321 C   0  0  0  0  0  0  0  0  0  0  0  0
  -20.6577    2.8908  -14.7666 C   0  0  0  0  0  0  0  0  0  0  0  0
  -21.2913    3.5943  -15.7487 F   0  0  0  0  0  0  0  0  0  0  0  0
  -21.3984    1.7645  -14.5814 F   0  0  0  0  0  0  0  0  0  0  0  0
  -20.8092    3.6314  -13.6326 F   0  0  0  0  0  0  0  0  0  0  0  0
  7  8  1  0  0  0
  7 19  1  0  0  0
  7 20  1  0  0  0
  8  9  1  0  0  0
  8 13  2  0  0  0
  9 10  2  0  0  0
 10 11  1  0  0  0
 11 12  2  0  0  0
 12 13  1  0  0  0
 12 18  1  0  0  0
 13 14  1  0  0  0
 14 15  2  0  0  0
 15  1  1  0  0  0
 15 16  1  0  0  0
  1  2  1  0  0  0
  1  6  2  0  0  0
  2  3  2  0  0  0
  3  4  1  0  0  0
  4  5  2  0  0  0
  5 22  1  0  0  0
  5  6  1  0  0  0
 22 23  1  0  0  0
 22 26  1  0  0  0
 23 24  2  0  0  0
 23 25  1  0  0  0
 25 28  1  0  0  0
 25 27  1  0  0  0
 28 29  1  0  0  0
 28 33  2  0  0  0
 29 30  2  0  0  0
 30 31  1  0  0  0
 31 32  2  0  0  0
 32 34  1  0  0  0
 32 33  1  0  0  0
 34 35  1  0  0  0
 34 36  1  0  0  0
 34 37  1  0  0  0
 16 17  1  0  0  0
 17 18  1  0  0  0
 18 21  1  0  0  0
M  END
> <minimizedAffinity>
-10.84664

$$$$
