CHEMBL2018881


 35 38  0  0  0  0  0  0  0  0999 V2000
  -25.3889   -1.6070  -12.2831 C   0  0  0  0  0  0  0  0  0  0  0  0
  -26.7193   -1.6909  -12.7138 C   0  0  0  0  0  0  0  0  0  0  0  0
  -27.7868   -1.7067  -11.7985 C   0  0  0  0  0  0  0  0  0  0  0  0
  -27.5424   -1.6757  -10.4277 C   0  0  0  0  0  0  0  0  0  0  0  0
  -26.2064   -1.6292   -9.9978 C   0  0  0  0  0  0  0  0  0  0  0  0
  -25.1345   -1.6226  -10.9121 C   0  0  0  0  0  0  0  0  0  0  0  0
  -22.6536   -0.1616  -14.2283 N   0  0  0  0  0  0  0  0  0  0  0  0
  -23.6747   -0.1999  -13.2899 C   0  0  0  0  0  0  0  0  0  0  0  0
  -23.9761    0.7483  -12.5708 O   0  0  0  0  0  0  0  0  0  0  0  0
  -24.3155   -1.4331  -13.2092 N   0  0  0  0  0  0  0  0  0  0  0  0
  -22.7851   -0.7339  -15.0549 H   0  0  0  0  0  0  0  0  0  0  0  0
  -23.7092   -2.2272  -13.3555 H   0  0  0  0  0  0  0  0  0  0  0  0
  -19.5739    1.8633  -14.9444 C   0  0  0  0  0  0  0  0  0  0  0  0
  -20.0446    3.1567  -14.7079 C   0  0  0  0  0  0  0  0  0  0  0  0
  -21.3423    3.3486  -14.2511 C   0  0  0  0  0  0  0  0  0  0  0  0
  -22.1831    2.2547  -14.0569 C   0  0  0  0  0  0  0  0  0  0  0  0
  -21.7612    0.9501  -14.3392 C   0  0  0  0  0  0  0  0  0  0  0  0
  -20.4310    0.7620  -14.7440 C   0  0  0  0  0  0  0  0  0  0  0  0
  -17.5204    2.6738  -15.8376 C   0  0  0  0  0  0  0  0  0  0  0  0
  -18.3094    1.5694  -15.3921 O   0  0  0  0  0  0  0  0  0  0  0  0
  -28.4875   -1.5552   -9.4264 O   0  0  0  0  0  0  0  0  0  0  0  0
  -28.1616   -1.5886   -8.0663 C   0  0  0  0  0  0  0  0  0  0  0  0
  -27.7058   -0.4766   -7.4616 N   0  0  0  0  0  0  0  0  0  0  0  0
  -27.4317   -0.5921   -6.1609 C   0  0  0  0  0  0  0  0  0  0  0  0
  -27.6021   -1.6858   -5.4093 N   0  0  0  0  0  0  0  0  0  0  0  0
  -28.0776   -2.7735   -6.0215 C   0  0  0  0  0  0  0  0  0  0  0  0
  -28.2688   -3.9173   -5.2516 C   0  0  0  0  0  0  0  0  0  0  0  0
  -28.7421   -5.1228   -5.7877 C   0  0  0  0  0  0  0  0  0  0  0  0
  -29.0312   -5.1806   -7.1571 C   0  0  0  0  0  0  0  0  0  0  0  0
  -28.8659   -4.0207   -7.9375 C   0  0  0  0  0  0  0  0  0  0  0  0
  -28.3816   -2.8058   -7.3838 C   0  0  0  0  0  0  0  0  0  0  0  0
  -28.8709   -6.2567   -5.0298 O   0  0  0  0  0  0  0  0  0  0  0  0
  -30.1172   -6.4895   -4.3827 C   0  0  0  0  0  0  0  0  0  0  0  0
  -29.4883   -6.2490   -7.8843 O   0  0  0  0  0  0  0  0  0  0  0  0
  -28.6157   -7.3496   -8.1095 C   0  0  0  0  0  0  0  0  0  0  0  0
 19 20  1  0  0  0
 20 13  1  0  0  0
 13 14  1  0  0  0
 13 18  2  0  0  0
 14 15  2  0  0  0
 15 16  1  0  0  0
 16 17  2  0  0  0
 17  7  1  0  0  0
 17 18  1  0  0  0
  7  8  1  0  0  0
  7 11  1  0  0  0
  8  9  2  0  0  0
  8 10  1  0  0  0
 10  1  1  0  0  0
 10 12  1  0  0  0
  1  2  1  0  0  0
  1  6  2  0  0  0
  2  3  2  0  0  0
  3  4  1  0  0  0
  4 21  1  0  0  0
  4  5  2  0  0  0
 21 22  1  0  0  0
 22 23  1  0  0  0
 22 31  2  0  0  0
 23 24  2  0  0  0
 24 25  1  0  0  0
 25 26  2  0  0  0
 26 27  1  0  0  0
 26 31  1  0  0  0
 27 28  2  0  0  0
 28 32  1  0  0  0
 28 29  1  0  0  0
 32 33  1  0  0  0
 29 34  1  0  0  0
 29 30  2  0  0  0
 34 35  1  0  0  0
 30 31  1  0  0  0
  5  6  1  0  0  0
M  END
> <minimizedAffinity>
-10.05176

$$$$
