CHEMBL3758489


 32 34  0  0  0  0  0  0  0  0999 V2000
  -27.7769   -1.8930   -5.5284 C   0  0  0  0  0  0  0  0  0  0  0  0
  -27.9804   -2.8013   -4.4838 C   0  0  0  0  0  0  0  0  0  0  0  0
  -28.6173   -4.0198   -4.6713 C   0  0  0  0  0  0  0  0  0  0  0  0
  -28.7945   -4.7999   -3.6029 N   0  0  0  0  0  0  0  0  0  0  0  0
  -29.4182   -5.9622   -3.8079 C   0  0  0  0  0  0  0  0  0  0  0  0
  -29.8542   -6.4172   -4.9819 N   0  0  0  0  0  0  0  0  0  0  0  0
  -29.6552   -5.6341   -6.0589 C   0  0  0  0  0  0  0  0  0  0  0  0
  -29.0448   -4.3725   -5.9554 C   0  0  0  0  0  0  0  0  0  0  0  0
  -28.8367   -3.4711   -7.0245 C   0  0  0  0  0  0  0  0  0  0  0  0
  -28.1723   -2.2595   -6.8210 C   0  0  0  0  0  0  0  0  0  0  0  0
  -28.0512    0.4236   -4.9389 C   0  0  0  0  0  0  0  0  0  0  0  0
  -27.2237   -0.6561   -5.3571 O   0  0  0  0  0  0  0  0  0  0  0  0
  -30.0546   -6.1219   -7.3361 N   0  0  0  0  0  0  0  0  0  0  0  0
  -29.4154   -5.7632   -8.0378 H   0  0  0  0  0  0  0  0  0  0  0  0
  -30.4038   -7.4709   -7.5780 C   0  0  0  0  0  0  0  0  0  0  0  0
  -29.4626   -8.3662   -8.1072 C   0  0  0  0  0  0  0  0  0  0  0  0
  -29.8227   -9.6732   -8.4393 C   0  0  0  0  0  0  0  0  0  0  0  0
  -31.1309  -10.0959   -8.2300 C   0  0  0  0  0  0  0  0  0  0  0  0
  -31.5951  -11.6869   -8.6926 Cl  0  0  0  0  0  0  0  0  0  0  0  0
  -32.0704   -9.2342   -7.6664 C   0  0  0  0  0  0  0  0  0  0  0  0
  -31.7054   -7.9248   -7.3337 C   0  0  0  0  0  0  0  0  0  0  0  0
  -28.0373   -1.4950   -7.9506 O   0  0  0  0  0  0  0  0  0  0  0  0
  -27.6258   -2.2112   -9.1191 C   0  0  0  0  0  0  0  0  0  0  0  0
  -27.8675   -1.3341  -10.3522 C   0  0  0  0  0  0  0  0  0  0  0  0
  -27.1921   -1.9255  -11.5912 C   0  0  0  0  0  0  0  0  0  0  0  0
  -26.3957   -0.8933  -12.3833 C   0  0  0  0  0  0  0  0  0  0  0  0
  -24.9552   -0.8340  -11.9108 C   0  0  0  0  0  0  0  0  0  0  0  0
  -24.2830    0.1915  -11.8380 O   0  0  0  0  0  0  0  0  0  0  0  0
  -24.4420   -2.0576  -11.5453 N   0  0  0  0  0  0  0  0  0  0  0  0
  -23.0669   -2.0549  -11.2085 O   0  0  0  0  0  0  0  0  0  0  0  0
  -24.8216   -2.9348  -11.8836 H   0  0  0  0  0  0  0  0  0  0  0  0
  -22.8333   -1.1020  -11.2873 H   0  0  0  0  0  0  0  0  0  0  0  0
 11 12  1  0  0  0
 12  1  1  0  0  0
  1  2  1  0  0  0
  1 10  2  0  0  0
  2  3  2  0  0  0
  3  4  1  0  0  0
  3  8  1  0  0  0
  4  5  2  0  0  0
  5  6  1  0  0  0
  6  7  2  0  0  0
  7 13  1  0  0  0
  7  8  1  0  0  0
 13 15  1  0  0  0
 13 14  1  0  0  0
 15 16  1  0  0  0
 15 21  2  0  0  0
 16 17  2  0  0  0
 17 18  1  0  0  0
 18 19  1  0  0  0
 18 20  2  0  0  0
 20 21  1  0  0  0
  8  9  2  0  0  0
  9 10  1  0  0  0
 10 22  1  0  0  0
 22 23  1  0  0  0
 23 24  1  0  0  0
 24 25  1  0  0  0
 25 26  1  0  0  0
 26 27  1  0  0  0
 27 28  2  0  0  0
 27 29  1  0  0  0
 29 30  1  0  0  0
 29 31  1  0  0  0
 30 32  1  0  0  0
M  END
> <minimizedAffinity>
-8.65445

$$$$
