CHEMBL4438911


 34 37  0  0  0  0  0  0  0  0999 V2000
  -27.2831   -1.9914   -8.9926 C   0  0  0  0  0  0  0  0  0  0  0  0
  -27.5913   -1.2458   -7.8556 C   0  0  0  0  0  0  0  0  0  0  0  0
  -28.4349   -1.7551   -6.8706 C   0  0  0  0  0  0  0  0  0  0  0  0
  -28.9718   -3.0426   -6.9863 C   0  0  0  0  0  0  0  0  0  0  0  0
  -28.7275   -3.7630   -8.1662 C   0  0  0  0  0  0  0  0  0  0  0  0
  -27.9022   -3.2340   -9.1689 C   0  0  0  0  0  0  0  0  0  0  0  0
  -26.6486   -1.4049  -11.3170 C   0  0  0  0  0  0  0  0  0  0  0  0
  -27.7398   -1.5702  -11.8532 O   0  0  0  0  0  0  0  0  0  0  0  0
  -26.3675   -1.5383   -9.9650 N   0  0  0  0  0  0  0  0  0  0  0  0
  -25.5049   -1.1355   -9.6224 H   0  0  0  0  0  0  0  0  0  0  0  0
  -23.4149   -0.2145  -13.8639 C   0  0  0  0  0  0  0  0  0  0  0  0
  -24.3933   -1.0981  -14.3173 C   0  0  0  0  0  0  0  0  0  0  0  0
  -25.4421   -1.4685  -13.4728 C   0  0  0  0  0  0  0  0  0  0  0  0
  -25.5269   -0.9495  -12.1747 C   0  0  0  0  0  0  0  0  0  0  0  0
  -24.5404   -0.0766  -11.7114 C   0  0  0  0  0  0  0  0  0  0  0  0
  -23.4905    0.2899  -12.5601 C   0  0  0  0  0  0  0  0  0  0  0  0
  -21.4623    1.1339  -13.9344 C   0  0  0  0  0  0  0  0  0  0  0  0
  -22.3393    0.2225  -14.5865 O   0  0  0  0  0  0  0  0  0  0  0  0
  -29.6925   -3.7147   -5.8612 C   0  0  0  0  0  0  0  0  0  0  0  0
  -30.6095   -3.1253   -5.2725 O   0  0  0  0  0  0  0  0  0  0  0  0
  -29.3390   -5.0427   -5.6441 N   0  0  0  0  0  0  0  0  0  0  0  0
  -28.6203   -5.4282   -6.2445 H   0  0  0  0  0  0  0  0  0  0  0  0
  -30.3337   -5.9396   -5.3558 N   0  0  0  0  0  0  0  0  0  0  0  0
  -29.9510   -7.1892   -5.3575 C   0  0  0  0  0  0  0  0  0  0  0  0
  -28.5531   -7.7926   -5.2457 C   0  0  0  0  0  0  0  0  0  0  0  0
  -27.5813   -7.2556   -4.7667 O   0  0  0  0  0  0  0  0  0  0  0  0
  -28.6370   -9.0021   -5.9090 N   0  0  0  0  0  0  0  0  0  0  0  0
  -29.8730   -9.1098   -6.5226 C   0  0  0  0  0  0  0  0  0  0  0  0
  -30.1667   -9.7851   -7.6916 C   0  0  0  0  0  0  0  0  0  0  0  0
  -31.4129   -9.5335   -8.2790 C   0  0  0  0  0  0  0  0  0  0  0  0
  -32.3780   -8.7075   -7.6555 C   0  0  0  0  0  0  0  0  0  0  0  0
  -32.0605   -8.0234   -6.4920 C   0  0  0  0  0  0  0  0  0  0  0  0
  -30.7887   -8.2007   -5.9869 C   0  0  0  0  0  0  0  0  0  0  0  0
  -27.8497   -9.6282   -6.0119 H   0  0  0  0  0  0  0  0  0  0  0  0
 17 18  1  0  0  0
 18 11  1  0  0  0
 11 12  1  0  0  0
 11 16  2  0  0  0
 12 13  2  0  0  0
 13 14  1  0  0  0
 14  7  1  0  0  0
 14 15  2  0  0  0
  7  8  2  0  0  0
  7  9  1  0  0  0
  9  1  1  0  0  0
  9 10  1  0  0  0
  1  2  1  0  0  0
  1  6  2  0  0  0
  2  3  2  0  0  0
  3  4  1  0  0  0
  4 19  1  0  0  0
  4  5  2  0  0  0
 19 20  2  0  0  0
 19 21  1  0  0  0
 21 23  1  0  0  0
 21 22  1  0  0  0
 23 24  2  0  0  0
 24 25  1  0  0  0
 24 33  1  0  0  0
 25 26  2  0  0  0
 25 27  1  0  0  0
 27 28  1  0  0  0
 27 34  1  0  0  0
 28 29  1  0  0  0
 28 33  2  0  0  0
 29 30  2  0  0  0
 30 31  1  0  0  0
 31 32  2  0  0  0
 32 33  1  0  0  0
  5  6  1  0  0  0
 15 16  1  0  0  0
M  END
> <minimizedAffinity>
-9.83259

$$$$
