CHEMBL370006


 22 24  0  0  0  0  0  0  0  0999 V2000
  -29.5993   -2.7647   -2.9673 C   0  0  0  0  0  0  0  0  0  0  0  0
  -29.1507   -2.5838   -4.3863 C   0  0  0  0  0  0  0  0  0  0  0  0
  -28.8520   -0.9753   -4.8909 S   0  0  0  0  0  0  0  0  0  0  0  0
  -28.3435   -1.4717   -6.4241 C   0  0  0  0  0  0  0  0  0  0  0  0
  -27.9168   -0.5395   -7.2943 N   0  0  0  0  0  0  0  0  0  0  0  0
  -27.5467   -1.0636   -8.4573 C   0  0  0  0  0  0  0  0  0  0  0  0
  -27.5954   -2.3517   -8.8139 N   0  0  0  0  0  0  0  0  0  0  0  0
  -28.0421   -3.2586   -7.9218 C   0  0  0  0  0  0  0  0  0  0  0  0
  -28.0929   -4.5569   -8.4079 N   0  0  0  0  0  0  0  0  0  0  0  0
  -28.4305   -2.8407   -6.6261 C   0  0  0  0  0  0  0  0  0  0  0  0
  -28.9123   -3.5115   -5.4067 C   0  0  0  0  0  0  0  0  0  0  0  0
  -27.9641   -4.5515   -9.4137 H   0  0  0  0  0  0  0  0  0  0  0  0
  -28.8857   -5.0953   -8.0701 H   0  0  0  0  0  0  0  0  0  0  0  0
  -29.0872   -4.9644   -5.1837 C   0  0  0  0  0  0  0  0  0  0  0  0
  -30.3188   -5.5861   -5.4194 C   0  0  0  0  0  0  0  0  0  0  0  0
  -30.4998   -6.9583   -5.1857 C   0  0  0  0  0  0  0  0  0  0  0  0
  -29.4445   -7.7570   -4.7518 C   0  0  0  0  0  0  0  0  0  0  0  0
  -29.5827   -9.1467   -4.6920 N   0  0  0  0  0  0  0  0  0  0  0  0
  -28.1909   -7.1666   -4.6102 C   0  0  0  0  0  0  0  0  0  0  0  0
  -28.0288   -5.7824   -4.7636 C   0  0  0  0  0  0  0  0  0  0  0  0
  -30.5202   -9.4579   -4.4559 H   0  0  0  0  0  0  0  0  0  0  0  0
  -28.8707   -9.6166   -4.1436 H   0  0  0  0  0  0  0  0  0  0  0  0
  1  2  1  0  0  0
  2  3  1  0  0  0
  2 11  2  0  0  0
  3  4  1  0  0  0
  4  5  1  0  0  0
  4 10  2  0  0  0
  5  6  2  0  0  0
  6  7  1  0  0  0
  7  8  2  0  0  0
  8  9  1  0  0  0
  8 10  1  0  0  0
  9 12  1  0  0  0
  9 13  1  0  0  0
 10 11  1  0  0  0
 11 14  1  0  0  0
 14 15  1  0  0  0
 14 20  2  0  0  0
 15 16  2  0  0  0
 16 17  1  0  0  0
 17 18  1  0  0  0
 17 19  2  0  0  0
 18 21  1  0  0  0
 18 22  1  0  0  0
 19 20  1  0  0  0
M  END
> <minimizedAffinity>
-7.11221

$$$$
