CHEMBL584701


 41 45  0  0  0  0  0  0  0  0999 V2000
  -15.0303   -5.7347  -11.7226 C   0  0  0  0  0  0  0  0  0  0  0  0
  -13.9347   -4.9546  -11.4482 C   0  0  0  0  0  0  0  0  0  0  0  0
  -13.9761   -3.5909  -11.7590 C   0  0  0  0  0  0  0  0  0  0  0  0
  -15.1594   -2.9383  -12.1131 C   0  0  0  0  0  0  0  0  0  0  0  0
  -16.3417   -3.6731  -12.0068 C   0  0  0  0  0  0  0  0  0  0  0  0
  -16.2658   -5.0650  -11.8047 C   0  0  0  0  0  0  0  0  0  0  0  0
  -17.4142   -5.7544  -11.6869 F   0  0  0  0  0  0  0  0  0  0  0  0
  -15.1739   -1.5937  -12.5795 N   0  0  0  0  0  0  0  0  0  0  0  0
  -14.6569   -1.1285  -13.7899 C   0  0  0  0  0  0  0  0  0  0  0  0
  -14.0124   -1.8231  -14.5789 O   0  0  0  0  0  0  0  0  0  0  0  0
  -15.5460   -0.8871  -11.9349 H   0  0  0  0  0  0  0  0  0  0  0  0
  -14.8511    0.3412  -14.1668 C   0  0  0  0  0  0  0  0  0  0  0  0
  -16.2437    0.8722  -14.0158 C   0  0  0  0  0  0  0  0  0  0  0  0
  -16.6726    1.0249  -12.8680 O   0  0  0  0  0  0  0  0  0  0  0  0
  -16.9629    1.1391  -15.1741 N   0  0  0  0  0  0  0  0  0  0  0  0
  -16.6222    0.8564  -16.0939 H   0  0  0  0  0  0  0  0  0  0  0  0
  -18.2929    1.6551  -15.1608 C   0  0  0  0  0  0  0  0  0  0  0  0
  -19.4141    0.8067  -15.0732 C   0  0  0  0  0  0  0  0  0  0  0  0
  -20.7095    1.3217  -15.0152 C   0  0  0  0  0  0  0  0  0  0  0  0
  -20.9159    2.6889  -15.1349 C   0  0  0  0  0  0  0  0  0  0  0  0
  -19.8211    3.5440  -15.2658 C   0  0  0  0  0  0  0  0  0  0  0  0
  -18.5150    3.0234  -15.2307 C   0  0  0  0  0  0  0  0  0  0  0  0
  -17.4435    3.8760  -15.2726 O   0  0  0  0  0  0  0  0  0  0  0  0
  -17.7674    4.7689  -15.0582 H   0  0  0  0  0  0  0  0  0  0  0  0
  -15.0136   -7.0787  -11.9934 O   0  0  0  0  0  0  0  0  0  0  0  0
  -13.4483   -7.5822  -16.2645 C   0  0  0  0  0  0  0  0  0  0  0  0
  -12.8157   -8.6789  -15.7941 C   0  0  0  0  0  0  0  0  0  0  0  0
  -12.9892   -8.8181  -14.4267 C   0  0  0  0  0  0  0  0  0  0  0  0
  -12.4688   -9.8823  -13.7948 N   0  0  0  0  0  0  0  0  0  0  0  0
  -12.3963   -9.7318  -12.4892 C   0  0  0  0  0  0  0  0  0  0  0  0
  -13.1225   -8.7846  -11.7597 C   0  0  0  0  0  0  0  0  0  0  0  0
  -13.9652   -7.8613  -12.4244 C   0  0  0  0  0  0  0  0  0  0  0  0
  -13.6924   -7.7937  -13.8087 C   0  0  0  0  0  0  0  0  0  0  0  0
  -14.1214   -6.6156  -15.0131 S   0  0  0  0  0  0  0  0  0  0  0  0
  -13.9979   -6.6436  -19.6322 N   0  0  0  0  0  0  0  0  0  0  0  0
  -13.6845   -7.9687  -19.7512 C   0  0  0  0  0  0  0  0  0  0  0  0
  -13.3965   -8.4852  -18.5790 N   0  0  0  0  0  0  0  0  0  0  0  0
  -13.5638   -7.4304  -17.6895 C   0  0  0  0  0  0  0  0  0  0  0  0
  -13.9467   -6.2995  -18.3313 C   0  0  0  0  0  0  0  0  0  0  0  0
  -14.2250   -4.2859  -20.2072 C   0  0  0  0  0  0  0  0  0  0  0  0
  -14.2822   -5.7179  -20.6912 C   0  0  0  0  0  0  0  0  0  0  0  0
 40 41  1  0  0  0
 41 35  1  0  0  0
 35 36  1  0  0  0
 35 39  1  0  0  0
 36 37  2  0  0  0
 37 38  1  0  0  0
 38 26  1  0  0  0
 38 39  2  0  0  0
 26 27  2  0  0  0
 26 34  1  0  0  0
 27 28  1  0  0  0
 28 29  1  0  0  0
 28 33  2  0  0  0
 29 30  2  0  0  0
 30 31  1  0  0  0
 31 32  2  0  0  0
 32 25  1  0  0  0
 32 33  1  0  0  0
 25  1  1  0  0  0
  1  2  1  0  0  0
  1  6  2  0  0  0
  2  3  2  0  0  0
  3  4  1  0  0  0
  4  8  1  0  0  0
  4  5  2  0  0  0
  8  9  1  0  0  0
  8 11  1  0  0  0
  9 10  2  0  0  0
  9 12  1  0  0  0
 12 13  1  0  0  0
 13 14  2  0  0  0
 13 15  1  0  0  0
 15 17  1  0  0  0
 15 16  1  0  0  0
 17 18  1  0  0  0
 17 22  2  0  0  0
 18 19  2  0  0  0
 19 20  1  0  0  0
 20 21  2  0  0  0
 21 22  1  0  0  0
 22 23  1  0  0  0
 23 24  1  0  0  0
  5  6  1  0  0  0
  6  7  1  0  0  0
 33 34  1  0  0  0
M  END
> <minimizedAffinity>
-10.05138

$$$$
