CHEMBL2001957


 37 40  0  0  0  0  0  0  0  0999 V2000
  -29.2430   -4.6224   -6.7975 C   0  0  0  0  0  0  0  0  0  0  0  0
  -29.5356   -4.0417   -5.5585 C   0  0  0  0  0  0  0  0  0  0  0  0
  -29.0174   -2.7594   -5.4703 N   0  0  0  0  0  0  0  0  0  0  0  0
  -28.4503   -2.5497   -6.6341 C   0  0  0  0  0  0  0  0  0  0  0  0
  -27.8094   -1.3703   -7.1522 C   0  0  0  0  0  0  0  0  0  0  0  0
  -27.3310   -1.2815   -8.3615 N   0  0  0  0  0  0  0  0  0  0  0  0
  -27.4359   -2.4071   -9.1535 C   0  0  0  0  0  0  0  0  0  0  0  0
  -28.0127   -3.5532   -8.7542 C   0  0  0  0  0  0  0  0  0  0  0  0
  -28.5561   -3.6303   -7.4754 N   0  0  0  0  0  0  0  0  0  0  0  0
  -30.2756   -4.6284   -4.4381 C   0  0  0  0  0  0  0  0  0  0  0  0
  -29.7955   -5.7962   -3.8299 C   0  0  0  0  0  0  0  0  0  0  0  0
  -30.4972   -6.3991   -2.7781 C   0  0  0  0  0  0  0  0  0  0  0  0
  -31.6803   -5.8286   -2.3304 C   0  0  0  0  0  0  0  0  0  0  0  0
  -32.3655   -6.4134   -1.3379 F   0  0  0  0  0  0  0  0  0  0  0  0
  -32.1615   -4.6568   -2.8952 C   0  0  0  0  0  0  0  0  0  0  0  0
  -31.4497   -4.0456   -3.9334 C   0  0  0  0  0  0  0  0  0  0  0  0
  -28.5973   -7.7678   -8.3959 C   0  0  0  0  0  0  0  0  0  0  0  0
  -29.7658   -8.4252   -8.3773 N   0  0  0  0  0  0  0  0  0  0  0  0
  -30.8130   -7.8086   -7.8200 C   0  0  0  0  0  0  0  0  0  0  0  0
  -30.7268   -6.5749   -7.2357 C   0  0  0  0  0  0  0  0  0  0  0  0
  -29.5022   -5.9509   -7.3422 C   0  0  0  0  0  0  0  0  0  0  0  0
  -28.4451   -6.5209   -7.9462 N   0  0  0  0  0  0  0  0  0  0  0  0
  -27.4660   -8.3899   -8.8940 N   0  0  0  0  0  0  0  0  0  0  0  0
  -27.4045   -8.1651   -9.8804 H   0  0  0  0  0  0  0  0  0  0  0  0
  -27.2915   -9.7664   -8.4687 C   0  0  0  0  0  0  0  0  0  0  0  0
  -26.0661  -11.7695   -9.4394 C   0  0  0  0  0  0  0  0  0  0  0  0
  -27.2109  -10.7605   -9.6486 C   0  0  0  0  0  0  0  0  0  0  0  0
  -26.9921  -10.0083  -10.9738 C   0  0  0  0  0  0  0  0  0  0  0  0
  -28.5615  -11.5170   -9.6821 C   0  0  0  0  0  0  0  0  0  0  0  0
  -29.6354  -10.7005  -10.1286 O   0  0  0  0  0  0  0  0  0  0  0  0
  -29.8079  -10.0319   -9.4450 H   0  0  0  0  0  0  0  0  0  0  0  0
  -27.7913   -0.3331   -6.2775 O   0  0  0  0  0  0  0  0  0  0  0  0
  -28.6138    0.7862   -6.6646 C   0  0  0  0  0  0  0  0  0  0  0  0
  -29.8069    0.9944   -5.7297 C   0  0  0  0  0  0  0  0  0  0  0  0
  -30.6913    1.9027   -6.2048 F   0  0  0  0  0  0  0  0  0  0  0  0
  -30.4856   -0.1636   -5.5547 F   0  0  0  0  0  0  0  0  0  0  0  0
  -29.4119    1.4166   -4.5076 F   0  0  0  0  0  0  0  0  0  0  0  0
 26 27  1  0  0  0
 27 28  1  0  0  0
 27 29  1  0  0  0
 27 25  1  0  0  0
 29 30  1  0  0  0
 30 31  1  0  0  0
 25 23  1  0  0  0
 23 17  1  0  0  0
 23 24  1  0  0  0
 17 18  1  0  0  0
 17 22  2  0  0  0
 18 19  2  0  0  0
 19 20  1  0  0  0
 20 21  2  0  0  0
 21  1  1  0  0  0
 21 22  1  0  0  0
  1  2  2  0  0  0
  1  9  1  0  0  0
  2 10  1  0  0  0
  2  3  1  0  0  0
 10 11  1  0  0  0
 10 16  2  0  0  0
 11 12  2  0  0  0
 12 13  1  0  0  0
 13 14  1  0  0  0
 13 15  2  0  0  0
 15 16  1  0  0  0
  3  4  2  0  0  0
  4  5  1  0  0  0
  4  9  1  0  0  0
  5 32  1  0  0  0
  5  6  2  0  0  0
 32 33  1  0  0  0
 33 34  1  0  0  0
 34 35  1  0  0  0
 34 36  1  0  0  0
 34 37  1  0  0  0
  6  7  1  0  0  0
  7  8  2  0  0  0
  8  9  1  0  0  0
M  END
> <minimizedAffinity>
-8.51924

$$$$
