CHEMBL3671480


 34 37  0  0  0  0  0  0  0  0999 V2000
  -28.6102   -4.9634   -5.4826 C   0  0  0  0  0  0  0  0  0  0  0  0
  -28.2914   -6.2755   -5.1140 C   0  0  0  0  0  0  0  0  0  0  0  0
  -28.4757   -7.3352   -6.0127 C   0  0  0  0  0  0  0  0  0  0  0  0
  -28.3990   -8.6906   -5.6542 C   0  0  0  0  0  0  0  0  0  0  0  0
  -28.5750   -9.6674   -6.5573 N   0  0  0  0  0  0  0  0  0  0  0  0
  -28.8340   -9.2895   -7.8085 C   0  0  0  0  0  0  0  0  0  0  0  0
  -28.9445   -8.0266   -8.2481 N   0  0  0  0  0  0  0  0  0  0  0  0
  -28.7646   -7.0590   -7.3433 C   0  0  0  0  0  0  0  0  0  0  0  0
  -28.9143   -5.7388   -7.7365 C   0  0  0  0  0  0  0  0  0  0  0  0
  -28.8979   -4.6673   -6.8165 C   0  0  0  0  0  0  0  0  0  0  0  0
  -29.9020   -3.7876   -3.7327 C   0  0  0  0  0  0  0  0  0  0  0  0
  -29.9294   -3.0613   -2.7496 O   0  0  0  0  0  0  0  0  0  0  0  0
  -28.7479   -4.0080   -4.4598 N   0  0  0  0  0  0  0  0  0  0  0  0
  -28.0086   -3.3315   -4.3201 H   0  0  0  0  0  0  0  0  0  0  0  0
  -31.8027   -5.3687   -3.5944 C   0  0  0  0  0  0  0  0  0  0  0  0
  -31.1514   -4.4162   -4.2675 C   0  0  0  0  0  0  0  0  0  0  0  0
  -28.2184   -9.0399   -4.3005 N   0  0  0  0  0  0  0  0  0  0  0  0
  -29.1054   -9.1695   -3.8211 H   0  0  0  0  0  0  0  0  0  0  0  0
  -27.1671   -9.7806   -3.7322 C   0  0  0  0  0  0  0  0  0  0  0  0
  -27.3438  -11.1155   -3.3553 C   0  0  0  0  0  0  0  0  0  0  0  0
  -26.2462  -11.9026   -2.9955 C   0  0  0  0  0  0  0  0  0  0  0  0
  -24.9633  -11.3561   -3.0059 C   0  0  0  0  0  0  0  0  0  0  0  0
  -23.4745  -12.4622   -2.6473 Br  0  0  0  0  0  0  0  0  0  0  0  0
  -24.7707  -10.0150   -3.3269 C   0  0  0  0  0  0  0  0  0  0  0  0
  -25.8704   -9.2457   -3.6928 C   0  0  0  0  0  0  0  0  0  0  0  0
  -25.6789   -7.9621   -4.0397 F   0  0  0  0  0  0  0  0  0  0  0  0
  -29.2549   -3.3735   -7.1362 O   0  0  0  0  0  0  0  0  0  0  0  0
  -28.1442   -2.5095   -7.4327 C   0  0  0  0  0  0  0  0  0  0  0  0
  -28.1265   -1.2063   -6.6658 C   0  0  0  0  0  0  0  0  0  0  0  0
  -28.7061   -0.0331   -7.1255 C   0  0  0  0  0  0  0  0  0  0  0  0
  -28.6528    1.0919   -6.3206 C   0  0  0  0  0  0  0  0  0  0  0  0
  -28.0729    1.1316   -5.0996 N   0  0  0  0  0  0  0  0  0  0  0  0
  -27.5167   -0.0203   -4.6658 C   0  0  0  0  0  0  0  0  0  0  0  0
  -27.5232   -1.1954   -5.4037 C   0  0  0  0  0  0  0  0  0  0  0  0
 15 16  2  0  0  0
 16 11  1  0  0  0
 11 12  2  0  0  0
 11 13  1  0  0  0
 13  1  1  0  0  0
 13 14  1  0  0  0
  1  2  1  0  0  0
  1 10  2  0  0  0
  2  3  2  0  0  0
  3  4  1  0  0  0
  3  8  1  0  0  0
  4 17  1  0  0  0
  4  5  2  0  0  0
 17 19  1  0  0  0
 17 18  1  0  0  0
 19 20  1  0  0  0
 19 25  2  0  0  0
 20 21  2  0  0  0
 21 22  1  0  0  0
 22 23  1  0  0  0
 22 24  2  0  0  0
 24 25  1  0  0  0
 25 26  1  0  0  0
  5  6  1  0  0  0
  6  7  2  0  0  0
  7  8  1  0  0  0
  8  9  2  0  0  0
  9 10  1  0  0  0
 10 27  1  0  0  0
 27 28  1  0  0  0
 28 29  1  0  0  0
 29 30  1  0  0  0
 29 34  2  0  0  0
 30 31  2  0  0  0
 31 32  1  0  0  0
 32 33  2  0  0  0
 33 34  1  0  0  0
M  END
> <minimizedAffinity>
-8.42972

$$$$
