CHEMBL1681952


 34 36  0  0  0  0  0  0  0  0999 V2000
  -27.7562   -1.7386   -9.8956 C   0  0  0  0  0  0  0  0  0  0  0  0
  -26.3960   -1.6155   -9.6148 C   0  0  0  0  0  0  0  0  0  0  0  0
  -25.4689   -1.5040  -10.6474 C   0  0  0  0  0  0  0  0  0  0  0  0
  -25.8624   -1.5425  -11.9897 C   0  0  0  0  0  0  0  0  0  0  0  0
  -27.2162   -1.7935  -12.2642 C   0  0  0  0  0  0  0  0  0  0  0  0
  -27.7772   -1.9435  -13.8946 Cl  0  0  0  0  0  0  0  0  0  0  0  0
  -28.1638   -1.8878  -11.2230 C   0  0  0  0  0  0  0  0  0  0  0  0
  -24.9274   -1.3058  -13.0438 N   0  0  0  0  0  0  0  0  0  0  0  0
  -23.9630   -0.3102  -13.0154 C   0  0  0  0  0  0  0  0  0  0  0  0
  -23.7994    0.4625  -12.0757 O   0  0  0  0  0  0  0  0  0  0  0  0
  -23.2211   -0.2148  -14.1848 N   0  0  0  0  0  0  0  0  0  0  0  0
  -25.1000   -1.7867  -13.9179 H   0  0  0  0  0  0  0  0  0  0  0  0
  -23.7424   -0.4020  -15.0288 H   0  0  0  0  0  0  0  0  0  0  0  0
  -22.2526    0.8213  -14.2600 C   0  0  0  0  0  0  0  0  0  0  0  0
  -22.6078    2.1568  -14.0145 C   0  0  0  0  0  0  0  0  0  0  0  0
  -21.7129    3.1892  -14.2909 C   0  0  0  0  0  0  0  0  0  0  0  0
  -20.4606    2.8787  -14.8007 C   0  0  0  0  0  0  0  0  0  0  0  0
  -19.6204    3.8680  -15.1308 F   0  0  0  0  0  0  0  0  0  0  0  0
  -20.0723    1.5551  -14.9919 C   0  0  0  0  0  0  0  0  0  0  0  0
  -20.9605    0.5163  -14.6942 C   0  0  0  0  0  0  0  0  0  0  0  0
  -28.6943   -1.7390   -8.8840 O   0  0  0  0  0  0  0  0  0  0  0  0
  -28.4545   -2.4778   -6.6069 C   0  0  0  0  0  0  0  0  0  0  0  0
  -28.3601   -3.5714   -5.7512 C   0  0  0  0  0  0  0  0  0  0  0  0
  -28.3109   -3.4448   -4.3639 N   0  0  0  0  0  0  0  0  0  0  0  0
  -28.4297   -4.8410   -6.1836 N   0  0  0  0  0  0  0  0  0  0  0  0
  -28.5657   -5.0176   -7.5004 C   0  0  0  0  0  0  0  0  0  0  0  0
  -28.6262   -4.0459   -8.4136 N   0  0  0  0  0  0  0  0  0  0  0  0
  -28.6017   -2.7759   -7.9478 C   0  0  0  0  0  0  0  0  0  0  0  0
  -27.6899   -2.6877   -4.0761 H   0  0  0  0  0  0  0  0  0  0  0  0
  -28.1045   -4.3444   -3.9437 H   0  0  0  0  0  0  0  0  0  0  0  0
  -29.2903   -0.6370   -5.3026 N   0  0  0  0  0  0  0  0  0  0  0  0
  -28.3821   -1.0954   -6.1087 C   0  0  0  0  0  0  0  0  0  0  0  0
  -28.6768    1.3696   -6.1988 C   0  0  0  0  0  0  0  0  0  0  0  0
  -29.0253    0.7004   -4.9895 O   0  0  0  0  0  0  0  0  0  0  0  0
 33 34  1  0  0  0
 34 31  1  0  0  0
 31 32  2  0  0  0
 32 22  1  0  0  0
 22 23  1  0  0  0
 22 28  2  0  0  0
 23 24  1  0  0  0
 23 25  2  0  0  0
 24 29  1  0  0  0
 24 30  1  0  0  0
 25 26  1  0  0  0
 26 27  2  0  0  0
 27 28  1  0  0  0
 28 21  1  0  0  0
 21  1  1  0  0  0
  1  2  1  0  0  0
  1  7  2  0  0  0
  2  3  2  0  0  0
  3  4  1  0  0  0
  4  8  1  0  0  0
  4  5  2  0  0  0
  8  9  1  0  0  0
  8 12  1  0  0  0
  9 10  2  0  0  0
  9 11  1  0  0  0
 11 14  1  0  0  0
 11 13  1  0  0  0
 14 15  1  0  0  0
 14 20  2  0  0  0
 15 16  2  0  0  0
 16 17  1  0  0  0
 17 18  1  0  0  0
 17 19  2  0  0  0
 19 20  1  0  0  0
  5  6  1  0  0  0
  5  7  1  0  0  0
M  END
> <minimizedAffinity>
-9.03861

$$$$
