CHEMBL4590013


 33 36  0  0  0  0  0  0  0  0999 V2000
  -13.9510    1.2841  -15.1382 C   0  0  0  0  0  0  0  0  0  0  0  0
  -12.9038    2.1419  -14.8697 C   0  0  0  0  0  0  0  0  0  0  0  0
  -13.1290    3.4775  -15.0961 C   0  0  0  0  0  0  0  0  0  0  0  0
  -14.3026    3.9654  -15.5225 N   0  0  0  0  0  0  0  0  0  0  0  0
  -15.2795    3.0702  -15.7136 C   0  0  0  0  0  0  0  0  0  0  0  0
  -15.1426    1.7430  -15.5643 N   0  0  0  0  0  0  0  0  0  0  0  0
  -13.7222   -0.0985  -15.0195 N   0  0  0  0  0  0  0  0  0  0  0  0
  -13.0455   -0.4870  -15.6610 H   0  0  0  0  0  0  0  0  0  0  0  0
  -15.4733   -2.8042  -12.2935 C   0  0  0  0  0  0  0  0  0  0  0  0
  -14.5729   -3.2641  -13.2582 C   0  0  0  0  0  0  0  0  0  0  0  0
  -14.0022   -2.3709  -14.1686 C   0  0  0  0  0  0  0  0  0  0  0  0
  -14.2559   -1.0028  -14.0933 C   0  0  0  0  0  0  0  0  0  0  0  0
  -15.1236   -0.5459  -13.0988 C   0  0  0  0  0  0  0  0  0  0  0  0
  -15.7555   -1.4378  -12.2230 C   0  0  0  0  0  0  0  0  0  0  0  0
  -16.6808   -5.0395  -11.8663 C   0  0  0  0  0  0  0  0  0  0  0  0
  -16.1540   -3.7293  -11.3428 C   0  0  0  0  0  0  0  0  0  0  0  0
  -16.2696   -3.4155  -10.1603 O   0  0  0  0  0  0  0  0  0  0  0  0
  -16.8547    3.6966  -16.2350 S   0  0  0  0  0  0  0  0  0  0  0  0
  -17.9470    2.4450  -15.4823 C   0  0  0  0  0  0  0  0  0  0  0  0
  -19.3079    3.0328  -15.1387 C   0  0  0  0  0  0  0  0  0  0  0  0
  -19.4992    4.2500  -15.1789 O   0  0  0  0  0  0  0  0  0  0  0  0
  -20.4523    2.1504  -14.7828 C   0  0  0  0  0  0  0  0  0  0  0  0
  -20.4341    0.7526  -14.8751 C   0  0  0  0  0  0  0  0  0  0  0  0
  -21.5649    0.0052  -14.4841 C   0  0  0  0  0  0  0  0  0  0  0  0
  -22.7236    0.5940  -13.9541 C   0  0  0  0  0  0  0  0  0  0  0  0
  -22.7273    1.9948  -13.8996 C   0  0  0  0  0  0  0  0  0  0  0  0
  -21.6217    2.7550  -14.3177 C   0  0  0  0  0  0  0  0  0  0  0  0
  -23.8738   -0.1962  -13.4239 C   0  0  0  0  0  0  0  0  0  0  0  0
  -24.3297   -0.0656  -12.0979 C   0  0  0  0  0  0  0  0  0  0  0  0
  -25.4896   -0.6989  -11.6344 C   0  0  0  0  0  0  0  0  0  0  0  0
  -26.2099   -1.5260  -12.4834 C   0  0  0  0  0  0  0  0  0  0  0  0
  -25.7595   -1.7254  -13.7836 C   0  0  0  0  0  0  0  0  0  0  0  0
  -24.6080   -1.0715  -14.2444 C   0  0  0  0  0  0  0  0  0  0  0  0
 15 16  1  0  0  0
 16 17  2  0  0  0
 16  9  1  0  0  0
  9 10  1  0  0  0
  9 14  2  0  0  0
 10 11  2  0  0  0
 11 12  1  0  0  0
 12  7  1  0  0  0
 12 13  2  0  0  0
  7  1  1  0  0  0
  7  8  1  0  0  0
  1  2  1  0  0  0
  1  6  2  0  0  0
  2  3  2  0  0  0
  3  4  1  0  0  0
  4  5  2  0  0  0
  5 18  1  0  0  0
  5  6  1  0  0  0
 18 19  1  0  0  0
 19 20  1  0  0  0
 20 21  2  0  0  0
 20 22  1  0  0  0
 22 23  1  0  0  0
 22 27  2  0  0  0
 23 24  2  0  0  0
 24 25  1  0  0  0
 25 28  1  0  0  0
 25 26  2  0  0  0
 28 29  1  0  0  0
 28 33  2  0  0  0
 29 30  2  0  0  0
 30 31  1  0  0  0
 31 32  2  0  0  0
 32 33  1  0  0  0
 26 27  1  0  0  0
 13 14  1  0  0  0
M  END
> <minimizedAffinity>
-10.39323

$$$$
