CHEMBL2010872


 38 44  0  0  0  0  0  0  0  0999 V2000
  -15.7635    1.3024  -14.9080 N   0  0  0  0  0  0  0  0  0  0  0  0
  -14.9850    2.4669  -15.0689 C   0  0  0  0  0  0  0  0  0  0  0  0
  -15.2213    3.6592  -15.7672 C   0  0  0  0  0  0  0  0  0  0  0  0
  -14.1773    4.5935  -15.8751 C   0  0  0  0  0  0  0  0  0  0  0  0
  -12.9345    4.4079  -15.2641 C   0  0  0  0  0  0  0  0  0  0  0  0
  -12.7323    3.2239  -14.5468 C   0  0  0  0  0  0  0  0  0  0  0  0
  -13.7350    2.2410  -14.4696 C   0  0  0  0  0  0  0  0  0  0  0  0
  -13.8460    0.9394  -14.0300 C   0  0  0  0  0  0  0  0  0  0  0  0
  -12.7285    0.1471  -13.7247 C   0  0  0  0  0  0  0  0  0  0  0  0
  -12.9326   -1.2433  -13.8273 C   0  0  0  0  0  0  0  0  0  0  0  0
  -14.1862   -1.8329  -14.0596 C   0  0  0  0  0  0  0  0  0  0  0  0
  -15.2842   -0.9733  -13.7240 C   0  0  0  0  0  0  0  0  0  0  0  0
  -15.0843    0.3655  -14.1261 C   0  0  0  0  0  0  0  0  0  0  0  0
  -15.9447   -1.3698  -12.3369 C   0  0  0  0  0  0  0  0  0  0  0  0
  -15.1456   -2.4706  -11.5212 C   0  0  0  0  0  0  0  0  0  0  0  0
  -14.8548   -3.5762  -12.4728 C   0  0  0  0  0  0  0  0  0  0  0  0
  -15.2814   -4.8367  -12.4114 N   0  0  0  0  0  0  0  0  0  0  0  0
  -15.1279   -5.2598  -13.6919 N   0  0  0  0  0  0  0  0  0  0  0  0
  -15.6148   -6.5619  -14.0777 C   0  0  0  0  0  0  0  0  0  0  0  0
  -14.7046   -4.2740  -14.5504 C   0  0  0  0  0  0  0  0  0  0  0  0
  -14.3637   -3.2265  -13.7402 C   0  0  0  0  0  0  0  0  0  0  0  0
  -11.6821   -1.8873  -13.4986 C   0  0  0  0  0  0  0  0  0  0  0  0
  -11.3244   -3.0600  -13.4171 O   0  0  0  0  0  0  0  0  0  0  0  0
  -10.8230   -0.8356  -13.1983 N   0  0  0  0  0  0  0  0  0  0  0  0
  -11.3579    0.4965  -13.3715 C   0  0  0  0  0  0  0  0  0  0  0  0
   -9.8981   -1.0370  -12.8530 H   0  0  0  0  0  0  0  0  0  0  0  0
  -11.8649    5.2974  -15.3580 N   0  0  0  0  0  0  0  0  0  0  0  0
  -10.9821    5.0145  -14.9647 H   0  0  0  0  0  0  0  0  0  0  0  0
  -11.7158    6.5641  -15.8919 C   0  0  0  0  0  0  0  0  0  0  0  0
  -12.0226    7.6687  -15.1995 N   0  0  0  0  0  0  0  0  0  0  0  0
  -11.8289    8.8562  -15.7948 C   0  0  0  0  0  0  0  0  0  0  0  0
  -11.3251    8.9917  -17.0673 C   0  0  0  0  0  0  0  0  0  0  0  0
  -11.0384    7.8159  -17.7089 C   0  0  0  0  0  0  0  0  0  0  0  0
  -11.2234    6.6001  -17.1449 N   0  0  0  0  0  0  0  0  0  0  0  0
  -16.9887    1.0593  -15.6748 C   0  0  0  0  0  0  0  0  0  0  0  0
  -18.7002    2.9717  -15.5576 C   0  0  0  0  0  0  0  0  0  0  0  0
  -18.2877    1.6023  -15.0164 C   0  0  0  0  0  0  0  0  0  0  0  0
  -19.4479    0.6155  -15.1864 C   0  0  0  0  0  0  0  0  0  0  0  0
 36 37  1  0  0  0
 37 38  1  0  0  0
 37 35  1  0  0  0
 35  1  1  0  0  0
  1  2  1  0  0  0
  1 13  1  0  0  0
  2  3  1  0  0  0
  2  7  2  0  0  0
  3  4  2  0  0  0
  4  5  1  0  0  0
  5 27  1  0  0  0
  5  6  2  0  0  0
 27 29  1  0  0  0
 27 28  1  0  0  0
 29 30  1  0  0  0
 29 34  2  0  0  0
 30 31  2  0  0  0
 31 32  1  0  0  0
 32 33  2  0  0  0
 33 34  1  0  0  0
  6  7  1  0  0  0
  7  8  1  0  0  0
  8  9  1  0  0  0
  8 13  2  0  0  0
  9 10  2  0  0  0
  9 25  1  0  0  0
 10 11  1  0  0  0
 10 22  1  0  0  0
 11 12  2  0  0  0
 11 21  1  0  0  0
 12 13  1  0  0  0
 12 14  1  0  0  0
 14 15  1  0  0  0
 15 16  1  0  0  0
 16 17  2  0  0  0
 16 21  1  0  0  0
 17 18  1  0  0  0
 18 19  1  0  0  0
 18 20  1  0  0  0
 20 21  2  0  0  0
 22 23  2  0  0  0
 22 24  1  0  0  0
 24 25  1  0  0  0
 24 26  1  0  0  0
M  END
> <minimizedAffinity>
-7.83578

$$$$
