CHEMBL1241586


 27 30  0  0  0  0  0  0  0  0999 V2000
  -29.0087   -3.1345   -6.4360 N   0  0  0  0  0  0  0  0  0  0  0  0
  -28.9288   -4.2159   -7.2441 N   0  0  0  0  0  0  0  0  0  0  0  0
  -29.6123   -5.1773   -6.5950 C   0  0  0  0  0  0  0  0  0  0  0  0
  -30.0596   -4.7197   -5.3127 C   0  0  0  0  0  0  0  0  0  0  0  0
  -30.7661   -5.2131   -4.2017 C   0  0  0  0  0  0  0  0  0  0  0  0
  -31.2537   -6.5043   -4.0697 N   0  0  0  0  0  0  0  0  0  0  0  0
  -31.0209   -4.3815   -3.1735 N   0  0  0  0  0  0  0  0  0  0  0  0
  -30.5801   -3.1114   -3.2506 C   0  0  0  0  0  0  0  0  0  0  0  0
  -29.8891   -2.5275   -4.2459 N   0  0  0  0  0  0  0  0  0  0  0  0
  -29.6605   -3.3900   -5.2571 C   0  0  0  0  0  0  0  0  0  0  0  0
  -30.7207   -7.2397   -4.5136 H   0  0  0  0  0  0  0  0  0  0  0  0
  -31.5999   -6.7010   -3.1385 H   0  0  0  0  0  0  0  0  0  0  0  0
  -29.8321   -6.4810   -7.2332 C   0  0  0  0  0  0  0  0  0  0  0  0
  -31.0900   -7.1305   -7.1065 C   0  0  0  0  0  0  0  0  0  0  0  0
  -31.3433   -8.3931   -7.6451 C   0  0  0  0  0  0  0  0  0  0  0  0
  -30.3467   -8.9238   -8.4144 C   0  0  0  0  0  0  0  0  0  0  0  0
  -30.3569  -10.0792   -9.1820 N   0  0  0  0  0  0  0  0  0  0  0  0
  -29.1724  -10.1262   -9.9318 C   0  0  0  0  0  0  0  0  0  0  0  0
  -28.8805  -10.9508  -10.7716 O   0  0  0  0  0  0  0  0  0  0  0  0
  -28.4016   -9.0311   -9.5188 N   0  0  0  0  0  0  0  0  0  0  0  0
  -29.1312   -8.2748   -8.6121 C   0  0  0  0  0  0  0  0  0  0  0  0
  -28.8261   -7.0709   -8.0173 C   0  0  0  0  0  0  0  0  0  0  0  0
  -31.1190  -10.7227   -9.3051 H   0  0  0  0  0  0  0  0  0  0  0  0
  -27.5119   -8.7907   -9.9181 H   0  0  0  0  0  0  0  0  0  0  0  0
  -27.4482   -1.2947   -5.8673 C   0  0  0  0  0  0  0  0  0  0  0  0
  -28.4504   -1.8582   -6.8770 C   0  0  0  0  0  0  0  0  0  0  0  0
  -27.7924   -1.9654   -8.2565 C   0  0  0  0  0  0  0  0  0  0  0  0
 25 26  1  0  0  0
 26 27  1  0  0  0
 26  1  1  0  0  0
  1  2  1  0  0  0
  1 10  1  0  0  0
  2  3  2  0  0  0
  3 13  1  0  0  0
  3  4  1  0  0  0
 13 14  1  0  0  0
 13 22  2  0  0  0
 14 15  2  0  0  0
 15 16  1  0  0  0
 16 17  1  0  0  0
 16 21  2  0  0  0
 17 18  1  0  0  0
 17 23  1  0  0  0
 18 19  2  0  0  0
 18 20  1  0  0  0
 20 21  1  0  0  0
 20 24  1  0  0  0
 21 22  1  0  0  0
  4  5  1  0  0  0
  4 10  2  0  0  0
  5  6  1  0  0  0
  5  7  2  0  0  0
  6 11  1  0  0  0
  6 12  1  0  0  0
  7  8  1  0  0  0
  8  9  2  0  0  0
  9 10  1  0  0  0
M  END
> <minimizedAffinity>
-8.58872

$$$$
