CHEMBL3959195


 35 39  0  0  0  0  0  0  0  0999 V2000
  -17.4105    2.3916  -15.1794 C   0  0  0  0  0  0  0  0  0  0  0  0
  -18.4687    3.3049  -15.0157 C   0  0  0  0  0  0  0  0  0  0  0  0
  -19.7718    2.9132  -14.7904 C   0  0  0  0  0  0  0  0  0  0  0  0
  -20.7024    3.8631  -14.7375 N   0  0  0  0  0  0  0  0  0  0  0  0
  -21.9477    3.4471  -14.5193 C   0  0  0  0  0  0  0  0  0  0  0  0
  -22.3257    2.1805  -14.3136 N   0  0  0  0  0  0  0  0  0  0  0  0
  -21.3677    1.2378  -14.3517 C   0  0  0  0  0  0  0  0  0  0  0  0
  -20.0323    1.5577  -14.6420 C   0  0  0  0  0  0  0  0  0  0  0  0
  -18.9788    0.6231  -14.7680 C   0  0  0  0  0  0  0  0  0  0  0  0
  -17.6666    1.0245  -15.0167 C   0  0  0  0  0  0  0  0  0  0  0  0
  -21.6870   -0.1217  -14.0989 N   0  0  0  0  0  0  0  0  0  0  0  0
  -20.8383   -0.6058  -13.8221 H   0  0  0  0  0  0  0  0  0  0  0  0
  -22.8078   -0.6334  -13.4158 C   0  0  0  0  0  0  0  0  0  0  0  0
  -22.8038   -0.8664  -12.0374 C   0  0  0  0  0  0  0  0  0  0  0  0
  -23.9318   -1.3823  -11.3967 C   0  0  0  0  0  0  0  0  0  0  0  0
  -25.0959   -1.6262  -12.1213 C   0  0  0  0  0  0  0  0  0  0  0  0
  -26.4443   -2.2884  -11.2709 Cl  0  0  0  0  0  0  0  0  0  0  0  0
  -25.1393   -1.3288  -13.4866 C   0  0  0  0  0  0  0  0  0  0  0  0
  -26.5562   -1.5656  -14.4445 Cl  0  0  0  0  0  0  0  0  0  0  0  0
  -24.0006   -0.8241  -14.1229 C   0  0  0  0  0  0  0  0  0  0  0  0
  -16.8446   -0.0515  -15.1687 O   0  0  0  0  0  0  0  0  0  0  0  0
  -16.0217   -0.4642  -14.0932 C   0  0  0  0  0  0  0  0  0  0  0  0
  -16.1700    2.8450  -15.5365 O   0  0  0  0  0  0  0  0  0  0  0  0
  -16.1865    4.0931  -16.2791 C   0  0  0  0  0  0  0  0  0  0  0  0
  -13.7543    7.8484  -18.2836 N   0  0  0  0  0  0  0  0  0  0  0  0
  -12.3625    7.6744  -17.8853 C   0  0  0  0  0  0  0  0  0  0  0  0
  -12.2472    6.5954  -16.7999 C   0  0  0  0  0  0  0  0  0  0  0  0
  -12.8363    5.2455  -17.2419 C   0  0  0  0  0  0  0  0  0  0  0  0
  -13.8524    4.8304  -16.2340 N   0  0  0  0  0  0  0  0  0  0  0  0
  -14.8276    4.2538  -16.8618 C   0  0  0  0  0  0  0  0  0  0  0  0
  -14.6096    3.8981  -18.5612 S   0  0  0  0  0  0  0  0  0  0  0  0
  -13.5465    5.3555  -18.5987 C   0  0  0  0  0  0  0  0  0  0  0  0
  -14.4392    6.6077  -18.6358 C   0  0  0  0  0  0  0  0  0  0  0  0
  -15.4857    9.0362  -19.6395 C   0  0  0  0  0  0  0  0  0  0  0  0
  -14.0269    8.9311  -19.2174 C   0  0  0  0  0  0  0  0  0  0  0  0
 34 35  1  0  0  0
 35 25  1  0  0  0
 25 26  1  0  0  0
 25 33  1  0  0  0
 26 27  1  0  0  0
 27 28  1  0  0  0
 28 29  1  0  0  0
 28 32  1  0  0  0
 29 30  2  0  0  0
 30 24  1  0  0  0
 30 31  1  0  0  0
 24 23  1  0  0  0
 23  1  1  0  0  0
  1  2  1  0  0  0
  1 10  2  0  0  0
  2  3  2  0  0  0
  3  4  1  0  0  0
  3  8  1  0  0  0
  4  5  2  0  0  0
  5  6  1  0  0  0
  6  7  2  0  0  0
  7 11  1  0  0  0
  7  8  1  0  0  0
 11 13  1  0  0  0
 11 12  1  0  0  0
 13 14  1  0  0  0
 13 20  2  0  0  0
 14 15  2  0  0  0
 15 16  1  0  0  0
 16 17  1  0  0  0
 16 18  2  0  0  0
 18 19  1  0  0  0
 18 20  1  0  0  0
  8  9  2  0  0  0
  9 10  1  0  0  0
 10 21  1  0  0  0
 21 22  1  0  0  0
 31 32  1  0  0  0
 32 33  1  0  0  0
M  END
> <minimizedAffinity>
-8.81600

$$$$
