CHEMBL3676394


 40 42  0  0  0  0  0  0  0  0999 V2000
  -13.9798   -2.6562  -12.7922 C   0  0  0  0  0  0  0  0  0  0  0  0
  -14.5444   -1.5826  -13.4872 C   0  0  0  0  0  0  0  0  0  0  0  0
  -14.0452   -1.2073  -14.7408 C   0  0  0  0  0  0  0  0  0  0  0  0
  -14.2853    0.0284  -15.3470 C   0  0  0  0  0  0  0  0  0  0  0  0
  -13.7199    0.3536  -16.5248 N   0  0  0  0  0  0  0  0  0  0  0  0
  -12.9019   -0.5415  -17.0765 C   0  0  0  0  0  0  0  0  0  0  0  0
  -12.5789   -1.7302  -16.5648 N   0  0  0  0  0  0  0  0  0  0  0  0
  -13.1320   -2.0437  -15.3908 C   0  0  0  0  0  0  0  0  0  0  0  0
  -12.7236   -3.2082  -14.7589 C   0  0  0  0  0  0  0  0  0  0  0  0
  -13.0865   -3.5125  -13.4451 C   0  0  0  0  0  0  0  0  0  0  0  0
  -15.2130   -3.4771  -10.8022 C   0  0  0  0  0  0  0  0  0  0  0  0
  -15.2287   -3.6583   -9.5886 O   0  0  0  0  0  0  0  0  0  0  0  0
  -14.2238   -2.7227  -11.4082 N   0  0  0  0  0  0  0  0  0  0  0  0
  -13.6910   -2.1209  -10.7909 H   0  0  0  0  0  0  0  0  0  0  0  0
  -16.6281   -5.2858  -11.7959 C   0  0  0  0  0  0  0  0  0  0  0  0
  -16.3165   -3.9902  -11.6812 C   0  0  0  0  0  0  0  0  0  0  0  0
  -15.0013    1.0283  -14.6362 N   0  0  0  0  0  0  0  0  0  0  0  0
  -14.8817    0.9360  -13.6305 H   0  0  0  0  0  0  0  0  0  0  0  0
  -16.3054    1.4449  -14.9870 C   0  0  0  0  0  0  0  0  0  0  0  0
  -17.4163    0.6369  -14.7044 C   0  0  0  0  0  0  0  0  0  0  0  0
  -18.7115    1.1260  -14.8635 C   0  0  0  0  0  0  0  0  0  0  0  0
  -18.9015    2.4221  -15.3402 C   0  0  0  0  0  0  0  0  0  0  0  0
  -20.6505    3.1305  -15.4279 Br  0  0  0  0  0  0  0  0  0  0  0  0
  -17.8141    3.2074  -15.7153 C   0  0  0  0  0  0  0  0  0  0  0  0
  -16.5272    2.7083  -15.5448 C   0  0  0  0  0  0  0  0  0  0  0  0
  -15.4765    3.4774  -15.8710 F   0  0  0  0  0  0  0  0  0  0  0  0
  -12.5083   -4.5428  -12.7166 O   0  0  0  0  0  0  0  0  0  0  0  0
  -12.9580   -5.8665  -13.0713 C   0  0  0  0  0  0  0  0  0  0  0  0
  -12.7451   -6.9051  -11.9460 C   0  0  0  0  0  0  0  0  0  0  0  0
  -12.8975   -6.2471  -10.6360 N   0  0  0  0  0  0  0  0  0  0  0  0
  -11.8619   -6.0626   -9.7424 C   0  0  0  0  0  0  0  0  0  0  0  0
  -10.6974   -6.3686   -9.9848 O   0  0  0  0  0  0  0  0  0  0  0  0
  -13.8236   -6.0020  -10.3019 H   0  0  0  0  0  0  0  0  0  0  0  0
  -12.2776   -5.4110   -8.4103 C   0  0  0  0  0  0  0  0  0  0  0  0
  -11.3445   -4.3254   -8.0186 N   0  0  0  0  0  0  0  0  0  0  0  0
  -11.9858   -3.0123   -8.1814 C   0  0  0  0  0  0  0  0  0  0  0  0
  -10.9635   -4.4837   -6.6086 C   0  0  0  0  0  0  0  0  0  0  0  0
  -13.6847   -8.1329  -12.0869 C   0  0  0  0  0  0  0  0  0  0  0  0
  -14.5836   -8.0317  -13.3217 C   0  0  0  0  0  0  0  0  0  0  0  0
  -12.9358   -9.4691  -12.0989 C   0  0  0  0  0  0  0  0  0  0  0  0
 15 16  2  0  0  0
 16 11  1  0  0  0
 11 12  2  0  0  0
 11 13  1  0  0  0
 13  1  1  0  0  0
 13 14  1  0  0  0
  1  2  1  0  0  0
  1 10  2  0  0  0
  2  3  2  0  0  0
  3  4  1  0  0  0
  3  8  1  0  0  0
  4 17  1  0  0  0
  4  5  2  0  0  0
 17 19  1  0  0  0
 17 18  1  0  0  0
 19 20  1  0  0  0
 19 25  2  0  0  0
 20 21  2  0  0  0
 21 22  1  0  0  0
 22 23  1  0  0  0
 22 24  2  0  0  0
 24 25  1  0  0  0
 25 26  1  0  0  0
  5  6  1  0  0  0
  6  7  2  0  0  0
  7  8  1  0  0  0
  8  9  2  0  0  0
  9 10  1  0  0  0
 10 27  1  0  0  0
 27 28  1  0  0  0
 28 29  1  0  0  0
 29 30  1  0  0  0
 29 38  1  0  0  0
 30 31  1  0  0  0
 30 33  1  0  0  0
 31 32  2  0  0  0
 31 34  1  0  0  0
 34 35  1  0  0  0
 35 36  1  0  0  0
 35 37  1  0  0  0
 38 39  1  0  0  0
 38 40  1  0  0  0
M  END
> <minimizedAffinity>
-7.78080

$$$$
