CHEMBL1240566


 23 26  0  0  0  0  0  0  0  0999 V2000
  -29.0392   -2.7844   -2.7613 C   0  0  0  0  0  0  0  0  0  0  0  0
  -29.0071   -3.2343   -4.1305 N   0  0  0  0  0  0  0  0  0  0  0  0
  -29.4750   -4.4529   -4.4552 N   0  0  0  0  0  0  0  0  0  0  0  0
  -29.2443   -4.5576   -5.7805 C   0  0  0  0  0  0  0  0  0  0  0  0
  -28.6774   -3.3444   -6.2996 C   0  0  0  0  0  0  0  0  0  0  0  0
  -28.2642   -2.7980   -7.5254 C   0  0  0  0  0  0  0  0  0  0  0  0
  -28.3787   -3.4140   -8.7642 N   0  0  0  0  0  0  0  0  0  0  0  0
  -27.7213   -1.5622   -7.5378 N   0  0  0  0  0  0  0  0  0  0  0  0
  -27.6113   -0.8918   -6.3767 C   0  0  0  0  0  0  0  0  0  0  0  0
  -27.9964   -1.2911   -5.1561 N   0  0  0  0  0  0  0  0  0  0  0  0
  -28.5209   -2.5285   -5.1903 C   0  0  0  0  0  0  0  0  0  0  0  0
  -29.1992   -3.9980   -8.8717 H   0  0  0  0  0  0  0  0  0  0  0  0
  -28.2211   -2.7434   -9.5082 H   0  0  0  0  0  0  0  0  0  0  0  0
  -29.5750   -5.8068   -6.4844 C   0  0  0  0  0  0  0  0  0  0  0  0
  -28.6676   -6.3808   -7.3834 C   0  0  0  0  0  0  0  0  0  0  0  0
  -28.9820   -7.5368   -8.1094 C   0  0  0  0  0  0  0  0  0  0  0  0
  -30.2042   -8.1846   -7.8685 C   0  0  0  0  0  0  0  0  0  0  0  0
  -30.8120   -9.3636   -8.3785 C   0  0  0  0  0  0  0  0  0  0  0  0
  -32.0054   -9.5368   -7.7169 C   0  0  0  0  0  0  0  0  0  0  0  0
  -32.1583   -8.4910   -6.8450 N   0  0  0  0  0  0  0  0  0  0  0  0
  -31.0767   -7.6430   -6.9263 C   0  0  0  0  0  0  0  0  0  0  0  0
  -30.8000   -6.4523   -6.2363 C   0  0  0  0  0  0  0  0  0  0  0  0
  -32.9392   -8.3639   -6.2165 H   0  0  0  0  0  0  0  0  0  0  0  0
  1  2  1  0  0  0
  2  3  1  0  0  0
  2 11  1  0  0  0
  3  4  2  0  0  0
  4 14  1  0  0  0
  4  5  1  0  0  0
 14 15  1  0  0  0
 14 22  2  0  0  0
 15 16  2  0  0  0
 16 17  1  0  0  0
 17 18  1  0  0  0
 17 21  2  0  0  0
 18 19  2  0  0  0
 19 20  1  0  0  0
 20 21  1  0  0  0
 20 23  1  0  0  0
 21 22  1  0  0  0
  5  6  1  0  0  0
  5 11  2  0  0  0
  6  7  1  0  0  0
  6  8  2  0  0  0
  7 12  1  0  0  0
  7 13  1  0  0  0
  8  9  1  0  0  0
  9 10  2  0  0  0
 10 11  1  0  0  0
M  END
> <minimizedAffinity>
-7.91405

$$$$
