CHEMBL384909


 34 37  0  0  0  0  0  0  0  0999 V2000
  -18.6937    2.1087  -15.0186 C   0  0  0  0  0  0  0  0  0  0  0  0
  -17.9533    3.0681  -15.7181 C   0  0  0  0  0  0  0  0  0  0  0  0
  -16.6157    2.8247  -16.0250 C   0  0  0  0  0  0  0  0  0  0  0  0
  -16.0263    1.6281  -15.6238 C   0  0  0  0  0  0  0  0  0  0  0  0
  -14.7325    1.4226  -15.9193 F   0  0  0  0  0  0  0  0  0  0  0  0
  -16.7407    0.6587  -14.8982 C   0  0  0  0  0  0  0  0  0  0  0  0
  -18.0954    0.8996  -14.6434 C   0  0  0  0  0  0  0  0  0  0  0  0
  -20.5254    3.5445  -14.6886 O   0  0  0  0  0  0  0  0  0  0  0  0
  -20.1202    2.3864  -14.7015 C   0  0  0  0  0  0  0  0  0  0  0  0
  -20.9086    1.2952  -14.4108 N   0  0  0  0  0  0  0  0  0  0  0  0
  -20.4745    0.4110  -14.1851 H   0  0  0  0  0  0  0  0  0  0  0  0
  -22.2750    1.4780  -13.9757 C   0  0  0  0  0  0  0  0  0  0  0  0
  -22.8755    0.1915  -13.4720 C   0  0  0  0  0  0  0  0  0  0  0  0
  -22.5052   -0.3354  -12.2270 C   0  0  0  0  0  0  0  0  0  0  0  0
  -23.1154   -1.4926  -11.7378 C   0  0  0  0  0  0  0  0  0  0  0  0
  -24.0987   -2.1355  -12.4875 C   0  0  0  0  0  0  0  0  0  0  0  0
  -24.4693   -1.6267  -13.7304 C   0  0  0  0  0  0  0  0  0  0  0  0
  -23.8611   -0.4700  -14.2207 C   0  0  0  0  0  0  0  0  0  0  0  0
  -16.1004   -0.5147  -14.4854 N   0  0  0  0  0  0  0  0  0  0  0  0
  -16.6232   -1.3437  -14.7690 H   0  0  0  0  0  0  0  0  0  0  0  0
  -15.5741   -0.5935  -13.1259 C   0  0  0  0  0  0  0  0  0  0  0  0
  -15.7820   -1.9266  -12.4948 C   0  0  0  0  0  0  0  0  0  0  0  0
  -15.8708   -2.2284  -11.1600 C   0  0  0  0  0  0  0  0  0  0  0  0
  -16.0993   -3.5479  -10.8746 N   0  0  0  0  0  0  0  0  0  0  0  0
  -16.1700   -4.2715  -11.9700 C   0  0  0  0  0  0  0  0  0  0  0  0
  -16.0318   -3.3446  -13.4242 S   0  0  0  0  0  0  0  0  0  0  0  0
  -16.3104   -5.6145  -12.0234 N   0  0  0  0  0  0  0  0  0  0  0  0
  -17.1903   -6.0004  -12.3418 H   0  0  0  0  0  0  0  0  0  0  0  0
  -15.2820   -6.5109  -12.3296 C   0  0  0  0  0  0  0  0  0  0  0  0
  -15.2761   -7.3127  -13.4709 C   0  0  0  0  0  0  0  0  0  0  0  0
  -14.2883   -8.2755  -13.6418 C   0  0  0  0  0  0  0  0  0  0  0  0
  -13.2914   -8.3892  -12.6899 C   0  0  0  0  0  0  0  0  0  0  0  0
  -13.3217   -7.5163  -11.6168 C   0  0  0  0  0  0  0  0  0  0  0  0
  -14.2867   -6.5871  -11.4187 N   0  0  0  0  0  0  0  0  0  0  0  0
  8  9  2  0  0  0
  9 10  1  0  0  0
  9  1  1  0  0  0
 10 12  1  0  0  0
 10 11  1  0  0  0
 12 13  1  0  0  0
 13 14  1  0  0  0
 13 18  2  0  0  0
 14 15  2  0  0  0
 15 16  1  0  0  0
 16 17  2  0  0  0
 17 18  1  0  0  0
  1  2  1  0  0  0
  1  7  2  0  0  0
  2  3  2  0  0  0
  3  4  1  0  0  0
  4  5  1  0  0  0
  4  6  2  0  0  0
  6 19  1  0  0  0
  6  7  1  0  0  0
 19 21  1  0  0  0
 19 20  1  0  0  0
 21 22  1  0  0  0
 22 23  2  0  0  0
 22 26  1  0  0  0
 23 24  1  0  0  0
 24 25  2  0  0  0
 25 27  1  0  0  0
 25 26  1  0  0  0
 27 29  1  0  0  0
 27 28  1  0  0  0
 29 30  1  0  0  0
 29 34  2  0  0  0
 30 31  2  0  0  0
 31 32  1  0  0  0
 32 33  2  0  0  0
 33 34  1  0  0  0
M  END
> <minimizedAffinity>
-10.53882

$$$$
