CHEMBL509101


 36 40  0  0  0  0  0  0  0  0999 V2000
  -28.1140   -0.4596  -11.1034 O   0  0  0  0  0  0  0  0  0  0  0  0
  -27.1877   -1.2569  -11.2298 C   0  0  0  0  0  0  0  0  0  0  0  0
  -26.8580   -2.2458  -10.3260 N   0  0  0  0  0  0  0  0  0  0  0  0
  -26.0899   -2.8672  -10.5883 H   0  0  0  0  0  0  0  0  0  0  0  0
  -27.4559   -2.4855   -9.0714 C   0  0  0  0  0  0  0  0  0  0  0  0
  -28.2105   -3.6245   -8.7815 C   0  0  0  0  0  0  0  0  0  0  0  0
  -28.8105   -3.7859   -7.5307 C   0  0  0  0  0  0  0  0  0  0  0  0
  -28.6652   -2.8099   -6.5479 C   0  0  0  0  0  0  0  0  0  0  0  0
  -27.8604   -1.7025   -6.8151 C   0  0  0  0  0  0  0  0  0  0  0  0
  -27.6207   -0.7769   -5.8747 F   0  0  0  0  0  0  0  0  0  0  0  0
  -27.2840   -1.5209   -8.0738 C   0  0  0  0  0  0  0  0  0  0  0  0
  -29.2795   -3.0932   -5.3553 O   0  0  0  0  0  0  0  0  0  0  0  0
  -29.2255   -4.3507   -4.8091 C   0  0  0  0  0  0  0  0  0  0  0  0
  -28.1296   -5.2162   -4.8709 C   0  0  0  0  0  0  0  0  0  0  0  0
  -28.2294   -6.4780   -4.2990 C   0  0  0  0  0  0  0  0  0  0  0  0
  -29.2932   -6.9569   -3.6168 N   0  0  0  0  0  0  0  0  0  0  0  0
  -30.2903   -6.0597   -3.5183 C   0  0  0  0  0  0  0  0  0  0  0  0
  -31.4610   -6.2774   -2.8447 N   0  0  0  0  0  0  0  0  0  0  0  0
  -32.2494   -5.1568   -2.9059 C   0  0  0  0  0  0  0  0  0  0  0  0
  -31.5812   -4.2157   -3.6598 C   0  0  0  0  0  0  0  0  0  0  0  0
  -30.3350   -4.7806   -4.0569 C   0  0  0  0  0  0  0  0  0  0  0  0
  -31.6766   -7.1393   -2.3673 H   0  0  0  0  0  0  0  0  0  0  0  0
  -26.3091   -1.1744  -12.4379 C   0  0  0  0  0  0  0  0  0  0  0  0
  -26.6794   -1.8939  -13.5140 C   0  0  0  0  0  0  0  0  0  0  0  0
  -25.9591   -1.8171  -14.7540 C   0  0  0  0  0  0  0  0  0  0  0  0
  -24.8969   -1.0130  -14.8574 C   0  0  0  0  0  0  0  0  0  0  0  0
  -24.4296   -0.2876  -13.7707 N   0  0  0  0  0  0  0  0  0  0  0  0
  -25.0793   -0.3266  -12.5221 C   0  0  0  0  0  0  0  0  0  0  0  0
  -24.7242    0.3113  -11.5270 O   0  0  0  0  0  0  0  0  0  0  0  0
  -23.2381    0.4830  -13.8875 C   0  0  0  0  0  0  0  0  0  0  0  0
  -22.0211   -0.1537  -14.1708 C   0  0  0  0  0  0  0  0  0  0  0  0
  -20.8570    0.5976  -14.3263 C   0  0  0  0  0  0  0  0  0  0  0  0
  -20.9083    1.9767  -14.1645 C   0  0  0  0  0  0  0  0  0  0  0  0
  -19.7875    2.6971  -14.2963 F   0  0  0  0  0  0  0  0  0  0  0  0
  -22.1043    2.6222  -13.8683 C   0  0  0  0  0  0  0  0  0  0  0  0
  -23.2788    1.8773  -13.7497 C   0  0  0  0  0  0  0  0  0  0  0  0
  1  2  2  0  0  0
  2  3  1  0  0  0
  2 23  1  0  0  0
  3  5  1  0  0  0
  3  4  1  0  0  0
  5  6  1  0  0  0
  5 11  2  0  0  0
  6  7  2  0  0  0
  7  8  1  0  0  0
  8 12  1  0  0  0
  8  9  2  0  0  0
 12 13  1  0  0  0
 13 14  1  0  0  0
 13 21  2  0  0  0
 14 15  2  0  0  0
 15 16  1  0  0  0
 16 17  2  0  0  0
 17 18  1  0  0  0
 17 21  1  0  0  0
 18 19  1  0  0  0
 18 22  1  0  0  0
 19 20  2  0  0  0
 20 21  1  0  0  0
  9 10  1  0  0  0
  9 11  1  0  0  0
 23 24  2  0  0  0
 23 28  1  0  0  0
 24 25  1  0  0  0
 25 26  2  0  0  0
 26 27  1  0  0  0
 27 30  1  0  0  0
 27 28  1  0  0  0
 30 31  1  0  0  0
 30 36  2  0  0  0
 31 32  2  0  0  0
 32 33  1  0  0  0
 33 34  1  0  0  0
 33 35  2  0  0  0
 35 36  1  0  0  0
 28 29  2  0  0  0
M  END
> <minimizedAffinity>
-10.94907

$$$$
