CHEMBL2023229


 37 41  0  0  0  0  0  0  0  0999 V2000
  -26.9735   -1.9814   -9.9254 C   0  0  0  0  0  0  0  0  0  0  0  0
  -27.6647   -1.6537  -11.0861 C   0  0  0  0  0  0  0  0  0  0  0  0
  -27.0039   -1.1043  -12.1810 C   0  0  0  0  0  0  0  0  0  0  0  0
  -25.6638   -0.7227  -12.0996 C   0  0  0  0  0  0  0  0  0  0  0  0
  -24.9708   -0.9777  -10.9171 C   0  0  0  0  0  0  0  0  0  0  0  0
  -25.6177   -1.6145   -9.8437 C   0  0  0  0  0  0  0  0  0  0  0  0
  -29.1952   -2.9515   -5.4451 C   0  0  0  0  0  0  0  0  0  0  0  0
  -29.0388   -1.6599   -4.9723 C   0  0  0  0  0  0  0  0  0  0  0  0
  -28.4880   -0.6508   -5.6677 N   0  0  0  0  0  0  0  0  0  0  0  0
  -28.0347   -0.8617   -6.9179 C   0  0  0  0  0  0  0  0  0  0  0  0
  -27.5317    0.2879   -7.5087 N   0  0  0  0  0  0  0  0  0  0  0  0
  -28.1006   -2.1611   -7.5136 C   0  0  0  0  0  0  0  0  0  0  0  0
  -27.6625   -2.6725   -8.8284 C   0  0  0  0  0  0  0  0  0  0  0  0
  -27.9155   -4.0216   -8.9573 C   0  0  0  0  0  0  0  0  0  0  0  0
  -28.6600   -4.6918   -7.6006 S   0  0  0  0  0  0  0  0  0  0  0  0
  -28.6866   -3.1885   -6.7472 C   0  0  0  0  0  0  0  0  0  0  0  0
  -27.7505    1.0918   -6.9305 H   0  0  0  0  0  0  0  0  0  0  0  0
  -27.7402    0.3845   -8.4935 H   0  0  0  0  0  0  0  0  0  0  0  0
  -32.5126   -5.4191   -2.7072 C   0  0  0  0  0  0  0  0  0  0  0  0
  -31.3293   -5.0530   -3.4463 N   0  0  0  0  0  0  0  0  0  0  0  0
  -31.1120   -3.8990   -4.1428 C   0  0  0  0  0  0  0  0  0  0  0  0
  -29.8305   -3.9811   -4.6425 C   0  0  0  0  0  0  0  0  0  0  0  0
  -29.3839   -5.2525   -4.2200 C   0  0  0  0  0  0  0  0  0  0  0  0
  -30.2914   -5.9035   -3.4884 N   0  0  0  0  0  0  0  0  0  0  0  0
  -24.9996   -0.0864  -13.1734 N   0  0  0  0  0  0  0  0  0  0  0  0
  -23.6481    0.1976  -13.1685 C   0  0  0  0  0  0  0  0  0  0  0  0
  -22.8599   -0.1839  -12.3077 O   0  0  0  0  0  0  0  0  0  0  0  0
  -23.2720    1.0056  -14.2337 N   0  0  0  0  0  0  0  0  0  0  0  0
  -25.4564   -0.0863  -14.0752 H   0  0  0  0  0  0  0  0  0  0  0  0
  -23.9716    1.6894  -14.4856 H   0  0  0  0  0  0  0  0  0  0  0  0
  -21.9229    1.4320  -14.2990 C   0  0  0  0  0  0  0  0  0  0  0  0
  -21.5758    2.7608  -14.0186 C   0  0  0  0  0  0  0  0  0  0  0  0
  -20.2894    3.2262  -14.2845 C   0  0  0  0  0  0  0  0  0  0  0  0
  -19.3480    2.3569  -14.8266 C   0  0  0  0  0  0  0  0  0  0  0  0
  -17.7891    2.9473  -15.2505 Cl  0  0  0  0  0  0  0  0  0  0  0  0
  -19.6698    1.0173  -15.0531 C   0  0  0  0  0  0  0  0  0  0  0  0
  -20.9531    0.5442  -14.7629 C   0  0  0  0  0  0  0  0  0  0  0  0
 19 20  1  0  0  0
 20 21  1  0  0  0
 20 24  1  0  0  0
 21 22  2  0  0  0
 22  7  1  0  0  0
 22 23  1  0  0  0
  7  8  1  0  0  0
  7 16  2  0  0  0
  8  9  2  0  0  0
  9 10  1  0  0  0
 10 11  1  0  0  0
 10 12  2  0  0  0
 11 17  1  0  0  0
 11 18  1  0  0  0
 12 13  1  0  0  0
 12 16  1  0  0  0
 13  1  1  0  0  0
 13 14  2  0  0  0
  1  2  1  0  0  0
  1  6  2  0  0  0
  2  3  2  0  0  0
  3  4  1  0  0  0
  4 25  1  0  0  0
  4  5  2  0  0  0
 25 26  1  0  0  0
 25 29  1  0  0  0
 26 27  2  0  0  0
 26 28  1  0  0  0
 28 31  1  0  0  0
 28 30  1  0  0  0
 31 32  1  0  0  0
 31 37  2  0  0  0
 32 33  2  0  0  0
 33 34  1  0  0  0
 34 35  1  0  0  0
 34 36  2  0  0  0
 36 37  1  0  0  0
  5  6  1  0  0  0
 14 15  1  0  0  0
 15 16  1  0  0  0
 23 24  2  0  0  0
M  END
> <minimizedAffinity>
-9.01866

$$$$
