CHEMBL2337369


 32 35  0  0  0  0  0  0  0  0999 V2000
  -28.5554   -6.7234   -6.0009 C   0  0  0  0  0  0  0  0  0  0  0  0
  -28.1067   -7.7228   -5.2301 N   0  0  0  0  0  0  0  0  0  0  0  0
  -27.9485   -8.9848   -5.7391 C   0  0  0  0  0  0  0  0  0  0  0  0
  -28.2254   -9.1912   -7.1065 C   0  0  0  0  0  0  0  0  0  0  0  0
  -28.6518   -8.0611   -7.7806 C   0  0  0  0  0  0  0  0  0  0  0  0
  -28.8333   -6.8355   -7.2933 N   0  0  0  0  0  0  0  0  0  0  0  0
  -28.8746   -8.3775   -9.0815 N   0  0  0  0  0  0  0  0  0  0  0  0
  -28.5803   -9.6927   -9.3105 C   0  0  0  0  0  0  0  0  0  0  0  0
  -28.6430  -10.4094  -10.5138 C   0  0  0  0  0  0  0  0  0  0  0  0
  -28.2827  -11.7561  -10.5004 C   0  0  0  0  0  0  0  0  0  0  0  0
  -27.8761  -12.3653   -9.3217 C   0  0  0  0  0  0  0  0  0  0  0  0
  -27.8219  -11.6284   -8.1339 C   0  0  0  0  0  0  0  0  0  0  0  0
  -27.3029  -12.4008   -6.7025 Cl  0  0  0  0  0  0  0  0  0  0  0  0
  -28.1751  -10.2570   -8.0856 C   0  0  0  0  0  0  0  0  0  0  0  0
  -29.1966   -7.7089   -9.7654 H   0  0  0  0  0  0  0  0  0  0  0  0
  -29.8706   -5.0573   -4.7864 C   0  0  0  0  0  0  0  0  0  0  0  0
  -30.9110   -5.7175   -4.7498 O   0  0  0  0  0  0  0  0  0  0  0  0
  -28.6969   -5.4923   -5.3548 N   0  0  0  0  0  0  0  0  0  0  0  0
  -27.8245   -5.0066   -5.2214 H   0  0  0  0  0  0  0  0  0  0  0  0
  -28.5283   -3.4805   -3.3820 C   0  0  0  0  0  0  0  0  0  0  0  0
  -29.8438   -3.6366   -4.1745 C   0  0  0  0  0  0  0  0  0  0  0  0
  -31.0186   -3.4525   -3.2047 C   0  0  0  0  0  0  0  0  0  0  0  0
  -29.8845   -2.5516   -5.2585 C   0  0  0  0  0  0  0  0  0  0  0  0
  -27.5510  -10.0113   -4.8757 N   0  0  0  0  0  0  0  0  0  0  0  0
  -28.1294  -10.8432   -4.9151 H   0  0  0  0  0  0  0  0  0  0  0  0
  -26.2661  -10.2464   -4.3630 C   0  0  0  0  0  0  0  0  0  0  0  0
  -25.1464   -9.7855   -5.0684 C   0  0  0  0  0  0  0  0  0  0  0  0
  -23.8555  -10.0741   -4.6150 C   0  0  0  0  0  0  0  0  0  0  0  0
  -23.6818  -10.8164   -3.4488 C   0  0  0  0  0  0  0  0  0  0  0  0
  -22.0969  -11.2025   -2.9047 Cl  0  0  0  0  0  0  0  0  0  0  0  0
  -24.7825  -11.2592   -2.7243 C   0  0  0  0  0  0  0  0  0  0  0  0
  -26.0674  -10.9762   -3.1842 C   0  0  0  0  0  0  0  0  0  0  0  0
 20 21  1  0  0  0
 21 22  1  0  0  0
 21 23  1  0  0  0
 21 16  1  0  0  0
 16 17  2  0  0  0
 16 18  1  0  0  0
 18  1  1  0  0  0
 18 19  1  0  0  0
  1  2  1  0  0  0
  1  6  2  0  0  0
  2  3  2  0  0  0
  3 24  1  0  0  0
  3  4  1  0  0  0
 24 26  1  0  0  0
 24 25  1  0  0  0
 26 27  1  0  0  0
 26 32  2  0  0  0
 27 28  2  0  0  0
 28 29  1  0  0  0
 29 30  1  0  0  0
 29 31  2  0  0  0
 31 32  1  0  0  0
  4  5  2  0  0  0
  4 14  1  0  0  0
  5  6  1  0  0  0
  5  7  1  0  0  0
  7  8  1  0  0  0
  7 15  1  0  0  0
  8  9  1  0  0  0
  8 14  2  0  0  0
  9 10  2  0  0  0
 10 11  1  0  0  0
 11 12  2  0  0  0
 12 13  1  0  0  0
 12 14  1  0  0  0
M  END
> <minimizedAffinity>
-8.35047

$$$$
