CHEMBL258694


 30 34  0  0  0  0  0  0  0  0999 V2000
  -13.2515   -4.2227   -9.7553 C   0  0  0  0  0  0  0  0  0  0  0  0
  -14.6066   -4.0142   -9.7111 C   0  0  0  0  0  0  0  0  0  0  0  0
  -15.1617   -4.6431  -10.7820 N   0  0  0  0  0  0  0  0  0  0  0  0
  -16.4745   -4.6235  -11.0480 N   0  0  0  0  0  0  0  0  0  0  0  0
  -16.8118   -5.3376  -12.0694 C   0  0  0  0  0  0  0  0  0  0  0  0
  -15.9774   -6.0880  -12.8423 N   0  0  0  0  0  0  0  0  0  0  0  0
  -14.6953   -6.1095  -12.6041 C   0  0  0  0  0  0  0  0  0  0  0  0
  -14.2001   -5.3063  -11.5060 C   0  0  0  0  0  0  0  0  0  0  0  0
  -12.9551   -5.0423  -10.9133 C   0  0  0  0  0  0  0  0  0  0  0  0
  -10.6985   -3.8693   -5.5704 C   0  0  0  0  0  0  0  0  0  0  0  0
  -11.1911   -3.4965   -6.9054 C   0  0  0  0  0  0  0  0  0  0  0  0
  -10.7460   -2.5703   -7.7223 N   0  0  0  0  0  0  0  0  0  0  0  0
  -11.4703   -2.7095   -8.8814 N   0  0  0  0  0  0  0  0  0  0  0  0
  -12.3222   -3.7020   -8.7028 C   0  0  0  0  0  0  0  0  0  0  0  0
  -12.2132   -4.2349   -7.4355 O   0  0  0  0  0  0  0  0  0  0  0  0
  -11.5461   -5.5337  -11.2126 C   0  0  0  0  0  0  0  0  0  0  0  0
  -11.3998   -7.0248  -10.8957 C   0  0  0  0  0  0  0  0  0  0  0  0
  -10.9519   -5.2070  -12.5743 C   0  0  0  0  0  0  0  0  0  0  0  0
  -13.8874   -6.8756  -13.4184 N   0  0  0  0  0  0  0  0  0  0  0  0
  -12.9564   -6.9737  -13.0297 H   0  0  0  0  0  0  0  0  0  0  0  0
  -13.8627   -6.7575  -14.8303 C   0  0  0  0  0  0  0  0  0  0  0  0
  -13.7841   -5.5011  -15.4484 C   0  0  0  0  0  0  0  0  0  0  0  0
  -13.6855   -5.2483  -16.7796 N   0  0  0  0  0  0  0  0  0  0  0  0
  -13.6422   -6.3737  -17.5145 C   0  0  0  0  0  0  0  0  0  0  0  0
  -13.5372   -6.4107  -18.8773 N   0  0  0  0  0  0  0  0  0  0  0  0
  -13.5026   -7.7131  -19.3077 C   0  0  0  0  0  0  0  0  0  0  0  0
  -13.5921   -8.5244  -18.1973 C   0  0  0  0  0  0  0  0  0  0  0  0
  -13.6863   -7.6846  -17.0545 C   0  0  0  0  0  0  0  0  0  0  0  0
  -13.7866   -7.8807  -15.6664 C   0  0  0  0  0  0  0  0  0  0  0  0
  -13.4886   -5.5851  -19.4557 H   0  0  0  0  0  0  0  0  0  0  0  0
 10 11  1  0  0  0
 11 12  2  0  0  0
 11 15  1  0  0  0
 12 13  1  0  0  0
 13 14  2  0  0  0
 14  1  1  0  0  0
 14 15  1  0  0  0
  1  2  2  0  0  0
  1  9  1  0  0  0
  2  3  1  0  0  0
  3  4  1  0  0  0
  3  8  1  0  0  0
  4  5  2  0  0  0
  5  6  1  0  0  0
  6  7  2  0  0  0
  7 19  1  0  0  0
  7  8  1  0  0  0
 19 21  1  0  0  0
 19 20  1  0  0  0
 21 22  1  0  0  0
 21 29  2  0  0  0
 22 23  2  0  0  0
 23 24  1  0  0  0
 24 25  1  0  0  0
 24 28  2  0  0  0
 25 26  1  0  0  0
 25 30  1  0  0  0
 26 27  2  0  0  0
 27 28  1  0  0  0
 28 29  1  0  0  0
  8  9  2  0  0  0
  9 16  1  0  0  0
 16 17  1  0  0  0
 16 18  1  0  0  0
M  END
> <minimizedAffinity>
-7.97231

$$$$
