CHEMBL370266


 39 42  0  0  0  0  0  0  0  0999 V2000
  -27.9506   11.2937  -14.1595 C   0  0  0  0  0  0  0  0  0  0  0  0
  -29.1794   10.9419  -14.4292 N   0  0  0  0  0  0  0  0  0  0  0  0
  -29.4654   10.2212  -15.5531 C   0  0  0  0  0  0  0  0  0  0  0  0
  -28.6214    9.8106  -16.4369 N   0  0  0  0  0  0  0  0  0  0  0  0
  -27.3626   10.1855  -16.1893 N   0  0  0  0  0  0  0  0  0  0  0  0
  -26.3114    9.8892  -17.0012 C   0  0  0  0  0  0  0  0  0  0  0  0
  -25.1710   10.4591  -16.4867 C   0  0  0  0  0  0  0  0  0  0  0  0
  -25.5513   11.1524  -15.2742 C   0  0  0  0  0  0  0  0  0  0  0  0
  -26.9291   10.9194  -15.1161 C   0  0  0  0  0  0  0  0  0  0  0  0
  -23.9161   10.3444  -17.0648 N   0  0  0  0  0  0  0  0  0  0  0  0
  -23.5209   10.9197  -18.2470 C   0  0  0  0  0  0  0  0  0  0  0  0
  -24.1367   11.7046  -18.9517 O   0  0  0  0  0  0  0  0  0  0  0  0
  -23.2610    9.6827  -16.6864 H   0  0  0  0  0  0  0  0  0  0  0  0
  -22.3181   10.3936  -18.6092 O   0  0  0  0  0  0  0  0  0  0  0  0
  -21.2090   11.0975  -18.0367 C   0  0  0  0  0  0  0  0  0  0  0  0
  -20.3249   11.8617  -19.0220 C   0  0  0  0  0  0  0  0  0  0  0  0
  -20.9438   12.1460  -20.3848 C   0  0  0  0  0  0  0  0  0  0  0  0
  -19.7824   11.9535  -21.3327 C   0  0  0  0  0  0  0  0  0  0  0  0
  -19.0282   10.8267  -20.6711 C   0  0  0  0  0  0  0  0  0  0  0  0
  -19.1425   11.0600  -19.2630 O   0  0  0  0  0  0  0  0  0  0  0  0
  -24.6751   11.9810  -14.3534 C   0  0  0  0  0  0  0  0  0  0  0  0
  -24.1946   11.1738  -13.1459 C   0  0  0  0  0  0  0  0  0  0  0  0
  -23.4812   12.6545  -15.0366 C   0  0  0  0  0  0  0  0  0  0  0  0
  -27.6996   11.9772  -12.9872 N   0  0  0  0  0  0  0  0  0  0  0  0
  -26.7406   12.2256  -12.7827 H   0  0  0  0  0  0  0  0  0  0  0  0
  -30.8956   12.1061  -11.0383 C   0  0  0  0  0  0  0  0  0  0  0  0
  -29.9880   11.9345  -12.0964 C   0  0  0  0  0  0  0  0  0  0  0  0
  -28.6110   12.1381  -11.9220 C   0  0  0  0  0  0  0  0  0  0  0  0
  -28.1656   12.4748  -10.6355 C   0  0  0  0  0  0  0  0  0  0  0  0
  -26.8544   12.6589  -10.4189 F   0  0  0  0  0  0  0  0  0  0  0  0
  -29.0488   12.6243   -9.5659 C   0  0  0  0  0  0  0  0  0  0  0  0
  -30.4125   12.4436   -9.7767 C   0  0  0  0  0  0  0  0  0  0  0  0
  -31.2515   12.6178   -8.7443 F   0  0  0  0  0  0  0  0  0  0  0  0
  -33.0347   11.0220  -10.6029 N   0  0  0  0  0  0  0  0  0  0  0  0
  -32.3411   11.9622  -11.3352 C   0  0  0  0  0  0  0  0  0  0  0  0
  -32.8316   12.6589  -12.2198 O   0  0  0  0  0  0  0  0  0  0  0  0
  -32.7008   10.7236   -9.6914 H   0  0  0  0  0  0  0  0  0  0  0  0
  -34.8799   10.0334  -11.5704 C   0  0  0  0  0  0  0  0  0  0  0  0
  -34.4439   11.0991  -10.7284 O   0  0  0  0  0  0  0  0  0  0  0  0
 38 39  1  0  0  0
 39 34  1  0  0  0
 34 35  1  0  0  0
 34 37  1  0  0  0
 35 36  2  0  0  0
 35 26  1  0  0  0
 26 27  1  0  0  0
 26 32  2  0  0  0
 27 28  2  0  0  0
 28 24  1  0  0  0
 28 29  1  0  0  0
 24  1  1  0  0  0
 24 25  1  0  0  0
  1  2  2  0  0  0
  1  9  1  0  0  0
  2  3  1  0  0  0
  3  4  2  0  0  0
  4  5  1  0  0  0
  5  6  1  0  0  0
  5  9  1  0  0  0
  6  7  2  0  0  0
  7 10  1  0  0  0
  7  8  1  0  0  0
 10 11  1  0  0  0
 10 13  1  0  0  0
 11 12  2  0  0  0
 11 14  1  0  0  0
 14 15  1  0  0  0
 15 16  1  0  0  0
 16 17  1  0  0  0
 16 20  1  0  0  0
 17 18  1  0  0  0
 18 19  1  0  0  0
 19 20  1  0  0  0
  8 21  1  0  0  0
  8  9  2  0  0  0
 21 22  1  0  0  0
 21 23  1  0  0  0
 29 30  1  0  0  0
 29 31  2  0  0  0
 31 32  1  0  0  0
 32 33  1  0  0  0
M  END
> <minimizedAffinity>
-5.50692

$$$$
