CHEMBL4096271


 30 33  0  0  0  0  0  0  0  0999 V2000
  -29.6715   -8.7347   -7.1617 C   0  0  0  0  0  0  0  0  0  0  0  0
  -28.7063   -8.3246   -6.2430 C   0  0  0  0  0  0  0  0  0  0  0  0
  -28.8000   -7.1067   -5.5708 C   0  0  0  0  0  0  0  0  0  0  0  0
  -29.9183   -6.2905   -5.7110 C   0  0  0  0  0  0  0  0  0  0  0  0
  -30.9531   -6.7307   -6.5418 C   0  0  0  0  0  0  0  0  0  0  0  0
  -30.8190   -7.9284   -7.2710 C   0  0  0  0  0  0  0  0  0  0  0  0
  -27.0042   -7.9663   -9.4314 C   0  0  0  0  0  0  0  0  0  0  0  0
  -27.4451   -9.3798   -9.5923 C   0  0  0  0  0  0  0  0  0  0  0  0
  -26.7855  -10.1167  -10.5005 N   0  0  0  0  0  0  0  0  0  0  0  0
  -27.3848  -11.3081  -10.4499 N   0  0  0  0  0  0  0  0  0  0  0  0
  -28.3952  -11.3799   -9.5471 C   0  0  0  0  0  0  0  0  0  0  0  0
  -29.1532  -12.4659   -9.3371 N   0  0  0  0  0  0  0  0  0  0  0  0
  -30.0896  -12.2844   -8.3858 C   0  0  0  0  0  0  0  0  0  0  0  0
  -30.2920  -11.1084   -7.6788 C   0  0  0  0  0  0  0  0  0  0  0  0
  -29.4859   -9.9775   -7.9307 C   0  0  0  0  0  0  0  0  0  0  0  0
  -28.4757  -10.1301   -8.9329 C   0  0  0  0  0  0  0  0  0  0  0  0
  -27.0739  -12.0517  -11.0568 H   0  0  0  0  0  0  0  0  0  0  0  0
  -30.0611   -5.0712   -5.0077 N   0  0  0  0  0  0  0  0  0  0  0  0
  -29.6835   -3.8280   -5.4871 C   0  0  0  0  0  0  0  0  0  0  0  0
  -29.3237   -3.5953   -6.6391 O   0  0  0  0  0  0  0  0  0  0  0  0
  -29.7078   -2.8573   -4.4949 N   0  0  0  0  0  0  0  0  0  0  0  0
  -30.6280   -5.0793   -4.1712 H   0  0  0  0  0  0  0  0  0  0  0  0
  -29.4626   -3.2003   -3.5770 H   0  0  0  0  0  0  0  0  0  0  0  0
  -29.3273   -1.5256   -4.7939 C   0  0  0  0  0  0  0  0  0  0  0  0
  -28.0125   -1.1257   -4.5428 C   0  0  0  0  0  0  0  0  0  0  0  0
  -27.5867    0.1518   -4.9189 C   0  0  0  0  0  0  0  0  0  0  0  0
  -28.4846    1.0474   -5.5020 C   0  0  0  0  0  0  0  0  0  0  0  0
  -29.8055    0.6613   -5.7120 C   0  0  0  0  0  0  0  0  0  0  0  0
  -30.9189    1.7725   -6.4120 Cl  0  0  0  0  0  0  0  0  0  0  0  0
  -30.2261   -0.6227   -5.3659 C   0  0  0  0  0  0  0  0  0  0  0  0
  7  8  1  0  0  0
  8  9  2  0  0  0
  8 16  1  0  0  0
  9 10  1  0  0  0
 10 11  1  0  0  0
 10 17  1  0  0  0
 11 12  1  0  0  0
 11 16  2  0  0  0
 12 13  2  0  0  0
 13 14  1  0  0  0
 14 15  2  0  0  0
 15  1  1  0  0  0
 15 16  1  0  0  0
  1  2  1  0  0  0
  1  6  2  0  0  0
  2  3  2  0  0  0
  3  4  1  0  0  0
  4 18  1  0  0  0
  4  5  2  0  0  0
 18 19  1  0  0  0
 18 22  1  0  0  0
 19 20  2  0  0  0
 19 21  1  0  0  0
 21 24  1  0  0  0
 21 23  1  0  0  0
 24 25  1  0  0  0
 24 30  2  0  0  0
 25 26  2  0  0  0
 26 27  1  0  0  0
 27 28  2  0  0  0
 28 29  1  0  0  0
 28 30  1  0  0  0
  5  6  1  0  0  0
M  END
> <minimizedAffinity>
-8.42212

$$$$
