CHEMBL3287318


 48 52  0  0  0  0  0  0  0  0999 V2000
  -23.4307   11.9291  -17.0599 C   0  0  0  0  0  0  0  0  0  0  0  0
  -23.6396   12.4605  -18.3360 C   0  0  0  0  0  0  0  0  0  0  0  0
  -22.7035   12.2678  -19.3546 C   0  0  0  0  0  0  0  0  0  0  0  0
  -21.5038   11.6032  -19.0970 C   0  0  0  0  0  0  0  0  0  0  0  0
  -21.2644   11.1258  -17.8023 C   0  0  0  0  0  0  0  0  0  0  0  0
  -22.2232   11.2913  -16.7961 C   0  0  0  0  0  0  0  0  0  0  0  0
  -21.9559   10.8231  -15.5647 F   0  0  0  0  0  0  0  0  0  0  0  0
  -20.5219   11.3698  -20.0850 N   0  0  0  0  0  0  0  0  0  0  0  0
  -19.2396   11.8829  -20.1211 C   0  0  0  0  0  0  0  0  0  0  0  0
  -18.7087   12.6210  -19.3035 O   0  0  0  0  0  0  0  0  0  0  0  0
  -20.7971   10.7732  -20.8562 H   0  0  0  0  0  0  0  0  0  0  0  0
  -18.4738   11.5253  -21.3614 C   0  0  0  0  0  0  0  0  0  0  0  0
  -18.3956   12.5236  -22.5181 C   0  0  0  0  0  0  0  0  0  0  0  0
  -19.3196   11.3501  -22.6263 C   0  0  0  0  0  0  0  0  0  0  0  0
  -17.2612   10.6455  -21.2137 C   0  0  0  0  0  0  0  0  0  0  0  0
  -16.9576    9.8733  -22.1185 O   0  0  0  0  0  0  0  0  0  0  0  0
  -16.5375   10.7983  -20.0431 N   0  0  0  0  0  0  0  0  0  0  0  0
  -17.0901   11.0042  -19.2157 H   0  0  0  0  0  0  0  0  0  0  0  0
  -15.3861   10.0216  -19.8578 C   0  0  0  0  0  0  0  0  0  0  0  0
  -14.1078   10.5424  -20.0672 C   0  0  0  0  0  0  0  0  0  0  0  0
  -12.9889    9.7238  -19.9168 C   0  0  0  0  0  0  0  0  0  0  0  0
  -13.1535    8.3701  -19.6237 C   0  0  0  0  0  0  0  0  0  0  0  0
  -14.4413    7.8393  -19.4687 C   0  0  0  0  0  0  0  0  0  0  0  0
  -15.5528    8.6888  -19.5253 C   0  0  0  0  0  0  0  0  0  0  0  0
  -14.6984    6.3758  -19.2836 C   0  0  0  0  0  0  0  0  0  0  0  0
  -13.6029    5.5931  -19.4616 F   0  0  0  0  0  0  0  0  0  0  0  0
  -15.1365    6.1308  -18.0166 F   0  0  0  0  0  0  0  0  0  0  0  0
  -15.6664    5.8828  -20.0954 F   0  0  0  0  0  0  0  0  0  0  0  0
  -24.3633   12.0320  -16.0481 O   0  0  0  0  0  0  0  0  0  0  0  0
  -27.8566   11.3288  -16.0744 C   0  0  0  0  0  0  0  0  0  0  0  0
  -27.9201   10.0388  -16.4232 N   0  0  0  0  0  0  0  0  0  0  0  0
  -26.7480    9.4374  -16.7287 C   0  0  0  0  0  0  0  0  0  0  0  0
  -25.5211   10.0558  -16.6649 C   0  0  0  0  0  0  0  0  0  0  0  0
  -25.5614   11.3567  -16.2483 C   0  0  0  0  0  0  0  0  0  0  0  0
  -26.7055   12.0028  -15.9941 N   0  0  0  0  0  0  0  0  0  0  0  0
  -29.0319   12.0045  -15.7375 N   0  0  0  0  0  0  0  0  0  0  0  0
  -29.0960   12.8843  -16.2301 H   0  0  0  0  0  0  0  0  0  0  0  0
  -31.6524   11.8260  -13.0947 C   0  0  0  0  0  0  0  0  0  0  0  0
  -30.8558   11.7773  -11.9413 C   0  0  0  0  0  0  0  0  0  0  0  0
  -29.4728   11.8673  -12.0387 C   0  0  0  0  0  0  0  0  0  0  0  0
  -28.8754   11.9743  -13.2905 C   0  0  0  0  0  0  0  0  0  0  0  0
  -29.6392   11.9726  -14.4671 C   0  0  0  0  0  0  0  0  0  0  0  0
  -31.0342   11.9304  -14.3549 C   0  0  0  0  0  0  0  0  0  0  0  0
  -33.1548   11.8004  -12.9684 C   0  0  0  0  0  0  0  0  0  0  0  0
  -35.2432    9.9584  -12.3619 C   0  0  0  0  0  0  0  0  0  0  0  0
  -33.7200   10.1185  -13.2651 S   0  0  0  0  0  0  0  0  0  0  0  0
  -32.7807    9.1834  -12.6601 O   0  0  0  0  0  0  0  0  0  0  0  0
  -34.0884    9.9969  -14.6663 O   0  0  0  0  0  0  0  0  0  0  0  0
 45 46  1  0  0  0
 46 47  2  0  0  0
 46 48  2  0  0  0
 46 44  1  0  0  0
 44 38  1  0  0  0
 38 39  1  0  0  0
 38 43  2  0  0  0
 39 40  2  0  0  0
 40 41  1  0  0  0
 41 42  2  0  0  0
 42 36  1  0  0  0
 42 43  1  0  0  0
 36 30  1  0  0  0
 36 37  1  0  0  0
 30 31  1  0  0  0
 30 35  2  0  0  0
 31 32  2  0  0  0
 32 33  1  0  0  0
 33 34  2  0  0  0
 34 29  1  0  0  0
 34 35  1  0  0  0
 29  1  1  0  0  0
  1  2  1  0  0  0
  1  6  2  0  0  0
  2  3  2  0  0  0
  3  4  1  0  0  0
  4  8  1  0  0  0
  4  5  2  0  0  0
  8  9  1  0  0  0
  8 11  1  0  0  0
  9 10  2  0  0  0
  9 12  1  0  0  0
 12 15  1  0  0  0
 12 13  1  0  0  0
 12 14  1  0  0  0
 15 16  2  0  0  0
 15 17  1  0  0  0
 17 19  1  0  0  0
 17 18  1  0  0  0
 19 20  1  0  0  0
 19 24  2  0  0  0
 20 21  2  0  0  0
 21 22  1  0  0  0
 22 23  2  0  0  0
 23 25  1  0  0  0
 23 24  1  0  0  0
 25 26  1  0  0  0
 25 27  1  0  0  0
 25 28  1  0  0  0
 13 14  1  0  0  0
  5  6  1  0  0  0
  6  7  1  0  0  0
M  END
> <minimizedAffinity>
-6.74732

$$$$
