CHEMBL3676353


 35 37  0  0  0  0  0  0  0  0999 V2000
  -28.5793   -5.1494   -5.5538 C   0  0  0  0  0  0  0  0  0  0  0  0
  -28.3097   -6.4698   -5.1993 C   0  0  0  0  0  0  0  0  0  0  0  0
  -28.6862   -7.5248   -6.0525 C   0  0  0  0  0  0  0  0  0  0  0  0
  -28.5268   -8.8808   -5.7321 C   0  0  0  0  0  0  0  0  0  0  0  0
  -28.8734   -9.8566   -6.5906 N   0  0  0  0  0  0  0  0  0  0  0  0
  -29.4004   -9.4742   -7.7568 C   0  0  0  0  0  0  0  0  0  0  0  0
  -29.6300   -8.2131   -8.1452 N   0  0  0  0  0  0  0  0  0  0  0  0
  -29.2676   -7.2448   -7.2960 C   0  0  0  0  0  0  0  0  0  0  0  0
  -29.4841   -5.9122   -7.6479 C   0  0  0  0  0  0  0  0  0  0  0  0
  -29.1318   -4.8506   -6.8037 C   0  0  0  0  0  0  0  0  0  0  0  0
  -29.4676   -3.7119   -3.7859 C   0  0  0  0  0  0  0  0  0  0  0  0
  -29.2463   -3.1014   -2.7454 O   0  0  0  0  0  0  0  0  0  0  0  0
  -28.4283   -4.1693   -4.5602 N   0  0  0  0  0  0  0  0  0  0  0  0
  -27.5811   -4.2129   -4.0055 H   0  0  0  0  0  0  0  0  0  0  0  0
  -31.5969   -4.8623   -3.4978 C   0  0  0  0  0  0  0  0  0  0  0  0
  -30.8474   -4.0367   -4.2361 C   0  0  0  0  0  0  0  0  0  0  0  0
  -28.0209   -9.2534   -4.4521 N   0  0  0  0  0  0  0  0  0  0  0  0
  -28.7553   -9.7408   -3.9393 H   0  0  0  0  0  0  0  0  0  0  0  0
  -26.7751   -9.9109   -4.2991 C   0  0  0  0  0  0  0  0  0  0  0  0
  -25.6573   -9.4664   -5.0170 C   0  0  0  0  0  0  0  0  0  0  0  0
  -24.4630  -10.1886   -5.0013 C   0  0  0  0  0  0  0  0  0  0  0  0
  -23.1637   -9.5893   -5.9684 Cl  0  0  0  0  0  0  0  0  0  0  0  0
  -24.3707  -11.3590   -4.2393 C   0  0  0  0  0  0  0  0  0  0  0  0
  -22.8271  -12.4646   -4.2568 Br  0  0  0  0  0  0  0  0  0  0  0  0
  -25.4531  -11.7693   -3.4545 C   0  0  0  0  0  0  0  0  0  0  0  0
  -26.6395  -11.0411   -3.4857 C   0  0  0  0  0  0  0  0  0  0  0  0
  -27.6832  -11.4597   -2.7522 F   0  0  0  0  0  0  0  0  0  0  0  0
  -29.4443   -3.5930   -7.2707 O   0  0  0  0  0  0  0  0  0  0  0  0
  -28.6206   -3.1393   -8.3530 C   0  0  0  0  0  0  0  0  0  0  0  0
  -27.5679   -2.1324   -7.8810 C   0  0  0  0  0  0  0  0  0  0  0  0
  -28.1740   -1.0800   -7.0728 N   0  0  0  0  0  0  0  0  0  0  0  0
  -27.8812   -0.9447   -5.7346 C   0  0  0  0  0  0  0  0  0  0  0  0
  -28.7175    0.0784   -5.0102 C   0  0  0  0  0  0  0  0  0  0  0  0
  -27.0144   -1.5973   -5.1649 O   0  0  0  0  0  0  0  0  0  0  0  0
  -28.9723   -0.5870   -7.4532 H   0  0  0  0  0  0  0  0  0  0  0  0
 15 16  2  0  0  0
 16 11  1  0  0  0
 11 12  2  0  0  0
 11 13  1  0  0  0
 13  1  1  0  0  0
 13 14  1  0  0  0
  1  2  1  0  0  0
  1 10  2  0  0  0
  2  3  2  0  0  0
  3  4  1  0  0  0
  3  8  1  0  0  0
  4 17  1  0  0  0
  4  5  2  0  0  0
 17 19  1  0  0  0
 17 18  1  0  0  0
 19 20  1  0  0  0
 19 26  2  0  0  0
 20 21  2  0  0  0
 21 22  1  0  0  0
 21 23  1  0  0  0
 23 24  1  0  0  0
 23 25  2  0  0  0
 25 26  1  0  0  0
 26 27  1  0  0  0
  5  6  1  0  0  0
  6  7  2  0  0  0
  7  8  1  0  0  0
  8  9  2  0  0  0
  9 10  1  0  0  0
 10 28  1  0  0  0
 28 29  1  0  0  0
 29 30  1  0  0  0
 30 31  1  0  0  0
 31 32  1  0  0  0
 31 35  1  0  0  0
 32 33  1  0  0  0
 32 34  2  0  0  0
M  END
> <minimizedAffinity>
-7.74976

$$$$
