CHEMBL4250191


 20 22  0  0  0  0  0  0  0  0999 V2000
  -30.1841   -4.5413   -4.4469 N   0  0  0  0  0  0  0  0  0  0  0  0
  -31.2995   -4.5892   -3.5008 C   0  0  0  0  0  0  0  0  0  0  0  0
  -29.6601   -5.8317   -4.7098 C   0  0  0  0  0  0  0  0  0  0  0  0
  -29.5118   -6.6750   -3.6433 N   0  0  0  0  0  0  0  0  0  0  0  0
  -29.0786   -7.9318   -3.8276 C   0  0  0  0  0  0  0  0  0  0  0  0
  -28.7451   -8.5115   -4.9748 N   0  0  0  0  0  0  0  0  0  0  0  0
  -28.8441   -7.6603   -6.0040 C   0  0  0  0  0  0  0  0  0  0  0  0
  -28.5154   -8.0330   -7.2667 O   0  0  0  0  0  0  0  0  0  0  0  0
  -28.6506   -6.9481   -8.0555 C   0  0  0  0  0  0  0  0  0  0  0  0
  -29.0578   -5.8509   -7.3256 C   0  0  0  0  0  0  0  0  0  0  0  0
  -29.1934   -4.4916   -7.8953 C   0  0  0  0  0  0  0  0  0  0  0  0
  -29.2511   -6.3268   -5.9751 C   0  0  0  0  0  0  0  0  0  0  0  0
  -28.2191   -0.8956   -5.3350 C   0  0  0  0  0  0  0  0  0  0  0  0
  -27.4868   -1.9859   -4.8715 C   0  0  0  0  0  0  0  0  0  0  0  0
  -28.1377   -3.1740   -4.5110 C   0  0  0  0  0  0  0  0  0  0  0  0
  -29.5268   -3.3172   -4.6478 C   0  0  0  0  0  0  0  0  0  0  0  0
  -30.2546   -2.1874   -5.0564 C   0  0  0  0  0  0  0  0  0  0  0  0
  -29.6093   -0.9915   -5.3947 C   0  0  0  0  0  0  0  0  0  0  0  0
  -28.5932    1.1646   -6.4566 C   0  0  0  0  0  0  0  0  0  0  0  0
  -27.7007    0.2894   -5.7773 O   0  0  0  0  0  0  0  0  0  0  0  0
 19 20  1  0  0  0
 20 13  1  0  0  0
 13 14  1  0  0  0
 13 18  2  0  0  0
 14 15  2  0  0  0
 15 16  1  0  0  0
 16  1  1  0  0  0
 16 17  2  0  0  0
  1  2  1  0  0  0
  1  3  1  0  0  0
  3  4  1  0  0  0
  3 12  2  0  0  0
  4  5  2  0  0  0
  5  6  1  0  0  0
  6  7  2  0  0  0
  7  8  1  0  0  0
  7 12  1  0  0  0
  8  9  1  0  0  0
  9 10  2  0  0  0
 10 11  1  0  0  0
 10 12  1  0  0  0
 17 18  1  0  0  0
M  END
> <minimizedAffinity>
-6.87883

$$$$
