CHEMBL402279


 41 46  0  0  0  0  0  0  0  0999 V2000
  -13.5218   -3.7047  -14.4632 C   0  0  0  0  0  0  0  0  0  0  0  0
  -14.1707   -4.6413  -13.5738 C   0  0  0  0  0  0  0  0  0  0  0  0
  -14.4904   -5.7594  -14.3098 C   0  0  0  0  0  0  0  0  0  0  0  0
  -14.0528   -5.5703  -15.5882 N   0  0  0  0  0  0  0  0  0  0  0  0
  -14.1991   -6.4595  -16.5792 N   0  0  0  0  0  0  0  0  0  0  0  0
  -13.7586   -6.0456  -17.7230 C   0  0  0  0  0  0  0  0  0  0  0  0
  -13.1783   -4.8359  -17.9881 N   0  0  0  0  0  0  0  0  0  0  0  0
  -12.9904   -3.9756  -17.0279 C   0  0  0  0  0  0  0  0  0  0  0  0
  -13.4628   -4.3420  -15.7086 C   0  0  0  0  0  0  0  0  0  0  0  0
  -14.5176   -4.5011  -12.1197 C   0  0  0  0  0  0  0  0  0  0  0  0
  -15.6784   -4.0532  -11.6707 N   0  0  0  0  0  0  0  0  0  0  0  0
  -15.6822   -4.2021  -10.3032 N   0  0  0  0  0  0  0  0  0  0  0  0
  -14.5145   -4.7174  -10.0106 C   0  0  0  0  0  0  0  0  0  0  0  0
  -13.6920   -4.8876  -11.0813 O   0  0  0  0  0  0  0  0  0  0  0  0
  -14.0730   -5.1632   -8.8428 O   0  0  0  0  0  0  0  0  0  0  0  0
  -12.7136   -4.8295   -8.5655 C   0  0  0  0  0  0  0  0  0  0  0  0
  -12.6239   -3.3394   -8.2680 C   0  0  0  0  0  0  0  0  0  0  0  0
  -11.4254   -3.2484   -7.3507 C   0  0  0  0  0  0  0  0  0  0  0  0
  -11.5662   -4.4074   -6.4634 N   0  0  0  0  0  0  0  0  0  0  0  0
  -12.1730   -5.4771   -7.2838 C   0  0  0  0  0  0  0  0  0  0  0  0
  -12.2221   -4.1669   -5.7180 H   0  0  0  0  0  0  0  0  0  0  0  0
  -14.1652   -1.3668  -13.6643 C   0  0  0  0  0  0  0  0  0  0  0  0
  -13.0457   -2.3074  -14.1247 C   0  0  0  0  0  0  0  0  0  0  0  0
  -11.8469   -2.3418  -13.1746 C   0  0  0  0  0  0  0  0  0  0  0  0
  -12.3358   -2.7897  -17.2869 N   0  0  0  0  0  0  0  0  0  0  0  0
  -11.3243   -2.8379  -17.3247 H   0  0  0  0  0  0  0  0  0  0  0  0
  -12.8781   -1.6191  -17.8538 C   0  0  0  0  0  0  0  0  0  0  0  0
  -13.6476   -0.7066  -17.1221 C   0  0  0  0  0  0  0  0  0  0  0  0
  -14.1319    0.4837  -17.7055 C   0  0  0  0  0  0  0  0  0  0  0  0
  -13.8694    0.7282  -19.0539 C   0  0  0  0  0  0  0  0  0  0  0  0
  -14.3075    1.8457  -19.6540 F   0  0  0  0  0  0  0  0  0  0  0  0
  -13.1291   -0.1745  -19.8121 C   0  0  0  0  0  0  0  0  0  0  0  0
  -12.6361   -1.3266  -19.2061 C   0  0  0  0  0  0  0  0  0  0  0  0
  -11.9034   -2.1802  -19.9390 F   0  0  0  0  0  0  0  0  0  0  0  0
  -14.8637    1.4399  -16.8251 C   0  0  0  0  0  0  0  0  0  0  0  0
  -14.4560    2.5952  -16.7340 O   0  0  0  0  0  0  0  0  0  0  0  0
  -15.9959    0.9975  -16.1632 N   0  0  0  0  0  0  0  0  0  0  0  0
  -16.3164    0.0420  -16.2798 H   0  0  0  0  0  0  0  0  0  0  0  0
  -16.7863    1.9021  -15.3841 C   0  0  0  0  0  0  0  0  0  0  0  0
  -18.2416    1.6088  -15.1447 C   0  0  0  0  0  0  0  0  0  0  0  0
  -17.8426    2.7819  -15.9904 C   0  0  0  0  0  0  0  0  0  0  0  0
 22 23  1  0  0  0
 23 24  1  0  0  0
 23  1  1  0  0  0
  1  2  1  0  0  0
  1  9  2  0  0  0
  2 10  1  0  0  0
  2  3  2  0  0  0
 10 11  2  0  0  0
 10 14  1  0  0  0
 11 12  1  0  0  0
 12 13  2  0  0  0
 13 15  1  0  0  0
 13 14  1  0  0  0
 16 17  1  0  0  0
 16 20  1  0  0  0
 16 15  1  0  0  0
 17 18  1  0  0  0
 18 19  1  0  0  0
 19 20  1  0  0  0
 19 21  1  0  0  0
  3  4  1  0  0  0
  4  5  1  0  0  0
  4  9  1  0  0  0
  5  6  2  0  0  0
  6  7  1  0  0  0
  7  8  2  0  0  0
  8 25  1  0  0  0
  8  9  1  0  0  0
 25 27  1  0  0  0
 25 26  1  0  0  0
 27 28  1  0  0  0
 27 33  2  0  0  0
 28 29  2  0  0  0
 29 35  1  0  0  0
 29 30  1  0  0  0
 35 36  2  0  0  0
 35 37  1  0  0  0
 37 39  1  0  0  0
 37 38  1  0  0  0
 39 40  1  0  0  0
 39 41  1  0  0  0
 40 41  1  0  0  0
 30 31  1  0  0  0
 30 32  2  0  0  0
 32 33  1  0  0  0
 33 34  1  0  0  0
M  END
> <minimizedAffinity>
-7.59438

$$$$
