CHEMBL3781795


 30 34  0  0  0  0  0  0  0  0999 V2000
  -15.1719   -0.2268  -13.8140 C   0  0  0  0  0  0  0  0  0  0  0  0
  -14.3174    0.5270  -14.6102 C   0  0  0  0  0  0  0  0  0  0  0  0
  -14.7201    1.6015  -15.3255 N   0  0  0  0  0  0  0  0  0  0  0  0
  -16.0304    1.9091  -15.2365 C   0  0  0  0  0  0  0  0  0  0  0  0
  -16.5689    2.9677  -15.9297 C   0  0  0  0  0  0  0  0  0  0  0  0
  -17.8757    3.3149  -15.9218 N   0  0  0  0  0  0  0  0  0  0  0  0
  -18.7277    2.5776  -15.1841 C   0  0  0  0  0  0  0  0  0  0  0  0
  -18.2642    1.5262  -14.4028 C   0  0  0  0  0  0  0  0  0  0  0  0
  -16.9230    1.1642  -14.4434 C   0  0  0  0  0  0  0  0  0  0  0  0
  -16.4919    0.0972  -13.7350 N   0  0  0  0  0  0  0  0  0  0  0  0
  -13.8980   -3.6650  -11.5618 C   0  0  0  0  0  0  0  0  0  0  0  0
  -13.0495   -3.1037  -12.5112 C   0  0  0  0  0  0  0  0  0  0  0  0
  -13.4581   -1.9824  -13.2385 C   0  0  0  0  0  0  0  0  0  0  0  0
  -14.7250   -1.3996  -13.0399 C   0  0  0  0  0  0  0  0  0  0  0  0
  -15.5580   -1.9839  -12.0682 C   0  0  0  0  0  0  0  0  0  0  0  0
  -15.1512   -3.1057  -11.3390 C   0  0  0  0  0  0  0  0  0  0  0  0
  -20.0983    2.9305  -15.1406 N   0  0  0  0  0  0  0  0  0  0  0  0
  -20.2181    3.8067  -14.6394 H   0  0  0  0  0  0  0  0  0  0  0  0
  -21.1239    2.0477  -14.7118 C   0  0  0  0  0  0  0  0  0  0  0  0
  -21.0161    0.6612  -14.8346 C   0  0  0  0  0  0  0  0  0  0  0  0
  -22.0176   -0.1860  -14.3479 C   0  0  0  0  0  0  0  0  0  0  0  0
  -23.1558    0.3080  -13.6986 C   0  0  0  0  0  0  0  0  0  0  0  0
  -23.2224    1.6998  -13.5350 C   0  0  0  0  0  0  0  0  0  0  0  0
  -22.2189    2.5560  -14.0164 C   0  0  0  0  0  0  0  0  0  0  0  0
  -24.1284   -0.5476  -13.2180 N   0  0  0  0  0  0  0  0  0  0  0  0
  -24.6574   -1.6567  -14.0082 C   0  0  0  0  0  0  0  0  0  0  0  0
  -26.1861   -1.6025  -13.9601 C   0  0  0  0  0  0  0  0  0  0  0  0
  -26.7103   -1.5654  -12.5248 C   0  0  0  0  0  0  0  0  0  0  0  0
  -26.0428   -0.4538  -11.7141 C   0  0  0  0  0  0  0  0  0  0  0  0
  -24.5205   -0.5426  -11.8058 C   0  0  0  0  0  0  0  0  0  0  0  0
 11 12  1  0  0  0
 11 16  2  0  0  0
 12 13  2  0  0  0
 13 14  1  0  0  0
 14  1  1  0  0  0
 14 15  2  0  0  0
  1  2  1  0  0  0
  1 10  2  0  0  0
  2  3  2  0  0  0
  3  4  1  0  0  0
  4  5  1  0  0  0
  4  9  2  0  0  0
  5  6  2  0  0  0
  6  7  1  0  0  0
  7 17  1  0  0  0
  7  8  2  0  0  0
 17 19  1  0  0  0
 17 18  1  0  0  0
 19 20  1  0  0  0
 19 24  2  0  0  0
 20 21  2  0  0  0
 21 22  1  0  0  0
 22 25  1  0  0  0
 22 23  2  0  0  0
 25 26  1  0  0  0
 25 30  1  0  0  0
 26 27  1  0  0  0
 27 28  1  0  0  0
 28 29  1  0  0  0
 29 30  1  0  0  0
 23 24  1  0  0  0
  8  9  1  0  0  0
  9 10  1  0  0  0
 15 16  1  0  0  0
M  END
> <minimizedAffinity>
-9.88515

$$$$
