CHEMBL2204531


 40 43  0  0  0  0  0  0  0  0999 V2000
  -30.7576   -8.9741   -6.9347 C   0  0  0  0  0  0  0  0  0  0  0  0
  -31.1386   -9.9287   -7.8908 C   0  0  0  0  0  0  0  0  0  0  0  0
  -30.3776  -11.0721   -8.1045 C   0  0  0  0  0  0  0  0  0  0  0  0
  -29.2065  -11.2735   -7.3840 C   0  0  0  0  0  0  0  0  0  0  0  0
  -28.6216  -12.4657   -7.5422 F   0  0  0  0  0  0  0  0  0  0  0  0
  -28.7310  -10.3136   -6.4820 C   0  0  0  0  0  0  0  0  0  0  0  0
  -29.5304   -9.1688   -6.2582 C   0  0  0  0  0  0  0  0  0  0  0  0
  -27.5145  -10.4312   -5.7466 N   0  0  0  0  0  0  0  0  0  0  0  0
  -27.2516  -11.3284   -4.7147 C   0  0  0  0  0  0  0  0  0  0  0  0
  -27.9764  -12.2455   -4.3437 O   0  0  0  0  0  0  0  0  0  0  0  0
  -26.7493   -9.8587   -6.0866 H   0  0  0  0  0  0  0  0  0  0  0  0
  -25.8835  -11.2852   -4.1180 C   0  0  0  0  0  0  0  0  0  0  0  0
  -25.7037  -11.9384   -2.8880 C   0  0  0  0  0  0  0  0  0  0  0  0
  -24.4348  -12.0517   -2.3292 C   0  0  0  0  0  0  0  0  0  0  0  0
  -23.3290  -11.6279   -3.0619 C   0  0  0  0  0  0  0  0  0  0  0  0
  -23.4918  -10.9964   -4.3016 C   0  0  0  0  0  0  0  0  0  0  0  0
  -24.7881  -10.6699   -4.7297 C   0  0  0  0  0  0  0  0  0  0  0  0
  -25.0542   -9.3162   -5.7891 Cl  0  0  0  0  0  0  0  0  0  0  0  0
  -22.3137  -10.7073   -4.9320 O   0  0  0  0  0  0  0  0  0  0  0  0
  -21.9516  -11.2943   -6.2207 C   0  0  0  0  0  0  0  0  0  0  0  0
  -21.2340  -10.1665   -6.9701 C   0  0  0  0  0  0  0  0  0  0  0  0
  -20.9449  -12.4292   -5.9558 C   0  0  0  0  0  0  0  0  0  0  0  0
  -23.0370  -11.8992   -7.0347 C   0  0  0  0  0  0  0  0  0  0  0  0
  -23.8660  -12.4020   -7.6782 N   0  0  0  0  0  0  0  0  0  0  0  0
  -31.6142   -7.8798   -6.6521 N   0  0  0  0  0  0  0  0  0  0  0  0
  -33.0415   -8.2192   -6.6296 C   0  0  0  0  0  0  0  0  0  0  0  0
  -29.2084   -2.6501   -5.0818 C   0  0  0  0  0  0  0  0  0  0  0  0
  -29.8932   -3.2586   -4.1463 N   0  0  0  0  0  0  0  0  0  0  0  0
  -30.4527   -4.4023   -4.6669 C   0  0  0  0  0  0  0  0  0  0  0  0
  -31.2229   -5.3473   -3.9873 C   0  0  0  0  0  0  0  0  0  0  0  0
  -31.6353   -6.4719   -4.7003 C   0  0  0  0  0  0  0  0  0  0  0  0
  -31.2774   -6.6428   -6.0461 C   0  0  0  0  0  0  0  0  0  0  0  0
  -30.5527   -5.7205   -6.7313 N   0  0  0  0  0  0  0  0  0  0  0  0
  -30.1850   -4.6408   -6.0089 C   0  0  0  0  0  0  0  0  0  0  0  0
  -29.2686   -3.3402   -6.6461 S   0  0  0  0  0  0  0  0  0  0  0  0
  -27.9462    0.8242   -4.9671 C   0  0  0  0  0  0  0  0  0  0  0  0
  -28.9667   -0.2731   -5.1148 C   0  0  0  0  0  0  0  0  0  0  0  0
  -30.1393    0.0058   -5.3399 O   0  0  0  0  0  0  0  0  0  0  0  0
  -28.4260   -1.5327   -4.9541 N   0  0  0  0  0  0  0  0  0  0  0  0
  -27.4844   -1.6578   -4.6140 H   0  0  0  0  0  0  0  0  0  0  0  0
 36 37  1  0  0  0
 37 38  2  0  0  0
 37 39  1  0  0  0
 39 27  1  0  0  0
 39 40  1  0  0  0
 27 28  2  0  0  0
 27 35  1  0  0  0
 28 29  1  0  0  0
 29 30  1  0  0  0
 29 34  2  0  0  0
 30 31  2  0  0  0
 31 32  1  0  0  0
 32 25  1  0  0  0
 32 33  2  0  0  0
 25 26  1  0  0  0
 25  1  1  0  0  0
  1  2  1  0  0  0
  1  7  2  0  0  0
  2  3  2  0  0  0
  3  4  1  0  0  0
  4  5  1  0  0  0
  4  6  2  0  0  0
  6  8  1  0  0  0
  6  7  1  0  0  0
  8  9  1  0  0  0
  8 11  1  0  0  0
  9 10  2  0  0  0
  9 12  1  0  0  0
 12 13  1  0  0  0
 12 17  2  0  0  0
 13 14  2  0  0  0
 14 15  1  0  0  0
 15 16  2  0  0  0
 16 19  1  0  0  0
 16 17  1  0  0  0
 19 20  1  0  0  0
 20 21  1  0  0  0
 20 22  1  0  0  0
 20 23  1  0  0  0
 23 24  3  0  0  0
 17 18  1  0  0  0
 33 34  1  0  0  0
 34 35  1  0  0  0
M  END
> <minimizedAffinity>
-7.48414

$$$$
