CHEMBL3978209


 28 31  0  0  0  0  0  0  0  0999 V2000
  -29.8061   -5.0084   -6.2782 C   0  0  0  0  0  0  0  0  0  0  0  0
  -29.2178   -5.2857   -7.5143 C   0  0  0  0  0  0  0  0  0  0  0  0
  -28.4929   -4.3048   -8.2050 C   0  0  0  0  0  0  0  0  0  0  0  0
  -28.4211   -3.0034   -7.6711 C   0  0  0  0  0  0  0  0  0  0  0  0
  -27.7933   -1.7709   -8.0253 C   0  0  0  0  0  0  0  0  0  0  0  0
  -28.1029   -0.8003   -7.1523 N   0  0  0  0  0  0  0  0  0  0  0  0
  -28.8995   -1.4018   -6.2573 N   0  0  0  0  0  0  0  0  0  0  0  0
  -29.0992   -2.7337   -6.4867 C   0  0  0  0  0  0  0  0  0  0  0  0
  -29.8016   -3.7047   -5.7634 C   0  0  0  0  0  0  0  0  0  0  0  0
  -29.2719   -0.8432   -5.4988 H   0  0  0  0  0  0  0  0  0  0  0  0
  -26.9339   -1.5787   -9.1610 C   0  0  0  0  0  0  0  0  0  0  0  0
  -27.3642   -1.5738  -10.4375 C   0  0  0  0  0  0  0  0  0  0  0  0
  -26.5388   -1.3930  -11.6419 C   0  0  0  0  0  0  0  0  0  0  0  0
  -25.2360   -0.8808  -11.6075 C   0  0  0  0  0  0  0  0  0  0  0  0
  -24.4679   -0.8092  -12.7750 C   0  0  0  0  0  0  0  0  0  0  0  0
  -24.9913   -1.2551  -13.9869 C   0  0  0  0  0  0  0  0  0  0  0  0
  -26.2847   -1.7664  -14.0356 C   0  0  0  0  0  0  0  0  0  0  0  0
  -27.0516   -1.8363  -12.8704 C   0  0  0  0  0  0  0  0  0  0  0  0
  -30.4693   -5.9467   -5.5151 O   0  0  0  0  0  0  0  0  0  0  0  0
  -32.5483   -9.4561   -8.0083 N   0  0  0  0  0  0  0  0  0  0  0  0
  -31.5547   -9.0494   -7.1076 C   0  0  0  0  0  0  0  0  0  0  0  0
  -30.4895   -9.9021   -6.8082 C   0  0  0  0  0  0  0  0  0  0  0  0
  -29.4548   -9.4822   -5.9713 C   0  0  0  0  0  0  0  0  0  0  0  0
  -29.4482   -8.1808   -5.4725 C   0  0  0  0  0  0  0  0  0  0  0  0
  -30.4305   -7.2764   -5.8811 C   0  0  0  0  0  0  0  0  0  0  0  0
  -31.4877   -7.7192   -6.6832 C   0  0  0  0  0  0  0  0  0  0  0  0
  -32.7043  -10.4590   -8.0133 H   0  0  0  0  0  0  0  0  0  0  0  0
  -33.4165   -8.9380   -7.9121 H   0  0  0  0  0  0  0  0  0  0  0  0
 20 21  1  0  0  0
 20 27  1  0  0  0
 20 28  1  0  0  0
 21 22  1  0  0  0
 21 26  2  0  0  0
 22 23  2  0  0  0
 23 24  1  0  0  0
 24 25  2  0  0  0
 25 19  1  0  0  0
 25 26  1  0  0  0
 19  1  1  0  0  0
  1  2  1  0  0  0
  1  9  2  0  0  0
  2  3  2  0  0  0
  3  4  1  0  0  0
  4  5  1  0  0  0
  4  8  2  0  0  0
  5 11  1  0  0  0
  5  6  2  0  0  0
 11 12  2  0  0  0
 12 13  1  0  0  0
 13 14  1  0  0  0
 13 18  2  0  0  0
 14 15  2  0  0  0
 15 16  1  0  0  0
 16 17  2  0  0  0
 17 18  1  0  0  0
  6  7  1  0  0  0
  7  8  1  0  0  0
  7 10  1  0  0  0
  8  9  1  0  0  0
M  END
> <minimizedAffinity>
-9.23222

$$$$
