CHEMBL176309


 25 28  0  0  0  0  0  0  0  0999 V2000
  -29.3391   -2.1852   -4.0053 N   0  0  0  0  0  0  0  0  0  0  0  0
  -28.8935   -1.5711   -5.1690 C   0  0  0  0  0  0  0  0  0  0  0  0
  -28.7842   -0.2322   -5.1008 N   0  0  0  0  0  0  0  0  0  0  0  0
  -28.3359    0.4290   -6.1776 C   0  0  0  0  0  0  0  0  0  0  0  0
  -27.9469   -0.0878   -7.3453 N   0  0  0  0  0  0  0  0  0  0  0  0
  -28.0736   -1.4286   -7.3953 C   0  0  0  0  0  0  0  0  0  0  0  0
  -28.5607   -2.2390   -6.3657 C   0  0  0  0  0  0  0  0  0  0  0  0
  -28.5846   -3.5850   -6.8655 C   0  0  0  0  0  0  0  0  0  0  0  0
  -28.1426   -3.5231   -8.1780 C   0  0  0  0  0  0  0  0  0  0  0  0
  -27.8082   -2.2232   -8.5014 N   0  0  0  0  0  0  0  0  0  0  0  0
  -29.3165   -1.5161   -3.2433 H   0  0  0  0  0  0  0  0  0  0  0  0
  -28.8870   -3.0700   -3.8170 H   0  0  0  0  0  0  0  0  0  0  0  0
  -28.9990   -4.8499   -6.2557 C   0  0  0  0  0  0  0  0  0  0  0  0
  -28.4065   -5.3090   -5.0726 C   0  0  0  0  0  0  0  0  0  0  0  0
  -28.7697   -6.5369   -4.5102 C   0  0  0  0  0  0  0  0  0  0  0  0
  -29.7797   -7.2979   -5.0920 C   0  0  0  0  0  0  0  0  0  0  0  0
  -30.4139   -6.8295   -6.2384 C   0  0  0  0  0  0  0  0  0  0  0  0
  -31.7048   -7.7376   -6.9267 Cl  0  0  0  0  0  0  0  0  0  0  0  0
  -30.0205   -5.6263   -6.8294 C   0  0  0  0  0  0  0  0  0  0  0  0
  -27.3056   -1.8026   -9.7705 C   0  0  0  0  0  0  0  0  0  0  0  0
  -25.9238   -1.6339   -9.9581 C   0  0  0  0  0  0  0  0  0  0  0  0
  -25.4245   -1.2584  -11.2085 C   0  0  0  0  0  0  0  0  0  0  0  0
  -26.2964   -1.0191  -12.2686 C   0  0  0  0  0  0  0  0  0  0  0  0
  -27.6694   -1.1593  -12.0830 C   0  0  0  0  0  0  0  0  0  0  0  0
  -28.1740   -1.5569  -10.8423 C   0  0  0  0  0  0  0  0  0  0  0  0
  1  2  1  0  0  0
  1 11  1  0  0  0
  1 12  1  0  0  0
  2  3  1  0  0  0
  2  7  2  0  0  0
  3  4  2  0  0  0
  4  5  1  0  0  0
  5  6  2  0  0  0
  6  7  1  0  0  0
  6 10  1  0  0  0
  7  8  1  0  0  0
  8 13  1  0  0  0
  8  9  2  0  0  0
 13 14  1  0  0  0
 13 19  2  0  0  0
 14 15  2  0  0  0
 15 16  1  0  0  0
 16 17  2  0  0  0
 17 18  1  0  0  0
 17 19  1  0  0  0
  9 10  1  0  0  0
 10 20  1  0  0  0
 20 21  1  0  0  0
 20 25  2  0  0  0
 21 22  2  0  0  0
 22 23  1  0  0  0
 23 24  2  0  0  0
 24 25  1  0  0  0
M  END
> <minimizedAffinity>
-8.07345

$$$$
