CHEMBL4796056


 44 49  0  0  0  0  0  0  0  0999 V2000
  -28.8589   -9.4908   -6.6789 C   0  0  0  0  0  0  0  0  0  0  0  0
  -28.1128  -10.2504   -5.8731 N   0  0  0  0  0  0  0  0  0  0  0  0
  -27.7267   -9.6419   -4.7267 C   0  0  0  0  0  0  0  0  0  0  0  0
  -28.0340   -8.3427   -4.3963 C   0  0  0  0  0  0  0  0  0  0  0  0
  -28.8647   -7.6666   -5.2401 C   0  0  0  0  0  0  0  0  0  0  0  0
  -29.2759   -8.2627   -6.3559 N   0  0  0  0  0  0  0  0  0  0  0  0
  -28.9273  -10.1212  -10.2700 N   0  0  0  0  0  0  0  0  0  0  0  0
  -28.5380   -9.5297   -9.0784 C   0  0  0  0  0  0  0  0  0  0  0  0
  -27.6709   -8.6655   -9.0319 O   0  0  0  0  0  0  0  0  0  0  0  0
  -29.1814  -10.0003   -7.9505 N   0  0  0  0  0  0  0  0  0  0  0  0
  -29.7189  -10.7458  -10.2565 H   0  0  0  0  0  0  0  0  0  0  0  0
  -29.6815  -10.8698   -7.9405 H   0  0  0  0  0  0  0  0  0  0  0  0
  -27.1018   -9.4087  -14.0795 C   0  0  0  0  0  0  0  0  0  0  0  0
  -26.4665   -9.0316  -12.8952 C   0  0  0  0  0  0  0  0  0  0  0  0
  -27.0669   -9.2377  -11.6687 C   0  0  0  0  0  0  0  0  0  0  0  0
  -28.3195   -9.8463  -11.5346 C   0  0  0  0  0  0  0  0  0  0  0  0
  -28.9725  -10.2184  -12.7173 C   0  0  0  0  0  0  0  0  0  0  0  0
  -28.3690   -9.9990  -13.9712 C   0  0  0  0  0  0  0  0  0  0  0  0
  -25.2941   -8.6654  -15.4145 C   0  0  0  0  0  0  0  0  0  0  0  0
  -26.6012   -9.2338  -15.3377 O   0  0  0  0  0  0  0  0  0  0  0  0
  -29.2212   -6.3620   -5.0145 N   0  0  0  0  0  0  0  0  0  0  0  0
  -29.9946   -6.0063   -3.8171 C   0  0  0  0  0  0  0  0  0  0  0  0
  -31.0656   -4.9683   -4.2430 C   0  0  0  0  0  0  0  0  0  0  0  0
  -30.5376   -3.7513   -4.9220 N   0  0  0  0  0  0  0  0  0  0  0  0
  -29.6735   -4.1923   -6.0528 C   0  0  0  0  0  0  0  0  0  0  0  0
  -28.5863   -5.2367   -5.6940 C   0  0  0  0  0  0  0  0  0  0  0  0
  -29.7699   -2.8794   -4.0159 C   0  0  0  0  0  0  0  0  0  0  0  0
  -29.2839   -1.5833   -4.6303 C   0  0  0  0  0  0  0  0  0  0  0  0
  -30.2019   -0.6806   -5.1898 C   0  0  0  0  0  0  0  0  0  0  0  0
  -29.7690    0.5316   -5.7297 C   0  0  0  0  0  0  0  0  0  0  0  0
  -28.4154    0.8589   -5.7104 C   0  0  0  0  0  0  0  0  0  0  0  0
  -27.4940   -0.0260   -5.1524 C   0  0  0  0  0  0  0  0  0  0  0  0
  -27.9244   -1.2426   -4.6176 C   0  0  0  0  0  0  0  0  0  0  0  0
  -26.8394  -10.5935   -3.4858 S   0  0  0  0  0  0  0  0  0  0  0  0
  -25.2199  -10.2777   -4.0801 C   0  0  0  0  0  0  0  0  0  0  0  0
  -24.9645   -9.8130   -5.3502 C   0  0  0  0  0  0  0  0  0  0  0  0
  -23.6102   -9.6510   -5.4076 N   0  0  0  0  0  0  0  0  0  0  0  0
  -23.0514  -10.5825   -4.5649 C   0  0  0  0  0  0  0  0  0  0  0  0
  -21.8447  -11.2774   -4.6358 C   0  0  0  0  0  0  0  0  0  0  0  0
  -21.5425  -12.1069   -3.5574 C   0  0  0  0  0  0  0  0  0  0  0  0
  -22.3381  -12.1050   -2.4095 C   0  0  0  0  0  0  0  0  0  0  0  0
  -23.5524  -11.4002   -2.3661 C   0  0  0  0  0  0  0  0  0  0  0  0
  -23.9772  -10.7334   -3.5314 C   0  0  0  0  0  0  0  0  0  0  0  0
  -23.1663   -8.7693   -5.6241 H   0  0  0  0  0  0  0  0  0  0  0  0
 19 20  1  0  0  0
 20 13  1  0  0  0
 13 14  1  0  0  0
 13 18  2  0  0  0
 14 15  2  0  0  0
 15 16  1  0  0  0
 16  7  1  0  0  0
 16 17  2  0  0  0
  7  8  1  0  0  0
  7 11  1  0  0  0
  8  9  2  0  0  0
  8 10  1  0  0  0
 10  1  1  0  0  0
 10 12  1  0  0  0
  1  2  1  0  0  0
  1  6  2  0  0  0
  2  3  2  0  0  0
  3 34  1  0  0  0
  3  4  1  0  0  0
 34 35  1  0  0  0
 35 36  2  0  0  0
 35 43  1  0  0  0
 36 37  1  0  0  0
 37 38  1  0  0  0
 37 44  1  0  0  0
 38 39  1  0  0  0
 38 43  2  0  0  0
 39 40  2  0  0  0
 40 41  1  0  0  0
 41 42  2  0  0  0
 42 43  1  0  0  0
  4  5  2  0  0  0
  5 21  1  0  0  0
  5  6  1  0  0  0
 21 22  1  0  0  0
 21 26  1  0  0  0
 22 23  1  0  0  0
 23 24  1  0  0  0
 24 27  1  0  0  0
 24 25  1  0  0  0
 27 28  1  0  0  0
 28 29  1  0  0  0
 28 33  2  0  0  0
 29 30  2  0  0  0
 30 31  1  0  0  0
 31 32  2  0  0  0
 32 33  1  0  0  0
 25 26  1  0  0  0
 17 18  1  0  0  0
M  END
> <minimizedAffinity>
-9.70706

$$$$
