CHEMBL2004290


 43 47  0  0  0  0  0  0  0  0999 V2000
  -14.7224    4.3620  -17.2896 C   0  0  0  0  0  0  0  0  0  0  0  0
  -15.1597    4.7748  -18.5339 C   0  0  0  0  0  0  0  0  0  0  0  0
  -14.3525    6.1359  -19.1160 S   0  0  0  0  0  0  0  0  0  0  0  0
  -13.4195    6.3150  -17.6737 C   0  0  0  0  0  0  0  0  0  0  0  0
  -12.4694    7.3225  -17.3897 C   0  0  0  0  0  0  0  0  0  0  0  0
  -11.8427    7.2203  -16.1635 C   0  0  0  0  0  0  0  0  0  0  0  0
  -12.0563    6.2447  -15.2694 N   0  0  0  0  0  0  0  0  0  0  0  0
  -12.9400    5.2671  -15.5420 C   0  0  0  0  0  0  0  0  0  0  0  0
  -12.9956    4.3017  -14.5477 N   0  0  0  0  0  0  0  0  0  0  0  0
  -13.6908    5.2729  -16.7567 C   0  0  0  0  0  0  0  0  0  0  0  0
  -12.2241    4.4548  -13.9084 H   0  0  0  0  0  0  0  0  0  0  0  0
  -13.0495    3.3589  -14.9180 H   0  0  0  0  0  0  0  0  0  0  0  0
  -16.1075    0.7499  -15.4348 C   0  0  0  0  0  0  0  0  0  0  0  0
  -15.0861    0.7114  -16.3888 C   0  0  0  0  0  0  0  0  0  0  0  0
  -14.6618    1.8863  -17.0112 C   0  0  0  0  0  0  0  0  0  0  0  0
  -15.2746    3.1158  -16.7288 C   0  0  0  0  0  0  0  0  0  0  0  0
  -16.3866    3.1104  -15.8759 C   0  0  0  0  0  0  0  0  0  0  0  0
  -16.7812    1.9429  -15.2049 C   0  0  0  0  0  0  0  0  0  0  0  0
  -15.9175   -1.9460  -13.0272 N   0  0  0  0  0  0  0  0  0  0  0  0
  -15.4935   -0.8192  -13.7103 C   0  0  0  0  0  0  0  0  0  0  0  0
  -14.4378   -0.2230  -13.5009 O   0  0  0  0  0  0  0  0  0  0  0  0
  -16.4150   -0.3924  -14.6620 N   0  0  0  0  0  0  0  0  0  0  0  0
  -16.7313   -2.4205  -13.3911 H   0  0  0  0  0  0  0  0  0  0  0  0
  -17.3769   -0.4996  -14.3802 H   0  0  0  0  0  0  0  0  0  0  0  0
  -13.8400   -3.7841   -9.8166 C   0  0  0  0  0  0  0  0  0  0  0  0
  -15.1055   -3.2596   -9.6116 C   0  0  0  0  0  0  0  0  0  0  0  0
  -15.7925   -2.6461  -10.6602 C   0  0  0  0  0  0  0  0  0  0  0  0
  -15.2419   -2.5489  -11.9418 C   0  0  0  0  0  0  0  0  0  0  0  0
  -13.9726   -3.0828  -12.1504 C   0  0  0  0  0  0  0  0  0  0  0  0
  -13.2740   -3.6984  -11.0918 C   0  0  0  0  0  0  0  0  0  0  0  0
  -11.8682   -3.7026   -8.4989 C   0  0  0  0  0  0  0  0  0  0  0  0
  -13.0687   -4.3897   -8.8630 O   0  0  0  0  0  0  0  0  0  0  0  0
  -12.1409    8.3936  -18.3098 C   0  0  0  0  0  0  0  0  0  0  0  0
  -11.1642    8.5171  -19.3244 C   0  0  0  0  0  0  0  0  0  0  0  0
  -11.2454    9.6772  -19.9859 N   0  0  0  0  0  0  0  0  0  0  0  0
  -12.2875   10.3002  -19.4026 N   0  0  0  0  0  0  0  0  0  0  0  0
  -12.8446    9.5773  -18.3887 C   0  0  0  0  0  0  0  0  0  0  0  0
  -12.7493   11.5792  -19.9014 C   0  0  0  0  0  0  0  0  0  0  0  0
  -13.8094   11.4787  -21.0159 C   0  0  0  0  0  0  0  0  0  0  0  0
  -15.2407   11.5230  -20.4731 C   0  0  0  0  0  0  0  0  0  0  0  0
  -13.5871   12.6216  -22.0130 C   0  0  0  0  0  0  0  0  0  0  0  0
  -13.6363   10.2682  -21.7681 O   0  0  0  0  0  0  0  0  0  0  0  0
  -13.9896    9.5304  -21.2373 H   0  0  0  0  0  0  0  0  0  0  0  0
 31 32  1  0  0  0
 32 25  1  0  0  0
 25 26  1  0  0  0
 25 30  2  0  0  0
 26 27  2  0  0  0
 27 28  1  0  0  0
 28 19  1  0  0  0
 28 29  2  0  0  0
 19 20  1  0  0  0
 19 23  1  0  0  0
 20 21  2  0  0  0
 20 22  1  0  0  0
 22 13  1  0  0  0
 22 24  1  0  0  0
 13 14  1  0  0  0
 13 18  2  0  0  0
 14 15  2  0  0  0
 15 16  1  0  0  0
 16  1  1  0  0  0
 16 17  2  0  0  0
  1  2  2  0  0  0
  1 10  1  0  0  0
  2  3  1  0  0  0
  3  4  1  0  0  0
  4  5  1  0  0  0
  4 10  2  0  0  0
  5 33  1  0  0  0
  5  6  2  0  0  0
 33 34  1  0  0  0
 33 37  2  0  0  0
 34 35  2  0  0  0
 35 36  1  0  0  0
 36 38  1  0  0  0
 36 37  1  0  0  0
 38 39  1  0  0  0
 39 40  1  0  0  0
 39 41  1  0  0  0
 39 42  1  0  0  0
 42 43  1  0  0  0
  6  7  1  0  0  0
  7  8  2  0  0  0
  8  9  1  0  0  0
  8 10  1  0  0  0
  9 11  1  0  0  0
  9 12  1  0  0  0
 17 18  1  0  0  0
 29 30  1  0  0  0
M  END
> <minimizedAffinity>
-7.02755

$$$$
