CHEMBL3902110


 31 34  0  0  0  0  0  0  0  0999 V2000
  -29.2252   -4.7876   -5.7754 C   0  0  0  0  0  0  0  0  0  0  0  0
  -29.2132   -3.7002   -4.8954 C   0  0  0  0  0  0  0  0  0  0  0  0
  -28.8282   -2.4318   -5.3297 C   0  0  0  0  0  0  0  0  0  0  0  0
  -28.3991   -2.2213   -6.6267 C   0  0  0  0  0  0  0  0  0  0  0  0
  -28.0721   -0.9769   -7.0083 N   0  0  0  0  0  0  0  0  0  0  0  0
  -27.6445   -0.8418   -8.2848 C   0  0  0  0  0  0  0  0  0  0  0  0
  -27.5264   -1.9101   -9.1618 C   0  0  0  0  0  0  0  0  0  0  0  0
  -27.8732   -3.1633   -8.7813 N   0  0  0  0  0  0  0  0  0  0  0  0
  -28.3183   -3.3191   -7.5162 C   0  0  0  0  0  0  0  0  0  0  0  0
  -28.7336   -4.5691   -7.0741 C   0  0  0  0  0  0  0  0  0  0  0  0
  -27.0021   -1.7348  -10.5020 C   0  0  0  0  0  0  0  0  0  0  0  0
  -27.6594   -1.6849  -11.7534 C   0  0  0  0  0  0  0  0  0  0  0  0
  -26.8225   -1.4746  -12.7716 N   0  0  0  0  0  0  0  0  0  0  0  0
  -25.6204   -1.3845  -12.1753 N   0  0  0  0  0  0  0  0  0  0  0  0
  -24.4413   -1.1205  -12.9654 C   0  0  0  0  0  0  0  0  0  0  0  0
  -25.6722   -1.5423  -10.8214 C   0  0  0  0  0  0  0  0  0  0  0  0
  -29.7752   -6.0470   -5.4221 N   0  0  0  0  0  0  0  0  0  0  0  0
  -28.5754   -9.0314   -7.3701 C   0  0  0  0  0  0  0  0  0  0  0  0
  -29.7350   -9.4259   -8.0222 C   0  0  0  0  0  0  0  0  0  0  0  0
  -30.9059   -8.7163   -7.7937 C   0  0  0  0  0  0  0  0  0  0  0  0
  -32.0269   -9.0905   -8.4257 F   0  0  0  0  0  0  0  0  0  0  0  0
  -30.9439   -7.6161   -6.9367 C   0  0  0  0  0  0  0  0  0  0  0  0
  -29.7949   -7.1948   -6.2565 C   0  0  0  0  0  0  0  0  0  0  0  0
  -28.6197   -7.9489   -6.4770 C   0  0  0  0  0  0  0  0  0  0  0  0
  -26.8887  -10.3288   -6.3422 C   0  0  0  0  0  0  0  0  0  0  0  0
  -27.3589   -9.6462   -7.5032 O   0  0  0  0  0  0  0  0  0  0  0  0
  -30.3092   -6.1615   -4.0409 C   0  0  0  0  0  0  0  0  0  0  0  0
  -31.8165   -5.8739   -3.9202 C   0  0  0  0  0  0  0  0  0  0  0  0
  -32.1882   -4.9386   -2.7805 C   0  0  0  0  0  0  0  0  0  0  0  0
  -32.3642   -5.6933   -1.5830 O   0  0  0  0  0  0  0  0  0  0  0  0
  -32.9605   -6.4371   -1.7728 H   0  0  0  0  0  0  0  0  0  0  0  0
 25 26  1  0  0  0
 26 18  1  0  0  0
 18 19  1  0  0  0
 18 24  2  0  0  0
 19 20  2  0  0  0
 20 21  1  0  0  0
 20 22  1  0  0  0
 22 23  2  0  0  0
 23 17  1  0  0  0
 23 24  1  0  0  0
 17 27  1  0  0  0
 17  1  1  0  0  0
 27 28  1  0  0  0
 28 29  1  0  0  0
 29 30  1  0  0  0
 30 31  1  0  0  0
  1  2  1  0  0  0
  1 10  2  0  0  0
  2  3  2  0  0  0
  3  4  1  0  0  0
  4  5  1  0  0  0
  4  9  2  0  0  0
  5  6  2  0  0  0
  6  7  1  0  0  0
  7 11  1  0  0  0
  7  8  2  0  0  0
 11 12  1  0  0  0
 11 16  2  0  0  0
 12 13  2  0  0  0
 13 14  1  0  0  0
 14 15  1  0  0  0
 14 16  1  0  0  0
  8  9  1  0  0  0
  9 10  1  0  0  0
M  END
> <minimizedAffinity>
-8.43779

$$$$
