CHEMBL3671485


 42 45  0  0  0  0  0  0  0  0999 V2000
  -28.1141   -8.8241   -5.4891 C   0  0  0  0  0  0  0  0  0  0  0  0
  -28.2367   -9.3272   -6.7884 C   0  0  0  0  0  0  0  0  0  0  0  0
  -29.5130   -9.5126   -7.3714 C   0  0  0  0  0  0  0  0  0  0  0  0
  -29.7757  -10.2013   -8.5640 C   0  0  0  0  0  0  0  0  0  0  0  0
  -31.0259  -10.3375   -9.0523 N   0  0  0  0  0  0  0  0  0  0  0  0
  -32.0194   -9.8038   -8.3443 C   0  0  0  0  0  0  0  0  0  0  0  0
  -31.8875   -9.1624   -7.1845 N   0  0  0  0  0  0  0  0  0  0  0  0
  -30.6484   -9.0518   -6.7022 C   0  0  0  0  0  0  0  0  0  0  0  0
  -30.5013   -8.4886   -5.4501 C   0  0  0  0  0  0  0  0  0  0  0  0
  -29.2644   -8.4184   -4.7907 C   0  0  0  0  0  0  0  0  0  0  0  0
  -26.3529   -9.7211   -4.0676 C   0  0  0  0  0  0  0  0  0  0  0  0
  -26.9665  -10.7093   -3.6856 O   0  0  0  0  0  0  0  0  0  0  0  0
  -26.8079   -8.7634   -4.9551 N   0  0  0  0  0  0  0  0  0  0  0  0
  -26.0874   -8.4034   -5.5685 H   0  0  0  0  0  0  0  0  0  0  0  0
  -24.1646  -10.4686   -3.2041 C   0  0  0  0  0  0  0  0  0  0  0  0
  -24.9258   -9.4823   -3.6947 C   0  0  0  0  0  0  0  0  0  0  0  0
  -28.7185  -10.8582   -9.2453 N   0  0  0  0  0  0  0  0  0  0  0  0
  -27.9335  -11.0205   -8.6208 H   0  0  0  0  0  0  0  0  0  0  0  0
  -28.2983  -10.5028  -10.5485 C   0  0  0  0  0  0  0  0  0  0  0  0
  -29.0217  -10.9171  -11.6768 C   0  0  0  0  0  0  0  0  0  0  0  0
  -28.6718  -10.4734  -12.9507 C   0  0  0  0  0  0  0  0  0  0  0  0
  -27.5745   -9.6290  -13.1082 C   0  0  0  0  0  0  0  0  0  0  0  0
  -27.1577   -8.9554  -14.8242 Br  0  0  0  0  0  0  0  0  0  0  0  0
  -26.8004   -9.2600  -12.0107 C   0  0  0  0  0  0  0  0  0  0  0  0
  -27.1635   -9.7088  -10.7441 C   0  0  0  0  0  0  0  0  0  0  0  0
  -26.4301   -9.3359   -9.6833 F   0  0  0  0  0  0  0  0  0  0  0  0
  -29.1415   -7.9127   -3.5128 O   0  0  0  0  0  0  0  0  0  0  0  0
  -29.6651   -6.5895   -3.3373 C   0  0  0  0  0  0  0  0  0  0  0  0
  -29.5450   -5.6786   -4.5702 C   0  0  0  0  0  0  0  0  0  0  0  0
  -28.1183   -5.1443   -4.7732 C   0  0  0  0  0  0  0  0  0  0  0  0
  -27.8118   -3.9582   -3.8725 C   0  0  0  0  0  0  0  0  0  0  0  0
  -28.8118   -2.9187   -4.0898 N   0  0  0  0  0  0  0  0  0  0  0  0
  -28.4072   -1.7585   -4.7080 C   0  0  0  0  0  0  0  0  0  0  0  0
  -27.2425   -1.5933   -5.0630 O   0  0  0  0  0  0  0  0  0  0  0  0
  -29.3600   -0.7886   -4.8794 N   0  0  0  0  0  0  0  0  0  0  0  0
  -30.1671   -3.3334   -3.7445 C   0  0  0  0  0  0  0  0  0  0  0  0
  -30.5847   -4.5427   -4.5789 C   0  0  0  0  0  0  0  0  0  0  0  0
  -30.3227   -1.0755   -4.8568 H   0  0  0  0  0  0  0  0  0  0  0  0
  -29.0734    0.5038   -5.5199 C   0  0  0  0  0  0  0  0  0  0  0  0
  -28.4603    0.2976   -6.9156 C   0  0  0  0  0  0  0  0  0  0  0  0
  -30.3947    1.2775   -5.6831 C   0  0  0  0  0  0  0  0  0  0  0  0
  -28.1409    1.3544   -4.6383 C   0  0  0  0  0  0  0  0  0  0  0  0
 15 16  2  0  0  0
 16 11  1  0  0  0
 11 12  2  0  0  0
 11 13  1  0  0  0
 13  1  1  0  0  0
 13 14  1  0  0  0
  1  2  1  0  0  0
  1 10  2  0  0  0
  2  3  2  0  0  0
  3  4  1  0  0  0
  3  8  1  0  0  0
  4 17  1  0  0  0
  4  5  2  0  0  0
 17 19  1  0  0  0
 17 18  1  0  0  0
 19 20  1  0  0  0
 19 25  2  0  0  0
 20 21  2  0  0  0
 21 22  1  0  0  0
 22 23  1  0  0  0
 22 24  2  0  0  0
 24 25  1  0  0  0
 25 26  1  0  0  0
  5  6  1  0  0  0
  6  7  2  0  0  0
  7  8  1  0  0  0
  8  9  2  0  0  0
  9 10  1  0  0  0
 10 27  1  0  0  0
 27 28  1  0  0  0
 28 29  1  0  0  0
 29 30  1  0  0  0
 29 37  1  0  0  0
 30 31  1  0  0  0
 31 32  1  0  0  0
 32 33  1  0  0  0
 32 36  1  0  0  0
 33 34  2  0  0  0
 33 35  1  0  0  0
 35 39  1  0  0  0
 35 38  1  0  0  0
 39 40  1  0  0  0
 39 41  1  0  0  0
 39 42  1  0  0  0
 36 37  1  0  0  0
M  END
> <minimizedAffinity>
-8.63658

$$$$
