CHEMBL2047246


 25 28  0  0  0  0  0  0  0  0999 V2000
  -15.5354   -1.4468  -12.0014 N   0  0  0  0  0  0  0  0  0  0  0  0
  -15.4345   -0.4406  -12.9376 C   0  0  0  0  0  0  0  0  0  0  0  0
  -14.3253    0.3006  -12.9365 N   0  0  0  0  0  0  0  0  0  0  0  0
  -14.3079    1.2627  -13.8672 C   0  0  0  0  0  0  0  0  0  0  0  0
  -15.3160    1.5074  -14.7989 C   0  0  0  0  0  0  0  0  0  0  0  0
  -16.4044    0.6779  -14.7264 C   0  0  0  0  0  0  0  0  0  0  0  0
  -16.4529   -0.3073  -13.7995 N   0  0  0  0  0  0  0  0  0  0  0  0
  -14.9561    2.6649  -15.5959 C   0  0  0  0  0  0  0  0  0  0  0  0
  -15.6284    3.3320  -16.6077 C   0  0  0  0  0  0  0  0  0  0  0  0
  -15.0186    4.4492  -17.1922 C   0  0  0  0  0  0  0  0  0  0  0  0
  -13.7599    4.8970  -16.7584 C   0  0  0  0  0  0  0  0  0  0  0  0
  -13.0885    4.2414  -15.7259 C   0  0  0  0  0  0  0  0  0  0  0  0
  -13.6968    3.1354  -15.1573 C   0  0  0  0  0  0  0  0  0  0  0  0
  -13.1860    2.2785  -14.0178 C   0  0  0  0  0  0  0  0  0  0  0  0
  -14.6184   -1.7372  -11.6971 H   0  0  0  0  0  0  0  0  0  0  0  0
  -16.1718   -2.1597  -12.3318 H   0  0  0  0  0  0  0  0  0  0  0  0
  -17.4899    0.8232  -15.6177 N   0  0  0  0  0  0  0  0  0  0  0  0
  -17.5713   -0.0076  -16.1915 H   0  0  0  0  0  0  0  0  0  0  0  0
  -18.7281    1.4190  -15.2928 C   0  0  0  0  0  0  0  0  0  0  0  0
  -18.7983    2.7836  -14.9769 C   0  0  0  0  0  0  0  0  0  0  0  0
  -20.0114    3.3674  -14.5904 C   0  0  0  0  0  0  0  0  0  0  0  0
  -21.1606    2.5862  -14.4887 C   0  0  0  0  0  0  0  0  0  0  0  0
  -21.0876    1.2299  -14.7696 C   0  0  0  0  0  0  0  0  0  0  0  0
  -22.1844    0.4699  -14.6517 F   0  0  0  0  0  0  0  0  0  0  0  0
  -19.8899    0.6454  -15.1584 C   0  0  0  0  0  0  0  0  0  0  0  0
  1  2  1  0  0  0
  1 15  1  0  0  0
  1 16  1  0  0  0
  2  3  1  0  0  0
  2  7  2  0  0  0
  3  4  2  0  0  0
  4  5  1  0  0  0
  4 14  1  0  0  0
  5  6  2  0  0  0
  5  8  1  0  0  0
  6 17  1  0  0  0
  6  7  1  0  0  0
 17 19  1  0  0  0
 17 18  1  0  0  0
 19 20  1  0  0  0
 19 25  2  0  0  0
 20 21  2  0  0  0
 21 22  1  0  0  0
 22 23  2  0  0  0
 23 24  1  0  0  0
 23 25  1  0  0  0
  8  9  1  0  0  0
  8 13  2  0  0  0
  9 10  2  0  0  0
 10 11  1  0  0  0
 11 12  2  0  0  0
 12 13  1  0  0  0
 13 14  1  0  0  0
M  END
> <minimizedAffinity>
-7.96583

$$$$
