CHEMBL384260


 31 35  0  0  0  0  0  0  0  0999 V2000
  -14.0018   -7.1675  -17.1477 C   0  0  0  0  0  0  0  0  0  0  0  0
  -14.1613   -6.9117  -15.7964 C   0  0  0  0  0  0  0  0  0  0  0  0
  -13.9882   -5.6384  -15.2520 C   0  0  0  0  0  0  0  0  0  0  0  0
  -13.5980   -4.5566  -16.1276 C   0  0  0  0  0  0  0  0  0  0  0  0
  -13.2565   -3.2070  -15.8258 C   0  0  0  0  0  0  0  0  0  0  0  0
  -12.9343   -2.3041  -16.7845 N   0  0  0  0  0  0  0  0  0  0  0  0
  -12.9202   -2.7147  -18.0459 C   0  0  0  0  0  0  0  0  0  0  0  0
  -13.1784   -3.9495  -18.4524 N   0  0  0  0  0  0  0  0  0  0  0  0
  -13.4922   -4.8388  -17.5114 C   0  0  0  0  0  0  0  0  0  0  0  0
  -13.7089   -6.1150  -17.9914 C   0  0  0  0  0  0  0  0  0  0  0  0
  -13.5672   -8.5531  -19.0192 C   0  0  0  0  0  0  0  0  0  0  0  0
  -14.1735   -8.3883  -17.7390 O   0  0  0  0  0  0  0  0  0  0  0  0
  -13.1646   -2.7390  -14.4896 N   0  0  0  0  0  0  0  0  0  0  0  0
  -13.1008   -3.5211  -13.8445 H   0  0  0  0  0  0  0  0  0  0  0  0
  -13.9298   -1.6609  -13.9758 C   0  0  0  0  0  0  0  0  0  0  0  0
  -15.3127   -1.7946  -13.7353 C   0  0  0  0  0  0  0  0  0  0  0  0
  -16.0853   -0.7373  -13.2106 C   0  0  0  0  0  0  0  0  0  0  0  0
  -15.4918    0.4900  -12.9145 C   0  0  0  0  0  0  0  0  0  0  0  0
  -14.1386    0.6015  -13.1416 C   0  0  0  0  0  0  0  0  0  0  0  0
  -13.3777   -0.4334  -13.6572 C   0  0  0  0  0  0  0  0  0  0  0  0
  -12.0595   -0.0809  -13.7624 O   0  0  0  0  0  0  0  0  0  0  0  0
  -12.0741    1.2107  -13.1161 C   0  0  0  0  0  0  0  0  0  0  0  0
  -13.3998    1.7148  -12.8716 O   0  0  0  0  0  0  0  0  0  0  0  0
  -14.3760   -5.3507  -13.9687 O   0  0  0  0  0  0  0  0  0  0  0  0
  -15.2523   -6.1523  -13.1357 C   0  0  0  0  0  0  0  0  0  0  0  0
  -16.5751   -5.6119  -12.5701 C   0  0  0  0  0  0  0  0  0  0  0  0
  -16.3692   -4.3710  -11.7023 C   0  0  0  0  0  0  0  0  0  0  0  0
  -15.4735   -4.6367  -10.5724 N   0  0  0  0  0  0  0  0  0  0  0  0
  -15.1946   -3.3718   -9.8759 C   0  0  0  0  0  0  0  0  0  0  0  0
  -14.2133   -5.2706  -10.9946 C   0  0  0  0  0  0  0  0  0  0  0  0
  -14.4182   -6.5044  -11.8898 C   0  0  0  0  0  0  0  0  0  0  0  0
 11 12  1  0  0  0
 12  1  1  0  0  0
  1  2  1  0  0  0
  1 10  2  0  0  0
  2  3  2  0  0  0
  3 24  1  0  0  0
  3  4  1  0  0  0
 24 25  1  0  0  0
 25 26  1  0  0  0
 25 31  1  0  0  0
 26 27  1  0  0  0
 27 28  1  0  0  0
 28 29  1  0  0  0
 28 30  1  0  0  0
 30 31  1  0  0  0
  4  5  1  0  0  0
  4  9  2  0  0  0
  5 13  1  0  0  0
  5  6  2  0  0  0
 13 15  1  0  0  0
 13 14  1  0  0  0
 15 16  1  0  0  0
 15 20  2  0  0  0
 16 17  2  0  0  0
 17 18  1  0  0  0
 18 19  2  0  0  0
 19 20  1  0  0  0
 19 23  1  0  0  0
 20 21  1  0  0  0
 21 22  1  0  0  0
 22 23  1  0  0  0
  6  7  1  0  0  0
  7  8  2  0  0  0
  8  9  1  0  0  0
  9 10  1  0  0  0
M  END
> <minimizedAffinity>
-6.94904

$$$$
