CHEMBL405130


 24 26  0  0  0  0  0  0  0  0999 V2000
  -27.7837   -1.5320   -5.5613 C   0  0  0  0  0  0  0  0  0  0  0  0
  -28.0773   -2.3843   -4.4797 C   0  0  0  0  0  0  0  0  0  0  0  0
  -28.4785   -3.7011   -4.6525 C   0  0  0  0  0  0  0  0  0  0  0  0
  -28.6483   -4.4731   -3.5749 N   0  0  0  0  0  0  0  0  0  0  0  0
  -28.9852   -5.7472   -3.8003 C   0  0  0  0  0  0  0  0  0  0  0  0
  -29.1653   -6.3127   -4.9953 N   0  0  0  0  0  0  0  0  0  0  0  0
  -28.9863   -5.5273   -6.0749 C   0  0  0  0  0  0  0  0  0  0  0  0
  -28.6556   -4.1713   -5.9537 C   0  0  0  0  0  0  0  0  0  0  0  0
  -28.4928   -3.2861   -7.0400 C   0  0  0  0  0  0  0  0  0  0  0  0
  -28.0431   -1.9755   -6.8612 C   0  0  0  0  0  0  0  0  0  0  0  0
  -28.2041    0.7137   -4.9342 C   0  0  0  0  0  0  0  0  0  0  0  0
  -27.2664   -0.2803   -5.3574 O   0  0  0  0  0  0  0  0  0  0  0  0
  -29.0943   -6.1009   -7.3729 N   0  0  0  0  0  0  0  0  0  0  0  0
  -28.1768   -6.1012   -7.8100 H   0  0  0  0  0  0  0  0  0  0  0  0
  -29.8272   -7.2647   -7.6698 C   0  0  0  0  0  0  0  0  0  0  0  0
  -29.2439   -8.3019   -8.4099 C   0  0  0  0  0  0  0  0  0  0  0  0
  -29.9779   -9.4297   -8.7634 C   0  0  0  0  0  0  0  0  0  0  0  0
  -31.3041   -9.5308   -8.3649 C   0  0  0  0  0  0  0  0  0  0  0  0
  -32.0705  -10.5934   -8.7319 O   0  0  0  0  0  0  0  0  0  0  0  0
  -31.8901   -8.5366   -7.5895 C   0  0  0  0  0  0  0  0  0  0  0  0
  -31.1505   -7.4063   -7.2343 C   0  0  0  0  0  0  0  0  0  0  0  0
  -31.5629  -11.1249   -9.3679 H   0  0  0  0  0  0  0  0  0  0  0  0
  -27.8994   -1.3375   -8.0586 O   0  0  0  0  0  0  0  0  0  0  0  0
  -27.6080   -2.0747   -9.2311 C   0  0  0  0  0  0  0  0  0  0  0  0
 11 12  1  0  0  0
 12  1  1  0  0  0
  1  2  1  0  0  0
  1 10  2  0  0  0
  2  3  2  0  0  0
  3  4  1  0  0  0
  3  8  1  0  0  0
  4  5  2  0  0  0
  5  6  1  0  0  0
  6  7  2  0  0  0
  7 13  1  0  0  0
  7  8  1  0  0  0
 13 15  1  0  0  0
 13 14  1  0  0  0
 15 16  1  0  0  0
 15 21  2  0  0  0
 16 17  2  0  0  0
 17 18  1  0  0  0
 18 19  1  0  0  0
 18 20  2  0  0  0
 19 22  1  0  0  0
 20 21  1  0  0  0
  8  9  2  0  0  0
  9 10  1  0  0  0
 10 23  1  0  0  0
 23 24  1  0  0  0
M  END
> <minimizedAffinity>
-7.95447

$$$$
