CHEMBL4789418


 83 89  0  0  0  0  0  0  0  0999 V2000
  -16.5624    1.3775  -16.4067 C   0  0  0  0  0  0  0  0  0  0  0  0
  -15.4426    0.6906  -15.6277 C   0  0  0  0  0  0  0  0  0  0  0  0
  -15.8130   -0.6640  -15.0422 C   0  0  0  0  0  0  0  0  0  0  0  0
  -16.7215   -0.4745  -13.8273 C   0  0  0  0  0  0  0  0  0  0  0  0
  -16.2115    0.6211  -12.9112 C   0  0  0  0  0  0  0  0  0  0  0  0
  -14.7683    0.3465  -12.4990 C   0  0  0  0  0  0  0  0  0  0  0  0
  -13.8220    0.4252  -13.6829 C   0  0  0  0  0  0  0  0  0  0  0  0
  -12.3333    0.3621  -13.3187 C   0  0  0  0  0  0  0  0  0  0  0  0
  -11.1263    6.1536  -14.3812 C   0  0  0  0  0  0  0  0  0  0  0  0
  -10.8849    6.6852  -13.0773 C   0  0  0  0  0  0  0  0  0  0  0  0
  -10.7230    5.9031  -11.9439 C   0  0  0  0  0  0  0  0  0  0  0  0
  -10.9202    4.5426  -12.0238 C   0  0  0  0  0  0  0  0  0  0  0  0
  -11.2175    3.9949  -13.2792 C   0  0  0  0  0  0  0  0  0  0  0  0
  -11.2185    4.7310  -14.4685 C   0  0  0  0  0  0  0  0  0  0  0  0
  -11.1875    3.6902  -15.4423 C   0  0  0  0  0  0  0  0  0  0  0  0
  -10.7000    3.7925  -16.7008 N   0  0  0  0  0  0  0  0  0  0  0  0
  -11.4890    2.4886  -14.9521 N   0  0  0  0  0  0  0  0  0  0  0  0
  -11.5745    2.7007  -13.6173 N   0  0  0  0  0  0  0  0  0  0  0  0
  -11.9586    1.6906  -12.7151 C   0  0  0  0  0  0  0  0  0  0  0  0
  -11.9971    1.9301  -11.5111 O   0  0  0  0  0  0  0  0  0  0  0  0
  -10.1922    2.9386  -16.9406 H   0  0  0  0  0  0  0  0  0  0  0  0
  -11.4038    3.8499  -17.4301 H   0  0  0  0  0  0  0  0  0  0  0  0
  -11.5401    8.8931  -17.7173 C   0  0  0  0  0  0  0  0  0  0  0  0
  -11.3643    7.5278  -17.9214 C   0  0  0  0  0  0  0  0  0  0  0  0
  -11.2929    6.6564  -16.8322 C   0  0  0  0  0  0  0  0  0  0  0  0
  -11.3572    7.1077  -15.4969 C   0  0  0  0  0  0  0  0  0  0  0  0
  -11.4880    8.4977  -15.3170 C   0  0  0  0  0  0  0  0  0  0  0  0
  -11.5600    9.3851  -16.4134 C   0  0  0  0  0  0  0  0  0  0  0  0
  -13.1990   10.7953  -20.3262 N   0  0  0  0  0  0  0  0  0  0  0  0
  -13.0919    9.9806  -19.2141 C   0  0  0  0  0  0  0  0  0  0  0  0
  -14.0355    9.5534  -18.5647 O   0  0  0  0  0  0  0  0  0  0  0  0
  -11.7687    9.7554  -18.8241 N   0  0  0  0  0  0  0  0  0  0  0  0
  -12.3523   11.2328  -20.6508 H   0  0  0  0  0  0  0  0  0  0  0  0
  -11.1764   10.5676  -18.8859 H   0  0  0  0  0  0  0  0  0  0  0  0
  -18.1447   10.6570  -20.1827 C   0  0  0  0  0  0  0  0  0  0  0  0
  -16.8791   11.1187  -20.8465 C   0  0  0  0  0  0  0  0  0  0  0  0
  -16.9478   11.8627  -22.0286 C   0  0  0  0  0  0  0  0  0  0  0  0
  -15.7797   12.3207  -22.6242 C   0  0  0  0  0  0  0  0  0  0  0  0
  -14.5401   12.0253  -22.0570 C   0  0  0  0  0  0  0  0  0  0  0  0
  -13.4865   12.6256  -22.6215 F   0  0  0  0  0  0  0  0  0  0  0  0
  -14.4266   11.2242  -20.9077 C   0  0  0  0  0  0  0  0  0  0  0  0
  -15.6193   10.8044  -20.2921 C   0  0  0  0  0  0  0  0  0  0  0  0
  -16.1896    2.8398  -16.6516 C   0  0  0  0  0  0  0  0  0  0  0  0
  -14.6917    3.0995  -16.5249 C   0  0  0  0  0  0  0  0  0  0  0  0
  -13.9891    3.2114  -17.8896 C   0  0  0  0  0  0  0  0  0  0  0  0
  -13.7475    1.8429  -18.5165 C   0  0  0  0  0  0  0  0  0  0  0  0
  -13.0083    1.8932  -19.8519 C   0  0  0  0  0  0  0  0  0  0  0  0
  -13.1286    0.5443  -20.5671 C   0  0  0  0  0  0  0  0  0  0  0  0
  -12.8822   -0.6172  -19.6097 C   0  0  0  0  0  0  0  0  0  0  0  0
  -13.8017   -1.2627  -19.1215 O   0  0  0  0  0  0  0  0  0  0  0  0
  -11.5489   -0.8860  -19.3983 N   0  0  0  0  0  0  0  0  0  0  0  0
  -10.8746   -0.3248  -19.8980 H   0  0  0  0  0  0  0  0  0  0  0  0
  -11.0069   -1.8260  -18.3977 C   0  0  0  0  0  0  0  0  0  0  0  0
  -11.3121   -3.2925  -18.7571 C   0  0  0  0  0  0  0  0  0  0  0  0
  -11.3200   -4.1640  -17.8813 O   0  0  0  0  0  0  0  0  0  0  0  0
  -11.5037   -3.6535  -20.0849 N   0  0  0  0  0  0  0  0  0  0  0  0
  -11.0844   -2.9525  -21.3013 C   0  0  0  0  0  0  0  0  0  0  0  0
  -12.0361   -3.4569  -22.3918 C   0  0  0  0  0  0  0  0  0  0  0  0
  -13.2533   -2.7125  -22.3779 O   0  0  0  0  0  0  0  0  0  0  0  0
  -12.2957   -4.8955  -21.9705 C   0  0  0  0  0  0  0  0  0  0  0  0
  -12.3517   -4.8044  -20.4338 C   0  0  0  0  0  0  0  0  0  0  0  0
  -13.5331   -2.6227  -21.4510 H   0  0  0  0  0  0  0  0  0  0  0  0
  -12.0389   -6.1584  -19.7757 C   0  0  0  0  0  0  0  0  0  0  0  0
  -11.0060   -6.7878  -20.0112 O   0  0  0  0  0  0  0  0  0  0  0  0
  -12.9619   -6.6822  -18.9036 N   0  0  0  0  0  0  0  0  0  0  0  0
  -12.6476   -7.5346  -18.4620 H   0  0  0  0  0  0  0  0  0  0  0  0
  -14.1167   -6.0198  -18.2980 C   0  0  0  0  0  0  0  0  0  0  0  0
  -14.0426   -5.9092  -16.7995 C   0  0  0  0  0  0  0  0  0  0  0  0
  -13.6989   -6.9927  -15.9939 C   0  0  0  0  0  0  0  0  0  0  0  0
  -13.6681   -6.8671  -14.6084 C   0  0  0  0  0  0  0  0  0  0  0  0
  -13.9570   -5.6501  -13.9826 C   0  0  0  0  0  0  0  0  0  0  0  0
  -14.2599   -4.5470  -14.7948 C   0  0  0  0  0  0  0  0  0  0  0  0
  -14.3009   -4.6745  -16.1874 C   0  0  0  0  0  0  0  0  0  0  0  0
  -13.9364   -5.5657  -12.5165 C   0  0  0  0  0  0  0  0  0  0  0  0
  -12.5737   -6.1470  -11.6326 S   0  0  0  0  0  0  0  0  0  0  0  0
  -13.3534   -5.7351  -10.1719 C   0  0  0  0  0  0  0  0  0  0  0  0
  -14.5474   -5.2057  -10.2804 N   0  0  0  0  0  0  0  0  0  0  0  0
  -14.8960   -5.1039  -11.6180 C   0  0  0  0  0  0  0  0  0  0  0  0
  -16.2295   -4.5126  -11.9261 C   0  0  0  0  0  0  0  0  0  0  0  0
  -11.2761   -1.4130  -16.8926 C   0  0  0  0  0  0  0  0  0  0  0  0
  -10.7037   -0.0000  -16.6239 C   0  0  0  0  0  0  0  0  0  0  0  0
  -12.8029   -1.3353  -16.6723 C   0  0  0  0  0  0  0  0  0  0  0  0
  -10.6966   -2.3353  -15.7976 C   0  0  0  0  0  0  0  0  0  0  0  0
 35 36  1  0  0  0
 36 37  1  0  0  0
 36 42  2  0  0  0
 37 38  2  0  0  0
 38 39  1  0  0  0
 39 40  1  0  0  0
 39 41  2  0  0  0
 41 29  1  0  0  0
 41 42  1  0  0  0
 29 30  1  0  0  0
 29 33  1  0  0  0
 30 31  2  0  0  0
 30 32  1  0  0  0
 32 23  1  0  0  0
 32 34  1  0  0  0
 23 24  1  0  0  0
 23 28  2  0  0  0
 24 25  2  0  0  0
 25 26  1  0  0  0
 26  9  1  0  0  0
 26 27  2  0  0  0
  9 10  1  0  0  0
  9 14  2  0  0  0
 10 11  2  0  0  0
 11 12  1  0  0  0
 12 13  2  0  0  0
 13 14  1  0  0  0
 13 18  1  0  0  0
 14 15  1  0  0  0
 15 16  1  0  0  0
 15 17  2  0  0  0
 16 21  1  0  0  0
 16 22  1  0  0  0
 17 18  1  0  0  0
 18 19  1  0  0  0
 19 20  2  0  0  0
 19  8  1  0  0  0
  8  7  1  0  0  0
  7  6  1  0  0  0
  6  5  1  0  0  0
  5  4  1  0  0  0
  4  3  1  0  0  0
  3  2  1  0  0  0
  2  1  1  0  0  0
  1 43  1  0  0  0
 43 44  1  0  0  0
 44 45  1  0  0  0
 45 46  1  0  0  0
 46 47  1  0  0  0
 47 48  1  0  0  0
 48 49  1  0  0  0
 49 50  2  0  0  0
 49 51  1  0  0  0
 51 52  1  0  0  0
 53 80  1  0  0  0
 53 54  1  0  0  0
 53 51  1  0  0  0
 54 55  2  0  0  0
 54 56  1  0  0  0
 56 57  1  0  0  0
 56 61  1  0  0  0
 57 58  1  0  0  0
 58 59  1  0  0  0
 58 60  1  0  0  0
 59 62  1  0  0  0
 60 61  1  0  0  0
 61 63  1  0  0  0
 63 64  2  0  0  0
 63 65  1  0  0  0
 65 67  1  0  0  0
 65 66  1  0  0  0
 67 68  1  0  0  0
 68 69  1  0  0  0
 68 73  2  0  0  0
 69 70  2  0  0  0
 70 71  1  0  0  0
 71 74  1  0  0  0
 71 72  2  0  0  0
 74 75  1  0  0  0
 74 78  2  0  0  0
 75 76  1  0  0  0
 76 77  2  0  0  0
 77 78  1  0  0  0
 78 79  1  0  0  0
 72 73  1  0  0  0
 80 81  1  0  0  0
 80 82  1  0  0  0
 80 83  1  0  0  0
 27 28  1  0  0  0
M  END
> <minimizedAffinity>
-4.63352

$$$$
