CHEMBL89363


 25 27  0  0  0  0  0  0  0  0999 V2000
  -29.0255  -10.6957   -8.4743 C   0  0  0  0  0  0  0  0  0  0  0  0
  -28.7705   -9.2318   -8.3844 C   0  0  0  0  0  0  0  0  0  0  0  0
  -27.7756   -8.5570   -9.0626 C   0  0  0  0  0  0  0  0  0  0  0  0
  -27.8287   -7.2385   -8.7083 N   0  0  0  0  0  0  0  0  0  0  0  0
  -28.8593   -7.0310   -7.8285 C   0  0  0  0  0  0  0  0  0  0  0  0
  -29.4660   -8.2571   -7.5852 C   0  0  0  0  0  0  0  0  0  0  0  0
  -27.1917   -6.5276   -9.0377 H   0  0  0  0  0  0  0  0  0  0  0  0
  -29.0902   -5.7057   -7.3866 C   0  0  0  0  0  0  0  0  0  0  0  0
  -28.7916   -5.2775   -6.1510 C   0  0  0  0  0  0  0  0  0  0  0  0
  -28.1534   -6.0736   -5.0365 C   0  0  0  0  0  0  0  0  0  0  0  0
  -27.8309   -7.2437   -5.0124 O   0  0  0  0  0  0  0  0  0  0  0  0
  -27.9786   -5.1624   -4.0065 N   0  0  0  0  0  0  0  0  0  0  0  0
  -28.4511   -3.9022   -4.3483 C   0  0  0  0  0  0  0  0  0  0  0  0
  -28.4250   -2.7736   -3.5542 C   0  0  0  0  0  0  0  0  0  0  0  0
  -28.9710   -1.6044   -4.0844 C   0  0  0  0  0  0  0  0  0  0  0  0
  -29.5256   -1.5952   -5.3778 C   0  0  0  0  0  0  0  0  0  0  0  0
  -29.5326   -2.7523   -6.1702 C   0  0  0  0  0  0  0  0  0  0  0  0
  -28.9800   -3.9082   -5.6440 C   0  0  0  0  0  0  0  0  0  0  0  0
  -27.5620   -5.4232   -3.1234 H   0  0  0  0  0  0  0  0  0  0  0  0
  -30.6089   -8.5102   -6.6412 C   0  0  0  0  0  0  0  0  0  0  0  0
  -31.9645   -8.3009   -7.3111 C   0  0  0  0  0  0  0  0  0  0  0  0
  -32.6189   -9.6040   -7.6870 C   0  0  0  0  0  0  0  0  0  0  0  0
  -33.3029  -10.2980   -6.9539 O   0  0  0  0  0  0  0  0  0  0  0  0
  -32.3695   -9.9419   -8.9765 O   0  0  0  0  0  0  0  0  0  0  0  0
  -31.8064   -9.2976   -9.4459 H   0  0  0  0  0  0  0  0  0  0  0  0
  1  2  1  0  0  0
  2  3  2  0  0  0
  2  6  1  0  0  0
  3  4  1  0  0  0
  4  5  1  0  0  0
  4  7  1  0  0  0
  5  8  1  0  0  0
  5  6  2  0  0  0
  8  9  2  0  0  0
  9 10  1  0  0  0
  9 18  1  0  0  0
 10 11  2  0  0  0
 10 12  1  0  0  0
 12 13  1  0  0  0
 12 19  1  0  0  0
 13 14  1  0  0  0
 13 18  2  0  0  0
 14 15  2  0  0  0
 15 16  1  0  0  0
 16 17  2  0  0  0
 17 18  1  0  0  0
  6 20  1  0  0  0
 20 21  1  0  0  0
 21 22  1  0  0  0
 22 23  2  0  0  0
 22 24  1  0  0  0
 24 25  1  0  0  0
M  END
> <minimizedAffinity>
-8.30105

$$$$
