CHEMBL3690424


 33 36  0  0  0  0  0  0  0  0999 V2000
  -30.0597   -3.6607   -4.9400 C   0  0  0  0  0  0  0  0  0  0  0  0
  -30.8726   -3.2940   -3.8554 C   0  0  0  0  0  0  0  0  0  0  0  0
  -31.6472   -4.2363   -3.1891 C   0  0  0  0  0  0  0  0  0  0  0  0
  -31.6265   -5.5667   -3.5970 C   0  0  0  0  0  0  0  0  0  0  0  0
  -30.8527   -5.9700   -4.6866 C   0  0  0  0  0  0  0  0  0  0  0  0
  -30.0679   -5.0074   -5.3511 C   0  0  0  0  0  0  0  0  0  0  0  0
  -27.3610   -2.1025   -9.2685 C   0  0  0  0  0  0  0  0  0  0  0  0
  -27.9587   -3.4185   -9.0001 C   0  0  0  0  0  0  0  0  0  0  0  0
  -28.5872   -3.6595   -7.8351 C   0  0  0  0  0  0  0  0  0  0  0  0
  -28.6977   -2.6431   -6.8834 N   0  0  0  0  0  0  0  0  0  0  0  0
  -29.3104   -2.6015   -5.6338 C   0  0  0  0  0  0  0  0  0  0  0  0
  -29.0179   -1.3242   -5.1672 C   0  0  0  0  0  0  0  0  0  0  0  0
  -28.2956   -0.5901   -6.0594 N   0  0  0  0  0  0  0  0  0  0  0  0
  -28.1287   -1.3868   -7.0882 C   0  0  0  0  0  0  0  0  0  0  0  0
  -27.4664   -1.1393   -8.3216 C   0  0  0  0  0  0  0  0  0  0  0  0
  -23.2020   -1.4250  -11.6503 C   0  0  0  0  0  0  0  0  0  0  0  0
  -24.6978   -1.4684  -11.6735 C   0  0  0  0  0  0  0  0  0  0  0  0
  -25.3060   -1.2581  -12.8541 N   0  0  0  0  0  0  0  0  0  0  0  0
  -26.6471   -1.3025  -12.8497 C   0  0  0  0  0  0  0  0  0  0  0  0
  -27.3921   -1.5517  -11.7233 C   0  0  0  0  0  0  0  0  0  0  0  0
  -26.6856   -1.7804  -10.5561 C   0  0  0  0  0  0  0  0  0  0  0  0
  -25.3359   -1.7221  -10.5144 N   0  0  0  0  0  0  0  0  0  0  0  0
  -30.8260   -7.3055   -5.1578 N   0  0  0  0  0  0  0  0  0  0  0  0
  -31.0288   -7.7123   -6.4607 C   0  0  0  0  0  0  0  0  0  0  0  0
  -31.2361   -7.0032   -7.4317 O   0  0  0  0  0  0  0  0  0  0  0  0
  -31.0194   -9.0860   -6.5919 N   0  0  0  0  0  0  0  0  0  0  0  0
  -30.6285   -8.0271   -4.4814 H   0  0  0  0  0  0  0  0  0  0  0  0
  -30.4353   -9.6004   -5.9506 H   0  0  0  0  0  0  0  0  0  0  0  0
  -31.1858   -9.6459   -7.9411 C   0  0  0  0  0  0  0  0  0  0  0  0
  -29.8909   -9.9706   -8.7029 C   0  0  0  0  0  0  0  0  0  0  0  0
  -30.1090  -10.8016   -9.7480 F   0  0  0  0  0  0  0  0  0  0  0  0
  -29.3640   -8.8297   -9.2162 F   0  0  0  0  0  0  0  0  0  0  0  0
  -28.9497  -10.5238   -7.9112 F   0  0  0  0  0  0  0  0  0  0  0  0
 16 17  1  0  0  0
 17 18  1  0  0  0
 17 22  2  0  0  0
 18 19  2  0  0  0
 19 20  1  0  0  0
 20 21  2  0  0  0
 21  7  1  0  0  0
 21 22  1  0  0  0
  7  8  1  0  0  0
  7 15  2  0  0  0
  8  9  2  0  0  0
  9 10  1  0  0  0
 10 11  1  0  0  0
 10 14  1  0  0  0
 11  1  1  0  0  0
 11 12  2  0  0  0
  1  2  1  0  0  0
  1  6  2  0  0  0
  2  3  2  0  0  0
  3  4  1  0  0  0
  4  5  2  0  0  0
  5 23  1  0  0  0
  5  6  1  0  0  0
 23 24  1  0  0  0
 23 27  1  0  0  0
 24 25  2  0  0  0
 24 26  1  0  0  0
 26 29  1  0  0  0
 26 28  1  0  0  0
 29 30  1  0  0  0
 30 31  1  0  0  0
 30 32  1  0  0  0
 30 33  1  0  0  0
 12 13  1  0  0  0
 13 14  2  0  0  0
 14 15  1  0  0  0
M  END
> <minimizedAffinity>
-10.19404

$$$$
