CHEMBL4641639


 44 49  0  0  0  0  0  0  0  0999 V2000
  -22.6402   10.6715  -15.2687 C   0  0  0  0  0  0  0  0  0  0  0  0
  -23.4938   10.9150  -16.3687 C   0  0  0  0  0  0  0  0  0  0  0  0
  -22.9761   11.2830  -17.6269 C   0  0  0  0  0  0  0  0  0  0  0  0
  -21.6050   11.4210  -17.7693 C   0  0  0  0  0  0  0  0  0  0  0  0
  -20.7807   11.1454  -16.6697 C   0  0  0  0  0  0  0  0  0  0  0  0
  -21.2559   10.7649  -15.4311 C   0  0  0  0  0  0  0  0  0  0  0  0
  -19.4474   11.3713  -16.9769 N   0  0  0  0  0  0  0  0  0  0  0  0
  -19.3063   11.8731  -18.2546 C   0  0  0  0  0  0  0  0  0  0  0  0
  -18.2987   12.3929  -18.6959 O   0  0  0  0  0  0  0  0  0  0  0  0
  -20.6910   11.8031  -18.8703 C   0  0  0  0  0  0  0  0  0  0  0  0
  -20.8890   12.0638  -20.1832 C   0  0  0  0  0  0  0  0  0  0  0  0
  -18.6776   11.3445  -16.3242 H   0  0  0  0  0  0  0  0  0  0  0  0
  -22.2509   12.3017  -20.7027 C   0  0  0  0  0  0  0  0  0  0  0  0
  -22.4411   12.3561  -22.0932 C   0  0  0  0  0  0  0  0  0  0  0  0
  -23.7185   12.5320  -22.6237 C   0  0  0  0  0  0  0  0  0  0  0  0
  -24.8148   12.6552  -21.7679 C   0  0  0  0  0  0  0  0  0  0  0  0
  -24.6357   12.6027  -20.3881 C   0  0  0  0  0  0  0  0  0  0  0  0
  -23.3584   12.4164  -19.8535 C   0  0  0  0  0  0  0  0  0  0  0  0
  -23.1396   10.3607  -13.9009 C   0  0  0  0  0  0  0  0  0  0  0  0
  -22.4462    9.8415  -13.0403 O   0  0  0  0  0  0  0  0  0  0  0  0
  -24.5493   12.0674  -13.1723 C   0  0  0  0  0  0  0  0  0  0  0  0
  -24.4247   10.7625  -13.7442 O   0  0  0  0  0  0  0  0  0  0  0  0
  -19.9127   12.1881  -21.1792 N   0  0  0  0  0  0  0  0  0  0  0  0
  -19.6433   13.1636  -21.2881 H   0  0  0  0  0  0  0  0  0  0  0  0
  -18.7454   11.3711  -21.1662 C   0  0  0  0  0  0  0  0  0  0  0  0
  -17.4790   11.9268  -21.0036 C   0  0  0  0  0  0  0  0  0  0  0  0
  -16.3362   11.1331  -21.0943 C   0  0  0  0  0  0  0  0  0  0  0  0
  -16.4185    9.7435  -21.2718 C   0  0  0  0  0  0  0  0  0  0  0  0
  -17.6953    9.1445  -21.3492 C   0  0  0  0  0  0  0  0  0  0  0  0
  -17.9701    7.6674  -21.4516 C   0  0  0  0  0  0  0  0  0  0  0  0
  -18.8406    9.9792  -21.2955 C   0  0  0  0  0  0  0  0  0  0  0  0
  -15.1920    9.0061  -21.3765 N   0  0  0  0  0  0  0  0  0  0  0  0
  -14.4248    8.9080  -22.5271 C   0  0  0  0  0  0  0  0  0  0  0  0
  -13.3257    8.1171  -22.2929 C   0  0  0  0  0  0  0  0  0  0  0  0
  -13.3693    7.7483  -20.9386 C   0  0  0  0  0  0  0  0  0  0  0  0
  -14.5173    8.2890  -20.3779 C   0  0  0  0  0  0  0  0  0  0  0  0
  -15.0227    8.0229  -18.9918 C   0  0  0  0  0  0  0  0  0  0  0  0
  -14.2153    7.0177  -18.3027 N   0  0  0  0  0  0  0  0  0  0  0  0
  -14.6451    5.6432  -18.6007 C   0  0  0  0  0  0  0  0  0  0  0  0
  -13.7957    4.6043  -17.8403 C   0  0  0  0  0  0  0  0  0  0  0  0
  -12.3408    4.7179  -18.0679 N   0  0  0  0  0  0  0  0  0  0  0  0
  -11.9773    4.2824  -19.4112 C   0  0  0  0  0  0  0  0  0  0  0  0
  -11.9315    6.1158  -17.8165 C   0  0  0  0  0  0  0  0  0  0  0  0
  -12.7767    7.1885  -18.5477 C   0  0  0  0  0  0  0  0  0  0  0  0
 21 22  1  0  0  0
 22 19  1  0  0  0
 19 20  2  0  0  0
 19  1  1  0  0  0
  1  2  1  0  0  0
  1  6  2  0  0  0
  2  3  2  0  0  0
  3  4  1  0  0  0
  4  5  2  0  0  0
  4 10  1  0  0  0
  5  6  1  0  0  0
  5  7  1  0  0  0
  7  8  1  0  0  0
  7 12  1  0  0  0
  8  9  2  0  0  0
  8 10  1  0  0  0
 10 11  2  0  0  0
 11 23  1  0  0  0
 11 13  1  0  0  0
 23 25  1  0  0  0
 23 24  1  0  0  0
 25 26  1  0  0  0
 25 31  2  0  0  0
 26 27  2  0  0  0
 27 28  1  0  0  0
 28 32  1  0  0  0
 28 29  2  0  0  0
 32 33  1  0  0  0
 32 36  1  0  0  0
 33 34  2  0  0  0
 34 35  1  0  0  0
 35 36  2  0  0  0
 36 37  1  0  0  0
 37 38  1  0  0  0
 38 39  1  0  0  0
 38 44  1  0  0  0
 39 40  1  0  0  0
 40 41  1  0  0  0
 41 42  1  0  0  0
 41 43  1  0  0  0
 43 44  1  0  0  0
 29 30  1  0  0  0
 29 31  1  0  0  0
 13 14  1  0  0  0
 13 18  2  0  0  0
 14 15  2  0  0  0
 15 16  1  0  0  0
 16 17  2  0  0  0
 17 18  1  0  0  0
M  END
> <minimizedAffinity>
3.30526

$$$$
