CHEMBL3949508


 36 39  0  0  0  0  0  0  0  0999 V2000
  -29.7576   -4.5508   -6.3192 N   0  0  0  0  0  0  0  0  0  0  0  0
  -29.1807   -5.8696   -6.2139 C   0  0  0  0  0  0  0  0  0  0  0  0
  -29.9505   -6.8869   -6.7834 C   0  0  0  0  0  0  0  0  0  0  0  0
  -29.9256   -8.1550   -6.2424 C   0  0  0  0  0  0  0  0  0  0  0  0
  -29.0007   -8.5028   -5.3099 C   0  0  0  0  0  0  0  0  0  0  0  0
  -29.2395   -9.7008   -4.7618 N   0  0  0  0  0  0  0  0  0  0  0  0
  -28.2597  -10.2282   -4.0266 C   0  0  0  0  0  0  0  0  0  0  0  0
  -27.0294   -9.6178   -3.9092 C   0  0  0  0  0  0  0  0  0  0  0  0
  -26.8317   -8.3192   -4.3397 N   0  0  0  0  0  0  0  0  0  0  0  0
  -27.8890   -7.6880   -5.0116 C   0  0  0  0  0  0  0  0  0  0  0  0
  -28.0633   -6.3024   -5.4285 C   0  0  0  0  0  0  0  0  0  0  0  0
  -25.9507  -10.5029   -3.4696 C   0  0  0  0  0  0  0  0  0  0  0  0
  -26.0221  -11.7120   -2.7224 C   0  0  0  0  0  0  0  0  0  0  0  0
  -24.8307  -12.1109   -2.2559 N   0  0  0  0  0  0  0  0  0  0  0  0
  -23.9933  -11.1541   -2.6887 N   0  0  0  0  0  0  0  0  0  0  0  0
  -22.5644  -11.3629   -2.6739 C   0  0  0  0  0  0  0  0  0  0  0  0
  -24.6467  -10.0879   -3.2439 C   0  0  0  0  0  0  0  0  0  0  0  0
  -27.8007   -1.9132   -8.2122 C   0  0  0  0  0  0  0  0  0  0  0  0
  -27.9231   -0.8218   -7.3560 C   0  0  0  0  0  0  0  0  0  0  0  0
  -28.5823   -0.9757   -6.1369 C   0  0  0  0  0  0  0  0  0  0  0  0
  -29.1676   -2.2143   -5.8015 C   0  0  0  0  0  0  0  0  0  0  0  0
  -29.1165   -3.3246   -6.6610 C   0  0  0  0  0  0  0  0  0  0  0  0
  -28.3583   -3.1503   -7.8405 C   0  0  0  0  0  0  0  0  0  0  0  0
  -27.5465   -1.8802  -12.0046 C   0  0  0  0  0  0  0  0  0  0  0  0
  -28.0677   -1.8956  -10.6566 N   0  0  0  0  0  0  0  0  0  0  0  0
  -27.2110   -1.7815   -9.5793 C   0  0  0  0  0  0  0  0  0  0  0  0
  -26.0031   -1.6118   -9.7110 O   0  0  0  0  0  0  0  0  0  0  0  0
  -29.0614   -1.8090  -10.5244 H   0  0  0  0  0  0  0  0  0  0  0  0
  -28.7389    0.0191   -5.2055 O   0  0  0  0  0  0  0  0  0  0  0  0
  -29.8018    0.9437   -5.4255 C   0  0  0  0  0  0  0  0  0  0  0  0
  -30.9607   -4.4743   -5.3920 C   0  0  0  0  0  0  0  0  0  0  0  0
  -30.7326   -4.5678   -3.8316 C   0  0  0  0  0  0  0  0  0  0  0  0
  -31.4818   -3.5102   -3.0041 C   0  0  0  0  0  0  0  0  0  0  0  0
  -31.2434   -5.9572   -3.3835 C   0  0  0  0  0  0  0  0  0  0  0  0
  -29.3451   -4.5431   -3.4781 O   0  0  0  0  0  0  0  0  0  0  0  0
  -29.1726   -3.7701   -2.9139 H   0  0  0  0  0  0  0  0  0  0  0  0
 24 25  1  0  0  0
 25 26  1  0  0  0
 25 28  1  0  0  0
 26 27  2  0  0  0
 26 18  1  0  0  0
 18 19  1  0  0  0
 18 23  2  0  0  0
 19 20  2  0  0  0
 20 29  1  0  0  0
 20 21  1  0  0  0
 29 30  1  0  0  0
 21 22  2  0  0  0
 22  1  1  0  0  0
 22 23  1  0  0  0
  1 31  1  0  0  0
  1  2  1  0  0  0
 31 32  1  0  0  0
 32 33  1  0  0  0
 32 34  1  0  0  0
 32 35  1  0  0  0
 35 36  1  0  0  0
  2  3  1  0  0  0
  2 11  2  0  0  0
  3  4  2  0  0  0
  4  5  1  0  0  0
  5  6  1  0  0  0
  5 10  2  0  0  0
  6  7  2  0  0  0
  7  8  1  0  0  0
  8 12  1  0  0  0
  8  9  2  0  0  0
 12 13  1  0  0  0
 12 17  2  0  0  0
 13 14  2  0  0  0
 14 15  1  0  0  0
 15 16  1  0  0  0
 15 17  1  0  0  0
  9 10  1  0  0  0
 10 11  1  0  0  0
M  END
> <minimizedAffinity>
-8.86833

$$$$
