CHEMBL270306


 37 41  0  0  0  0  0  0  0  0999 V2000
  -29.9332   -7.6785   -7.5226 C   0  0  0  0  0  0  0  0  0  0  0  0
  -28.8875   -6.7770   -7.7112 C   0  0  0  0  0  0  0  0  0  0  0  0
  -28.7201   -5.6771   -6.8494 C   0  0  0  0  0  0  0  0  0  0  0  0
  -29.6012   -5.4430   -5.7845 C   0  0  0  0  0  0  0  0  0  0  0  0
  -30.6528   -6.3696   -5.6099 C   0  0  0  0  0  0  0  0  0  0  0  0
  -30.8291   -7.4574   -6.4778 C   0  0  0  0  0  0  0  0  0  0  0  0
  -31.5873   -6.3000   -4.6017 O   0  0  0  0  0  0  0  0  0  0  0  0
  -31.6826   -4.9952   -4.0367 C   0  0  0  0  0  0  0  0  0  0  0  0
  -30.3121   -4.4573   -3.6728 C   0  0  0  0  0  0  0  0  0  0  0  0
  -29.4817   -4.3192   -4.8793 N   0  0  0  0  0  0  0  0  0  0  0  0
  -28.7507   -3.1642   -5.1891 C   0  0  0  0  0  0  0  0  0  0  0  0
  -28.1664   -2.9653   -6.2510 O   0  0  0  0  0  0  0  0  0  0  0  0
  -28.7958   -2.1728   -4.2252 N   0  0  0  0  0  0  0  0  0  0  0  0
  -28.7826   -2.5002   -3.2750 H   0  0  0  0  0  0  0  0  0  0  0  0
  -28.1159   -0.8970   -4.4314 C   0  0  0  0  0  0  0  0  0  0  0  0
  -26.7341   -1.1082   -5.0568 C   0  0  0  0  0  0  0  0  0  0  0  0
  -28.9598    0.0252   -5.2943 C   0  0  0  0  0  0  0  0  0  0  0  0
  -30.2810    0.3117   -4.9219 C   0  0  0  0  0  0  0  0  0  0  0  0
  -31.0626    1.1813   -5.6842 C   0  0  0  0  0  0  0  0  0  0  0  0
  -30.5446    1.7640   -6.8376 C   0  0  0  0  0  0  0  0  0  0  0  0
  -29.2306    1.4798   -7.2246 C   0  0  0  0  0  0  0  0  0  0  0  0
  -28.4475    0.6192   -6.4579 C   0  0  0  0  0  0  0  0  0  0  0  0
  -30.0356   -8.7161   -8.4315 O   0  0  0  0  0  0  0  0  0  0  0  0
  -25.8691  -10.6033   -6.1970 C   0  0  0  0  0  0  0  0  0  0  0  0
  -25.7533  -10.7437   -7.5885 C   0  0  0  0  0  0  0  0  0  0  0  0
  -26.7459  -10.3419   -8.4664 C   0  0  0  0  0  0  0  0  0  0  0  0
  -26.4957  -10.4452   -9.7810 N   0  0  0  0  0  0  0  0  0  0  0  0
  -27.4368  -10.0193  -10.6455 C   0  0  0  0  0  0  0  0  0  0  0  0
  -28.6394   -9.4725  -10.2571 C   0  0  0  0  0  0  0  0  0  0  0  0
  -28.8767   -9.3250   -8.8916 C   0  0  0  0  0  0  0  0  0  0  0  0
  -27.9426   -9.8172   -7.9497 C   0  0  0  0  0  0  0  0  0  0  0  0
  -28.1182   -9.8019   -6.5475 C   0  0  0  0  0  0  0  0  0  0  0  0
  -27.0917  -10.1805   -5.6648 C   0  0  0  0  0  0  0  0  0  0  0  0
  -23.7380   -9.9466   -5.3999 C   0  0  0  0  0  0  0  0  0  0  0  0
  -24.8142  -10.8905   -5.3686 O   0  0  0  0  0  0  0  0  0  0  0  0
  -27.4672  -10.0563   -4.3557 O   0  0  0  0  0  0  0  0  0  0  0  0
  -28.3373   -9.0037   -3.9710 C   0  0  0  0  0  0  0  0  0  0  0  0
 34 35  1  0  0  0
 35 24  1  0  0  0
 24 25  1  0  0  0
 24 33  2  0  0  0
 25 26  2  0  0  0
 26 27  1  0  0  0
 26 31  1  0  0  0
 27 28  2  0  0  0
 28 29  1  0  0  0
 29 30  2  0  0  0
 30 23  1  0  0  0
 30 31  1  0  0  0
 23  1  1  0  0  0
  1  2  1  0  0  0
  1  6  2  0  0  0
  2  3  2  0  0  0
  3  4  1  0  0  0
  4  5  2  0  0  0
  4 10  1  0  0  0
  5  6  1  0  0  0
  5  7  1  0  0  0
  7  8  1  0  0  0
  8  9  1  0  0  0
  9 10  1  0  0  0
 10 11  1  0  0  0
 11 12  2  0  0  0
 11 13  1  0  0  0
 13 15  1  0  0  0
 13 14  1  0  0  0
 15 16  1  0  0  0
 15 17  1  0  0  0
 17 18  1  0  0  0
 17 22  2  0  0  0
 18 19  2  0  0  0
 19 20  1  0  0  0
 20 21  2  0  0  0
 21 22  1  0  0  0
 31 32  2  0  0  0
 32 33  1  0  0  0
 33 36  1  0  0  0
 36 37  1  0  0  0
M  END
> <minimizedAffinity>
-8.79549

$$$$
