CHEMBL1967211


 16 18  0  0  0  0  0  0  0  0999 V2000
  -23.5361    0.1510  -13.5538 C   0  0  0  0  0  0  0  0  0  0  0  0
  -24.1898   -0.6426  -14.6438 C   0  0  0  0  0  0  0  0  0  0  0  0
  -25.1897   -1.4651  -14.3036 C   0  0  0  0  0  0  0  0  0  0  0  0
  -25.5784   -1.5588  -12.9521 C   0  0  0  0  0  0  0  0  0  0  0  0
  -26.5108   -2.2786  -12.3644 N   0  0  0  0  0  0  0  0  0  0  0  0
  -26.4172   -1.9609  -11.0323 C   0  0  0  0  0  0  0  0  0  0  0  0
  -25.4191   -1.0410  -10.8117 C   0  0  0  0  0  0  0  0  0  0  0  0
  -24.8798   -0.7861  -12.0419 N   0  0  0  0  0  0  0  0  0  0  0  0
  -23.8538    0.0740  -12.2949 N   0  0  0  0  0  0  0  0  0  0  0  0
  -19.5606    3.7652  -14.9997 F   0  0  0  0  0  0  0  0  0  0  0  0
  -20.5093    2.8796  -14.6666 C   0  0  0  0  0  0  0  0  0  0  0  0
  -20.2351    1.5314  -14.8223 C   0  0  0  0  0  0  0  0  0  0  0  0
  -21.2177    0.6077  -14.4713 C   0  0  0  0  0  0  0  0  0  0  0  0
  -22.4373    1.0646  -13.9656 C   0  0  0  0  0  0  0  0  0  0  0  0
  -22.6214    2.4413  -13.8680 C   0  0  0  0  0  0  0  0  0  0  0  0
  -21.6794    3.3597  -14.1999 N   0  0  0  0  0  0  0  0  0  0  0  0
 10 11  1  0  0  0
 11 12  1  0  0  0
 11 16  2  0  0  0
 12 13  2  0  0  0
 13 14  1  0  0  0
 14  1  1  0  0  0
 14 15  2  0  0  0
  1  2  1  0  0  0
  1  9  2  0  0  0
  2  3  2  0  0  0
  3  4  1  0  0  0
  4  5  2  0  0  0
  4  8  1  0  0  0
  5  6  1  0  0  0
  6  7  2  0  0  0
  7  8  1  0  0  0
  8  9  1  0  0  0
 15 16  1  0  0  0
M  END
> <minimizedAffinity>
-7.86548

$$$$
