CHEMBL3950089


 33 36  0  0  0  0  0  0  0  0999 V2000
  -27.0579   -9.4322   -5.0118 C   0  0  0  0  0  0  0  0  0  0  0  0
  -27.8840   -9.9616   -5.9900 C   0  0  0  0  0  0  0  0  0  0  0  0
  -28.8629   -9.2411   -6.5949 N   0  0  0  0  0  0  0  0  0  0  0  0
  -28.9975   -7.9611   -6.1959 C   0  0  0  0  0  0  0  0  0  0  0  0
  -29.9748   -7.1514   -6.7552 C   0  0  0  0  0  0  0  0  0  0  0  0
  -30.1453   -5.8255   -6.3370 C   0  0  0  0  0  0  0  0  0  0  0  0
  -29.3366   -5.2602   -5.3384 C   0  0  0  0  0  0  0  0  0  0  0  0
  -28.3332   -6.0871   -4.8135 C   0  0  0  0  0  0  0  0  0  0  0  0
  -28.1583   -7.4102   -5.2033 C   0  0  0  0  0  0  0  0  0  0  0  0
  -27.1946   -8.1447   -4.6135 N   0  0  0  0  0  0  0  0  0  0  0  0
  -24.0590  -11.1314   -3.9677 N   0  0  0  0  0  0  0  0  0  0  0  0
  -24.7379  -10.3602   -4.8631 C   0  0  0  0  0  0  0  0  0  0  0  0
  -26.0157  -10.2030   -4.3607 C   0  0  0  0  0  0  0  0  0  0  0  0
  -25.9925  -10.9364   -3.1530 C   0  0  0  0  0  0  0  0  0  0  0  0
  -24.8058  -11.5011   -2.9102 N   0  0  0  0  0  0  0  0  0  0  0  0
  -21.9243  -11.3272   -2.7608 C   0  0  0  0  0  0  0  0  0  0  0  0
  -22.6735  -11.5472   -4.0627 C   0  0  0  0  0  0  0  0  0  0  0  0
  -29.5591   -3.9343   -4.8909 N   0  0  0  0  0  0  0  0  0  0  0  0
  -29.1218   -2.7540   -5.5533 C   0  0  0  0  0  0  0  0  0  0  0  0
  -28.2982   -2.8538   -6.6897 C   0  0  0  0  0  0  0  0  0  0  0  0
  -27.8466   -1.7217   -7.3719 C   0  0  0  0  0  0  0  0  0  0  0  0
  -28.2255   -0.4519   -6.9309 C   0  0  0  0  0  0  0  0  0  0  0  0
  -29.0528   -0.3166   -5.8196 C   0  0  0  0  0  0  0  0  0  0  0  0
  -29.4805   -1.4627   -5.1345 C   0  0  0  0  0  0  0  0  0  0  0  0
  -27.0462   -1.7222   -8.4825 O   0  0  0  0  0  0  0  0  0  0  0  0
  -27.7032   -1.7299   -9.7449 C   0  0  0  0  0  0  0  0  0  0  0  0
  -29.5181    0.8648   -5.3067 O   0  0  0  0  0  0  0  0  0  0  0  0
  -30.6809    1.4180   -5.9132 C   0  0  0  0  0  0  0  0  0  0  0  0
  -30.3449   -3.7481   -3.6426 C   0  0  0  0  0  0  0  0  0  0  0  0
  -31.6151   -4.6322   -3.5709 C   0  0  0  0  0  0  0  0  0  0  0  0
  -31.5031   -5.8042   -2.6962 N   0  0  0  0  0  0  0  0  0  0  0  0
  -30.8521   -6.4637   -3.1263 H   0  0  0  0  0  0  0  0  0  0  0  0
  -32.4012   -6.2831   -2.6516 H   0  0  0  0  0  0  0  0  0  0  0  0
 16 17  1  0  0  0
 17 11  1  0  0  0
 11 12  1  0  0  0
 11 15  1  0  0  0
 12 13  2  0  0  0
 13  1  1  0  0  0
 13 14  1  0  0  0
  1  2  1  0  0  0
  1 10  2  0  0  0
  2  3  2  0  0  0
  3  4  1  0  0  0
  4  5  1  0  0  0
  4  9  2  0  0  0
  5  6  2  0  0  0
  6  7  1  0  0  0
  7 18  1  0  0  0
  7  8  2  0  0  0
 18 29  1  0  0  0
 18 19  1  0  0  0
 29 30  1  0  0  0
 30 31  1  0  0  0
 31 32  1  0  0  0
 31 33  1  0  0  0
 19 20  1  0  0  0
 19 24  2  0  0  0
 20 21  2  0  0  0
 21 25  1  0  0  0
 21 22  1  0  0  0
 25 26  1  0  0  0
 22 23  2  0  0  0
 23 27  1  0  0  0
 23 24  1  0  0  0
 27 28  1  0  0  0
  8  9  1  0  0  0
  9 10  1  0  0  0
 14 15  2  0  0  0
M  END
> <minimizedAffinity>
-8.31962

$$$$
