CHEMBL1972362


 24 26  0  0  0  0  0  0  0  0999 V2000
  -17.4710    2.5139  -15.5167 C   0  0  0  0  0  0  0  0  0  0  0  0
  -17.2523    3.6942  -16.2400 C   0  0  0  0  0  0  0  0  0  0  0  0
  -16.0641    4.1364  -16.7024 N   0  0  0  0  0  0  0  0  0  0  0  0
  -14.9638    3.4077  -16.4404 C   0  0  0  0  0  0  0  0  0  0  0  0
  -15.0650    2.2232  -15.7107 C   0  0  0  0  0  0  0  0  0  0  0  0
  -13.7558    1.1975  -15.2648 S   0  0  0  0  0  0  0  0  0  0  0  0
  -14.7771    0.0866  -14.4801 C   0  0  0  0  0  0  0  0  0  0  0  0
  -16.0966    0.4742  -14.5886 C   0  0  0  0  0  0  0  0  0  0  0  0
  -16.2986    1.7415  -15.2520 C   0  0  0  0  0  0  0  0  0  0  0  0
  -21.3880    1.2710  -14.2028 C   0  0  0  0  0  0  0  0  0  0  0  0
  -20.5519    0.3661  -14.8529 C   0  0  0  0  0  0  0  0  0  0  0  0
  -19.2787    0.7780  -15.2682 C   0  0  0  0  0  0  0  0  0  0  0  0
  -18.8250    2.1009  -15.0786 C   0  0  0  0  0  0  0  0  0  0  0  0
  -19.7295    3.0001  -14.4823 C   0  0  0  0  0  0  0  0  0  0  0  0
  -20.9868    2.5916  -14.0221 C   0  0  0  0  0  0  0  0  0  0  0  0
  -22.6920   -0.2516  -12.2593 C   0  0  0  0  0  0  0  0  0  0  0  0
  -23.0096    0.7609  -13.6828 S   0  0  0  0  0  0  0  0  0  0  0  0
  -23.5516   -0.0869  -14.7274 O   0  0  0  0  0  0  0  0  0  0  0  0
  -23.7202    1.9445  -13.2389 O   0  0  0  0  0  0  0  0  0  0  0  0
  -14.2811   -1.0981  -13.8028 C   0  0  0  0  0  0  0  0  0  0  0  0
  -14.8530   -2.2934  -14.1410 N   0  0  0  0  0  0  0  0  0  0  0  0
  -13.3868   -1.0805  -12.9606 O   0  0  0  0  0  0  0  0  0  0  0  0
  -15.5839   -2.3588  -14.8346 H   0  0  0  0  0  0  0  0  0  0  0  0
  -14.5133   -3.1283  -13.6871 H   0  0  0  0  0  0  0  0  0  0  0  0
 16 17  1  0  0  0
 17 18  2  0  0  0
 17 19  2  0  0  0
 17 10  1  0  0  0
 10 11  1  0  0  0
 10 15  2  0  0  0
 11 12  2  0  0  0
 12 13  1  0  0  0
 13  1  1  0  0  0
 13 14  2  0  0  0
  1  2  1  0  0  0
  1  9  2  0  0  0
  2  3  2  0  0  0
  3  4  1  0  0  0
  4  5  2  0  0  0
  5  6  1  0  0  0
  5  9  1  0  0  0
  6  7  1  0  0  0
  7 20  1  0  0  0
  7  8  2  0  0  0
 20 21  1  0  0  0
 20 22  2  0  0  0
 21 23  1  0  0  0
 21 24  1  0  0  0
  8  9  1  0  0  0
 14 15  1  0  0  0
M  END
> <minimizedAffinity>
-7.70872

$$$$
