CHEMBL212880


 27 31  0  0  0  0  0  0  0  0999 V2000
  -22.7591    1.3643  -13.8777 C   0  0  0  0  0  0  0  0  0  0  0  0
  -23.1010    2.6728  -13.8033 N   0  0  0  0  0  0  0  0  0  0  0  0
  -21.9774    3.3447  -14.1620 N   0  0  0  0  0  0  0  0  0  0  0  0
  -20.9708    2.5055  -14.4610 C   0  0  0  0  0  0  0  0  0  0  0  0
  -21.4311    1.2294  -14.3027 C   0  0  0  0  0  0  0  0  0  0  0  0
  -20.4225    0.1839  -14.6357 C   0  0  0  0  0  0  0  0  0  0  0  0
  -19.2808    1.1384  -15.0351 C   0  0  0  0  0  0  0  0  0  0  0  0
  -18.0206    0.7732  -15.4785 C   0  0  0  0  0  0  0  0  0  0  0  0
  -17.1006    1.7882  -15.7974 C   0  0  0  0  0  0  0  0  0  0  0  0
  -17.4717    3.1497  -15.6592 C   0  0  0  0  0  0  0  0  0  0  0  0
  -18.7449    3.5225  -15.2144 C   0  0  0  0  0  0  0  0  0  0  0  0
  -19.6264    2.5105  -14.9158 C   0  0  0  0  0  0  0  0  0  0  0  0
  -21.9988    4.3587  -14.1774 H   0  0  0  0  0  0  0  0  0  0  0  0
  -26.3143   -1.9362  -11.5995 C   0  0  0  0  0  0  0  0  0  0  0  0
  -25.3519   -1.2893  -12.5317 C   0  0  0  0  0  0  0  0  0  0  0  0
  -25.0652   -1.6122  -13.8419 C   0  0  0  0  0  0  0  0  0  0  0  0
  -24.1268   -0.7091  -14.4264 C   0  0  0  0  0  0  0  0  0  0  0  0
  -23.7120    0.2612  -13.5372 C   0  0  0  0  0  0  0  0  0  0  0  0
  -24.4380    0.0548  -12.0046 S   0  0  0  0  0  0  0  0  0  0  0  0
  -15.7104    1.4246  -16.2856 C   0  0  0  0  0  0  0  0  0  0  0  0
  -14.6337    1.9208  -15.4142 N   0  0  0  0  0  0  0  0  0  0  0  0
  -14.4644    1.0956  -14.2030 C   0  0  0  0  0  0  0  0  0  0  0  0
  -13.3195    1.6305  -13.3115 C   0  0  0  0  0  0  0  0  0  0  0  0
  -12.0115    1.7493  -13.9862 N   0  0  0  0  0  0  0  0  0  0  0  0
  -11.3931    0.4427  -14.1907 C   0  0  0  0  0  0  0  0  0  0  0  0
  -12.1890    2.4788  -15.2580 C   0  0  0  0  0  0  0  0  0  0  0  0
  -13.3546    1.9806  -16.1487 C   0  0  0  0  0  0  0  0  0  0  0  0
 14 15  1  0  0  0
 15 16  2  0  0  0
 15 19  1  0  0  0
 16 17  1  0  0  0
 17 18  2  0  0  0
 18  1  1  0  0  0
 18 19  1  0  0  0
  1  2  2  0  0  0
  1  5  1  0  0  0
  2  3  1  0  0  0
  3  4  1  0  0  0
  3 13  1  0  0  0
  4  5  2  0  0  0
  4 12  1  0  0  0
  5  6  1  0  0  0
  6  7  1  0  0  0
  7  8  1  0  0  0
  7 12  2  0  0  0
  8  9  2  0  0  0
  9 20  1  0  0  0
  9 10  1  0  0  0
 20 21  1  0  0  0
 21 22  1  0  0  0
 21 27  1  0  0  0
 22 23  1  0  0  0
 23 24  1  0  0  0
 24 25  1  0  0  0
 24 26  1  0  0  0
 26 27  1  0  0  0
 10 11  2  0  0  0
 11 12  1  0  0  0
M  END
> <minimizedAffinity>
-9.44965

$$$$
