CHEMBL3893128


 38 42  0  0  0  0  0  0  0  0999 V2000
  -13.3022   -2.6554  -14.5873 C   0  0  0  0  0  0  0  0  0  0  0  0
  -13.3746   -1.4107  -15.2226 C   0  0  0  0  0  0  0  0  0  0  0  0
  -13.3260   -1.3122  -16.6342 C   0  0  0  0  0  0  0  0  0  0  0  0
  -13.4337   -0.1220  -17.3614 C   0  0  0  0  0  0  0  0  0  0  0  0
  -13.4187   -0.1048  -18.7101 N   0  0  0  0  0  0  0  0  0  0  0  0
  -13.2837   -1.2755  -19.3327 C   0  0  0  0  0  0  0  0  0  0  0  0
  -13.1804   -2.4640  -18.7397 N   0  0  0  0  0  0  0  0  0  0  0  0
  -13.2024   -2.4657  -17.4036 C   0  0  0  0  0  0  0  0  0  0  0  0
  -13.0933   -3.6816  -16.7581 C   0  0  0  0  0  0  0  0  0  0  0  0
  -13.0520   -3.7921  -15.3590 C   0  0  0  0  0  0  0  0  0  0  0  0
  -12.2835   -2.3995  -12.4777 C   0  0  0  0  0  0  0  0  0  0  0  0
  -13.4358   -2.7892  -13.2329 O   0  0  0  0  0  0  0  0  0  0  0  0
  -13.5988    1.1095  -16.6722 N   0  0  0  0  0  0  0  0  0  0  0  0
  -12.8842    1.7627  -16.9773 H   0  0  0  0  0  0  0  0  0  0  0  0
  -14.8598    1.7054  -16.4663 C   0  0  0  0  0  0  0  0  0  0  0  0
  -15.0332    3.0803  -16.6876 C   0  0  0  0  0  0  0  0  0  0  0  0
  -16.2369    3.7087  -16.3786 C   0  0  0  0  0  0  0  0  0  0  0  0
  -17.2914    2.9634  -15.8532 C   0  0  0  0  0  0  0  0  0  0  0  0
  -18.7311    3.8119  -15.4172 Cl  0  0  0  0  0  0  0  0  0  0  0  0
  -17.1473    1.5814  -15.6769 C   0  0  0  0  0  0  0  0  0  0  0  0
  -18.4161    0.5951  -15.0416 Cl  0  0  0  0  0  0  0  0  0  0  0  0
  -15.9374    0.9529  -15.9942 C   0  0  0  0  0  0  0  0  0  0  0  0
  -12.7522   -4.9784  -14.7141 O   0  0  0  0  0  0  0  0  0  0  0  0
  -13.8297   -5.9365  -14.7485 C   0  0  0  0  0  0  0  0  0  0  0  0
  -13.8043   -7.0060  -13.7210 C   0  0  0  0  0  0  0  0  0  0  0  0
  -14.2148   -6.9268  -12.3380 C   0  0  0  0  0  0  0  0  0  0  0  0
  -14.2326   -8.1646  -11.8137 N   0  0  0  0  0  0  0  0  0  0  0  0
  -13.7811   -9.0268  -12.7868 O   0  0  0  0  0  0  0  0  0  0  0  0
  -13.5346   -8.3402  -13.9263 C   0  0  0  0  0  0  0  0  0  0  0  0
  -13.1073   -9.1183  -15.1056 C   0  0  0  0  0  0  0  0  0  0  0  0
  -14.5599   -5.7478  -11.5054 C   0  0  0  0  0  0  0  0  0  0  0  0
  -15.7648   -5.0235  -11.6500 C   0  0  0  0  0  0  0  0  0  0  0  0
  -17.1531   -5.6026  -12.5056 Cl  0  0  0  0  0  0  0  0  0  0  0  0
  -15.9769   -3.8011  -10.9875 C   0  0  0  0  0  0  0  0  0  0  0  0
  -15.0568   -3.3293  -10.0648 C   0  0  0  0  0  0  0  0  0  0  0  0
  -13.9210   -4.0824   -9.8054 C   0  0  0  0  0  0  0  0  0  0  0  0
  -13.6570   -5.2604  -10.5286 C   0  0  0  0  0  0  0  0  0  0  0  0
  -12.1491   -6.0246  -10.1344 Cl  0  0  0  0  0  0  0  0  0  0  0  0
 11 12  1  0  0  0
 12  1  1  0  0  0
  1  2  1  0  0  0
  1 10  2  0  0  0
  2  3  2  0  0  0
  3  4  1  0  0  0
  3  8  1  0  0  0
  4 13  1  0  0  0
  4  5  2  0  0  0
 13 15  1  0  0  0
 13 14  1  0  0  0
 15 16  1  0  0  0
 15 22  2  0  0  0
 16 17  2  0  0  0
 17 18  1  0  0  0
 18 19  1  0  0  0
 18 20  2  0  0  0
 20 21  1  0  0  0
 20 22  1  0  0  0
  5  6  1  0  0  0
  6  7  2  0  0  0
  7  8  1  0  0  0
  8  9  2  0  0  0
  9 10  1  0  0  0
 10 23  1  0  0  0
 23 24  1  0  0  0
 24 25  1  0  0  0
 25 26  1  0  0  0
 25 29  2  0  0  0
 26 31  1  0  0  0
 26 27  2  0  0  0
 31 32  1  0  0  0
 31 37  2  0  0  0
 32 33  1  0  0  0
 32 34  2  0  0  0
 34 35  1  0  0  0
 35 36  2  0  0  0
 36 37  1  0  0  0
 37 38  1  0  0  0
 27 28  1  0  0  0
 28 29  1  0  0  0
 29 30  1  0  0  0
M  END
> <minimizedAffinity>
-8.00392

$$$$
