CHEMBL4175295


 33 37  0  0  0  0  0  0  0  0999 V2000
  -13.4217   -1.1379  -13.3555 C   0  0  0  0  0  0  0  0  0  0  0  0
  -12.6535   -0.5871  -14.3870 C   0  0  0  0  0  0  0  0  0  0  0  0
  -13.1947    0.3463  -15.2842 C   0  0  0  0  0  0  0  0  0  0  0  0
  -14.5369    0.7023  -15.0929 C   0  0  0  0  0  0  0  0  0  0  0  0
  -15.3287    0.1138  -14.1177 C   0  0  0  0  0  0  0  0  0  0  0  0
  -14.7843   -0.8382  -13.2539 C   0  0  0  0  0  0  0  0  0  0  0  0
  -16.6000    0.5908  -14.1645 N   0  0  0  0  0  0  0  0  0  0  0  0
  -16.6394    1.4770  -15.1336 C   0  0  0  0  0  0  0  0  0  0  0  0
  -15.3850    1.6055  -15.7033 N   0  0  0  0  0  0  0  0  0  0  0  0
  -14.9844    2.4760  -16.7810 C   0  0  0  0  0  0  0  0  0  0  0  0
  -17.7161    2.1822  -15.5625 N   0  0  0  0  0  0  0  0  0  0  0  0
  -17.6379    2.8081  -16.3502 H   0  0  0  0  0  0  0  0  0  0  0  0
  -19.0561    1.9811  -15.1540 C   0  0  0  0  0  0  0  0  0  0  0  0
  -19.8751    2.9956  -14.6396 C   0  0  0  0  0  0  0  0  0  0  0  0
  -21.1635    2.7303  -14.1639 C   0  0  0  0  0  0  0  0  0  0  0  0
  -21.6806    1.4338  -14.2019 C   0  0  0  0  0  0  0  0  0  0  0  0
  -20.8998    0.4210  -14.7763 C   0  0  0  0  0  0  0  0  0  0  0  0
  -19.6099    0.6954  -15.2516 C   0  0  0  0  0  0  0  0  0  0  0  0
  -23.0330    1.1202  -13.6144 C   0  0  0  0  0  0  0  0  0  0  0  0
  -22.9763    0.4040  -12.4565 F   0  0  0  0  0  0  0  0  0  0  0  0
  -23.7541    2.2391  -13.3267 F   0  0  0  0  0  0  0  0  0  0  0  0
  -23.8067    0.3871  -14.4640 F   0  0  0  0  0  0  0  0  0  0  0  0
  -12.7810   -2.0169  -12.5069 O   0  0  0  0  0  0  0  0  0  0  0  0
  -15.1352   -7.4817  -13.3035 C   0  0  0  0  0  0  0  0  0  0  0  0
  -14.4255   -6.2280  -13.3554 N   0  0  0  0  0  0  0  0  0  0  0  0
  -13.6873   -5.9030  -14.4424 N   0  0  0  0  0  0  0  0  0  0  0  0
  -13.2174   -4.6864  -14.1422 C   0  0  0  0  0  0  0  0  0  0  0  0
  -13.6377   -4.2406  -12.8762 C   0  0  0  0  0  0  0  0  0  0  0  0
  -13.5040   -3.1199  -12.0683 C   0  0  0  0  0  0  0  0  0  0  0  0
  -14.0800   -3.1164  -10.8385 N   0  0  0  0  0  0  0  0  0  0  0  0
  -14.8323   -4.1780  -10.4901 C   0  0  0  0  0  0  0  0  0  0  0  0
  -15.0623   -5.2960  -11.1999 N   0  0  0  0  0  0  0  0  0  0  0  0
  -14.4231   -5.2665  -12.3829 C   0  0  0  0  0  0  0  0  0  0  0  0
 24 25  1  0  0  0
 25 26  1  0  0  0
 25 33  1  0  0  0
 26 27  2  0  0  0
 27 28  1  0  0  0
 28 29  1  0  0  0
 28 33  2  0  0  0
 29 23  1  0  0  0
 29 30  2  0  0  0
 23  1  1  0  0  0
  1  2  1  0  0  0
  1  6  2  0  0  0
  2  3  2  0  0  0
  3  4  1  0  0  0
  4  5  2  0  0  0
  4  9  1  0  0  0
  5  6  1  0  0  0
  5  7  1  0  0  0
  7  8  2  0  0  0
  8 11  1  0  0  0
  8  9  1  0  0  0
 11 13  1  0  0  0
 11 12  1  0  0  0
 13 14  1  0  0  0
 13 18  2  0  0  0
 14 15  2  0  0  0
 15 16  1  0  0  0
 16 19  1  0  0  0
 16 17  2  0  0  0
 19 20  1  0  0  0
 19 21  1  0  0  0
 19 22  1  0  0  0
 17 18  1  0  0  0
  9 10  1  0  0  0
 30 31  1  0  0  0
 31 32  2  0  0  0
 32 33  1  0  0  0
M  END
> <minimizedAffinity>
-9.43193

$$$$
