CHEMBL3953206


 36 41  0  0  0  0  0  0  0  0999 V2000
  -16.9698    1.8414  -15.4167 N   0  0  0  0  0  0  0  0  0  0  0  0
  -18.4082    1.7194  -15.4822 C   0  0  0  0  0  0  0  0  0  0  0  0
  -19.0820    2.9282  -15.6472 C   0  0  0  0  0  0  0  0  0  0  0  0
  -20.3343    3.1052  -15.1116 C   0  0  0  0  0  0  0  0  0  0  0  0
  -21.0352    2.0667  -14.5853 C   0  0  0  0  0  0  0  0  0  0  0  0
  -22.1285    2.4201  -13.9097 N   0  0  0  0  0  0  0  0  0  0  0  0
  -22.9795    1.4380  -13.6118 C   0  0  0  0  0  0  0  0  0  0  0  0
  -22.8070    0.1522  -14.0786 C   0  0  0  0  0  0  0  0  0  0  0  0
  -21.6094   -0.2513  -14.6318 N   0  0  0  0  0  0  0  0  0  0  0  0
  -20.6306    0.7281  -14.8255 C   0  0  0  0  0  0  0  0  0  0  0  0
  -19.2281    0.5889  -15.1906 C   0  0  0  0  0  0  0  0  0  0  0  0
  -24.0349   -0.6378  -14.1516 C   0  0  0  0  0  0  0  0  0  0  0  0
  -24.8696   -0.8934  -15.2740 C   0  0  0  0  0  0  0  0  0  0  0  0
  -26.0704   -1.3809  -14.9344 N   0  0  0  0  0  0  0  0  0  0  0  0
  -26.0200   -1.4290  -13.5932 N   0  0  0  0  0  0  0  0  0  0  0  0
  -27.0450   -2.1157  -12.8423 C   0  0  0  0  0  0  0  0  0  0  0  0
  -24.8895   -0.8538  -13.0808 C   0  0  0  0  0  0  0  0  0  0  0  0
  -13.6623    0.0910  -14.8331 C   0  0  0  0  0  0  0  0  0  0  0  0
  -14.0674   -0.9288  -13.9948 C   0  0  0  0  0  0  0  0  0  0  0  0
  -15.3253   -0.8844  -13.4069 C   0  0  0  0  0  0  0  0  0  0  0  0
  -16.2993    0.0072  -13.9029 C   0  0  0  0  0  0  0  0  0  0  0  0
  -15.9765    1.0004  -14.8371 C   0  0  0  0  0  0  0  0  0  0  0  0
  -14.6089    1.0507  -15.2289 C   0  0  0  0  0  0  0  0  0  0  0  0
  -15.6623   -1.8132  -12.2968 C   0  0  0  0  0  0  0  0  0  0  0  0
  -15.7930   -1.3280  -11.1697 O   0  0  0  0  0  0  0  0  0  0  0  0
  -15.8381   -3.1730  -12.5334 N   0  0  0  0  0  0  0  0  0  0  0  0
  -15.5744   -4.0014  -13.7073 C   0  0  0  0  0  0  0  0  0  0  0  0
  -16.7684   -4.9445  -13.6777 C   0  0  0  0  0  0  0  0  0  0  0  0
  -16.8607   -5.2834  -12.1921 C   0  0  0  0  0  0  0  0  0  0  0  0
  -16.3887   -4.0103  -11.4827 C   0  0  0  0  0  0  0  0  0  0  0  0
  -12.0284    1.5215  -15.8160 C   0  0  0  0  0  0  0  0  0  0  0  0
  -12.3852    0.2269  -15.3192 O   0  0  0  0  0  0  0  0  0  0  0  0
  -16.6012    3.2905  -15.6221 C   0  0  0  0  0  0  0  0  0  0  0  0
  -16.1563    3.8007  -16.9859 C   0  0  0  0  0  0  0  0  0  0  0  0
  -14.8104    3.5377  -17.6467 C   0  0  0  0  0  0  0  0  0  0  0  0
  -15.1961    4.9354  -17.2582 C   0  0  0  0  0  0  0  0  0  0  0  0
 31 32  1  0  0  0
 32 18  1  0  0  0
 18 19  1  0  0  0
 18 23  2  0  0  0
 19 20  2  0  0  0
 20 24  1  0  0  0
 20 21  1  0  0  0
 24 25  2  0  0  0
 24 26  1  0  0  0
 26 27  1  0  0  0
 26 30  1  0  0  0
 27 28  1  0  0  0
 28 29  1  0  0  0
 29 30  1  0  0  0
 21 22  2  0  0  0
 22  1  1  0  0  0
 22 23  1  0  0  0
  1 33  1  0  0  0
  1  2  1  0  0  0
 33 34  1  0  0  0
 34 35  1  0  0  0
 34 36  1  0  0  0
 35 36  1  0  0  0
  2  3  1  0  0  0
  2 11  2  0  0  0
  3  4  2  0  0  0
  4  5  1  0  0  0
  5  6  1  0  0  0
  5 10  2  0  0  0
  6  7  2  0  0  0
  7  8  1  0  0  0
  8 12  1  0  0  0
  8  9  2  0  0  0
 12 13  1  0  0  0
 12 17  2  0  0  0
 13 14  2  0  0  0
 14 15  1  0  0  0
 15 16  1  0  0  0
 15 17  1  0  0  0
  9 10  1  0  0  0
 10 11  1  0  0  0
M  END
> <minimizedAffinity>
-10.11473

$$$$
