CHEMBL2105709


 42 47  0  0  0  0  0  0  0  0999 V2000
  -16.3651    1.5984  -15.2958 C   0  0  0  0  0  0  0  0  0  0  0  0
  -15.6220    0.8226  -14.3616 C   0  0  0  0  0  0  0  0  0  0  0  0
  -14.4434    0.1458  -14.7403 C   0  0  0  0  0  0  0  0  0  0  0  0
  -13.9650    0.2151  -16.0572 C   0  0  0  0  0  0  0  0  0  0  0  0
  -14.7104    0.9713  -16.9877 C   0  0  0  0  0  0  0  0  0  0  0  0
  -15.8768    1.6481  -16.6128 C   0  0  0  0  0  0  0  0  0  0  0  0
  -12.8704   -0.6745  -16.5593 C   0  0  0  0  0  0  0  0  0  0  0  0
  -11.8320   -1.2930  -15.8057 C   0  0  0  0  0  0  0  0  0  0  0  0
  -11.6763   -2.4936  -16.4005 N   0  0  0  0  0  0  0  0  0  0  0  0
  -12.3704   -2.4575  -17.5308 C   0  0  0  0  0  0  0  0  0  0  0  0
  -13.1078   -1.3715  -17.6892 N   0  0  0  0  0  0  0  0  0  0  0  0
  -12.5568   -3.8951  -18.3345 S   0  0  0  0  0  0  0  0  0  0  0  0
  -11.7916   -4.6287  -17.0200 C   0  0  0  0  0  0  0  0  0  0  0  0
  -11.9506   -5.9451  -16.7801 C   0  0  0  0  0  0  0  0  0  0  0  0
  -11.6447   -6.4983  -15.5204 C   0  0  0  0  0  0  0  0  0  0  0  0
  -10.8992   -5.6730  -14.6073 C   0  0  0  0  0  0  0  0  0  0  0  0
  -10.6999   -4.2734  -14.8923 C   0  0  0  0  0  0  0  0  0  0  0  0
  -11.2727   -3.7588  -16.0806 C   0  0  0  0  0  0  0  0  0  0  0  0
  -12.1954   -7.7416  -15.2011 O   0  0  0  0  0  0  0  0  0  0  0  0
  -13.1058   -7.7974  -14.1153 C   0  0  0  0  0  0  0  0  0  0  0  0
  -14.2883   -6.8343  -13.8678 C   0  0  0  0  0  0  0  0  0  0  0  0
  -14.1379   -5.7827  -12.8448 N   0  0  0  0  0  0  0  0  0  0  0  0
  -15.0957   -5.8295  -11.7228 C   0  0  0  0  0  0  0  0  0  0  0  0
  -16.4889   -5.3022  -12.1150 C   0  0  0  0  0  0  0  0  0  0  0  0
  -16.4056   -3.9834  -12.6171 O   0  0  0  0  0  0  0  0  0  0  0  0
  -15.6201   -3.9808  -13.7907 C   0  0  0  0  0  0  0  0  0  0  0  0
  -14.1748   -4.4382  -13.4745 C   0  0  0  0  0  0  0  0  0  0  0  0
  -19.8765    2.6395  -14.3927 N   0  0  0  0  0  0  0  0  0  0  0  0
  -18.8283    1.8102  -14.7268 C   0  0  0  0  0  0  0  0  0  0  0  0
  -19.0139    0.6098  -14.7784 O   0  0  0  0  0  0  0  0  0  0  0  0
  -17.5824    2.3316  -14.9936 N   0  0  0  0  0  0  0  0  0  0  0  0
  -19.7189    3.6589  -14.3492 H   0  0  0  0  0  0  0  0  0  0  0  0
  -17.4978    3.3594  -14.9490 H   0  0  0  0  0  0  0  0  0  0  0  0
  -22.8844    0.8510  -13.6099 C   0  0  0  0  0  0  0  0  0  0  0  0
  -21.4949    0.8396  -13.7322 C   0  0  0  0  0  0  0  0  0  0  0  0
  -21.1798    2.1418  -14.0787 C   0  0  0  0  0  0  0  0  0  0  0  0
  -22.3111    2.8549  -14.1260 N   0  0  0  0  0  0  0  0  0  0  0  0
  -23.2969    2.0690  -13.8409 O   0  0  0  0  0  0  0  0  0  0  0  0
  -24.5387   -0.7928  -14.5509 C   0  0  0  0  0  0  0  0  0  0  0  0
  -23.7922   -0.3276  -13.2848 C   0  0  0  0  0  0  0  0  0  0  0  0
  -24.8197    0.0752  -12.2126 C   0  0  0  0  0  0  0  0  0  0  0  0
  -22.9492   -1.5014  -12.7267 C   0  0  0  0  0  0  0  0  0  0  0  0
 39 40  1  0  0  0
 40 41  1  0  0  0
 40 42  1  0  0  0
 40 34  1  0  0  0
 34 35  2  0  0  0
 34 38  1  0  0  0
 35 36  1  0  0  0
 36 28  1  0  0  0
 36 37  2  0  0  0
 28 29  1  0  0  0
 28 32  1  0  0  0
 29 30  2  0  0  0
 29 31  1  0  0  0
 31  1  1  0  0  0
 31 33  1  0  0  0
  1  2  1  0  0  0
  1  6  2  0  0  0
  2  3  2  0  0  0
  3  4  1  0  0  0
  4  7  1  0  0  0
  4  5  2  0  0  0
  7  8  2  0  0  0
  7 11  1  0  0  0
  8  9  1  0  0  0
  9 10  1  0  0  0
  9 18  1  0  0  0
 10 11  2  0  0  0
 10 12  1  0  0  0
 12 13  1  0  0  0
 13 14  1  0  0  0
 13 18  2  0  0  0
 14 15  2  0  0  0
 15 19  1  0  0  0
 15 16  1  0  0  0
 19 20  1  0  0  0
 20 21  1  0  0  0
 21 22  1  0  0  0
 22 23  1  0  0  0
 22 27  1  0  0  0
 23 24  1  0  0  0
 24 25  1  0  0  0
 25 26  1  0  0  0
 26 27  1  0  0  0
 16 17  2  0  0  0
 17 18  1  0  0  0
  5  6  1  0  0  0
 37 38  1  0  0  0
M  END
> <minimizedAffinity>
-8.32103

$$$$
