CHEMBL205283


 26 29  0  0  0  0  0  0  0  0999 V2000
  -30.2002  -10.1932   -7.4614 C   0  0  0  0  0  0  0  0  0  0  0  0
  -29.1026  -10.5808   -6.7087 C   0  0  0  0  0  0  0  0  0  0  0  0
  -28.8130   -9.5975   -5.8141 N   0  0  0  0  0  0  0  0  0  0  0  0
  -27.8064   -9.6357   -4.9246 N   0  0  0  0  0  0  0  0  0  0  0  0
  -27.7263   -8.5924   -4.1603 C   0  0  0  0  0  0  0  0  0  0  0  0
  -28.5580   -7.5059   -4.1692 N   0  0  0  0  0  0  0  0  0  0  0  0
  -29.5261   -7.5098   -5.0240 C   0  0  0  0  0  0  0  0  0  0  0  0
  -29.7072   -8.5782   -5.9454 C   0  0  0  0  0  0  0  0  0  0  0  0
  -30.5964   -8.8963   -6.9649 C   0  0  0  0  0  0  0  0  0  0  0  0
  -31.7531   -8.1054   -7.4760 C   0  0  0  0  0  0  0  0  0  0  0  0
  -30.8053  -10.9862   -8.5313 C   0  0  0  0  0  0  0  0  0  0  0  0
  -31.9766  -11.3373   -8.5299 O   0  0  0  0  0  0  0  0  0  0  0  0
  -29.4221  -10.1493  -10.2376 C   0  0  0  0  0  0  0  0  0  0  0  0
  -29.9126  -11.2818   -9.5223 O   0  0  0  0  0  0  0  0  0  0  0  0
  -30.4931   -6.5226   -5.1156 O   0  0  0  0  0  0  0  0  0  0  0  0
  -30.0977   -5.2359   -5.5412 C   0  0  0  0  0  0  0  0  0  0  0  0
  -29.6871   -5.0072   -6.8557 C   0  0  0  0  0  0  0  0  0  0  0  0
  -29.2509   -3.7455   -7.2553 C   0  0  0  0  0  0  0  0  0  0  0  0
  -29.2000   -2.7441   -6.2814 C   0  0  0  0  0  0  0  0  0  0  0  0
  -28.8019   -1.4322   -6.3906 N   0  0  0  0  0  0  0  0  0  0  0  0
  -28.8855   -0.8014   -5.1757 C   0  0  0  0  0  0  0  0  0  0  0  0
  -28.5017    0.6205   -5.0020 C   0  0  0  0  0  0  0  0  0  0  0  0
  -29.3617   -1.7260   -4.2670 C   0  0  0  0  0  0  0  0  0  0  0  0
  -29.5687   -2.9565   -4.9525 C   0  0  0  0  0  0  0  0  0  0  0  0
  -30.0272   -4.2333   -4.5678 C   0  0  0  0  0  0  0  0  0  0  0  0
  -28.4825   -1.0061   -7.2496 H   0  0  0  0  0  0  0  0  0  0  0  0
 13 14  1  0  0  0
 14 11  1  0  0  0
 11 12  2  0  0  0
 11  1  1  0  0  0
  1  2  2  0  0  0
  1  9  1  0  0  0
  2  3  1  0  0  0
  3  4  1  0  0  0
  3  8  1  0  0  0
  4  5  2  0  0  0
  5  6  1  0  0  0
  6  7  2  0  0  0
  7 15  1  0  0  0
  7  8  1  0  0  0
 15 16  1  0  0  0
 16 17  1  0  0  0
 16 25  2  0  0  0
 17 18  2  0  0  0
 18 19  1  0  0  0
 19 20  1  0  0  0
 19 24  2  0  0  0
 20 21  1  0  0  0
 20 26  1  0  0  0
 21 22  1  0  0  0
 21 23  2  0  0  0
 23 24  1  0  0  0
 24 25  1  0  0  0
  8  9  2  0  0  0
  9 10  1  0  0  0
M  END
> <minimizedAffinity>
-7.69798

$$$$
