CHEMBL47173


 22 25  0  0  0  0  0  0  0  0999 V2000
  -23.4419    2.2659  -13.6702 O   0  0  0  0  0  0  0  0  0  0  0  0
  -22.2908    2.1788  -14.0518 C   0  0  0  0  0  0  0  0  0  0  0  0
  -21.4523    3.2398  -14.3424 N   0  0  0  0  0  0  0  0  0  0  0  0
  -20.1977    2.8006  -14.7515 C   0  0  0  0  0  0  0  0  0  0  0  0
  -19.1437    3.6081  -15.1324 C   0  0  0  0  0  0  0  0  0  0  0  0
  -17.9708    2.9725  -15.5409 C   0  0  0  0  0  0  0  0  0  0  0  0
  -17.8878    1.5695  -15.5579 C   0  0  0  0  0  0  0  0  0  0  0  0
  -18.9730    0.7706  -15.1583 C   0  0  0  0  0  0  0  0  0  0  0  0
  -20.1338    1.4009  -14.7473 C   0  0  0  0  0  0  0  0  0  0  0  0
  -21.4597    0.9406  -14.2942 C   0  0  0  0  0  0  0  0  0  0  0  0
  -21.8621   -0.3294  -14.1329 C   0  0  0  0  0  0  0  0  0  0  0  0
  -21.7510    4.1966  -14.2713 H   0  0  0  0  0  0  0  0  0  0  0  0
  -23.1871   -0.6738  -13.7436 C   0  0  0  0  0  0  0  0  0  0  0  0
  -24.2751   -0.9984  -14.5296 C   0  0  0  0  0  0  0  0  0  0  0  0
  -25.4507   -1.2543  -13.7641 C   0  0  0  0  0  0  0  0  0  0  0  0
  -25.2410   -1.1527  -12.4008 C   0  0  0  0  0  0  0  0  0  0  0  0
  -23.6148   -0.7047  -12.0770 S   0  0  0  0  0  0  0  0  0  0  0  0
  -26.2064   -1.3871  -11.3471 C   0  0  0  0  0  0  0  0  0  0  0  0
  -25.9723   -1.5677   -9.9941 C   0  0  0  0  0  0  0  0  0  0  0  0
  -27.1623   -1.8464   -9.2558 C   0  0  0  0  0  0  0  0  0  0  0  0
  -28.2779   -1.8484  -10.0601 C   0  0  0  0  0  0  0  0  0  0  0  0
  -27.8914   -1.5025  -11.6863 S   0  0  0  0  0  0  0  0  0  0  0  0
  1  2  2  0  0  0
  2  3  1  0  0  0
  2 10  1  0  0  0
  3  4  1  0  0  0
  3 12  1  0  0  0
  4  5  1  0  0  0
  4  9  2  0  0  0
  5  6  2  0  0  0
  6  7  1  0  0  0
  7  8  2  0  0  0
  8  9  1  0  0  0
  9 10  1  0  0  0
 10 11  2  0  0  0
 11 13  1  0  0  0
 13 14  2  0  0  0
 13 17  1  0  0  0
 14 15  1  0  0  0
 15 16  2  0  0  0
 16 18  1  0  0  0
 16 17  1  0  0  0
 18 19  2  0  0  0
 18 22  1  0  0  0
 19 20  1  0  0  0
 20 21  2  0  0  0
 21 22  1  0  0  0
M  END
> <minimizedAffinity>
-8.63852

$$$$
