CHEMBL4452405


 25 28  0  0  0  0  0  0  0  0999 V2000
  -25.7192   -2.3506  -12.6558 C   0  0  0  0  0  0  0  0  0  0  0  0
  -24.6087   -1.4149  -13.0623 C   0  0  0  0  0  0  0  0  0  0  0  0
  -24.5495   -0.9046  -14.3628 C   0  0  0  0  0  0  0  0  0  0  0  0
  -23.5337   -0.0148  -14.7304 C   0  0  0  0  0  0  0  0  0  0  0  0
  -22.5542    0.4086  -13.8148 C   0  0  0  0  0  0  0  0  0  0  0  0
  -22.6327   -0.1063  -12.5099 C   0  0  0  0  0  0  0  0  0  0  0  0
  -23.6422   -1.0052  -12.1389 C   0  0  0  0  0  0  0  0  0  0  0  0
  -21.4949    1.3534  -14.2128 C   0  0  0  0  0  0  0  0  0  0  0  0
  -21.6275    2.7317  -14.1144 C   0  0  0  0  0  0  0  0  0  0  0  0
  -20.6932    3.6331  -14.4918 N   0  0  0  0  0  0  0  0  0  0  0  0
  -19.5601    3.1173  -14.9844 C   0  0  0  0  0  0  0  0  0  0  0  0
  -19.2893    1.8132  -15.1236 N   0  0  0  0  0  0  0  0  0  0  0  0
  -20.2696    0.9657  -14.7336 C   0  0  0  0  0  0  0  0  0  0  0  0
  -27.4964   -1.6516   -9.6316 C   0  0  0  0  0  0  0  0  0  0  0  0
  -26.4247   -2.2748  -10.2323 C   0  0  0  0  0  0  0  0  0  0  0  0
  -26.4837   -1.8510  -11.5270 N   0  0  0  0  0  0  0  0  0  0  0  0
  -27.5022   -0.9908  -11.7155 N   0  0  0  0  0  0  0  0  0  0  0  0
  -28.1361   -0.8660  -10.5555 N   0  0  0  0  0  0  0  0  0  0  0  0
  -29.4255   -2.3430   -4.2409 C   0  0  0  0  0  0  0  0  0  0  0  0
  -28.9008   -2.1791   -5.6367 C   0  0  0  0  0  0  0  0  0  0  0  0
  -28.9392   -3.2419   -6.5437 C   0  0  0  0  0  0  0  0  0  0  0  0
  -28.4634   -3.0773   -7.8483 C   0  0  0  0  0  0  0  0  0  0  0  0
  -27.9419   -1.8482   -8.2676 C   0  0  0  0  0  0  0  0  0  0  0  0
  -27.8877   -0.7892   -7.3528 C   0  0  0  0  0  0  0  0  0  0  0  0
  -28.3701   -0.9511   -6.0495 C   0  0  0  0  0  0  0  0  0  0  0  0
 19 20  1  0  0  0
 20 21  1  0  0  0
 20 25  2  0  0  0
 21 22  2  0  0  0
 22 23  1  0  0  0
 23 14  1  0  0  0
 23 24  2  0  0  0
 14 15  2  0  0  0
 14 18  1  0  0  0
 15 16  1  0  0  0
 16  1  1  0  0  0
 16 17  1  0  0  0
  1  2  1  0  0  0
  2  3  1  0  0  0
  2  7  2  0  0  0
  3  4  2  0  0  0
  4  5  1  0  0  0
  5  8  1  0  0  0
  5  6  2  0  0  0
  8  9  1  0  0  0
  8 13  2  0  0  0
  9 10  2  0  0  0
 10 11  1  0  0  0
 11 12  2  0  0  0
 12 13  1  0  0  0
  6  7  1  0  0  0
 17 18  2  0  0  0
 24 25  1  0  0  0
M  END
> <minimizedAffinity>
-9.60546

$$$$
