CHEMBL401857


 38 42  0  0  0  0  0  0  0  0999 V2000
  -14.2095   -3.4571  -13.9868 C   0  0  0  0  0  0  0  0  0  0  0  0
  -13.7197   -4.7303  -14.4589 C   0  0  0  0  0  0  0  0  0  0  0  0
  -12.8785   -4.4984  -15.5203 C   0  0  0  0  0  0  0  0  0  0  0  0
  -12.8560   -3.1555  -15.7560 N   0  0  0  0  0  0  0  0  0  0  0  0
  -12.1343   -2.5741  -16.7229 N   0  0  0  0  0  0  0  0  0  0  0  0
  -12.2468   -1.2854  -16.7596 C   0  0  0  0  0  0  0  0  0  0  0  0
  -13.0164   -0.5191  -15.9334 N   0  0  0  0  0  0  0  0  0  0  0  0
  -13.7342   -1.0692  -14.9944 C   0  0  0  0  0  0  0  0  0  0  0  0
  -13.6683   -2.5063  -14.8625 C   0  0  0  0  0  0  0  0  0  0  0  0
  -14.0074   -6.1035  -13.9309 C   0  0  0  0  0  0  0  0  0  0  0  0
  -15.1552   -6.7376  -14.0999 N   0  0  0  0  0  0  0  0  0  0  0  0
  -15.0646   -7.9399  -13.4419 N   0  0  0  0  0  0  0  0  0  0  0  0
  -13.8628   -7.9707  -12.9124 C   0  0  0  0  0  0  0  0  0  0  0  0
  -13.1218   -6.8546  -13.1944 O   0  0  0  0  0  0  0  0  0  0  0  0
  -13.2738   -8.9947  -12.0104 C   0  0  0  0  0  0  0  0  0  0  0  0
  -12.1776   -9.7448  -12.6294 N   0  0  0  0  0  0  0  0  0  0  0  0
  -12.5386  -10.2307  -13.4515 H   0  0  0  0  0  0  0  0  0  0  0  0
  -11.8747  -10.4715  -11.9833 H   0  0  0  0  0  0  0  0  0  0  0  0
  -16.4804   -3.9508  -12.9114 C   0  0  0  0  0  0  0  0  0  0  0  0
  -15.1137   -3.2806  -12.7852 C   0  0  0  0  0  0  0  0  0  0  0  0
  -14.3967   -3.5787  -11.4720 C   0  0  0  0  0  0  0  0  0  0  0  0
  -14.5117   -0.2653  -14.1890 N   0  0  0  0  0  0  0  0  0  0  0  0
  -14.7117   -0.6383  -13.2696 H   0  0  0  0  0  0  0  0  0  0  0  0
  -15.5134    0.6015  -14.6736 C   0  0  0  0  0  0  0  0  0  0  0  0
  -16.8488    0.1874  -14.7626 C   0  0  0  0  0  0  0  0  0  0  0  0
  -17.8572    1.0546  -15.2036 C   0  0  0  0  0  0  0  0  0  0  0  0
  -17.5043    2.3460  -15.5966 C   0  0  0  0  0  0  0  0  0  0  0  0
  -18.4324    3.2155  -16.0239 F   0  0  0  0  0  0  0  0  0  0  0  0
  -16.1780    2.7715  -15.5534 C   0  0  0  0  0  0  0  0  0  0  0  0
  -15.1975    1.8974  -15.0948 C   0  0  0  0  0  0  0  0  0  0  0  0
  -13.9241    2.3157  -15.0392 F   0  0  0  0  0  0  0  0  0  0  0  0
  -19.2511    0.5366  -15.1984 C   0  0  0  0  0  0  0  0  0  0  0  0
  -19.4803   -0.5866  -15.6395 O   0  0  0  0  0  0  0  0  0  0  0  0
  -20.2355    1.3485  -14.6779 N   0  0  0  0  0  0  0  0  0  0  0  0
  -19.9932    2.2577  -14.2964 H   0  0  0  0  0  0  0  0  0  0  0  0
  -21.5934    0.9153  -14.6054 C   0  0  0  0  0  0  0  0  0  0  0  0
  -22.5767    1.6430  -13.7318 C   0  0  0  0  0  0  0  0  0  0  0  0
  -22.1310    0.2572  -13.3676 C   0  0  0  0  0  0  0  0  0  0  0  0
 19 20  1  0  0  0
 20 21  1  0  0  0
 20  1  1  0  0  0
  1  2  1  0  0  0
  1  9  2  0  0  0
  2 10  1  0  0  0
  2  3  2  0  0  0
 10 11  2  0  0  0
 10 14  1  0  0  0
 11 12  1  0  0  0
 12 13  2  0  0  0
 13 15  1  0  0  0
 13 14  1  0  0  0
 15 16  1  0  0  0
 16 17  1  0  0  0
 16 18  1  0  0  0
  3  4  1  0  0  0
  4  5  1  0  0  0
  4  9  1  0  0  0
  5  6  2  0  0  0
  6  7  1  0  0  0
  7  8  2  0  0  0
  8 22  1  0  0  0
  8  9  1  0  0  0
 22 24  1  0  0  0
 22 23  1  0  0  0
 24 25  1  0  0  0
 24 30  2  0  0  0
 25 26  2  0  0  0
 26 32  1  0  0  0
 26 27  1  0  0  0
 32 33  2  0  0  0
 32 34  1  0  0  0
 34 36  1  0  0  0
 34 35  1  0  0  0
 36 37  1  0  0  0
 36 38  1  0  0  0
 37 38  1  0  0  0
 27 28  1  0  0  0
 27 29  2  0  0  0
 29 30  1  0  0  0
 30 31  1  0  0  0
M  END
> <minimizedAffinity>
-7.83001

$$$$
