CHEMBL3954230


 38 41  0  0  0  0  0  0  0  0999 V2000
  -15.5441    1.5582  -17.1241 C   0  0  0  0  0  0  0  0  0  0  0  0
  -15.8860    1.1650  -15.7142 C   0  0  0  0  0  0  0  0  0  0  0  0
  -14.9655    0.3418  -15.0419 C   0  0  0  0  0  0  0  0  0  0  0  0
  -15.1740   -0.1228  -13.7399 C   0  0  0  0  0  0  0  0  0  0  0  0
  -16.2948    0.3388  -13.0551 C   0  0  0  0  0  0  0  0  0  0  0  0
  -17.2199    1.1732  -13.7012 C   0  0  0  0  0  0  0  0  0  0  0  0
  -17.0654    1.5269  -15.0538 C   0  0  0  0  0  0  0  0  0  0  0  0
  -14.2996   -1.0429  -13.1079 N   0  0  0  0  0  0  0  0  0  0  0  0
  -14.4960   -2.4119  -13.0803 C   0  0  0  0  0  0  0  0  0  0  0  0
  -15.4423   -2.9967  -13.6017 O   0  0  0  0  0  0  0  0  0  0  0  0
  -13.5283   -3.0926  -12.3513 N   0  0  0  0  0  0  0  0  0  0  0  0
  -13.5318   -0.6644  -12.5742 H   0  0  0  0  0  0  0  0  0  0  0  0
  -13.2349   -2.6117  -11.5136 H   0  0  0  0  0  0  0  0  0  0  0  0
  -13.6513   -4.5032  -12.2557 C   0  0  0  0  0  0  0  0  0  0  0  0
  -14.0519   -5.1060  -11.0594 C   0  0  0  0  0  0  0  0  0  0  0  0
  -14.0282   -6.4929  -10.9281 C   0  0  0  0  0  0  0  0  0  0  0  0
  -13.5930   -7.2906  -11.9884 C   0  0  0  0  0  0  0  0  0  0  0  0
  -13.5914   -8.9977  -11.7297 Cl  0  0  0  0  0  0  0  0  0  0  0  0
  -13.1886   -6.7045  -13.1988 C   0  0  0  0  0  0  0  0  0  0  0  0
  -13.2661   -5.2993  -13.3324 C   0  0  0  0  0  0  0  0  0  0  0  0
  -12.6419   -7.5069  -14.3580 C   0  0  0  0  0  0  0  0  0  0  0  0
  -12.1953   -6.6037  -15.4952 C   0  0  0  0  0  0  0  0  0  0  0  0
  -11.5477   -8.2451  -13.9873 F   0  0  0  0  0  0  0  0  0  0  0  0
  -13.5151   -8.4273  -14.8549 F   0  0  0  0  0  0  0  0  0  0  0  0
  -18.0294    2.2566  -15.7347 O   0  0  0  0  0  0  0  0  0  0  0  0
  -19.3069    2.3334  -15.1936 C   0  0  0  0  0  0  0  0  0  0  0  0
  -19.8707    3.5337  -14.7687 C   0  0  0  0  0  0  0  0  0  0  0  0
  -21.1697    3.5101  -14.3157 C   0  0  0  0  0  0  0  0  0  0  0  0
  -21.8932    2.3826  -14.2075 N   0  0  0  0  0  0  0  0  0  0  0  0
  -21.3296    1.2023  -14.5431 C   0  0  0  0  0  0  0  0  0  0  0  0
  -20.0344    1.1421  -15.0460 C   0  0  0  0  0  0  0  0  0  0  0  0
  -22.0903    0.0297  -14.3745 N   0  0  0  0  0  0  0  0  0  0  0  0
  -22.5047   -0.4517  -13.1432 C   0  0  0  0  0  0  0  0  0  0  0  0
  -22.3095    0.0512  -12.0447 O   0  0  0  0  0  0  0  0  0  0  0  0
  -22.3231   -0.4929  -15.2057 H   0  0  0  0  0  0  0  0  0  0  0  0
  -23.2746   -1.7388  -13.2035 C   0  0  0  0  0  0  0  0  0  0  0  0
  -24.7867   -1.6908  -13.3165 C   0  0  0  0  0  0  0  0  0  0  0  0
  -24.1525   -2.1338  -12.0315 C   0  0  0  0  0  0  0  0  0  0  0  0
  1  2  1  0  0  0
  2  3  1  0  0  0
  2  7  2  0  0  0
  3  4  2  0  0  0
  4  8  1  0  0  0
  4  5  1  0  0  0
  8  9  1  0  0  0
  8 12  1  0  0  0
  9 10  2  0  0  0
  9 11  1  0  0  0
 11 14  1  0  0  0
 11 13  1  0  0  0
 14 15  1  0  0  0
 14 20  2  0  0  0
 15 16  2  0  0  0
 16 17  1  0  0  0
 17 18  1  0  0  0
 17 19  2  0  0  0
 19 21  1  0  0  0
 19 20  1  0  0  0
 21 22  1  0  0  0
 21 23  1  0  0  0
 21 24  1  0  0  0
  5  6  2  0  0  0
  6  7  1  0  0  0
  7 25  1  0  0  0
 25 26  1  0  0  0
 26 27  1  0  0  0
 26 31  2  0  0  0
 27 28  2  0  0  0
 28 29  1  0  0  0
 29 30  2  0  0  0
 30 32  1  0  0  0
 30 31  1  0  0  0
 32 33  1  0  0  0
 32 35  1  0  0  0
 33 34  2  0  0  0
 33 36  1  0  0  0
 36 37  1  0  0  0
 36 38  1  0  0  0
 37 38  1  0  0  0
M  END
> <minimizedAffinity>
-9.15966

$$$$
