CHEMBL213510


 32 35  0  0  0  0  0  0  0  0999 V2000
  -19.3251    2.2112  -14.5855 C   0  0  0  0  0  0  0  0  0  0  0  0
  -18.8223    3.1583  -15.4820 C   0  0  0  0  0  0  0  0  0  0  0  0
  -17.5591    3.0009  -16.0559 C   0  0  0  0  0  0  0  0  0  0  0  0
  -16.7641    1.8939  -15.7395 C   0  0  0  0  0  0  0  0  0  0  0  0
  -17.2506    0.9814  -14.7853 C   0  0  0  0  0  0  0  0  0  0  0  0
  -18.5130    1.1481  -14.1956 C   0  0  0  0  0  0  0  0  0  0  0  0
  -22.7488    1.3219  -13.7565 N   0  0  0  0  0  0  0  0  0  0  0  0
  -21.4754    1.1369  -14.2703 C   0  0  0  0  0  0  0  0  0  0  0  0
  -21.0617    0.0913  -14.7577 O   0  0  0  0  0  0  0  0  0  0  0  0
  -20.6732    2.2712  -14.1399 N   0  0  0  0  0  0  0  0  0  0  0  0
  -23.0496    2.2724  -13.6055 H   0  0  0  0  0  0  0  0  0  0  0  0
  -20.8413    2.8072  -13.3012 H   0  0  0  0  0  0  0  0  0  0  0  0
  -25.6807   -1.3290  -10.7482 C   0  0  0  0  0  0  0  0  0  0  0  0
  -25.1662   -1.0129  -12.1200 C   0  0  0  0  0  0  0  0  0  0  0  0
  -25.6438   -1.7310  -13.2207 C   0  0  0  0  0  0  0  0  0  0  0  0
  -25.1745   -1.4498  -14.4946 C   0  0  0  0  0  0  0  0  0  0  0  0
  -24.2178   -0.4488  -14.6794 C   0  0  0  0  0  0  0  0  0  0  0  0
  -23.7246    0.2980  -13.6040 C   0  0  0  0  0  0  0  0  0  0  0  0
  -24.2045    0.0027  -12.3191 C   0  0  0  0  0  0  0  0  0  0  0  0
  -15.4448    1.6491  -16.4430 C   0  0  0  0  0  0  0  0  0  0  0  0
  -14.4388    2.5859  -15.8450 C   0  0  0  0  0  0  0  0  0  0  0  0
  -14.2335    3.7430  -16.4872 N   0  0  0  0  0  0  0  0  0  0  0  0
  -13.1073    4.6308  -15.6671 S   0  0  0  0  0  0  0  0  0  0  0  0
  -12.8880    3.5170  -14.4035 C   0  0  0  0  0  0  0  0  0  0  0  0
  -12.0442    3.7421  -13.3840 N   0  0  0  0  0  0  0  0  0  0  0  0
  -12.0640    2.7479  -12.4963 C   0  0  0  0  0  0  0  0  0  0  0  0
  -12.8131    1.6350  -12.5380 N   0  0  0  0  0  0  0  0  0  0  0  0
  -13.6534    1.4485  -13.5767 C   0  0  0  0  0  0  0  0  0  0  0  0
  -14.4078    0.2870  -13.5125 N   0  0  0  0  0  0  0  0  0  0  0  0
  -13.7081    2.4142  -14.5977 C   0  0  0  0  0  0  0  0  0  0  0  0
  -14.0273   -0.3370  -12.8035 H   0  0  0  0  0  0  0  0  0  0  0  0
  -14.6492   -0.1490  -14.3833 H   0  0  0  0  0  0  0  0  0  0  0  0
 13 14  1  0  0  0
 14 15  1  0  0  0
 14 19  2  0  0  0
 15 16  2  0  0  0
 16 17  1  0  0  0
 17 18  2  0  0  0
 18  7  1  0  0  0
 18 19  1  0  0  0
  7  8  1  0  0  0
  7 11  1  0  0  0
  8  9  2  0  0  0
  8 10  1  0  0  0
 10  1  1  0  0  0
 10 12  1  0  0  0
  1  2  1  0  0  0
  1  6  2  0  0  0
  2  3  2  0  0  0
  3  4  1  0  0  0
  4 20  1  0  0  0
  4  5  2  0  0  0
 20 21  1  0  0  0
 21 22  2  0  0  0
 21 30  1  0  0  0
 22 23  1  0  0  0
 23 24  1  0  0  0
 24 25  1  0  0  0
 24 30  2  0  0  0
 25 26  2  0  0  0
 26 27  1  0  0  0
 27 28  2  0  0  0
 28 29  1  0  0  0
 28 30  1  0  0  0
 29 31  1  0  0  0
 29 32  1  0  0  0
  5  6  1  0  0  0
M  END
> <minimizedAffinity>
-9.86958

$$$$
