CHEMBL425552


 38 41  0  0  0  0  0  0  0  0999 V2000
  -13.2805   -2.2177  -12.9528 C   0  0  0  0  0  0  0  0  0  0  0  0
  -13.2936   -1.2712  -13.9698 C   0  0  0  0  0  0  0  0  0  0  0  0
  -14.4234   -0.5034  -14.1829 C   0  0  0  0  0  0  0  0  0  0  0  0
  -14.5017    0.3126  -15.2484 N   0  0  0  0  0  0  0  0  0  0  0  0
  -15.6462    1.0113  -15.4534 C   0  0  0  0  0  0  0  0  0  0  0  0
  -16.7825    0.9382  -14.6253 C   0  0  0  0  0  0  0  0  0  0  0  0
  -16.6594    0.0841  -13.5190 C   0  0  0  0  0  0  0  0  0  0  0  0
  -15.4865   -0.6444  -13.2909 C   0  0  0  0  0  0  0  0  0  0  0  0
  -15.3508   -1.5362  -12.2344 C   0  0  0  0  0  0  0  0  0  0  0  0
  -14.2795   -2.3291  -12.0616 N   0  0  0  0  0  0  0  0  0  0  0  0
  -15.6588    1.7716  -16.6257 N   0  0  0  0  0  0  0  0  0  0  0  0
  -14.7586    2.7465  -16.9498 C   0  0  0  0  0  0  0  0  0  0  0  0
  -14.8353    3.2815  -18.0524 O   0  0  0  0  0  0  0  0  0  0  0  0
  -13.7970    3.0353  -16.0235 N   0  0  0  0  0  0  0  0  0  0  0  0
  -15.8415    1.2321  -17.4604 H   0  0  0  0  0  0  0  0  0  0  0  0
  -13.5906    2.2805  -15.3853 H   0  0  0  0  0  0  0  0  0  0  0  0
  -12.7313    4.0318  -16.2165 C   0  0  0  0  0  0  0  0  0  0  0  0
  -13.3302    5.3591  -16.7054 C   0  0  0  0  0  0  0  0  0  0  0  0
  -12.0508    4.2696  -14.8562 C   0  0  0  0  0  0  0  0  0  0  0  0
  -11.6530    3.5474  -17.2036 C   0  0  0  0  0  0  0  0  0  0  0  0
  -18.0789    1.6216  -14.8698 C   0  0  0  0  0  0  0  0  0  0  0  0
  -18.1948    3.0207  -14.9409 C   0  0  0  0  0  0  0  0  0  0  0  0
  -19.4252    3.6425  -15.1678 C   0  0  0  0  0  0  0  0  0  0  0  0
  -20.5699    2.8768  -15.3630 C   0  0  0  0  0  0  0  0  0  0  0  0
  -20.4804    1.4898  -15.3456 C   0  0  0  0  0  0  0  0  0  0  0  0
  -19.2519    0.8731  -15.0942 C   0  0  0  0  0  0  0  0  0  0  0  0
  -12.2108   -3.1120  -12.9041 N   0  0  0  0  0  0  0  0  0  0  0  0
  -11.7002   -3.1052  -13.7819 H   0  0  0  0  0  0  0  0  0  0  0  0
  -11.3695   -2.9932  -11.7173 C   0  0  0  0  0  0  0  0  0  0  0  0
  -11.0650   -4.3979  -11.1938 C   0  0  0  0  0  0  0  0  0  0  0  0
  -11.8496   -5.4697  -11.9751 C   0  0  0  0  0  0  0  0  0  0  0  0
  -16.6823   -5.1013  -11.7883 C   0  0  0  0  0  0  0  0  0  0  0  0
  -15.5213   -5.8306  -11.2937 N   0  0  0  0  0  0  0  0  0  0  0  0
  -14.7881   -6.4778  -12.3947 C   0  0  0  0  0  0  0  0  0  0  0  0
  -13.5588   -7.2486  -11.8633 C   0  0  0  0  0  0  0  0  0  0  0  0
  -12.5840   -6.4203  -11.1198 N   0  0  0  0  0  0  0  0  0  0  0  0
  -13.3296   -5.6918  -10.0605 C   0  0  0  0  0  0  0  0  0  0  0  0
  -14.6120   -4.9538  -10.5322 C   0  0  0  0  0  0  0  0  0  0  0  0
 32 33  1  0  0  0
 33 34  1  0  0  0
 33 38  1  0  0  0
 34 35  1  0  0  0
 35 36  1  0  0  0
 36 31  1  0  0  0
 36 37  1  0  0  0
 31 30  1  0  0  0
 30 29  1  0  0  0
 29 27  1  0  0  0
 27  1  1  0  0  0
 27 28  1  0  0  0
  1  2  1  0  0  0
  1 10  2  0  0  0
  2  3  2  0  0  0
  3  4  1  0  0  0
  3  8  1  0  0  0
  4  5  2  0  0  0
  5 11  1  0  0  0
  5  6  1  0  0  0
 11 12  1  0  0  0
 11 15  1  0  0  0
 12 13  2  0  0  0
 12 14  1  0  0  0
 14 17  1  0  0  0
 14 16  1  0  0  0
 17 18  1  0  0  0
 17 19  1  0  0  0
 17 20  1  0  0  0
  6 21  1  0  0  0
  6  7  2  0  0  0
 21 22  1  0  0  0
 21 26  2  0  0  0
 22 23  2  0  0  0
 23 24  1  0  0  0
 24 25  2  0  0  0
 25 26  1  0  0  0
  7  8  1  0  0  0
  8  9  2  0  0  0
  9 10  1  0  0  0
 37 38  1  0  0  0
M  END
> <minimizedAffinity>
-7.98445

$$$$
