CHEMBL3099475


 43 46  0  0  0  0  0  0  0  0999 V2000
  -28.3178   -1.8808   -9.3331 N   0  0  0  0  0  0  0  0  0  0  0  0
  -27.2508   -1.9758  -10.2095 C   0  0  0  0  0  0  0  0  0  0  0  0
  -26.3054   -2.7502  -10.1006 O   0  0  0  0  0  0  0  0  0  0  0  0
  -27.3247   -1.0571  -11.2445 N   0  0  0  0  0  0  0  0  0  0  0  0
  -29.0785   -1.2732   -9.5978 H   0  0  0  0  0  0  0  0  0  0  0  0
  -27.6496   -0.1464  -10.9605 H   0  0  0  0  0  0  0  0  0  0  0  0
  -26.3158   -1.0940  -12.2437 C   0  0  0  0  0  0  0  0  0  0  0  0
  -25.0825   -0.4777  -11.9826 C   0  0  0  0  0  0  0  0  0  0  0  0
  -24.1054   -0.4029  -12.9648 C   0  0  0  0  0  0  0  0  0  0  0  0
  -24.3540   -0.9484  -14.2191 C   0  0  0  0  0  0  0  0  0  0  0  0
  -25.5703   -1.5793  -14.4853 C   0  0  0  0  0  0  0  0  0  0  0  0
  -26.5696   -1.6557  -13.5030 C   0  0  0  0  0  0  0  0  0  0  0  0
  -27.9264   -2.1768  -13.8755 C   0  0  0  0  0  0  0  0  0  0  0  0
  -22.9168    0.2481  -12.8311 O   0  0  0  0  0  0  0  0  0  0  0  0
  -22.4740    1.0377  -13.9407 C   0  0  0  0  0  0  0  0  0  0  0  0
  -20.9450    0.9788  -13.9205 C   0  0  0  0  0  0  0  0  0  0  0  0
  -20.2770    1.2692  -15.2014 N   0  0  0  0  0  0  0  0  0  0  0  0
  -18.8522    0.8701  -15.2201 C   0  0  0  0  0  0  0  0  0  0  0  0
  -17.9720    1.7032  -14.2751 C   0  0  0  0  0  0  0  0  0  0  0  0
  -18.0710    3.1036  -14.5691 O   0  0  0  0  0  0  0  0  0  0  0  0
  -19.4322    3.5535  -14.5305 C   0  0  0  0  0  0  0  0  0  0  0  0
  -20.3285    2.7271  -15.4717 C   0  0  0  0  0  0  0  0  0  0  0  0
  -29.0406   -4.7528   -6.9918 C   0  0  0  0  0  0  0  0  0  0  0  0
  -28.9420   -3.9358   -8.1340 C   0  0  0  0  0  0  0  0  0  0  0  0
  -28.4572   -2.6300   -8.1390 C   0  0  0  0  0  0  0  0  0  0  0  0
  -28.0943   -2.0701   -6.9228 C   0  0  0  0  0  0  0  0  0  0  0  0
  -28.1971   -2.8261   -5.7396 C   0  0  0  0  0  0  0  0  0  0  0  0
  -28.6449   -4.1728   -5.7658 C   0  0  0  0  0  0  0  0  0  0  0  0
  -29.4721   -8.3343   -8.3140 C   0  0  0  0  0  0  0  0  0  0  0  0
  -28.9088   -7.1055   -7.9428 C   0  0  0  0  0  0  0  0  0  0  0  0
  -29.6171   -6.1291   -7.1903 C   0  0  0  0  0  0  0  0  0  0  0  0
  -30.9033   -6.4702   -6.7682 C   0  0  0  0  0  0  0  0  0  0  0  0
  -31.4485   -7.7280   -7.0529 C   0  0  0  0  0  0  0  0  0  0  0  0
  -30.7306   -8.6701   -7.8048 C   0  0  0  0  0  0  0  0  0  0  0  0
  -31.3784   -9.9933   -8.0241 C   0  0  0  0  0  0  0  0  0  0  0  0
  -30.7925  -11.2316   -7.3921 C   0  0  0  0  0  0  0  0  0  0  0  0
  -32.4288  -10.0516   -8.6639 O   0  0  0  0  0  0  0  0  0  0  0  0
  -27.4963   -9.0428   -9.4775 C   0  0  0  0  0  0  0  0  0  0  0  0
  -28.8800   -9.2134   -9.1822 O   0  0  0  0  0  0  0  0  0  0  0  0
  -27.7575   -2.2817   -4.5560 O   0  0  0  0  0  0  0  0  0  0  0  0
  -27.6032   -0.8630   -4.5915 C   0  0  0  0  0  0  0  0  0  0  0  0
  -28.6723   -5.0047   -4.6720 O   0  0  0  0  0  0  0  0  0  0  0  0
  -29.7380   -4.8409   -3.7450 C   0  0  0  0  0  0  0  0  0  0  0  0
 38 39  1  0  0  0
 39 29  1  0  0  0
 29 30  1  0  0  0
 29 34  2  0  0  0
 30 31  2  0  0  0
 31 23  1  0  0  0
 31 32  1  0  0  0
 23 24  1  0  0  0
 23 28  2  0  0  0
 24 25  2  0  0  0
 25  1  1  0  0  0
 25 26  1  0  0  0
  1  2  1  0  0  0
  1  5  1  0  0  0
  2  3  2  0  0  0
  2  4  1  0  0  0
  4  7  1  0  0  0
  4  6  1  0  0  0
  7  8  1  0  0  0
  7 12  2  0  0  0
  8  9  2  0  0  0
  9 14  1  0  0  0
  9 10  1  0  0  0
 14 15  1  0  0  0
 15 16  1  0  0  0
 16 17  1  0  0  0
 17 18  1  0  0  0
 17 22  1  0  0  0
 18 19  1  0  0  0
 19 20  1  0  0  0
 20 21  1  0  0  0
 21 22  1  0  0  0
 10 11  2  0  0  0
 11 12  1  0  0  0
 12 13  1  0  0  0
 26 27  2  0  0  0
 27 40  1  0  0  0
 27 28  1  0  0  0
 40 41  1  0  0  0
 28 42  1  0  0  0
 42 43  1  0  0  0
 32 33  2  0  0  0
 33 34  1  0  0  0
 34 35  1  0  0  0
 35 36  1  0  0  0
 35 37  2  0  0  0
M  END
> <minimizedAffinity>
-10.40189

$$$$
