CHEMBL516836


 29 31  0  0  0  0  0  0  0  0999 V2000
  -26.1477   -1.6436  -12.1907 C   0  0  0  0  0  0  0  0  0  0  0  0
  -27.1670   -2.0434  -13.0288 N   0  0  0  0  0  0  0  0  0  0  0  0
  -26.8084   -1.7828  -14.2772 N   0  0  0  0  0  0  0  0  0  0  0  0
  -25.5912   -1.2212  -14.2346 N   0  0  0  0  0  0  0  0  0  0  0  0
  -25.0956   -1.1539  -12.9584 C   0  0  0  0  0  0  0  0  0  0  0  0
  -25.1333   -0.9604  -15.0983 H   0  0  0  0  0  0  0  0  0  0  0  0
  -25.3266   -1.3893  -10.0110 O   0  0  0  0  0  0  0  0  0  0  0  0
  -26.2662   -1.6979  -10.7383 C   0  0  0  0  0  0  0  0  0  0  0  0
  -27.5026   -2.1229  -10.2767 N   0  0  0  0  0  0  0  0  0  0  0  0
  -28.1520   -2.4600  -10.9826 H   0  0  0  0  0  0  0  0  0  0  0  0
  -27.8788   -2.2144   -8.9144 C   0  0  0  0  0  0  0  0  0  0  0  0
  -28.2302   -3.4228   -8.3031 C   0  0  0  0  0  0  0  0  0  0  0  0
  -28.6501   -3.4713   -6.9767 C   0  0  0  0  0  0  0  0  0  0  0  0
  -28.7089   -2.3023   -6.2274 C   0  0  0  0  0  0  0  0  0  0  0  0
  -28.3254   -1.0808   -6.7958 C   0  0  0  0  0  0  0  0  0  0  0  0
  -27.9025   -1.0474   -8.1430 C   0  0  0  0  0  0  0  0  0  0  0  0
  -28.3745    0.1870   -5.9813 C   0  0  0  0  0  0  0  0  0  0  0  0
  -29.5166    0.3200   -5.2486 F   0  0  0  0  0  0  0  0  0  0  0  0
  -27.3495    0.2712   -5.0891 F   0  0  0  0  0  0  0  0  0  0  0  0
  -28.2949    1.3069   -6.7512 F   0  0  0  0  0  0  0  0  0  0  0  0
  -23.8223   -0.7063  -12.7601 N   0  0  0  0  0  0  0  0  0  0  0  0
  -23.3858   -0.8906  -11.8557 H   0  0  0  0  0  0  0  0  0  0  0  0
  -22.8374   -0.7546  -13.8406 C   0  0  0  0  0  0  0  0  0  0  0  0
  -22.2247    0.6084  -14.0472 C   0  0  0  0  0  0  0  0  0  0  0  0
  -20.9748    0.7425  -14.6603 C   0  0  0  0  0  0  0  0  0  0  0  0
  -20.4828    2.0184  -14.8893 C   0  0  0  0  0  0  0  0  0  0  0  0
  -21.1396    3.1497  -14.5556 N   0  0  0  0  0  0  0  0  0  0  0  0
  -22.3479    2.9990  -13.9727 C   0  0  0  0  0  0  0  0  0  0  0  0
  -22.9258    1.7694  -13.7038 C   0  0  0  0  0  0  0  0  0  0  0  0
  7  8  2  0  0  0
  8  9  1  0  0  0
  8  1  1  0  0  0
  9 11  1  0  0  0
  9 10  1  0  0  0
 11 12  1  0  0  0
 11 16  2  0  0  0
 12 13  2  0  0  0
 13 14  1  0  0  0
 14 15  2  0  0  0
 15 17  1  0  0  0
 15 16  1  0  0  0
 17 18  1  0  0  0
 17 19  1  0  0  0
 17 20  1  0  0  0
  1  2  1  0  0  0
  1  5  2  0  0  0
  2  3  2  0  0  0
  3  4  1  0  0  0
  4  5  1  0  0  0
  4  6  1  0  0  0
  5 21  1  0  0  0
 21 23  1  0  0  0
 21 22  1  0  0  0
 23 24  1  0  0  0
 24 25  1  0  0  0
 24 29  2  0  0  0
 25 26  2  0  0  0
 26 27  1  0  0  0
 27 28  2  0  0  0
 28 29  1  0  0  0
M  END
> <minimizedAffinity>
-9.43951

$$$$
