CHEMBL3969408


 33 37  0  0  0  0  0  0  0  0999 V2000
  -27.7931   -1.7536   -8.1203 N   0  0  0  0  0  0  0  0  0  0  0  0
  -28.5149   -2.8762   -7.5181 C   0  0  0  0  0  0  0  0  0  0  0  0
  -28.2186   -3.0290   -6.1628 C   0  0  0  0  0  0  0  0  0  0  0  0
  -28.4947   -4.1472   -5.4778 C   0  0  0  0  0  0  0  0  0  0  0  0
  -29.1402   -5.1829   -6.0590 C   0  0  0  0  0  0  0  0  0  0  0  0
  -29.2067   -6.2559   -5.2968 N   0  0  0  0  0  0  0  0  0  0  0  0
  -29.8097   -7.3573   -5.6703 C   0  0  0  0  0  0  0  0  0  0  0  0
  -30.5053   -7.4433   -6.8799 C   0  0  0  0  0  0  0  0  0  0  0  0
  -30.3900   -6.3316   -7.7620 N   0  0  0  0  0  0  0  0  0  0  0  0
  -29.6681   -5.1631   -7.3641 C   0  0  0  0  0  0  0  0  0  0  0  0
  -29.3436   -3.9370   -8.1448 C   0  0  0  0  0  0  0  0  0  0  0  0
  -31.3247   -8.7766   -6.9467 C   0  0  0  0  0  0  0  0  0  0  0  0
  -32.7168   -8.7644   -7.2361 C   0  0  0  0  0  0  0  0  0  0  0  0
  -33.2129   -9.9879   -7.2856 N   0  0  0  0  0  0  0  0  0  0  0  0
  -32.2415  -10.8339   -7.0407 N   0  0  0  0  0  0  0  0  0  0  0  0
  -32.5462  -12.2619   -7.0629 C   0  0  0  0  0  0  0  0  0  0  0  0
  -31.0656  -10.1600   -6.8252 C   0  0  0  0  0  0  0  0  0  0  0  0
  -25.3721   -1.5411  -11.0315 C   0  0  0  0  0  0  0  0  0  0  0  0
  -26.2319   -1.6490  -12.1278 C   0  0  0  0  0  0  0  0  0  0  0  0
  -27.6286   -1.6677  -11.9204 C   0  0  0  0  0  0  0  0  0  0  0  0
  -28.1599   -1.6614  -10.6051 C   0  0  0  0  0  0  0  0  0  0  0  0
  -27.3072   -1.6438   -9.4905 C   0  0  0  0  0  0  0  0  0  0  0  0
  -25.9106   -1.5228   -9.7591 C   0  0  0  0  0  0  0  0  0  0  0  0
  -28.5575   -1.7065  -13.1022 C   0  0  0  0  0  0  0  0  0  0  0  0
  -28.6789   -3.0701  -13.6035 N   0  0  0  0  0  0  0  0  0  0  0  0
  -27.7446   -3.4079  -13.9274 H   0  0  0  0  0  0  0  0  0  0  0  0
  -29.3393   -3.0702  -14.4131 H   0  0  0  0  0  0  0  0  0  0  0  0
  -23.1905   -1.8301  -12.1506 C   0  0  0  0  0  0  0  0  0  0  0  0
  -24.0127   -1.4852  -11.1035 O   0  0  0  0  0  0  0  0  0  0  0  0
  -27.6089   -0.5744   -7.1987 C   0  0  0  0  0  0  0  0  0  0  0  0
  -28.8687    0.2925   -6.9564 C   0  0  0  0  0  0  0  0  0  0  0  0
  -28.6029    1.3019   -5.8676 C   0  0  0  0  0  0  0  0  0  0  0  0
  -29.6823    0.2218   -5.6745 C   0  0  0  0  0  0  0  0  0  0  0  0
 28 29  1  0  0  0
 29 18  1  0  0  0
 18 19  1  0  0  0
 18 23  2  0  0  0
 19 20  2  0  0  0
 20 24  1  0  0  0
 20 21  1  0  0  0
 24 25  1  0  0  0
 25 26  1  0  0  0
 25 27  1  0  0  0
 21 22  2  0  0  0
 22  1  1  0  0  0
 22 23  1  0  0  0
  1 30  1  0  0  0
  1  2  1  0  0  0
 30 31  1  0  0  0
 31 32  1  0  0  0
 31 33  1  0  0  0
 32 33  1  0  0  0
  2  3  1  0  0  0
  2 11  2  0  0  0
  3  4  2  0  0  0
  4  5  1  0  0  0
  5  6  1  0  0  0
  5 10  2  0  0  0
  6  7  2  0  0  0
  7  8  1  0  0  0
  8 12  1  0  0  0
  8  9  2  0  0  0
 12 13  1  0  0  0
 12 17  2  0  0  0
 13 14  2  0  0  0
 14 15  1  0  0  0
 15 16  1  0  0  0
 15 17  1  0  0  0
  9 10  1  0  0  0
 10 11  1  0  0  0
M  END
> <minimizedAffinity>
-8.02171

$$$$
