CHEMBL3706841


 44 48  0  0  0  0  0  0  0  0999 V2000
  -29.9663   -5.5512   -6.3866 N   0  0  0  0  0  0  0  0  0  0  0  0
  -30.9486   -5.5045   -6.6471 H   0  0  0  0  0  0  0  0  0  0  0  0
  -28.3581   -9.4979   -6.3533 C   0  0  0  0  0  0  0  0  0  0  0  0
  -28.8022   -8.1749   -6.3632 C   0  0  0  0  0  0  0  0  0  0  0  0
  -29.2090   -7.5120   -5.1818 C   0  0  0  0  0  0  0  0  0  0  0  0
  -29.7645   -6.2143   -5.1595 C   0  0  0  0  0  0  0  0  0  0  0  0
  -30.0253   -5.5762   -4.0081 N   0  0  0  0  0  0  0  0  0  0  0  0
  -29.7971   -6.2728   -2.8889 C   0  0  0  0  0  0  0  0  0  0  0  0
  -29.3539   -7.5352   -2.8028 N   0  0  0  0  0  0  0  0  0  0  0  0
  -29.0537   -8.1475   -3.9504 C   0  0  0  0  0  0  0  0  0  0  0  0
  -28.5332   -9.4416   -3.9356 C   0  0  0  0  0  0  0  0  0  0  0  0
  -28.1554  -10.1144   -5.1072 C   0  0  0  0  0  0  0  0  0  0  0  0
  -27.3867   -9.5469   -8.5524 C   0  0  0  0  0  0  0  0  0  0  0  0
  -28.1179  -10.1898   -7.5066 O   0  0  0  0  0  0  0  0  0  0  0  0
  -27.5857  -11.3472   -4.8697 O   0  0  0  0  0  0  0  0  0  0  0  0
  -26.2707  -11.5063   -5.3966 C   0  0  0  0  0  0  0  0  0  0  0  0
  -25.2334  -10.6880   -4.6315 C   0  0  0  0  0  0  0  0  0  0  0  0
  -24.0216  -11.6035   -4.3792 C   0  0  0  0  0  0  0  0  0  0  0  0
  -22.7214  -11.0080   -4.7085 N   0  0  0  0  0  0  0  0  0  0  0  0
  -22.7196  -10.4815   -6.0880 C   0  0  0  0  0  0  0  0  0  0  0  0
  -22.2353  -11.6301   -6.9506 C   0  0  0  0  0  0  0  0  0  0  0  0
  -21.1777  -12.2727   -6.0798 C   0  0  0  0  0  0  0  0  0  0  0  0
  -21.6256  -11.9917   -4.6515 C   0  0  0  0  0  0  0  0  0  0  0  0
  -29.2323   -4.5460   -6.9820 C   0  0  0  0  0  0  0  0  0  0  0  0
  -29.1995   -3.2448   -6.6723 C   0  0  0  0  0  0  0  0  0  0  0  0
  -28.4546   -2.2318   -7.4486 C   0  0  0  0  0  0  0  0  0  0  0  0
  -28.5458   -1.0510   -7.1469 O   0  0  0  0  0  0  0  0  0  0  0  0
  -27.6386   -2.7094   -8.6087 C   0  0  0  0  0  0  0  0  0  0  0  0
  -27.6266   -4.0132   -8.8966 C   0  0  0  0  0  0  0  0  0  0  0  0
  -28.3935   -5.0100   -8.1386 C   0  0  0  0  0  0  0  0  0  0  0  0
  -28.3449   -6.1955   -8.4634 O   0  0  0  0  0  0  0  0  0  0  0  0
  -26.9269   -1.8586   -9.4462 O   0  0  0  0  0  0  0  0  0  0  0  0
  -27.4921   -1.5677  -10.7274 C   0  0  0  0  0  0  0  0  0  0  0  0
  -26.3606   -1.4196  -11.7123 C   0  0  0  0  0  0  0  0  0  0  0  0
  -26.5422   -1.6221  -13.0853 C   0  0  0  0  0  0  0  0  0  0  0  0
  -27.7509   -1.9592  -13.5534 F   0  0  0  0  0  0  0  0  0  0  0  0
  -25.4851   -1.4635  -13.9778 C   0  0  0  0  0  0  0  0  0  0  0  0
  -25.6854   -1.6554  -15.2931 F   0  0  0  0  0  0  0  0  0  0  0  0
  -24.2291   -1.0975  -13.5170 C   0  0  0  0  0  0  0  0  0  0  0  0
  -23.2149   -0.9378  -14.3729 F   0  0  0  0  0  0  0  0  0  0  0  0
  -24.0279   -0.8865  -12.1585 C   0  0  0  0  0  0  0  0  0  0  0  0
  -22.8263   -0.5199  -11.7058 F   0  0  0  0  0  0  0  0  0  0  0  0
  -25.0907   -1.0460  -11.2690 C   0  0  0  0  0  0  0  0  0  0  0  0
  -24.8807   -0.8169   -9.9636 F   0  0  0  0  0  0  0  0  0  0  0  0
 13 14  1  0  0  0
 14  3  1  0  0  0
  3  4  1  0  0  0
  3 12  2  0  0  0
  4  5  2  0  0  0
  5  6  1  0  0  0
  5 10  1  0  0  0
  6  1  1  0  0  0
  6  7  2  0  0  0
  1 24  1  0  0  0
  1  2  1  0  0  0
 24 25  2  0  0  0
 24 30  1  0  0  0
 25 26  1  0  0  0
 26 27  2  0  0  0
 26 28  1  0  0  0
 28 32  1  0  0  0
 28 29  2  0  0  0
 32 33  1  0  0  0
 33 34  1  0  0  0
 34 35  1  0  0  0
 34 43  2  0  0  0
 35 36  1  0  0  0
 35 37  2  0  0  0
 37 38  1  0  0  0
 37 39  1  0  0  0
 39 40  1  0  0  0
 39 41  2  0  0  0
 41 42  1  0  0  0
 41 43  1  0  0  0
 43 44  1  0  0  0
 29 30  1  0  0  0
 30 31  2  0  0  0
  7  8  1  0  0  0
  8  9  2  0  0  0
  9 10  1  0  0  0
 10 11  2  0  0  0
 11 12  1  0  0  0
 12 15  1  0  0  0
 15 16  1  0  0  0
 16 17  1  0  0  0
 17 18  1  0  0  0
 18 19  1  0  0  0
 19 20  1  0  0  0
 19 23  1  0  0  0
 20 21  1  0  0  0
 21 22  1  0  0  0
 22 23  1  0  0  0
M  END
> <minimizedAffinity>
-8.28618

$$$$
