CHEMBL3904561


 34 38  0  0  0  0  0  0  0  0999 V2000
  -28.1079   -1.9931   -8.0373 N   0  0  0  0  0  0  0  0  0  0  0  0
  -28.7422   -3.1095   -7.3903 C   0  0  0  0  0  0  0  0  0  0  0  0
  -28.3560   -3.2998   -6.0602 C   0  0  0  0  0  0  0  0  0  0  0  0
  -28.4023   -4.5601   -5.5073 C   0  0  0  0  0  0  0  0  0  0  0  0
  -28.9677   -5.6239   -6.1606 C   0  0  0  0  0  0  0  0  0  0  0  0
  -28.7447   -6.7947   -5.5568 N   0  0  0  0  0  0  0  0  0  0  0  0
  -29.3940   -7.8565   -6.0504 C   0  0  0  0  0  0  0  0  0  0  0  0
  -30.3193   -7.7594   -7.0538 C   0  0  0  0  0  0  0  0  0  0  0  0
  -30.4723   -6.5689   -7.7607 N   0  0  0  0  0  0  0  0  0  0  0  0
  -29.7124   -5.4587   -7.3470 C   0  0  0  0  0  0  0  0  0  0  0  0
  -29.5218   -4.1491   -7.9824 C   0  0  0  0  0  0  0  0  0  0  0  0
  -31.2092   -8.9241   -7.1922 C   0  0  0  0  0  0  0  0  0  0  0  0
  -32.6287   -8.9583   -7.3008 C   0  0  0  0  0  0  0  0  0  0  0  0
  -33.1552  -10.1600   -7.0250 N   0  0  0  0  0  0  0  0  0  0  0  0
  -32.0863  -10.9092   -6.7101 N   0  0  0  0  0  0  0  0  0  0  0  0
  -32.2309  -12.3278   -6.4651 C   0  0  0  0  0  0  0  0  0  0  0  0
  -30.9236  -10.1837   -6.6757 C   0  0  0  0  0  0  0  0  0  0  0  0
  -25.5717   -1.5593  -10.7990 C   0  0  0  0  0  0  0  0  0  0  0  0
  -26.3791   -1.6348  -11.9197 C   0  0  0  0  0  0  0  0  0  0  0  0
  -27.7682   -1.6885  -11.7656 C   0  0  0  0  0  0  0  0  0  0  0  0
  -28.3496   -1.7451  -10.4827 C   0  0  0  0  0  0  0  0  0  0  0  0
  -27.5623   -1.7720   -9.3329 C   0  0  0  0  0  0  0  0  0  0  0  0
  -26.1698   -1.5631   -9.5360 C   0  0  0  0  0  0  0  0  0  0  0  0
  -23.5486   -2.0016  -11.9602 C   0  0  0  0  0  0  0  0  0  0  0  0
  -24.2033   -1.4847  -10.8036 O   0  0  0  0  0  0  0  0  0  0  0  0
  -28.6640   -1.7082  -12.8043 O   0  0  0  0  0  0  0  0  0  0  0  0
  -28.2391   -2.3676  -13.9925 C   0  0  0  0  0  0  0  0  0  0  0  0
  -27.7246   -0.9573   -7.0071 C   0  0  0  0  0  0  0  0  0  0  0  0
  -28.7535    0.0687   -6.6355 C   0  0  0  0  0  0  0  0  0  0  0  0
  -29.6412    0.0726   -5.5414 C   0  0  0  0  0  0  0  0  0  0  0  0
  -30.3869    1.1736   -5.5623 N   0  0  0  0  0  0  0  0  0  0  0  0
  -29.9234    1.7887   -6.6620 N   0  0  0  0  0  0  0  0  0  0  0  0
  -28.9389    1.1886   -7.3532 N   0  0  0  0  0  0  0  0  0  0  0  0
  -30.3008    2.6825   -6.9626 H   0  0  0  0  0  0  0  0  0  0  0  0
 24 25  1  0  0  0
 25 18  1  0  0  0
 18 19  1  0  0  0
 18 23  2  0  0  0
 19 20  2  0  0  0
 20 26  1  0  0  0
 20 21  1  0  0  0
 26 27  1  0  0  0
 21 22  2  0  0  0
 22  1  1  0  0  0
 22 23  1  0  0  0
  1 28  1  0  0  0
  1  2  1  0  0  0
 28 29  1  0  0  0
 29 30  1  0  0  0
 29 33  2  0  0  0
 30 31  2  0  0  0
 31 32  1  0  0  0
 32 33  1  0  0  0
 32 34  1  0  0  0
  2  3  1  0  0  0
  2 11  2  0  0  0
  3  4  2  0  0  0
  4  5  1  0  0  0
  5  6  1  0  0  0
  5 10  2  0  0  0
  6  7  2  0  0  0
  7  8  1  0  0  0
  8 12  1  0  0  0
  8  9  2  0  0  0
 12 13  1  0  0  0
 12 17  2  0  0  0
 13 14  2  0  0  0
 14 15  1  0  0  0
 15 16  1  0  0  0
 15 17  1  0  0  0
  9 10  1  0  0  0
 10 11  1  0  0  0
M  END
> <minimizedAffinity>
-7.87940

$$$$
