CHEMBL3099469


 44 47  0  0  0  0  0  0  0  0999 V2000
  -14.9816    0.0395  -15.5878 N   0  0  0  0  0  0  0  0  0  0  0  0
  -16.1567    0.4463  -14.9718 C   0  0  0  0  0  0  0  0  0  0  0  0
  -16.3708    0.3548  -13.7772 O   0  0  0  0  0  0  0  0  0  0  0  0
  -17.0583    0.9535  -15.8953 N   0  0  0  0  0  0  0  0  0  0  0  0
  -14.6867    0.6648  -16.3246 H   0  0  0  0  0  0  0  0  0  0  0  0
  -17.0602    0.4411  -16.7653 H   0  0  0  0  0  0  0  0  0  0  0  0
  -18.3022    1.4641  -15.4529 C   0  0  0  0  0  0  0  0  0  0  0  0
  -19.3487    0.5769  -15.1594 C   0  0  0  0  0  0  0  0  0  0  0  0
  -20.6008    1.0522  -14.7617 C   0  0  0  0  0  0  0  0  0  0  0  0
  -20.8088    2.4209  -14.6438 C   0  0  0  0  0  0  0  0  0  0  0  0
  -19.7681    3.3078  -14.9355 C   0  0  0  0  0  0  0  0  0  0  0  0
  -18.5035    2.8470  -15.3367 C   0  0  0  0  0  0  0  0  0  0  0  0
  -17.4734    3.8452  -15.7826 C   0  0  0  0  0  0  0  0  0  0  0  0
  -21.9972    3.0103  -14.3245 O   0  0  0  0  0  0  0  0  0  0  0  0
  -22.7219    2.4471  -13.2282 C   0  0  0  0  0  0  0  0  0  0  0  0
  -23.2313    1.0709  -13.6689 C   0  0  0  0  0  0  0  0  0  0  0  0
  -23.8503    0.3308  -12.4737 C   0  0  0  0  0  0  0  0  0  0  0  0
  -23.8999   -1.1349  -12.5997 N   0  0  0  0  0  0  0  0  0  0  0  0
  -24.7640   -1.6267  -13.6958 C   0  0  0  0  0  0  0  0  0  0  0  0
  -26.2830   -1.5424  -13.4406 C   0  0  0  0  0  0  0  0  0  0  0  0
  -26.6671   -2.0825  -12.1691 O   0  0  0  0  0  0  0  0  0  0  0  0
  -25.9025   -1.5015  -11.1079 C   0  0  0  0  0  0  0  0  0  0  0  0
  -24.4003   -1.7360  -11.3382 C   0  0  0  0  0  0  0  0  0  0  0  0
  -13.0391   -2.5754  -13.7345 C   0  0  0  0  0  0  0  0  0  0  0  0
  -14.0541   -1.9028  -14.4567 C   0  0  0  0  0  0  0  0  0  0  0  0
  -13.9679   -0.5549  -14.8079 C   0  0  0  0  0  0  0  0  0  0  0  0
  -12.8755    0.1909  -14.4032 C   0  0  0  0  0  0  0  0  0  0  0  0
  -11.8824   -0.4049  -13.6163 C   0  0  0  0  0  0  0  0  0  0  0  0
  -11.9363   -1.7880  -13.2971 C   0  0  0  0  0  0  0  0  0  0  0  0
  -13.9404   -5.8710  -11.9756 C   0  0  0  0  0  0  0  0  0  0  0  0
  -13.8307   -4.5130  -12.3065 C   0  0  0  0  0  0  0  0  0  0  0  0
  -13.2146   -4.0471  -13.4952 C   0  0  0  0  0  0  0  0  0  0  0  0
  -12.7271   -5.0335  -14.3644 C   0  0  0  0  0  0  0  0  0  0  0  0
  -12.8833   -6.3984  -14.0819 C   0  0  0  0  0  0  0  0  0  0  0  0
  -13.5080   -6.8201  -12.8990 C   0  0  0  0  0  0  0  0  0  0  0  0
  -13.6976   -8.2914  -12.7070 C   0  0  0  0  0  0  0  0  0  0  0  0
  -12.7283   -9.0753  -11.8531 C   0  0  0  0  0  0  0  0  0  0  0  0
  -14.6898   -8.8382  -13.1938 O   0  0  0  0  0  0  0  0  0  0  0  0
  -13.8015   -5.6859   -9.6005 C   0  0  0  0  0  0  0  0  0  0  0  0
  -14.3607   -6.3120  -10.7485 O   0  0  0  0  0  0  0  0  0  0  0  0
  -10.7894    0.3425  -13.2486 O   0  0  0  0  0  0  0  0  0  0  0  0
  -10.7030    1.6144  -13.8923 C   0  0  0  0  0  0  0  0  0  0  0  0
  -10.9335   -2.4546  -12.6280 O   0  0  0  0  0  0  0  0  0  0  0  0
  -11.1384   -2.7449  -11.2477 C   0  0  0  0  0  0  0  0  0  0  0  0
 39 40  1  0  0  0
 40 30  1  0  0  0
 30 31  1  0  0  0
 30 35  2  0  0  0
 31 32  2  0  0  0
 32 24  1  0  0  0
 32 33  1  0  0  0
 24 25  1  0  0  0
 24 29  2  0  0  0
 25 26  2  0  0  0
 26  1  1  0  0  0
 26 27  1  0  0  0
  1  2  1  0  0  0
  1  5  1  0  0  0
  2  3  2  0  0  0
  2  4  1  0  0  0
  4  7  1  0  0  0
  4  6  1  0  0  0
  7  8  1  0  0  0
  7 12  2  0  0  0
  8  9  2  0  0  0
  9 10  1  0  0  0
 10 14  1  0  0  0
 10 11  2  0  0  0
 14 15  1  0  0  0
 15 16  1  0  0  0
 16 17  1  0  0  0
 17 18  1  0  0  0
 18 19  1  0  0  0
 18 23  1  0  0  0
 19 20  1  0  0  0
 20 21  1  0  0  0
 21 22  1  0  0  0
 22 23  1  0  0  0
 11 12  1  0  0  0
 12 13  1  0  0  0
 27 28  2  0  0  0
 28 41  1  0  0  0
 28 29  1  0  0  0
 41 42  1  0  0  0
 29 43  1  0  0  0
 43 44  1  0  0  0
 33 34  2  0  0  0
 34 35  1  0  0  0
 35 36  1  0  0  0
 36 37  1  0  0  0
 36 38  2  0  0  0
M  END
> <minimizedAffinity>
-8.26065

$$$$
