CHEMBL599844


 26 29  0  0  0  0  0  0  0  0999 V2000
  -13.0152    3.7008  -16.8742 O   0  0  0  0  0  0  0  0  0  0  0  0
  -13.8235    3.1701  -16.1117 C   0  0  0  0  0  0  0  0  0  0  0  0
  -13.5082    2.9596  -14.6503 C   0  0  0  0  0  0  0  0  0  0  0  0
  -13.5513    1.5134  -14.3120 C   0  0  0  0  0  0  0  0  0  0  0  0
  -12.4273    0.7901  -13.9856 C   0  0  0  0  0  0  0  0  0  0  0  0
  -12.4380   -0.5299  -13.7352 N   0  0  0  0  0  0  0  0  0  0  0  0
  -13.6276   -1.1419  -13.7807 C   0  0  0  0  0  0  0  0  0  0  0  0
  -14.7784   -0.5094  -14.0694 N   0  0  0  0  0  0  0  0  0  0  0  0
  -14.7347    0.8077  -14.3575 C   0  0  0  0  0  0  0  0  0  0  0  0
  -16.0175    1.4336  -14.7382 C   0  0  0  0  0  0  0  0  0  0  0  0
  -17.1860    1.0932  -14.0248 C   0  0  0  0  0  0  0  0  0  0  0  0
  -18.4297    1.6404  -14.3496 C   0  0  0  0  0  0  0  0  0  0  0  0
  -18.5473    2.4946  -15.4385 C   0  0  0  0  0  0  0  0  0  0  0  0
  -17.4193    2.8176  -16.1880 C   0  0  0  0  0  0  0  0  0  0  0  0
  -16.1526    2.3428  -15.8139 C   0  0  0  0  0  0  0  0  0  0  0  0
  -15.0760    2.8536  -16.5647 N   0  0  0  0  0  0  0  0  0  0  0  0
  -15.2655    3.2263  -17.4883 H   0  0  0  0  0  0  0  0  0  0  0  0
  -13.6321   -2.5114  -13.5394 N   0  0  0  0  0  0  0  0  0  0  0  0
  -12.6885   -2.8595  -13.4308 H   0  0  0  0  0  0  0  0  0  0  0  0
  -14.6298   -3.2937  -12.9309 C   0  0  0  0  0  0  0  0  0  0  0  0
  -15.2246   -2.8922  -11.7236 C   0  0  0  0  0  0  0  0  0  0  0  0
  -16.2206   -3.6555  -11.1156 C   0  0  0  0  0  0  0  0  0  0  0  0
  -16.6591   -4.8314  -11.7153 C   0  0  0  0  0  0  0  0  0  0  0  0
  -16.0931   -5.2469  -12.9200 C   0  0  0  0  0  0  0  0  0  0  0  0
  -15.0821   -4.4876  -13.5195 C   0  0  0  0  0  0  0  0  0  0  0  0
  -14.4229   -5.0510  -15.0169 Cl  0  0  0  0  0  0  0  0  0  0  0  0
  1  2  2  0  0  0
  2  3  1  0  0  0
  2 16  1  0  0  0
  3  4  1  0  0  0
  4  5  1  0  0  0
  4  9  2  0  0  0
  5  6  2  0  0  0
  6  7  1  0  0  0
  7 18  1  0  0  0
  7  8  2  0  0  0
 18 20  1  0  0  0
 18 19  1  0  0  0
 20 21  1  0  0  0
 20 25  2  0  0  0
 21 22  2  0  0  0
 22 23  1  0  0  0
 23 24  2  0  0  0
 24 25  1  0  0  0
 25 26  1  0  0  0
  8  9  1  0  0  0
  9 10  1  0  0  0
 10 11  1  0  0  0
 10 15  2  0  0  0
 11 12  2  0  0  0
 12 13  1  0  0  0
 13 14  2  0  0  0
 14 15  1  0  0  0
 15 16  1  0  0  0
 16 17  1  0  0  0
M  END
> <minimizedAffinity>
-7.60754

$$$$
