CHEMBL1761936


 31 33  0  0  0  0  0  0  0  0999 V2000
  -25.1612   -1.8556  -11.9686 C   0  0  0  0  0  0  0  0  0  0  0  0
  -25.3032   -1.4598  -13.3008 C   0  0  0  0  0  0  0  0  0  0  0  0
  -24.2337   -0.8957  -14.0110 C   0  0  0  0  0  0  0  0  0  0  0  0
  -23.0155   -0.6596  -13.3823 C   0  0  0  0  0  0  0  0  0  0  0  0
  -22.8776   -1.0247  -12.0377 C   0  0  0  0  0  0  0  0  0  0  0  0
  -23.9418   -1.6106  -11.3301 C   0  0  0  0  0  0  0  0  0  0  0  0
  -27.6214   -2.9509   -9.4988 N   0  0  0  0  0  0  0  0  0  0  0  0
  -26.6803   -2.0845  -10.0268 C   0  0  0  0  0  0  0  0  0  0  0  0
  -26.3649   -1.0529   -9.4440 O   0  0  0  0  0  0  0  0  0  0  0  0
  -26.1931   -2.5076  -11.2458 N   0  0  0  0  0  0  0  0  0  0  0  0
  -27.4577   -3.9243   -9.7113 H   0  0  0  0  0  0  0  0  0  0  0  0
  -26.7906   -3.1395  -11.7592 H   0  0  0  0  0  0  0  0  0  0  0  0
  -28.1099   -2.6320   -8.1654 C   0  0  0  0  0  0  0  0  0  0  0  0
  -28.9977   -3.6969   -7.5322 C   0  0  0  0  0  0  0  0  0  0  0  0
  -28.8561   -2.3910   -5.3832 C   0  0  0  0  0  0  0  0  0  0  0  0
  -29.7625   -3.1812   -6.3141 C   0  0  0  0  0  0  0  0  0  0  0  0
  -21.8661   -0.1903  -13.9766 O   0  0  0  0  0  0  0  0  0  0  0  0
  -21.6441    1.1655  -14.2255 C   0  0  0  0  0  0  0  0  0  0  0  0
  -22.6406    2.0554  -14.0657 N   0  0  0  0  0  0  0  0  0  0  0  0
  -22.3318    3.3269  -14.3260 C   0  0  0  0  0  0  0  0  0  0  0  0
  -21.1306    3.7879  -14.6909 N   0  0  0  0  0  0  0  0  0  0  0  0
  -20.1485    2.8896  -14.8170 C   0  0  0  0  0  0  0  0  0  0  0  0
  -18.8889    3.3415  -15.1882 C   0  0  0  0  0  0  0  0  0  0  0  0
  -17.7931    2.4823  -15.3699 C   0  0  0  0  0  0  0  0  0  0  0  0
  -17.9726    1.1101  -15.1451 C   0  0  0  0  0  0  0  0  0  0  0  0
  -19.2390    0.6460  -14.7540 C   0  0  0  0  0  0  0  0  0  0  0  0
  -20.3377    1.5258  -14.5965 C   0  0  0  0  0  0  0  0  0  0  0  0
  -16.5563    2.9346  -15.7466 O   0  0  0  0  0  0  0  0  0  0  0  0
  -16.4041    4.3219  -16.0278 C   0  0  0  0  0  0  0  0  0  0  0  0
  -17.0571    0.0966  -15.2518 O   0  0  0  0  0  0  0  0  0  0  0  0
  -16.2006   -0.1771  -14.1521 C   0  0  0  0  0  0  0  0  0  0  0  0
 15 16  1  0  0  0
 16 14  1  0  0  0
 14 13  1  0  0  0
 13  7  1  0  0  0
  7  8  1  0  0  0
  7 11  1  0  0  0
  8  9  2  0  0  0
  8 10  1  0  0  0
 10  1  1  0  0  0
 10 12  1  0  0  0
  1  2  1  0  0  0
  1  6  2  0  0  0
  2  3  2  0  0  0
  3  4  1  0  0  0
  4 17  1  0  0  0
  4  5  2  0  0  0
 17 18  1  0  0  0
 18 19  1  0  0  0
 18 27  2  0  0  0
 19 20  2  0  0  0
 20 21  1  0  0  0
 21 22  2  0  0  0
 22 23  1  0  0  0
 22 27  1  0  0  0
 23 24  2  0  0  0
 24 28  1  0  0  0
 24 25  1  0  0  0
 28 29  1  0  0  0
 25 30  1  0  0  0
 25 26  2  0  0  0
 30 31  1  0  0  0
 26 27  1  0  0  0
  5  6  1  0  0  0
M  END
> <minimizedAffinity>
-9.22890

$$$$
