CHEMBL244291


 40 43  0  0  0  0  0  0  0  0999 V2000
  -12.8413   -3.0200  -13.0495 C   0  0  0  0  0  0  0  0  0  0  0  0
  -14.1847   -2.9194  -12.7011 C   0  0  0  0  0  0  0  0  0  0  0  0
  -15.0054   -1.9817  -13.3292 C   0  0  0  0  0  0  0  0  0  0  0  0
  -14.4931   -1.0778  -14.2641 C   0  0  0  0  0  0  0  0  0  0  0  0
  -13.1208   -1.1165  -14.5374 C   0  0  0  0  0  0  0  0  0  0  0  0
  -12.2998   -2.0849  -13.9335 C   0  0  0  0  0  0  0  0  0  0  0  0
  -15.3022   -0.1467  -14.9606 N   0  0  0  0  0  0  0  0  0  0  0  0
  -16.4899    0.3954  -14.5015 C   0  0  0  0  0  0  0  0  0  0  0  0
  -16.9533    0.2216  -13.3762 O   0  0  0  0  0  0  0  0  0  0  0  0
  -17.1461    1.1401  -15.4669 N   0  0  0  0  0  0  0  0  0  0  0  0
  -14.9495    0.2145  -15.8352 H   0  0  0  0  0  0  0  0  0  0  0  0
  -17.0859    0.7622  -16.4059 H   0  0  0  0  0  0  0  0  0  0  0  0
  -18.3916    1.7515  -15.1547 C   0  0  0  0  0  0  0  0  0  0  0  0
  -19.4821    1.0057  -14.6841 C   0  0  0  0  0  0  0  0  0  0  0  0
  -20.7292    1.6134  -14.4589 C   0  0  0  0  0  0  0  0  0  0  0  0
  -20.8745    2.9844  -14.7300 C   0  0  0  0  0  0  0  0  0  0  0  0
  -19.7858    3.7375  -15.1771 C   0  0  0  0  0  0  0  0  0  0  0  0
  -18.5501    3.1231  -15.3615 C   0  0  0  0  0  0  0  0  0  0  0  0
  -17.5170    3.8505  -15.8128 F   0  0  0  0  0  0  0  0  0  0  0  0
  -21.9015    0.8150  -13.9379 C   0  0  0  0  0  0  0  0  0  0  0  0
  -22.0931   -0.3697  -14.5802 F   0  0  0  0  0  0  0  0  0  0  0  0
  -21.7580    0.5011  -12.6191 F   0  0  0  0  0  0  0  0  0  0  0  0
  -23.0796    1.4905  -14.0319 F   0  0  0  0  0  0  0  0  0  0  0  0
  -11.9944   -3.9840  -12.5418 O   0  0  0  0  0  0  0  0  0  0  0  0
  -13.1148   -8.9843  -15.4432 C   0  0  0  0  0  0  0  0  0  0  0  0
  -12.7288   -9.2147  -14.2090 N   0  0  0  0  0  0  0  0  0  0  0  0
  -12.4406   -7.9826  -13.6746 C   0  0  0  0  0  0  0  0  0  0  0  0
  -11.9179   -7.6503  -12.4171 C   0  0  0  0  0  0  0  0  0  0  0  0
  -11.7681   -6.2951  -12.0822 C   0  0  0  0  0  0  0  0  0  0  0  0
  -12.1309   -5.2900  -12.9840 C   0  0  0  0  0  0  0  0  0  0  0  0
  -12.5725   -5.6136  -14.2773 C   0  0  0  0  0  0  0  0  0  0  0  0
  -12.7475   -6.9697  -14.5773 C   0  0  0  0  0  0  0  0  0  0  0  0
  -13.2450   -7.6332  -15.6778 N   0  0  0  0  0  0  0  0  0  0  0  0
  -13.9767   -7.0110  -16.7547 C   0  0  0  0  0  0  0  0  0  0  0  0
  -12.4543  -10.3899  -17.2437 C   0  0  0  0  0  0  0  0  0  0  0  0
  -11.4391   -9.7911  -17.5779 O   0  0  0  0  0  0  0  0  0  0  0  0
  -13.3882   -9.9953  -16.3305 N   0  0  0  0  0  0  0  0  0  0  0  0
  -13.9293  -10.7605  -15.9527 H   0  0  0  0  0  0  0  0  0  0  0  0
  -14.1683  -11.7806  -18.0278 C   0  0  0  0  0  0  0  0  0  0  0  0
  -12.7866  -11.6286  -17.6974 O   0  0  0  0  0  0  0  0  0  0  0  0
 39 40  1  0  0  0
 40 35  1  0  0  0
 35 36  2  0  0  0
 35 37  1  0  0  0
 37 25  1  0  0  0
 37 38  1  0  0  0
 25 26  2  0  0  0
 25 33  1  0  0  0
 26 27  1  0  0  0
 27 28  1  0  0  0
 27 32  2  0  0  0
 28 29  2  0  0  0
 29 30  1  0  0  0
 30 24  1  0  0  0
 30 31  2  0  0  0
 24  1  1  0  0  0
  1  2  1  0  0  0
  1  6  2  0  0  0
  2  3  2  0  0  0
  3  4  1  0  0  0
  4  7  1  0  0  0
  4  5  2  0  0  0
  7  8  1  0  0  0
  7 11  1  0  0  0
  8  9  2  0  0  0
  8 10  1  0  0  0
 10 13  1  0  0  0
 10 12  1  0  0  0
 13 14  1  0  0  0
 13 18  2  0  0  0
 14 15  2  0  0  0
 15 20  1  0  0  0
 15 16  1  0  0  0
 20 21  1  0  0  0
 20 22  1  0  0  0
 20 23  1  0  0  0
 16 17  2  0  0  0
 17 18  1  0  0  0
 18 19  1  0  0  0
  5  6  1  0  0  0
 31 32  1  0  0  0
 32 33  1  0  0  0
 33 34  1  0  0  0
M  END
> <minimizedAffinity>
-9.09028

$$$$
