CHEMBL1976328


 32 35  0  0  0  0  0  0  0  0999 V2000
  -15.0709   -2.5827  -11.9967 C   0  0  0  0  0  0  0  0  0  0  0  0
  -13.7928   -2.8785  -12.4719 C   0  0  0  0  0  0  0  0  0  0  0  0
  -13.3689   -4.2070  -12.6065 C   0  0  0  0  0  0  0  0  0  0  0  0
  -14.2010   -5.2823  -12.2537 C   0  0  0  0  0  0  0  0  0  0  0  0
  -15.4401   -4.9475  -11.6688 C   0  0  0  0  0  0  0  0  0  0  0  0
  -15.8836   -3.6217  -11.5607 C   0  0  0  0  0  0  0  0  0  0  0  0
  -13.7772   -6.6918  -12.4514 C   0  0  0  0  0  0  0  0  0  0  0  0
  -14.4619   -7.5249  -13.3716 C   0  0  0  0  0  0  0  0  0  0  0  0
  -14.0372   -8.8157  -13.6761 C   0  0  0  0  0  0  0  0  0  0  0  0
  -12.8748   -9.3162  -13.1127 C   0  0  0  0  0  0  0  0  0  0  0  0
  -12.2047   -8.5274  -12.1665 C   0  0  0  0  0  0  0  0  0  0  0  0
  -10.7460   -8.8990  -11.3363 S   0  0  0  0  0  0  0  0  0  0  0  0
  -10.7584   -7.5828  -10.3552 N   0  0  0  0  0  0  0  0  0  0  0  0
  -11.8180   -6.8384  -10.6271 C   0  0  0  0  0  0  0  0  0  0  0  0
  -12.0995   -5.7694   -9.8569 N   0  0  0  0  0  0  0  0  0  0  0  0
  -12.6499   -7.2617  -11.7570 C   0  0  0  0  0  0  0  0  0  0  0  0
  -11.5683   -5.6714   -8.9956 H   0  0  0  0  0  0  0  0  0  0  0  0
  -13.0508   -5.4230   -9.7842 H   0  0  0  0  0  0  0  0  0  0  0  0
  -16.4511    0.6206  -12.9881 N   0  0  0  0  0  0  0  0  0  0  0  0
  -15.9915   -0.6710  -13.1739 C   0  0  0  0  0  0  0  0  0  0  0  0
  -15.9660   -1.2516  -14.2577 O   0  0  0  0  0  0  0  0  0  0  0  0
  -15.5714   -1.2597  -11.9894 N   0  0  0  0  0  0  0  0  0  0  0  0
  -16.0798    1.1061  -12.1859 H   0  0  0  0  0  0  0  0  0  0  0  0
  -16.1160   -0.9900  -11.1821 H   0  0  0  0  0  0  0  0  0  0  0  0
  -20.5888    2.2836  -15.1265 C   0  0  0  0  0  0  0  0  0  0  0  0
  -19.0897    2.2300  -15.0619 C   0  0  0  0  0  0  0  0  0  0  0  0
  -18.3191    2.9974  -15.9442 C   0  0  0  0  0  0  0  0  0  0  0  0
  -16.9250    2.9646  -15.8793 C   0  0  0  0  0  0  0  0  0  0  0  0
  -16.0802    3.7701  -16.8220 C   0  0  0  0  0  0  0  0  0  0  0  0
  -16.3052    2.1644  -14.9103 C   0  0  0  0  0  0  0  0  0  0  0  0
  -17.0538    1.4085  -14.0014 C   0  0  0  0  0  0  0  0  0  0  0  0
  -18.4489    1.4242  -14.1032 C   0  0  0  0  0  0  0  0  0  0  0  0
 25 26  1  0  0  0
 26 27  1  0  0  0
 26 32  2  0  0  0
 27 28  2  0  0  0
 28 29  1  0  0  0
 28 30  1  0  0  0
 30 31  2  0  0  0
 31 19  1  0  0  0
 31 32  1  0  0  0
 19 20  1  0  0  0
 19 23  1  0  0  0
 20 21  2  0  0  0
 20 22  1  0  0  0
 22  1  1  0  0  0
 22 24  1  0  0  0
  1  2  1  0  0  0
  1  6  2  0  0  0
  2  3  2  0  0  0
  3  4  1  0  0  0
  4  7  1  0  0  0
  4  5  2  0  0  0
  7  8  1  0  0  0
  7 16  2  0  0  0
  8  9  2  0  0  0
  9 10  1  0  0  0
 10 11  2  0  0  0
 11 12  1  0  0  0
 11 16  1  0  0  0
 12 13  1  0  0  0
 13 14  2  0  0  0
 14 15  1  0  0  0
 14 16  1  0  0  0
 15 17  1  0  0  0
 15 18  1  0  0  0
  5  6  1  0  0  0
M  END
> <minimizedAffinity>
-8.54538

$$$$
