CHEMBL596807


 26 29  0  0  0  0  0  0  0  0999 V2000
  -13.5926   -0.6171  -15.8996 O   0  0  0  0  0  0  0  0  0  0  0  0
  -14.0070    0.5284  -16.0783 C   0  0  0  0  0  0  0  0  0  0  0  0
  -14.3940    1.4195  -14.9206 C   0  0  0  0  0  0  0  0  0  0  0  0
  -15.8216    1.8198  -15.0192 C   0  0  0  0  0  0  0  0  0  0  0  0
  -16.7844    1.3702  -14.1420 C   0  0  0  0  0  0  0  0  0  0  0  0
  -18.0894    1.6685  -14.2491 N   0  0  0  0  0  0  0  0  0  0  0  0
  -18.4403    2.4861  -15.2491 C   0  0  0  0  0  0  0  0  0  0  0  0
  -17.5613    2.9916  -16.1370 N   0  0  0  0  0  0  0  0  0  0  0  0
  -16.2642    2.6310  -16.0386 C   0  0  0  0  0  0  0  0  0  0  0  0
  -15.3592    3.1555  -17.0863 C   0  0  0  0  0  0  0  0  0  0  0  0
  -15.5004    4.4911  -17.5166 C   0  0  0  0  0  0  0  0  0  0  0  0
  -14.6773    5.0342  -18.5072 C   0  0  0  0  0  0  0  0  0  0  0  0
  -13.7325    4.2356  -19.1386 C   0  0  0  0  0  0  0  0  0  0  0  0
  -13.5993    2.9007  -18.7671 C   0  0  0  0  0  0  0  0  0  0  0  0
  -14.3615    2.3719  -17.7135 C   0  0  0  0  0  0  0  0  0  0  0  0
  -14.0320    1.0531  -17.3428 N   0  0  0  0  0  0  0  0  0  0  0  0
  -13.5566    0.4667  -18.0197 H   0  0  0  0  0  0  0  0  0  0  0  0
  -19.7951    2.7738  -15.3685 N   0  0  0  0  0  0  0  0  0  0  0  0
  -19.9755    3.4211  -16.1267 H   0  0  0  0  0  0  0  0  0  0  0  0
  -20.8869    2.0932  -14.8210 C   0  0  0  0  0  0  0  0  0  0  0  0
  -21.9232    2.8122  -14.2129 C   0  0  0  0  0  0  0  0  0  0  0  0
  -22.9676    2.1460  -13.5610 C   0  0  0  0  0  0  0  0  0  0  0  0
  -22.9879    0.7535  -13.5267 C   0  0  0  0  0  0  0  0  0  0  0  0
  -24.2520   -0.0705  -12.7020 Cl  0  0  0  0  0  0  0  0  0  0  0  0
  -21.9822    0.0220  -14.1458 C   0  0  0  0  0  0  0  0  0  0  0  0
  -20.9368    0.6933  -14.7798 C   0  0  0  0  0  0  0  0  0  0  0  0
  1  2  2  0  0  0
  2  3  1  0  0  0
  2 16  1  0  0  0
  3  4  1  0  0  0
  4  5  1  0  0  0
  4  9  2  0  0  0
  5  6  2  0  0  0
  6  7  1  0  0  0
  7 18  1  0  0  0
  7  8  2  0  0  0
 18 20  1  0  0  0
 18 19  1  0  0  0
 20 21  1  0  0  0
 20 26  2  0  0  0
 21 22  2  0  0  0
 22 23  1  0  0  0
 23 24  1  0  0  0
 23 25  2  0  0  0
 25 26  1  0  0  0
  8  9  1  0  0  0
  9 10  1  0  0  0
 10 11  1  0  0  0
 10 15  2  0  0  0
 11 12  2  0  0  0
 12 13  1  0  0  0
 13 14  2  0  0  0
 14 15  1  0  0  0
 15 16  1  0  0  0
 16 17  1  0  0  0
M  END
> <minimizedAffinity>
-8.25280

$$$$
