CHEMBL496764


 35 39  0  0  0  0  0  0  0  0999 V2000
  -17.5996    1.8777  -15.3495 C   0  0  0  0  0  0  0  0  0  0  0  0
  -16.6185    0.9595  -15.1672 C   0  0  0  0  0  0  0  0  0  0  0  0
  -16.8417   -0.3569  -14.7515 N   0  0  0  0  0  0  0  0  0  0  0  0
  -15.2059    1.3702  -15.3931 C   0  0  0  0  0  0  0  0  0  0  0  0
  -14.1163    0.5114  -15.1658 C   0  0  0  0  0  0  0  0  0  0  0  0
  -12.7942    0.9507  -15.2990 C   0  0  0  0  0  0  0  0  0  0  0  0
  -11.7425    0.1369  -14.8611 N   0  0  0  0  0  0  0  0  0  0  0  0
  -12.5575    2.2845  -15.6291 C   0  0  0  0  0  0  0  0  0  0  0  0
  -13.6181    3.1426  -15.9163 C   0  0  0  0  0  0  0  0  0  0  0  0
  -14.9292    2.6846  -15.7891 C   0  0  0  0  0  0  0  0  0  0  0  0
  -15.9734    3.5712  -16.0425 N   0  0  0  0  0  0  0  0  0  0  0  0
  -17.2871    3.2461  -15.8797 C   0  0  0  0  0  0  0  0  0  0  0  0
  -18.1663    4.0509  -16.1742 O   0  0  0  0  0  0  0  0  0  0  0  0
  -17.7964   -0.4575  -14.3775 H   0  0  0  0  0  0  0  0  0  0  0  0
  -16.1806   -0.6699  -14.0487 H   0  0  0  0  0  0  0  0  0  0  0  0
  -11.9282   -0.8584  -14.9399 H   0  0  0  0  0  0  0  0  0  0  0  0
  -10.8331    0.3915  -15.2325 H   0  0  0  0  0  0  0  0  0  0  0  0
  -15.7854    4.5102  -16.3654 H   0  0  0  0  0  0  0  0  0  0  0  0
  -23.1662    0.2701  -13.9585 C   0  0  0  0  0  0  0  0  0  0  0  0
  -23.2501    1.6399  -13.6413 C   0  0  0  0  0  0  0  0  0  0  0  0
  -22.1750    2.5263  -13.7637 C   0  0  0  0  0  0  0  0  0  0  0  0
  -20.9921    1.9807  -14.2397 C   0  0  0  0  0  0  0  0  0  0  0  0
  -19.7577    2.5230  -14.4644 N   0  0  0  0  0  0  0  0  0  0  0  0
  -18.9416    1.5517  -14.9929 C   0  0  0  0  0  0  0  0  0  0  0  0
  -19.5961    0.4039  -15.0884 N   0  0  0  0  0  0  0  0  0  0  0  0
  -20.8563    0.6497  -14.6022 C   0  0  0  0  0  0  0  0  0  0  0  0
  -21.9479   -0.2204  -14.4525 C   0  0  0  0  0  0  0  0  0  0  0  0
  -19.4658    3.4675  -14.2445 H   0  0  0  0  0  0  0  0  0  0  0  0
  -28.2209   -1.9943  -13.3263 C   0  0  0  0  0  0  0  0  0  0  0  0
  -26.7704   -1.9826  -13.4992 N   0  0  0  0  0  0  0  0  0  0  0  0
  -26.4068   -1.3220  -14.7766 C   0  0  0  0  0  0  0  0  0  0  0  0
  -24.8758   -1.2249  -14.9847 C   0  0  0  0  0  0  0  0  0  0  0  0
  -24.2986   -0.5138  -13.8388 N   0  0  0  0  0  0  0  0  0  0  0  0
  -24.5891   -1.1559  -12.5447 C   0  0  0  0  0  0  0  0  0  0  0  0
  -26.1210   -1.2688  -12.3733 C   0  0  0  0  0  0  0  0  0  0  0  0
 29 30  1  0  0  0
 30 31  1  0  0  0
 30 35  1  0  0  0
 31 32  1  0  0  0
 32 33  1  0  0  0
 33 19  1  0  0  0
 33 34  1  0  0  0
 19 20  1  0  0  0
 19 27  2  0  0  0
 20 21  2  0  0  0
 21 22  1  0  0  0
 22 23  1  0  0  0
 22 26  2  0  0  0
 23 24  1  0  0  0
 23 28  1  0  0  0
 24  1  1  0  0  0
 24 25  2  0  0  0
  1  2  2  0  0  0
  1 12  1  0  0  0
  2  3  1  0  0  0
  2  4  1  0  0  0
  3 14  1  0  0  0
  3 15  1  0  0  0
  4  5  1  0  0  0
  4 10  2  0  0  0
  5  6  2  0  0  0
  6  7  1  0  0  0
  6  8  1  0  0  0
  7 16  1  0  0  0
  7 17  1  0  0  0
  8  9  2  0  0  0
  9 10  1  0  0  0
 10 11  1  0  0  0
 11 12  1  0  0  0
 11 18  1  0  0  0
 12 13  2  0  0  0
 25 26  1  0  0  0
 26 27  1  0  0  0
 34 35  1  0  0  0
M  END
> <minimizedAffinity>
-8.68729

$$$$
