CHEMBL233824


 27 29  0  0  0  0  0  0  0  0999 V2000
  -14.1453   -0.2860  -14.4736 N   0  0  0  0  0  0  0  0  0  0  0  0
  -14.1328    0.8886  -13.7304 C   0  0  0  0  0  0  0  0  0  0  0  0
  -14.3967    0.9704  -12.5339 O   0  0  0  0  0  0  0  0  0  0  0  0
  -13.9379   -0.1679  -15.4617 H   0  0  0  0  0  0  0  0  0  0  0  0
  -15.1308   -4.2044  -13.0812 C   0  0  0  0  0  0  0  0  0  0  0  0
  -16.1015   -3.2094  -13.2268 C   0  0  0  0  0  0  0  0  0  0  0  0
  -15.7858   -1.9311  -13.6798 C   0  0  0  0  0  0  0  0  0  0  0  0
  -14.4796   -1.5721  -13.9943 C   0  0  0  0  0  0  0  0  0  0  0  0
  -13.4811   -2.5349  -13.8230 C   0  0  0  0  0  0  0  0  0  0  0  0
  -13.8032   -3.8338  -13.3700 C   0  0  0  0  0  0  0  0  0  0  0  0
  -15.5936   -6.6408  -13.7298 C   0  0  0  0  0  0  0  0  0  0  0  0
  -15.5376   -5.6011  -12.5787 C   0  0  0  0  0  0  0  0  0  0  0  0
  -16.9400   -5.5101  -11.9478 C   0  0  0  0  0  0  0  0  0  0  0  0
  -14.5596   -6.1729  -11.5318 C   0  0  0  0  0  0  0  0  0  0  0  0
  -13.8036    2.0756  -14.5031 C   0  0  0  0  0  0  0  0  0  0  0  0
  -12.6626    2.7379  -14.3718 N   0  0  0  0  0  0  0  0  0  0  0  0
  -12.6691    3.6838  -15.3637 C   0  0  0  0  0  0  0  0  0  0  0  0
  -13.8356    3.6256  -16.0874 C   0  0  0  0  0  0  0  0  0  0  0  0
  -14.5841    2.6423  -15.4940 N   0  0  0  0  0  0  0  0  0  0  0  0
  -15.9096    2.2169  -15.9356 C   0  0  0  0  0  0  0  0  0  0  0  0
  -17.0189    3.2469  -15.6680 C   0  0  0  0  0  0  0  0  0  0  0  0
  -18.3833    2.6567  -15.3709 C   0  0  0  0  0  0  0  0  0  0  0  0
  -19.5281    3.4550  -15.2764 C   0  0  0  0  0  0  0  0  0  0  0  0
  -20.7615    2.8391  -15.0851 C   0  0  0  0  0  0  0  0  0  0  0  0
  -20.9298    1.5040  -14.9886 N   0  0  0  0  0  0  0  0  0  0  0  0
  -19.8192    0.7482  -15.0971 C   0  0  0  0  0  0  0  0  0  0  0  0
  -18.5451    1.2701  -15.2839 C   0  0  0  0  0  0  0  0  0  0  0  0
 11 12  1  0  0  0
 12 13  1  0  0  0
 12 14  1  0  0  0
 12  5  1  0  0  0
  5  6  1  0  0  0
  5 10  2  0  0  0
  6  7  2  0  0  0
  7  8  1  0  0  0
  8  1  1  0  0  0
  8  9  2  0  0  0
  1  2  1  0  0  0
  1  4  1  0  0  0
  2  3  2  0  0  0
  2 15  1  0  0  0
 15 16  2  0  0  0
 15 19  1  0  0  0
 16 17  1  0  0  0
 17 18  2  0  0  0
 18 19  1  0  0  0
 19 20  1  0  0  0
 20 21  1  0  0  0
 21 22  1  0  0  0
 22 23  1  0  0  0
 22 27  2  0  0  0
 23 24  2  0  0  0
 24 25  1  0  0  0
 25 26  2  0  0  0
 26 27  1  0  0  0
  9 10  1  0  0  0
M  END
> <minimizedAffinity>
-7.82249

$$$$
