CHEMBL3945062


 41 45  0  0  0  0  0  0  0  0999 V2000
  -13.4342   -1.8051  -14.7380 C   0  0  0  0  0  0  0  0  0  0  0  0
  -14.0010   -1.6316  -13.4855 C   0  0  0  0  0  0  0  0  0  0  0  0
  -14.8278   -2.5030  -12.8741 C   0  0  0  0  0  0  0  0  0  0  0  0
  -15.2066   -2.0219  -11.7053 N   0  0  0  0  0  0  0  0  0  0  0  0
  -15.9885   -2.7887  -10.9489 C   0  0  0  0  0  0  0  0  0  0  0  0
  -16.3861   -4.0115  -11.2660 N   0  0  0  0  0  0  0  0  0  0  0  0
  -15.9354   -4.4933  -12.4469 C   0  0  0  0  0  0  0  0  0  0  0  0
  -15.1277   -3.7420  -13.4119 C   0  0  0  0  0  0  0  0  0  0  0  0
  -14.5076   -3.9834  -14.7359 C   0  0  0  0  0  0  0  0  0  0  0  0
  -13.6570   -3.0179  -15.3860 C   0  0  0  0  0  0  0  0  0  0  0  0
  -15.8329   -5.9109  -12.4256 N   0  0  0  0  0  0  0  0  0  0  0  0
  -16.2327   -6.0038  -13.3770 H   0  0  0  0  0  0  0  0  0  0  0  0
  -14.7327   -6.8126  -12.6459 C   0  0  0  0  0  0  0  0  0  0  0  0
  -14.1318   -7.2584  -11.4558 C   0  0  0  0  0  0  0  0  0  0  0  0
  -13.2538   -8.3399  -11.4397 C   0  0  0  0  0  0  0  0  0  0  0  0
  -12.9697   -9.0186  -12.6221 C   0  0  0  0  0  0  0  0  0  0  0  0
  -11.9304  -10.3974  -12.5112 Cl  0  0  0  0  0  0  0  0  0  0  0  0
  -13.5568   -8.5950  -13.8230 C   0  0  0  0  0  0  0  0  0  0  0  0
  -13.3159   -9.4746  -15.2968 Cl  0  0  0  0  0  0  0  0  0  0  0  0
  -14.4290   -7.4863  -13.8493 C   0  0  0  0  0  0  0  0  0  0  0  0
  -13.1076   -3.3662  -16.6030 O   0  0  0  0  0  0  0  0  0  0  0  0
  -11.8364   -4.0395  -16.5488 C   0  0  0  0  0  0  0  0  0  0  0  0
  -12.7488   -0.7478  -15.3163 O   0  0  0  0  0  0  0  0  0  0  0  0
  -12.4520    0.3353  -14.4191 C   0  0  0  0  0  0  0  0  0  0  0  0
  -16.1339    1.1317  -14.3712 C   0  0  0  0  0  0  0  0  0  0  0  0
  -16.0336    1.0993  -13.1434 O   0  0  0  0  0  0  0  0  0  0  0  0
  -15.1225    1.7164  -15.1286 N   0  0  0  0  0  0  0  0  0  0  0  0
  -15.0465    1.7282  -16.5851 C   0  0  0  0  0  0  0  0  0  0  0  0
  -13.7259    1.1059  -17.0513 C   0  0  0  0  0  0  0  0  0  0  0  0
  -12.5937    1.7501  -16.4475 O   0  0  0  0  0  0  0  0  0  0  0  0
  -12.6093    1.7395  -14.9999 C   0  0  0  0  0  0  0  0  0  0  0  0
  -13.9460    2.3268  -14.4662 C   0  0  0  0  0  0  0  0  0  0  0  0
  -17.3271    0.5081  -15.1269 C   0  0  0  0  0  0  0  0  0  0  0  0
  -21.0374    1.4141  -14.7733 C   0  0  0  0  0  0  0  0  0  0  0  0
  -20.9733    2.8068  -14.8114 C   0  0  0  0  0  0  0  0  0  0  0  0
  -19.7521    3.4458  -15.0269 C   0  0  0  0  0  0  0  0  0  0  0  0
  -18.5830    2.7002  -15.1690 C   0  0  0  0  0  0  0  0  0  0  0  0
  -18.6136    1.3048  -15.0753 C   0  0  0  0  0  0  0  0  0  0  0  0
  -19.8599    0.6687  -14.9264 C   0  0  0  0  0  0  0  0  0  0  0  0
  -22.4249    0.2375  -13.2494 C   0  0  0  0  0  0  0  0  0  0  0  0
  -22.1784    0.6792  -14.5819 O   0  0  0  0  0  0  0  0  0  0  0  0
 40 41  1  0  0  0
 41 34  1  0  0  0
 34 35  1  0  0  0
 34 39  2  0  0  0
 35 36  2  0  0  0
 36 37  1  0  0  0
 37 38  2  0  0  0
 38 33  1  0  0  0
 38 39  1  0  0  0
 33 25  1  0  0  0
 25 26  2  0  0  0
 25 27  1  0  0  0
 27 28  1  0  0  0
 27 32  1  0  0  0
 28 29  1  0  0  0
 29 30  1  0  0  0
 30 31  1  0  0  0
 31 24  1  0  0  0
 31 32  1  0  0  0
 24 23  1  0  0  0
 23  1  1  0  0  0
  1  2  1  0  0  0
  1 10  2  0  0  0
  2  3  2  0  0  0
  3  4  1  0  0  0
  3  8  1  0  0  0
  4  5  2  0  0  0
  5  6  1  0  0  0
  6  7  2  0  0  0
  7 11  1  0  0  0
  7  8  1  0  0  0
 11 13  1  0  0  0
 11 12  1  0  0  0
 13 14  1  0  0  0
 13 20  2  0  0  0
 14 15  2  0  0  0
 15 16  1  0  0  0
 16 17  1  0  0  0
 16 18  2  0  0  0
 18 19  1  0  0  0
 18 20  1  0  0  0
  8  9  2  0  0  0
  9 10  1  0  0  0
 10 21  1  0  0  0
 21 22  1  0  0  0
M  END
> <minimizedAffinity>
-9.32526

$$$$
