CHEMBL3970423


 38 42  0  0  0  0  0  0  0  0999 V2000
  -14.0676   -2.3653  -13.9555 N   0  0  0  0  0  0  0  0  0  0  0  0
  -14.3560   -0.9605  -14.1595 C   0  0  0  0  0  0  0  0  0  0  0  0
  -15.4715   -0.5135  -13.4526 C   0  0  0  0  0  0  0  0  0  0  0  0
  -16.1713    0.5918  -13.9073 C   0  0  0  0  0  0  0  0  0  0  0  0
  -15.7597    1.3408  -14.9592 C   0  0  0  0  0  0  0  0  0  0  0  0
  -16.7009    2.2315  -15.2996 N   0  0  0  0  0  0  0  0  0  0  0  0
  -16.3867    3.1139  -16.2503 C   0  0  0  0  0  0  0  0  0  0  0  0
  -15.1427    3.1944  -16.8312 C   0  0  0  0  0  0  0  0  0  0  0  0
  -14.1865    2.2243  -16.5500 N   0  0  0  0  0  0  0  0  0  0  0  0
  -14.4966    1.1886  -15.5950 C   0  0  0  0  0  0  0  0  0  0  0  0
  -13.8233   -0.0595  -15.1576 C   0  0  0  0  0  0  0  0  0  0  0  0
  -15.0064    4.3866  -17.6947 C   0  0  0  0  0  0  0  0  0  0  0  0
  -15.2894    4.5145  -19.0944 C   0  0  0  0  0  0  0  0  0  0  0  0
  -14.5998    5.4945  -19.7018 N   0  0  0  0  0  0  0  0  0  0  0  0
  -13.8215    5.9868  -18.7254 N   0  0  0  0  0  0  0  0  0  0  0  0
  -12.9218    7.0931  -18.9837 C   0  0  0  0  0  0  0  0  0  0  0  0
  -13.9536    5.2919  -17.5495 C   0  0  0  0  0  0  0  0  0  0  0  0
  -13.1899   -3.5314  -10.4771 C   0  0  0  0  0  0  0  0  0  0  0  0
  -14.2914   -4.3408  -10.2025 C   0  0  0  0  0  0  0  0  0  0  0  0
  -15.2518   -4.5659  -11.1806 C   0  0  0  0  0  0  0  0  0  0  0  0
  -15.0914   -4.0005  -12.4497 C   0  0  0  0  0  0  0  0  0  0  0  0
  -14.0382   -3.1322  -12.7690 C   0  0  0  0  0  0  0  0  0  0  0  0
  -13.0676   -2.9275  -11.7562 C   0  0  0  0  0  0  0  0  0  0  0  0
  -12.3660   -3.7943   -8.2404 C   0  0  0  0  0  0  0  0  0  0  0  0
  -12.2178   -3.2286   -9.5439 O   0  0  0  0  0  0  0  0  0  0  0  0
  -16.4170   -5.2625  -11.0169 O   0  0  0  0  0  0  0  0  0  0  0  0
  -17.1362   -5.5979  -12.1956 C   0  0  0  0  0  0  0  0  0  0  0  0
  -13.3328   -2.9197  -15.1831 C   0  0  0  0  0  0  0  0  0  0  0  0
  -12.3945   -4.1395  -14.9920 C   0  0  0  0  0  0  0  0  0  0  0  0
  -12.6547   -5.3275  -15.9711 C   0  0  0  0  0  0  0  0  0  0  0  0
  -14.0459   -5.9643  -15.8966 C   0  0  0  0  0  0  0  0  0  0  0  0
  -14.2775   -6.7531  -14.6005 C   0  0  0  0  0  0  0  0  0  0  0  0
  -13.2364   -7.7680  -14.3314 N   0  0  0  0  0  0  0  0  0  0  0  0
  -11.8924   -7.1650  -14.3892 C   0  0  0  0  0  0  0  0  0  0  0  0
  -11.6398   -6.4555  -15.7212 C   0  0  0  0  0  0  0  0  0  0  0  0
  -13.4739   -8.4687  -13.0380 C   0  0  0  0  0  0  0  0  0  0  0  0
  -12.4975   -9.6391  -12.8310 C   0  0  0  0  0  0  0  0  0  0  0  0
  -13.3316   -7.5412  -11.8166 C   0  0  0  0  0  0  0  0  0  0  0  0
 24 25  1  0  0  0
 25 18  1  0  0  0
 18 19  1  0  0  0
 18 23  2  0  0  0
 19 20  2  0  0  0
 20 26  1  0  0  0
 20 21  1  0  0  0
 26 27  1  0  0  0
 21 22  2  0  0  0
 22  1  1  0  0  0
 22 23  1  0  0  0
  1 28  1  0  0  0
  1  2  1  0  0  0
 28 29  1  0  0  0
 29 30  1  0  0  0
 30 31  1  0  0  0
 30 35  1  0  0  0
 31 32  1  0  0  0
 32 33  1  0  0  0
 33 36  1  0  0  0
 33 34  1  0  0  0
 36 37  1  0  0  0
 36 38  1  0  0  0
 34 35  1  0  0  0
  2  3  1  0  0  0
  2 11  2  0  0  0
  3  4  2  0  0  0
  4  5  1  0  0  0
  5  6  1  0  0  0
  5 10  2  0  0  0
  6  7  2  0  0  0
  7  8  1  0  0  0
  8 12  1  0  0  0
  8  9  2  0  0  0
 12 13  1  0  0  0
 12 17  2  0  0  0
 13 14  2  0  0  0
 14 15  1  0  0  0
 15 16  1  0  0  0
 15 17  1  0  0  0
  9 10  1  0  0  0
 10 11  1  0  0  0
M  END
> <minimizedAffinity>
-7.15851

$$$$
