CHEMBL3671553


 35 37  0  0  0  0  0  0  0  0999 V2000
  -18.0087    1.1049  -15.3501 C   0  0  0  0  0  0  0  0  0  0  0  0
  -19.3018    0.6179  -15.1147 C   0  0  0  0  0  0  0  0  0  0  0  0
  -20.3375    1.4946  -14.7167 C   0  0  0  0  0  0  0  0  0  0  0  0
  -21.6215    1.0897  -14.3059 C   0  0  0  0  0  0  0  0  0  0  0  0
  -22.5864    1.9747  -13.9981 N   0  0  0  0  0  0  0  0  0  0  0  0
  -22.2499    3.2700  -14.0500 C   0  0  0  0  0  0  0  0  0  0  0  0
  -21.0512    3.7590  -14.3654 N   0  0  0  0  0  0  0  0  0  0  0  0
  -20.1009    2.8731  -14.6929 C   0  0  0  0  0  0  0  0  0  0  0  0
  -18.8300    3.3374  -14.9901 C   0  0  0  0  0  0  0  0  0  0  0  0
  -17.7651    2.4817  -15.3061 C   0  0  0  0  0  0  0  0  0  0  0  0
  -16.2609   -0.1969  -14.2753 C   0  0  0  0  0  0  0  0  0  0  0  0
  -15.5704   -1.2105  -14.2524 O   0  0  0  0  0  0  0  0  0  0  0  0
  -16.9550    0.1763  -15.4068 N   0  0  0  0  0  0  0  0  0  0  0  0
  -17.1025   -0.6514  -15.9783 H   0  0  0  0  0  0  0  0  0  0  0  0
  -16.3348    0.0474  -11.8688 C   0  0  0  0  0  0  0  0  0  0  0  0
  -16.4669    0.6360  -13.0646 C   0  0  0  0  0  0  0  0  0  0  0  0
  -21.8878   -0.2895  -14.1362 N   0  0  0  0  0  0  0  0  0  0  0  0
  -21.0223   -0.8105  -14.0253 H   0  0  0  0  0  0  0  0  0  0  0  0
  -22.9570   -0.8763  -13.4266 C   0  0  0  0  0  0  0  0  0  0  0  0
  -22.8269   -1.2441  -12.0832 C   0  0  0  0  0  0  0  0  0  0  0  0
  -23.9475   -1.5869  -11.3238 C   0  0  0  0  0  0  0  0  0  0  0  0
  -25.2113   -1.5841  -11.9125 C   0  0  0  0  0  0  0  0  0  0  0  0
  -26.7368   -1.9048  -10.8442 Br  0  0  0  0  0  0  0  0  0  0  0  0
  -25.3594   -1.2976  -13.2654 C   0  0  0  0  0  0  0  0  0  0  0  0
  -24.2349   -0.9434  -14.0060 C   0  0  0  0  0  0  0  0  0  0  0  0
  -24.3861   -0.6254  -15.3015 F   0  0  0  0  0  0  0  0  0  0  0  0
  -16.5655    3.1314  -15.4547 O   0  0  0  0  0  0  0  0  0  0  0  0
  -16.5717    4.3550  -16.1981 C   0  0  0  0  0  0  0  0  0  0  0  0
  -15.4817    4.2882  -17.2940 C   0  0  0  0  0  0  0  0  0  0  0  0
  -14.4400    3.2412  -16.8941 C   0  0  0  0  0  0  0  0  0  0  0  0
  -14.8602    5.6009  -17.5088 N   0  0  0  0  0  0  0  0  0  0  0  0
  -14.7275    6.1433  -18.7695 C   0  0  0  0  0  0  0  0  0  0  0  0
  -14.0772    7.5020  -18.7993 C   0  0  0  0  0  0  0  0  0  0  0  0
  -15.0789    5.5808  -19.8018 O   0  0  0  0  0  0  0  0  0  0  0  0
  -14.9068    6.2540  -16.7354 H   0  0  0  0  0  0  0  0  0  0  0  0
 15 16  2  0  0  0
 16 11  1  0  0  0
 11 12  2  0  0  0
 11 13  1  0  0  0
 13  1  1  0  0  0
 13 14  1  0  0  0
  1  2  1  0  0  0
  1 10  2  0  0  0
  2  3  2  0  0  0
  3  4  1  0  0  0
  3  8  1  0  0  0
  4 17  1  0  0  0
  4  5  2  0  0  0
 17 19  1  0  0  0
 17 18  1  0  0  0
 19 20  1  0  0  0
 19 25  2  0  0  0
 20 21  2  0  0  0
 21 22  1  0  0  0
 22 23  1  0  0  0
 22 24  2  0  0  0
 24 25  1  0  0  0
 25 26  1  0  0  0
  5  6  1  0  0  0
  6  7  2  0  0  0
  7  8  1  0  0  0
  8  9  2  0  0  0
  9 10  1  0  0  0
 10 27  1  0  0  0
 27 28  1  0  0  0
 29 31  1  0  0  0
 29 30  1  0  0  0
 29 28  1  0  0  0
 31 32  1  0  0  0
 31 35  1  0  0  0
 32 33  1  0  0  0
 32 34  2  0  0  0
M  END
> <minimizedAffinity>
-9.17331

$$$$
