CHEMBL243907


 37 40  0  0  0  0  0  0  0  0999 V2000
  -14.9765    0.1204  -14.2849 C   0  0  0  0  0  0  0  0  0  0  0  0
  -15.0334    0.4953  -15.6393 C   0  0  0  0  0  0  0  0  0  0  0  0
  -16.0687    1.2750  -16.1351 C   0  0  0  0  0  0  0  0  0  0  0  0
  -17.1514    1.5676  -15.3258 C   0  0  0  0  0  0  0  0  0  0  0  0
  -17.1566    1.1315  -13.9962 C   0  0  0  0  0  0  0  0  0  0  0  0
  -16.0691    0.4082  -13.4731 C   0  0  0  0  0  0  0  0  0  0  0  0
  -12.6561   -2.1861  -12.6398 N   0  0  0  0  0  0  0  0  0  0  0  0
  -13.8398   -1.7735  -13.2177 C   0  0  0  0  0  0  0  0  0  0  0  0
  -14.8488   -2.4724  -13.2617 O   0  0  0  0  0  0  0  0  0  0  0  0
  -13.8071   -0.4788  -13.7401 N   0  0  0  0  0  0  0  0  0  0  0  0
  -11.9732   -1.4788  -12.4117 H   0  0  0  0  0  0  0  0  0  0  0  0
  -12.9166   -0.1391  -14.0654 H   0  0  0  0  0  0  0  0  0  0  0  0
  -12.8505   -4.9088  -10.0792 C   0  0  0  0  0  0  0  0  0  0  0  0
  -12.4206   -6.0167  -10.8199 C   0  0  0  0  0  0  0  0  0  0  0  0
  -11.9920   -5.8502  -12.1284 C   0  0  0  0  0  0  0  0  0  0  0  0
  -12.0087   -4.5851  -12.7046 C   0  0  0  0  0  0  0  0  0  0  0  0
  -12.5097   -3.4659  -12.0184 C   0  0  0  0  0  0  0  0  0  0  0  0
  -12.8981   -3.6349  -10.6854 C   0  0  0  0  0  0  0  0  0  0  0  0
  -12.0895   -5.3269   -7.7172 C   0  0  0  0  0  0  0  0  0  0  0  0
  -13.2740   -5.1156   -8.6468 C   0  0  0  0  0  0  0  0  0  0  0  0
  -18.2149    2.3330  -15.7210 O   0  0  0  0  0  0  0  0  0  0  0  0
  -19.4953    2.0611  -15.2829 C   0  0  0  0  0  0  0  0  0  0  0  0
  -20.2234    3.2099  -14.9557 C   0  0  0  0  0  0  0  0  0  0  0  0
  -21.4550    3.1147  -14.3190 C   0  0  0  0  0  0  0  0  0  0  0  0
  -21.9653    1.8426  -14.0742 C   0  0  0  0  0  0  0  0  0  0  0  0
  -23.1247    1.5403  -13.4522 N   0  0  0  0  0  0  0  0  0  0  0  0
  -23.2558    0.2401  -13.5088 C   0  0  0  0  0  0  0  0  0  0  0  0
  -22.1688   -0.3306  -14.1389 N   0  0  0  0  0  0  0  0  0  0  0  0
  -21.2916    0.6974  -14.4682 C   0  0  0  0  0  0  0  0  0  0  0  0
  -20.0142    0.7639  -15.0488 C   0  0  0  0  0  0  0  0  0  0  0  0
  -22.0339   -1.3048  -14.3370 H   0  0  0  0  0  0  0  0  0  0  0  0
  -24.3640   -0.4248  -13.0397 N   0  0  0  0  0  0  0  0  0  0  0  0
  -24.1802   -1.3856  -12.0729 C   0  0  0  0  0  0  0  0  0  0  0  0
  -23.1281   -1.8773  -11.6907 O   0  0  0  0  0  0  0  0  0  0  0  0
  -25.3060   -0.1879  -13.3288 H   0  0  0  0  0  0  0  0  0  0  0  0
  -25.3829   -1.7705  -11.5479 O   0  0  0  0  0  0  0  0  0  0  0  0
  -26.4323   -1.6407  -12.5207 C   0  0  0  0  0  0  0  0  0  0  0  0
 19 20  1  0  0  0
 20 13  1  0  0  0
 13 14  1  0  0  0
 13 18  2  0  0  0
 14 15  2  0  0  0
 15 16  1  0  0  0
 16 17  2  0  0  0
 17  7  1  0  0  0
 17 18  1  0  0  0
  7  8  1  0  0  0
  7 11  1  0  0  0
  8  9  2  0  0  0
  8 10  1  0  0  0
 10  1  1  0  0  0
 10 12  1  0  0  0
  1  2  1  0  0  0
  1  6  2  0  0  0
  2  3  2  0  0  0
  3  4  1  0  0  0
  4 21  1  0  0  0
  4  5  2  0  0  0
 21 22  1  0  0  0
 22 23  1  0  0  0
 22 30  2  0  0  0
 23 24  2  0  0  0
 24 25  1  0  0  0
 25 26  1  0  0  0
 25 29  2  0  0  0
 26 27  2  0  0  0
 27 32  1  0  0  0
 27 28  1  0  0  0
 32 33  1  0  0  0
 32 35  1  0  0  0
 33 34  2  0  0  0
 33 36  1  0  0  0
 36 37  1  0  0  0
 28 29  1  0  0  0
 28 31  1  0  0  0
 29 30  1  0  0  0
  5  6  1  0  0  0
M  END
> <minimizedAffinity>
-9.15093

$$$$
