CHEMBL2088093


 29 31  0  0  0  0  0  0  0  0999 V2000
  -28.8749   -3.2154   -7.0138 C   0  0  0  0  0  0  0  0  0  0  0  0
  -28.3427   -3.4084   -8.2482 N   0  0  0  0  0  0  0  0  0  0  0  0
  -27.6192   -2.4182   -8.7953 C   0  0  0  0  0  0  0  0  0  0  0  0
  -27.3571   -1.2590   -8.1792 N   0  0  0  0  0  0  0  0  0  0  0  0
  -27.8562   -1.1116   -6.9373 C   0  0  0  0  0  0  0  0  0  0  0  0
  -28.6132   -2.0581   -6.2897 C   0  0  0  0  0  0  0  0  0  0  0  0
  -29.0582   -1.7382   -4.4772 Br  0  0  0  0  0  0  0  0  0  0  0  0
  -29.6412   -4.2918   -6.5220 N   0  0  0  0  0  0  0  0  0  0  0  0
  -30.1779   -3.9253   -5.7414 H   0  0  0  0  0  0  0  0  0  0  0  0
  -29.0928   -7.7639   -6.7573 C   0  0  0  0  0  0  0  0  0  0  0  0
  -29.8080   -6.6407   -7.1139 C   0  0  0  0  0  0  0  0  0  0  0  0
  -29.2322   -5.5761   -6.3794 C   0  0  0  0  0  0  0  0  0  0  0  0
  -28.2666   -6.0200   -5.5703 N   0  0  0  0  0  0  0  0  0  0  0  0
  -28.1979   -7.3353   -5.8172 N   0  0  0  0  0  0  0  0  0  0  0  0
  -27.4928   -7.8841   -5.3346 H   0  0  0  0  0  0  0  0  0  0  0  0
  -29.1465   -9.1849   -7.1985 C   0  0  0  0  0  0  0  0  0  0  0  0
  -30.5478   -9.7962   -7.0915 C   0  0  0  0  0  0  0  0  0  0  0  0
  -31.2094  -10.0938   -8.4364 C   0  0  0  0  0  0  0  0  0  0  0  0
  -32.8317   -8.8733   -7.2365 C   0  0  0  0  0  0  0  0  0  0  0  0
  -32.5518   -9.6092   -8.4209 O   0  0  0  0  0  0  0  0  0  0  0  0
  -27.1332   -2.6334  -10.0752 N   0  0  0  0  0  0  0  0  0  0  0  0
  -26.1747   -2.9514   -9.9892 H   0  0  0  0  0  0  0  0  0  0  0  0
  -27.3372   -1.5300  -11.0004 C   0  0  0  0  0  0  0  0  0  0  0  0
  -26.2124   -1.3515  -11.9566 C   0  0  0  0  0  0  0  0  0  0  0  0
  -24.9397   -0.8460  -11.8443 C   0  0  0  0  0  0  0  0  0  0  0  0
  -24.3937   -0.9801  -13.1389 C   0  0  0  0  0  0  0  0  0  0  0  0
  -23.0474   -0.5895  -13.6128 C   0  0  0  0  0  0  0  0  0  0  0  0
  -25.2726   -1.5367  -13.9821 N   0  0  0  0  0  0  0  0  0  0  0  0
  -26.4149   -1.7700  -13.2349 O   0  0  0  0  0  0  0  0  0  0  0  0
 19 20  1  0  0  0
 20 18  1  0  0  0
 18 17  1  0  0  0
 17 16  1  0  0  0
 16 10  1  0  0  0
 10 11  2  0  0  0
 10 14  1  0  0  0
 11 12  1  0  0  0
 12  8  1  0  0  0
 12 13  2  0  0  0
  8  1  1  0  0  0
  8  9  1  0  0  0
  1  2  1  0  0  0
  1  6  2  0  0  0
  2  3  2  0  0  0
  3 21  1  0  0  0
  3  4  1  0  0  0
 21 23  1  0  0  0
 21 22  1  0  0  0
 23 24  1  0  0  0
 24 25  2  0  0  0
 24 29  1  0  0  0
 25 26  1  0  0  0
 26 27  1  0  0  0
 26 28  2  0  0  0
 28 29  1  0  0  0
  4  5  2  0  0  0
  5  6  1  0  0  0
  6  7  1  0  0  0
 13 14  1  0  0  0
 14 15  1  0  0  0
M  END
> <minimizedAffinity>
-8.09017

$$$$
