CHEMBL496862


 39 43  0  0  0  0  0  0  0  0999 V2000
  -25.2059   10.6990  -16.6890 C   0  0  0  0  0  0  0  0  0  0  0  0
  -25.0054   11.2532  -17.9675 C   0  0  0  0  0  0  0  0  0  0  0  0
  -23.7244   11.4290  -18.4985 C   0  0  0  0  0  0  0  0  0  0  0  0
  -22.6348   11.1505  -17.6991 C   0  0  0  0  0  0  0  0  0  0  0  0
  -22.8424   10.6921  -16.3930 C   0  0  0  0  0  0  0  0  0  0  0  0
  -24.0982   10.4372  -15.8710 C   0  0  0  0  0  0  0  0  0  0  0  0
  -21.6373   10.6004  -15.7116 N   0  0  0  0  0  0  0  0  0  0  0  0
  -20.5856   11.0327  -16.4942 C   0  0  0  0  0  0  0  0  0  0  0  0
  -19.4531   11.2512  -16.0908 O   0  0  0  0  0  0  0  0  0  0  0  0
  -21.1750   11.2662  -17.8747 C   0  0  0  0  0  0  0  0  0  0  0  0
  -20.4359   11.4769  -18.9899 C   0  0  0  0  0  0  0  0  0  0  0  0
  -21.5247   10.4099  -14.7278 H   0  0  0  0  0  0  0  0  0  0  0  0
  -21.0877   11.8936  -20.2516 C   0  0  0  0  0  0  0  0  0  0  0  0
  -22.4841   12.0199  -20.2930 C   0  0  0  0  0  0  0  0  0  0  0  0
  -23.1246   12.3926  -21.4757 C   0  0  0  0  0  0  0  0  0  0  0  0
  -22.3743   12.6497  -22.6225 C   0  0  0  0  0  0  0  0  0  0  0  0
  -20.9835   12.5444  -22.5864 C   0  0  0  0  0  0  0  0  0  0  0  0
  -20.3383   12.1746  -21.4021 C   0  0  0  0  0  0  0  0  0  0  0  0
  -27.0707   11.2661  -15.0945 N   0  0  0  0  0  0  0  0  0  0  0  0
  -26.4702   12.5047  -14.6091 C   0  0  0  0  0  0  0  0  0  0  0  0
  -26.5712   10.4689  -16.1322 C   0  0  0  0  0  0  0  0  0  0  0  0
  -27.2284    9.5536  -16.6293 O   0  0  0  0  0  0  0  0  0  0  0  0
  -28.7358   11.8069  -13.3509 C   0  0  0  0  0  0  0  0  0  0  0  0
  -28.3796   10.9277  -14.5408 C   0  0  0  0  0  0  0  0  0  0  0  0
  -19.0578   11.3810  -19.1124 N   0  0  0  0  0  0  0  0  0  0  0  0
  -18.5351   12.2017  -18.8229 H   0  0  0  0  0  0  0  0  0  0  0  0
  -18.3648   10.5848  -20.0534 C   0  0  0  0  0  0  0  0  0  0  0  0
  -18.9990    9.6148  -20.8368 C   0  0  0  0  0  0  0  0  0  0  0  0
  -18.2663    8.6778  -21.5680 C   0  0  0  0  0  0  0  0  0  0  0  0
  -16.8711    8.7074  -21.5517 C   0  0  0  0  0  0  0  0  0  0  0  0
  -16.2283    9.7404  -20.8567 C   0  0  0  0  0  0  0  0  0  0  0  0
  -16.9687   10.6662  -20.1126 C   0  0  0  0  0  0  0  0  0  0  0  0
  -16.0803    7.5788  -22.1710 C   0  0  0  0  0  0  0  0  0  0  0  0
  -14.8850    7.1566  -21.4069 N   0  0  0  0  0  0  0  0  0  0  0  0
  -13.7750    8.0935  -21.6441 C   0  0  0  0  0  0  0  0  0  0  0  0
  -12.5751    7.8462  -20.7302 C   0  0  0  0  0  0  0  0  0  0  0  0
  -12.9957    7.8811  -19.2695 C   0  0  0  0  0  0  0  0  0  0  0  0
  -14.0798    6.8405  -19.0379 C   0  0  0  0  0  0  0  0  0  0  0  0
  -15.2599    7.0554  -19.9851 C   0  0  0  0  0  0  0  0  0  0  0  0
 23 24  1  0  0  0
 24 19  1  0  0  0
 19 20  1  0  0  0
 19 21  1  0  0  0
 21 22  2  0  0  0
 21  1  1  0  0  0
  1  2  1  0  0  0
  1  6  2  0  0  0
  2  3  2  0  0  0
  3  4  1  0  0  0
  4  5  2  0  0  0
  4 10  1  0  0  0
  5  6  1  0  0  0
  5  7  1  0  0  0
  7  8  1  0  0  0
  7 12  1  0  0  0
  8  9  2  0  0  0
  8 10  1  0  0  0
 10 11  2  0  0  0
 11 25  1  0  0  0
 11 13  1  0  0  0
 25 27  1  0  0  0
 25 26  1  0  0  0
 27 28  1  0  0  0
 27 32  2  0  0  0
 28 29  2  0  0  0
 29 30  1  0  0  0
 30 33  1  0  0  0
 30 31  2  0  0  0
 33 34  1  0  0  0
 34 35  1  0  0  0
 34 39  1  0  0  0
 35 36  1  0  0  0
 36 37  1  0  0  0
 37 38  1  0  0  0
 38 39  1  0  0  0
 31 32  1  0  0  0
 13 14  1  0  0  0
 13 18  2  0  0  0
 14 15  2  0  0  0
 15 16  1  0  0  0
 16 17  2  0  0  0
 17 18  1  0  0  0
M  END
> <minimizedAffinity>
-1.16145

$$$$
