CHEMBL1940869


 22 24  0  0  0  0  0  0  0  0999 V2000
  -15.1108    3.4892  -16.7610 C   0  0  0  0  0  0  0  0  0  0  0  0
  -16.2149    2.7726  -16.0271 C   0  0  0  0  0  0  0  0  0  0  0  0
  -17.5318    3.2508  -16.1109 C   0  0  0  0  0  0  0  0  0  0  0  0
  -18.5580    2.5993  -15.4342 C   0  0  0  0  0  0  0  0  0  0  0  0
  -18.2749    1.4673  -14.6738 C   0  0  0  0  0  0  0  0  0  0  0  0
  -16.9592    0.9805  -14.5796 C   0  0  0  0  0  0  0  0  0  0  0  0
  -16.6406   -0.1576  -13.8147 C   0  0  0  0  0  0  0  0  0  0  0  0
  -15.3218   -0.6220  -13.7220 C   0  0  0  0  0  0  0  0  0  0  0  0
  -14.3715    0.1338  -14.4115 C   0  0  0  0  0  0  0  0  0  0  0  0
  -12.6726   -0.1602  -14.3648 Cl  0  0  0  0  0  0  0  0  0  0  0  0
  -14.6453    1.2176  -15.1729 N   0  0  0  0  0  0  0  0  0  0  0  0
  -15.9142    1.6434  -15.2574 C   0  0  0  0  0  0  0  0  0  0  0  0
  -15.0684   -1.8183  -12.8906 C   0  0  0  0  0  0  0  0  0  0  0  0
  -15.7513   -2.0982  -11.7705 C   0  0  0  0  0  0  0  0  0  0  0  0
  -15.4654   -3.2928  -10.9020 C   0  0  0  0  0  0  0  0  0  0  0  0
  -15.3920   -3.1498   -9.6799 O   0  0  0  0  0  0  0  0  0  0  0  0
  -15.2685   -4.5643  -11.5944 C   0  0  0  0  0  0  0  0  0  0  0  0
  -16.6127   -5.3895  -12.2944 S   0  0  0  0  0  0  0  0  0  0  0  0
  -15.6325   -6.6432  -12.9020 C   0  0  0  0  0  0  0  0  0  0  0  0
  -14.3148   -6.4880  -12.5384 C   0  0  0  0  0  0  0  0  0  0  0  0
  -14.1171   -5.3035  -11.7724 C   0  0  0  0  0  0  0  0  0  0  0  0
  -12.3811   -4.8565  -11.1687 Br  0  0  0  0  0  0  0  0  0  0  0  0
  1  2  1  0  0  0
  2  3  1  0  0  0
  2 12  2  0  0  0
  3  4  2  0  0  0
  4  5  1  0  0  0
  5  6  2  0  0  0
  6  7  1  0  0  0
  6 12  1  0  0  0
  7  8  2  0  0  0
  8 13  1  0  0  0
  8  9  1  0  0  0
 13 14  2  0  0  0
 14 15  1  0  0  0
 15 16  2  0  0  0
 15 17  1  0  0  0
 17 18  1  0  0  0
 17 21  2  0  0  0
 18 19  1  0  0  0
 19 20  2  0  0  0
 20 21  1  0  0  0
 21 22  1  0  0  0
  9 10  1  0  0  0
  9 11  2  0  0  0
 11 12  1  0  0  0
M  END
> <minimizedAffinity>
-7.42040

$$$$
