CHEMBL3098312


 29 31  0  0  0  0  0  0  0  0999 V2000
  -19.6243    2.8969  -15.3779 C   0  0  0  0  0  0  0  0  0  0  0  0
  -18.5276    3.7696  -15.4377 C   0  0  0  0  0  0  0  0  0  0  0  0
  -17.2213    3.3081  -15.5106 C   0  0  0  0  0  0  0  0  0  0  0  0
  -16.2180    4.1911  -15.5271 N   0  0  0  0  0  0  0  0  0  0  0  0
  -14.9850    3.6783  -15.5499 C   0  0  0  0  0  0  0  0  0  0  0  0
  -13.6963    4.7969  -15.5742 Cl  0  0  0  0  0  0  0  0  0  0  0  0
  -14.6466    2.3904  -15.5457 N   0  0  0  0  0  0  0  0  0  0  0  0
  -15.6630    1.5134  -15.5429 C   0  0  0  0  0  0  0  0  0  0  0  0
  -17.0063    1.9258  -15.5457 C   0  0  0  0  0  0  0  0  0  0  0  0
  -18.1102    1.0405  -15.5390 C   0  0  0  0  0  0  0  0  0  0  0  0
  -19.4162    1.5166  -15.4555 C   0  0  0  0  0  0  0  0  0  0  0  0
  -21.3851    3.5630  -13.9485 C   0  0  0  0  0  0  0  0  0  0  0  0
  -20.8388    3.5243  -15.2659 O   0  0  0  0  0  0  0  0  0  0  0  0
  -15.3727    0.1225  -15.5304 N   0  0  0  0  0  0  0  0  0  0  0  0
  -14.7132   -0.0891  -16.2709 H   0  0  0  0  0  0  0  0  0  0  0  0
  -15.1839   -0.6706  -14.3790 C   0  0  0  0  0  0  0  0  0  0  0  0
  -14.1845   -1.6547  -14.3241 C   0  0  0  0  0  0  0  0  0  0  0  0
  -14.0132   -2.4491  -13.1910 C   0  0  0  0  0  0  0  0  0  0  0  0
  -14.8237   -2.2349  -12.0774 C   0  0  0  0  0  0  0  0  0  0  0  0
  -15.7797   -1.2129  -12.0845 C   0  0  0  0  0  0  0  0  0  0  0  0
  -15.9403   -0.4205  -13.2262 C   0  0  0  0  0  0  0  0  0  0  0  0
  -14.7381   -3.3574  -10.6965 S   0  0  0  0  0  0  0  0  0  0  0  0
  -13.3919   -3.2725  -10.1633 O   0  0  0  0  0  0  0  0  0  0  0  0
  -15.8895   -3.1047   -9.8579 O   0  0  0  0  0  0  0  0  0  0  0  0
  -14.9212   -4.8852  -11.4165 N   0  0  0  0  0  0  0  0  0  0  0  0
  -14.1124   -5.9842  -10.8706 C   0  0  0  0  0  0  0  0  0  0  0  0
  -16.2898   -5.2845  -11.7816 C   0  0  0  0  0  0  0  0  0  0  0  0
  -20.5014    0.6879  -15.5283 O   0  0  0  0  0  0  0  0  0  0  0  0
  -21.1453    0.3923  -14.2940 C   0  0  0  0  0  0  0  0  0  0  0  0
 12 13  1  0  0  0
 13  1  1  0  0  0
  1  2  1  0  0  0
  1 11  2  0  0  0
  2  3  2  0  0  0
  3  4  1  0  0  0
  3  9  1  0  0  0
  4  5  2  0  0  0
  5  6  1  0  0  0
  5  7  1  0  0  0
  7  8  2  0  0  0
  8 14  1  0  0  0
  8  9  1  0  0  0
 14 16  1  0  0  0
 14 15  1  0  0  0
 16 17  1  0  0  0
 16 21  2  0  0  0
 17 18  2  0  0  0
 18 19  1  0  0  0
 19 22  1  0  0  0
 19 20  2  0  0  0
 22 23  2  0  0  0
 22 24  2  0  0  0
 22 25  1  0  0  0
 25 26  1  0  0  0
 25 27  1  0  0  0
 20 21  1  0  0  0
  9 10  2  0  0  0
 10 11  1  0  0  0
 11 28  1  0  0  0
 28 29  1  0  0  0
M  END
> <minimizedAffinity>
-7.29962

$$$$
