CHEMBL3694662


 39 43  0  0  0  0  0  0  0  0999 V2000
  -28.9793   -2.0111   -5.7344 C   0  0  0  0  0  0  0  0  0  0  0  0
  -28.3748   -0.8174   -5.3618 C   0  0  0  0  0  0  0  0  0  0  0  0
  -27.6777   -0.2413   -6.3874 N   0  0  0  0  0  0  0  0  0  0  0  0
  -27.8276   -1.0603   -7.4032 C   0  0  0  0  0  0  0  0  0  0  0  0
  -27.3353   -0.9722   -8.7370 C   0  0  0  0  0  0  0  0  0  0  0  0
  -27.6303   -1.9241   -9.6555 C   0  0  0  0  0  0  0  0  0  0  0  0
  -28.4283   -3.0862   -9.2388 C   0  0  0  0  0  0  0  0  0  0  0  0
  -28.8625   -3.1920   -7.9758 C   0  0  0  0  0  0  0  0  0  0  0  0
  -28.5975   -2.1711   -7.0632 N   0  0  0  0  0  0  0  0  0  0  0  0
  -30.8002   -5.1459   -4.5673 C   0  0  0  0  0  0  0  0  0  0  0  0
  -31.1353   -4.7645   -3.2716 C   0  0  0  0  0  0  0  0  0  0  0  0
  -30.8454   -3.4782   -2.8160 C   0  0  0  0  0  0  0  0  0  0  0  0
  -30.1655   -2.5789   -3.6351 C   0  0  0  0  0  0  0  0  0  0  0  0
  -29.7706   -2.9486   -4.9263 C   0  0  0  0  0  0  0  0  0  0  0  0
  -30.1464   -4.2201   -5.3946 C   0  0  0  0  0  0  0  0  0  0  0  0
  -28.9618   -7.1407   -5.7874 O   0  0  0  0  0  0  0  0  0  0  0  0
  -30.1687   -7.2958   -5.6689 C   0  0  0  0  0  0  0  0  0  0  0  0
  -30.7829   -8.4543   -6.0951 N   0  0  0  0  0  0  0  0  0  0  0  0
  -31.0716   -6.4231   -5.1054 N   0  0  0  0  0  0  0  0  0  0  0  0
  -31.7376   -8.3560   -6.4051 H   0  0  0  0  0  0  0  0  0  0  0  0
  -32.0188   -6.7590   -5.0246 H   0  0  0  0  0  0  0  0  0  0  0  0
  -29.9748   -9.4461   -6.8237 C   0  0  0  0  0  0  0  0  0  0  0  0
  -30.0806   -9.3703   -8.3530 C   0  0  0  0  0  0  0  0  0  0  0  0
  -31.3687   -9.3953   -8.7701 F   0  0  0  0  0  0  0  0  0  0  0  0
  -29.4957   -8.2664   -8.8590 F   0  0  0  0  0  0  0  0  0  0  0  0
  -29.4714  -10.4463   -8.9110 F   0  0  0  0  0  0  0  0  0  0  0  0
  -27.1369   -1.7855  -11.0493 C   0  0  0  0  0  0  0  0  0  0  0  0
  -27.9580   -2.2378  -12.0154 N   0  0  0  0  0  0  0  0  0  0  0  0
  -27.5249   -2.0923  -13.2708 C   0  0  0  0  0  0  0  0  0  0  0  0
  -26.3097   -1.5407  -13.5783 C   0  0  0  0  0  0  0  0  0  0  0  0
  -25.5145   -1.1129  -12.5292 C   0  0  0  0  0  0  0  0  0  0  0  0
  -25.9339   -1.2125  -11.2590 N   0  0  0  0  0  0  0  0  0  0  0  0
  -24.3099   -0.5061  -12.8175 N   0  0  0  0  0  0  0  0  0  0  0  0
  -23.9961    0.8136  -12.2666 C   0  0  0  0  0  0  0  0  0  0  0  0
  -23.0561    1.5216  -13.2792 C   0  0  0  0  0  0  0  0  0  0  0  0
  -21.8284    0.7512  -13.6038 N   0  0  0  0  0  0  0  0  0  0  0  0
  -22.1999   -0.6157  -14.0345 C   0  0  0  0  0  0  0  0  0  0  0  0
  -23.1310   -1.3478  -13.0417 C   0  0  0  0  0  0  0  0  0  0  0  0
  -21.2788    0.6706  -12.7410 H   0  0  0  0  0  0  0  0  0  0  0  0
 16 17  2  0  0  0
 17 18  1  0  0  0
 17 19  1  0  0  0
 18 22  1  0  0  0
 18 20  1  0  0  0
 22 23  1  0  0  0
 23 24  1  0  0  0
 23 25  1  0  0  0
 23 26  1  0  0  0
 19 10  1  0  0  0
 19 21  1  0  0  0
 10 11  1  0  0  0
 10 15  2  0  0  0
 11 12  2  0  0  0
 12 13  1  0  0  0
 13 14  2  0  0  0
 14  1  1  0  0  0
 14 15  1  0  0  0
  1  2  2  0  0  0
  1  9  1  0  0  0
  2  3  1  0  0  0
  3  4  2  0  0  0
  4  5  1  0  0  0
  4  9  1  0  0  0
  5  6  2  0  0  0
  6 27  1  0  0  0
  6  7  1  0  0  0
 27 28  1  0  0  0
 27 32  2  0  0  0
 28 29  2  0  0  0
 29 30  1  0  0  0
 30 31  2  0  0  0
 31 33  1  0  0  0
 31 32  1  0  0  0
 33 34  1  0  0  0
 33 38  1  0  0  0
 34 35  1  0  0  0
 35 36  1  0  0  0
 36 37  1  0  0  0
 36 39  1  0  0  0
 37 38  1  0  0  0
  7  8  2  0  0  0
  8  9  1  0  0  0
M  END
> <minimizedAffinity>
-9.73202

$$$$
