CHEMBL362188


 34 37  0  0  0  0  0  0  0  0999 V2000
  -30.3338   -9.5714   -7.2485 C   0  0  0  0  0  0  0  0  0  0  0  0
  -31.3134   -8.6412   -7.5832 C   0  0  0  0  0  0  0  0  0  0  0  0
  -31.3897   -7.4327   -6.8798 C   0  0  0  0  0  0  0  0  0  0  0  0
  -30.5617   -7.1736   -5.7808 C   0  0  0  0  0  0  0  0  0  0  0  0
  -29.7023   -8.1910   -5.3513 C   0  0  0  0  0  0  0  0  0  0  0  0
  -29.5875   -9.3825   -6.0839 C   0  0  0  0  0  0  0  0  0  0  0  0
  -30.5074   -5.9211   -5.1163 N   0  0  0  0  0  0  0  0  0  0  0  0
  -29.8579   -4.7890   -5.5776 C   0  0  0  0  0  0  0  0  0  0  0  0
  -29.3449   -4.6734   -6.6853 O   0  0  0  0  0  0  0  0  0  0  0  0
  -29.8029   -3.7826   -4.6161 N   0  0  0  0  0  0  0  0  0  0  0  0
  -30.9927   -5.8419   -4.2349 H   0  0  0  0  0  0  0  0  0  0  0  0
  -29.6917   -4.1142   -3.6687 H   0  0  0  0  0  0  0  0  0  0  0  0
  -29.1814   -2.5458   -4.9281 C   0  0  0  0  0  0  0  0  0  0  0  0
  -27.7927   -2.3884   -4.8211 C   0  0  0  0  0  0  0  0  0  0  0  0
  -27.1986   -1.1423   -5.0244 C   0  0  0  0  0  0  0  0  0  0  0  0
  -27.9932   -0.0422   -5.3335 C   0  0  0  0  0  0  0  0  0  0  0  0
  -29.3721   -0.2042   -5.4689 C   0  0  0  0  0  0  0  0  0  0  0  0
  -30.3548    1.1694   -5.8064 Cl  0  0  0  0  0  0  0  0  0  0  0  0
  -29.9700   -1.4559   -5.2968 C   0  0  0  0  0  0  0  0  0  0  0  0
  -29.9910  -10.6567   -8.0223 O   0  0  0  0  0  0  0  0  0  0  0  0
  -24.9709  -11.7559   -7.1096 C   0  0  0  0  0  0  0  0  0  0  0  0
  -25.1507  -11.3534   -8.4458 C   0  0  0  0  0  0  0  0  0  0  0  0
  -26.3990  -11.0462   -8.9740 C   0  0  0  0  0  0  0  0  0  0  0  0
  -26.4522  -10.5486  -10.2208 N   0  0  0  0  0  0  0  0  0  0  0  0
  -27.6422  -10.1390  -10.6941 C   0  0  0  0  0  0  0  0  0  0  0  0
  -28.8138  -10.1861   -9.9615 C   0  0  0  0  0  0  0  0  0  0  0  0
  -28.7666  -10.7039   -8.6696 C   0  0  0  0  0  0  0  0  0  0  0  0
  -27.5365  -11.2168   -8.1667 C   0  0  0  0  0  0  0  0  0  0  0  0
  -27.3618  -11.8526   -6.9212 C   0  0  0  0  0  0  0  0  0  0  0  0
  -26.1007  -12.0407   -6.3465 C   0  0  0  0  0  0  0  0  0  0  0  0
  -22.9867  -10.6987   -6.3531 C   0  0  0  0  0  0  0  0  0  0  0  0
  -23.7254  -11.9057   -6.5591 O   0  0  0  0  0  0  0  0  0  0  0  0
  -26.2040  -12.4659   -5.0528 O   0  0  0  0  0  0  0  0  0  0  0  0
  -26.3041  -11.5227   -4.0009 C   0  0  0  0  0  0  0  0  0  0  0  0
 31 32  1  0  0  0
 32 21  1  0  0  0
 21 22  1  0  0  0
 21 30  2  0  0  0
 22 23  2  0  0  0
 23 24  1  0  0  0
 23 28  1  0  0  0
 24 25  2  0  0  0
 25 26  1  0  0  0
 26 27  2  0  0  0
 27 20  1  0  0  0
 27 28  1  0  0  0
 20  1  1  0  0  0
  1  2  1  0  0  0
  1  6  2  0  0  0
  2  3  2  0  0  0
  3  4  1  0  0  0
  4  7  1  0  0  0
  4  5  2  0  0  0
  7  8  1  0  0  0
  7 11  1  0  0  0
  8  9  2  0  0  0
  8 10  1  0  0  0
 10 13  1  0  0  0
 10 12  1  0  0  0
 13 14  1  0  0  0
 13 19  2  0  0  0
 14 15  2  0  0  0
 15 16  1  0  0  0
 16 17  2  0  0  0
 17 18  1  0  0  0
 17 19  1  0  0  0
  5  6  1  0  0  0
 28 29  2  0  0  0
 29 30  1  0  0  0
 30 33  1  0  0  0
 33 34  1  0  0  0
M  END
> <minimizedAffinity>
-8.28766

$$$$
