CHEMBL3957533


 38 42  0  0  0  0  0  0  0  0999 V2000
  -13.7693   -4.8525  -11.9623 N   0  0  0  0  0  0  0  0  0  0  0  0
  -13.9446   -3.4346  -12.2095 C   0  0  0  0  0  0  0  0  0  0  0  0
  -15.1938   -2.9429  -11.8363 C   0  0  0  0  0  0  0  0  0  0  0  0
  -15.7307   -1.8503  -12.4860 C   0  0  0  0  0  0  0  0  0  0  0  0
  -14.9946   -1.1100  -13.3738 C   0  0  0  0  0  0  0  0  0  0  0  0
  -15.7240   -0.2158  -14.0490 N   0  0  0  0  0  0  0  0  0  0  0  0
  -15.0503    0.6695  -14.7875 C   0  0  0  0  0  0  0  0  0  0  0  0
  -13.6709    0.7285  -14.7819 C   0  0  0  0  0  0  0  0  0  0  0  0
  -12.9186   -0.2729  -14.1949 N   0  0  0  0  0  0  0  0  0  0  0  0
  -13.6088   -1.2880  -13.5147 C   0  0  0  0  0  0  0  0  0  0  0  0
  -13.1118   -2.5552  -12.9623 C   0  0  0  0  0  0  0  0  0  0  0  0
  -13.1068    1.9928  -15.2601 C   0  0  0  0  0  0  0  0  0  0  0  0
  -12.1168    2.2035  -16.2585 C   0  0  0  0  0  0  0  0  0  0  0  0
  -11.6064    3.4421  -16.2420 N   0  0  0  0  0  0  0  0  0  0  0  0
  -12.2526    4.0324  -15.2230 N   0  0  0  0  0  0  0  0  0  0  0  0
  -12.1484    5.4580  -15.0167 C   0  0  0  0  0  0  0  0  0  0  0  0
  -13.0370    3.1623  -14.5139 C   0  0  0  0  0  0  0  0  0  0  0  0
  -13.8471   -6.7852  -15.1841 C   0  0  0  0  0  0  0  0  0  0  0  0
  -12.9967   -7.8511  -14.8824 C   0  0  0  0  0  0  0  0  0  0  0  0
  -12.4619   -7.9634  -13.6031 C   0  0  0  0  0  0  0  0  0  0  0  0
  -12.7840   -7.0136  -12.6232 C   0  0  0  0  0  0  0  0  0  0  0  0
  -13.6359   -5.9280  -12.8790 C   0  0  0  0  0  0  0  0  0  0  0  0
  -14.1768   -5.8478  -14.1804 C   0  0  0  0  0  0  0  0  0  0  0  0
  -13.6309   -7.0394  -17.5532 C   0  0  0  0  0  0  0  0  0  0  0  0
  -14.3687   -6.5410  -16.4340 O   0  0  0  0  0  0  0  0  0  0  0  0
  -11.5769   -8.9229  -13.1887 O   0  0  0  0  0  0  0  0  0  0  0  0
  -12.0011   -9.7813  -12.1380 C   0  0  0  0  0  0  0  0  0  0  0  0
  -14.4241   -5.2043  -10.6286 C   0  0  0  0  0  0  0  0  0  0  0  0
  -13.5449   -4.9750   -9.3548 C   0  0  0  0  0  0  0  0  0  0  0  0
  -12.0792   -4.8115   -9.6001 N   0  0  0  0  0  0  0  0  0  0  0  0
  -11.2803   -5.8522   -8.9185 C   0  0  0  0  0  0  0  0  0  0  0  0
  -11.2006   -5.6865   -7.3951 C   0  0  0  0  0  0  0  0  0  0  0  0
  -10.7002   -4.2970   -7.0008 C   0  0  0  0  0  0  0  0  0  0  0  0
  -11.5003   -3.2042   -7.7196 C   0  0  0  0  0  0  0  0  0  0  0  0
  -10.9326   -1.8846   -7.4228 N   0  0  0  0  0  0  0  0  0  0  0  0
  -11.5367   -3.4843   -9.2419 C   0  0  0  0  0  0  0  0  0  0  0  0
   -9.9469   -1.8618   -7.6828 H   0  0  0  0  0  0  0  0  0  0  0  0
  -10.9611   -1.7243   -6.4159 H   0  0  0  0  0  0  0  0  0  0  0  0
 24 25  1  0  0  0
 25 18  1  0  0  0
 18 19  1  0  0  0
 18 23  2  0  0  0
 19 20  2  0  0  0
 20 26  1  0  0  0
 20 21  1  0  0  0
 26 27  1  0  0  0
 21 22  2  0  0  0
 22  1  1  0  0  0
 22 23  1  0  0  0
  1 28  1  0  0  0
  1  2  1  0  0  0
 28 29  1  0  0  0
 29 30  1  0  0  0
 30 31  1  0  0  0
 30 36  1  0  0  0
 31 32  1  0  0  0
 32 33  1  0  0  0
 33 34  1  0  0  0
 34 35  1  0  0  0
 34 36  1  0  0  0
 35 37  1  0  0  0
 35 38  1  0  0  0
  2  3  1  0  0  0
  2 11  2  0  0  0
  3  4  2  0  0  0
  4  5  1  0  0  0
  5  6  1  0  0  0
  5 10  2  0  0  0
  6  7  2  0  0  0
  7  8  1  0  0  0
  8 12  1  0  0  0
  8  9  2  0  0  0
 12 13  1  0  0  0
 12 17  2  0  0  0
 13 14  2  0  0  0
 14 15  1  0  0  0
 15 16  1  0  0  0
 15 17  1  0  0  0
  9 10  1  0  0  0
 10 11  1  0  0  0
M  END
> <minimizedAffinity>
-7.55625

$$$$
