CHEMBL499891


 29 32  0  0  0  0  0  0  0  0999 V2000
  -29.0010   -8.1239   -6.3284 C   0  0  0  0  0  0  0  0  0  0  0  0
  -29.5827   -8.3187   -7.5734 C   0  0  0  0  0  0  0  0  0  0  0  0
  -30.8759   -7.8373   -7.5852 N   0  0  0  0  0  0  0  0  0  0  0  0
  -31.0625   -7.3069   -6.4009 C   0  0  0  0  0  0  0  0  0  0  0  0
  -29.9622   -7.4529   -5.5998 N   0  0  0  0  0  0  0  0  0  0  0  0
  -28.9820   -8.9318   -8.7492 C   0  0  0  0  0  0  0  0  0  0  0  0
  -27.6678   -8.5970   -9.1068 C   0  0  0  0  0  0  0  0  0  0  0  0
  -27.0441   -9.2147  -10.1940 C   0  0  0  0  0  0  0  0  0  0  0  0
  -27.7261  -10.1787  -10.9342 C   0  0  0  0  0  0  0  0  0  0  0  0
  -29.0335  -10.5179  -10.5918 C   0  0  0  0  0  0  0  0  0  0  0  0
  -29.6569   -9.8993   -9.5060 C   0  0  0  0  0  0  0  0  0  0  0  0
  -27.4269   -9.6801   -5.4243 C   0  0  0  0  0  0  0  0  0  0  0  0
  -27.7469   -8.4167   -5.7450 C   0  0  0  0  0  0  0  0  0  0  0  0
  -22.7070   -9.9144   -5.5443 N   0  0  0  0  0  0  0  0  0  0  0  0
  -23.8779  -10.1256   -4.8453 C   0  0  0  0  0  0  0  0  0  0  0  0
  -23.7799  -10.6651   -3.6279 N   0  0  0  0  0  0  0  0  0  0  0  0
  -24.9351  -10.8796   -2.9758 C   0  0  0  0  0  0  0  0  0  0  0  0
  -26.1691  -10.5886   -3.5030 C   0  0  0  0  0  0  0  0  0  0  0  0
  -26.1629  -10.0500   -4.7711 C   0  0  0  0  0  0  0  0  0  0  0  0
  -25.0230   -9.8175   -5.4535 N   0  0  0  0  0  0  0  0  0  0  0  0
  -21.9928  -10.5378   -5.1950 H   0  0  0  0  0  0  0  0  0  0  0  0
  -22.8988   -9.9428   -6.5356 H   0  0  0  0  0  0  0  0  0  0  0  0
  -29.9065   -7.0340   -4.2058 C   0  0  0  0  0  0  0  0  0  0  0  0
  -29.6163   -5.5620   -4.0542 C   0  0  0  0  0  0  0  0  0  0  0  0
  -30.6489   -4.6436   -3.8105 C   0  0  0  0  0  0  0  0  0  0  0  0
  -30.3693   -3.2858   -3.6480 C   0  0  0  0  0  0  0  0  0  0  0  0
  -29.0535   -2.8303   -3.7187 C   0  0  0  0  0  0  0  0  0  0  0  0
  -28.0183   -3.7315   -3.9541 C   0  0  0  0  0  0  0  0  0  0  0  0
  -28.2966   -5.0900   -4.1225 C   0  0  0  0  0  0  0  0  0  0  0  0
 14 15  1  0  0  0
 14 21  1  0  0  0
 14 22  1  0  0  0
 15 16  1  0  0  0
 15 20  2  0  0  0
 16 17  2  0  0  0
 17 18  1  0  0  0
 18 19  2  0  0  0
 19 12  1  0  0  0
 19 20  1  0  0  0
 12 13  2  0  0  0
 13  1  1  0  0  0
  1  2  2  0  0  0
  1  5  1  0  0  0
  2  6  1  0  0  0
  2  3  1  0  0  0
  6  7  1  0  0  0
  6 11  2  0  0  0
  7  8  2  0  0  0
  8  9  1  0  0  0
  9 10  2  0  0  0
 10 11  1  0  0  0
  3  4  2  0  0  0
  4  5  1  0  0  0
  5 23  1  0  0  0
 23 24  1  0  0  0
 24 25  1  0  0  0
 24 29  2  0  0  0
 25 26  2  0  0  0
 26 27  1  0  0  0
 27 28  2  0  0  0
 28 29  1  0  0  0
M  END
> <minimizedAffinity>
-8.06269

$$$$
