CHEMBL382517


 32 35  0  0  0  0  0  0  0  0999 V2000
  -29.1869   -8.5353   -6.4339 C   0  0  0  0  0  0  0  0  0  0  0  0
  -30.3783   -7.8615   -6.6972 C   0  0  0  0  0  0  0  0  0  0  0  0
  -30.6314   -6.5896   -6.1741 C   0  0  0  0  0  0  0  0  0  0  0  0
  -29.7579   -5.9977   -5.2649 C   0  0  0  0  0  0  0  0  0  0  0  0
  -28.6034   -6.6981   -4.9153 C   0  0  0  0  0  0  0  0  0  0  0  0
  -28.3038   -7.9313   -5.5230 C   0  0  0  0  0  0  0  0  0  0  0  0
  -30.1619  -11.3625   -5.3806 C   0  0  0  0  0  0  0  0  0  0  0  0
  -29.3640  -11.0351   -6.6078 C   0  0  0  0  0  0  0  0  0  0  0  0
  -28.9377  -12.3558   -7.6105 S   0  0  0  0  0  0  0  0  0  0  0  0
  -28.1852  -11.3528   -8.7429 C   0  0  0  0  0  0  0  0  0  0  0  0
  -27.6691  -11.9101   -9.8533 N   0  0  0  0  0  0  0  0  0  0  0  0
  -27.1059  -11.0092  -10.6605 C   0  0  0  0  0  0  0  0  0  0  0  0
  -26.9973   -9.6943  -10.4445 N   0  0  0  0  0  0  0  0  0  0  0  0
  -27.5148   -9.1743   -9.3163 C   0  0  0  0  0  0  0  0  0  0  0  0
  -27.3078   -7.8063   -9.1877 N   0  0  0  0  0  0  0  0  0  0  0  0
  -28.1799  -10.0112   -8.3876 C   0  0  0  0  0  0  0  0  0  0  0  0
  -28.8998   -9.8193   -7.1093 C   0  0  0  0  0  0  0  0  0  0  0  0
  -26.6501   -7.4788   -9.8883 H   0  0  0  0  0  0  0  0  0  0  0  0
  -27.1449   -7.4808   -8.2442 H   0  0  0  0  0  0  0  0  0  0  0  0
  -29.9706   -4.7194   -4.7000 N   0  0  0  0  0  0  0  0  0  0  0  0
  -29.5860   -3.5154   -5.2587 C   0  0  0  0  0  0  0  0  0  0  0  0
  -29.0887   -3.3761   -6.3728 O   0  0  0  0  0  0  0  0  0  0  0  0
  -29.7718   -2.4539   -4.3842 N   0  0  0  0  0  0  0  0  0  0  0  0
  -30.5277   -4.6712   -3.8598 H   0  0  0  0  0  0  0  0  0  0  0  0
  -29.6148   -2.6825   -3.4130 H   0  0  0  0  0  0  0  0  0  0  0  0
  -29.4426   -1.1357   -4.7794 C   0  0  0  0  0  0  0  0  0  0  0  0
  -28.1627   -0.6501   -4.5099 C   0  0  0  0  0  0  0  0  0  0  0  0
  -27.7862    0.6162   -4.9610 C   0  0  0  0  0  0  0  0  0  0  0  0
  -28.7056    1.4184   -5.6398 C   0  0  0  0  0  0  0  0  0  0  0  0
  -29.9939    0.9482   -5.8742 C   0  0  0  0  0  0  0  0  0  0  0  0
  -31.1338    1.9486   -6.6905 Cl  0  0  0  0  0  0  0  0  0  0  0  0
  -30.3659   -0.3259   -5.4547 C   0  0  0  0  0  0  0  0  0  0  0  0
  7  8  1  0  0  0
  8  9  1  0  0  0
  8 17  2  0  0  0
  9 10  1  0  0  0
 10 11  1  0  0  0
 10 16  2  0  0  0
 11 12  2  0  0  0
 12 13  1  0  0  0
 13 14  2  0  0  0
 14 15  1  0  0  0
 14 16  1  0  0  0
 15 18  1  0  0  0
 15 19  1  0  0  0
 16 17  1  0  0  0
 17  1  1  0  0  0
  1  2  1  0  0  0
  1  6  2  0  0  0
  2  3  2  0  0  0
  3  4  1  0  0  0
  4 20  1  0  0  0
  4  5  2  0  0  0
 20 21  1  0  0  0
 20 24  1  0  0  0
 21 22  2  0  0  0
 21 23  1  0  0  0
 23 26  1  0  0  0
 23 25  1  0  0  0
 26 27  1  0  0  0
 26 32  2  0  0  0
 27 28  2  0  0  0
 28 29  1  0  0  0
 29 30  2  0  0  0
 30 31  1  0  0  0
 30 32  1  0  0  0
  5  6  1  0  0  0
M  END
> <minimizedAffinity>
-8.63788

$$$$
