CHEMBL1794070


 37 41  0  0  0  0  0  0  0  0999 V2000
  -27.1011  -10.3690   -5.8197 C   0  0  0  0  0  0  0  0  0  0  0  0
  -27.8432   -9.3912   -6.5318 C   0  0  0  0  0  0  0  0  0  0  0  0
  -28.8402   -8.8489   -5.7568 C   0  0  0  0  0  0  0  0  0  0  0  0
  -28.8020   -9.4124   -4.1605 S   0  0  0  0  0  0  0  0  0  0  0  0
  -27.4621  -10.4464   -4.4859 C   0  0  0  0  0  0  0  0  0  0  0  0
  -29.8736   -8.0186   -6.2120 N   0  0  0  0  0  0  0  0  0  0  0  0
  -31.0650   -8.3903   -6.8056 C   0  0  0  0  0  0  0  0  0  0  0  0
  -31.5915   -7.4155   -7.5200 N   0  0  0  0  0  0  0  0  0  0  0  0
  -30.7964   -6.3257   -7.2773 C   0  0  0  0  0  0  0  0  0  0  0  0
  -30.8415   -5.0249   -7.8076 C   0  0  0  0  0  0  0  0  0  0  0  0
  -29.9419   -4.0469   -7.3333 C   0  0  0  0  0  0  0  0  0  0  0  0
  -29.0668   -4.3425   -6.2982 C   0  0  0  0  0  0  0  0  0  0  0  0
  -28.9979   -5.6446   -5.7873 C   0  0  0  0  0  0  0  0  0  0  0  0
  -29.8171   -6.6352   -6.3450 C   0  0  0  0  0  0  0  0  0  0  0  0
  -28.2194   -3.5013   -5.6592 O   0  0  0  0  0  0  0  0  0  0  0  0
  -28.3606   -3.0678   -4.3032 C   0  0  0  0  0  0  0  0  0  0  0  0
  -29.6585   -2.2883   -4.1042 C   0  0  0  0  0  0  0  0  0  0  0  0
  -29.7932   -1.2177   -5.1838 C   0  0  0  0  0  0  0  0  0  0  0  0
  -28.6198   -0.3383   -5.3373 N   0  0  0  0  0  0  0  0  0  0  0  0
  -28.6561    0.2334   -6.6877 C   0  0  0  0  0  0  0  0  0  0  0  0
  -27.3010   -0.9605   -5.1474 C   0  0  0  0  0  0  0  0  0  0  0  0
  -27.2392   -2.0496   -4.0765 C   0  0  0  0  0  0  0  0  0  0  0  0
  -26.9198  -11.2750   -3.4224 C   0  0  0  0  0  0  0  0  0  0  0  0
  -27.6998  -12.3271   -3.0223 N   0  0  0  0  0  0  0  0  0  0  0  0
  -25.8364  -11.1037   -2.8702 O   0  0  0  0  0  0  0  0  0  0  0  0
  -28.5696  -12.5487   -3.4954 H   0  0  0  0  0  0  0  0  0  0  0  0
  -27.3421  -12.9493   -2.3148 H   0  0  0  0  0  0  0  0  0  0  0  0
  -26.1293  -11.1740   -6.3124 O   0  0  0  0  0  0  0  0  0  0  0  0
  -25.9454  -11.3344   -8.7732 C   0  0  0  0  0  0  0  0  0  0  0  0
  -25.4268  -10.7006   -7.4733 C   0  0  0  0  0  0  0  0  0  0  0  0
  -23.9829  -11.1043   -7.2306 C   0  0  0  0  0  0  0  0  0  0  0  0
  -23.3849  -12.0485   -8.0780 C   0  0  0  0  0  0  0  0  0  0  0  0
  -22.0668  -12.4657   -7.8967 C   0  0  0  0  0  0  0  0  0  0  0  0
  -21.3126  -11.9361   -6.8615 C   0  0  0  0  0  0  0  0  0  0  0  0
  -21.8839  -11.0019   -5.9956 C   0  0  0  0  0  0  0  0  0  0  0  0
  -23.2081  -10.6058   -6.1749 C   0  0  0  0  0  0  0  0  0  0  0  0
  -23.8292   -9.5146   -5.0113 Cl  0  0  0  0  0  0  0  0  0  0  0  0
 29 30  1  0  0  0
 30 28  1  0  0  0
 30 31  1  0  0  0
 28  1  1  0  0  0
  1  2  1  0  0  0
  1  5  2  0  0  0
  2  3  2  0  0  0
  3  6  1  0  0  0
  3  4  1  0  0  0
  6  7  1  0  0  0
  6 14  1  0  0  0
  7  8  2  0  0  0
  8  9  1  0  0  0
  9 10  1  0  0  0
  9 14  2  0  0  0
 10 11  2  0  0  0
 11 12  1  0  0  0
 12 15  1  0  0  0
 12 13  2  0  0  0
 15 16  1  0  0  0
 16 17  1  0  0  0
 16 22  1  0  0  0
 17 18  1  0  0  0
 18 19  1  0  0  0
 19 20  1  0  0  0
 19 21  1  0  0  0
 21 22  1  0  0  0
 13 14  1  0  0  0
  4  5  1  0  0  0
  5 23  1  0  0  0
 23 24  1  0  0  0
 23 25  2  0  0  0
 24 26  1  0  0  0
 24 27  1  0  0  0
 31 32  1  0  0  0
 31 36  2  0  0  0
 32 33  2  0  0  0
 33 34  1  0  0  0
 34 35  2  0  0  0
 35 36  1  0  0  0
 36 37  1  0  0  0
M  END
> <minimizedAffinity>
-7.26330

$$$$
