CHEMBL212183


 36 39  0  0  0  0  0  0  0  0999 V2000
  -28.9432   -4.5372   -7.1290 C   0  0  0  0  0  0  0  0  0  0  0  0
  -28.6917   -3.8881   -8.3682 C   0  0  0  0  0  0  0  0  0  0  0  0
  -28.1782   -2.5848   -8.4331 C   0  0  0  0  0  0  0  0  0  0  0  0
  -27.9392   -1.8918   -7.2479 C   0  0  0  0  0  0  0  0  0  0  0  0
  -28.1981   -2.4840   -6.0213 C   0  0  0  0  0  0  0  0  0  0  0  0
  -28.6754   -3.8061   -5.9373 C   0  0  0  0  0  0  0  0  0  0  0  0
  -28.8406   -4.3536   -4.5406 C   0  0  0  0  0  0  0  0  0  0  0  0
  -32.0340  -10.2029   -7.3283 C   0  0  0  0  0  0  0  0  0  0  0  0
  -32.9832   -9.2584   -7.3003 N   0  0  0  0  0  0  0  0  0  0  0  0
  -32.5602   -7.9899   -7.2598 C   0  0  0  0  0  0  0  0  0  0  0  0
  -31.2251   -7.6239   -7.2355 C   0  0  0  0  0  0  0  0  0  0  0  0
  -30.7833   -6.2873   -7.2480 C   0  0  0  0  0  0  0  0  0  0  0  0
  -29.4249   -5.9508   -7.1474 C   0  0  0  0  0  0  0  0  0  0  0  0
  -28.5308   -7.0342   -7.0861 C   0  0  0  0  0  0  0  0  0  0  0  0
  -28.9754   -8.3648   -7.1356 C   0  0  0  0  0  0  0  0  0  0  0  0
  -30.3213   -8.6781   -7.2080 C   0  0  0  0  0  0  0  0  0  0  0  0
  -30.7189   -9.9552   -7.2585 N   0  0  0  0  0  0  0  0  0  0  0  0
  -33.5256  -11.8694   -6.5050 C   0  0  0  0  0  0  0  0  0  0  0  0
  -32.4962  -11.5014   -7.4478 N   0  0  0  0  0  0  0  0  0  0  0  0
  -32.7172  -11.6371   -8.4274 H   0  0  0  0  0  0  0  0  0  0  0  0
  -27.7680   -1.9209   -9.6995 C   0  0  0  0  0  0  0  0  0  0  0  0
  -28.2790   -0.8311   -9.9376 O   0  0  0  0  0  0  0  0  0  0  0  0
  -26.8933   -2.6059  -10.5388 N   0  0  0  0  0  0  0  0  0  0  0  0
  -26.7128   -3.5749  -10.3167 H   0  0  0  0  0  0  0  0  0  0  0  0
  -26.4219   -2.1216  -11.7952 C   0  0  0  0  0  0  0  0  0  0  0  0
  -27.2291   -2.1924  -12.9331 C   0  0  0  0  0  0  0  0  0  0  0  0
  -26.7705   -1.7696  -14.1753 C   0  0  0  0  0  0  0  0  0  0  0  0
  -25.4886   -1.2458  -14.3171 C   0  0  0  0  0  0  0  0  0  0  0  0
  -25.0663   -0.7736  -15.9245 Cl  0  0  0  0  0  0  0  0  0  0  0  0
  -24.6403   -1.1262  -13.2024 C   0  0  0  0  0  0  0  0  0  0  0  0
  -25.1225   -1.5608  -11.9158 C   0  0  0  0  0  0  0  0  0  0  0  0
  -24.2481   -1.4626  -10.6832 C   0  0  0  0  0  0  0  0  0  0  0  0
  -23.2402   -0.5605  -13.3404 C   0  0  0  0  0  0  0  0  0  0  0  0
  -22.5409   -0.3518  -12.1943 F   0  0  0  0  0  0  0  0  0  0  0  0
  -22.4403   -1.3685  -14.0965 F   0  0  0  0  0  0  0  0  0  0  0  0
  -23.2397    0.6520  -13.9693 F   0  0  0  0  0  0  0  0  0  0  0  0
 18 19  1  0  0  0
 19  8  1  0  0  0
 19 20  1  0  0  0
  8  9  1  0  0  0
  8 17  2  0  0  0
  9 10  2  0  0  0
 10 11  1  0  0  0
 11 12  1  0  0  0
 11 16  2  0  0  0
 12 13  2  0  0  0
 13  1  1  0  0  0
 13 14  1  0  0  0
  1  2  1  0  0  0
  1  6  2  0  0  0
  2  3  2  0  0  0
  3 21  1  0  0  0
  3  4  1  0  0  0
 21 22  2  0  0  0
 21 23  1  0  0  0
 23 25  1  0  0  0
 23 24  1  0  0  0
 25 26  1  0  0  0
 25 31  2  0  0  0
 26 27  2  0  0  0
 27 28  1  0  0  0
 28 29  1  0  0  0
 28 30  2  0  0  0
 30 33  1  0  0  0
 30 31  1  0  0  0
 33 34  1  0  0  0
 33 35  1  0  0  0
 33 36  1  0  0  0
 31 32  1  0  0  0
  4  5  2  0  0  0
  5  6  1  0  0  0
  6  7  1  0  0  0
 14 15  2  0  0  0
 15 16  1  0  0  0
 16 17  1  0  0  0
M  END
> <minimizedAffinity>
-10.86932

$$$$
