CHEMBL2377456


 34 39  0  0  0  0  0  0  0  0999 V2000
  -24.8423  -12.0495   -7.3930 O   0  0  0  0  0  0  0  0  0  0  0  0
  -25.1327  -11.4348   -6.3692 C   0  0  0  0  0  0  0  0  0  0  0  0
  -24.4328  -11.6384   -5.2042 N   0  0  0  0  0  0  0  0  0  0  0  0
  -24.7248  -11.0036   -4.0050 C   0  0  0  0  0  0  0  0  0  0  0  0
  -25.6640  -10.1143   -3.8493 N   0  0  0  0  0  0  0  0  0  0  0  0
  -26.4012   -9.8427   -5.0150 C   0  0  0  0  0  0  0  0  0  0  0  0
  -27.4671   -8.9169   -5.0856 C   0  0  0  0  0  0  0  0  0  0  0  0
  -28.0622   -8.9379   -6.3353 C   0  0  0  0  0  0  0  0  0  0  0  0
  -27.3012  -10.0621   -7.3896 S   0  0  0  0  0  0  0  0  0  0  0  0
  -26.1778  -10.4826   -6.2005 C   0  0  0  0  0  0  0  0  0  0  0  0
  -23.7295  -12.3597   -5.2677 H   0  0  0  0  0  0  0  0  0  0  0  0
  -29.2483   -8.1202   -6.7285 C   0  0  0  0  0  0  0  0  0  0  0  0
  -29.1856   -6.7734   -7.0086 C   0  0  0  0  0  0  0  0  0  0  0  0
  -30.4294   -6.3658   -7.4222 N   0  0  0  0  0  0  0  0  0  0  0  0
  -31.3288   -7.4095   -7.3124 C   0  0  0  0  0  0  0  0  0  0  0  0
  -32.7134   -7.4639   -7.5444 C   0  0  0  0  0  0  0  0  0  0  0  0
  -33.3755   -8.6744   -7.3211 C   0  0  0  0  0  0  0  0  0  0  0  0
  -32.6835   -9.7975   -6.8845 C   0  0  0  0  0  0  0  0  0  0  0  0
  -31.3047   -9.7385   -6.6656 C   0  0  0  0  0  0  0  0  0  0  0  0
  -30.6046   -8.5317   -6.8870 C   0  0  0  0  0  0  0  0  0  0  0  0
  -30.7117   -5.0388   -7.9641 C   0  0  0  0  0  0  0  0  0  0  0  0
  -29.8969   -3.9672   -7.2865 C   0  0  0  0  0  0  0  0  0  0  0  0
  -30.2638   -3.4752   -6.0242 C   0  0  0  0  0  0  0  0  0  0  0  0
  -29.5381   -2.4464   -5.4244 C   0  0  0  0  0  0  0  0  0  0  0  0
  -28.4283   -1.9085   -6.0708 C   0  0  0  0  0  0  0  0  0  0  0  0
  -28.0324   -2.4110   -7.3084 C   0  0  0  0  0  0  0  0  0  0  0  0
  -28.7594   -3.4379   -7.9125 C   0  0  0  0  0  0  0  0  0  0  0  0
  -23.8999  -11.4482   -2.8475 C   0  0  0  0  0  0  0  0  0  0  0  0
  -24.5004  -11.9768   -1.6958 C   0  0  0  0  0  0  0  0  0  0  0  0
  -23.7201  -12.2947   -0.5815 C   0  0  0  0  0  0  0  0  0  0  0  0
  -22.3405  -12.0989   -0.6225 C   0  0  0  0  0  0  0  0  0  0  0  0
  -21.3889  -12.4654    0.7622 Cl  0  0  0  0  0  0  0  0  0  0  0  0
  -21.7311  -11.6049   -1.7757 C   0  0  0  0  0  0  0  0  0  0  0  0
  -22.5096  -11.2837   -2.8924 C   0  0  0  0  0  0  0  0  0  0  0  0
  1  2  2  0  0  0
  2  3  1  0  0  0
  2 10  1  0  0  0
  3  4  1  0  0  0
  3 11  1  0  0  0
  4 28  1  0  0  0
  4  5  2  0  0  0
 28 29  1  0  0  0
 28 34  2  0  0  0
 29 30  2  0  0  0
 30 31  1  0  0  0
 31 32  1  0  0  0
 31 33  2  0  0  0
 33 34  1  0  0  0
  5  6  1  0  0  0
  6  7  1  0  0  0
  6 10  2  0  0  0
  7  8  2  0  0  0
  8 12  1  0  0  0
  8  9  1  0  0  0
 12 13  2  0  0  0
 12 20  1  0  0  0
 13 14  1  0  0  0
 14 21  1  0  0  0
 14 15  1  0  0  0
 21 22  1  0  0  0
 22 23  1  0  0  0
 22 27  2  0  0  0
 23 24  2  0  0  0
 24 25  1  0  0  0
 25 26  2  0  0  0
 26 27  1  0  0  0
 15 16  1  0  0  0
 15 20  2  0  0  0
 16 17  2  0  0  0
 17 18  1  0  0  0
 18 19  2  0  0  0
 19 20  1  0  0  0
  9 10  1  0  0  0
M  END
> <minimizedAffinity>
-6.21342

$$$$
