CHEMBL3938361


 40 45  0  0  0  0  0  0  0  0999 V2000
  -28.3761   -2.7380   -6.2894 C   0  0  0  0  0  0  0  0  0  0  0  0
  -27.6507   -1.7586   -5.5773 C   0  0  0  0  0  0  0  0  0  0  0  0
  -27.9444   -1.4517   -4.2509 C   0  0  0  0  0  0  0  0  0  0  0  0
  -28.9752   -2.1194   -3.6081 C   0  0  0  0  0  0  0  0  0  0  0  0
  -29.6741   -3.1240   -4.2779 C   0  0  0  0  0  0  0  0  0  0  0  0
  -29.3788   -3.4566   -5.6158 C   0  0  0  0  0  0  0  0  0  0  0  0
  -27.5797   -1.6895   -8.3907 N   0  0  0  0  0  0  0  0  0  0  0  0
  -28.0275   -2.8241   -7.7414 C   0  0  0  0  0  0  0  0  0  0  0  0
  -28.1603   -3.9261   -8.2669 O   0  0  0  0  0  0  0  0  0  0  0  0
  -27.4249   -0.8616   -7.8255 H   0  0  0  0  0  0  0  0  0  0  0  0
  -24.8615   -1.2167  -15.7491 C   0  0  0  0  0  0  0  0  0  0  0  0
  -25.0948   -1.2593  -14.2669 C   0  0  0  0  0  0  0  0  0  0  0  0
  -24.0217   -1.2175  -13.3851 C   0  0  0  0  0  0  0  0  0  0  0  0
  -24.2879   -1.2885  -12.0264 C   0  0  0  0  0  0  0  0  0  0  0  0
  -25.6036   -1.3967  -11.5797 C   0  0  0  0  0  0  0  0  0  0  0  0
  -25.9090   -1.4836  -10.2060 C   0  0  0  0  0  0  0  0  0  0  0  0
  -27.2231   -1.6009   -9.7569 C   0  0  0  0  0  0  0  0  0  0  0  0
  -28.2430   -1.6439  -10.7138 C   0  0  0  0  0  0  0  0  0  0  0  0
  -27.9409   -1.5469  -12.0807 C   0  0  0  0  0  0  0  0  0  0  0  0
  -26.6360   -1.4261  -12.5356 C   0  0  0  0  0  0  0  0  0  0  0  0
  -26.3796   -1.3606  -13.8621 N   0  0  0  0  0  0  0  0  0  0  0  0
  -30.2642   -4.8541   -6.2605 S   0  0  0  0  0  0  0  0  0  0  0  0
  -29.5140   -6.2950   -5.5255 C   0  0  0  0  0  0  0  0  0  0  0  0
  -29.8067   -6.8309   -4.2618 C   0  0  0  0  0  0  0  0  0  0  0  0
  -29.0590   -7.9098   -3.7286 C   0  0  0  0  0  0  0  0  0  0  0  0
  -28.1109   -8.5400   -4.5560 C   0  0  0  0  0  0  0  0  0  0  0  0
  -27.1088   -9.5726   -4.5190 C   0  0  0  0  0  0  0  0  0  0  0  0
  -27.2195  -10.2184   -5.7026 N   0  0  0  0  0  0  0  0  0  0  0  0
  -27.4603   -9.1822   -6.5321 N   0  0  0  0  0  0  0  0  0  0  0  0
  -28.0498   -8.1289   -5.8839 C   0  0  0  0  0  0  0  0  0  0  0  0
  -28.5849   -6.9363   -6.3530 C   0  0  0  0  0  0  0  0  0  0  0  0
  -27.3147   -9.3103   -7.5219 H   0  0  0  0  0  0  0  0  0  0  0  0
  -25.7169   -9.4506   -4.0946 C   0  0  0  0  0  0  0  0  0  0  0  0
  -24.6631   -9.7662   -4.8675 C   0  0  0  0  0  0  0  0  0  0  0  0
  -23.4792  -10.4913   -4.3380 C   0  0  0  0  0  0  0  0  0  0  0  0
  -22.5701  -11.0767   -5.2196 C   0  0  0  0  0  0  0  0  0  0  0  0
  -21.6070  -11.9553   -4.7178 C   0  0  0  0  0  0  0  0  0  0  0  0
  -21.5674  -12.2385   -3.3581 C   0  0  0  0  0  0  0  0  0  0  0  0
  -22.5036  -11.6094   -2.5479 C   0  0  0  0  0  0  0  0  0  0  0  0
  -23.4431  -10.7454   -3.0098 N   0  0  0  0  0  0  0  0  0  0  0  0
 11 12  1  0  0  0
 12 13  1  0  0  0
 12 21  2  0  0  0
 13 14  2  0  0  0
 14 15  1  0  0  0
 15 16  1  0  0  0
 15 20  2  0  0  0
 16 17  2  0  0  0
 17  7  1  0  0  0
 17 18  1  0  0  0
  7  8  1  0  0  0
  7 10  1  0  0  0
  8  9  2  0  0  0
  8  1  1  0  0  0
  1  2  1  0  0  0
  1  6  2  0  0  0
  2  3  2  0  0  0
  3  4  1  0  0  0
  4  5  2  0  0  0
  5  6  1  0  0  0
  6 22  1  0  0  0
 22 23  1  0  0  0
 23 24  1  0  0  0
 23 31  2  0  0  0
 24 25  2  0  0  0
 25 26  1  0  0  0
 26 27  1  0  0  0
 26 30  2  0  0  0
 27 33  1  0  0  0
 27 28  2  0  0  0
 33 34  2  0  0  0
 34 35  1  0  0  0
 35 36  1  0  0  0
 35 40  2  0  0  0
 36 37  2  0  0  0
 37 38  1  0  0  0
 38 39  2  0  0  0
 39 40  1  0  0  0
 28 29  1  0  0  0
 29 30  1  0  0  0
 29 32  1  0  0  0
 30 31  1  0  0  0
 18 19  2  0  0  0
 19 20  1  0  0  0
 20 21  1  0  0  0
M  END
> <minimizedAffinity>
-10.75697

$$$$
