CHEMBL1241948


 27 29  0  0  0  0  0  0  0  0999 V2000
  -28.9765   -0.8695   -6.0563 N   0  0  0  0  0  0  0  0  0  0  0  0
  -29.5793   -1.6799   -5.1568 N   0  0  0  0  0  0  0  0  0  0  0  0
  -29.3975   -2.9198   -5.6480 C   0  0  0  0  0  0  0  0  0  0  0  0
  -28.7298   -2.8844   -6.9125 C   0  0  0  0  0  0  0  0  0  0  0  0
  -28.3023   -3.7750   -7.9101 C   0  0  0  0  0  0  0  0  0  0  0  0
  -28.4892   -5.1501   -7.8946 N   0  0  0  0  0  0  0  0  0  0  0  0
  -27.6651   -3.2790   -8.9915 N   0  0  0  0  0  0  0  0  0  0  0  0
  -27.4718   -1.9531   -9.0757 C   0  0  0  0  0  0  0  0  0  0  0  0
  -27.8429   -1.0056   -8.2001 N   0  0  0  0  0  0  0  0  0  0  0  0
  -28.4695   -1.5405   -7.1348 C   0  0  0  0  0  0  0  0  0  0  0  0
  -29.3536   -5.4621   -7.4720 H   0  0  0  0  0  0  0  0  0  0  0  0
  -28.2826   -5.5464   -8.8051 H   0  0  0  0  0  0  0  0  0  0  0  0
  -29.8820   -4.0757   -4.8882 C   0  0  0  0  0  0  0  0  0  0  0  0
  -31.2312   -4.1971   -4.5317 C   0  0  0  0  0  0  0  0  0  0  0  0
  -31.6778   -5.2945   -3.7929 C   0  0  0  0  0  0  0  0  0  0  0  0
  -30.7883   -6.3092   -3.4473 C   0  0  0  0  0  0  0  0  0  0  0  0
  -29.4481   -6.2092   -3.8126 C   0  0  0  0  0  0  0  0  0  0  0  0
  -28.9926   -5.1003   -4.5273 C   0  0  0  0  0  0  0  0  0  0  0  0
  -28.5468   -7.2500   -3.4650 N   0  0  0  0  0  0  0  0  0  0  0  0
  -27.6077   -6.9822   -3.1628 H   0  0  0  0  0  0  0  0  0  0  0  0
  -28.5916   -8.7025   -4.3055 S   0  0  0  0  0  0  0  0  0  0  0  0
  -26.8677   -9.0589   -4.6032 C   0  0  0  0  0  0  0  0  0  0  0  0
  -29.0759   -9.6852   -3.3601 O   0  0  0  0  0  0  0  0  0  0  0  0
  -29.2494   -8.4992   -5.5787 O   0  0  0  0  0  0  0  0  0  0  0  0
  -30.3197    1.1754   -5.6980 C   0  0  0  0  0  0  0  0  0  0  0  0
  -28.9203    0.5699   -5.8153 C   0  0  0  0  0  0  0  0  0  0  0  0
  -28.0819    0.8975   -4.5783 C   0  0  0  0  0  0  0  0  0  0  0  0
 25 26  1  0  0  0
 26 27  1  0  0  0
 26  1  1  0  0  0
  1  2  1  0  0  0
  1 10  1  0  0  0
  2  3  2  0  0  0
  3 13  1  0  0  0
  3  4  1  0  0  0
 13 14  1  0  0  0
 13 18  2  0  0  0
 14 15  2  0  0  0
 15 16  1  0  0  0
 16 17  2  0  0  0
 17 19  1  0  0  0
 17 18  1  0  0  0
 19 21  1  0  0  0
 19 20  1  0  0  0
 21 22  1  0  0  0
 21 23  2  0  0  0
 21 24  2  0  0  0
  4  5  1  0  0  0
  4 10  2  0  0  0
  5  6  1  0  0  0
  5  7  2  0  0  0
  6 11  1  0  0  0
  6 12  1  0  0  0
  7  8  1  0  0  0
  8  9  2  0  0  0
  9 10  1  0  0  0
M  END
> <minimizedAffinity>
-8.32583

$$$$
