CHEMBL3905212


 35 39  0  0  0  0  0  0  0  0999 V2000
  -27.9830   -2.3140   -8.4211 N   0  0  0  0  0  0  0  0  0  0  0  0
  -27.5195   -1.6546   -9.6240 C   0  0  0  0  0  0  0  0  0  0  0  0
  -28.3970   -1.7483  -10.7043 C   0  0  0  0  0  0  0  0  0  0  0  0
  -27.9073   -1.7740  -11.9912 C   0  0  0  0  0  0  0  0  0  0  0  0
  -26.5784   -1.5287  -12.2541 C   0  0  0  0  0  0  0  0  0  0  0  0
  -26.2180   -1.8077  -13.5155 N   0  0  0  0  0  0  0  0  0  0  0  0
  -24.9971   -1.4127  -13.8876 C   0  0  0  0  0  0  0  0  0  0  0  0
  -24.1931   -0.6554  -13.0655 C   0  0  0  0  0  0  0  0  0  0  0  0
  -24.5007   -0.4848  -11.7295 N   0  0  0  0  0  0  0  0  0  0  0  0
  -25.7143   -1.0179  -11.2698 C   0  0  0  0  0  0  0  0  0  0  0  0
  -26.2084   -1.1644   -9.9060 C   0  0  0  0  0  0  0  0  0  0  0  0
  -23.1464    0.1074  -13.7530 C   0  0  0  0  0  0  0  0  0  0  0  0
  -21.9033   -0.3486  -14.2683 C   0  0  0  0  0  0  0  0  0  0  0  0
  -21.0627    0.6487  -14.5776 N   0  0  0  0  0  0  0  0  0  0  0  0
  -21.7560    1.7520  -14.2525 N   0  0  0  0  0  0  0  0  0  0  0  0
  -21.2908    3.0565  -14.6664 C   0  0  0  0  0  0  0  0  0  0  0  0
  -22.9337    1.4713  -13.6107 C   0  0  0  0  0  0  0  0  0  0  0  0
  -28.6794   -0.1306   -5.4455 C   0  0  0  0  0  0  0  0  0  0  0  0
  -28.3941   -1.0047   -4.3946 C   0  0  0  0  0  0  0  0  0  0  0  0
  -27.9114   -2.2830   -4.6667 C   0  0  0  0  0  0  0  0  0  0  0  0
  -27.7212   -2.6806   -5.9993 C   0  0  0  0  0  0  0  0  0  0  0  0
  -27.9956   -1.8415   -7.0853 C   0  0  0  0  0  0  0  0  0  0  0  0
  -28.4696   -0.5423   -6.7756 C   0  0  0  0  0  0  0  0  0  0  0  0
  -30.5145    1.3760   -5.7831 C   0  0  0  0  0  0  0  0  0  0  0  0
  -29.2077    1.1314   -5.2578 O   0  0  0  0  0  0  0  0  0  0  0  0
  -27.6240   -3.2409   -3.7408 O   0  0  0  0  0  0  0  0  0  0  0  0
  -27.7423   -4.5980   -4.1552 C   0  0  0  0  0  0  0  0  0  0  0  0
  -27.7577   -3.8141   -8.5962 C   0  0  0  0  0  0  0  0  0  0  0  0
  -28.7615   -4.7247   -7.8486 C   0  0  0  0  0  0  0  0  0  0  0  0
  -28.5572   -6.1744   -8.1594 C   0  0  0  0  0  0  0  0  0  0  0  0
  -29.2820   -7.2059   -7.7911 N   0  0  0  0  0  0  0  0  0  0  0  0
  -28.6694   -8.3180   -8.3132 N   0  0  0  0  0  0  0  0  0  0  0  0
  -27.5815   -7.9880   -8.9904 N   0  0  0  0  0  0  0  0  0  0  0  0
  -27.5047   -6.6579   -8.8979 N   0  0  0  0  0  0  0  0  0  0  0  0
  -26.7413   -6.1626   -9.3342 H   0  0  0  0  0  0  0  0  0  0  0  0
 24 25  1  0  0  0
 25 18  1  0  0  0
 18 19  1  0  0  0
 18 23  2  0  0  0
 19 20  2  0  0  0
 20 26  1  0  0  0
 20 21  1  0  0  0
 26 27  1  0  0  0
 21 22  2  0  0  0
 22  1  1  0  0  0
 22 23  1  0  0  0
  1 28  1  0  0  0
  1  2  1  0  0  0
 28 29  1  0  0  0
 29 30  1  0  0  0
 30 31  2  0  0  0
 30 34  1  0  0  0
 31 32  1  0  0  0
 32 33  2  0  0  0
 33 34  1  0  0  0
 34 35  1  0  0  0
  2  3  1  0  0  0
  2 11  2  0  0  0
  3  4  2  0  0  0
  4  5  1  0  0  0
  5  6  1  0  0  0
  5 10  2  0  0  0
  6  7  2  0  0  0
  7  8  1  0  0  0
  8 12  1  0  0  0
  8  9  2  0  0  0
 12 13  1  0  0  0
 12 17  2  0  0  0
 13 14  2  0  0  0
 14 15  1  0  0  0
 15 16  1  0  0  0
 15 17  1  0  0  0
  9 10  1  0  0  0
 10 11  1  0  0  0
M  END
> <minimizedAffinity>
-8.88719

$$$$
