CHEMBL278472


 37 39  0  0  0  0  0  0  0  0999 V2000
  -14.1076    0.0033  -13.4750 C   0  0  0  0  0  0  0  0  0  0  0  0
  -13.2134   -1.0878  -13.4563 C   0  0  0  0  0  0  0  0  0  0  0  0
  -13.6093   -2.3697  -13.0568 C   0  0  0  0  0  0  0  0  0  0  0  0
  -12.7468   -3.4680  -13.0640 C   0  0  0  0  0  0  0  0  0  0  0  0
  -13.0941   -4.7188  -12.6882 N   0  0  0  0  0  0  0  0  0  0  0  0
  -14.3648   -4.9049  -12.2867 C   0  0  0  0  0  0  0  0  0  0  0  0
  -15.2807   -3.8449  -12.2489 C   0  0  0  0  0  0  0  0  0  0  0  0
  -14.9189   -2.5523  -12.6220 C   0  0  0  0  0  0  0  0  0  0  0  0
  -15.7912   -1.5132  -12.5581 N   0  0  0  0  0  0  0  0  0  0  0  0
  -15.4099   -0.2854  -13.0234 C   0  0  0  0  0  0  0  0  0  0  0  0
  -12.0817    3.2448  -13.4382 C   0  0  0  0  0  0  0  0  0  0  0  0
  -12.3253    3.7404  -14.7184 C   0  0  0  0  0  0  0  0  0  0  0  0
  -13.1801    3.0490  -15.5705 C   0  0  0  0  0  0  0  0  0  0  0  0
  -13.8357    1.9008  -15.1157 C   0  0  0  0  0  0  0  0  0  0  0  0
  -13.5706    1.3407  -13.8472 C   0  0  0  0  0  0  0  0  0  0  0  0
  -12.6741    2.0435  -13.0287 C   0  0  0  0  0  0  0  0  0  0  0  0
  -10.7006    5.0791  -12.8654 C   0  0  0  0  0  0  0  0  0  0  0  0
  -11.2285    3.8030  -12.5243 O   0  0  0  0  0  0  0  0  0  0  0  0
  -13.4388    3.3969  -16.8694 O   0  0  0  0  0  0  0  0  0  0  0  0
  -12.4220    3.0499  -17.8082 C   0  0  0  0  0  0  0  0  0  0  0  0
  -16.4157    0.7164  -12.9293 N   0  0  0  0  0  0  0  0  0  0  0  0
  -17.2093    0.9478  -14.0398 C   0  0  0  0  0  0  0  0  0  0  0  0
  -17.0825    0.3679  -15.1077 O   0  0  0  0  0  0  0  0  0  0  0  0
  -18.2023    1.8838  -13.7826 N   0  0  0  0  0  0  0  0  0  0  0  0
  -17.0311    0.5118  -12.1545 H   0  0  0  0  0  0  0  0  0  0  0  0
  -17.9189    2.6081  -13.1477 H   0  0  0  0  0  0  0  0  0  0  0  0
  -19.2953    2.2067  -14.7366 C   0  0  0  0  0  0  0  0  0  0  0  0
  -20.2608    3.2250  -14.1050 C   0  0  0  0  0  0  0  0  0  0  0  0
  -18.7104    2.8558  -16.0110 C   0  0  0  0  0  0  0  0  0  0  0  0
  -20.0730    0.9550  -15.1780 C   0  0  0  0  0  0  0  0  0  0  0  0
  -14.7743   -6.1542  -11.8266 N   0  0  0  0  0  0  0  0  0  0  0  0
  -15.6434   -6.4710  -12.2420 H   0  0  0  0  0  0  0  0  0  0  0  0
  -13.7832   -7.1909  -11.5487 C   0  0  0  0  0  0  0  0  0  0  0  0
  -13.9354   -8.4480  -12.4063 C   0  0  0  0  0  0  0  0  0  0  0  0
  -14.3414   -8.1924  -13.8481 C   0  0  0  0  0  0  0  0  0  0  0  0
  -15.7348   -7.9538  -13.9484 O   0  0  0  0  0  0  0  0  0  0  0  0
  -16.1620   -8.8288  -13.8523 H   0  0  0  0  0  0  0  0  0  0  0  0
 17 18  1  0  0  0
 18 11  1  0  0  0
 11 12  1  0  0  0
 11 16  2  0  0  0
 12 13  2  0  0  0
 13 19  1  0  0  0
 13 14  1  0  0  0
 19 20  1  0  0  0
 14 15  2  0  0  0
 15  1  1  0  0  0
 15 16  1  0  0  0
  1  2  1  0  0  0
  1 10  2  0  0  0
  2  3  2  0  0  0
  3  4  1  0  0  0
  3  8  1  0  0  0
  4  5  2  0  0  0
  5  6  1  0  0  0
  6 31  1  0  0  0
  6  7  2  0  0  0
 31 33  1  0  0  0
 31 32  1  0  0  0
 33 34  1  0  0  0
 34 35  1  0  0  0
 35 36  1  0  0  0
 36 37  1  0  0  0
  7  8  1  0  0  0
  8  9  2  0  0  0
  9 10  1  0  0  0
 10 21  1  0  0  0
 21 22  1  0  0  0
 21 25  1  0  0  0
 22 23  2  0  0  0
 22 24  1  0  0  0
 24 27  1  0  0  0
 24 26  1  0  0  0
 27 28  1  0  0  0
 27 29  1  0  0  0
 27 30  1  0  0  0
M  END
> <minimizedAffinity>
-6.98684

$$$$
