CHEMBL3972940


 38 43  0  0  0  0  0  0  0  0999 V2000
  -17.3563    1.0037  -15.0625 C   0  0  0  0  0  0  0  0  0  0  0  0
  -18.6851    0.6026  -14.8861 C   0  0  0  0  0  0  0  0  0  0  0  0
  -19.7317    1.5556  -14.8049 C   0  0  0  0  0  0  0  0  0  0  0  0
  -21.0836    1.2779  -14.5506 C   0  0  0  0  0  0  0  0  0  0  0  0
  -22.0143    2.2536  -14.4998 N   0  0  0  0  0  0  0  0  0  0  0  0
  -21.6042    3.5033  -14.7026 C   0  0  0  0  0  0  0  0  0  0  0  0
  -20.3502    3.8787  -14.9552 N   0  0  0  0  0  0  0  0  0  0  0  0
  -19.4336    2.9063  -15.0003 C   0  0  0  0  0  0  0  0  0  0  0  0
  -18.1267    3.2809  -15.2354 C   0  0  0  0  0  0  0  0  0  0  0  0
  -17.0719    2.3599  -15.2463 C   0  0  0  0  0  0  0  0  0  0  0  0
  -15.9336   -0.4593  -13.8501 C   0  0  0  0  0  0  0  0  0  0  0  0
  -16.4647   -0.0351  -15.1014 O   0  0  0  0  0  0  0  0  0  0  0  0
  -21.5056   -0.0588  -14.3177 N   0  0  0  0  0  0  0  0  0  0  0  0
  -20.7132   -0.6164  -14.0097 H   0  0  0  0  0  0  0  0  0  0  0  0
  -22.7005   -0.3738  -13.6298 C   0  0  0  0  0  0  0  0  0  0  0  0
  -22.7130   -0.4109  -12.2300 C   0  0  0  0  0  0  0  0  0  0  0  0
  -23.8397   -0.8360  -11.5284 C   0  0  0  0  0  0  0  0  0  0  0  0
  -24.9857   -1.2172  -12.2252 C   0  0  0  0  0  0  0  0  0  0  0  0
  -26.4499   -1.8622  -11.2042 Br  0  0  0  0  0  0  0  0  0  0  0  0
  -25.0075   -1.1339  -13.6224 C   0  0  0  0  0  0  0  0  0  0  0  0
  -26.3960   -1.5716  -14.5553 Cl  0  0  0  0  0  0  0  0  0  0  0  0
  -23.8712   -0.7029  -14.3210 C   0  0  0  0  0  0  0  0  0  0  0  0
  -15.7661    2.7466  -15.3793 O   0  0  0  0  0  0  0  0  0  0  0  0
  -15.1985    2.7454  -16.6971 C   0  0  0  0  0  0  0  0  0  0  0  0
  -15.6889    3.9396  -17.5098 C   0  0  0  0  0  0  0  0  0  0  0  0
  -14.8748    5.0631  -17.1476 O   0  0  0  0  0  0  0  0  0  0  0  0
  -13.5840    4.5493  -16.7810 C   0  0  0  0  0  0  0  0  0  0  0  0
  -13.7183    3.0473  -16.5474 C   0  0  0  0  0  0  0  0  0  0  0  0
  -12.9329    2.3902  -17.5531 O   0  0  0  0  0  0  0  0  0  0  0  0
  -11.9074    3.3258  -17.9154 C   0  0  0  0  0  0  0  0  0  0  0  0
  -12.6052    4.6869  -17.9618 C   0  0  0  0  0  0  0  0  0  0  0  0
  -11.7000    5.8517  -17.8757 N   0  0  0  0  0  0  0  0  0  0  0  0
  -12.4285    7.1227  -17.6351 C   0  0  0  0  0  0  0  0  0  0  0  0
  -13.2135    7.6769  -18.8491 C   0  0  0  0  0  0  0  0  0  0  0  0
  -12.3789    7.8092  -20.0577 N   0  0  0  0  0  0  0  0  0  0  0  0
  -13.1895    8.1997  -21.2095 C   0  0  0  0  0  0  0  0  0  0  0  0
  -11.6494    6.5602  -20.3315 C   0  0  0  0  0  0  0  0  0  0  0  0
  -10.8819    6.0283  -19.0959 C   0  0  0  0  0  0  0  0  0  0  0  0
 11 12  1  0  0  0
 12  1  1  0  0  0
  1  2  1  0  0  0
  1 10  2  0  0  0
  2  3  2  0  0  0
  3  4  1  0  0  0
  3  8  1  0  0  0
  4 13  1  0  0  0
  4  5  2  0  0  0
 13 15  1  0  0  0
 13 14  1  0  0  0
 15 16  1  0  0  0
 15 22  2  0  0  0
 16 17  2  0  0  0
 17 18  1  0  0  0
 18 19  1  0  0  0
 18 20  2  0  0  0
 20 21  1  0  0  0
 20 22  1  0  0  0
  5  6  1  0  0  0
  6  7  2  0  0  0
  7  8  1  0  0  0
  8  9  2  0  0  0
  9 10  1  0  0  0
 10 23  1  0  0  0
 24 25  1  0  0  0
 24 28  1  0  0  0
 24 23  1  0  0  0
 25 26  1  0  0  0
 26 27  1  0  0  0
 27 28  1  0  0  0
 27 31  1  0  0  0
 28 29  1  0  0  0
 29 30  1  0  0  0
 30 31  1  0  0  0
 31 32  1  0  0  0
 32 33  1  0  0  0
 32 38  1  0  0  0
 33 34  1  0  0  0
 34 35  1  0  0  0
 35 36  1  0  0  0
 35 37  1  0  0  0
 37 38  1  0  0  0
M  END
> <minimizedAffinity>
-8.90300

$$$$
