CHEMBL200723


 33 36  0  0  0  0  0  0  0  0999 V2000
  -14.2420   -4.3626  -12.8404 C   0  0  0  0  0  0  0  0  0  0  0  0
  -14.9643   -5.1226  -11.9976 N   0  0  0  0  0  0  0  0  0  0  0  0
  -15.9818   -4.5187  -11.3767 C   0  0  0  0  0  0  0  0  0  0  0  0
  -16.3213   -3.2307  -11.4933 N   0  0  0  0  0  0  0  0  0  0  0  0
  -15.5871   -2.4794  -12.3238 C   0  0  0  0  0  0  0  0  0  0  0  0
  -15.8697   -1.1296  -12.4730 C   0  0  0  0  0  0  0  0  0  0  0  0
  -15.1867   -0.2644  -13.3660 C   0  0  0  0  0  0  0  0  0  0  0  0
  -14.1697   -0.8021  -14.1601 C   0  0  0  0  0  0  0  0  0  0  0  0
  -13.8501   -2.1597  -13.9767 C   0  0  0  0  0  0  0  0  0  0  0  0
  -14.5342   -3.0053  -13.0644 C   0  0  0  0  0  0  0  0  0  0  0  0
  -13.1270   -4.9549  -13.5044 N   0  0  0  0  0  0  0  0  0  0  0  0
  -12.5134   -4.2198  -13.8675 H   0  0  0  0  0  0  0  0  0  0  0  0
  -13.3090   -8.2823  -16.2187 C   0  0  0  0  0  0  0  0  0  0  0  0
  -12.8943   -8.4371  -14.9526 C   0  0  0  0  0  0  0  0  0  0  0  0
  -12.9146   -7.3368  -13.9744 C   0  0  0  0  0  0  0  0  0  0  0  0
  -12.6184   -7.5371  -12.7989 O   0  0  0  0  0  0  0  0  0  0  0  0
  -13.2718   -5.9675  -14.4475 C   0  0  0  0  0  0  0  0  0  0  0  0
  -13.7168   -5.8228  -15.7012 C   0  0  0  0  0  0  0  0  0  0  0  0
  -13.8196   -6.9424  -16.6516 C   0  0  0  0  0  0  0  0  0  0  0  0
  -14.3039   -6.7527  -17.7630 O   0  0  0  0  0  0  0  0  0  0  0  0
  -12.9866  -10.5925  -16.8067 C   0  0  0  0  0  0  0  0  0  0  0  0
  -13.3207   -9.2650  -17.1889 O   0  0  0  0  0  0  0  0  0  0  0  0
  -13.4350   -0.3305  -15.2063 O   0  0  0  0  0  0  0  0  0  0  0  0
  -13.9455    0.3635  -16.3226 C   0  0  0  0  0  0  0  0  0  0  0  0
  -15.7297    0.9917  -13.2825 O   0  0  0  0  0  0  0  0  0  0  0  0
  -17.1036    1.1447  -13.5641 C   0  0  0  0  0  0  0  0  0  0  0  0
  -17.4139    1.2210  -15.0666 C   0  0  0  0  0  0  0  0  0  0  0  0
  -17.6460    2.6448  -15.5732 C   0  0  0  0  0  0  0  0  0  0  0  0
  -18.9050    3.2645  -14.9651 C   0  0  0  0  0  0  0  0  0  0  0  0
  -20.1001    2.4327  -15.1715 N   0  0  0  0  0  0  0  0  0  0  0  0
  -21.2431    3.0286  -14.4732 C   0  0  0  0  0  0  0  0  0  0  0  0
  -19.9281    1.0369  -14.7511 C   0  0  0  0  0  0  0  0  0  0  0  0
  -18.6752    0.3936  -15.3599 C   0  0  0  0  0  0  0  0  0  0  0  0
 21 22  1  0  0  0
 22 13  1  0  0  0
 13 14  2  0  0  0
 13 19  1  0  0  0
 14 15  1  0  0  0
 15 16  2  0  0  0
 15 17  1  0  0  0
 17 11  1  0  0  0
 17 18  2  0  0  0
 11  1  1  0  0  0
 11 12  1  0  0  0
  1  2  1  0  0  0
  1 10  2  0  0  0
  2  3  2  0  0  0
  3  4  1  0  0  0
  4  5  2  0  0  0
  5  6  1  0  0  0
  5 10  1  0  0  0
  6  7  2  0  0  0
  7 25  1  0  0  0
  7  8  1  0  0  0
 25 26  1  0  0  0
 26 27  1  0  0  0
 27 28  1  0  0  0
 27 33  1  0  0  0
 28 29  1  0  0  0
 29 30  1  0  0  0
 30 31  1  0  0  0
 30 32  1  0  0  0
 32 33  1  0  0  0
  8 23  1  0  0  0
  8  9  2  0  0  0
 23 24  1  0  0  0
  9 10  1  0  0  0
 18 19  1  0  0  0
 19 20  2  0  0  0
M  END
> <minimizedAffinity>
-7.46611

$$$$
