CHEMBL1241686


 33 37  0  0  0  0  0  0  0  0999 V2000
  -29.8861   -7.7509   -7.0897 C   0  0  0  0  0  0  0  0  0  0  0  0
  -29.1388   -6.7183   -7.6502 C   0  0  0  0  0  0  0  0  0  0  0  0
  -29.0553   -5.4812   -7.0002 C   0  0  0  0  0  0  0  0  0  0  0  0
  -29.8400   -5.1688   -5.8618 C   0  0  0  0  0  0  0  0  0  0  0  0
  -29.7875   -3.9454   -5.1103 C   0  0  0  0  0  0  0  0  0  0  0  0
  -30.6496   -3.7574   -4.0100 C   0  0  0  0  0  0  0  0  0  0  0  0
  -31.5472   -4.7451   -3.6247 C   0  0  0  0  0  0  0  0  0  0  0  0
  -31.5661   -5.9551   -4.3091 C   0  0  0  0  0  0  0  0  0  0  0  0
  -30.7217   -6.1909   -5.4082 C   0  0  0  0  0  0  0  0  0  0  0  0
  -30.7209   -7.4672   -6.0146 C   0  0  0  0  0  0  0  0  0  0  0  0
  -28.7764   -2.8485   -5.2821 C   0  0  0  0  0  0  0  0  0  0  0  0
  -27.6117   -3.0567   -4.9408 O   0  0  0  0  0  0  0  0  0  0  0  0
  -29.1855   -1.6311   -5.7892 N   0  0  0  0  0  0  0  0  0  0  0  0
  -30.1721   -1.4145   -5.8302 H   0  0  0  0  0  0  0  0  0  0  0  0
  -28.2410   -0.5952   -6.0882 C   0  0  0  0  0  0  0  0  0  0  0  0
  -28.0084    0.5532   -5.1449 C   0  0  0  0  0  0  0  0  0  0  0  0
  -28.7221    0.7880   -6.4440 C   0  0  0  0  0  0  0  0  0  0  0  0
  -29.7705   -9.0691   -7.5138 O   0  0  0  0  0  0  0  0  0  0  0  0
  -24.9946  -10.7266   -6.4355 C   0  0  0  0  0  0  0  0  0  0  0  0
  -25.2583  -10.8203   -7.8029 C   0  0  0  0  0  0  0  0  0  0  0  0
  -26.4291  -10.3577   -8.3709 C   0  0  0  0  0  0  0  0  0  0  0  0
  -26.4725  -10.3790   -9.7070 N   0  0  0  0  0  0  0  0  0  0  0  0
  -27.5222   -9.8111  -10.3156 C   0  0  0  0  0  0  0  0  0  0  0  0
  -28.5892   -9.2800   -9.6321 C   0  0  0  0  0  0  0  0  0  0  0  0
  -28.6269   -9.4065   -8.2380 C   0  0  0  0  0  0  0  0  0  0  0  0
  -27.4696   -9.8688   -7.5554 C   0  0  0  0  0  0  0  0  0  0  0  0
  -27.2432   -9.8388   -6.1552 C   0  0  0  0  0  0  0  0  0  0  0  0
  -25.9991  -10.2235   -5.5965 C   0  0  0  0  0  0  0  0  0  0  0  0
  -25.7864   -9.9246   -4.1461 C   0  0  0  0  0  0  0  0  0  0  0  0
  -25.9977  -10.9762   -3.0873 C   0  0  0  0  0  0  0  0  0  0  0  0
  -25.4040   -8.7958   -3.8310 O   0  0  0  0  0  0  0  0  0  0  0  0
  -22.6295  -10.4373   -6.3911 C   0  0  0  0  0  0  0  0  0  0  0  0
  -23.7925  -11.1076   -5.8994 O   0  0  0  0  0  0  0  0  0  0  0  0
 32 33  1  0  0  0
 33 19  1  0  0  0
 19 20  1  0  0  0
 19 28  2  0  0  0
 20 21  2  0  0  0
 21 22  1  0  0  0
 21 26  1  0  0  0
 22 23  2  0  0  0
 23 24  1  0  0  0
 24 25  2  0  0  0
 25 18  1  0  0  0
 25 26  1  0  0  0
 18  1  1  0  0  0
  1  2  1  0  0  0
  1 10  2  0  0  0
  2  3  2  0  0  0
  3  4  1  0  0  0
  4  5  1  0  0  0
  4  9  2  0  0  0
  5 11  1  0  0  0
  5  6  2  0  0  0
 11 12  2  0  0  0
 11 13  1  0  0  0
 13 15  1  0  0  0
 13 14  1  0  0  0
 15 16  1  0  0  0
 15 17  1  0  0  0
 16 17  1  0  0  0
  6  7  1  0  0  0
  7  8  2  0  0  0
  8  9  1  0  0  0
  9 10  1  0  0  0
 26 27  2  0  0  0
 27 28  1  0  0  0
 28 29  1  0  0  0
 29 30  1  0  0  0
 29 31  2  0  0  0
M  END
> <minimizedAffinity>
-8.98530

$$$$
