CHEMBL2063320


 41 45  0  0  0  0  0  0  0  0999 V2000
  -32.4713    2.9593   -8.2570 C   0  0  0  0  0  0  0  0  0  0  0  0
  -32.1419    4.1813   -8.8918 C   0  0  0  0  0  0  0  0  0  0  0  0
  -33.2933    4.6467   -9.4688 C   0  0  0  0  0  0  0  0  0  0  0  0
  -34.2323    3.6873   -9.1867 N   0  0  0  0  0  0  0  0  0  0  0  0
  -33.7535    2.6429   -8.4823 N   0  0  0  0  0  0  0  0  0  0  0  0
  -35.2162    3.6755   -9.4302 H   0  0  0  0  0  0  0  0  0  0  0  0
  -29.9138    0.5394   -5.8294 C   0  0  0  0  0  0  0  0  0  0  0  0
  -31.3023    0.4594   -5.7264 C   0  0  0  0  0  0  0  0  0  0  0  0
  -32.1192    1.2606   -6.5156 C   0  0  0  0  0  0  0  0  0  0  0  0
  -31.5680    2.1753   -7.4198 C   0  0  0  0  0  0  0  0  0  0  0  0
  -30.1774    2.3064   -7.4831 C   0  0  0  0  0  0  0  0  0  0  0  0
  -29.3539    1.5043   -6.6749 C   0  0  0  0  0  0  0  0  0  0  0  0
  -28.1562   -1.5509   -6.8562 O   0  0  0  0  0  0  0  0  0  0  0  0
  -28.3132   -1.3375   -5.6640 C   0  0  0  0  0  0  0  0  0  0  0  0
  -29.0684   -0.3263   -5.1101 N   0  0  0  0  0  0  0  0  0  0  0  0
  -28.9100   -0.1515   -4.1270 H   0  0  0  0  0  0  0  0  0  0  0  0
  -27.7066   -2.0776   -4.6475 O   0  0  0  0  0  0  0  0  0  0  0  0
  -28.1439   -3.3825   -4.3117 C   0  0  0  0  0  0  0  0  0  0  0  0
  -27.3371   -4.5191   -4.3918 C   0  0  0  0  0  0  0  0  0  0  0  0
  -27.8835   -5.7778   -4.1357 C   0  0  0  0  0  0  0  0  0  0  0  0
  -29.2348   -5.9016   -3.8209 C   0  0  0  0  0  0  0  0  0  0  0  0
  -30.0402   -4.7644   -3.7426 C   0  0  0  0  0  0  0  0  0  0  0  0
  -29.4958   -3.5022   -3.9864 C   0  0  0  0  0  0  0  0  0  0  0  0
  -33.4832    5.8310  -10.1795 N   0  0  0  0  0  0  0  0  0  0  0  0
  -34.7947    6.2999  -10.5547 C   0  0  0  0  0  0  0  0  0  0  0  0
  -35.8054    5.6815  -10.2536 O   0  0  0  0  0  0  0  0  0  0  0  0
  -32.6704    6.3911  -10.3981 H   0  0  0  0  0  0  0  0  0  0  0  0
  -34.9004    7.5726  -11.2940 C   0  0  0  0  0  0  0  0  0  0  0  0
  -34.1799    8.7151  -10.9371 C   0  0  0  0  0  0  0  0  0  0  0  0
  -34.2839    9.8678  -11.7239 C   0  0  0  0  0  0  0  0  0  0  0  0
  -35.0780    9.8724  -12.8742 C   0  0  0  0  0  0  0  0  0  0  0  0
  -35.8193    8.7418  -13.2075 C   0  0  0  0  0  0  0  0  0  0  0  0
  -35.7249    7.5907  -12.4287 C   0  0  0  0  0  0  0  0  0  0  0  0
  -35.1979   10.9249  -13.7395 O   0  0  0  0  0  0  0  0  0  0  0  0
  -34.2142   11.9582  -13.5798 C   0  0  0  0  0  0  0  0  0  0  0  0
  -32.9007   11.4983  -14.2297 C   0  0  0  0  0  0  0  0  0  0  0  0
  -31.6892   11.9712  -13.5315 N   0  0  0  0  0  0  0  0  0  0  0  0
  -30.6592   12.3888  -14.5025 C   0  0  0  0  0  0  0  0  0  0  0  0
  -29.9463   11.1039  -14.8862 C   0  0  0  0  0  0  0  0  0  0  0  0
  -29.9378   10.3030  -13.5975 C   0  0  0  0  0  0  0  0  0  0  0  0
  -31.0186   10.9349  -12.7274 C   0  0  0  0  0  0  0  0  0  0  0  0
 13 14  2  0  0  0
 14 15  1  0  0  0
 14 17  1  0  0  0
 15  7  1  0  0  0
 15 16  1  0  0  0
  7  8  1  0  0  0
  7 12  2  0  0  0
  8  9  2  0  0  0
  9 10  1  0  0  0
 10  1  1  0  0  0
 10 11  2  0  0  0
  1  2  1  0  0  0
  1  5  2  0  0  0
  2  3  2  0  0  0
  3 24  1  0  0  0
  3  4  1  0  0  0
 24 25  1  0  0  0
 24 27  1  0  0  0
 25 26  2  0  0  0
 25 28  1  0  0  0
 28 29  1  0  0  0
 28 33  2  0  0  0
 29 30  2  0  0  0
 30 31  1  0  0  0
 31 34  1  0  0  0
 31 32  2  0  0  0
 34 35  1  0  0  0
 35 36  1  0  0  0
 36 37  1  0  0  0
 37 38  1  0  0  0
 37 41  1  0  0  0
 38 39  1  0  0  0
 39 40  1  0  0  0
 40 41  1  0  0  0
 32 33  1  0  0  0
  4  5  1  0  0  0
  4  6  1  0  0  0
 11 12  1  0  0  0
 17 18  1  0  0  0
 18 19  1  0  0  0
 18 23  2  0  0  0
 19 20  2  0  0  0
 20 21  1  0  0  0
 21 22  2  0  0  0
 22 23  1  0  0  0
M  END
> <minimizedAffinity>
-4.50170

$$$$
