CHEMBL2337368


 34 37  0  0  0  0  0  0  0  0999 V2000
  -28.4444   -9.5744   -4.1955 C   0  0  0  0  0  0  0  0  0  0  0  0
  -29.0336   -8.3768   -3.9263 N   0  0  0  0  0  0  0  0  0  0  0  0
  -29.0920   -7.4709   -4.9105 C   0  0  0  0  0  0  0  0  0  0  0  0
  -28.5523   -7.6320   -6.1289 N   0  0  0  0  0  0  0  0  0  0  0  0
  -28.2351   -8.9219   -6.3715 C   0  0  0  0  0  0  0  0  0  0  0  0
  -28.2238   -9.4967   -7.6288 N   0  0  0  0  0  0  0  0  0  0  0  0
  -29.5283   -9.9761   -7.6776 C   0  0  0  0  0  0  0  0  0  0  0  0
  -30.4913   -9.8825   -8.6873 C   0  0  0  0  0  0  0  0  0  0  0  0
  -31.7697  -10.3438   -8.3837 C   0  0  0  0  0  0  0  0  0  0  0  0
  -32.0257  -10.9775   -7.1660 C   0  0  0  0  0  0  0  0  0  0  0  0
  -31.0250  -11.0559   -6.1763 C   0  0  0  0  0  0  0  0  0  0  0  0
  -31.3061  -11.8402   -4.6895 Cl  0  0  0  0  0  0  0  0  0  0  0  0
  -29.7551  -10.4636   -6.3719 C   0  0  0  0  0  0  0  0  0  0  0  0
  -28.5936  -10.0030   -5.5397 C   0  0  0  0  0  0  0  0  0  0  0  0
  -27.4944  -10.1557   -7.8574 H   0  0  0  0  0  0  0  0  0  0  0  0
  -29.8022   -6.2886   -4.7516 N   0  0  0  0  0  0  0  0  0  0  0  0
  -29.3080   -5.1261   -4.2194 C   0  0  0  0  0  0  0  0  0  0  0  0
  -28.1307   -4.9465   -3.9143 O   0  0  0  0  0  0  0  0  0  0  0  0
  -30.7393   -6.3429   -5.1314 H   0  0  0  0  0  0  0  0  0  0  0  0
  -30.3437   -3.9959   -4.0119 C   0  0  0  0  0  0  0  0  0  0  0  0
  -30.5958   -3.2657   -5.3399 C   0  0  0  0  0  0  0  0  0  0  0  0
  -31.6686   -4.6268   -3.5404 C   0  0  0  0  0  0  0  0  0  0  0  0
  -29.8873   -2.9864   -2.9441 C   0  0  0  0  0  0  0  0  0  0  0  0
  -27.2897   -9.7793   -3.4079 N   0  0  0  0  0  0  0  0  0  0  0  0
  -27.5204   -9.5750   -2.4401 H   0  0  0  0  0  0  0  0  0  0  0  0
  -23.2855  -11.0542   -4.1155 C   0  0  0  0  0  0  0  0  0  0  0  0
  -23.8145   -9.9076   -4.7328 C   0  0  0  0  0  0  0  0  0  0  0  0
  -25.1240   -9.4722   -4.4949 C   0  0  0  0  0  0  0  0  0  0  0  0
  -25.9720  -10.1819   -3.6540 C   0  0  0  0  0  0  0  0  0  0  0  0
  -25.4520  -11.3373   -3.0349 C   0  0  0  0  0  0  0  0  0  0  0  0
  -24.1320  -11.7771   -3.2681 C   0  0  0  0  0  0  0  0  0  0  0  0
  -21.2103  -12.4658   -3.4843 C   0  0  0  0  0  0  0  0  0  0  0  0
  -21.8297  -11.4035   -4.3970 C   0  0  0  0  0  0  0  0  0  0  0  0
  -21.5956  -11.7761   -5.8653 C   0  0  0  0  0  0  0  0  0  0  0  0
 32 33  1  0  0  0
 33 34  1  0  0  0
 33 26  1  0  0  0
 26 27  1  0  0  0
 26 31  2  0  0  0
 27 28  2  0  0  0
 28 29  1  0  0  0
 29 24  1  0  0  0
 29 30  2  0  0  0
 24  1  1  0  0  0
 24 25  1  0  0  0
  1  2  1  0  0  0
  1 14  2  0  0  0
  2  3  2  0  0  0
  3 16  1  0  0  0
  3  4  1  0  0  0
 16 17  1  0  0  0
 16 19  1  0  0  0
 17 18  2  0  0  0
 17 20  1  0  0  0
 20 21  1  0  0  0
 20 22  1  0  0  0
 20 23  1  0  0  0
  4  5  2  0  0  0
  5  6  1  0  0  0
  5 14  1  0  0  0
  6  7  1  0  0  0
  6 15  1  0  0  0
  7  8  1  0  0  0
  7 13  2  0  0  0
  8  9  2  0  0  0
  9 10  1  0  0  0
 10 11  2  0  0  0
 11 12  1  0  0  0
 11 13  1  0  0  0
 13 14  1  0  0  0
 30 31  1  0  0  0
M  END
> <minimizedAffinity>
-8.29264

$$$$
