CHEMBL3940300


 33 37  0  0  0  0  0  0  0  0999 V2000
  -29.4029   -5.9417   -6.8693 C   0  0  0  0  0  0  0  0  0  0  0  0
  -30.6963   -6.2067   -7.3265 C   0  0  0  0  0  0  0  0  0  0  0  0
  -31.1985   -7.5010   -7.2686 C   0  0  0  0  0  0  0  0  0  0  0  0
  -30.4073   -8.5332   -6.7557 C   0  0  0  0  0  0  0  0  0  0  0  0
  -29.0999   -8.3047   -6.2968 C   0  0  0  0  0  0  0  0  0  0  0  0
  -28.6217   -6.9824   -6.3502 C   0  0  0  0  0  0  0  0  0  0  0  0
  -28.3128   -9.3498   -5.8432 N   0  0  0  0  0  0  0  0  0  0  0  0
  -28.3278  -10.6560   -6.5089 C   0  0  0  0  0  0  0  0  0  0  0  0
  -27.0388  -10.8523   -7.3092 C   0  0  0  0  0  0  0  0  0  0  0  0
  -25.8407  -10.5009   -6.4744 C   0  0  0  0  0  0  0  0  0  0  0  0
  -25.9612   -9.7451   -5.3632 C   0  0  0  0  0  0  0  0  0  0  0  0
  -24.6920   -9.5102   -4.6161 C   0  0  0  0  0  0  0  0  0  0  0  0
  -23.5136   -9.9543   -4.9397 N   0  0  0  0  0  0  0  0  0  0  0  0
  -23.4521  -10.6998   -6.0869 C   0  0  0  0  0  0  0  0  0  0  0  0
  -22.3993  -11.3084   -6.7286 C   0  0  0  0  0  0  0  0  0  0  0  0
  -22.9626  -11.9233   -7.8556 C   0  0  0  0  0  0  0  0  0  0  0  0
  -24.2798  -11.7404   -7.9402 N   0  0  0  0  0  0  0  0  0  0  0  0
  -24.5880  -10.9803   -6.8563 N   0  0  0  0  0  0  0  0  0  0  0  0
  -27.2366   -9.1309   -4.8619 C   0  0  0  0  0  0  0  0  0  0  0  0
  -28.3436   -4.1688   -7.9221 O   0  0  0  0  0  0  0  0  0  0  0  0
  -28.9268   -4.5333   -6.9067 C   0  0  0  0  0  0  0  0  0  0  0  0
  -29.1288   -3.7822   -5.7564 N   0  0  0  0  0  0  0  0  0  0  0  0
  -29.4824   -4.2665   -4.9418 H   0  0  0  0  0  0  0  0  0  0  0  0
  -28.7095   -2.4434   -5.5619 C   0  0  0  0  0  0  0  0  0  0  0  0
  -27.4245   -2.1012   -5.1351 C   0  0  0  0  0  0  0  0  0  0  0  0
  -27.0717   -0.7703   -4.9075 C   0  0  0  0  0  0  0  0  0  0  0  0
  -27.9999    0.2442   -5.1159 C   0  0  0  0  0  0  0  0  0  0  0  0
  -29.2879   -0.0637   -5.5731 C   0  0  0  0  0  0  0  0  0  0  0  0
  -29.6313   -1.4135   -5.8003 C   0  0  0  0  0  0  0  0  0  0  0  0
  -30.2972    1.0324   -5.8109 C   0  0  0  0  0  0  0  0  0  0  0  0
  -31.5078    0.5782   -6.2416 F   0  0  0  0  0  0  0  0  0  0  0  0
  -30.5515    1.7583   -4.6869 F   0  0  0  0  0  0  0  0  0  0  0  0
  -29.8822    1.9296   -6.7477 F   0  0  0  0  0  0  0  0  0  0  0  0
 20 21  2  0  0  0
 21 22  1  0  0  0
 21  1  1  0  0  0
 22 24  1  0  0  0
 22 23  1  0  0  0
 24 25  1  0  0  0
 24 29  2  0  0  0
 25 26  2  0  0  0
 26 27  1  0  0  0
 27 28  2  0  0  0
 28 30  1  0  0  0
 28 29  1  0  0  0
 30 31  1  0  0  0
 30 32  1  0  0  0
 30 33  1  0  0  0
  1  2  1  0  0  0
  1  6  2  0  0  0
  2  3  2  0  0  0
  3  4  1  0  0  0
  4  5  2  0  0  0
  5  7  1  0  0  0
  5  6  1  0  0  0
  7  8  1  0  0  0
  7 19  1  0  0  0
  8  9  1  0  0  0
  9 10  1  0  0  0
 10 11  2  0  0  0
 10 18  1  0  0  0
 11 12  1  0  0  0
 11 19  1  0  0  0
 12 13  2  0  0  0
 13 14  1  0  0  0
 14 15  2  0  0  0
 14 18  1  0  0  0
 15 16  1  0  0  0
 16 17  2  0  0  0
 17 18  1  0  0  0
M  END
> <minimizedAffinity>
-9.97534

$$$$
