CHEMBL2204527


 39 42  0  0  0  0  0  0  0  0999 V2000
  -17.3338    2.2802  -15.7572 C   0  0  0  0  0  0  0  0  0  0  0  0
  -17.2457    1.0392  -15.1044 C   0  0  0  0  0  0  0  0  0  0  0  0
  -16.0294    0.4316  -14.7958 C   0  0  0  0  0  0  0  0  0  0  0  0
  -14.8533    1.1050  -15.1185 C   0  0  0  0  0  0  0  0  0  0  0  0
  -14.9108    2.3351  -15.7873 C   0  0  0  0  0  0  0  0  0  0  0  0
  -16.1437    2.9291  -16.1188 C   0  0  0  0  0  0  0  0  0  0  0  0
  -16.1699    4.2645  -16.8059 C   0  0  0  0  0  0  0  0  0  0  0  0
  -15.9542   -0.8285  -14.1559 N   0  0  0  0  0  0  0  0  0  0  0  0
  -15.7538   -1.0106  -12.7952 C   0  0  0  0  0  0  0  0  0  0  0  0
  -15.6852   -0.1253  -11.9471 O   0  0  0  0  0  0  0  0  0  0  0  0
  -16.1892   -1.6344  -14.7181 H   0  0  0  0  0  0  0  0  0  0  0  0
  -15.6639   -2.4094  -12.3012 C   0  0  0  0  0  0  0  0  0  0  0  0
  -15.6708   -2.7405  -10.9451 C   0  0  0  0  0  0  0  0  0  0  0  0
  -15.7420   -4.0835  -10.5676 C   0  0  0  0  0  0  0  0  0  0  0  0
  -15.7906   -5.0923  -11.5352 C   0  0  0  0  0  0  0  0  0  0  0  0
  -15.7346   -4.7786  -12.8979 C   0  0  0  0  0  0  0  0  0  0  0  0
  -15.6761   -3.4302  -13.2672 C   0  0  0  0  0  0  0  0  0  0  0  0
  -15.7556   -5.8595  -13.9576 C   0  0  0  0  0  0  0  0  0  0  0  0
  -14.4276   -6.6302  -14.1822 C   0  0  0  0  0  0  0  0  0  0  0  0
  -13.2187   -5.7859  -13.7505 C   0  0  0  0  0  0  0  0  0  0  0  0
  -14.4104   -7.9700  -13.4293 C   0  0  0  0  0  0  0  0  0  0  0  0
  -14.2964   -6.9100  -15.6377 C   0  0  0  0  0  0  0  0  0  0  0  0
  -14.1931   -7.1395  -16.7651 N   0  0  0  0  0  0  0  0  0  0  0  0
  -18.5901    2.8858  -15.9364 N   0  0  0  0  0  0  0  0  0  0  0  0
  -18.7282    3.4749  -16.7401 H   0  0  0  0  0  0  0  0  0  0  0  0
  -23.3724    0.4310  -13.5297 C   0  0  0  0  0  0  0  0  0  0  0  0
  -23.3508    1.7372  -13.5127 N   0  0  0  0  0  0  0  0  0  0  0  0
  -22.1542    2.1663  -14.0414 C   0  0  0  0  0  0  0  0  0  0  0  0
  -21.7056    3.4597  -14.2411 C   0  0  0  0  0  0  0  0  0  0  0  0
  -20.5136    3.6609  -14.8358 N   0  0  0  0  0  0  0  0  0  0  0  0
  -19.7686    2.6084  -15.2428 C   0  0  0  0  0  0  0  0  0  0  0  0
  -20.1083    1.3188  -15.0853 N   0  0  0  0  0  0  0  0  0  0  0  0
  -21.2897    1.1655  -14.4580 C   0  0  0  0  0  0  0  0  0  0  0  0
  -21.9528   -0.3607  -14.0610 S   0  0  0  0  0  0  0  0  0  0  0  0
  -26.2259   -1.9110  -13.5676 C   0  0  0  0  0  0  0  0  0  0  0  0
  -25.1407   -1.0497  -14.1572 C   0  0  0  0  0  0  0  0  0  0  0  0
  -24.9762   -0.9994  -15.3705 O   0  0  0  0  0  0  0  0  0  0  0  0
  -24.4037   -0.4003  -13.1880 N   0  0  0  0  0  0  0  0  0  0  0  0
  -24.5022   -0.6432  -12.2139 H   0  0  0  0  0  0  0  0  0  0  0  0
 35 36  1  0  0  0
 36 37  2  0  0  0
 36 38  1  0  0  0
 38 26  1  0  0  0
 38 39  1  0  0  0
 26 27  2  0  0  0
 26 34  1  0  0  0
 27 28  1  0  0  0
 28 29  1  0  0  0
 28 33  2  0  0  0
 29 30  2  0  0  0
 30 31  1  0  0  0
 31 24  1  0  0  0
 31 32  2  0  0  0
 24  1  1  0  0  0
 24 25  1  0  0  0
  1  2  1  0  0  0
  1  6  2  0  0  0
  2  3  2  0  0  0
  3  8  1  0  0  0
  3  4  1  0  0  0
  8  9  1  0  0  0
  8 11  1  0  0  0
  9 10  2  0  0  0
  9 12  1  0  0  0
 12 13  1  0  0  0
 12 17  2  0  0  0
 13 14  2  0  0  0
 14 15  1  0  0  0
 15 16  2  0  0  0
 16 18  1  0  0  0
 16 17  1  0  0  0
 18 19  1  0  0  0
 19 20  1  0  0  0
 19 21  1  0  0  0
 19 22  1  0  0  0
 22 23  3  0  0  0
  4  5  2  0  0  0
  5  6  1  0  0  0
  6  7  1  0  0  0
 32 33  1  0  0  0
 33 34  1  0  0  0
M  END
> <minimizedAffinity>
-10.25344

$$$$
