CHEMBL3819253


 27 30  0  0  0  0  0  0  0  0999 V2000
  -26.9674   -1.5628  -10.0640 C   0  0  0  0  0  0  0  0  0  0  0  0
  -28.0358   -1.6235  -10.8672 N   0  0  0  0  0  0  0  0  0  0  0  0
  -27.7858   -1.6808  -12.1889 C   0  0  0  0  0  0  0  0  0  0  0  0
  -26.5217   -1.6682  -12.7312 C   0  0  0  0  0  0  0  0  0  0  0  0
  -25.4803   -1.6432  -11.8334 C   0  0  0  0  0  0  0  0  0  0  0  0
  -25.7065   -1.5939  -10.5131 N   0  0  0  0  0  0  0  0  0  0  0  0
  -27.1985   -1.4505   -8.6885 N   0  0  0  0  0  0  0  0  0  0  0  0
  -26.3337   -1.1588   -8.2513 H   0  0  0  0  0  0  0  0  0  0  0  0
  -30.4475   -5.1414   -5.3622 Cl  0  0  0  0  0  0  0  0  0  0  0  0
  -29.4786   -4.0882   -6.3167 C   0  0  0  0  0  0  0  0  0  0  0  0
  -28.9378   -4.5441   -7.5140 C   0  0  0  0  0  0  0  0  0  0  0  0
  -28.1759   -3.6774   -8.3010 C   0  0  0  0  0  0  0  0  0  0  0  0
  -27.9563   -2.3472   -7.9104 C   0  0  0  0  0  0  0  0  0  0  0  0
  -28.4690   -1.9217   -6.6793 C   0  0  0  0  0  0  0  0  0  0  0  0
  -29.2427   -2.7833   -5.8921 C   0  0  0  0  0  0  0  0  0  0  0  0
  -24.1479   -1.6697  -12.3120 N   0  0  0  0  0  0  0  0  0  0  0  0
  -23.9822   -2.5241  -12.8312 H   0  0  0  0  0  0  0  0  0  0  0  0
  -23.4855   -0.5464  -12.8703 C   0  0  0  0  0  0  0  0  0  0  0  0
  -23.9534    0.7527  -12.6106 C   0  0  0  0  0  0  0  0  0  0  0  0
  -23.3406    1.8924  -13.1411 C   0  0  0  0  0  0  0  0  0  0  0  0
  -22.2262    1.6832  -13.9513 C   0  0  0  0  0  0  0  0  0  0  0  0
  -21.4216    2.5591  -14.6325 N   0  0  0  0  0  0  0  0  0  0  0  0
  -20.4250    1.9689  -15.3154 N   0  0  0  0  0  0  0  0  0  0  0  0
  -20.6089    0.6683  -15.0679 C   0  0  0  0  0  0  0  0  0  0  0  0
  -21.7133    0.4202  -14.2216 C   0  0  0  0  0  0  0  0  0  0  0  0
  -22.3377   -0.7150  -13.6639 C   0  0  0  0  0  0  0  0  0  0  0  0
  -21.5045    3.5670  -14.6734 H   0  0  0  0  0  0  0  0  0  0  0  0
  9 10  1  0  0  0
 10 11  1  0  0  0
 10 15  2  0  0  0
 11 12  2  0  0  0
 12 13  1  0  0  0
 13  7  1  0  0  0
 13 14  2  0  0  0
  7  1  1  0  0  0
  7  8  1  0  0  0
  1  2  1  0  0  0
  1  6  2  0  0  0
  2  3  2  0  0  0
  3  4  1  0  0  0
  4  5  2  0  0  0
  5 16  1  0  0  0
  5  6  1  0  0  0
 16 18  1  0  0  0
 16 17  1  0  0  0
 18 19  1  0  0  0
 18 26  2  0  0  0
 19 20  2  0  0  0
 20 21  1  0  0  0
 21 22  1  0  0  0
 21 25  2  0  0  0
 22 23  1  0  0  0
 22 27  1  0  0  0
 23 24  2  0  0  0
 24 25  1  0  0  0
 25 26  1  0  0  0
 14 15  1  0  0  0
M  END
> <minimizedAffinity>
-8.72457

$$$$
