CHEMBL225248


 40 45  0  0  0  0  0  0  0  0999 V2000
  -28.0786   -2.4132   -6.2147 C   0  0  0  0  0  0  0  0  0  0  0  0
  -27.1933   -2.6336   -5.2239 N   0  0  0  0  0  0  0  0  0  0  0  0
  -27.9213   -3.3061   -4.2434 N   0  0  0  0  0  0  0  0  0  0  0  0
  -29.2619   -3.4371   -4.5307 C   0  0  0  0  0  0  0  0  0  0  0  0
  -29.3642   -2.7167   -5.7199 C   0  0  0  0  0  0  0  0  0  0  0  0
  -30.6082   -3.0672   -6.4085 C   0  0  0  0  0  0  0  0  0  0  0  0
  -30.4421   -4.5588   -6.0473 C   0  0  0  0  0  0  0  0  0  0  0  0
  -29.6623   -5.5845   -6.6886 C   0  0  0  0  0  0  0  0  0  0  0  0
  -29.3664   -6.8343   -6.0369 C   0  0  0  0  0  0  0  0  0  0  0  0
  -30.1418   -6.9756   -4.8927 C   0  0  0  0  0  0  0  0  0  0  0  0
  -30.4527   -5.8299   -4.1270 C   0  0  0  0  0  0  0  0  0  0  0  0
  -30.2646   -4.5789   -4.6687 C   0  0  0  0  0  0  0  0  0  0  0  0
  -27.4421   -3.5553   -3.3824 H   0  0  0  0  0  0  0  0  0  0  0  0
  -27.3644   -1.4635  -10.1190 C   0  0  0  0  0  0  0  0  0  0  0  0
  -27.5700   -2.8157   -9.9952 C   0  0  0  0  0  0  0  0  0  0  0  0
  -27.6143   -3.1835   -8.6302 C   0  0  0  0  0  0  0  0  0  0  0  0
  -27.8227   -2.1487   -7.7252 C   0  0  0  0  0  0  0  0  0  0  0  0
  -27.6432   -0.6659   -8.5791 S   0  0  0  0  0  0  0  0  0  0  0  0
  -26.9715   -0.6931  -11.3629 C   0  0  0  0  0  0  0  0  0  0  0  0
  -24.3912   -0.1396  -12.3737 N   0  0  0  0  0  0  0  0  0  0  0  0
  -25.0832   -1.0923  -13.1129 C   0  0  0  0  0  0  0  0  0  0  0  0
  -24.7155   -1.6195  -14.1582 O   0  0  0  0  0  0  0  0  0  0  0  0
  -26.3425   -1.4639  -12.4778 N   0  0  0  0  0  0  0  0  0  0  0  0
  -27.3483   -2.0788  -13.3772 C   0  0  0  0  0  0  0  0  0  0  0  0
  -24.4064   -0.5048  -11.4298 H   0  0  0  0  0  0  0  0  0  0  0  0
  -20.2310   -0.4714  -15.1006 C   0  0  0  0  0  0  0  0  0  0  0  0
  -21.5595    0.5883  -14.9780 C   0  0  0  0  0  0  0  0  0  0  0  0
  -21.8279    2.5606  -15.3501 C   0  0  0  0  0  0  0  0  0  0  0  0
  -22.5407    3.4483  -13.8526 C   0  0  0  0  0  0  0  0  0  0  0  0
  -23.2142    2.4522  -12.5357 C   0  0  0  0  0  0  0  0  0  0  0  0
  -23.1769    0.7305  -12.5079 C   0  0  0  0  0  0  0  0  0  0  0  0
  -22.1807   -0.1088  -13.5161 C   0  0  0  0  0  0  0  0  0  0  0  0
  -28.2838   -8.0349   -6.2208 C   0  0  0  0  0  0  0  0  0  0  0  0
  -28.2347   -9.2164   -7.2136 N   0  0  0  0  0  0  0  0  0  0  0  0
  -27.3852  -10.8714   -6.8057 C   0  0  0  0  0  0  0  0  0  0  0  0
  -26.1044  -11.5724   -8.3115 C   0  0  0  0  0  0  0  0  0  0  0  0
  -26.6373  -10.4588  -10.0415 N   0  0  0  0  0  0  0  0  0  0  0  0
  -28.1796  -10.6988  -10.8946 C   0  0  0  0  0  0  0  0  0  0  0  0
  -27.0329   -8.8838   -9.9934 C   0  0  0  0  0  0  0  0  0  0  0  0
  -27.9819   -8.4219   -8.7210 C   0  0  0  0  0  0  0  0  0  0  0  0
 26 27  1  0  0  0
 27 28  1  0  0  0
 27 32  2  0  0  0
 28 29  2  0  0  0
 29 30  1  0  0  0
 30 31  2  0  0  0
 31 20  1  0  0  0
 31 32  1  0  0  0
 20 21  1  0  0  0
 20 25  1  0  0  0
 21 22  2  0  0  0
 21 23  1  0  0  0
 23 24  1  0  0  0
 23 19  1  0  0  0
 19 14  1  0  0  0
 14 15  2  0  0  0
 14 18  1  0  0  0
 15 16  1  0  0  0
 16 17  2  0  0  0
 17  1  1  0  0  0
 17 18  1  0  0  0
  1  2  2  0  0  0
  1  5  1  0  0  0
  2  3  1  0  0  0
  3  4  1  0  0  0
  3 13  1  0  0  0
  4  5  2  0  0  0
  4 12  1  0  0  0
  5  6  1  0  0  0
  6  7  1  0  0  0
  7  8  1  0  0  0
  7 12  2  0  0  0
  8  9  2  0  0  0
  9 33  1  0  0  0
  9 10  1  0  0  0
 33 34  1  0  0  0
 34 35  1  0  0  0
 34 40  1  0  0  0
 35 36  1  0  0  0
 36 37  1  0  0  0
 37 38  1  0  0  0
 37 39  1  0  0  0
 39 40  1  0  0  0
 10 11  2  0  0  0
 11 12  1  0  0  0
M  END
> <minimizedAffinity>
-7.20325

$$$$
