CHEMBL4171543


 31 33  0  0  0  0  0  0  0  0999 V2000
  -23.3902   -0.0692  -12.9579 C   0  0  0  0  0  0  0  0  0  0  0  0
  -23.0371   -1.3288  -12.4558 C   0  0  0  0  0  0  0  0  0  0  0  0
  -23.9596   -2.1425  -11.7941 C   0  0  0  0  0  0  0  0  0  0  0  0
  -25.2694   -1.7169  -11.5889 C   0  0  0  0  0  0  0  0  0  0  0  0
  -25.6412   -0.4622  -12.0693 C   0  0  0  0  0  0  0  0  0  0  0  0
  -24.7137    0.3536  -12.7530 C   0  0  0  0  0  0  0  0  0  0  0  0
  -20.4818    2.2186  -15.0405 C   0  0  0  0  0  0  0  0  0  0  0  0
  -21.4729    2.8860  -14.3396 C   0  0  0  0  0  0  0  0  0  0  0  0
  -22.4291    2.1369  -13.6600 C   0  0  0  0  0  0  0  0  0  0  0  0
  -22.3838    0.7366  -13.6731 C   0  0  0  0  0  0  0  0  0  0  0  0
  -21.3592    0.1755  -14.4330 C   0  0  0  0  0  0  0  0  0  0  0  0
  -20.4359    0.8768  -15.1445 N   0  0  0  0  0  0  0  0  0  0  0  0
  -18.1425    2.8407  -15.2975 C   0  0  0  0  0  0  0  0  0  0  0  0
  -17.7024    2.2049  -14.3465 O   0  0  0  0  0  0  0  0  0  0  0  0
  -19.4564    2.9023  -15.6950 N   0  0  0  0  0  0  0  0  0  0  0  0
  -19.6716    3.1308  -16.6541 H   0  0  0  0  0  0  0  0  0  0  0  0
  -15.9149    3.5653  -16.0091 C   0  0  0  0  0  0  0  0  0  0  0  0
  -17.2381    3.5888  -16.2097 C   0  0  0  0  0  0  0  0  0  0  0  0
  -26.2351   -2.5178  -10.9211 N   0  0  0  0  0  0  0  0  0  0  0  0
  -26.8839   -2.1779   -9.7445 C   0  0  0  0  0  0  0  0  0  0  0  0
  -26.8122   -1.0882   -9.1858 O   0  0  0  0  0  0  0  0  0  0  0  0
  -27.6027   -3.2439   -9.2203 N   0  0  0  0  0  0  0  0  0  0  0  0
  -26.5825   -3.3273  -11.4129 H   0  0  0  0  0  0  0  0  0  0  0  0
  -27.1896   -4.1488   -9.3949 H   0  0  0  0  0  0  0  0  0  0  0  0
  -28.3146   -3.1005   -8.0029 C   0  0  0  0  0  0  0  0  0  0  0  0
  -29.4649   -3.8680   -7.8040 C   0  0  0  0  0  0  0  0  0  0  0  0
  -30.1361   -3.8204   -6.5786 C   0  0  0  0  0  0  0  0  0  0  0  0
  -29.6879   -2.9712   -5.5662 C   0  0  0  0  0  0  0  0  0  0  0  0
  -28.5671   -2.1735   -5.7815 C   0  0  0  0  0  0  0  0  0  0  0  0
  -28.0292   -1.1070   -4.5413 Cl  0  0  0  0  0  0  0  0  0  0  0  0
  -27.8766   -2.2378   -6.9905 C   0  0  0  0  0  0  0  0  0  0  0  0
 17 18  2  0  0  0
 18 13  1  0  0  0
 13 14  2  0  0  0
 13 15  1  0  0  0
 15  7  1  0  0  0
 15 16  1  0  0  0
  7  8  1  0  0  0
  7 12  2  0  0  0
  8  9  2  0  0  0
  9 10  1  0  0  0
 10  1  1  0  0  0
 10 11  2  0  0  0
  1  2  1  0  0  0
  1  6  2  0  0  0
  2  3  2  0  0  0
  3  4  1  0  0  0
  4 19  1  0  0  0
  4  5  2  0  0  0
 19 20  1  0  0  0
 19 23  1  0  0  0
 20 21  2  0  0  0
 20 22  1  0  0  0
 22 25  1  0  0  0
 22 24  1  0  0  0
 25 26  1  0  0  0
 25 31  2  0  0  0
 26 27  2  0  0  0
 27 28  1  0  0  0
 28 29  2  0  0  0
 29 30  1  0  0  0
 29 31  1  0  0  0
  5  6  1  0  0  0
 11 12  1  0  0  0
M  END
> <minimizedAffinity>
-10.90913

$$$$
