CHEMBL3918751


 34 37  0  0  0  0  0  0  0  0999 V2000
  -18.4334    1.8519  -15.5177 C   0  0  0  0  0  0  0  0  0  0  0  0
  -19.0727    3.0739  -15.7219 C   0  0  0  0  0  0  0  0  0  0  0  0
  -20.3294    3.2888  -15.1906 C   0  0  0  0  0  0  0  0  0  0  0  0
  -21.0605    2.2734  -14.6227 C   0  0  0  0  0  0  0  0  0  0  0  0
  -22.1628    2.7007  -13.9974 N   0  0  0  0  0  0  0  0  0  0  0  0
  -23.0392    1.7631  -13.6261 C   0  0  0  0  0  0  0  0  0  0  0  0
  -22.8641    0.4308  -13.9324 C   0  0  0  0  0  0  0  0  0  0  0  0
  -21.6519   -0.0272  -14.4109 N   0  0  0  0  0  0  0  0  0  0  0  0
  -20.6617    0.9224  -14.7267 C   0  0  0  0  0  0  0  0  0  0  0  0
  -19.2539    0.7546  -15.1199 C   0  0  0  0  0  0  0  0  0  0  0  0
  -24.1102   -0.3323  -14.0093 C   0  0  0  0  0  0  0  0  0  0  0  0
  -24.8385   -0.9748  -15.0352 C   0  0  0  0  0  0  0  0  0  0  0  0
  -25.8813   -1.6957  -14.5795 N   0  0  0  0  0  0  0  0  0  0  0  0
  -25.8282   -1.5325  -13.2430 N   0  0  0  0  0  0  0  0  0  0  0  0
  -24.7195   -0.8270  -12.8574 C   0  0  0  0  0  0  0  0  0  0  0  0
  -26.9611   -1.8394  -12.3822 C   0  0  0  0  0  0  0  0  0  0  0  0
  -26.7563   -1.7425  -10.8728 C   0  0  0  0  0  0  0  0  0  0  0  0
  -26.8339   -3.0158  -10.2396 O   0  0  0  0  0  0  0  0  0  0  0  0
  -27.7706   -3.1553  -10.0122 H   0  0  0  0  0  0  0  0  0  0  0  0
  -16.9863    1.9379  -15.5420 N   0  0  0  0  0  0  0  0  0  0  0  0
  -15.4109   -0.4058  -13.0585 C   0  0  0  0  0  0  0  0  0  0  0  0
  -14.2465   -0.7741  -13.7319 C   0  0  0  0  0  0  0  0  0  0  0  0
  -13.9708   -0.2315  -14.9835 C   0  0  0  0  0  0  0  0  0  0  0  0
  -14.8553    0.6928  -15.5553 C   0  0  0  0  0  0  0  0  0  0  0  0
  -16.0245    1.1136  -14.9054 C   0  0  0  0  0  0  0  0  0  0  0  0
  -16.2816    0.5437  -13.6407 C   0  0  0  0  0  0  0  0  0  0  0  0
  -15.5672   -2.3111  -11.6121 C   0  0  0  0  0  0  0  0  0  0  0  0
  -15.8016   -0.9165  -11.8505 O   0  0  0  0  0  0  0  0  0  0  0  0
  -12.8884   -0.5318  -15.7674 O   0  0  0  0  0  0  0  0  0  0  0  0
  -13.1424   -0.8477  -17.1303 C   0  0  0  0  0  0  0  0  0  0  0  0
  -16.6152    3.4034  -15.6931 C   0  0  0  0  0  0  0  0  0  0  0  0
  -15.6002    3.7629  -16.7964 C   0  0  0  0  0  0  0  0  0  0  0  0
  -15.3906    5.1703  -16.9033 O   0  0  0  0  0  0  0  0  0  0  0  0
  -15.5828    5.4168  -17.8250 H   0  0  0  0  0  0  0  0  0  0  0  0
 27 28  1  0  0  0
 28 21  1  0  0  0
 21 22  1  0  0  0
 21 26  2  0  0  0
 22 23  2  0  0  0
 23 29  1  0  0  0
 23 24  1  0  0  0
 29 30  1  0  0  0
 24 25  2  0  0  0
 25 20  1  0  0  0
 25 26  1  0  0  0
 20 31  1  0  0  0
 20  1  1  0  0  0
 31 32  1  0  0  0
 32 33  1  0  0  0
 33 34  1  0  0  0
  1  2  1  0  0  0
  1 10  2  0  0  0
  2  3  2  0  0  0
  3  4  1  0  0  0
  4  5  1  0  0  0
  4  9  2  0  0  0
  5  6  2  0  0  0
  6  7  1  0  0  0
  7 11  1  0  0  0
  7  8  2  0  0  0
 11 12  1  0  0  0
 11 15  2  0  0  0
 12 13  2  0  0  0
 13 14  1  0  0  0
 14 16  1  0  0  0
 14 15  1  0  0  0
 16 17  1  0  0  0
 17 18  1  0  0  0
 18 19  1  0  0  0
  8  9  1  0  0  0
  9 10  1  0  0  0
M  END
> <minimizedAffinity>
-8.91906

$$$$
