CHEMBL219996


 37 40  0  0  0  0  0  0  0  0999 V2000
  -15.2506   -0.5963  -13.9679 C   0  0  0  0  0  0  0  0  0  0  0  0
  -14.1530   -0.4156  -14.8003 C   0  0  0  0  0  0  0  0  0  0  0  0
  -13.1251   -1.3717  -14.7908 C   0  0  0  0  0  0  0  0  0  0  0  0
  -13.1569   -2.4888  -13.9243 C   0  0  0  0  0  0  0  0  0  0  0  0
  -12.0843   -3.5351  -14.0417 C   0  0  0  0  0  0  0  0  0  0  0  0
  -14.1737   -2.5709  -12.9612 C   0  0  0  0  0  0  0  0  0  0  0  0
  -15.2456   -1.6689  -13.0689 C   0  0  0  0  0  0  0  0  0  0  0  0
  -17.2825    0.4050  -14.9619 N   0  0  0  0  0  0  0  0  0  0  0  0
  -16.4092    0.3304  -13.8848 C   0  0  0  0  0  0  0  0  0  0  0  0
  -16.5531    0.9312  -12.8127 O   0  0  0  0  0  0  0  0  0  0  0  0
  -17.1874   -0.2584  -15.7213 H   0  0  0  0  0  0  0  0  0  0  0  0
  -18.3965    2.4967  -15.6236 C   0  0  0  0  0  0  0  0  0  0  0  0
  -19.5584    3.2883  -15.6713 C   0  0  0  0  0  0  0  0  0  0  0  0
  -20.7562    2.8483  -15.1082 C   0  0  0  0  0  0  0  0  0  0  0  0
  -20.8213    1.6015  -14.4912 C   0  0  0  0  0  0  0  0  0  0  0  0
  -19.6633    0.8142  -14.4404 C   0  0  0  0  0  0  0  0  0  0  0  0
  -18.4479    1.2281  -15.0087 C   0  0  0  0  0  0  0  0  0  0  0  0
  -22.1027    1.0804  -13.8926 C   0  0  0  0  0  0  0  0  0  0  0  0
  -22.7479    0.1899  -14.6979 F   0  0  0  0  0  0  0  0  0  0  0  0
  -21.9067    0.4325  -12.7109 F   0  0  0  0  0  0  0  0  0  0  0  0
  -23.0044    2.0676  -13.6392 F   0  0  0  0  0  0  0  0  0  0  0  0
  -16.7389    4.1861  -15.8001 C   0  0  0  0  0  0  0  0  0  0  0  0
  -17.1999    2.8875  -16.1831 O   0  0  0  0  0  0  0  0  0  0  0  0
  -14.2017   -3.5834  -11.9484 N   0  0  0  0  0  0  0  0  0  0  0  0
  -13.2762   -3.6305  -11.5104 H   0  0  0  0  0  0  0  0  0  0  0  0
  -14.5679   -4.9311  -12.2790 C   0  0  0  0  0  0  0  0  0  0  0  0
  -15.5110   -5.0772  -13.2537 N   0  0  0  0  0  0  0  0  0  0  0  0
  -15.7423   -6.2934  -13.7766 C   0  0  0  0  0  0  0  0  0  0  0  0
  -15.1171   -7.4306  -13.3298 C   0  0  0  0  0  0  0  0  0  0  0  0
  -14.2385   -7.3054  -12.2586 C   0  0  0  0  0  0  0  0  0  0  0  0
  -13.9435   -6.0482  -11.6773 C   0  0  0  0  0  0  0  0  0  0  0  0
  -12.9556   -5.9637  -10.5739 C   0  0  0  0  0  0  0  0  0  0  0  0
  -11.6715   -6.4851  -10.6719 C   0  0  0  0  0  0  0  0  0  0  0  0
  -10.8201   -6.2638   -9.6132 C   0  0  0  0  0  0  0  0  0  0  0  0
  -11.1828   -5.6079   -8.5017 N   0  0  0  0  0  0  0  0  0  0  0  0
  -12.4474   -5.1689   -8.4804 C   0  0  0  0  0  0  0  0  0  0  0  0
  -13.3559   -5.3062   -9.4596 N   0  0  0  0  0  0  0  0  0  0  0  0
 22 23  1  0  0  0
 23 12  1  0  0  0
 12 13  1  0  0  0
 12 17  2  0  0  0
 13 14  2  0  0  0
 14 15  1  0  0  0
 15 18  1  0  0  0
 15 16  2  0  0  0
 18 19  1  0  0  0
 18 20  1  0  0  0
 18 21  1  0  0  0
 16 17  1  0  0  0
 17  8  1  0  0  0
  8  9  1  0  0  0
  8 11  1  0  0  0
  9 10  2  0  0  0
  9  1  1  0  0  0
  1  2  1  0  0  0
  1  7  2  0  0  0
  2  3  2  0  0  0
  3  4  1  0  0  0
  4  5  1  0  0  0
  4  6  2  0  0  0
  6 24  1  0  0  0
  6  7  1  0  0  0
 24 26  1  0  0  0
 24 25  1  0  0  0
 26 27  1  0  0  0
 26 31  2  0  0  0
 27 28  2  0  0  0
 28 29  1  0  0  0
 29 30  2  0  0  0
 30 31  1  0  0  0
 31 32  1  0  0  0
 32 33  1  0  0  0
 32 37  2  0  0  0
 33 34  2  0  0  0
 34 35  1  0  0  0
 35 36  2  0  0  0
 36 37  1  0  0  0
M  END
> <minimizedAffinity>
-9.57493

$$$$
