CHEMBL2403369


 33 37  0  0  0  0  0  0  0  0999 V2000
  -29.9661   -4.9913   -6.1949 C   0  0  0  0  0  0  0  0  0  0  0  0
  -29.3967   -5.8001   -5.2345 C   0  0  0  0  0  0  0  0  0  0  0  0
  -29.4272   -7.1263   -5.7198 C   0  0  0  0  0  0  0  0  0  0  0  0
  -30.0347   -7.0895   -6.9553 C   0  0  0  0  0  0  0  0  0  0  0  0
  -30.3930   -5.7944   -7.2293 N   0  0  0  0  0  0  0  0  0  0  0  0
  -30.1525   -8.2411   -7.8748 C   0  0  0  0  0  0  0  0  0  0  0  0
  -29.5750   -9.5248   -7.2308 C   0  0  0  0  0  0  0  0  0  0  0  0
  -28.5726   -9.3590   -6.1556 N   0  0  0  0  0  0  0  0  0  0  0  0
  -27.9854  -10.5563   -5.7339 C   0  0  0  0  0  0  0  0  0  0  0  0
  -28.3388  -11.6508   -6.1737 O   0  0  0  0  0  0  0  0  0  0  0  0
  -27.0199  -10.4519   -4.7401 N   0  0  0  0  0  0  0  0  0  0  0  0
  -26.6487  -11.6984   -4.0642 C   0  0  0  0  0  0  0  0  0  0  0  0
  -25.8281  -11.4531   -2.7807 C   0  0  0  0  0  0  0  0  0  0  0  0
  -24.6920  -10.5158   -2.9296 N   0  0  0  0  0  0  0  0  0  0  0  0
  -23.5930  -11.1210   -3.6818 C   0  0  0  0  0  0  0  0  0  0  0  0
  -25.1707   -9.2779   -3.5859 C   0  0  0  0  0  0  0  0  0  0  0  0
  -25.8968   -9.5256   -4.9218 C   0  0  0  0  0  0  0  0  0  0  0  0
  -28.8740   -8.3614   -5.1145 C   0  0  0  0  0  0  0  0  0  0  0  0
  -30.8129   -5.4729   -8.0923 H   0  0  0  0  0  0  0  0  0  0  0  0
  -30.2319    0.9301   -5.5983 C   0  0  0  0  0  0  0  0  0  0  0  0
  -29.0147    1.3880   -5.0624 C   0  0  0  0  0  0  0  0  0  0  0  0
  -27.9720    0.5096   -4.7784 C   0  0  0  0  0  0  0  0  0  0  0  0
  -28.1792   -0.8237   -5.0670 C   0  0  0  0  0  0  0  0  0  0  0  0
  -29.3641   -1.2960   -5.6404 C   0  0  0  0  0  0  0  0  0  0  0  0
  -30.4091   -0.4271   -5.9095 C   0  0  0  0  0  0  0  0  0  0  0  0
  -29.1941   -2.7495   -5.7875 C   0  0  0  0  0  0  0  0  0  0  0  0
  -30.1138   -3.5899   -6.2710 C   0  0  0  0  0  0  0  0  0  0  0  0
  -27.8209   -3.0824   -5.2435 C   0  0  0  0  0  0  0  0  0  0  0  0
  -27.2557   -4.1570   -5.1893 O   0  0  0  0  0  0  0  0  0  0  0  0
  -27.2930   -1.8687   -4.8366 N   0  0  0  0  0  0  0  0  0  0  0  0
  -26.3771   -1.7903   -4.4264 H   0  0  0  0  0  0  0  0  0  0  0  0
  -31.5288    2.1191   -7.1730 C   0  0  0  0  0  0  0  0  0  0  0  0
  -31.1764    1.8982   -5.8115 O   0  0  0  0  0  0  0  0  0  0  0  0
 32 33  1  0  0  0
 33 20  1  0  0  0
 20 21  1  0  0  0
 20 25  2  0  0  0
 21 22  2  0  0  0
 22 23  1  0  0  0
 23 24  2  0  0  0
 23 30  1  0  0  0
 24 25  1  0  0  0
 24 26  1  0  0  0
 26 27  2  0  0  0
 26 28  1  0  0  0
 27  1  1  0  0  0
  1  2  2  0  0  0
  1  5  1  0  0  0
  2  3  1  0  0  0
  3  4  2  0  0  0
  3 18  1  0  0  0
  4  5  1  0  0  0
  4  6  1  0  0  0
  5 19  1  0  0  0
  6  7  1  0  0  0
  7  8  1  0  0  0
  8  9  1  0  0  0
  8 18  1  0  0  0
  9 10  2  0  0  0
  9 11  1  0  0  0
 11 12  1  0  0  0
 11 17  1  0  0  0
 12 13  1  0  0  0
 13 14  1  0  0  0
 14 15  1  0  0  0
 14 16  1  0  0  0
 16 17  1  0  0  0
 28 29  2  0  0  0
 28 30  1  0  0  0
 30 31  1  0  0  0
M  END
> <minimizedAffinity>
-8.53158

$$$$
