CHEMBL404342


 32 35  0  0  0  0  0  0  0  0999 V2000
  -13.5279   -3.4902  -10.8987 C   0  0  0  0  0  0  0  0  0  0  0  0
  -14.9255   -3.4404  -10.8548 C   0  0  0  0  0  0  0  0  0  0  0  0
  -15.6713   -2.7969  -11.8500 C   0  0  0  0  0  0  0  0  0  0  0  0
  -15.0482   -2.2548  -12.9738 C   0  0  0  0  0  0  0  0  0  0  0  0
  -13.6661   -2.3773  -13.0921 C   0  0  0  0  0  0  0  0  0  0  0  0
  -12.9175   -2.9602  -12.0550 C   0  0  0  0  0  0  0  0  0  0  0  0
  -12.2923   -6.4478  -12.1439 N   0  0  0  0  0  0  0  0  0  0  0  0
  -11.8154   -6.3866  -10.8938 C   0  0  0  0  0  0  0  0  0  0  0  0
  -11.0342   -7.3614  -10.4337 N   0  0  0  0  0  0  0  0  0  0  0  0
  -10.7597   -6.9871   -9.1838 N   0  0  0  0  0  0  0  0  0  0  0  0
  -11.3238   -5.8029   -8.8161 C   0  0  0  0  0  0  0  0  0  0  0  0
  -11.2590   -5.1208   -7.6121 C   0  0  0  0  0  0  0  0  0  0  0  0
  -11.9016   -3.9463   -7.4970 N   0  0  0  0  0  0  0  0  0  0  0  0
  -12.5896   -3.4803   -8.5685 C   0  0  0  0  0  0  0  0  0  0  0  0
  -12.7292   -4.1058   -9.8206 C   0  0  0  0  0  0  0  0  0  0  0  0
  -12.0403   -5.3467   -9.9280 C   0  0  0  0  0  0  0  0  0  0  0  0
  -12.1332   -7.3177  -12.6414 H   0  0  0  0  0  0  0  0  0  0  0  0
  -13.1627   -5.9960  -12.3970 H   0  0  0  0  0  0  0  0  0  0  0  0
  -10.1712   -7.5949   -8.6226 H   0  0  0  0  0  0  0  0  0  0  0  0
  -15.7801   -1.6427  -14.0149 N   0  0  0  0  0  0  0  0  0  0  0  0
  -16.3441   -0.3845  -13.9216 C   0  0  0  0  0  0  0  0  0  0  0  0
  -16.0754    0.4389  -13.0540 O   0  0  0  0  0  0  0  0  0  0  0  0
  -17.2920   -0.1779  -14.9178 N   0  0  0  0  0  0  0  0  0  0  0  0
  -15.6326   -1.9816  -14.9549 H   0  0  0  0  0  0  0  0  0  0  0  0
  -17.8043   -1.0140  -15.1610 H   0  0  0  0  0  0  0  0  0  0  0  0
  -17.9932    1.0456  -15.0220 C   0  0  0  0  0  0  0  0  0  0  0  0
  -17.3160    2.1717  -15.5000 C   0  0  0  0  0  0  0  0  0  0  0  0
  -17.9934    3.3846  -15.6554 C   0  0  0  0  0  0  0  0  0  0  0  0
  -19.3338    3.4888  -15.2828 C   0  0  0  0  0  0  0  0  0  0  0  0
  -19.9969    2.3747  -14.7720 C   0  0  0  0  0  0  0  0  0  0  0  0
  -21.6394    2.5151  -14.2754 Cl  0  0  0  0  0  0  0  0  0  0  0  0
  -19.3384    1.1515  -14.6529 C   0  0  0  0  0  0  0  0  0  0  0  0
  7  8  1  0  0  0
  7 17  1  0  0  0
  7 18  1  0  0  0
  8  9  2  0  0  0
  8 16  1  0  0  0
  9 10  1  0  0  0
 10 11  1  0  0  0
 10 19  1  0  0  0
 11 12  1  0  0  0
 11 16  2  0  0  0
 12 13  2  0  0  0
 13 14  1  0  0  0
 14 15  2  0  0  0
 15  1  1  0  0  0
 15 16  1  0  0  0
  1  2  1  0  0  0
  1  6  2  0  0  0
  2  3  2  0  0  0
  3  4  1  0  0  0
  4 20  1  0  0  0
  4  5  2  0  0  0
 20 21  1  0  0  0
 20 24  1  0  0  0
 21 22  2  0  0  0
 21 23  1  0  0  0
 23 26  1  0  0  0
 23 25  1  0  0  0
 26 27  1  0  0  0
 26 32  2  0  0  0
 27 28  2  0  0  0
 28 29  1  0  0  0
 29 30  2  0  0  0
 30 31  1  0  0  0
 30 32  1  0  0  0
  5  6  1  0  0  0
M  END
> <minimizedAffinity>
-9.10331

$$$$
