CHEMBL3935177


 37 40  0  0  0  0  0  0  0  0999 V2000
  -27.6174   -2.4376   -8.5075 N   0  0  0  0  0  0  0  0  0  0  0  0
  -27.4232   -2.0738   -9.8657 C   0  0  0  0  0  0  0  0  0  0  0  0
  -28.3731   -2.3276  -10.8618 C   0  0  0  0  0  0  0  0  0  0  0  0
  -28.0770   -2.1081  -12.2078 C   0  0  0  0  0  0  0  0  0  0  0  0
  -26.8584   -1.5826  -12.5955 C   0  0  0  0  0  0  0  0  0  0  0  0
  -26.6057   -1.4153  -13.9026 N   0  0  0  0  0  0  0  0  0  0  0  0
  -25.4050   -0.8707  -14.2096 C   0  0  0  0  0  0  0  0  0  0  0  0
  -24.4777   -0.4931  -13.2490 C   0  0  0  0  0  0  0  0  0  0  0  0
  -24.7208   -0.6893  -11.9325 N   0  0  0  0  0  0  0  0  0  0  0  0
  -25.9097   -1.2380  -11.6040 C   0  0  0  0  0  0  0  0  0  0  0  0
  -26.2078   -1.4954  -10.2719 C   0  0  0  0  0  0  0  0  0  0  0  0
  -23.2337    0.1603  -13.6059 C   0  0  0  0  0  0  0  0  0  0  0  0
  -22.0047   -0.3690  -14.0644 C   0  0  0  0  0  0  0  0  0  0  0  0
  -21.0970    0.5717  -14.3186 N   0  0  0  0  0  0  0  0  0  0  0  0
  -21.7436    1.7159  -14.0365 N   0  0  0  0  0  0  0  0  0  0  0  0
  -21.0808    2.9841  -14.2257 C   0  0  0  0  0  0  0  0  0  0  0  0
  -23.0208    1.5247  -13.5978 C   0  0  0  0  0  0  0  0  0  0  0  0
  -28.0382   -0.9537   -5.0630 C   0  0  0  0  0  0  0  0  0  0  0  0
  -28.4146    0.3505   -5.3726 C   0  0  0  0  0  0  0  0  0  0  0  0
  -28.5614    0.7045   -6.7077 C   0  0  0  0  0  0  0  0  0  0  0  0
  -28.9222    1.9723   -7.0698 O   0  0  0  0  0  0  0  0  0  0  0  0
  -28.3354   -0.2170   -7.7300 C   0  0  0  0  0  0  0  0  0  0  0  0
  -27.9228   -1.5334   -7.4543 C   0  0  0  0  0  0  0  0  0  0  0  0
  -27.7918   -1.8741   -6.0971 C   0  0  0  0  0  0  0  0  0  0  0  0
  -28.9782    2.5272   -6.2753 H   0  0  0  0  0  0  0  0  0  0  0  0
  -28.5398   -2.6685   -3.4840 C   0  0  0  0  0  0  0  0  0  0  0  0
  -27.8612   -1.4602   -3.8028 O   0  0  0  0  0  0  0  0  0  0  0  0
  -27.6585   -3.8915   -8.2092 C   0  0  0  0  0  0  0  0  0  0  0  0
  -29.0569   -4.4184   -7.8429 C   0  0  0  0  0  0  0  0  0  0  0  0
  -29.0882   -5.7961   -7.1765 C   0  0  0  0  0  0  0  0  0  0  0  0
  -28.6616   -5.5964   -5.7879 N   0  0  0  0  0  0  0  0  0  0  0  0
  -28.7736   -4.6131   -5.5272 H   0  0  0  0  0  0  0  0  0  0  0  0
  -29.3932   -6.4313   -4.8126 C   0  0  0  0  0  0  0  0  0  0  0  0
  -30.8510   -5.9876   -4.5236 C   0  0  0  0  0  0  0  0  0  0  0  0
  -31.2004   -6.1864   -3.2307 F   0  0  0  0  0  0  0  0  0  0  0  0
  -31.0110   -4.6672   -4.7783 F   0  0  0  0  0  0  0  0  0  0  0  0
  -31.7340   -6.6608   -5.2946 F   0  0  0  0  0  0  0  0  0  0  0  0
 26 27  1  0  0  0
 27 18  1  0  0  0
 18 19  1  0  0  0
 18 24  2  0  0  0
 19 20  2  0  0  0
 20 21  1  0  0  0
 20 22  1  0  0  0
 21 25  1  0  0  0
 22 23  2  0  0  0
 23  1  1  0  0  0
 23 24  1  0  0  0
  1 28  1  0  0  0
  1  2  1  0  0  0
 28 29  1  0  0  0
 29 30  1  0  0  0
 30 31  1  0  0  0
 31 33  1  0  0  0
 31 32  1  0  0  0
 33 34  1  0  0  0
 34 35  1  0  0  0
 34 36  1  0  0  0
 34 37  1  0  0  0
  2  3  1  0  0  0
  2 11  2  0  0  0
  3  4  2  0  0  0
  4  5  1  0  0  0
  5  6  1  0  0  0
  5 10  2  0  0  0
  6  7  2  0  0  0
  7  8  1  0  0  0
  8 12  1  0  0  0
  8  9  2  0  0  0
 12 13  1  0  0  0
 12 17  2  0  0  0
 13 14  2  0  0  0
 14 15  1  0  0  0
 15 16  1  0  0  0
 15 17  1  0  0  0
  9 10  1  0  0  0
 10 11  1  0  0  0
M  END
> <minimizedAffinity>
-7.95139

$$$$
