CHEMBL4786985


 37 41  0  0  0  0  0  0  0  0999 V2000
  -28.2034   -7.4347   -4.6699 C   0  0  0  0  0  0  0  0  0  0  0  0
  -27.5534   -8.4677   -4.1086 N   0  0  0  0  0  0  0  0  0  0  0  0
  -27.9124   -9.6767   -4.5935 C   0  0  0  0  0  0  0  0  0  0  0  0
  -28.9083   -9.8768   -5.5300 C   0  0  0  0  0  0  0  0  0  0  0  0
  -29.4484   -8.7588   -6.1029 C   0  0  0  0  0  0  0  0  0  0  0  0
  -29.0479   -7.5568   -5.6847 N   0  0  0  0  0  0  0  0  0  0  0  0
  -27.9545   -3.8427   -4.1212 N   0  0  0  0  0  0  0  0  0  0  0  0
  -28.1482   -5.0011   -4.8447 C   0  0  0  0  0  0  0  0  0  0  0  0
  -28.4761   -5.0132   -6.0238 O   0  0  0  0  0  0  0  0  0  0  0  0
  -27.9617   -6.1744   -4.1098 N   0  0  0  0  0  0  0  0  0  0  0  0
  -27.5212   -3.9274   -3.2095 H   0  0  0  0  0  0  0  0  0  0  0  0
  -27.9677   -6.1576   -3.1094 H   0  0  0  0  0  0  0  0  0  0  0  0
  -28.8112    0.0597   -5.6163 C   0  0  0  0  0  0  0  0  0  0  0  0
  -27.5115   -0.4183   -5.6423 C   0  0  0  0  0  0  0  0  0  0  0  0
  -27.2279   -1.6974   -5.1429 C   0  0  0  0  0  0  0  0  0  0  0  0
  -28.2165   -2.5296   -4.6097 C   0  0  0  0  0  0  0  0  0  0  0  0
  -29.5278   -2.0386   -4.5807 C   0  0  0  0  0  0  0  0  0  0  0  0
  -29.8164   -0.7553   -5.0856 C   0  0  0  0  0  0  0  0  0  0  0  0
  -30.6247    1.4981   -6.1688 C   0  0  0  0  0  0  0  0  0  0  0  0
  -29.2166    1.2862   -6.0659 O   0  0  0  0  0  0  0  0  0  0  0  0
  -30.3752   -8.8186   -7.1109 N   0  0  0  0  0  0  0  0  0  0  0  0
  -31.5262   -7.9318   -7.2588 C   0  0  0  0  0  0  0  0  0  0  0  0
  -32.8014   -8.7805   -7.3253 C   0  0  0  0  0  0  0  0  0  0  0  0
  -32.7291   -9.7582   -8.3807 O   0  0  0  0  0  0  0  0  0  0  0  0
  -31.5909  -10.6261   -8.1999 C   0  0  0  0  0  0  0  0  0  0  0  0
  -30.2654   -9.8388   -8.1604 C   0  0  0  0  0  0  0  0  0  0  0  0
  -26.9700  -11.1204   -4.0718 S   0  0  0  0  0  0  0  0  0  0  0  0
  -25.4098  -10.6564   -4.7302 C   0  0  0  0  0  0  0  0  0  0  0  0
  -25.1630  -10.4738   -6.0710 C   0  0  0  0  0  0  0  0  0  0  0  0
  -23.8546  -10.0826   -6.1574 N   0  0  0  0  0  0  0  0  0  0  0  0
  -23.1970  -10.6843   -5.0961 C   0  0  0  0  0  0  0  0  0  0  0  0
  -21.8993  -11.1778   -4.9846 C   0  0  0  0  0  0  0  0  0  0  0  0
  -21.5367  -11.6762   -3.7344 C   0  0  0  0  0  0  0  0  0  0  0  0
  -22.3798  -11.5257   -2.6301 C   0  0  0  0  0  0  0  0  0  0  0  0
  -23.6827  -11.0238   -2.7740 C   0  0  0  0  0  0  0  0  0  0  0  0
  -24.1397  -10.7328   -4.0718 C   0  0  0  0  0  0  0  0  0  0  0  0
  -23.5556   -9.2163   -6.5619 H   0  0  0  0  0  0  0  0  0  0  0  0
 19 20  1  0  0  0
 20 13  1  0  0  0
 13 14  1  0  0  0
 13 18  2  0  0  0
 14 15  2  0  0  0
 15 16  1  0  0  0
 16  7  1  0  0  0
 16 17  2  0  0  0
  7  8  1  0  0  0
  7 11  1  0  0  0
  8  9  2  0  0  0
  8 10  1  0  0  0
 10  1  1  0  0  0
 10 12  1  0  0  0
  1  2  1  0  0  0
  1  6  2  0  0  0
  2  3  2  0  0  0
  3 27  1  0  0  0
  3  4  1  0  0  0
 27 28  1  0  0  0
 28 29  2  0  0  0
 28 36  1  0  0  0
 29 30  1  0  0  0
 30 31  1  0  0  0
 30 37  1  0  0  0
 31 32  1  0  0  0
 31 36  2  0  0  0
 32 33  2  0  0  0
 33 34  1  0  0  0
 34 35  2  0  0  0
 35 36  1  0  0  0
  4  5  2  0  0  0
  5 21  1  0  0  0
  5  6  1  0  0  0
 21 22  1  0  0  0
 21 26  1  0  0  0
 22 23  1  0  0  0
 23 24  1  0  0  0
 24 25  1  0  0  0
 25 26  1  0  0  0
 17 18  1  0  0  0
M  END
> <minimizedAffinity>
-10.08874

$$$$
