CHEMBL3706818


 28 30  0  0  0  0  0  0  0  0999 V2000
  -29.5114   -5.2922   -6.2549 C   0  0  0  0  0  0  0  0  0  0  0  0
  -30.0627   -6.2533   -7.1359 C   0  0  0  0  0  0  0  0  0  0  0  0
  -29.6856   -7.5921   -7.1559 C   0  0  0  0  0  0  0  0  0  0  0  0
  -30.2064   -8.4149   -8.0754 N   0  0  0  0  0  0  0  0  0  0  0  0
  -29.7749   -9.6806   -8.0678 C   0  0  0  0  0  0  0  0  0  0  0  0
  -28.8944  -10.2026   -7.2090 N   0  0  0  0  0  0  0  0  0  0  0  0
  -28.3875   -9.3706   -6.2795 C   0  0  0  0  0  0  0  0  0  0  0  0
  -28.7381   -8.0121   -6.2248 C   0  0  0  0  0  0  0  0  0  0  0  0
  -28.1757   -7.0713   -5.3368 C   0  0  0  0  0  0  0  0  0  0  0  0
  -28.5494   -5.7175   -5.3302 C   0  0  0  0  0  0  0  0  0  0  0  0
  -27.4536   -9.8776   -5.3328 N   0  0  0  0  0  0  0  0  0  0  0  0
  -27.8652  -10.6849   -4.8536 H   0  0  0  0  0  0  0  0  0  0  0  0
  -26.1293  -10.1350   -5.6739 C   0  0  0  0  0  0  0  0  0  0  0  0
  -25.7317  -10.8515   -6.7364 C   0  0  0  0  0  0  0  0  0  0  0  0
  -24.3198  -11.1505   -7.0112 C   0  0  0  0  0  0  0  0  0  0  0  0
  -24.0126  -11.7120   -8.0541 O   0  0  0  0  0  0  0  0  0  0  0  0
  -23.3329  -10.7703   -5.9652 C   0  0  0  0  0  0  0  0  0  0  0  0
  -21.5882  -11.4152   -6.1298 Br  0  0  0  0  0  0  0  0  0  0  0  0
  -23.6981   -9.9896   -4.9434 C   0  0  0  0  0  0  0  0  0  0  0  0
  -25.0972   -9.5307   -4.7828 C   0  0  0  0  0  0  0  0  0  0  0  0
  -25.3976   -8.7164   -3.9146 O   0  0  0  0  0  0  0  0  0  0  0  0
  -27.7475   -5.0101   -4.4828 O   0  0  0  0  0  0  0  0  0  0  0  0
  -28.3014   -4.1864   -3.4727 C   0  0  0  0  0  0  0  0  0  0  0  0
  -30.0174   -4.0443   -6.5203 O   0  0  0  0  0  0  0  0  0  0  0  0
  -29.0954   -3.0066   -6.7854 C   0  0  0  0  0  0  0  0  0  0  0  0
  -28.3496   -3.1783   -8.1003 C   0  0  0  0  0  0  0  0  0  0  0  0
  -27.7748   -0.9845   -7.3907 C   0  0  0  0  0  0  0  0  0  0  0  0
  -27.3798   -2.1266   -8.1258 O   0  0  0  0  0  0  0  0  0  0  0  0
 27 28  1  0  0  0
 28 26  1  0  0  0
 26 25  1  0  0  0
 25 24  1  0  0  0
 24  1  1  0  0  0
  1  2  1  0  0  0
  1 10  2  0  0  0
  2  3  2  0  0  0
  3  4  1  0  0  0
  3  8  1  0  0  0
  4  5  2  0  0  0
  5  6  1  0  0  0
  6  7  2  0  0  0
  7 11  1  0  0  0
  7  8  1  0  0  0
 11 13  1  0  0  0
 11 12  1  0  0  0
 13 14  2  0  0  0
 13 20  1  0  0  0
 14 15  1  0  0  0
 15 16  2  0  0  0
 15 17  1  0  0  0
 17 18  1  0  0  0
 17 19  2  0  0  0
 19 20  1  0  0  0
 20 21  2  0  0  0
  8  9  2  0  0  0
  9 10  1  0  0  0
 10 22  1  0  0  0
 22 23  1  0  0  0
M  END
> <minimizedAffinity>
-6.84079

$$$$
