CHEMBL2403376


 29 32  0  0  0  0  0  0  0  0999 V2000
  -29.9029   -3.8229   -5.8086 C   0  0  0  0  0  0  0  0  0  0  0  0
  -29.0683   -2.8726   -5.3566 C   0  0  0  0  0  0  0  0  0  0  0  0
  -27.7397   -3.0909   -4.6664 C   0  0  0  0  0  0  0  0  0  0  0  0
  -27.2247   -4.1276   -4.2956 O   0  0  0  0  0  0  0  0  0  0  0  0
  -27.2165   -1.8241   -4.4859 N   0  0  0  0  0  0  0  0  0  0  0  0
  -28.0876   -0.8437   -4.9381 C   0  0  0  0  0  0  0  0  0  0  0  0
  -27.8764    0.5190   -4.8675 C   0  0  0  0  0  0  0  0  0  0  0  0
  -28.8876    1.3473   -5.3438 C   0  0  0  0  0  0  0  0  0  0  0  0
  -30.0837    0.8114   -5.8859 C   0  0  0  0  0  0  0  0  0  0  0  0
  -30.2588   -0.5925   -5.9557 C   0  0  0  0  0  0  0  0  0  0  0  0
  -29.2491   -1.4119   -5.4723 C   0  0  0  0  0  0  0  0  0  0  0  0
  -26.3264   -1.6676   -4.0404 H   0  0  0  0  0  0  0  0  0  0  0  0
  -27.9088  -12.1140   -5.2077 C   0  0  0  0  0  0  0  0  0  0  0  0
  -28.0288  -10.9629   -6.1766 C   0  0  0  0  0  0  0  0  0  0  0  0
  -27.7610  -11.1254   -7.3666 O   0  0  0  0  0  0  0  0  0  0  0  0
  -28.4562   -9.7401   -5.6568 N   0  0  0  0  0  0  0  0  0  0  0  0
  -28.6874   -9.5480   -4.2097 C   0  0  0  0  0  0  0  0  0  0  0  0
  -29.1083   -8.1719   -3.6543 C   0  0  0  0  0  0  0  0  0  0  0  0
  -29.2469   -7.1607   -4.7147 C   0  0  0  0  0  0  0  0  0  0  0  0
  -29.6072   -5.8514   -4.5293 N   0  0  0  0  0  0  0  0  0  0  0  0
  -29.5956   -5.2037   -5.7439 C   0  0  0  0  0  0  0  0  0  0  0  0
  -29.2393   -6.1316   -6.7043 C   0  0  0  0  0  0  0  0  0  0  0  0
  -28.9804   -7.3627   -6.0462 C   0  0  0  0  0  0  0  0  0  0  0  0
  -28.4691   -8.6299   -6.6182 C   0  0  0  0  0  0  0  0  0  0  0  0
  -29.8009   -5.4178   -3.6360 H   0  0  0  0  0  0  0  0  0  0  0  0
  -31.1656    1.7531   -6.3720 C   0  0  0  0  0  0  0  0  0  0  0  0
  -30.7532    2.5737   -7.3799 F   0  0  0  0  0  0  0  0  0  0  0  0
  -32.2563    1.0965   -6.8502 F   0  0  0  0  0  0  0  0  0  0  0  0
  -31.6199    2.5764   -5.3876 F   0  0  0  0  0  0  0  0  0  0  0  0
 13 14  1  0  0  0
 14 15  2  0  0  0
 14 16  1  0  0  0
 16 17  1  0  0  0
 16 24  1  0  0  0
 17 18  1  0  0  0
 18 19  1  0  0  0
 19 20  1  0  0  0
 19 23  2  0  0  0
 20 21  1  0  0  0
 20 25  1  0  0  0
 21  1  1  0  0  0
 21 22  2  0  0  0
  1  2  2  0  0  0
  2  3  1  0  0  0
  2 11  1  0  0  0
  3  4  2  0  0  0
  3  5  1  0  0  0
  5  6  1  0  0  0
  5 12  1  0  0  0
  6  7  1  0  0  0
  6 11  2  0  0  0
  7  8  2  0  0  0
  8  9  1  0  0  0
  9 26  1  0  0  0
  9 10  2  0  0  0
 26 27  1  0  0  0
 26 28  1  0  0  0
 26 29  1  0  0  0
 10 11  1  0  0  0
 22 23  1  0  0  0
 23 24  1  0  0  0
M  END
> <minimizedAffinity>
-7.99471

$$$$
