CHEMBL3741592


 39 43  0  0  0  0  0  0  0  0999 V2000
  -29.5689   -6.0697   -7.2281 C   0  0  0  0  0  0  0  0  0  0  0  0
  -30.3341   -6.3863   -6.1082 C   0  0  0  0  0  0  0  0  0  0  0  0
  -29.9455   -7.4584   -5.3026 C   0  0  0  0  0  0  0  0  0  0  0  0
  -28.8556   -8.2689   -5.6793 C   0  0  0  0  0  0  0  0  0  0  0  0
  -28.3963   -9.3750   -4.9489 C   0  0  0  0  0  0  0  0  0  0  0  0
  -28.7462  -10.5392   -5.5983 C   0  0  0  0  0  0  0  0  0  0  0  0
  -28.4603  -10.5928   -6.9580 C   0  0  0  0  0  0  0  0  0  0  0  0
  -28.1364   -9.4089   -7.6367 C   0  0  0  0  0  0  0  0  0  0  0  0
  -28.4605   -8.1908   -7.0194 C   0  0  0  0  0  0  0  0  0  0  0  0
  -28.6562   -6.9990   -7.7284 C   0  0  0  0  0  0  0  0  0  0  0  0
  -26.8262   -9.3415   -4.7195 C   0  0  0  0  0  0  0  0  0  0  0  0
  -26.2739   -8.3222   -4.3149 O   0  0  0  0  0  0  0  0  0  0  0  0
  -26.1670  -10.5333   -5.0412 N   0  0  0  0  0  0  0  0  0  0  0  0
  -26.7542  -11.3236   -5.2593 H   0  0  0  0  0  0  0  0  0  0  0  0
  -24.7747  -10.7869   -5.1798 C   0  0  0  0  0  0  0  0  0  0  0  0
  -24.0377  -10.6051   -6.3508 C   0  0  0  0  0  0  0  0  0  0  0  0
  -22.6608  -10.8922   -6.3801 C   0  0  0  0  0  0  0  0  0  0  0  0
  -22.0078  -11.3677   -5.2427 C   0  0  0  0  0  0  0  0  0  0  0  0
  -22.7333  -11.5723   -4.0764 C   0  0  0  0  0  0  0  0  0  0  0  0
  -24.1061  -11.2898   -4.0488 C   0  0  0  0  0  0  0  0  0  0  0  0
  -29.8434   -4.8925   -7.8764 O   0  0  0  0  0  0  0  0  0  0  0  0
  -27.9711   -1.9856   -8.5157 C   0  0  0  0  0  0  0  0  0  0  0  0
  -27.4492   -1.6295   -7.3314 N   0  0  0  0  0  0  0  0  0  0  0  0
  -27.7923   -2.3706   -6.2623 C   0  0  0  0  0  0  0  0  0  0  0  0
  -28.6159   -3.4641   -6.3317 C   0  0  0  0  0  0  0  0  0  0  0  0
  -29.0387   -3.8037   -7.5968 C   0  0  0  0  0  0  0  0  0  0  0  0
  -28.7436   -3.0657   -8.6805 N   0  0  0  0  0  0  0  0  0  0  0  0
  -27.6723   -1.1271   -9.5761 N   0  0  0  0  0  0  0  0  0  0  0  0
  -28.2020   -0.2760   -9.4418 H   0  0  0  0  0  0  0  0  0  0  0  0
  -25.2945   -1.5733  -12.3788 C   0  0  0  0  0  0  0  0  0  0  0  0
  -26.1343   -1.8846  -13.4475 C   0  0  0  0  0  0  0  0  0  0  0  0
  -27.4991   -1.9702  -13.2251 C   0  0  0  0  0  0  0  0  0  0  0  0
  -28.0188   -1.7395  -11.9450 C   0  0  0  0  0  0  0  0  0  0  0  0
  -27.1948   -1.3750  -10.8695 C   0  0  0  0  0  0  0  0  0  0  0  0
  -25.8132   -1.3061  -11.1056 C   0  0  0  0  0  0  0  0  0  0  0  0
  -23.4191   -0.4779  -14.1020 C   0  0  0  0  0  0  0  0  0  0  0  0
  -23.5322   -1.4864  -12.6398 S   0  0  0  0  0  0  0  0  0  0  0  0
  -23.0702   -2.8115  -12.9658 O   0  0  0  0  0  0  0  0  0  0  0  0
  -22.9508   -0.7301  -11.5445 O   0  0  0  0  0  0  0  0  0  0  0  0
 36 37  1  0  0  0
 37 38  2  0  0  0
 37 39  2  0  0  0
 37 30  1  0  0  0
 30 31  1  0  0  0
 30 35  2  0  0  0
 31 32  2  0  0  0
 32 33  1  0  0  0
 33 34  2  0  0  0
 34 28  1  0  0  0
 34 35  1  0  0  0
 28 22  1  0  0  0
 28 29  1  0  0  0
 22 23  1  0  0  0
 22 27  2  0  0  0
 23 24  2  0  0  0
 24 25  1  0  0  0
 25 26  2  0  0  0
 26 21  1  0  0  0
 26 27  1  0  0  0
 21  1  1  0  0  0
  1  2  1  0  0  0
  1 10  2  0  0  0
  2  3  2  0  0  0
  3  4  1  0  0  0
  4  5  1  0  0  0
  4  9  2  0  0  0
  5 11  1  0  0  0
  5  6  2  0  0  0
 11 12  2  0  0  0
 11 13  1  0  0  0
 13 15  1  0  0  0
 13 14  1  0  0  0
 15 16  1  0  0  0
 15 20  2  0  0  0
 16 17  2  0  0  0
 17 18  1  0  0  0
 18 19  2  0  0  0
 19 20  1  0  0  0
  6  7  1  0  0  0
  7  8  2  0  0  0
  8  9  1  0  0  0
  9 10  1  0  0  0
M  END
> <minimizedAffinity>
-9.39364

$$$$
