CHEMBL3128223


 40 44  0  0  0  0  0  0  0  0999 V2000
  -25.9478   10.3205  -16.1545 C   0  0  0  0  0  0  0  0  0  0  0  0
  -26.7762    9.5625  -16.9787 C   0  0  0  0  0  0  0  0  0  0  0  0
  -28.1235    9.4052  -16.6428 C   0  0  0  0  0  0  0  0  0  0  0  0
  -28.6321    9.9833  -15.4750 C   0  0  0  0  0  0  0  0  0  0  0  0
  -27.7950   10.7218  -14.6261 C   0  0  0  0  0  0  0  0  0  0  0  0
  -26.4551   10.9069  -14.9949 C   0  0  0  0  0  0  0  0  0  0  0  0
  -24.5564   10.4624  -16.4057 N   0  0  0  0  0  0  0  0  0  0  0  0
  -24.1260    9.7432  -16.9871 H   0  0  0  0  0  0  0  0  0  0  0  0
  -23.9211   11.9817  -16.7604 S   0  0  0  0  0  0  0  0  0  0  0  0
  -23.4241   12.5796  -15.5410 O   0  0  0  0  0  0  0  0  0  0  0  0
  -24.9240   12.6590  -17.5591 O   0  0  0  0  0  0  0  0  0  0  0  0
  -20.2955   11.2072  -19.4212 C   0  0  0  0  0  0  0  0  0  0  0  0
  -21.4795   11.6945  -19.9986 C   0  0  0  0  0  0  0  0  0  0  0  0
  -22.6045   11.9115  -19.1938 C   0  0  0  0  0  0  0  0  0  0  0  0
  -22.5381   11.6298  -17.8232 C   0  0  0  0  0  0  0  0  0  0  0  0
  -21.3529   11.1545  -17.2484 C   0  0  0  0  0  0  0  0  0  0  0  0
  -20.2286   10.9379  -18.0473 C   0  0  0  0  0  0  0  0  0  0  0  0
  -18.0317   11.4618  -19.8595 O   0  0  0  0  0  0  0  0  0  0  0  0
  -19.1069   10.9925  -20.2570 N   0  0  0  0  0  0  0  0  0  0  0  0
  -19.2494   10.3513  -21.3085 O   0  0  0  0  0  0  0  0  0  0  0  0
  -28.3162   11.3262  -13.3398 C   0  0  0  0  0  0  0  0  0  0  0  0
  -28.9307   12.6036  -13.6445 N   0  0  0  0  0  0  0  0  0  0  0  0
  -28.5440   13.0604  -14.4602 H   0  0  0  0  0  0  0  0  0  0  0  0
  -30.3221   12.6508  -13.5991 C   0  0  0  0  0  0  0  0  0  0  0  0
  -31.0594   12.6589  -14.7359 N   0  0  0  0  0  0  0  0  0  0  0  0
  -32.4064   12.6463  -14.6378 C   0  0  0  0  0  0  0  0  0  0  0  0
  -33.1585   12.6338  -13.5241 N   0  0  0  0  0  0  0  0  0  0  0  0
  -32.3985   12.6299  -12.4136 C   0  0  0  0  0  0  0  0  0  0  0  0
  -31.0149   12.6485  -12.3793 C   0  0  0  0  0  0  0  0  0  0  0  0
  -30.6969   12.6573  -11.0088 C   0  0  0  0  0  0  0  0  0  0  0  0
  -31.7756   12.6408  -10.2227 N   0  0  0  0  0  0  0  0  0  0  0  0
  -32.8099   12.5787  -11.1020 N   0  0  0  0  0  0  0  0  0  0  0  0
  -34.1579   12.4837  -10.5587 C   0  0  0  0  0  0  0  0  0  0  0  0
  -34.7314   11.0683  -10.4872 C   0  0  0  0  0  0  0  0  0  0  0  0
  -34.8726   10.3198  -11.7966 C   0  0  0  0  0  0  0  0  0  0  0  0
  -34.3534    9.0158  -11.8736 C   0  0  0  0  0  0  0  0  0  0  0  0
  -34.5354    8.2340  -13.0146 C   0  0  0  0  0  0  0  0  0  0  0  0
  -35.2449    8.7424  -14.0975 C   0  0  0  0  0  0  0  0  0  0  0  0
  -35.7627   10.0348  -14.0404 C   0  0  0  0  0  0  0  0  0  0  0  0
  -35.5827   10.8190  -12.8960 C   0  0  0  0  0  0  0  0  0  0  0  0
 18 19  2  0  0  0
 19 20  1  0  0  0
 19 12  1  0  0  0
 12 13  1  0  0  0
 12 17  2  0  0  0
 13 14  2  0  0  0
 14 15  1  0  0  0
 15  9  1  0  0  0
 15 16  2  0  0  0
  9 10  2  0  0  0
  9 11  2  0  0  0
  9  7  1  0  0  0
  7  1  1  0  0  0
  7  8  1  0  0  0
  1  2  1  0  0  0
  1  6  2  0  0  0
  2  3  2  0  0  0
  3  4  1  0  0  0
  4  5  2  0  0  0
  5 21  1  0  0  0
  5  6  1  0  0  0
 21 22  1  0  0  0
 22 24  1  0  0  0
 22 23  1  0  0  0
 24 25  1  0  0  0
 24 29  2  0  0  0
 25 26  2  0  0  0
 26 27  1  0  0  0
 27 28  2  0  0  0
 28 29  1  0  0  0
 28 32  1  0  0  0
 29 30  1  0  0  0
 30 31  2  0  0  0
 31 32  1  0  0  0
 32 33  1  0  0  0
 33 34  1  0  0  0
 34 35  1  0  0  0
 35 36  1  0  0  0
 35 40  2  0  0  0
 36 37  2  0  0  0
 37 38  1  0  0  0
 38 39  2  0  0  0
 39 40  1  0  0  0
 16 17  1  0  0  0
M  CHG 1  19   1
M  CHG 1  20  -1
M  END
> <minimizedAffinity>
-4.81693

$$$$
