CHEMBL3947769


 36 39  0  0  0  0  0  0  0  0999 V2000
  -12.8332   -1.9535  -15.3475 C   0  0  0  0  0  0  0  0  0  0  0  0
  -13.2863   -0.6641  -15.6137 C   0  0  0  0  0  0  0  0  0  0  0  0
  -13.0353    0.4133  -14.7421 C   0  0  0  0  0  0  0  0  0  0  0  0
  -13.5065    1.7109  -14.9385 C   0  0  0  0  0  0  0  0  0  0  0  0
  -13.2053    2.7154  -14.0937 N   0  0  0  0  0  0  0  0  0  0  0  0
  -12.4458    2.4123  -13.0392 C   0  0  0  0  0  0  0  0  0  0  0  0
  -11.9488    1.2076  -12.7526 N   0  0  0  0  0  0  0  0  0  0  0  0
  -12.2525    0.2304  -13.6094 C   0  0  0  0  0  0  0  0  0  0  0  0
  -11.7933   -1.0388  -13.3421 C   0  0  0  0  0  0  0  0  0  0  0  0
  -12.1316   -2.1481  -14.1361 C   0  0  0  0  0  0  0  0  0  0  0  0
  -12.9317   -2.8760  -17.5925 C   0  0  0  0  0  0  0  0  0  0  0  0
  -13.0591   -3.0195  -16.1716 O   0  0  0  0  0  0  0  0  0  0  0  0
  -14.3232    1.9762  -16.0709 N   0  0  0  0  0  0  0  0  0  0  0  0
  -14.1054    1.3308  -16.8128 H   0  0  0  0  0  0  0  0  0  0  0  0
  -15.6901    2.3009  -15.9719 C   0  0  0  0  0  0  0  0  0  0  0  0
  -16.1002    3.6342  -16.0633 C   0  0  0  0  0  0  0  0  0  0  0  0
  -17.4290    3.9876  -15.8526 C   0  0  0  0  0  0  0  0  0  0  0  0
  -18.3664    3.0003  -15.5612 C   0  0  0  0  0  0  0  0  0  0  0  0
  -19.9847    3.5072  -15.2378 Cl  0  0  0  0  0  0  0  0  0  0  0  0
  -17.9756    1.6540  -15.5155 C   0  0  0  0  0  0  0  0  0  0  0  0
  -19.0880    0.3796  -15.1648 Cl  0  0  0  0  0  0  0  0  0  0  0  0
  -16.6404    1.3050  -15.7340 C   0  0  0  0  0  0  0  0  0  0  0  0
  -11.8013   -3.4279  -13.7274 O   0  0  0  0  0  0  0  0  0  0  0  0
  -11.1257   -3.4406  -12.4490 C   0  0  0  0  0  0  0  0  0  0  0  0
  -11.8375   -4.2576  -11.3730 C   0  0  0  0  0  0  0  0  0  0  0  0
  -11.9840   -3.4101  -10.0937 C   0  0  0  0  0  0  0  0  0  0  0  0
  -12.9002   -3.9587   -9.0800 N   0  0  0  0  0  0  0  0  0  0  0  0
  -12.2789   -4.9608   -8.2188 C   0  0  0  0  0  0  0  0  0  0  0  0
  -11.2058   -5.8797   -8.8073 C   0  0  0  0  0  0  0  0  0  0  0  0
  -11.4984   -6.3708  -10.2142 C   0  0  0  0  0  0  0  0  0  0  0  0
  -11.0380   -5.4445  -11.1911 O   0  0  0  0  0  0  0  0  0  0  0  0
  -14.2010   -4.3194   -9.6578 C   0  0  0  0  0  0  0  0  0  0  0  0
  -15.2112   -3.1787   -9.7715 C   0  0  0  0  0  0  0  0  0  0  0  0
  -16.0126   -3.1726  -11.0792 C   0  0  0  0  0  0  0  0  0  0  0  0
  -15.2993   -2.3728  -12.1698 C   0  0  0  0  0  0  0  0  0  0  0  0
  -16.2388   -4.6150  -11.5268 C   0  0  0  0  0  0  0  0  0  0  0  0
 11 12  1  0  0  0
 12  1  1  0  0  0
  1  2  1  0  0  0
  1 10  2  0  0  0
  2  3  2  0  0  0
  3  4  1  0  0  0
  3  8  1  0  0  0
  4 13  1  0  0  0
  4  5  2  0  0  0
 13 15  1  0  0  0
 13 14  1  0  0  0
 15 16  1  0  0  0
 15 22  2  0  0  0
 16 17  2  0  0  0
 17 18  1  0  0  0
 18 19  1  0  0  0
 18 20  2  0  0  0
 20 21  1  0  0  0
 20 22  1  0  0  0
  5  6  1  0  0  0
  6  7  2  0  0  0
  7  8  1  0  0  0
  8  9  2  0  0  0
  9 10  1  0  0  0
 10 23  1  0  0  0
 23 24  1  0  0  0
 24 25  1  0  0  0
 25 26  1  0  0  0
 25 31  1  0  0  0
 26 27  1  0  0  0
 27 32  1  0  0  0
 27 28  1  0  0  0
 32 33  1  0  0  0
 33 34  1  0  0  0
 34 35  1  0  0  0
 34 36  1  0  0  0
 28 29  1  0  0  0
 29 30  1  0  0  0
 30 31  1  0  0  0
M  END
> <minimizedAffinity>
-7.56954

$$$$
