CHEMBL2023495


 33 36  0  0  0  0  0  0  0  0999 V2000
  -29.2170   -8.3135   -8.0093 C   0  0  0  0  0  0  0  0  0  0  0  0
  -28.3142   -7.3202   -8.2092 N   0  0  0  0  0  0  0  0  0  0  0  0
  -28.6808   -6.0660   -7.8475 C   0  0  0  0  0  0  0  0  0  0  0  0
  -29.9147   -5.7308   -7.3141 C   0  0  0  0  0  0  0  0  0  0  0  0
  -30.8851   -6.7487   -7.2702 C   0  0  0  0  0  0  0  0  0  0  0  0
  -30.5298   -8.0709   -7.5849 C   0  0  0  0  0  0  0  0  0  0  0  0
  -31.3337   -9.1710   -7.4964 O   0  0  0  0  0  0  0  0  0  0  0  0
  -32.7247   -8.9898   -7.2743 C   0  0  0  0  0  0  0  0  0  0  0  0
  -28.7104   -9.7182   -8.2370 C   0  0  0  0  0  0  0  0  0  0  0  0
  -26.7140   -9.4605   -6.8503 N   0  0  0  0  0  0  0  0  0  0  0  0
  -27.7906  -10.2697   -7.1630 C   0  0  0  0  0  0  0  0  0  0  0  0
  -28.0978  -11.3207   -6.5914 O   0  0  0  0  0  0  0  0  0  0  0  0
  -26.5899   -8.5991   -7.3544 H   0  0  0  0  0  0  0  0  0  0  0  0
  -24.0704  -10.4402   -4.6843 N   0  0  0  0  0  0  0  0  0  0  0  0
  -24.5670  -10.3591   -5.9460 C   0  0  0  0  0  0  0  0  0  0  0  0
  -25.7947   -9.7530   -5.8422 C   0  0  0  0  0  0  0  0  0  0  0  0
  -25.9589   -9.5116   -4.4612 C   0  0  0  0  0  0  0  0  0  0  0  0
  -24.8899   -9.9340   -3.7447 N   0  0  0  0  0  0  0  0  0  0  0  0
  -22.6555  -11.1859   -2.8111 C   0  0  0  0  0  0  0  0  0  0  0  0
  -22.8077  -11.0486   -4.3119 C   0  0  0  0  0  0  0  0  0  0  0  0
  -30.0407   -4.4172   -6.8773 O   0  0  0  0  0  0  0  0  0  0  0  0
  -29.2326   -3.9857   -5.8341 C   0  0  0  0  0  0  0  0  0  0  0  0
  -29.2091   -4.6461   -4.6194 C   0  0  0  0  0  0  0  0  0  0  0  0
  -28.7895   -3.9191   -3.5315 C   0  0  0  0  0  0  0  0  0  0  0  0
  -28.5091   -2.5950   -3.5868 N   0  0  0  0  0  0  0  0  0  0  0  0
  -28.4454   -2.0143   -4.7985 C   0  0  0  0  0  0  0  0  0  0  0  0
  -28.4262   -0.6382   -4.9588 C   0  0  0  0  0  0  0  0  0  0  0  0
  -28.3613   -0.1018   -6.2386 C   0  0  0  0  0  0  0  0  0  0  0  0
  -27.8390   -0.8682   -7.2620 C   0  0  0  0  0  0  0  0  0  0  0  0
  -28.0989   -2.2234   -7.1855 C   0  0  0  0  0  0  0  0  0  0  0  0
  -28.5715   -2.7617   -5.9712 C   0  0  0  0  0  0  0  0  0  0  0  0
  -29.0409    1.0634   -6.4901 O   0  0  0  0  0  0  0  0  0  0  0  0
  -30.2881    1.1676   -5.7732 C   0  0  0  0  0  0  0  0  0  0  0  0
 19 20  1  0  0  0
 20 14  1  0  0  0
 14 15  1  0  0  0
 14 18  1  0  0  0
 15 16  2  0  0  0
 16 10  1  0  0  0
 16 17  1  0  0  0
 10 11  1  0  0  0
 10 13  1  0  0  0
 11 12  2  0  0  0
 11  9  1  0  0  0
  9  1  1  0  0  0
  1  2  1  0  0  0
  1  6  2  0  0  0
  2  3  2  0  0  0
  3  4  1  0  0  0
  4 21  1  0  0  0
  4  5  2  0  0  0
 21 22  1  0  0  0
 22 23  1  0  0  0
 22 31  2  0  0  0
 23 24  2  0  0  0
 24 25  1  0  0  0
 25 26  2  0  0  0
 26 27  1  0  0  0
 26 31  1  0  0  0
 27 28  2  0  0  0
 28 32  1  0  0  0
 28 29  1  0  0  0
 32 33  1  0  0  0
 29 30  2  0  0  0
 30 31  1  0  0  0
  5  6  1  0  0  0
  6  7  1  0  0  0
  7  8  1  0  0  0
 17 18  2  0  0  0
M  END
> <minimizedAffinity>
-8.26321

$$$$
