CHEMBL199460


 73 78  0  0  0  0  0  0  0  0999 V2000
  -27.3391   -2.3344   -8.6160 C   0  0  0  0  0  0  0  0  0  0  0  0
  -27.8803   -3.6898   -8.7178 N   0  0  0  0  0  0  0  0  0  0  0  0
  -28.1806   -4.4497   -7.6073 C   0  0  0  0  0  0  0  0  0  0  0  0
  -27.9415   -4.0561   -6.4725 O   0  0  0  0  0  0  0  0  0  0  0  0
  -28.1617   -3.9947   -9.6464 H   0  0  0  0  0  0  0  0  0  0  0  0
  -28.8163   -5.7762   -7.8282 C   0  0  0  0  0  0  0  0  0  0  0  0
  -28.1801   -6.7963   -8.5295 C   0  0  0  0  0  0  0  0  0  0  0  0
  -26.9711   -6.6035   -9.0823 F   0  0  0  0  0  0  0  0  0  0  0  0
  -28.7769   -8.0467   -8.6822 C   0  0  0  0  0  0  0  0  0  0  0  0
  -28.1092   -8.9970   -9.3550 F   0  0  0  0  0  0  0  0  0  0  0  0
  -30.0389   -8.3336   -8.1513 C   0  0  0  0  0  0  0  0  0  0  0  0
  -30.6857   -7.2944   -7.4715 C   0  0  0  0  0  0  0  0  0  0  0  0
  -31.9125   -7.4924   -6.9634 F   0  0  0  0  0  0  0  0  0  0  0  0
  -30.0877   -6.0413   -7.3070 C   0  0  0  0  0  0  0  0  0  0  0  0
  -30.7717   -5.1100   -6.6278 F   0  0  0  0  0  0  0  0  0  0  0  0
  -30.5970   -9.6081   -8.3933 N   0  0  0  0  0  0  0  0  0  0  0  0
  -29.9928  -10.5756   -7.8832 N   0  0  0  0  0  0  0  0  0  0  0  0
  -29.4556  -11.4738   -7.4370 N   0  0  0  0  0  0  0  0  0  0  0  0
  -25.7545   -1.7860  -10.4085 N   0  0  0  0  0  0  0  0  0  0  0  0
  -27.0753   -1.8482  -10.0648 C   0  0  0  0  0  0  0  0  0  0  0  0
  -27.9802   -1.6303  -10.8665 O   0  0  0  0  0  0  0  0  0  0  0  0
  -25.0650   -2.2253   -9.8078 H   0  0  0  0  0  0  0  0  0  0  0  0
  -25.3070   -1.3962  -11.7466 C   0  0  0  0  0  0  0  0  0  0  0  0
  -23.7879   -1.4828  -11.8539 C   0  0  0  0  0  0  0  0  0  0  0  0
  -23.2322   -0.3297  -12.5152 O   0  0  0  0  0  0  0  0  0  0  0  0
  -23.1670   -0.4801  -13.9521 C   0  0  0  0  0  0  0  0  0  0  0  0
  -21.8307    0.0613  -14.4648 C   0  0  0  0  0  0  0  0  0  0  0  0
  -21.1700    1.0381  -13.6816 O   0  0  0  0  0  0  0  0  0  0  0  0
  -20.0160    2.8464  -15.0134 C   0  0  0  0  0  0  0  0  0  0  0  0
  -18.7788    3.2932  -15.4926 C   0  0  0  0  0  0  0  0  0  0  0  0
  -17.6272    2.4859  -15.4073 C   0  0  0  0  0  0  0  0  0  0  0  0
  -16.3781    2.8490  -15.9354 C   0  0  0  0  0  0  0  0  0  0  0  0
  -15.3493    1.9859  -15.9574 N   0  0  0  0  0  0  0  0  0  0  0  0
  -15.5612    0.7903  -15.4003 C   0  0  0  0  0  0  0  0  0  0  0  0
  -16.6881    0.3703  -14.8145 N   0  0  0  0  0  0  0  0  0  0  0  0
  -17.7237    1.2178  -14.8308 C   0  0  0  0  0  0  0  0  0  0  0  0
  -18.9309    0.8224  -14.2667 C   0  0  0  0  0  0  0  0  0  0  0  0
  -20.0844    1.6167  -14.3221 C   0  0  0  0  0  0  0  0  0  0  0  0
  -22.0887    3.6423  -14.1467 C   0  0  0  0  0  0  0  0  0  0  0  0
  -21.1209    3.6324  -15.2018 O   0  0  0  0  0  0  0  0  0  0  0  0
  -16.2007    4.1304  -16.4980 N   0  0  0  0  0  0  0  0  0  0  0  0
  -16.7428    4.8542  -16.0347 H   0  0  0  0  0  0  0  0  0  0  0  0
  -15.1156    4.6191  -17.2510 C   0  0  0  0  0  0  0  0  0  0  0  0
  -15.1873    4.7256  -18.6441 C   0  0  0  0  0  0  0  0  0  0  0  0
  -14.2239    5.4452  -19.3542 C   0  0  0  0  0  0  0  0  0  0  0  0
  -13.1546    6.0283  -18.6778 C   0  0  0  0  0  0  0  0  0  0  0  0
  -12.0594    7.0407  -19.5342 Cl  0  0  0  0  0  0  0  0  0  0  0  0
  -12.9984    5.8379  -17.3094 C   0  0  0  0  0  0  0  0  0  0  0  0
  -13.9780    5.1366  -16.6108 C   0  0  0  0  0  0  0  0  0  0  0  0
  -13.8441    4.9911  -15.2826 F   0  0  0  0  0  0  0  0  0  0  0  0
  -28.3322   -1.3867   -7.9332 C   0  0  0  0  0  0  0  0  0  0  0  0
  -27.7091   -0.4775   -6.8654 C   0  0  0  0  0  0  0  0  0  0  0  0
  -27.8767   -1.0336   -5.4524 C   0  0  0  0  0  0  0  0  0  0  0  0
  -29.3524   -1.0860   -5.0633 C   0  0  0  0  0  0  0  0  0  0  0  0
  -29.8264   -2.4308   -4.9196 N   0  0  0  0  0  0  0  0  0  0  0  0
  -29.8252   -3.0424   -3.6863 C   0  0  0  0  0  0  0  0  0  0  0  0
  -29.4272   -2.5126   -2.6544 O   0  0  0  0  0  0  0  0  0  0  0  0
  -30.1871   -2.9120   -5.7318 H   0  0  0  0  0  0  0  0  0  0  0  0
  -30.3830   -4.4362   -3.7119 C   0  0  0  0  0  0  0  0  0  0  0  0
  -29.2591   -5.4674   -3.7155 C   0  0  0  0  0  0  0  0  0  0  0  0
  -29.8467   -6.8674   -3.7857 C   0  0  0  0  0  0  0  0  0  0  0  0
  -28.8089   -7.9378   -3.4394 C   0  0  0  0  0  0  0  0  0  0  0  0
  -28.6429   -8.9710   -4.5648 C   0  0  0  0  0  0  0  0  0  0  0  0
  -28.9351  -10.6685   -3.9716 S   0  0  0  0  0  0  0  0  0  0  0  0
  -27.2311  -10.9046   -3.4130 C   0  0  0  0  0  0  0  0  0  0  0  0
  -26.3419   -9.9492   -4.2199 C   0  0  0  0  0  0  0  0  0  0  0  0
  -25.5461  -10.6651   -5.1971 N   0  0  0  0  0  0  0  0  0  0  0  0
  -26.1146  -10.5922   -6.4514 C   0  0  0  0  0  0  0  0  0  0  0  0
  -25.7936  -11.2551   -7.4199 O   0  0  0  0  0  0  0  0  0  0  0  0
  -27.1094   -9.6406   -6.4101 N   0  0  0  0  0  0  0  0  0  0  0  0
  -27.2118   -9.0260   -5.0994 C   0  0  0  0  0  0  0  0  0  0  0  0
  -24.8853  -11.4040   -4.9965 H   0  0  0  0  0  0  0  0  0  0  0  0
  -27.6255   -9.3951   -7.2446 H   0  0  0  0  0  0  0  0  0  0  0  0
 39 40  1  0  0  0
 40 29  1  0  0  0
 29 30  1  0  0  0
 29 38  2  0  0  0
 30 31  2  0  0  0
 31 32  1  0  0  0
 31 36  1  0  0  0
 32 41  1  0  0  0
 32 33  2  0  0  0
 41 43  1  0  0  0
 41 42  1  0  0  0
 43 44  1  0  0  0
 43 49  2  0  0  0
 44 45  2  0  0  0
 45 46  1  0  0  0
 46 47  1  0  0  0
 46 48  2  0  0  0
 48 49  1  0  0  0
 49 50  1  0  0  0
 33 34  1  0  0  0
 34 35  2  0  0  0
 35 36  1  0  0  0
 36 37  2  0  0  0
 37 38  1  0  0  0
 38 28  1  0  0  0
 28 27  1  0  0  0
 27 26  1  0  0  0
 26 25  1  0  0  0
 25 24  1  0  0  0
 24 23  1  0  0  0
 23 19  1  0  0  0
 19 20  1  0  0  0
 19 22  1  0  0  0
 20 21  2  0  0  0
 20  1  1  0  0  0
  1 51  1  0  0  0
  1  2  1  0  0  0
 51 52  1  0  0  0
 52 53  1  0  0  0
 53 54  1  0  0  0
 54 55  1  0  0  0
 55 56  1  0  0  0
 55 58  1  0  0  0
 56 57  2  0  0  0
 56 59  1  0  0  0
 59 60  1  0  0  0
 60 61  1  0  0  0
 61 62  1  0  0  0
 62 63  1  0  0  0
 63 64  1  0  0  0
 63 71  1  0  0  0
 64 65  1  0  0  0
 65 66  1  0  0  0
 66 67  1  0  0  0
 66 71  1  0  0  0
 67 68  1  0  0  0
 67 72  1  0  0  0
 68 69  2  0  0  0
 68 70  1  0  0  0
 70 71  1  0  0  0
 70 73  1  0  0  0
  2  3  1  0  0  0
  2  5  1  0  0  0
  3  4  2  0  0  0
  3  6  1  0  0  0
  6  7  1  0  0  0
  6 14  2  0  0  0
  7  8  1  0  0  0
  7  9  2  0  0  0
  9 10  1  0  0  0
  9 11  1  0  0  0
 11 16  1  0  0  0
 11 12  2  0  0  0
 16 17  2  0  0  0
 17 18  2  0  0  0
 12 13  1  0  0  0
 12 14  1  0  0  0
 14 15  1  0  0  0
M  CHG 1  17   1
M  CHG 1  18  -1
M  END
> <minimizedAffinity>
-9.08666

$$$$
