CHEMBL4756717


 34 37  0  0  0  0  0  0  0  0999 V2000
  -23.0869   -0.6204  -13.0805 C   0  0  0  0  0  0  0  0  0  0  0  0
  -23.8316    0.3224  -12.3761 C   0  0  0  0  0  0  0  0  0  0  0  0
  -24.7732   -0.0897  -11.4269 C   0  0  0  0  0  0  0  0  0  0  0  0
  -24.9993   -1.4416  -11.1907 C   0  0  0  0  0  0  0  0  0  0  0  0
  -24.3784   -2.3870  -12.0079 C   0  0  0  0  0  0  0  0  0  0  0  0
  -23.4493   -1.9708  -12.9621 C   0  0  0  0  0  0  0  0  0  0  0  0
  -25.8056   -1.9166  -10.1363 N   0  0  0  0  0  0  0  0  0  0  0  0
  -27.1693   -1.7540  -10.0027 C   0  0  0  0  0  0  0  0  0  0  0  0
  -27.9083   -1.1488  -10.7760 O   0  0  0  0  0  0  0  0  0  0  0  0
  -25.3178   -2.4052   -9.3943 H   0  0  0  0  0  0  0  0  0  0  0  0
  -27.8117   -2.3423   -8.7989 C   0  0  0  0  0  0  0  0  0  0  0  0
  -28.0148   -3.7387   -8.8269 C   0  0  0  0  0  0  0  0  0  0  0  0
  -28.4832   -4.4058   -7.7098 C   0  0  0  0  0  0  0  0  0  0  0  0
  -28.6465   -5.7381   -7.7456 F   0  0  0  0  0  0  0  0  0  0  0  0
  -28.7566   -3.7219   -6.5393 C   0  0  0  0  0  0  0  0  0  0  0  0
  -28.5878   -2.3342   -6.4953 C   0  0  0  0  0  0  0  0  0  0  0  0
  -28.1326   -1.6392   -7.6228 C   0  0  0  0  0  0  0  0  0  0  0  0
  -27.9439    0.2406   -7.3967 Br  0  0  0  0  0  0  0  0  0  0  0  0
  -22.0188   -0.2182  -13.9107 N   0  0  0  0  0  0  0  0  0  0  0  0
  -21.9694   -0.7601  -14.7665 H   0  0  0  0  0  0  0  0  0  0  0  0
  -17.8667    2.4377  -15.2978 C   0  0  0  0  0  0  0  0  0  0  0  0
  -18.9377    3.3127  -15.0500 C   0  0  0  0  0  0  0  0  0  0  0  0
  -20.2000    2.8691  -14.7132 C   0  0  0  0  0  0  0  0  0  0  0  0
  -21.1556    3.7889  -14.5656 N   0  0  0  0  0  0  0  0  0  0  0  0
  -22.3696    3.3364  -14.2607 C   0  0  0  0  0  0  0  0  0  0  0  0
  -22.6940    2.0606  -14.0674 N   0  0  0  0  0  0  0  0  0  0  0  0
  -21.7139    1.1412  -14.1965 C   0  0  0  0  0  0  0  0  0  0  0  0
  -20.4092    1.4977  -14.5654 C   0  0  0  0  0  0  0  0  0  0  0  0
  -19.3227    0.6059  -14.7533 C   0  0  0  0  0  0  0  0  0  0  0  0
  -18.0427    1.0696  -15.0781 C   0  0  0  0  0  0  0  0  0  0  0  0
  -16.6239    4.3353  -15.8986 C   0  0  0  0  0  0  0  0  0  0  0  0
  -16.6778    2.9059  -15.8021 O   0  0  0  0  0  0  0  0  0  0  0  0
  -17.1254    0.0656  -15.2139 O   0  0  0  0  0  0  0  0  0  0  0  0
  -16.2418   -0.1804  -14.1259 C   0  0  0  0  0  0  0  0  0  0  0  0
 31 32  1  0  0  0
 32 21  1  0  0  0
 21 22  1  0  0  0
 21 30  2  0  0  0
 22 23  2  0  0  0
 23 24  1  0  0  0
 23 28  1  0  0  0
 24 25  2  0  0  0
 25 26  1  0  0  0
 26 27  2  0  0  0
 27 19  1  0  0  0
 27 28  1  0  0  0
 19  1  1  0  0  0
 19 20  1  0  0  0
  1  2  1  0  0  0
  1  6  2  0  0  0
  2  3  2  0  0  0
  3  4  1  0  0  0
  4  7  1  0  0  0
  4  5  2  0  0  0
  7  8  1  0  0  0
  7 10  1  0  0  0
  8  9  2  0  0  0
  8 11  1  0  0  0
 11 12  1  0  0  0
 11 17  2  0  0  0
 12 13  2  0  0  0
 13 14  1  0  0  0
 13 15  1  0  0  0
 15 16  2  0  0  0
 16 17  1  0  0  0
 17 18  1  0  0  0
  5  6  1  0  0  0
 28 29  2  0  0  0
 29 30  1  0  0  0
 30 33  1  0  0  0
 33 34  1  0  0  0
M  END
> <minimizedAffinity>
-9.38081

$$$$
