CHEMBL3985004


 38 41  0  0  0  0  0  0  0  0999 V2000
  -28.8042   -2.2189   -6.2376 C   0  0  0  0  0  0  0  0  0  0  0  0
  -28.2141   -1.0130   -6.6130 C   0  0  0  0  0  0  0  0  0  0  0  0
  -27.6599   -0.8654   -7.8904 C   0  0  0  0  0  0  0  0  0  0  0  0
  -27.6917   -1.9187   -8.8115 C   0  0  0  0  0  0  0  0  0  0  0  0
  -28.2711   -3.1320   -8.4212 C   0  0  0  0  0  0  0  0  0  0  0  0
  -28.8217   -3.2791   -7.1458 C   0  0  0  0  0  0  0  0  0  0  0  0
  -27.1426   -1.7540  -10.1546 C   0  0  0  0  0  0  0  0  0  0  0  0
  -25.8986   -1.3017  -10.5773 C   0  0  0  0  0  0  0  0  0  0  0  0
  -25.8605   -1.3235  -11.9980 C   0  0  0  0  0  0  0  0  0  0  0  0
  -24.9175   -1.0350  -13.0044 C   0  0  0  0  0  0  0  0  0  0  0  0
  -25.2859   -1.2439  -14.2917 N   0  0  0  0  0  0  0  0  0  0  0  0
  -26.5327   -1.6967  -14.5458 C   0  0  0  0  0  0  0  0  0  0  0  0
  -27.5047   -2.0009  -13.6676 N   0  0  0  0  0  0  0  0  0  0  0  0
  -27.0958   -1.7990  -12.4100 C   0  0  0  0  0  0  0  0  0  0  0  0
  -27.8571   -2.0393  -11.3022 N   0  0  0  0  0  0  0  0  0  0  0  0
  -28.8070   -2.3783  -11.3361 H   0  0  0  0  0  0  0  0  0  0  0  0
  -23.6373   -0.6077  -12.6906 N   0  0  0  0  0  0  0  0  0  0  0  0
  -23.5883    0.2455  -12.1479 H   0  0  0  0  0  0  0  0  0  0  0  0
  -22.5812   -0.8229  -13.6579 C   0  0  0  0  0  0  0  0  0  0  0  0
  -21.9892    0.5225  -14.0365 C   0  0  0  0  0  0  0  0  0  0  0  0
  -20.7751    0.6017  -14.7400 C   0  0  0  0  0  0  0  0  0  0  0  0
  -20.2703    1.8366  -15.1526 C   0  0  0  0  0  0  0  0  0  0  0  0
  -20.9744    3.0063  -14.8741 C   0  0  0  0  0  0  0  0  0  0  0  0
  -22.1674    2.9459  -14.1562 C   0  0  0  0  0  0  0  0  0  0  0  0
  -22.6665    1.7119  -13.7300 C   0  0  0  0  0  0  0  0  0  0  0  0
  -29.3305   -2.4907   -5.0035 O   0  0  0  0  0  0  0  0  0  0  0  0
  -29.3900   -3.8702   -4.6336 C   0  0  0  0  0  0  0  0  0  0  0  0
  -30.7889   -4.1662   -4.0938 C   0  0  0  0  0  0  0  0  0  0  0  0
  -31.1427   -5.6401   -4.2807 C   0  0  0  0  0  0  0  0  0  0  0  0
  -29.9133   -6.4821   -4.6284 C   0  0  0  0  0  0  0  0  0  0  0  0
  -30.2095   -7.4156   -5.8048 C   0  0  0  0  0  0  0  0  0  0  0  0
  -30.1385   -6.6894   -7.1511 C   0  0  0  0  0  0  0  0  0  0  0  0
  -29.4048   -8.4516   -8.6346 O   0  0  0  0  0  0  0  0  0  0  0  0
  -29.1733   -7.3568   -8.1055 C   0  0  0  0  0  0  0  0  0  0  0  0
  -28.0036   -6.6882   -8.3676 N   0  0  0  0  0  0  0  0  0  0  0  0
  -27.0090   -7.1597   -9.2238 O   0  0  0  0  0  0  0  0  0  0  0  0
  -27.8367   -5.7984   -7.9186 H   0  0  0  0  0  0  0  0  0  0  0  0
  -27.3119   -8.0330   -9.5385 H   0  0  0  0  0  0  0  0  0  0  0  0
 33 34  2  0  0  0
 34 32  1  0  0  0
 34 35  1  0  0  0
 32 31  1  0  0  0
 31 30  1  0  0  0
 30 29  1  0  0  0
 29 28  1  0  0  0
 28 27  1  0  0  0
 27 26  1  0  0  0
 26  1  1  0  0  0
  1  2  1  0  0  0
  1  6  2  0  0  0
  2  3  2  0  0  0
  3  4  1  0  0  0
  4  7  1  0  0  0
  4  5  2  0  0  0
  7  8  2  0  0  0
  7 15  1  0  0  0
  8  9  1  0  0  0
  9 10  1  0  0  0
  9 14  2  0  0  0
 10 17  1  0  0  0
 10 11  2  0  0  0
 17 19  1  0  0  0
 17 18  1  0  0  0
 19 20  1  0  0  0
 20 21  1  0  0  0
 20 25  2  0  0  0
 21 22  2  0  0  0
 22 23  1  0  0  0
 23 24  2  0  0  0
 24 25  1  0  0  0
 11 12  1  0  0  0
 12 13  2  0  0  0
 13 14  1  0  0  0
 14 15  1  0  0  0
 15 16  1  0  0  0
  5  6  1  0  0  0
 35 36  1  0  0  0
 35 37  1  0  0  0
 36 38  1  0  0  0
M  END
> <minimizedAffinity>
-10.18816

$$$$
