CHEMBL1982711


 22 24  0  0  0  0  0  0  0  0999 V2000
  -29.9842   -8.9372   -8.3833 C   0  0  0  0  0  0  0  0  0  0  0  0
  -28.8866   -8.1257   -8.0848 C   0  0  0  0  0  0  0  0  0  0  0  0
  -28.9995   -7.1284   -7.1083 C   0  0  0  0  0  0  0  0  0  0  0  0
  -30.2147   -6.8988   -6.4401 C   0  0  0  0  0  0  0  0  0  0  0  0
  -31.3198   -7.6728   -6.8071 C   0  0  0  0  0  0  0  0  0  0  0  0
  -31.2019   -8.7060   -7.7420 C   0  0  0  0  0  0  0  0  0  0  0  0
  -30.3336   -5.8367   -5.4382 C   0  0  0  0  0  0  0  0  0  0  0  0
  -30.7849   -6.1222   -4.1556 C   0  0  0  0  0  0  0  0  0  0  0  0
  -30.7362   -4.9801   -3.4091 N   0  0  0  0  0  0  0  0  0  0  0  0
  -30.2404   -3.9592   -4.1621 C   0  0  0  0  0  0  0  0  0  0  0  0
  -30.0413   -2.7219   -3.6706 N   0  0  0  0  0  0  0  0  0  0  0  0
  -29.5544   -1.8495   -4.5742 C   0  0  0  0  0  0  0  0  0  0  0  0
  -29.3046   -2.1340   -5.9008 C   0  0  0  0  0  0  0  0  0  0  0  0
  -29.5644   -3.4252   -6.3508 C   0  0  0  0  0  0  0  0  0  0  0  0
  -29.4241   -3.7696   -8.0165 Cl  0  0  0  0  0  0  0  0  0  0  0  0
  -30.0130   -4.4249   -5.4605 C   0  0  0  0  0  0  0  0  0  0  0  0
  -31.0004   -4.8809   -2.4396 H   0  0  0  0  0  0  0  0  0  0  0  0
  -29.4910   -9.6731  -10.6533 N   0  0  0  0  0  0  0  0  0  0  0  0
  -29.9139  -10.0176   -9.4022 C   0  0  0  0  0  0  0  0  0  0  0  0
  -30.1899  -11.1806   -9.1290 O   0  0  0  0  0  0  0  0  0  0  0  0
  -29.3432  -10.4399  -11.2996 H   0  0  0  0  0  0  0  0  0  0  0  0
  -29.0116   -8.8040  -10.8468 H   0  0  0  0  0  0  0  0  0  0  0  0
 18 19  1  0  0  0
 18 21  1  0  0  0
 18 22  1  0  0  0
 19 20  2  0  0  0
 19  1  1  0  0  0
  1  2  1  0  0  0
  1  6  2  0  0  0
  2  3  2  0  0  0
  3  4  1  0  0  0
  4  7  1  0  0  0
  4  5  2  0  0  0
  7  8  2  0  0  0
  7 16  1  0  0  0
  8  9  1  0  0  0
  9 10  1  0  0  0
  9 17  1  0  0  0
 10 11  1  0  0  0
 10 16  2  0  0  0
 11 12  2  0  0  0
 12 13  1  0  0  0
 13 14  2  0  0  0
 14 15  1  0  0  0
 14 16  1  0  0  0
  5  6  1  0  0  0
M  END
> <minimizedAffinity>
-7.72335

$$$$
