CHEMBL231128


 41 46  0  0  0  0  0  0  0  0999 V2000
  -17.3174    2.8191  -15.4795 C   0  0  0  0  0  0  0  0  0  0  0  0
  -17.3988    3.9625  -16.2456 C   0  0  0  0  0  0  0  0  0  0  0  0
  -15.9313    4.7908  -16.3579 S   0  0  0  0  0  0  0  0  0  0  0  0
  -15.0205    3.5272  -15.5962 C   0  0  0  0  0  0  0  0  0  0  0  0
  -13.6015    3.4409  -15.4205 C   0  0  0  0  0  0  0  0  0  0  0  0
  -13.2266    2.1751  -14.9766 C   0  0  0  0  0  0  0  0  0  0  0  0
  -14.0210    1.2433  -14.4325 N   0  0  0  0  0  0  0  0  0  0  0  0
  -15.3438    1.4349  -14.4241 C   0  0  0  0  0  0  0  0  0  0  0  0
  -16.0342    0.4452  -13.7353 N   0  0  0  0  0  0  0  0  0  0  0  0
  -15.9160    2.5236  -15.1310 C   0  0  0  0  0  0  0  0  0  0  0  0
  -15.3507   -0.2374  -13.4220 H   0  0  0  0  0  0  0  0  0  0  0  0
  -16.7758    0.0450  -14.2948 H   0  0  0  0  0  0  0  0  0  0  0  0
  -12.5660    4.5005  -15.6833 C   0  0  0  0  0  0  0  0  0  0  0  0
  -11.9471    5.2088  -14.6461 C   0  0  0  0  0  0  0  0  0  0  0  0
  -10.9863    6.1558  -14.7816 N   0  0  0  0  0  0  0  0  0  0  0  0
  -10.6965    6.5409  -16.0348 C   0  0  0  0  0  0  0  0  0  0  0  0
  -11.3275    6.0445  -17.1662 C   0  0  0  0  0  0  0  0  0  0  0  0
  -11.1301    6.6645  -18.4161 C   0  0  0  0  0  0  0  0  0  0  0  0
  -11.7618    6.1841  -19.5569 C   0  0  0  0  0  0  0  0  0  0  0  0
  -12.4697    4.9985  -19.4811 C   0  0  0  0  0  0  0  0  0  0  0  0
  -12.6254    4.3587  -18.2466 C   0  0  0  0  0  0  0  0  0  0  0  0
  -12.1907    4.9313  -17.0178 C   0  0  0  0  0  0  0  0  0  0  0  0
  -20.9749    0.5534  -14.9810 C   0  0  0  0  0  0  0  0  0  0  0  0
  -20.9222    1.9263  -14.7238 C   0  0  0  0  0  0  0  0  0  0  0  0
  -19.7367    2.6568  -14.8826 C   0  0  0  0  0  0  0  0  0  0  0  0
  -18.5412    2.0251  -15.2405 C   0  0  0  0  0  0  0  0  0  0  0  0
  -18.5660    0.6289  -15.3561 C   0  0  0  0  0  0  0  0  0  0  0  0
  -19.7726   -0.0993  -15.2586 C   0  0  0  0  0  0  0  0  0  0  0  0
  -24.1328   -1.0523  -14.0033 N   0  0  0  0  0  0  0  0  0  0  0  0
  -23.0907   -0.1379  -13.9026 C   0  0  0  0  0  0  0  0  0  0  0  0
  -22.9544    0.6387  -12.9645 O   0  0  0  0  0  0  0  0  0  0  0  0
  -22.2004   -0.1781  -14.9713 N   0  0  0  0  0  0  0  0  0  0  0  0
  -24.2306   -1.5693  -14.8634 H   0  0  0  0  0  0  0  0  0  0  0  0
  -22.5628   -0.4786  -15.8642 H   0  0  0  0  0  0  0  0  0  0  0  0
  -28.8141   -2.2629  -12.7969 C   0  0  0  0  0  0  0  0  0  0  0  0
  -27.4206   -1.8767  -12.3950 C   0  0  0  0  0  0  0  0  0  0  0  0
  -27.1107   -1.7312  -11.0423 C   0  0  0  0  0  0  0  0  0  0  0  0
  -25.8214   -1.3945  -10.6586 C   0  0  0  0  0  0  0  0  0  0  0  0
  -24.8351   -1.1749  -11.6236 C   0  0  0  0  0  0  0  0  0  0  0  0
  -25.1099   -1.2869  -12.9904 C   0  0  0  0  0  0  0  0  0  0  0  0
  -26.4140   -1.6586  -13.3661 C   0  0  0  0  0  0  0  0  0  0  0  0
 35 36  1  0  0  0
 36 37  1  0  0  0
 36 41  2  0  0  0
 37 38  2  0  0  0
 38 39  1  0  0  0
 39 40  2  0  0  0
 40 29  1  0  0  0
 40 41  1  0  0  0
 29 30  1  0  0  0
 29 33  1  0  0  0
 30 31  2  0  0  0
 30 32  1  0  0  0
 32 23  1  0  0  0
 32 34  1  0  0  0
 23 24  1  0  0  0
 23 28  2  0  0  0
 24 25  2  0  0  0
 25 26  1  0  0  0
 26  1  1  0  0  0
 26 27  2  0  0  0
  1  2  2  0  0  0
  1 10  1  0  0  0
  2  3  1  0  0  0
  3  4  1  0  0  0
  4  5  1  0  0  0
  4 10  2  0  0  0
  5 13  1  0  0  0
  5  6  2  0  0  0
 13 14  1  0  0  0
 13 22  2  0  0  0
 14 15  2  0  0  0
 15 16  1  0  0  0
 16 17  2  0  0  0
 17 18  1  0  0  0
 17 22  1  0  0  0
 18 19  2  0  0  0
 19 20  1  0  0  0
 20 21  2  0  0  0
 21 22  1  0  0  0
  6  7  1  0  0  0
  7  8  2  0  0  0
  8  9  1  0  0  0
  8 10  1  0  0  0
  9 11  1  0  0  0
  9 12  1  0  0  0
 27 28  1  0  0  0
M  END
> <minimizedAffinity>
-8.85481

$$$$
