CHEMBL2016905


 38 43  0  0  0  0  0  0  0  0999 V2000
  -32.1265   -8.3096   -7.6020 O   0  0  0  0  0  0  0  0  0  0  0  0
  -30.9566   -7.9710   -7.4471 C   0  0  0  0  0  0  0  0  0  0  0  0
  -29.8634   -8.7146   -7.9534 N   0  0  0  0  0  0  0  0  0  0  0  0
  -30.2364   -9.9746   -8.6541 C   0  0  0  0  0  0  0  0  0  0  0  0
  -29.1111  -10.7536   -9.3939 C   0  0  0  0  0  0  0  0  0  0  0  0
  -27.8012  -10.5227   -8.7509 C   0  0  0  0  0  0  0  0  0  0  0  0
  -26.6897  -11.3304   -8.8019 N   0  0  0  0  0  0  0  0  0  0  0  0
  -25.8684  -10.8400   -7.8692 C   0  0  0  0  0  0  0  0  0  0  0  0
  -26.2665   -9.5511   -7.5604 N   0  0  0  0  0  0  0  0  0  0  0  0
  -27.6032   -9.5224   -7.8427 C   0  0  0  0  0  0  0  0  0  0  0  0
  -28.6127   -8.6951   -7.1858 C   0  0  0  0  0  0  0  0  0  0  0  0
  -25.7910   -8.9498   -6.8982 H   0  0  0  0  0  0  0  0  0  0  0  0
  -25.0485  -11.5259   -6.8877 C   0  0  0  0  0  0  0  0  0  0  0  0
  -25.7240  -12.4656   -6.1857 C   0  0  0  0  0  0  0  0  0  0  0  0
  -26.5157  -11.8361   -5.0901 C   0  0  0  0  0  0  0  0  0  0  0  0
  -27.8568  -12.1796   -4.9090 C   0  0  0  0  0  0  0  0  0  0  0  0
  -28.6679  -11.3376   -4.1619 C   0  0  0  0  0  0  0  0  0  0  0  0
  -29.9851  -11.5781   -4.1113 F   0  0  0  0  0  0  0  0  0  0  0  0
  -28.1555  -10.2080   -3.5245 C   0  0  0  0  0  0  0  0  0  0  0  0
  -26.7969   -9.9054   -3.6241 C   0  0  0  0  0  0  0  0  0  0  0  0
  -25.9970  -10.6979   -4.4457 C   0  0  0  0  0  0  0  0  0  0  0  0
  -24.7139  -10.2650   -4.8048 N   0  0  0  0  0  0  0  0  0  0  0  0
  -24.1794  -10.6287   -6.0227 C   0  0  0  0  0  0  0  0  0  0  0  0
  -23.1743  -10.0827   -6.4730 O   0  0  0  0  0  0  0  0  0  0  0  0
  -24.2643   -9.5011   -4.3222 H   0  0  0  0  0  0  0  0  0  0  0  0
  -30.6882   -6.7278   -6.6682 C   0  0  0  0  0  0  0  0  0  0  0  0
  -30.9904   -6.6717   -5.3033 C   0  0  0  0  0  0  0  0  0  0  0  0
  -30.7499   -5.5008   -4.5729 C   0  0  0  0  0  0  0  0  0  0  0  0
  -30.1957   -4.3722   -5.1979 C   0  0  0  0  0  0  0  0  0  0  0  0
  -29.9016   -4.4395   -6.5679 C   0  0  0  0  0  0  0  0  0  0  0  0
  -30.1784   -5.5912   -7.3007 C   0  0  0  0  0  0  0  0  0  0  0  0
  -30.0442   -3.0494   -4.4757 C   0  0  0  0  0  0  0  0  0  0  0  0
  -29.3338   -1.9779   -5.2052 N   0  0  0  0  0  0  0  0  0  0  0  0
  -30.1339   -0.7407   -5.2448 C   0  0  0  0  0  0  0  0  0  0  0  0
  -29.3656    0.4372   -5.8540 C   0  0  0  0  0  0  0  0  0  0  0  0
  -28.0555    0.6800   -5.1186 C   0  0  0  0  0  0  0  0  0  0  0  0
  -27.2343   -0.6000   -5.1102 C   0  0  0  0  0  0  0  0  0  0  0  0
  -28.0397   -1.7579   -4.5250 C   0  0  0  0  0  0  0  0  0  0  0  0
  1  2  2  0  0  0
  2 26  1  0  0  0
  2  3  1  0  0  0
 26 27  1  0  0  0
 26 31  2  0  0  0
 27 28  2  0  0  0
 28 29  1  0  0  0
 29 32  1  0  0  0
 29 30  2  0  0  0
 32 33  1  0  0  0
 33 34  1  0  0  0
 33 38  1  0  0  0
 34 35  1  0  0  0
 35 36  1  0  0  0
 36 37  1  0  0  0
 37 38  1  0  0  0
 30 31  1  0  0  0
  3  4  1  0  0  0
  3 11  1  0  0  0
  4  5  1  0  0  0
  5  6  1  0  0  0
  6  7  1  0  0  0
  6 10  2  0  0  0
  7  8  2  0  0  0
  8 13  1  0  0  0
  8  9  1  0  0  0
 13 14  2  0  0  0
 13 23  1  0  0  0
 14 15  1  0  0  0
 15 16  1  0  0  0
 15 21  2  0  0  0
 16 17  2  0  0  0
 17 18  1  0  0  0
 17 19  1  0  0  0
 19 20  2  0  0  0
 20 21  1  0  0  0
 21 22  1  0  0  0
 22 23  1  0  0  0
 22 25  1  0  0  0
 23 24  2  0  0  0
  9 10  1  0  0  0
  9 12  1  0  0  0
 10 11  1  0  0  0
M  END
> <minimizedAffinity>
-9.80789

$$$$
