CHEMBL301143


 35 39  0  0  0  0  0  0  0  0999 V2000
  -28.8996   -2.8414   -5.2812 C   0  0  0  0  0  0  0  0  0  0  0  0
  -28.3143   -2.9698   -4.0034 C   0  0  0  0  0  0  0  0  0  0  0  0
  -28.2396   -4.2170   -3.3864 C   0  0  0  0  0  0  0  0  0  0  0  0
  -28.7427   -5.2995   -4.0803 C   0  0  0  0  0  0  0  0  0  0  0  0
  -29.3181   -5.1942   -5.3543 C   0  0  0  0  0  0  0  0  0  0  0  0
  -29.4007   -3.9575   -5.9768 C   0  0  0  0  0  0  0  0  0  0  0  0
  -29.7098   -6.5657   -5.7325 C   0  0  0  0  0  0  0  0  0  0  0  0
  -30.3192   -6.9235   -6.8738 C   0  0  0  0  0  0  0  0  0  0  0  0
  -29.3063   -7.4674   -4.5881 C   0  0  0  0  0  0  0  0  0  0  0  0
  -29.4169   -8.6718   -4.4826 O   0  0  0  0  0  0  0  0  0  0  0  0
  -28.7445   -6.6194   -3.6473 N   0  0  0  0  0  0  0  0  0  0  0  0
  -28.3712   -6.9560   -2.7730 H   0  0  0  0  0  0  0  0  0  0  0  0
  -30.7200   -8.2488   -7.1802 C   0  0  0  0  0  0  0  0  0  0  0  0
  -31.8280   -8.7493   -6.5370 N   0  0  0  0  0  0  0  0  0  0  0  0
  -32.0262  -10.0465   -6.9117 C   0  0  0  0  0  0  0  0  0  0  0  0
  -31.0282  -10.4009   -7.8021 C   0  0  0  0  0  0  0  0  0  0  0  0
  -30.2444   -9.2218   -8.0626 C   0  0  0  0  0  0  0  0  0  0  0  0
  -30.9656  -11.7866   -8.3631 C   0  0  0  0  0  0  0  0  0  0  0  0
  -32.3535  -12.4660   -8.3126 C   0  0  0  0  0  0  0  0  0  0  0  0
  -32.9997  -12.3413   -6.9195 C   0  0  0  0  0  0  0  0  0  0  0  0
  -33.1984  -10.8749   -6.4993 C   0  0  0  0  0  0  0  0  0  0  0  0
  -32.4392   -8.2214   -5.9291 H   0  0  0  0  0  0  0  0  0  0  0  0
  -29.2565   -8.9619   -9.1763 C   0  0  0  0  0  0  0  0  0  0  0  0
  -27.8363   -8.8575   -8.7935 N   0  0  0  0  0  0  0  0  0  0  0  0
  -26.9209   -8.5860   -9.9223 C   0  0  0  0  0  0  0  0  0  0  0  0
  -26.7469   -9.7531  -10.9138 C   0  0  0  0  0  0  0  0  0  0  0  0
  -26.3495  -10.9656  -10.2593 O   0  0  0  0  0  0  0  0  0  0  0  0
  -27.2545  -11.3058   -9.2035 C   0  0  0  0  0  0  0  0  0  0  0  0
  -27.3950  -10.1491   -8.1914 C   0  0  0  0  0  0  0  0  0  0  0  0
  -28.8761   -1.2398   -6.0587 S   0  0  0  0  0  0  0  0  0  0  0  0
  -30.1378   -0.5898   -5.7543 O   0  0  0  0  0  0  0  0  0  0  0  0
  -28.4041   -1.4002   -7.4157 O   0  0  0  0  0  0  0  0  0  0  0  0
  -28.0020    0.9529   -4.7391 C   0  0  0  0  0  0  0  0  0  0  0  0
  -27.7092   -0.4097   -5.1780 N   0  0  0  0  0  0  0  0  0  0  0  0
  -27.2419   -1.0228   -4.5113 H   0  0  0  0  0  0  0  0  0  0  0  0
 33 34  1  0  0  0
 34 30  1  0  0  0
 34 35  1  0  0  0
 30 31  2  0  0  0
 30 32  2  0  0  0
 30  1  1  0  0  0
  1  2  1  0  0  0
  1  6  2  0  0  0
  2  3  2  0  0  0
  3  4  1  0  0  0
  4  5  2  0  0  0
  4 11  1  0  0  0
  5  6  1  0  0  0
  5  7  1  0  0  0
  7  8  2  0  0  0
  7  9  1  0  0  0
  8 13  1  0  0  0
 13 14  1  0  0  0
 13 17  2  0  0  0
 14 15  1  0  0  0
 14 22  1  0  0  0
 15 16  2  0  0  0
 15 21  1  0  0  0
 16 17  1  0  0  0
 16 18  1  0  0  0
 17 23  1  0  0  0
 23 24  1  0  0  0
 24 25  1  0  0  0
 24 29  1  0  0  0
 25 26  1  0  0  0
 26 27  1  0  0  0
 27 28  1  0  0  0
 28 29  1  0  0  0
 18 19  1  0  0  0
 19 20  1  0  0  0
 20 21  1  0  0  0
  9 10  2  0  0  0
  9 11  1  0  0  0
 11 12  1  0  0  0
M  END
> <minimizedAffinity>
-8.50040

$$$$
