CHEMBL598201


 28 31  0  0  0  0  0  0  0  0999 V2000
  -28.0919   -2.0964   -9.2022 C   0  0  0  0  0  0  0  0  0  0  0  0
  -27.6859   -1.1151   -8.3856 N   0  0  0  0  0  0  0  0  0  0  0  0
  -27.7109   -1.3764   -7.0660 C   0  0  0  0  0  0  0  0  0  0  0  0
  -28.1178   -2.5773   -6.5315 C   0  0  0  0  0  0  0  0  0  0  0  0
  -28.5541   -3.5229   -7.4335 C   0  0  0  0  0  0  0  0  0  0  0  0
  -28.5215   -3.2929   -8.7674 N   0  0  0  0  0  0  0  0  0  0  0  0
  -29.0755   -4.8409   -7.0093 C   0  0  0  0  0  0  0  0  0  0  0  0
  -28.7404   -5.9861   -7.7617 C   0  0  0  0  0  0  0  0  0  0  0  0
  -29.2264   -7.2537   -7.4304 C   0  0  0  0  0  0  0  0  0  0  0  0
  -30.1099   -7.4008   -6.3696 C   0  0  0  0  0  0  0  0  0  0  0  0
  -30.4868   -6.2858   -5.6267 C   0  0  0  0  0  0  0  0  0  0  0  0
  -29.9353   -5.0229   -5.8987 C   0  0  0  0  0  0  0  0  0  0  0  0
  -30.2937   -4.0113   -4.9850 N   0  0  0  0  0  0  0  0  0  0  0  0
  -29.5131   -2.9815   -4.5335 C   0  0  0  0  0  0  0  0  0  0  0  0
  -29.9317   -2.2404   -3.6450 O   0  0  0  0  0  0  0  0  0  0  0  0
  -28.1099   -2.8552   -5.0702 C   0  0  0  0  0  0  0  0  0  0  0  0
  -31.1239   -4.1459   -4.4187 H   0  0  0  0  0  0  0  0  0  0  0  0
  -28.0254   -1.8234  -10.5746 N   0  0  0  0  0  0  0  0  0  0  0  0
  -28.6812   -2.4539  -11.0223 H   0  0  0  0  0  0  0  0  0  0  0  0
  -28.1530   -2.1467  -13.4665 C   0  0  0  0  0  0  0  0  0  0  0  0
  -26.8765   -1.8276  -12.7370 C   0  0  0  0  0  0  0  0  0  0  0  0
  -25.6853   -1.7097  -13.4766 C   0  0  0  0  0  0  0  0  0  0  0  0
  -24.4871   -1.4211  -12.8330 C   0  0  0  0  0  0  0  0  0  0  0  0
  -23.3193   -1.2862  -13.5254 O   0  0  0  0  0  0  0  0  0  0  0  0
  -24.4427   -1.2637  -11.4581 C   0  0  0  0  0  0  0  0  0  0  0  0
  -25.6168   -1.3879  -10.7150 C   0  0  0  0  0  0  0  0  0  0  0  0
  -26.8504   -1.6444  -11.3375 C   0  0  0  0  0  0  0  0  0  0  0  0
  -23.5088   -1.3891  -14.4718 H   0  0  0  0  0  0  0  0  0  0  0  0
 20 21  1  0  0  0
 21 22  1  0  0  0
 21 27  2  0  0  0
 22 23  2  0  0  0
 23 24  1  0  0  0
 23 25  1  0  0  0
 24 28  1  0  0  0
 25 26  2  0  0  0
 26 27  1  0  0  0
 27 18  1  0  0  0
 18  1  1  0  0  0
 18 19  1  0  0  0
  1  2  1  0  0  0
  1  6  2  0  0  0
  2  3  2  0  0  0
  3  4  1  0  0  0
  4  5  2  0  0  0
  4 16  1  0  0  0
  5  6  1  0  0  0
  5  7  1  0  0  0
  7  8  1  0  0  0
  7 12  2  0  0  0
  8  9  2  0  0  0
  9 10  1  0  0  0
 10 11  2  0  0  0
 11 12  1  0  0  0
 12 13  1  0  0  0
 13 14  1  0  0  0
 13 17  1  0  0  0
 14 15  2  0  0  0
 14 16  1  0  0  0
M  END
> <minimizedAffinity>
-10.20403

$$$$
