CHEMBL1964307


 31 34  0  0  0  0  0  0  0  0999 V2000
  -30.5878   -6.8858   -5.5118 C   0  0  0  0  0  0  0  0  0  0  0  0
  -29.4409   -7.4966   -5.0015 C   0  0  0  0  0  0  0  0  0  0  0  0
  -28.7764   -8.4862   -5.7342 C   0  0  0  0  0  0  0  0  0  0  0  0
  -29.2508   -8.9157   -6.9837 C   0  0  0  0  0  0  0  0  0  0  0  0
  -30.4331   -8.3108   -7.4519 C   0  0  0  0  0  0  0  0  0  0  0  0
  -31.0661   -7.2787   -6.7615 C   0  0  0  0  0  0  0  0  0  0  0  0
  -28.5857   -9.9973   -7.7443 C   0  0  0  0  0  0  0  0  0  0  0  0
  -28.7342  -11.3602   -7.3842 C   0  0  0  0  0  0  0  0  0  0  0  0
  -28.2215  -12.4012   -8.1607 C   0  0  0  0  0  0  0  0  0  0  0  0
  -27.6007  -12.1389   -9.3795 C   0  0  0  0  0  0  0  0  0  0  0  0
  -27.4345  -10.7974   -9.7268 C   0  0  0  0  0  0  0  0  0  0  0  0
  -26.9212  -10.2201  -10.8576 N   0  0  0  0  0  0  0  0  0  0  0  0
  -26.7515   -8.8973  -10.7746 N   0  0  0  0  0  0  0  0  0  0  0  0
  -27.2656   -8.5910   -9.5847 C   0  0  0  0  0  0  0  0  0  0  0  0
  -27.2205   -7.3423   -9.1018 N   0  0  0  0  0  0  0  0  0  0  0  0
  -27.8247   -9.7302   -8.9194 C   0  0  0  0  0  0  0  0  0  0  0  0
  -26.6542  -10.6851  -11.7191 H   0  0  0  0  0  0  0  0  0  0  0  0
  -26.6828   -6.6497   -9.6076 H   0  0  0  0  0  0  0  0  0  0  0  0
  -27.3437   -7.1570   -8.1135 H   0  0  0  0  0  0  0  0  0  0  0  0
  -31.3277   -5.8478   -4.7182 C   0  0  0  0  0  0  0  0  0  0  0  0
  -29.9776   -3.9228   -5.5192 N   0  0  0  0  0  0  0  0  0  0  0  0
  -30.6456   -4.5189   -4.4596 C   0  0  0  0  0  0  0  0  0  0  0  0
  -30.7478   -4.0407   -3.3264 O   0  0  0  0  0  0  0  0  0  0  0  0
  -30.1073   -4.3211   -6.4387 H   0  0  0  0  0  0  0  0  0  0  0  0
  -29.9362    1.0300   -5.5780 C   0  0  0  0  0  0  0  0  0  0  0  0
  -29.2098   -0.2769   -5.4778 C   0  0  0  0  0  0  0  0  0  0  0  0
  -27.8318   -0.2939   -5.2424 C   0  0  0  0  0  0  0  0  0  0  0  0
  -27.1518   -1.5012   -5.1440 C   0  0  0  0  0  0  0  0  0  0  0  0
  -27.8492   -2.7041   -5.2519 C   0  0  0  0  0  0  0  0  0  0  0  0
  -29.2309   -2.7253   -5.4494 C   0  0  0  0  0  0  0  0  0  0  0  0
  -29.9066   -1.4990   -5.5918 C   0  0  0  0  0  0  0  0  0  0  0  0
 25 26  1  0  0  0
 26 27  1  0  0  0
 26 31  2  0  0  0
 27 28  2  0  0  0
 28 29  1  0  0  0
 29 30  2  0  0  0
 30 21  1  0  0  0
 30 31  1  0  0  0
 21 22  1  0  0  0
 21 24  1  0  0  0
 22 23  2  0  0  0
 22 20  1  0  0  0
 20  1  1  0  0  0
  1  2  1  0  0  0
  1  6  2  0  0  0
  2  3  2  0  0  0
  3  4  1  0  0  0
  4  7  1  0  0  0
  4  5  2  0  0  0
  7  8  1  0  0  0
  7 16  2  0  0  0
  8  9  2  0  0  0
  9 10  1  0  0  0
 10 11  2  0  0  0
 11 12  1  0  0  0
 11 16  1  0  0  0
 12 13  1  0  0  0
 12 17  1  0  0  0
 13 14  2  0  0  0
 14 15  1  0  0  0
 14 16  1  0  0  0
 15 18  1  0  0  0
 15 19  1  0  0  0
  5  6  1  0  0  0
M  END
> <minimizedAffinity>
-9.12651

$$$$
