CHEMBL4218127


 39 41  0  0  0  0  0  0  0  0999 V2000
  -27.3452   -1.8769  -11.0111 C   0  0  0  0  0  0  0  0  0  0  0  0
  -27.9313   -0.8015  -10.9375 O   0  0  0  0  0  0  0  0  0  0  0  0
  -27.2588   -2.8092   -9.9904 N   0  0  0  0  0  0  0  0  0  0  0  0
  -26.4437   -3.4100  -10.0234 H   0  0  0  0  0  0  0  0  0  0  0  0
  -27.8543   -2.6200   -8.7280 C   0  0  0  0  0  0  0  0  0  0  0  0
  -28.7037   -3.6127   -8.2585 C   0  0  0  0  0  0  0  0  0  0  0  0
  -29.3134   -3.4806   -7.0106 C   0  0  0  0  0  0  0  0  0  0  0  0
  -29.1470   -2.3243   -6.2218 C   0  0  0  0  0  0  0  0  0  0  0  0
  -28.2875   -1.3035   -6.6949 C   0  0  0  0  0  0  0  0  0  0  0  0
  -27.6442   -1.4775   -7.9503 C   0  0  0  0  0  0  0  0  0  0  0  0
  -27.9874   -0.0083   -5.9605 C   0  0  0  0  0  0  0  0  0  0  0  0
  -26.9875   -0.0743   -5.0396 F   0  0  0  0  0  0  0  0  0  0  0  0
  -27.6286    0.9993   -6.8040 F   0  0  0  0  0  0  0  0  0  0  0  0
  -29.0723    0.4523   -5.2731 F   0  0  0  0  0  0  0  0  0  0  0  0
  -29.9039   -2.2730   -4.9053 C   0  0  0  0  0  0  0  0  0  0  0  0
  -29.5924   -3.3744   -3.8542 C   0  0  0  0  0  0  0  0  0  0  0  0
  -30.5002   -4.6037   -3.9434 C   0  0  0  0  0  0  0  0  0  0  0  0
  -28.1220   -3.8025   -3.8913 C   0  0  0  0  0  0  0  0  0  0  0  0
  -29.7947   -2.7960   -2.5521 O   0  0  0  0  0  0  0  0  0  0  0  0
  -30.7471   -2.6248   -2.4441 H   0  0  0  0  0  0  0  0  0  0  0  0
  -26.6028   -2.2891  -12.2731 C   0  0  0  0  0  0  0  0  0  0  0  0
  -23.3868    0.3873  -13.4463 C   0  0  0  0  0  0  0  0  0  0  0  0
  -23.7524    0.2738  -12.0967 C   0  0  0  0  0  0  0  0  0  0  0  0
  -24.7637   -0.6208  -11.7032 C   0  0  0  0  0  0  0  0  0  0  0  0
  -25.4201   -1.4183  -12.6477 C   0  0  0  0  0  0  0  0  0  0  0  0
  -25.0173   -1.3176  -13.9816 C   0  0  0  0  0  0  0  0  0  0  0  0
  -25.6142   -2.0751  -14.9141 F   0  0  0  0  0  0  0  0  0  0  0  0
  -24.0217   -0.4296  -14.3866 C   0  0  0  0  0  0  0  0  0  0  0  0
  -21.1374    1.0009  -14.6115 C   0  0  0  0  0  0  0  0  0  0  0  0
  -20.3079    1.9646  -15.0570 C   0  0  0  0  0  0  0  0  0  0  0  0
  -20.6219    3.3932  -14.8257 C   0  0  0  0  0  0  0  0  0  0  0  0
  -19.8837    4.2799  -15.2393 O   0  0  0  0  0  0  0  0  0  0  0  0
  -21.7783    3.6447  -14.1374 N   0  0  0  0  0  0  0  0  0  0  0  0
  -22.6346    2.6703  -13.6858 C   0  0  0  0  0  0  0  0  0  0  0  0
  -22.3703    1.3608  -13.8977 C   0  0  0  0  0  0  0  0  0  0  0  0
  -21.9958    4.6235  -13.9859 H   0  0  0  0  0  0  0  0  0  0  0  0
  -20.9625   -0.3550  -14.7693 O   0  0  0  0  0  0  0  0  0  0  0  0
  -18.6553    0.1120  -15.1875 C   0  0  0  0  0  0  0  0  0  0  0  0
  -19.8323   -0.7795  -15.5320 C   0  0  0  0  0  0  0  0  0  0  0  0
 38 39  1  0  0  0
 39 37  1  0  0  0
 37 29  1  0  0  0
 29 30  2  0  0  0
 29 35  1  0  0  0
 30 31  1  0  0  0
 31 32  2  0  0  0
 31 33  1  0  0  0
 33 34  1  0  0  0
 33 36  1  0  0  0
 34 35  2  0  0  0
 35 22  1  0  0  0
 22 23  1  0  0  0
 22 28  2  0  0  0
 23 24  2  0  0  0
 24 25  1  0  0  0
 25 21  1  0  0  0
 25 26  2  0  0  0
 21  1  1  0  0  0
  1  2  2  0  0  0
  1  3  1  0  0  0
  3  5  1  0  0  0
  3  4  1  0  0  0
  5  6  1  0  0  0
  5 10  2  0  0  0
  6  7  2  0  0  0
  7  8  1  0  0  0
  8 15  1  0  0  0
  8  9  2  0  0  0
 15 16  1  0  0  0
 16 17  1  0  0  0
 16 18  1  0  0  0
 16 19  1  0  0  0
 19 20  1  0  0  0
  9 11  1  0  0  0
  9 10  1  0  0  0
 11 12  1  0  0  0
 11 13  1  0  0  0
 11 14  1  0  0  0
 26 27  1  0  0  0
 26 28  1  0  0  0
M  END
> <minimizedAffinity>
-10.11648

$$$$
