CHEMBL3671508


 36 38  0  0  0  0  0  0  0  0999 V2000
  -29.7725   -5.1332   -7.0913 C   0  0  0  0  0  0  0  0  0  0  0  0
  -29.0936   -4.3502   -8.0269 C   0  0  0  0  0  0  0  0  0  0  0  0
  -28.5438   -3.1104   -7.6424 C   0  0  0  0  0  0  0  0  0  0  0  0
  -28.0016   -2.1679   -8.5302 C   0  0  0  0  0  0  0  0  0  0  0  0
  -27.5090   -0.9908   -8.0990 N   0  0  0  0  0  0  0  0  0  0  0  0
  -27.5813   -0.7411   -6.7916 C   0  0  0  0  0  0  0  0  0  0  0  0
  -28.1190   -1.5427   -5.8696 N   0  0  0  0  0  0  0  0  0  0  0  0
  -28.6032   -2.7108   -6.2986 C   0  0  0  0  0  0  0  0  0  0  0  0
  -29.2279   -3.5423   -5.3770 C   0  0  0  0  0  0  0  0  0  0  0  0
  -29.8008   -4.7627   -5.7424 C   0  0  0  0  0  0  0  0  0  0  0  0
  -30.0695   -7.4556   -7.7723 C   0  0  0  0  0  0  0  0  0  0  0  0
  -30.8267   -8.4152   -7.8519 O   0  0  0  0  0  0  0  0  0  0  0  0
  -30.5674   -6.1903   -7.5719 N   0  0  0  0  0  0  0  0  0  0  0  0
  -31.5069   -6.2618   -7.1940 H   0  0  0  0  0  0  0  0  0  0  0  0
  -28.0717   -8.6447   -8.5072 C   0  0  0  0  0  0  0  0  0  0  0  0
  -28.5911   -7.6091   -7.8374 C   0  0  0  0  0  0  0  0  0  0  0  0
  -28.0459   -2.4033   -9.9306 N   0  0  0  0  0  0  0  0  0  0  0  0
  -28.2967   -3.3688  -10.1286 H   0  0  0  0  0  0  0  0  0  0  0  0
  -27.0771   -1.9138  -10.8394 C   0  0  0  0  0  0  0  0  0  0  0  0
  -25.7895   -1.5659  -10.4052 C   0  0  0  0  0  0  0  0  0  0  0  0
  -24.8025   -1.1925  -11.3184 C   0  0  0  0  0  0  0  0  0  0  0  0
  -25.1068   -1.1408  -12.6768 C   0  0  0  0  0  0  0  0  0  0  0  0
  -23.7453   -0.7246  -13.9198 Br  0  0  0  0  0  0  0  0  0  0  0  0
  -26.3966   -1.4146  -13.1252 C   0  0  0  0  0  0  0  0  0  0  0  0
  -27.3703   -1.7875  -12.2023 C   0  0  0  0  0  0  0  0  0  0  0  0
  -28.6079   -2.0717  -12.6387 F   0  0  0  0  0  0  0  0  0  0  0  0
  -30.4195   -5.4422   -4.7265 O   0  0  0  0  0  0  0  0  0  0  0  0
  -29.5465   -5.9571   -3.7146 C   0  0  0  0  0  0  0  0  0  0  0  0
  -29.1473   -7.3962   -4.0507 C   0  0  0  0  0  0  0  0  0  0  0  0
  -27.7124   -7.5185   -4.3219 N   0  0  0  0  0  0  0  0  0  0  0  0
  -27.2055   -6.6507   -4.4163 H   0  0  0  0  0  0  0  0  0  0  0  0
  -26.9988   -8.6946   -4.4632 C   0  0  0  0  0  0  0  0  0  0  0  0
  -27.6511  -10.1409   -4.9871 S   0  0  0  0  0  0  0  0  0  0  0  0
  -25.6792   -8.5066   -4.1078 N   0  0  0  0  0  0  0  0  0  0  0  0
  -24.5664   -9.4139   -4.3351 C   0  0  0  0  0  0  0  0  0  0  0  0
  -25.4621   -7.6953   -3.5488 H   0  0  0  0  0  0  0  0  0  0  0  0
 15 16  2  0  0  0
 16 11  1  0  0  0
 11 12  2  0  0  0
 11 13  1  0  0  0
 13  1  1  0  0  0
 13 14  1  0  0  0
  1  2  1  0  0  0
  1 10  2  0  0  0
  2  3  2  0  0  0
  3  4  1  0  0  0
  3  8  1  0  0  0
  4 17  1  0  0  0
  4  5  2  0  0  0
 17 19  1  0  0  0
 17 18  1  0  0  0
 19 20  1  0  0  0
 19 25  2  0  0  0
 20 21  2  0  0  0
 21 22  1  0  0  0
 22 23  1  0  0  0
 22 24  2  0  0  0
 24 25  1  0  0  0
 25 26  1  0  0  0
  5  6  1  0  0  0
  6  7  2  0  0  0
  7  8  1  0  0  0
  8  9  2  0  0  0
  9 10  1  0  0  0
 10 27  1  0  0  0
 27 28  1  0  0  0
 28 29  1  0  0  0
 29 30  1  0  0  0
 30 32  1  0  0  0
 30 31  1  0  0  0
 32 33  2  0  0  0
 32 34  1  0  0  0
 34 35  1  0  0  0
 34 36  1  0  0  0
M  END
> <minimizedAffinity>
-8.47633

$$$$
