CHEMBL3925855


 35 39  0  0  0  0  0  0  0  0999 V2000
  -22.9762   -0.3080  -13.6504 C   0  0  0  0  0  0  0  0  0  0  0  0
  -23.3309    0.7164  -12.7579 C   0  0  0  0  0  0  0  0  0  0  0  0
  -24.4264    0.5882  -11.8761 C   0  0  0  0  0  0  0  0  0  0  0  0
  -25.2930   -0.5001  -12.0672 C   0  0  0  0  0  0  0  0  0  0  0  0
  -26.5141   -1.0410  -11.5386 C   0  0  0  0  0  0  0  0  0  0  0  0
  -27.2490   -1.3563  -12.6273 N   0  0  0  0  0  0  0  0  0  0  0  0
  -26.2934   -1.8336  -13.4491 N   0  0  0  0  0  0  0  0  0  0  0  0
  -25.0608   -1.3031  -13.1806 C   0  0  0  0  0  0  0  0  0  0  0  0
  -23.8533   -1.3708  -13.8653 C   0  0  0  0  0  0  0  0  0  0  0  0
  -26.5787   -2.3999  -14.2371 H   0  0  0  0  0  0  0  0  0  0  0  0
  -26.6741   -2.0170  -10.4661 C   0  0  0  0  0  0  0  0  0  0  0  0
  -27.8522   -2.3348   -9.8925 C   0  0  0  0  0  0  0  0  0  0  0  0
  -27.9798   -2.5263   -8.4273 C   0  0  0  0  0  0  0  0  0  0  0  0
  -28.8186   -3.5173   -7.9244 C   0  0  0  0  0  0  0  0  0  0  0  0
  -29.1235   -3.5238   -6.5610 C   0  0  0  0  0  0  0  0  0  0  0  0
  -28.5935   -2.5408   -5.7358 C   0  0  0  0  0  0  0  0  0  0  0  0
  -27.7609   -1.5973   -6.3087 C   0  0  0  0  0  0  0  0  0  0  0  0
  -27.4429   -1.5731   -7.6244 N   0  0  0  0  0  0  0  0  0  0  0  0
  -21.8694   -0.3213  -14.4799 O   0  0  0  0  0  0  0  0  0  0  0  0
  -18.8802    1.6736  -15.1713 C   0  0  0  0  0  0  0  0  0  0  0  0
  -19.4234    2.9639  -15.1389 C   0  0  0  0  0  0  0  0  0  0  0  0
  -20.7508    3.1797  -14.7768 C   0  0  0  0  0  0  0  0  0  0  0  0
  -21.5625    2.1009  -14.4619 C   0  0  0  0  0  0  0  0  0  0  0  0
  -21.0935    0.8018  -14.6492 C   0  0  0  0  0  0  0  0  0  0  0  0
  -19.7368    0.5872  -14.9611 C   0  0  0  0  0  0  0  0  0  0  0  0
  -16.5510    1.2172  -14.3903 C   0  0  0  0  0  0  0  0  0  0  0  0
  -16.7799    1.1850  -13.1839 O   0  0  0  0  0  0  0  0  0  0  0  0
  -17.4956    1.4422  -15.3807 N   0  0  0  0  0  0  0  0  0  0  0  0
  -17.1644    1.3242  -16.3302 H   0  0  0  0  0  0  0  0  0  0  0  0
  -14.7244    3.2931  -15.7733 C   0  0  0  0  0  0  0  0  0  0  0  0
  -14.4112    1.9019  -15.5432 N   0  0  0  0  0  0  0  0  0  0  0  0
  -13.2494    1.2810  -15.9067 C   0  0  0  0  0  0  0  0  0  0  0  0
  -13.3876   -0.0144  -15.4716 C   0  0  0  0  0  0  0  0  0  0  0  0
  -14.5957   -0.1981  -14.8462 N   0  0  0  0  0  0  0  0  0  0  0  0
  -15.2139    0.9729  -14.9155 C   0  0  0  0  0  0  0  0  0  0  0  0
 30 31  1  0  0  0
 31 32  1  0  0  0
 31 35  1  0  0  0
 32 33  2  0  0  0
 33 34  1  0  0  0
 34 35  2  0  0  0
 35 26  1  0  0  0
 26 27  2  0  0  0
 26 28  1  0  0  0
 28 20  1  0  0  0
 28 29  1  0  0  0
 20 21  1  0  0  0
 20 25  2  0  0  0
 21 22  2  0  0  0
 22 23  1  0  0  0
 23 24  2  0  0  0
 24 19  1  0  0  0
 24 25  1  0  0  0
 19  1  1  0  0  0
  1  2  1  0  0  0
  1  9  2  0  0  0
  2  3  2  0  0  0
  3  4  1  0  0  0
  4  5  1  0  0  0
  4  8  2  0  0  0
  5 11  1  0  0  0
  5  6  2  0  0  0
 11 12  2  0  0  0
 12 13  1  0  0  0
 13 14  1  0  0  0
 13 18  2  0  0  0
 14 15  2  0  0  0
 15 16  1  0  0  0
 16 17  2  0  0  0
 17 18  1  0  0  0
  6  7  1  0  0  0
  7  8  1  0  0  0
  7 10  1  0  0  0
  8  9  1  0  0  0
M  END
> <minimizedAffinity>
-10.65321

$$$$
