CHEMBL3686060


 36 40  0  0  0  0  0  0  0  0999 V2000
  -14.7537    0.5277  -14.2235 C   0  0  0  0  0  0  0  0  0  0  0  0
  -13.4064    0.7988  -14.0164 C   0  0  0  0  0  0  0  0  0  0  0  0
  -12.7473   -0.2434  -13.4151 N   0  0  0  0  0  0  0  0  0  0  0  0
  -13.6593   -1.1791  -13.2507 C   0  0  0  0  0  0  0  0  0  0  0  0
  -13.5555   -2.4882  -12.6869 C   0  0  0  0  0  0  0  0  0  0  0  0
  -14.6390   -3.2995  -12.5878 C   0  0  0  0  0  0  0  0  0  0  0  0
  -15.9247   -2.8221  -13.1170 C   0  0  0  0  0  0  0  0  0  0  0  0
  -16.0152   -1.6101  -13.6842 C   0  0  0  0  0  0  0  0  0  0  0  0
  -14.9014   -0.7709  -13.7316 N   0  0  0  0  0  0  0  0  0  0  0  0
  -18.0861    2.2319  -14.8876 C   0  0  0  0  0  0  0  0  0  0  0  0
  -17.7149    3.1151  -15.9024 C   0  0  0  0  0  0  0  0  0  0  0  0
  -16.4372    3.0714  -16.4452 C   0  0  0  0  0  0  0  0  0  0  0  0
  -15.5026    2.1645  -15.9551 C   0  0  0  0  0  0  0  0  0  0  0  0
  -15.7963    1.3460  -14.8582 C   0  0  0  0  0  0  0  0  0  0  0  0
  -17.1165    1.3540  -14.3653 C   0  0  0  0  0  0  0  0  0  0  0  0
  -20.2310    0.2049  -15.2905 O   0  0  0  0  0  0  0  0  0  0  0  0
  -20.3428    1.1959  -14.5842 C   0  0  0  0  0  0  0  0  0  0  0  0
  -21.5047    1.4410  -13.8851 N   0  0  0  0  0  0  0  0  0  0  0  0
  -19.3950    2.1766  -14.3546 N   0  0  0  0  0  0  0  0  0  0  0  0
  -21.7065    2.4107  -13.6799 H   0  0  0  0  0  0  0  0  0  0  0  0
  -19.6447    2.8975  -13.6980 H   0  0  0  0  0  0  0  0  0  0  0  0
  -22.6690    0.5791  -14.1260 C   0  0  0  0  0  0  0  0  0  0  0  0
  -22.9882   -0.4185  -13.0030 C   0  0  0  0  0  0  0  0  0  0  0  0
  -22.2463   -0.1867  -11.8947 F   0  0  0  0  0  0  0  0  0  0  0  0
  -24.2893   -0.3998  -12.6501 F   0  0  0  0  0  0  0  0  0  0  0  0
  -22.6958   -1.6796  -13.4093 F   0  0  0  0  0  0  0  0  0  0  0  0
  -14.4511   -4.5982  -11.9977 C   0  0  0  0  0  0  0  0  0  0  0  0
  -14.7709   -4.9674  -10.7697 N   0  0  0  0  0  0  0  0  0  0  0  0
  -14.4488   -6.2784  -10.4911 N   0  0  0  0  0  0  0  0  0  0  0  0
  -13.9013   -6.8937  -11.5198 C   0  0  0  0  0  0  0  0  0  0  0  0
  -13.7573   -5.9029  -12.9121 S   0  0  0  0  0  0  0  0  0  0  0  0
  -13.4825   -8.3314  -11.5550 C   0  0  0  0  0  0  0  0  0  0  0  0
  -11.9769   -8.5354  -11.4796 C   0  0  0  0  0  0  0  0  0  0  0  0
  -11.7774   -9.8010  -12.2717 C   0  0  0  0  0  0  0  0  0  0  0  0
  -12.8287   -9.6774  -13.3516 C   0  0  0  0  0  0  0  0  0  0  0  0
  -13.9134   -8.9192  -12.8016 O   0  0  0  0  0  0  0  0  0  0  0  0
 16 17  2  0  0  0
 17 18  1  0  0  0
 17 19  1  0  0  0
 18 22  1  0  0  0
 18 20  1  0  0  0
 22 23  1  0  0  0
 23 24  1  0  0  0
 23 25  1  0  0  0
 23 26  1  0  0  0
 19 10  1  0  0  0
 19 21  1  0  0  0
 10 11  1  0  0  0
 10 15  2  0  0  0
 11 12  2  0  0  0
 12 13  1  0  0  0
 13 14  2  0  0  0
 14  1  1  0  0  0
 14 15  1  0  0  0
  1  2  2  0  0  0
  1  9  1  0  0  0
  2  3  1  0  0  0
  3  4  2  0  0  0
  4  5  1  0  0  0
  4  9  1  0  0  0
  5  6  2  0  0  0
  6 27  1  0  0  0
  6  7  1  0  0  0
 27 28  2  0  0  0
 27 31  1  0  0  0
 28 29  1  0  0  0
 29 30  2  0  0  0
 30 32  1  0  0  0
 30 31  1  0  0  0
 32 33  1  0  0  0
 32 36  1  0  0  0
 33 34  1  0  0  0
 34 35  1  0  0  0
 35 36  1  0  0  0
  7  8  2  0  0  0
  8  9  1  0  0  0
M  END
> <minimizedAffinity>
-9.88446

$$$$
