CHEMBL362502


 39 41  0  0  0  0  0  0  0  0999 V2000
  -13.6823    0.8010  -16.4128 C   0  0  0  0  0  0  0  0  0  0  0  0
  -13.2702   -0.5096  -16.1171 C   0  0  0  0  0  0  0  0  0  0  0  0
  -13.7509   -1.1987  -14.9966 C   0  0  0  0  0  0  0  0  0  0  0  0
  -13.4105   -2.5184  -14.7298 C   0  0  0  0  0  0  0  0  0  0  0  0
  -13.8973   -3.2222  -13.6902 N   0  0  0  0  0  0  0  0  0  0  0  0
  -14.7567   -2.6062  -12.8588 C   0  0  0  0  0  0  0  0  0  0  0  0
  -15.0979   -1.2639  -13.0284 C   0  0  0  0  0  0  0  0  0  0  0  0
  -14.6142   -0.5470  -14.1173 C   0  0  0  0  0  0  0  0  0  0  0  0
  -14.9899    0.7282  -14.3370 N   0  0  0  0  0  0  0  0  0  0  0  0
  -14.5621    1.3585  -15.4667 C   0  0  0  0  0  0  0  0  0  0  0  0
  -11.6737    1.5215  -19.6051 C   0  0  0  0  0  0  0  0  0  0  0  0
  -12.2645    2.7042  -20.0439 C   0  0  0  0  0  0  0  0  0  0  0  0
  -13.2814    3.2805  -19.2896 C   0  0  0  0  0  0  0  0  0  0  0  0
  -13.6588    2.7051  -18.0708 C   0  0  0  0  0  0  0  0  0  0  0  0
  -13.1245    1.4795  -17.6208 C   0  0  0  0  0  0  0  0  0  0  0  0
  -12.1253    0.9072  -18.4268 C   0  0  0  0  0  0  0  0  0  0  0  0
  -11.1489   -0.1151  -21.2370 C   0  0  0  0  0  0  0  0  0  0  0  0
  -10.6976    0.8355  -20.2781 O   0  0  0  0  0  0  0  0  0  0  0  0
  -13.9817    4.4025  -19.6468 O   0  0  0  0  0  0  0  0  0  0  0  0
  -14.8776    4.9010  -18.6553 C   0  0  0  0  0  0  0  0  0  0  0  0
  -15.0764    2.6443  -15.6415 N   0  0  0  0  0  0  0  0  0  0  0  0
  -16.4003    2.9737  -15.5144 C   0  0  0  0  0  0  0  0  0  0  0  0
  -16.7348    4.1494  -15.6323 O   0  0  0  0  0  0  0  0  0  0  0  0
  -17.2636    1.9548  -15.2213 N   0  0  0  0  0  0  0  0  0  0  0  0
  -14.5323    3.3778  -15.2102 H   0  0  0  0  0  0  0  0  0  0  0  0
  -16.8425    1.2132  -14.6762 H   0  0  0  0  0  0  0  0  0  0  0  0
  -18.7176    2.1253  -15.0461 C   0  0  0  0  0  0  0  0  0  0  0  0
  -19.0073    2.8457  -13.7199 C   0  0  0  0  0  0  0  0  0  0  0  0
  -19.2415    3.0022  -16.2016 C   0  0  0  0  0  0  0  0  0  0  0  0
  -19.4679    0.7824  -15.0913 C   0  0  0  0  0  0  0  0  0  0  0  0
  -15.3190   -3.3729  -11.8084 N   0  0  0  0  0  0  0  0  0  0  0  0
  -16.2453   -4.3996  -12.0151 C   0  0  0  0  0  0  0  0  0  0  0  0
  -16.6803   -4.7578  -13.4171 C   0  0  0  0  0  0  0  0  0  0  0  0
  -16.6944   -5.0681  -11.0767 O   0  0  0  0  0  0  0  0  0  0  0  0
  -14.7054   -3.3706  -10.4750 C   0  0  0  0  0  0  0  0  0  0  0  0
  -13.2467   -3.7947  -10.3038 C   0  0  0  0  0  0  0  0  0  0  0  0
  -13.1534   -5.2691   -9.9279 C   0  0  0  0  0  0  0  0  0  0  0  0
  -14.3329   -5.6667   -9.2402 O   0  0  0  0  0  0  0  0  0  0  0  0
  -14.4331   -5.0836   -8.4679 H   0  0  0  0  0  0  0  0  0  0  0  0
 17 18  1  0  0  0
 18 11  1  0  0  0
 11 12  1  0  0  0
 11 16  2  0  0  0
 12 13  2  0  0  0
 13 19  1  0  0  0
 13 14  1  0  0  0
 19 20  1  0  0  0
 14 15  2  0  0  0
 15  1  1  0  0  0
 15 16  1  0  0  0
  1  2  1  0  0  0
  1 10  2  0  0  0
  2  3  2  0  0  0
  3  4  1  0  0  0
  3  8  1  0  0  0
  4  5  2  0  0  0
  5  6  1  0  0  0
  6 31  1  0  0  0
  6  7  2  0  0  0
 31 35  1  0  0  0
 31 32  1  0  0  0
 35 36  1  0  0  0
 36 37  1  0  0  0
 37 38  1  0  0  0
 38 39  1  0  0  0
 32 33  1  0  0  0
 32 34  2  0  0  0
  7  8  1  0  0  0
  8  9  2  0  0  0
  9 10  1  0  0  0
 10 21  1  0  0  0
 21 22  1  0  0  0
 21 25  1  0  0  0
 22 23  2  0  0  0
 22 24  1  0  0  0
 24 27  1  0  0  0
 24 26  1  0  0  0
 27 28  1  0  0  0
 27 29  1  0  0  0
 27 30  1  0  0  0
M  END
> <minimizedAffinity>
-6.60262

$$$$
