CHEMBL231412


 29 32  0  0  0  0  0  0  0  0999 V2000
  -28.8388   -3.0345   -6.8568 C   0  0  0  0  0  0  0  0  0  0  0  0
  -29.0713   -3.6459   -8.0922 C   0  0  0  0  0  0  0  0  0  0  0  0
  -28.5676   -3.0975   -9.2706 C   0  0  0  0  0  0  0  0  0  0  0  0
  -27.8814   -1.8848   -9.2652 C   0  0  0  0  0  0  0  0  0  0  0  0
  -27.6045   -1.2852   -8.0353 C   0  0  0  0  0  0  0  0  0  0  0  0
  -28.0578   -1.8729   -6.8399 C   0  0  0  0  0  0  0  0  0  0  0  0
  -28.1989   -6.3400   -6.9518 N   0  0  0  0  0  0  0  0  0  0  0  0
  -28.8972   -6.2392   -5.7533 C   0  0  0  0  0  0  0  0  0  0  0  0
  -29.0529   -7.4178   -5.1088 N   0  0  0  0  0  0  0  0  0  0  0  0
  -29.6556   -7.4598   -3.9121 C   0  0  0  0  0  0  0  0  0  0  0  0
  -30.1462   -6.3561   -3.2580 C   0  0  0  0  0  0  0  0  0  0  0  0
  -30.0111   -5.1359   -3.9291 C   0  0  0  0  0  0  0  0  0  0  0  0
  -30.5481   -3.6204   -3.3276 S   0  0  0  0  0  0  0  0  0  0  0  0
  -30.0125   -2.8106   -4.7141 C   0  0  0  0  0  0  0  0  0  0  0  0
  -29.4016   -3.6398   -5.6405 C   0  0  0  0  0  0  0  0  0  0  0  0
  -29.3991   -5.0330   -5.1883 C   0  0  0  0  0  0  0  0  0  0  0  0
  -27.7803   -7.2639   -6.9958 H   0  0  0  0  0  0  0  0  0  0  0  0
  -27.5514   -5.5750   -7.0943 H   0  0  0  0  0  0  0  0  0  0  0  0
  -27.4590   -1.2565  -10.4639 N   0  0  0  0  0  0  0  0  0  0  0  0
  -26.1564   -1.3004  -10.9386 C   0  0  0  0  0  0  0  0  0  0  0  0
  -25.2723   -1.9941  -10.4382 O   0  0  0  0  0  0  0  0  0  0  0  0
  -25.9552   -0.4728  -12.0273 N   0  0  0  0  0  0  0  0  0  0  0  0
  -28.1776   -0.9878  -11.1228 H   0  0  0  0  0  0  0  0  0  0  0  0
  -26.6491    0.2297  -12.2310 H   0  0  0  0  0  0  0  0  0  0  0  0
  -24.7128   -0.3429  -12.6536 C   0  0  0  0  0  0  0  0  0  0  0  0
  -24.1511   -1.2006  -13.6532 C   0  0  0  0  0  0  0  0  0  0  0  0
  -22.8691   -0.8515  -14.0120 C   0  0  0  0  0  0  0  0  0  0  0  0
  -22.3500    0.5572  -13.1952 S   0  0  0  0  0  0  0  0  0  0  0  0
  -23.8398    0.6837  -12.3530 C   0  0  0  0  0  0  0  0  0  0  0  0
  7  8  1  0  0  0
  7 17  1  0  0  0
  7 18  1  0  0  0
  8  9  1  0  0  0
  8 16  2  0  0  0
  9 10  2  0  0  0
 10 11  1  0  0  0
 11 12  2  0  0  0
 12 13  1  0  0  0
 12 16  1  0  0  0
 13 14  1  0  0  0
 14 15  2  0  0  0
 15  1  1  0  0  0
 15 16  1  0  0  0
  1  2  1  0  0  0
  1  6  2  0  0  0
  2  3  2  0  0  0
  3  4  1  0  0  0
  4 19  1  0  0  0
  4  5  2  0  0  0
 19 20  1  0  0  0
 19 23  1  0  0  0
 20 21  2  0  0  0
 20 22  1  0  0  0
 22 25  1  0  0  0
 22 24  1  0  0  0
 25 26  1  0  0  0
 25 29  2  0  0  0
 26 27  2  0  0  0
 27 28  1  0  0  0
 28 29  1  0  0  0
  5  6  1  0  0  0
M  END
> <minimizedAffinity>
-7.75211

$$$$
