CHEMBL3690418


 45 48  0  0  0  0  0  0  0  0999 V2000
  -19.9394    1.6621  -15.1773 C   0  0  0  0  0  0  0  0  0  0  0  0
  -19.0671    0.4910  -15.0555 C   0  0  0  0  0  0  0  0  0  0  0  0
  -17.7378    0.6298  -15.1984 C   0  0  0  0  0  0  0  0  0  0  0  0
  -17.1894    1.8787  -15.5117 N   0  0  0  0  0  0  0  0  0  0  0  0
  -15.8672    2.2865  -15.7125 C   0  0  0  0  0  0  0  0  0  0  0  0
  -15.9733    3.6516  -15.9363 C   0  0  0  0  0  0  0  0  0  0  0  0
  -17.2716    4.0839  -15.9064 N   0  0  0  0  0  0  0  0  0  0  0  0
  -17.9886    3.0113  -15.6610 C   0  0  0  0  0  0  0  0  0  0  0  0
  -19.3970    2.8640  -15.4847 C   0  0  0  0  0  0  0  0  0  0  0  0
  -14.6676    1.4365  -15.6993 C   0  0  0  0  0  0  0  0  0  0  0  0
  -13.7021    1.5328  -16.6968 C   0  0  0  0  0  0  0  0  0  0  0  0
  -12.5970    0.7662  -16.7749 N   0  0  0  0  0  0  0  0  0  0  0  0
  -12.3997   -0.1187  -15.7697 C   0  0  0  0  0  0  0  0  0  0  0  0
  -13.2488   -0.2734  -14.6752 C   0  0  0  0  0  0  0  0  0  0  0  0
  -14.4082    0.5210  -14.6589 C   0  0  0  0  0  0  0  0  0  0  0  0
  -13.0034   -1.1810  -13.6106 N   0  0  0  0  0  0  0  0  0  0  0  0
  -13.7792   -2.2793  -13.3048 C   0  0  0  0  0  0  0  0  0  0  0  0
  -14.7640   -2.6648  -13.9111 O   0  0  0  0  0  0  0  0  0  0  0  0
  -13.3750   -2.9273  -12.1596 N   0  0  0  0  0  0  0  0  0  0  0  0
  -12.1911   -1.0099  -13.0344 H   0  0  0  0  0  0  0  0  0  0  0  0
  -12.3992   -2.8770  -11.9034 H   0  0  0  0  0  0  0  0  0  0  0  0
  -14.1252   -4.1236  -11.7413 C   0  0  0  0  0  0  0  0  0  0  0  0
  -15.2361   -3.9075  -10.7003 C   0  0  0  0  0  0  0  0  0  0  0  0
  -15.6119   -2.6112  -10.6140 F   0  0  0  0  0  0  0  0  0  0  0  0
  -16.3412   -4.6112  -11.0564 F   0  0  0  0  0  0  0  0  0  0  0  0
  -14.8773   -4.3270   -9.4692 F   0  0  0  0  0  0  0  0  0  0  0  0
  -21.4136    1.5261  -14.8441 C   0  0  0  0  0  0  0  0  0  0  0  0
  -21.8791    2.4664  -13.7399 C   0  0  0  0  0  0  0  0  0  0  0  0
  -22.2768    3.6897  -13.8992 N   0  0  0  0  0  0  0  0  0  0  0  0
  -22.2329    3.9787  -14.8845 H   0  0  0  0  0  0  0  0  0  0  0  0
  -22.7914   -0.1067  -13.7040 N   0  0  0  0  0  0  0  0  0  0  0  0
  -21.8030    0.0959  -14.5012 C   0  0  0  0  0  0  0  0  0  0  0  0
  -26.6496   -1.6001  -11.0956 C   0  0  0  0  0  0  0  0  0  0  0  0
  -27.6932   -1.8915  -11.6750 O   0  0  0  0  0  0  0  0  0  0  0  0
  -25.4951   -1.2872  -11.7872 N   0  0  0  0  0  0  0  0  0  0  0  0
  -25.5601   -1.1592  -13.2392 C   0  0  0  0  0  0  0  0  0  0  0  0
  -24.4262   -1.9297  -13.9014 C   0  0  0  0  0  0  0  0  0  0  0  0
  -23.0675   -1.5061  -13.3407 C   0  0  0  0  0  0  0  0  0  0  0  0
  -23.0625   -1.6121  -11.8064 C   0  0  0  0  0  0  0  0  0  0  0  0
  -24.2410   -0.8748  -11.1680 C   0  0  0  0  0  0  0  0  0  0  0  0
  -26.5136   -1.5721   -9.7375 O   0  0  0  0  0  0  0  0  0  0  0  0
  -28.3852   -2.8761   -8.8164 C   0  0  0  0  0  0  0  0  0  0  0  0
  -27.7226   -1.4958   -8.9270 C   0  0  0  0  0  0  0  0  0  0  0  0
  -28.6859   -0.4167   -9.4483 C   0  0  0  0  0  0  0  0  0  0  0  0
  -27.2734   -1.0789   -7.5180 C   0  0  0  0  0  0  0  0  0  0  0  0
 42 43  1  0  0  0
 43 44  1  0  0  0
 43 45  1  0  0  0
 43 41  1  0  0  0
 41 33  1  0  0  0
 33 34  2  0  0  0
 33 35  1  0  0  0
 35 36  1  0  0  0
 35 40  1  0  0  0
 36 37  1  0  0  0
 37 38  1  0  0  0
 38 31  1  0  0  0
 38 39  1  0  0  0
 31 32  2  0  0  0
 32 27  1  0  0  0
 27 28  1  0  0  0
 27  1  1  0  0  0
 28 29  2  0  0  0
 29 30  1  0  0  0
  1  2  1  0  0  0
  1  9  2  0  0  0
  2  3  2  0  0  0
  3  4  1  0  0  0
  4  5  1  0  0  0
  4  8  1  0  0  0
  5 10  1  0  0  0
  5  6  2  0  0  0
 10 11  1  0  0  0
 10 15  2  0  0  0
 11 12  2  0  0  0
 12 13  1  0  0  0
 13 14  2  0  0  0
 14 16  1  0  0  0
 14 15  1  0  0  0
 16 17  1  0  0  0
 16 20  1  0  0  0
 17 18  2  0  0  0
 17 19  1  0  0  0
 19 22  1  0  0  0
 19 21  1  0  0  0
 22 23  1  0  0  0
 23 24  1  0  0  0
 23 25  1  0  0  0
 23 26  1  0  0  0
  6  7  1  0  0  0
  7  8  2  0  0  0
  8  9  1  0  0  0
 39 40  1  0  0  0
M  END
> <minimizedAffinity>
-8.81433

$$$$
