CHEMBL3593289


 42 46  0  0  0  0  0  0  0  0999 V2000
  -21.8059    0.6735  -13.6525 C   0  0  0  0  0  0  0  0  0  0  0  0
  -22.8195    0.4206  -14.5720 C   0  0  0  0  0  0  0  0  0  0  0  0
  -24.0053   -0.1737  -14.1456 C   0  0  0  0  0  0  0  0  0  0  0  0
  -24.2062   -0.4875  -12.7909 C   0  0  0  0  0  0  0  0  0  0  0  0
  -23.1706   -0.2417  -11.8811 C   0  0  0  0  0  0  0  0  0  0  0  0
  -21.9629    0.3063  -12.3164 C   0  0  0  0  0  0  0  0  0  0  0  0
  -19.2248    3.0029  -14.7570 N   0  0  0  0  0  0  0  0  0  0  0  0
  -20.4766    2.5883  -14.3974 C   0  0  0  0  0  0  0  0  0  0  0  0
  -21.3841    3.4197  -14.3800 O   0  0  0  0  0  0  0  0  0  0  0  0
  -20.6048    1.2730  -14.0391 N   0  0  0  0  0  0  0  0  0  0  0  0
  -19.1597    3.9913  -14.9486 H   0  0  0  0  0  0  0  0  0  0  0  0
  -19.7416    0.8284  -13.7447 H   0  0  0  0  0  0  0  0  0  0  0  0
  -16.4251    0.8487  -14.5952 C   0  0  0  0  0  0  0  0  0  0  0  0
  -17.5234    1.3921  -13.9745 C   0  0  0  0  0  0  0  0  0  0  0  0
  -18.1062    2.2244  -14.9569 C   0  0  0  0  0  0  0  0  0  0  0  0
  -17.4221    2.1516  -16.1041 N   0  0  0  0  0  0  0  0  0  0  0  0
  -16.3682    1.2985  -15.8748 O   0  0  0  0  0  0  0  0  0  0  0  0
  -15.3418   -0.0702  -14.1806 C   0  0  0  0  0  0  0  0  0  0  0  0
  -15.5852   -0.5984  -12.7663 C   0  0  0  0  0  0  0  0  0  0  0  0
  -15.8060   -2.6306  -11.3109 C   0  0  0  0  0  0  0  0  0  0  0  0
  -15.6323   -2.1234  -12.7336 C   0  0  0  0  0  0  0  0  0  0  0  0
  -25.4722   -1.0878  -12.3786 C   0  0  0  0  0  0  0  0  0  0  0  0
  -26.4195   -1.7041  -13.1665 C   0  0  0  0  0  0  0  0  0  0  0  0
  -27.5511   -2.1238  -12.5189 N   0  0  0  0  0  0  0  0  0  0  0  0
  -27.5151   -1.8055  -11.2433 C   0  0  0  0  0  0  0  0  0  0  0  0
  -26.0320   -1.0666  -10.7541 S   0  0  0  0  0  0  0  0  0  0  0  0
  -28.5196   -1.9813  -10.3518 N   0  0  0  0  0  0  0  0  0  0  0  0
  -29.4193   -2.2974  -10.6817 H   0  0  0  0  0  0  0  0  0  0  0  0
  -28.3588   -2.3072   -8.9984 C   0  0  0  0  0  0  0  0  0  0  0  0
  -28.5742   -3.5764   -8.4968 C   0  0  0  0  0  0  0  0  0  0  0  0
  -28.4703   -3.8053   -7.1460 C   0  0  0  0  0  0  0  0  0  0  0  0
  -28.1482   -2.7932   -6.3282 N   0  0  0  0  0  0  0  0  0  0  0  0
  -27.8934   -1.5941   -6.8776 C   0  0  0  0  0  0  0  0  0  0  0  0
  -27.4548   -0.5019   -5.9554 C   0  0  0  0  0  0  0  0  0  0  0  0
  -27.9816   -1.3062   -8.1881 N   0  0  0  0  0  0  0  0  0  0  0  0
  -28.6228   -5.0628   -6.5998 N   0  0  0  0  0  0  0  0  0  0  0  0
  -28.5350   -5.2072   -5.1418 C   0  0  0  0  0  0  0  0  0  0  0  0
  -27.9458   -6.5929   -4.7904 C   0  0  0  0  0  0  0  0  0  0  0  0
  -28.6788   -7.7156   -5.4260 N   0  0  0  0  0  0  0  0  0  0  0  0
  -28.0275   -8.9867   -5.1217 C   0  0  0  0  0  0  0  0  0  0  0  0
  -28.7171   -7.5001   -6.8890 C   0  0  0  0  0  0  0  0  0  0  0  0
  -29.3451   -6.1443   -7.2766 C   0  0  0  0  0  0  0  0  0  0  0  0
 20 21  1  0  0  0
 21 19  1  0  0  0
 19 18  1  0  0  0
 18 13  1  0  0  0
 13 14  2  0  0  0
 13 17  1  0  0  0
 14 15  1  0  0  0
 15  7  1  0  0  0
 15 16  2  0  0  0
  7  8  1  0  0  0
  7 11  1  0  0  0
  8  9  2  0  0  0
  8 10  1  0  0  0
 10  1  1  0  0  0
 10 12  1  0  0  0
  1  2  1  0  0  0
  1  6  2  0  0  0
  2  3  2  0  0  0
  3  4  1  0  0  0
  4 22  1  0  0  0
  4  5  2  0  0  0
 22 23  2  0  0  0
 22 26  1  0  0  0
 23 24  1  0  0  0
 24 25  2  0  0  0
 25 27  1  0  0  0
 25 26  1  0  0  0
 27 29  1  0  0  0
 27 28  1  0  0  0
 29 30  1  0  0  0
 29 35  2  0  0  0
 30 31  2  0  0  0
 31 36  1  0  0  0
 31 32  1  0  0  0
 36 37  1  0  0  0
 36 42  1  0  0  0
 37 38  1  0  0  0
 38 39  1  0  0  0
 39 40  1  0  0  0
 39 41  1  0  0  0
 41 42  1  0  0  0
 32 33  2  0  0  0
 33 34  1  0  0  0
 33 35  1  0  0  0
  5  6  1  0  0  0
 16 17  1  0  0  0
M  END
> <minimizedAffinity>
-10.01926

$$$$
