CHEMBL3982570


 35 39  0  0  0  0  0  0  0  0999 V2000
  -28.7617  -10.0308   -5.7455 N   0  0  0  0  0  0  0  0  0  0  0  0
  -28.9925   -8.5783   -5.9486 C   0  0  0  0  0  0  0  0  0  0  0  0
  -29.5803   -8.3065   -7.1828 C   0  0  0  0  0  0  0  0  0  0  0  0
  -29.5637   -7.0925   -7.7501 C   0  0  0  0  0  0  0  0  0  0  0  0
  -29.0540   -6.0237   -7.1027 C   0  0  0  0  0  0  0  0  0  0  0  0
  -28.9435   -4.9302   -7.8452 N   0  0  0  0  0  0  0  0  0  0  0  0
  -28.5803   -3.7685   -7.3470 C   0  0  0  0  0  0  0  0  0  0  0  0
  -28.4428   -3.6055   -5.9684 C   0  0  0  0  0  0  0  0  0  0  0  0
  -28.3987   -4.7772   -5.1720 N   0  0  0  0  0  0  0  0  0  0  0  0
  -28.6591   -6.0459   -5.7510 C   0  0  0  0  0  0  0  0  0  0  0  0
  -28.5796   -7.3999   -5.1414 C   0  0  0  0  0  0  0  0  0  0  0  0
  -28.6185   -2.1218   -5.5697 C   0  0  0  0  0  0  0  0  0  0  0  0
  -27.5123   -1.2779   -5.2853 C   0  0  0  0  0  0  0  0  0  0  0  0
  -27.8935   -0.0126   -5.1802 N   0  0  0  0  0  0  0  0  0  0  0  0
  -29.1929    0.0271   -5.3568 N   0  0  0  0  0  0  0  0  0  0  0  0
  -29.8760    1.3133   -5.4356 C   0  0  0  0  0  0  0  0  0  0  0  0
  -29.6946   -1.2281   -5.5614 C   0  0  0  0  0  0  0  0  0  0  0  0
  -25.3868  -11.4846   -4.7630 C   0  0  0  0  0  0  0  0  0  0  0  0
  -25.6705  -11.9206   -3.4593 C   0  0  0  0  0  0  0  0  0  0  0  0
  -26.9202  -11.7364   -2.9155 C   0  0  0  0  0  0  0  0  0  0  0  0
  -27.9531  -11.0975   -3.6338 C   0  0  0  0  0  0  0  0  0  0  0  0
  -27.7010  -10.6172   -4.9483 C   0  0  0  0  0  0  0  0  0  0  0  0
  -26.4057  -10.8376   -5.4934 C   0  0  0  0  0  0  0  0  0  0  0  0
  -23.7118  -11.0240   -6.4778 C   0  0  0  0  0  0  0  0  0  0  0  0
  -24.1584  -11.6582   -5.3281 O   0  0  0  0  0  0  0  0  0  0  0  0
  -29.1994  -11.0067   -3.1002 O   0  0  0  0  0  0  0  0  0  0  0  0
  -30.0682  -12.0775   -2.9587 C   0  0  0  0  0  0  0  0  0  0  0  0
  -29.6011  -10.8919   -6.6626 C   0  0  0  0  0  0  0  0  0  0  0  0
  -29.0531  -12.1220   -7.4479 C   0  0  0  0  0  0  0  0  0  0  0  0
  -28.6332  -11.9711   -8.9434 C   0  0  0  0  0  0  0  0  0  0  0  0
  -28.2674  -10.5935   -9.3994 N   0  0  0  0  0  0  0  0  0  0  0  0
  -29.3114  -10.0717  -10.3176 C   0  0  0  0  0  0  0  0  0  0  0  0
  -28.7844  -10.2814  -11.7328 C   0  0  0  0  0  0  0  0  0  0  0  0
  -27.3615   -9.8433  -11.5344 C   0  0  0  0  0  0  0  0  0  0  0  0
  -27.0236  -10.5492  -10.2200 C   0  0  0  0  0  0  0  0  0  0  0  0
 24 25  1  0  0  0
 25 18  1  0  0  0
 18 19  1  0  0  0
 18 23  2  0  0  0
 19 20  2  0  0  0
 20 21  1  0  0  0
 21 26  1  0  0  0
 21 22  2  0  0  0
 26 27  1  0  0  0
 22  1  1  0  0  0
 22 23  1  0  0  0
  1 28  1  0  0  0
  1  2  1  0  0  0
 28 29  1  0  0  0
 29 30  1  0  0  0
 30 31  1  0  0  0
 31 32  1  0  0  0
 31 35  1  0  0  0
 32 33  1  0  0  0
 33 34  1  0  0  0
 34 35  1  0  0  0
  2  3  1  0  0  0
  2 11  2  0  0  0
  3  4  2  0  0  0
  4  5  1  0  0  0
  5  6  1  0  0  0
  5 10  2  0  0  0
  6  7  2  0  0  0
  7  8  1  0  0  0
  8 12  1  0  0  0
  8  9  2  0  0  0
 12 13  1  0  0  0
 12 17  2  0  0  0
 13 14  2  0  0  0
 14 15  1  0  0  0
 15 16  1  0  0  0
 15 17  1  0  0  0
  9 10  1  0  0  0
 10 11  1  0  0  0
M  END
> <minimizedAffinity>
-7.55490

$$$$
