CHEMBL3968192


 35 39  0  0  0  0  0  0  0  0999 V2000
  -28.6415   -5.6736   -7.5519 C   0  0  0  0  0  0  0  0  0  0  0  0
  -28.1452   -4.6788   -8.3909 C   0  0  0  0  0  0  0  0  0  0  0  0
  -28.0769   -3.3322   -7.9737 C   0  0  0  0  0  0  0  0  0  0  0  0
  -27.6180   -2.2920   -8.7971 C   0  0  0  0  0  0  0  0  0  0  0  0
  -27.4717   -1.0348   -8.3495 N   0  0  0  0  0  0  0  0  0  0  0  0
  -27.8366   -0.8173   -7.0832 C   0  0  0  0  0  0  0  0  0  0  0  0
  -28.3284   -1.7248   -6.2266 N   0  0  0  0  0  0  0  0  0  0  0  0
  -28.4347   -2.9815   -6.6750 C   0  0  0  0  0  0  0  0  0  0  0  0
  -28.9087   -3.9829   -5.8301 C   0  0  0  0  0  0  0  0  0  0  0  0
  -28.9923   -5.3274   -6.2329 C   0  0  0  0  0  0  0  0  0  0  0  0
  -30.0731   -7.5573   -8.0482 C   0  0  0  0  0  0  0  0  0  0  0  0
  -28.7838   -6.9616   -7.9747 O   0  0  0  0  0  0  0  0  0  0  0  0
  -27.3501   -2.5738  -10.1562 N   0  0  0  0  0  0  0  0  0  0  0  0
  -28.1799   -2.9459  -10.6178 H   0  0  0  0  0  0  0  0  0  0  0  0
  -26.4744   -1.9094  -11.0402 C   0  0  0  0  0  0  0  0  0  0  0  0
  -25.2376   -1.4417  -10.5782 C   0  0  0  0  0  0  0  0  0  0  0  0
  -24.2764   -0.9628  -11.4658 C   0  0  0  0  0  0  0  0  0  0  0  0
  -24.5374   -0.9376  -12.8368 C   0  0  0  0  0  0  0  0  0  0  0  0
  -23.1164   -0.3646  -13.9622 Br  0  0  0  0  0  0  0  0  0  0  0  0
  -25.7817   -1.3562  -13.3313 C   0  0  0  0  0  0  0  0  0  0  0  0
  -26.1274   -1.2864  -15.0290 Cl  0  0  0  0  0  0  0  0  0  0  0  0
  -26.7459   -1.8386  -12.4238 C   0  0  0  0  0  0  0  0  0  0  0  0
  -28.3072   -2.3873  -12.9780 Cl  0  0  0  0  0  0  0  0  0  0  0  0
  -29.4463   -6.1638   -5.2337 O   0  0  0  0  0  0  0  0  0  0  0  0
  -28.4552   -7.0411   -4.6988 C   0  0  0  0  0  0  0  0  0  0  0  0
  -28.9999   -8.4244   -4.2875 C   0  0  0  0  0  0  0  0  0  0  0  0
  -28.9397   -9.4302   -5.4531 C   0  0  0  0  0  0  0  0  0  0  0  0
  -27.5408   -9.5825   -5.8624 N   0  0  0  0  0  0  0  0  0  0  0  0
  -27.3336  -10.0250   -7.2227 C   0  0  0  0  0  0  0  0  0  0  0  0
  -25.9367  -10.5345   -7.5990 C   0  0  0  0  0  0  0  0  0  0  0  0
  -25.0304  -10.9152   -6.4351 C   0  0  0  0  0  0  0  0  0  0  0  0
  -25.2220   -9.9825   -5.2508 C   0  0  0  0  0  0  0  0  0  0  0  0
  -26.6760  -10.0490   -4.7795 C   0  0  0  0  0  0  0  0  0  0  0  0
  -26.8592   -9.1721   -3.5115 C   0  0  0  0  0  0  0  0  0  0  0  0
  -28.2435   -8.9609   -3.1700 O   0  0  0  0  0  0  0  0  0  0  0  0
 11 12  1  0  0  0
 12  1  1  0  0  0
  1  2  1  0  0  0
  1 10  2  0  0  0
  2  3  2  0  0  0
  3  4  1  0  0  0
  3  8  1  0  0  0
  4 13  1  0  0  0
  4  5  2  0  0  0
 13 15  1  0  0  0
 13 14  1  0  0  0
 15 16  1  0  0  0
 15 22  2  0  0  0
 16 17  2  0  0  0
 17 18  1  0  0  0
 18 19  1  0  0  0
 18 20  2  0  0  0
 20 21  1  0  0  0
 20 22  1  0  0  0
 22 23  1  0  0  0
  5  6  1  0  0  0
  6  7  2  0  0  0
  7  8  1  0  0  0
  8  9  2  0  0  0
  9 10  1  0  0  0
 10 24  1  0  0  0
 24 25  1  0  0  0
 25 26  1  0  0  0
 26 27  1  0  0  0
 26 35  1  0  0  0
 27 28  1  0  0  0
 28 29  1  0  0  0
 28 33  1  0  0  0
 29 30  1  0  0  0
 30 31  1  0  0  0
 31 32  1  0  0  0
 32 33  1  0  0  0
 33 34  1  0  0  0
 34 35  1  0  0  0
M  END
> <minimizedAffinity>
-9.27880

$$$$
