CHEMBL3943734


 37 41  0  0  0  0  0  0  0  0999 V2000
  -29.1685   -9.6925   -6.0894 C   0  0  0  0  0  0  0  0  0  0  0  0
  -28.1916  -10.5665   -6.6319 C   0  0  0  0  0  0  0  0  0  0  0  0
  -27.6925  -10.4299   -7.9627 C   0  0  0  0  0  0  0  0  0  0  0  0
  -26.6832  -11.1814   -8.6156 C   0  0  0  0  0  0  0  0  0  0  0  0
  -26.2535  -10.8812   -9.8595 N   0  0  0  0  0  0  0  0  0  0  0  0
  -26.8559   -9.8769  -10.4868 C   0  0  0  0  0  0  0  0  0  0  0  0
  -27.8750   -9.1682  -10.0072 N   0  0  0  0  0  0  0  0  0  0  0  0
  -28.2709   -9.4527   -8.7660 C   0  0  0  0  0  0  0  0  0  0  0  0
  -29.2942   -8.6746   -8.2576 C   0  0  0  0  0  0  0  0  0  0  0  0
  -29.6755   -8.6744   -6.9037 C   0  0  0  0  0  0  0  0  0  0  0  0
  -28.4154   -9.8948   -3.7954 C   0  0  0  0  0  0  0  0  0  0  0  0
  -29.4359   -9.9781   -4.7807 O   0  0  0  0  0  0  0  0  0  0  0  0
  -26.0669  -12.2886   -7.9797 N   0  0  0  0  0  0  0  0  0  0  0  0
  -26.7689  -12.9851   -7.7542 H   0  0  0  0  0  0  0  0  0  0  0  0
  -25.0429  -12.1828   -7.0013 C   0  0  0  0  0  0  0  0  0  0  0  0
  -25.2961  -12.4656   -5.6480 C   0  0  0  0  0  0  0  0  0  0  0  0
  -24.3183  -12.2770   -4.6662 C   0  0  0  0  0  0  0  0  0  0  0  0
  -23.0605  -11.7920   -5.0214 C   0  0  0  0  0  0  0  0  0  0  0  0
  -21.8010  -11.5154   -3.6266 Br  0  0  0  0  0  0  0  0  0  0  0  0
  -22.7845  -11.5144   -6.3639 C   0  0  0  0  0  0  0  0  0  0  0  0
  -21.2498  -10.9122   -6.8878 Cl  0  0  0  0  0  0  0  0  0  0  0  0
  -23.7725  -11.7063   -7.3440 C   0  0  0  0  0  0  0  0  0  0  0  0
  -30.4411   -7.6354   -6.3924 O   0  0  0  0  0  0  0  0  0  0  0  0
  -29.7488   -6.7718   -5.4552 C   0  0  0  0  0  0  0  0  0  0  0  0
  -30.6829   -6.0885   -4.4446 C   0  0  0  0  0  0  0  0  0  0  0  0
  -30.2825   -4.7405   -4.2263 O   0  0  0  0  0  0  0  0  0  0  0  0
  -29.2583   -4.4117   -5.1575 C   0  0  0  0  0  0  0  0  0  0  0  0
  -29.7435   -3.3372   -6.1294 C   0  0  0  0  0  0  0  0  0  0  0  0
  -29.0684   -3.7846   -7.4111 C   0  0  0  0  0  0  0  0  0  0  0  0
  -29.2173   -5.2229   -7.3897 O   0  0  0  0  0  0  0  0  0  0  0  0
  -28.9439   -5.6148   -6.0415 C   0  0  0  0  0  0  0  0  0  0  0  0
  -29.4100   -1.9901   -5.6333 N   0  0  0  0  0  0  0  0  0  0  0  0
  -29.8572   -1.6628   -4.7750 H   0  0  0  0  0  0  0  0  0  0  0  0
  -27.8933   -1.3289   -5.8373 S   0  0  0  0  0  0  0  0  0  0  0  0
  -27.9957    0.2343   -4.9823 C   0  0  0  0  0  0  0  0  0  0  0  0
  -26.9850   -2.1960   -5.1286 O   0  0  0  0  0  0  0  0  0  0  0  0
  -27.7311   -1.0776   -7.2511 O   0  0  0  0  0  0  0  0  0  0  0  0
 11 12  1  0  0  0
 12  1  1  0  0  0
  1  2  1  0  0  0
  1 10  2  0  0  0
  2  3  2  0  0  0
  3  4  1  0  0  0
  3  8  1  0  0  0
  4 13  1  0  0  0
  4  5  2  0  0  0
 13 15  1  0  0  0
 13 14  1  0  0  0
 15 16  1  0  0  0
 15 22  2  0  0  0
 16 17  2  0  0  0
 17 18  1  0  0  0
 18 19  1  0  0  0
 18 20  2  0  0  0
 20 21  1  0  0  0
 20 22  1  0  0  0
  5  6  1  0  0  0
  6  7  2  0  0  0
  7  8  1  0  0  0
  8  9  2  0  0  0
  9 10  1  0  0  0
 10 23  1  0  0  0
 23 24  1  0  0  0
 24 25  1  0  0  0
 24 31  1  0  0  0
 25 26  1  0  0  0
 26 27  1  0  0  0
 27 28  1  0  0  0
 27 31  1  0  0  0
 28 32  1  0  0  0
 28 29  1  0  0  0
 32 34  1  0  0  0
 32 33  1  0  0  0
 34 35  1  0  0  0
 34 36  2  0  0  0
 34 37  2  0  0  0
 29 30  1  0  0  0
 30 31  1  0  0  0
M  END
> <minimizedAffinity>
-8.16470

$$$$
