CHEMBL213831


 48 52  0  0  0  0  0  0  0  0999 V2000
  -27.1887   -1.8863   -9.5289 C   0  0  0  0  0  0  0  0  0  0  0  0
  -26.7965   -1.0773   -8.6931 O   0  0  0  0  0  0  0  0  0  0  0  0
  -27.8414   -3.0751   -9.2365 N   0  0  0  0  0  0  0  0  0  0  0  0
  -27.8440   -3.7998   -9.9393 H   0  0  0  0  0  0  0  0  0  0  0  0
  -25.2810   -0.9525  -12.7362 C   0  0  0  0  0  0  0  0  0  0  0  0
  -25.6258   -1.0596  -11.3605 C   0  0  0  0  0  0  0  0  0  0  0  0
  -26.8426   -1.6319  -10.9535 C   0  0  0  0  0  0  0  0  0  0  0  0
  -27.7514   -2.0820  -11.9107 C   0  0  0  0  0  0  0  0  0  0  0  0
  -27.4353   -2.0052  -13.2611 C   0  0  0  0  0  0  0  0  0  0  0  0
  -26.1974   -1.4926  -13.6866 C   0  0  0  0  0  0  0  0  0  0  0  0
  -25.9118   -1.5938  -15.1690 C   0  0  0  0  0  0  0  0  0  0  0  0
  -20.4185    2.9017  -14.5389 C   0  0  0  0  0  0  0  0  0  0  0  0
  -21.4632    3.6938  -14.2789 N   0  0  0  0  0  0  0  0  0  0  0  0
  -22.5798    3.0879  -13.8392 C   0  0  0  0  0  0  0  0  0  0  0  0
  -22.6978    1.7191  -13.6642 C   0  0  0  0  0  0  0  0  0  0  0  0
  -23.8649    1.0904  -13.1831 C   0  0  0  0  0  0  0  0  0  0  0  0
  -23.9967   -0.3076  -13.1399 C   0  0  0  0  0  0  0  0  0  0  0  0
  -22.8568   -1.0430  -13.4969 C   0  0  0  0  0  0  0  0  0  0  0  0
  -21.6700   -0.4025  -13.9055 C   0  0  0  0  0  0  0  0  0  0  0  0
  -21.5753    0.9806  -14.0129 C   0  0  0  0  0  0  0  0  0  0  0  0
  -20.4444    1.5637  -14.4365 N   0  0  0  0  0  0  0  0  0  0  0  0
  -18.2629    2.7153  -15.5427 C   0  0  0  0  0  0  0  0  0  0  0  0
  -19.2600    3.5565  -14.9255 N   0  0  0  0  0  0  0  0  0  0  0  0
  -19.5494    4.3697  -15.4559 H   0  0  0  0  0  0  0  0  0  0  0  0
  -28.2242   -3.4231   -7.9109 C   0  0  0  0  0  0  0  0  0  0  0  0
  -28.5736   -2.4077   -6.9925 C   0  0  0  0  0  0  0  0  0  0  0  0
  -29.0246   -2.7046   -5.6942 C   0  0  0  0  0  0  0  0  0  0  0  0
  -29.0826   -4.0335   -5.2957 C   0  0  0  0  0  0  0  0  0  0  0  0
  -28.7114   -5.0399   -6.1812 C   0  0  0  0  0  0  0  0  0  0  0  0
  -28.3204   -4.7684   -7.5040 C   0  0  0  0  0  0  0  0  0  0  0  0
  -27.9493   -5.8404   -8.3691 N   0  0  0  0  0  0  0  0  0  0  0  0
  -28.5943   -7.0551   -8.3706 C   0  0  0  0  0  0  0  0  0  0  0  0
  -29.6205   -7.3003   -7.7545 O   0  0  0  0  0  0  0  0  0  0  0  0
  -27.9981   -8.0006   -9.1709 N   0  0  0  0  0  0  0  0  0  0  0  0
  -27.2771   -5.6644   -9.0960 H   0  0  0  0  0  0  0  0  0  0  0  0
  -26.9982   -7.9316   -9.2199 H   0  0  0  0  0  0  0  0  0  0  0  0
  -28.5279   -9.3668   -9.0973 C   0  0  0  0  0  0  0  0  0  0  0  0
  -27.5212  -10.4255   -8.5747 C   0  0  0  0  0  0  0  0  0  0  0  0
  -27.9712  -11.1716   -7.3812 N   0  0  0  0  0  0  0  0  0  0  0  0
  -28.4773  -10.3048   -6.3042 C   0  0  0  0  0  0  0  0  0  0  0  0
  -27.3782   -9.4375   -5.6772 C   0  0  0  0  0  0  0  0  0  0  0  0
  -26.3314  -10.2503   -5.1320 O   0  0  0  0  0  0  0  0  0  0  0  0
  -25.7722  -11.1243   -6.1239 C   0  0  0  0  0  0  0  0  0  0  0  0
  -26.8517  -11.9727   -6.8238 C   0  0  0  0  0  0  0  0  0  0  0  0
  -29.4538   -1.6464   -4.7138 C   0  0  0  0  0  0  0  0  0  0  0  0
  -30.2042   -0.6526   -5.2596 F   0  0  0  0  0  0  0  0  0  0  0  0
  -30.2031   -2.1621   -3.6974 F   0  0  0  0  0  0  0  0  0  0  0  0
  -28.3945   -1.0346   -4.1130 F   0  0  0  0  0  0  0  0  0  0  0  0
 22 23  1  0  0  0
 23 12  1  0  0  0
 23 24  1  0  0  0
 12 13  1  0  0  0
 12 21  2  0  0  0
 13 14  2  0  0  0
 14 15  1  0  0  0
 15 16  1  0  0  0
 15 20  2  0  0  0
 16 17  2  0  0  0
 17  5  1  0  0  0
 17 18  1  0  0  0
  5  6  1  0  0  0
  5 10  2  0  0  0
  6  7  2  0  0  0
  7  1  1  0  0  0
  7  8  1  0  0  0
  1  2  2  0  0  0
  1  3  1  0  0  0
  3 25  1  0  0  0
  3  4  1  0  0  0
 25 26  1  0  0  0
 25 30  2  0  0  0
 26 27  2  0  0  0
 27 45  1  0  0  0
 27 28  1  0  0  0
 45 46  1  0  0  0
 45 47  1  0  0  0
 45 48  1  0  0  0
 28 29  2  0  0  0
 29 30  1  0  0  0
 30 31  1  0  0  0
 31 32  1  0  0  0
 31 35  1  0  0  0
 32 33  2  0  0  0
 32 34  1  0  0  0
 34 37  1  0  0  0
 34 36  1  0  0  0
 37 38  1  0  0  0
 38 39  1  0  0  0
 39 40  1  0  0  0
 39 44  1  0  0  0
 40 41  1  0  0  0
 41 42  1  0  0  0
 42 43  1  0  0  0
 43 44  1  0  0  0
  8  9  2  0  0  0
  9 10  1  0  0  0
 10 11  1  0  0  0
 18 19  2  0  0  0
 19 20  1  0  0  0
 20 21  1  0  0  0
M  END
> <minimizedAffinity>
-12.01108

$$$$
