CHEMBL3929401


 46 50  0  0  0  0  0  0  0  0999 V2000
  -25.8096   -0.8326   -9.4742 O   0  0  0  0  0  0  0  0  0  0  0  0
  -26.3813   -1.7390  -10.0681 C   0  0  0  0  0  0  0  0  0  0  0  0
  -27.3909   -2.5149   -9.5162 N   0  0  0  0  0  0  0  0  0  0  0  0
  -26.0721   -2.1353  -11.3619 N   0  0  0  0  0  0  0  0  0  0  0  0
  -27.6741   -3.3315  -10.0347 H   0  0  0  0  0  0  0  0  0  0  0  0
  -26.6761   -2.8186  -11.7902 H   0  0  0  0  0  0  0  0  0  0  0  0
  -25.0121   -1.6352  -12.1600 C   0  0  0  0  0  0  0  0  0  0  0  0
  -23.7044   -1.4737  -11.6925 C   0  0  0  0  0  0  0  0  0  0  0  0
  -22.6894   -0.9926  -12.5238 C   0  0  0  0  0  0  0  0  0  0  0  0
  -22.9410   -0.7400  -13.8697 C   0  0  0  0  0  0  0  0  0  0  0  0
  -24.2536   -0.8594  -14.3313 C   0  0  0  0  0  0  0  0  0  0  0  0
  -24.5470   -0.5691  -15.6086 F   0  0  0  0  0  0  0  0  0  0  0  0
  -25.2841   -1.2985  -13.4907 C   0  0  0  0  0  0  0  0  0  0  0  0
  -21.9648   -0.3520  -14.7634 O   0  0  0  0  0  0  0  0  0  0  0  0
  -21.4592    0.9338  -14.6757 C   0  0  0  0  0  0  0  0  0  0  0  0
  -22.1132    1.9688  -14.0141 C   0  0  0  0  0  0  0  0  0  0  0  0
  -21.5496    3.2228  -14.0682 C   0  0  0  0  0  0  0  0  0  0  0  0
  -20.3722    3.4768  -14.6628 N   0  0  0  0  0  0  0  0  0  0  0  0
  -19.6989    2.4631  -15.2316 C   0  0  0  0  0  0  0  0  0  0  0  0
  -20.2133    1.1698  -15.2645 C   0  0  0  0  0  0  0  0  0  0  0  0
  -18.4488    2.7148  -15.8198 N   0  0  0  0  0  0  0  0  0  0  0  0
  -17.2515    2.2493  -15.3149 C   0  0  0  0  0  0  0  0  0  0  0  0
  -17.0689    1.5563  -14.3257 O   0  0  0  0  0  0  0  0  0  0  0  0
  -18.4312    3.2755  -16.6581 H   0  0  0  0  0  0  0  0  0  0  0  0
  -16.0597    2.7110  -16.0941 C   0  0  0  0  0  0  0  0  0  0  0  0
  -15.3572    4.0019  -15.7203 C   0  0  0  0  0  0  0  0  0  0  0  0
  -16.1940    3.9415  -16.9635 C   0  0  0  0  0  0  0  0  0  0  0  0
  -27.9149   -2.3906   -8.2047 C   0  0  0  0  0  0  0  0  0  0  0  0
  -28.1864   -3.4815   -7.3711 C   0  0  0  0  0  0  0  0  0  0  0  0
  -28.7508   -3.3407   -6.0943 C   0  0  0  0  0  0  0  0  0  0  0  0
  -29.0512   -2.0461   -5.6651 C   0  0  0  0  0  0  0  0  0  0  0  0
  -28.7474   -0.9237   -6.4512 C   0  0  0  0  0  0  0  0  0  0  0  0
  -28.1764   -1.1057   -7.7199 C   0  0  0  0  0  0  0  0  0  0  0  0
  -28.9855   -4.4328   -5.2854 N   0  0  0  0  0  0  0  0  0  0  0  0
  -28.8437   -5.8054   -5.7895 C   0  0  0  0  0  0  0  0  0  0  0  0
  -30.1409   -6.6057   -5.5547 C   0  0  0  0  0  0  0  0  0  0  0  0
  -30.6103   -6.6109   -4.1466 N   0  0  0  0  0  0  0  0  0  0  0  0
  -30.7755   -5.1915   -3.7301 C   0  0  0  0  0  0  0  0  0  0  0  0
  -29.5317   -4.2807   -3.9296 C   0  0  0  0  0  0  0  0  0  0  0  0
  -29.6912   -7.3116   -3.2276 C   0  0  0  0  0  0  0  0  0  0  0  0
  -28.9980   -8.5456   -3.8075 C   0  0  0  0  0  0  0  0  0  0  0  0
  -27.9245   -8.8462   -3.0226 F   0  0  0  0  0  0  0  0  0  0  0  0
  -29.0101    0.4661   -5.9321 C   0  0  0  0  0  0  0  0  0  0  0  0
  -28.7078    1.4534   -6.8203 F   0  0  0  0  0  0  0  0  0  0  0  0
  -30.3177    0.6515   -5.5992 F   0  0  0  0  0  0  0  0  0  0  0  0
  -28.2967    0.7448   -4.8064 F   0  0  0  0  0  0  0  0  0  0  0  0
  1  2  2  0  0  0
  2  3  1  0  0  0
  2  4  1  0  0  0
  3 28  1  0  0  0
  3  5  1  0  0  0
 28 29  1  0  0  0
 28 33  2  0  0  0
 29 30  2  0  0  0
 30 34  1  0  0  0
 30 31  1  0  0  0
 34 35  1  0  0  0
 34 39  1  0  0  0
 35 36  1  0  0  0
 36 37  1  0  0  0
 37 40  1  0  0  0
 37 38  1  0  0  0
 40 41  1  0  0  0
 41 42  1  0  0  0
 38 39  1  0  0  0
 31 32  2  0  0  0
 32 43  1  0  0  0
 32 33  1  0  0  0
 43 44  1  0  0  0
 43 45  1  0  0  0
 43 46  1  0  0  0
  4  7  1  0  0  0
  4  6  1  0  0  0
  7  8  1  0  0  0
  7 13  2  0  0  0
  8  9  2  0  0  0
  9 10  1  0  0  0
 10 14  1  0  0  0
 10 11  2  0  0  0
 14 15  1  0  0  0
 15 16  1  0  0  0
 15 20  2  0  0  0
 16 17  2  0  0  0
 17 18  1  0  0  0
 18 19  2  0  0  0
 19 21  1  0  0  0
 19 20  1  0  0  0
 21 22  1  0  0  0
 21 24  1  0  0  0
 22 23  2  0  0  0
 22 25  1  0  0  0
 25 26  1  0  0  0
 25 27  1  0  0  0
 26 27  1  0  0  0
 11 12  1  0  0  0
 11 13  1  0  0  0
M  END
> <minimizedAffinity>
-11.50557

$$$$
