CHEMBL1242384


 25 28  0  0  0  0  0  0  0  0999 V2000
  -14.9440    3.0022  -16.5235 N   0  0  0  0  0  0  0  0  0  0  0  0
  -16.2878    2.8917  -16.5757 N   0  0  0  0  0  0  0  0  0  0  0  0
  -16.6078    2.1231  -15.5153 C   0  0  0  0  0  0  0  0  0  0  0  0
  -15.4305    1.7007  -14.8143 C   0  0  0  0  0  0  0  0  0  0  0  0
  -15.0753    0.8943  -13.7190 C   0  0  0  0  0  0  0  0  0  0  0  0
  -15.9517    0.1383  -12.9537 N   0  0  0  0  0  0  0  0  0  0  0  0
  -13.7727    0.8108  -13.3658 N   0  0  0  0  0  0  0  0  0  0  0  0
  -12.8654    1.4873  -14.0912 C   0  0  0  0  0  0  0  0  0  0  0  0
  -13.0763    2.2527  -15.1715 N   0  0  0  0  0  0  0  0  0  0  0  0
  -14.3844    2.3187  -15.4798 C   0  0  0  0  0  0  0  0  0  0  0  0
  -16.7296   -0.2543  -13.4690 H   0  0  0  0  0  0  0  0  0  0  0  0
  -15.4387   -0.5186  -12.3756 H   0  0  0  0  0  0  0  0  0  0  0  0
  -18.0186    1.8311  -15.2244 C   0  0  0  0  0  0  0  0  0  0  0  0
  -18.5011    0.5174  -15.2419 C   0  0  0  0  0  0  0  0  0  0  0  0
  -19.8485    0.2175  -15.0183 C   0  0  0  0  0  0  0  0  0  0  0  0
  -20.7003    1.2698  -14.6699 C   0  0  0  0  0  0  0  0  0  0  0  0
  -20.2497    2.5887  -14.5779 C   0  0  0  0  0  0  0  0  0  0  0  0
  -21.3502    3.3768  -14.1434 C   0  0  0  0  0  0  0  0  0  0  0  0
  -22.4322    2.5405  -13.9866 C   0  0  0  0  0  0  0  0  0  0  0  0
  -22.0377    1.2767  -14.3334 N   0  0  0  0  0  0  0  0  0  0  0  0
  -22.8876    0.1067  -14.3105 C   0  0  0  0  0  0  0  0  0  0  0  0
  -18.9014    2.8728  -14.8838 C   0  0  0  0  0  0  0  0  0  0  0  0
  -13.7669    2.8489  -18.6881 C   0  0  0  0  0  0  0  0  0  0  0  0
  -14.2277    3.7576  -17.5472 C   0  0  0  0  0  0  0  0  0  0  0  0
  -15.0522    4.9300  -18.0787 C   0  0  0  0  0  0  0  0  0  0  0  0
 23 24  1  0  0  0
 24 25  1  0  0  0
 24  1  1  0  0  0
  1  2  1  0  0  0
  1 10  1  0  0  0
  2  3  2  0  0  0
  3 13  1  0  0  0
  3  4  1  0  0  0
 13 14  1  0  0  0
 13 22  2  0  0  0
 14 15  2  0  0  0
 15 16  1  0  0  0
 16 17  2  0  0  0
 16 20  1  0  0  0
 17 18  1  0  0  0
 17 22  1  0  0  0
 18 19  2  0  0  0
 19 20  1  0  0  0
 20 21  1  0  0  0
  4  5  1  0  0  0
  4 10  2  0  0  0
  5  6  1  0  0  0
  5  7  2  0  0  0
  6 11  1  0  0  0
  6 12  1  0  0  0
  7  8  1  0  0  0
  8  9  2  0  0  0
  9 10  1  0  0  0
M  END
> <minimizedAffinity>
-7.56203

$$$$
