CHEMBL265600


 44 50  0  0  0  0  0  0  0  0999 V2000
  -27.4260   -9.2990   -4.6261 C   0  0  0  0  0  0  0  0  0  0  0  0
  -28.3986  -10.0171   -5.3302 C   0  0  0  0  0  0  0  0  0  0  0  0
  -29.4548   -9.3885   -6.0034 C   0  0  0  0  0  0  0  0  0  0  0  0
  -29.5485   -7.9956   -5.9033 C   0  0  0  0  0  0  0  0  0  0  0  0
  -28.7174   -7.3248   -5.0502 C   0  0  0  0  0  0  0  0  0  0  0  0
  -27.6419   -7.9453   -4.3918 C   0  0  0  0  0  0  0  0  0  0  0  0
  -29.2294   -6.0584   -5.1307 C   0  0  0  0  0  0  0  0  0  0  0  0
  -29.8573   -5.6765   -3.8950 C   0  0  0  0  0  0  0  0  0  0  0  0
  -29.7795   -4.2816   -3.6966 C   0  0  0  0  0  0  0  0  0  0  0  0
  -29.1066   -3.5011   -4.6628 C   0  0  0  0  0  0  0  0  0  0  0  0
  -29.5757   -4.1966   -6.0187 C   0  0  0  0  0  0  0  0  0  0  0  0
  -30.0158   -5.6390   -6.2962 C   0  0  0  0  0  0  0  0  0  0  0  0
  -30.4046   -7.0300   -6.4806 N   0  0  0  0  0  0  0  0  0  0  0  0
  -29.7616   -3.0369   -7.0421 C   0  0  0  0  0  0  0  0  0  0  0  0
  -30.6821   -1.9346   -6.4113 C   0  0  0  0  0  0  0  0  0  0  0  0
  -29.8483   -1.2238   -5.4121 C   0  0  0  0  0  0  0  0  0  0  0  0
  -29.5697    0.0729   -5.5038 N   0  0  0  0  0  0  0  0  0  0  0  0
  -28.3392    0.1620   -4.9709 N   0  0  0  0  0  0  0  0  0  0  0  0
  -27.6391    1.4155   -5.2253 C   0  0  0  0  0  0  0  0  0  0  0  0
  -27.8862   -1.0940   -4.5298 C   0  0  0  0  0  0  0  0  0  0  0  0
  -28.9733   -1.9887   -4.6115 C   0  0  0  0  0  0  0  0  0  0  0  0
  -30.9146   -3.9207   -2.8654 C   0  0  0  0  0  0  0  0  0  0  0  0
  -31.3687   -2.8530   -2.4781 O   0  0  0  0  0  0  0  0  0  0  0  0
  -31.6164   -5.1218   -2.6686 N   0  0  0  0  0  0  0  0  0  0  0  0
  -31.0804   -6.2784   -3.3416 C   0  0  0  0  0  0  0  0  0  0  0  0
  -32.5898   -5.0685   -2.4009 H   0  0  0  0  0  0  0  0  0  0  0  0
  -24.1321  -10.8958   -4.4973 N   0  0  0  0  0  0  0  0  0  0  0  0
  -25.2712  -10.3855   -5.0971 C   0  0  0  0  0  0  0  0  0  0  0  0
  -25.4506  -10.3762   -6.3108 O   0  0  0  0  0  0  0  0  0  0  0  0
  -26.1940   -9.8713   -4.2021 N   0  0  0  0  0  0  0  0  0  0  0  0
  -24.1655  -11.1465   -3.5184 H   0  0  0  0  0  0  0  0  0  0  0  0
  -25.8250   -9.5429   -3.3204 H   0  0  0  0  0  0  0  0  0  0  0  0
  -21.9766  -12.0979   -4.5922 C   0  0  0  0  0  0  0  0  0  0  0  0
  -20.8342  -12.4655   -5.3284 C   0  0  0  0  0  0  0  0  0  0  0  0
  -20.6952  -12.1245   -6.6729 C   0  0  0  0  0  0  0  0  0  0  0  0
  -21.7037  -11.4266   -7.3077 C   0  0  0  0  0  0  0  0  0  0  0  0
  -22.8246  -11.0312   -6.5850 C   0  0  0  0  0  0  0  0  0  0  0  0
  -22.9900  -11.3502   -5.2261 C   0  0  0  0  0  0  0  0  0  0  0  0
  -21.9451  -11.4299   -2.3172 C   0  0  0  0  0  0  0  0  0  0  0  0
  -22.1703  -12.4659   -3.2781 O   0  0  0  0  0  0  0  0  0  0  0  0
  -31.4498   -7.5924   -7.4206 C   0  0  0  0  0  0  0  0  0  0  0  0
  -32.0774   -9.0802   -7.2611 C   0  0  0  0  0  0  0  0  0  0  0  0
  -33.5901   -9.1312   -7.0588 C   0  0  0  0  0  0  0  0  0  0  0  0
  -31.7927   -9.9795   -8.5016 C   0  0  0  0  0  0  0  0  0  0  0  0
 39 40  1  0  0  0
 40 33  1  0  0  0
 33 34  1  0  0  0
 33 38  2  0  0  0
 34 35  2  0  0  0
 35 36  1  0  0  0
 36 37  2  0  0  0
 37 38  1  0  0  0
 38 27  1  0  0  0
 27 28  1  0  0  0
 27 31  1  0  0  0
 28 29  2  0  0  0
 28 30  1  0  0  0
 30  1  1  0  0  0
 30 32  1  0  0  0
  1  2  1  0  0  0
  1  6  2  0  0  0
  2  3  2  0  0  0
  3  4  1  0  0  0
  4  5  2  0  0  0
  4 13  1  0  0  0
  5  6  1  0  0  0
  5  7  1  0  0  0
  7  8  1  0  0  0
  7 12  2  0  0  0
  8  9  2  0  0  0
  8 25  1  0  0  0
  9 10  1  0  0  0
  9 22  1  0  0  0
 10 11  2  0  0  0
 10 21  1  0  0  0
 11 12  1  0  0  0
 11 14  1  0  0  0
 12 13  1  0  0  0
 13 41  1  0  0  0
 41 42  1  0  0  0
 42 43  1  0  0  0
 42 44  1  0  0  0
 14 15  1  0  0  0
 15 16  1  0  0  0
 16 17  2  0  0  0
 16 21  1  0  0  0
 17 18  1  0  0  0
 18 19  1  0  0  0
 18 20  1  0  0  0
 20 21  2  0  0  0
 22 23  2  0  0  0
 22 24  1  0  0  0
 24 25  1  0  0  0
 24 26  1  0  0  0
M  END
> <minimizedAffinity>
-8.43338

$$$$
