CHEMBL3916992


 45 49  0  0  0  0  0  0  0  0999 V2000
  -26.1230   -0.8524   -9.1828 O   0  0  0  0  0  0  0  0  0  0  0  0
  -26.6518   -1.8373   -9.6786 C   0  0  0  0  0  0  0  0  0  0  0  0
  -27.6481   -2.5800   -9.0640 N   0  0  0  0  0  0  0  0  0  0  0  0
  -26.2995   -2.3581  -10.9186 N   0  0  0  0  0  0  0  0  0  0  0  0
  -27.8820   -3.4697   -9.4752 H   0  0  0  0  0  0  0  0  0  0  0  0
  -26.8556   -3.1192  -11.2744 H   0  0  0  0  0  0  0  0  0  0  0  0
  -25.2704   -1.8697  -11.7620 C   0  0  0  0  0  0  0  0  0  0  0  0
  -23.9519   -1.6749  -11.3362 C   0  0  0  0  0  0  0  0  0  0  0  0
  -22.9725   -1.1766  -12.1991 C   0  0  0  0  0  0  0  0  0  0  0  0
  -23.2687   -0.9473  -13.5420 C   0  0  0  0  0  0  0  0  0  0  0  0
  -24.5860   -1.1175  -13.9656 C   0  0  0  0  0  0  0  0  0  0  0  0
  -24.9203   -0.8602  -15.2397 F   0  0  0  0  0  0  0  0  0  0  0  0
  -25.5829   -1.5684  -13.0917 C   0  0  0  0  0  0  0  0  0  0  0  0
  -22.3315   -0.5330  -14.4671 O   0  0  0  0  0  0  0  0  0  0  0  0
  -21.9207    0.7890  -14.4504 C   0  0  0  0  0  0  0  0  0  0  0  0
  -22.6265    1.7922  -13.7925 C   0  0  0  0  0  0  0  0  0  0  0  0
  -22.1814    3.0874  -13.9321 C   0  0  0  0  0  0  0  0  0  0  0  0
  -21.0643    3.4122  -14.6017 N   0  0  0  0  0  0  0  0  0  0  0  0
  -20.3287    2.4342  -15.1566 C   0  0  0  0  0  0  0  0  0  0  0  0
  -20.7295    1.1016  -15.1065 C   0  0  0  0  0  0  0  0  0  0  0  0
  -19.1167    2.7640  -15.7864 N   0  0  0  0  0  0  0  0  0  0  0  0
  -17.8758    2.4331  -15.2798 C   0  0  0  0  0  0  0  0  0  0  0  0
  -17.6164    1.8932  -14.2126 O   0  0  0  0  0  0  0  0  0  0  0  0
  -19.1654    3.2384  -16.6732 H   0  0  0  0  0  0  0  0  0  0  0  0
  -16.7452    2.7757  -16.1998 C   0  0  0  0  0  0  0  0  0  0  0  0
  -15.3460    2.8544  -15.6280 C   0  0  0  0  0  0  0  0  0  0  0  0
  -16.0351    4.1087  -16.0769 C   0  0  0  0  0  0  0  0  0  0  0  0
  -28.2189   -2.2980   -7.7963 C   0  0  0  0  0  0  0  0  0  0  0  0
  -28.6294   -3.2929   -6.8974 C   0  0  0  0  0  0  0  0  0  0  0  0
  -29.2304   -3.0169   -5.6594 C   0  0  0  0  0  0  0  0  0  0  0  0
  -29.4141   -1.6672   -5.3451 C   0  0  0  0  0  0  0  0  0  0  0  0
  -28.9862   -0.6361   -6.2008 C   0  0  0  0  0  0  0  0  0  0  0  0
  -28.3815   -0.9635   -7.4260 C   0  0  0  0  0  0  0  0  0  0  0  0
  -29.6099   -4.0304   -4.7974 N   0  0  0  0  0  0  0  0  0  0  0  0
  -30.2953   -3.7571   -3.5339 C   0  0  0  0  0  0  0  0  0  0  0  0
  -31.6463   -4.4718   -3.5228 C   0  0  0  0  0  0  0  0  0  0  0  0
  -31.5191   -5.9563   -3.8579 C   0  0  0  0  0  0  0  0  0  0  0  0
  -30.9264   -6.6660   -2.7687 O   0  0  0  0  0  0  0  0  0  0  0  0
  -30.7304   -6.1846   -5.1462 C   0  0  0  0  0  0  0  0  0  0  0  0
  -29.3966   -5.4447   -5.1256 C   0  0  0  0  0  0  0  0  0  0  0  0
  -30.0212   -6.3400   -2.6331 H   0  0  0  0  0  0  0  0  0  0  0  0
  -29.1572    0.8059   -5.8001 C   0  0  0  0  0  0  0  0  0  0  0  0
  -28.7581    1.6943   -6.7524 F   0  0  0  0  0  0  0  0  0  0  0  0
  -30.4553    1.1140   -5.5245 F   0  0  0  0  0  0  0  0  0  0  0  0
  -28.4539    1.1218   -4.6774 F   0  0  0  0  0  0  0  0  0  0  0  0
  1  2  2  0  0  0
  2  3  1  0  0  0
  2  4  1  0  0  0
  3 28  1  0  0  0
  3  5  1  0  0  0
 28 29  1  0  0  0
 28 33  2  0  0  0
 29 30  2  0  0  0
 30 34  1  0  0  0
 30 31  1  0  0  0
 34 35  1  0  0  0
 34 40  1  0  0  0
 35 36  1  0  0  0
 36 37  1  0  0  0
 37 38  1  0  0  0
 37 39  1  0  0  0
 38 41  1  0  0  0
 39 40  1  0  0  0
 31 32  2  0  0  0
 32 42  1  0  0  0
 32 33  1  0  0  0
 42 43  1  0  0  0
 42 44  1  0  0  0
 42 45  1  0  0  0
  4  7  1  0  0  0
  4  6  1  0  0  0
  7  8  1  0  0  0
  7 13  2  0  0  0
  8  9  2  0  0  0
  9 10  1  0  0  0
 10 14  1  0  0  0
 10 11  2  0  0  0
 14 15  1  0  0  0
 15 16  1  0  0  0
 15 20  2  0  0  0
 16 17  2  0  0  0
 17 18  1  0  0  0
 18 19  2  0  0  0
 19 21  1  0  0  0
 19 20  1  0  0  0
 21 22  1  0  0  0
 21 24  1  0  0  0
 22 23  2  0  0  0
 22 25  1  0  0  0
 25 26  1  0  0  0
 25 27  1  0  0  0
 26 27  1  0  0  0
 11 12  1  0  0  0
 11 13  1  0  0  0
M  END
> <minimizedAffinity>
-13.43504

$$$$
