CHEMBL271189


 34 37  0  0  0  0  0  0  0  0999 V2000
  -29.7263   -4.0742   -5.4576 C   0  0  0  0  0  0  0  0  0  0  0  0
  -30.5689   -3.9036   -4.3489 C   0  0  0  0  0  0  0  0  0  0  0  0
  -31.3703   -4.9538   -3.9085 C   0  0  0  0  0  0  0  0  0  0  0  0
  -31.3542   -6.1734   -4.5859 C   0  0  0  0  0  0  0  0  0  0  0  0
  -30.5332   -6.3757   -5.7105 C   0  0  0  0  0  0  0  0  0  0  0  0
  -30.5553   -7.6096   -6.4026 C   0  0  0  0  0  0  0  0  0  0  0  0
  -29.7529   -7.8298   -7.5255 C   0  0  0  0  0  0  0  0  0  0  0  0
  -28.8587   -6.8369   -7.9104 C   0  0  0  0  0  0  0  0  0  0  0  0
  -28.8450   -5.6033   -7.2541 C   0  0  0  0  0  0  0  0  0  0  0  0
  -29.6875   -5.3237   -6.1525 C   0  0  0  0  0  0  0  0  0  0  0  0
  -28.2496   -2.1839   -4.9561 N   0  0  0  0  0  0  0  0  0  0  0  0
  -28.9346   -2.8898   -5.9270 C   0  0  0  0  0  0  0  0  0  0  0  0
  -28.9126   -2.5725   -7.1106 O   0  0  0  0  0  0  0  0  0  0  0  0
  -28.2499   -2.5010   -3.9963 H   0  0  0  0  0  0  0  0  0  0  0  0
  -27.4047   -1.0496   -5.2878 C   0  0  0  0  0  0  0  0  0  0  0  0
  -28.1014    0.2982   -5.1046 C   0  0  0  0  0  0  0  0  0  0  0  0
  -28.2302    1.0880   -6.4019 C   0  0  0  0  0  0  0  0  0  0  0  0
  -30.4361    1.0384   -5.5730 C   0  0  0  0  0  0  0  0  0  0  0  0
  -29.6111    1.2855   -6.7036 O   0  0  0  0  0  0  0  0  0  0  0  0
  -29.8650   -9.0528   -8.1606 O   0  0  0  0  0  0  0  0  0  0  0  0
  -28.7615   -9.5862   -8.8233 C   0  0  0  0  0  0  0  0  0  0  0  0
  -28.7182   -9.6817  -10.2085 C   0  0  0  0  0  0  0  0  0  0  0  0
  -27.5602  -10.1580  -10.7821 C   0  0  0  0  0  0  0  0  0  0  0  0
  -26.4863  -10.5759  -10.0792 N   0  0  0  0  0  0  0  0  0  0  0  0
  -26.5413  -10.5394   -8.7345 C   0  0  0  0  0  0  0  0  0  0  0  0
  -25.4321  -10.9488   -7.9930 C   0  0  0  0  0  0  0  0  0  0  0  0
  -25.3791  -10.9230   -6.5816 C   0  0  0  0  0  0  0  0  0  0  0  0
  -26.5129  -10.4842   -5.8873 C   0  0  0  0  0  0  0  0  0  0  0  0
  -27.6300  -10.0716   -6.6374 C   0  0  0  0  0  0  0  0  0  0  0  0
  -27.6696  -10.0621   -8.0465 C   0  0  0  0  0  0  0  0  0  0  0  0
  -24.1172  -11.1177   -6.0835 O   0  0  0  0  0  0  0  0  0  0  0  0
  -23.2406  -10.0013   -5.9983 C   0  0  0  0  0  0  0  0  0  0  0  0
  -26.7695  -10.3219   -4.5656 O   0  0  0  0  0  0  0  0  0  0  0  0
  -26.2799   -9.2302   -3.8195 C   0  0  0  0  0  0  0  0  0  0  0  0
 18 19  1  0  0  0
 19 17  1  0  0  0
 17 16  1  0  0  0
 16 15  1  0  0  0
 15 11  1  0  0  0
 11 12  1  0  0  0
 11 14  1  0  0  0
 12 13  2  0  0  0
 12  1  1  0  0  0
  1  2  1  0  0  0
  1 10  2  0  0  0
  2  3  2  0  0  0
  3  4  1  0  0  0
  4  5  2  0  0  0
  5  6  1  0  0  0
  5 10  1  0  0  0
  6  7  2  0  0  0
  7 20  1  0  0  0
  7  8  1  0  0  0
 20 21  1  0  0  0
 21 22  1  0  0  0
 21 30  2  0  0  0
 22 23  2  0  0  0
 23 24  1  0  0  0
 24 25  2  0  0  0
 25 26  1  0  0  0
 25 30  1  0  0  0
 26 27  2  0  0  0
 27 31  1  0  0  0
 27 28  1  0  0  0
 31 32  1  0  0  0
 28 33  1  0  0  0
 28 29  2  0  0  0
 33 34  1  0  0  0
 29 30  1  0  0  0
  8  9  2  0  0  0
  9 10  1  0  0  0
M  END
> <minimizedAffinity>
-8.32042

$$$$
