CHEMBL2018763


 32 34  0  0  0  0  0  0  0  0999 V2000
  -25.0429   -1.1034  -12.8574 C   0  0  0  0  0  0  0  0  0  0  0  0
  -26.3104   -1.5122  -13.2716 C   0  0  0  0  0  0  0  0  0  0  0  0
  -27.2841   -1.9186  -12.3471 C   0  0  0  0  0  0  0  0  0  0  0  0
  -27.0361   -1.9153  -10.9758 C   0  0  0  0  0  0  0  0  0  0  0  0
  -25.7278   -1.5871  -10.5745 C   0  0  0  0  0  0  0  0  0  0  0  0
  -24.7414   -1.1898  -11.5005 C   0  0  0  0  0  0  0  0  0  0  0  0
  -22.1265    0.4160  -14.4565 N   0  0  0  0  0  0  0  0  0  0  0  0
  -22.8626   -0.0615  -13.3830 C   0  0  0  0  0  0  0  0  0  0  0  0
  -22.4346    0.0119  -12.2377 O   0  0  0  0  0  0  0  0  0  0  0  0
  -24.0675   -0.6147  -13.7662 N   0  0  0  0  0  0  0  0  0  0  0  0
  -22.6816    0.7983  -15.2072 H   0  0  0  0  0  0  0  0  0  0  0  0
  -24.1233   -0.9337  -14.7241 H   0  0  0  0  0  0  0  0  0  0  0  0
  -20.8842    1.0991  -14.1255 C   0  0  0  0  0  0  0  0  0  0  0  0
  -19.7316    0.8413  -15.0879 C   0  0  0  0  0  0  0  0  0  0  0  0
  -19.7203    3.3592  -15.0363 C   0  0  0  0  0  0  0  0  0  0  0  0
  -18.9429    2.1109  -15.4182 C   0  0  0  0  0  0  0  0  0  0  0  0
  -27.9783   -2.3067   -9.9883 N   0  0  0  0  0  0  0  0  0  0  0  0
  -28.3359   -3.2276  -10.2114 H   0  0  0  0  0  0  0  0  0  0  0  0
  -27.9904   -2.0884   -8.5796 C   0  0  0  0  0  0  0  0  0  0  0  0
  -27.7823   -0.8466   -8.1059 N   0  0  0  0  0  0  0  0  0  0  0  0
  -27.8402   -0.6599   -6.7874 C   0  0  0  0  0  0  0  0  0  0  0  0
  -28.1093   -1.5935   -5.8764 N   0  0  0  0  0  0  0  0  0  0  0  0
  -28.3180   -2.8258   -6.3348 C   0  0  0  0  0  0  0  0  0  0  0  0
  -28.5528   -3.8130   -5.3877 C   0  0  0  0  0  0  0  0  0  0  0  0
  -28.7141   -5.1627   -5.7247 C   0  0  0  0  0  0  0  0  0  0  0  0
  -28.6787   -5.5219   -7.0757 C   0  0  0  0  0  0  0  0  0  0  0  0
  -28.4993   -4.5203   -8.0464 C   0  0  0  0  0  0  0  0  0  0  0  0
  -28.2814   -3.1605   -7.6956 C   0  0  0  0  0  0  0  0  0  0  0  0
  -28.8373   -6.1415   -4.7761 O   0  0  0  0  0  0  0  0  0  0  0  0
  -29.9965   -6.1295   -3.9511 C   0  0  0  0  0  0  0  0  0  0  0  0
  -28.7983   -6.7708   -7.6290 O   0  0  0  0  0  0  0  0  0  0  0  0
  -30.0850   -7.3732   -7.6804 C   0  0  0  0  0  0  0  0  0  0  0  0
 15 16  1  0  0  0
 16 14  1  0  0  0
 14 13  1  0  0  0
 13  7  1  0  0  0
  7  8  1  0  0  0
  7 11  1  0  0  0
  8  9  2  0  0  0
  8 10  1  0  0  0
 10  1  1  0  0  0
 10 12  1  0  0  0
  1  2  1  0  0  0
  1  6  2  0  0  0
  2  3  2  0  0  0
  3  4  1  0  0  0
  4 17  1  0  0  0
  4  5  2  0  0  0
 17 19  1  0  0  0
 17 18  1  0  0  0
 19 20  1  0  0  0
 19 28  2  0  0  0
 20 21  2  0  0  0
 21 22  1  0  0  0
 22 23  2  0  0  0
 23 24  1  0  0  0
 23 28  1  0  0  0
 24 25  2  0  0  0
 25 29  1  0  0  0
 25 26  1  0  0  0
 29 30  1  0  0  0
 26 31  1  0  0  0
 26 27  2  0  0  0
 31 32  1  0  0  0
 27 28  1  0  0  0
  5  6  1  0  0  0
M  END
> <minimizedAffinity>
-9.20212

$$$$
