CHEMBL517559


 35 38  0  0  0  0  0  0  0  0999 V2000
  -28.1916   -3.8353   -5.5769 C   0  0  0  0  0  0  0  0  0  0  0  0
  -28.2683   -4.6618   -6.6978 C   0  0  0  0  0  0  0  0  0  0  0  0
  -28.2408   -4.1283   -7.9798 C   0  0  0  0  0  0  0  0  0  0  0  0
  -28.0635   -2.7639   -8.1901 C   0  0  0  0  0  0  0  0  0  0  0  0
  -27.8479   -1.9457   -7.0699 C   0  0  0  0  0  0  0  0  0  0  0  0
  -27.8961   -2.4727   -5.7544 C   0  0  0  0  0  0  0  0  0  0  0  0
  -27.5782   -1.5830   -4.5869 C   0  0  0  0  0  0  0  0  0  0  0  0
  -28.1168   -2.1801   -9.4813 N   0  0  0  0  0  0  0  0  0  0  0  0
  -27.0142   -1.9281  -10.2855 C   0  0  0  0  0  0  0  0  0  0  0  0
  -25.8453   -2.0844   -9.9500 O   0  0  0  0  0  0  0  0  0  0  0  0
  -27.3623   -1.4275  -11.5343 N   0  0  0  0  0  0  0  0  0  0  0  0
  -29.0296   -2.0036   -9.8711 H   0  0  0  0  0  0  0  0  0  0  0  0
  -28.1721   -0.8274  -11.5401 H   0  0  0  0  0  0  0  0  0  0  0  0
  -26.3362   -1.1074  -12.4615 C   0  0  0  0  0  0  0  0  0  0  0  0
  -26.3212   -1.6382  -13.7545 C   0  0  0  0  0  0  0  0  0  0  0  0
  -25.2425   -1.3978  -14.6086 C   0  0  0  0  0  0  0  0  0  0  0  0
  -24.1674   -0.6347  -14.1673 C   0  0  0  0  0  0  0  0  0  0  0  0
  -24.1887   -0.0789  -12.8874 C   0  0  0  0  0  0  0  0  0  0  0  0
  -25.2842   -0.2886  -12.0430 C   0  0  0  0  0  0  0  0  0  0  0  0
  -28.4016   -4.3468   -4.3030 O   0  0  0  0  0  0  0  0  0  0  0  0
  -30.3616   -5.7744   -4.2071 C   0  0  0  0  0  0  0  0  0  0  0  0
  -31.7485   -5.8259   -3.9364 C   0  0  0  0  0  0  0  0  0  0  0  0
  -32.4317   -4.7362   -3.4042 C   0  0  0  0  0  0  0  0  0  0  0  0
  -31.7027   -3.6074   -3.1085 C   0  0  0  0  0  0  0  0  0  0  0  0
  -30.3809   -3.5021   -3.3392 N   0  0  0  0  0  0  0  0  0  0  0  0
  -29.7388   -4.5512   -3.9320 C   0  0  0  0  0  0  0  0  0  0  0  0
  -28.0245   -8.5351   -4.2289 C   0  0  0  0  0  0  0  0  0  0  0  0
  -28.2620   -9.2208   -5.3498 N   0  0  0  0  0  0  0  0  0  0  0  0
  -29.2243   -8.7432   -6.1605 C   0  0  0  0  0  0  0  0  0  0  0  0
  -29.9772   -7.6267   -5.8835 C   0  0  0  0  0  0  0  0  0  0  0  0
  -29.6884   -6.9889   -4.6983 C   0  0  0  0  0  0  0  0  0  0  0  0
  -28.7227   -7.4539   -3.8669 N   0  0  0  0  0  0  0  0  0  0  0  0
  -25.6668   -9.0462   -4.0749 C   0  0  0  0  0  0  0  0  0  0  0  0
  -26.9666   -8.9719   -3.4576 N   0  0  0  0  0  0  0  0  0  0  0  0
  -27.0387   -8.5778   -2.5294 H   0  0  0  0  0  0  0  0  0  0  0  0
 33 34  1  0  0  0
 34 27  1  0  0  0
 34 35  1  0  0  0
 27 28  1  0  0  0
 27 32  2  0  0  0
 28 29  2  0  0  0
 29 30  1  0  0  0
 30 31  2  0  0  0
 31 21  1  0  0  0
 31 32  1  0  0  0
 21 22  1  0  0  0
 21 26  2  0  0  0
 22 23  2  0  0  0
 23 24  1  0  0  0
 24 25  2  0  0  0
 25 26  1  0  0  0
 26 20  1  0  0  0
 20  1  1  0  0  0
  1  2  1  0  0  0
  1  6  2  0  0  0
  2  3  2  0  0  0
  3  4  1  0  0  0
  4  8  1  0  0  0
  4  5  2  0  0  0
  8  9  1  0  0  0
  8 12  1  0  0  0
  9 10  2  0  0  0
  9 11  1  0  0  0
 11 14  1  0  0  0
 11 13  1  0  0  0
 14 15  1  0  0  0
 14 19  2  0  0  0
 15 16  2  0  0  0
 16 17  1  0  0  0
 17 18  2  0  0  0
 18 19  1  0  0  0
  5  6  1  0  0  0
  6  7  1  0  0  0
M  END
> <minimizedAffinity>
-9.85971

$$$$
