CHEMBL518652


 29 32  0  0  0  0  0  0  0  0999 V2000
  -28.9117   -8.2348   -7.5039 C   0  0  0  0  0  0  0  0  0  0  0  0
  -28.2525   -8.7405   -8.6452 C   0  0  0  0  0  0  0  0  0  0  0  0
  -27.8537  -10.0716   -8.7201 C   0  0  0  0  0  0  0  0  0  0  0  0
  -28.1221  -10.9218   -7.6622 C   0  0  0  0  0  0  0  0  0  0  0  0
  -28.7859  -10.4407   -6.5279 C   0  0  0  0  0  0  0  0  0  0  0  0
  -29.1605   -9.0876   -6.3934 C   0  0  0  0  0  0  0  0  0  0  0  0
  -29.2163   -4.6455   -7.5722 N   0  0  0  0  0  0  0  0  0  0  0  0
  -28.4079   -5.7558   -7.5962 C   0  0  0  0  0  0  0  0  0  0  0  0
  -29.2670   -6.8256   -7.5436 C   0  0  0  0  0  0  0  0  0  0  0  0
  -30.5511   -6.3576   -7.4516 N   0  0  0  0  0  0  0  0  0  0  0  0
  -30.5110   -5.0312   -7.4651 N   0  0  0  0  0  0  0  0  0  0  0  0
  -28.7911   -1.1066   -6.5123 C   0  0  0  0  0  0  0  0  0  0  0  0
  -27.8738   -0.6666   -7.4793 C   0  0  0  0  0  0  0  0  0  0  0  0
  -27.4523   -1.5144   -8.5022 C   0  0  0  0  0  0  0  0  0  0  0  0
  -27.9150   -2.8264   -8.5559 C   0  0  0  0  0  0  0  0  0  0  0  0
  -28.8230   -3.2867   -7.5932 C   0  0  0  0  0  0  0  0  0  0  0  0
  -29.2944   -2.4138   -6.6025 C   0  0  0  0  0  0  0  0  0  0  0  0
  -27.8959    0.4664   -4.7984 C   0  0  0  0  0  0  0  0  0  0  0  0
  -29.1492   -0.2507   -5.3109 C   0  0  0  0  0  0  0  0  0  0  0  0
  -30.2741    0.7451   -5.6007 C   0  0  0  0  0  0  0  0  0  0  0  0
  -29.8679   -8.6502   -5.2453 N   0  0  0  0  0  0  0  0  0  0  0  0
  -30.6711   -8.0862   -5.5123 H   0  0  0  0  0  0  0  0  0  0  0  0
  -29.1136   -7.9831   -4.1894 C   0  0  0  0  0  0  0  0  0  0  0  0
  -29.5580   -6.5489   -4.0354 C   0  0  0  0  0  0  0  0  0  0  0  0
  -30.9175   -6.2245   -3.9719 C   0  0  0  0  0  0  0  0  0  0  0  0
  -31.2812   -4.9068   -3.7432 C   0  0  0  0  0  0  0  0  0  0  0  0
  -30.3956   -3.8993   -3.5949 N   0  0  0  0  0  0  0  0  0  0  0  0
  -29.0882   -4.2242   -3.6879 C   0  0  0  0  0  0  0  0  0  0  0  0
  -28.6255   -5.5128   -3.9121 C   0  0  0  0  0  0  0  0  0  0  0  0
 18 19  1  0  0  0
 19 20  1  0  0  0
 19 12  1  0  0  0
 12 13  1  0  0  0
 12 17  2  0  0  0
 13 14  2  0  0  0
 14 15  1  0  0  0
 15 16  2  0  0  0
 16  7  1  0  0  0
 16 17  1  0  0  0
  7  8  1  0  0  0
  7 11  1  0  0  0
  8  9  2  0  0  0
  9  1  1  0  0  0
  9 10  1  0  0  0
  1  2  1  0  0  0
  1  6  2  0  0  0
  2  3  2  0  0  0
  3  4  1  0  0  0
  4  5  2  0  0  0
  5  6  1  0  0  0
  6 21  1  0  0  0
 21 23  1  0  0  0
 21 22  1  0  0  0
 23 24  1  0  0  0
 24 25  1  0  0  0
 24 29  2  0  0  0
 25 26  2  0  0  0
 26 27  1  0  0  0
 27 28  2  0  0  0
 28 29  1  0  0  0
 10 11  2  0  0  0
M  END
> <minimizedAffinity>
-8.33706

$$$$
