CHEMBL3819410


 32 35  0  0  0  0  0  0  0  0999 V2000
  -15.1439   -0.8075  -13.3784 C   0  0  0  0  0  0  0  0  0  0  0  0
  -13.9030   -0.9085  -13.8619 N   0  0  0  0  0  0  0  0  0  0  0  0
  -13.5632   -0.1555  -14.9214 C   0  0  0  0  0  0  0  0  0  0  0  0
  -14.4307    0.7155  -15.5209 C   0  0  0  0  0  0  0  0  0  0  0  0
  -15.6985    0.7542  -14.9816 C   0  0  0  0  0  0  0  0  0  0  0  0
  -16.0717   -0.0009  -13.9139 N   0  0  0  0  0  0  0  0  0  0  0  0
  -16.6232    1.7183  -15.4956 N   0  0  0  0  0  0  0  0  0  0  0  0
  -16.1909    2.9038  -16.0185 N   0  0  0  0  0  0  0  0  0  0  0  0
  -17.2522    3.7034  -15.9061 C   0  0  0  0  0  0  0  0  0  0  0  0
  -18.4018    3.0211  -15.4554 C   0  0  0  0  0  0  0  0  0  0  0  0
  -19.7149    3.3747  -15.1043 C   0  0  0  0  0  0  0  0  0  0  0  0
  -20.6038    2.3433  -14.7528 C   0  0  0  0  0  0  0  0  0  0  0  0
  -20.2359    0.9951  -14.8441 C   0  0  0  0  0  0  0  0  0  0  0  0
  -18.9204    0.6436  -15.1547 C   0  0  0  0  0  0  0  0  0  0  0  0
  -18.0084    1.6872  -15.3854 C   0  0  0  0  0  0  0  0  0  0  0  0
  -21.9284    2.6896  -14.2220 N   0  0  0  0  0  0  0  0  0  0  0  0
  -22.7375    1.7656  -14.0514 O   0  0  0  0  0  0  0  0  0  0  0  0
  -22.1686    3.8843  -14.0032 O   0  0  0  0  0  0  0  0  0  0  0  0
  -15.5163   -1.5713  -12.2697 N   0  0  0  0  0  0  0  0  0  0  0  0
  -15.4735   -1.0114  -11.4295 H   0  0  0  0  0  0  0  0  0  0  0  0
  -15.3361   -5.2513  -12.9144 C   0  0  0  0  0  0  0  0  0  0  0  0
  -15.5044   -3.8736  -13.1140 C   0  0  0  0  0  0  0  0  0  0  0  0
  -15.2872   -2.9461  -12.0877 C   0  0  0  0  0  0  0  0  0  0  0  0
  -14.8141   -3.4036  -10.8607 C   0  0  0  0  0  0  0  0  0  0  0  0
  -14.6640   -4.7765  -10.6230 C   0  0  0  0  0  0  0  0  0  0  0  0
  -14.8972   -5.7074  -11.6582 C   0  0  0  0  0  0  0  0  0  0  0  0
  -14.6646   -6.3474  -14.9325 C   0  0  0  0  0  0  0  0  0  0  0  0
  -15.6140   -6.1785  -13.8864 O   0  0  0  0  0  0  0  0  0  0  0  0
  -14.2545   -5.2755   -9.4087 O   0  0  0  0  0  0  0  0  0  0  0  0
  -13.0211   -4.7518   -8.9234 C   0  0  0  0  0  0  0  0  0  0  0  0
  -14.7553   -7.0290  -11.2960 O   0  0  0  0  0  0  0  0  0  0  0  0
  -13.5267   -7.6565  -11.6360 C   0  0  0  0  0  0  0  0  0  0  0  0
 27 28  1  0  0  0
 28 21  1  0  0  0
 21 22  1  0  0  0
 21 26  2  0  0  0
 22 23  2  0  0  0
 23 19  1  0  0  0
 23 24  1  0  0  0
 19  1  1  0  0  0
 19 20  1  0  0  0
  1  2  1  0  0  0
  1  6  2  0  0  0
  2  3  2  0  0  0
  3  4  1  0  0  0
  4  5  2  0  0  0
  5  7  1  0  0  0
  5  6  1  0  0  0
  7  8  1  0  0  0
  7 15  1  0  0  0
  8  9  2  0  0  0
  9 10  1  0  0  0
 10 11  1  0  0  0
 10 15  2  0  0  0
 11 12  2  0  0  0
 12 16  1  0  0  0
 12 13  1  0  0  0
 16 17  2  0  0  0
 16 18  1  0  0  0
 13 14  2  0  0  0
 14 15  1  0  0  0
 24 25  2  0  0  0
 25 29  1  0  0  0
 25 26  1  0  0  0
 29 30  1  0  0  0
 26 31  1  0  0  0
 31 32  1  0  0  0
M  CHG 1  16   1
M  CHG 1  18  -1
M  END
> <minimizedAffinity>
-8.59114

$$$$
