CHEMBL188431


 45 48  0  0  0  0  0  0  0  0999 V2000
  -11.3028   -3.0746  -12.4516 C   0  0  0  0  0  0  0  0  0  0  0  0
  -11.2031   -1.5462  -12.4466 C   0  0  0  0  0  0  0  0  0  0  0  0
  -11.9683   -0.8738  -13.5348 C   0  0  0  0  0  0  0  0  0  0  0  0
  -12.0558    0.5118  -13.5551 C   0  0  0  0  0  0  0  0  0  0  0  0
  -12.6638    1.2153  -14.5321 N   0  0  0  0  0  0  0  0  0  0  0  0
  -13.2487    0.5407  -15.5371 C   0  0  0  0  0  0  0  0  0  0  0  0
  -13.2146   -0.8545  -15.5809 C   0  0  0  0  0  0  0  0  0  0  0  0
  -12.5576   -1.5863  -14.5653 C   0  0  0  0  0  0  0  0  0  0  0  0
  -12.4780   -3.0021  -14.6648 N   0  0  0  0  0  0  0  0  0  0  0  0
  -11.8683   -3.6793  -13.7426 C   0  0  0  0  0  0  0  0  0  0  0  0
  -14.2548   -3.7479  -10.1359 C   0  0  0  0  0  0  0  0  0  0  0  0
  -13.6708   -4.5696   -9.1713 C   0  0  0  0  0  0  0  0  0  0  0  0
  -12.3088   -4.8717   -9.2249 C   0  0  0  0  0  0  0  0  0  0  0  0
  -11.5235   -4.3246  -10.2373 C   0  0  0  0  0  0  0  0  0  0  0  0
  -12.1027   -3.5306  -11.2382 C   0  0  0  0  0  0  0  0  0  0  0  0
  -13.4696   -3.2328  -11.1628 C   0  0  0  0  0  0  0  0  0  0  0  0
  -16.2781   -3.8196  -11.3642 C   0  0  0  0  0  0  0  0  0  0  0  0
  -15.5772   -3.4036  -10.2002 O   0  0  0  0  0  0  0  0  0  0  0  0
  -11.6476   -5.7133   -8.3707 O   0  0  0  0  0  0  0  0  0  0  0  0
  -11.1126   -5.1217   -7.1922 C   0  0  0  0  0  0  0  0  0  0  0  0
  -11.7639   -5.0644  -13.9150 N   0  0  0  0  0  0  0  0  0  0  0  0
  -12.7830   -5.9832  -13.7026 C   0  0  0  0  0  0  0  0  0  0  0  0
  -13.8702   -5.6727  -13.2416 O   0  0  0  0  0  0  0  0  0  0  0  0
  -12.4768   -7.2963  -13.9795 N   0  0  0  0  0  0  0  0  0  0  0  0
  -10.8208   -5.4165  -13.8871 H   0  0  0  0  0  0  0  0  0  0  0  0
  -11.6179   -7.5165  -14.4598 H   0  0  0  0  0  0  0  0  0  0  0  0
  -13.4656   -8.3886  -13.7512 C   0  0  0  0  0  0  0  0  0  0  0  0
  -14.9136   -7.9303  -14.0318 C   0  0  0  0  0  0  0  0  0  0  0  0
  -13.1657   -9.5757  -14.6876 C   0  0  0  0  0  0  0  0  0  0  0  0
  -13.3811   -8.9171  -12.3030 C   0  0  0  0  0  0  0  0  0  0  0  0
  -13.8257    1.2919  -16.6000 N   0  0  0  0  0  0  0  0  0  0  0  0
  -13.1158    1.7947  -17.6910 C   0  0  0  0  0  0  0  0  0  0  0  0
  -11.6231    1.6314  -17.8137 C   0  0  0  0  0  0  0  0  0  0  0  0
  -13.6923    2.3714  -18.6250 O   0  0  0  0  0  0  0  0  0  0  0  0
  -15.2921    1.3585  -16.7634 C   0  0  0  0  0  0  0  0  0  0  0  0
  -16.1795    1.6653  -15.5549 C   0  0  0  0  0  0  0  0  0  0  0  0
  -17.1495    2.8228  -15.8108 C   0  0  0  0  0  0  0  0  0  0  0  0
  -18.1652    2.8103  -14.8109 O   0  0  0  0  0  0  0  0  0  0  0  0
  -19.4224    3.2710  -15.3040 C   0  0  0  0  0  0  0  0  0  0  0  0
  -20.5656    2.4162  -14.8065 C   0  0  0  0  0  0  0  0  0  0  0  0
  -20.5227    1.0148  -14.8063 C   0  0  0  0  0  0  0  0  0  0  0  0
  -21.5990    0.2687  -14.3168 C   0  0  0  0  0  0  0  0  0  0  0  0
  -22.7306    0.9141  -13.8231 C   0  0  0  0  0  0  0  0  0  0  0  0
  -22.7909    2.3058  -13.8241 C   0  0  0  0  0  0  0  0  0  0  0  0
  -21.7186    3.0508  -14.3137 C   0  0  0  0  0  0  0  0  0  0  0  0
 17 18  1  0  0  0
 18 11  1  0  0  0
 11 12  1  0  0  0
 11 16  2  0  0  0
 12 13  2  0  0  0
 13 19  1  0  0  0
 13 14  1  0  0  0
 19 20  1  0  0  0
 14 15  2  0  0  0
 15  1  1  0  0  0
 15 16  1  0  0  0
  1  2  1  0  0  0
  1 10  1  0  0  0
  2  3  1  0  0  0
  3  4  1  0  0  0
  3  8  2  0  0  0
  4  5  2  0  0  0
  5  6  1  0  0  0
  6 31  1  0  0  0
  6  7  2  0  0  0
 31 35  1  0  0  0
 31 32  1  0  0  0
 35 36  1  0  0  0
 36 37  1  0  0  0
 37 38  1  0  0  0
 38 39  1  0  0  0
 39 40  1  0  0  0
 40 41  1  0  0  0
 40 45  2  0  0  0
 41 42  2  0  0  0
 42 43  1  0  0  0
 43 44  2  0  0  0
 44 45  1  0  0  0
 32 33  1  0  0  0
 32 34  2  0  0  0
  7  8  1  0  0  0
  8  9  1  0  0  0
  9 10  2  0  0  0
 10 21  1  0  0  0
 21 22  1  0  0  0
 21 25  1  0  0  0
 22 23  2  0  0  0
 22 24  1  0  0  0
 24 27  1  0  0  0
 24 26  1  0  0  0
 27 28  1  0  0  0
 27 29  1  0  0  0
 27 30  1  0  0  0
M  END
> <minimizedAffinity>
-7.95616

$$$$
