CHEMBL3984623


 42 47  0  0  0  0  0  0  0  0999 V2000
  -21.2957    2.2318  -14.2446 N   0  0  0  0  0  0  0  0  0  0  0  0
  -21.6837    3.5122  -13.6227 C   0  0  0  0  0  0  0  0  0  0  0  0
  -22.1737    1.1438  -13.9520 C   0  0  0  0  0  0  0  0  0  0  0  0
  -22.8842    0.4512  -14.9572 C   0  0  0  0  0  0  0  0  0  0  0  0
  -23.7793   -0.6159  -14.6726 C   0  0  0  0  0  0  0  0  0  0  0  0
  -23.8341   -1.1026  -13.3536 C   0  0  0  0  0  0  0  0  0  0  0  0
  -24.5476   -2.0435  -12.5226 C   0  0  0  0  0  0  0  0  0  0  0  0
  -23.6205   -2.5603  -11.6847 N   0  0  0  0  0  0  0  0  0  0  0  0
  -22.8710   -1.4668  -11.4350 N   0  0  0  0  0  0  0  0  0  0  0  0
  -22.9575   -0.5380  -12.4377 C   0  0  0  0  0  0  0  0  0  0  0  0
  -22.2837    0.6627  -12.6373 C   0  0  0  0  0  0  0  0  0  0  0  0
  -22.2422   -1.4760  -10.6418 H   0  0  0  0  0  0  0  0  0  0  0  0
  -25.8192   -1.7800  -11.8452 C   0  0  0  0  0  0  0  0  0  0  0  0
  -25.9542   -1.2987  -10.6010 C   0  0  0  0  0  0  0  0  0  0  0  0
  -26.9710   -1.7801   -9.6267 C   0  0  0  0  0  0  0  0  0  0  0  0
  -27.3662   -3.1410   -9.5053 C   0  0  0  0  0  0  0  0  0  0  0  0
  -28.0625   -3.5988   -8.3748 C   0  0  0  0  0  0  0  0  0  0  0  0
  -28.3701   -2.6891   -7.3914 C   0  0  0  0  0  0  0  0  0  0  0  0
  -28.0186   -1.3675   -7.5129 C   0  0  0  0  0  0  0  0  0  0  0  0
  -27.3383   -0.8840   -8.6118 C   0  0  0  0  0  0  0  0  0  0  0  0
  -28.3521   -0.6344   -6.4170 O   0  0  0  0  0  0  0  0  0  0  0  0
  -28.9239   -1.6547   -5.5753 C   0  0  0  0  0  0  0  0  0  0  0  0
  -28.9692   -2.9559   -6.1998 O   0  0  0  0  0  0  0  0  0  0  0  0
  -17.8377    0.9526  -14.9429 C   0  0  0  0  0  0  0  0  0  0  0  0
  -17.3432    1.9702  -15.7541 C   0  0  0  0  0  0  0  0  0  0  0  0
  -18.1167    3.0915  -16.0288 C   0  0  0  0  0  0  0  0  0  0  0  0
  -19.4031    3.1931  -15.5037 C   0  0  0  0  0  0  0  0  0  0  0  0
  -19.9669    2.1624  -14.7363 C   0  0  0  0  0  0  0  0  0  0  0  0
  -19.1637    1.0348  -14.4769 C   0  0  0  0  0  0  0  0  0  0  0  0
  -16.0310   -0.1794  -13.6615 C   0  0  0  0  0  0  0  0  0  0  0  0
  -15.6449    0.7639  -12.9805 O   0  0  0  0  0  0  0  0  0  0  0  0
  -17.0722   -0.1771  -14.5776 N   0  0  0  0  0  0  0  0  0  0  0  0
  -17.4052   -1.0686  -14.9165 H   0  0  0  0  0  0  0  0  0  0  0  0
  -15.2674   -3.7020  -12.4513 C   0  0  0  0  0  0  0  0  0  0  0  0
  -14.0859   -3.9657  -13.1555 C   0  0  0  0  0  0  0  0  0  0  0  0
  -13.5458   -2.9977  -14.0018 C   0  0  0  0  0  0  0  0  0  0  0  0
  -14.1828   -1.7657  -14.1435 C   0  0  0  0  0  0  0  0  0  0  0  0
  -15.3646   -1.4914  -13.4419 C   0  0  0  0  0  0  0  0  0  0  0  0
  -15.9139   -2.4653  -12.6051 C   0  0  0  0  0  0  0  0  0  0  0  0
  -16.9998   -5.5820  -12.0728 C   0  0  0  0  0  0  0  0  0  0  0  0
  -15.8920   -4.7080  -11.5459 C   0  0  0  0  0  0  0  0  0  0  0  0
  -15.4912   -4.8108  -10.3891 O   0  0  0  0  0  0  0  0  0  0  0  0
 40 41  1  0  0  0
 41 42  2  0  0  0
 41 34  1  0  0  0
 34 35  1  0  0  0
 34 39  2  0  0  0
 35 36  2  0  0  0
 36 37  1  0  0  0
 37 38  2  0  0  0
 38 30  1  0  0  0
 38 39  1  0  0  0
 30 31  2  0  0  0
 30 32  1  0  0  0
 32 24  1  0  0  0
 32 33  1  0  0  0
 24 25  1  0  0  0
 24 29  2  0  0  0
 25 26  2  0  0  0
 26 27  1  0  0  0
 27 28  2  0  0  0
 28  1  1  0  0  0
 28 29  1  0  0  0
  1  2  1  0  0  0
  1  3  1  0  0  0
  3  4  1  0  0  0
  3 11  2  0  0  0
  4  5  2  0  0  0
  5  6  1  0  0  0
  6  7  1  0  0  0
  6 10  2  0  0  0
  7 13  1  0  0  0
  7  8  2  0  0  0
 13 14  2  0  0  0
 14 15  1  0  0  0
 15 16  1  0  0  0
 15 20  2  0  0  0
 16 17  2  0  0  0
 17 18  1  0  0  0
 18 19  2  0  0  0
 18 23  1  0  0  0
 19 20  1  0  0  0
 19 21  1  0  0  0
 21 22  1  0  0  0
 22 23  1  0  0  0
  8  9  1  0  0  0
  9 10  1  0  0  0
  9 12  1  0  0  0
 10 11  1  0  0  0
M  END
> <minimizedAffinity>
-10.75142

$$$$
