CHEMBL3644023


 32 33  0  0  0  0  0  0  0  0999 V2000
  -18.4126    2.7393  -15.1428 C   0  0  0  0  0  0  0  0  0  0  0  0
  -17.8797    3.7394  -15.8474 N   0  0  0  0  0  0  0  0  0  0  0  0
  -16.6489    3.5279  -16.3657 C   0  0  0  0  0  0  0  0  0  0  0  0
  -15.9255    2.3594  -16.2228 C   0  0  0  0  0  0  0  0  0  0  0  0
  -16.5408    1.3983  -15.4686 C   0  0  0  0  0  0  0  0  0  0  0  0
  -17.7629    1.5895  -14.9472 N   0  0  0  0  0  0  0  0  0  0  0  0
  -14.6061    2.1900  -16.8693 C   0  0  0  0  0  0  0  0  0  0  0  0
  -13.5733    2.2366  -15.9749 F   0  0  0  0  0  0  0  0  0  0  0  0
  -14.4634    1.0040  -17.5184 F   0  0  0  0  0  0  0  0  0  0  0  0
  -14.3305    3.1631  -17.7806 F   0  0  0  0  0  0  0  0  0  0  0  0
  -19.6734    2.9498  -14.5731 N   0  0  0  0  0  0  0  0  0  0  0  0
  -19.6001    3.6876  -13.8871 H   0  0  0  0  0  0  0  0  0  0  0  0
  -22.8145    0.2163  -13.8789 C   0  0  0  0  0  0  0  0  0  0  0  0
  -22.9990    1.5744  -13.6209 C   0  0  0  0  0  0  0  0  0  0  0  0
  -21.9625    2.4827  -13.8930 C   0  0  0  0  0  0  0  0  0  0  0  0
  -20.7376    2.0450  -14.4113 C   0  0  0  0  0  0  0  0  0  0  0  0
  -20.6398    0.6906  -14.7518 C   0  0  0  0  0  0  0  0  0  0  0  0
  -21.6371   -0.2324  -14.4557 C   0  0  0  0  0  0  0  0  0  0  0  0
  -24.0657   -0.9800  -13.4835 S   0  0  0  0  0  0  0  0  0  0  0  0
  -23.3894   -2.1437  -12.9347 O   0  0  0  0  0  0  0  0  0  0  0  0
  -24.8995   -1.0933  -14.6715 O   0  0  0  0  0  0  0  0  0  0  0  0
  -24.9927   -0.1734  -12.1786 C   0  0  0  0  0  0  0  0  0  0  0  0
  -27.1395   -1.3988  -11.7166 C   0  0  0  0  0  0  0  0  0  0  0  0
  -25.8384   -1.1876  -11.4681 C   0  0  0  0  0  0  0  0  0  0  0  0
  -15.9080    0.1880  -15.1960 O   0  0  0  0  0  0  0  0  0  0  0  0
  -15.6630   -0.0265  -13.7729 C   0  0  0  0  0  0  0  0  0  0  0  0
  -14.5083    0.8690  -13.2952 C   0  0  0  0  0  0  0  0  0  0  0  0
  -15.4256   -1.5307  -13.4303 C   0  0  0  0  0  0  0  0  0  0  0  0
  -14.0295   -2.0406  -13.7841 C   0  0  0  0  0  0  0  0  0  0  0  0
  -15.7127   -1.7930  -11.9403 C   0  0  0  0  0  0  0  0  0  0  0  0
  -16.3753   -2.3217  -14.1624 O   0  0  0  0  0  0  0  0  0  0  0  0
  -16.1627   -2.2210  -15.1076 H   0  0  0  0  0  0  0  0  0  0  0  0
 23 24  2  0  0  0
 24 22  1  0  0  0
 22 19  1  0  0  0
 19 20  2  0  0  0
 19 21  2  0  0  0
 19 13  1  0  0  0
 13 14  1  0  0  0
 13 18  2  0  0  0
 14 15  2  0  0  0
 15 16  1  0  0  0
 16 11  1  0  0  0
 16 17  2  0  0  0
 11  1  1  0  0  0
 11 12  1  0  0  0
  1  2  1  0  0  0
  1  6  2  0  0  0
  2  3  2  0  0  0
  3  4  1  0  0  0
  4  7  1  0  0  0
  4  5  2  0  0  0
  7  8  1  0  0  0
  7  9  1  0  0  0
  7 10  1  0  0  0
  5 25  1  0  0  0
  5  6  1  0  0  0
 26 28  1  0  0  0
 26 27  1  0  0  0
 26 25  1  0  0  0
 28 29  1  0  0  0
 28 30  1  0  0  0
 28 31  1  0  0  0
 31 32  1  0  0  0
 17 18  1  0  0  0
M  END
> <minimizedAffinity>
-7.75422

$$$$
