CHEMBL3921190


 41 45  0  0  0  0  0  0  0  0999 V2000
  -13.8874    1.4239  -16.0888 N   0  0  0  0  0  0  0  0  0  0  0  0
  -13.3369    0.3616  -15.2898 C   0  0  0  0  0  0  0  0  0  0  0  0
  -12.3684   -0.4025  -15.9338 C   0  0  0  0  0  0  0  0  0  0  0  0
  -12.1999   -1.7229  -15.5927 C   0  0  0  0  0  0  0  0  0  0  0  0
  -12.8421   -2.2774  -14.5089 C   0  0  0  0  0  0  0  0  0  0  0  0
  -12.7194   -3.6036  -14.4551 N   0  0  0  0  0  0  0  0  0  0  0  0
  -13.1432   -4.1930  -13.3333 C   0  0  0  0  0  0  0  0  0  0  0  0
  -13.5994   -3.4673  -12.2481 C   0  0  0  0  0  0  0  0  0  0  0  0
  -13.8486   -2.1160  -12.3542 N   0  0  0  0  0  0  0  0  0  0  0  0
  -13.5300   -1.4795  -13.5718 C   0  0  0  0  0  0  0  0  0  0  0  0
  -13.8278   -0.1346  -14.0446 C   0  0  0  0  0  0  0  0  0  0  0  0
  -13.6357   -4.2223  -10.9915 C   0  0  0  0  0  0  0  0  0  0  0  0
  -14.7563   -4.7240  -10.2699 C   0  0  0  0  0  0  0  0  0  0  0  0
  -14.4638   -5.0594   -9.0049 N   0  0  0  0  0  0  0  0  0  0  0  0
  -13.1608   -4.7534   -8.8929 N   0  0  0  0  0  0  0  0  0  0  0  0
  -12.4105   -5.1401   -7.7195 C   0  0  0  0  0  0  0  0  0  0  0  0
  -12.6672   -4.1208  -10.0014 C   0  0  0  0  0  0  0  0  0  0  0  0
  -12.5188    4.8529  -15.3073 C   0  0  0  0  0  0  0  0  0  0  0  0
  -12.9746    5.5757  -16.3945 C   0  0  0  0  0  0  0  0  0  0  0  0
  -13.8180    4.9661  -17.3236 C   0  0  0  0  0  0  0  0  0  0  0  0
  -14.1606    3.6069  -17.1904 C   0  0  0  0  0  0  0  0  0  0  0  0
  -13.6548    2.8246  -16.1505 C   0  0  0  0  0  0  0  0  0  0  0  0
  -12.9145    3.5205  -15.1559 C   0  0  0  0  0  0  0  0  0  0  0  0
  -11.0481    4.3785  -13.5505 C   0  0  0  0  0  0  0  0  0  0  0  0
  -11.6986    5.3775  -14.3406 O   0  0  0  0  0  0  0  0  0  0  0  0
  -14.3512    5.6059  -18.4135 O   0  0  0  0  0  0  0  0  0  0  0  0
  -15.2577    4.8403  -19.2029 C   0  0  0  0  0  0  0  0  0  0  0  0
  -15.1024    0.9284  -16.8095 C   0  0  0  0  0  0  0  0  0  0  0  0
  -16.3333    1.3536  -16.1107 C   0  0  0  0  0  0  0  0  0  0  0  0
  -17.3854    1.6766  -15.6156 C   0  0  0  0  0  0  0  0  0  0  0  0
  -18.6799    2.0139  -15.1505 C   0  0  0  0  0  0  0  0  0  0  0  0
  -19.5917    1.0579  -14.7316 C   0  0  0  0  0  0  0  0  0  0  0  0
  -20.8664    1.4878  -14.3605 C   0  0  0  0  0  0  0  0  0  0  0  0
  -21.1751    2.8456  -14.3894 C   0  0  0  0  0  0  0  0  0  0  0  0
  -20.1927    3.7188  -14.8050 C   0  0  0  0  0  0  0  0  0  0  0  0
  -18.9538    3.3347  -15.1902 N   0  0  0  0  0  0  0  0  0  0  0  0
  -21.8575    0.4474  -13.9354 C   0  0  0  0  0  0  0  0  0  0  0  0
  -22.0844    0.2621  -12.5985 N   0  0  0  0  0  0  0  0  0  0  0  0
  -22.4701   -0.2124  -14.7588 O   0  0  0  0  0  0  0  0  0  0  0  0
  -21.6727    0.7954  -11.8496 H   0  0  0  0  0  0  0  0  0  0  0  0
  -22.7973   -0.4132  -12.3535 H   0  0  0  0  0  0  0  0  0  0  0  0
 24 25  1  0  0  0
 25 18  1  0  0  0
 18 19  1  0  0  0
 18 23  2  0  0  0
 19 20  2  0  0  0
 20 26  1  0  0  0
 20 21  1  0  0  0
 26 27  1  0  0  0
 21 22  2  0  0  0
 22  1  1  0  0  0
 22 23  1  0  0  0
  1 28  1  0  0  0
  1  2  1  0  0  0
 28 29  1  0  0  0
 29 30  3  0  0  0
 30 31  1  0  0  0
 31 32  1  0  0  0
 31 36  2  0  0  0
 32 33  2  0  0  0
 33 37  1  0  0  0
 33 34  1  0  0  0
 37 38  1  0  0  0
 37 39  2  0  0  0
 38 40  1  0  0  0
 38 41  1  0  0  0
 34 35  2  0  0  0
 35 36  1  0  0  0
  2  3  1  0  0  0
  2 11  2  0  0  0
  3  4  2  0  0  0
  4  5  1  0  0  0
  5  6  1  0  0  0
  5 10  2  0  0  0
  6  7  2  0  0  0
  7  8  1  0  0  0
  8 12  1  0  0  0
  8  9  2  0  0  0
 12 13  1  0  0  0
 12 17  2  0  0  0
 13 14  2  0  0  0
 14 15  1  0  0  0
 15 16  1  0  0  0
 15 17  1  0  0  0
  9 10  1  0  0  0
 10 11  1  0  0  0
M  END
> <minimizedAffinity>
-7.97389

$$$$
