CHEMBL78160


 27 30  0  0  0  0  0  0  0  0999 V2000
  -14.4709    1.9819  -15.6987 C   0  0  0  0  0  0  0  0  0  0  0  0
  -13.5869    1.3445  -14.9054 N   0  0  0  0  0  0  0  0  0  0  0  0
  -14.0019    0.6349  -13.8250 N   0  0  0  0  0  0  0  0  0  0  0  0
  -15.3050    0.5763  -13.4849 C   0  0  0  0  0  0  0  0  0  0  0  0
  -16.2748    1.2582  -14.2442 C   0  0  0  0  0  0  0  0  0  0  0  0
  -17.6443    1.2970  -13.8821 C   0  0  0  0  0  0  0  0  0  0  0  0
  -18.5882    1.9716  -14.6549 C   0  0  0  0  0  0  0  0  0  0  0  0
  -18.1894    2.6186  -15.8130 C   0  0  0  0  0  0  0  0  0  0  0  0
  -16.8424    2.6210  -16.1777 C   0  0  0  0  0  0  0  0  0  0  0  0
  -15.8540    1.9624  -15.4021 C   0  0  0  0  0  0  0  0  0  0  0  0
  -12.6173    3.5597  -16.2952 C   0  0  0  0  0  0  0  0  0  0  0  0
  -13.8626    2.8260  -16.8169 C   0  0  0  0  0  0  0  0  0  0  0  0
  -13.5415    2.0644  -18.1047 C   0  0  0  0  0  0  0  0  0  0  0  0
  -14.0582    0.7878  -18.3664 C   0  0  0  0  0  0  0  0  0  0  0  0
  -13.7348    0.1581  -19.5587 C   0  0  0  0  0  0  0  0  0  0  0  0
  -12.9214    0.6921  -20.4927 N   0  0  0  0  0  0  0  0  0  0  0  0
  -12.4268    1.9184  -20.2274 C   0  0  0  0  0  0  0  0  0  0  0  0
  -12.7037    2.6344  -19.0706 C   0  0  0  0  0  0  0  0  0  0  0  0
  -15.6807   -0.1986  -12.3479 N   0  0  0  0  0  0  0  0  0  0  0  0
  -16.4996    0.2285  -11.9266 H   0  0  0  0  0  0  0  0  0  0  0  0
  -15.7697   -1.6104  -12.3918 C   0  0  0  0  0  0  0  0  0  0  0  0
  -15.8846   -2.2734  -13.6250 C   0  0  0  0  0  0  0  0  0  0  0  0
  -16.0962   -3.6504  -13.6842 C   0  0  0  0  0  0  0  0  0  0  0  0
  -16.1772   -4.3816  -12.5047 C   0  0  0  0  0  0  0  0  0  0  0  0
  -16.5080   -6.0683  -12.5682 Cl  0  0  0  0  0  0  0  0  0  0  0  0
  -16.0112   -3.7520  -11.2717 C   0  0  0  0  0  0  0  0  0  0  0  0
  -15.7992   -2.3688  -11.2155 C   0  0  0  0  0  0  0  0  0  0  0  0
 11 12  1  0  0  0
 12 13  1  0  0  0
 12  1  1  0  0  0
 13 14  1  0  0  0
 13 18  2  0  0  0
 14 15  2  0  0  0
 15 16  1  0  0  0
 16 17  2  0  0  0
 17 18  1  0  0  0
  1  2  1  0  0  0
  1 10  2  0  0  0
  2  3  2  0  0  0
  3  4  1  0  0  0
  4 19  1  0  0  0
  4  5  2  0  0  0
 19 21  1  0  0  0
 19 20  1  0  0  0
 21 22  1  0  0  0
 21 27  2  0  0  0
 22 23  2  0  0  0
 23 24  1  0  0  0
 24 25  1  0  0  0
 24 26  2  0  0  0
 26 27  1  0  0  0
  5  6  1  0  0  0
  5 10  1  0  0  0
  6  7  2  0  0  0
  7  8  1  0  0  0
  8  9  2  0  0  0
  9 10  1  0  0  0
M  END
> <minimizedAffinity>
-7.50099

$$$$
