CHEMBL3926270


 39 44  0  0  0  0  0  0  0  0999 V2000
  -16.7495    3.0399  -15.6685 C   0  0  0  0  0  0  0  0  0  0  0  0
  -18.0642    3.5008  -15.7892 C   0  0  0  0  0  0  0  0  0  0  0  0
  -19.1439    2.6511  -15.5486 C   0  0  0  0  0  0  0  0  0  0  0  0
  -18.9281    1.3030  -15.2569 C   0  0  0  0  0  0  0  0  0  0  0  0
  -17.6140    0.8338  -15.1442 C   0  0  0  0  0  0  0  0  0  0  0  0
  -16.5245    1.6935  -15.3727 C   0  0  0  0  0  0  0  0  0  0  0  0
  -14.1761    5.2413  -16.9794 N   0  0  0  0  0  0  0  0  0  0  0  0
  -15.2717    4.3954  -17.0338 C   0  0  0  0  0  0  0  0  0  0  0  0
  -15.8524    4.0884  -18.0683 O   0  0  0  0  0  0  0  0  0  0  0  0
  -15.6580    3.9402  -15.7750 N   0  0  0  0  0  0  0  0  0  0  0  0
  -13.5391    5.0867  -16.2104 H   0  0  0  0  0  0  0  0  0  0  0  0
  -15.5472    4.6149  -15.0313 H   0  0  0  0  0  0  0  0  0  0  0  0
  -11.1994    7.9083  -22.2750 C   0  0  0  0  0  0  0  0  0  0  0  0
  -12.3921    8.0298  -21.4869 N   0  0  0  0  0  0  0  0  0  0  0  0
  -13.3945    8.9655  -21.7327 C   0  0  0  0  0  0  0  0  0  0  0  0
  -13.4702    9.7899  -22.6265 O   0  0  0  0  0  0  0  0  0  0  0  0
  -14.4176    8.8003  -20.6309 C   0  0  0  0  0  0  0  0  0  0  0  0
  -15.8851    9.0523  -20.8452 C   0  0  0  0  0  0  0  0  0  0  0  0
  -15.0719   10.0140  -20.0195 C   0  0  0  0  0  0  0  0  0  0  0  0
  -13.8929    7.6702  -19.7974 C   0  0  0  0  0  0  0  0  0  0  0  0
  -14.3952    7.0282  -18.6740 C   0  0  0  0  0  0  0  0  0  0  0  0
  -13.6852    5.9601  -18.1008 C   0  0  0  0  0  0  0  0  0  0  0  0
  -12.4404    5.5882  -18.6449 C   0  0  0  0  0  0  0  0  0  0  0  0
  -11.9277    6.2302  -19.7823 C   0  0  0  0  0  0  0  0  0  0  0  0
  -12.6717    7.2528  -20.3427 C   0  0  0  0  0  0  0  0  0  0  0  0
  -19.9552    0.4050  -15.0286 O   0  0  0  0  0  0  0  0  0  0  0  0
  -21.1426    0.8636  -14.4959 C   0  0  0  0  0  0  0  0  0  0  0  0
  -21.4415    2.2200  -14.3979 C   0  0  0  0  0  0  0  0  0  0  0  0
  -22.6152    2.5761  -13.7761 C   0  0  0  0  0  0  0  0  0  0  0  0
  -23.5099    1.6828  -13.3258 N   0  0  0  0  0  0  0  0  0  0  0  0
  -23.2727    0.3708  -13.4925 C   0  0  0  0  0  0  0  0  0  0  0  0
  -22.0897   -0.0821  -14.0755 C   0  0  0  0  0  0  0  0  0  0  0  0
  -24.2423   -0.5560  -13.0576 N   0  0  0  0  0  0  0  0  0  0  0  0
  -25.1326   -1.1848  -13.9115 C   0  0  0  0  0  0  0  0  0  0  0  0
  -25.2048   -1.0656  -15.1268 O   0  0  0  0  0  0  0  0  0  0  0  0
  -24.2722   -0.7759  -12.0764 H   0  0  0  0  0  0  0  0  0  0  0  0
  -26.1226   -2.1210  -13.2948 C   0  0  0  0  0  0  0  0  0  0  0  0
  -27.6072   -2.1710  -13.5306 C   0  0  0  0  0  0  0  0  0  0  0  0
  -27.0781   -1.6126  -12.2402 C   0  0  0  0  0  0  0  0  0  0  0  0
 13 14  1  0  0  0
 14 15  1  0  0  0
 14 25  1  0  0  0
 15 16  2  0  0  0
 15 17  1  0  0  0
 17 18  1  0  0  0
 17 19  1  0  0  0
 17 20  1  0  0  0
 18 19  1  0  0  0
 20 21  1  0  0  0
 20 25  2  0  0  0
 21 22  2  0  0  0
 22  7  1  0  0  0
 22 23  1  0  0  0
  7  8  1  0  0  0
  7 11  1  0  0  0
  8  9  2  0  0  0
  8 10  1  0  0  0
 10  1  1  0  0  0
 10 12  1  0  0  0
  1  2  1  0  0  0
  1  6  2  0  0  0
  2  3  2  0  0  0
  3  4  1  0  0  0
  4 26  1  0  0  0
  4  5  2  0  0  0
 26 27  1  0  0  0
 27 28  1  0  0  0
 27 32  2  0  0  0
 28 29  2  0  0  0
 29 30  1  0  0  0
 30 31  2  0  0  0
 31 33  1  0  0  0
 31 32  1  0  0  0
 33 34  1  0  0  0
 33 36  1  0  0  0
 34 35  2  0  0  0
 34 37  1  0  0  0
 37 38  1  0  0  0
 37 39  1  0  0  0
 38 39  1  0  0  0
  5  6  1  0  0  0
 23 24  2  0  0  0
 24 25  1  0  0  0
M  END
> <minimizedAffinity>
-9.30096

$$$$
