CHEMBL4226159


 42 45  0  0  0  0  0  0  0  0999 V2000
  -30.4010   -7.6159   -7.3871 N   0  0  0  0  0  0  0  0  0  0  0  0
  -31.1989   -7.8551   -7.9649 H   0  0  0  0  0  0  0  0  0  0  0  0
  -28.6535   -3.8486   -8.0125 C   0  0  0  0  0  0  0  0  0  0  0  0
  -27.9319   -5.0275   -8.1968 C   0  0  0  0  0  0  0  0  0  0  0  0
  -28.5622   -6.2550   -8.0084 C   0  0  0  0  0  0  0  0  0  0  0  0
  -29.9128   -6.3229   -7.6177 C   0  0  0  0  0  0  0  0  0  0  0  0
  -30.6234   -5.1448   -7.4327 C   0  0  0  0  0  0  0  0  0  0  0  0
  -30.0034   -3.9090   -7.6464 C   0  0  0  0  0  0  0  0  0  0  0  0
  -27.3472   -2.0305   -7.3085 O   0  0  0  0  0  0  0  0  0  0  0  0
  -27.9489   -2.5657   -8.2330 C   0  0  0  0  0  0  0  0  0  0  0  0
  -28.0661   -1.9492   -9.5790 C   0  0  0  0  0  0  0  0  0  0  0  0
  -26.9845   -1.9110  -10.3681 C   0  0  0  0  0  0  0  0  0  0  0  0
  -26.9105   -1.3424  -11.6117 N   0  0  0  0  0  0  0  0  0  0  0  0
  -27.7879   -1.0337  -12.0160 H   0  0  0  0  0  0  0  0  0  0  0  0
  -25.7622   -1.0320  -12.3592 C   0  0  0  0  0  0  0  0  0  0  0  0
  -25.5415   -1.4974  -13.6669 C   0  0  0  0  0  0  0  0  0  0  0  0
  -24.3729   -1.1676  -14.3581 C   0  0  0  0  0  0  0  0  0  0  0  0
  -23.4176   -0.3697  -13.7455 C   0  0  0  0  0  0  0  0  0  0  0  0
  -22.2973   -0.0542  -14.4077 F   0  0  0  0  0  0  0  0  0  0  0  0
  -23.6089    0.1098  -12.4560 C   0  0  0  0  0  0  0  0  0  0  0  0
  -24.7782   -0.2206  -11.7687 C   0  0  0  0  0  0  0  0  0  0  0  0
  -29.9358   -8.7064   -6.6773 C   0  0  0  0  0  0  0  0  0  0  0  0
  -29.3066  -10.1440   -7.2295 S   0  0  0  0  0  0  0  0  0  0  0  0
  -29.9727   -8.4884   -5.3022 N   0  0  0  0  0  0  0  0  0  0  0  0
  -30.2529   -9.2804   -4.7330 H   0  0  0  0  0  0  0  0  0  0  0  0
  -29.6217   -7.2768   -4.6621 C   0  0  0  0  0  0  0  0  0  0  0  0
  -30.6137   -6.4172   -4.1620 C   0  0  0  0  0  0  0  0  0  0  0  0
  -30.3041   -5.1158   -3.7832 C   0  0  0  0  0  0  0  0  0  0  0  0
  -28.9777   -4.6948   -3.8487 C   0  0  0  0  0  0  0  0  0  0  0  0
  -27.9639   -5.5848   -4.2301 C   0  0  0  0  0  0  0  0  0  0  0  0
  -28.2826   -6.8929   -4.6133 C   0  0  0  0  0  0  0  0  0  0  0  0
  -28.6115   -2.9687   -3.5924 S   0  0  0  0  0  0  0  0  0  0  0  0
  -28.7377   -2.6962   -2.1764 O   0  0  0  0  0  0  0  0  0  0  0  0
  -27.3678   -2.7008   -4.2850 O   0  0  0  0  0  0  0  0  0  0  0  0
  -29.8197   -2.1664   -4.4414 N   0  0  0  0  0  0  0  0  0  0  0  0
  -30.6498   -2.0726   -3.8616 H   0  0  0  0  0  0  0  0  0  0  0  0
  -29.4537   -0.9156   -4.9667 C   0  0  0  0  0  0  0  0  0  0  0  0
  -30.1502   -0.3145   -5.9996 C   0  0  0  0  0  0  0  0  0  0  0  0
  -29.6945    0.9209   -6.4495 C   0  0  0  0  0  0  0  0  0  0  0  0
  -28.5595    1.4795   -5.8685 C   0  0  0  0  0  0  0  0  0  0  0  0
  -27.9229    0.7760   -4.8573 C   0  0  0  0  0  0  0  0  0  0  0  0
  -28.3516   -0.4143   -4.3854 N   0  0  0  0  0  0  0  0  0  0  0  0
  9 10  2  0  0  0
 10 11  1  0  0  0
 10  3  1  0  0  0
 11 12  2  0  0  0
 12 13  1  0  0  0
 13 15  1  0  0  0
 13 14  1  0  0  0
 15 16  1  0  0  0
 15 21  2  0  0  0
 16 17  2  0  0  0
 17 18  1  0  0  0
 18 19  1  0  0  0
 18 20  2  0  0  0
 20 21  1  0  0  0
  3  4  1  0  0  0
  3  8  2  0  0  0
  4  5  2  0  0  0
  5  6  1  0  0  0
  6  1  1  0  0  0
  6  7  2  0  0  0
  1 22  1  0  0  0
  1  2  1  0  0  0
 22 23  2  0  0  0
 22 24  1  0  0  0
 24 26  1  0  0  0
 24 25  1  0  0  0
 26 27  1  0  0  0
 26 31  2  0  0  0
 27 28  2  0  0  0
 28 29  1  0  0  0
 29 32  1  0  0  0
 29 30  2  0  0  0
 32 33  2  0  0  0
 32 34  2  0  0  0
 32 35  1  0  0  0
 35 37  1  0  0  0
 35 36  1  0  0  0
 37 38  1  0  0  0
 37 42  2  0  0  0
 38 39  2  0  0  0
 39 40  1  0  0  0
 40 41  2  0  0  0
 41 42  1  0  0  0
 30 31  1  0  0  0
  7  8  1  0  0  0
M  END
> <minimizedAffinity>
-9.85199

$$$$
