CHEMBL402048


 25 28  0  0  0  0  0  0  0  0999 V2000
  -30.0146   -7.7957   -6.0734 C   0  0  0  0  0  0  0  0  0  0  0  0
  -29.4951   -8.3992   -5.0282 N   0  0  0  0  0  0  0  0  0  0  0  0
  -28.5420   -7.5501   -4.5182 N   0  0  0  0  0  0  0  0  0  0  0  0
  -28.3795   -6.3604   -5.2070 C   0  0  0  0  0  0  0  0  0  0  0  0
  -27.5815   -5.4773   -4.9671 O   0  0  0  0  0  0  0  0  0  0  0  0
  -29.4309   -6.4422   -6.2504 C   0  0  0  0  0  0  0  0  0  0  0  0
  -29.8008   -5.4649   -7.0892 C   0  0  0  0  0  0  0  0  0  0  0  0
  -27.9686   -7.8188   -3.7260 H   0  0  0  0  0  0  0  0  0  0  0  0
  -29.1237   -4.2247   -7.2244 C   0  0  0  0  0  0  0  0  0  0  0  0
  -28.3163   -3.8765   -8.2795 C   0  0  0  0  0  0  0  0  0  0  0  0
  -27.9645   -2.5615   -8.1051 N   0  0  0  0  0  0  0  0  0  0  0  0
  -27.1970   -1.7884   -9.0548 C   0  0  0  0  0  0  0  0  0  0  0  0
  -28.4909   -2.0715   -6.9248 C   0  0  0  0  0  0  0  0  0  0  0  0
  -28.4242   -0.7983   -6.3347 C   0  0  0  0  0  0  0  0  0  0  0  0
  -29.0902   -0.5974   -5.1184 C   0  0  0  0  0  0  0  0  0  0  0  0
  -29.7900   -1.6311   -4.5034 C   0  0  0  0  0  0  0  0  0  0  0  0
  -29.8527   -2.8861   -5.1064 C   0  0  0  0  0  0  0  0  0  0  0  0
  -30.5401   -3.8675   -4.5014 F   0  0  0  0  0  0  0  0  0  0  0  0
  -29.2073   -3.1185   -6.3361 C   0  0  0  0  0  0  0  0  0  0  0  0
  -29.5477   -9.5648   -8.7112 C   0  0  0  0  0  0  0  0  0  0  0  0
  -30.8254   -9.2009   -8.0487 C   0  0  0  0  0  0  0  0  0  0  0  0
  -32.0093   -9.6577   -8.6195 N   0  0  0  0  0  0  0  0  0  0  0  0
  -33.0714   -9.2332   -7.9590 N   0  0  0  0  0  0  0  0  0  0  0  0
  -32.6790   -8.2661   -6.6612 S   0  0  0  0  0  0  0  0  0  0  0  0
  -30.9904   -8.4471   -6.8928 C   0  0  0  0  0  0  0  0  0  0  0  0
 20 21  1  0  0  0
 21 22  1  0  0  0
 21 25  2  0  0  0
 22 23  2  0  0  0
 23 24  1  0  0  0
 24 25  1  0  0  0
 25  1  1  0  0  0
  1  2  2  0  0  0
  1  6  1  0  0  0
  2  3  1  0  0  0
  3  4  1  0  0  0
  3  8  1  0  0  0
  4  5  2  0  0  0
  4  6  1  0  0  0
  6  7  2  0  0  0
  7  9  1  0  0  0
  9 10  2  0  0  0
  9 19  1  0  0  0
 10 11  1  0  0  0
 11 12  1  0  0  0
 11 13  1  0  0  0
 13 14  1  0  0  0
 13 19  2  0  0  0
 14 15  2  0  0  0
 15 16  1  0  0  0
 16 17  2  0  0  0
 17 18  1  0  0  0
 17 19  1  0  0  0
M  END
> <minimizedAffinity>
-8.47259

$$$$
