CHEMBL3983639


 25 28  0  0  0  0  0  0  0  0999 V2000
  -15.3372    5.1148  -16.6016 N   0  0  0  0  0  0  0  0  0  0  0  0
  -15.9872    3.9439  -16.2775 C   0  0  0  0  0  0  0  0  0  0  0  0
  -15.2755    2.8093  -16.3809 N   0  0  0  0  0  0  0  0  0  0  0  0
  -15.8755    1.6326  -16.1050 C   0  0  0  0  0  0  0  0  0  0  0  0
  -17.1869    1.6142  -15.7394 C   0  0  0  0  0  0  0  0  0  0  0  0
  -17.8086    2.8454  -15.6039 C   0  0  0  0  0  0  0  0  0  0  0  0
  -17.2486    4.0289  -15.8565 N   0  0  0  0  0  0  0  0  0  0  0  0
  -19.1570    2.6488  -15.1289 C   0  0  0  0  0  0  0  0  0  0  0  0
  -20.1476    3.5626  -14.8185 C   0  0  0  0  0  0  0  0  0  0  0  0
  -21.3810    3.0729  -14.3807 C   0  0  0  0  0  0  0  0  0  0  0  0
  -21.6055    1.6892  -14.2592 C   0  0  0  0  0  0  0  0  0  0  0  0
  -20.5993    0.7673  -14.5617 C   0  0  0  0  0  0  0  0  0  0  0  0
  -19.3796    1.2604  -14.9899 C   0  0  0  0  0  0  0  0  0  0  0  0
  -18.1214    0.4972  -15.3660 C   0  0  0  0  0  0  0  0  0  0  0  0
  -14.3369    4.9778  -16.5335 H   0  0  0  0  0  0  0  0  0  0  0  0
  -15.7418    5.8904  -16.1003 H   0  0  0  0  0  0  0  0  0  0  0  0
  -15.1392    0.4305  -16.1856 N   0  0  0  0  0  0  0  0  0  0  0  0
  -14.9121    0.2335  -17.1542 H   0  0  0  0  0  0  0  0  0  0  0  0
  -14.1059    0.0737  -15.2888 C   0  0  0  0  0  0  0  0  0  0  0  0
  -14.3682   -0.7536  -14.1828 C   0  0  0  0  0  0  0  0  0  0  0  0
  -13.3561   -1.1126  -13.2936 C   0  0  0  0  0  0  0  0  0  0  0  0
  -12.0653   -0.6602  -13.5205 C   0  0  0  0  0  0  0  0  0  0  0  0
  -11.0922   -0.9868  -12.6602 F   0  0  0  0  0  0  0  0  0  0  0  0
  -11.7681    0.1233  -14.6297 C   0  0  0  0  0  0  0  0  0  0  0  0
  -12.7850    0.4788  -15.5221 C   0  0  0  0  0  0  0  0  0  0  0  0
  1  2  1  0  0  0
  1 15  1  0  0  0
  1 16  1  0  0  0
  2  3  1  0  0  0
  2  7  2  0  0  0
  3  4  2  0  0  0
  4 17  1  0  0  0
  4  5  1  0  0  0
 17 19  1  0  0  0
 17 18  1  0  0  0
 19 20  1  0  0  0
 19 25  2  0  0  0
 20 21  2  0  0  0
 21 22  1  0  0  0
 22 23  1  0  0  0
 22 24  2  0  0  0
 24 25  1  0  0  0
  5  6  2  0  0  0
  5 14  1  0  0  0
  6  7  1  0  0  0
  6  8  1  0  0  0
  8  9  1  0  0  0
  8 13  2  0  0  0
  9 10  2  0  0  0
 10 11  1  0  0  0
 11 12  2  0  0  0
 12 13  1  0  0  0
 13 14  1  0  0  0
M  END
> <minimizedAffinity>
-8.21830

$$$$
