CHEMBL522732


 34 38  0  0  0  0  0  0  0  0999 V2000
  -24.6307   -0.5518  -12.6823 C   0  0  0  0  0  0  0  0  0  0  0  0
  -25.6867   -1.1230  -13.4196 C   0  0  0  0  0  0  0  0  0  0  0  0
  -26.7809   -1.7603  -12.8262 C   0  0  0  0  0  0  0  0  0  0  0  0
  -26.7822   -1.7975  -11.4382 C   0  0  0  0  0  0  0  0  0  0  0  0
  -27.6708   -2.3131  -10.5381 N   0  0  0  0  0  0  0  0  0  0  0  0
  -27.2124   -2.0665   -9.2625 C   0  0  0  0  0  0  0  0  0  0  0  0
  -26.0488   -1.4312   -9.3196 N   0  0  0  0  0  0  0  0  0  0  0  0
  -25.7781   -1.2501  -10.6563 C   0  0  0  0  0  0  0  0  0  0  0  0
  -24.6884   -0.6198  -11.2801 C   0  0  0  0  0  0  0  0  0  0  0  0
  -28.5295   -2.8047  -10.7587 H   0  0  0  0  0  0  0  0  0  0  0  0
  -27.9686   -2.5293   -8.1357 C   0  0  0  0  0  0  0  0  0  0  0  0
  -28.1912   -3.8571   -7.9682 C   0  0  0  0  0  0  0  0  0  0  0  0
  -27.6460   -4.8620   -8.7741 N   0  0  0  0  0  0  0  0  0  0  0  0
  -29.0793   -4.3141   -6.8634 C   0  0  0  0  0  0  0  0  0  0  0  0
  -29.4097   -5.6640   -6.6602 C   0  0  0  0  0  0  0  0  0  0  0  0
  -30.2945   -6.0275   -5.6476 C   0  0  0  0  0  0  0  0  0  0  0  0
  -30.6274   -7.3170   -5.5002 F   0  0  0  0  0  0  0  0  0  0  0  0
  -30.8384   -5.0674   -4.8059 C   0  0  0  0  0  0  0  0  0  0  0  0
  -31.6973   -5.4210   -3.8412 F   0  0  0  0  0  0  0  0  0  0  0  0
  -30.5037   -3.7297   -4.9603 C   0  0  0  0  0  0  0  0  0  0  0  0
  -29.6358   -3.3623   -5.9909 C   0  0  0  0  0  0  0  0  0  0  0  0
  -29.3308   -2.0141   -6.1566 N   0  0  0  0  0  0  0  0  0  0  0  0
  -28.5439   -1.5369   -7.1618 C   0  0  0  0  0  0  0  0  0  0  0  0
  -28.3327   -0.3249   -7.2494 O   0  0  0  0  0  0  0  0  0  0  0  0
  -27.1558   -4.4494   -9.5829 H   0  0  0  0  0  0  0  0  0  0  0  0
  -28.3363   -5.5256   -9.1108 H   0  0  0  0  0  0  0  0  0  0  0  0
  -29.7047   -1.3178   -5.5241 H   0  0  0  0  0  0  0  0  0  0  0  0
  -20.1535    2.1581  -14.6367 C   0  0  0  0  0  0  0  0  0  0  0  0
  -21.4909    1.5704  -14.6904 N   0  0  0  0  0  0  0  0  0  0  0  0
  -21.4220    0.1091  -14.4442 C   0  0  0  0  0  0  0  0  0  0  0  0
  -22.8168   -0.5636  -14.3928 C   0  0  0  0  0  0  0  0  0  0  0  0
  -23.6216    0.1091  -13.3646 N   0  0  0  0  0  0  0  0  0  0  0  0
  -23.7720    1.5548  -13.6093 C   0  0  0  0  0  0  0  0  0  0  0  0
  -22.3703    2.2032  -13.6779 C   0  0  0  0  0  0  0  0  0  0  0  0
 28 29  1  0  0  0
 29 30  1  0  0  0
 29 34  1  0  0  0
 30 31  1  0  0  0
 31 32  1  0  0  0
 32  1  1  0  0  0
 32 33  1  0  0  0
  1  2  1  0  0  0
  1  9  2  0  0  0
  2  3  2  0  0  0
  3  4  1  0  0  0
  4  5  1  0  0  0
  4  8  2  0  0  0
  5  6  1  0  0  0
  5 10  1  0  0  0
  6 11  1  0  0  0
  6  7  2  0  0  0
 11 12  2  0  0  0
 11 23  1  0  0  0
 12 13  1  0  0  0
 12 14  1  0  0  0
 13 25  1  0  0  0
 13 26  1  0  0  0
 14 15  1  0  0  0
 14 21  2  0  0  0
 15 16  2  0  0  0
 16 17  1  0  0  0
 16 18  1  0  0  0
 18 19  1  0  0  0
 18 20  2  0  0  0
 20 21  1  0  0  0
 21 22  1  0  0  0
 22 23  1  0  0  0
 22 27  1  0  0  0
 23 24  2  0  0  0
  7  8  1  0  0  0
  8  9  1  0  0  0
 33 34  1  0  0  0
M  END
> <minimizedAffinity>
-9.46260

$$$$
