CHEMBL2386789


 44 48  0  0  0  0  0  0  0  0999 V2000
  -25.8625   -1.8172  -11.4183 C   0  0  0  0  0  0  0  0  0  0  0  0
  -24.6863   -1.1232  -11.4570 C   0  0  0  0  0  0  0  0  0  0  0  0
  -24.4760   -0.7651  -12.8207 C   0  0  0  0  0  0  0  0  0  0  0  0
  -25.4844   -1.2112  -13.5789 N   0  0  0  0  0  0  0  0  0  0  0  0
  -26.2846   -1.8683  -12.7240 N   0  0  0  0  0  0  0  0  0  0  0  0
  -27.1112   -2.2973  -13.0922 H   0  0  0  0  0  0  0  0  0  0  0  0
  -23.3285   -0.0391  -13.3558 C   0  0  0  0  0  0  0  0  0  0  0  0
  -22.3270   -0.7568  -14.0224 C   0  0  0  0  0  0  0  0  0  0  0  0
  -21.2203   -0.1175  -14.5500 C   0  0  0  0  0  0  0  0  0  0  0  0
  -21.0780    1.2518  -14.4156 C   0  0  0  0  0  0  0  0  0  0  0  0
  -22.0722    1.9965  -13.7673 C   0  0  0  0  0  0  0  0  0  0  0  0
  -23.1957    1.3483  -13.2377 C   0  0  0  0  0  0  0  0  0  0  0  0
  -19.9597    1.9200  -14.9082 N   0  0  0  0  0  0  0  0  0  0  0  0
  -19.8436    3.2370  -15.2831 C   0  0  0  0  0  0  0  0  0  0  0  0
  -20.7270    4.0922  -15.2687 O   0  0  0  0  0  0  0  0  0  0  0  0
  -18.5833    3.6325  -15.6392 N   0  0  0  0  0  0  0  0  0  0  0  0
  -19.1249    1.3576  -15.0388 H   0  0  0  0  0  0  0  0  0  0  0  0
  -18.4640    4.6298  -15.7334 H   0  0  0  0  0  0  0  0  0  0  0  0
  -17.5146    2.8005  -15.8634 C   0  0  0  0  0  0  0  0  0  0  0  0
  -16.2873    3.1988  -16.4085 C   0  0  0  0  0  0  0  0  0  0  0  0
  -15.5436    2.0428  -16.4506 C   0  0  0  0  0  0  0  0  0  0  0  0
  -16.2765    1.0209  -15.9453 O   0  0  0  0  0  0  0  0  0  0  0  0
  -17.5087    1.4934  -15.5795 N   0  0  0  0  0  0  0  0  0  0  0  0
  -14.1725    1.7328  -16.9543 C   0  0  0  0  0  0  0  0  0  0  0  0
  -14.2624    0.5953  -17.9829 C   0  0  0  0  0  0  0  0  0  0  0  0
  -13.5048    2.9567  -17.6054 C   0  0  0  0  0  0  0  0  0  0  0  0
  -13.3198    1.2844  -15.7569 C   0  0  0  0  0  0  0  0  0  0  0  0
  -27.6662   -1.7761   -9.7177 C   0  0  0  0  0  0  0  0  0  0  0  0
  -28.1449   -0.7500  -10.1649 O   0  0  0  0  0  0  0  0  0  0  0  0
  -26.4998   -2.3802  -10.3175 N   0  0  0  0  0  0  0  0  0  0  0  0
  -26.1270   -3.2377   -9.9385 H   0  0  0  0  0  0  0  0  0  0  0  0
  -29.3968   -3.5875   -6.2080 C   0  0  0  0  0  0  0  0  0  0  0  0
  -29.6974   -4.0720   -7.4931 C   0  0  0  0  0  0  0  0  0  0  0  0
  -29.1425   -3.5170   -8.6517 C   0  0  0  0  0  0  0  0  0  0  0  0
  -28.2625   -2.4453   -8.5407 C   0  0  0  0  0  0  0  0  0  0  0  0
  -27.9479   -1.9400   -7.2753 C   0  0  0  0  0  0  0  0  0  0  0  0
  -28.5005   -2.5184   -6.1253 C   0  0  0  0  0  0  0  0  0  0  0  0
  -32.7564   -5.5983   -2.2559 C   0  0  0  0  0  0  0  0  0  0  0  0
  -31.4887   -5.3008   -2.9155 N   0  0  0  0  0  0  0  0  0  0  0  0
  -31.4171   -5.9603   -4.2402 C   0  0  0  0  0  0  0  0  0  0  0  0
  -30.0918   -5.6529   -4.9819 C   0  0  0  0  0  0  0  0  0  0  0  0
  -29.9404   -4.1946   -5.0998 N   0  0  0  0  0  0  0  0  0  0  0  0
  -29.9975   -3.4866   -3.8071 C   0  0  0  0  0  0  0  0  0  0  0  0
  -31.3174   -3.8404   -3.0866 C   0  0  0  0  0  0  0  0  0  0  0  0
 38 39  1  0  0  0
 39 40  1  0  0  0
 39 44  1  0  0  0
 40 41  1  0  0  0
 41 42  1  0  0  0
 42 32  1  0  0  0
 42 43  1  0  0  0
 32 33  1  0  0  0
 32 37  2  0  0  0
 33 34  2  0  0  0
 34 35  1  0  0  0
 35 28  1  0  0  0
 35 36  2  0  0  0
 28 29  2  0  0  0
 28 30  1  0  0  0
 30  1  1  0  0  0
 30 31  1  0  0  0
  1  2  2  0  0  0
  1  5  1  0  0  0
  2  3  1  0  0  0
  3  7  1  0  0  0
  3  4  2  0  0  0
  7  8  1  0  0  0
  7 12  2  0  0  0
  8  9  2  0  0  0
  9 10  1  0  0  0
 10 13  1  0  0  0
 10 11  2  0  0  0
 13 14  1  0  0  0
 13 17  1  0  0  0
 14 15  2  0  0  0
 14 16  1  0  0  0
 16 19  1  0  0  0
 16 18  1  0  0  0
 19 20  1  0  0  0
 19 23  2  0  0  0
 20 21  2  0  0  0
 21 24  1  0  0  0
 21 22  1  0  0  0
 24 25  1  0  0  0
 24 26  1  0  0  0
 24 27  1  0  0  0
 22 23  1  0  0  0
 11 12  1  0  0  0
  4  5  1  0  0  0
  5  6  1  0  0  0
 36 37  1  0  0  0
 43 44  1  0  0  0
M  END
> <minimizedAffinity>
-10.82652

$$$$
