CHEMBL3758697


 33 35  0  0  0  0  0  0  0  0999 V2000
  -13.6069    0.2299  -14.6455 C   0  0  0  0  0  0  0  0  0  0  0  0
  -13.5244    0.9927  -15.8147 C   0  0  0  0  0  0  0  0  0  0  0  0
  -14.4953    1.9157  -16.1687 C   0  0  0  0  0  0  0  0  0  0  0  0
  -14.3428    2.5656  -17.3246 N   0  0  0  0  0  0  0  0  0  0  0  0
  -15.2942    3.4443  -17.6455 C   0  0  0  0  0  0  0  0  0  0  0  0
  -16.3601    3.7456  -16.9051 N   0  0  0  0  0  0  0  0  0  0  0  0
  -16.4965    3.0987  -15.7299 C   0  0  0  0  0  0  0  0  0  0  0  0
  -15.5796    2.1218  -15.3094 C   0  0  0  0  0  0  0  0  0  0  0  0
  -15.6729    1.3682  -14.1147 C   0  0  0  0  0  0  0  0  0  0  0  0
  -14.6749    0.4578  -13.7619 C   0  0  0  0  0  0  0  0  0  0  0  0
  -11.5190   -0.3568  -13.6000 C   0  0  0  0  0  0  0  0  0  0  0  0
  -12.6918   -0.7297  -14.3149 O   0  0  0  0  0  0  0  0  0  0  0  0
  -17.5891    3.4432  -14.8857 N   0  0  0  0  0  0  0  0  0  0  0  0
  -17.7556    4.4415  -14.9540 H   0  0  0  0  0  0  0  0  0  0  0  0
  -18.7943    2.7083  -14.8240 C   0  0  0  0  0  0  0  0  0  0  0  0
  -19.9587    3.2956  -14.3076 C   0  0  0  0  0  0  0  0  0  0  0  0
  -21.1335    2.5528  -14.1682 C   0  0  0  0  0  0  0  0  0  0  0  0
  -21.1495    1.2179  -14.5501 C   0  0  0  0  0  0  0  0  0  0  0  0
  -22.7166    0.1908  -14.2996 Br  0  0  0  0  0  0  0  0  0  0  0  0
  -20.0120    0.6299  -15.0966 C   0  0  0  0  0  0  0  0  0  0  0  0
  -18.8395    1.3737  -15.2417 C   0  0  0  0  0  0  0  0  0  0  0  0
  -14.8771   -0.1660  -12.5515 O   0  0  0  0  0  0  0  0  0  0  0  0
  -15.5592   -1.4160  -12.6680 C   0  0  0  0  0  0  0  0  0  0  0  0
  -15.8089   -2.0381  -11.2930 C   0  0  0  0  0  0  0  0  0  0  0  0
  -16.0156   -3.5444  -11.4692 C   0  0  0  0  0  0  0  0  0  0  0  0
  -16.1963   -3.9683  -12.9224 C   0  0  0  0  0  0  0  0  0  0  0  0
  -16.8516   -5.3502  -13.0004 C   0  0  0  0  0  0  0  0  0  0  0  0
  -15.8224   -6.4591  -13.0005 C   0  0  0  0  0  0  0  0  0  0  0  0
  -14.9353   -6.5877  -12.1634 O   0  0  0  0  0  0  0  0  0  0  0  0
  -15.9742   -7.3548  -14.0368 N   0  0  0  0  0  0  0  0  0  0  0  0
  -14.9604   -8.3374  -14.1249 O   0  0  0  0  0  0  0  0  0  0  0  0
  -16.4428   -7.1122  -14.9050 H   0  0  0  0  0  0  0  0  0  0  0  0
  -14.4123   -8.1422  -13.3318 H   0  0  0  0  0  0  0  0  0  0  0  0
 11 12  1  0  0  0
 12  1  1  0  0  0
  1  2  1  0  0  0
  1 10  2  0  0  0
  2  3  2  0  0  0
  3  4  1  0  0  0
  3  8  1  0  0  0
  4  5  2  0  0  0
  5  6  1  0  0  0
  6  7  2  0  0  0
  7 13  1  0  0  0
  7  8  1  0  0  0
 13 15  1  0  0  0
 13 14  1  0  0  0
 15 16  1  0  0  0
 15 21  2  0  0  0
 16 17  2  0  0  0
 17 18  1  0  0  0
 18 19  1  0  0  0
 18 20  2  0  0  0
 20 21  1  0  0  0
  8  9  2  0  0  0
  9 10  1  0  0  0
 10 22  1  0  0  0
 22 23  1  0  0  0
 23 24  1  0  0  0
 24 25  1  0  0  0
 25 26  1  0  0  0
 26 27  1  0  0  0
 27 28  1  0  0  0
 28 29  2  0  0  0
 28 30  1  0  0  0
 30 31  1  0  0  0
 30 32  1  0  0  0
 31 33  1  0  0  0
M  END
> <minimizedAffinity>
-8.19697

$$$$
