CHEMBL1241949


 28 31  0  0  0  0  0  0  0  0999 V2000
  -30.3740   -8.6513   -6.7574 N   0  0  0  0  0  0  0  0  0  0  0  0
  -30.0550   -7.4289   -7.2184 N   0  0  0  0  0  0  0  0  0  0  0  0
  -29.0018   -7.0385   -6.4654 C   0  0  0  0  0  0  0  0  0  0  0  0
  -28.5161   -8.1278   -5.6842 C   0  0  0  0  0  0  0  0  0  0  0  0
  -27.5299   -8.3708   -4.7302 C   0  0  0  0  0  0  0  0  0  0  0  0
  -26.6100   -7.4257   -4.2744 N   0  0  0  0  0  0  0  0  0  0  0  0
  -27.4593   -9.5949   -4.1650 N   0  0  0  0  0  0  0  0  0  0  0  0
  -28.3767  -10.5232   -4.5094 C   0  0  0  0  0  0  0  0  0  0  0  0
  -29.4105  -10.3776   -5.3549 N   0  0  0  0  0  0  0  0  0  0  0  0
  -29.4233   -9.1575   -5.9138 C   0  0  0  0  0  0  0  0  0  0  0  0
  -26.9954   -6.4940   -4.1965 H   0  0  0  0  0  0  0  0  0  0  0  0
  -26.1671   -7.7697   -3.4292 H   0  0  0  0  0  0  0  0  0  0  0  0
  -28.7467   -5.5993   -6.3462 C   0  0  0  0  0  0  0  0  0  0  0  0
  -28.6732   -4.9810   -7.5999 C   0  0  0  0  0  0  0  0  0  0  0  0
  -28.4911   -3.6310   -7.7423 C   0  0  0  0  0  0  0  0  0  0  0  0
  -28.3756   -2.8432   -6.6434 C   0  0  0  0  0  0  0  0  0  0  0  0
  -28.2344   -1.5732   -6.9769 N   0  0  0  0  0  0  0  0  0  0  0  0
  -28.0699   -0.6845   -6.0153 C   0  0  0  0  0  0  0  0  0  0  0  0
  -27.8715    0.5823   -6.5337 N   0  0  0  0  0  0  0  0  0  0  0  0
  -28.0428   -1.0289   -4.6788 C   0  0  0  0  0  0  0  0  0  0  0  0
  -28.2348   -2.3854   -4.3266 C   0  0  0  0  0  0  0  0  0  0  0  0
  -28.4061   -3.3723   -5.3381 C   0  0  0  0  0  0  0  0  0  0  0  0
  -28.5990   -4.7998   -5.1953 C   0  0  0  0  0  0  0  0  0  0  0  0
  -28.0302    0.4247   -7.5354 H   0  0  0  0  0  0  0  0  0  0  0  0
  -26.9028    0.8571   -6.4187 H   0  0  0  0  0  0  0  0  0  0  0  0
  -32.8185   -8.2576   -7.1203 C   0  0  0  0  0  0  0  0  0  0  0  0
  -31.6506   -9.2574   -7.1321 C   0  0  0  0  0  0  0  0  0  0  0  0
  -31.5632   -9.9333   -8.4995 C   0  0  0  0  0  0  0  0  0  0  0  0
 26 27  1  0  0  0
 27 28  1  0  0  0
 27  1  1  0  0  0
  1  2  1  0  0  0
  1 10  1  0  0  0
  2  3  2  0  0  0
  3 13  1  0  0  0
  3  4  1  0  0  0
 13 14  1  0  0  0
 13 23  2  0  0  0
 14 15  2  0  0  0
 15 16  1  0  0  0
 16 17  1  0  0  0
 16 22  2  0  0  0
 17 18  2  0  0  0
 18 19  1  0  0  0
 18 20  1  0  0  0
 19 24  1  0  0  0
 19 25  1  0  0  0
 20 21  2  0  0  0
 21 22  1  0  0  0
 22 23  1  0  0  0
  4  5  1  0  0  0
  4 10  2  0  0  0
  5  6  1  0  0  0
  5  7  2  0  0  0
  6 11  1  0  0  0
  6 12  1  0  0  0
  7  8  1  0  0  0
  8  9  2  0  0  0
  9 10  1  0  0  0
M  END
> <minimizedAffinity>
-8.48572

$$$$
