CHEMBL3972326


 30 33  0  0  0  0  0  0  0  0999 V2000
  -18.0023    3.1721  -15.1998 C   0  0  0  0  0  0  0  0  0  0  0  0
  -19.2877    3.7287  -15.2302 C   0  0  0  0  0  0  0  0  0  0  0  0
  -20.4342    2.9690  -14.9581 C   0  0  0  0  0  0  0  0  0  0  0  0
  -20.3266    1.6089  -14.6983 C   0  0  0  0  0  0  0  0  0  0  0  0
  -19.0608    1.0130  -14.7655 C   0  0  0  0  0  0  0  0  0  0  0  0
  -17.9034    1.7923  -15.0218 C   0  0  0  0  0  0  0  0  0  0  0  0
  -14.9505    4.8233  -16.4630 N   0  0  0  0  0  0  0  0  0  0  0  0
  -16.1257    4.0816  -16.5167 C   0  0  0  0  0  0  0  0  0  0  0  0
  -16.5435    3.5547  -17.5431 O   0  0  0  0  0  0  0  0  0  0  0  0
  -16.8221    3.9834  -15.3136 N   0  0  0  0  0  0  0  0  0  0  0  0
  -14.7029    5.2799  -15.5974 H   0  0  0  0  0  0  0  0  0  0  0  0
  -16.7222    4.7435  -14.6585 H   0  0  0  0  0  0  0  0  0  0  0  0
  -13.6108    7.3628  -20.5782 C   0  0  0  0  0  0  0  0  0  0  0  0
  -13.4038    6.2475  -19.5923 C   0  0  0  0  0  0  0  0  0  0  0  0
  -12.3258    5.3773  -19.7865 C   0  0  0  0  0  0  0  0  0  0  0  0
  -12.1056    4.3433  -18.8947 C   0  0  0  0  0  0  0  0  0  0  0  0
  -12.9598    4.1694  -17.8074 C   0  0  0  0  0  0  0  0  0  0  0  0
  -14.0602    5.0071  -17.5762 C   0  0  0  0  0  0  0  0  0  0  0  0
  -14.2676    6.0620  -18.4841 C   0  0  0  0  0  0  0  0  0  0  0  0
  -21.5145    0.8623  -14.3694 C   0  0  0  0  0  0  0  0  0  0  0  0
  -22.5054    0.2586  -14.0461 C   0  0  0  0  0  0  0  0  0  0  0  0
  -23.7528   -0.3977  -13.7044 C   0  0  0  0  0  0  0  0  0  0  0  0
  -24.6448   -0.9100  -14.7760 C   0  0  0  0  0  0  0  0  0  0  0  0
  -25.7771   -1.5122  -14.3918 C   0  0  0  0  0  0  0  0  0  0  0  0
  -26.0669   -1.6225  -13.0139 C   0  0  0  0  0  0  0  0  0  0  0  0
  -27.0915   -2.1639  -12.3900 N   0  0  0  0  0  0  0  0  0  0  0  0
  -26.8377   -1.9758  -11.0557 C   0  0  0  0  0  0  0  0  0  0  0  0
  -25.6469   -1.3104  -10.8695 C   0  0  0  0  0  0  0  0  0  0  0  0
  -25.1443   -1.0864  -12.1249 N   0  0  0  0  0  0  0  0  0  0  0  0
  -23.9590   -0.4609  -12.4261 N   0  0  0  0  0  0  0  0  0  0  0  0
 13 14  1  0  0  0
 14 15  1  0  0  0
 14 19  2  0  0  0
 15 16  2  0  0  0
 16 17  1  0  0  0
 17 18  2  0  0  0
 18  7  1  0  0  0
 18 19  1  0  0  0
  7  8  1  0  0  0
  7 11  1  0  0  0
  8  9  2  0  0  0
  8 10  1  0  0  0
 10  1  1  0  0  0
 10 12  1  0  0  0
  1  2  1  0  0  0
  1  6  2  0  0  0
  2  3  2  0  0  0
  3  4  1  0  0  0
  4 20  1  0  0  0
  4  5  2  0  0  0
 20 21  3  0  0  0
 21 22  1  0  0  0
 22 23  1  0  0  0
 22 30  2  0  0  0
 23 24  2  0  0  0
 24 25  1  0  0  0
 25 26  2  0  0  0
 25 29  1  0  0  0
 26 27  1  0  0  0
 27 28  2  0  0  0
 28 29  1  0  0  0
 29 30  1  0  0  0
  5  6  1  0  0  0
M  END
> <minimizedAffinity>
-9.40596

$$$$
