CHEMBL1991429


 45 51  0  0  0  0  0  0  0  0999 V2000
  -13.7619    0.3382  -17.4182 C   0  0  0  0  0  0  0  0  0  0  0  0
  -13.8729    0.0565  -18.7738 N   0  0  0  0  0  0  0  0  0  0  0  0
  -13.3139   -1.1099  -18.8849 C   0  0  0  0  0  0  0  0  0  0  0  0
  -12.9987   -2.1794  -20.2159 S   0  0  0  0  0  0  0  0  0  0  0  0
  -12.2458   -3.3082  -19.0848 C   0  0  0  0  0  0  0  0  0  0  0  0
  -12.2677   -2.8686  -17.8154 C   0  0  0  0  0  0  0  0  0  0  0  0
  -12.8595   -1.6220  -17.7067 N   0  0  0  0  0  0  0  0  0  0  0  0
  -13.1413   -0.7064  -16.7134 C   0  0  0  0  0  0  0  0  0  0  0  0
  -16.0705    3.1095  -16.2546 C   0  0  0  0  0  0  0  0  0  0  0  0
  -15.1323    4.0323  -15.7922 C   0  0  0  0  0  0  0  0  0  0  0  0
  -13.7650    3.7520  -15.8692 C   0  0  0  0  0  0  0  0  0  0  0  0
  -13.3244    2.5468  -16.4135 C   0  0  0  0  0  0  0  0  0  0  0  0
  -14.2462    1.6069  -16.8873 C   0  0  0  0  0  0  0  0  0  0  0  0
  -15.6165    1.8945  -16.7843 C   0  0  0  0  0  0  0  0  0  0  0  0
  -17.9974    2.6434  -14.0410 O   0  0  0  0  0  0  0  0  0  0  0  0
  -18.3233    3.0548  -15.1510 C   0  0  0  0  0  0  0  0  0  0  0  0
  -17.4681    3.3074  -16.2117 N   0  0  0  0  0  0  0  0  0  0  0  0
  -17.8871    3.7170  -17.0393 H   0  0  0  0  0  0  0  0  0  0  0  0
  -19.7881    3.2665  -15.4964 C   0  0  0  0  0  0  0  0  0  0  0  0
  -20.8006    2.2964  -14.9272 C   0  0  0  0  0  0  0  0  0  0  0  0
  -20.6902    0.9024  -15.0049 C   0  0  0  0  0  0  0  0  0  0  0  0
  -21.6372    0.0810  -14.3846 C   0  0  0  0  0  0  0  0  0  0  0  0
  -22.7181    0.6364  -13.7044 C   0  0  0  0  0  0  0  0  0  0  0  0
  -22.8633    2.0180  -13.6510 C   0  0  0  0  0  0  0  0  0  0  0  0
  -21.9115    2.8401  -14.2558 C   0  0  0  0  0  0  0  0  0  0  0  0
  -12.8644   -0.9091  -15.2940 C   0  0  0  0  0  0  0  0  0  0  0  0
  -11.6618   -0.5755  -14.7142 C   0  0  0  0  0  0  0  0  0  0  0  0
  -11.5389   -0.8787  -13.3857 C   0  0  0  0  0  0  0  0  0  0  0  0
  -12.5252   -1.4299  -12.6697 N   0  0  0  0  0  0  0  0  0  0  0  0
  -13.6893   -1.6763  -13.2929 C   0  0  0  0  0  0  0  0  0  0  0  0
  -13.8875   -1.4398  -14.5943 N   0  0  0  0  0  0  0  0  0  0  0  0
  -14.7567   -2.1912  -12.5557 N   0  0  0  0  0  0  0  0  0  0  0  0
  -15.4941   -1.5005  -12.4911 H   0  0  0  0  0  0  0  0  0  0  0  0
  -15.2156   -3.5222  -12.6002 C   0  0  0  0  0  0  0  0  0  0  0  0
  -16.3606   -3.8814  -11.8908 C   0  0  0  0  0  0  0  0  0  0  0  0
  -16.7753   -5.2114  -11.8622 C   0  0  0  0  0  0  0  0  0  0  0  0
  -16.0782   -6.1863  -12.5846 C   0  0  0  0  0  0  0  0  0  0  0  0
  -14.9653   -5.8508  -13.3598 C   0  0  0  0  0  0  0  0  0  0  0  0
  -14.5466   -4.5129  -13.3430 C   0  0  0  0  0  0  0  0  0  0  0  0
  -14.2798   -6.8092  -14.1546 N   0  0  0  0  0  0  0  0  0  0  0  0
  -13.6155   -6.4673  -15.3914 C   0  0  0  0  0  0  0  0  0  0  0  0
  -13.4234   -7.7996  -16.0902 C   0  0  0  0  0  0  0  0  0  0  0  0
  -13.2578   -8.7768  -14.9447 C   0  0  0  0  0  0  0  0  0  0  0  0
  -14.0784   -8.1597  -13.8377 C   0  0  0  0  0  0  0  0  0  0  0  0
  -14.4250   -8.7796  -12.8439 O   0  0  0  0  0  0  0  0  0  0  0  0
 15 16  2  0  0  0
 16 19  1  0  0  0
 16 17  1  0  0  0
 19 20  1  0  0  0
 20 21  1  0  0  0
 20 25  2  0  0  0
 21 22  2  0  0  0
 22 23  1  0  0  0
 23 24  2  0  0  0
 24 25  1  0  0  0
 17  9  1  0  0  0
 17 18  1  0  0  0
  9 10  1  0  0  0
  9 14  2  0  0  0
 10 11  2  0  0  0
 11 12  1  0  0  0
 12 13  2  0  0  0
 13  1  1  0  0  0
 13 14  1  0  0  0
  1  2  1  0  0  0
  1  8  2  0  0  0
  2  3  2  0  0  0
  3  4  1  0  0  0
  3  7  1  0  0  0
  4  5  1  0  0  0
  5  6  2  0  0  0
  6  7  1  0  0  0
  7  8  1  0  0  0
  8 26  1  0  0  0
 26 27  1  0  0  0
 26 31  2  0  0  0
 27 28  2  0  0  0
 28 29  1  0  0  0
 29 30  2  0  0  0
 30 32  1  0  0  0
 30 31  1  0  0  0
 32 34  1  0  0  0
 32 33  1  0  0  0
 34 35  1  0  0  0
 34 39  2  0  0  0
 35 36  2  0  0  0
 36 37  1  0  0  0
 37 38  2  0  0  0
 38 40  1  0  0  0
 38 39  1  0  0  0
 40 41  1  0  0  0
 40 44  1  0  0  0
 41 42  1  0  0  0
 42 43  1  0  0  0
 43 44  1  0  0  0
 44 45  2  0  0  0
M  END
> <minimizedAffinity>
-10.18435

$$$$
