CHEMBL2016917


 31 35  0  0  0  0  0  0  0  0999 V2000
  -24.2287   -0.5550  -15.1059 O   0  0  0  0  0  0  0  0  0  0  0  0
  -24.0521   -0.8373  -13.9178 C   0  0  0  0  0  0  0  0  0  0  0  0
  -25.1032   -1.2248  -13.0746 N   0  0  0  0  0  0  0  0  0  0  0  0
  -26.4279   -1.3373  -13.7252 C   0  0  0  0  0  0  0  0  0  0  0  0
  -27.5486   -2.0407  -12.9476 C   0  0  0  0  0  0  0  0  0  0  0  0
  -27.3373   -1.9378  -11.4961 C   0  0  0  0  0  0  0  0  0  0  0  0
  -28.2306   -2.3363  -10.5460 N   0  0  0  0  0  0  0  0  0  0  0  0
  -27.6538   -2.0742   -9.3809 C   0  0  0  0  0  0  0  0  0  0  0  0
  -26.4054   -1.5186   -9.5818 N   0  0  0  0  0  0  0  0  0  0  0  0
  -26.1917   -1.4491  -10.9328 C   0  0  0  0  0  0  0  0  0  0  0  0
  -24.9993   -0.9531  -11.6283 C   0  0  0  0  0  0  0  0  0  0  0  0
  -25.7821   -1.2162   -8.8386 H   0  0  0  0  0  0  0  0  0  0  0  0
  -28.1468   -2.2736   -8.0601 C   0  0  0  0  0  0  0  0  0  0  0  0
  -28.7447   -3.4446   -7.7740 C   0  0  0  0  0  0  0  0  0  0  0  0
  -29.3195   -3.7033   -6.4541 C   0  0  0  0  0  0  0  0  0  0  0  0
  -29.9272   -4.9221   -6.1528 C   0  0  0  0  0  0  0  0  0  0  0  0
  -30.4878   -5.1284   -4.8851 C   0  0  0  0  0  0  0  0  0  0  0  0
  -30.4385   -4.1149   -3.9273 C   0  0  0  0  0  0  0  0  0  0  0  0
  -29.8286   -2.8984   -4.2254 C   0  0  0  0  0  0  0  0  0  0  0  0
  -29.2667   -2.6973   -5.4855 C   0  0  0  0  0  0  0  0  0  0  0  0
  -28.6337   -1.4855   -5.7873 N   0  0  0  0  0  0  0  0  0  0  0  0
  -28.0442   -1.2181   -6.9970 C   0  0  0  0  0  0  0  0  0  0  0  0
  -27.4634   -0.1503   -7.1926 O   0  0  0  0  0  0  0  0  0  0  0  0
  -28.5760   -0.7556   -5.0897 H   0  0  0  0  0  0  0  0  0  0  0  0
  -22.6331   -0.8363  -13.3298 C   0  0  0  0  0  0  0  0  0  0  0  0
  -21.9977    0.4832  -13.5331 N   0  0  0  0  0  0  0  0  0  0  0  0
  -21.0551    0.4508  -14.6651 C   0  0  0  0  0  0  0  0  0  0  0  0
  -20.3381    1.7877  -14.8146 C   0  0  0  0  0  0  0  0  0  0  0  0
  -21.3313    2.9326  -14.9592 C   0  0  0  0  0  0  0  0  0  0  0  0
  -22.3391    2.9044  -13.8171 C   0  0  0  0  0  0  0  0  0  0  0  0
  -23.0064    1.5330  -13.7000 C   0  0  0  0  0  0  0  0  0  0  0  0
  1  2  2  0  0  0
  2 25  1  0  0  0
  2  3  1  0  0  0
 25 26  1  0  0  0
 26 27  1  0  0  0
 26 31  1  0  0  0
 27 28  1  0  0  0
 28 29  1  0  0  0
 29 30  1  0  0  0
 30 31  1  0  0  0
  3  4  1  0  0  0
  3 11  1  0  0  0
  4  5  1  0  0  0
  5  6  1  0  0  0
  6  7  1  0  0  0
  6 10  2  0  0  0
  7  8  2  0  0  0
  8 13  1  0  0  0
  8  9  1  0  0  0
 13 14  2  0  0  0
 13 22  1  0  0  0
 14 15  1  0  0  0
 15 16  1  0  0  0
 15 20  2  0  0  0
 16 17  2  0  0  0
 17 18  1  0  0  0
 18 19  2  0  0  0
 19 20  1  0  0  0
 20 21  1  0  0  0
 21 22  1  0  0  0
 21 24  1  0  0  0
 22 23  2  0  0  0
  9 10  1  0  0  0
  9 12  1  0  0  0
 10 11  1  0  0  0
M  END
> <minimizedAffinity>
-10.01803

$$$$
