CHEMBL3622952


 31 35  0  0  0  0  0  0  0  0999 V2000
  -19.4952    2.1850  -15.0069 C   0  0  0  0  0  0  0  0  0  0  0  0
  -20.1489    3.3639  -14.7165 C   0  0  0  0  0  0  0  0  0  0  0  0
  -21.4448    3.2305  -14.3038 C   0  0  0  0  0  0  0  0  0  0  0  0
  -22.0542    2.0434  -14.1520 N   0  0  0  0  0  0  0  0  0  0  0  0
  -21.3570    0.9345  -14.4322 C   0  0  0  0  0  0  0  0  0  0  0  0
  -20.0861    0.9605  -14.8832 N   0  0  0  0  0  0  0  0  0  0  0  0
  -15.0077    0.7879  -16.2522 C   0  0  0  0  0  0  0  0  0  0  0  0
  -16.1473    1.7035  -15.9628 C   0  0  0  0  0  0  0  0  0  0  0  0
  -17.3013    1.2133  -15.5006 N   0  0  0  0  0  0  0  0  0  0  0  0
  -18.1524    2.2749  -15.5001 N   0  0  0  0  0  0  0  0  0  0  0  0
  -17.5440    3.3970  -16.0127 C   0  0  0  0  0  0  0  0  0  0  0  0
  -16.1986    3.1113  -16.1657 C   0  0  0  0  0  0  0  0  0  0  0  0
  -15.0713    3.9891  -16.6081 C   0  0  0  0  0  0  0  0  0  0  0  0
  -14.5862    3.6877  -17.9712 N   0  0  0  0  0  0  0  0  0  0  0  0
  -13.3750    4.4299  -18.4127 C   0  0  0  0  0  0  0  0  0  0  0  0
  -14.2582    5.6149  -18.8505 C   0  0  0  0  0  0  0  0  0  0  0  0
  -14.4467    6.6947  -17.9024 O   0  0  0  0  0  0  0  0  0  0  0  0
  -15.3653    4.5306  -18.9397 C   0  0  0  0  0  0  0  0  0  0  0  0
  -13.8448    6.4922  -17.1590 H   0  0  0  0  0  0  0  0  0  0  0  0
  -21.9308   -0.3327  -14.2792 N   0  0  0  0  0  0  0  0  0  0  0  0
  -21.7066   -0.8914  -15.0890 H   0  0  0  0  0  0  0  0  0  0  0  0
  -22.9917   -0.8081  -13.4828 C   0  0  0  0  0  0  0  0  0  0  0  0
  -22.9287   -0.9489  -12.0932 C   0  0  0  0  0  0  0  0  0  0  0  0
  -24.0411   -1.3265  -11.3185 C   0  0  0  0  0  0  0  0  0  0  0  0
  -25.2602   -1.5356  -11.9763 C   0  0  0  0  0  0  0  0  0  0  0  0
  -25.3554   -1.4612  -13.3668 C   0  0  0  0  0  0  0  0  0  0  0  0
  -26.7137   -1.7030  -13.7097 C   0  0  0  0  0  0  0  0  0  0  0  0
  -27.4179   -1.8744  -12.5388 C   0  0  0  0  0  0  0  0  0  0  0  0
  -26.5234   -1.8254  -11.5029 N   0  0  0  0  0  0  0  0  0  0  0  0
  -26.8827   -2.0236  -10.1153 C   0  0  0  0  0  0  0  0  0  0  0  0
  -24.2004   -1.1503  -14.1189 C   0  0  0  0  0  0  0  0  0  0  0  0
  7  8  1  0  0  0
  8  9  2  0  0  0
  8 12  1  0  0  0
  9 10  1  0  0  0
 10  1  1  0  0  0
 10 11  1  0  0  0
  1  2  1  0  0  0
  1  6  2  0  0  0
  2  3  2  0  0  0
  3  4  1  0  0  0
  4  5  2  0  0  0
  5 20  1  0  0  0
  5  6  1  0  0  0
 20 22  1  0  0  0
 20 21  1  0  0  0
 22 23  1  0  0  0
 22 31  2  0  0  0
 23 24  2  0  0  0
 24 25  1  0  0  0
 25 26  2  0  0  0
 25 29  1  0  0  0
 26 27  1  0  0  0
 26 31  1  0  0  0
 27 28  2  0  0  0
 28 29  1  0  0  0
 29 30  1  0  0  0
 11 12  2  0  0  0
 12 13  1  0  0  0
 13 14  1  0  0  0
 14 15  1  0  0  0
 14 18  1  0  0  0
 15 16  1  0  0  0
 16 17  1  0  0  0
 16 18  1  0  0  0
 17 19  1  0  0  0
M  END
> <minimizedAffinity>
-9.99250

$$$$
