CHEMBL3401983


 34 38  0  0  0  0  0  0  0  0999 V2000
  -29.9946   -7.8544   -7.7875 C   0  0  0  0  0  0  0  0  0  0  0  0
  -29.2874   -6.9124   -7.1388 N   0  0  0  0  0  0  0  0  0  0  0  0
  -29.9024   -6.2927   -6.1116 C   0  0  0  0  0  0  0  0  0  0  0  0
  -31.1621   -6.5372   -5.6918 N   0  0  0  0  0  0  0  0  0  0  0  0
  -31.8430   -7.4716   -6.3717 C   0  0  0  0  0  0  0  0  0  0  0  0
  -31.3063   -8.1515   -7.4312 C   0  0  0  0  0  0  0  0  0  0  0  0
  -31.9991   -9.1171   -8.0524 F   0  0  0  0  0  0  0  0  0  0  0  0
  -29.1417   -5.3508   -5.3075 C   0  0  0  0  0  0  0  0  0  0  0  0
  -28.7580   -5.5518   -3.9918 C   0  0  0  0  0  0  0  0  0  0  0  0
  -28.0495   -4.4534   -3.5746 N   0  0  0  0  0  0  0  0  0  0  0  0
  -27.9712   -3.5398   -4.5917 C   0  0  0  0  0  0  0  0  0  0  0  0
  -27.3433   -2.3496   -4.5058 N   0  0  0  0  0  0  0  0  0  0  0  0
  -27.4272   -1.6363   -5.6590 C   0  0  0  0  0  0  0  0  0  0  0  0
  -28.0763   -2.0382   -6.8145 C   0  0  0  0  0  0  0  0  0  0  0  0
  -28.1003   -1.2449   -7.8932 F   0  0  0  0  0  0  0  0  0  0  0  0
  -28.7096   -3.2711   -6.8515 C   0  0  0  0  0  0  0  0  0  0  0  0
  -28.6484   -4.0644   -5.6887 C   0  0  0  0  0  0  0  0  0  0  0  0
  -27.6393   -4.3160   -2.6634 H   0  0  0  0  0  0  0  0  0  0  0  0
  -29.4450   -8.5257   -8.9007 N   0  0  0  0  0  0  0  0  0  0  0  0
  -30.1502   -8.5118   -9.6363 H   0  0  0  0  0  0  0  0  0  0  0  0
  -27.3473   -9.8103   -8.5559 C   0  0  0  0  0  0  0  0  0  0  0  0
  -26.6935  -10.6661   -9.6730 C   0  0  0  0  0  0  0  0  0  0  0  0
  -27.1807  -12.1289   -9.6539 C   0  0  0  0  0  0  0  0  0  0  0  0
  -28.7121  -12.1791   -9.6271 C   0  0  0  0  0  0  0  0  0  0  0  0
  -29.2802  -10.7714   -9.8693 C   0  0  0  0  0  0  0  0  0  0  0  0
  -28.6618  -10.2308  -11.1799 C   0  0  0  0  0  0  0  0  0  0  0  0
  -27.1443  -10.0679  -11.0220 C   0  0  0  0  0  0  0  0  0  0  0  0
  -28.8875   -9.8721   -8.6564 C   0  0  0  0  0  0  0  0  0  0  0  0
  -27.1277   -8.8554   -6.0173 N   0  0  0  0  0  0  0  0  0  0  0  0
  -26.8124  -10.2605   -6.8866 S   0  0  0  0  0  0  0  0  0  0  0  0
  -25.3771  -10.4490   -6.8242 O   0  0  0  0  0  0  0  0  0  0  0  0
  -27.7251  -11.2097   -6.3007 O   0  0  0  0  0  0  0  0  0  0  0  0
  -26.3968   -8.7334   -5.3112 H   0  0  0  0  0  0  0  0  0  0  0  0
  -28.0525   -8.9355   -5.5866 H   0  0  0  0  0  0  0  0  0  0  0  0
 29 30  1  0  0  0
 29 33  1  0  0  0
 29 34  1  0  0  0
 30 31  2  0  0  0
 30 32  2  0  0  0
 30 21  1  0  0  0
 21 22  1  0  0  0
 21 28  1  0  0  0
 22 23  1  0  0  0
 22 27  1  0  0  0
 23 24  1  0  0  0
 24 25  1  0  0  0
 25 26  1  0  0  0
 25 28  1  0  0  0
 26 27  1  0  0  0
 28 19  1  0  0  0
 19  1  1  0  0  0
 19 20  1  0  0  0
  1  2  1  0  0  0
  1  6  2  0  0  0
  2  3  2  0  0  0
  3  8  1  0  0  0
  3  4  1  0  0  0
  8  9  2  0  0  0
  8 17  1  0  0  0
  9 10  1  0  0  0
 10 11  1  0  0  0
 10 18  1  0  0  0
 11 12  1  0  0  0
 11 17  2  0  0  0
 12 13  2  0  0  0
 13 14  1  0  0  0
 14 15  1  0  0  0
 14 16  2  0  0  0
 16 17  1  0  0  0
  4  5  2  0  0  0
  5  6  1  0  0  0
  6  7  1  0  0  0
M  END
> <minimizedAffinity>
-9.10021

$$$$
