CHEMBL3694655


 37 40  0  0  0  0  0  0  0  0999 V2000
  -23.7722   -0.0766  -14.1316 C   0  0  0  0  0  0  0  0  0  0  0  0
  -24.3873   -0.8505  -15.1075 C   0  0  0  0  0  0  0  0  0  0  0  0
  -25.3872   -1.6333  -14.6000 N   0  0  0  0  0  0  0  0  0  0  0  0
  -25.4132   -1.3595  -13.3164 C   0  0  0  0  0  0  0  0  0  0  0  0
  -26.2216   -1.8979  -12.2752 C   0  0  0  0  0  0  0  0  0  0  0  0
  -26.0946   -1.4398  -11.0140 C   0  0  0  0  0  0  0  0  0  0  0  0
  -25.1529   -0.3739  -10.7001 C   0  0  0  0  0  0  0  0  0  0  0  0
  -24.3964    0.1457  -11.6806 C   0  0  0  0  0  0  0  0  0  0  0  0
  -24.4910   -0.3682  -12.9773 N   0  0  0  0  0  0  0  0  0  0  0  0
  -20.2513    1.1952  -14.8211 C   0  0  0  0  0  0  0  0  0  0  0  0
  -20.4451    2.5646  -14.6556 C   0  0  0  0  0  0  0  0  0  0  0  0
  -21.6925    3.0598  -14.2744 C   0  0  0  0  0  0  0  0  0  0  0  0
  -22.7614    2.1894  -14.0624 C   0  0  0  0  0  0  0  0  0  0  0  0
  -22.6080    0.8112  -14.2562 C   0  0  0  0  0  0  0  0  0  0  0  0
  -21.3447    0.3344  -14.6477 C   0  0  0  0  0  0  0  0  0  0  0  0
  -17.5711    1.5595  -13.5950 O   0  0  0  0  0  0  0  0  0  0  0  0
  -17.7995    0.8248  -14.5450 C   0  0  0  0  0  0  0  0  0  0  0  0
  -16.7967    0.0744  -15.1264 N   0  0  0  0  0  0  0  0  0  0  0  0
  -19.0109    0.6087  -15.1575 N   0  0  0  0  0  0  0  0  0  0  0  0
  -16.9191   -0.1403  -16.1058 H   0  0  0  0  0  0  0  0  0  0  0  0
  -19.0225   -0.0827  -15.8911 H   0  0  0  0  0  0  0  0  0  0  0  0
  -15.4127    0.3034  -14.6916 C   0  0  0  0  0  0  0  0  0  0  0  0
  -14.9191   -0.6375  -13.5836 C   0  0  0  0  0  0  0  0  0  0  0  0
  -13.5706   -0.6103  -13.4638 F   0  0  0  0  0  0  0  0  0  0  0  0
  -15.4545   -0.3458  -12.3815 F   0  0  0  0  0  0  0  0  0  0  0  0
  -15.2565   -1.9175  -13.8804 F   0  0  0  0  0  0  0  0  0  0  0  0
  -26.9071   -1.9591   -9.9709 C   0  0  0  0  0  0  0  0  0  0  0  0
  -27.5937   -2.3685   -9.0793 C   0  0  0  0  0  0  0  0  0  0  0  0
  -28.4249   -2.8123   -8.0163 C   0  0  0  0  0  0  0  0  0  0  0  0
  -29.1778   -3.8922   -8.0920 N   0  0  0  0  0  0  0  0  0  0  0  0
  -29.7947   -3.9993   -6.8720 C   0  0  0  0  0  0  0  0  0  0  0  0
  -29.4228   -2.9656   -6.0473 C   0  0  0  0  0  0  0  0  0  0  0  0
  -28.5490   -2.2164   -6.7884 N   0  0  0  0  0  0  0  0  0  0  0  0
  -27.8512   -1.0348   -6.3178 C   0  0  0  0  0  0  0  0  0  0  0  0
  -28.7502    0.1944   -6.2246 C   0  0  0  0  0  0  0  0  0  0  0  0
  -28.0131    1.4018   -6.3876 O   0  0  0  0  0  0  0  0  0  0  0  0
  -27.5758    1.5959   -5.5378 H   0  0  0  0  0  0  0  0  0  0  0  0
 16 17  2  0  0  0
 17 18  1  0  0  0
 17 19  1  0  0  0
 18 22  1  0  0  0
 18 20  1  0  0  0
 22 23  1  0  0  0
 23 24  1  0  0  0
 23 25  1  0  0  0
 23 26  1  0  0  0
 19 10  1  0  0  0
 19 21  1  0  0  0
 10 11  1  0  0  0
 10 15  2  0  0  0
 11 12  2  0  0  0
 12 13  1  0  0  0
 13 14  2  0  0  0
 14  1  1  0  0  0
 14 15  1  0  0  0
  1  2  2  0  0  0
  1  9  1  0  0  0
  2  3  1  0  0  0
  3  4  2  0  0  0
  4  5  1  0  0  0
  4  9  1  0  0  0
  5  6  2  0  0  0
  6 27  1  0  0  0
  6  7  1  0  0  0
 27 28  3  0  0  0
 28 29  1  0  0  0
 29 30  2  0  0  0
 29 33  1  0  0  0
 30 31  1  0  0  0
 31 32  2  0  0  0
 32 33  1  0  0  0
 33 34  1  0  0  0
 34 35  1  0  0  0
 35 36  1  0  0  0
 36 37  1  0  0  0
  7  8  2  0  0  0
  8  9  1  0  0  0
M  END
> <minimizedAffinity>
-9.50052

$$$$
