CHEMBL179522


 35 38  0  0  0  0  0  0  0  0999 V2000
  -18.9808    2.6000  -14.7345 C   0  0  0  0  0  0  0  0  0  0  0  0
  -20.2122    2.9854  -14.2170 C   0  0  0  0  0  0  0  0  0  0  0  0
  -21.2340    2.0401  -14.0940 C   0  0  0  0  0  0  0  0  0  0  0  0
  -21.0801    0.7333  -14.5707 C   0  0  0  0  0  0  0  0  0  0  0  0
  -19.8986    0.4119  -15.2498 C   0  0  0  0  0  0  0  0  0  0  0  0
  -18.8529    1.3422  -15.3278 C   0  0  0  0  0  0  0  0  0  0  0  0
  -22.0349   -0.2976  -14.3537 N   0  0  0  0  0  0  0  0  0  0  0  0
  -23.2168   -0.1604  -13.6598 C   0  0  0  0  0  0  0  0  0  0  0  0
  -23.6754    0.8976  -13.2444 O   0  0  0  0  0  0  0  0  0  0  0  0
  -23.8431   -1.3784  -13.4292 N   0  0  0  0  0  0  0  0  0  0  0  0
  -21.8345   -1.1989  -14.7460 H   0  0  0  0  0  0  0  0  0  0  0  0
  -23.2150   -2.1441  -13.2171 H   0  0  0  0  0  0  0  0  0  0  0  0
  -25.0788   -1.4036  -12.7264 C   0  0  0  0  0  0  0  0  0  0  0  0
  -25.1274   -1.3769  -11.3283 C   0  0  0  0  0  0  0  0  0  0  0  0
  -26.3483   -1.5180  -10.6772 C   0  0  0  0  0  0  0  0  0  0  0  0
  -26.3869   -1.5093   -9.3384 F   0  0  0  0  0  0  0  0  0  0  0  0
  -27.5294   -1.6833  -11.3937 C   0  0  0  0  0  0  0  0  0  0  0  0
  -27.4932   -1.6773  -12.7886 C   0  0  0  0  0  0  0  0  0  0  0  0
  -26.2728   -1.5161  -13.4446 C   0  0  0  0  0  0  0  0  0  0  0  0
  -26.2422   -1.5444  -14.7855 F   0  0  0  0  0  0  0  0  0  0  0  0
  -17.8377    3.3611  -14.6630 O   0  0  0  0  0  0  0  0  0  0  0  0
  -13.5789    0.2791  -14.5658 C   0  0  0  0  0  0  0  0  0  0  0  0
  -13.6228    1.0546  -15.7361 C   0  0  0  0  0  0  0  0  0  0  0  0
  -14.6534    1.9450  -16.0146 C   0  0  0  0  0  0  0  0  0  0  0  0
  -14.5348    2.7032  -17.1155 N   0  0  0  0  0  0  0  0  0  0  0  0
  -15.4886    3.6196  -17.3656 C   0  0  0  0  0  0  0  0  0  0  0  0
  -16.5776    3.8317  -16.5462 C   0  0  0  0  0  0  0  0  0  0  0  0
  -16.7121    3.0475  -15.4085 C   0  0  0  0  0  0  0  0  0  0  0  0
  -15.7488    2.0295  -15.1362 C   0  0  0  0  0  0  0  0  0  0  0  0
  -15.7745    1.1101  -14.0577 C   0  0  0  0  0  0  0  0  0  0  0  0
  -14.6803    0.3051  -13.7135 C   0  0  0  0  0  0  0  0  0  0  0  0
  -11.5299   -0.6688  -15.2964 C   0  0  0  0  0  0  0  0  0  0  0  0
  -12.5137   -0.5304  -14.2690 O   0  0  0  0  0  0  0  0  0  0  0  0
  -14.8867   -0.3350  -12.5253 O   0  0  0  0  0  0  0  0  0  0  0  0
  -15.5461   -1.5892  -12.4832 C   0  0  0  0  0  0  0  0  0  0  0  0
 32 33  1  0  0  0
 33 22  1  0  0  0
 22 23  1  0  0  0
 22 31  2  0  0  0
 23 24  2  0  0  0
 24 25  1  0  0  0
 24 29  1  0  0  0
 25 26  2  0  0  0
 26 27  1  0  0  0
 27 28  2  0  0  0
 28 21  1  0  0  0
 28 29  1  0  0  0
 21  1  1  0  0  0
  1  2  1  0  0  0
  1  6  2  0  0  0
  2  3  2  0  0  0
  3  4  1  0  0  0
  4  7  1  0  0  0
  4  5  2  0  0  0
  7  8  1  0  0  0
  7 11  1  0  0  0
  8  9  2  0  0  0
  8 10  1  0  0  0
 10 13  1  0  0  0
 10 12  1  0  0  0
 13 14  1  0  0  0
 13 19  2  0  0  0
 14 15  2  0  0  0
 15 16  1  0  0  0
 15 17  1  0  0  0
 17 18  2  0  0  0
 18 19  1  0  0  0
 19 20  1  0  0  0
  5  6  1  0  0  0
 29 30  2  0  0  0
 30 31  1  0  0  0
 31 34  1  0  0  0
 34 35  1  0  0  0
M  END
> <minimizedAffinity>
-9.71544

$$$$
