CHEMBL200499


 26 29  0  0  0  0  0  0  0  0999 V2000
  -28.4400   -3.0741   -7.6155 C   0  0  0  0  0  0  0  0  0  0  0  0
  -29.1250   -4.2549   -8.0126 C   0  0  0  0  0  0  0  0  0  0  0  0
  -29.3787   -5.1256   -6.9147 C   0  0  0  0  0  0  0  0  0  0  0  0
  -29.8950   -6.3133   -6.4832 C   0  0  0  0  0  0  0  0  0  0  0  0
  -29.6267   -6.2776   -5.1023 N   0  0  0  0  0  0  0  0  0  0  0  0
  -29.0157   -5.1353   -4.6742 N   0  0  0  0  0  0  0  0  0  0  0  0
  -28.8809   -4.4888   -5.7897 C   0  0  0  0  0  0  0  0  0  0  0  0
  -28.1277   -2.9400   -5.8637 S   0  0  0  0  0  0  0  0  0  0  0  0
  -29.8208   -7.0020   -4.4190 H   0  0  0  0  0  0  0  0  0  0  0  0
  -30.5310   -7.4542   -7.1270 C   0  0  0  0  0  0  0  0  0  0  0  0
  -29.8100   -8.2729   -8.0021 C   0  0  0  0  0  0  0  0  0  0  0  0
  -30.4076   -9.3973   -8.5785 C   0  0  0  0  0  0  0  0  0  0  0  0
  -31.7341   -9.7106   -8.2896 C   0  0  0  0  0  0  0  0  0  0  0  0
  -32.4706   -8.8930   -7.4377 C   0  0  0  0  0  0  0  0  0  0  0  0
  -31.8736   -7.7716   -6.8593 C   0  0  0  0  0  0  0  0  0  0  0  0
  -27.5804   -0.9145   -8.0315 O   0  0  0  0  0  0  0  0  0  0  0  0
  -27.9824   -1.9855   -8.4807 C   0  0  0  0  0  0  0  0  0  0  0  0
  -28.0449   -2.2273   -9.8454 N   0  0  0  0  0  0  0  0  0  0  0  0
  -28.5463   -3.0443  -10.1667 H   0  0  0  0  0  0  0  0  0  0  0  0
  -27.7020   -1.1907  -10.7947 C   0  0  0  0  0  0  0  0  0  0  0  0
  -26.4524   -1.4840  -11.5873 C   0  0  0  0  0  0  0  0  0  0  0  0
  -26.4976   -1.6052  -12.9853 C   0  0  0  0  0  0  0  0  0  0  0  0
  -25.3249   -1.7729  -13.7277 C   0  0  0  0  0  0  0  0  0  0  0  0
  -24.0903   -1.8145  -13.0842 C   0  0  0  0  0  0  0  0  0  0  0  0
  -24.0304   -1.6929  -11.6963 C   0  0  0  0  0  0  0  0  0  0  0  0
  -25.2005   -1.5283  -10.9541 C   0  0  0  0  0  0  0  0  0  0  0  0
 16 17  2  0  0  0
 17 18  1  0  0  0
 17  1  1  0  0  0
 18 20  1  0  0  0
 18 19  1  0  0  0
 20 21  1  0  0  0
 21 22  1  0  0  0
 21 26  2  0  0  0
 22 23  2  0  0  0
 23 24  1  0  0  0
 24 25  2  0  0  0
 25 26  1  0  0  0
  1  2  2  0  0  0
  1  8  1  0  0  0
  2  3  1  0  0  0
  3  4  2  0  0  0
  3  7  1  0  0  0
  4 10  1  0  0  0
  4  5  1  0  0  0
 10 11  1  0  0  0
 10 15  2  0  0  0
 11 12  2  0  0  0
 12 13  1  0  0  0
 13 14  2  0  0  0
 14 15  1  0  0  0
  5  6  1  0  0  0
  5  9  1  0  0  0
  6  7  2  0  0  0
  7  8  1  0  0  0
M  END
> <minimizedAffinity>
-9.23248

$$$$
