CHEMBL4170680


 44 49  0  0  0  0  0  0  0  0999 V2000
  -18.4953    2.3308  -15.0141 C   0  0  0  0  0  0  0  0  0  0  0  0
  -18.4625    1.2572  -14.0951 C   0  0  0  0  0  0  0  0  0  0  0  0
  -17.3298    0.4216  -13.9893 C   0  0  0  0  0  0  0  0  0  0  0  0
  -16.2415    0.6589  -14.8126 C   0  0  0  0  0  0  0  0  0  0  0  0
  -16.2927    1.7440  -15.6989 C   0  0  0  0  0  0  0  0  0  0  0  0
  -17.3776    2.5894  -15.8137 C   0  0  0  0  0  0  0  0  0  0  0  0
  -15.1412    1.8123  -16.4686 N   0  0  0  0  0  0  0  0  0  0  0  0
  -14.2895    0.7595  -16.1950 C   0  0  0  0  0  0  0  0  0  0  0  0
  -13.3330    0.4429  -16.8771 O   0  0  0  0  0  0  0  0  0  0  0  0
  -14.9151    0.0316  -15.0200 C   0  0  0  0  0  0  0  0  0  0  0  0
  -14.2785   -0.9867  -14.3958 C   0  0  0  0  0  0  0  0  0  0  0  0
  -14.9883    2.4401  -17.2433 H   0  0  0  0  0  0  0  0  0  0  0  0
  -15.0115   -1.8819  -13.4796 C   0  0  0  0  0  0  0  0  0  0  0  0
  -15.6695   -3.0055  -14.0030 C   0  0  0  0  0  0  0  0  0  0  0  0
  -16.3216   -3.8986  -13.1528 C   0  0  0  0  0  0  0  0  0  0  0  0
  -16.3215   -3.6747  -11.7787 C   0  0  0  0  0  0  0  0  0  0  0  0
  -15.6673   -2.5608  -11.2496 C   0  0  0  0  0  0  0  0  0  0  0  0
  -15.0063   -1.6697  -12.0962 C   0  0  0  0  0  0  0  0  0  0  0  0
  -19.6869    3.1953  -15.2201 C   0  0  0  0  0  0  0  0  0  0  0  0
  -19.6152    4.4061  -15.3587 O   0  0  0  0  0  0  0  0  0  0  0  0
  -21.8411    2.9085  -14.3761 C   0  0  0  0  0  0  0  0  0  0  0  0
  -20.8253    2.4592  -15.2778 O   0  0  0  0  0  0  0  0  0  0  0  0
  -12.9405   -1.3657  -14.5189 N   0  0  0  0  0  0  0  0  0  0  0  0
  -12.4308   -1.2539  -13.6470 H   0  0  0  0  0  0  0  0  0  0  0  0
  -12.5242   -2.4953  -15.2616 C   0  0  0  0  0  0  0  0  0  0  0  0
  -12.9468   -2.6932  -16.5780 C   0  0  0  0  0  0  0  0  0  0  0  0
  -12.6012   -3.8508  -17.2853 C   0  0  0  0  0  0  0  0  0  0  0  0
  -11.8475   -4.8645  -16.6918 C   0  0  0  0  0  0  0  0  0  0  0  0
  -11.3787   -4.6411  -15.3865 C   0  0  0  0  0  0  0  0  0  0  0  0
  -11.6940   -3.4619  -14.6914 C   0  0  0  0  0  0  0  0  0  0  0  0
  -11.5901   -6.0886  -17.3710 N   0  0  0  0  0  0  0  0  0  0  0  0
  -11.2606   -6.2152  -18.7314 C   0  0  0  0  0  0  0  0  0  0  0  0
  -11.0579   -5.3429  -19.5612 O   0  0  0  0  0  0  0  0  0  0  0  0
  -11.1870   -7.6851  -19.0595 C   0  0  0  0  0  0  0  0  0  0  0  0
  -11.0532   -8.3416  -17.7010 C   0  0  0  0  0  0  0  0  0  0  0  0
  -11.7895   -7.3945  -16.7562 C   0  0  0  0  0  0  0  0  0  0  0  0
  -13.2964   -7.7666  -16.6044 C   0  0  0  0  0  0  0  0  0  0  0  0
  -13.7124   -7.9997  -15.2070 N   0  0  0  0  0  0  0  0  0  0  0  0
  -12.5726   -8.0297  -14.2719 C   0  0  0  0  0  0  0  0  0  0  0  0
  -13.0296   -8.2941  -12.8192 C   0  0  0  0  0  0  0  0  0  0  0  0
  -14.0261   -7.3395  -12.3018 N   0  0  0  0  0  0  0  0  0  0  0  0
  -13.4206   -6.0421  -11.9984 C   0  0  0  0  0  0  0  0  0  0  0  0
  -15.1276   -7.2157  -13.2797 C   0  0  0  0  0  0  0  0  0  0  0  0
  -14.6907   -6.9879  -14.7509 C   0  0  0  0  0  0  0  0  0  0  0  0
 21 22  1  0  0  0
 22 19  1  0  0  0
 19 20  2  0  0  0
 19  1  1  0  0  0
  1  2  1  0  0  0
  1  6  2  0  0  0
  2  3  2  0  0  0
  3  4  1  0  0  0
  4  5  2  0  0  0
  4 10  1  0  0  0
  5  6  1  0  0  0
  5  7  1  0  0  0
  7  8  1  0  0  0
  7 12  1  0  0  0
  8  9  2  0  0  0
  8 10  1  0  0  0
 10 11  2  0  0  0
 11 23  1  0  0  0
 11 13  1  0  0  0
 23 25  1  0  0  0
 23 24  1  0  0  0
 25 26  1  0  0  0
 25 30  2  0  0  0
 26 27  2  0  0  0
 27 28  1  0  0  0
 28 31  1  0  0  0
 28 29  2  0  0  0
 31 32  1  0  0  0
 31 36  1  0  0  0
 32 33  2  0  0  0
 32 34  1  0  0  0
 34 35  1  0  0  0
 35 36  1  0  0  0
 36 37  1  0  0  0
 37 38  1  0  0  0
 38 39  1  0  0  0
 38 44  1  0  0  0
 39 40  1  0  0  0
 40 41  1  0  0  0
 41 42  1  0  0  0
 41 43  1  0  0  0
 43 44  1  0  0  0
 29 30  1  0  0  0
 13 14  1  0  0  0
 13 18  2  0  0  0
 14 15  2  0  0  0
 15 16  1  0  0  0
 16 17  2  0  0  0
 17 18  1  0  0  0
M  END
> <minimizedAffinity>
-7.52164

$$$$
