CHEMBL2004118


 27 30  0  0  0  0  0  0  0  0999 V2000
  -15.4047   -0.2599  -12.7293 N   0  0  0  0  0  0  0  0  0  0  0  0
  -15.3516    0.1169  -11.7965 H   0  0  0  0  0  0  0  0  0  0  0  0
  -17.6762    1.8033  -14.6133 C   0  0  0  0  0  0  0  0  0  0  0  0
  -17.1675    0.8918  -13.7286 N   0  0  0  0  0  0  0  0  0  0  0  0
  -15.8339    0.7084  -13.6389 C   0  0  0  0  0  0  0  0  0  0  0  0
  -14.9220    1.3483  -14.3865 N   0  0  0  0  0  0  0  0  0  0  0  0
  -15.4443    2.2009  -15.2622 C   0  0  0  0  0  0  0  0  0  0  0  0
  -14.7095    2.9411  -16.1424 N   0  0  0  0  0  0  0  0  0  0  0  0
  -15.5532    3.6931  -16.9183 C   0  0  0  0  0  0  0  0  0  0  0  0
  -16.8458    3.4358  -16.5044 C   0  0  0  0  0  0  0  0  0  0  0  0
  -16.7821    2.4843  -15.4484 C   0  0  0  0  0  0  0  0  0  0  0  0
  -13.7011    2.9079  -16.1965 H   0  0  0  0  0  0  0  0  0  0  0  0
  -19.8428    0.7159  -15.1852 C   0  0  0  0  0  0  0  0  0  0  0  0
  -19.1686    1.9694  -14.6534 C   0  0  0  0  0  0  0  0  0  0  0  0
  -15.1115   -1.6115  -12.9371 C   0  0  0  0  0  0  0  0  0  0  0  0
  -13.8865   -1.9889  -13.4803 C   0  0  0  0  0  0  0  0  0  0  0  0
  -13.5387   -3.3455  -13.6056 C   0  0  0  0  0  0  0  0  0  0  0  0
  -14.3841   -4.3904  -13.1827 C   0  0  0  0  0  0  0  0  0  0  0  0
  -15.6041   -3.9854  -12.5994 C   0  0  0  0  0  0  0  0  0  0  0  0
  -16.7076   -5.0839  -11.8225 Cl  0  0  0  0  0  0  0  0  0  0  0  0
  -15.9602   -2.6331  -12.5079 C   0  0  0  0  0  0  0  0  0  0  0  0
  -14.0007   -5.7094  -13.3519 N   0  0  0  0  0  0  0  0  0  0  0  0
  -14.5660   -6.5970  -14.3792 C   0  0  0  0  0  0  0  0  0  0  0  0
  -15.2020   -7.8307  -13.7203 C   0  0  0  0  0  0  0  0  0  0  0  0
  -14.2646   -8.5185  -12.8752 O   0  0  0  0  0  0  0  0  0  0  0  0
  -13.8057   -7.6439  -11.8336 C   0  0  0  0  0  0  0  0  0  0  0  0
  -13.1139   -6.3923  -12.3944 C   0  0  0  0  0  0  0  0  0  0  0  0
 13 14  1  0  0  0
 14  3  1  0  0  0
  3  4  1  0  0  0
  3 11  2  0  0  0
  4  5  2  0  0  0
  5  1  1  0  0  0
  5  6  1  0  0  0
  1 15  1  0  0  0
  1  2  1  0  0  0
 15 16  1  0  0  0
 15 21  2  0  0  0
 16 17  2  0  0  0
 17 18  1  0  0  0
 18 22  1  0  0  0
 18 19  2  0  0  0
 22 23  1  0  0  0
 22 27  1  0  0  0
 23 24  1  0  0  0
 24 25  1  0  0  0
 25 26  1  0  0  0
 26 27  1  0  0  0
 19 20  1  0  0  0
 19 21  1  0  0  0
  6  7  2  0  0  0
  7  8  1  0  0  0
  7 11  1  0  0  0
  8  9  1  0  0  0
  8 12  1  0  0  0
  9 10  2  0  0  0
 10 11  1  0  0  0
M  END
> <minimizedAffinity>
-7.47346

$$$$
