CHEMBL496150


 33 37  0  0  0  0  0  0  0  0999 V2000
  -18.7297    2.2345  -15.4159 C   0  0  0  0  0  0  0  0  0  0  0  0
  -19.4699    3.3767  -15.0503 C   0  0  0  0  0  0  0  0  0  0  0  0
  -20.7768    3.3153  -14.5463 C   0  0  0  0  0  0  0  0  0  0  0  0
  -21.3173    2.0435  -14.4087 C   0  0  0  0  0  0  0  0  0  0  0  0
  -22.5139    1.5714  -13.9555 N   0  0  0  0  0  0  0  0  0  0  0  0
  -22.4681    0.1985  -13.9374 C   0  0  0  0  0  0  0  0  0  0  0  0
  -21.3357   -0.2254  -14.4872 N   0  0  0  0  0  0  0  0  0  0  0  0
  -20.6214    0.8940  -14.7629 C   0  0  0  0  0  0  0  0  0  0  0  0
  -19.3447    0.9890  -15.3036 C   0  0  0  0  0  0  0  0  0  0  0  0
  -23.3062    2.1283  -13.6274 H   0  0  0  0  0  0  0  0  0  0  0  0
  -23.5521   -0.5807  -13.4549 C   0  0  0  0  0  0  0  0  0  0  0  0
  -24.5611   -0.9038  -14.3026 C   0  0  0  0  0  0  0  0  0  0  0  0
  -24.5429   -0.6518  -15.6801 N   0  0  0  0  0  0  0  0  0  0  0  0
  -25.8125   -1.4604  -13.7273 C   0  0  0  0  0  0  0  0  0  0  0  0
  -26.9695   -1.6838  -14.4928 C   0  0  0  0  0  0  0  0  0  0  0  0
  -28.1715   -2.0581  -13.8852 C   0  0  0  0  0  0  0  0  0  0  0  0
  -28.2258   -2.2584  -12.5090 C   0  0  0  0  0  0  0  0  0  0  0  0
  -27.0774   -2.0996  -11.7384 C   0  0  0  0  0  0  0  0  0  0  0  0
  -25.8885   -1.6883  -12.3449 C   0  0  0  0  0  0  0  0  0  0  0  0
  -24.7628   -1.4784  -11.5431 N   0  0  0  0  0  0  0  0  0  0  0  0
  -23.5893   -0.9878  -12.0159 C   0  0  0  0  0  0  0  0  0  0  0  0
  -22.6140   -0.8476  -11.2671 O   0  0  0  0  0  0  0  0  0  0  0  0
  -23.7940    0.0175  -15.9149 H   0  0  0  0  0  0  0  0  0  0  0  0
  -25.4196   -0.3208  -16.0544 H   0  0  0  0  0  0  0  0  0  0  0  0
  -24.7942   -1.6883  -10.5539 H   0  0  0  0  0  0  0  0  0  0  0  0
  -15.3107    3.2599  -16.3607 C   0  0  0  0  0  0  0  0  0  0  0  0
  -15.1523    1.9782  -15.5242 C   0  0  0  0  0  0  0  0  0  0  0  0
  -16.4631    1.2320  -15.8174 C   0  0  0  0  0  0  0  0  0  0  0  0
  -17.4439    2.3094  -15.8890 N   0  0  0  0  0  0  0  0  0  0  0  0
  -16.8135    3.5768  -16.1760 C   0  0  0  0  0  0  0  0  0  0  0  0
  -14.1116    5.1546  -17.2473 C   0  0  0  0  0  0  0  0  0  0  0  0
  -14.5117    4.4528  -16.0173 N   0  0  0  0  0  0  0  0  0  0  0  0
  -13.3426    4.1984  -15.1880 C   0  0  0  0  0  0  0  0  0  0  0  0
 31 32  1  0  0  0
 32 33  1  0  0  0
 26 27  1  0  0  0
 26 30  1  0  0  0
 26 32  1  0  0  0
 27 28  1  0  0  0
 28 29  1  0  0  0
 29  1  1  0  0  0
 29 30  1  0  0  0
  1  2  1  0  0  0
  1  9  2  0  0  0
  2  3  2  0  0  0
  3  4  1  0  0  0
  4  5  1  0  0  0
  4  8  2  0  0  0
  5  6  1  0  0  0
  5 10  1  0  0  0
  6 11  1  0  0  0
  6  7  2  0  0  0
 11 12  2  0  0  0
 11 21  1  0  0  0
 12 13  1  0  0  0
 12 14  1  0  0  0
 13 23  1  0  0  0
 13 24  1  0  0  0
 14 15  1  0  0  0
 14 19  2  0  0  0
 15 16  2  0  0  0
 16 17  1  0  0  0
 17 18  2  0  0  0
 18 19  1  0  0  0
 19 20  1  0  0  0
 20 21  1  0  0  0
 20 25  1  0  0  0
 21 22  2  0  0  0
  7  8  1  0  0  0
  8  9  1  0  0  0
M  END
> <minimizedAffinity>
-9.90578

$$$$
