CHEMBL3781261


 40 44  0  0  0  0  0  0  0  0999 V2000
  -28.2756   -1.6086   -8.5663 N   0  0  0  0  0  0  0  0  0  0  0  0
  -29.0917   -1.0090   -8.6344 H   0  0  0  0  0  0  0  0  0  0  0  0
  -28.9675   -5.2344   -6.6733 C   0  0  0  0  0  0  0  0  0  0  0  0
  -28.6938   -5.1748   -7.9909 N   0  0  0  0  0  0  0  0  0  0  0  0
  -28.5467   -3.9746   -8.5954 N   0  0  0  0  0  0  0  0  0  0  0  0
  -28.6269   -2.8175   -7.9065 C   0  0  0  0  0  0  0  0  0  0  0  0
  -29.0036   -2.8197   -6.5433 C   0  0  0  0  0  0  0  0  0  0  0  0
  -29.1715   -1.6465   -5.7593 C   0  0  0  0  0  0  0  0  0  0  0  0
  -29.5739   -1.7052   -4.4219 C   0  0  0  0  0  0  0  0  0  0  0  0
  -29.8077   -2.9356   -3.8269 C   0  0  0  0  0  0  0  0  0  0  0  0
  -29.6177   -4.1060   -4.5629 C   0  0  0  0  0  0  0  0  0  0  0  0
  -29.2104   -4.0741   -5.9171 C   0  0  0  0  0  0  0  0  0  0  0  0
  -28.8713   -6.6215   -6.0931 C   0  0  0  0  0  0  0  0  0  0  0  0
  -31.5686   -9.6183   -7.6699 C   0  0  0  0  0  0  0  0  0  0  0  0
  -32.0808   -8.4176   -7.1796 C   0  0  0  0  0  0  0  0  0  0  0  0
  -31.2237   -7.4437   -6.6533 C   0  0  0  0  0  0  0  0  0  0  0  0
  -29.8423   -7.6644   -6.5924 C   0  0  0  0  0  0  0  0  0  0  0  0
  -29.3334   -8.8596   -7.1211 C   0  0  0  0  0  0  0  0  0  0  0  0
  -30.1899   -9.8269   -7.6497 C   0  0  0  0  0  0  0  0  0  0  0  0
  -31.5987  -11.8641   -8.4351 C   0  0  0  0  0  0  0  0  0  0  0  0
  -32.2979  -10.6493   -8.1947 O   0  0  0  0  0  0  0  0  0  0  0  0
  -27.4706   -1.5059   -9.7308 C   0  0  0  0  0  0  0  0  0  0  0  0
  -26.1046   -1.7337   -9.6269 C   0  0  0  0  0  0  0  0  0  0  0  0
  -25.2689   -1.5787  -10.7383 C   0  0  0  0  0  0  0  0  0  0  0  0
  -25.7642   -1.1974  -11.9907 C   0  0  0  0  0  0  0  0  0  0  0  0
  -27.1446   -1.0793  -12.1274 C   0  0  0  0  0  0  0  0  0  0  0  0
  -27.9837   -1.2567  -11.0135 C   0  0  0  0  0  0  0  0  0  0  0  0
  -24.9350   -0.9227  -13.1117 N   0  0  0  0  0  0  0  0  0  0  0  0
  -23.8782   -0.0311  -13.0988 C   0  0  0  0  0  0  0  0  0  0  0  0
  -23.5482    0.6211  -12.1172 O   0  0  0  0  0  0  0  0  0  0  0  0
  -23.2206    0.0790  -14.3170 N   0  0  0  0  0  0  0  0  0  0  0  0
  -25.1833   -1.3536  -13.9854 H   0  0  0  0  0  0  0  0  0  0  0  0
  -23.7647   -0.0976  -15.1468 H   0  0  0  0  0  0  0  0  0  0  0  0
  -22.0451    0.8689  -14.4652 C   0  0  0  0  0  0  0  0  0  0  0  0
  -22.0564    2.2566  -14.2712 C   0  0  0  0  0  0  0  0  0  0  0  0
  -20.9386    3.0404  -14.5558 C   0  0  0  0  0  0  0  0  0  0  0  0
  -19.7725    2.4289  -14.9910 C   0  0  0  0  0  0  0  0  0  0  0  0
  -18.4044    3.3947  -15.3818 Cl  0  0  0  0  0  0  0  0  0  0  0  0
  -19.7141    1.0408  -15.1141 C   0  0  0  0  0  0  0  0  0  0  0  0
  -20.8462    0.2569  -14.8440 C   0  0  0  0  0  0  0  0  0  0  0  0
 20 21  1  0  0  0
 21 14  1  0  0  0
 14 15  1  0  0  0
 14 19  2  0  0  0
 15 16  2  0  0  0
 16 17  1  0  0  0
 17 13  1  0  0  0
 17 18  2  0  0  0
 13  3  1  0  0  0
  3  4  1  0  0  0
  3 12  2  0  0  0
  4  5  2  0  0  0
  5  6  1  0  0  0
  6  1  1  0  0  0
  6  7  2  0  0  0
  1 22  1  0  0  0
  1  2  1  0  0  0
 22 23  1  0  0  0
 22 27  2  0  0  0
 23 24  2  0  0  0
 24 25  1  0  0  0
 25 28  1  0  0  0
 25 26  2  0  0  0
 28 29  1  0  0  0
 28 32  1  0  0  0
 29 30  2  0  0  0
 29 31  1  0  0  0
 31 34  1  0  0  0
 31 33  1  0  0  0
 34 35  1  0  0  0
 34 40  2  0  0  0
 35 36  2  0  0  0
 36 37  1  0  0  0
 37 38  1  0  0  0
 37 39  2  0  0  0
 39 40  1  0  0  0
 26 27  1  0  0  0
  7  8  1  0  0  0
  7 12  1  0  0  0
  8  9  2  0  0  0
  9 10  1  0  0  0
 10 11  2  0  0  0
 11 12  1  0  0  0
 18 19  1  0  0  0
M  END
> <minimizedAffinity>
-10.43438

$$$$
