CHEMBL1242567


 26 29  0  0  0  0  0  0  0  0999 V2000
  -26.7257   -6.7663   -4.1980 N   0  0  0  0  0  0  0  0  0  0  0  0
  -27.3686   -7.8555   -4.7716 C   0  0  0  0  0  0  0  0  0  0  0  0
  -26.6842   -9.0156   -4.7285 N   0  0  0  0  0  0  0  0  0  0  0  0
  -27.2574  -10.1223   -5.2269 C   0  0  0  0  0  0  0  0  0  0  0  0
  -28.4717  -10.2336   -5.7754 N   0  0  0  0  0  0  0  0  0  0  0  0
  -29.1199   -9.0557   -5.8320 C   0  0  0  0  0  0  0  0  0  0  0  0
  -28.6446   -7.8383   -5.3603 C   0  0  0  0  0  0  0  0  0  0  0  0
  -29.6824   -6.8978   -5.6599 C   0  0  0  0  0  0  0  0  0  0  0  0
  -30.7297   -7.5086   -6.2401 N   0  0  0  0  0  0  0  0  0  0  0  0
  -30.3599   -8.8021   -6.3644 N   0  0  0  0  0  0  0  0  0  0  0  0
  -25.9094   -7.0841   -3.6841 H   0  0  0  0  0  0  0  0  0  0  0  0
  -27.3343   -6.1437   -3.6813 H   0  0  0  0  0  0  0  0  0  0  0  0
  -29.7347   -5.4474   -5.4264 C   0  0  0  0  0  0  0  0  0  0  0  0
  -29.6872   -4.5355   -6.4927 C   0  0  0  0  0  0  0  0  0  0  0  0
  -29.7055   -3.1557   -6.2633 C   0  0  0  0  0  0  0  0  0  0  0  0
  -29.8339   -2.6852   -4.9656 C   0  0  0  0  0  0  0  0  0  0  0  0
  -29.8765   -1.3655   -4.7343 F   0  0  0  0  0  0  0  0  0  0  0  0
  -29.9368   -3.5730   -3.9010 C   0  0  0  0  0  0  0  0  0  0  0  0
  -30.1077   -3.1147   -2.6254 O   0  0  0  0  0  0  0  0  0  0  0  0
  -29.8762   -4.9461   -4.1198 C   0  0  0  0  0  0  0  0  0  0  0  0
  -30.2012   -2.1448   -2.6823 H   0  0  0  0  0  0  0  0  0  0  0  0
  -31.2523   -9.7172   -7.0274 C   0  0  0  0  0  0  0  0  0  0  0  0
  -30.9146   -9.9573   -8.5136 C   0  0  0  0  0  0  0  0  0  0  0  0
  -32.3681   -9.9401   -8.8117 N   0  0  0  0  0  0  0  0  0  0  0  0
  -32.5603   -9.1209   -7.5891 C   0  0  0  0  0  0  0  0  0  0  0  0
  -32.8060  -10.8606   -8.7539 H   0  0  0  0  0  0  0  0  0  0  0  0
  1  2  1  0  0  0
  1 11  1  0  0  0
  1 12  1  0  0  0
  2  3  1  0  0  0
  2  7  2  0  0  0
  3  4  2  0  0  0
  4  5  1  0  0  0
  5  6  2  0  0  0
  6  7  1  0  0  0
  6 10  1  0  0  0
  7  8  1  0  0  0
  8 13  1  0  0  0
  8  9  2  0  0  0
 13 14  1  0  0  0
 13 20  2  0  0  0
 14 15  2  0  0  0
 15 16  1  0  0  0
 16 17  1  0  0  0
 16 18  2  0  0  0
 18 19  1  0  0  0
 18 20  1  0  0  0
 19 21  1  0  0  0
  9 10  1  0  0  0
 10 22  1  0  0  0
 22 23  1  0  0  0
 22 25  1  0  0  0
 23 24  1  0  0  0
 24 25  1  0  0  0
 24 26  1  0  0  0
M  END
> <minimizedAffinity>
-7.78859

$$$$
