CHEMBL1765781


 38 42  0  0  0  0  0  0  0  0999 V2000
  -16.0892   -0.7386  -14.2891 N   0  0  0  0  0  0  0  0  0  0  0  0
  -15.3173   -0.7772  -13.1417 C   0  0  0  0  0  0  0  0  0  0  0  0
  -15.1322    0.1870  -12.3955 O   0  0  0  0  0  0  0  0  0  0  0  0
  -16.2325   -1.5851  -14.8369 H   0  0  0  0  0  0  0  0  0  0  0  0
  -18.7840    1.8376  -14.8984 C   0  0  0  0  0  0  0  0  0  0  0  0
  -18.1282    2.6620  -15.7339 C   0  0  0  0  0  0  0  0  0  0  0  0
  -16.8371    2.3947  -16.1294 N   0  0  0  0  0  0  0  0  0  0  0  0
  -16.1215    1.2792  -15.7428 C   0  0  0  0  0  0  0  0  0  0  0  0
  -14.9945    1.0318  -16.1679 O   0  0  0  0  0  0  0  0  0  0  0  0
  -16.7920    0.3714  -14.7459 C   0  0  0  0  0  0  0  0  0  0  0  0
  -18.0364    0.7080  -14.3644 C   0  0  0  0  0  0  0  0  0  0  0  0
  -16.3786    3.0120  -16.7887 H   0  0  0  0  0  0  0  0  0  0  0  0
  -22.2516    1.2294  -13.8606 C   0  0  0  0  0  0  0  0  0  0  0  0
  -22.7493    2.5354  -13.8470 C   0  0  0  0  0  0  0  0  0  0  0  0
  -22.0331    3.6204  -14.2172 N   0  0  0  0  0  0  0  0  0  0  0  0
  -20.7590    3.3512  -14.5750 C   0  0  0  0  0  0  0  0  0  0  0  0
  -20.2173    2.0634  -14.5748 C   0  0  0  0  0  0  0  0  0  0  0  0
  -20.9706    0.9881  -14.2212 N   0  0  0  0  0  0  0  0  0  0  0  0
  -23.8741   -0.5175  -14.3889 C   0  0  0  0  0  0  0  0  0  0  0  0
  -22.9775    0.1218  -13.4525 N   0  0  0  0  0  0  0  0  0  0  0  0
  -22.3575   -0.4898  -12.9279 H   0  0  0  0  0  0  0  0  0  0  0  0
  -14.6602   -2.0423  -12.7291 C   0  0  0  0  0  0  0  0  0  0  0  0
  -15.3140   -3.1589  -12.2146 C   0  0  0  0  0  0  0  0  0  0  0  0
  -14.5935   -4.3579  -12.0286 C   0  0  0  0  0  0  0  0  0  0  0  0
  -13.2298   -4.4858  -12.3599 C   0  0  0  0  0  0  0  0  0  0  0  0
  -12.5915   -3.3142  -12.7864 C   0  0  0  0  0  0  0  0  0  0  0  0
  -13.2896   -2.1263  -12.9839 C   0  0  0  0  0  0  0  0  0  0  0  0
  -12.5257   -5.6754  -12.2698 N   0  0  0  0  0  0  0  0  0  0  0  0
  -12.3811   -6.5421  -13.4507 C   0  0  0  0  0  0  0  0  0  0  0  0
  -12.8072   -7.9108  -12.9486 C   0  0  0  0  0  0  0  0  0  0  0  0
  -12.2395   -7.9337  -11.5407 C   0  0  0  0  0  0  0  0  0  0  0  0
  -12.4559   -6.4935  -11.0316 C   0  0  0  0  0  0  0  0  0  0  0  0
  -11.2958   -5.9919  -10.1266 C   0  0  0  0  0  0  0  0  0  0  0  0
  -11.6414   -5.5928   -8.7445 N   0  0  0  0  0  0  0  0  0  0  0  0
  -12.9796   -4.9975   -8.6232 C   0  0  0  0  0  0  0  0  0  0  0  0
  -12.7895   -3.5140   -8.8715 C   0  0  0  0  0  0  0  0  0  0  0  0
  -11.4556   -3.2273   -8.2154 C   0  0  0  0  0  0  0  0  0  0  0  0
  -10.7022   -4.5535   -8.2638 C   0  0  0  0  0  0  0  0  0  0  0  0
 19 20  1  0  0  0
 20 13  1  0  0  0
 20 21  1  0  0  0
 13 14  1  0  0  0
 13 18  2  0  0  0
 14 15  2  0  0  0
 15 16  1  0  0  0
 16 17  2  0  0  0
 17  5  1  0  0  0
 17 18  1  0  0  0
  5  6  2  0  0  0
  5 11  1  0  0  0
  6  7  1  0  0  0
  7  8  1  0  0  0
  7 12  1  0  0  0
  8  9  2  0  0  0
  8 10  1  0  0  0
 10  1  1  0  0  0
 10 11  2  0  0  0
  1  2  1  0  0  0
  1  4  1  0  0  0
  2  3  2  0  0  0
  2 22  1  0  0  0
 22 23  1  0  0  0
 22 27  2  0  0  0
 23 24  2  0  0  0
 24 25  1  0  0  0
 25 28  1  0  0  0
 25 26  2  0  0  0
 28 29  1  0  0  0
 28 32  1  0  0  0
 29 30  1  0  0  0
 30 31  1  0  0  0
 31 32  1  0  0  0
 32 33  1  0  0  0
 33 34  1  0  0  0
 34 35  1  0  0  0
 34 38  1  0  0  0
 35 36  1  0  0  0
 36 37  1  0  0  0
 37 38  1  0  0  0
 26 27  1  0  0  0
M  END
> <minimizedAffinity>
-8.83573

$$$$
