CHEMBL3910555


 37 40  0  0  0  0  0  0  0  0999 V2000
  -16.8501    1.9883  -15.0008 N   0  0  0  0  0  0  0  0  0  0  0  0
  -18.2907    1.8800  -15.1462 C   0  0  0  0  0  0  0  0  0  0  0  0
  -18.9233    3.0800  -15.4711 C   0  0  0  0  0  0  0  0  0  0  0  0
  -20.2413    3.2869  -15.1194 C   0  0  0  0  0  0  0  0  0  0  0  0
  -21.0112    2.2882  -14.5840 C   0  0  0  0  0  0  0  0  0  0  0  0
  -22.1942    2.7067  -14.1175 N   0  0  0  0  0  0  0  0  0  0  0  0
  -23.0558    1.7668  -13.7325 C   0  0  0  0  0  0  0  0  0  0  0  0
  -22.7928    0.4169  -13.8801 C   0  0  0  0  0  0  0  0  0  0  0  0
  -21.5320   -0.0206  -14.2450 N   0  0  0  0  0  0  0  0  0  0  0  0
  -20.5645    0.9408  -14.5481 C   0  0  0  0  0  0  0  0  0  0  0  0
  -19.1336    0.7894  -14.7913 C   0  0  0  0  0  0  0  0  0  0  0  0
  -23.9562   -0.4564  -13.7961 C   0  0  0  0  0  0  0  0  0  0  0  0
  -24.7653   -0.9960  -14.8460 C   0  0  0  0  0  0  0  0  0  0  0  0
  -25.9250   -1.5130  -14.4157 N   0  0  0  0  0  0  0  0  0  0  0  0
  -25.8890   -1.3003  -13.0901 N   0  0  0  0  0  0  0  0  0  0  0  0
  -26.8618   -1.9242  -12.2217 C   0  0  0  0  0  0  0  0  0  0  0  0
  -24.8196   -0.5352  -12.7032 C   0  0  0  0  0  0  0  0  0  0  0  0
  -14.3958    1.4312  -17.8010 C   0  0  0  0  0  0  0  0  0  0  0  0
  -13.8140    2.6950  -17.9204 C   0  0  0  0  0  0  0  0  0  0  0  0
  -14.2305    3.7216  -17.0745 C   0  0  0  0  0  0  0  0  0  0  0  0
  -15.2553    3.4780  -16.1310 C   0  0  0  0  0  0  0  0  0  0  0  0
  -15.8770    2.2183  -16.0028 C   0  0  0  0  0  0  0  0  0  0  0  0
  -15.4031    1.2031  -16.8441 C   0  0  0  0  0  0  0  0  0  0  0  0
  -13.3566   -2.0112  -19.0138 C   0  0  0  0  0  0  0  0  0  0  0  0
  -13.8006   -0.9248  -18.1741 N   0  0  0  0  0  0  0  0  0  0  0  0
  -14.0503    0.3139  -18.7226 C   0  0  0  0  0  0  0  0  0  0  0  0
  -13.9928    0.5256  -19.9316 O   0  0  0  0  0  0  0  0  0  0  0  0
  -13.9993   -1.1171  -17.2007 H   0  0  0  0  0  0  0  0  0  0  0  0
  -13.7100    4.9921  -17.0806 O   0  0  0  0  0  0  0  0  0  0  0  0
  -12.8578    5.3581  -15.9947 C   0  0  0  0  0  0  0  0  0  0  0  0
  -16.4266    1.1396  -13.8122 C   0  0  0  0  0  0  0  0  0  0  0  0
  -14.9584    0.6184  -13.8111 C   0  0  0  0  0  0  0  0  0  0  0  0
  -14.2360    0.9798  -12.6204 O   0  0  0  0  0  0  0  0  0  0  0  0
  -14.8656    0.9994  -11.8814 H   0  0  0  0  0  0  0  0  0  0  0  0
  -14.9440   -0.9245  -13.8928 C   0  0  0  0  0  0  0  0  0  0  0  0
  -14.1297   -1.3704  -14.9804 O   0  0  0  0  0  0  0  0  0  0  0  0
  -14.6288   -1.1817  -15.7958 H   0  0  0  0  0  0  0  0  0  0  0  0
 24 25  1  0  0  0
 25 26  1  0  0  0
 25 28  1  0  0  0
 26 27  2  0  0  0
 26 18  1  0  0  0
 18 19  1  0  0  0
 18 23  2  0  0  0
 19 20  2  0  0  0
 20 29  1  0  0  0
 20 21  1  0  0  0
 29 30  1  0  0  0
 21 22  2  0  0  0
 22  1  1  0  0  0
 22 23  1  0  0  0
  1 31  1  0  0  0
  1  2  1  0  0  0
 31 32  1  0  0  0
 32 33  1  0  0  0
 32 35  1  0  0  0
 33 34  1  0  0  0
 35 36  1  0  0  0
 36 37  1  0  0  0
  2  3  1  0  0  0
  2 11  2  0  0  0
  3  4  2  0  0  0
  4  5  1  0  0  0
  5  6  1  0  0  0
  5 10  2  0  0  0
  6  7  2  0  0  0
  7  8  1  0  0  0
  8 12  1  0  0  0
  8  9  2  0  0  0
 12 13  1  0  0  0
 12 17  2  0  0  0
 13 14  2  0  0  0
 14 15  1  0  0  0
 15 16  1  0  0  0
 15 17  1  0  0  0
  9 10  1  0  0  0
 10 11  1  0  0  0
M  END
> <minimizedAffinity>
-8.87594

$$$$
