CHEMBL3957739


 32 34  0  0  0  0  0  0  0  0999 V2000
  -15.5741    2.6073  -16.2538 C   0  0  0  0  0  0  0  0  0  0  0  0
  -15.8589    1.3536  -15.7180 C   0  0  0  0  0  0  0  0  0  0  0  0
  -17.1680    1.0459  -15.3414 C   0  0  0  0  0  0  0  0  0  0  0  0
  -18.1482    2.0252  -15.4508 C   0  0  0  0  0  0  0  0  0  0  0  0
  -17.8595    3.2676  -15.8814 N   0  0  0  0  0  0  0  0  0  0  0  0
  -16.5943    3.5391  -16.2686 C   0  0  0  0  0  0  0  0  0  0  0  0
  -19.4635    1.6799  -15.1132 N   0  0  0  0  0  0  0  0  0  0  0  0
  -20.3294    2.4974  -14.4305 C   0  0  0  0  0  0  0  0  0  0  0  0
  -20.0771    3.6156  -13.9876 O   0  0  0  0  0  0  0  0  0  0  0  0
  -21.5979    1.9546  -14.2458 N   0  0  0  0  0  0  0  0  0  0  0  0
  -22.5928    2.7683  -13.5858 C   0  0  0  0  0  0  0  0  0  0  0  0
  -23.8052    1.8733  -13.5498 C   0  0  0  0  0  0  0  0  0  0  0  0
  -23.2161    0.5435  -13.4737 N   0  0  0  0  0  0  0  0  0  0  0  0
  -21.9506    0.5929  -14.1120 C   0  0  0  0  0  0  0  0  0  0  0  0
  -21.2984   -0.3516  -14.5246 O   0  0  0  0  0  0  0  0  0  0  0  0
  -19.8158    0.7758  -15.4007 H   0  0  0  0  0  0  0  0  0  0  0  0
  -24.0169   -0.6718  -13.2013 C   0  0  0  0  0  0  0  0  0  0  0  0
  -24.6657   -1.1962  -14.4905 C   0  0  0  0  0  0  0  0  0  0  0  0
  -23.1219   -1.7685  -12.5905 C   0  0  0  0  0  0  0  0  0  0  0  0
  -25.1324   -0.3817  -12.1727 C   0  0  0  0  0  0  0  0  0  0  0  0
  -14.3534    2.9918  -16.7485 O   0  0  0  0  0  0  0  0  0  0  0  0
  -12.2637    5.4366  -14.9742 C   0  0  0  0  0  0  0  0  0  0  0  0
  -13.2818    4.9720  -15.7897 C   0  0  0  0  0  0  0  0  0  0  0  0
  -13.4528    3.5957  -15.8981 C   0  0  0  0  0  0  0  0  0  0  0  0
  -12.6973    2.7470  -15.0964 C   0  0  0  0  0  0  0  0  0  0  0  0
  -11.7328    3.3069  -14.2741 C   0  0  0  0  0  0  0  0  0  0  0  0
  -11.4746    4.6324  -14.2082 N   0  0  0  0  0  0  0  0  0  0  0  0
  -12.3437    9.0411  -16.1088 C   0  0  0  0  0  0  0  0  0  0  0  0
  -12.5593    7.6274  -15.9711 N   0  0  0  0  0  0  0  0  0  0  0  0
  -11.9617    6.9036  -14.9636 C   0  0  0  0  0  0  0  0  0  0  0  0
  -11.2466    7.4019  -14.1010 O   0  0  0  0  0  0  0  0  0  0  0  0
  -13.1481    7.1147  -16.6222 H   0  0  0  0  0  0  0  0  0  0  0  0
 28 29  1  0  0  0
 29 30  1  0  0  0
 29 32  1  0  0  0
 30 31  2  0  0  0
 30 22  1  0  0  0
 22 23  1  0  0  0
 22 27  2  0  0  0
 23 24  2  0  0  0
 24 21  1  0  0  0
 24 25  1  0  0  0
 21  1  1  0  0  0
  1  2  1  0  0  0
  1  6  2  0  0  0
  2  3  2  0  0  0
  3  4  1  0  0  0
  4  7  1  0  0  0
  4  5  2  0  0  0
  7  8  1  0  0  0
  7 16  1  0  0  0
  8  9  2  0  0  0
  8 10  1  0  0  0
 10 11  1  0  0  0
 10 14  1  0  0  0
 11 12  1  0  0  0
 12 13  1  0  0  0
 13 17  1  0  0  0
 13 14  1  0  0  0
 17 18  1  0  0  0
 17 19  1  0  0  0
 17 20  1  0  0  0
 14 15  2  0  0  0
  5  6  1  0  0  0
 25 26  2  0  0  0
 26 27  1  0  0  0
M  END
> <minimizedAffinity>
-8.13601

$$$$
