CHEMBL230413


 33 35  0  0  0  0  0  0  0  0999 V2000
  -29.0152   -2.2870   -5.3861 C   0  0  0  0  0  0  0  0  0  0  0  0
  -29.8179   -2.3624   -4.2681 C   0  0  0  0  0  0  0  0  0  0  0  0
  -30.4432   -3.5630   -4.2517 N   0  0  0  0  0  0  0  0  0  0  0  0
  -31.2480   -3.9513   -3.2547 N   0  0  0  0  0  0  0  0  0  0  0  0
  -31.6859   -5.1570   -3.3763 C   0  0  0  0  0  0  0  0  0  0  0  0
  -31.3989   -6.0187   -4.3924 N   0  0  0  0  0  0  0  0  0  0  0  0
  -30.6487   -5.6404   -5.3919 C   0  0  0  0  0  0  0  0  0  0  0  0
  -30.0926   -4.3038   -5.3528 C   0  0  0  0  0  0  0  0  0  0  0  0
  -29.2025   -3.5338   -6.1252 C   0  0  0  0  0  0  0  0  0  0  0  0
  -28.4170   -3.8219   -7.4028 C   0  0  0  0  0  0  0  0  0  0  0  0
  -28.4190   -5.3133   -7.7467 C   0  0  0  0  0  0  0  0  0  0  0  0
  -28.7389   -2.9924   -8.6383 C   0  0  0  0  0  0  0  0  0  0  0  0
  -28.1049   -1.1661   -5.6450 C   0  0  0  0  0  0  0  0  0  0  0  0
  -27.0379   -0.9979   -5.0687 O   0  0  0  0  0  0  0  0  0  0  0  0
  -28.6466   -0.2723   -6.5254 O   0  0  0  0  0  0  0  0  0  0  0  0
  -30.3889    1.1533   -5.7203 C   0  0  0  0  0  0  0  0  0  0  0  0
  -28.9005    1.0352   -6.0010 C   0  0  0  0  0  0  0  0  0  0  0  0
  -30.4474   -6.5179   -6.4363 N   0  0  0  0  0  0  0  0  0  0  0  0
  -31.1315   -6.3994   -7.1734 H   0  0  0  0  0  0  0  0  0  0  0  0
  -29.9925   -7.8492   -6.2856 C   0  0  0  0  0  0  0  0  0  0  0  0
  -28.7764   -8.1040   -5.6323 C   0  0  0  0  0  0  0  0  0  0  0  0
  -28.2794   -9.4055   -5.4340 C   0  0  0  0  0  0  0  0  0  0  0  0
  -28.9827  -10.4956   -5.9663 C   0  0  0  0  0  0  0  0  0  0  0  0
  -28.5336  -11.9292   -5.8994 C   0  0  0  0  0  0  0  0  0  0  0  0
  -30.1889  -10.2389   -6.6490 C   0  0  0  0  0  0  0  0  0  0  0  0
  -30.7064   -8.9390   -6.8049 C   0  0  0  0  0  0  0  0  0  0  0  0
  -32.0362   -8.7669   -7.4856 C   0  0  0  0  0  0  0  0  0  0  0  0
  -26.9892   -9.5313   -4.6801 C   0  0  0  0  0  0  0  0  0  0  0  0
  -26.9773   -9.7060   -3.4680 O   0  0  0  0  0  0  0  0  0  0  0  0
  -25.8629   -9.4768   -5.4798 N   0  0  0  0  0  0  0  0  0  0  0  0
  -25.8835   -8.9733   -6.3608 H   0  0  0  0  0  0  0  0  0  0  0  0
  -24.6138   -9.4942   -4.8233 O   0  0  0  0  0  0  0  0  0  0  0  0
  -23.6167   -9.8220   -5.7900 C   0  0  0  0  0  0  0  0  0  0  0  0
 16 17  1  0  0  0
 17 15  1  0  0  0
 15 13  1  0  0  0
 13 14  2  0  0  0
 13  1  1  0  0  0
  1  2  2  0  0  0
  1  9  1  0  0  0
  2  3  1  0  0  0
  3  4  1  0  0  0
  3  8  1  0  0  0
  4  5  2  0  0  0
  5  6  1  0  0  0
  6  7  2  0  0  0
  7 18  1  0  0  0
  7  8  1  0  0  0
 18 20  1  0  0  0
 18 19  1  0  0  0
 20 21  1  0  0  0
 20 26  2  0  0  0
 21 22  2  0  0  0
 22 28  1  0  0  0
 22 23  1  0  0  0
 28 29  2  0  0  0
 28 30  1  0  0  0
 30 32  1  0  0  0
 30 31  1  0  0  0
 32 33  1  0  0  0
 23 24  1  0  0  0
 23 25  2  0  0  0
 25 26  1  0  0  0
 26 27  1  0  0  0
  8  9  2  0  0  0
  9 10  1  0  0  0
 10 11  1  0  0  0
 10 12  1  0  0  0
M  END
> <minimizedAffinity>
-8.24567

$$$$
