CHEMBL4068255


 28 32  0  0  0  0  0  0  0  0999 V2000
  -28.6218   -4.0234   -5.7843 N   0  0  0  0  0  0  0  0  0  0  0  0
  -28.9724   -3.3780   -4.6104 C   0  0  0  0  0  0  0  0  0  0  0  0
  -28.9924   -2.0730   -4.7244 N   0  0  0  0  0  0  0  0  0  0  0  0
  -28.6182   -1.8424   -6.0071 C   0  0  0  0  0  0  0  0  0  0  0  0
  -28.4295   -0.6119   -6.5350 N   0  0  0  0  0  0  0  0  0  0  0  0
  -28.0003   -0.6575   -7.8143 C   0  0  0  0  0  0  0  0  0  0  0  0
  -27.7820   -1.8273   -8.5474 C   0  0  0  0  0  0  0  0  0  0  0  0
  -28.0061   -3.0853   -8.0324 N   0  0  0  0  0  0  0  0  0  0  0  0
  -28.4041   -3.0267   -6.7273 C   0  0  0  0  0  0  0  0  0  0  0  0
  -27.3059   -1.7234   -9.9129 C   0  0  0  0  0  0  0  0  0  0  0  0
  -28.0214   -1.5575  -11.1188 C   0  0  0  0  0  0  0  0  0  0  0  0
  -27.2253   -1.4546  -12.1886 N   0  0  0  0  0  0  0  0  0  0  0  0
  -25.9869   -1.5710  -11.6789 N   0  0  0  0  0  0  0  0  0  0  0  0
  -24.8422   -1.6122  -12.5599 C   0  0  0  0  0  0  0  0  0  0  0  0
  -25.9781   -1.6883  -10.3138 C   0  0  0  0  0  0  0  0  0  0  0  0
  -28.0526   -6.1196   -4.4245 C   0  0  0  0  0  0  0  0  0  0  0  0
  -28.3254   -5.4682   -5.7731 C   0  0  0  0  0  0  0  0  0  0  0  0
  -29.3126   -6.2051   -6.6544 C   0  0  0  0  0  0  0  0  0  0  0  0
  -28.8694   -6.8590   -7.8013 C   0  0  0  0  0  0  0  0  0  0  0  0
  -29.5471   -7.9951   -8.2287 C   0  0  0  0  0  0  0  0  0  0  0  0
  -28.9149   -8.8875   -9.0922 C   0  0  0  0  0  0  0  0  0  0  0  0
  -29.5030  -10.1164   -9.3344 C   0  0  0  0  0  0  0  0  0  0  0  0
  -30.7433  -10.3680   -8.7727 C   0  0  0  0  0  0  0  0  0  0  0  0
  -31.4185   -9.4904   -7.9959 N   0  0  0  0  0  0  0  0  0  0  0  0
  -30.8066   -8.3368   -7.6878 C   0  0  0  0  0  0  0  0  0  0  0  0
  -31.3677   -7.4917   -6.7470 C   0  0  0  0  0  0  0  0  0  0  0  0
  -30.6084   -6.4643   -6.2014 C   0  0  0  0  0  0  0  0  0  0  0  0
  -31.0987   -5.7836   -5.1553 F   0  0  0  0  0  0  0  0  0  0  0  0
 16 17  1  0  0  0
 17 18  1  0  0  0
 17  1  1  0  0  0
 18 19  1  0  0  0
 18 27  2  0  0  0
 19 20  2  0  0  0
 20 21  1  0  0  0
 20 25  1  0  0  0
 21 22  2  0  0  0
 22 23  1  0  0  0
 23 24  2  0  0  0
 24 25  1  0  0  0
 25 26  2  0  0  0
 26 27  1  0  0  0
 27 28  1  0  0  0
  1  2  1  0  0  0
  1  9  1  0  0  0
  2  3  2  0  0  0
  3  4  1  0  0  0
  4  5  1  0  0  0
  4  9  2  0  0  0
  5  6  2  0  0  0
  6  7  1  0  0  0
  7 10  1  0  0  0
  7  8  2  0  0  0
 10 11  1  0  0  0
 10 15  2  0  0  0
 11 12  2  0  0  0
 12 13  1  0  0  0
 13 14  1  0  0  0
 13 15  1  0  0  0
  8  9  1  0  0  0
M  END
> <minimizedAffinity>
-8.81434

$$$$
