CHEMBL1172838


 40 45  0  0  0  0  0  0  0  0999 V2000
  -24.5508   -1.0368  -10.4488 O   0  0  0  0  0  0  0  0  0  0  0  0
  -25.3715   -1.1860  -11.3521 C   0  0  0  0  0  0  0  0  0  0  0  0
  -25.1453   -0.8388  -12.6766 N   0  0  0  0  0  0  0  0  0  0  0  0
  -26.6477   -1.6991  -11.1616 N   0  0  0  0  0  0  0  0  0  0  0  0
  -25.9237   -0.9118  -13.3110 H   0  0  0  0  0  0  0  0  0  0  0  0
  -27.1759   -1.9359  -11.9878 H   0  0  0  0  0  0  0  0  0  0  0  0
  -27.2484   -2.0049   -9.9121 C   0  0  0  0  0  0  0  0  0  0  0  0
  -27.5451   -3.3247   -9.5141 C   0  0  0  0  0  0  0  0  0  0  0  0
  -28.1562   -3.6090   -8.2945 C   0  0  0  0  0  0  0  0  0  0  0  0
  -28.4571   -2.5525   -7.4564 C   0  0  0  0  0  0  0  0  0  0  0  0
  -28.1160   -1.2479   -7.8033 C   0  0  0  0  0  0  0  0  0  0  0  0
  -27.5242   -0.9462   -9.0188 C   0  0  0  0  0  0  0  0  0  0  0  0
  -28.4401   -0.3774   -6.7608 N   0  0  0  0  0  0  0  0  0  0  0  0
  -29.0250   -1.0517   -5.6839 C   0  0  0  0  0  0  0  0  0  0  0  0
  -29.3552   -0.5798   -4.6152 O   0  0  0  0  0  0  0  0  0  0  0  0
  -29.0952   -2.4922   -6.1413 C   0  0  0  0  0  0  0  0  0  0  0  0
  -29.6632   -3.5749   -5.5997 C   0  0  0  0  0  0  0  0  0  0  0  0
  -28.2833    0.6207   -6.7474 H   0  0  0  0  0  0  0  0  0  0  0  0
  -30.3985   -3.6719   -4.4005 C   0  0  0  0  0  0  0  0  0  0  0  0
  -31.4545   -4.5042   -4.0655 C   0  0  0  0  0  0  0  0  0  0  0  0
  -31.7978   -4.2685   -2.7274 C   0  0  0  0  0  0  0  0  0  0  0  0
  -30.9333   -3.2982   -2.2718 C   0  0  0  0  0  0  0  0  0  0  0  0
  -30.0962   -2.9356   -3.2911 N   0  0  0  0  0  0  0  0  0  0  0  0
  -29.4122   -2.1736   -3.2459 H   0  0  0  0  0  0  0  0  0  0  0  0
  -23.9744   -0.2314  -13.1873 C   0  0  0  0  0  0  0  0  0  0  0  0
  -23.7520    1.1382  -13.1536 C   0  0  0  0  0  0  0  0  0  0  0  0
  -22.5851    1.6778  -13.6905 C   0  0  0  0  0  0  0  0  0  0  0  0
  -21.5555    0.8803  -14.2282 C   0  0  0  0  0  0  0  0  0  0  0  0
  -21.7996   -0.4969  -14.2840 C   0  0  0  0  0  0  0  0  0  0  0  0
  -22.9920   -1.0447  -13.7661 C   0  0  0  0  0  0  0  0  0  0  0  0
  -20.2836    1.5264  -14.6384 C   0  0  0  0  0  0  0  0  0  0  0  0
  -20.2400    2.9329  -14.6678 C   0  0  0  0  0  0  0  0  0  0  0  0
  -19.1881    3.6204  -15.2507 C   0  0  0  0  0  0  0  0  0  0  0  0
  -18.0517    2.9276  -15.6448 C   0  0  0  0  0  0  0  0  0  0  0  0
  -16.9974    3.6164  -16.2350 C   0  0  0  0  0  0  0  0  0  0  0  0
  -15.7052    3.1665  -16.0455 C   0  0  0  0  0  0  0  0  0  0  0  0
  -15.5149    1.8564  -15.6298 C   0  0  0  0  0  0  0  0  0  0  0  0
  -16.6239    1.0176  -15.4298 C   0  0  0  0  0  0  0  0  0  0  0  0
  -17.9250    1.5606  -15.3579 C   0  0  0  0  0  0  0  0  0  0  0  0
  -19.0956    0.8468  -14.9790 C   0  0  0  0  0  0  0  0  0  0  0  0
  1  2  2  0  0  0
  2  3  1  0  0  0
  2  4  1  0  0  0
  3 25  1  0  0  0
  3  5  1  0  0  0
 25 26  1  0  0  0
 25 30  2  0  0  0
 26 27  2  0  0  0
 27 28  1  0  0  0
 28 31  1  0  0  0
 28 29  2  0  0  0
 31 32  1  0  0  0
 31 40  2  0  0  0
 32 33  2  0  0  0
 33 34  1  0  0  0
 34 35  1  0  0  0
 34 39  2  0  0  0
 35 36  2  0  0  0
 36 37  1  0  0  0
 37 38  2  0  0  0
 38 39  1  0  0  0
 39 40  1  0  0  0
 29 30  1  0  0  0
  4  7  1  0  0  0
  4  6  1  0  0  0
  7  8  1  0  0  0
  7 12  2  0  0  0
  8  9  2  0  0  0
  9 10  1  0  0  0
 10 11  2  0  0  0
 10 16  1  0  0  0
 11 12  1  0  0  0
 11 13  1  0  0  0
 13 14  1  0  0  0
 13 18  1  0  0  0
 14 15  2  0  0  0
 14 16  1  0  0  0
 16 17  2  0  0  0
 17 19  1  0  0  0
 19 20  2  0  0  0
 19 23  1  0  0  0
 20 21  1  0  0  0
 21 22  2  0  0  0
 22 23  1  0  0  0
 23 24  1  0  0  0
M  END
> <minimizedAffinity>
-11.92789

$$$$
