CHEMBL3907600


 36 40  0  0  0  0  0  0  0  0999 V2000
  -22.2610    0.9292  -13.6620 C   0  0  0  0  0  0  0  0  0  0  0  0
  -22.7673    2.2069  -13.8236 C   0  0  0  0  0  0  0  0  0  0  0  0
  -22.0310    3.2202  -14.3417 N   0  0  0  0  0  0  0  0  0  0  0  0
  -20.7582    2.9174  -14.6913 C   0  0  0  0  0  0  0  0  0  0  0  0
  -19.9297    3.9076  -15.1831 C   0  0  0  0  0  0  0  0  0  0  0  0
  -18.5934    3.6392  -15.5076 C   0  0  0  0  0  0  0  0  0  0  0  0
  -18.0382    2.3562  -15.4044 C   0  0  0  0  0  0  0  0  0  0  0  0
  -18.9135    1.3565  -14.9289 C   0  0  0  0  0  0  0  0  0  0  0  0
  -20.2355    1.6147  -14.5483 C   0  0  0  0  0  0  0  0  0  0  0  0
  -20.9873    0.6157  -14.0293 N   0  0  0  0  0  0  0  0  0  0  0  0
  -24.5142   -1.1529  -11.7833 N   0  0  0  0  0  0  0  0  0  0  0  0
  -23.9694    0.0662  -12.0523 C   0  0  0  0  0  0  0  0  0  0  0  0
  -23.0343   -0.1312  -13.0499 C   0  0  0  0  0  0  0  0  0  0  0  0
  -23.0835   -1.5214  -13.2909 C   0  0  0  0  0  0  0  0  0  0  0  0
  -23.9743   -2.1510  -12.5162 N   0  0  0  0  0  0  0  0  0  0  0  0
  -25.6115   -1.4333  -10.8798 C   0  0  0  0  0  0  0  0  0  0  0  0
  -28.0450   -2.1680  -13.6938 C   0  0  0  0  0  0  0  0  0  0  0  0
  -26.8580   -1.9841  -12.9004 N   0  0  0  0  0  0  0  0  0  0  0  0
  -26.9301   -1.5046  -11.6096 C   0  0  0  0  0  0  0  0  0  0  0  0
  -27.9774   -1.1121  -11.0990 O   0  0  0  0  0  0  0  0  0  0  0  0
  -25.9722   -2.3568  -13.2351 H   0  0  0  0  0  0  0  0  0  0  0  0
  -16.6681    2.0971  -15.7421 N   0  0  0  0  0  0  0  0  0  0  0  0
  -15.7292    3.0515  -16.2488 C   0  0  0  0  0  0  0  0  0  0  0  0
  -15.7213    3.4792  -17.5867 C   0  0  0  0  0  0  0  0  0  0  0  0
  -14.7525    4.3537  -18.0966 C   0  0  0  0  0  0  0  0  0  0  0  0
  -13.7454    4.8264  -17.2609 C   0  0  0  0  0  0  0  0  0  0  0  0
  -13.7373    4.4624  -15.9190 C   0  0  0  0  0  0  0  0  0  0  0  0
  -14.7233    3.5947  -15.4265 C   0  0  0  0  0  0  0  0  0  0  0  0
  -14.6872    4.7897  -19.3950 O   0  0  0  0  0  0  0  0  0  0  0  0
  -14.8523    6.1877  -19.6075 C   0  0  0  0  0  0  0  0  0  0  0  0
  -12.7900    4.8534  -15.0095 O   0  0  0  0  0  0  0  0  0  0  0  0
  -12.2315    6.1437  -15.2360 C   0  0  0  0  0  0  0  0  0  0  0  0
  -16.1334    0.7713  -15.3052 C   0  0  0  0  0  0  0  0  0  0  0  0
  -15.8411    0.7297  -13.8252 C   0  0  0  0  0  0  0  0  0  0  0  0
  -14.4676    0.3362  -13.3123 C   0  0  0  0  0  0  0  0  0  0  0  0
  -15.6328   -0.5837  -13.1047 C   0  0  0  0  0  0  0  0  0  0  0  0
 17 18  1  0  0  0
 18 19  1  0  0  0
 18 21  1  0  0  0
 19 20  2  0  0  0
 19 16  1  0  0  0
 16 11  1  0  0  0
 11 12  1  0  0  0
 11 15  1  0  0  0
 12 13  2  0  0  0
 13  1  1  0  0  0
 13 14  1  0  0  0
  1  2  1  0  0  0
  1 10  2  0  0  0
  2  3  2  0  0  0
  3  4  1  0  0  0
  4  5  1  0  0  0
  4  9  2  0  0  0
  5  6  2  0  0  0
  6  7  1  0  0  0
  7 22  1  0  0  0
  7  8  2  0  0  0
 22 33  1  0  0  0
 22 23  1  0  0  0
 33 34  1  0  0  0
 34 35  1  0  0  0
 34 36  1  0  0  0
 35 36  1  0  0  0
 23 24  1  0  0  0
 23 28  2  0  0  0
 24 25  2  0  0  0
 25 29  1  0  0  0
 25 26  1  0  0  0
 29 30  1  0  0  0
 26 27  2  0  0  0
 27 31  1  0  0  0
 27 28  1  0  0  0
 31 32  1  0  0  0
  8  9  1  0  0  0
  9 10  1  0  0  0
 14 15  2  0  0  0
M  END
> <minimizedAffinity>
-8.78155

$$$$
