CHEMBL1681953


 35 37  0  0  0  0  0  0  0  0999 V2000
  -28.4011  -10.1274   -6.0042 C   0  0  0  0  0  0  0  0  0  0  0  0
  -29.5038   -9.3044   -5.7943 C   0  0  0  0  0  0  0  0  0  0  0  0
  -29.3716   -8.1236   -5.0680 C   0  0  0  0  0  0  0  0  0  0  0  0
  -28.1458   -7.7409   -4.5111 C   0  0  0  0  0  0  0  0  0  0  0  0
  -27.0814   -8.6548   -4.5958 C   0  0  0  0  0  0  0  0  0  0  0  0
  -25.5611   -8.3117   -3.8423 Cl  0  0  0  0  0  0  0  0  0  0  0  0
  -27.2039   -9.8446   -5.3423 C   0  0  0  0  0  0  0  0  0  0  0  0
  -27.9696   -6.4531   -3.9168 N   0  0  0  0  0  0  0  0  0  0  0  0
  -28.3311   -5.2733   -4.5384 C   0  0  0  0  0  0  0  0  0  0  0  0
  -28.8746   -5.2027   -5.6361 O   0  0  0  0  0  0  0  0  0  0  0  0
  -27.9673   -4.1313   -3.8332 N   0  0  0  0  0  0  0  0  0  0  0  0
  -27.3709   -6.4083   -3.1025 H   0  0  0  0  0  0  0  0  0  0  0  0
  -27.0609   -4.1941   -3.3880 H   0  0  0  0  0  0  0  0  0  0  0  0
  -28.2279   -2.8752   -4.4614 C   0  0  0  0  0  0  0  0  0  0  0  0
  -27.2225   -2.1988   -5.1681 C   0  0  0  0  0  0  0  0  0  0  0  0
  -27.4244   -0.8807   -5.5791 C   0  0  0  0  0  0  0  0  0  0  0  0
  -28.6298   -0.2508   -5.2861 C   0  0  0  0  0  0  0  0  0  0  0  0
  -28.7951    1.0360   -5.6208 F   0  0  0  0  0  0  0  0  0  0  0  0
  -29.6561   -0.9256   -4.6376 C   0  0  0  0  0  0  0  0  0  0  0  0
  -29.4554   -2.2477   -4.2485 C   0  0  0  0  0  0  0  0  0  0  0  0
  -30.4176   -2.8843   -3.5669 F   0  0  0  0  0  0  0  0  0  0  0  0
  -28.4756  -11.2187   -6.8542 O   0  0  0  0  0  0  0  0  0  0  0  0
  -29.1064  -10.6618   -9.1147 C   0  0  0  0  0  0  0  0  0  0  0  0
  -28.6562  -10.4048  -10.4057 C   0  0  0  0  0  0  0  0  0  0  0  0
  -29.4943   -9.9473  -11.4224 N   0  0  0  0  0  0  0  0  0  0  0  0
  -27.3567  -10.4542  -10.7505 N   0  0  0  0  0  0  0  0  0  0  0  0
  -26.4983  -10.7946   -9.7859 C   0  0  0  0  0  0  0  0  0  0  0  0
  -26.8215  -11.0849   -8.5245 N   0  0  0  0  0  0  0  0  0  0  0  0
  -28.1280  -10.9772   -8.1904 C   0  0  0  0  0  0  0  0  0  0  0  0
  -30.3841  -10.4484  -11.4268 H   0  0  0  0  0  0  0  0  0  0  0  0
  -28.9998   -9.9546  -12.3064 H   0  0  0  0  0  0  0  0  0  0  0  0
  -31.1681   -9.4914   -8.7518 N   0  0  0  0  0  0  0  0  0  0  0  0
  -30.5372  -10.6248   -8.7799 C   0  0  0  0  0  0  0  0  0  0  0  0
  -32.5445  -10.5227   -7.2485 C   0  0  0  0  0  0  0  0  0  0  0  0
  -32.5114   -9.6863   -8.4037 O   0  0  0  0  0  0  0  0  0  0  0  0
 34 35  1  0  0  0
 35 32  1  0  0  0
 32 33  2  0  0  0
 33 23  1  0  0  0
 23 24  1  0  0  0
 23 29  2  0  0  0
 24 25  1  0  0  0
 24 26  2  0  0  0
 25 30  1  0  0  0
 25 31  1  0  0  0
 26 27  1  0  0  0
 27 28  2  0  0  0
 28 29  1  0  0  0
 29 22  1  0  0  0
 22  1  1  0  0  0
  1  2  1  0  0  0
  1  7  2  0  0  0
  2  3  2  0  0  0
  3  4  1  0  0  0
  4  8  1  0  0  0
  4  5  2  0  0  0
  8  9  1  0  0  0
  8 12  1  0  0  0
  9 10  2  0  0  0
  9 11  1  0  0  0
 11 14  1  0  0  0
 11 13  1  0  0  0
 14 15  1  0  0  0
 14 20  2  0  0  0
 15 16  2  0  0  0
 16 17  1  0  0  0
 17 18  1  0  0  0
 17 19  2  0  0  0
 19 20  1  0  0  0
 20 21  1  0  0  0
  5  6  1  0  0  0
  5  7  1  0  0  0
M  END
> <minimizedAffinity>
-8.72702

$$$$
