CHEMBL3919480


 43 46  0  0  0  0  0  0  0  0999 V2000
  -24.2811  -12.4592   -4.4617 O   0  0  0  0  0  0  0  0  0  0  0  0
  -26.4108  -11.9414   -8.5747 C   0  0  0  0  0  0  0  0  0  0  0  0
  -25.1460  -12.0200   -9.1209 C   0  0  0  0  0  0  0  0  0  0  0  0
  -24.1254  -12.1507   -8.1364 C   0  0  0  0  0  0  0  0  0  0  0  0
  -22.7964  -12.2346   -8.4095 N   0  0  0  0  0  0  0  0  0  0  0  0
  -21.9863  -12.3266   -7.3414 C   0  0  0  0  0  0  0  0  0  0  0  0
  -22.4052  -12.3571   -6.0257 C   0  0  0  0  0  0  0  0  0  0  0  0
  -23.7754  -12.3494   -5.7493 C   0  0  0  0  0  0  0  0  0  0  0  0
  -24.6440  -12.1958   -6.8419 C   0  0  0  0  0  0  0  0  0  0  0  0
  -26.3568  -12.0628   -6.8668 S   0  0  0  0  0  0  0  0  0  0  0  0
  -28.5227  -10.8356   -8.8091 N   0  0  0  0  0  0  0  0  0  0  0  0
  -27.6617  -11.7877   -9.3034 C   0  0  0  0  0  0  0  0  0  0  0  0
  -27.9354  -12.4599  -10.2976 O   0  0  0  0  0  0  0  0  0  0  0  0
  -28.2473  -10.3480   -7.9642 H   0  0  0  0  0  0  0  0  0  0  0  0
  -29.8335  -10.5935   -9.3645 C   0  0  0  0  0  0  0  0  0  0  0  0
  -30.8460  -10.1875   -8.2996 C   0  0  0  0  0  0  0  0  0  0  0  0
  -30.2987   -9.1215   -7.3519 C   0  0  0  0  0  0  0  0  0  0  0  0
  -31.2490   -7.9576   -7.2327 C   0  0  0  0  0  0  0  0  0  0  0  0
  -32.4208   -8.0303   -6.8943 O   0  0  0  0  0  0  0  0  0  0  0  0
  -30.6193   -6.8282   -7.6647 O   0  0  0  0  0  0  0  0  0  0  0  0
  -28.5625   -5.6300   -7.7986 C   0  0  0  0  0  0  0  0  0  0  0  0
  -29.2236   -6.9888   -7.9501 C   0  0  0  0  0  0  0  0  0  0  0  0
  -25.1403  -11.4771   -4.0106 C   0  0  0  0  0  0  0  0  0  0  0  0
  -24.7701  -10.1379   -3.8850 C   0  0  0  0  0  0  0  0  0  0  0  0
  -25.7194   -9.1736   -3.5580 C   0  0  0  0  0  0  0  0  0  0  0  0
  -27.0457   -9.5285   -3.2964 C   0  0  0  0  0  0  0  0  0  0  0  0
  -27.3731  -10.8863   -3.2870 C   0  0  0  0  0  0  0  0  0  0  0  0
  -28.6220  -11.2698   -2.9773 F   0  0  0  0  0  0  0  0  0  0  0  0
  -26.4343  -11.8621   -3.6507 C   0  0  0  0  0  0  0  0  0  0  0  0
  -28.0388   -8.5444   -3.0451 N   0  0  0  0  0  0  0  0  0  0  0  0
  -28.2593   -7.4873   -3.9101 C   0  0  0  0  0  0  0  0  0  0  0  0
  -27.7278   -7.3870   -5.0132 O   0  0  0  0  0  0  0  0  0  0  0  0
  -29.1187   -6.5284   -3.3920 N   0  0  0  0  0  0  0  0  0  0  0  0
  -28.8128   -8.8147   -2.4504 H   0  0  0  0  0  0  0  0  0  0  0  0
  -28.9880   -6.3645   -2.4003 H   0  0  0  0  0  0  0  0  0  0  0  0
  -29.3247   -5.3520   -4.1671 C   0  0  0  0  0  0  0  0  0  0  0  0
  -28.2973   -4.4156   -4.3395 C   0  0  0  0  0  0  0  0  0  0  0  0
  -28.5597   -3.1594   -4.8998 C   0  0  0  0  0  0  0  0  0  0  0  0
  -27.4723   -2.1295   -4.9957 C   0  0  0  0  0  0  0  0  0  0  0  0
  -29.8670   -2.8527   -5.2982 C   0  0  0  0  0  0  0  0  0  0  0  0
  -30.8820   -3.8080   -5.1888 C   0  0  0  0  0  0  0  0  0  0  0  0
  -30.6002   -5.0588   -4.6461 C   0  0  0  0  0  0  0  0  0  0  0  0
  -31.5937   -5.9471   -4.4895 F   0  0  0  0  0  0  0  0  0  0  0  0
 21 22  1  0  0  0
 22 20  1  0  0  0
 20 18  1  0  0  0
 18 19  2  0  0  0
 18 17  1  0  0  0
 17 16  1  0  0  0
 16 15  1  0  0  0
 15 11  1  0  0  0
 11 12  1  0  0  0
 11 14  1  0  0  0
 12 13  2  0  0  0
 12  2  1  0  0  0
  2  3  2  0  0  0
  2 10  1  0  0  0
  3  4  1  0  0  0
  4  5  1  0  0  0
  4  9  2  0  0  0
  5  6  2  0  0  0
  6  7  1  0  0  0
  7  8  2  0  0  0
  8  1  1  0  0  0
  8  9  1  0  0  0
  1 23  1  0  0  0
 23 24  1  0  0  0
 23 29  2  0  0  0
 24 25  2  0  0  0
 25 26  1  0  0  0
 26 30  1  0  0  0
 26 27  2  0  0  0
 30 31  1  0  0  0
 30 34  1  0  0  0
 31 32  2  0  0  0
 31 33  1  0  0  0
 33 36  1  0  0  0
 33 35  1  0  0  0
 36 37  1  0  0  0
 36 42  2  0  0  0
 37 38  2  0  0  0
 38 39  1  0  0  0
 38 40  1  0  0  0
 40 41  2  0  0  0
 41 42  1  0  0  0
 42 43  1  0  0  0
 27 28  1  0  0  0
 27 29  1  0  0  0
  9 10  1  0  0  0
M  END
> <minimizedAffinity>
-7.74532

$$$$
