CHEMBL3921817


 39 42  0  0  0  0  0  0  0  0999 V2000
  -28.2354   -8.0659   -4.2875 C   0  0  0  0  0  0  0  0  0  0  0  0
  -29.2647   -7.8925   -3.3695 C   0  0  0  0  0  0  0  0  0  0  0  0
  -30.0762   -6.7750   -3.4379 C   0  0  0  0  0  0  0  0  0  0  0  0
  -29.7754   -5.7168   -4.2598 C   0  0  0  0  0  0  0  0  0  0  0  0
  -30.7301   -4.7866   -4.3383 N   0  0  0  0  0  0  0  0  0  0  0  0
  -30.3938   -3.6374   -4.9380 C   0  0  0  0  0  0  0  0  0  0  0  0
  -29.1105   -3.3952   -5.3840 C   0  0  0  0  0  0  0  0  0  0  0  0
  -28.1797   -4.4061   -5.4714 N   0  0  0  0  0  0  0  0  0  0  0  0
  -28.5352   -5.6527   -4.9426 C   0  0  0  0  0  0  0  0  0  0  0  0
  -27.8071   -6.9054   -4.9998 C   0  0  0  0  0  0  0  0  0  0  0  0
  -28.7158   -1.9875   -5.4005 C   0  0  0  0  0  0  0  0  0  0  0  0
  -27.5769   -1.2779   -4.9672 C   0  0  0  0  0  0  0  0  0  0  0  0
  -27.6176    0.0248   -5.2954 N   0  0  0  0  0  0  0  0  0  0  0  0
  -28.7906    0.1527   -5.9449 N   0  0  0  0  0  0  0  0  0  0  0  0
  -29.4116   -1.0457   -6.1478 C   0  0  0  0  0  0  0  0  0  0  0  0
  -29.3446    1.4654   -6.2389 C   0  0  0  0  0  0  0  0  0  0  0  0
  -30.8769    1.4507   -6.2746 C   0  0  0  0  0  0  0  0  0  0  0  0
  -31.5030    2.5324   -7.1578 C   0  0  0  0  0  0  0  0  0  0  0  0
  -32.8411    2.1609   -7.6034 N   0  0  0  0  0  0  0  0  0  0  0  0
  -32.7635    1.3788   -8.2599 H   0  0  0  0  0  0  0  0  0  0  0  0
  -33.2182    2.9239   -8.1672 H   0  0  0  0  0  0  0  0  0  0  0  0
  -27.8690   -9.4316   -4.5541 N   0  0  0  0  0  0  0  0  0  0  0  0
  -24.7466  -10.9682   -6.0650 C   0  0  0  0  0  0  0  0  0  0  0  0
  -23.9360  -11.0960   -4.9509 C   0  0  0  0  0  0  0  0  0  0  0  0
  -24.4669  -10.8190   -3.6946 C   0  0  0  0  0  0  0  0  0  0  0  0
  -25.7793  -10.3154   -3.5729 C   0  0  0  0  0  0  0  0  0  0  0  0
  -26.5732  -10.0062   -4.6901 C   0  0  0  0  0  0  0  0  0  0  0  0
  -26.0228  -10.3863   -5.9319 C   0  0  0  0  0  0  0  0  0  0  0  0
  -25.4005  -11.5198   -8.3235 C   0  0  0  0  0  0  0  0  0  0  0  0
  -24.3857  -11.3100   -7.3391 O   0  0  0  0  0  0  0  0  0  0  0  0
  -23.8027  -11.0048   -2.5088 O   0  0  0  0  0  0  0  0  0  0  0  0
  -24.2129  -12.1050   -1.6998 C   0  0  0  0  0  0  0  0  0  0  0  0
  -29.0219  -10.0703   -5.3148 C   0  0  0  0  0  0  0  0  0  0  0  0
  -29.3708   -9.6000   -6.7675 C   0  0  0  0  0  0  0  0  0  0  0  0
  -30.6408   -9.8932   -7.4460 N   0  0  0  0  0  0  0  0  0  0  0  0
  -31.1582  -10.5945   -6.9170 H   0  0  0  0  0  0  0  0  0  0  0  0
  -31.5085   -8.7779   -7.8292 C   0  0  0  0  0  0  0  0  0  0  0  0
  -32.9184   -8.7969   -7.2385 C   0  0  0  0  0  0  0  0  0  0  0  0
  -30.8225   -7.4648   -7.4214 C   0  0  0  0  0  0  0  0  0  0  0  0
 29 30  1  0  0  0
 30 23  1  0  0  0
 23 24  1  0  0  0
 23 28  2  0  0  0
 24 25  2  0  0  0
 25 31  1  0  0  0
 25 26  1  0  0  0
 31 32  1  0  0  0
 26 27  2  0  0  0
 27 22  1  0  0  0
 27 28  1  0  0  0
 22 33  1  0  0  0
 22  1  1  0  0  0
 33 34  1  0  0  0
 34 35  1  0  0  0
 35 37  1  0  0  0
 35 36  1  0  0  0
 37 38  1  0  0  0
 37 39  1  0  0  0
  1  2  1  0  0  0
  1 10  2  0  0  0
  2  3  2  0  0  0
  3  4  1  0  0  0
  4  5  1  0  0  0
  4  9  2  0  0  0
  5  6  2  0  0  0
  6  7  1  0  0  0
  7 11  1  0  0  0
  7  8  2  0  0  0
 11 12  1  0  0  0
 11 15  2  0  0  0
 12 13  2  0  0  0
 13 14  1  0  0  0
 14 16  1  0  0  0
 14 15  1  0  0  0
 16 17  1  0  0  0
 17 18  1  0  0  0
 18 19  1  0  0  0
 19 20  1  0  0  0
 19 21  1  0  0  0
  8  9  1  0  0  0
  9 10  1  0  0  0
M  END
> <minimizedAffinity>
-7.36284

$$$$
