CHEMBL230414


 18 20  0  0  0  0  0  0  0  0999 V2000
  -33.0924   -9.3742   -7.5747 O   0  0  0  0  0  0  0  0  0  0  0  0
  -31.9575   -9.3377   -8.0098 C   0  0  0  0  0  0  0  0  0  0  0  0
  -31.4256  -10.0852   -9.0465 N   0  0  0  0  0  0  0  0  0  0  0  0
  -30.0836   -9.7806   -9.2556 C   0  0  0  0  0  0  0  0  0  0  0  0
  -29.2485  -10.3460  -10.1992 C   0  0  0  0  0  0  0  0  0  0  0  0
  -27.9183   -9.9227  -10.2146 C   0  0  0  0  0  0  0  0  0  0  0  0
  -27.4595   -8.9657   -9.2925 C   0  0  0  0  0  0  0  0  0  0  0  0
  -28.3275   -8.3974   -8.3528 C   0  0  0  0  0  0  0  0  0  0  0  0
  -29.6496   -8.8012   -8.3520 C   0  0  0  0  0  0  0  0  0  0  0  0
  -30.8284   -8.4483   -7.5556 C   0  0  0  0  0  0  0  0  0  0  0  0
  -31.0712   -7.4979   -6.6392 C   0  0  0  0  0  0  0  0  0  0  0  0
  -31.9640  -10.7659   -9.5598 H   0  0  0  0  0  0  0  0  0  0  0  0
  -30.1172   -6.5172   -6.2634 C   0  0  0  0  0  0  0  0  0  0  0  0
  -30.0124   -5.0586   -7.1783 S   0  0  0  0  0  0  0  0  0  0  0  0
  -28.7670   -4.4362   -6.1873 C   0  0  0  0  0  0  0  0  0  0  0  0
  -28.4365   -5.3001   -5.1668 C   0  0  0  0  0  0  0  0  0  0  0  0
  -29.2160   -6.4850   -5.2183 C   0  0  0  0  0  0  0  0  0  0  0  0
  -28.9652   -7.8585   -3.9410 Br  0  0  0  0  0  0  0  0  0  0  0  0
  1  2  2  0  0  0
  2  3  1  0  0  0
  2 10  1  0  0  0
  3  4  1  0  0  0
  3 12  1  0  0  0
  4  5  1  0  0  0
  4  9  2  0  0  0
  5  6  2  0  0  0
  6  7  1  0  0  0
  7  8  2  0  0  0
  8  9  1  0  0  0
  9 10  1  0  0  0
 10 11  2  0  0  0
 11 13  1  0  0  0
 13 14  1  0  0  0
 13 17  2  0  0  0
 14 15  1  0  0  0
 15 16  2  0  0  0
 16 17  1  0  0  0
 17 18  1  0  0  0
M  END
> <minimizedAffinity>
-6.67039

$$$$
