CHEMBL1270399


 33 37  0  0  0  0  0  0  0  0999 V2000
  -28.2164   -7.7819   -4.2844 N   0  0  0  0  0  0  0  0  0  0  0  0
  -28.3411   -8.1285   -3.3349 H   0  0  0  0  0  0  0  0  0  0  0  0
  -27.8927  -10.8827   -7.9908 C   0  0  0  0  0  0  0  0  0  0  0  0
  -27.2192  -10.2000   -6.8369 C   0  0  0  0  0  0  0  0  0  0  0  0
  -25.9610  -10.5277   -6.5008 C   0  0  0  0  0  0  0  0  0  0  0  0
  -25.4050   -9.9548   -5.3819 N   0  0  0  0  0  0  0  0  0  0  0  0
  -24.2013  -10.1504   -4.7464 C   0  0  0  0  0  0  0  0  0  0  0  0
  -24.3417   -9.4782   -3.5454 C   0  0  0  0  0  0  0  0  0  0  0  0
  -25.5340   -8.7782   -3.4863 N   0  0  0  0  0  0  0  0  0  0  0  0
  -26.1462   -9.0912   -4.6129 C   0  0  0  0  0  0  0  0  0  0  0  0
  -27.4990   -8.7035   -5.0496 C   0  0  0  0  0  0  0  0  0  0  0  0
  -27.9776   -9.2624   -6.1419 N   0  0  0  0  0  0  0  0  0  0  0  0
  -23.0439  -10.9434   -5.2364 C   0  0  0  0  0  0  0  0  0  0  0  0
  -22.2589  -10.7175   -6.3890 C   0  0  0  0  0  0  0  0  0  0  0  0
  -21.3123  -11.6439   -6.5521 N   0  0  0  0  0  0  0  0  0  0  0  0
  -21.4843  -12.4533   -5.4917 N   0  0  0  0  0  0  0  0  0  0  0  0
  -22.4918  -12.0572   -4.6555 C   0  0  0  0  0  0  0  0  0  0  0  0
  -20.8737  -13.2649   -5.4145 H   0  0  0  0  0  0  0  0  0  0  0  0
  -28.9335   -6.6645   -4.6245 C   0  0  0  0  0  0  0  0  0  0  0  0
  -28.5374   -5.3515   -4.4092 C   0  0  0  0  0  0  0  0  0  0  0  0
  -29.5632   -4.3757   -4.7424 C   0  0  0  0  0  0  0  0  0  0  0  0
  -30.6388   -4.9131   -5.3203 N   0  0  0  0  0  0  0  0  0  0  0  0
  -30.4857   -6.5714   -5.3525 S   0  0  0  0  0  0  0  0  0  0  0  0
  -29.4341   -2.8678   -4.3841 C   0  0  0  0  0  0  0  0  0  0  0  0
  -30.1232   -2.6231   -3.0255 C   0  0  0  0  0  0  0  0  0  0  0  0
  -28.0610   -2.2562   -4.3672 N   0  0  0  0  0  0  0  0  0  0  0  0
  -28.1090   -0.7686   -4.2884 C   0  0  0  0  0  0  0  0  0  0  0  0
  -28.6959   -0.0549   -5.5381 C   0  0  0  0  0  0  0  0  0  0  0  0
  -30.0991    0.4912   -5.2572 C   0  0  0  0  0  0  0  0  0  0  0  0
  -28.8373   -0.9039   -6.6844 O   0  0  0  0  0  0  0  0  0  0  0  0
  -27.8185   -1.8939   -6.8848 C   0  0  0  0  0  0  0  0  0  0  0  0
  -28.4529   -2.9858   -7.7400 C   0  0  0  0  0  0  0  0  0  0  0  0
  -27.2525   -2.5020   -5.5805 C   0  0  0  0  0  0  0  0  0  0  0  0
  3  4  1  0  0  0
  4  5  2  0  0  0
  4 12  1  0  0  0
  5  6  1  0  0  0
  6  7  1  0  0  0
  6 10  1  0  0  0
  7 13  1  0  0  0
  7  8  2  0  0  0
 13 14  1  0  0  0
 13 17  2  0  0  0
 14 15  2  0  0  0
 15 16  1  0  0  0
 16 17  1  0  0  0
 16 18  1  0  0  0
  8  9  1  0  0  0
  9 10  2  0  0  0
 10 11  1  0  0  0
 11  1  1  0  0  0
 11 12  2  0  0  0
  1 19  1  0  0  0
  1  2  1  0  0  0
 19 20  2  0  0  0
 19 23  1  0  0  0
 20 21  1  0  0  0
 21 24  1  0  0  0
 21 22  2  0  0  0
 24 25  1  0  0  0
 24 26  1  0  0  0
 26 27  1  0  0  0
 26 33  1  0  0  0
 27 28  1  0  0  0
 28 30  1  0  0  0
 28 29  1  0  0  0
 30 31  1  0  0  0
 31 33  1  0  0  0
 31 32  1  0  0  0
 22 23  1  0  0  0
M  END
> <minimizedAffinity>
-8.12453

$$$$
