CHEMBL4213775


 32 36  0  0  0  0  0  0  0  0999 V2000
  -28.3770   -3.7852   -7.8051 C   0  0  0  0  0  0  0  0  0  0  0  0
  -27.5981   -3.3718   -8.8181 N   0  0  0  0  0  0  0  0  0  0  0  0
  -27.4318   -2.0468   -8.5996 N   0  0  0  0  0  0  0  0  0  0  0  0
  -28.1222   -1.5862   -7.5076 C   0  0  0  0  0  0  0  0  0  0  0  0
  -28.2204   -0.3279   -7.0392 N   0  0  0  0  0  0  0  0  0  0  0  0
  -29.0060   -0.2371   -5.9477 C   0  0  0  0  0  0  0  0  0  0  0  0
  -29.6334   -1.2589   -5.3412 N   0  0  0  0  0  0  0  0  0  0  0  0
  -29.5118   -2.4983   -5.8409 C   0  0  0  0  0  0  0  0  0  0  0  0
  -28.7343   -2.7028   -6.9664 C   0  0  0  0  0  0  0  0  0  0  0  0
  -29.5375   -7.8352   -7.4972 C   0  0  0  0  0  0  0  0  0  0  0  0
  -30.3085   -6.8401   -6.8883 C   0  0  0  0  0  0  0  0  0  0  0  0
  -29.9429   -5.5058   -6.9844 C   0  0  0  0  0  0  0  0  0  0  0  0
  -28.7959   -5.1740   -7.6978 C   0  0  0  0  0  0  0  0  0  0  0  0
  -28.0848   -6.2157   -8.2782 C   0  0  0  0  0  0  0  0  0  0  0  0
  -28.4144   -7.5249   -8.1720 N   0  0  0  0  0  0  0  0  0  0  0  0
  -31.4011  -11.3579   -8.6844 N   0  0  0  0  0  0  0  0  0  0  0  0
  -30.0671  -10.9087   -9.1702 C   0  0  0  0  0  0  0  0  0  0  0  0
  -29.1948  -10.1912   -8.1129 C   0  0  0  0  0  0  0  0  0  0  0  0
  -29.9267   -9.1552   -7.3759 N   0  0  0  0  0  0  0  0  0  0  0  0
  -31.3251   -9.4291   -7.0157 C   0  0  0  0  0  0  0  0  0  0  0  0
  -32.0822  -10.1599   -8.1467 C   0  0  0  0  0  0  0  0  0  0  0  0
  -32.2820  -12.4595   -6.5858 C   0  0  0  0  0  0  0  0  0  0  0  0
  -31.2398  -12.4410   -7.6979 C   0  0  0  0  0  0  0  0  0  0  0  0
  -29.1900    1.0205   -5.4307 N   0  0  0  0  0  0  0  0  0  0  0  0
  -30.4813    1.6592   -5.4101 C   0  0  0  0  0  0  0  0  0  0  0  0
  -28.3898    1.4337   -4.9967 H   0  0  0  0  0  0  0  0  0  0  0  0
  -26.6491   -1.2865   -9.5569 C   0  0  0  0  0  0  0  0  0  0  0  0
  -26.4945   -1.9587  -10.9289 C   0  0  0  0  0  0  0  0  0  0  0  0
  -25.1851   -1.5625  -11.6210 C   0  0  0  0  0  0  0  0  0  0  0  0
  -25.4391   -1.6565  -13.1219 C   0  0  0  0  0  0  0  0  0  0  0  0
  -26.9416   -1.8131  -13.3116 C   0  0  0  0  0  0  0  0  0  0  0  0
  -27.5767   -1.5905  -11.9457 C   0  0  0  0  0  0  0  0  0  0  0  0
 22 23  1  0  0  0
 23 16  1  0  0  0
 16 17  1  0  0  0
 16 21  1  0  0  0
 17 18  1  0  0  0
 18 19  1  0  0  0
 19 10  1  0  0  0
 19 20  1  0  0  0
 10 11  1  0  0  0
 10 15  2  0  0  0
 11 12  2  0  0  0
 12 13  1  0  0  0
 13  1  1  0  0  0
 13 14  2  0  0  0
  1  2  2  0  0  0
  1  9  1  0  0  0
  2  3  1  0  0  0
  3 27  1  0  0  0
  3  4  1  0  0  0
 27 28  1  0  0  0
 28 29  1  0  0  0
 28 32  1  0  0  0
 29 30  1  0  0  0
 30 31  1  0  0  0
 31 32  1  0  0  0
  4  5  1  0  0  0
  4  9  2  0  0  0
  5  6  2  0  0  0
  6 24  1  0  0  0
  6  7  1  0  0  0
 24 25  1  0  0  0
 24 26  1  0  0  0
  7  8  2  0  0  0
  8  9  1  0  0  0
 14 15  1  0  0  0
 20 21  1  0  0  0
M  END
> <minimizedAffinity>
-8.21781

$$$$
