CHEMBL2018769


 36 38  0  0  0  0  0  0  0  0999 V2000
  -21.8560    1.0909  -14.1858 C   0  0  0  0  0  0  0  0  0  0  0  0
  -22.8560    1.9601  -13.9531 N   0  0  0  0  0  0  0  0  0  0  0  0
  -22.5786    3.2473  -14.1664 C   0  0  0  0  0  0  0  0  0  0  0  0
  -21.3978    3.7350  -14.5669 N   0  0  0  0  0  0  0  0  0  0  0  0
  -20.4120    2.8499  -14.7509 C   0  0  0  0  0  0  0  0  0  0  0  0
  -19.1396    3.3144  -15.0287 C   0  0  0  0  0  0  0  0  0  0  0  0
  -17.9787    2.4957  -15.0656 C   0  0  0  0  0  0  0  0  0  0  0  0
  -18.1773    1.1107  -15.0372 C   0  0  0  0  0  0  0  0  0  0  0  0
  -19.4778    0.6250  -14.8212 C   0  0  0  0  0  0  0  0  0  0  0  0
  -20.5800    1.4828  -14.6115 C   0  0  0  0  0  0  0  0  0  0  0  0
  -22.0912   -0.2789  -13.9375 N   0  0  0  0  0  0  0  0  0  0  0  0
  -21.7045   -0.8572  -14.6717 H   0  0  0  0  0  0  0  0  0  0  0  0
  -25.3884   -1.8087  -11.7815 C   0  0  0  0  0  0  0  0  0  0  0  0
  -24.1632   -1.5405  -11.1591 C   0  0  0  0  0  0  0  0  0  0  0  0
  -23.0810   -1.0356  -11.8764 C   0  0  0  0  0  0  0  0  0  0  0  0
  -23.1820   -0.8215  -13.2492 C   0  0  0  0  0  0  0  0  0  0  0  0
  -24.4077   -1.0796  -13.8788 C   0  0  0  0  0  0  0  0  0  0  0  0
  -25.4973   -1.5753  -13.1579 C   0  0  0  0  0  0  0  0  0  0  0  0
  -26.9801   -1.8553  -14.0043 Cl  0  0  0  0  0  0  0  0  0  0  0  0
  -27.5926   -1.6359  -10.6726 C   0  0  0  0  0  0  0  0  0  0  0  0
  -27.9074   -0.5108  -11.0279 O   0  0  0  0  0  0  0  0  0  0  0  0
  -26.4854   -2.3374  -11.0669 N   0  0  0  0  0  0  0  0  0  0  0  0
  -26.4451   -3.3097  -10.7851 H   0  0  0  0  0  0  0  0  0  0  0  0
  -28.2958   -2.3573   -9.7607 O   0  0  0  0  0  0  0  0  0  0  0  0
  -27.9268   -1.6296   -7.4993 C   0  0  0  0  0  0  0  0  0  0  0  0
  -27.5470   -2.6421   -8.5669 C   0  0  0  0  0  0  0  0  0  0  0  0
  -17.3175    0.0752  -15.2434 O   0  0  0  0  0  0  0  0  0  0  0  0
  -16.3205   -0.2289  -14.2910 C   0  0  0  0  0  0  0  0  0  0  0  0
  -16.7053    3.0695  -15.0936 O   0  0  0  0  0  0  0  0  0  0  0  0
  -16.6177    4.1216  -16.0914 C   0  0  0  0  0  0  0  0  0  0  0  0
  -15.5507    4.0125  -17.2008 C   0  0  0  0  0  0  0  0  0  0  0  0
  -14.4542    3.0497  -16.8507 N   0  0  0  0  0  0  0  0  0  0  0  0
  -14.0676    2.1295  -17.9386 C   0  0  0  0  0  0  0  0  0  0  0  0
  -14.3979    0.6578  -17.7145 C   0  0  0  0  0  0  0  0  0  0  0  0
  -13.3010    3.7544  -16.2589 C   0  0  0  0  0  0  0  0  0  0  0  0
  -12.4804    2.9314  -15.2587 C   0  0  0  0  0  0  0  0  0  0  0  0
 25 26  1  0  0  0
 26 24  1  0  0  0
 24 20  1  0  0  0
 20 21  2  0  0  0
 20 22  1  0  0  0
 22 13  1  0  0  0
 22 23  1  0  0  0
 13 14  1  0  0  0
 13 18  2  0  0  0
 14 15  2  0  0  0
 15 16  1  0  0  0
 16 11  1  0  0  0
 16 17  2  0  0  0
 11  1  1  0  0  0
 11 12  1  0  0  0
  1  2  1  0  0  0
  1 10  2  0  0  0
  2  3  2  0  0  0
  3  4  1  0  0  0
  4  5  2  0  0  0
  5  6  1  0  0  0
  5 10  1  0  0  0
  6  7  2  0  0  0
  7 29  1  0  0  0
  7  8  1  0  0  0
 29 30  1  0  0  0
 30 31  1  0  0  0
 31 32  1  0  0  0
 32 33  1  0  0  0
 32 35  1  0  0  0
 33 34  1  0  0  0
 35 36  1  0  0  0
  8 27  1  0  0  0
  8  9  2  0  0  0
 27 28  1  0  0  0
  9 10  1  0  0  0
 17 18  1  0  0  0
 18 19  1  0  0  0
M  END
> <minimizedAffinity>
-8.09539

$$$$
