CHEMBL2348995


 39 44  0  0  0  0  0  0  0  0999 V2000
  -29.5455   -6.2099   -3.5420 C   0  0  0  0  0  0  0  0  0  0  0  0
  -30.9223   -6.4260   -3.3725 C   0  0  0  0  0  0  0  0  0  0  0  0
  -31.8566   -5.4140   -3.5605 C   0  0  0  0  0  0  0  0  0  0  0  0
  -31.4393   -4.1418   -3.8975 C   0  0  0  0  0  0  0  0  0  0  0  0
  -30.0795   -3.8551   -3.9800 C   0  0  0  0  0  0  0  0  0  0  0  0
  -29.1197   -4.8902   -3.8185 C   0  0  0  0  0  0  0  0  0  0  0  0
  -27.9563   -7.9057   -4.5417 C   0  0  0  0  0  0  0  0  0  0  0  0
  -28.1614   -7.5426   -5.6973 O   0  0  0  0  0  0  0  0  0  0  0  0
  -28.6035   -7.2953   -3.4441 N   0  0  0  0  0  0  0  0  0  0  0  0
  -28.3167   -7.5741   -2.5154 H   0  0  0  0  0  0  0  0  0  0  0  0
  -24.0232  -10.7470   -3.0337 C   0  0  0  0  0  0  0  0  0  0  0  0
  -25.3275  -10.2097   -3.4960 C   0  0  0  0  0  0  0  0  0  0  0  0
  -25.6544   -8.9328   -4.0045 C   0  0  0  0  0  0  0  0  0  0  0  0
  -27.0198   -8.9706   -4.2690 C   0  0  0  0  0  0  0  0  0  0  0  0
  -27.4093  -10.2852   -3.9932 N   0  0  0  0  0  0  0  0  0  0  0  0
  -26.4023  -10.9904   -3.4180 N   0  0  0  0  0  0  0  0  0  0  0  0
  -28.6203  -10.9785   -4.2929 C   0  0  0  0  0  0  0  0  0  0  0  0
  -28.9733  -11.2980   -5.6085 C   0  0  0  0  0  0  0  0  0  0  0  0
  -30.1303  -12.0417   -5.8623 C   0  0  0  0  0  0  0  0  0  0  0  0
  -30.9439  -12.4621   -4.8111 C   0  0  0  0  0  0  0  0  0  0  0  0
  -30.6024  -12.1460   -3.4984 C   0  0  0  0  0  0  0  0  0  0  0  0
  -29.4381  -11.4188   -3.2368 C   0  0  0  0  0  0  0  0  0  0  0  0
  -29.6281   -2.5314   -4.2857 O   0  0  0  0  0  0  0  0  0  0  0  0
  -29.0500   -2.1487   -5.5104 C   0  0  0  0  0  0  0  0  0  0  0  0
  -28.3803   -0.8276   -5.3395 C   0  0  0  0  0  0  0  0  0  0  0  0
  -28.0101   -0.2403   -6.4955 C   0  0  0  0  0  0  0  0  0  0  0  0
  -27.8066   -1.0563   -7.6267 C   0  0  0  0  0  0  0  0  0  0  0  0
  -27.0225   -0.9255   -8.6878 N   0  0  0  0  0  0  0  0  0  0  0  0
  -27.1543   -2.0958   -9.3821 C   0  0  0  0  0  0  0  0  0  0  0  0
  -28.0865   -2.9123   -8.7780 C   0  0  0  0  0  0  0  0  0  0  0  0
  -28.4227   -2.2971   -7.6083 N   0  0  0  0  0  0  0  0  0  0  0  0
  -29.1278   -2.8398   -6.5979 N   0  0  0  0  0  0  0  0  0  0  0  0
  -26.4347   -2.4478  -10.4969 N   0  0  0  0  0  0  0  0  0  0  0  0
  -26.2702   -1.6475  -11.6035 C   0  0  0  0  0  0  0  0  0  0  0  0
  -26.7696   -0.5534  -11.8147 O   0  0  0  0  0  0  0  0  0  0  0  0
  -25.9114   -3.3126  -10.4445 H   0  0  0  0  0  0  0  0  0  0  0  0
  -25.3580   -2.2528  -12.6311 C   0  0  0  0  0  0  0  0  0  0  0  0
  -23.8537   -2.1236  -12.5088 C   0  0  0  0  0  0  0  0  0  0  0  0
  -24.5896   -1.3286  -13.5478 C   0  0  0  0  0  0  0  0  0  0  0  0
 11 12  1  0  0  0
 12 13  1  0  0  0
 12 16  2  0  0  0
 13 14  2  0  0  0
 14  7  1  0  0  0
 14 15  1  0  0  0
  7  8  2  0  0  0
  7  9  1  0  0  0
  9  1  1  0  0  0
  9 10  1  0  0  0
  1  2  1  0  0  0
  1  6  2  0  0  0
  2  3  2  0  0  0
  3  4  1  0  0  0
  4  5  2  0  0  0
  5 23  1  0  0  0
  5  6  1  0  0  0
 23 24  1  0  0  0
 24 25  1  0  0  0
 24 32  2  0  0  0
 25 26  2  0  0  0
 26 27  1  0  0  0
 27 28  2  0  0  0
 27 31  1  0  0  0
 28 29  1  0  0  0
 29 33  1  0  0  0
 29 30  2  0  0  0
 33 34  1  0  0  0
 33 36  1  0  0  0
 34 35  2  0  0  0
 34 37  1  0  0  0
 37 38  1  0  0  0
 37 39  1  0  0  0
 38 39  1  0  0  0
 30 31  1  0  0  0
 31 32  1  0  0  0
 15 17  1  0  0  0
 15 16  1  0  0  0
 17 18  1  0  0  0
 17 22  2  0  0  0
 18 19  2  0  0  0
 19 20  1  0  0  0
 20 21  2  0  0  0
 21 22  1  0  0  0
M  END
> <minimizedAffinity>
-9.88213

$$$$
