CHEMBL2088099


 28 30  0  0  0  0  0  0  0  0999 V2000
  -24.1693   -1.0099  -13.3896 C   0  0  0  0  0  0  0  0  0  0  0  0
  -25.0735   -1.1522  -14.4212 C   0  0  0  0  0  0  0  0  0  0  0  0
  -26.2929   -1.6942  -14.0936 C   0  0  0  0  0  0  0  0  0  0  0  0
  -26.6216   -2.0691  -12.8482 N   0  0  0  0  0  0  0  0  0  0  0  0
  -25.7307   -1.8163  -11.8912 C   0  0  0  0  0  0  0  0  0  0  0  0
  -24.5168   -1.3076  -12.1251 N   0  0  0  0  0  0  0  0  0  0  0  0
  -22.8517   -0.6128  -13.6932 N   0  0  0  0  0  0  0  0  0  0  0  0
  -22.1508   -1.3129  -13.4964 H   0  0  0  0  0  0  0  0  0  0  0  0
  -21.0837    2.3158  -14.5808 C   0  0  0  0  0  0  0  0  0  0  0  0
  -21.0812    0.9545  -14.4089 C   0  0  0  0  0  0  0  0  0  0  0  0
  -22.3610    0.6250  -13.9093 C   0  0  0  0  0  0  0  0  0  0  0  0
  -23.0920    1.7286  -13.7077 N   0  0  0  0  0  0  0  0  0  0  0  0
  -22.2987    2.7327  -14.1188 N   0  0  0  0  0  0  0  0  0  0  0  0
  -22.6653    3.6807  -14.1044 H   0  0  0  0  0  0  0  0  0  0  0  0
  -20.0723    3.2374  -15.1599 C   0  0  0  0  0  0  0  0  0  0  0  0
  -18.6511    2.8966  -14.6965 C   0  0  0  0  0  0  0  0  0  0  0  0
  -17.8010    2.2204  -15.7698 C   0  0  0  0  0  0  0  0  0  0  0  0
  -16.6014    0.7516  -14.3653 C   0  0  0  0  0  0  0  0  0  0  0  0
  -16.5276    1.8884  -15.2138 O   0  0  0  0  0  0  0  0  0  0  0  0
  -26.1226   -2.1161  -10.6050 N   0  0  0  0  0  0  0  0  0  0  0  0
  -25.3912   -1.7971   -9.9773 H   0  0  0  0  0  0  0  0  0  0  0  0
  -27.4641   -1.7191  -10.2130 C   0  0  0  0  0  0  0  0  0  0  0  0
  -27.7605   -2.1188   -8.8123 C   0  0  0  0  0  0  0  0  0  0  0  0
  -28.4599   -3.1663   -8.2661 C   0  0  0  0  0  0  0  0  0  0  0  0
  -28.3758   -2.9581   -6.8760 C   0  0  0  0  0  0  0  0  0  0  0  0
  -28.9486   -3.7934   -5.7983 C   0  0  0  0  0  0  0  0  0  0  0  0
  -27.6761   -1.8525   -6.5906 N   0  0  0  0  0  0  0  0  0  0  0  0
  -27.2953   -1.3235   -7.8165 O   0  0  0  0  0  0  0  0  0  0  0  0
 18 19  1  0  0  0
 19 17  1  0  0  0
 17 16  1  0  0  0
 16 15  1  0  0  0
 15  9  1  0  0  0
  9 10  2  0  0  0
  9 13  1  0  0  0
 10 11  1  0  0  0
 11  7  1  0  0  0
 11 12  2  0  0  0
  7  1  1  0  0  0
  7  8  1  0  0  0
  1  2  1  0  0  0
  1  6  2  0  0  0
  2  3  2  0  0  0
  3  4  1  0  0  0
  4  5  2  0  0  0
  5 20  1  0  0  0
  5  6  1  0  0  0
 20 22  1  0  0  0
 20 21  1  0  0  0
 22 23  1  0  0  0
 23 24  2  0  0  0
 23 28  1  0  0  0
 24 25  1  0  0  0
 25 26  1  0  0  0
 25 27  2  0  0  0
 27 28  1  0  0  0
 12 13  1  0  0  0
 13 14  1  0  0  0
M  END
> <minimizedAffinity>
-8.18793

$$$$
