CHEMBL3943327


 43 45  0  0  0  0  0  0  0  0999 V2000
  -15.9197    0.6568  -13.7674 C   0  0  0  0  0  0  0  0  0  0  0  0
  -17.2979    0.6282  -13.6410 C   0  0  0  0  0  0  0  0  0  0  0  0
  -18.1413    1.4142  -14.3658 N   0  0  0  0  0  0  0  0  0  0  0  0
  -17.5939    2.2669  -15.2598 C   0  0  0  0  0  0  0  0  0  0  0  0
  -18.4893    3.1265  -15.8944 N   0  0  0  0  0  0  0  0  0  0  0  0
  -16.2123    2.3456  -15.4715 C   0  0  0  0  0  0  0  0  0  0  0  0
  -15.3735    1.5242  -14.7184 C   0  0  0  0  0  0  0  0  0  0  0  0
  -19.4336    2.8345  -15.6608 H   0  0  0  0  0  0  0  0  0  0  0  0
  -18.3258    3.2026  -16.8905 H   0  0  0  0  0  0  0  0  0  0  0  0
  -15.0361   -0.1795  -12.9120 C   0  0  0  0  0  0  0  0  0  0  0  0
  -13.8513    0.1465  -12.8904 O   0  0  0  0  0  0  0  0  0  0  0  0
  -15.4803   -2.6753  -12.5855 S   0  0  0  0  0  0  0  0  0  0  0  0
  -13.7758   -3.2058  -12.5282 C   0  0  0  0  0  0  0  0  0  0  0  0
  -16.0294   -3.1230  -13.8491 O   0  0  0  0  0  0  0  0  0  0  0  0
  -15.5433   -1.2090  -12.0925 N   0  0  0  0  0  0  0  0  0  0  0  0
  -16.2190   -3.7080  -11.3175 C   0  0  0  0  0  0  0  0  0  0  0  0
  -16.7159   -5.0418  -11.8737 C   0  0  0  0  0  0  0  0  0  0  0  0
  -15.5648   -6.0363  -12.0437 C   0  0  0  0  0  0  0  0  0  0  0  0
  -15.6298   -6.7766  -13.3822 C   0  0  0  0  0  0  0  0  0  0  0  0
  -14.4277   -7.6751  -13.5780 C   0  0  0  0  0  0  0  0  0  0  0  0
  -13.4871   -7.4421  -14.3254 O   0  0  0  0  0  0  0  0  0  0  0  0
  -13.4155   -9.0273  -11.9560 C   0  0  0  0  0  0  0  0  0  0  0  0
  -14.5469   -8.7855  -12.7963 O   0  0  0  0  0  0  0  0  0  0  0  0
  -15.6348    3.2193  -16.4502 C   0  0  0  0  0  0  0  0  0  0  0  0
  -15.1109    3.9153  -17.2725 C   0  0  0  0  0  0  0  0  0  0  0  0
  -14.4448    4.6925  -18.2716 C   0  0  0  0  0  0  0  0  0  0  0  0
  -13.1551    4.3288  -18.6777 C   0  0  0  0  0  0  0  0  0  0  0  0
  -12.4776    5.0892  -19.6268 C   0  0  0  0  0  0  0  0  0  0  0  0
  -13.0907    6.2161  -20.1661 C   0  0  0  0  0  0  0  0  0  0  0  0
  -14.3832    6.5885  -19.7617 C   0  0  0  0  0  0  0  0  0  0  0  0
  -15.0695    5.8201  -18.8180 C   0  0  0  0  0  0  0  0  0  0  0  0
  -14.9772    7.7736  -20.4242 C   0  0  0  0  0  0  0  0  0  0  0  0
  -14.8425    7.8461  -21.6416 O   0  0  0  0  0  0  0  0  0  0  0  0
  -15.5508    8.7353  -19.6049 N   0  0  0  0  0  0  0  0  0  0  0  0
  -15.4134    8.6659  -18.6010 H   0  0  0  0  0  0  0  0  0  0  0  0
  -16.0272    9.9884  -20.0706 C   0  0  0  0  0  0  0  0  0  0  0  0
  -17.3599   10.2031  -20.4320 C   0  0  0  0  0  0  0  0  0  0  0  0
  -17.7684   11.3985  -21.0397 C   0  0  0  0  0  0  0  0  0  0  0  0
  -19.1791   11.5378  -21.5314 C   0  0  0  0  0  0  0  0  0  0  0  0
  -16.8315   12.4162  -21.2427 C   0  0  0  0  0  0  0  0  0  0  0  0
  -15.5123   12.2456  -20.8173 C   0  0  0  0  0  0  0  0  0  0  0  0
  -15.1228   11.0413  -20.2316 C   0  0  0  0  0  0  0  0  0  0  0  0
  -13.8402   10.8808  -19.8672 F   0  0  0  0  0  0  0  0  0  0  0  0
 22 23  1  0  0  0
 23 20  1  0  0  0
 20 21  2  0  0  0
 20 19  1  0  0  0
 19 18  1  0  0  0
 18 17  1  0  0  0
 17 16  1  0  0  0
 16 12  1  0  0  0
 12 13  1  0  0  0
 12 14  2  0  0  0
 12 15  2  0  0  0
 15 10  1  0  0  0
 10 11  2  0  0  0
 10  1  1  0  0  0
  1  2  1  0  0  0
  1  7  2  0  0  0
  2  3  2  0  0  0
  3  4  1  0  0  0
  4  5  1  0  0  0
  4  6  2  0  0  0
  5  8  1  0  0  0
  5  9  1  0  0  0
  6 24  1  0  0  0
  6  7  1  0  0  0
 24 25  3  0  0  0
 25 26  1  0  0  0
 26 27  1  0  0  0
 26 31  2  0  0  0
 27 28  2  0  0  0
 28 29  1  0  0  0
 29 30  2  0  0  0
 30 32  1  0  0  0
 30 31  1  0  0  0
 32 33  2  0  0  0
 32 34  1  0  0  0
 34 36  1  0  0  0
 34 35  1  0  0  0
 36 37  1  0  0  0
 36 42  2  0  0  0
 37 38  2  0  0  0
 38 39  1  0  0  0
 38 40  1  0  0  0
 40 41  2  0  0  0
 41 42  1  0  0  0
 42 43  1  0  0  0
M  END
> <minimizedAffinity>
-7.47203

$$$$
