CHEMBL44622


 24 26  0  0  0  0  0  0  0  0999 V2000
  -29.9556   -5.1894   -5.0209 C   0  0  0  0  0  0  0  0  0  0  0  0
  -29.3114   -5.6694   -3.9496 N   0  0  0  0  0  0  0  0  0  0  0  0
  -29.0866   -6.9865   -3.8770 C   0  0  0  0  0  0  0  0  0  0  0  0
  -29.4807   -7.8677   -4.8463 C   0  0  0  0  0  0  0  0  0  0  0  0
  -30.1275   -7.3091   -5.9299 C   0  0  0  0  0  0  0  0  0  0  0  0
  -30.3840   -5.9761   -6.0179 N   0  0  0  0  0  0  0  0  0  0  0  0
  -30.5357   -8.1462   -7.0137 N   0  0  0  0  0  0  0  0  0  0  0  0
  -29.7375   -8.6787   -8.0077 C   0  0  0  0  0  0  0  0  0  0  0  0
  -30.5682   -9.4362   -8.7918 C   0  0  0  0  0  0  0  0  0  0  0  0
  -31.8534   -9.3813   -8.3411 N   0  0  0  0  0  0  0  0  0  0  0  0
  -31.8284   -8.5887   -7.2969 C   0  0  0  0  0  0  0  0  0  0  0  0
  -32.9110   -8.2170   -6.5870 N   0  0  0  0  0  0  0  0  0  0  0  0
  -33.7623   -8.7501   -6.7083 H   0  0  0  0  0  0  0  0  0  0  0  0
  -32.7697   -7.7976   -5.6697 H   0  0  0  0  0  0  0  0  0  0  0  0
  -30.1837   -3.8233   -5.1766 N   0  0  0  0  0  0  0  0  0  0  0  0
  -31.1652   -3.6186   -5.0715 H   0  0  0  0  0  0  0  0  0  0  0  0
  -27.5170   -2.1652   -9.0067 C   0  0  0  0  0  0  0  0  0  0  0  0
  -28.0810   -1.9397   -7.6364 C   0  0  0  0  0  0  0  0  0  0  0  0
  -27.9183   -0.7334   -6.9558 C   0  0  0  0  0  0  0  0  0  0  0  0
  -28.4624   -0.5649   -5.6773 C   0  0  0  0  0  0  0  0  0  0  0  0
  -28.2910    0.7274   -4.9358 C   0  0  0  0  0  0  0  0  0  0  0  0
  -29.1915   -1.6146   -5.0936 C   0  0  0  0  0  0  0  0  0  0  0  0
  -29.3934   -2.8270   -5.7683 C   0  0  0  0  0  0  0  0  0  0  0  0
  -28.8044   -2.9717   -7.0282 C   0  0  0  0  0  0  0  0  0  0  0  0
 17 18  1  0  0  0
 18 19  1  0  0  0
 18 24  2  0  0  0
 19 20  2  0  0  0
 20 21  1  0  0  0
 20 22  1  0  0  0
 22 23  2  0  0  0
 23 15  1  0  0  0
 23 24  1  0  0  0
 15  1  1  0  0  0
 15 16  1  0  0  0
  1  2  1  0  0  0
  1  6  2  0  0  0
  2  3  2  0  0  0
  3  4  1  0  0  0
  4  5  2  0  0  0
  5  7  1  0  0  0
  5  6  1  0  0  0
  7  8  1  0  0  0
  7 11  1  0  0  0
  8  9  2  0  0  0
  9 10  1  0  0  0
 10 11  2  0  0  0
 11 12  1  0  0  0
 12 13  1  0  0  0
 12 14  1  0  0  0
M  END
> <minimizedAffinity>
-7.98112

$$$$
