CHEMBL361886


 40 44  0  0  0  0  0  0  0  0999 V2000
  -23.7897   11.4391  -17.5795 C   0  0  0  0  0  0  0  0  0  0  0  0
  -25.1066   11.1145  -17.2643 C   0  0  0  0  0  0  0  0  0  0  0  0
  -25.6651   11.4940  -16.0739 C   0  0  0  0  0  0  0  0  0  0  0  0
  -26.8980   11.0924  -15.7108 N   0  0  0  0  0  0  0  0  0  0  0  0
  -27.4010   11.4131  -14.5027 C   0  0  0  0  0  0  0  0  0  0  0  0
  -26.6449   12.1567  -13.5423 C   0  0  0  0  0  0  0  0  0  0  0  0
  -25.3944   12.6156  -13.9743 C   0  0  0  0  0  0  0  0  0  0  0  0
  -24.8891   12.2916  -15.2116 C   0  0  0  0  0  0  0  0  0  0  0  0
  -23.6233   12.6581  -15.6412 C   0  0  0  0  0  0  0  0  0  0  0  0
  -23.0503   12.2237  -16.7691 N   0  0  0  0  0  0  0  0  0  0  0  0
  -27.0783   12.4999  -12.1720 C   0  0  0  0  0  0  0  0  0  0  0  0
  -26.1676   12.6393  -11.1162 C   0  0  0  0  0  0  0  0  0  0  0  0
  -26.6064   12.6139   -9.7948 C   0  0  0  0  0  0  0  0  0  0  0  0
  -27.9691   12.5899   -9.5102 C   0  0  0  0  0  0  0  0  0  0  0  0
  -28.8932   12.6584  -10.5468 C   0  0  0  0  0  0  0  0  0  0  0  0
  -28.4511   12.6072  -11.8659 C   0  0  0  0  0  0  0  0  0  0  0  0
  -23.1764   10.8315  -18.6505 N   0  0  0  0  0  0  0  0  0  0  0  0
  -23.7129   10.2182  -19.2493 H   0  0  0  0  0  0  0  0  0  0  0  0
  -21.7987   11.1614  -18.9604 C   0  0  0  0  0  0  0  0  0  0  0  0
  -21.7577   12.0805  -20.1809 C   0  0  0  0  0  0  0  0  0  0  0  0
  -20.3979   12.0170  -20.8961 C   0  0  0  0  0  0  0  0  0  0  0  0
  -15.8459   11.7463  -22.6207 C   0  0  0  0  0  0  0  0  0  0  0  0
  -16.7879   11.2786  -21.6133 N   0  0  0  0  0  0  0  0  0  0  0  0
  -17.2913   12.3872  -20.7870 C   0  0  0  0  0  0  0  0  0  0  0  0
  -18.2430   11.8509  -19.6955 C   0  0  0  0  0  0  0  0  0  0  0  0
  -19.4281   11.1358  -20.2201 N   0  0  0  0  0  0  0  0  0  0  0  0
  -18.9436   10.0784  -21.1444 C   0  0  0  0  0  0  0  0  0  0  0  0
  -17.9237   10.5541  -22.2151 C   0  0  0  0  0  0  0  0  0  0  0  0
  -28.6811   10.9469  -14.2142 N   0  0  0  0  0  0  0  0  0  0  0  0
  -28.8750   10.8834  -13.2079 H   0  0  0  0  0  0  0  0  0  0  0  0
  -29.8125   11.2763  -15.0734 C   0  0  0  0  0  0  0  0  0  0  0  0
  -31.0379   11.7925  -14.3367 C   0  0  0  0  0  0  0  0  0  0  0  0
  -31.3296   10.8012  -13.1790 C   0  0  0  0  0  0  0  0  0  0  0  0
  -32.7456   10.7261  -12.8299 N   0  0  0  0  0  0  0  0  0  0  0  0
  -33.6059   10.7950  -14.0240 C   0  0  0  0  0  0  0  0  0  0  0  0
  -35.0862   10.8286  -13.6133 C   0  0  0  0  0  0  0  0  0  0  0  0
  -35.5192    9.6582  -12.8265 N   0  0  0  0  0  0  0  0  0  0  0  0
  -35.6203    8.4717  -13.6740 C   0  0  0  0  0  0  0  0  0  0  0  0
  -34.5723    9.4495  -11.7068 C   0  0  0  0  0  0  0  0  0  0  0  0
  -33.0711    9.4817  -12.0972 C   0  0  0  0  0  0  0  0  0  0  0  0
 22 23  1  0  0  0
 23 24  1  0  0  0
 23 28  1  0  0  0
 24 25  1  0  0  0
 25 26  1  0  0  0
 26 21  1  0  0  0
 26 27  1  0  0  0
 21 20  1  0  0  0
 20 19  1  0  0  0
 19 17  1  0  0  0
 17  1  1  0  0  0
 17 18  1  0  0  0
  1  2  1  0  0  0
  1 10  2  0  0  0
  2  3  2  0  0  0
  3  4  1  0  0  0
  3  8  1  0  0  0
  4  5  2  0  0  0
  5 29  1  0  0  0
  5  6  1  0  0  0
 29 31  1  0  0  0
 29 30  1  0  0  0
 31 32  1  0  0  0
 32 33  1  0  0  0
 33 34  1  0  0  0
 34 35  1  0  0  0
 34 40  1  0  0  0
 35 36  1  0  0  0
 36 37  1  0  0  0
 37 38  1  0  0  0
 37 39  1  0  0  0
 39 40  1  0  0  0
  6 11  1  0  0  0
  6  7  2  0  0  0
 11 12  1  0  0  0
 11 16  2  0  0  0
 12 13  2  0  0  0
 13 14  1  0  0  0
 14 15  2  0  0  0
 15 16  1  0  0  0
  7  8  1  0  0  0
  8  9  2  0  0  0
  9 10  1  0  0  0
 27 28  1  0  0  0
M  END
> <minimizedAffinity>
-5.38126

$$$$
