CHEMBL590769


 20 23  0  0  0  0  0  0  0  0999 V2000
  -28.3158   -7.6443   -7.3034 O   0  0  0  0  0  0  0  0  0  0  0  0
  -28.9735   -6.7735   -6.7645 C   0  0  0  0  0  0  0  0  0  0  0  0
  -29.6938   -5.7022   -7.5979 C   0  0  0  0  0  0  0  0  0  0  0  0
  -29.1738   -4.3623   -7.2334 C   0  0  0  0  0  0  0  0  0  0  0  0
  -28.6691   -3.4606   -8.3105 C   0  0  0  0  0  0  0  0  0  0  0  0
  -28.2688   -2.2344   -8.1615 N   0  0  0  0  0  0  0  0  0  0  0  0
  -28.1027   -1.8403   -6.8664 C   0  0  0  0  0  0  0  0  0  0  0  0
  -27.6573   -0.6669   -6.3089 C   0  0  0  0  0  0  0  0  0  0  0  0
  -27.1989   -1.0746   -5.0493 C   0  0  0  0  0  0  0  0  0  0  0  0
  -27.7273   -2.2407   -4.6666 N   0  0  0  0  0  0  0  0  0  0  0  0
  -28.3759   -2.6857   -5.7808 N   0  0  0  0  0  0  0  0  0  0  0  0
  -29.1078   -3.8675   -5.9813 C   0  0  0  0  0  0  0  0  0  0  0  0
  -29.9421   -4.5089   -4.9334 C   0  0  0  0  0  0  0  0  0  0  0  0
  -30.8971   -3.7052   -4.2793 C   0  0  0  0  0  0  0  0  0  0  0  0
  -31.8304   -4.2611   -3.4037 C   0  0  0  0  0  0  0  0  0  0  0  0
  -31.7834   -5.6217   -3.1119 C   0  0  0  0  0  0  0  0  0  0  0  0
  -30.8228   -6.4298   -3.7131 C   0  0  0  0  0  0  0  0  0  0  0  0
  -29.9600   -5.8931   -4.6826 C   0  0  0  0  0  0  0  0  0  0  0  0
  -29.1964   -6.8071   -5.4221 N   0  0  0  0  0  0  0  0  0  0  0  0
  -28.9429   -7.6902   -4.9919 H   0  0  0  0  0  0  0  0  0  0  0  0
  1  2  2  0  0  0
  2  3  1  0  0  0
  2 19  1  0  0  0
  3  4  1  0  0  0
  4  5  1  0  0  0
  4 12  2  0  0  0
  5  6  2  0  0  0
  6  7  1  0  0  0
  7  8  2  0  0  0
  7 11  1  0  0  0
  8  9  1  0  0  0
  9 10  2  0  0  0
 10 11  1  0  0  0
 11 12  1  0  0  0
 12 13  1  0  0  0
 13 14  1  0  0  0
 13 18  2  0  0  0
 14 15  2  0  0  0
 15 16  1  0  0  0
 16 17  2  0  0  0
 17 18  1  0  0  0
 18 19  1  0  0  0
 19 20  1  0  0  0
M  END
> <minimizedAffinity>
-7.82629

$$$$
