CHEMBL502351


 27 31  0  0  0  0  0  0  0  0999 V2000
  -18.3545    2.2967  -15.5119 C   0  0  0  0  0  0  0  0  0  0  0  0
  -18.7244    0.8831  -15.1519 C   0  0  0  0  0  0  0  0  0  0  0  0
  -19.8563    0.4633  -14.6647 N   0  0  0  0  0  0  0  0  0  0  0  0
  -20.8107    1.4189  -14.4308 C   0  0  0  0  0  0  0  0  0  0  0  0
  -22.0580    1.3943  -13.8216 C   0  0  0  0  0  0  0  0  0  0  0  0
  -22.5291    2.7231  -13.9656 C   0  0  0  0  0  0  0  0  0  0  0  0
  -21.6630    3.5366  -14.5638 N   0  0  0  0  0  0  0  0  0  0  0  0
  -20.5913    2.7505  -14.8130 N   0  0  0  0  0  0  0  0  0  0  0  0
  -19.3731    3.1612  -15.3444 C   0  0  0  0  0  0  0  0  0  0  0  0
  -22.7794    0.2469  -13.2556 C   0  0  0  0  0  0  0  0  0  0  0  0
  -22.2902   -0.2451  -12.0281 C   0  0  0  0  0  0  0  0  0  0  0  0
  -22.8551   -1.3591  -11.4204 C   0  0  0  0  0  0  0  0  0  0  0  0
  -23.9431   -1.9828  -12.0165 C   0  0  0  0  0  0  0  0  0  0  0  0
  -24.4669   -1.5425  -13.2184 C   0  0  0  0  0  0  0  0  0  0  0  0
  -25.5148   -2.2347  -13.6950 N   0  0  0  0  0  0  0  0  0  0  0  0
  -26.0313   -1.8718  -14.8823 C   0  0  0  0  0  0  0  0  0  0  0  0
  -25.5246   -0.8454  -15.6465 C   0  0  0  0  0  0  0  0  0  0  0  0
  -24.4379   -0.1307  -15.1438 C   0  0  0  0  0  0  0  0  0  0  0  0
  -23.8762   -0.4329  -13.8812 C   0  0  0  0  0  0  0  0  0  0  0  0
  -14.4569    3.4272  -16.9967 C   0  0  0  0  0  0  0  0  0  0  0  0
  -14.7661    2.0898  -16.7727 C   0  0  0  0  0  0  0  0  0  0  0  0
  -16.0292    1.7292  -16.2786 C   0  0  0  0  0  0  0  0  0  0  0  0
  -17.0099    2.6941  -15.9856 C   0  0  0  0  0  0  0  0  0  0  0  0
  -16.6788    4.0366  -16.2066 C   0  0  0  0  0  0  0  0  0  0  0  0
  -15.4185    4.3951  -16.7096 C   0  0  0  0  0  0  0  0  0  0  0  0
  -13.0928    5.3219  -17.4514 C   0  0  0  0  0  0  0  0  0  0  0  0
  -13.2772    3.9112  -17.4887 O   0  0  0  0  0  0  0  0  0  0  0  0
 26 27  1  0  0  0
 27 20  1  0  0  0
 20 21  1  0  0  0
 20 25  2  0  0  0
 21 22  2  0  0  0
 22 23  1  0  0  0
 23  1  1  0  0  0
 23 24  2  0  0  0
  1  2  1  0  0  0
  1  9  2  0  0  0
  2  3  2  0  0  0
  3  4  1  0  0  0
  4  5  2  0  0  0
  4  8  1  0  0  0
  5 10  1  0  0  0
  5  6  1  0  0  0
 10 11  1  0  0  0
 10 19  2  0  0  0
 11 12  2  0  0  0
 12 13  1  0  0  0
 13 14  2  0  0  0
 14 15  1  0  0  0
 14 19  1  0  0  0
 15 16  2  0  0  0
 16 17  1  0  0  0
 17 18  2  0  0  0
 18 19  1  0  0  0
  6  7  2  0  0  0
  7  8  1  0  0  0
  8  9  1  0  0  0
 24 25  1  0  0  0
M  END
> <minimizedAffinity>
-8.94269

$$$$
