CHEMBL3911858


 33 36  0  0  0  0  0  0  0  0999 V2000
  -28.2824   -2.1943   -8.2704 C   0  0  0  0  0  0  0  0  0  0  0  0
  -28.9996   -3.3537   -8.5700 C   0  0  0  0  0  0  0  0  0  0  0  0
  -29.4887   -4.1789   -7.5465 C   0  0  0  0  0  0  0  0  0  0  0  0
  -29.2717   -3.8738   -6.1931 C   0  0  0  0  0  0  0  0  0  0  0  0
  -28.4450   -2.7608   -5.9308 C   0  0  0  0  0  0  0  0  0  0  0  0
  -27.9704   -1.9178   -6.9463 C   0  0  0  0  0  0  0  0  0  0  0  0
  -29.9203   -4.6595   -5.1099 C   0  0  0  0  0  0  0  0  0  0  0  0
  -31.0807   -4.2224   -4.4450 C   0  0  0  0  0  0  0  0  0  0  0  0
  -31.6373   -4.9813   -3.4281 C   0  0  0  0  0  0  0  0  0  0  0  0
  -31.1739   -6.1682   -3.0062 N   0  0  0  0  0  0  0  0  0  0  0  0
  -30.0425   -6.6050   -3.6118 C   0  0  0  0  0  0  0  0  0  0  0  0
  -29.4004   -7.8512   -3.3270 C   0  0  0  0  0  0  0  0  0  0  0  0
  -28.2621   -8.0558   -4.0784 C   0  0  0  0  0  0  0  0  0  0  0  0
  -27.9196   -6.6942   -5.0334 S   0  0  0  0  0  0  0  0  0  0  0  0
  -29.3872   -5.8834   -4.6186 C   0  0  0  0  0  0  0  0  0  0  0  0
  -27.4004   -9.2215   -4.0986 C   0  0  0  0  0  0  0  0  0  0  0  0
  -27.5656  -10.2343   -3.4316 O   0  0  0  0  0  0  0  0  0  0  0  0
  -26.3628   -9.1059   -4.9714 O   0  0  0  0  0  0  0  0  0  0  0  0
  -26.3636   -8.2395   -5.4225 H   0  0  0  0  0  0  0  0  0  0  0  0
  -26.7161   -0.6858  -11.1748 N   0  0  0  0  0  0  0  0  0  0  0  0
  -27.0186   -1.6845  -10.2688 C   0  0  0  0  0  0  0  0  0  0  0  0
  -26.6200   -2.8419  -10.3265 O   0  0  0  0  0  0  0  0  0  0  0  0
  -27.9140   -1.2711   -9.2852 N   0  0  0  0  0  0  0  0  0  0  0  0
  -27.2395    0.1708  -11.0987 H   0  0  0  0  0  0  0  0  0  0  0  0
  -28.6607   -0.6941   -9.6395 H   0  0  0  0  0  0  0  0  0  0  0  0
  -22.3076    0.3281  -13.2112 C   0  0  0  0  0  0  0  0  0  0  0  0
  -23.6701   -0.2981  -13.2978 C   0  0  0  0  0  0  0  0  0  0  0  0
  -24.0571   -0.9379  -14.4795 C   0  0  0  0  0  0  0  0  0  0  0  0
  -25.3004   -1.5422  -14.5652 C   0  0  0  0  0  0  0  0  0  0  0  0
  -26.1761   -1.5022  -13.4813 C   0  0  0  0  0  0  0  0  0  0  0  0
  -27.2959   -2.2210  -13.6097 F   0  0  0  0  0  0  0  0  0  0  0  0
  -25.8492   -0.8221  -12.2965 C   0  0  0  0  0  0  0  0  0  0  0  0
  -24.5686   -0.2439  -12.2101 C   0  0  0  0  0  0  0  0  0  0  0  0
 26 27  1  0  0  0
 27 28  1  0  0  0
 27 33  2  0  0  0
 28 29  2  0  0  0
 29 30  1  0  0  0
 30 31  1  0  0  0
 30 32  2  0  0  0
 32 20  1  0  0  0
 32 33  1  0  0  0
 20 21  1  0  0  0
 20 24  1  0  0  0
 21 22  2  0  0  0
 21 23  1  0  0  0
 23  1  1  0  0  0
 23 25  1  0  0  0
  1  2  1  0  0  0
  1  6  2  0  0  0
  2  3  2  0  0  0
  3  4  1  0  0  0
  4  7  1  0  0  0
  4  5  2  0  0  0
  7  8  1  0  0  0
  7 15  2  0  0  0
  8  9  2  0  0  0
  9 10  1  0  0  0
 10 11  2  0  0  0
 11 12  1  0  0  0
 11 15  1  0  0  0
 12 13  2  0  0  0
 13 16  1  0  0  0
 13 14  1  0  0  0
 16 17  2  0  0  0
 16 18  1  0  0  0
 18 19  1  0  0  0
 14 15  1  0  0  0
  5  6  1  0  0  0
M  END
> <minimizedAffinity>
-9.82321

$$$$
