CHEMBL1254276


 35 38  0  0  0  0  0  0  0  0999 V2000
  -27.9438   -2.7037   -6.3820 C   0  0  0  0  0  0  0  0  0  0  0  0
  -28.4005   -3.7281   -5.5319 C   0  0  0  0  0  0  0  0  0  0  0  0
  -29.1490   -4.7993   -6.0224 C   0  0  0  0  0  0  0  0  0  0  0  0
  -29.5078   -4.8234   -7.3593 C   0  0  0  0  0  0  0  0  0  0  0  0
  -29.0595   -3.8150   -8.2123 C   0  0  0  0  0  0  0  0  0  0  0  0
  -28.2852   -2.7339   -7.7483 C   0  0  0  0  0  0  0  0  0  0  0  0
  -27.8345   -1.6980   -8.6360 N   0  0  0  0  0  0  0  0  0  0  0  0
  -27.2555   -1.9495   -9.8645 C   0  0  0  0  0  0  0  0  0  0  0  0
  -27.2342   -3.0751  -10.3610 O   0  0  0  0  0  0  0  0  0  0  0  0
  -26.6865   -0.8430  -10.4802 N   0  0  0  0  0  0  0  0  0  0  0  0
  -28.2005   -0.7754   -8.4409 H   0  0  0  0  0  0  0  0  0  0  0  0
  -26.5155   -0.0373   -9.8984 H   0  0  0  0  0  0  0  0  0  0  0  0
  -26.0116   -0.9075  -11.7388 C   0  0  0  0  0  0  0  0  0  0  0  0
  -26.5711   -1.5272  -12.8643 C   0  0  0  0  0  0  0  0  0  0  0  0
  -25.8575   -1.6964  -14.0491 C   0  0  0  0  0  0  0  0  0  0  0  0
  -24.5735   -1.1887  -14.1577 C   0  0  0  0  0  0  0  0  0  0  0  0
  -24.0048   -0.4857  -13.0852 C   0  0  0  0  0  0  0  0  0  0  0  0
  -24.7282   -0.3532  -11.8740 C   0  0  0  0  0  0  0  0  0  0  0  0
  -22.6313    0.1209  -13.2399 C   0  0  0  0  0  0  0  0  0  0  0  0
  -22.6535    1.4478  -13.5589 F   0  0  0  0  0  0  0  0  0  0  0  0
  -21.8935    0.0298  -12.0992 F   0  0  0  0  0  0  0  0  0  0  0  0
  -21.8955   -0.4811  -14.2135 F   0  0  0  0  0  0  0  0  0  0  0  0
  -27.8277   -0.8101   -4.9565 C   0  0  0  0  0  0  0  0  0  0  0  0
  -27.1935   -1.6365   -5.9371 O   0  0  0  0  0  0  0  0  0  0  0  0
  -29.6338   -5.8150   -5.2329 O   0  0  0  0  0  0  0  0  0  0  0  0
  -28.9221   -7.0026   -5.1866 C   0  0  0  0  0  0  0  0  0  0  0  0
  -27.7167   -7.0640   -4.5734 N   0  0  0  0  0  0  0  0  0  0  0  0
  -27.0749   -8.2406   -4.5599 C   0  0  0  0  0  0  0  0  0  0  0  0
  -27.4722   -9.3985   -5.1037 N   0  0  0  0  0  0  0  0  0  0  0  0
  -28.6579   -9.3150   -5.7396 C   0  0  0  0  0  0  0  0  0  0  0  0
  -29.3732  -10.3224   -6.4265 C   0  0  0  0  0  0  0  0  0  0  0  0
  -30.5383   -9.7548   -6.8961 C   0  0  0  0  0  0  0  0  0  0  0  0
  -30.5505   -8.4358   -6.5108 N   0  0  0  0  0  0  0  0  0  0  0  0
  -31.6176   -7.5053   -6.8029 C   0  0  0  0  0  0  0  0  0  0  0  0
  -29.4051   -8.1467   -5.8047 C   0  0  0  0  0  0  0  0  0  0  0  0
 23 24  1  0  0  0
 24  1  1  0  0  0
  1  2  1  0  0  0
  1  6  2  0  0  0
  2  3  2  0  0  0
  3 25  1  0  0  0
  3  4  1  0  0  0
 25 26  1  0  0  0
 26 27  1  0  0  0
 26 35  2  0  0  0
 27 28  2  0  0  0
 28 29  1  0  0  0
 29 30  2  0  0  0
 30 31  1  0  0  0
 30 35  1  0  0  0
 31 32  2  0  0  0
 32 33  1  0  0  0
 33 34  1  0  0  0
 33 35  1  0  0  0
  4  5  2  0  0  0
  5  6  1  0  0  0
  6  7  1  0  0  0
  7  8  1  0  0  0
  7 11  1  0  0  0
  8  9  2  0  0  0
  8 10  1  0  0  0
 10 13  1  0  0  0
 10 12  1  0  0  0
 13 14  1  0  0  0
 13 18  2  0  0  0
 14 15  2  0  0  0
 15 16  1  0  0  0
 16 17  2  0  0  0
 17 19  1  0  0  0
 17 18  1  0  0  0
 19 20  1  0  0  0
 19 21  1  0  0  0
 19 22  1  0  0  0
M  END
> <minimizedAffinity>
-9.65460

$$$$
