CHEMBL244287


 39 42  0  0  0  0  0  0  0  0999 V2000
  -29.4433   -2.5541   -6.2310 C   0  0  0  0  0  0  0  0  0  0  0  0
  -29.3801   -3.4315   -7.3163 C   0  0  0  0  0  0  0  0  0  0  0  0
  -28.4673   -3.1949   -8.3565 C   0  0  0  0  0  0  0  0  0  0  0  0
  -27.6337   -2.0694   -8.3299 C   0  0  0  0  0  0  0  0  0  0  0  0
  -27.7474   -1.1701   -7.2724 C   0  0  0  0  0  0  0  0  0  0  0  0
  -28.6680   -1.3944   -6.2497 C   0  0  0  0  0  0  0  0  0  0  0  0
  -26.6227   -1.9549   -9.3018 N   0  0  0  0  0  0  0  0  0  0  0  0
  -25.6706   -2.0507   -8.9726 H   0  0  0  0  0  0  0  0  0  0  0  0
  -26.7372   -1.7310  -10.6608 C   0  0  0  0  0  0  0  0  0  0  0  0
  -28.0782   -1.1391  -11.4642 S   0  0  0  0  0  0  0  0  0  0  0  0
  -25.6743   -2.1907  -11.4072 N   0  0  0  0  0  0  0  0  0  0  0  0
  -25.3137   -3.1021  -11.1442 H   0  0  0  0  0  0  0  0  0  0  0  0
  -25.1661   -1.6096  -12.5826 C   0  0  0  0  0  0  0  0  0  0  0  0
  -25.8748   -1.7606  -13.7719 C   0  0  0  0  0  0  0  0  0  0  0  0
  -25.3435   -1.2584  -14.9620 C   0  0  0  0  0  0  0  0  0  0  0  0
  -24.1418   -0.5452  -14.9537 C   0  0  0  0  0  0  0  0  0  0  0  0
  -23.4652   -0.3118  -13.7498 C   0  0  0  0  0  0  0  0  0  0  0  0
  -23.9846   -0.8611  -12.5700 C   0  0  0  0  0  0  0  0  0  0  0  0
  -22.2130    0.5253  -13.6857 C   0  0  0  0  0  0  0  0  0  0  0  0
  -21.5882    0.4804  -12.4775 F   0  0  0  0  0  0  0  0  0  0  0  0
  -21.2828    0.1356  -14.6020 F   0  0  0  0  0  0  0  0  0  0  0  0
  -22.4532    1.8423  -13.9349 F   0  0  0  0  0  0  0  0  0  0  0  0
  -30.2891   -2.8923   -5.1899 O   0  0  0  0  0  0  0  0  0  0  0  0
  -28.2632   -8.1387   -3.6049 C   0  0  0  0  0  0  0  0  0  0  0  0
  -29.5594   -8.0746   -3.4372 N   0  0  0  0  0  0  0  0  0  0  0  0
  -29.9006   -6.7719   -3.7121 C   0  0  0  0  0  0  0  0  0  0  0  0
  -31.1272   -6.1287   -3.5654 C   0  0  0  0  0  0  0  0  0  0  0  0
  -31.2434   -4.8013   -3.9872 C   0  0  0  0  0  0  0  0  0  0  0  0
  -30.1735   -4.1566   -4.6278 C   0  0  0  0  0  0  0  0  0  0  0  0
  -28.9082   -4.7608   -4.7002 C   0  0  0  0  0  0  0  0  0  0  0  0
  -28.8050   -6.0685   -4.2073 C   0  0  0  0  0  0  0  0  0  0  0  0
  -27.7538   -6.9461   -4.0641 N   0  0  0  0  0  0  0  0  0  0  0  0
  -26.7853   -6.7727   -4.2826 H   0  0  0  0  0  0  0  0  0  0  0  0
  -26.7553   -9.7973   -4.3586 C   0  0  0  0  0  0  0  0  0  0  0  0
  -26.8498   -9.5840   -5.5594 O   0  0  0  0  0  0  0  0  0  0  0  0
  -27.5301   -9.2674   -3.3688 N   0  0  0  0  0  0  0  0  0  0  0  0
  -27.1041   -9.3174   -2.4533 H   0  0  0  0  0  0  0  0  0  0  0  0
  -24.4803   -9.9716   -3.7827 C   0  0  0  0  0  0  0  0  0  0  0  0
  -25.7857  -10.5472   -3.7717 O   0  0  0  0  0  0  0  0  0  0  0  0
 38 39  1  0  0  0
 39 34  1  0  0  0
 34 35  2  0  0  0
 34 36  1  0  0  0
 36 24  1  0  0  0
 36 37  1  0  0  0
 24 25  2  0  0  0
 24 32  1  0  0  0
 25 26  1  0  0  0
 26 27  1  0  0  0
 26 31  2  0  0  0
 27 28  2  0  0  0
 28 29  1  0  0  0
 29 23  1  0  0  0
 29 30  2  0  0  0
 23  1  1  0  0  0
  1  2  1  0  0  0
  1  6  2  0  0  0
  2  3  2  0  0  0
  3  4  1  0  0  0
  4  7  1  0  0  0
  4  5  2  0  0  0
  7  9  1  0  0  0
  7  8  1  0  0  0
  9 10  2  0  0  0
  9 11  1  0  0  0
 11 13  1  0  0  0
 11 12  1  0  0  0
 13 14  1  0  0  0
 13 18  2  0  0  0
 14 15  2  0  0  0
 15 16  1  0  0  0
 16 17  2  0  0  0
 17 19  1  0  0  0
 17 18  1  0  0  0
 19 20  1  0  0  0
 19 21  1  0  0  0
 19 22  1  0  0  0
  5  6  1  0  0  0
 30 31  1  0  0  0
 31 32  1  0  0  0
 32 33  1  0  0  0
M  END
> <minimizedAffinity>
-9.87615

$$$$
