CHEMBL224889


 34 39  0  0  0  0  0  0  0  0999 V2000
  -15.0359   -4.3709  -11.0931 C   0  0  0  0  0  0  0  0  0  0  0  0
  -16.3725   -4.4096  -10.8917 N   0  0  0  0  0  0  0  0  0  0  0  0
  -16.7346   -5.3545  -11.8107 N   0  0  0  0  0  0  0  0  0  0  0  0
  -15.6564   -6.0960  -12.2194 C   0  0  0  0  0  0  0  0  0  0  0  0
  -14.6771   -5.7733  -11.2525 C   0  0  0  0  0  0  0  0  0  0  0  0
  -13.4476   -6.5677  -11.5377 C   0  0  0  0  0  0  0  0  0  0  0  0
  -13.5451   -6.4432  -13.0483 C   0  0  0  0  0  0  0  0  0  0  0  0
  -12.4164   -6.1172  -13.7811 C   0  0  0  0  0  0  0  0  0  0  0  0
  -12.5958   -5.2429  -14.8474 C   0  0  0  0  0  0  0  0  0  0  0  0
  -13.9108   -4.9748  -15.3269 C   0  0  0  0  0  0  0  0  0  0  0  0
  -15.0600   -5.4729  -14.6635 C   0  0  0  0  0  0  0  0  0  0  0  0
  -14.8728   -6.1706  -13.4834 C   0  0  0  0  0  0  0  0  0  0  0  0
  -17.7227   -5.5808  -11.8889 H   0  0  0  0  0  0  0  0  0  0  0  0
  -15.0403   -1.2488  -13.2396 C   0  0  0  0  0  0  0  0  0  0  0  0
  -15.5390   -2.2521  -12.4462 C   0  0  0  0  0  0  0  0  0  0  0  0
  -14.5575   -3.1981  -11.9393 C   0  0  0  0  0  0  0  0  0  0  0  0
  -13.3065   -2.8863  -12.4367 C   0  0  0  0  0  0  0  0  0  0  0  0
  -13.3471   -1.4628  -13.4328 S   0  0  0  0  0  0  0  0  0  0  0  0
  -16.6099    0.7564  -14.2689 C   0  0  0  0  0  0  0  0  0  0  0  0
  -15.8417   -0.2217  -13.8774 C   0  0  0  0  0  0  0  0  0  0  0  0
  -17.5054    1.8966  -14.7252 C   0  0  0  0  0  0  0  0  0  0  0  0
  -18.5871    1.4003  -15.5007 O   0  0  0  0  0  0  0  0  0  0  0  0
  -19.8368    1.6912  -15.0191 C   0  0  0  0  0  0  0  0  0  0  0  0
  -20.3442    2.9697  -14.7678 C   0  0  0  0  0  0  0  0  0  0  0  0
  -21.6393    3.1322  -14.2688 C   0  0  0  0  0  0  0  0  0  0  0  0
  -22.4366    2.0180  -14.0176 C   0  0  0  0  0  0  0  0  0  0  0  0
  -21.9366    0.7415  -14.2673 C   0  0  0  0  0  0  0  0  0  0  0  0
  -20.6373    0.5791  -14.7594 C   0  0  0  0  0  0  0  0  0  0  0  0
  -11.4018   -4.3959  -15.2340 C   0  0  0  0  0  0  0  0  0  0  0  0
  -11.3874   -4.0583  -16.6413 N   0  0  0  0  0  0  0  0  0  0  0  0
  -11.3351   -4.9455  -17.6759 C   0  0  0  0  0  0  0  0  0  0  0  0
  -11.3570   -4.1900  -18.8212 C   0  0  0  0  0  0  0  0  0  0  0  0
  -11.4832   -2.8617  -18.3737 C   0  0  0  0  0  0  0  0  0  0  0  0
  -11.5361   -2.7769  -17.0429 N   0  0  0  0  0  0  0  0  0  0  0  0
 19 20  3  0  0  0
 19 21  1  0  0  0
 20 14  1  0  0  0
 14 15  2  0  0  0
 14 18  1  0  0  0
 15 16  1  0  0  0
 16  1  1  0  0  0
 16 17  2  0  0  0
  1  2  2  0  0  0
  1  5  1  0  0  0
  2  3  1  0  0  0
  3  4  1  0  0  0
  3 13  1  0  0  0
  4  5  2  0  0  0
  4 12  1  0  0  0
  5  6  1  0  0  0
  6  7  1  0  0  0
  7  8  1  0  0  0
  7 12  2  0  0  0
  8  9  2  0  0  0
  9 29  1  0  0  0
  9 10  1  0  0  0
 29 30  1  0  0  0
 30 31  1  0  0  0
 30 34  1  0  0  0
 31 32  2  0  0  0
 32 33  1  0  0  0
 33 34  2  0  0  0
 10 11  2  0  0  0
 11 12  1  0  0  0
 17 18  1  0  0  0
 21 22  1  0  0  0
 22 23  1  0  0  0
 23 24  1  0  0  0
 23 28  2  0  0  0
 24 25  2  0  0  0
 25 26  1  0  0  0
 26 27  2  0  0  0
 27 28  1  0  0  0
M  END
> <minimizedAffinity>
-8.29228

$$$$
