CHEMBL193306


 34 37  0  0  0  0  0  0  0  0999 V2000
  -14.6427   -6.2929  -12.7843 C   0  0  0  0  0  0  0  0  0  0  0  0
  -15.9164   -6.2850  -13.0689 N   0  0  0  0  0  0  0  0  0  0  0  0
  -16.7885   -5.5595  -12.3117 C   0  0  0  0  0  0  0  0  0  0  0  0
  -16.5006   -4.8467  -11.2759 N   0  0  0  0  0  0  0  0  0  0  0  0
  -15.1989   -4.8580  -10.9569 N   0  0  0  0  0  0  0  0  0  0  0  0
  -14.6843   -4.2133   -9.8750 C   0  0  0  0  0  0  0  0  0  0  0  0
  -13.3293   -4.4348   -9.8504 C   0  0  0  0  0  0  0  0  0  0  0  0
  -12.9964   -5.2932  -10.9660 C   0  0  0  0  0  0  0  0  0  0  0  0
  -14.2080   -5.5197  -11.6383 C   0  0  0  0  0  0  0  0  0  0  0  0
  -12.4482   -3.8662   -8.7768 C   0  0  0  0  0  0  0  0  0  0  0  0
  -11.7255   -2.7681   -8.9178 N   0  0  0  0  0  0  0  0  0  0  0  0
  -11.0429   -2.6426   -7.7400 C   0  0  0  0  0  0  0  0  0  0  0  0
  -11.3658   -3.6783   -6.9031 C   0  0  0  0  0  0  0  0  0  0  0  0
  -10.9210   -4.1009   -5.5670 C   0  0  0  0  0  0  0  0  0  0  0  0
  -12.2917   -4.4554   -7.5386 O   0  0  0  0  0  0  0  0  0  0  0  0
  -11.6026   -5.8389  -11.2188 C   0  0  0  0  0  0  0  0  0  0  0  0
  -11.4891   -7.3468  -10.9989 C   0  0  0  0  0  0  0  0  0  0  0  0
  -10.9736   -5.3591  -12.5254 C   0  0  0  0  0  0  0  0  0  0  0  0
  -13.7993   -7.0075  -13.6025 N   0  0  0  0  0  0  0  0  0  0  0  0
  -13.3200   -7.8060  -13.2207 H   0  0  0  0  0  0  0  0  0  0  0  0
  -13.6938   -5.6994  -17.1091 C   0  0  0  0  0  0  0  0  0  0  0  0
  -13.7823   -5.7311  -15.7090 C   0  0  0  0  0  0  0  0  0  0  0  0
  -13.7358   -6.9424  -15.0090 C   0  0  0  0  0  0  0  0  0  0  0  0
  -13.5695   -8.1212  -15.7529 C   0  0  0  0  0  0  0  0  0  0  0  0
  -13.5156   -9.3004  -15.1147 F   0  0  0  0  0  0  0  0  0  0  0  0
  -13.4577   -8.1069  -17.1404 C   0  0  0  0  0  0  0  0  0  0  0  0
  -13.5222   -6.8914  -17.8109 C   0  0  0  0  0  0  0  0  0  0  0  0
  -13.4264   -6.8922  -19.1490 F   0  0  0  0  0  0  0  0  0  0  0  0
  -13.3299   -3.2982  -17.0839 N   0  0  0  0  0  0  0  0  0  0  0  0
  -13.8099   -4.3842  -17.7817 C   0  0  0  0  0  0  0  0  0  0  0  0
  -14.3487   -4.3286  -18.8835 O   0  0  0  0  0  0  0  0  0  0  0  0
  -12.6175   -3.4107  -16.3692 H   0  0  0  0  0  0  0  0  0  0  0  0
  -12.8481   -1.0529  -16.9397 C   0  0  0  0  0  0  0  0  0  0  0  0
  -13.2556   -2.0946  -17.8245 O   0  0  0  0  0  0  0  0  0  0  0  0
 33 34  1  0  0  0
 34 29  1  0  0  0
 29 30  1  0  0  0
 29 32  1  0  0  0
 30 31  2  0  0  0
 30 21  1  0  0  0
 21 22  1  0  0  0
 21 27  2  0  0  0
 22 23  2  0  0  0
 23 19  1  0  0  0
 23 24  1  0  0  0
 19  1  1  0  0  0
 19 20  1  0  0  0
  1  2  2  0  0  0
  1  9  1  0  0  0
  2  3  1  0  0  0
  3  4  2  0  0  0
  4  5  1  0  0  0
  5  6  1  0  0  0
  5  9  1  0  0  0
  6  7  2  0  0  0
  7 10  1  0  0  0
  7  8  1  0  0  0
 10 11  2  0  0  0
 10 15  1  0  0  0
 11 12  1  0  0  0
 12 13  2  0  0  0
 13 14  1  0  0  0
 13 15  1  0  0  0
  8 16  1  0  0  0
  8  9  2  0  0  0
 16 17  1  0  0  0
 16 18  1  0  0  0
 24 25  1  0  0  0
 24 26  2  0  0  0
 26 27  1  0  0  0
 27 28  1  0  0  0
M  END
> <minimizedAffinity>
-7.43077

$$$$
