CHEMBL3754257


 38 42  0  0  0  0  0  0  0  0999 V2000
  -28.7335   -1.5038   -4.7723 N   0  0  0  0  0  0  0  0  0  0  0  0
  -27.6291   -2.4389   -5.1029 C   0  0  0  0  0  0  0  0  0  0  0  0
  -28.0629   -3.7425   -5.8089 C   0  0  0  0  0  0  0  0  0  0  0  0
  -29.1372   -4.4445   -5.1018 N   0  0  0  0  0  0  0  0  0  0  0  0
  -30.1918   -3.6367   -4.4656 C   0  0  0  0  0  0  0  0  0  0  0  0
  -29.6799   -2.2726   -3.9217 C   0  0  0  0  0  0  0  0  0  0  0  0
  -29.1195   -5.8280   -4.9140 C   0  0  0  0  0  0  0  0  0  0  0  0
  -29.1448   -6.2840   -3.6453 N   0  0  0  0  0  0  0  0  0  0  0  0
  -28.9313   -7.6165   -3.3375 N   0  0  0  0  0  0  0  0  0  0  0  0
  -28.6619   -8.5229   -4.3020 C   0  0  0  0  0  0  0  0  0  0  0  0
  -28.6979   -8.1358   -5.6624 C   0  0  0  0  0  0  0  0  0  0  0  0
  -28.4764   -9.0269   -6.7519 C   0  0  0  0  0  0  0  0  0  0  0  0
  -28.5010   -8.6164   -8.0835 C   0  0  0  0  0  0  0  0  0  0  0  0
  -28.8848   -7.3275   -8.3807 C   0  0  0  0  0  0  0  0  0  0  0  0
  -29.1727   -6.4483   -7.3398 C   0  0  0  0  0  0  0  0  0  0  0  0
  -28.9913   -6.7754   -5.9677 C   0  0  0  0  0  0  0  0  0  0  0  0
  -28.3676   -9.8886   -3.7806 C   0  0  0  0  0  0  0  0  0  0  0  0
  -27.0477  -10.2716   -3.4660 C   0  0  0  0  0  0  0  0  0  0  0  0
  -26.7483  -11.5448   -2.9620 C   0  0  0  0  0  0  0  0  0  0  0  0
  -27.7669  -12.4659   -2.7390 C   0  0  0  0  0  0  0  0  0  0  0  0
  -29.0759  -12.1279   -3.0599 C   0  0  0  0  0  0  0  0  0  0  0  0
  -29.3618  -10.8715   -3.6073 C   0  0  0  0  0  0  0  0  0  0  0  0
  -29.3547   -1.0186   -6.0283 C   0  0  0  0  0  0  0  0  0  0  0  0
  -28.6062   -1.4570   -8.3267 N   0  0  0  0  0  0  0  0  0  0  0  0
  -28.3609   -0.7590   -7.1591 C   0  0  0  0  0  0  0  0  0  0  0  0
  -27.4816    0.0851   -6.9948 O   0  0  0  0  0  0  0  0  0  0  0  0
  -29.4465   -2.0320   -8.3233 H   0  0  0  0  0  0  0  0  0  0  0  0
  -26.1797   -1.3787  -11.7904 C   0  0  0  0  0  0  0  0  0  0  0  0
  -27.4881   -0.8932  -11.8463 C   0  0  0  0  0  0  0  0  0  0  0  0
  -28.2979   -0.9162  -10.7103 C   0  0  0  0  0  0  0  0  0  0  0  0
  -27.8197   -1.4239   -9.4971 C   0  0  0  0  0  0  0  0  0  0  0  0
  -26.5006   -1.8911   -9.4382 C   0  0  0  0  0  0  0  0  0  0  0  0
  -25.6833   -1.8715  -10.5782 C   0  0  0  0  0  0  0  0  0  0  0  0
  -25.2912   -1.2949  -12.9733 C   0  0  0  0  0  0  0  0  0  0  0  0
  -25.6015   -1.6897  -14.0879 O   0  0  0  0  0  0  0  0  0  0  0  0
  -24.0940   -0.7868  -12.5946 O   0  0  0  0  0  0  0  0  0  0  0  0
  -22.1865    0.3528  -13.4420 C   0  0  0  0  0  0  0  0  0  0  0  0
  -23.6882    0.4287  -13.2337 C   0  0  0  0  0  0  0  0  0  0  0  0
 37 38  1  0  0  0
 38 36  1  0  0  0
 36 34  1  0  0  0
 34 35  2  0  0  0
 34 28  1  0  0  0
 28 29  1  0  0  0
 28 33  2  0  0  0
 29 30  2  0  0  0
 30 31  1  0  0  0
 31 24  1  0  0  0
 31 32  2  0  0  0
 24 25  1  0  0  0
 24 27  1  0  0  0
 25 26  2  0  0  0
 25 23  1  0  0  0
 23  1  1  0  0  0
  1  2  1  0  0  0
  1  6  1  0  0  0
  2  3  1  0  0  0
  3  4  1  0  0  0
  4  7  1  0  0  0
  4  5  1  0  0  0
  7  8  1  0  0  0
  7 16  2  0  0  0
  8  9  2  0  0  0
  9 10  1  0  0  0
 10 17  1  0  0  0
 10 11  2  0  0  0
 17 18  1  0  0  0
 17 22  2  0  0  0
 18 19  2  0  0  0
 19 20  1  0  0  0
 20 21  2  0  0  0
 21 22  1  0  0  0
 11 12  1  0  0  0
 11 16  1  0  0  0
 12 13  2  0  0  0
 13 14  1  0  0  0
 14 15  2  0  0  0
 15 16  1  0  0  0
  5  6  1  0  0  0
 32 33  1  0  0  0
M  END
> <minimizedAffinity>
-7.80570

$$$$
