CHEMBL3985678


 34 37  0  0  0  0  0  0  0  0999 V2000
  -28.4886   -9.3524   -5.8089 N   0  0  0  0  0  0  0  0  0  0  0  0
  -28.5042   -8.0589   -5.1625 C   0  0  0  0  0  0  0  0  0  0  0  0
  -29.0730   -8.0416   -3.8915 C   0  0  0  0  0  0  0  0  0  0  0  0
  -29.5947   -6.8668   -3.3746 C   0  0  0  0  0  0  0  0  0  0  0  0
  -29.4787   -5.6738   -4.0429 C   0  0  0  0  0  0  0  0  0  0  0  0
  -30.2024   -4.6781   -3.5171 N   0  0  0  0  0  0  0  0  0  0  0  0
  -30.0195   -3.4643   -4.0473 C   0  0  0  0  0  0  0  0  0  0  0  0
  -29.0731   -3.2283   -5.0277 C   0  0  0  0  0  0  0  0  0  0  0  0
  -28.4207   -4.2692   -5.6486 N   0  0  0  0  0  0  0  0  0  0  0  0
  -28.6525   -5.5515   -5.1897 C   0  0  0  0  0  0  0  0  0  0  0  0
  -28.2010   -6.8009   -5.7556 C   0  0  0  0  0  0  0  0  0  0  0  0
  -28.7401   -1.8373   -5.2844 C   0  0  0  0  0  0  0  0  0  0  0  0
  -27.6521   -1.0711   -4.7955 C   0  0  0  0  0  0  0  0  0  0  0  0
  -27.7728    0.2347   -5.0640 N   0  0  0  0  0  0  0  0  0  0  0  0
  -28.9369    0.3066   -5.7314 N   0  0  0  0  0  0  0  0  0  0  0  0
  -29.2743    1.4903   -6.4869 C   0  0  0  0  0  0  0  0  0  0  0  0
  -29.6301   -0.8737   -5.7255 C   0  0  0  0  0  0  0  0  0  0  0  0
  -31.4685   -9.7763   -8.0645 C   0  0  0  0  0  0  0  0  0  0  0  0
  -30.8887  -10.3848   -9.1790 C   0  0  0  0  0  0  0  0  0  0  0  0
  -29.5349  -10.7060   -9.1632 C   0  0  0  0  0  0  0  0  0  0  0  0
  -28.7602  -10.4139   -8.0298 C   0  0  0  0  0  0  0  0  0  0  0  0
  -29.2954   -9.7868   -6.8956 C   0  0  0  0  0  0  0  0  0  0  0  0
  -30.6722   -9.4805   -6.9365 C   0  0  0  0  0  0  0  0  0  0  0  0
  -33.0995   -8.3424   -7.0731 C   0  0  0  0  0  0  0  0  0  0  0  0
  -32.7834   -9.3797   -8.0038 O   0  0  0  0  0  0  0  0  0  0  0  0
  -28.8393  -11.2834  -10.1930 O   0  0  0  0  0  0  0  0  0  0  0  0
  -28.7584  -10.5504  -11.4101 C   0  0  0  0  0  0  0  0  0  0  0  0
  -28.1699  -10.3971   -4.7507 C   0  0  0  0  0  0  0  0  0  0  0  0
  -26.6837  -10.8629   -4.6798 C   0  0  0  0  0  0  0  0  0  0  0  0
  -25.9450  -10.5155   -5.8621 O   0  0  0  0  0  0  0  0  0  0  0  0
  -26.3869   -9.7730   -6.3037 H   0  0  0  0  0  0  0  0  0  0  0  0
  -25.8908  -10.2949   -3.4629 C   0  0  0  0  0  0  0  0  0  0  0  0
  -24.8377  -11.2543   -2.8822 C   0  0  0  0  0  0  0  0  0  0  0  0
  -25.2374   -8.9444   -3.7537 C   0  0  0  0  0  0  0  0  0  0  0  0
 24 25  1  0  0  0
 25 18  1  0  0  0
 18 19  1  0  0  0
 18 23  2  0  0  0
 19 20  2  0  0  0
 20 26  1  0  0  0
 20 21  1  0  0  0
 26 27  1  0  0  0
 21 22  2  0  0  0
 22  1  1  0  0  0
 22 23  1  0  0  0
  1 28  1  0  0  0
  1  2  1  0  0  0
 28 29  1  0  0  0
 29 30  1  0  0  0
 29 32  1  0  0  0
 30 31  1  0  0  0
 32 33  1  0  0  0
 32 34  1  0  0  0
  2  3  1  0  0  0
  2 11  2  0  0  0
  3  4  2  0  0  0
  4  5  1  0  0  0
  5  6  1  0  0  0
  5 10  2  0  0  0
  6  7  2  0  0  0
  7  8  1  0  0  0
  8 12  1  0  0  0
  8  9  2  0  0  0
 12 13  1  0  0  0
 12 17  2  0  0  0
 13 14  2  0  0  0
 14 15  1  0  0  0
 15 16  1  0  0  0
 15 17  1  0  0  0
  9 10  1  0  0  0
 10 11  1  0  0  0
M  END
> <minimizedAffinity>
-7.78235

$$$$
