CHEMBL409867


 39 43  0  0  0  0  0  0  0  0999 V2000
  -29.8822   -4.9779   -5.5949 C   0  0  0  0  0  0  0  0  0  0  0  0
  -29.0743   -5.3688   -6.6574 C   0  0  0  0  0  0  0  0  0  0  0  0
  -28.3512   -4.4132   -7.3891 C   0  0  0  0  0  0  0  0  0  0  0  0
  -28.4340   -3.0426   -7.0959 C   0  0  0  0  0  0  0  0  0  0  0  0
  -29.2248   -2.6725   -5.9902 C   0  0  0  0  0  0  0  0  0  0  0  0
  -29.9582   -3.6236   -5.2670 C   0  0  0  0  0  0  0  0  0  0  0  0
  -29.3567   -1.3843   -5.5285 O   0  0  0  0  0  0  0  0  0  0  0  0
  -29.0345   -0.4104   -6.5177 C   0  0  0  0  0  0  0  0  0  0  0  0
  -27.7086   -0.7175   -7.1914 C   0  0  0  0  0  0  0  0  0  0  0  0
  -27.7684   -2.0149   -7.8791 N   0  0  0  0  0  0  0  0  0  0  0  0
  -27.3677   -2.2450   -9.2008 C   0  0  0  0  0  0  0  0  0  0  0  0
  -27.5652   -3.3162   -9.7720 O   0  0  0  0  0  0  0  0  0  0  0  0
  -26.7707   -1.1753   -9.8540 N   0  0  0  0  0  0  0  0  0  0  0  0
  -26.3590   -0.4606   -9.2829 H   0  0  0  0  0  0  0  0  0  0  0  0
  -26.4048   -1.1388  -11.2238 C   0  0  0  0  0  0  0  0  0  0  0  0
  -27.2198   -1.5998  -12.2648 C   0  0  0  0  0  0  0  0  0  0  0  0
  -26.7529   -1.6411  -13.5827 C   0  0  0  0  0  0  0  0  0  0  0  0
  -25.4733   -1.1880  -13.8758 C   0  0  0  0  0  0  0  0  0  0  0  0
  -24.8774   -1.2888  -15.4855 Cl  0  0  0  0  0  0  0  0  0  0  0  0
  -24.6725   -0.6594  -12.8666 C   0  0  0  0  0  0  0  0  0  0  0  0
  -25.1399   -0.6283  -11.5459 C   0  0  0  0  0  0  0  0  0  0  0  0
  -30.6018   -5.9711   -4.9569 O   0  0  0  0  0  0  0  0  0  0  0  0
  -29.8506  -10.7889   -6.5306 C   0  0  0  0  0  0  0  0  0  0  0  0
  -29.2222  -10.5815   -5.2968 C   0  0  0  0  0  0  0  0  0  0  0  0
  -29.2529   -9.3671   -4.6339 C   0  0  0  0  0  0  0  0  0  0  0  0
  -28.6456   -9.3160   -3.4409 N   0  0  0  0  0  0  0  0  0  0  0  0
  -28.6425   -8.1488   -2.7742 C   0  0  0  0  0  0  0  0  0  0  0  0
  -29.2341   -7.0017   -3.2488 C   0  0  0  0  0  0  0  0  0  0  0  0
  -29.9242   -7.0715   -4.4598 C   0  0  0  0  0  0  0  0  0  0  0  0
  -29.9119   -8.2708   -5.2197 C   0  0  0  0  0  0  0  0  0  0  0  0
  -30.5136   -8.4555   -6.4933 C   0  0  0  0  0  0  0  0  0  0  0  0
  -30.5030   -9.7089   -7.1463 C   0  0  0  0  0  0  0  0  0  0  0  0
  -31.2567   -9.8046   -8.4396 C   0  0  0  0  0  0  0  0  0  0  0  0
  -30.5706  -10.1407   -9.5718 N   0  0  0  0  0  0  0  0  0  0  0  0
  -32.4653   -9.6154   -8.4902 O   0  0  0  0  0  0  0  0  0  0  0  0
  -29.5665  -10.2731   -9.5667 H   0  0  0  0  0  0  0  0  0  0  0  0
  -31.0835  -10.2497  -10.4357 H   0  0  0  0  0  0  0  0  0  0  0  0
  -28.5121  -12.4237   -7.6298 C   0  0  0  0  0  0  0  0  0  0  0  0
  -29.7986  -12.0039   -7.1727 O   0  0  0  0  0  0  0  0  0  0  0  0
 38 39  1  0  0  0
 39 23  1  0  0  0
 23 24  1  0  0  0
 23 32  2  0  0  0
 24 25  2  0  0  0
 25 26  1  0  0  0
 25 30  1  0  0  0
 26 27  2  0  0  0
 27 28  1  0  0  0
 28 29  2  0  0  0
 29 22  1  0  0  0
 29 30  1  0  0  0
 22  1  1  0  0  0
  1  2  1  0  0  0
  1  6  2  0  0  0
  2  3  2  0  0  0
  3  4  1  0  0  0
  4  5  2  0  0  0
  4 10  1  0  0  0
  5  6  1  0  0  0
  5  7  1  0  0  0
  7  8  1  0  0  0
  8  9  1  0  0  0
  9 10  1  0  0  0
 10 11  1  0  0  0
 11 12  2  0  0  0
 11 13  1  0  0  0
 13 15  1  0  0  0
 13 14  1  0  0  0
 15 16  1  0  0  0
 15 21  2  0  0  0
 16 17  2  0  0  0
 17 18  1  0  0  0
 18 19  1  0  0  0
 18 20  2  0  0  0
 20 21  1  0  0  0
 30 31  2  0  0  0
 31 32  1  0  0  0
 32 33  1  0  0  0
 33 34  1  0  0  0
 33 35  2  0  0  0
 34 36  1  0  0  0
 34 37  1  0  0  0
M  END
> <minimizedAffinity>
-8.67041

$$$$
