CHEMBL377345


 24 27  0  0  0  0  0  0  0  0999 V2000
  -27.5943    0.0414   -7.2513 O   0  0  0  0  0  0  0  0  0  0  0  0
  -28.1221   -1.0503   -7.0467 C   0  0  0  0  0  0  0  0  0  0  0  0
  -28.8407   -1.2658   -5.9019 N   0  0  0  0  0  0  0  0  0  0  0  0
  -29.3895   -2.5016   -5.5511 C   0  0  0  0  0  0  0  0  0  0  0  0
  -30.0928   -2.6121   -4.3497 C   0  0  0  0  0  0  0  0  0  0  0  0
  -30.6352   -3.8399   -3.9769 C   0  0  0  0  0  0  0  0  0  0  0  0
  -30.4671   -4.9505   -4.7996 C   0  0  0  0  0  0  0  0  0  0  0  0
  -29.7547   -4.8373   -5.9974 C   0  0  0  0  0  0  0  0  0  0  0  0
  -29.2109   -3.6065   -6.3964 C   0  0  0  0  0  0  0  0  0  0  0  0
  -28.4642   -3.4078   -7.6567 C   0  0  0  0  0  0  0  0  0  0  0  0
  -28.2526   -4.5287   -8.4441 O   0  0  0  0  0  0  0  0  0  0  0  0
  -27.9824   -2.1923   -8.0040 C   0  0  0  0  0  0  0  0  0  0  0  0
  -28.9322   -0.4724   -5.2816 H   0  0  0  0  0  0  0  0  0  0  0  0
  -29.0425   -5.0874   -8.4318 H   0  0  0  0  0  0  0  0  0  0  0  0
  -27.3777   -1.9935   -9.2802 C   0  0  0  0  0  0  0  0  0  0  0  0
  -26.1451   -1.6391   -9.6032 N   0  0  0  0  0  0  0  0  0  0  0  0
  -26.1119   -1.5766  -10.9708 C   0  0  0  0  0  0  0  0  0  0  0  0
  -25.0539   -1.2330  -11.8225 C   0  0  0  0  0  0  0  0  0  0  0  0
  -25.2810   -1.2292  -13.2038 C   0  0  0  0  0  0  0  0  0  0  0  0
  -26.5336   -1.5678  -13.7231 C   0  0  0  0  0  0  0  0  0  0  0  0
  -27.5983   -1.9267  -12.8861 C   0  0  0  0  0  0  0  0  0  0  0  0
  -27.3423   -1.9157  -11.5145 C   0  0  0  0  0  0  0  0  0  0  0  0
  -28.1195   -2.2076  -10.4220 N   0  0  0  0  0  0  0  0  0  0  0  0
  -29.0707   -2.5526  -10.4377 H   0  0  0  0  0  0  0  0  0  0  0  0
  1  2  2  0  0  0
  2  3  1  0  0  0
  2 12  1  0  0  0
  3  4  1  0  0  0
  3 13  1  0  0  0
  4  5  1  0  0  0
  4  9  2  0  0  0
  5  6  2  0  0  0
  6  7  1  0  0  0
  7  8  2  0  0  0
  8  9  1  0  0  0
  9 10  1  0  0  0
 10 11  1  0  0  0
 10 12  2  0  0  0
 11 14  1  0  0  0
 12 15  1  0  0  0
 15 16  2  0  0  0
 15 23  1  0  0  0
 16 17  1  0  0  0
 17 18  1  0  0  0
 17 22  2  0  0  0
 18 19  2  0  0  0
 19 20  1  0  0  0
 20 21  2  0  0  0
 21 22  1  0  0  0
 22 23  1  0  0  0
 23 24  1  0  0  0
M  END
> <minimizedAffinity>
-9.26675

$$$$
