CHEMBL4061797


 32 35  0  0  0  0  0  0  0  0999 V2000
  -15.1352   -2.3264  -13.2404 C   0  0  0  0  0  0  0  0  0  0  0  0
  -15.0127   -2.1579  -11.8873 N   0  0  0  0  0  0  0  0  0  0  0  0
  -15.7388   -3.0130  -11.1466 C   0  0  0  0  0  0  0  0  0  0  0  0
  -15.5072   -3.0153   -9.7749 N   0  0  0  0  0  0  0  0  0  0  0  0
  -16.5524   -3.9744  -11.6270 N   0  0  0  0  0  0  0  0  0  0  0  0
  -16.3067   -4.2202  -12.9370 C   0  0  0  0  0  0  0  0  0  0  0  0
  -16.5050   -5.4086  -13.6013 N   0  0  0  0  0  0  0  0  0  0  0  0
  -15.3006   -6.0385  -13.3084 C   0  0  0  0  0  0  0  0  0  0  0  0
  -15.0840   -7.3495  -12.8834 C   0  0  0  0  0  0  0  0  0  0  0  0
  -13.7978   -7.6837  -12.4996 C   0  0  0  0  0  0  0  0  0  0  0  0
  -12.7794   -6.7416  -12.6204 C   0  0  0  0  0  0  0  0  0  0  0  0
  -11.4919   -7.1150  -12.2645 O   0  0  0  0  0  0  0  0  0  0  0  0
  -13.0103   -5.4098  -13.0484 C   0  0  0  0  0  0  0  0  0  0  0  0
  -14.3461   -4.9930  -13.3648 C   0  0  0  0  0  0  0  0  0  0  0  0
  -15.1662   -3.7214  -13.5866 C   0  0  0  0  0  0  0  0  0  0  0  0
  -14.6857   -2.4568   -9.5957 H   0  0  0  0  0  0  0  0  0  0  0  0
  -15.4214   -3.9874   -9.4936 H   0  0  0  0  0  0  0  0  0  0  0  0
  -16.7563   -5.3815  -14.5759 H   0  0  0  0  0  0  0  0  0  0  0  0
  -11.4958   -8.0540  -12.0194 H   0  0  0  0  0  0  0  0  0  0  0  0
  -16.0604   -1.3792  -13.7983 N   0  0  0  0  0  0  0  0  0  0  0  0
  -16.6490   -1.0972  -13.0143 H   0  0  0  0  0  0  0  0  0  0  0  0
  -15.6048   -0.2184  -14.5680 C   0  0  0  0  0  0  0  0  0  0  0  0
  -18.7963    2.8329  -15.1926 C   0  0  0  0  0  0  0  0  0  0  0  0
  -19.0624    1.5347  -14.7512 C   0  0  0  0  0  0  0  0  0  0  0  0
  -18.0271    0.5790  -14.6039 C   0  0  0  0  0  0  0  0  0  0  0  0
  -16.6790    0.8609  -14.9001 C   0  0  0  0  0  0  0  0  0  0  0  0
  -16.4223    2.1791  -15.3331 C   0  0  0  0  0  0  0  0  0  0  0  0
  -17.4595    3.1636  -15.4825 C   0  0  0  0  0  0  0  0  0  0  0  0
  -21.1284    3.4485  -15.0646 C   0  0  0  0  0  0  0  0  0  0  0  0
  -19.7845    3.7556  -15.4183 O   0  0  0  0  0  0  0  0  0  0  0  0
  -16.9898    4.3951  -15.8954 O   0  0  0  0  0  0  0  0  0  0  0  0
  -15.8089    4.4686  -16.6953 C   0  0  0  0  0  0  0  0  0  0  0  0
 29 30  1  0  0  0
 30 23  1  0  0  0
 23 24  1  0  0  0
 23 28  2  0  0  0
 24 25  2  0  0  0
 25 26  1  0  0  0
 26 22  1  0  0  0
 26 27  2  0  0  0
 22 20  1  0  0  0
 20  1  1  0  0  0
 20 21  1  0  0  0
  1  2  1  0  0  0
  1 15  2  0  0  0
  2  3  2  0  0  0
  3  4  1  0  0  0
  3  5  1  0  0  0
  4 16  1  0  0  0
  4 17  1  0  0  0
  5  6  2  0  0  0
  6  7  1  0  0  0
  6 15  1  0  0  0
  7  8  1  0  0  0
  7 18  1  0  0  0
  8  9  1  0  0  0
  8 14  2  0  0  0
  9 10  2  0  0  0
 10 11  1  0  0  0
 11 12  1  0  0  0
 11 13  2  0  0  0
 12 19  1  0  0  0
 13 14  1  0  0  0
 14 15  1  0  0  0
 27 28  1  0  0  0
 28 31  1  0  0  0
 31 32  1  0  0  0
M  END
> <minimizedAffinity>
-8.06103

$$$$
