CHEMBL4516793


 38 44  0  0  0  0  0  0  0  0999 V2000
  -15.4380    1.9366  -15.9229 C   0  0  0  0  0  0  0  0  0  0  0  0
  -16.2198    0.8000  -15.6508 C   0  0  0  0  0  0  0  0  0  0  0  0
  -17.5903    0.8774  -15.3560 C   0  0  0  0  0  0  0  0  0  0  0  0
  -18.2089    2.1391  -15.3143 C   0  0  0  0  0  0  0  0  0  0  0  0
  -19.5151    2.6515  -15.0272 C   0  0  0  0  0  0  0  0  0  0  0  0
  -19.5539    3.9843  -15.2142 N   0  0  0  0  0  0  0  0  0  0  0  0
  -18.3026    4.3120  -15.5616 N   0  0  0  0  0  0  0  0  0  0  0  0
  -17.4416    3.2542  -15.6256 C   0  0  0  0  0  0  0  0  0  0  0  0
  -16.0784    3.1887  -15.9392 C   0  0  0  0  0  0  0  0  0  0  0  0
  -18.0958    5.2877  -15.7420 H   0  0  0  0  0  0  0  0  0  0  0  0
  -14.5954   -2.2456  -13.7650 C   0  0  0  0  0  0  0  0  0  0  0  0
  -13.5406   -2.3355  -12.8344 C   0  0  0  0  0  0  0  0  0  0  0  0
  -12.4163   -1.5144  -12.9322 C   0  0  0  0  0  0  0  0  0  0  0  0
  -12.4014   -0.6009  -13.9627 C   0  0  0  0  0  0  0  0  0  0  0  0
  -13.4507   -0.4529  -14.8848 C   0  0  0  0  0  0  0  0  0  0  0  0
  -14.5428   -1.3083  -14.8049 C   0  0  0  0  0  0  0  0  0  0  0  0
  -13.0778    0.6586  -15.8264 C   0  0  0  0  0  0  0  0  0  0  0  0
  -13.5505    0.6856  -17.2508 C   0  0  0  0  0  0  0  0  0  0  0  0
  -13.9820    1.7808  -16.2951 C   0  0  0  0  0  0  0  0  0  0  0  0
  -11.6716    1.0276  -15.4120 C   0  0  0  0  0  0  0  0  0  0  0  0
  -10.9646    1.8472  -15.9724 O   0  0  0  0  0  0  0  0  0  0  0  0
  -11.3704    0.2828  -14.2858 N   0  0  0  0  0  0  0  0  0  0  0  0
  -10.4842    0.3518  -13.8098 H   0  0  0  0  0  0  0  0  0  0  0  0
  -15.9969   -3.3365  -12.1844 C   0  0  0  0  0  0  0  0  0  0  0  0
  -15.6201   -3.1258  -13.5398 O   0  0  0  0  0  0  0  0  0  0  0  0
  -20.7079    1.9385  -14.5818 C   0  0  0  0  0  0  0  0  0  0  0  0
  -20.7846    0.5521  -14.6744 C   0  0  0  0  0  0  0  0  0  0  0  0
  -21.9533   -0.0960  -14.2897 C   0  0  0  0  0  0  0  0  0  0  0  0
  -23.0431    0.6339  -13.8112 C   0  0  0  0  0  0  0  0  0  0  0  0
  -22.9777    1.9752  -13.6882 N   0  0  0  0  0  0  0  0  0  0  0  0
  -21.8336    2.5915  -14.0922 C   0  0  0  0  0  0  0  0  0  0  0  0
  -24.1689   -0.0711  -13.4096 N   0  0  0  0  0  0  0  0  0  0  0  0
  -24.4990   -1.3125  -14.1179 C   0  0  0  0  0  0  0  0  0  0  0  0
  -25.9942   -1.6272  -13.8346 C   0  0  0  0  0  0  0  0  0  0  0  0
  -26.3065   -1.7353  -12.3847 N   0  0  0  0  0  0  0  0  0  0  0  0
  -27.7447   -1.8984  -12.1802 C   0  0  0  0  0  0  0  0  0  0  0  0
  -25.8271   -0.5255  -11.6732 C   0  0  0  0  0  0  0  0  0  0  0  0
  -24.3404   -0.2135  -11.9550 C   0  0  0  0  0  0  0  0  0  0  0  0
 24 25  1  0  0  0
 25 11  1  0  0  0
 11 12  1  0  0  0
 11 16  2  0  0  0
 12 13  2  0  0  0
 13 14  1  0  0  0
 14 15  2  0  0  0
 14 22  1  0  0  0
 15 16  1  0  0  0
 17 15  1  0  0  0
 17 18  1  0  0  0
 17 19  1  0  0  0
 17 20  1  0  0  0
 18 19  1  0  0  0
 19  1  1  0  0  0
  1  2  1  0  0  0
  1  9  2  0  0  0
  2  3  2  0  0  0
  3  4  1  0  0  0
  4  5  1  0  0  0
  4  8  2  0  0  0
  5 26  1  0  0  0
  5  6  2  0  0  0
 26 27  1  0  0  0
 26 31  2  0  0  0
 27 28  2  0  0  0
 28 29  1  0  0  0
 29 32  1  0  0  0
 29 30  2  0  0  0
 32 33  1  0  0  0
 32 38  1  0  0  0
 33 34  1  0  0  0
 34 35  1  0  0  0
 35 36  1  0  0  0
 35 37  1  0  0  0
 37 38  1  0  0  0
 30 31  1  0  0  0
  6  7  1  0  0  0
  7  8  1  0  0  0
  7 10  1  0  0  0
  8  9  1  0  0  0
 20 21  2  0  0  0
 20 22  1  0  0  0
 22 23  1  0  0  0
M  END
> <minimizedAffinity>
-9.82667

$$$$
