CHEMBL3810154


 33 37  0  0  0  0  0  0  0  0999 V2000
  -14.6456   -0.5585  -13.6030 N   0  0  0  0  0  0  0  0  0  0  0  0
  -15.6242   -0.6361  -12.6478 C   0  0  0  0  0  0  0  0  0  0  0  0
  -16.3263    0.2505  -12.1653 O   0  0  0  0  0  0  0  0  0  0  0  0
  -15.6897   -1.9108  -12.0571 N   0  0  0  0  0  0  0  0  0  0  0  0
  -15.9783   -2.1010  -10.7126 C   0  0  0  0  0  0  0  0  0  0  0  0
  -15.9876   -3.4494  -10.4258 C   0  0  0  0  0  0  0  0  0  0  0  0
  -15.7748   -4.1309  -11.6486 C   0  0  0  0  0  0  0  0  0  0  0  0
  -15.7858   -5.4826  -12.0189 C   0  0  0  0  0  0  0  0  0  0  0  0
  -15.6427   -5.7994  -13.3656 C   0  0  0  0  0  0  0  0  0  0  0  0
  -15.3894   -4.7519  -14.2569 C   0  0  0  0  0  0  0  0  0  0  0  0
  -15.2951   -3.4208  -13.9439 N   0  0  0  0  0  0  0  0  0  0  0  0
  -15.5400   -3.1719  -12.6386 C   0  0  0  0  0  0  0  0  0  0  0  0
  -14.0730   -1.3709  -13.8032 H   0  0  0  0  0  0  0  0  0  0  0  0
  -14.4539    2.4663  -15.4663 C   0  0  0  0  0  0  0  0  0  0  0  0
  -15.1209    1.2954  -15.1770 C   0  0  0  0  0  0  0  0  0  0  0  0
  -14.3088    0.6317  -14.2291 C   0  0  0  0  0  0  0  0  0  0  0  0
  -13.1833    1.3239  -14.0224 N   0  0  0  0  0  0  0  0  0  0  0  0
  -13.2810    2.4713  -14.7782 O   0  0  0  0  0  0  0  0  0  0  0  0
  -13.8972    4.8440  -15.8309 C   0  0  0  0  0  0  0  0  0  0  0  0
  -14.7932    3.6791  -16.2930 C   0  0  0  0  0  0  0  0  0  0  0  0
  -16.2709    4.0562  -16.0905 C   0  0  0  0  0  0  0  0  0  0  0  0
  -14.5537    3.4513  -17.7980 C   0  0  0  0  0  0  0  0  0  0  0  0
  -15.7259   -7.1387  -13.6765 O   0  0  0  0  0  0  0  0  0  0  0  0
  -14.5439   -7.8459  -13.7373 C   0  0  0  0  0  0  0  0  0  0  0  0
  -14.1404   -8.5293  -12.6465 N   0  0  0  0  0  0  0  0  0  0  0  0
  -13.1249   -9.3950  -12.8341 C   0  0  0  0  0  0  0  0  0  0  0  0
  -12.5191   -9.6686  -14.0020 N   0  0  0  0  0  0  0  0  0  0  0  0
  -12.9475   -8.9193  -15.0249 C   0  0  0  0  0  0  0  0  0  0  0  0
  -13.9144   -7.9487  -14.9380 C   0  0  0  0  0  0  0  0  0  0  0  0
  -14.1545   -7.3551  -16.2698 C   0  0  0  0  0  0  0  0  0  0  0  0
  -13.7526   -8.4313  -17.2120 N   0  0  0  0  0  0  0  0  0  0  0  0
  -12.6558   -9.1509  -16.4873 C   0  0  0  0  0  0  0  0  0  0  0  0
  -14.5428   -9.0812  -17.2512 H   0  0  0  0  0  0  0  0  0  0  0  0
 19 20  1  0  0  0
 20 21  1  0  0  0
 20 22  1  0  0  0
 20 14  1  0  0  0
 14 15  2  0  0  0
 14 18  1  0  0  0
 15 16  1  0  0  0
 16  1  1  0  0  0
 16 17  2  0  0  0
  1  2  1  0  0  0
  1 13  1  0  0  0
  2  3  2  0  0  0
  2  4  1  0  0  0
  4  5  1  0  0  0
  4 12  1  0  0  0
  5  6  2  0  0  0
  6  7  1  0  0  0
  7  8  1  0  0  0
  7 12  2  0  0  0
  8  9  2  0  0  0
  9 23  1  0  0  0
  9 10  1  0  0  0
 23 24  1  0  0  0
 24 25  1  0  0  0
 24 29  2  0  0  0
 25 26  2  0  0  0
 26 27  1  0  0  0
 27 28  2  0  0  0
 28 29  1  0  0  0
 28 32  1  0  0  0
 29 30  1  0  0  0
 30 31  1  0  0  0
 31 32  1  0  0  0
 31 33  1  0  0  0
 10 11  2  0  0  0
 11 12  1  0  0  0
 17 18  1  0  0  0
M  END
> <minimizedAffinity>
-8.07556

$$$$
