CHEMBL3582441


 38 43  0  0  0  0  0  0  0  0999 V2000
  -13.8196   -5.1855  -16.1350 C   0  0  0  0  0  0  0  0  0  0  0  0
  -13.9883   -5.7656  -17.3877 C   0  0  0  0  0  0  0  0  0  0  0  0
  -13.7343   -4.8904  -18.4057 N   0  0  0  0  0  0  0  0  0  0  0  0
  -13.3932   -3.7731  -17.7986 C   0  0  0  0  0  0  0  0  0  0  0  0
  -13.0525   -2.5208  -18.3411 C   0  0  0  0  0  0  0  0  0  0  0  0
  -12.7544   -1.5162  -17.5106 C   0  0  0  0  0  0  0  0  0  0  0  0
  -12.7341   -1.7753  -16.0322 C   0  0  0  0  0  0  0  0  0  0  0  0
  -13.0481   -2.9275  -15.5098 N   0  0  0  0  0  0  0  0  0  0  0  0
  -13.3954   -3.8973  -16.4196 N   0  0  0  0  0  0  0  0  0  0  0  0
  -13.5424   -5.8192  -12.4228 C   0  0  0  0  0  0  0  0  0  0  0  0
  -13.3163   -5.3082  -13.7021 C   0  0  0  0  0  0  0  0  0  0  0  0
  -14.0504   -5.7666  -14.8079 C   0  0  0  0  0  0  0  0  0  0  0  0
  -15.0061   -6.7519  -14.5900 C   0  0  0  0  0  0  0  0  0  0  0  0
  -15.1736   -7.2206  -13.3048 C   0  0  0  0  0  0  0  0  0  0  0  0
  -14.4764   -6.7743  -12.2360 N   0  0  0  0  0  0  0  0  0  0  0  0
  -11.9820   -3.0553   -9.6222 N   0  0  0  0  0  0  0  0  0  0  0  0
  -13.3700   -3.6265   -9.5803 C   0  0  0  0  0  0  0  0  0  0  0  0
  -13.5088   -5.1128  -10.0307 C   0  0  0  0  0  0  0  0  0  0  0  0
  -12.8599   -5.3358  -11.3242 N   0  0  0  0  0  0  0  0  0  0  0  0
  -11.5329   -4.7426  -11.5147 C   0  0  0  0  0  0  0  0  0  0  0  0
  -11.4976   -3.2838  -11.0161 C   0  0  0  0  0  0  0  0  0  0  0  0
  -11.1785   -3.7520   -8.5770 C   0  0  0  0  0  0  0  0  0  0  0  0
  -11.2781   -3.5778   -6.1693 O   0  0  0  0  0  0  0  0  0  0  0  0
  -11.0837   -3.0267   -7.2442 C   0  0  0  0  0  0  0  0  0  0  0  0
  -10.8432   -1.6999   -7.3497 O   0  0  0  0  0  0  0  0  0  0  0  0
  -10.7386   -1.4678   -8.2982 H   0  0  0  0  0  0  0  0  0  0  0  0
  -12.2964   -0.7494  -15.2276 N   0  0  0  0  0  0  0  0  0  0  0  0
  -11.1003   -0.7948  -14.4045 C   0  0  0  0  0  0  0  0  0  0  0  0
  -11.4263    0.1974  -13.3018 C   0  0  0  0  0  0  0  0  0  0  0  0
  -12.1652    1.3061  -14.0471 C   0  0  0  0  0  0  0  0  0  0  0  0
  -12.8768    0.5952  -15.2206 C   0  0  0  0  0  0  0  0  0  0  0  0
  -14.3857    0.5478  -15.0551 C   0  0  0  0  0  0  0  0  0  0  0  0
  -14.9494   -0.2539  -14.0466 C   0  0  0  0  0  0  0  0  0  0  0  0
  -16.3310   -0.2760  -13.8329 C   0  0  0  0  0  0  0  0  0  0  0  0
  -17.1694    0.5036  -14.6254 C   0  0  0  0  0  0  0  0  0  0  0  0
  -16.6208    1.2877  -15.6317 C   0  0  0  0  0  0  0  0  0  0  0  0
  -17.4255    2.0401  -16.3940 F   0  0  0  0  0  0  0  0  0  0  0  0
  -15.2477    1.3126  -15.8570 C   0  0  0  0  0  0  0  0  0  0  0  0
 23 24  2  0  0  0
 24 25  1  0  0  0
 24 22  1  0  0  0
 25 26  1  0  0  0
 22 16  1  0  0  0
 16 17  1  0  0  0
 16 21  1  0  0  0
 17 18  1  0  0  0
 18 19  1  0  0  0
 19 10  1  0  0  0
 19 20  1  0  0  0
 10 11  1  0  0  0
 10 15  2  0  0  0
 11 12  2  0  0  0
 12  1  1  0  0  0
 12 13  1  0  0  0
  1  2  2  0  0  0
  1  9  1  0  0  0
  2  3  1  0  0  0
  3  4  2  0  0  0
  4  5  1  0  0  0
  4  9  1  0  0  0
  5  6  2  0  0  0
  6  7  1  0  0  0
  7 27  1  0  0  0
  7  8  2  0  0  0
 27 28  1  0  0  0
 27 31  1  0  0  0
 28 29  1  0  0  0
 29 30  1  0  0  0
 30 31  1  0  0  0
 31 32  1  0  0  0
 32 33  1  0  0  0
 32 38  2  0  0  0
 33 34  2  0  0  0
 34 35  1  0  0  0
 35 36  2  0  0  0
 36 37  1  0  0  0
 36 38  1  0  0  0
  8  9  1  0  0  0
 13 14  2  0  0  0
 14 15  1  0  0  0
 20 21  1  0  0  0
M  END
> <minimizedAffinity>
-8.19117

$$$$
