CHEMBL3946103


 35 39  0  0  0  0  0  0  0  0999 V2000
  -29.3508   -4.8479   -5.9383 C   0  0  0  0  0  0  0  0  0  0  0  0
  -29.1044   -3.8496   -4.9898 C   0  0  0  0  0  0  0  0  0  0  0  0
  -28.6877   -2.5654   -5.3558 C   0  0  0  0  0  0  0  0  0  0  0  0
  -28.3584   -2.2712   -6.6621 C   0  0  0  0  0  0  0  0  0  0  0  0
  -27.8981   -1.0452   -6.9691 N   0  0  0  0  0  0  0  0  0  0  0  0
  -27.4888   -0.8682   -8.2465 C   0  0  0  0  0  0  0  0  0  0  0  0
  -27.5406   -1.8749   -9.1981 C   0  0  0  0  0  0  0  0  0  0  0  0
  -28.0627   -3.0912   -8.9016 N   0  0  0  0  0  0  0  0  0  0  0  0
  -28.4689   -3.2899   -7.6323 C   0  0  0  0  0  0  0  0  0  0  0  0
  -28.9964   -4.5266   -7.2634 C   0  0  0  0  0  0  0  0  0  0  0  0
  -26.9883   -1.7056  -10.5247 C   0  0  0  0  0  0  0  0  0  0  0  0
  -27.6070   -1.6487  -11.7940 C   0  0  0  0  0  0  0  0  0  0  0  0
  -26.7388   -1.4312  -12.7846 N   0  0  0  0  0  0  0  0  0  0  0  0
  -25.5503   -1.3375  -12.1499 N   0  0  0  0  0  0  0  0  0  0  0  0
  -25.6530   -1.4985  -10.7987 C   0  0  0  0  0  0  0  0  0  0  0  0
  -24.3303   -1.0854  -12.9041 C   0  0  0  0  0  0  0  0  0  0  0  0
  -23.7725    0.3058  -12.6062 C   0  0  0  0  0  0  0  0  0  0  0  0
  -23.2841   -2.1725  -12.6596 C   0  0  0  0  0  0  0  0  0  0  0  0
  -29.9338   -6.1114   -5.6008 N   0  0  0  0  0  0  0  0  0  0  0  0
  -29.5652   -8.9517   -8.0932 C   0  0  0  0  0  0  0  0  0  0  0  0
  -30.8824   -9.3134   -8.3248 C   0  0  0  0  0  0  0  0  0  0  0  0
  -31.8674   -8.6727   -7.5956 C   0  0  0  0  0  0  0  0  0  0  0  0
  -33.1402   -9.0663   -7.7379 F   0  0  0  0  0  0  0  0  0  0  0  0
  -31.5726   -7.6325   -6.7043 C   0  0  0  0  0  0  0  0  0  0  0  0
  -30.2567   -7.1928   -6.4773 C   0  0  0  0  0  0  0  0  0  0  0  0
  -29.2732   -7.9612   -7.1340 C   0  0  0  0  0  0  0  0  0  0  0  0
  -27.2147   -9.8702  -10.9168 C   0  0  0  0  0  0  0  0  0  0  0  0
  -28.3088   -9.3216  -10.1543 N   0  0  0  0  0  0  0  0  0  0  0  0
  -28.4268   -9.5971   -8.8073 C   0  0  0  0  0  0  0  0  0  0  0  0
  -27.6271  -10.2905   -8.1925 O   0  0  0  0  0  0  0  0  0  0  0  0
  -28.8627   -8.5876  -10.5715 H   0  0  0  0  0  0  0  0  0  0  0  0
  -30.3570   -6.2042   -4.1734 C   0  0  0  0  0  0  0  0  0  0  0  0
  -31.7456   -5.6533   -3.9403 C   0  0  0  0  0  0  0  0  0  0  0  0
  -31.8799   -4.3106   -3.2589 C   0  0  0  0  0  0  0  0  0  0  0  0
  -32.3552   -5.5512   -2.5614 C   0  0  0  0  0  0  0  0  0  0  0  0
 27 28  1  0  0  0
 28 29  1  0  0  0
 28 31  1  0  0  0
 29 30  2  0  0  0
 29 20  1  0  0  0
 20 21  1  0  0  0
 20 26  2  0  0  0
 21 22  2  0  0  0
 22 23  1  0  0  0
 22 24  1  0  0  0
 24 25  2  0  0  0
 25 19  1  0  0  0
 25 26  1  0  0  0
 19 32  1  0  0  0
 19  1  1  0  0  0
 32 33  1  0  0  0
 33 34  1  0  0  0
 33 35  1  0  0  0
 34 35  1  0  0  0
  1  2  1  0  0  0
  1 10  2  0  0  0
  2  3  2  0  0  0
  3  4  1  0  0  0
  4  5  1  0  0  0
  4  9  2  0  0  0
  5  6  2  0  0  0
  6  7  1  0  0  0
  7 11  1  0  0  0
  7  8  2  0  0  0
 11 12  1  0  0  0
 11 15  2  0  0  0
 12 13  2  0  0  0
 13 14  1  0  0  0
 14 16  1  0  0  0
 14 15  1  0  0  0
 16 17  1  0  0  0
 16 18  1  0  0  0
  8  9  1  0  0  0
  9 10  1  0  0  0
M  END
> <minimizedAffinity>
-10.30017

$$$$
