CHEMBL401041


 29 31  0  0  0  0  0  0  0  0999 V2000
  -13.4842    1.9135  -15.6633 C   0  0  0  0  0  0  0  0  0  0  0  0
  -14.9236    2.0310  -15.5425 N   0  0  0  0  0  0  0  0  0  0  0  0
  -15.5740    2.8520  -16.3884 N   0  0  0  0  0  0  0  0  0  0  0  0
  -16.8477    2.7128  -16.0328 C   0  0  0  0  0  0  0  0  0  0  0  0
  -17.0218    1.8001  -14.9652 C   0  0  0  0  0  0  0  0  0  0  0  0
  -15.7512    1.3362  -14.6754 C   0  0  0  0  0  0  0  0  0  0  0  0
  -15.2028    0.4048  -13.7152 C   0  0  0  0  0  0  0  0  0  0  0  0
  -14.5624    0.8294  -12.7601 O   0  0  0  0  0  0  0  0  0  0  0  0
  -15.4136   -0.9433  -13.9748 N   0  0  0  0  0  0  0  0  0  0  0  0
  -15.9036   -1.1669  -14.8304 H   0  0  0  0  0  0  0  0  0  0  0  0
  -14.9735   -2.0242  -13.1729 C   0  0  0  0  0  0  0  0  0  0  0  0
  -15.7229   -2.5370  -12.1224 C   0  0  0  0  0  0  0  0  0  0  0  0
  -15.2386   -3.5641  -11.3103 C   0  0  0  0  0  0  0  0  0  0  0  0
  -13.9842   -4.1420  -11.5204 C   0  0  0  0  0  0  0  0  0  0  0  0
  -13.2486   -3.6645  -12.6206 C   0  0  0  0  0  0  0  0  0  0  0  0
  -13.7310   -2.6147  -13.4275 C   0  0  0  0  0  0  0  0  0  0  0  0
  -13.4392   -5.2231  -10.5761 C   0  0  0  0  0  0  0  0  0  0  0  0
  -11.8925   -5.2833  -10.5547 C   0  0  0  0  0  0  0  0  0  0  0  0
  -13.9123   -4.9567   -9.1352 C   0  0  0  0  0  0  0  0  0  0  0  0
  -13.9329   -6.6135  -11.0285 C   0  0  0  0  0  0  0  0  0  0  0  0
  -18.2336    1.5123  -14.4279 N   0  0  0  0  0  0  0  0  0  0  0  0
  -18.2645    1.3246  -13.4259 H   0  0  0  0  0  0  0  0  0  0  0  0
  -19.2956    0.7863  -15.1103 C   0  0  0  0  0  0  0  0  0  0  0  0
  -20.6553    1.2730  -14.6537 C   0  0  0  0  0  0  0  0  0  0  0  0
  -21.6815    0.4017  -14.2593 C   0  0  0  0  0  0  0  0  0  0  0  0
  -22.8784    0.9288  -13.8037 C   0  0  0  0  0  0  0  0  0  0  0  0
  -23.1263    2.2506  -13.7178 N   0  0  0  0  0  0  0  0  0  0  0  0
  -22.1388    3.0805  -14.1172 C   0  0  0  0  0  0  0  0  0  0  0  0
  -20.9065    2.6478  -14.5858 C   0  0  0  0  0  0  0  0  0  0  0  0
  1  2  1  0  0  0
  2  3  1  0  0  0
  2  6  1  0  0  0
  3  4  2  0  0  0
  4  5  1  0  0  0
  5 21  1  0  0  0
  5  6  2  0  0  0
 21 23  1  0  0  0
 21 22  1  0  0  0
 23 24  1  0  0  0
 24 25  1  0  0  0
 24 29  2  0  0  0
 25 26  2  0  0  0
 26 27  1  0  0  0
 27 28  2  0  0  0
 28 29  1  0  0  0
  6  7  1  0  0  0
  7  8  2  0  0  0
  7  9  1  0  0  0
  9 11  1  0  0  0
  9 10  1  0  0  0
 11 12  1  0  0  0
 11 16  2  0  0  0
 12 13  2  0  0  0
 13 14  1  0  0  0
 14 17  1  0  0  0
 14 15  2  0  0  0
 17 18  1  0  0  0
 17 19  1  0  0  0
 17 20  1  0  0  0
 15 16  1  0  0  0
M  END
> <minimizedAffinity>
-7.97655

$$$$
