CHEMBL258436


 37 42  0  0  0  0  0  0  0  0999 V2000
  -28.8590   -8.2987   -5.3351 C   0  0  0  0  0  0  0  0  0  0  0  0
  -29.4277   -8.0535   -4.0973 C   0  0  0  0  0  0  0  0  0  0  0  0
  -29.9435   -6.7850   -3.8561 C   0  0  0  0  0  0  0  0  0  0  0  0
  -29.7912   -5.7834   -4.8245 C   0  0  0  0  0  0  0  0  0  0  0  0
  -29.1276   -5.9642   -6.0684 C   0  0  0  0  0  0  0  0  0  0  0  0
  -28.6669   -7.2899   -6.3403 C   0  0  0  0  0  0  0  0  0  0  0  0
  -29.0797   -4.6674   -6.6324 C   0  0  0  0  0  0  0  0  0  0  0  0
  -28.3619   -4.1383   -7.7583 C   0  0  0  0  0  0  0  0  0  0  0  0
  -28.2942   -2.6375   -7.9363 C   0  0  0  0  0  0  0  0  0  0  0  0
  -28.7842   -1.7009   -6.9814 C   0  0  0  0  0  0  0  0  0  0  0  0
  -29.1374   -2.3843   -5.8366 C   0  0  0  0  0  0  0  0  0  0  0  0
  -29.5472   -3.7574   -5.7632 C   0  0  0  0  0  0  0  0  0  0  0  0
  -30.0796   -4.4302   -4.6857 N   0  0  0  0  0  0  0  0  0  0  0  0
  -28.3669   -1.9719   -4.6252 C   0  0  0  0  0  0  0  0  0  0  0  0
  -27.7129   -0.7019   -4.2353 C   0  0  0  0  0  0  0  0  0  0  0  0
  -28.0876    0.2230   -5.2962 C   0  0  0  0  0  0  0  0  0  0  0  0
  -28.5504    1.3836   -4.8400 N   0  0  0  0  0  0  0  0  0  0  0  0
  -29.7193    1.4523   -5.4697 N   0  0  0  0  0  0  0  0  0  0  0  0
  -30.8326    1.9754   -4.6925 C   0  0  0  0  0  0  0  0  0  0  0  0
  -29.6780    0.7499   -6.6774 C   0  0  0  0  0  0  0  0  0  0  0  0
  -28.6198   -0.1929   -6.6179 C   0  0  0  0  0  0  0  0  0  0  0  0
  -27.5042   -2.4374   -9.1385 C   0  0  0  0  0  0  0  0  0  0  0  0
  -27.1656   -1.4351   -9.7538 O   0  0  0  0  0  0  0  0  0  0  0  0
  -27.1104   -3.7228   -9.5590 N   0  0  0  0  0  0  0  0  0  0  0  0
  -27.5524   -4.8547   -8.7598 C   0  0  0  0  0  0  0  0  0  0  0  0
  -26.5080   -3.8311  -10.3642 H   0  0  0  0  0  0  0  0  0  0  0  0
  -27.5993  -10.4011   -4.4992 C   0  0  0  0  0  0  0  0  0  0  0  0
  -28.4537   -9.7366   -5.5915 C   0  0  0  0  0  0  0  0  0  0  0  0
  -28.7778  -10.3342   -6.6984 N   0  0  0  0  0  0  0  0  0  0  0  0
  -28.1938  -11.6116   -6.7477 O   0  0  0  0  0  0  0  0  0  0  0  0
  -28.1984  -12.1129   -8.0868 C   0  0  0  0  0  0  0  0  0  0  0  0
  -27.8380  -10.9141   -9.0624 C   0  0  0  0  0  0  0  0  0  0  0  0
  -26.3488  -11.0081   -9.4092 C   0  0  0  0  0  0  0  0  0  0  0  0
  -28.6899  -11.0729  -10.3167 C   0  0  0  0  0  0  0  0  0  0  0  0
  -30.6898   -3.7276   -3.5628 C   0  0  0  0  0  0  0  0  0  0  0  0
  -32.0235   -4.3532   -3.1659 C   0  0  0  0  0  0  0  0  0  0  0  0
  -29.8849   -3.1628   -2.4139 C   0  0  0  0  0  0  0  0  0  0  0  0
 27 28  1  0  0  0
 28 29  2  0  0  0
 28  1  1  0  0  0
 29 30  1  0  0  0
 30 31  1  0  0  0
 31 32  1  0  0  0
 32 33  1  0  0  0
 32 34  1  0  0  0
  1  2  1  0  0  0
  1  6  2  0  0  0
  2  3  2  0  0  0
  3  4  1  0  0  0
  4  5  2  0  0  0
  4 13  1  0  0  0
  5  6  1  0  0  0
  5  7  1  0  0  0
  7  8  1  0  0  0
  7 12  2  0  0  0
  8  9  2  0  0  0
  8 25  1  0  0  0
  9 10  1  0  0  0
  9 22  1  0  0  0
 10 11  2  0  0  0
 10 21  1  0  0  0
 11 12  1  0  0  0
 11 14  1  0  0  0
 12 13  1  0  0  0
 13 35  1  0  0  0
 35 36  1  0  0  0
 35 37  1  0  0  0
 14 15  1  0  0  0
 15 16  1  0  0  0
 16 17  2  0  0  0
 16 21  1  0  0  0
 17 18  1  0  0  0
 18 19  1  0  0  0
 18 20  1  0  0  0
 20 21  2  0  0  0
 22 23  2  0  0  0
 22 24  1  0  0  0
 24 25  1  0  0  0
 24 26  1  0  0  0
M  END
> <minimizedAffinity>
-6.70993

$$$$
