CHEMBL469261


 32 36  0  0  0  0  0  0  0  0999 V2000
  -28.6177   -1.1663   -5.8902 C   0  0  0  0  0  0  0  0  0  0  0  0
  -29.5066   -0.4786   -5.0392 C   0  0  0  0  0  0  0  0  0  0  0  0
  -29.9313    0.8105   -5.3620 C   0  0  0  0  0  0  0  0  0  0  0  0
  -29.4554    1.4150   -6.5152 C   0  0  0  0  0  0  0  0  0  0  0  0
  -28.6317    0.7041   -7.3957 C   0  0  0  0  0  0  0  0  0  0  0  0
  -28.2252   -0.6155   -7.1321 C   0  0  0  0  0  0  0  0  0  0  0  0
  -26.7070   -2.4265   -5.2254 O   0  0  0  0  0  0  0  0  0  0  0  0
  -27.9378   -2.3851   -5.3761 C   0  0  0  0  0  0  0  0  0  0  0  0
  -28.7317   -3.5135   -4.9581 C   0  0  0  0  0  0  0  0  0  0  0  0
  -29.1176   -3.7601   -3.6369 C   0  0  0  0  0  0  0  0  0  0  0  0
  -29.7933   -4.9442   -3.6319 N   0  0  0  0  0  0  0  0  0  0  0  0
  -29.3858   -5.6585   -4.7264 C   0  0  0  0  0  0  0  0  0  0  0  0
  -29.2530   -7.0302   -4.9552 C   0  0  0  0  0  0  0  0  0  0  0  0
  -28.8875   -7.4130   -6.2514 C   0  0  0  0  0  0  0  0  0  0  0  0
  -28.8092   -6.4709   -7.2671 C   0  0  0  0  0  0  0  0  0  0  0  0
  -28.5521   -6.8858   -8.5261 F   0  0  0  0  0  0  0  0  0  0  0  0
  -28.9091   -5.0995   -7.0261 C   0  0  0  0  0  0  0  0  0  0  0  0
  -29.0549   -4.7008   -5.6869 C   0  0  0  0  0  0  0  0  0  0  0  0
  -30.3961   -5.2788   -2.8907 H   0  0  0  0  0  0  0  0  0  0  0  0
  -27.4303   -1.3314   -8.0440 N   0  0  0  0  0  0  0  0  0  0  0  0
  -26.7135   -1.8992   -7.5917 H   0  0  0  0  0  0  0  0  0  0  0  0
  -27.9930   -1.8937   -9.2500 C   0  0  0  0  0  0  0  0  0  0  0  0
  -27.0927   -1.8135  -10.4680 C   0  0  0  0  0  0  0  0  0  0  0  0
  -27.7071   -1.8436  -11.7239 C   0  0  0  0  0  0  0  0  0  0  0  0
  -26.9683   -1.6612  -12.8974 C   0  0  0  0  0  0  0  0  0  0  0  0
  -25.6206   -1.3926  -12.8679 C   0  0  0  0  0  0  0  0  0  0  0  0
  -24.9886   -1.1831  -14.0383 N   0  0  0  0  0  0  0  0  0  0  0  0
  -23.6853   -0.8440  -14.0037 C   0  0  0  0  0  0  0  0  0  0  0  0
  -22.9636   -0.7063  -12.8376 C   0  0  0  0  0  0  0  0  0  0  0  0
  -23.6123   -0.9552  -11.6255 C   0  0  0  0  0  0  0  0  0  0  0  0
  -24.9727   -1.3167  -11.6137 C   0  0  0  0  0  0  0  0  0  0  0  0
  -25.7095   -1.5457  -10.4207 C   0  0  0  0  0  0  0  0  0  0  0  0
  7  8  2  0  0  0
  8  1  1  0  0  0
  8  9  1  0  0  0
  1  2  1  0  0  0
  1  6  2  0  0  0
  2  3  2  0  0  0
  3  4  1  0  0  0
  4  5  2  0  0  0
  5  6  1  0  0  0
  6 20  1  0  0  0
 20 22  1  0  0  0
 20 21  1  0  0  0
 22 23  1  0  0  0
 23 24  1  0  0  0
 23 32  2  0  0  0
 24 25  2  0  0  0
 25 26  1  0  0  0
 26 27  1  0  0  0
 26 31  2  0  0  0
 27 28  2  0  0  0
 28 29  1  0  0  0
 29 30  2  0  0  0
 30 31  1  0  0  0
 31 32  1  0  0  0
  9 10  2  0  0  0
  9 18  1  0  0  0
 10 11  1  0  0  0
 11 12  1  0  0  0
 11 19  1  0  0  0
 12 13  1  0  0  0
 12 18  2  0  0  0
 13 14  2  0  0  0
 14 15  1  0  0  0
 15 16  1  0  0  0
 15 17  2  0  0  0
 17 18  1  0  0  0
M  END
> <minimizedAffinity>
-10.71212

$$$$
