CHEMBL4060841


 37 40  0  0  0  0  0  0  0  0999 V2000
  -30.2298   -6.5981   -6.9971 C   0  0  0  0  0  0  0  0  0  0  0  0
  -31.3601   -7.4249   -6.8889 C   0  0  0  0  0  0  0  0  0  0  0  0
  -31.4349   -8.6510   -7.5810 C   0  0  0  0  0  0  0  0  0  0  0  0
  -30.3923   -9.0727   -8.4149 C   0  0  0  0  0  0  0  0  0  0  0  0
  -29.2578   -8.2792   -8.4824 C   0  0  0  0  0  0  0  0  0  0  0  0
  -29.1940   -7.0565   -7.8208 C   0  0  0  0  0  0  0  0  0  0  0  0
  -27.6844    0.1602   -6.5658 N   0  0  0  0  0  0  0  0  0  0  0  0
  -28.3166   -0.9081   -5.9683 C   0  0  0  0  0  0  0  0  0  0  0  0
  -28.7038   -0.7458   -4.7018 N   0  0  0  0  0  0  0  0  0  0  0  0
  -29.3496   -1.7845   -4.1483 C   0  0  0  0  0  0  0  0  0  0  0  0
  -29.6262   -2.9586   -4.8206 C   0  0  0  0  0  0  0  0  0  0  0  0
  -30.3142   -4.0229   -4.2312 C   0  0  0  0  0  0  0  0  0  0  0  0
  -30.5479   -5.1726   -4.9700 C   0  0  0  0  0  0  0  0  0  0  0  0
  -30.0750   -5.3067   -6.2921 C   0  0  0  0  0  0  0  0  0  0  0  0
  -29.4062   -4.2040   -6.8523 C   0  0  0  0  0  0  0  0  0  0  0  0
  -29.1775   -3.0258   -6.1407 C   0  0  0  0  0  0  0  0  0  0  0  0
  -28.5384   -1.9970   -6.7154 N   0  0  0  0  0  0  0  0  0  0  0  0
  -27.9421    1.0103   -6.0843 H   0  0  0  0  0  0  0  0  0  0  0  0
  -27.8354    0.1304   -7.5638 H   0  0  0  0  0  0  0  0  0  0  0  0
  -30.5731  -10.2632   -9.1575 N   0  0  0  0  0  0  0  0  0  0  0  0
  -30.6184  -10.1418  -10.1616 H   0  0  0  0  0  0  0  0  0  0  0  0
  -30.6276  -11.5983   -8.7478 C   0  0  0  0  0  0  0  0  0  0  0  0
  -31.9466  -12.4548   -8.1451 S   0  0  0  0  0  0  0  0  0  0  0  0
  -29.3236  -12.1322   -8.7624 N   0  0  0  0  0  0  0  0  0  0  0  0
  -28.9824  -12.2482   -9.7125 H   0  0  0  0  0  0  0  0  0  0  0  0
  -28.3198  -11.7253   -7.8432 C   0  0  0  0  0  0  0  0  0  0  0  0
  -28.5076  -11.9672   -6.4781 C   0  0  0  0  0  0  0  0  0  0  0  0
  -27.6438  -11.4082   -5.5475 C   0  0  0  0  0  0  0  0  0  0  0  0
  -26.5517  -10.6401   -5.9555 C   0  0  0  0  0  0  0  0  0  0  0  0
  -26.3089  -10.4643   -7.3196 C   0  0  0  0  0  0  0  0  0  0  0  0
  -27.1770  -11.0326   -8.2632 C   0  0  0  0  0  0  0  0  0  0  0  0
  -26.8189  -10.7574  -10.1087 Br  0  0  0  0  0  0  0  0  0  0  0  0
  -25.8797  -10.0671   -4.9247 O   0  0  0  0  0  0  0  0  0  0  0  0
  -26.4166   -8.9441   -4.2498 C   0  0  0  0  0  0  0  0  0  0  0  0
  -27.2181   -8.1751   -5.0141 F   0  0  0  0  0  0  0  0  0  0  0  0
  -27.1065   -9.3574   -3.1657 F   0  0  0  0  0  0  0  0  0  0  0  0
  -25.3869   -8.1763   -3.8268 F   0  0  0  0  0  0  0  0  0  0  0  0
  7  8  1  0  0  0
  7 18  1  0  0  0
  7 19  1  0  0  0
  8  9  1  0  0  0
  8 17  2  0  0  0
  9 10  2  0  0  0
 10 11  1  0  0  0
 11 12  1  0  0  0
 11 16  2  0  0  0
 12 13  2  0  0  0
 13 14  1  0  0  0
 14  1  1  0  0  0
 14 15  2  0  0  0
  1  2  1  0  0  0
  1  6  2  0  0  0
  2  3  2  0  0  0
  3  4  1  0  0  0
  4 20  1  0  0  0
  4  5  2  0  0  0
 20 22  1  0  0  0
 20 21  1  0  0  0
 22 23  2  0  0  0
 22 24  1  0  0  0
 24 26  1  0  0  0
 24 25  1  0  0  0
 26 27  1  0  0  0
 26 31  2  0  0  0
 27 28  2  0  0  0
 28 29  1  0  0  0
 29 33  1  0  0  0
 29 30  2  0  0  0
 33 34  1  0  0  0
 34 35  1  0  0  0
 34 36  1  0  0  0
 34 37  1  0  0  0
 30 31  1  0  0  0
 31 32  1  0  0  0
  5  6  1  0  0  0
 15 16  1  0  0  0
 16 17  1  0  0  0
M  END
> <minimizedAffinity>
-9.18623

$$$$
