CHEMBL1966842


 45 50  0  0  0  0  0  0  0  0999 V2000
  -13.0516   -1.3827  -17.3329 C   0  0  0  0  0  0  0  0  0  0  0  0
  -13.0126   -2.5796  -18.0798 C   0  0  0  0  0  0  0  0  0  0  0  0
  -12.9694   -2.3228  -19.4521 N   0  0  0  0  0  0  0  0  0  0  0  0
  -12.9997   -1.0233  -19.5154 C   0  0  0  0  0  0  0  0  0  0  0  0
  -12.9871    0.1203  -20.8210 S   0  0  0  0  0  0  0  0  0  0  0  0
  -13.0134    1.4245  -19.6305 C   0  0  0  0  0  0  0  0  0  0  0  0
  -13.0225    0.9736  -18.3650 C   0  0  0  0  0  0  0  0  0  0  0  0
  -13.0313   -0.4059  -18.3039 N   0  0  0  0  0  0  0  0  0  0  0  0
  -14.1332    0.0429  -14.2053 C   0  0  0  0  0  0  0  0  0  0  0  0
  -13.2731   -0.3995  -13.2801 N   0  0  0  0  0  0  0  0  0  0  0  0
  -12.2860   -1.2130  -13.7032 C   0  0  0  0  0  0  0  0  0  0  0  0
  -12.1070   -1.5810  -15.0160 C   0  0  0  0  0  0  0  0  0  0  0  0
  -13.0339   -1.0878  -15.9005 C   0  0  0  0  0  0  0  0  0  0  0  0
  -14.0399   -0.3004  -15.5010 N   0  0  0  0  0  0  0  0  0  0  0  0
  -15.1783    0.8636  -13.7760 N   0  0  0  0  0  0  0  0  0  0  0  0
  -15.5202    0.5326  -12.8775 H   0  0  0  0  0  0  0  0  0  0  0  0
  -15.9352    2.5270  -15.3971 C   0  0  0  0  0  0  0  0  0  0  0  0
  -16.9884    3.1843  -16.0427 C   0  0  0  0  0  0  0  0  0  0  0  0
  -18.2955    2.7199  -15.9144 C   0  0  0  0  0  0  0  0  0  0  0  0
  -18.5582    1.5395  -15.2180 C   0  0  0  0  0  0  0  0  0  0  0  0
  -17.5040    0.8949  -14.5624 C   0  0  0  0  0  0  0  0  0  0  0  0
  -16.2030    1.4102  -14.5809 C   0  0  0  0  0  0  0  0  0  0  0  0
  -14.3733    4.2839  -15.7163 C   0  0  0  0  0  0  0  0  0  0  0  0
  -14.6137    2.9016  -15.4808 O   0  0  0  0  0  0  0  0  0  0  0  0
  -19.9456    0.9400  -15.2008 C   0  0  0  0  0  0  0  0  0  0  0  0
  -20.7531    1.4303  -14.0718 N   0  0  0  0  0  0  0  0  0  0  0  0
  -21.2924    2.7668  -14.3386 C   0  0  0  0  0  0  0  0  0  0  0  0
  -21.8457    0.5003  -13.7995 C   0  0  0  0  0  0  0  0  0  0  0  0
  -13.0625   -3.9723  -17.6211 C   0  0  0  0  0  0  0  0  0  0  0  0
  -12.4882   -5.0184  -18.3472 C   0  0  0  0  0  0  0  0  0  0  0  0
  -12.5085   -6.3262  -17.8615 C   0  0  0  0  0  0  0  0  0  0  0  0
  -13.0185   -6.5912  -16.5941 C   0  0  0  0  0  0  0  0  0  0  0  0
  -13.5077   -5.5571  -15.7988 C   0  0  0  0  0  0  0  0  0  0  0  0
  -13.6017   -4.2674  -16.3486 C   0  0  0  0  0  0  0  0  0  0  0  0
  -13.8308   -5.7357  -14.4305 N   0  0  0  0  0  0  0  0  0  0  0  0
  -14.9733   -6.3840  -13.9683 C   0  0  0  0  0  0  0  0  0  0  0  0
  -15.9103   -6.7847  -14.6569 O   0  0  0  0  0  0  0  0  0  0  0  0
  -13.0614   -5.6529  -13.7764 H   0  0  0  0  0  0  0  0  0  0  0  0
  -14.9735   -6.6437  -12.4691 C   0  0  0  0  0  0  0  0  0  0  0  0
  -15.1183   -5.3818  -11.6495 C   0  0  0  0  0  0  0  0  0  0  0  0
  -16.1110   -4.4439  -11.9618 C   0  0  0  0  0  0  0  0  0  0  0  0
  -16.2371   -3.2705  -11.2141 C   0  0  0  0  0  0  0  0  0  0  0  0
  -15.3831   -3.0269  -10.1416 C   0  0  0  0  0  0  0  0  0  0  0  0
  -14.4121   -3.9649   -9.8021 C   0  0  0  0  0  0  0  0  0  0  0  0
  -14.2850   -5.1393  -10.5456 C   0  0  0  0  0  0  0  0  0  0  0  0
 23 24  1  0  0  0
 24 17  1  0  0  0
 17 18  1  0  0  0
 17 22  2  0  0  0
 18 19  2  0  0  0
 19 20  1  0  0  0
 20 25  1  0  0  0
 20 21  2  0  0  0
 25 26  1  0  0  0
 26 27  1  0  0  0
 26 28  1  0  0  0
 21 22  1  0  0  0
 22 15  1  0  0  0
 15  9  1  0  0  0
 15 16  1  0  0  0
  9 10  1  0  0  0
  9 14  2  0  0  0
 10 11  2  0  0  0
 11 12  1  0  0  0
 12 13  2  0  0  0
 13  1  1  0  0  0
 13 14  1  0  0  0
  1  2  2  0  0  0
  1  8  1  0  0  0
  2 29  1  0  0  0
  2  3  1  0  0  0
 29 30  1  0  0  0
 29 34  2  0  0  0
 30 31  2  0  0  0
 31 32  1  0  0  0
 32 33  2  0  0  0
 33 35  1  0  0  0
 33 34  1  0  0  0
 35 36  1  0  0  0
 35 38  1  0  0  0
 36 37  2  0  0  0
 36 39  1  0  0  0
 39 40  1  0  0  0
 40 41  1  0  0  0
 40 45  2  0  0  0
 41 42  2  0  0  0
 42 43  1  0  0  0
 43 44  2  0  0  0
 44 45  1  0  0  0
  3  4  2  0  0  0
  4  5  1  0  0  0
  4  8  1  0  0  0
  5  6  1  0  0  0
  6  7  2  0  0  0
  7  8  1  0  0  0
M  END
> <minimizedAffinity>
-8.53637

$$$$
