CHEMBL3104855


 31 33  0  0  0  0  0  0  0  0999 V2000
  -29.7094   -6.4776   -7.1145 C   0  0  0  0  0  0  0  0  0  0  0  0
  -29.3303   -5.2389   -7.6263 C   0  0  0  0  0  0  0  0  0  0  0  0
  -29.0053   -4.3726   -6.5162 C   0  0  0  0  0  0  0  0  0  0  0  0
  -28.5731   -3.0311   -6.2873 C   0  0  0  0  0  0  0  0  0  0  0  0
  -28.3985   -2.5555   -4.9424 C   0  0  0  0  0  0  0  0  0  0  0  0
  -27.8658   -1.1883   -4.5896 C   0  0  0  0  0  0  0  0  0  0  0  0
  -28.7210   -3.4228   -3.8828 C   0  0  0  0  0  0  0  0  0  0  0  0
  -28.6424   -3.0675   -2.5545 O   0  0  0  0  0  0  0  0  0  0  0  0
  -29.1475   -4.7260   -4.0982 C   0  0  0  0  0  0  0  0  0  0  0  0
  -29.4763   -5.5420   -3.0516 O   0  0  0  0  0  0  0  0  0  0  0  0
  -29.2314   -5.1652   -5.4059 C   0  0  0  0  0  0  0  0  0  0  0  0
  -29.5600   -6.4229   -5.7642 O   0  0  0  0  0  0  0  0  0  0  0  0
  -28.2607   -2.1848   -2.4528 H   0  0  0  0  0  0  0  0  0  0  0  0
  -29.3583   -4.9956   -2.2565 H   0  0  0  0  0  0  0  0  0  0  0  0
  -32.4283   -7.4576   -6.3986 C   0  0  0  0  0  0  0  0  0  0  0  0
  -31.5271   -8.2567   -7.3027 C   0  0  0  0  0  0  0  0  0  0  0  0
  -31.9543   -9.4980   -7.8168 C   0  0  0  0  0  0  0  0  0  0  0  0
  -33.1781  -10.0753   -7.5870 O   0  0  0  0  0  0  0  0  0  0  0  0
  -31.1117  -10.2748   -8.6030 C   0  0  0  0  0  0  0  0  0  0  0  0
  -31.5331  -11.4994   -9.0611 O   0  0  0  0  0  0  0  0  0  0  0  0
  -29.8220   -9.8675   -8.8940 C   0  0  0  0  0  0  0  0  0  0  0  0
  -29.0420  -10.7437   -9.5991 O   0  0  0  0  0  0  0  0  0  0  0  0
  -29.3484   -8.6432   -8.4033 C   0  0  0  0  0  0  0  0  0  0  0  0
  -30.1978   -7.7990   -7.6001 C   0  0  0  0  0  0  0  0  0  0  0  0
  -33.7342   -9.5071   -7.0347 H   0  0  0  0  0  0  0  0  0  0  0  0
  -32.4453  -11.5848   -8.7126 H   0  0  0  0  0  0  0  0  0  0  0  0
  -29.6096  -11.5185   -9.7849 H   0  0  0  0  0  0  0  0  0  0  0  0
  -27.9106   -8.3122   -8.6534 C   0  0  0  0  0  0  0  0  0  0  0  0
  -27.2705   -8.6675   -9.6362 O   0  0  0  0  0  0  0  0  0  0  0  0
  -28.3133   -2.1514   -7.4577 C   0  0  0  0  0  0  0  0  0  0  0  0
  -27.2435   -2.1639   -8.0613 O   0  0  0  0  0  0  0  0  0  0  0  0
 15 16  1  0  0  0
 16 17  1  0  0  0
 16 24  2  0  0  0
 17 18  1  0  0  0
 17 19  2  0  0  0
 18 25  1  0  0  0
 19 20  1  0  0  0
 19 21  1  0  0  0
 20 26  1  0  0  0
 21 22  1  0  0  0
 21 23  2  0  0  0
 22 27  1  0  0  0
 23 28  1  0  0  0
 23 24  1  0  0  0
 28 29  2  0  0  0
 24  1  1  0  0  0
  1  2  2  0  0  0
  1 12  1  0  0  0
  2  3  1  0  0  0
  3  4  1  0  0  0
  3 11  2  0  0  0
  4 30  1  0  0  0
  4  5  2  0  0  0
 30 31  2  0  0  0
  5  6  1  0  0  0
  5  7  1  0  0  0
  7  8  1  0  0  0
  7  9  2  0  0  0
  8 13  1  0  0  0
  9 10  1  0  0  0
  9 11  1  0  0  0
 10 14  1  0  0  0
 11 12  1  0  0  0
M  END
> <minimizedAffinity>
-9.15723

$$$$
