CHEMBL535


 32 34  0  0  0  0  0  0  0  0999 V2000
  -13.8343   -1.2411  -13.8598 C   0  0  0  0  0  0  0  0  0  0  0  0
  -13.7223   -0.5589  -15.0640 C   0  0  0  0  0  0  0  0  0  0  0  0
  -12.6458   -0.4575  -16.0879 C   0  0  0  0  0  0  0  0  0  0  0  0
  -14.9204    0.0733  -15.3022 N   0  0  0  0  0  0  0  0  0  0  0  0
  -15.8268   -0.1987  -14.3121 C   0  0  0  0  0  0  0  0  0  0  0  0
  -15.1827   -1.0171  -13.3911 C   0  0  0  0  0  0  0  0  0  0  0  0
  -15.7586   -1.5815  -12.1322 C   0  0  0  0  0  0  0  0  0  0  0  0
  -15.1102    0.6358  -16.1271 H   0  0  0  0  0  0  0  0  0  0  0  0
  -17.1539    0.3054  -14.3343 C   0  0  0  0  0  0  0  0  0  0  0  0
  -17.6189    1.4985  -14.7371 C   0  0  0  0  0  0  0  0  0  0  0  0
  -16.9212    2.7168  -15.2973 C   0  0  0  0  0  0  0  0  0  0  0  0
  -15.7365    2.8700  -15.5168 O   0  0  0  0  0  0  0  0  0  0  0  0
  -17.9283    3.6450  -15.5176 N   0  0  0  0  0  0  0  0  0  0  0  0
  -19.1730    3.1434  -15.1597 C   0  0  0  0  0  0  0  0  0  0  0  0
  -20.3901    3.7970  -15.2415 C   0  0  0  0  0  0  0  0  0  0  0  0
  -21.5218    3.0986  -14.8183 C   0  0  0  0  0  0  0  0  0  0  0  0
  -21.4037    1.7841  -14.3354 C   0  0  0  0  0  0  0  0  0  0  0  0
  -22.5039    1.1332  -13.9379 F   0  0  0  0  0  0  0  0  0  0  0  0
  -20.1718    1.1382  -14.2594 C   0  0  0  0  0  0  0  0  0  0  0  0
  -19.0528    1.8357  -14.6756 C   0  0  0  0  0  0  0  0  0  0  0  0
  -17.7472    4.5634  -15.8934 H   0  0  0  0  0  0  0  0  0  0  0  0
  -12.9762   -3.4484  -13.3937 N   0  0  0  0  0  0  0  0  0  0  0  0
  -12.8352   -2.0914  -13.2019 C   0  0  0  0  0  0  0  0  0  0  0  0
  -11.9034   -1.6209  -12.5533 O   0  0  0  0  0  0  0  0  0  0  0  0
  -13.5428   -3.7673  -14.1696 H   0  0  0  0  0  0  0  0  0  0  0  0
  -12.0004   -4.3568  -12.8311 C   0  0  0  0  0  0  0  0  0  0  0  0
  -12.6044   -5.4013  -11.8722 C   0  0  0  0  0  0  0  0  0  0  0  0
  -13.9530   -5.0792  -11.3452 N   0  0  0  0  0  0  0  0  0  0  0  0
  -16.3591   -5.5237  -12.0053 C   0  0  0  0  0  0  0  0  0  0  0  0
  -14.9496   -6.0672  -11.7985 C   0  0  0  0  0  0  0  0  0  0  0  0
  -13.9214   -4.9021   -9.8793 C   0  0  0  0  0  0  0  0  0  0  0  0
  -14.3929   -3.5525   -9.3370 C   0  0  0  0  0  0  0  0  0  0  0  0
 29 30  1  0  0  0
 30 28  1  0  0  0
 28 31  1  0  0  0
 28 27  1  0  0  0
 31 32  1  0  0  0
 27 26  1  0  0  0
 26 22  1  0  0  0
 22 23  1  0  0  0
 22 25  1  0  0  0
 23 24  2  0  0  0
 23  1  1  0  0  0
  1  2  2  0  0  0
  1  6  1  0  0  0
  2  3  1  0  0  0
  2  4  1  0  0  0
  4  5  1  0  0  0
  4  8  1  0  0  0
  5  9  1  0  0  0
  5  6  2  0  0  0
  9 10  2  0  0  0
 10 11  1  0  0  0
 10 20  1  0  0  0
 11 12  2  0  0  0
 11 13  1  0  0  0
 13 14  1  0  0  0
 13 21  1  0  0  0
 14 15  1  0  0  0
 14 20  2  0  0  0
 15 16  2  0  0  0
 16 17  1  0  0  0
 17 18  1  0  0  0
 17 19  2  0  0  0
 19 20  1  0  0  0
  6  7  1  0  0  0
M  END
> <minimizedAffinity>
-7.88751

$$$$
