CHEMBL3951126


 31 34  0  0  0  0  0  0  0  0999 V2000
  -28.9015   -5.0018   -5.7692 C   0  0  0  0  0  0  0  0  0  0  0  0
  -28.4895   -3.9584   -4.9370 C   0  0  0  0  0  0  0  0  0  0  0  0
  -28.1035   -2.7539   -5.4821 C   0  0  0  0  0  0  0  0  0  0  0  0
  -27.9980   -2.5485   -6.8271 C   0  0  0  0  0  0  0  0  0  0  0  0
  -27.8049   -1.2664   -7.1689 N   0  0  0  0  0  0  0  0  0  0  0  0
  -27.5827   -1.0009   -8.4619 C   0  0  0  0  0  0  0  0  0  0  0  0
  -27.4662   -2.0064   -9.4002 C   0  0  0  0  0  0  0  0  0  0  0  0
  -27.7483   -3.3186   -9.0784 N   0  0  0  0  0  0  0  0  0  0  0  0
  -28.1002   -3.6155   -7.7476 C   0  0  0  0  0  0  0  0  0  0  0  0
  -28.6063   -4.8617   -7.1565 C   0  0  0  0  0  0  0  0  0  0  0  0
  -26.9059   -1.5774  -10.6949 C   0  0  0  0  0  0  0  0  0  0  0  0
  -27.4394   -1.7104  -12.0094 C   0  0  0  0  0  0  0  0  0  0  0  0
  -26.5405   -1.4531  -12.9717 N   0  0  0  0  0  0  0  0  0  0  0  0
  -25.4254   -1.1618  -12.2831 N   0  0  0  0  0  0  0  0  0  0  0  0
  -24.3078   -0.5159  -12.9335 C   0  0  0  0  0  0  0  0  0  0  0  0
  -25.5496   -1.4127  -10.9412 C   0  0  0  0  0  0  0  0  0  0  0  0
  -29.7774   -5.9618   -5.1130 N   0  0  0  0  0  0  0  0  0  0  0  0
  -29.9821   -9.4805   -6.4402 C   0  0  0  0  0  0  0  0  0  0  0  0
  -29.2378  -10.1682   -5.4815 C   0  0  0  0  0  0  0  0  0  0  0  0
  -28.7612   -9.4929   -4.3588 C   0  0  0  0  0  0  0  0  0  0  0  0
  -29.0023   -8.1200   -4.2127 C   0  0  0  0  0  0  0  0  0  0  0  0
  -29.7105   -7.3785   -5.1637 C   0  0  0  0  0  0  0  0  0  0  0  0
  -30.2225   -8.0982   -6.2731 C   0  0  0  0  0  0  0  0  0  0  0  0
  -31.6357   -9.4897   -8.1769 C   0  0  0  0  0  0  0  0  0  0  0  0
  -30.4548  -10.0545   -7.5992 O   0  0  0  0  0  0  0  0  0  0  0  0
  -28.0112  -10.0420   -3.3534 O   0  0  0  0  0  0  0  0  0  0  0  0
  -26.6118  -10.1508   -3.5770 C   0  0  0  0  0  0  0  0  0  0  0  0
  -31.1752   -5.3386   -4.9716 C   0  0  0  0  0  0  0  0  0  0  0  0
  -31.7347   -5.0894   -3.5260 C   0  0  0  0  0  0  0  0  0  0  0  0
  -31.1875   -3.7842   -2.9716 C   0  0  0  0  0  0  0  0  0  0  0  0
  -30.7336   -2.7014   -2.5116 N   0  0  0  0  0  0  0  0  0  0  0  0
 24 25  1  0  0  0
 25 18  1  0  0  0
 18 19  1  0  0  0
 18 23  2  0  0  0
 19 20  2  0  0  0
 20 26  1  0  0  0
 20 21  1  0  0  0
 26 27  1  0  0  0
 21 22  2  0  0  0
 22 17  1  0  0  0
 22 23  1  0  0  0
 17 28  1  0  0  0
 17  1  1  0  0  0
 28 29  1  0  0  0
 29 30  1  0  0  0
 30 31  3  0  0  0
  1  2  1  0  0  0
  1 10  2  0  0  0
  2  3  2  0  0  0
  3  4  1  0  0  0
  4  5  1  0  0  0
  4  9  2  0  0  0
  5  6  2  0  0  0
  6  7  1  0  0  0
  7 11  1  0  0  0
  7  8  2  0  0  0
 11 12  1  0  0  0
 11 16  2  0  0  0
 12 13  2  0  0  0
 13 14  1  0  0  0
 14 15  1  0  0  0
 14 16  1  0  0  0
  8  9  1  0  0  0
  9 10  1  0  0  0
M  END
> <minimizedAffinity>
-7.33623

$$$$
