CHEMBL2113178


 27 29  0  0  0  0  0  0  0  0999 V2000
  -30.4966   -7.5554   -7.2856 C   0  0  0  0  0  0  0  0  0  0  0  0
  -31.2291   -7.0697   -6.1756 C   0  0  0  0  0  0  0  0  0  0  0  0
  -30.7893   -6.0382   -5.3499 C   0  0  0  0  0  0  0  0  0  0  0  0
  -31.5116   -5.6760   -4.2820 N   0  0  0  0  0  0  0  0  0  0  0  0
  -31.0160   -4.6930   -3.5188 C   0  0  0  0  0  0  0  0  0  0  0  0
  -29.8828   -4.0219   -3.7418 N   0  0  0  0  0  0  0  0  0  0  0  0
  -29.1817   -4.3782   -4.8327 C   0  0  0  0  0  0  0  0  0  0  0  0
  -29.5820   -5.4262   -5.6741 C   0  0  0  0  0  0  0  0  0  0  0  0
  -28.8389   -5.8989   -6.7807 C   0  0  0  0  0  0  0  0  0  0  0  0
  -29.2774   -6.9519   -7.5985 C   0  0  0  0  0  0  0  0  0  0  0  0
  -27.9870   -3.6635   -5.1447 N   0  0  0  0  0  0  0  0  0  0  0  0
  -27.4431   -4.2059   -5.8202 H   0  0  0  0  0  0  0  0  0  0  0  0
  -28.0026   -2.3259   -5.5129 C   0  0  0  0  0  0  0  0  0  0  0  0
  -28.1000   -1.2921   -4.6594 C   0  0  0  0  0  0  0  0  0  0  0  0
  -28.1522    0.1042   -5.1107 C   0  0  0  0  0  0  0  0  0  0  0  0
  -28.2062    1.0290   -4.3120 O   0  0  0  0  0  0  0  0  0  0  0  0
  -28.1500    0.3571   -6.5594 C   0  0  0  0  0  0  0  0  0  0  0  0
  -28.0080   -0.6426   -7.4327 C   0  0  0  0  0  0  0  0  0  0  0  0
  -27.8678   -2.0414   -6.9792 C   0  0  0  0  0  0  0  0  0  0  0  0
  -27.6668   -2.9491   -7.7797 O   0  0  0  0  0  0  0  0  0  0  0  0
  -28.3255   -7.2610   -8.5237 O   0  0  0  0  0  0  0  0  0  0  0  0
  -27.9653   -8.6021   -8.8044 C   0  0  0  0  0  0  0  0  0  0  0  0
  -31.1493   -8.5999   -7.8777 O   0  0  0  0  0  0  0  0  0  0  0  0
  -31.2013   -9.8584   -7.2209 C   0  0  0  0  0  0  0  0  0  0  0  0
  -32.6329  -10.3436   -7.0350 C   0  0  0  0  0  0  0  0  0  0  0  0
  -31.6870  -12.0290   -8.3565 C   0  0  0  0  0  0  0  0  0  0  0  0
  -32.8103  -11.6552   -7.5674 O   0  0  0  0  0  0  0  0  0  0  0  0
 26 27  1  0  0  0
 27 25  1  0  0  0
 25 24  1  0  0  0
 24 23  1  0  0  0
 23  1  1  0  0  0
  1  2  1  0  0  0
  1 10  2  0  0  0
  2  3  2  0  0  0
  3  4  1  0  0  0
  3  8  1  0  0  0
  4  5  2  0  0  0
  5  6  1  0  0  0
  6  7  2  0  0  0
  7 11  1  0  0  0
  7  8  1  0  0  0
 11 13  1  0  0  0
 11 12  1  0  0  0
 13 14  2  0  0  0
 13 19  1  0  0  0
 14 15  1  0  0  0
 15 16  2  0  0  0
 15 17  1  0  0  0
 17 18  2  0  0  0
 18 19  1  0  0  0
 19 20  2  0  0  0
  8  9  2  0  0  0
  9 10  1  0  0  0
 10 21  1  0  0  0
 21 22  1  0  0  0
M  END
> <minimizedAffinity>
-7.31819

$$$$
