CHEMBL3671571


 41 44  0  0  0  0  0  0  0  0999 V2000
  -17.9845    1.1936  -14.8984 C   0  0  0  0  0  0  0  0  0  0  0  0
  -19.2748    0.6496  -14.8272 C   0  0  0  0  0  0  0  0  0  0  0  0
  -20.4133    1.4666  -14.6307 C   0  0  0  0  0  0  0  0  0  0  0  0
  -21.7017    1.0082  -14.3009 C   0  0  0  0  0  0  0  0  0  0  0  0
  -22.7410    1.8563  -14.1546 N   0  0  0  0  0  0  0  0  0  0  0  0
  -22.4953    3.1594  -14.3044 C   0  0  0  0  0  0  0  0  0  0  0  0
  -21.3012    3.7017  -14.5501 N   0  0  0  0  0  0  0  0  0  0  0  0
  -20.2772    2.8542  -14.6875 C   0  0  0  0  0  0  0  0  0  0  0  0
  -19.0106    3.3812  -14.8704 C   0  0  0  0  0  0  0  0  0  0  0  0
  -17.8412    2.5920  -14.9203 C   0  0  0  0  0  0  0  0  0  0  0  0
  -16.0874    0.0416  -13.8519 C   0  0  0  0  0  0  0  0  0  0  0  0
  -16.1820    0.5663  -12.7497 O   0  0  0  0  0  0  0  0  0  0  0  0
  -16.9195    0.2587  -14.9376 N   0  0  0  0  0  0  0  0  0  0  0  0
  -17.1055   -0.5955  -15.4530 H   0  0  0  0  0  0  0  0  0  0  0  0
  -15.2090   -2.2760  -13.6241 C   0  0  0  0  0  0  0  0  0  0  0  0
  -15.0863   -1.0398  -14.1276 C   0  0  0  0  0  0  0  0  0  0  0  0
  -21.9008   -0.3693  -14.0008 N   0  0  0  0  0  0  0  0  0  0  0  0
  -21.6112   -0.9659  -14.7700 H   0  0  0  0  0  0  0  0  0  0  0  0
  -23.0282   -0.8671  -13.3046 C   0  0  0  0  0  0  0  0  0  0  0  0
  -22.9275   -1.1980  -11.9458 C   0  0  0  0  0  0  0  0  0  0  0  0
  -24.0607   -1.5103  -11.1962 C   0  0  0  0  0  0  0  0  0  0  0  0
  -25.3084   -1.5267  -11.8125 C   0  0  0  0  0  0  0  0  0  0  0  0
  -26.8579   -1.7801  -10.7603 Br  0  0  0  0  0  0  0  0  0  0  0  0
  -25.4225   -1.3082  -13.1834 C   0  0  0  0  0  0  0  0  0  0  0  0
  -24.2802   -0.9929  -13.9195 C   0  0  0  0  0  0  0  0  0  0  0  0
  -24.4025   -0.7522  -15.2348 F   0  0  0  0  0  0  0  0  0  0  0  0
  -16.5898    3.1677  -15.0593 O   0  0  0  0  0  0  0  0  0  0  0  0
  -16.5594    4.2230  -16.0387 C   0  0  0  0  0  0  0  0  0  0  0  0
  -15.3798    4.1330  -16.9952 C   0  0  0  0  0  0  0  0  0  0  0  0
  -15.0637    5.4559  -17.5331 N   0  0  0  0  0  0  0  0  0  0  0  0
  -14.5594    5.6318  -18.8054 C   0  0  0  0  0  0  0  0  0  0  0  0
  -14.3843    4.7117  -19.5812 O   0  0  0  0  0  0  0  0  0  0  0  0
  -15.2969    6.2918  -17.0058 H   0  0  0  0  0  0  0  0  0  0  0  0
  -14.2628    7.0942  -19.1962 C   0  0  0  0  0  0  0  0  0  0  0  0
  -15.4753    7.8170  -19.6508 N   0  0  0  0  0  0  0  0  0  0  0  0
  -15.2793    9.2835  -19.6032 C   0  0  0  0  0  0  0  0  0  0  0  0
  -16.5365   10.0320  -20.0928 C   0  0  0  0  0  0  0  0  0  0  0  0
  -16.9604    9.6832  -21.4603 N   0  0  0  0  0  0  0  0  0  0  0  0
  -16.0706   10.2731  -22.4576 C   0  0  0  0  0  0  0  0  0  0  0  0
  -17.0331    8.2131  -21.5863 C   0  0  0  0  0  0  0  0  0  0  0  0
  -15.7997    7.4398  -21.0507 C   0  0  0  0  0  0  0  0  0  0  0  0
 15 16  2  0  0  0
 16 11  1  0  0  0
 11 12  2  0  0  0
 11 13  1  0  0  0
 13  1  1  0  0  0
 13 14  1  0  0  0
  1  2  1  0  0  0
  1 10  2  0  0  0
  2  3  2  0  0  0
  3  4  1  0  0  0
  3  8  1  0  0  0
  4 17  1  0  0  0
  4  5  2  0  0  0
 17 19  1  0  0  0
 17 18  1  0  0  0
 19 20  1  0  0  0
 19 25  2  0  0  0
 20 21  2  0  0  0
 21 22  1  0  0  0
 22 23  1  0  0  0
 22 24  2  0  0  0
 24 25  1  0  0  0
 25 26  1  0  0  0
  5  6  1  0  0  0
  6  7  2  0  0  0
  7  8  1  0  0  0
  8  9  2  0  0  0
  9 10  1  0  0  0
 10 27  1  0  0  0
 27 28  1  0  0  0
 28 29  1  0  0  0
 29 30  1  0  0  0
 30 31  1  0  0  0
 30 33  1  0  0  0
 31 32  2  0  0  0
 31 34  1  0  0  0
 34 35  1  0  0  0
 35 36  1  0  0  0
 35 41  1  0  0  0
 36 37  1  0  0  0
 37 38  1  0  0  0
 38 39  1  0  0  0
 38 40  1  0  0  0
 40 41  1  0  0  0
M  END
> <minimizedAffinity>
-9.41427

$$$$
