CHEMBL4110384


 39 42  0  0  0  0  0  0  0  0999 V2000
  -27.2621  -10.3367   -8.1938 C   0  0  0  0  0  0  0  0  0  0  0  0
  -27.1683   -9.7020   -6.9931 N   0  0  0  0  0  0  0  0  0  0  0  0
  -27.9463   -8.6308   -6.7640 C   0  0  0  0  0  0  0  0  0  0  0  0
  -28.8160   -8.1540   -7.6553 N   0  0  0  0  0  0  0  0  0  0  0  0
  -28.8961   -8.7855   -8.8322 C   0  0  0  0  0  0  0  0  0  0  0  0
  -28.1451   -9.8908   -9.1675 C   0  0  0  0  0  0  0  0  0  0  0  0
  -28.3785  -10.4452  -10.5307 C   0  0  0  0  0  0  0  0  0  0  0  0
  -28.6139  -11.7787  -10.5963 F   0  0  0  0  0  0  0  0  0  0  0  0
  -29.4461   -9.8515  -11.1366 F   0  0  0  0  0  0  0  0  0  0  0  0
  -27.3216  -10.2188  -11.3621 F   0  0  0  0  0  0  0  0  0  0  0  0
  -27.7343   -7.9435   -5.5640 N   0  0  0  0  0  0  0  0  0  0  0  0
  -26.7390   -7.8137   -5.4567 H   0  0  0  0  0  0  0  0  0  0  0  0
  -28.6205   -7.1530   -4.9265 C   0  0  0  0  0  0  0  0  0  0  0  0
  -29.4403   -7.4025   -3.8091 C   0  0  0  0  0  0  0  0  0  0  0  0
  -30.2546   -6.3763   -3.5363 N   0  0  0  0  0  0  0  0  0  0  0  0
  -29.9864   -5.4869   -4.5148 N   0  0  0  0  0  0  0  0  0  0  0  0
  -28.9434   -5.8760   -5.3192 C   0  0  0  0  0  0  0  0  0  0  0  0
  -30.7602   -4.2478   -4.6054 C   0  0  0  0  0  0  0  0  0  0  0  0
  -30.5825   -3.5011   -5.9356 C   0  0  0  0  0  0  0  0  0  0  0  0
  -29.1620   -2.9568   -6.0817 C   0  0  0  0  0  0  0  0  0  0  0  0
  -28.7051   -2.1499   -4.9390 N   0  0  0  0  0  0  0  0  0  0  0  0
  -27.2511   -1.9539   -5.0474 C   0  0  0  0  0  0  0  0  0  0  0  0
  -29.0192   -2.7065   -3.6189 C   0  0  0  0  0  0  0  0  0  0  0  0
  -30.4465   -3.2402   -3.4935 C   0  0  0  0  0  0  0  0  0  0  0  0
  -26.2165  -11.4097   -8.4511 C   0  0  0  0  0  0  0  0  0  0  0  0
  -25.6700  -12.1474   -7.2011 C   0  0  0  0  0  0  0  0  0  0  0  0
  -23.6502  -11.6380   -5.6419 C   0  0  0  0  0  0  0  0  0  0  0  0
  -22.2574  -11.4387   -5.4908 C   0  0  0  0  0  0  0  0  0  0  0  0
  -21.3806  -11.5766   -6.5602 C   0  0  0  0  0  0  0  0  0  0  0  0
  -21.8816  -11.9057   -7.8092 C   0  0  0  0  0  0  0  0  0  0  0  0
  -23.2560  -12.0929   -7.9853 C   0  0  0  0  0  0  0  0  0  0  0  0
  -24.1709  -11.9903   -6.9174 C   0  0  0  0  0  0  0  0  0  0  0  0
  -23.7349  -11.9660   -3.1050 C   0  0  0  0  0  0  0  0  0  0  0  0
  -24.4798  -11.5077   -4.3633 C   0  0  0  0  0  0  0  0  0  0  0  0
  -25.1557  -10.1348   -4.2453 C   0  0  0  0  0  0  0  0  0  0  0  0
  -24.5592   -9.1261   -4.9618 N   0  0  0  0  0  0  0  0  0  0  0  0
  -26.1871   -9.9136   -3.6290 O   0  0  0  0  0  0  0  0  0  0  0  0
  -23.5958   -9.2023   -5.2726 H   0  0  0  0  0  0  0  0  0  0  0  0
  -24.9453   -8.2038   -4.8517 H   0  0  0  0  0  0  0  0  0  0  0  0
 33 34  1  0  0  0
 34 35  1  0  0  0
 34 27  1  0  0  0
 35 36  1  0  0  0
 35 37  2  0  0  0
 36 38  1  0  0  0
 36 39  1  0  0  0
 27 28  1  0  0  0
 27 32  2  0  0  0
 28 29  2  0  0  0
 29 30  1  0  0  0
 30 31  2  0  0  0
 31 32  1  0  0  0
 32 26  1  0  0  0
 26 25  1  0  0  0
 25  1  1  0  0  0
  1  2  1  0  0  0
  1  6  2  0  0  0
  2  3  2  0  0  0
  3 11  1  0  0  0
  3  4  1  0  0  0
 11 13  1  0  0  0
 11 12  1  0  0  0
 13 14  1  0  0  0
 13 17  2  0  0  0
 14 15  2  0  0  0
 15 16  1  0  0  0
 16 18  1  0  0  0
 16 17  1  0  0  0
 18 19  1  0  0  0
 18 24  1  0  0  0
 19 20  1  0  0  0
 20 21  1  0  0  0
 21 22  1  0  0  0
 21 23  1  0  0  0
 23 24  1  0  0  0
  4  5  2  0  0  0
  5  6  1  0  0  0
  6  7  1  0  0  0
  7  8  1  0  0  0
  7  9  1  0  0  0
  7 10  1  0  0  0
M  END
> <minimizedAffinity>
-8.54055

$$$$
