CHEMBL4101852


 39 42  0  0  0  0  0  0  0  0999 V2000
  -26.6067   -1.6524  -10.3039 C   0  0  0  0  0  0  0  0  0  0  0  0
  -25.6990   -1.5742   -9.4802 O   0  0  0  0  0  0  0  0  0  0  0  0
  -27.9058   -2.0696  -10.0322 N   0  0  0  0  0  0  0  0  0  0  0  0
  -28.4881   -2.3320  -10.8194 H   0  0  0  0  0  0  0  0  0  0  0  0
  -24.7411   -0.4927  -13.4184 C   0  0  0  0  0  0  0  0  0  0  0  0
  -25.1073   -0.5925  -12.0625 C   0  0  0  0  0  0  0  0  0  0  0  0
  -26.2480   -1.3188  -11.7048 C   0  0  0  0  0  0  0  0  0  0  0  0
  -27.0427   -1.8967  -12.7046 C   0  0  0  0  0  0  0  0  0  0  0  0
  -26.6948   -1.7849  -14.0470 C   0  0  0  0  0  0  0  0  0  0  0  0
  -25.5291   -1.1028  -14.4179 C   0  0  0  0  0  0  0  0  0  0  0  0
  -25.1324   -1.1017  -15.8696 C   0  0  0  0  0  0  0  0  0  0  0  0
  -22.5187    0.7930  -14.0380 C   0  0  0  0  0  0  0  0  0  0  0  0
  -23.5234    0.1901  -13.7517 C   0  0  0  0  0  0  0  0  0  0  0  0
  -19.0382    1.6674  -15.0536 C   0  0  0  0  0  0  0  0  0  0  0  0
  -19.1593    3.0550  -14.9903 C   0  0  0  0  0  0  0  0  0  0  0  0
  -20.2945    3.7058  -14.6420 N   0  0  0  0  0  0  0  0  0  0  0  0
  -21.3608    2.9309  -14.3378 C   0  0  0  0  0  0  0  0  0  0  0  0
  -21.3458    1.5390  -14.3636 C   0  0  0  0  0  0  0  0  0  0  0  0
  -20.1579    0.8974  -14.7215 C   0  0  0  0  0  0  0  0  0  0  0  0
  -16.8025    1.7538  -15.8273 C   0  0  0  0  0  0  0  0  0  0  0  0
  -17.9118    0.9709  -15.3960 O   0  0  0  0  0  0  0  0  0  0  0  0
  -28.3532   -2.4410   -8.7388 C   0  0  0  0  0  0  0  0  0  0  0  0
  -29.1704   -3.5494   -8.5228 C   0  0  0  0  0  0  0  0  0  0  0  0
  -29.7106   -3.8106   -7.2662 C   0  0  0  0  0  0  0  0  0  0  0  0
  -29.4503   -2.9635   -6.1792 C   0  0  0  0  0  0  0  0  0  0  0  0
  -28.5719   -1.8719   -6.3545 C   0  0  0  0  0  0  0  0  0  0  0  0
  -28.0056   -1.6485   -7.6393 C   0  0  0  0  0  0  0  0  0  0  0  0
  -28.2384   -0.8688   -5.2614 C   0  0  0  0  0  0  0  0  0  0  0  0
  -27.7825   -1.3552   -4.0777 F   0  0  0  0  0  0  0  0  0  0  0  0
  -27.2638   -0.0022   -5.6652 F   0  0  0  0  0  0  0  0  0  0  0  0
  -29.3124   -0.0837   -4.9525 F   0  0  0  0  0  0  0  0  0  0  0  0
  -30.1784   -3.2469   -4.8820 C   0  0  0  0  0  0  0  0  0  0  0  0
  -29.7460   -4.4923   -4.2525 N   0  0  0  0  0  0  0  0  0  0  0  0
  -30.7751   -5.5386   -4.1767 C   0  0  0  0  0  0  0  0  0  0  0  0
  -30.2339   -6.7889   -3.4426 C   0  0  0  0  0  0  0  0  0  0  0  0
  -29.0039   -7.3634   -4.0248 N   0  0  0  0  0  0  0  0  0  0  0  0
  -29.2837   -8.0409   -5.2876 C   0  0  0  0  0  0  0  0  0  0  0  0
  -28.0034   -6.2891   -4.1943 C   0  0  0  0  0  0  0  0  0  0  0  0
  -28.5271   -5.0128   -4.8935 C   0  0  0  0  0  0  0  0  0  0  0  0
 20 21  1  0  0  0
 21 14  1  0  0  0
 14 15  1  0  0  0
 14 19  2  0  0  0
 15 16  2  0  0  0
 16 17  1  0  0  0
 17 18  2  0  0  0
 18 12  1  0  0  0
 18 19  1  0  0  0
 12 13  3  0  0  0
 13  5  1  0  0  0
  5  6  1  0  0  0
  5 10  2  0  0  0
  6  7  2  0  0  0
  7  1  1  0  0  0
  7  8  1  0  0  0
  1  2  2  0  0  0
  1  3  1  0  0  0
  3 22  1  0  0  0
  3  4  1  0  0  0
 22 23  1  0  0  0
 22 27  2  0  0  0
 23 24  2  0  0  0
 24 25  1  0  0  0
 25 32  1  0  0  0
 25 26  2  0  0  0
 32 33  1  0  0  0
 33 34  1  0  0  0
 33 39  1  0  0  0
 34 35  1  0  0  0
 35 36  1  0  0  0
 36 37  1  0  0  0
 36 38  1  0  0  0
 38 39  1  0  0  0
 26 28  1  0  0  0
 26 27  1  0  0  0
 28 29  1  0  0  0
 28 30  1  0  0  0
 28 31  1  0  0  0
  8  9  2  0  0  0
  9 10  1  0  0  0
 10 11  1  0  0  0
M  END
> <minimizedAffinity>
-11.93132

$$$$
