CHEMBL3939588


 44 48  0  0  0  0  0  0  0  0999 V2000
  -21.7075    0.0646  -14.1937 N   0  0  0  0  0  0  0  0  0  0  0  0
  -20.9408   -0.5983  -14.1674 H   0  0  0  0  0  0  0  0  0  0  0  0
  -17.5798    0.7374  -15.0319 C   0  0  0  0  0  0  0  0  0  0  0  0
  -18.9378    0.4935  -14.8422 C   0  0  0  0  0  0  0  0  0  0  0  0
  -19.8747    1.5463  -14.7583 C   0  0  0  0  0  0  0  0  0  0  0  0
  -21.2450    1.3604  -14.5102 C   0  0  0  0  0  0  0  0  0  0  0  0
  -22.1180    2.3789  -14.5234 N   0  0  0  0  0  0  0  0  0  0  0  0
  -21.6084    3.5915  -14.7443 C   0  0  0  0  0  0  0  0  0  0  0  0
  -20.3160    3.8891  -14.9447 N   0  0  0  0  0  0  0  0  0  0  0  0
  -19.4614    2.8651  -14.9550 C   0  0  0  0  0  0  0  0  0  0  0  0
  -18.1184    3.0990  -15.2175 C   0  0  0  0  0  0  0  0  0  0  0  0
  -17.1785    2.0616  -15.2962 C   0  0  0  0  0  0  0  0  0  0  0  0
  -15.9228   -0.5230  -13.7941 C   0  0  0  0  0  0  0  0  0  0  0  0
  -16.6470   -0.2605  -14.9937 O   0  0  0  0  0  0  0  0  0  0  0  0
  -15.9296    2.5132  -15.6744 O   0  0  0  0  0  0  0  0  0  0  0  0
  -15.8404    3.9237  -15.8462 C   0  0  0  0  0  0  0  0  0  0  0  0
  -14.5101    4.3916  -16.4645 C   0  0  0  0  0  0  0  0  0  0  0  0
  -13.5357    4.7382  -15.4007 N   0  0  0  0  0  0  0  0  0  0  0  0
  -12.7446    3.5735  -14.9831 C   0  0  0  0  0  0  0  0  0  0  0  0
  -11.7756    3.9357  -13.8497 C   0  0  0  0  0  0  0  0  0  0  0  0
  -10.8733    5.1025  -14.2355 C   0  0  0  0  0  0  0  0  0  0  0  0
  -11.7180    6.2796  -14.6865 C   0  0  0  0  0  0  0  0  0  0  0  0
  -12.6777    5.8668  -15.7947 C   0  0  0  0  0  0  0  0  0  0  0  0
  -22.8360   -0.3231  -13.4541 C   0  0  0  0  0  0  0  0  0  0  0  0
  -22.6821   -0.6024  -12.0949 C   0  0  0  0  0  0  0  0  0  0  0  0
  -23.7045   -1.2125  -11.3654 C   0  0  0  0  0  0  0  0  0  0  0  0
  -24.8953   -1.6080  -11.9789 C   0  0  0  0  0  0  0  0  0  0  0  0
  -25.0830   -1.2590  -13.3250 C   0  0  0  0  0  0  0  0  0  0  0  0
  -26.5332   -1.6878  -14.1683 Cl  0  0  0  0  0  0  0  0  0  0  0  0
  -24.0628   -0.6289  -14.0518 C   0  0  0  0  0  0  0  0  0  0  0  0
  -25.8703   -2.3944  -11.3043 N   0  0  0  0  0  0  0  0  0  0  0  0
  -26.5157   -2.0295  -10.1315 C   0  0  0  0  0  0  0  0  0  0  0  0
  -26.3911   -0.9450   -9.5770 O   0  0  0  0  0  0  0  0  0  0  0  0
  -27.2661   -3.0648   -9.5989 N   0  0  0  0  0  0  0  0  0  0  0  0
  -25.9718   -3.3469  -11.6291 H   0  0  0  0  0  0  0  0  0  0  0  0
  -26.8961   -3.9864   -9.7718 H   0  0  0  0  0  0  0  0  0  0  0  0
  -27.9428   -2.8903   -8.3677 C   0  0  0  0  0  0  0  0  0  0  0  0
  -28.7908   -3.9007   -7.9257 C   0  0  0  0  0  0  0  0  0  0  0  0
  -29.4213   -3.7878   -6.6849 C   0  0  0  0  0  0  0  0  0  0  0  0
  -29.2669   -2.6389   -5.8906 C   0  0  0  0  0  0  0  0  0  0  0  0
  -30.0027   -2.5584   -4.5817 C   0  0  0  0  0  0  0  0  0  0  0  0
  -28.4387   -1.5969   -6.3486 C   0  0  0  0  0  0  0  0  0  0  0  0
  -28.2377   -0.3135   -5.5861 C   0  0  0  0  0  0  0  0  0  0  0  0
  -27.7717   -1.7452   -7.5800 C   0  0  0  0  0  0  0  0  0  0  0  0
 13 14  1  0  0  0
 14  3  1  0  0  0
  3  4  1  0  0  0
  3 12  2  0  0  0
  4  5  2  0  0  0
  5  6  1  0  0  0
  5 10  1  0  0  0
  6  1  1  0  0  0
  6  7  2  0  0  0
  1 24  1  0  0  0
  1  2  1  0  0  0
 24 25  1  0  0  0
 24 30  2  0  0  0
 25 26  2  0  0  0
 26 27  1  0  0  0
 27 31  1  0  0  0
 27 28  2  0  0  0
 31 32  1  0  0  0
 31 35  1  0  0  0
 32 33  2  0  0  0
 32 34  1  0  0  0
 34 37  1  0  0  0
 34 36  1  0  0  0
 37 38  1  0  0  0
 37 44  2  0  0  0
 38 39  2  0  0  0
 39 40  1  0  0  0
 40 41  1  0  0  0
 40 42  2  0  0  0
 42 43  1  0  0  0
 42 44  1  0  0  0
 28 29  1  0  0  0
 28 30  1  0  0  0
  7  8  1  0  0  0
  8  9  2  0  0  0
  9 10  1  0  0  0
 10 11  2  0  0  0
 11 12  1  0  0  0
 12 15  1  0  0  0
 15 16  1  0  0  0
 16 17  1  0  0  0
 17 18  1  0  0  0
 18 19  1  0  0  0
 18 23  1  0  0  0
 19 20  1  0  0  0
 20 21  1  0  0  0
 21 22  1  0  0  0
 22 23  1  0  0  0
M  END
> <minimizedAffinity>
-11.25352

$$$$
