CHEMBL386996


 38 42  0  0  0  0  0  0  0  0999 V2000
  -29.9523   -7.6675   -5.9162 C   0  0  0  0  0  0  0  0  0  0  0  0
  -29.3577   -8.6249   -5.1165 C   0  0  0  0  0  0  0  0  0  0  0  0
  -28.3752   -9.4881   -5.5921 C   0  0  0  0  0  0  0  0  0  0  0  0
  -27.9099   -9.3437   -6.9333 C   0  0  0  0  0  0  0  0  0  0  0  0
  -26.8842  -10.0793   -7.5929 C   0  0  0  0  0  0  0  0  0  0  0  0
  -26.5285   -9.8334   -8.8694 N   0  0  0  0  0  0  0  0  0  0  0  0
  -27.2003   -8.8837   -9.5149 C   0  0  0  0  0  0  0  0  0  0  0  0
  -28.1924   -8.1431   -9.0150 N   0  0  0  0  0  0  0  0  0  0  0  0
  -28.5328   -8.3774   -7.7482 C   0  0  0  0  0  0  0  0  0  0  0  0
  -29.5571   -7.5814   -7.2385 C   0  0  0  0  0  0  0  0  0  0  0  0
  -26.1866  -11.0874   -6.8991 N   0  0  0  0  0  0  0  0  0  0  0  0
  -26.7046  -11.3644   -6.0694 H   0  0  0  0  0  0  0  0  0  0  0  0
  -24.7951  -11.2366   -6.7385 C   0  0  0  0  0  0  0  0  0  0  0  0
  -23.9271  -11.7474   -7.7189 C   0  0  0  0  0  0  0  0  0  0  0  0
  -24.3901  -12.1098   -8.9255 F   0  0  0  0  0  0  0  0  0  0  0  0
  -22.5627  -11.9834   -7.4586 C   0  0  0  0  0  0  0  0  0  0  0  0
  -22.0232  -11.7194   -6.1994 C   0  0  0  0  0  0  0  0  0  0  0  0
  -22.8792  -11.2283   -5.2392 C   0  0  0  0  0  0  0  0  0  0  0  0
  -24.2144  -10.9950   -5.4996 C   0  0  0  0  0  0  0  0  0  0  0  0
  -24.8741  -10.5301   -4.3957 O   0  0  0  0  0  0  0  0  0  0  0  0
  -23.8387  -10.6403   -3.3982 C   0  0  0  0  0  0  0  0  0  0  0  0
  -22.5445  -10.9538   -3.9498 O   0  0  0  0  0  0  0  0  0  0  0  0
  -30.9238   -6.8090   -5.4714 O   0  0  0  0  0  0  0  0  0  0  0  0
  -30.6706   -6.2597   -4.1672 C   0  0  0  0  0  0  0  0  0  0  0  0
  -30.7261   -4.7370   -4.2180 C   0  0  0  0  0  0  0  0  0  0  0  0
  -28.0052   -0.0396   -6.6335 C   0  0  0  0  0  0  0  0  0  0  0  0
  -28.0033   -1.5100   -6.9567 C   0  0  0  0  0  0  0  0  0  0  0  0
  -27.2681   -1.9451   -7.8420 O   0  0  0  0  0  0  0  0  0  0  0  0
  -28.8238   -2.3262   -6.2003 N   0  0  0  0  0  0  0  0  0  0  0  0
  -29.7413   -1.8873   -5.1442 C   0  0  0  0  0  0  0  0  0  0  0  0
  -29.4586   -2.6365   -3.8273 C   0  0  0  0  0  0  0  0  0  0  0  0
  -29.4146   -4.1111   -3.9564 N   0  0  0  0  0  0  0  0  0  0  0  0
  -28.4559   -4.4715   -5.0275 C   0  0  0  0  0  0  0  0  0  0  0  0
  -28.7416   -3.7789   -6.3754 C   0  0  0  0  0  0  0  0  0  0  0  0
  -27.8451  -10.4642   -4.7754 O   0  0  0  0  0  0  0  0  0  0  0  0
  -28.6028  -11.6697   -4.5097 C   0  0  0  0  0  0  0  0  0  0  0  0
  -29.2944  -11.6581   -3.1338 C   0  0  0  0  0  0  0  0  0  0  0  0
  -29.4936  -12.1403   -5.6760 C   0  0  0  0  0  0  0  0  0  0  0  0
 26 27  1  0  0  0
 27 28  2  0  0  0
 27 29  1  0  0  0
 29 30  1  0  0  0
 29 34  1  0  0  0
 30 31  1  0  0  0
 31 32  1  0  0  0
 32 25  1  0  0  0
 32 33  1  0  0  0
 25 24  1  0  0  0
 24 23  1  0  0  0
 23  1  1  0  0  0
  1  2  1  0  0  0
  1 10  2  0  0  0
  2  3  2  0  0  0
  3 35  1  0  0  0
  3  4  1  0  0  0
 35 36  1  0  0  0
 36 37  1  0  0  0
 36 38  1  0  0  0
  4  5  1  0  0  0
  4  9  2  0  0  0
  5 11  1  0  0  0
  5  6  2  0  0  0
 11 13  1  0  0  0
 11 12  1  0  0  0
 13 14  1  0  0  0
 13 19  2  0  0  0
 14 15  1  0  0  0
 14 16  2  0  0  0
 16 17  1  0  0  0
 17 18  2  0  0  0
 18 19  1  0  0  0
 18 22  1  0  0  0
 19 20  1  0  0  0
 20 21  1  0  0  0
 21 22  1  0  0  0
  6  7  1  0  0  0
  7  8  2  0  0  0
  8  9  1  0  0  0
  9 10  1  0  0  0
 33 34  1  0  0  0
M  END
> <minimizedAffinity>
-8.13308

$$$$
