CHEMBL3694699


 33 36  0  0  0  0  0  0  0  0999 V2000
  -25.1203   -1.1601  -11.9533 C   0  0  0  0  0  0  0  0  0  0  0  0
  -25.9824   -1.5582  -12.9758 C   0  0  0  0  0  0  0  0  0  0  0  0
  -27.2926   -1.9232  -12.6799 C   0  0  0  0  0  0  0  0  0  0  0  0
  -28.3475   -2.4231  -13.9452 Cl  0  0  0  0  0  0  0  0  0  0  0  0
  -27.7620   -1.8828  -11.3706 C   0  0  0  0  0  0  0  0  0  0  0  0
  -26.9140   -1.5112  -10.3164 C   0  0  0  0  0  0  0  0  0  0  0  0
  -25.5797   -1.1888  -10.6237 C   0  0  0  0  0  0  0  0  0  0  0  0
  -27.4552   -1.5013   -8.9475 C   0  0  0  0  0  0  0  0  0  0  0  0
  -27.5555   -0.4282   -8.0708 C   0  0  0  0  0  0  0  0  0  0  0  0
  -28.0555   -0.7900   -6.8532 N   0  0  0  0  0  0  0  0  0  0  0  0
  -28.2614   -2.0838   -6.9400 C   0  0  0  0  0  0  0  0  0  0  0  0
  -28.7610   -2.9988   -5.9680 C   0  0  0  0  0  0  0  0  0  0  0  0
  -28.9093   -4.3158   -6.2529 C   0  0  0  0  0  0  0  0  0  0  0  0
  -28.5159   -4.7913   -7.5903 C   0  0  0  0  0  0  0  0  0  0  0  0
  -28.0238   -3.9383   -8.5035 C   0  0  0  0  0  0  0  0  0  0  0  0
  -27.9103   -2.5824   -8.1951 N   0  0  0  0  0  0  0  0  0  0  0  0
  -29.4588   -5.2363   -5.2176 C   0  0  0  0  0  0  0  0  0  0  0  0
  -28.7214   -6.2968   -4.8337 N   0  0  0  0  0  0  0  0  0  0  0  0
  -29.2490   -7.0831   -3.8762 C   0  0  0  0  0  0  0  0  0  0  0  0
  -30.4702   -6.8519   -3.2915 C   0  0  0  0  0  0  0  0  0  0  0  0
  -31.1478   -5.7509   -3.7542 C   0  0  0  0  0  0  0  0  0  0  0  0
  -30.6710   -4.9315   -4.7104 N   0  0  0  0  0  0  0  0  0  0  0  0
  -23.9562    0.0298  -14.3951 O   0  0  0  0  0  0  0  0  0  0  0  0
  -23.3252   -0.1712  -13.3677 C   0  0  0  0  0  0  0  0  0  0  0  0
  -22.0010    0.1980  -13.2592 N   0  0  0  0  0  0  0  0  0  0  0  0
  -23.7988   -0.7139  -12.1940 N   0  0  0  0  0  0  0  0  0  0  0  0
  -21.4394   -0.3646  -12.6350 H   0  0  0  0  0  0  0  0  0  0  0  0
  -23.2056   -0.5939  -11.3866 H   0  0  0  0  0  0  0  0  0  0  0  0
  -21.3197    0.7187  -14.4533 C   0  0  0  0  0  0  0  0  0  0  0  0
  -21.1544    2.2449  -14.5053 C   0  0  0  0  0  0  0  0  0  0  0  0
  -22.2972    2.8897  -14.1745 F   0  0  0  0  0  0  0  0  0  0  0  0
  -20.1712    2.6843  -13.6942 F   0  0  0  0  0  0  0  0  0  0  0  0
  -20.8416    2.6312  -15.7680 F   0  0  0  0  0  0  0  0  0  0  0  0
 23 24  2  0  0  0
 24 25  1  0  0  0
 24 26  1  0  0  0
 25 29  1  0  0  0
 25 27  1  0  0  0
 29 30  1  0  0  0
 30 31  1  0  0  0
 30 32  1  0  0  0
 30 33  1  0  0  0
 26  1  1  0  0  0
 26 28  1  0  0  0
  1  2  1  0  0  0
  1  7  2  0  0  0
  2  3  2  0  0  0
  3  4  1  0  0  0
  3  5  1  0  0  0
  5  6  2  0  0  0
  6  8  1  0  0  0
  6  7  1  0  0  0
  8  9  2  0  0  0
  8 16  1  0  0  0
  9 10  1  0  0  0
 10 11  2  0  0  0
 11 12  1  0  0  0
 11 16  1  0  0  0
 12 13  2  0  0  0
 13 17  1  0  0  0
 13 14  1  0  0  0
 17 18  1  0  0  0
 17 22  2  0  0  0
 18 19  2  0  0  0
 19 20  1  0  0  0
 20 21  2  0  0  0
 21 22  1  0  0  0
 14 15  2  0  0  0
 15 16  1  0  0  0
M  END
> <minimizedAffinity>
-9.53193

$$$$
