CHEMBL3656087


 45 48  0  0  0  0  0  0  0  0999 V2000
  -22.0622    0.7238  -14.3197 C   0  0  0  0  0  0  0  0  0  0  0  0
  -22.8190    1.8300  -13.9496 C   0  0  0  0  0  0  0  0  0  0  0  0
  -22.1975    3.0661  -13.9278 C   0  0  0  0  0  0  0  0  0  0  0  0
  -20.9162    3.2725  -14.3016 N   0  0  0  0  0  0  0  0  0  0  0  0
  -20.2178    2.1863  -14.7205 C   0  0  0  0  0  0  0  0  0  0  0  0
  -20.7478    0.9055  -14.7358 C   0  0  0  0  0  0  0  0  0  0  0  0
  -18.8651    2.4762  -15.1734 C   0  0  0  0  0  0  0  0  0  0  0  0
  -17.8141    1.6420  -15.5201 C   0  0  0  0  0  0  0  0  0  0  0  0
  -16.6865    2.4375  -15.8874 C   0  0  0  0  0  0  0  0  0  0  0  0
  -17.1070    3.7516  -15.7701 C   0  0  0  0  0  0  0  0  0  0  0  0
  -18.4098    3.7629  -15.3519 N   0  0  0  0  0  0  0  0  0  0  0  0
  -18.9813    4.5822  -15.1789 H   0  0  0  0  0  0  0  0  0  0  0  0
  -15.3438    2.0284  -16.2988 C   0  0  0  0  0  0  0  0  0  0  0  0
  -14.5900    2.7713  -16.9205 O   0  0  0  0  0  0  0  0  0  0  0  0
  -14.9854    0.7521  -15.9198 N   0  0  0  0  0  0  0  0  0  0  0  0
  -15.6385    0.1765  -15.4079 H   0  0  0  0  0  0  0  0  0  0  0  0
  -13.6833    0.1981  -16.2072 C   0  0  0  0  0  0  0  0  0  0  0  0
  -12.8209    0.0600  -14.9497 C   0  0  0  0  0  0  0  0  0  0  0  0
  -12.4523    1.3896  -14.2963 C   0  0  0  0  0  0  0  0  0  0  0  0
  -13.1185    1.5562  -12.9564 C   0  0  0  0  0  0  0  0  0  0  0  0
  -12.6404    2.2119  -12.0426 O   0  0  0  0  0  0  0  0  0  0  0  0
  -14.3244    0.9564  -12.8714 O   0  0  0  0  0  0  0  0  0  0  0  0
  -14.5896    0.4697  -13.6749 H   0  0  0  0  0  0  0  0  0  0  0  0
  -22.5322   -0.5699  -14.3757 O   0  0  0  0  0  0  0  0  0  0  0  0
  -25.9254   -1.5736  -12.1592 C   0  0  0  0  0  0  0  0  0  0  0  0
  -24.7139   -1.2593  -11.5327 C   0  0  0  0  0  0  0  0  0  0  0  0
  -23.5925   -0.9368  -12.3049 C   0  0  0  0  0  0  0  0  0  0  0  0
  -23.6812   -0.9108  -13.7001 C   0  0  0  0  0  0  0  0  0  0  0  0
  -24.9054   -1.1584  -14.3225 C   0  0  0  0  0  0  0  0  0  0  0  0
  -25.9984   -1.5388  -13.5513 C   0  0  0  0  0  0  0  0  0  0  0  0
  -27.1601   -1.8210  -14.1622 F   0  0  0  0  0  0  0  0  0  0  0  0
  -28.2410   -2.2979   -9.4697 N   0  0  0  0  0  0  0  0  0  0  0  0
  -27.0235   -1.9532  -10.0354 C   0  0  0  0  0  0  0  0  0  0  0  0
  -26.0037   -1.6537   -9.4292 O   0  0  0  0  0  0  0  0  0  0  0  0
  -27.0925   -1.9016  -11.4219 N   0  0  0  0  0  0  0  0  0  0  0  0
  -29.0215   -2.3865  -10.1019 H   0  0  0  0  0  0  0  0  0  0  0  0
  -27.9348   -1.4614  -11.7693 H   0  0  0  0  0  0  0  0  0  0  0  0
  -28.0434   -0.0732   -5.0554 C   0  0  0  0  0  0  0  0  0  0  0  0
  -28.3862   -1.2733   -5.8913 C   0  0  0  0  0  0  0  0  0  0  0  0
  -28.8851   -2.4257   -5.2790 C   0  0  0  0  0  0  0  0  0  0  0  0
  -29.2377   -3.5248   -6.0514 C   0  0  0  0  0  0  0  0  0  0  0  0
  -29.0773   -3.4894   -7.4343 C   0  0  0  0  0  0  0  0  0  0  0  0
  -29.5671   -4.5390   -8.1044 F   0  0  0  0  0  0  0  0  0  0  0  0
  -28.5184   -2.3767   -8.0775 C   0  0  0  0  0  0  0  0  0  0  0  0
  -28.2066   -1.2542   -7.2899 C   0  0  0  0  0  0  0  0  0  0  0  0
 38 39  1  0  0  0
 39 40  1  0  0  0
 39 45  2  0  0  0
 40 41  2  0  0  0
 41 42  1  0  0  0
 42 43  1  0  0  0
 42 44  2  0  0  0
 44 32  1  0  0  0
 44 45  1  0  0  0
 32 33  1  0  0  0
 32 36  1  0  0  0
 33 34  2  0  0  0
 33 35  1  0  0  0
 35 25  1  0  0  0
 35 37  1  0  0  0
 25 26  1  0  0  0
 25 30  2  0  0  0
 26 27  2  0  0  0
 27 28  1  0  0  0
 28 24  1  0  0  0
 28 29  2  0  0  0
 24  1  1  0  0  0
  1  2  1  0  0  0
  1  6  2  0  0  0
  2  3  2  0  0  0
  3  4  1  0  0  0
  4  5  2  0  0  0
  5  7  1  0  0  0
  5  6  1  0  0  0
  7  8  2  0  0  0
  7 11  1  0  0  0
  8  9  1  0  0  0
  9 13  1  0  0  0
  9 10  2  0  0  0
 13 14  2  0  0  0
 13 15  1  0  0  0
 15 17  1  0  0  0
 15 16  1  0  0  0
 17 18  1  0  0  0
 18 19  1  0  0  0
 19 20  1  0  0  0
 20 21  2  0  0  0
 20 22  1  0  0  0
 22 23  1  0  0  0
 10 11  1  0  0  0
 11 12  1  0  0  0
 29 30  1  0  0  0
 30 31  1  0  0  0
M  END
> <minimizedAffinity>
-11.65033

$$$$
