CHEMBL178507


 27 29  0  0  0  0  0  0  0  0999 V2000
  -30.3198   -6.0179   -6.0116 N   0  0  0  0  0  0  0  0  0  0  0  0
  -31.3018   -6.1443   -6.2190 H   0  0  0  0  0  0  0  0  0  0  0  0
  -28.9428   -2.6578   -5.2084 C   0  0  0  0  0  0  0  0  0  0  0  0
  -29.4803   -2.4259   -3.9456 C   0  0  0  0  0  0  0  0  0  0  0  0
  -30.2917   -3.3997   -3.3523 C   0  0  0  0  0  0  0  0  0  0  0  0
  -30.5623   -4.6054   -4.0163 C   0  0  0  0  0  0  0  0  0  0  0  0
  -30.0326   -4.8290   -5.3047 C   0  0  0  0  0  0  0  0  0  0  0  0
  -29.2145   -3.8453   -5.8829 C   0  0  0  0  0  0  0  0  0  0  0  0
  -27.7977   -1.5077   -5.9308 S   0  0  0  0  0  0  0  0  0  0  0  0
  -27.4755   -2.0027   -7.2588 O   0  0  0  0  0  0  0  0  0  0  0  0
  -26.7523   -1.2780   -4.9563 O   0  0  0  0  0  0  0  0  0  0  0  0
  -28.4467    0.9574   -4.9700 C   0  0  0  0  0  0  0  0  0  0  0  0
  -28.7469   -0.0112   -6.0986 C   0  0  0  0  0  0  0  0  0  0  0  0
  -31.3088   -5.6286   -3.4828 O   0  0  0  0  0  0  0  0  0  0  0  0
  -32.5128   -5.2593   -2.8176 C   0  0  0  0  0  0  0  0  0  0  0  0
  -29.4832   -7.0671   -6.0731 C   0  0  0  0  0  0  0  0  0  0  0  0
  -28.8800   -7.7058   -5.0915 N   0  0  0  0  0  0  0  0  0  0  0  0
  -28.1602   -8.6810   -5.7211 C   0  0  0  0  0  0  0  0  0  0  0  0
  -28.3675   -8.6273   -7.0811 C   0  0  0  0  0  0  0  0  0  0  0  0
  -29.2075   -7.5656   -7.3177 O   0  0  0  0  0  0  0  0  0  0  0  0
  -27.9125   -9.4126   -8.2202 C   0  0  0  0  0  0  0  0  0  0  0  0
  -26.7369  -10.1777   -8.1207 C   0  0  0  0  0  0  0  0  0  0  0  0
  -26.2796  -10.9429   -9.1968 C   0  0  0  0  0  0  0  0  0  0  0  0
  -26.9946  -10.9555  -10.3908 C   0  0  0  0  0  0  0  0  0  0  0  0
  -28.1634  -10.2054  -10.5004 C   0  0  0  0  0  0  0  0  0  0  0  0
  -29.0478  -10.2251  -11.9770 Cl  0  0  0  0  0  0  0  0  0  0  0  0
  -28.6239   -9.4393   -9.4272 C   0  0  0  0  0  0  0  0  0  0  0  0
 12 13  1  0  0  0
 13  9  1  0  0  0
  9 10  2  0  0  0
  9 11  2  0  0  0
  9  3  1  0  0  0
  3  4  1  0  0  0
  3  8  2  0  0  0
  4  5  2  0  0  0
  5  6  1  0  0  0
  6 14  1  0  0  0
  6  7  2  0  0  0
 14 15  1  0  0  0
  7  1  1  0  0  0
  7  8  1  0  0  0
  1 16  1  0  0  0
  1  2  1  0  0  0
 16 17  2  0  0  0
 16 20  1  0  0  0
 17 18  1  0  0  0
 18 19  2  0  0  0
 19 21  1  0  0  0
 19 20  1  0  0  0
 21 22  1  0  0  0
 21 27  2  0  0  0
 22 23  2  0  0  0
 23 24  1  0  0  0
 24 25  2  0  0  0
 25 26  1  0  0  0
 25 27  1  0  0  0
M  END
> <minimizedAffinity>
-7.87314

$$$$
