CHEMBL576982


 42 47  0  0  0  0  0  0  0  0999 V2000
  -28.3891   -3.7695   -7.7684 C   0  0  0  0  0  0  0  0  0  0  0  0
  -28.1119   -3.7939   -6.4039 C   0  0  0  0  0  0  0  0  0  0  0  0
  -28.4398   -4.9076   -5.6337 C   0  0  0  0  0  0  0  0  0  0  0  0
  -29.0314   -6.0228   -6.2283 C   0  0  0  0  0  0  0  0  0  0  0  0
  -29.4379   -5.9377   -7.5676 C   0  0  0  0  0  0  0  0  0  0  0  0
  -29.1266   -4.8118   -8.3348 C   0  0  0  0  0  0  0  0  0  0  0  0
  -29.2333   -7.2550   -5.4906 C   0  0  0  0  0  0  0  0  0  0  0  0
  -29.9739   -8.3551   -5.9086 C   0  0  0  0  0  0  0  0  0  0  0  0
  -29.4767   -9.3558   -5.1238 N   0  0  0  0  0  0  0  0  0  0  0  0
  -28.8451   -8.7642   -4.0577 C   0  0  0  0  0  0  0  0  0  0  0  0
  -28.6135   -7.4967   -4.2778 N   0  0  0  0  0  0  0  0  0  0  0  0
  -27.8765   -9.8828   -3.1489 S   0  0  0  0  0  0  0  0  0  0  0  0
  -27.9411  -10.9235   -4.6116 C   0  0  0  0  0  0  0  0  0  0  0  0
  -26.8360  -11.5676   -5.1135 C   0  0  0  0  0  0  0  0  0  0  0  0
  -26.8307  -12.0033   -6.4507 C   0  0  0  0  0  0  0  0  0  0  0  0
  -27.9958  -11.8906   -7.2290 C   0  0  0  0  0  0  0  0  0  0  0  0
  -29.1045  -11.1833   -6.7468 C   0  0  0  0  0  0  0  0  0  0  0  0
  -28.9939  -10.6251   -5.4787 C   0  0  0  0  0  0  0  0  0  0  0  0
  -25.6960  -12.4651   -7.0984 O   0  0  0  0  0  0  0  0  0  0  0  0
  -24.8704  -11.3862   -7.5495 C   0  0  0  0  0  0  0  0  0  0  0  0
  -23.3770  -11.6938   -7.6082 C   0  0  0  0  0  0  0  0  0  0  0  0
  -22.5872  -10.6795   -6.8648 N   0  0  0  0  0  0  0  0  0  0  0  0
  -21.2269  -11.1791   -6.5652 C   0  0  0  0  0  0  0  0  0  0  0  0
  -21.1941  -12.2481   -5.4544 C   0  0  0  0  0  0  0  0  0  0  0  0
  -21.8398  -11.8052   -4.2518 O   0  0  0  0  0  0  0  0  0  0  0  0
  -23.1808  -11.3742   -4.5170 C   0  0  0  0  0  0  0  0  0  0  0  0
  -23.1792  -10.2575   -5.5688 C   0  0  0  0  0  0  0  0  0  0  0  0
  -27.2903   -0.6093   -9.2737 N   0  0  0  0  0  0  0  0  0  0  0  0
  -27.8630   -1.4183   -8.3317 C   0  0  0  0  0  0  0  0  0  0  0  0
  -28.2566   -0.8794   -7.2977 O   0  0  0  0  0  0  0  0  0  0  0  0
  -27.9185   -2.7561   -8.6185 N   0  0  0  0  0  0  0  0  0  0  0  0
  -27.2561    0.3610   -9.0015 H   0  0  0  0  0  0  0  0  0  0  0  0
  -27.3787   -3.0464   -9.4277 H   0  0  0  0  0  0  0  0  0  0  0  0
  -25.4688   -1.1879  -12.2411 C   0  0  0  0  0  0  0  0  0  0  0  0
  -25.4812   -0.7732  -10.9334 C   0  0  0  0  0  0  0  0  0  0  0  0
  -26.8209   -0.9481  -10.5156 C   0  0  0  0  0  0  0  0  0  0  0  0
  -27.5541   -1.4894  -11.4926 N   0  0  0  0  0  0  0  0  0  0  0  0
  -26.7136   -1.6335  -12.5706 O   0  0  0  0  0  0  0  0  0  0  0  0
  -23.5037   -2.4560  -13.1310 C   0  0  0  0  0  0  0  0  0  0  0  0
  -24.4408   -1.2508  -13.3319 C   0  0  0  0  0  0  0  0  0  0  0  0
  -23.5994    0.0369  -13.3213 C   0  0  0  0  0  0  0  0  0  0  0  0
  -25.1468   -1.3905  -14.6914 C   0  0  0  0  0  0  0  0  0  0  0  0
 39 40  1  0  0  0
 40 41  1  0  0  0
 40 42  1  0  0  0
 40 34  1  0  0  0
 34 35  2  0  0  0
 34 38  1  0  0  0
 35 36  1  0  0  0
 36 28  1  0  0  0
 36 37  2  0  0  0
 28 29  1  0  0  0
 28 32  1  0  0  0
 29 30  2  0  0  0
 29 31  1  0  0  0
 31  1  1  0  0  0
 31 33  1  0  0  0
  1  2  1  0  0  0
  1  6  2  0  0  0
  2  3  2  0  0  0
  3  4  1  0  0  0
  4  7  1  0  0  0
  4  5  2  0  0  0
  7  8  2  0  0  0
  7 11  1  0  0  0
  8  9  1  0  0  0
  9 10  1  0  0  0
  9 18  1  0  0  0
 10 11  2  0  0  0
 10 12  1  0  0  0
 12 13  1  0  0  0
 13 14  1  0  0  0
 13 18  2  0  0  0
 14 15  2  0  0  0
 15 19  1  0  0  0
 15 16  1  0  0  0
 19 20  1  0  0  0
 20 21  1  0  0  0
 21 22  1  0  0  0
 22 23  1  0  0  0
 22 27  1  0  0  0
 23 24  1  0  0  0
 24 25  1  0  0  0
 25 26  1  0  0  0
 26 27  1  0  0  0
 16 17  2  0  0  0
 17 18  1  0  0  0
  5  6  1  0  0  0
 37 38  1  0  0  0
M  END
> <minimizedAffinity>
-7.31014

$$$$
